
#######################################################################
#
#                 Cambridge Crystallographic Data Centre
#                                CCDC 
#
#######################################################################
#
# If this CIF has been generated from an entry in the Cambridge 
# Structural Database, then it will include bibliographic, chemical, 
# crystal, experimental, refinement or atomic coordinate data resulting 
# from the CCDC's data processing and validation procedures.
#
#######################################################################

data_UNUNEX
_chemical_formula_moiety         'C21 H15 N1 O3 S1'
_chemical_name_systematic        
Phenyl(1-(phenylsulfonyl)-1H-indol-2-yl)methanone
_symmetry_cell_setting           triclinic
_symmetry_space_group_name_H-M   'P -1'
_symmetry_Int_Tables_number      2
_space_group_name_Hall           '-P 1'
loop_
_symmetry_equiv_pos_site_id
_symmetry_equiv_pos_as_xyz
1 x,y,z
2 -x,-y,-z
_cell_length_a                   9.3291(6)
_cell_length_b                   11.1498(7)
_cell_length_c                   17.8134(10)
_cell_angle_alpha                89.433(3)
_cell_angle_beta                 81.623(2)
_cell_angle_gamma                71.993(3)
_cell_volume                     1742.13
_exptl_crystal_colour            white
_exptl_crystal_description       block
_cell_formula_units_Z            4
loop_
_atom_site_label
_atom_site_type_symbol
_atom_site_fract_x
_atom_site_fract_y
_atom_site_fract_z
C1 C 1.12210(18) 0.80297(15) 0.33999(9)
C4 C 1.1947(2) 0.67756(17) 0.31637(11)
H2 H 1.1406 0.6201 0.3160
C5 C 1.3500(2) 0.6420(2) 0.29356(11)
H3 H 1.4015 0.5585 0.2779
C8 C 1.4318(2) 0.7265(2) 0.29317(12)
H6 H 1.5367 0.6987 0.2777
C9 C 1.3603(2) 0.8508(2) 0.31527(11)
H7 H 1.4157 0.9074 0.3146
C11 C 1.20280(18) 0.89080(16) 0.33877(9)
C13 C 1.09697(19) 1.00924(16) 0.36680(10)
H9 H 1.1201 1.0840 0.3712
C16 C 0.95772(18) 0.99525(15) 0.38603(9)
C18 C 0.82428(18) 1.08384(16) 0.43345(9)
C20 C 0.79218(18) 1.22132(15) 0.42177(9)
C21 C 0.72410(19) 1.30446(17) 0.48355(10)
H11 H 0.7030 1.2735 0.5312
C24 C 0.6877(2) 1.43246(18) 0.47447(12)
H14 H 0.6452 1.4878 0.5163
C25 C 0.7142(2) 1.47895(18) 0.40350(14)
H15 H 0.6873 1.5656 0.3974
C28 C 0.7801(3) 1.39750(19) 0.34158(13)
H18 H 0.7972 1.4293 0.2938
C29 C 0.8211(2) 1.26808(17) 0.35029(10)
H19 H 0.8676 1.2130 0.3087
C31 C 0.78168(17) 0.77029(15) 0.46542(9)
C34 C 0.6358(2) 0.81398(18) 0.50410(11)
H22 H 0.5582 0.8697 0.4820
C36 C 0.6068(3) 0.7732(2) 0.57678(12)
H24 H 0.5088 0.8018 0.6039
C37 C 0.7221(3) 0.6908(2) 0.60898(11)
H25 H 0.7017 0.6646 0.6580
C39 C 0.8674(2) 0.64670(19) 0.56934(12)
H27 H 0.9447 0.5904 0.5913
C42 C 0.8978(2) 0.68629(17) 0.49705(10)
H30 H 0.9955 0.6568 0.4697
N1 N 0.96883(15) 0.86837(12) 0.36984(7)
O2 O 0.87435(16) 0.70347(13) 0.32343(7)
O4 O 0.69510(15) 0.91680(14) 0.35443(8)
O5 O 0.74722(15) 1.04506(12) 0.48283(7)
S2 S 0.81966(5) 0.81457(4) 0.37162(2)
C2 C 1.04606(17) 0.31674(14) 0.15061(8)
C3 C 1.1137(2) 0.19223(16) 0.16963(10)
H1 H 1.0634 0.1321 0.1694
C6 C 1.2583(2) 0.16248(19) 0.18871(10)
H4 H 1.3061 0.0802 0.2016
C7 C 1.3354(2) 0.25122(19) 0.18944(10)
H5 H 1.4333 0.2271 0.2022
C10 C 1.26861(18) 0.37364(18) 0.17157(10)
H8 H 1.3200 0.4330 0.1720
C12 C 1.12073(17) 0.40739(15) 0.15260(9)
C14 C 1.02433(17) 0.52315(15) 0.12936(9)
H10 H 1.0458 0.5993 0.1265
C15 C 0.89647(17) 0.50409(14) 0.11210(9)
C17 C 0.78298(17) 0.58882(14) 0.06981(9)
C19 C 0.74687(16) 0.72726(14) 0.08203(9)
C22 C 0.74584(19) 0.78266(15) 0.15170(9)
H12 H 0.7738 0.7326 0.1925
C23 C 0.7028(2) 0.91320(17) 0.16001(11)
H13 H 0.6983 0.9508 0.2070
C26 C 0.6669(2) 0.98698(16) 0.09905(12)
H16 H 0.6400 1.0743 0.1047
C27 C 0.67055(19) 0.93190(16) 0.02912(11)
H17 H 0.6486 0.9820 -0.0124
C30 C 0.70660(17) 0.80322(15) 0.02128(9)
H20 H 0.7041 0.7666 -0.0250
C32 C 0.76892(17) 0.26929(14) 0.03053(9)
C33 C 0.64230(19) 0.31640(17) -0.00556(10)
H21 H 0.5545 0.3754 0.0191
C35 C 0.6491(2) 0.27381(19) -0.07907(11)
H23 H 0.5651 0.3047 -0.1042
C38 C 0.7790(2) 0.18625(18) -0.11532(10)
H26 H 0.7826 0.1588 -0.1649
C40 C 0.9040(2) 0.13900(17) -0.07847(11)
H28 H 0.9913 0.0793 -0.1031
C41 C 0.89966(18) 0.18017(15) -0.00517(10)
H29 H 0.9835 0.1485 0.0200
N2 N 0.90578(14) 0.37628(11) 0.12457(7)
O1 O 0.80070(16) 0.20614(12) 0.16827(7)
O3 O 0.62388(13) 0.41561(13) 0.14936(7)
O6 O 0.72679(15) 0.54592(11) 0.02333(7)
S1 S 0.76114(4) 0.31681(4) 0.12514(2)
loop_
_geom_bond_atom_site_label_1
_geom_bond_atom_site_label_2
_geom_bond_site_symmetry_1
_geom_bond_site_symmetry_2
C1 C4 1_555 1_555
C2 C3 1_555 1_555
C3 H1 1_555 1_555
C4 H2 1_555 1_555
C5 C4 1_555 1_555
H3 C5 1_555 1_555
C6 C3 1_555 1_555
H4 C6 1_555 1_555
C7 C6 1_555 1_555
H5 C7 1_555 1_555
C8 C5 1_555 1_555
H6 C8 1_555 1_555
C9 C8 1_555 1_555
H7 C9 1_555 1_555
C10 C7 1_555 1_555
H8 C10 1_555 1_555
C11 C1 1_555 1_555
C12 C2 1_555 1_555
C13 C11 1_555 1_555
H9 C13 1_555 1_555
C14 C12 1_555 1_555
H10 C14 1_555 1_555
C15 C14 1_555 1_555
C16 C13 1_555 1_555
C17 C15 1_555 1_555
C18 C16 1_555 1_555
C19 C17 1_555 1_555
C20 C18 1_555 1_555
C21 C20 1_555 1_555
H11 C21 1_555 1_555
C22 C19 1_555 1_555
H12 C22 1_555 1_555
C23 C22 1_555 1_555
H13 C23 1_555 1_555
C24 C21 1_555 1_555
H14 C24 1_555 1_555
C25 C24 1_555 1_555
H15 C25 1_555 1_555
C26 C23 1_555 1_555
H16 C26 1_555 1_555
C27 C26 1_555 1_555
H17 C27 1_555 1_555
C28 C25 1_555 1_555
H18 C28 1_555 1_555
C29 C20 1_555 1_555
H19 C29 1_555 1_555
C30 C19 1_555 1_555
H20 C30 1_555 1_555
C31 C34 1_555 1_555
C32 C33 1_555 1_555
C33 H21 1_555 1_555
C34 H22 1_555 1_555
C35 C33 1_555 1_555
H23 C35 1_555 1_555
C36 C34 1_555 1_555
H24 C36 1_555 1_555
C37 C36 1_555 1_555
H25 C37 1_555 1_555
C38 C35 1_555 1_555
H26 C38 1_555 1_555
C39 C37 1_555 1_555
H27 C39 1_555 1_555
C40 C38 1_555 1_555
H28 C40 1_555 1_555
C41 C32 1_555 1_555
H29 C41 1_555 1_555
C42 C31 1_555 1_555
H30 C42 1_555 1_555
N1 C1 1_555 1_555
N2 C2 1_555 1_555
O1 S1 1_555 1_555
O2 S2 1_555 1_555
O3 S1 1_555 1_555
O4 S2 1_555 1_555
O5 C18 1_555 1_555
O6 C17 1_555 1_555
S1 C32 1_555 1_555
S2 C31 1_555 1_555
C9 C11 1_555 1_555
C10 C12 1_555 1_555
C15 N2 1_555 1_555
C16 N1 1_555 1_555
C27 C30 1_555 1_555
C28 C29 1_555 1_555
C39 C42 1_555 1_555
C40 C41 1_555 1_555
N1 S2 1_555 1_555
N2 S1 1_555 1_555

#END
