
#######################################################################
#
#                 Cambridge Crystallographic Data Centre
#                                CCDC 
#
#######################################################################
#
# If this CIF has been generated from an entry in the Cambridge 
# Structural Database, then it will include bibliographic, chemical, 
# crystal, experimental, refinement or atomic coordinate data resulting 
# from the CCDC's data processing and validation procedures.
#
#######################################################################

data_UNUNAT
_chemical_name_common            
2-(4-Chlorophenyl)-1,5-diphenyl-3-tosylimidazolidin-4-one
_chemical_formula_moiety         'C28 H23 Cl1 N2 O3 S1'
_chemical_name_systematic        
2-(4-Chlorophenyl)-3-((4-methylphenyl)sulfonyl)-1,5-diphenylimidazolidin-4-one
_symmetry_cell_setting           monoclinic
_symmetry_space_group_name_H-M   'P 21/n'
_symmetry_Int_Tables_number      14
_space_group_name_Hall           '-P 2yn'
loop_
_symmetry_equiv_pos_site_id
_symmetry_equiv_pos_as_xyz
1 x,y,z
2 1/2-x,1/2+y,1/2-z
3 -x,-y,-z
4 1/2+x,1/2-y,1/2+z
_cell_length_a                   10.8458(3)
_cell_length_b                   13.0191(4)
_cell_length_c                   17.6720(5)
_cell_angle_alpha                90
_cell_angle_beta                 103.757(2)
_cell_angle_gamma                90
_cell_volume                     2423.75
_exptl_crystal_colour            colorless
_exptl_crystal_description       block
_cell_formula_units_Z            4
loop_
_atom_site_label
_atom_site_type_symbol
_atom_site_fract_x
_atom_site_fract_y
_atom_site_fract_z
C1 C 0.8204(2) 0.6211(2) -0.10561(13)
H1 H 0.8293 0.5757 -0.1468
H2 H 0.8843 0.6735 -0.0987
H3 H 0.7378 0.6523 -0.1188
C2 C 0.83550(16) 0.5610(2) -0.03116(10)
C3 C 0.87311(18) 0.60888(16) 0.03995(11)
H4 H 0.8903 0.6789 0.0417
C4 C 0.88600(16) 0.55548(13) 0.10884(10)
H5 H 0.9107 0.5892 0.1565
C5 C 0.86169(13) 0.45127(12) 0.10598(8)
C6 C 0.82418(16) 0.40127(16) 0.03542(10)
H6 H 0.8079 0.3311 0.0334
C7 C 0.81134(17) 0.4579(2) -0.03242(10)
H7 H 0.7855 0.4248 -0.0802
C8 C 0.65428(12) 0.31035(10) 0.20980(7)
H8 H 0.6929 0.2445 0.2291
C9 C 0.58939(12) 0.30175(10) 0.12399(8)
C10 C 0.51246(13) 0.37975(11) 0.08615(8)
H9 H 0.4942 0.4355 0.1145
C11 C 0.46242(14) 0.37599(12) 0.00672(9)
H10 H 0.4102 0.4284 -0.0184
C12 C 0.49087(14) 0.29372(12) -0.03472(8)
C13 C 0.56268(16) 0.21323(13) 0.00174(9)
H11 H 0.5782 0.1566 -0.0268
C14 C 0.61182(14) 0.21732(11) 0.08156(9)
H12 H 0.6602 0.1629 0.1068
C15 C 0.46241(13) 0.29610(11) 0.26339(8)
C16 C 0.43733(14) 0.19730(12) 0.23351(9)
H13 H 0.4952 0.1644 0.2104
C17 C 0.32626(16) 0.14799(14) 0.23816(10)
H14 H 0.3105 0.0818 0.2185
C18 C 0.23885(16) 0.19555(16) 0.27141(11)
H15 H 0.1638 0.1623 0.2735
C19 C 0.26360(15) 0.29236(15) 0.30142(10)
H16 H 0.2050 0.3246 0.3242
C20 C 0.37404(14) 0.34271(13) 0.29837(9)
H17 H 0.3898 0.4081 0.3197
C21 C 0.60120(14) 0.45092(11) 0.28719(8)
H18 H 0.5306 0.4961 0.2630
C22 C 0.63258(14) 0.46406(11) 0.37521(8)
C23 C 0.70564(19) 0.39176(15) 0.42268(10)
H19 H 0.7302 0.3321 0.4013
C24 C 0.7424(2) 0.40811(19) 0.50230(11)
H20 H 0.7914 0.3593 0.5344
C25 C 0.7067(2) 0.49587(19) 0.53377(11)
H21 H 0.7324 0.5070 0.5872
C26 C 0.6339(2) 0.56698(16) 0.48732(11)
H22 H 0.6089 0.6261 0.5092
C27 C 0.59660(18) 0.55168(13) 0.40753(10)
H23 H 0.5472 0.6007 0.3759
N1 N 0.75179(11) 0.39178(9) 0.22299(6)
N2 N 0.57393(11) 0.34697(10) 0.25969(7)
O1 O 0.98232(10) 0.43180(9) 0.25004(6)
O2 O 0.89588(10) 0.27584(9) 0.17703(7)
C28 C 0.71777(14) 0.47825(11) 0.25818(8)
S1 S 0.88693(3) 0.38196(3) 0.19302(2)
Cl1 Cl 0.43640(5) 0.29404(4) -0.13549(2)
O3 O 0.77172(11) 0.55951(8) 0.26593(7)
loop_
_geom_bond_atom_site_label_1
_geom_bond_atom_site_label_2
_geom_bond_site_symmetry_1
_geom_bond_site_symmetry_2
C1 H1 1_555 1_555
H2 C1 1_555 1_555
H3 C1 1_555 1_555
C2 C1 1_555 1_555
C3 C2 1_555 1_555
H4 C3 1_555 1_555
C4 C3 1_555 1_555
H5 C4 1_555 1_555
C5 C4 1_555 1_555
C6 C5 1_555 1_555
H6 C6 1_555 1_555
C7 C2 1_555 1_555
H7 C7 1_555 1_555
C8 H8 1_555 1_555
C9 C8 1_555 1_555
C10 C9 1_555 1_555
H9 C10 1_555 1_555
C11 C10 1_555 1_555
H10 C11 1_555 1_555
C12 C11 1_555 1_555
C13 C12 1_555 1_555
H11 C13 1_555 1_555
C14 C9 1_555 1_555
H12 C14 1_555 1_555
C15 C16 1_555 1_555
C16 H13 1_555 1_555
C17 C16 1_555 1_555
H14 C17 1_555 1_555
C18 C17 1_555 1_555
H15 C18 1_555 1_555
C19 C18 1_555 1_555
H16 C19 1_555 1_555
C20 C15 1_555 1_555
H17 C20 1_555 1_555
C21 H18 1_555 1_555
C22 C21 1_555 1_555
C23 C22 1_555 1_555
H19 C23 1_555 1_555
C24 C23 1_555 1_555
H20 C24 1_555 1_555
C25 C24 1_555 1_555
H21 C25 1_555 1_555
C26 C25 1_555 1_555
H22 C26 1_555 1_555
C27 C22 1_555 1_555
H23 C27 1_555 1_555
N1 C8 1_555 1_555
N2 C8 1_555 1_555
O1 S1 1_555 1_555
O2 S1 1_555 1_555
C28 C21 1_555 1_555
S1 C5 1_555 1_555
Cl1 C12 1_555 1_555
O3 C28 1_555 1_555
C6 C7 1_555 1_555
C13 C14 1_555 1_555
C15 N2 1_555 1_555
C19 C20 1_555 1_555
C21 N2 1_555 1_555
C26 C27 1_555 1_555
N1 C28 1_555 1_555
N1 S1 1_555 1_555

#END
