
#######################################################################
#
#                 Cambridge Crystallographic Data Centre
#                                CCDC 
#
#######################################################################
#
# If this CIF has been generated from an entry in the Cambridge 
# Structural Database, then it will include bibliographic, chemical, 
# crystal, experimental, refinement or atomic coordinate data resulting 
# from the CCDC's data processing and validation procedures.
#
#######################################################################

data_UNUPUP
_chemical_name_common            
11-Phenyl-3,3a,11,11a-tetrahydro-4H-cyclopenta[4,5]pyrano[3,2-c]chromene-1,4(2H)-dione
_chemical_formula_moiety         'C21 H16 O4'
_chemical_name_systematic        
16-phenyl-8,17-dioxatetracyclo[8.7.0.0^2,7^.0^11,15^]heptadeca-1(10),2(7),3,5-tetraene-9,14-dione
_symmetry_cell_setting           monoclinic
_symmetry_space_group_name_H-M   'P 21/n'
_symmetry_Int_Tables_number      14
_space_group_name_Hall           '-P 2yn'
loop_
_symmetry_equiv_pos_site_id
_symmetry_equiv_pos_as_xyz
1 x,y,z
2 1/2-x,1/2+y,1/2-z
3 -x,-y,-z
4 1/2+x,1/2-y,1/2+z
_cell_length_a                   9.1672(14)
_cell_length_b                   8.6538(14)
_cell_length_c                   19.899(3)
_cell_angle_alpha                90
_cell_angle_beta                 91.295(3)
_cell_angle_gamma                90
_cell_volume                     1578.21
_exptl_crystal_colour            colorless
_exptl_crystal_description       block
_cell_formula_units_Z            4
loop_
_atom_site_label
_atom_site_type_symbol
_atom_site_fract_x
_atom_site_fract_y
_atom_site_fract_z
O1 O 0.50827(10) 0.14483(13) 0.10143(5)
O2 O 0.30494(11) 0.31578(13) -0.06936(5)
O3 O 0.21059(14) -0.10952(16) 0.24113(6)
O4 O 0.09368(13) 0.21341(18) -0.04206(7)
C1 C 0.45295(15) 0.33318(17) -0.05937(7)
C2 C 0.52778(18) 0.41320(18) -0.10830(8)
H1 H 0.4773 0.4543 -0.1465
C3 C 0.67665(18) 0.43206(18) -0.10057(8)
H2 H 0.7289 0.4869 -0.1337
C4 C 0.75115(17) 0.37144(19) -0.04468(8)
H3 H 0.8538 0.3846 -0.0400
C5 C 0.67574(16) 0.29218(18) 0.00397(8)
H4 H 0.7267 0.2512 0.0420
C6 C 0.52458(15) 0.27221(16) -0.00277(7)
C7 C 0.43568(15) 0.19240(16) 0.04545(7)
C8 C 0.41941(15) 0.10574(17) 0.15850(7)
H5 H 0.3765 0.2025 0.1771
C9 C 0.29535(15) -0.00278(17) 0.13564(7)
H6 H 0.3352 -0.1037 0.1198
C10 C 0.18782(18) -0.02793(19) 0.19294(8)
C11 C 0.0505(2) 0.0604(3) 0.17786(11)
H7 H 0.0224 0.1227 0.2173
H8 H -0.0305 -0.0110 0.1661
C12 C 0.08425(18) 0.1647(2) 0.11868(9)
H9 H 0.1231 0.2656 0.1342
H10 H -0.0039 0.1824 0.0900
C13 C 0.20060(15) 0.07317(18) 0.08039(7)
H11 H 0.1506 -0.0100 0.0537
C14 C 0.29132(15) 0.16801(17) 0.03381(7)
C15 C 0.22106(16) 0.22987(19) -0.02619(8)
C16 C 0.51992(15) 0.03462(17) 0.21074(7)
C17 C 0.62801(17) -0.06787(19) 0.19234(8)
H12 H 0.6423 -0.0896 0.1462
C18 C 0.71543(18) -0.1389(2) 0.24094(9)
H13 H 0.7886 -0.2101 0.2280
C19 C 0.69637(19) -0.1066(2) 0.30784(9)
H14 H 0.7564 -0.1553 0.3411
C20 C 0.59009(19) -0.0033(2) 0.32673(8)
H15 H 0.5775 0.0194 0.3729
C21 C 0.50157(17) 0.06724(18) 0.27822(7)
H16 H 0.4283 0.1380 0.2913
loop_
_geom_bond_atom_site_label_1
_geom_bond_atom_site_label_2
_geom_bond_site_symmetry_1
_geom_bond_site_symmetry_2
O1 C7 1_555 1_555
O2 C1 1_555 1_555
O3 C10 1_555 1_555
O4 C15 1_555 1_555
C1 C2 1_555 1_555
C2 H1 1_555 1_555
C3 C2 1_555 1_555
H2 C3 1_555 1_555
C4 C3 1_555 1_555
H3 C4 1_555 1_555
C5 C4 1_555 1_555
H4 C5 1_555 1_555
C6 C1 1_555 1_555
C7 C6 1_555 1_555
C8 O1 1_555 1_555
H5 C8 1_555 1_555
C9 C8 1_555 1_555
H6 C9 1_555 1_555
C10 C9 1_555 1_555
C11 C10 1_555 1_555
H7 C11 1_555 1_555
H8 C11 1_555 1_555
C12 C11 1_555 1_555
H9 C12 1_555 1_555
H10 C12 1_555 1_555
C13 C9 1_555 1_555
H11 C13 1_555 1_555
C14 C7 1_555 1_555
C15 O2 1_555 1_555
C16 C8 1_555 1_555
C17 C16 1_555 1_555
H12 C17 1_555 1_555
C18 C17 1_555 1_555
H13 C18 1_555 1_555
C19 C18 1_555 1_555
H14 C19 1_555 1_555
C20 C19 1_555 1_555
H15 C20 1_555 1_555
C21 C16 1_555 1_555
H16 C21 1_555 1_555
C5 C6 1_555 1_555
C12 C13 1_555 1_555
C13 C14 1_555 1_555
C14 C15 1_555 1_555
C20 C21 1_555 1_555

#END
