
#######################################################################
#
#                 Cambridge Crystallographic Data Centre
#                                CCDC 
#
#######################################################################
#
# If this CIF has been generated from an entry in the Cambridge 
# Structural Database, then it will include bibliographic, chemical, 
# crystal, experimental, refinement or atomic coordinate data resulting 
# from the CCDC's data processing and validation procedures.
#
#######################################################################

data_UNUQUQ
_chemical_formula_moiety         'C16 H12 Cl1 N3 S1'
_chemical_name_systematic        
(E)-N-(4-Chlorobenzylidene)-5-(4-methylphenyl)-1,3,4-thiadiazol-2-amine
_symmetry_cell_setting           triclinic
_symmetry_space_group_name_H-M   'P -1'
_symmetry_Int_Tables_number      2
_space_group_name_Hall           '-P 1'
loop_
_symmetry_equiv_pos_site_id
_symmetry_equiv_pos_as_xyz
1 x,y,z
2 -x,-y,-z
_cell_length_a                   5.7940(12)
_cell_length_b                   8.7510(18)
_cell_length_c                   14.965(3)
_cell_angle_alpha                98.64(3)
_cell_angle_beta                 90.66(3)
_cell_angle_gamma                99.45(3)
_cell_volume                     739.474
_exptl_crystal_colour            colorless
_exptl_crystal_description       plate
_cell_formula_units_Z            2
loop_
_atom_site_label
_atom_site_type_symbol
_atom_site_fract_x
_atom_site_fract_y
_atom_site_fract_z
S1 S 0.23283(16) 0.39838(13) 0.35972(7)
Cl1 Cl -0.1368(3) -0.07874(15) 0.83792(8)
N1 N 0.6673(6) 0.4295(4) 0.3257(2)
C1 C 0.3679(10) 0.7600(6) -0.0164(3)
H1 H 0.2081 0.7357 -0.0388
H2 H 0.4673 0.7212 -0.0622
H3 H 0.4125 0.8715 -0.0008
N2 N 0.6450(6) 0.3517(4) 0.3990(2)
C2 C 0.3925(8) 0.6843(5) 0.0659(3)
N3 N 0.3694(6) 0.2419(4) 0.4943(2)
C3 C 0.6064(8) 0.7020(5) 0.1130(3)
H4 H 0.7361 0.7632 0.0927
C4 C 0.6334(7) 0.6324(5) 0.1885(3)
H5 H 0.7784 0.6480 0.2188
C5 C 0.4413(6) 0.5384(4) 0.2189(2)
C6 C 0.2262(7) 0.5216(5) 0.1734(3)
H6 H 0.0957 0.4613 0.1937
C7 C 0.2041(7) 0.5928(5) 0.0990(3)
H7 H 0.0580 0.5794 0.0698
C8 C 0.4687(6) 0.4610(4) 0.2982(2)
C9 C 0.4290(7) 0.3246(4) 0.4246(3)
C10 C 0.1634(7) 0.2334(4) 0.5231(3)
H8 H 0.0582 0.2843 0.4964
C11 C 0.0852(7) 0.1474(4) 0.5959(2)
C12 C 0.2161(7) 0.0438(4) 0.6275(3)
H9 H 0.3516 0.0236 0.5986
C13 C 0.1470(8) -0.0277(5) 0.7001(3)
H10 H 0.2334 -0.0969 0.7207
C14 C -0.0557(8) 0.0053(5) 0.7428(3)
C15 C -0.1919(7) 0.1018(5) 0.7109(3)
H11 H -0.3294 0.1195 0.7391
C16 C -0.1227(7) 0.1715(5) 0.6373(3)
H12 H -0.2153 0.2354 0.6148
loop_
_geom_bond_atom_site_label_1
_geom_bond_atom_site_label_2
_geom_bond_site_symmetry_1
_geom_bond_site_symmetry_2
S1 C8 1_555 1_555
Cl1 C14 1_555 1_555
N1 N2 1_555 1_555
C1 H1 1_555 1_555
H2 C1 1_555 1_555
H3 C1 1_555 1_555
N2 C9 1_555 1_555
C2 C1 1_555 1_555
N3 C9 1_555 1_555
C3 C2 1_555 1_555
H4 C3 1_555 1_555
C4 C3 1_555 1_555
H5 C4 1_555 1_555
C5 C4 1_555 1_555
C6 C5 1_555 1_555
H6 C6 1_555 1_555
C7 C2 1_555 1_555
H7 C7 1_555 1_555
C8 N1 1_555 1_555
C9 S1 1_555 1_555
C10 N3 1_555 1_555
H8 C10 1_555 1_555
C11 C10 1_555 1_555
C12 C11 1_555 1_555
H9 C12 1_555 1_555
C13 C12 1_555 1_555
H10 C13 1_555 1_555
C14 C13 1_555 1_555
C15 C14 1_555 1_555
H11 C15 1_555 1_555
C16 C11 1_555 1_555
H12 C16 1_555 1_555
C5 C8 1_555 1_555
C6 C7 1_555 1_555
C15 C16 1_555 1_555

#END
