
#######################################################################
#
#                 Cambridge Crystallographic Data Centre
#                                CCDC 
#
#######################################################################
#
# If this CIF has been generated from an entry in the Cambridge 
# Structural Database, then it will include bibliographic, chemical, 
# crystal, experimental, refinement or atomic coordinate data resulting 
# from the CCDC's data processing and validation procedures.
#
#######################################################################

data_UNUQEA
_chemical_formula_moiety         'C32 H31 N1 O4'
_chemical_name_systematic        
't-Butyl 3-benzyl-3-[(E)-2-benzylidene-3-oxocyclopentyl]-2-oxoindoline-1-carboxylate'
_symmetry_cell_setting           orthorhombic
_symmetry_space_group_name_H-M   'P 21 21 21'
_symmetry_Int_Tables_number      19
_space_group_name_Hall           'P 2ac 2ab'
loop_
_symmetry_equiv_pos_site_id
_symmetry_equiv_pos_as_xyz
1 x,y,z
2 1/2-x,-y,1/2+z
3 -x,1/2+y,1/2-z
4 1/2+x,1/2-y,-z
_cell_length_a                   7.8695(16)
_cell_length_b                   11.893(2)
_cell_length_c                   28.346(6)
_cell_angle_alpha                90
_cell_angle_beta                 90
_cell_angle_gamma                90
_cell_volume                     2652.96
_exptl_crystal_colour            colorless
_exptl_crystal_description       block
_cell_formula_units_Z            4
loop_
_atom_site_label
_atom_site_type_symbol
_atom_site_fract_x
_atom_site_fract_y
_atom_site_fract_z
O1 O 0.1446(3) 0.51425(19) 0.50716(6)
O2 O 0.1567(4) 0.6816(2) 0.46945(7)
O3 O 0.1853(3) 0.66366(19) 0.37455(7)
O4 O -0.0170(4) 0.7532(2) 0.26192(8)
N1 N 0.1590(3) 0.5157(2) 0.42829(7)
C1 C 0.2941(6) 0.6257(4) 0.56693(13)
H1 H 0.3020 0.6934 0.5474
H2 H 0.3916 0.5767 0.5605
H3 H 0.2941 0.6471 0.6003
C2 C -0.0256(6) 0.6350(4) 0.55892(11)
H4 H -0.0119 0.7023 0.5393
H5 H -0.0437 0.6574 0.5918
H6 H -0.1238 0.5918 0.5478
C3 C 0.1162(7) 0.4580(3) 0.58547(10)
H7 H 0.0102 0.4189 0.5776
H8 H 0.1154 0.4786 0.6189
H9 H 0.2129 0.4083 0.5791
C4 C 0.1317(5) 0.5638(3) 0.55551(9)
C5 C 0.1538(4) 0.5817(3) 0.46984(9)
C6 C 0.1527(4) 0.3956(3) 0.42408(9)
C7 C 0.1196(4) 0.3132(3) 0.45733(9)
H10 H 0.1044 0.3320 0.4896
C8 C 0.1092(5) 0.2022(3) 0.44210(10)
H11 H 0.0869 0.1449 0.4646
C9 C 0.1304(5) 0.1729(3) 0.39534(10)
H12 H 0.1213 0.0965 0.3858
C10 C 0.1651(5) 0.2567(3) 0.36226(9)
H13 H 0.1804 0.2379 0.3300
C11 C 0.1771(4) 0.3667(3) 0.37675(9)
C12 C 0.2152(4) 0.4694(3) 0.34814(9)
C13 C 0.1835(4) 0.5643(3) 0.38325(9)
C14 C 0.4084(4) 0.4752(3) 0.33532(9)
H14 H 0.4353 0.4136 0.3131
H15 H 0.4312 0.5472 0.3190
C15 C 0.5246(4) 0.4662(3) 0.37767(9)
C16 C 0.5679(5) 0.5611(3) 0.40327(11)
H16 H 0.5254 0.6324 0.3939
C17 C 0.6733(5) 0.5529(3) 0.44273(11)
H17 H 0.7012 0.6183 0.4603
C18 C 0.7361(5) 0.4508(3) 0.45593(11)
H18 H 0.8081 0.4454 0.4827
C19 C 0.6955(5) 0.3543(3) 0.43046(11)
H19 H 0.7404 0.2834 0.4395
C20 C 0.5884(4) 0.3630(3) 0.39157(10)
H20 H 0.5588 0.2973 0.3744
C21 C 0.1013(4) 0.4759(3) 0.30321(8)
H21 H 0.1178 0.4061 0.2841
C22 C -0.0884(4) 0.4869(3) 0.31628(11)
H22 H -0.1590 0.4424 0.2942
H23 H -0.1081 0.4587 0.3487
C23 C -0.1352(4) 0.6112(3) 0.31313(11)
H24 H -0.2516 0.6207 0.3005
H25 H -0.1289 0.6473 0.3446
C24 C -0.0066(4) 0.6608(3) 0.28029(9)
C25 C 0.1313(4) 0.5785(3) 0.27179(9)
C26 C 0.2475(4) 0.5990(3) 0.23824(9)
H26 H 0.2390 0.6701 0.2231
C27 C 0.3871(4) 0.5258(3) 0.22173(9)
C28 C 0.3654(5) 0.4114(3) 0.21275(9)
H27 H 0.2567 0.3780 0.2167
C29 C 0.5013(5) 0.3463(3) 0.19813(10)
H28 H 0.4844 0.2687 0.1918
C30 C 0.6608(5) 0.3924(3) 0.19263(10)
H29 H 0.7540 0.3469 0.1832
C31 C 0.6829(5) 0.5059(3) 0.20108(10)
H30 H 0.7923 0.5386 0.1974
C32 C 0.5480(4) 0.5724(3) 0.21471(9)
H31 H 0.5647 0.6507 0.2194
loop_
_geom_bond_atom_site_label_1
_geom_bond_atom_site_label_2
_geom_bond_site_symmetry_1
_geom_bond_site_symmetry_2
O1 C4 1_555 1_555
O2 C5 1_555 1_555
O3 C13 1_555 1_555
O4 C24 1_555 1_555
N1 C5 1_555 1_555
C1 H1 1_555 1_555
H2 C1 1_555 1_555
H3 C1 1_555 1_555
C2 H4 1_555 1_555
H5 C2 1_555 1_555
H6 C2 1_555 1_555
C3 H7 1_555 1_555
H8 C3 1_555 1_555
H9 C3 1_555 1_555
C4 C1 1_555 1_555
C5 O1 1_555 1_555
C6 N1 1_555 1_555
C7 C6 1_555 1_555
H10 C7 1_555 1_555
C8 C7 1_555 1_555
H11 C8 1_555 1_555
C9 C8 1_555 1_555
H12 C9 1_555 1_555
C10 C9 1_555 1_555
H13 C10 1_555 1_555
C11 C6 1_555 1_555
C12 C11 1_555 1_555
C13 N1 1_555 1_555
C14 C12 1_555 1_555
H14 C14 1_555 1_555
H15 C14 1_555 1_555
C15 C14 1_555 1_555
C16 C15 1_555 1_555
H16 C16 1_555 1_555
C17 C16 1_555 1_555
H17 C17 1_555 1_555
C18 C17 1_555 1_555
H18 C18 1_555 1_555
C19 C18 1_555 1_555
H19 C19 1_555 1_555
C20 C15 1_555 1_555
H20 C20 1_555 1_555
C21 C12 1_555 1_555
H21 C21 1_555 1_555
C22 C21 1_555 1_555
H22 C22 1_555 1_555
H23 C22 1_555 1_555
C23 C22 1_555 1_555
H24 C23 1_555 1_555
H25 C23 1_555 1_555
C24 C23 1_555 1_555
C25 C21 1_555 1_555
C26 C25 1_555 1_555
H26 C26 1_555 1_555
C27 C26 1_555 1_555
C28 C27 1_555 1_555
H27 C28 1_555 1_555
C29 C28 1_555 1_555
H28 C29 1_555 1_555
C30 C29 1_555 1_555
H29 C30 1_555 1_555
C31 C30 1_555 1_555
H30 C31 1_555 1_555
C32 C27 1_555 1_555
H31 C32 1_555 1_555
C2 C4 1_555 1_555
C3 C4 1_555 1_555
C10 C11 1_555 1_555
C12 C13 1_555 1_555
C19 C20 1_555 1_555
C24 C25 1_555 1_555
C31 C32 1_555 1_555

#END
