
#######################################################################
#
#                 Cambridge Crystallographic Data Centre
#                                CCDC 
#
#######################################################################
#
# If this CIF has been generated from an entry in the Cambridge 
# Structural Database, then it will include bibliographic, chemical, 
# crystal, experimental, refinement or atomic coordinate data resulting 
# from the CCDC's data processing and validation procedures.
#
#######################################################################

data_UNUWOQ
_chemical_formula_moiety         'C14 H13 N3 O3'
_chemical_name_systematic        
4-Methyl-7-(2-(1H-1,2,4-triazol-1-yl)ethoxy)-2H-chromen-2-one
_symmetry_cell_setting           monoclinic
_symmetry_space_group_name_H-M   'P 21/n'
_symmetry_Int_Tables_number      14
_space_group_name_Hall           '-P 2yn'
loop_
_symmetry_equiv_pos_site_id
_symmetry_equiv_pos_as_xyz
1 x,y,z
2 1/2-x,1/2+y,1/2-z
3 -x,-y,-z
4 1/2+x,1/2-y,1/2+z
_cell_length_a                   11.9861(17)
_cell_length_b                   7.7090(11)
_cell_length_c                   14.132(2)
_cell_angle_alpha                90
_cell_angle_beta                 101.034(2)
_cell_angle_gamma                90
_cell_volume                     1281.67
_exptl_crystal_colour            colorless
_exptl_crystal_description       block
_cell_formula_units_Z            4
loop_
_atom_site_label
_atom_site_type_symbol
_atom_site_fract_x
_atom_site_fract_y
_atom_site_fract_z
C1 C 0.34092(11) 0.63715(16) 1.03382(10)
C2 C 0.44570(12) 0.61742(16) 1.10231(10)
H1 H 0.4448 0.5553 1.1602
C3 C 0.54494(11) 0.68343(16) 1.08755(9)
C4 C 0.54683(10) 0.77458(15) 0.99847(9)
C5 C 0.44581(10) 0.78927(15) 0.93081(9)
C6 C 0.43918(10) 0.87313(15) 0.84385(9)
H2 H 0.3692 0.8796 0.7992
C7 C 0.53705(11) 0.94803(15) 0.82283(9)
C8 C 0.64008(10) 0.93534(16) 0.88806(10)
H3 H 0.7071 0.9852 0.8732
C9 C 0.64365(11) 0.84983(16) 0.97420(10)
H4 H 0.7140 0.8418 1.0184
C10 C 0.65229(12) 0.66473(19) 1.16165(10)
H5 H 0.6375 0.5922 1.2149
H6 H 0.6783 0.7795 1.1864
H7 H 0.7111 0.6103 1.1320
C11 C 0.62329(11) 1.10015(17) 0.70725(10)
H8 H 0.6776 1.0054 0.7024
H9 H 0.6612 1.1859 0.7549
C12 C 0.58548(13) 1.18489(17) 0.61091(10)
H10 H 0.6525 1.2038 0.5807
H11 H 0.5330 1.1058 0.5687
C13 C 0.42086(12) 1.3931(2) 0.58744(11)
H12 H 0.3631 1.3152 0.5581
C14 C 0.50929(12) 1.61203(18) 0.64494(10)
H13 H 0.5252 1.7284 0.6651
N1 N 0.52866(9) 1.35020(14) 0.61733(8)
N2 N 0.58838(9) 1.49167(14) 0.65533(8)
N3 N 0.40436(11) 1.55923(18) 0.60384(10)
O1 O 0.24796(9) 0.58794(14) 1.04329(8)
O2 O 0.34566(7) 0.71985(11) 0.94832(6)
O3 O 0.52351(8) 1.03232(12) 0.73646(6)
loop_
_geom_bond_atom_site_label_1
_geom_bond_atom_site_label_2
_geom_bond_site_symmetry_1
_geom_bond_site_symmetry_2
C1 C2 1_555 1_555
C2 H1 1_555 1_555
C3 C2 1_555 1_555
C4 C3 1_555 1_555
C5 C4 1_555 1_555
C6 C5 1_555 1_555
H2 C6 1_555 1_555
C7 C6 1_555 1_555
C8 C7 1_555 1_555
H3 C8 1_555 1_555
C9 C4 1_555 1_555
H4 C9 1_555 1_555
C10 C3 1_555 1_555
H5 C10 1_555 1_555
H6 C10 1_555 1_555
H7 C10 1_555 1_555
C11 H8 1_555 1_555
H9 C11 1_555 1_555
C12 C11 1_555 1_555
H10 C12 1_555 1_555
H11 C12 1_555 1_555
C13 H12 1_555 1_555
C14 H13 1_555 1_555
N1 C12 1_555 1_555
N2 C14 1_555 1_555
N3 C13 1_555 1_555
O1 C1 1_555 1_555
O2 C1 1_555 1_555
O3 C7 1_555 1_555
C5 O2 1_555 1_555
C8 C9 1_555 1_555
C11 O3 1_555 1_555
C13 N1 1_555 1_555
C14 N3 1_555 1_555
N1 N2 1_555 1_555

#END
