
#######################################################################
#
#                 Cambridge Crystallographic Data Centre
#                                CCDC 
#
#######################################################################
#
# If this CIF has been generated from an entry in the Cambridge 
# Structural Database, then it will include bibliographic, chemical, 
# crystal, experimental, refinement or atomic coordinate data resulting 
# from the CCDC's data processing and validation procedures.
#
#######################################################################

data_UNUZUZ
_chemical_formula_moiety         'C28 H28 O9'
_chemical_name_systematic        
(E)-3-(8-Benzyloxy-2,3-dihydro-1,4-benzodioxin-6-yl)-1-[2-hydroxy-4,6-bis(methoxymethoxy)phenyl]prop-2-en-1-one
_symmetry_cell_setting           triclinic
_symmetry_space_group_name_H-M   'P -1'
_symmetry_Int_Tables_number      2
_space_group_name_Hall           '-P 1'
loop_
_symmetry_equiv_pos_site_id
_symmetry_equiv_pos_as_xyz
1 x,y,z
2 -x,-y,-z
_cell_length_a                   8.149(4)
_cell_length_b                   11.744(5)
_cell_length_c                   14.439(7)
_cell_angle_alpha                72.752(5)
_cell_angle_beta                 84.269(5)
_cell_angle_gamma                70.601(5)
_cell_volume                     1244.78
_exptl_crystal_colour            orange
_exptl_crystal_description       block
_cell_formula_units_Z            2
loop_
_atom_site_label
_atom_site_type_symbol
_atom_site_fract_x
_atom_site_fract_y
_atom_site_fract_z
O1 O -0.02313(19) 0.61404(14) 0.91280(12)
O2 O -0.2521(2) 0.86192(14) 0.83479(12)
O3 O 0.29103(19) 0.54252(13) 0.84269(11)
O4 O 0.3240(2) 1.09630(15) 0.44508(13)
O5 O -0.1587(2) 1.65623(15) 0.28563(12)
O6 O -0.2044(3) 1.83191(15) 0.15912(13)
O7 O -0.1328(2) 1.30029(15) 0.55058(12)
O8 O -0.4304(3) 1.35542(18) 0.53966(16)
O9 O 0.3228(2) 1.28722(16) 0.31656(13)
H1 H 0.3572 1.2137 0.3494
C1 C -0.2038(13) 0.6528(9) 0.9316(8)
H2 H -0.2492 0.5982 0.9103
H3 H -0.2150 0.6304 1.0017
C2 C -0.3120(14) 0.7637(13) 0.9008(13)
H4 H -0.3615 0.7923 0.9570
H5 H -0.4062 0.7567 0.8690
C3 C -0.0883(3) 0.82076(19) 0.79882(16)
C4 C 0.0230(3) 0.69963(18) 0.83660(15)
C5 C 0.1907(3) 0.66401(18) 0.79889(16)
C6 C 0.2440(3) 0.74792(19) 0.72391(16)
H6 H 0.3559 0.7236 0.6991
C7 C 0.1314(3) 0.86943(18) 0.68465(15)
C8 C -0.0349(3) 0.90484(19) 0.72278(16)
H7 H -0.1109 0.9854 0.6971
C9 C 0.4658(3) 0.5063(2) 0.8107(2)
H8 H 0.5240 0.5615 0.8209
H9 H 0.4686 0.5137 0.7419
C10 C 0.5581(3) 0.3732(2) 0.86577(16)
C11 C 0.5419(3) 0.2761(2) 0.83868(17)
H10 H 0.4675 0.2931 0.7880
C12 C 0.6339(4) 0.1524(2) 0.8848(2)
H11 H 0.6209 0.0874 0.8651
C13 C 0.7425(4) 0.1264(2) 0.9585(2)
H12 H 0.8061 0.0434 0.9885
C14 C 0.7594(4) 0.2206(3) 0.9891(2)
H13 H 0.8328 0.2021 1.0406
C15 C 0.6664(3) 0.3454(2) 0.9430(2)
H14 H 0.6772 0.4100 0.9642
C16 C 0.1943(3) 0.95607(19) 0.60541(15)
H15 H 0.3115 0.9287 0.5893
C17 C 0.1011(3) 1.06911(19) 0.55476(16)
H16 H -0.0167 1.0994 0.5686
C18 C 0.1795(3) 1.1487(2) 0.47661(16)
C19 C 0.0915(3) 1.28298(19) 0.43388(15)
C20 C -0.0676(3) 1.35676(19) 0.46461(15)
C21 C -0.1479(3) 1.4795(2) 0.41326(16)
H17 H -0.2552 1.5247 0.4335
C22 C -0.0687(3) 1.53574(19) 0.33120(16)
C23 C 0.0905(3) 1.4708(2) 0.30072(16)
H18 H 0.1448 1.5100 0.2470
C24 C 0.1693(3) 1.3463(2) 0.35090(15)
C25 C -0.0851(4) 1.7180(3) 0.19855(19)
H19 H 0.0211 1.7290 0.2134
H20 H -0.0575 1.6677 0.1531
C26 C -0.2259(6) 1.9197(3) 0.2108(3)
H21 H -0.3122 1.9971 0.1795
H22 H -0.1174 1.9344 0.2126
H23 H -0.2627 1.8876 0.2758
C27 C -0.2982(3) 1.3618(2) 0.5841(2)
H24 H -0.3059 1.3242 0.6533
H25 H -0.3094 1.4495 0.5740
C28 C -0.4456(5) 1.2299(3) 0.5652(3)
H26 H -0.5417 1.2315 0.5308
H27 H -0.4649 1.2023 0.6337
H28 H -0.3402 1.1729 0.5478
C29? C -0.172(2) 0.6699(16) 0.9639(10)
C30? C -0.2644(15) 0.7837(9) 0.9331(7)
H29? H -0.2494 0.6200 0.9719
H30? H -0.1333 0.6586 1.0283
H31? H -0.2440 0.8268 0.9765
H32? H -0.3847 0.7855 0.9424
loop_
_geom_bond_atom_site_label_1
_geom_bond_atom_site_label_2
_geom_bond_site_symmetry_1
_geom_bond_site_symmetry_2
O1 C1 1_555 1_555
O2 C2 1_555 1_555
O3 C5 1_555 1_555
O4 C18 1_555 1_555
O5 C22 1_555 1_555
O6 C25 1_555 1_555
O7 C20 1_555 1_555
O8 C27 1_555 1_555
O9 H1 1_555 1_555
C1 H2 1_555 1_555
H3 C1 1_555 1_555
C2 C1 1_555 1_555
H4 C2 1_555 1_555
H5 C2 1_555 1_555
C3 O2 1_555 1_555
C4 O1 1_555 1_555
C5 C4 1_555 1_555
C6 C5 1_555 1_555
H6 C6 1_555 1_555
C7 C6 1_555 1_555
C8 C3 1_555 1_555
H7 C8 1_555 1_555
C9 O3 1_555 1_555
H8 C9 1_555 1_555
H9 C9 1_555 1_555
C10 C9 1_555 1_555
C11 C10 1_555 1_555
H10 C11 1_555 1_555
C12 C11 1_555 1_555
H11 C12 1_555 1_555
C13 C12 1_555 1_555
H12 C13 1_555 1_555
C14 C13 1_555 1_555
H13 C14 1_555 1_555
C15 C10 1_555 1_555
H14 C15 1_555 1_555
C16 C7 1_555 1_555
H15 C16 1_555 1_555
C17 C16 1_555 1_555
H16 C17 1_555 1_555
C18 C17 1_555 1_555
C19 C18 1_555 1_555
C20 C19 1_555 1_555
C21 C20 1_555 1_555
H17 C21 1_555 1_555
C22 C21 1_555 1_555
C23 C22 1_555 1_555
H18 C23 1_555 1_555
C24 O9 1_555 1_555
C25 O5 1_555 1_555
H19 C25 1_555 1_555
H20 C25 1_555 1_555
C26 O6 1_555 1_555
H21 C26 1_555 1_555
H22 C26 1_555 1_555
H23 C26 1_555 1_555
C27 O7 1_555 1_555
H24 C27 1_555 1_555
H25 C27 1_555 1_555
C28 O8 1_555 1_555
H26 C28 1_555 1_555
H27 C28 1_555 1_555
H28 C28 1_555 1_555
C3 C4 1_555 1_555
C7 C8 1_555 1_555
C14 C15 1_555 1_555
C19 C24 1_555 1_555
C23 C24 1_555 1_555

#END
