
#######################################################################
#
#                 Cambridge Crystallographic Data Centre
#                                CCDC 
#
#######################################################################
#
# If this CIF has been generated from an entry in the Cambridge 
# Structural Database, then it will include bibliographic, chemical, 
# crystal, experimental, refinement or atomic coordinate data resulting 
# from the CCDC's data processing and validation procedures.
#
#######################################################################

data_UPABOD
_chemical_name_common            
6,6'-Diethoxy-2,2'-[hexane-1,6-diylbis(nitrilomethanylylidene)]diphenol
_chemical_formula_moiety         'C24 H32 N2 O4'
_chemical_name_systematic        
2-ethoxy-6-([(6-([(3-ethoxy-2-hydroxyphenyl)methylidene]amino)hexyl)imino]methyl)phenol
_symmetry_cell_setting           triclinic
_symmetry_space_group_name_H-M   'P -1'
_symmetry_Int_Tables_number      2
_space_group_name_Hall           '-P 1'
loop_
_symmetry_equiv_pos_site_id
_symmetry_equiv_pos_as_xyz
1 x,y,z
2 -x,-y,-z
_cell_length_a                   6.9094(13)
_cell_length_b                   6.9184(13)
_cell_length_c                   11.936(2)
_cell_angle_alpha                91.271(5)
_cell_angle_beta                 99.677(4)
_cell_angle_gamma                102.550(4)
_cell_volume                     547.985
_exptl_crystal_colour            yellow
_exptl_crystal_description       stick
_cell_formula_units_Z            1
loop_
_atom_site_label
_atom_site_type_symbol
_atom_site_fract_x
_atom_site_fract_y
_atom_site_fract_z
O1 O 0.5421(2) 0.2477(3) 0.24546(17)
H1 H 0.5714 0.3570 0.2834
O2 O 0.5003(2) -0.0878(2) 0.13057(16)
N1 N 0.7714(3) 0.5589(3) 0.35709(19)
C1 C 0.9039(3) 0.3153(3) 0.2687(2)
C2 C 0.7131(3) 0.1965(3) 0.2277(2)
C3 C 0.6946(4) 0.0168(4) 0.1652(2)
C4 C 0.8654(4) -0.0394(4) 0.1439(2)
H2 H 0.8526 -0.1599 0.1007
C5 C 1.0562(4) 0.0782(4) 0.1849(2)
H3 H 1.1729 0.0374 0.1705
C6 C 1.0750(4) 0.2543(4) 0.2467(2)
H4 H 1.2051 0.3348 0.2745
C7 C 0.4707(4) -0.2781(3) 0.0726(2)
H5 H 0.5449 -0.3639 0.1196
H6 H 0.5193 -0.2641 -0.0009
C8 C 0.2475(4) -0.3664(4) 0.0530(3)
H7 H 0.2003 -0.3725 0.1261
H8 H 0.2202 -0.5005 0.0170
H9 H 0.1767 -0.2835 0.0032
C9 C 0.9234(4) 0.5017(4) 0.3333(2)
H10 H 1.0540 0.5831 0.3585
C10 C 0.7949(4) 0.7477(4) 0.4222(2)
H11 H 0.8727 0.8568 0.3846
H12 H 0.8707 0.7421 0.4998
C11 C 0.5920(4) 0.7884(3) 0.4300(2)
H13 H 0.5143 0.6766 0.4657
H14 H 0.5179 0.7939 0.3520
C12 C 0.6021(3) 0.9794(4) 0.4974(2)
H15 H 0.6735 0.9729 0.5760
H16 H 0.6819 1.0911 0.4626
O1A O 0.4579(2) 1.7523(3) 0.75454(17)
H1A H 0.4286 1.6430 0.7166
O2A O 0.4997(2) 2.0878(2) 0.86943(16)
N1A N 0.2286(3) 1.4411(3) 0.64291(19)
C1A C 0.0961(3) 1.6847(3) 0.7313(2)
C2A C 0.2869(3) 1.8035(3) 0.7723(2)
C3A C 0.3054(4) 1.9832(4) 0.8348(2)
C4A C 0.1346(4) 2.0394(4) 0.8561(2)
H2A H 0.1474 2.1599 0.8993
C5A C -0.0562(4) 1.9218(4) 0.8151(2)
H3A H -0.1729 1.9626 0.8295
C6A C -0.0750(4) 1.7457(4) 0.7533(2)
H4A H -0.2051 1.6652 0.7255
C7A C 0.5293(4) 2.2781(3) 0.9274(2)
H5A H 0.4551 2.3639 0.8804
H6A H 0.4807 2.2641 1.0009
C8A C 0.7525(4) 2.3664(4) 0.9470(3)
H7A H 0.7997 2.3725 0.8739
H8A H 0.7798 2.5005 0.9830
H9A H 0.8233 2.2835 0.9968
C9A C 0.0766(4) 1.4983(4) 0.6667(2)
H10A H -0.0540 1.4169 0.6415
C10A C 0.2051(4) 1.2523(4) 0.5778(2)
H11A H 0.1273 1.1432 0.6154
H12A H 0.1293 1.2579 0.5002
C11A C 0.4080(4) 1.2116(3) 0.5700(2)
H13A H 0.4857 1.3234 0.5343
H14A H 0.4821 1.2061 0.6480
C12A C 0.3979(3) 1.0206(4) 0.5026(2)
H15A H 0.3265 1.0271 0.4240
H16A H 0.3181 0.9089 0.5374
loop_
_geom_bond_atom_site_label_1
_geom_bond_atom_site_label_2
_geom_bond_site_symmetry_1
_geom_bond_site_symmetry_2
O1 H1 1_555 1_555
O2 C3 1_555 1_555
N1 C9 1_555 1_555
C1 C2 1_555 1_555
C2 O1 1_555 1_555
C3 C2 1_555 1_555
C4 C3 1_555 1_555
H2 C4 1_555 1_555
C5 C4 1_555 1_555
H3 C5 1_555 1_555
C6 C1 1_555 1_555
H4 C6 1_555 1_555
C7 O2 1_555 1_555
H5 C7 1_555 1_555
H6 C7 1_555 1_555
C8 C7 1_555 1_555
H7 C8 1_555 1_555
H8 C8 1_555 1_555
H9 C8 1_555 1_555
C9 C1 1_555 1_555
H10 C9 1_555 1_555
C10 N1 1_555 1_555
H11 C10 1_555 1_555
H12 C10 1_555 1_555
C11 C10 1_555 1_555
H13 C11 1_555 1_555
H14 C11 1_555 1_555
C12 C11 1_555 1_555
H15 C12 1_555 1_555
H16 C12 1_555 1_555
O1A H1A 1_555 1_555
O2A C3A 1_555 1_555
N1A C9A 1_555 1_555
C1A C2A 1_555 1_555
C2A O1A 1_555 1_555
C3A C2A 1_555 1_555
C4A C3A 1_555 1_555
H2A C4A 1_555 1_555
C5A C4A 1_555 1_555
H3A C5A 1_555 1_555
C6A C1A 1_555 1_555
H4A C6A 1_555 1_555
C7A O2A 1_555 1_555
H5A C7A 1_555 1_555
H6A C7A 1_555 1_555
C8A C7A 1_555 1_555
H7A C8A 1_555 1_555
H8A C8A 1_555 1_555
H9A C8A 1_555 1_555
C9A C1A 1_555 1_555
H10A C9A 1_555 1_555
C10A N1A 1_555 1_555
H11A C10A 1_555 1_555
H12A C10A 1_555 1_555
C11A C10A 1_555 1_555
H13A C11A 1_555 1_555
H14A C11A 1_555 1_555
C12A C12 1_555 1_555
H15A C12A 1_555 1_555
H16A C12A 1_555 1_555
C5 C6 1_555 1_555
C5A C6A 1_555 1_555
C11A C12A 1_555 1_555

#END
