
#######################################################################
#
#                 Cambridge Crystallographic Data Centre
#                                CCDC 
#
#######################################################################
#
# If this CIF has been generated from an entry in the Cambridge 
# Structural Database, then it will include bibliographic, chemical, 
# crystal, experimental, refinement or atomic coordinate data resulting 
# from the CCDC's data processing and validation procedures.
#
#######################################################################

data_UPACUK
_chemical_formula_moiety         'C9 H8 O2'
_chemical_name_systematic        7-Hydroxyindan-1-one
_symmetry_cell_setting           monoclinic
_symmetry_space_group_name_H-M   'P 21/n'
_symmetry_Int_Tables_number      14
_space_group_name_Hall           '-P 2yn'
loop_
_symmetry_equiv_pos_site_id
_symmetry_equiv_pos_as_xyz
1 x,y,z
2 1/2-x,1/2+y,1/2-z
3 -x,-y,-z
4 1/2+x,1/2-y,1/2+z
_cell_length_a                   7.3457(3)
_cell_length_b                   13.3767(5)
_cell_length_c                   7.3693(3)
_cell_angle_alpha                90
_cell_angle_beta                 108.584(2)
_cell_angle_gamma                90
_cell_volume                     686.359
_exptl_crystal_colour            colorless
_exptl_crystal_description       prism
_cell_formula_units_Z            4
loop_
_atom_site_label
_atom_site_type_symbol
_atom_site_fract_x
_atom_site_fract_y
_atom_site_fract_z
O1 O 0.08166(12) 0.42309(6) 0.66091(12)
O2 O 0.23230(12) 0.62427(6) 0.67482(12)
C1 C 0.13603(16) 0.35050(9) 0.97988(17)
C2 C 0.14647(15) 0.42957(8) 0.83566(17)
C3 C 0.28549(15) 0.60687(8) 0.86582(17)
C4 C 0.38227(16) 0.68108(9) 0.99239(17)
C5 C 0.43377(16) 0.66351(9) 1.18845(17)
C6 C 0.39144(16) 0.57428(9) 1.26467(17)
C7 C 0.23864(17) 0.39569(9) 1.17926(18)
C8 C 0.24541(15) 0.51652(8) 0.94170(16)
C9 C 0.29761(15) 0.49992(8) 1.13835(17)
H1 H 0.001(2) 0.3364(10) 0.9591(19)
H2 H 0.1971(19) 0.2884(10) 0.9566(19)
H3 H 0.164(2) 0.5745(14) 0.609(2)
H4 H 0.414(2) 0.7437(12) 0.945(2)
H5 H 0.5008(19) 0.7159(10) 1.2762(19)
H6 H 0.425(2) 0.5649(11) 1.398(2)
H7 H 0.154(2) 0.3975(11) 1.264(2)
H8 H 0.354(2) 0.3563(10) 1.250(2)
loop_
_geom_bond_atom_site_label_1
_geom_bond_atom_site_label_2
_geom_bond_site_symmetry_1
_geom_bond_site_symmetry_2
O1 C2 1_555 1_555
O2 C3 1_555 1_555
C1 C2 1_555 1_555
C2 C8 1_555 1_555
C3 C4 1_555 1_555
C4 C5 1_555 1_555
C5 C6 1_555 1_555
C6 C9 1_555 1_555
C7 C1 1_555 1_555
C8 C3 1_555 1_555
C9 C7 1_555 1_555
H1 C1 1_555 1_555
H2 C1 1_555 1_555
H3 O2 1_555 1_555
H4 C4 1_555 1_555
H5 C5 1_555 1_555
H6 C6 1_555 1_555
H7 C7 1_555 1_555
H8 C7 1_555 1_555
C8 C9 1_555 1_555

#END
