
#######################################################################
#
#                 Cambridge Crystallographic Data Centre
#                                CCDC 
#
#######################################################################
#
# If this CIF has been generated from an entry in the Cambridge 
# Structural Database, then it will include bibliographic, chemical, 
# crystal, experimental, refinement or atomic coordinate data resulting 
# from the CCDC's data processing and validation procedures.
#
#######################################################################

data_UPACOE
_chemical_name_common            
(4-Chlorophenyl)(5,5-dimethyl-2-oxido-1,3,2-dioxaphosphinan-2-yl)methanol
_chemical_formula_moiety         'C12 H16 Cl1 O4 P1'
_chemical_name_systematic        
2-[(4-Chlorophenyl)(hydroxy)methyl]-5,5-dimethyl-1,3,2-dioxaphosphinan-2-one
_symmetry_cell_setting           monoclinic
_symmetry_space_group_name_H-M   'P 21/c'
_symmetry_Int_Tables_number      14
_space_group_name_Hall           '-P 2ybc'
loop_
_symmetry_equiv_pos_site_id
_symmetry_equiv_pos_as_xyz
1 x,y,z
2 -x,1/2+y,1/2-z
3 -x,-y,-z
4 x,1/2-y,1/2+z
_cell_length_a                   12.8965(11)
_cell_length_b                   9.4449(8)
_cell_length_c                   11.6425(10)
_cell_angle_alpha                90
_cell_angle_beta                 98.6300(10)
_cell_angle_gamma                90
_cell_volume                     1402.07
_exptl_crystal_colour            colorless
_exptl_crystal_description       block
_cell_formula_units_Z            4
_exptl_crystal_recrystallization_method 'ethyl acetate'
loop_
_atom_site_label
_atom_site_type_symbol
_atom_site_fract_x
_atom_site_fract_y
_atom_site_fract_z
C1 C 0.2944(2) 0.3005(3) 0.5354(2)
H1 H 0.2923 0.3256 0.6150
H2 H 0.3596 0.3312 0.5135
H3 H 0.2883 0.1996 0.5267
C2 C 0.2096(3) 0.5330(3) 0.4720(3)
H4 H 0.1547 0.5765 0.4188
H5 H 0.2764 0.5659 0.4561
H6 H 0.2014 0.5577 0.5501
C3 C 0.2035(2) 0.3720(2) 0.4576(2)
C4 C 0.2059(2) 0.3377(2) 0.3303(2)
H7 H 0.1519 0.3917 0.2823
H8 H 0.2733 0.3655 0.3099
C5 C 0.09896(19) 0.3251(2) 0.4897(2)
H9 H 0.0971 0.3465 0.5708
H10 H 0.0428 0.3773 0.4434
C6 C 0.12155(17) -0.0698(2) 0.36460(19)
H11 H 0.0632 -0.1171 0.3939
C7 C 0.21964(16) -0.09498(19) 0.44979(18)
C8 C 0.31652(19) -0.1076(3) 0.4118(2)
H12 H 0.3212 -0.0978 0.3333
C9 C 0.4058(2) -0.1346(3) 0.4902(3)
H13 H 0.4705 -0.1435 0.4647
C10 C 0.3983(2) -0.1482(3) 0.6055(3)
C11 C 0.3035(2) -0.1347(3) 0.6457(2)
H14 H 0.2996 -0.1430 0.7245
C12 C 0.21483(19) -0.1088(2) 0.5673(2)
H15 H 0.1505 -0.1004 0.5936
Cl1 Cl 0.51070(8) -0.18286(16) 0.70446(9)
O1 O 0.18909(13) 0.18663(16) 0.30702(13)
O2 O 0.08252(12) 0.17262(17) 0.46986(13)
O3 O -0.00798(14) 0.1404(2) 0.26116(16)
O4 O 0.12788(16) -0.12340(19) 0.25263(15)
H16 H 0.0926 -0.1957 0.2418
P1 P 0.08858(4) 0.11632(6) 0.34372(5)
loop_
_geom_bond_atom_site_label_1
_geom_bond_atom_site_label_2
_geom_bond_site_symmetry_1
_geom_bond_site_symmetry_2
C1 H1 1_555 1_555
H2 C1 1_555 1_555
H3 C1 1_555 1_555
C2 H4 1_555 1_555
H5 C2 1_555 1_555
H6 C2 1_555 1_555
C3 C1 1_555 1_555
C4 C3 1_555 1_555
H7 C4 1_555 1_555
H8 C4 1_555 1_555
C5 C3 1_555 1_555
H9 C5 1_555 1_555
H10 C5 1_555 1_555
C6 H11 1_555 1_555
C7 C6 1_555 1_555
C8 C7 1_555 1_555
H12 C8 1_555 1_555
C9 C8 1_555 1_555
H13 C9 1_555 1_555
C10 C9 1_555 1_555
C11 C10 1_555 1_555
H14 C11 1_555 1_555
C12 C7 1_555 1_555
H15 C12 1_555 1_555
Cl1 C10 1_555 1_555
O1 C4 1_555 1_555
O2 C5 1_555 1_555
O3 P1 1_555 1_555
O4 C6 1_555 1_555
H16 O4 1_555 1_555
P1 C6 1_555 1_555
C2 C3 1_555 1_555
C11 C12 1_555 1_555
O1 P1 1_555 1_555
O2 P1 1_555 1_555

#END
