
#######################################################################
#
#                 Cambridge Crystallographic Data Centre
#                                CCDC 
#
#######################################################################
#
# If this CIF has been generated from an entry in the Cambridge 
# Structural Database, then it will include bibliographic, chemical, 
# crystal, experimental, refinement or atomic coordinate data resulting 
# from the CCDC's data processing and validation procedures.
#
#######################################################################

data_UPADUL
_chemical_name_common            
"N-(2-Fluorobenzoyl)-N',N''-bis(4-methylphenyl)phosphoric triamide"
_chemical_formula_moiety         'C21 H21 F1 N3 O2 P1'
_chemical_name_systematic        
N-(bis((4-methylphenyl)amino)phosphoryl)-2-fluorobenzamide
_symmetry_cell_setting           monoclinic
_symmetry_space_group_name_H-M   'P 21/n'
_symmetry_Int_Tables_number      14
_space_group_name_Hall           '-P 2yn'
loop_
_symmetry_equiv_pos_site_id
_symmetry_equiv_pos_as_xyz
1 x,y,z
2 1/2-x,1/2+y,1/2-z
3 -x,-y,-z
4 1/2+x,1/2-y,1/2+z
_cell_length_a                   9.7697(9)
_cell_length_b                   10.2197(9)
_cell_length_c                   20.2404(18)
_cell_angle_alpha                90
_cell_angle_beta                 96.6050(10)
_cell_angle_gamma                90
_cell_volume                     2007.46
_exptl_crystal_colour            colorless
_exptl_crystal_description       block
_cell_formula_units_Z            4
_exptl_crystal_recrystallization_method methanol/chloroform
loop_
_atom_site_label
_atom_site_type_symbol
_atom_site_fract_x
_atom_site_fract_y
_atom_site_fract_z
P1 P 0.72255(5) 0.92119(4) 0.50855(2)
F1 F 0.92737(14) 1.40039(12) 0.55287(6)
O1 O 0.91560(13) 1.14443(13) 0.50431(6)
O2 O 0.58757(12) 0.86140(12) 0.51487(6)
N1 N 0.69300(16) 1.08365(14) 0.50258(7)
H1 H 0.6074(11) 1.1095(19) 0.4983(9)
N2 N 0.79772(16) 0.87866(15) 0.44363(8)
H2 H 0.8811(12) 0.8507(19) 0.4525(10)
N3 N 0.84260(16) 0.88686(16) 0.56874(8)
H3 H 0.9270(12) 0.905(2) 0.5636(10)
C1 C 0.8139(2) 1.41838(19) 0.50898(9)
C2 C 0.7701(2) 1.5451(2) 0.49516(11)
H4 H 0.8194 1.6173 0.5157
C3 C 0.6533(2) 1.5647(2) 0.45090(11)
H5 H 0.6219 1.6511 0.4408
C4 C 0.5822(2) 1.4596(2) 0.42132(11)
H6 H 0.5029 1.4737 0.3903
C5 C 0.6265(2) 1.33331(19) 0.43680(9)
H7 H 0.5765 1.2612 0.4166
C6 C 0.74372(19) 1.31052(17) 0.48164(9)
C7 C 0.79305(18) 1.17460(18) 0.49728(8)
C8 C 0.7441(2) 0.89104(17) 0.37612(9)
C9 C 0.6203(2) 0.9545(2) 0.35614(10)
H8 H 0.5685 0.9914 0.3884
C10 C 0.5725(2) 0.9640(2) 0.28921(10)
H9 H 0.4886 1.0089 0.2762
C11 C 0.6439(2) 0.9096(2) 0.24070(10)
C12 C 0.7657(2) 0.8443(2) 0.26118(10)
H10 H 0.8157 0.8051 0.2288
C13 C 0.8164(2) 0.8347(2) 0.32801(10)
H11 H 0.9004 0.7898 0.3409
C14 C 0.5884(3) 0.9202(3) 0.16774(11)
H12 H 0.6098 0.8398 0.1446
H13 H 0.6313 0.9950 0.1479
H14 H 0.4884 0.9326 0.1636
C15 C 0.8269(2) 0.85706(18) 0.63606(9)
C16 C 0.7217(2) 0.7756(2) 0.65213(10)
H15 H 0.6570 0.7408 0.6180
C17 C 0.7115(2) 0.7452(3) 0.71817(11)
H16 H 0.6367 0.6929 0.7288
C18 C 0.8072(3) 0.7891(2) 0.76906(10)
C19 C 0.9162(3) 0.8633(2) 0.75138(11)
H17 H 0.9862 0.8909 0.7850
C20 C 0.9253(3) 0.8980(2) 0.68584(11)
H18 H 1.0000 0.9504 0.6752
C21 C 0.7964(3) 0.7510(3) 0.84055(11)
H19 H 0.8791 0.7801 0.8687
H20 H 0.7879 0.6557 0.8437
H21 H 0.7150 0.7926 0.8556
loop_
_geom_bond_atom_site_label_1
_geom_bond_atom_site_label_2
_geom_bond_site_symmetry_1
_geom_bond_site_symmetry_2
P1 O2 1_555 1_555
F1 C1 1_555 1_555
O1 C7 1_555 1_555
N1 P1 1_555 1_555
H1 N1 1_555 1_555
N2 P1 1_555 1_555
H2 N2 1_555 1_555
N3 P1 1_555 1_555
H3 N3 1_555 1_555
C1 C2 1_555 1_555
C2 H4 1_555 1_555
C3 C2 1_555 1_555
H5 C3 1_555 1_555
C4 C3 1_555 1_555
H6 C4 1_555 1_555
C5 C4 1_555 1_555
H7 C5 1_555 1_555
C6 C1 1_555 1_555
C7 N1 1_555 1_555
C8 N2 1_555 1_555
C9 C8 1_555 1_555
H8 C9 1_555 1_555
C10 C9 1_555 1_555
H9 C10 1_555 1_555
C11 C10 1_555 1_555
C12 C11 1_555 1_555
H10 C12 1_555 1_555
C13 C8 1_555 1_555
H11 C13 1_555 1_555
C14 C11 1_555 1_555
H12 C14 1_555 1_555
H13 C14 1_555 1_555
H14 C14 1_555 1_555
C15 N3 1_555 1_555
C16 C15 1_555 1_555
H15 C16 1_555 1_555
C17 C16 1_555 1_555
H16 C17 1_555 1_555
C18 C17 1_555 1_555
C19 C18 1_555 1_555
H17 C19 1_555 1_555
C20 C15 1_555 1_555
H18 C20 1_555 1_555
C21 C18 1_555 1_555
H19 C21 1_555 1_555
H20 C21 1_555 1_555
H21 C21 1_555 1_555
C5 C6 1_555 1_555
C6 C7 1_555 1_555
C12 C13 1_555 1_555
C19 C20 1_555 1_555

#END
