
#######################################################################
#
#                 Cambridge Crystallographic Data Centre
#                                CCDC 
#
#######################################################################
#
# If this CIF has been generated from an entry in the Cambridge 
# Structural Database, then it will include bibliographic, chemical, 
# crystal, experimental, refinement or atomic coordinate data resulting 
# from the CCDC's data processing and validation procedures.
#
#######################################################################

data_UPAHEA
_chemical_compound_source        'Hypericum japonicum'
_chemical_formula_moiety         'C20 H28 O5'
_chemical_name_systematic        
2-methyl-1-(1,7,9-trihydroxy-1,4,4-trimethyl-2,3,3a,4,10,10a-hexahydro-1H-benzo[b]cyclopenta[e]oxepin-6-yl)propan-1-one
_symmetry_cell_setting           monoclinic
_symmetry_space_group_name_H-M   'P 21'
_symmetry_Int_Tables_number      4
_space_group_name_Hall           'P 2yb'
loop_
_symmetry_equiv_pos_site_id
_symmetry_equiv_pos_as_xyz
1 x,y,z
2 -x,1/2+y,-z
_cell_length_a                   6.1031(2)
_cell_length_b                   8.4657(3)
_cell_length_c                   18.0015(6)
_cell_angle_alpha                90
_cell_angle_beta                 94.0160(10)
_cell_angle_gamma                90
_cell_volume                     927.8
_exptl_crystal_colour            colorless
_exptl_crystal_description       prism
_cell_formula_units_Z            2
loop_
_atom_site_label
_atom_site_type_symbol
_atom_site_fract_x
_atom_site_fract_y
_atom_site_fract_z
O1 O 0.98781(15) 0.90418(13) 0.69444(5)
O2 O 1.09217(16) 0.72996(13) 0.94232(5)
H1 H 1.0357 0.6728 0.9740
O3 O 0.47663(17) 0.53836(14) 0.79588(6)
H2 H 0.4158 0.5427 0.7526
O4 O 0.42262(18) 0.62184(17) 0.66238(6)
O5 O 1.08159(16) 1.07422(13) 0.94655(5)
H3 H 1.1218 0.9794 0.9498
C1 C 1.4505(3) 1.1758(2) 0.93645(9)
H4 H 1.4412 1.2333 0.9834
H5 H 1.5449 1.2340 0.9042
H6 H 1.5126 1.0706 0.9467
C2 C 1.2216(2) 1.15931(19) 0.89774(8)
C3 C 1.2186(2) 1.07712(18) 0.82167(7)
H7 H 1.3344 1.1273 0.7929
C4 C 1.2583(2) 0.89757(19) 0.82217(7)
H8 H 1.3466 0.8695 0.7800
H9 H 1.3442 0.8683 0.8688
C5 C 1.0485(2) 0.80413(18) 0.81623(8)
C6 C 0.9197(2) 0.80592(18) 0.74945(8)
C7 C 0.7280(2) 0.7120(2) 0.73693(8)
C8 C 0.6045(2) 0.6868(2) 0.66457(9)
C9 C 0.7019(3) 0.7224(2) 0.59101(8)
H10 H 0.7715 0.8293 0.5942
C10 C 0.8798(3) 0.5997(3) 0.57988(10)
H11 H 0.9932 0.6063 0.6211
H12 H 0.9459 0.6201 0.5327
H13 H 0.8145 0.4939 0.5787
C11 C 1.1074(3) 1.3178(2) 0.88020(9)
H14 H 1.2171 1.4040 0.8801
H15 H 1.0025 1.3422 0.9181
C12 C 0.9846(3) 1.30173(19) 0.80239(9)
H16 H 0.8305 1.3377 0.8034
H17 H 1.0581 1.3642 0.7649
C13 C 0.9949(2) 1.12552(19) 0.78516(8)
H18 H 0.8813 1.0731 0.8141
C14 C 0.9482(2) 1.07581(19) 0.70356(8)
C15 C 0.9704(2) 0.72003(18) 0.87615(8)
C16 C 0.7757(2) 0.63633(18) 0.86860(8)
H19 H 0.7225 0.5838 0.9104
C17 C 0.6581(2) 0.62911(18) 0.79986(8)
C18 C 0.5249(3) 0.7220(3) 0.52666(9)
H20 H 0.4620 0.6159 0.5209
H21 H 0.5902 0.7527 0.4806
H22 H 0.4091 0.7972 0.5372
C19 C 1.1007(2) 1.1497(2) 0.65042(8)
H23 H 1.2535 1.1313 0.6688
H24 H 1.0730 1.2636 0.6471
H25 H 1.0742 1.1021 0.6010
C20 C 0.7090(2) 1.1097(2) 0.67903(8)
H26 H 0.6824 1.0854 0.6259
H27 H 0.6771 1.2214 0.6875
H28 H 0.6135 1.0439 0.7078
loop_
_geom_bond_atom_site_label_1
_geom_bond_atom_site_label_2
_geom_bond_site_symmetry_1
_geom_bond_site_symmetry_2
O1 C6 1_555 1_555
O2 H1 1_555 1_555
O3 H2 1_555 1_555
O4 C8 1_555 1_555
O5 H3 1_555 1_555
C1 H4 1_555 1_555
H5 C1 1_555 1_555
H6 C1 1_555 1_555
C2 O5 1_555 1_555
C3 C2 1_555 1_555
H7 C3 1_555 1_555
C4 C3 1_555 1_555
H8 C4 1_555 1_555
H9 C4 1_555 1_555
C5 C4 1_555 1_555
C6 C5 1_555 1_555
C7 C6 1_555 1_555
C8 C7 1_555 1_555
C9 C8 1_555 1_555
H10 C9 1_555 1_555
C10 C9 1_555 1_555
H11 C10 1_555 1_555
H12 C10 1_555 1_555
H13 C10 1_555 1_555
C11 C2 1_555 1_555
H14 C11 1_555 1_555
H15 C11 1_555 1_555
C12 C11 1_555 1_555
H16 C12 1_555 1_555
H17 C12 1_555 1_555
C13 C3 1_555 1_555
H18 C13 1_555 1_555
C14 O1 1_555 1_555
C15 O2 1_555 1_555
C16 C15 1_555 1_555
H19 C16 1_555 1_555
C17 O3 1_555 1_555
C18 C9 1_555 1_555
H20 C18 1_555 1_555
H21 C18 1_555 1_555
H22 C18 1_555 1_555
C19 C14 1_555 1_555
H23 C19 1_555 1_555
H24 C19 1_555 1_555
H25 C19 1_555 1_555
C20 C14 1_555 1_555
H26 C20 1_555 1_555
H27 C20 1_555 1_555
H28 C20 1_555 1_555
C1 C2 1_555 1_555
C5 C15 1_555 1_555
C7 C17 1_555 1_555
C12 C13 1_555 1_555
C13 C14 1_555 1_555
C16 C17 1_555 1_555

#END
