
#######################################################################
#
#                 Cambridge Crystallographic Data Centre
#                                CCDC 
#
#######################################################################
#
# If this CIF has been generated from an entry in the Cambridge 
# Structural Database, then it will include bibliographic, chemical, 
# crystal, experimental, refinement or atomic coordinate data resulting 
# from the CCDC's data processing and validation procedures.
#
#######################################################################

data_UPAHEZ
_chemical_name_common            
'Ethyl 4-(benzoylamino)-5-phenyl-4H-1,2,4-triazole-3-carboxylate monohydrate'
_chemical_formula_moiety         'C18 H16 N4 O3,H2 O1'
_chemical_name_systematic        
'Ethyl 4-benzamido-5-phenyl-4H-1,2,4-triazole-3-carboxylate monohydrate'
_symmetry_cell_setting           triclinic
_symmetry_space_group_name_H-M   'P -1'
_symmetry_Int_Tables_number      2
_space_group_name_Hall           '-P 1'
loop_
_symmetry_equiv_pos_site_id
_symmetry_equiv_pos_as_xyz
1 x,y,z
2 -x,-y,-z
_cell_length_a                   7.932(4)
_cell_length_b                   8.804(4)
_cell_length_c                   13.316(6)
_cell_angle_alpha                92.601(7)
_cell_angle_beta                 100.448(7)
_cell_angle_gamma                91.378(7)
_cell_volume                     913.047
_exptl_crystal_colour            colorless
_exptl_crystal_description       block
_chemical_melting_point          '498.45 K'
_cell_formula_units_Z            2
_exptl_crystal_recrystallization_method 'ethyl acetate'
loop_
_atom_site_label
_atom_site_type_symbol
_atom_site_fract_x
_atom_site_fract_y
_atom_site_fract_z
N1 N 0.7002(3) 0.9462(3) 0.91869(17)
N2 N 0.7312(3) 1.0778(3) 0.87158(17)
N3 N 0.4588(3) 1.0142(2) 0.82616(16)
N4 N 0.2941(3) 1.0037(2) 0.76763(16)
H1 H 0.2113 1.0549 0.7841
O1 O 0.5395(3) 0.7012(3) 0.99388(19)
O2 O 0.2954(3) 0.7483(2) 0.88903(15)
O3 O 0.3957(3) 0.8533(2) 0.65294(16)
C1 C 0.0303(6) 0.6067(6) 0.8672(4)
H2 H -0.0335 0.6930 0.8831
H3 H -0.0248 0.5154 0.8840
H4 H 0.0348 0.6021 0.7956
C2 C 0.2071(5) 0.6214(4) 0.9275(3)
H5 H 0.2037 0.6409 0.9993
H6 H 0.2672 0.5281 0.9200
C3 C 0.4579(4) 0.7737(3) 0.9298(2)
C4 C 0.5362(4) 0.9084(3) 0.88951(19)
C5 C 0.5855(3) 1.1164(3) 0.81539(19)
C6 C 0.5647(4) 1.2538(3) 0.75589(19)
C7 C 0.6932(4) 1.2967(3) 0.7040(2)
H7 H 0.7884 1.2369 0.7049
C8 C 0.6797(5) 1.4283(4) 0.6510(3)
H8 H 0.7663 1.4574 0.6165
C9 C 0.5387(5) 1.5165(4) 0.6491(3)
H9 H 0.5291 1.6046 0.6128
C10 C 0.4114(5) 1.4739(3) 0.7014(2)
H10 H 0.3166 1.5343 0.7008
C11 C 0.4232(4) 1.3429(3) 0.7545(2)
H11 H 0.3366 1.3144 0.7891
C12 C 0.2718(3) 0.9074(3) 0.6824(2)
C13 C 0.0926(3) 0.8745(3) 0.6287(2)
C14 C -0.0503(4) 0.9134(4) 0.6671(2)
H12 H -0.0379 0.9633 0.7312
C15 C -0.2125(4) 0.8794(4) 0.6118(3)
H13 H -0.3081 0.9072 0.6389
C16 C -0.2340(4) 0.8056(4) 0.5184(3)
H14 H -0.3435 0.7841 0.4810
C17 C -0.0927(5) 0.7635(5) 0.4803(3)
H15 H -0.1059 0.7109 0.4171
C18 C 0.0701(4) 0.7985(4) 0.5351(2)
H16 H 0.1654 0.7700 0.5080
O4 O 0.0919(3) 0.1549(3) 0.88695(18)
H17 H 0.146(5) 0.135(5) 0.9435(17)
H18 H -0.006(3) 0.129(5) 0.893(4)
loop_
_geom_bond_atom_site_label_1
_geom_bond_atom_site_label_2
_geom_bond_site_symmetry_1
_geom_bond_site_symmetry_2
N1 N2 1_555 1_555
N2 C5 1_555 1_555
N3 N4 1_555 1_555
N4 H1 1_555 1_555
O1 C3 1_555 1_555
O2 C2 1_555 1_555
O3 C12 1_555 1_555
O4 H17 1_555 1_555
C1 H2 1_555 1_555
H3 C1 1_555 1_555
H4 C1 1_555 1_555
C2 C1 1_555 1_555
H5 C2 1_555 1_555
H6 C2 1_555 1_555
C3 O2 1_555 1_555
C4 N1 1_555 1_555
C5 N3 1_555 1_555
C6 C5 1_555 1_555
C7 C6 1_555 1_555
H7 C7 1_555 1_555
C8 C7 1_555 1_555
H8 C8 1_555 1_555
C9 C8 1_555 1_555
H9 C9 1_555 1_555
C10 C9 1_555 1_555
H10 C10 1_555 1_555
C11 C6 1_555 1_555
H11 C11 1_555 1_555
C12 N4 1_555 1_555
C13 C12 1_555 1_555
C14 C13 1_555 1_555
H12 C14 1_555 1_555
C15 C14 1_555 1_555
H13 C15 1_555 1_555
C16 C15 1_555 1_555
H14 C16 1_555 1_555
C17 C16 1_555 1_555
H15 C17 1_555 1_555
C18 C13 1_555 1_555
H16 C18 1_555 1_555
H18 O4 1_555 1_555
N3 C4 1_555 1_555
C3 C4 1_555 1_555
C10 C11 1_555 1_555
C17 C18 1_555 1_555

#END
