
#######################################################################
#
#                 Cambridge Crystallographic Data Centre
#                                CCDC 
#
#######################################################################
#
# If this CIF has been generated from an entry in the Cambridge 
# Structural Database, then it will include bibliographic, chemical, 
# crystal, experimental, refinement or atomic coordinate data resulting 
# from the CCDC's data processing and validation procedures.
#
#######################################################################

data_UPALON01
_chemical_formula_moiety         'C4 H6 N3 1+,H2 O4 P1 1-,H2 O1'
_chemical_name_systematic        
'2-aminopyrimidinium dihydrogen phosphate monohydrate'
_symmetry_cell_setting           triclinic
_symmetry_space_group_name_H-M   'P -1'
_symmetry_Int_Tables_number      2
_space_group_name_Hall           '-P 1'
loop_
_symmetry_equiv_pos_site_id
_symmetry_equiv_pos_as_xyz
1 x,y,z
2 -x,-y,-z
_cell_length_a                   6.2201(7)
_cell_length_b                   8.6139(9)
_cell_length_c                   9.4800(10)
_cell_angle_alpha                109.685(2)
_cell_angle_beta                 106.3340(10)
_cell_angle_gamma                95.4450(10)
_cell_volume                     448.725
_exptl_crystal_colour            colorless
_exptl_crystal_description       block
_cell_formula_units_Z            2
loop_
_atom_site_label
_atom_site_type_symbol
_atom_site_fract_x
_atom_site_fract_y
_atom_site_fract_z
P1 P 0.66872(11) 0.24639(8) 0.06024(8)
O1 O 0.8031(3) 0.4148(2) 0.1864(2)
O2 O 0.4234(3) 0.2041(2) 0.0505(2)
O3 O 0.8038(3) 0.1130(2) 0.0967(2)
H1 H 0.7217 0.0185 0.0471
O4 O 0.6629(3) 0.2389(2) -0.1079(2)
H2 H 0.7940 0.2645 -0.1067
N1 N 0.3421(3) 0.3698(3) 0.6040(2)
H3 H 0.2977 0.4448 0.6696
N2 N 0.6406(4) 0.2797(3) 0.5132(2)
N3 N 0.7048(4) 0.5361(3) 0.7184(2)
H4 H 0.6557 0.6109 0.7806
H5 H 0.8464 0.5534 0.7249
C1 C 0.5628(4) 0.3947(3) 0.6126(3)
C2 C 0.4893(5) 0.1433(3) 0.4076(3)
H6 H 0.5398 0.0630 0.3378
C3 C 0.2593(5) 0.1112(4) 0.3932(3)
H7 H 0.1587 0.0126 0.3173
C4 C 0.1887(5) 0.2300(3) 0.4948(3)
H8 H 0.0362 0.2155 0.4895
O5 O 0.0634(3) 0.2910(2) 0.8589(2)
H9 H 0.1738 0.2655 0.9172
H10 H 0.1135 0.3873 0.8609
loop_
_geom_bond_atom_site_label_1
_geom_bond_atom_site_label_2
_geom_bond_site_symmetry_1
_geom_bond_site_symmetry_2
P1 O1 1_555 1_555
O2 P1 1_555 1_555
O3 P1 1_555 1_555
H1 O3 1_555 1_555
O4 P1 1_555 1_555
H2 O4 1_555 1_555
N1 H3 1_555 1_555
N2 C1 1_555 1_555
N3 H4 1_555 1_555
H5 N3 1_555 1_555
C1 N1 1_555 1_555
C2 N2 1_555 1_555
H6 C2 1_555 1_555
C3 C2 1_555 1_555
H7 C3 1_555 1_555
C4 N1 1_555 1_555
H8 C4 1_555 1_555
O5 H9 1_555 1_555
H10 O5 1_555 1_555
N3 C1 1_555 1_555
C3 C4 1_555 1_555

#END
