
#######################################################################
#
#                 Cambridge Crystallographic Data Centre
#                                CCDC 
#
#######################################################################
#
# If this CIF has been generated from an entry in the Cambridge 
# Structural Database, then it will include bibliographic, chemical, 
# crystal, experimental, refinement or atomic coordinate data resulting 
# from the CCDC's data processing and validation procedures.
#
#######################################################################

data_UPAMOO
_chemical_formula_moiety         'C26 H20 B1 N3 O1'
_chemical_name_systematic        
diphenyl[3-phenyl-1-(pyridin-2-yl)-1H-pyrazol-5-olato]boron
_symmetry_cell_setting           triclinic
_symmetry_space_group_name_H-M   'P -1'
_symmetry_Int_Tables_number      2
_space_group_name_Hall           '-P 1'
loop_
_symmetry_equiv_pos_site_id
_symmetry_equiv_pos_as_xyz
1 x,y,z
2 -x,-y,-z
_cell_length_a                   9.73090(10)
_cell_length_b                   9.88300(10)
_cell_length_c                   11.21620(10)
_cell_angle_alpha                78.9660(10)
_cell_angle_beta                 81.7950(10)
_cell_angle_gamma                79.9930(10)
_cell_volume                     1035.91
_exptl_crystal_colour            'pale yellow'
_exptl_crystal_description       block
_cell_formula_units_Z            2
loop_
_atom_site_label
_atom_site_type_symbol
_atom_site_fract_x
_atom_site_fract_y
_atom_site_fract_z
N1 N 0.34223(10) 0.62671(9) 0.41391(8)
N2 N 0.33209(10) 0.73403(10) 0.47857(9)
C1 C 0.20130(12) 0.74313(12) 0.53352(10)
C2 C 0.12724(12) 0.64242(12) 0.50700(10)
H1 H 0.0351 0.6293 0.5354
C3 C 0.22001(11) 0.56935(11) 0.43117(9)
C4 C 0.46530(11) 0.58301(11) 0.34599(9)
N3 N 0.45672(9) 0.49060(9) 0.27425(8)
C5 C 0.57501(13) 0.44224(13) 0.20644(11)
H2 H 0.5706 0.3766 0.1583
C6 C 0.70060(13) 0.48605(13) 0.20602(12)
H3 H 0.7800 0.4516 0.1578
C7 C 0.70778(13) 0.58275(13) 0.27872(12)
H4 H 0.7922 0.6145 0.2790
C8 C 0.59005(12) 0.63144(12) 0.35022(11)
H5 H 0.5936 0.6953 0.4003
C9 C 0.15138(13) 0.85394(12) 0.60693(10)
C10 C 0.24704(15) 0.92376(14) 0.64202(13)
H6 H 0.3428 0.8949 0.6246
C11 C 0.20174(19) 1.03558(16) 0.70253(14)
H7 H 0.2668 1.0816 0.7255
C12 C 0.05972(19) 1.07890(16) 0.72888(14)
H8 H 0.0288 1.1555 0.7678
C13 C -0.03519(17) 1.00873(17) 0.69750(13)
H9 H -0.1308 1.0368 0.7168
C14 C 0.00942(14) 0.89644(15) 0.63743(12)
H10 H -0.0563 0.8490 0.6173
O1 O 0.21775(8) 0.45786(8) 0.38208(7)
B1 B 0.30310(14) 0.45262(13) 0.25937(12)
C15 C 0.23337(12) 0.57188(12) 0.15691(10)
C16 C 0.29568(15) 0.68316(13) 0.08918(11)
H11 H 0.3863 0.6910 0.1015
C17 C 0.22721(18) 0.78278(15) 0.00390(13)
H12 H 0.2717 0.8562 -0.0395
C18 C 0.09335(17) 0.77314(15) -0.01651(13)
H13 H 0.0470 0.8398 -0.0736
C19 C 0.02870(15) 0.66393(16) 0.04825(13)
H14 H -0.0614 0.6563 0.0345
C20 C 0.09721(13) 0.56573(14) 0.13358(12)
H15 H 0.0515 0.4931 0.1770
C21 C 0.32831(12) 0.29614(12) 0.23273(11)
C22 C 0.33295(15) 0.26571(15) 0.11599(13)
H16 H 0.3125 0.3381 0.0517
C23 C 0.36740(19) 0.12997(17) 0.09288(17)
H17 H 0.3698 0.1124 0.0140
C24 C 0.39796(18) 0.02182(16) 0.18673(19)
H18 H 0.4220 -0.0690 0.1713
C25 C 0.39304(18) 0.04790(15) 0.30304(17)
H19 H 0.4132 -0.0253 0.3668
C26 C 0.35801(15) 0.18321(13) 0.32561(14)
H20 H 0.3542 0.1993 0.4051
loop_
_geom_bond_atom_site_label_1
_geom_bond_atom_site_label_2
_geom_bond_site_symmetry_1
_geom_bond_site_symmetry_2
N1 N2 1_555 1_555
N2 C1 1_555 1_555
C1 C2 1_555 1_555
C2 H1 1_555 1_555
C3 N1 1_555 1_555
C4 N1 1_555 1_555
N3 C4 1_555 1_555
C5 N3 1_555 1_555
H2 C5 1_555 1_555
C6 C5 1_555 1_555
H3 C6 1_555 1_555
C7 C6 1_555 1_555
H4 C7 1_555 1_555
C8 C4 1_555 1_555
H5 C8 1_555 1_555
C9 C1 1_555 1_555
C10 C9 1_555 1_555
H6 C10 1_555 1_555
C11 C10 1_555 1_555
H7 C11 1_555 1_555
C12 C11 1_555 1_555
H8 C12 1_555 1_555
C13 C12 1_555 1_555
H9 C13 1_555 1_555
C14 C9 1_555 1_555
H10 C14 1_555 1_555
O1 C3 1_555 1_555
B1 N3 1_555 1_555
C15 B1 1_555 1_555
C16 C15 1_555 1_555
H11 C16 1_555 1_555
C17 C16 1_555 1_555
H12 C17 1_555 1_555
C18 C17 1_555 1_555
H13 C18 1_555 1_555
C19 C18 1_555 1_555
H14 C19 1_555 1_555
C20 C15 1_555 1_555
H15 C20 1_555 1_555
C21 B1 1_555 1_555
C22 C21 1_555 1_555
H16 C22 1_555 1_555
C23 C22 1_555 1_555
H17 C23 1_555 1_555
C24 C23 1_555 1_555
H18 C24 1_555 1_555
C25 C24 1_555 1_555
H19 C25 1_555 1_555
C26 C21 1_555 1_555
H20 C26 1_555 1_555
C2 C3 1_555 1_555
C7 C8 1_555 1_555
C13 C14 1_555 1_555
O1 B1 1_555 1_555
C19 C20 1_555 1_555
C25 C26 1_555 1_555

#END
