
#######################################################################
#
#                 Cambridge Crystallographic Data Centre
#                                CCDC 
#
#######################################################################
#
# If this CIF has been generated from an entry in the Cambridge 
# Structural Database, then it will include bibliographic, chemical, 
# crystal, experimental, refinement or atomic coordinate data resulting 
# from the CCDC's data processing and validation procedures.
#
#######################################################################

data_UPAMUU
_chemical_formula_moiety         'C31 H29 N1 O5'
_chemical_name_systematic        
'Methyl 9-(dimethylamino)-2,2-bis(4-methoxyphenyl)-2H-benzo[h]chromene-5-carboxylate'
_symmetry_cell_setting           triclinic
_symmetry_space_group_name_H-M   'P -1'
_symmetry_Int_Tables_number      2
_space_group_name_Hall           '-P 1'
loop_
_symmetry_equiv_pos_site_id
_symmetry_equiv_pos_as_xyz
1 x,y,z
2 -x,-y,-z
_cell_length_a                   9.89230(10)
_cell_length_b                   10.95350(10)
_cell_length_c                   12.1720(2)
_cell_angle_alpha                93.8600(10)
_cell_angle_beta                 112.3340(10)
_cell_angle_gamma                93.4840(10)
_cell_volume                     1211.86
_exptl_crystal_colour            'pale yellow'
_exptl_crystal_description       block
_cell_formula_units_Z            2
loop_
_atom_site_label
_atom_site_type_symbol
_atom_site_fract_x
_atom_site_fract_y
_atom_site_fract_z
O1 O 0.76711(8) 0.30077(7) 0.13618(7)
C1 C 0.85589(11) 0.20946(10) 0.20221(9)
C2 C 0.87855(11) 0.11475(10) 0.11607(10)
H1 H 0.8917 0.0346 0.1359
C3 C 0.87987(12) 0.14469(10) 0.01194(10)
H2 H 0.8955 0.0858 -0.0396
C4 C 0.88292(11) 0.31985(10) -0.11883(9)
C5 C 0.85247(11) 0.43872(10) -0.14310(10)
H3 H 0.8712 0.4709 -0.2052
C6 C 0.76333(12) 0.63497(10) -0.10014(10)
H4 H 0.7844 0.6683 -0.1607
C7 C 0.70393(12) 0.70498(10) -0.03624(10)
H5 H 0.6867 0.7854 -0.0533
C8 C 0.66750(12) 0.65696(10) 0.05674(10)
C9 C 0.70099(12) 0.53750(10) 0.08386(10)
H6 H 0.6810 0.5051 0.1454
C10 C 0.85677(11) 0.27014(10) -0.02134(9)
C11 C 0.80112(11) 0.34390(10) 0.04496(9)
C12 C 0.79380(11) 0.51228(10) -0.07627(9)
C13 C 0.76453(11) 0.46558(10) 0.01930(9)
C14 C 0.76705(11) 0.14752(10) 0.26565(9)
C15 C 0.82776(12) 0.05611(10) 0.33973(10)
H7 H 0.9253 0.0419 0.3577
C16 C 0.74499(12) -0.01354(10) 0.38671(10)
H8 H 0.7872 -0.0735 0.4363
C17 C 0.59832(12) 0.00633(10) 0.35958(9)
C18 C 0.53879(12) 0.10179(10) 0.29232(10)
H9 H 0.4431 0.1191 0.2783
C19 C 0.62394(12) 0.17146(10) 0.24595(9)
H10 H 0.5839 0.2352 0.2009
O2 O 0.52207(8) -0.07485(7) 0.40074(7)
C20 C 0.36555(12) -0.07890(11) 0.34952(11)
H11 H 0.3245 -0.1387 0.3851
H12 H 0.3311 -0.1011 0.2651
H13 H 0.3360 0.0005 0.3640
C21 C 1.00119(11) 0.27358(10) 0.29325(9)
C22 C 1.12940(12) 0.21328(10) 0.33087(10)
H14 H 1.1278 0.1341 0.2973
C23 C 1.25908(12) 0.26982(10) 0.41753(10)
H15 H 1.3431 0.2281 0.4424
C24 C 1.26337(12) 0.38915(10) 0.46725(10)
C25 C 1.13676(12) 0.45073(10) 0.43051(10)
H16 H 1.1387 0.5303 0.4633
C26 C 1.00713(12) 0.39214(10) 0.34431(10)
H17 H 0.9227 0.4334 0.3204
O3 O 1.39640(9) 0.43746(8) 0.55056(7)
C27 C 1.40552(14) 0.56030(12) 0.60149(12)
H18 H 1.5036 0.5838 0.6583
H19 H 1.3381 0.5650 0.6409
H20 H 1.3810 0.6148 0.5396
C28 C 0.94328(11) 0.24645(10) -0.19365(10)
O4 O 0.97530(10) 0.14182(8) -0.18347(8)
O5 O 0.95645(10) 0.30908(8) -0.28129(7)
C29 C 1.01776(14) 0.24406(12) -0.35540(11)
H21 H 1.0232 0.2948 -0.4152
H22 H 0.9565 0.1696 -0.3933
H23 H 1.1145 0.2244 -0.3071
N1 N 0.60408(13) 0.72739(10) 0.11748(10)
C30 C 0.55830(14) 0.84722(11) 0.08327(11)
H24 H 0.6429 0.9023 0.0950
H25 H 0.5084 0.8789 0.1315
H26 H 0.4933 0.8398 0.0007
C31 C 0.56895(14) 0.67773(11) 0.21202(11)
H27 H 0.5018 0.6052 0.1801
H28 H 0.5246 0.7379 0.2450
H29 H 0.6572 0.6573 0.2734
loop_
_geom_bond_atom_site_label_1
_geom_bond_atom_site_label_2
_geom_bond_site_symmetry_1
_geom_bond_site_symmetry_2
O1 C1 1_555 1_555
C1 C2 1_555 1_555
C2 H1 1_555 1_555
C3 C2 1_555 1_555
H2 C3 1_555 1_555
C4 C5 1_555 1_555
C5 H3 1_555 1_555
C6 H4 1_555 1_555
C7 C6 1_555 1_555
H5 C7 1_555 1_555
C8 C7 1_555 1_555
C9 C8 1_555 1_555
H6 C9 1_555 1_555
C10 C3 1_555 1_555
C11 O1 1_555 1_555
C12 C5 1_555 1_555
C13 C9 1_555 1_555
C14 C1 1_555 1_555
C15 C14 1_555 1_555
H7 C15 1_555 1_555
C16 C15 1_555 1_555
H8 C16 1_555 1_555
C17 C16 1_555 1_555
C18 C17 1_555 1_555
H9 C18 1_555 1_555
C19 C14 1_555 1_555
H10 C19 1_555 1_555
O2 C17 1_555 1_555
C20 O2 1_555 1_555
H11 C20 1_555 1_555
H12 C20 1_555 1_555
H13 C20 1_555 1_555
C21 C1 1_555 1_555
C22 C21 1_555 1_555
H14 C22 1_555 1_555
C23 C22 1_555 1_555
H15 C23 1_555 1_555
C24 C23 1_555 1_555
C25 C24 1_555 1_555
H16 C25 1_555 1_555
C26 C21 1_555 1_555
H17 C26 1_555 1_555
O3 C24 1_555 1_555
C27 O3 1_555 1_555
H18 C27 1_555 1_555
H19 C27 1_555 1_555
H20 C27 1_555 1_555
C28 C4 1_555 1_555
O4 C28 1_555 1_555
O5 C28 1_555 1_555
C29 O5 1_555 1_555
H21 C29 1_555 1_555
H22 C29 1_555 1_555
H23 C29 1_555 1_555
N1 C8 1_555 1_555
C30 N1 1_555 1_555
H24 C30 1_555 1_555
H25 C30 1_555 1_555
H26 C30 1_555 1_555
C31 N1 1_555 1_555
H27 C31 1_555 1_555
H28 C31 1_555 1_555
H29 C31 1_555 1_555
C4 C10 1_555 1_555
C6 C12 1_555 1_555
C10 C11 1_555 1_555
C11 C13 1_555 1_555
C12 C13 1_555 1_555
C18 C19 1_555 1_555
C25 C26 1_555 1_555

#END
