
#######################################################################
#
#                 Cambridge Crystallographic Data Centre
#                                CCDC 
#
#######################################################################
#
# If this CIF has been generated from an entry in the Cambridge 
# Structural Database, then it will include bibliographic, chemical, 
# crystal, experimental, refinement or atomic coordinate data resulting 
# from the CCDC's data processing and validation procedures.
#
#######################################################################

data_UPANOP
_chemical_formula_moiety         'C21 H28 Cl2 N3 O6'
_chemical_name_systematic        
'(R)-2-[1-(2,6-Dichloro-3,4,5-trimethoxybenzoyl)pyrrolidin-2-yl]-4,4,5,5-tetramethyl-4,5-dihydro-1H-imidazole-1-oxyl 3-oxide'
_symmetry_cell_setting           orthorhombic
_symmetry_space_group_name_H-M   'P 21 21 21'
_symmetry_Int_Tables_number      19
_space_group_name_Hall           'P 2ac 2ab'
loop_
_symmetry_equiv_pos_site_id
_symmetry_equiv_pos_as_xyz
1 x,y,z
2 1/2-x,-y,1/2+z
3 -x,1/2+y,1/2-z
4 1/2+x,1/2-y,-z
_cell_length_a                   10.975(2)
_cell_length_b                   12.255(3)
_cell_length_c                   17.741(4)
_cell_angle_alpha                90
_cell_angle_beta                 90
_cell_angle_gamma                90
_cell_volume                     2386.14
_exptl_crystal_colour            blue
_exptl_crystal_description       block
_cell_formula_units_Z            4
loop_
_atom_site_label
_atom_site_type_symbol
_atom_site_fract_x
_atom_site_fract_y
_atom_site_fract_z
Cl1 Cl 0.54734(13) 0.50531(12) -0.00306(8)
Cl2 Cl 0.85841(13) 0.71203(11) 0.18279(8)
N1 N 0.6828(4) 0.9676(3) 0.1322(2)
N2 N 0.4878(4) 0.9819(3) 0.1078(2)
N3 N 0.6736(3) 0.7723(3) 0.03080(19)
O1 O 0.3875(3) 0.9782(3) 0.0717(2)
O2 O 0.7966(3) 0.9505(3) 0.1213(2)
O3 O 0.5442(3) 0.7190(3) 0.12213(17)
O4 O 0.6903(4) 0.3135(3) 0.0339(2)
O5 O 0.8841(4) 0.3034(3) 0.1329(2)
O6 O 0.9682(3) 0.4954(3) 0.2006(2)
C1 C 0.6747(6) 0.9565(5) 0.2688(3)
H1 H 0.6584 0.8809 0.2591
H2 H 0.6307 0.9794 0.3128
H3 H 0.7605 0.9666 0.2769
C2 C 0.6345(5) 1.0242(4) 0.2016(2)
C3 C 0.6941(6) 1.1358(4) 0.2038(3)
H4 H 0.7810 1.1274 0.2056
H5 H 0.6670 1.1745 0.2477
H6 H 0.6719 1.1760 0.1594
C4 C 0.4234(6) 0.9421(6) 0.2350(4)
H7 H 0.4187 0.9680 0.2860
H8 H 0.4643 0.8728 0.2341
H9 H 0.3427 0.9339 0.2149
C5 C 0.4950(5) 1.0246(4) 0.1868(3)
C6 C 0.4332(7) 1.1325(5) 0.1905(4)
H10 H 0.4699 1.1812 0.1547
H11 H 0.4416 1.1621 0.2403
H12 H 0.3484 1.1237 0.1788
C7 C 0.5945(5) 0.9425(4) 0.0838(3)
C8 C 0.6088(4) 0.8744(3) 0.0148(2)
H13 H 0.5279 0.8571 -0.0053
C9 C 0.6861(5) 0.9281(4) -0.0482(3)
H14 H 0.6349 0.9666 -0.0840
H15 H 0.7451 0.9786 -0.0273
C10 C 0.7487(5) 0.8315(5) -0.0850(3)
H16 H 0.6946 0.7946 -0.1199
H17 H 0.8218 0.8540 -0.1116
C11 C 0.7795(4) 0.7592(4) -0.0183(3)
H18 H 0.7893 0.6838 -0.0338
H19 H 0.8534 0.7835 0.0065
C12 C 0.6345(4) 0.7020(4) 0.0830(3)
C13 C 0.7062(4) 0.5988(4) 0.0917(3)
C14 C 0.6708(4) 0.5020(4) 0.0577(2)
C15 C 0.7333(5) 0.4047(4) 0.0686(3)
C16 C 0.8309(5) 0.4042(4) 0.1181(3)
C17 C 0.8696(4) 0.4979(4) 0.1537(2)
C18 C 0.8091(5) 0.5945(4) 0.1389(3)
C19 C 0.7769(6) 0.2553(6) -0.0120(5)
H20 H 0.8400 0.3044 -0.0280
H21 H 0.7363 0.2259 -0.0554
H22 H 0.8121 0.1970 0.0168
C20 C 1.0077(5) 0.2909(5) 0.1148(4)
H23 H 1.0224 0.3193 0.0652
H24 H 1.0287 0.2149 0.1160
H25 H 1.0565 0.3299 0.1507
C21 C 0.9414(5) 0.4668(5) 0.2767(3)
H26 H 0.8876 0.5202 0.2981
H27 H 1.0156 0.4644 0.3053
H28 H 0.9030 0.3964 0.2779
loop_
_geom_bond_atom_site_label_1
_geom_bond_atom_site_label_2
_geom_bond_site_symmetry_1
_geom_bond_site_symmetry_2
Cl1 C14 1_555 1_555
Cl2 C18 1_555 1_555
N1 O2 1_555 1_555
N2 O1 1_555 1_555
N3 C8 1_555 1_555
O3 C12 1_555 1_555
O4 C15 1_555 1_555
O5 C16 1_555 1_555
O6 C17 1_555 1_555
C1 H1 1_555 1_555
H2 C1 1_555 1_555
H3 C1 1_555 1_555
C2 N1 1_555 1_555
C3 C2 1_555 1_555
H4 C3 1_555 1_555
H5 C3 1_555 1_555
H6 C3 1_555 1_555
C4 H7 1_555 1_555
H8 C4 1_555 1_555
H9 C4 1_555 1_555
C5 N2 1_555 1_555
C6 C5 1_555 1_555
H10 C6 1_555 1_555
H11 C6 1_555 1_555
H12 C6 1_555 1_555
C7 N1 1_555 1_555
C8 C7 1_555 1_555
H13 C8 1_555 1_555
C9 C8 1_555 1_555
H14 C9 1_555 1_555
H15 C9 1_555 1_555
C10 C9 1_555 1_555
H16 C10 1_555 1_555
H17 C10 1_555 1_555
C11 N3 1_555 1_555
H18 C11 1_555 1_555
H19 C11 1_555 1_555
C12 N3 1_555 1_555
C13 C12 1_555 1_555
C14 C13 1_555 1_555
C15 C14 1_555 1_555
C16 C15 1_555 1_555
C17 C16 1_555 1_555
C18 C13 1_555 1_555
C19 O4 1_555 1_555
H20 C19 1_555 1_555
H21 C19 1_555 1_555
H22 C19 1_555 1_555
C20 O5 1_555 1_555
H23 C20 1_555 1_555
H24 C20 1_555 1_555
H25 C20 1_555 1_555
C21 O6 1_555 1_555
H26 C21 1_555 1_555
H27 C21 1_555 1_555
H28 C21 1_555 1_555
N2 C7 1_555 1_555
C1 C2 1_555 1_555
C2 C5 1_555 1_555
C4 C5 1_555 1_555
C10 C11 1_555 1_555
C17 C18 1_555 1_555

#END
