
#######################################################################
#
#                 Cambridge Crystallographic Data Centre
#                                CCDC 
#
#######################################################################
#
# If this CIF has been generated from an entry in the Cambridge 
# Structural Database, then it will include bibliographic, chemical, 
# crystal, experimental, refinement or atomic coordinate data resulting 
# from the CCDC's data processing and validation procedures.
#
#######################################################################

data_UPAPEH
_chemical_formula_moiety         'C25 H16 N4'
_chemical_name_systematic        
1,2-Diphenyl-1H-imidazo[4,5-f][1,10]phenanthroline
_symmetry_cell_setting           triclinic
_symmetry_space_group_name_H-M   'P -1'
_symmetry_Int_Tables_number      2
_space_group_name_Hall           '-P 1'
loop_
_symmetry_equiv_pos_site_id
_symmetry_equiv_pos_as_xyz
1 x,y,z
2 -x,-y,-z
_cell_length_a                   8.8693(7)
_cell_length_b                   10.0637(6)
_cell_length_c                   11.8960(9)
_cell_angle_alpha                100.219(6)
_cell_angle_beta                 110.310(7)
_cell_angle_gamma                102.475(6)
_cell_volume                     934.625
_exptl_crystal_colour            colorless
_exptl_crystal_description       block
_chemical_melting_point          '579 K'
_cell_formula_units_Z            2
loop_
_atom_site_label
_atom_site_type_symbol
_atom_site_fract_x
_atom_site_fract_y
_atom_site_fract_z
N1 N 0.44262(13) 0.14038(11) 0.37008(9)
N2 N 0.21256(13) 0.07897(11) 0.41050(10)
N3 N 0.70826(15) 0.57164(12) 0.72960(11)
N4 N 0.4425(2) 0.47849(14) 0.78916(13)
C1 C 0.28544(15) 0.04678(13) 0.33444(12)
C2 C 0.32764(16) 0.19978(13) 0.49979(11)
C3 C 0.47004(15) 0.24080(13) 0.47676(11)
C4 C 0.60568(15) 0.36743(13) 0.55079(11)
C5 C 0.74828(17) 0.41987(15) 0.52720(13)
C6 C 0.86537(19) 0.54488(16) 0.60380(14)
C7 C 0.83894(19) 0.61654(15) 0.70255(13)
C8 C 0.59107(17) 0.44797(13) 0.65524(11)
C9 C 0.44390(18) 0.40051(14) 0.68438(12)
C10 C 0.3052(3) 0.4386(2) 0.81063(19)
C11 C 0.1641(3) 0.32423(19) 0.73479(18)
C12 C 0.1669(2) 0.24145(16) 0.63142(15)
C13 C 0.31040(17) 0.27871(14) 0.60500(12)
C14 C 0.54455(15) 0.13773(12) 0.29871(11)
C15 C 0.68211(17) 0.08736(15) 0.33628(14)
C16 C 0.7747(2) 0.08003(17) 0.26423(16)
C17 C 0.72777(19) 0.12065(16) 0.15536(15)
C18 C 0.5928(2) 0.17260(17) 0.12019(14)
C19 C 0.50057(17) 0.18306(15) 0.19273(13)
C20 C 0.21038(15) -0.07711(13) 0.22359(11)
C21 C 0.29258(18) -0.17796(15) 0.21043(13)
C22 C 0.2173(2) -0.29636(15) 0.10929(14)
C23 C 0.0601(2) -0.31457(15) 0.01978(13)
C24 C -0.02154(19) -0.21497(18) 0.03113(14)
C25 C 0.05283(17) -0.09633(16) 0.13260(13)
H1 H 0.76323 0.36890 0.45861
H2 H 0.96307 0.58201 0.58965
H3 H 0.92067 0.70407 0.75433
H4 H 0.30294 0.49252 0.88384
H5 H 0.06790 0.30395 0.75426
H6 H 0.07396 0.16076 0.57882
H7 H 0.71247 0.05821 0.41066
H8 H 0.87050 0.04707 0.28955
H9 H 0.78933 0.11258 0.10446
H10 H 0.56247 0.20157 0.04571
H11 H 0.40854 0.22091 0.16961
H12 H 0.40137 -0.16534 0.27149
H13 H 0.27385 -0.36536 0.10130
H14 H 0.00829 -0.39617 -0.04980
H15 H -0.12955 -0.22749 -0.03092
H16 H -0.00436 -0.02771 0.13996
loop_
_geom_bond_atom_site_label_1
_geom_bond_atom_site_label_2
_geom_bond_site_symmetry_1
_geom_bond_site_symmetry_2
N1 C1 1_555 1_555
N2 C1 1_555 1_555
N3 C7 1_555 1_555
N4 C9 1_555 1_555
C1 C20 1_555 1_555
C2 N2 1_555 1_555
C3 N1 1_555 1_555
C4 C3 1_555 1_555
C5 C4 1_555 1_555
C6 C5 1_555 1_555
C7 C6 1_555 1_555
C8 N3 1_555 1_555
C9 C8 1_555 1_555
C10 N4 1_555 1_555
C11 C10 1_555 1_555
C12 C11 1_555 1_555
C13 C2 1_555 1_555
C14 N1 1_555 1_555
C15 C14 1_555 1_555
C16 C15 1_555 1_555
C17 C16 1_555 1_555
C18 C17 1_555 1_555
C19 C14 1_555 1_555
C20 C21 1_555 1_555
C21 C22 1_555 1_555
C22 C23 1_555 1_555
C23 C24 1_555 1_555
C24 C25 1_555 1_555
C25 C20 1_555 1_555
H1 C5 1_555 1_555
H2 C6 1_555 1_555
H3 C7 1_555 1_555
H4 C10 1_555 1_555
H5 C11 1_555 1_555
H6 C12 1_555 1_555
H7 C15 1_555 1_555
H8 C16 1_555 1_555
H9 C17 1_555 1_555
H10 C18 1_555 1_555
H11 C19 1_555 1_555
H12 C21 1_555 1_555
H13 C22 1_555 1_555
H14 C23 1_555 1_555
H15 C24 1_555 1_555
H16 C25 1_555 1_555
C2 C3 1_555 1_555
C4 C8 1_555 1_555
C9 C13 1_555 1_555
C12 C13 1_555 1_555
C18 C19 1_555 1_555

#END
