
#######################################################################
#
#                 Cambridge Crystallographic Data Centre
#                                CCDC 
#
#######################################################################
#
# If this CIF has been generated from an entry in the Cambridge 
# Structural Database, then it will include bibliographic, chemical, 
# crystal, experimental, refinement or atomic coordinate data resulting 
# from the CCDC's data processing and validation procedures.
#
#######################################################################

data_UPAPOS
_chemical_compound_source        'Aspergillus wentii'
_chemical_formula_moiety         'C19 H26 O3'
_chemical_name_systematic        
4a,4b-dihydroxy-1,1,7-trimethyl-7-vinyl-2,3,4,4a,4b,5,6,7-octahydrophenanthren-9(1H)-one
_chemical_properties_biological  'antimicrobial activity'
_symmetry_cell_setting           monoclinic
_symmetry_space_group_name_H-M   'P 21'
_symmetry_Int_Tables_number      4
_space_group_name_Hall           'P 2yb'
loop_
_symmetry_equiv_pos_site_id
_symmetry_equiv_pos_as_xyz
1 x,y,z
2 -x,1/2+y,-z
_cell_length_a                   5.9126(3)
_cell_length_b                   22.9872(19)
_cell_length_c                   12.2565(8)
_cell_angle_alpha                90
_cell_angle_beta                 90.5130(10)
_cell_angle_gamma                90
_cell_volume                     1665.76
_cell_formula_units_Z            4
loop_
_atom_site_label
_atom_site_type_symbol
_atom_site_fract_x
_atom_site_fract_y
_atom_site_fract_z
O1 O 1.0365(8) 0.3672(2) -0.1176(4)
O2 O 0.5582(7) 0.2846(2) 0.0746(4)
H1 H 0.5710 0.2843 0.0081
O3 O 1.1363(8) 0.2653(2) 0.1856(4)
H2 H 1.2382 0.2683 0.1410
C1 C 0.8251(12) 0.2005(4) 0.1987(6)
H3 H 0.8318 0.2117 0.2749
H4 H 0.6671 0.1961 0.1784
C2 C 0.9421(15) 0.1431(4) 0.1854(8)
H5 H 1.1001 0.1469 0.2062
H6 H 0.8733 0.1145 0.2328
C3 C 0.9244(15) 0.1233(4) 0.0692(8)
H7 H 0.7660 0.1196 0.0491
H8 H 0.9934 0.0852 0.0627
C4 C 1.0399(12) 0.1654(3) -0.0101(7)
C5 C 0.9863(10) 0.2286(3) 0.0136(6)
C6 C 1.0141(11) 0.2696(3) -0.0643(5)
H9 H 1.0593 0.2574 -0.1330
C7 C 0.9783(10) 0.3315(3) -0.0481(5)
C8 C 0.8731(11) 0.3500(3) 0.0569(5)
C9 C 0.7688(11) 0.3025(3) 0.1241(5)
C10 C 0.9285(11) 0.2488(3) 0.1300(5)
C11 C 0.7096(13) 0.3239(4) 0.2377(6)
H10 H 0.6081 0.2964 0.2718
H11 H 0.8461 0.3262 0.2819
C12 C 0.5986(14) 0.3828(4) 0.2332(6)
H12 H 0.5553 0.3941 0.3063
H13 H 0.4620 0.3802 0.1890
C13 C 0.7551(16) 0.4304(4) 0.1849(7)
C14 C 0.8659(13) 0.4059(3) 0.0833(6)
H14 H 0.9338 0.4322 0.0360
C15 C 0.609(2) 0.4804(5) 0.1522(9)
H15 H 0.5443 0.4760 0.0832
C16 C 0.553(3) 0.5279(7) 0.1984(14)
H16 H 0.6087 0.5366 0.2678
H17 H 0.4572 0.5539 0.1628
C17 C 1.2951(13) 0.1558(4) -0.0025(8)
H18 H 1.3705 0.1831 -0.0490
H19 H 1.3304 0.1169 -0.0252
H20 H 1.3450 0.1614 0.0715
C18 C 0.9625(18) 0.1493(4) -0.1257(8)
H21 H 0.8003 0.1502 -0.1298
H22 H 1.0149 0.1109 -0.1431
H23 H 1.0236 0.1767 -0.1768
C19 C 0.940(2) 0.4479(5) 0.2658(8)
H24 H 1.0430 0.4743 0.2312
H25 H 1.0209 0.4139 0.2894
H26 H 0.8734 0.4666 0.3277
O4 O 0.5373(9) 0.2799(3) 0.8459(4)
O5 O 0.0528(7) 0.3569(2) 0.6502(4)
H27 H 0.0723 0.3617 0.7159
O6 O 0.6259(8) 0.3776(2) 0.5366(4)
H28 H 0.7290 0.3736 0.5811
C20 C 0.3117(13) 0.4404(4) 0.5213(6)
H29 H 0.1552 0.4446 0.5430
H30 H 0.3130 0.4276 0.4459
C21 C 0.4300(16) 0.4996(4) 0.5300(8)
H31 H 0.5872 0.4960 0.5092
H32 H 0.3574 0.5274 0.4816
C22 C 0.4148(14) 0.5201(4) 0.6456(7)
H33 H 0.2568 0.5225 0.6657
H34 H 0.4784 0.5589 0.6508
C23 C 0.5385(13) 0.4803(4) 0.7269(7)
C24 C 0.4823(11) 0.4160(3) 0.7070(6)
C25 C 0.5121(11) 0.3761(3) 0.7869(5)
H35 H 0.5558 0.3894 0.8556
C26 C 0.4808(11) 0.3142(3) 0.7730(5)
C27 C 0.3779(11) 0.2938(3) 0.6690(5)
C28 C 0.2667(11) 0.3403(3) 0.6001(5)
C29 C 0.4241(11) 0.3946(3) 0.5920(5)
C30 C 0.2045(13) 0.3168(4) 0.4872(6)
H36 H 0.3383 0.3163 0.4419
H37 H 0.0943 0.3424 0.4531
C31 C 0.1066(16) 0.2552(4) 0.4937(7)
H38 H 0.0604 0.2426 0.4213
H39 H -0.0265 0.2556 0.5395
C32 C 0.2792(17) 0.2120(4) 0.5405(7)
C33 C 0.3824(14) 0.2381(4) 0.6437(6)
H40 H 0.4537 0.2129 0.6924
C34 C 0.152(3) 0.1592(6) 0.5734(10)
H41 H 0.1029 0.1640 0.6446
C35 C 0.088(3) 0.1106(7) 0.5392(14)
H42 H 0.1230 0.0988 0.4688
H43 H 0.0046 0.0862 0.5843
C36 C 0.4692(19) 0.4993(5) 0.8411(8)
H44 H 0.4934 0.5404 0.8489
H45 H 0.5586 0.4789 0.8944
H46 H 0.3121 0.4907 0.8517
C37 C 0.7928(15) 0.4886(4) 0.7159(9)
H47 H 0.8384 0.4776 0.6438
H48 H 0.8702 0.4649 0.7687
H49 H 0.8301 0.5288 0.7283
C38 C 0.463(2) 0.1988(5) 0.4590(8)
H50 H 0.3953 0.1846 0.3926
H51 H 0.5628 0.1698 0.4885
H52 H 0.5464 0.2337 0.4441
loop_
_geom_bond_atom_site_label_1
_geom_bond_atom_site_label_2
_geom_bond_site_symmetry_1
_geom_bond_site_symmetry_2
O1 C7 1_555 1_555
O2 H1 1_555 1_555
O3 H2 1_555 1_555
C1 H3 1_555 1_555
H4 C1 1_555 1_555
C2 C1 1_555 1_555
H5 C2 1_555 1_555
H6 C2 1_555 1_555
C3 C2 1_555 1_555
H7 C3 1_555 1_555
H8 C3 1_555 1_555
C4 C3 1_555 1_555
C5 C4 1_555 1_555
C6 C5 1_555 1_555
H9 C6 1_555 1_555
C7 C6 1_555 1_555
C8 C7 1_555 1_555
C9 O2 1_555 1_555
C10 O3 1_555 1_555
C11 C9 1_555 1_555
H10 C11 1_555 1_555
H11 C11 1_555 1_555
C12 C11 1_555 1_555
H12 C12 1_555 1_555
H13 C12 1_555 1_555
C13 C12 1_555 1_555
C14 C8 1_555 1_555
H14 C14 1_555 1_555
C15 C13 1_555 1_555
H15 C15 1_555 1_555
C16 C15 1_555 1_555
H16 C16 1_555 1_555
H17 C16 1_555 1_555
C17 C4 1_555 1_555
H18 C17 1_555 1_555
H19 C17 1_555 1_555
H20 C17 1_555 1_555
C18 C4 1_555 1_555
H21 C18 1_555 1_555
H22 C18 1_555 1_555
H23 C18 1_555 1_555
C19 C13 1_555 1_555
H24 C19 1_555 1_555
H25 C19 1_555 1_555
H26 C19 1_555 1_555
O4 C26 1_555 1_555
O5 H27 1_555 1_555
O6 H28 1_555 1_555
C20 H29 1_555 1_555
H30 C20 1_555 1_555
C21 C20 1_555 1_555
H31 C21 1_555 1_555
H32 C21 1_555 1_555
C22 C21 1_555 1_555
H33 C22 1_555 1_555
H34 C22 1_555 1_555
C23 C22 1_555 1_555
C24 C23 1_555 1_555
C25 C24 1_555 1_555
H35 C25 1_555 1_555
C26 C25 1_555 1_555
C27 C26 1_555 1_555
C28 O5 1_555 1_555
C29 O6 1_555 1_555
C30 C28 1_555 1_555
H36 C30 1_555 1_555
H37 C30 1_555 1_555
C31 C30 1_555 1_555
H38 C31 1_555 1_555
H39 C31 1_555 1_555
C32 C31 1_555 1_555
C33 C27 1_555 1_555
H40 C33 1_555 1_555
C34 C32 1_555 1_555
H41 C34 1_555 1_555
C35 C34 1_555 1_555
H42 C35 1_555 1_555
H43 C35 1_555 1_555
C36 C23 1_555 1_555
H44 C36 1_555 1_555
H45 C36 1_555 1_555
H46 C36 1_555 1_555
C37 C23 1_555 1_555
H47 C37 1_555 1_555
H48 C37 1_555 1_555
H49 C37 1_555 1_555
C38 C32 1_555 1_555
H50 C38 1_555 1_555
H51 C38 1_555 1_555
H52 C38 1_555 1_555
C1 C10 1_555 1_555
C5 C10 1_555 1_555
C8 C9 1_555 1_555
C9 C10 1_555 1_555
C13 C14 1_555 1_555
C20 C29 1_555 1_555
C24 C29 1_555 1_555
C27 C28 1_555 1_555
C28 C29 1_555 1_555
C32 C33 1_555 1_555

#END
