
#######################################################################
#
#                 Cambridge Crystallographic Data Centre
#                                CCDC 
#
#######################################################################
#
# If this CIF has been generated from an entry in the Cambridge 
# Structural Database, then it will include bibliographic, chemical, 
# crystal, experimental, refinement or atomic coordinate data resulting 
# from the CCDC's data processing and validation procedures.
#
#######################################################################

data_UPAPUX
_chemical_formula_moiety         'C9 H8 O2'
_chemical_name_systematic        5-Hydroxyindan-1-one
_symmetry_cell_setting           orthorhombic
_symmetry_space_group_name_H-M   'P n m a'
_symmetry_Int_Tables_number      62
_space_group_name_Hall           '-P 2ac 2n'
loop_
_symmetry_equiv_pos_site_id
_symmetry_equiv_pos_as_xyz
1 x,y,z
2 1/2-x,-y,1/2+z
3 -x,1/2+y,-z
4 1/2+x,1/2-y,1/2-z
5 -x,-y,-z
6 1/2+x,y,1/2-z
7 x,1/2-y,z
8 1/2-x,1/2+y,1/2+z
_cell_length_a                   13.9126(7)
_cell_length_b                   6.7332(4)
_cell_length_c                   7.5368(3)
_cell_angle_alpha                90
_cell_angle_beta                 90
_cell_angle_gamma                90
_cell_volume                     706.02
_exptl_crystal_colour            yellow
_exptl_crystal_description       parallelepiped
_cell_formula_units_Z            4
loop_
_atom_site_label
_atom_site_type_symbol
_atom_site_fract_x
_atom_site_fract_y
_atom_site_fract_z
O1 O 0.80931(8) 0.2500 0.98929(18)
O2 O 0.34842(9) 0.2500 0.85642(18)
H1 H 0.3393(16) 0.2500 0.728(3)
C1 C 0.73075(12) 0.2500 1.0631(2)
C2 C 0.71859(13) 0.2500 1.2617(2)
H2 H 0.7500(10) 0.1348(15) 1.3102(18)
C3 C 0.61036(12) 0.2500 1.2963(2)
H3 H 0.5894(8) 0.1337(17) 1.3668(17)
C4 C 0.56635(11) 0.2500 1.1138(2)
C5 C 0.63619(10) 0.2500 0.9813(2)
C6 C 0.60937(11) 0.2500 0.8033(2)
H4 H 0.6558 0.2500 0.7146
C7 C 0.51359(12) 0.2500 0.7604(2)
H5 H 0.4949 0.2500 0.6419
C8 C 0.44362(12) 0.2500 0.8945(2)
C9 C 0.47000(12) 0.2500 1.0715(2)
H6 H 0.4236 0.2500 1.1603
H2F H 0.7500(10) 0.3652(15) 1.3102(18)
H3F H 0.5894(8) 0.3663(17) 1.3668(17)
loop_
_geom_bond_atom_site_label_1
_geom_bond_atom_site_label_2
_geom_bond_site_symmetry_1
_geom_bond_site_symmetry_2
O1 C1 1_555 1_555
O2 H1 1_555 1_555
C1 C2 1_555 1_555
C2 H2 1_555 1_555
C3 C2 1_555 1_555
H3 C3 1_555 1_555
C4 C3 1_555 1_555
C5 C1 1_555 1_555
C6 C5 1_555 1_555
H4 C6 1_555 1_555
C7 C6 1_555 1_555
H5 C7 1_555 1_555
C8 O2 1_555 1_555
C9 C4 1_555 1_555
H6 C9 1_555 1_555
H2F C2 1_555 1_555
H3F C3 1_555 1_555
C4 C5 1_555 1_555
C7 C8 1_555 1_555
C8 C9 1_555 1_555

#END
