
#######################################################################
#
#                 Cambridge Crystallographic Data Centre
#                                CCDC 
#
#######################################################################
#
# If this CIF has been generated from an entry in the Cambridge 
# Structural Database, then it will include bibliographic, chemical, 
# crystal, experimental, refinement or atomic coordinate data resulting 
# from the CCDC's data processing and validation procedures.
#
#######################################################################

data_UPAPEI
_chemical_compound_source        
'leaves of the Australian rainforest tree Maytenus bilocularis'
_chemical_name_common            
(1S,4R,5S,6R,7R,8R,9S,10S)-1,6,15-triacetoxy-9-benzoyloxy-8-hydroxydihydro-beta-agarofuran
_chemical_formula_moiety         'C28 H36 O10'
_chemical_name_systematic        
'(1S,4R,5S,6R,7R,8R,9S,10S)-10-(acetoxymethyl)-9-(benzoyloxy)-8-hydroxy-4,11,11-trimethyloctahydro-11H-5,7-methanobenzo[b]oxepine-1,6-diyl diacetate'
_chemical_properties_biological  'NO production inhibitor activity'
_symmetry_cell_setting           monoclinic
_symmetry_space_group_name_H-M   'P 21'
_symmetry_Int_Tables_number      4
_space_group_name_Hall           'P 2yb'
loop_
_symmetry_equiv_pos_site_id
_symmetry_equiv_pos_as_xyz
1 x,y,z
2 -x,1/2+y,-z
_cell_length_a                   11.2388(2)
_cell_length_b                   8.4266(1)
_cell_length_c                   14.8577(3)
_cell_angle_alpha                90
_cell_angle_beta                 100.786(2)
_cell_angle_gamma                90
_cell_volume                     1382.24
_exptl_crystal_colour            colorless
_exptl_crystal_description       plate
_chemical_melting_point          '482-486 K'
_cell_formula_units_Z            2
_exptl_crystal_recrystallization_method ethanol
loop_
_atom_site_label
_atom_site_type_symbol
_atom_site_fract_x
_atom_site_fract_y
_atom_site_fract_z
O1 O 0.58429(15) 0.7394(2) 0.74445(11)
O2 O 0.68794(17) 0.8983(3) 0.66458(13)
O3 O 0.33670(15) 0.9377(2) 0.88685(10)
O4 O 0.45461(17) 0.8401(2) 1.01257(11)
O5 O 0.31153(15) 0.99754(18) 0.58639(10)
O6 O 0.08674(13) 1.0788(2) 0.66309(10)
O7 O 0.04889(17) 1.2641(3) 0.76258(15)
O8 O 0.37305(17) 1.2703(2) 0.82907(12)
O9 O 0.56430(13) 1.0583(2) 0.83085(9)
O10 O 0.67626(16) 1.2468(2) 0.77917(12)
C1 C 0.4689(2) 0.7851(3) 0.68806(15)
C2 C 0.3984(3) 0.6327(3) 0.66326(18)
C3 C 0.2767(3) 0.6689(3) 0.60057(18)
C4 C 0.2012(2) 0.7906(3) 0.64118(16)
C5 C 0.2780(2) 0.9391(3) 0.67091(15)
C6 C 0.2138(2) 1.0791(3) 0.70626(15)
C7 C 0.2838(2) 1.2173(3) 0.67566(15)
C8 C 0.4035(2) 1.2254(3) 0.74436(15)
C9 C 0.4740(2) 1.0675(3) 0.74743(14)
C10 C 0.4018(2) 0.9077(3) 0.73774(15)
C11 C 0.2977(2) 1.1685(3) 0.57780(16)
C12 C 0.4075(2) 1.2329(3) 0.54355(17)
C13 C 0.1849(3) 1.2038(3) 0.50517(17)
C14 C 0.1361(3) 0.7178(4) 0.7140(2)
C15 C 0.3947(2) 0.8333(3) 0.83153(15)
C16 C 0.6865(2) 0.8000(3) 0.72316(17)
C17 C 0.7963(3) 0.7304(5) 0.7818(2)
C18 C 0.0143(2) 1.1820(3) 0.69715(17)
C19 C -0.1102(2) 1.1837(4) 0.6414(2)
C20 C 0.6642(2) 1.1494(3) 0.83602(16)
C21 C 0.7560(2) 1.1133(3) 0.91911(16)
C22 C 0.8696(2) 1.1826(3) 0.92731(19)
C23 C 0.9578(2) 1.1515(4) 1.0037(2)
C24 C 0.9330(2) 1.0516(4) 1.07127(18)
C25 C 0.8203(2) 0.9819(3) 1.06362(18)
C26 C 0.7321(2) 1.0131(3) 0.98780(17)
C27 C 0.3771(2) 0.9305(3) 0.97745(15)
C28 C 0.3135(3) 1.0475(4) 1.02716(19)
H1 H 0.48530 0.83450 0.63040
H2 H 0.38410 0.57980 0.71970
H3 H 0.44620 0.55980 0.63160
H4 H 0.29200 0.70910 0.54120
H5 H 0.22980 0.56920 0.58860
H6 H 0.13580 0.82510 0.58960
H7 H 0.22350 1.07590 0.77450
H8 H 0.23750 1.31870 0.67490
H9 H 0.45430 1.31140 0.72450
H10 H 0.435(3) 1.285(3) 0.8668(19)
H11 H 0.51930 1.07090 0.69560
H12 H 0.48010 1.21810 0.59090
H13 H 0.39590 1.34620 0.52980
H14 H 0.41720 1.17590 0.48790
H15 H 0.19690 1.16350 0.44560
H16 H 0.17140 1.31870 0.50110
H17 H 0.11440 1.15190 0.52230
H18 H 0.06240 0.66350 0.68360
H19 H 0.11460 0.80220 0.75350
H20 H 0.19000 0.64160 0.75130
H21 H 0.34890 0.73240 0.82180
H22 H 0.47760 0.80860 0.86450
H23 H 0.86890 0.76790 0.76070
H24 H 0.79230 0.61430 0.77770
H25 H 0.79970 0.76300 0.84560
H26 H -0.16500 1.23780 0.67550
H27 H -0.13800 1.07440 0.62830
H28 H -0.10980 1.23990 0.58380
H29 H 0.88680 1.25120 0.88060
H30 H 1.03550 1.19920 1.00960
H31 H 0.99390 1.03050 1.12350
H32 H 0.80370 0.91280 1.11030
H33 H 0.65440 0.96580 0.98250
H34 H 0.35510 1.05420 1.09120
H35 H 0.22960 1.01310 1.02480
H36 H 0.31390 1.15190 0.99820
loop_
_geom_bond_atom_site_label_1
_geom_bond_atom_site_label_2
_geom_bond_site_symmetry_1
_geom_bond_site_symmetry_2
O1 C1 1_555 1_555
O2 C16 1_555 1_555
O3 C15 1_555 1_555
O4 C27 1_555 1_555
O5 C5 1_555 1_555
O6 C6 1_555 1_555
O7 C18 1_555 1_555
O8 C8 1_555 1_555
O9 C9 1_555 1_555
O10 C20 1_555 1_555
C1 C2 1_555 1_555
C2 C3 1_555 1_555
C3 C4 1_555 1_555
C4 C5 1_555 1_555
C5 C6 1_555 1_555
C6 C7 1_555 1_555
C7 C8 1_555 1_555
C8 C9 1_555 1_555
C9 C10 1_555 1_555
C10 C1 1_555 1_555
C11 O5 1_555 1_555
C12 C11 1_555 1_555
C13 C11 1_555 1_555
C14 C4 1_555 1_555
C15 C10 1_555 1_555
C16 O1 1_555 1_555
C17 C16 1_555 1_555
C18 O6 1_555 1_555
C19 C18 1_555 1_555
C20 O9 1_555 1_555
C21 C20 1_555 1_555
C22 C21 1_555 1_555
C23 C22 1_555 1_555
C24 C23 1_555 1_555
C25 C24 1_555 1_555
C26 C21 1_555 1_555
C27 O3 1_555 1_555
C28 C27 1_555 1_555
H1 C1 1_555 1_555
H2 C2 1_555 1_555
H3 C2 1_555 1_555
H4 C3 1_555 1_555
H5 C3 1_555 1_555
H6 C4 1_555 1_555
H7 C6 1_555 1_555
H8 C7 1_555 1_555
H9 C8 1_555 1_555
H10 O8 1_555 1_555
H11 C9 1_555 1_555
H12 C12 1_555 1_555
H13 C12 1_555 1_555
H14 C12 1_555 1_555
H15 C13 1_555 1_555
H16 C13 1_555 1_555
H17 C13 1_555 1_555
H18 C14 1_555 1_555
H19 C14 1_555 1_555
H20 C14 1_555 1_555
H21 C15 1_555 1_555
H22 C15 1_555 1_555
H23 C17 1_555 1_555
H24 C17 1_555 1_555
H25 C17 1_555 1_555
H26 C19 1_555 1_555
H27 C19 1_555 1_555
H28 C19 1_555 1_555
H29 C22 1_555 1_555
H30 C23 1_555 1_555
H31 C24 1_555 1_555
H32 C25 1_555 1_555
H33 C26 1_555 1_555
H34 C28 1_555 1_555
H35 C28 1_555 1_555
H36 C28 1_555 1_555
C5 C10 1_555 1_555
C7 C11 1_555 1_555
C25 C26 1_555 1_555

#END
