
#######################################################################
#
#                 Cambridge Crystallographic Data Centre
#                                CCDC 
#
#######################################################################
#
# If this CIF has been generated from an entry in the Cambridge 
# Structural Database, then it will include bibliographic, chemical, 
# crystal, experimental, refinement or atomic coordinate data resulting 
# from the CCDC's data processing and validation procedures.
#
#######################################################################

data_UPAQOS
_chemical_name_common            
'(S!p$)-2-Isopropyl-5-methylcyclohexyl N,P-diphenylphosphonamidate'
_chemical_formula_moiety         'C22 H30 N1 O2 P1'
_chemical_name_systematic        
(S~p~)-N-(([5-methyl-2-(propan-2-yl)cyclohexyl]oxy)(phenyl)phosphoryl)aniline
_symmetry_cell_setting           monoclinic
_symmetry_space_group_name_H-M   'P 21'
_symmetry_Int_Tables_number      4
_space_group_name_Hall           'P 2yb'
loop_
_symmetry_equiv_pos_site_id
_symmetry_equiv_pos_as_xyz
1 x,y,z
2 -x,1/2+y,-z
_cell_length_a                   8.6934(8)
_cell_length_b                   5.4716(5)
_cell_length_c                   22.100(2)
_cell_angle_alpha                90
_cell_angle_beta                 101.0060(10)
_cell_angle_gamma                90
_cell_volume                     1031.89
_exptl_crystal_colour            colorless
_exptl_crystal_description       block
_cell_formula_units_Z            2
loop_
_atom_site_label
_atom_site_type_symbol
_atom_site_fract_x
_atom_site_fract_y
_atom_site_fract_z
C1 C -0.0896(4) 0.6404(9) 0.08739(15)
H1 H -0.0743 0.4702 0.0778
H2 H -0.1840 0.6970 0.0602
P1 P 0.36057(8) 0.79230(14) 0.29338(3)
C2 C 0.5704(3) 0.8039(6) 0.30983(11)
O1 O 0.2888(2) 1.0296(3) 0.30075(8)
C3 C 0.2897(3) 0.5828(5) 0.39742(11)
O2 O 0.3227(2) 0.6846(4) 0.22586(8)
C4 C 0.3333(4) 0.7801(7) 0.49563(12)
H3 H 0.3754 0.9087 0.5210
C5 C 0.3513(3) 0.7748(7) 0.43486(11)
H4 H 0.4046 0.9000 0.4193
N1 N 0.3040(3) 0.5712(4) 0.33461(10)
H5 H 0.2807 0.4340 0.3161
C6 C 0.0423(3) 0.6000(7) 0.19730(13)
H6 H 0.0304 0.6289 0.2395
H7 H 0.0660 0.4282 0.1934
C7 C 0.6462(4) 0.9995(6) 0.28841(14)
H8 H 0.5884 1.1207 0.2648
C8 C 0.2115(3) 0.3967(6) 0.42092(13)
H9 H 0.1710 0.2659 0.3960
C9 C 0.1771(3) 0.7509(6) 0.18402(11)
H10 H 0.1549 0.9240 0.1899
C10 C 0.2538(4) 0.5968(7) 0.51885(14)
H11 H 0.2408 0.6024 0.5596
C11 C 0.6582(4) 0.6285(6) 0.34548(13)
H12 H 0.6085 0.4972 0.3604
C12 C 0.2020(4) 0.7132(6) 0.11828(12)
H13 H 0.2114 0.5362 0.1132
C13 C 0.1938(4) 0.4062(7) 0.48197(14)
H14 H 0.1406 0.2815 0.4979
C14 C 0.8088(4) 1.0140(7) 0.30229(16)
H15 H 0.8597 1.1438 0.2873
C15 C -0.1120(4) 0.6599(7) 0.15376(15)
H16 H -0.1400 0.8292 0.1613
C16 C 0.3526(5) 0.8226(9) 0.10465(16)
H17 H 0.4384 0.7565 0.1356
C17 C 0.0482(4) 0.7874(9) 0.07536(13)
H18 H 0.0285 0.9595 0.0812
H19 H 0.0590 0.7642 0.0329
C18 C 0.8948(4) 0.8369(7) 0.33812(16)
H20 H 1.0035 0.8479 0.3477
C19 C 0.3841(5) 0.7449(10) 0.04193(16)
H21 H 0.3830 0.5697 0.0392
H22 H 0.4847 0.8050 0.0370
H23 H 0.3044 0.8109 0.0100
C20 C 0.3603(7) 1.0937(9) 0.1111(3)
H24 H 0.2736 1.1659 0.0835
H25 H 0.4567 1.1518 0.1013
H26 H 0.3555 1.1379 0.1527
C21 C -0.2440(5) 0.4933(9) 0.1665(2)
H27 H -0.2187 0.3263 0.1595
H28 H -0.3403 0.5366 0.1396
H29 H -0.2556 0.5128 0.2086
C22 C 0.8201(4) 0.6464(7) 0.35934(15)
H30 H 0.8783 0.5267 0.3834
loop_
_geom_bond_atom_site_label_1
_geom_bond_atom_site_label_2
_geom_bond_site_symmetry_1
_geom_bond_site_symmetry_2
C1 H1 1_555 1_555
H2 C1 1_555 1_555
P1 C2 1_555 1_555
C2 C7 1_555 1_555
O1 P1 1_555 1_555
C3 C5 1_555 1_555
O2 P1 1_555 1_555
C4 H3 1_555 1_555
C5 C4 1_555 1_555
H4 C5 1_555 1_555
N1 P1 1_555 1_555
H5 N1 1_555 1_555
C6 H6 1_555 1_555
H7 C6 1_555 1_555
C7 H8 1_555 1_555
C8 C3 1_555 1_555
H9 C8 1_555 1_555
C9 O2 1_555 1_555
H10 C9 1_555 1_555
C10 C4 1_555 1_555
H11 C10 1_555 1_555
C11 C2 1_555 1_555
H12 C11 1_555 1_555
C12 C9 1_555 1_555
H13 C12 1_555 1_555
C13 C8 1_555 1_555
H14 C13 1_555 1_555
C14 C7 1_555 1_555
H15 C14 1_555 1_555
C15 C1 1_555 1_555
H16 C15 1_555 1_555
C16 C12 1_555 1_555
H17 C16 1_555 1_555
C17 C1 1_555 1_555
H18 C17 1_555 1_555
H19 C17 1_555 1_555
C18 C14 1_555 1_555
H20 C18 1_555 1_555
C19 C16 1_555 1_555
H21 C19 1_555 1_555
H22 C19 1_555 1_555
H23 C19 1_555 1_555
C20 C16 1_555 1_555
H24 C20 1_555 1_555
H25 C20 1_555 1_555
H26 C20 1_555 1_555
C21 C15 1_555 1_555
H27 C21 1_555 1_555
H28 C21 1_555 1_555
H29 C21 1_555 1_555
C22 C11 1_555 1_555
H30 C22 1_555 1_555
C3 N1 1_555 1_555
C6 C9 1_555 1_555
C6 C15 1_555 1_555
C10 C13 1_555 1_555
C12 C17 1_555 1_555
C18 C22 1_555 1_555

#END
