
#######################################################################
#
#                 Cambridge Crystallographic Data Centre
#                                CCDC 
#
#######################################################################
#
# If this CIF has been generated from an entry in the Cambridge 
# Structural Database, then it will include bibliographic, chemical, 
# crystal, experimental, refinement or atomic coordinate data resulting 
# from the CCDC's data processing and validation procedures.
#
#######################################################################

data_UPASOV
_chemical_formula_moiety         'C18 H16 Cl1 F3 N2 O3'
_chemical_name_systematic        
'6-chloro-4-methoxy-1-(4-methoxybenzyl)-4-(trifluoromethyl)-3,4-dihydroquinazolin-2(1H)-one unknown solvate'
_symmetry_cell_setting           monoclinic
_symmetry_space_group_name_H-M   'P 21'
_symmetry_Int_Tables_number      4
_space_group_name_Hall           'P 2yb'
loop_
_symmetry_equiv_pos_site_id
_symmetry_equiv_pos_as_xyz
1 x,y,z
2 -x,1/2+y,-z
_cell_length_a                   9.4639(6)
_cell_length_b                   18.9173(12)
_cell_length_c                   12.0648(8)
_cell_angle_alpha                90
_cell_angle_beta                 103.5060(10)
_cell_angle_gamma                90
_cell_volume                     2100.25
_exptl_crystal_colour            colorless
_exptl_crystal_description       block
_cell_formula_units_Z            4
loop_
_atom_site_label
_atom_site_type_symbol
_atom_site_fract_x
_atom_site_fract_y
_atom_site_fract_z
Cl1 Cl -0.44559(12) -0.05919(6) -0.40666(9)
F1 F -0.8596(2) 0.14464(14) -0.2591(2)
F2 F -0.7529(3) 0.24476(12) -0.2491(2)
F3 F -0.7201(3) 0.16836(16) -0.37126(19)
O1 O -0.7295(3) 0.13426(14) 0.0832(2)
O2 O -0.4889(3) 0.18431(14) -0.1946(2)
O3 O -0.3165(3) -0.13196(17) 0.3854(2)
N1 N -0.6334(3) 0.15941(16) -0.0662(2)
H1 H -0.6103 0.2018 -0.0377
N2 N -0.7002(3) 0.04359(15) -0.0334(2)
C1 C -0.6913(4) 0.11320(19) -0.0022(3)
C2 C -0.6071(3) 0.14436(18) -0.1770(3)
C3 C -0.5914(3) 0.06600(17) -0.1931(2)
C4 C -0.5294(4) 0.0427(2) -0.2790(3)
H2 H -0.4942 0.0756 -0.3257
C5 C -0.5191(4) -0.0293(2) -0.2964(3)
C6 C -0.5678(4) -0.07845(19) -0.2278(3)
H3 H -0.5609 -0.1277 -0.2409
C7 C -0.6271(3) -0.05366(18) -0.1392(3)
H4 H -0.6589 -0.0864 -0.0905
C8 C -0.6398(3) 0.01795(18) -0.1221(2)
C9 C -0.7541(3) -0.00649(18) 0.0407(2)
H5 H -0.8082 -0.0449 -0.0068
H6 H -0.8225 0.0184 0.0780
C10 C -0.6334(3) -0.03845(18) 0.1312(2)
C11 C -0.5220(4) 0.0020(2) 0.1940(3)
H7 H -0.5197 0.0513 0.1789
C12 C -0.4135(4) -0.0274(2) 0.2787(3)
H8 H -0.3365 0.0013 0.3197
C13 C -0.4174(4) -0.0983(2) 0.3031(3)
C14 C -0.5275(4) -0.1400(2) 0.2415(3)
H9 H -0.5298 -0.1891 0.2574
C15 C -0.6356(4) -0.1100(2) 0.1559(3)
H10 H -0.7116 -0.1389 0.1140
C16 C -0.1892(4) -0.0933(3) 0.4362(3)
H11 H -0.1474 -0.0728 0.3765
H12 H -0.1183 -0.1250 0.4838
H13 H -0.2143 -0.0553 0.4836
C17 C -0.7372(4) 0.1762(2) -0.2669(3)
C18 C -0.3565(5) 0.1743(3) -0.1115(4)
H14 H -0.2784 0.2004 -0.1343
H15 H -0.3323 0.1238 -0.1056
H16 H -0.3675 0.1917 -0.0375
Cl2 Cl -0.91239(10) -0.00632(5) -0.39033(7)
F4 F -0.9334(3) -0.20379(14) 0.0073(2)
F5 F -0.8392(2) -0.22578(17) -0.1352(3)
F6 F -0.9602(3) -0.30574(14) -0.0724(3)
O4 O -1.3612(3) -0.20020(14) -0.0032(2)
O5 O -1.1052(3) -0.25022(15) -0.2726(2)
O6 O -0.7801(5) 0.0076(3) 0.3728(3)
N3 N -1.2160(3) -0.22432(15) -0.1223(2)
H17 H -1.2558 -0.2665 -0.1345
N4 N -1.2317(3) -0.10993(15) -0.0555(2)
C19 C -1.2741(3) -0.17903(18) -0.0576(3)
C20 C -1.0962(3) -0.20991(17) -0.1727(3)
C21 C -1.0848(3) -0.13203(17) -0.1915(3)
C22 C -1.0093(3) -0.10690(19) -0.2691(3)
H18 H -0.9636 -0.1394 -0.3096
C23 C -0.9995(3) -0.0357(2) -0.2883(3)
C24 C -1.0614(4) 0.0122(2) -0.2256(3)
H19 H -1.0536 0.0616 -0.2373
C25 C -1.1341(3) -0.01239(19) -0.1465(3)
H20 H -1.1736 0.0206 -0.1025
C26 C -1.1506(3) -0.08436(18) -0.1298(3)
C27 C -1.2761(3) -0.0624(2) 0.0266(3)
H21 H -1.3448 -0.0876 0.0634
H22 H -1.3272 -0.0210 -0.0144
C28 C -1.1483(4) -0.0376(2) 0.1163(3)
C29 C -1.0477(4) -0.0870(3) 0.1754(3)
H23 H -1.0616 -0.1356 0.1563
C30 C -0.9308(5) -0.0676(4) 0.2593(4)
H24 H -0.8656 -0.1027 0.2975
C31 C -0.9073(5) -0.0007(4) 0.2880(4)
C32 C -1.0032(7) 0.0513(4) 0.2334(4)
H25 H -0.9866 0.0996 0.2540
C33 C -1.1254(5) 0.0314(3) 0.1474(3)
H26 H -1.1921 0.0665 0.1109
C34 C -0.7290(8) 0.0760(5) 0.3940(6)
H27 H -0.6912 0.0928 0.3297
H28 H -0.6512 0.0769 0.4636
H29 H -0.8086 0.1068 0.4036
C35 C -0.9557(4) -0.2369(2) -0.0938(4)
C36 C -1.2348(5) -0.2398(3) -0.3586(4)
H30 H -1.2294 -0.2669 -0.4266
H31 H -1.2458 -0.1894 -0.3778
H32 H -1.3185 -0.2558 -0.3304
loop_
_geom_bond_atom_site_label_1
_geom_bond_atom_site_label_2
_geom_bond_site_symmetry_1
_geom_bond_site_symmetry_2
Cl1 C5 1_555 1_555
F1 C17 1_555 1_555
F2 C17 1_555 1_555
F3 C17 1_555 1_555
O1 C1 1_555 1_555
O2 C2 1_555 1_555
O3 C13 1_555 1_555
N1 H1 1_555 1_555
N2 C1 1_555 1_555
C1 N1 1_555 1_555
C2 N1 1_555 1_555
C3 C2 1_555 1_555
C4 C3 1_555 1_555
H2 C4 1_555 1_555
C5 C4 1_555 1_555
C6 C5 1_555 1_555
H3 C6 1_555 1_555
C7 C6 1_555 1_555
H4 C7 1_555 1_555
C8 N2 1_555 1_555
C9 N2 1_555 1_555
H5 C9 1_555 1_555
H6 C9 1_555 1_555
C10 C9 1_555 1_555
C11 C10 1_555 1_555
H7 C11 1_555 1_555
C12 C11 1_555 1_555
H8 C12 1_555 1_555
C13 C12 1_555 1_555
C14 C13 1_555 1_555
H9 C14 1_555 1_555
C15 C10 1_555 1_555
H10 C15 1_555 1_555
C16 O3 1_555 1_555
H11 C16 1_555 1_555
H12 C16 1_555 1_555
H13 C16 1_555 1_555
C17 C2 1_555 1_555
C18 O2 1_555 1_555
H14 C18 1_555 1_555
H15 C18 1_555 1_555
H16 C18 1_555 1_555
Cl2 C23 1_555 1_555
F4 C35 1_555 1_555
F5 C35 1_555 1_555
F6 C35 1_555 1_555
O4 C19 1_555 1_555
O5 C20 1_555 1_555
O6 C31 1_555 1_555
N3 H17 1_555 1_555
N4 C19 1_555 1_555
C19 N3 1_555 1_555
C20 N3 1_555 1_555
C21 C20 1_555 1_555
C22 C21 1_555 1_555
H18 C22 1_555 1_555
C23 C22 1_555 1_555
C24 C23 1_555 1_555
H19 C24 1_555 1_555
C25 C24 1_555 1_555
H20 C25 1_555 1_555
C26 N4 1_555 1_555
C27 N4 1_555 1_555
H21 C27 1_555 1_555
H22 C27 1_555 1_555
C28 C27 1_555 1_555
C29 C28 1_555 1_555
H23 C29 1_555 1_555
C30 C29 1_555 1_555
H24 C30 1_555 1_555
C31 C30 1_555 1_555
C32 C31 1_555 1_555
H25 C32 1_555 1_555
C33 C28 1_555 1_555
H26 C33 1_555 1_555
C34 O6 1_555 1_555
H27 C34 1_555 1_555
H28 C34 1_555 1_555
H29 C34 1_555 1_555
C35 C20 1_555 1_555
C36 O5 1_555 1_555
H30 C36 1_555 1_555
H31 C36 1_555 1_555
H32 C36 1_555 1_555
C3 C8 1_555 1_555
C7 C8 1_555 1_555
C14 C15 1_555 1_555
C21 C26 1_555 1_555
C25 C26 1_555 1_555
C32 C33 1_555 1_555

#END
