
#######################################################################
#
#                 Cambridge Crystallographic Data Centre
#                                CCDC 
#
#######################################################################
#
# If this CIF has been generated from an entry in the Cambridge 
# Structural Database, then it will include bibliographic, chemical, 
# crystal, experimental, refinement or atomic coordinate data resulting 
# from the CCDC's data processing and validation procedures.
#
#######################################################################

data_UPAWUE
_chemical_name_common            
4,4',5,5'-tetrakis(benzylsulfanyl)tetrathiafulvalene
_chemical_formula_moiety         'C34 H28 S8'
_chemical_name_systematic        
4,5-bis(benzylsulfanyl)-2-(4,5-bis(benzylsulfanyl)-1,3-dithiol-2-ylidene)-1,3-dithiole
_symmetry_cell_setting           triclinic
_symmetry_space_group_name_H-M   'P -1'
_symmetry_Int_Tables_number      2
_space_group_name_Hall           '-P 1'
loop_
_symmetry_equiv_pos_site_id
_symmetry_equiv_pos_as_xyz
1 x,y,z
2 -x,-y,-z
_cell_length_a                   5.7450(7)
_cell_length_b                   17.052(2)
_cell_length_c                   18.701(3)
_cell_angle_alpha                115.199(2)
_cell_angle_beta                 95.238(2)
_cell_angle_gamma                95.922(2)
_cell_volume                     1630.11
_exptl_crystal_colour            red
_exptl_crystal_description       needle
_cell_formula_units_Z            2
loop_
_atom_site_label
_atom_site_type_symbol
_atom_site_fract_x
_atom_site_fract_y
_atom_site_fract_z
S1 S 0.76116(19) 0.45649(8) 0.06508(7)
S2 S 0.7452(2) 0.41173(8) -0.10618(7)
S3 S 0.2978(2) 0.28449(8) -0.15494(7)
S4 S 0.30556(19) 0.33663(8) 0.03726(7)
C1 C 0.8989(7) 0.4720(3) -0.0086(2)
C2 C 0.5204(7) 0.3564(3) -0.0793(3)
C3 C 0.5289(7) 0.3773(2) -0.0010(3)
C4 C 0.4542(9) 0.1914(3) -0.2040(3)
H1 H 0.3542 0.1486 -0.2525
H2 H 0.5966 0.2120 -0.2192
C5 C 0.5204(8) 0.1480(3) -0.1528(3)
C6 C 0.3653(9) 0.0843(3) -0.1473(3)
H3 H 0.2151 0.0674 -0.1773
C7 C 0.4232(10) 0.0452(3) -0.0998(4)
H4 H 0.3148 0.0020 -0.0977
C8 C 0.6399(11) 0.0697(4) -0.0556(4)
H5 H 0.6809 0.0432 -0.0229
C9 C 0.7975(10) 0.1321(4) -0.0583(3)
H6 H 0.9465 0.1485 -0.0276
C10 C 0.7390(8) 0.1713(3) -0.1062(3)
H7 H 0.8490 0.2146 -0.1074
C11 C 0.4694(8) 0.3179(3) 0.1146(3)
H8 H 0.5860 0.2803 0.0928
H9 H 0.5503 0.3730 0.1573
C12 C 0.2902(7) 0.2742(3) 0.1453(3)
C13 C 0.2587(10) 0.1853(4) 0.1199(3)
H10 H 0.3578 0.1525 0.0862
C14 C 0.0888(10) 0.1439(3) 0.1422(3)
H11 H 0.0690 0.0833 0.1236
C15 C -0.0532(9) 0.1920(4) 0.1922(3)
H12 H -0.1715 0.1637 0.2078
C16 C -0.0264(9) 0.2797(4) 0.2199(3)
H13 H -0.1243 0.3120 0.2544
C17 C 0.1477(9) 0.3207(3) 0.1963(3)
H14 H 0.1684 0.3814 0.2156
S1A S 1.23884(19) 0.54351(8) -0.06508(7)
S2A S 1.2548(2) 0.58827(8) 0.10618(7)
S3A S 1.7022(2) 0.71551(8) 0.15494(7)
S4A S 1.69444(19) 0.66337(8) -0.03726(7)
C1A C 1.1011(7) 0.5280(3) 0.0086(2)
C2A C 1.4796(7) 0.6436(3) 0.0793(3)
C3A C 1.4711(7) 0.6227(2) 0.0010(3)
C4A C 1.5458(9) 0.8086(3) 0.2040(3)
H1A H 1.6458 0.8514 0.2525
H2A H 1.4034 0.7880 0.2192
C5A C 1.4796(8) 0.8520(3) 0.1528(3)
C6A C 1.6347(9) 0.9157(3) 0.1473(3)
H3A H 1.7849 0.9326 0.1773
C7A C 1.5768(10) 0.9548(3) 0.0998(4)
H4A H 1.6852 0.9980 0.0977
C8A C 1.3601(11) 0.9303(4) 0.0556(4)
H5A H 1.3191 0.9568 0.0229
C9A C 1.2025(10) 0.8679(4) 0.0583(3)
H6A H 1.0535 0.8515 0.0276
C10A C 1.2610(8) 0.8287(3) 0.1062(3)
H7A H 1.1510 0.7854 0.1074
C11A C 1.5306(8) 0.6821(3) -0.1146(3)
H8A H 1.4140 0.7197 -0.0928
H9A H 1.4497 0.6270 -0.1573
C12A C 1.7098(7) 0.7258(3) -0.1453(3)
C13A C 1.7413(10) 0.8147(4) -0.1199(3)
H10A H 1.6422 0.8475 -0.0862
C14A C 1.9112(10) 0.8561(3) -0.1422(3)
H11A H 1.9310 0.9167 -0.1236
C15A C 2.0532(9) 0.8080(4) -0.1922(3)
H12A H 2.1715 0.8363 -0.2078
C16A C 2.0264(9) 0.7203(4) -0.2199(3)
H13A H 2.1243 0.6880 -0.2544
C17A C 1.8523(9) 0.6793(3) -0.1963(3)
H14A H 1.8316 0.6186 -0.2156
S5 S 1.18791(19) 0.39890(7) 0.44406(7)
S6 S 1.37020(19) 0.51995(7) 0.61260(7)
S7 S 0.9859(2) 0.44729(8) 0.67531(7)
S8 S 0.77397(19) 0.31193(7) 0.48536(8)
C18 C 1.4097(7) 0.4832(2) 0.5118(2)
C19 C 1.1169(7) 0.4427(2) 0.5933(2)
C20 C 1.0339(7) 0.3877(2) 0.5165(3)
C21 C 1.1842(9) 0.3938(3) 0.7156(3)
H15 H 1.3445 0.4247 0.7265
H16 H 1.1398 0.3982 0.7658
C22 C 1.1795(7) 0.2990(3) 0.6602(2)
C23 C 1.3551(8) 0.2731(3) 0.6152(3)
H17 H 1.4791 0.3147 0.6185
C24 C 1.3509(10) 0.1866(4) 0.5652(3)
H18 H 1.4714 0.1696 0.5345
C25 C 1.1736(12) 0.1262(3) 0.5603(3)
H19 H 1.1743 0.0673 0.5269
C26 C 0.9954(9) 0.1488(3) 0.6025(3)
H20 H 0.8715 0.1065 0.5979
C27 C 0.9989(8) 0.2348(3) 0.6522(3)
H21 H 0.8756 0.2508 0.6817
C28 C 0.8508(9) 0.2203(3) 0.4031(3)
H22 H 0.8838 0.2367 0.3610
H23 H 0.9915 0.2024 0.4206
C29 C 0.6469(8) 0.1459(3) 0.3725(3)
C30 C 0.4469(9) 0.1446(3) 0.3250(3)
H24 H 0.4372 0.1901 0.3104
C31 C 0.2629(8) 0.0768(3) 0.2992(3)
H25 H 0.1279 0.0763 0.2674
C32 C 0.2775(9) 0.0106(3) 0.3199(3)
H26 H 0.1516 -0.0353 0.3024
C33 C 0.4706(9) 0.0101(3) 0.3652(3)
H27 H 0.4786 -0.0358 0.3792
C34 C 0.6527(9) 0.0760(3) 0.3904(3)
H28 H 0.7873 0.0743 0.4210
S5A S 1.81209(19) 0.60110(7) 0.55594(7)
S6A S 1.62980(19) 0.48005(7) 0.38740(7)
S7A S 2.0141(2) 0.55271(8) 0.32469(7)
S8A S 2.22603(19) 0.68807(7) 0.51464(8)
C18A C 1.5903(7) 0.5168(2) 0.4882(2)
C19A C 1.8831(7) 0.5573(2) 0.4067(2)
C20A C 1.9661(7) 0.6123(2) 0.4835(3)
C21A C 1.8158(9) 0.6062(3) 0.2844(3)
H15A H 1.6555 0.5753 0.2735
H16A H 1.8602 0.6018 0.2342
C22A C 1.8205(7) 0.7010(3) 0.3398(2)
C23A C 1.6449(8) 0.7269(3) 0.3848(3)
H17A H 1.5209 0.6853 0.3815
C24A C 1.6491(10) 0.8134(4) 0.4348(3)
H18A H 1.5286 0.8304 0.4655
C25A C 1.8264(12) 0.8738(3) 0.4397(3)
H19A H 1.8257 0.9327 0.4731
C26A C 2.0046(9) 0.8512(3) 0.3975(3)
H20A H 2.1285 0.8935 0.4021
C27A C 2.0011(8) 0.7652(3) 0.3478(3)
H21A H 2.1244 0.7492 0.3183
C28A C 2.1492(9) 0.7797(3) 0.5969(3)
H22A H 2.1162 0.7633 0.6390
H23A H 2.0085 0.7976 0.5794
C29A C 2.3531(8) 0.8541(3) 0.6275(3)
C30A C 2.5531(9) 0.8554(3) 0.6750(3)
H24A H 2.5628 0.8099 0.6896
C31A C 2.7371(8) 0.9232(3) 0.7008(3)
H25A H 2.8721 0.9237 0.7326
C32A C 2.7225(9) 0.9894(3) 0.6801(3)
H26A H 2.8484 1.0353 0.6976
C33A C 2.5294(9) 0.9899(3) 0.6348(3)
H27A H 2.5214 1.0358 0.6208
C34A C 2.3473(9) 0.9240(3) 0.6096(3)
H28A H 2.2127 0.9257 0.5790
loop_
_geom_bond_atom_site_label_1
_geom_bond_atom_site_label_2
_geom_bond_site_symmetry_1
_geom_bond_site_symmetry_2
S1 C1 1_555 1_555
S2 C1 1_555 1_555
S3 C2 1_555 1_555
S4 C3 1_555 1_555
S5 C18 1_555 1_555
S6 C18 1_555 1_555
S7 C19 1_555 1_555
S8 C20 1_555 1_555
C1 C1A 1_555 1_555
C2 S2 1_555 1_555
C3 S1 1_555 1_555
C4 S3 1_555 1_555
H1 C4 1_555 1_555
H2 C4 1_555 1_555
C5 C4 1_555 1_555
C6 C5 1_555 1_555
H3 C6 1_555 1_555
C7 C6 1_555 1_555
H4 C7 1_555 1_555
C8 C7 1_555 1_555
H5 C8 1_555 1_555
C9 C8 1_555 1_555
H6 C9 1_555 1_555
C10 C5 1_555 1_555
H7 C10 1_555 1_555
C11 S4 1_555 1_555
H8 C11 1_555 1_555
H9 C11 1_555 1_555
C12 C11 1_555 1_555
C13 C12 1_555 1_555
H10 C13 1_555 1_555
C14 C13 1_555 1_555
H11 C14 1_555 1_555
C15 C14 1_555 1_555
H12 C15 1_555 1_555
C16 C15 1_555 1_555
H13 C16 1_555 1_555
C17 C12 1_555 1_555
H14 C17 1_555 1_555
C18 C18A 1_555 1_555
C19 S6 1_555 1_555
C20 S5 1_555 1_555
C21 S7 1_555 1_555
H15 C21 1_555 1_555
H16 C21 1_555 1_555
C22 C21 1_555 1_555
C23 C22 1_555 1_555
H17 C23 1_555 1_555
C24 C23 1_555 1_555
H18 C24 1_555 1_555
C25 C24 1_555 1_555
H19 C25 1_555 1_555
C26 C25 1_555 1_555
H20 C26 1_555 1_555
C27 C22 1_555 1_555
H21 C27 1_555 1_555
C28 S8 1_555 1_555
H22 C28 1_555 1_555
H23 C28 1_555 1_555
C29 C28 1_555 1_555
C30 C29 1_555 1_555
H24 C30 1_555 1_555
C31 C30 1_555 1_555
H25 C31 1_555 1_555
C32 C31 1_555 1_555
H26 C32 1_555 1_555
C33 C32 1_555 1_555
H27 C33 1_555 1_555
C34 C29 1_555 1_555
H28 C34 1_555 1_555
S1A C1A 1_555 1_555
S2A C1A 1_555 1_555
S3A C2A 1_555 1_555
S4A C3A 1_555 1_555
S5A C18A 1_555 1_555
S6A C18A 1_555 1_555
S7A C19A 1_555 1_555
S8A C20A 1_555 1_555
C2A S2A 1_555 1_555
C3A S1A 1_555 1_555
C4A S3A 1_555 1_555
H1A C4A 1_555 1_555
H2A C4A 1_555 1_555
C5A C4A 1_555 1_555
C6A C5A 1_555 1_555
H3A C6A 1_555 1_555
C7A C6A 1_555 1_555
H4A C7A 1_555 1_555
C8A C7A 1_555 1_555
H5A C8A 1_555 1_555
C9A C8A 1_555 1_555
H6A C9A 1_555 1_555
C10A C5A 1_555 1_555
H7A C10A 1_555 1_555
C11A S4A 1_555 1_555
H8A C11A 1_555 1_555
H9A C11A 1_555 1_555
C12A C11A 1_555 1_555
C13A C12A 1_555 1_555
H10A C13A 1_555 1_555
C14A C13A 1_555 1_555
H11A C14A 1_555 1_555
C15A C14A 1_555 1_555
H12A C15A 1_555 1_555
C16A C15A 1_555 1_555
H13A C16A 1_555 1_555
C17A C12A 1_555 1_555
H14A C17A 1_555 1_555
C19A S6A 1_555 1_555
C20A S5A 1_555 1_555
C21A S7A 1_555 1_555
H15A C21A 1_555 1_555
H16A C21A 1_555 1_555
C22A C21A 1_555 1_555
C23A C22A 1_555 1_555
H17A C23A 1_555 1_555
C24A C23A 1_555 1_555
H18A C24A 1_555 1_555
C25A C24A 1_555 1_555
H19A C25A 1_555 1_555
C26A C25A 1_555 1_555
H20A C26A 1_555 1_555
C27A C22A 1_555 1_555
H21A C27A 1_555 1_555
C28A S8A 1_555 1_555
H22A C28A 1_555 1_555
H23A C28A 1_555 1_555
C29A C28A 1_555 1_555
C30A C29A 1_555 1_555
H24A C30A 1_555 1_555
C31A C30A 1_555 1_555
H25A C31A 1_555 1_555
C32A C31A 1_555 1_555
H26A C32A 1_555 1_555
C33A C32A 1_555 1_555
H27A C33A 1_555 1_555
C34A C29A 1_555 1_555
H28A C34A 1_555 1_555
C2 C3 1_555 1_555
C9 C10 1_555 1_555
C16 C17 1_555 1_555
C19 C20 1_555 1_555
C26 C27 1_555 1_555
C33 C34 1_555 1_555
C2A C3A 1_555 1_555
C9A C10A 1_555 1_555
C16A C17A 1_555 1_555
C19A C20A 1_555 1_555
C26A C27A 1_555 1_555
C33A C34A 1_555 1_555

#END
