
#######################################################################
#
#                 Cambridge Crystallographic Data Centre
#                                CCDC 
#
#######################################################################
#
# If this CIF has been generated from an entry in the Cambridge 
# Structural Database, then it will include bibliographic, chemical, 
# crystal, experimental, refinement or atomic coordinate data resulting 
# from the CCDC's data processing and validation procedures.
#
#######################################################################

data_UPAXOZ
_chemical_formula_moiety         'C30 H52 O5'
_chemical_name_systematic        
(3R,6R,12R,20S,24R)-20,24-Epoxydammarane-3,6,12,25-tetraol
_symmetry_cell_setting           orthorhombic
_symmetry_space_group_name_H-M   'P 21 21 21'
_symmetry_Int_Tables_number      19
_space_group_name_Hall           'P 2ac 2ab'
loop_
_symmetry_equiv_pos_site_id
_symmetry_equiv_pos_as_xyz
1 x,y,z
2 1/2-x,-y,1/2+z
3 -x,1/2+y,1/2-z
4 1/2+x,1/2-y,-z
_cell_length_a                   12.7918(6)
_cell_length_b                   13.7842(7)
_cell_length_c                   16.0902(8)
_cell_angle_alpha                90
_cell_angle_beta                 90
_cell_angle_gamma                90
_cell_volume                     2837.1
_exptl_crystal_colour            colorless
_exptl_crystal_description       block
_cell_formula_units_Z            4
loop_
_atom_site_label
_atom_site_type_symbol
_atom_site_fract_x
_atom_site_fract_y
_atom_site_fract_z
C1 C 0.17647(17) 0.49883(16) -0.21123(14)
H1 H 0.2435 0.4696 -0.2267
C2 C 0.18569(19) 0.53311(15) -0.12319(15)
H2 H 0.1238 0.5700 -0.1085
H3 H 0.2457 0.5757 -0.1182
C3 C 0.19786(18) 0.44819(14) -0.06334(13)
H4 H 0.2030 0.4730 -0.0071
H5 H 0.2625 0.4144 -0.0758
C4 C 0.10599(15) 0.37543(13) -0.06804(12)
C5 C 0.00765(18) 0.42793(16) -0.03552(15)
H6 H 0.0050 0.4229 0.0240
H7 H -0.0536 0.3985 -0.0590
H8 H 0.0104 0.4951 -0.0512
C6 C 0.09851(15) 0.34065(13) -0.16103(11)
H9 H 0.1650 0.3078 -0.1723
C7 C 0.09008(17) 0.42290(15) -0.22863(13)
C8 C -0.0189(2) 0.4691(2) -0.23163(19)
H10 H -0.0280 0.5106 -0.1843
H11 H -0.0711 0.4191 -0.2309
H12 H -0.0258 0.5066 -0.2816
C9 C 0.1152(3) 0.3832(2) -0.31603(15)
H13 H 0.1302 0.4362 -0.3528
H14 H 0.0561 0.3476 -0.3367
H15 H 0.1748 0.3410 -0.3130
C10 C 0.01445(17) 0.26102(15) -0.16760(12)
H16 H -0.0525 0.2870 -0.1481
C11 C 0.04459(17) 0.17408(14) -0.11425(12)
H17 H 0.1093 0.1471 -0.1355
H18 H -0.0091 0.1248 -0.1200
C12 C 0.05889(14) 0.19643(13) -0.02208(11)
C13 C -0.05053(15) 0.21586(16) 0.01561(14)
H19 H -0.0895 0.2574 -0.0209
H20 H -0.0429 0.2468 0.0687
H21 H -0.0870 0.1555 0.0224
C14 C 0.13479(14) 0.28469(13) -0.01349(11)
H22 H 0.2012 0.2615 -0.0364
C15 C 0.15847(17) 0.30546(14) 0.07854(12)
H23 H 0.2095 0.3574 0.0819
H24 H 0.0950 0.3278 0.1054
C16 C 0.20003(16) 0.21773(15) 0.12529(11)
H25 H 0.2676 0.1994 0.1013
C17 C 0.12547(14) 0.13222(13) 0.11688(11)
H26 H 0.0574 0.1534 0.1381
C18 C 0.11087(14) 0.10824(13) 0.02336(11)
C19 C 0.21614(17) 0.07853(14) -0.01680(13)
H27 H 0.2556 0.0401 0.0218
H28 H 0.2551 0.1357 -0.0310
H29 H 0.2029 0.0413 -0.0661
C20 C 0.04667(18) 0.01370(14) 0.02911(13)
H30 H -0.0254 0.0270 0.0439
H31 H 0.0482 -0.0216 -0.0230
C21 C 0.1027(2) -0.04328(15) 0.09838(14)
H32 H 0.1572 -0.0839 0.0751
H33 H 0.0534 -0.0843 0.1278
C22 C 0.15043(17) 0.03336(14) 0.15818(12)
H34 H 0.2265 0.0248 0.1588
C23 C 0.10904(18) 0.01715(16) 0.24673(13)
C24 C 0.1500(3) -0.07978(18) 0.28034(17)
H35 H 0.2250 -0.0802 0.2781
H36 H 0.1231 -0.1319 0.2471
H37 H 0.1277 -0.0879 0.3369
C25 C -0.0109(2) 0.0249(2) 0.25591(16)
H38 H -0.0426 0.0461 0.2042
H39 H -0.0407 -0.0372 0.2714
C26 C -0.0286(3) 0.0990(3) 0.3237(2)
H40 H -0.0801 0.0759 0.3633
H41 H -0.0525 0.1600 0.3004
C27 C 0.0770(2) 0.11130(18) 0.36501(14)
H42 H 0.0855 0.0604 0.4070
C28 C 0.0987(3) 0.20971(19) 0.40561(17)
C29 C 0.2120(4) 0.2150(2) 0.4350(2)
H43 H 0.2579 0.2094 0.3880
H44 H 0.2255 0.1629 0.4731
H45 H 0.2238 0.2759 0.4623
C30 C 0.0201(4) 0.2255(3) 0.4772(2)
H46 H 0.0299 0.2890 0.5004
H47 H 0.0314 0.1775 0.5195
H48 H -0.0499 0.2198 0.4562
O1 O 0.21633(15) 0.24775(12) 0.21002(9)
H49 H 0.2176 0.1999 0.2403
O2 O 0.00324(17) 0.22871(13) -0.25149(10)
H50 H -0.0404 0.1852 -0.2535
O3 O 0.15864(14) 0.57985(12) -0.26633(12)
H51 H 0.2056 0.6198 -0.2605
O4 O 0.14937(13) 0.09411(11) 0.29913(9)
O5 O 0.0805(2) 0.28725(13) 0.34886(13)
H52 H 0.0692 0.2651 0.3024
loop_
_geom_bond_atom_site_label_1
_geom_bond_atom_site_label_2
_geom_bond_site_symmetry_1
_geom_bond_site_symmetry_2
C1 H1 1_555 1_555
C2 C1 1_555 1_555
H2 C2 1_555 1_555
H3 C2 1_555 1_555
C3 C2 1_555 1_555
H4 C3 1_555 1_555
H5 C3 1_555 1_555
C4 C3 1_555 1_555
C5 C4 1_555 1_555
H6 C5 1_555 1_555
H7 C5 1_555 1_555
H8 C5 1_555 1_555
C6 C4 1_555 1_555
H9 C6 1_555 1_555
C7 C1 1_555 1_555
C8 C7 1_555 1_555
H10 C8 1_555 1_555
H11 C8 1_555 1_555
H12 C8 1_555 1_555
C9 C7 1_555 1_555
H13 C9 1_555 1_555
H14 C9 1_555 1_555
H15 C9 1_555 1_555
C10 C6 1_555 1_555
H16 C10 1_555 1_555
C11 C10 1_555 1_555
H17 C11 1_555 1_555
H18 C11 1_555 1_555
C12 C11 1_555 1_555
C13 C12 1_555 1_555
H19 C13 1_555 1_555
H20 C13 1_555 1_555
H21 C13 1_555 1_555
C14 C4 1_555 1_555
H22 C14 1_555 1_555
C15 C14 1_555 1_555
H23 C15 1_555 1_555
H24 C15 1_555 1_555
C16 C15 1_555 1_555
H25 C16 1_555 1_555
C17 C16 1_555 1_555
H26 C17 1_555 1_555
C18 C12 1_555 1_555
C19 C18 1_555 1_555
H27 C19 1_555 1_555
H28 C19 1_555 1_555
H29 C19 1_555 1_555
C20 C18 1_555 1_555
H30 C20 1_555 1_555
H31 C20 1_555 1_555
C21 C20 1_555 1_555
H32 C21 1_555 1_555
H33 C21 1_555 1_555
C22 C17 1_555 1_555
H34 C22 1_555 1_555
C23 C22 1_555 1_555
C24 C23 1_555 1_555
H35 C24 1_555 1_555
H36 C24 1_555 1_555
H37 C24 1_555 1_555
C25 C23 1_555 1_555
H38 C25 1_555 1_555
H39 C25 1_555 1_555
C26 C25 1_555 1_555
H40 C26 1_555 1_555
H41 C26 1_555 1_555
C27 C26 1_555 1_555
H42 C27 1_555 1_555
C28 C27 1_555 1_555
C29 C28 1_555 1_555
H43 C29 1_555 1_555
H44 C29 1_555 1_555
H45 C29 1_555 1_555
C30 C28 1_555 1_555
H46 C30 1_555 1_555
H47 C30 1_555 1_555
H48 C30 1_555 1_555
O1 C16 1_555 1_555
H49 O1 1_555 1_555
O2 C10 1_555 1_555
H50 O2 1_555 1_555
O3 C1 1_555 1_555
H51 O3 1_555 1_555
O4 C23 1_555 1_555
O5 C28 1_555 1_555
H52 O5 1_555 1_555
C6 C7 1_555 1_555
C12 C14 1_555 1_555
C17 C18 1_555 1_555
C21 C22 1_555 1_555
C27 O4 1_555 1_555

#END
