
#######################################################################
#
#                 Cambridge Crystallographic Data Centre
#                                CCDC 
#
#######################################################################
#
# If this CIF has been generated from an entry in the Cambridge 
# Structural Database, then it will include bibliographic, chemical, 
# crystal, experimental, refinement or atomic coordinate data resulting 
# from the CCDC's data processing and validation procedures.
#
#######################################################################

data_UPAXOA01
_chemical_formula_moiety         'C20 H20 F2 N2 O2'
_chemical_name_systematic        
2,2'-[cyclohexane-1,2-diylbis(azanylylidenemethylylidene)]bis(6-fluorophenol)
_symmetry_cell_setting           triclinic
_symmetry_space_group_name_H-M   'P -1'
_symmetry_Int_Tables_number      2
_space_group_name_Hall           '-P 1'
loop_
_symmetry_equiv_pos_site_id
_symmetry_equiv_pos_as_xyz
1 x,y,z
2 -x,-y,-z
_cell_length_a                   10.4661(4)
_cell_length_b                   11.0082(5)
_cell_length_c                   17.6201(5)
_cell_angle_alpha                95.216(3)
_cell_angle_beta                 96.508(3)
_cell_angle_gamma                110.291(4)
_cell_volume                     1873.25
_exptl_crystal_colour            yellow
_cell_formula_units_Z            4
loop_
_atom_site_label
_atom_site_type_symbol
_atom_site_fract_x
_atom_site_fract_y
_atom_site_fract_z
O1 O 0.15346(17) 0.77275(15) 0.87438(9)
H1 H 0.1442 0.6953 0.8681
F1 F 0.87128(14) 0.71111(18) 0.94655(9)
O2 O 0.60791(15) 0.54979(17) 0.91608(10)
H2 H 0.5270 0.5050 0.8998
N1 N 0.37219(15) 0.48384(14) 0.83174(9)
N2 N 0.18262(15) 0.55964(14) 0.90843(8)
F2 F 0.2166(2) 1.02945(16) 0.91641(13)
C1 C 0.56719(17) 0.66073(15) 0.81005(9)
C2 C 0.42245(18) 0.57619(16) 0.79288(10)
H3 H 0.3656 0.5900 0.7527
C3 C 0.65274(19) 0.64379(18) 0.87168(10)
C4 C 0.16515(18) 0.42229(17) 0.89038(10)
H4 H 0.2150 0.3977 0.9332
C5 C 0.23070(19) 0.83006(19) 0.94303(11)
C6 C 0.7892(2) 0.7286(2) 0.88704(11)
C7 C 0.22594(18) 0.40389(17) 0.81726(10)
H5 H 0.1796 0.4319 0.7745
C8 C 0.8418(2) 0.8265(2) 0.84460(11)
H6 H 0.9338 0.8817 0.8567
C9 C 0.25384(19) 0.62297(18) 0.97217(10)
H7 H 0.2894 0.5791 1.0066
C10 C 0.28176(19) 0.76096(18) 0.99332(10)
C11 C 0.7579(2) 0.84300(18) 0.78366(11)
H8 H 0.7930 0.9096 0.7543
C12 C 0.6222(2) 0.76091(18) 0.76621(11)
H9 H 0.5660 0.7721 0.7247
C13 C 0.2081(2) 0.26085(19) 0.79695(13)
H10 H 0.2426 0.2498 0.7489
H11 H 0.2623 0.2364 0.8370
C14 C 0.0137(2) 0.3356(2) 0.87964(13)
H12 H -0.0372 0.3615 0.8387
H13 H -0.0232 0.3470 0.9268
C15 C 0.0579(2) 0.1710(2) 0.78857(14)
H14 H 0.0060 0.1870 0.7439
H15 H 0.0518 0.0807 0.7801
C16 C -0.0054(2) 0.1921(2) 0.85946(14)
H16 H 0.0373 0.1638 0.9027
H17 H -0.1031 0.1395 0.8501
C17 C 0.2646(3) 0.9626(2) 0.96599(16)
C18 C 0.3629(3) 0.8273(2) 1.06370(13)
H18 H 0.3968 0.7812 1.0973
C19 C 0.3432(3) 1.0255(2) 1.03456(18)
H19 H 0.3630 1.1145 1.0479
C20 C 0.3934(3) 0.9577(3) 1.08417(16)
H20 H 0.4475 1.0003 1.1312
F3 F 0.87555(18) 0.17643(12) 0.59060(9)
O3 O 1.01908(17) 0.43408(13) 0.60887(10)
H21 H 1.0501 0.5143 0.6164
O4 O 0.71456(18) 0.85690(18) 0.59753(9)
H22 H 0.7974 0.8705 0.6061
N3 N 1.04828(15) 0.66340(14) 0.67044(8)
N4 N 0.94304(16) 0.82268(14) 0.57923(8)
F4 F 0.44193(17) 0.7798(2) 0.55091(10)
C21 C 0.94692(17) 0.61296(17) 0.70571(9)
H23 H 0.9195 0.6674 0.7383
C22 C 0.87302(17) 0.47250(16) 0.69632(9)
C23 C 0.73147(19) 0.70615(17) 0.49551(10)
C24 C 0.91302(19) 0.38960(17) 0.64692(10)
C25 C 0.87770(19) 0.74015(17) 0.52027(10)
H24 H 0.9255 0.7000 0.4919
C26 C 1.09036(19) 0.85031(17) 0.60020(10)
H25 H 1.1205 0.8024 0.5607
C27 C 0.76143(19) 0.4183(2) 0.73512(11)
H26 H 0.7356 0.4730 0.7684
C28 C 0.6559(2) 0.7650(2) 0.53625(11)
C29 C 1.2715(2) 0.84042(19) 0.70301(11)
H27 H 1.3062 0.7924 0.6669
H28 H 1.2872 0.8148 0.7534
C30 C 1.11753(18) 0.80472(16) 0.67820(10)
H29 H 1.0807 0.8468 0.7171
C31 C 0.6895(2) 0.2862(2) 0.72498(12)
H30 H 0.6153 0.2519 0.7510
C32 C 0.8369(2) 0.25596(18) 0.63829(12)
C33 C 0.6638(2) 0.6137(2) 0.43071(13)
H31 H 0.7143 0.5762 0.4027
C34 C 0.7280(2) 0.2040(2) 0.67567(13)
H32 H 0.6797 0.1141 0.6683
C35 C 0.5157(2) 0.7246(3) 0.51040(13)
C36 C 1.3503(2) 0.9866(2) 0.70649(13)
H33 H 1.3223 1.0343 0.7463
H34 H 1.4483 1.0050 0.7200
C37 C 0.5249(3) 0.5767(3) 0.40737(15)
H35 H 0.4815 0.5142 0.3644
C38 C 1.1696(2) 0.99640(19) 0.60361(13)
H36 H 1.1550 1.0217 0.5530
H37 H 1.1341 1.0446 0.6391
C39 C 0.4500(2) 0.6327(3) 0.44795(14)
H38 H 0.3555 0.6081 0.4329
C40 C 1.3235(2) 1.0328(2) 0.62957(14)
H39 H 1.3617 0.9931 0.5910
H40 H 1.3692 1.1269 0.6345
loop_
_geom_bond_atom_site_label_1
_geom_bond_atom_site_label_2
_geom_bond_site_symmetry_1
_geom_bond_site_symmetry_2
O1 H1 1_555 1_555
F1 C6 1_555 1_555
O2 H2 1_555 1_555
N1 C2 1_555 1_555
N2 C4 1_555 1_555
F2 C17 1_555 1_555
C1 C2 1_555 1_555
C2 H3 1_555 1_555
C3 O2 1_555 1_555
C4 H4 1_555 1_555
C5 O1 1_555 1_555
C6 C3 1_555 1_555
C7 N1 1_555 1_555
H5 C7 1_555 1_555
C8 C6 1_555 1_555
H6 C8 1_555 1_555
C9 N2 1_555 1_555
H7 C9 1_555 1_555
C10 C5 1_555 1_555
C11 C8 1_555 1_555
H8 C11 1_555 1_555
C12 C1 1_555 1_555
H9 C12 1_555 1_555
C13 C7 1_555 1_555
H10 C13 1_555 1_555
H11 C13 1_555 1_555
C14 C4 1_555 1_555
H12 C14 1_555 1_555
H13 C14 1_555 1_555
C15 C13 1_555 1_555
H14 C15 1_555 1_555
H15 C15 1_555 1_555
C16 C14 1_555 1_555
H16 C16 1_555 1_555
H17 C16 1_555 1_555
C17 C5 1_555 1_555
C18 C10 1_555 1_555
H18 C18 1_555 1_555
C19 C17 1_555 1_555
H19 C19 1_555 1_555
C20 C18 1_555 1_555
H20 C20 1_555 1_555
F3 C32 1_555 1_555
O3 H21 1_555 1_555
O4 H22 1_555 1_555
N3 C21 1_555 1_555
N4 C25 1_555 1_555
F4 C35 1_555 1_555
C21 H23 1_555 1_555
C22 C21 1_555 1_555
C23 C25 1_555 1_555
C24 O3 1_555 1_555
C25 H24 1_555 1_555
C26 N4 1_555 1_555
H25 C26 1_555 1_555
C27 C22 1_555 1_555
H26 C27 1_555 1_555
C28 O4 1_555 1_555
C29 H27 1_555 1_555
H28 C29 1_555 1_555
C30 N3 1_555 1_555
H29 C30 1_555 1_555
C31 C27 1_555 1_555
H30 C31 1_555 1_555
C32 C24 1_555 1_555
C33 C23 1_555 1_555
H31 C33 1_555 1_555
C34 C31 1_555 1_555
H32 C34 1_555 1_555
C35 C28 1_555 1_555
C36 C29 1_555 1_555
H33 C36 1_555 1_555
H34 C36 1_555 1_555
C37 C33 1_555 1_555
H35 C37 1_555 1_555
C38 C26 1_555 1_555
H36 C38 1_555 1_555
H37 C38 1_555 1_555
C39 C35 1_555 1_555
H38 C39 1_555 1_555
C40 C36 1_555 1_555
H39 C40 1_555 1_555
H40 C40 1_555 1_555
C1 C3 1_555 1_555
C4 C7 1_555 1_555
C9 C10 1_555 1_555
C11 C12 1_555 1_555
C15 C16 1_555 1_555
C19 C20 1_555 1_555
C22 C24 1_555 1_555
C23 C28 1_555 1_555
C26 C30 1_555 1_555
C29 C30 1_555 1_555
C32 C34 1_555 1_555
C37 C39 1_555 1_555
C38 C40 1_555 1_555

#END
