
#######################################################################
#
#                 Cambridge Crystallographic Data Centre
#                                CCDC 
#
#######################################################################
#
# If this CIF has been generated from an entry in the Cambridge 
# Structural Database, then it will include bibliographic, chemical, 
# crystal, experimental, refinement or atomic coordinate data resulting 
# from the CCDC's data processing and validation procedures.
#
#######################################################################

data_UPAXEP
_chemical_formula_moiety         'C16 H14 N2 O2'
_chemical_name_systematic        
2-Amino-5-oxo-4-phenyl-5,6,7,8-tetrahydro-4H-chromene-3-carbonitrile
_symmetry_cell_setting           monoclinic
_symmetry_space_group_name_H-M   'C 2/c'
_symmetry_Int_Tables_number      15
_space_group_name_Hall           '-C 2yn'
loop_
_symmetry_equiv_pos_site_id
_symmetry_equiv_pos_as_xyz
1 x,y,z
2 -x,y,1/2-z
3 1/2+x,1/2+y,z
4 1/2-x,1/2+y,1/2-z
5 -x,-y,-z
6 x,-y,1/2+z
7 1/2-x,1/2-y,-z
8 1/2+x,1/2-y,1/2+z
_cell_length_a                   20.210(2)
_cell_length_b                   8.8161(5)
_cell_length_c                   16.3862(13)
_cell_angle_alpha                90
_cell_angle_beta                 99.5370(10)
_cell_angle_gamma                90
_cell_volume                     2879.23
_exptl_crystal_colour            red
_exptl_crystal_description       block
_cell_formula_units_Z            8
loop_
_atom_site_label
_atom_site_type_symbol
_atom_site_fract_x
_atom_site_fract_y
_atom_site_fract_z
O1 O 0.10075(8) 0.98207(19) 1.01594(9)
C1 C 0.07153(12) 0.8416(3) 1.00139(16)
C2 C 0.09662(11) 1.0170(3) 0.87111(15)
C3 C 0.05849(11) 0.7806(3) 0.92527(13)
N1 N 0.05983(10) 0.7810(2) 1.07271(11)
H1 H 0.0419 0.6926 1.0729
H2 H 0.0703 0.8305 1.1182
C4 C 0.08060(11) 0.8555(3) 0.85109(13)
H3 H 0.0427 0.8528 0.8053
O2 O 0.08103(10) 1.0779(2) 0.73126(12)
C5 C 0.09649(13) 1.1227(3) 0.80287(19)
C6 C 0.13891(14) 0.7707(3) 0.82384(15)
C7 C 0.02554(13) 0.6406(4) 0.91435(14)
C8 C 0.10774(12) 1.0700(3) 0.94811(17)
N2 N -0.00226(12) 0.5272(3) 0.90338(13)
C9 C 0.12867(14) 1.2263(3) 0.97399(16)
H4 H 0.1622 1.2225 1.0237
H5 H 0.0903 1.2825 0.9865
C10 C 0.11266(18) 1.2848(4) 0.82299(19)
H6 H 0.0712 1.3400 0.8232
H7 H 0.1346 1.3279 0.7799
C11 C 0.13116(16) 0.6985(3) 0.74839(18)
H8 H 0.0904 0.7056 0.7127
C12 C 0.15751(17) 1.3064(3) 0.9057(2)
H9 H 0.1621 1.4139 0.9181
H10 H 0.2018 1.2663 0.9029
C13 C 0.19982(16) 0.7600(3) 0.87459(18)
H11 H 0.2064 0.8083 0.9258
C14 C 0.1828(2) 0.6155(4) 0.7246(3)
H12 H 0.1766 0.5667 0.6736
C15 C 0.2420(2) 0.6057(5) 0.7757(3)
H13 H 0.2767 0.5492 0.7600
C16 C 0.25165(18) 0.6783(5) 0.8505(3)
H14 H 0.2930 0.6727 0.8850
loop_
_geom_bond_atom_site_label_1
_geom_bond_atom_site_label_2
_geom_bond_site_symmetry_1
_geom_bond_site_symmetry_2
O1 C1 1_555 1_555
C1 C3 1_555 1_555
C2 C4 1_555 1_555
C3 C4 1_555 1_555
N1 C1 1_555 1_555
H1 N1 1_555 1_555
H2 N1 1_555 1_555
C4 H3 1_555 1_555
O2 C5 1_555 1_555
C5 C2 1_555 1_555
C6 C4 1_555 1_555
C7 C3 1_555 1_555
C8 O1 1_555 1_555
N2 C7 1_555 1_555
C9 C8 1_555 1_555
H4 C9 1_555 1_555
H5 C9 1_555 1_555
C10 C5 1_555 1_555
H6 C10 1_555 1_555
H7 C10 1_555 1_555
C11 C6 1_555 1_555
H8 C11 1_555 1_555
C12 C9 1_555 1_555
H9 C12 1_555 1_555
H10 C12 1_555 1_555
C13 C6 1_555 1_555
H11 C13 1_555 1_555
C14 C11 1_555 1_555
H12 C14 1_555 1_555
C15 C14 1_555 1_555
H13 C15 1_555 1_555
C16 C13 1_555 1_555
H14 C16 1_555 1_555
C2 C8 1_555 1_555
C10 C12 1_555 1_555
C15 C16 1_555 1_555

#END
