
#######################################################################
#
#                 Cambridge Crystallographic Data Centre
#                                CCDC 
#
#######################################################################
#
# If this CIF has been generated from an entry in the Cambridge 
# Structural Database, then it will include bibliographic, chemical, 
# crystal, experimental, refinement or atomic coordinate data resulting 
# from the CCDC's data processing and validation procedures.
#
#######################################################################

data_UPAYOA01
_chemical_name_common            
'bis(Norfloxacin-1-ium) bis(4-carboxybenzoate) terephthalic acid'
_chemical_formula_moiety         
'2(C16 H19 F1 N3 O3 1+),C8 H6 O4,2(C8 H5 O4 1-)'
_chemical_name_systematic        
'bis(4-(3-Carboxy-1-ethyl-6-fluoro-4-oxo-1,4-dihydroquinolin-7-yl)piperazin-1-ium) bis(4-carboxybenzoate) terephthalic acid'
_chemical_properties_biological  'Norfloxacin is an anti-baterial drug'
_symmetry_cell_setting           triclinic
_symmetry_space_group_name_H-M   'P -1'
_symmetry_Int_Tables_number      2
_space_group_name_Hall           '-P 1'
loop_
_symmetry_equiv_pos_site_id
_symmetry_equiv_pos_as_xyz
1 x,y,z
2 -x,-y,-z
_cell_length_a                   9.8768(19)
_cell_length_b                   10.2489(19)
_cell_length_c                   13.674(3)
_cell_angle_alpha                89.319(4)
_cell_angle_beta                 74.752(4)
_cell_angle_gamma                71.679(4)
_cell_volume                     1263.96
_exptl_crystal_colour            yellow
_exptl_crystal_description       block
_cell_formula_units_Z            1
loop_
_atom_site_label
_atom_site_type_symbol
_atom_site_fract_x
_atom_site_fract_y
_atom_site_fract_z
C17 C 0.8089(3) 0.3885(3) 0.12855(19)
C18 C 0.6437(3) 0.4267(2) 0.14637(17)
C19 C 0.5445(3) 0.5164(3) 0.22808(19)
H20 H 0.5804 0.5580 0.2711
C20 C 0.3936(3) 0.5445(3) 0.24607(19)
H21 H 0.3289 0.6056 0.3006
C21 C 0.3374(3) 0.4822(2) 0.18339(17)
C22 C 0.4361(3) 0.3939(3) 0.10046(19)
H22 H 0.4003 0.3527 0.0571
C23 C 0.5882(3) 0.3672(3) 0.08223(19)
H23 H 0.6532 0.3088 0.0264
C24 C 0.1744(3) 0.5060(3) 0.20908(19)
O4 O 0.8888(2) 0.3085(2) 0.05327(16)
O5 O 0.8561(2) 0.43927(19) 0.19240(14)
O6 O 0.1344(2) 0.4436(2) 0.14349(15)
H24 H 0.0463 0.4515 0.1653
O7 O 0.0869(2) 0.5733(3) 0.28465(17)
C25 C 0.0219(3) 0.8456(3) 0.67598(19)
C26 C 0.0105(3) 0.9241(3) 0.58434(19)
C27 C 0.0515(3) 0.8570(3) 0.4872(2)
H25 H 0.0853 0.7612 0.4791
C28 C -0.0420(3) 1.0670(3) 0.5966(2)
H26 H -0.0708 1.1118 0.6611
O8 O 0.0816(3) 0.7102(2) 0.65401(15)
H27 H 0.0973 0.6726 0.7051
O9 O -0.0168(3) 0.8986(2) 0.76128(15)
C25A C -0.0219(3) 1.1544(3) 0.32402(19)
C26A C -0.0105(3) 1.0759(3) 0.41566(19)
C27A C -0.0515(3) 1.1430(3) 0.5128(2)
H25A H -0.0853 1.2388 0.5209
C28A C 0.0420(3) 0.9330(3) 0.4034(2)
H26A H 0.0708 0.8882 0.3389
O8A O -0.0816(3) 1.2898(2) 0.34599(15)
H27A H -0.0973 1.3274 0.2949
O9A O 0.0168(3) 1.1014(2) 0.23872(15)
C1 C 0.7846(3) 0.9736(3) 0.02128(18)
H1 H 0.6792 1.0212 0.0335
H2 H 0.8373 1.0200 -0.0298
C2 C 0.8285(3) 0.9793(3) 0.11838(17)
H3 H 0.9343 0.9339 0.1062
H4 H 0.8055 1.0745 0.1425
C3 C 0.7852(3) 0.7647(3) 0.16135(18)
H5 H 0.7311 0.7198 0.2128
H6 H 0.8904 0.7191 0.1524
C4 C 0.7484(3) 0.7514(3) 0.06240(17)
H7 H 0.7817 0.6548 0.0386
H8 H 0.6417 0.7868 0.0736
C5 C 0.7269(3) 0.9410(2) 0.29826(16)
C6 C 0.6693(3) 1.0800(2) 0.33966(18)
C7 C 0.6414(3) 1.1165(2) 0.43905(17)
H9 H 0.6080 1.2093 0.4618
C8 C 0.6625(2) 1.0147(2) 0.50863(16)
C9 C 0.7160(2) 0.8758(2) 0.47132(16)
C10 C 0.7511(3) 0.8409(2) 0.36661(17)
H10 H 0.7914 0.7485 0.3425
C11 C 0.6311(3) 1.0552(3) 0.61585(18)
C12 C 0.6550(3) 0.9447(3) 0.67970(17)
C13 C 0.7066(3) 0.8107(3) 0.63910(17)
H11 H 0.7201 0.7411 0.6833
C14 C 0.6340(3) 0.9711(3) 0.78995(19)
C15 C 0.7953(3) 0.6248(3) 0.5059(2)
H12 H 0.8386 0.5727 0.5561
H13 H 0.8727 0.6095 0.4425
C16 C 0.6738(4) 0.5724(3) 0.4906(2)
H14 H 0.5993 0.5832 0.5541
H15 H 0.7155 0.4768 0.4667
H16 H 0.6299 0.6243 0.4415
F1 F 0.63525(19) 1.18195(15) 0.27702(11)
N1 N 0.8197(2) 0.8281(2) -0.01662(14)
H17 H 0.7877 0.8263 -0.0723
H18 H 0.9186 0.7866 -0.0344
N2 N 0.7465(2) 0.9097(2) 0.19523(14)
N3 N 0.7386(2) 0.7737(2) 0.54014(14)
O1 O 0.5862(2) 1.17997(19) 0.64887(13)
O2 O 0.6042(3) 1.1003(2) 0.82158(14)
H19 H 0.5705 1.1511 0.7810
O3 O 0.6468(3) 0.8795(3) 0.84782(14)
loop_
_geom_bond_atom_site_label_1
_geom_bond_atom_site_label_2
_geom_bond_site_symmetry_1
_geom_bond_site_symmetry_2
C1 H1 1_555 1_555
H2 C1 1_555 1_555
C2 C1 1_555 1_555
H3 C2 1_555 1_555
H4 C2 1_555 1_555
C3 H5 1_555 1_555
H6 C3 1_555 1_555
C4 C3 1_555 1_555
H7 C4 1_555 1_555
H8 C4 1_555 1_555
C5 C6 1_555 1_555
C6 C7 1_555 1_555
C7 H9 1_555 1_555
C8 C7 1_555 1_555
C9 C8 1_555 1_555
C10 C5 1_555 1_555
H10 C10 1_555 1_555
C11 C8 1_555 1_555
C12 C11 1_555 1_555
C13 C12 1_555 1_555
H11 C13 1_555 1_555
C14 C12 1_555 1_555
C15 H12 1_555 1_555
H13 C15 1_555 1_555
C16 C15 1_555 1_555
H14 C16 1_555 1_555
H15 C16 1_555 1_555
H16 C16 1_555 1_555
F1 C6 1_555 1_555
N1 C1 1_555 1_555
H17 N1 1_555 1_555
H18 N1 1_555 1_555
N2 C2 1_555 1_555
N3 C9 1_555 1_555
O1 C11 1_555 1_555
O2 C14 1_555 1_555
H19 O2 1_555 1_555
O3 C14 1_555 1_555
C17 C18 1_555 1_555
C18 C19 1_555 1_555
C19 H20 1_555 1_555
C20 C19 1_555 1_555
H21 C20 1_555 1_555
C21 C20 1_555 1_555
C22 C21 1_555 1_555
H22 C22 1_555 1_555
C23 C18 1_555 1_555
H23 C23 1_555 1_555
C24 C21 1_555 1_555
O4 C17 1_555 1_555
O5 C17 1_555 1_555
O6 C24 1_555 1_555
H24 O6 1_555 1_555
O7 C24 1_555 1_555
C25 C26 1_555 1_555
C26 C27 1_555 1_555
C27 H25 1_555 1_555
C28 C26 1_555 1_555
H26 C28 1_555 1_555
O8 C25 1_555 1_555
H27 O8 1_555 1_555
O9 C25 1_555 1_555
C25A C26A 1_555 1_555
C26A C27A 1_555 1_555
C27A C28 1_555 1_555
H25A C27A 1_555 1_555
C28A C27 1_555 1_555
H26A C28A 1_555 1_555
O8A C25A 1_555 1_555
H27A O8A 1_555 1_555
O9A C25A 1_555 1_555
C3 N2 1_555 1_555
C4 N1 1_555 1_555
C5 N2 1_555 1_555
C9 C10 1_555 1_555
C13 N3 1_555 1_555
C15 N3 1_555 1_555
C22 C23 1_555 1_555
C26A C28A 1_555 1_555

#END
