
#######################################################################
#
#                 Cambridge Crystallographic Data Centre
#                                CCDC 
#
#######################################################################
#
# If this CIF has been generated from an entry in the Cambridge 
# Structural Database, then it will include bibliographic, chemical, 
# crystal, experimental, refinement or atomic coordinate data resulting 
# from the CCDC's data processing and validation procedures.
#
#######################################################################

data_UPAYUG
_chemical_formula_moiety         'C12 H15 Cl2 O4 P1'
_chemical_name_systematic        
'(S)-2-[(2,4-Dichlorophenyl)(hydroxy)methyl]-5,5-dimethyl-1,3,2-dioxaphosphinane 2-oxide'
_symmetry_cell_setting           monoclinic
_symmetry_space_group_name_H-M   'P 21'
_symmetry_Int_Tables_number      4
_space_group_name_Hall           'P 2yb'
loop_
_symmetry_equiv_pos_site_id
_symmetry_equiv_pos_as_xyz
1 x,y,z
2 -x,1/2+y,-z
_cell_length_a                   7.0263(9)
_cell_length_b                   9.9443(13)
_cell_length_c                   10.6462(14)
_cell_angle_alpha                90
_cell_angle_beta                 93.975(2)
_cell_angle_gamma                90
_cell_volume                     742.078
_exptl_crystal_colour            colorless
_exptl_crystal_description       block
_cell_formula_units_Z            2
loop_
_atom_site_label
_atom_site_type_symbol
_atom_site_fract_x
_atom_site_fract_y
_atom_site_fract_z
C1 C 1.0374(4) 0.6151(3) 0.2326(3)
C2 C 1.2166(4) 0.6199(3) 0.2946(3)
C3 C 1.2552(5) 0.6911(4) 0.4050(3)
H1 H 1.3771 0.6916 0.4451
C4 C 1.1093(5) 0.7608(3) 0.4537(3)
C5 C 0.9289(5) 0.7620(4) 0.3937(3)
H2 H 0.8316 0.8117 0.4264
C6 C 0.8951(4) 0.6891(3) 0.2856(3)
H3 H 0.7728 0.6890 0.2461
C7 C 0.9910(4) 0.5319(3) 0.1163(3)
H4 H 1.0894 0.4627 0.1112
C8 C 0.7747(5) 0.4722(4) -0.1830(3)
H5 H 0.7300 0.4104 -0.1209
H6 H 0.7880 0.4222 -0.2601
C9 C 0.6092(4) 0.6611(4) -0.0866(3)
H7 H 0.5200 0.7344 -0.1037
H8 H 0.5575 0.6030 -0.0242
C10 C 0.6301(5) 0.5816(4) -0.2073(3)
C11 C 0.4368(6) 0.5156(6) -0.2449(5)
H9 H 0.4470 0.4632 -0.3199
H10 H 0.3418 0.5841 -0.2605
H11 H 0.4008 0.4583 -0.1780
C12 C 0.6874(6) 0.6734(5) -0.3136(3)
H12 H 0.8071 0.7157 -0.2893
H13 H 0.5913 0.7411 -0.3297
H14 H 0.6996 0.6211 -0.3884
Cl1 Cl 1.40915(11) 0.53739(10) 0.23277(9)
Cl2 Cl 1.15586(17) 0.85446(12) 0.59048(10)
O1 O 0.8112(3) 0.4671(2) 0.1240(2)
H15 H 0.818(6) 0.390(5) 0.102(4)
O2 O 0.9609(3) 0.5257(2) -0.1376(2)
O3 O 0.7922(3) 0.7156(2) -0.0361(2)
O4 O 1.1503(3) 0.7162(2) -0.0359(2)
P1 P 0.98124(10) 0.63058(8) -0.02830(7)
loop_
_geom_bond_atom_site_label_1
_geom_bond_atom_site_label_2
_geom_bond_site_symmetry_1
_geom_bond_site_symmetry_2
C1 C2 1_555 1_555
C2 C3 1_555 1_555
C3 H1 1_555 1_555
C4 C3 1_555 1_555
C5 C4 1_555 1_555
H2 C5 1_555 1_555
C6 C1 1_555 1_555
H3 C6 1_555 1_555
C7 C1 1_555 1_555
H4 C7 1_555 1_555
C8 H5 1_555 1_555
H6 C8 1_555 1_555
C9 H7 1_555 1_555
H8 C9 1_555 1_555
C10 C8 1_555 1_555
C11 C10 1_555 1_555
H9 C11 1_555 1_555
H10 C11 1_555 1_555
H11 C11 1_555 1_555
C12 C10 1_555 1_555
H12 C12 1_555 1_555
H13 C12 1_555 1_555
H14 C12 1_555 1_555
Cl1 C2 1_555 1_555
Cl2 C4 1_555 1_555
O1 C7 1_555 1_555
H15 O1 1_555 1_555
O2 C8 1_555 1_555
O3 C9 1_555 1_555
O4 P1 1_555 1_555
P1 C7 1_555 1_555
C5 C6 1_555 1_555
C9 C10 1_555 1_555
O2 P1 1_555 1_555
O3 P1 1_555 1_555

#END
