
#######################################################################
#
#                 Cambridge Crystallographic Data Centre
#                                CCDC 
#
#######################################################################
#
# If this CIF has been generated from an entry in the Cambridge 
# Structural Database, then it will include bibliographic, chemical, 
# crystal, experimental, refinement or atomic coordinate data resulting 
# from the CCDC's data processing and validation procedures.
#
#######################################################################

data_UPAZES
_chemical_formula_moiety         'C65 H72 N2 O12'
_chemical_name_systematic        
'2-(((4-((34-(4-((2-hydroxybenzylidene)amino)butoxy)-9,14,19,24,26,28,30,32-octamethoxyhexacyclo[21.2.2.2^3,6^.2^8,11^.2^13,16^.2^18,21^]pentatriaconta-1(25),3,5,8,10,13,15,18,20,23,26,28,30,32,34-pentadecaen-4-yl)oxy)butyl)imino)methyl)phenol unknown solvate'
_symmetry_cell_setting           orthorhombic
_symmetry_space_group_name_H-M   'P n a 21'
_symmetry_Int_Tables_number      33
_space_group_name_Hall           'P 2c -2n'
loop_
_symmetry_equiv_pos_site_id
_symmetry_equiv_pos_as_xyz
1 x,y,z
2 -x,-y,1/2+z
3 1/2+x,1/2-y,z
4 1/2-x,1/2+y,1/2+z
_cell_length_a                   28.2338(15)
_cell_length_b                   18.5477(10)
_cell_length_c                   11.9890(7)
_cell_angle_alpha                90
_cell_angle_beta                 90
_cell_angle_gamma                90
_cell_volume                     6278.3
_exptl_crystal_colour            yellow
_exptl_crystal_description       block
_cell_formula_units_Z            4
loop_
_atom_site_label
_atom_site_type_symbol
_atom_site_fract_x
_atom_site_fract_y
_atom_site_fract_z
C1 C 0.3940(2) 0.5594(3) 0.7713(5)
H1 H 0.4242 0.5348 0.7756
H2 H 0.3740 0.5328 0.7198
C2 C 0.40157(18) 0.6342(3) 0.7273(4)
C3 C 0.44280(19) 0.6724(3) 0.7509(5)
H3 H 0.4665 0.6503 0.7924
C4 C 0.44933(17) 0.7417(3) 0.7148(5)
C5 C 0.41541(19) 0.7768(3) 0.6513(4)
C6 C 0.3740(2) 0.7386(3) 0.6263(5)
H4 H 0.3504 0.7601 0.5834
C7 C 0.36784(19) 0.6690(3) 0.6653(5)
C8 C 0.5235(3) 0.7532(5) 0.8124(10)
H5 H 0.5080 0.7365 0.8789
H6 H 0.5462 0.7897 0.8315
H7 H 0.5393 0.7136 0.7769
C9 C 0.2880(2) 0.6669(4) 0.5984(8)
H8 H 0.2809 0.7073 0.6456
H9 H 0.2610 0.6355 0.5950
H10 H 0.2955 0.6837 0.5248
C10 C 0.42270(18) 0.8526(3) 0.6106(5)
H11 H 0.4045 0.8601 0.5430
H12 H 0.4559 0.8598 0.5927
C11 C 0.43979(19) 0.9370(3) 0.7719(5)
H13 H 0.4716 0.9249 0.7655
C12 C 0.42593(19) 0.9839(3) 0.8545(5)
C13 C 0.37886(19) 1.0051(3) 0.8640(5)
C14 C 0.34686(19) 0.9779(3) 0.7880(5)
H14 H 0.3154 0.9928 0.7913
C15 C 0.36028(19) 0.9289(3) 0.7068(5)
C16 C 0.40757(18) 0.9075(3) 0.6983(4)
C17 C 0.4965(3) 0.9723(5) 0.9608(8)
H15 H 0.4871 0.9235 0.9760
H16 H 0.5106 0.9928 1.0263
H17 H 0.5191 0.9727 0.9009
C18 C 0.2805(2) 0.9056(4) 0.6482(6)
H18 H 0.2721 0.8868 0.7202
H19 H 0.2637 0.8796 0.5914
H20 H 0.2722 0.9557 0.6444
C19 C 0.3624(2) 1.0551(3) 0.9557(5)
H21 H 0.3879 1.0880 0.9748
H22 H 0.3359 1.0835 0.9289
C20 C 0.3477(2) 1.0145(3) 1.0576(5)
C21 C 0.3806(2) 0.9919(4) 1.1389(6)
H23 H 0.4121 1.0059 1.1315
C22 C 0.3682(2) 0.9507(3) 1.2273(5)
C23 C 0.32103(18) 0.9305(3) 1.2449(4)
C24 C 0.28836(19) 0.9525(3) 1.1659(5)
H24 H 0.2566 0.9407 1.1761
C25 C 0.30111(19) 0.9912(3) 1.0729(5)
C26 C 0.4449(3) 0.9038(6) 1.2696(9)
H25 H 0.4419 0.8841 1.1958
H26 H 0.4569 0.8674 1.3191
H27 H 0.4665 0.9439 1.2681
C27 C 0.2233(2) 0.9813(6) 0.9966(7)
H28 H 0.2258 0.9305 0.9825
H29 H 0.2035 1.0031 0.9410
H30 H 0.2098 0.9890 1.0691
C28 C 0.3065(2) 0.8846(3) 1.3416(5)
H31 H 0.2752 0.8993 1.3663
H32 H 0.3283 0.8923 1.4028
C29 C 0.30549(18) 0.8044(3) 1.3124(4)
C30 C 0.34416(19) 0.7603(3) 1.3310(4)
H33 H 0.3708 0.7796 1.3655
C31 C 0.34460(18) 0.6896(3) 1.3005(4)
C32 C 0.30517(16) 0.6590(3) 1.2492(4)
C33 C 0.26624(17) 0.7027(3) 1.2312(4)
H34 H 0.2395 0.6835 1.1969
C34 C 0.26607(18) 0.7741(3) 1.2628(5)
C35 C 0.4245(2) 0.6714(4) 1.3588(6)
H35 H 0.4394 0.6997 1.3017
H36 H 0.4452 0.6326 1.3800
H37 H 0.4182 0.7012 1.4226
C36 C 0.1884(3) 0.7935(5) 1.1838(9)
H38 H 0.1975 0.7847 1.1079
H39 H 0.1634 0.8286 1.1855
H40 H 0.1775 0.7494 1.2169
C37 C 0.30561(18) 0.5813(3) 1.2113(4)
H41 H 0.2734 0.5632 1.2097
H42 H 0.3233 0.5527 1.2646
C38 C 0.32764(17) 0.5725(3) 1.0960(4)
C39 C 0.37600(17) 0.5655(3) 1.0864(4)
H43 H 0.3943 0.5654 1.1508
C40 C 0.39843(17) 0.5584(3) 0.9832(5)
C41 C 0.37101(18) 0.5595(3) 0.8858(5)
C42 C 0.32236(18) 0.5665(3) 0.8961(5)
H44 H 0.3038 0.5671 0.8320
C43 C 0.30040(17) 0.5726(2) 1.0000(5)
C44 C 0.47456(19) 0.5427(4) 1.0668(5)
H45 H 0.4617 0.5063 1.1163
H46 H 0.4749 0.5884 1.1062
C45 C 0.5246(2) 0.5222(4) 1.0320(6)
H47 H 0.5444 0.5189 1.0981
H48 H 0.5240 0.4750 0.9972
C46 C 0.5461(2) 0.5744(4) 0.9537(6)
H49 H 0.5416 0.6228 0.9823
H50 H 0.5300 0.5712 0.8824
C47 C 0.6002(2) 0.5611(4) 0.9353(6)
H51 H 0.6164 0.5610 1.0067
H52 H 0.6050 0.5145 0.9005
C48 C 0.62933(19) 0.6016(4) 0.7692(7)
H53 H 0.6255 0.5541 0.7458
C49 C 0.64725(19) 0.6549(4) 0.6865(6)
C50 C 0.6580(2) 0.6339(4) 0.5783(6)
H54 H 0.6547 0.5857 0.5582
C51 C 0.6729(3) 0.6819(6) 0.5017(8)
H55 H 0.6795 0.6671 0.4292
C52 C 0.6783(3) 0.7524(7) 0.5314(12)
H56 H 0.6896 0.7850 0.4788
C53 C 0.6680(3) 0.7758(5) 0.6333(14)
H57 H 0.6710 0.8246 0.6496
C54 C 0.6530(3) 0.7288(5) 0.7155(9)
C55 C 0.22354(18) 0.5814(4) 0.9177(5)
H58 H 0.2323 0.5439 0.8652
H59 H 0.2277 0.6278 0.8818
C56 C 0.1707(2) 0.5716(4) 0.9549(6)
H60 H 0.1506 0.5729 0.8893
H61 H 0.1671 0.5246 0.9892
C57 C 0.1545(2) 0.6270(4) 1.0337(5)
H62 H 0.1627 0.6742 1.0047
H63 H 0.1710 0.6207 1.1041
C58 C 0.1006(2) 0.6240(4) 1.0547(7)
H64 H 0.0838 0.6262 0.9842
H65 H 0.0925 0.5789 1.0910
C59 C 0.07110(19) 0.6705(4) 1.2203(7)
H66 H 0.0670 0.6227 1.2419
C60 C 0.05936(19) 0.7277(4) 1.2999(6)
C61 C 0.0454(2) 0.7120(4) 1.4078(8)
H67 H 0.0417 0.6639 1.4276
C62 C 0.0370(3) 0.7620(7) 1.4848(10)
H68 H 0.0278 0.7492 1.5566
C63 C 0.0421(3) 0.8321(7) 1.4559(11)
H69 H 0.0367 0.8675 1.5093
C64 C 0.0553(3) 0.8526(5) 1.3498(10)
H70 H 0.0586 0.9012 1.3323
C65 C 0.0633(2) 0.8013(4) 1.2704(8)
N1 N 0.61926(17) 0.6161(4) 0.8664(5)
N2 N 0.08649(18) 0.6834(3) 1.1240(6)
O1 O 0.48936(13) 0.7825(2) 0.7386(4)
O2 O 0.32667(14) 0.6292(2) 0.6419(4)
O3 O 0.45724(14) 1.0123(2) 0.9308(4)
O4 O 0.32950(13) 0.8978(2) 0.6315(4)
O5 O 0.40034(16) 0.9272(3) 1.3071(4)
O6 O 0.26926(14) 1.0130(3) 0.9923(4)
O7 O 0.38213(13) 0.6431(2) 1.3185(4)
O8 O 0.22843(13) 0.8203(2) 1.2452(4)
O9 O 0.44597(12) 0.5484(2) 0.9696(3)
O10 O 0.6437(3) 0.7502(4) 0.8216(7)
H71 H 0.6433 0.7150 0.8628
O11 O 0.25222(12) 0.5770(2) 1.0141(3)
O12 O 0.0756(2) 0.8194(3) 1.1666(6)
H72 H 0.0785 0.7829 1.1287
loop_
_geom_bond_atom_site_label_1
_geom_bond_atom_site_label_2
_geom_bond_site_symmetry_1
_geom_bond_site_symmetry_2
C1 H1 1_555 1_555
H2 C1 1_555 1_555
C2 C1 1_555 1_555
C3 C2 1_555 1_555
H3 C3 1_555 1_555
C4 C3 1_555 1_555
C5 C4 1_555 1_555
C6 C5 1_555 1_555
H4 C6 1_555 1_555
C7 C2 1_555 1_555
C8 H5 1_555 1_555
H6 C8 1_555 1_555
H7 C8 1_555 1_555
C9 H8 1_555 1_555
H9 C9 1_555 1_555
H10 C9 1_555 1_555
C10 C5 1_555 1_555
H11 C10 1_555 1_555
H12 C10 1_555 1_555
C11 H13 1_555 1_555
C12 C11 1_555 1_555
C13 C12 1_555 1_555
C14 C13 1_555 1_555
H14 C14 1_555 1_555
C15 C14 1_555 1_555
C16 C10 1_555 1_555
C17 H15 1_555 1_555
H16 C17 1_555 1_555
H17 C17 1_555 1_555
C18 H18 1_555 1_555
H19 C18 1_555 1_555
H20 C18 1_555 1_555
C19 C13 1_555 1_555
H21 C19 1_555 1_555
H22 C19 1_555 1_555
C20 C19 1_555 1_555
C21 C20 1_555 1_555
H23 C21 1_555 1_555
C22 C21 1_555 1_555
C23 C22 1_555 1_555
C24 C23 1_555 1_555
H24 C24 1_555 1_555
C25 C20 1_555 1_555
C26 H25 1_555 1_555
H26 C26 1_555 1_555
H27 C26 1_555 1_555
C27 H28 1_555 1_555
H29 C27 1_555 1_555
H30 C27 1_555 1_555
C28 C23 1_555 1_555
H31 C28 1_555 1_555
H32 C28 1_555 1_555
C29 C28 1_555 1_555
C30 C29 1_555 1_555
H33 C30 1_555 1_555
C31 C30 1_555 1_555
C32 C31 1_555 1_555
C33 C32 1_555 1_555
H34 C33 1_555 1_555
C34 C29 1_555 1_555
C35 H35 1_555 1_555
H36 C35 1_555 1_555
H37 C35 1_555 1_555
C36 H38 1_555 1_555
H39 C36 1_555 1_555
H40 C36 1_555 1_555
C37 C32 1_555 1_555
H41 C37 1_555 1_555
H42 C37 1_555 1_555
C38 C37 1_555 1_555
C39 C38 1_555 1_555
H43 C39 1_555 1_555
C40 C39 1_555 1_555
C41 C1 1_555 1_555
C42 C41 1_555 1_555
H44 C42 1_555 1_555
C43 C38 1_555 1_555
C44 H45 1_555 1_555
H46 C44 1_555 1_555
C45 C44 1_555 1_555
H47 C45 1_555 1_555
H48 C45 1_555 1_555
C46 C45 1_555 1_555
H49 C46 1_555 1_555
H50 C46 1_555 1_555
C47 C46 1_555 1_555
H51 C47 1_555 1_555
H52 C47 1_555 1_555
C48 H53 1_555 1_555
C49 C48 1_555 1_555
C50 C49 1_555 1_555
H54 C50 1_555 1_555
C51 C50 1_555 1_555
H55 C51 1_555 1_555
C52 C51 1_555 1_555
H56 C52 1_555 1_555
C53 C52 1_555 1_555
H57 C53 1_555 1_555
C54 C49 1_555 1_555
C55 H58 1_555 1_555
H59 C55 1_555 1_555
C56 C55 1_555 1_555
H60 C56 1_555 1_555
H61 C56 1_555 1_555
C57 C56 1_555 1_555
H62 C57 1_555 1_555
H63 C57 1_555 1_555
C58 C57 1_555 1_555
H64 C58 1_555 1_555
H65 C58 1_555 1_555
C59 H66 1_555 1_555
C60 C59 1_555 1_555
C61 C60 1_555 1_555
H67 C61 1_555 1_555
C62 C61 1_555 1_555
H68 C62 1_555 1_555
C63 C62 1_555 1_555
H69 C63 1_555 1_555
C64 C63 1_555 1_555
H70 C64 1_555 1_555
C65 C60 1_555 1_555
N1 C47 1_555 1_555
N2 C58 1_555 1_555
O1 C4 1_555 1_555
O2 C7 1_555 1_555
O3 C12 1_555 1_555
O4 C15 1_555 1_555
O5 C22 1_555 1_555
O6 C25 1_555 1_555
O7 C31 1_555 1_555
O8 C34 1_555 1_555
O9 C40 1_555 1_555
O10 C54 1_555 1_555
H71 O10 1_555 1_555
O11 C43 1_555 1_555
O12 C65 1_555 1_555
H72 O12 1_555 1_555
C6 C7 1_555 1_555
C8 O1 1_555 1_555
C9 O2 1_555 1_555
C11 C16 1_555 1_555
C15 C16 1_555 1_555
C17 O3 1_555 1_555
C18 O4 1_555 1_555
C24 C25 1_555 1_555
C26 O5 1_555 1_555
C27 O6 1_555 1_555
C33 C34 1_555 1_555
C35 O7 1_555 1_555
C36 O8 1_555 1_555
C40 C41 1_555 1_555
C42 C43 1_555 1_555
C44 O9 1_555 1_555
C48 N1 1_555 1_555
C53 C54 1_555 1_555
C55 O11 1_555 1_555
C59 N2 1_555 1_555
C64 C65 1_555 1_555

#END
