
#######################################################################
#
#                 Cambridge Crystallographic Data Centre
#                                CCDC 
#
#######################################################################
#
# If this CIF has been generated from an entry in the Cambridge 
# Structural Database, then it will include bibliographic, chemical, 
# crystal, experimental, refinement or atomic coordinate data resulting 
# from the CCDC's data processing and validation procedures.
#
#######################################################################

data_UPAZUI
_chemical_formula_moiety         'C20 H22 O2'
_chemical_name_systematic        
3,3',4,4'-tetrahydro-1,1'-binaphthalene-1,1'(2H,2'H)-diol
_symmetry_cell_setting           triclinic
_symmetry_space_group_name_H-M   'P -1'
_symmetry_Int_Tables_number      2
_space_group_name_Hall           '-P 1'
loop_
_symmetry_equiv_pos_site_id
_symmetry_equiv_pos_as_xyz
1 x,y,z
2 -x,-y,-z
_cell_length_a                   8.4772(8)
_cell_length_b                   8.4990(8)
_cell_length_c                   11.5994(11)
_cell_angle_alpha                69.873(2)
_cell_angle_beta                 71.471(2)
_cell_angle_gamma                83.158(2)
_cell_volume                     743.955
_exptl_crystal_colour            colorless
_cell_formula_units_Z            2
loop_
_atom_site_label
_atom_site_type_symbol
_atom_site_fract_x
_atom_site_fract_y
_atom_site_fract_z
O1 O 0.08407(11) 0.30610(12) 0.95543(8)
H1 H 0.0944(19) 0.203(2) 0.9966(15)
O2 O -0.02774(10) 0.60194(11) 0.82280(8)
H2 H -0.0057(19) 0.5998(19) 0.8909(15)
C1 C -0.33267(16) 0.06611(16) 0.85496(12)
H3 H -0.4280 0.0091 0.8641
C2 C -0.17494(16) 0.00582(15) 0.80855(12)
H4 H -0.1626 -0.0935 0.7862
C3 C -0.03293(15) 0.08843(15) 0.79389(11)
C4 C -0.05100(15) 0.23405(15) 0.82825(11)
C5 C 0.09981(15) 0.32325(15) 0.82339(11)
C6 C 0.10075(15) 0.51771(15) 0.75005(11)
C7 C 0.26951(15) 0.59565(15) 0.72378(12)
C8 C 0.33125(16) 0.57733(16) 0.82663(13)
H5 H 0.2685 0.5164 0.9115
C9 C 0.48155(16) 0.64604(16) 0.80718(13)
H6 H 0.5217 0.6306 0.8781
C10 C 0.57311(16) 0.73714(17) 0.68437(14)
H7 H 0.6778 0.7820 0.6699
C11 C 0.13532(15) 0.01675(15) 0.74297(12)
H8 H 0.1723 0.0629 0.6479
H9 H 0.1275 -0.1064 0.7678
C12 C 0.26190(15) 0.05826(16) 0.79537(12)
H10 H 0.3733 0.0167 0.7564
H11 H 0.2316 0.0026 0.8896
C13 C 0.26622(15) 0.24684(15) 0.76434(12)
H12 H 0.2991 0.3004 0.6698
H13 H 0.3524 0.2728 0.7958
C14 C -0.21158(15) 0.29208(16) 0.87598(12)
H14 H -0.2255 0.3897 0.9007
C15 C -0.35047(16) 0.21064(16) 0.88806(12)
H15 H -0.4584 0.2537 0.9191
C16 C 0.05510(16) 0.54840(15) 0.62616(12)
H16 H 0.1089 0.4609 0.5876
H17 H -0.0668 0.5383 0.6478
C17 C 0.10814(17) 0.71945(17) 0.52812(13)
H18 H 0.0689 0.7370 0.4528
H19 H 0.0584 0.8081 0.5665
C18 C 0.29637(18) 0.72904(19) 0.48626(13)
H20 H 0.3451 0.6472 0.4407
H21 H 0.3317 0.8424 0.4259
C19 C 0.35972(16) 0.69223(16) 0.60047(12)
C20 C 0.51035(17) 0.76199(18) 0.58319(13)
H22 H 0.5712 0.8284 0.4994
loop_
_geom_bond_atom_site_label_1
_geom_bond_atom_site_label_2
_geom_bond_site_symmetry_1
_geom_bond_site_symmetry_2
O1 H1 1_555 1_555
O2 H2 1_555 1_555
C1 H3 1_555 1_555
C2 C1 1_555 1_555
H4 C2 1_555 1_555
C3 C2 1_555 1_555
C4 C3 1_555 1_555
C5 O1 1_555 1_555
C6 O2 1_555 1_555
C7 C6 1_555 1_555
C8 C7 1_555 1_555
H5 C8 1_555 1_555
C9 C8 1_555 1_555
H6 C9 1_555 1_555
C10 C9 1_555 1_555
H7 C10 1_555 1_555
C11 C3 1_555 1_555
H8 C11 1_555 1_555
H9 C11 1_555 1_555
C12 C11 1_555 1_555
H10 C12 1_555 1_555
H11 C12 1_555 1_555
C13 C5 1_555 1_555
H12 C13 1_555 1_555
H13 C13 1_555 1_555
C14 C4 1_555 1_555
H14 C14 1_555 1_555
C15 C1 1_555 1_555
H15 C15 1_555 1_555
C16 C6 1_555 1_555
H16 C16 1_555 1_555
H17 C16 1_555 1_555
C17 C16 1_555 1_555
H18 C17 1_555 1_555
H19 C17 1_555 1_555
C18 C17 1_555 1_555
H20 C18 1_555 1_555
H21 C18 1_555 1_555
C19 C7 1_555 1_555
C20 C10 1_555 1_555
H22 C20 1_555 1_555
C4 C5 1_555 1_555
C5 C6 1_555 1_555
C12 C13 1_555 1_555
C14 C15 1_555 1_555
C18 C19 1_555 1_555
C19 C20 1_555 1_555

#END
