
#######################################################################
#
#                 Cambridge Crystallographic Data Centre
#                                CCDC 
#
#######################################################################
#
# If this CIF has been generated from an entry in the Cambridge 
# Structural Database, then it will include bibliographic, chemical, 
# crystal, experimental, refinement or atomic coordinate data resulting 
# from the CCDC's data processing and validation procedures.
#
#######################################################################

data_UPEBUN
_chemical_formula_moiety         'C15 H14 F1 N3 O5,C3 H7 N1 O1'
_chemical_name_systematic        
'(R)-N-((5-Fluoro-2,4-dioxo-3,4-dihydropyrimidin-1(2H)-yl)acetyl)phenylalanine N,N-dimethylformamide solvate'
_symmetry_cell_setting           orthorhombic
_symmetry_space_group_name_H-M   'P 21 21 21'
_symmetry_Int_Tables_number      19
_space_group_name_Hall           'P 2ac 2ab'
loop_
_symmetry_equiv_pos_site_id
_symmetry_equiv_pos_as_xyz
1 x,y,z
2 1/2-x,-y,1/2+z
3 -x,1/2+y,1/2-z
4 1/2+x,1/2-y,-z
_cell_length_a                   4.8890(4)
_cell_length_b                   15.4713(11)
_cell_length_c                   25.1819(19)
_cell_angle_alpha                90
_cell_angle_beta                 90
_cell_angle_gamma                90
_cell_volume                     1904.74
_chemical_melting_point          215-217deg.C
_cell_formula_units_Z            4
loop_
_atom_site_label
_atom_site_type_symbol
_atom_site_fract_x
_atom_site_fract_y
_atom_site_fract_z
F1 F 0.7510(10) 0.9103(3) 0.1853(2)
O1 O 0.2314(12) 0.7078(3) 0.0469(2)
O2 O 0.8843(13) 0.9108(3) 0.0794(2)
O3 O 0.4882(8) 0.6006(3) 0.1568(2)
O4 O 0.0630(12) 0.3085(3) 0.1897(2)
O5 O -0.2198(9) 0.4118(3) 0.2162(2)
N1 N 0.2808(10) 0.7565(3) 0.1309(2)
N2 N 0.5562(12) 0.8094(3) 0.0638(2)
N3 N 0.0771(10) 0.5374(3) 0.1669(2)
C1 C 0.3480(13) 0.7546(4) 0.0782(2)
C2 C 0.7032(14) 0.8652(4) 0.0958(3)
C3 C 0.6173(15) 0.8599(4) 0.1506(2)
C4 C 0.4201(14) 0.8073(4) 0.1668(2)
C5 C 0.0913(12) 0.6903(4) 0.1503(2)
C6 C 0.2384(11) 0.6053(4) 0.1583(2)
C7 C 0.1884(11) 0.4501(4) 0.1689(2)
C8 C -0.0159(13) 0.3898(4) 0.1938(2)
C9 C 0.2870(13) 0.4212(4) 0.1134(2)
C10 C 0.0649(13) 0.4174(4) 0.0722(2)
C11 C -0.0680(16) 0.3415(5) 0.0600(3)
C12 C -0.2750(17) 0.3401(6) 0.0223(3)
C13 C -0.3493(17) 0.4155(7) -0.0035(3)
C14 C -0.2161(19) 0.4899(6) 0.0077(3)
C15 C -0.0095(16) 0.4916(5) 0.0446(2)
O6 O 0.2837(14) 0.6905(3) 0.2743(2)
N4 N 0.5622(13) 0.6170(3) 0.3300(2)
C16 C 0.7730(20) 0.5529(6) 0.3371(4)
C17 C 0.4730(30) 0.6602(8) 0.3773(4)
C18 C 0.4630(20) 0.6363(5) 0.2843(3)
loop_
_geom_bond_atom_site_label_1
_geom_bond_atom_site_label_2
_geom_bond_site_symmetry_1
_geom_bond_site_symmetry_2
F1 C3 1_555 1_555
O1 C1 1_555 1_555
O2 C2 1_555 1_555
O3 C6 1_555 1_555
O4 C8 1_555 1_555
O5 C8 1_555 1_555
N1 C1 1_555 1_555
N2 C1 1_555 1_555
N3 C6 1_555 1_555
C2 N2 1_555 1_555
C3 C2 1_555 1_555
C4 N1 1_555 1_555
C5 N1 1_555 1_555
C6 C5 1_555 1_555
C7 N3 1_555 1_555
C8 C7 1_555 1_555
C9 C7 1_555 1_555
C10 C9 1_555 1_555
C11 C10 1_555 1_555
C12 C11 1_555 1_555
C13 C12 1_555 1_555
C14 C13 1_555 1_555
C15 C10 1_555 1_555
O6 C18 1_555 1_555
N4 C16 1_555 1_555
C17 N4 1_555 1_555
C18 N4 1_555 1_555
C3 C4 1_555 1_555
C14 C15 1_555 1_555

#END
