
#######################################################################
#
#                 Cambridge Crystallographic Data Centre
#                                CCDC 
#
#######################################################################
#
# If this CIF has been generated from an entry in the Cambridge 
# Structural Database, then it will include bibliographic, chemical, 
# crystal, experimental, refinement or atomic coordinate data resulting 
# from the CCDC's data processing and validation procedures.
#
#######################################################################

data_UPEBEY
_chemical_formula_moiety         'C106 H104 N10 O16 S8,6(C1 H1 Cl3)'
_chemical_name_systematic        
"4,4',12,12',17,17',25,25'-octakis((4-methylphenyl)sulfonyl)-8,8'-bi(4,12,17,25,28-penta-azapentacyclo[13.11.1.1^2,14^.1^6,10^.1^19,23^]triacontane)-1(27),1'(27'),2(29),2'(29'),6(30),6'(30'),7,7',9,9',14,14',19(28),19'(28'),20,20',22,22'-octadecaene chloroform solvate"
_symmetry_cell_setting           triclinic
_symmetry_space_group_name_H-M   'P -1'
_symmetry_Int_Tables_number      2
_space_group_name_Hall           '-P 1'
loop_
_symmetry_equiv_pos_site_id
_symmetry_equiv_pos_as_xyz
1 x,y,z
2 -x,-y,-z
_cell_length_a                   16.4880(18)
_cell_length_b                   19.3573(18)
_cell_length_c                   20.2569(18)
_cell_angle_alpha                81.109(6)
_cell_angle_beta                 77.153(5)
_cell_angle_gamma                83.726(5)
_cell_volume                     6208.81
_exptl_crystal_colour            colorless
_exptl_crystal_description       blocks
_cell_formula_units_Z            2
loop_
_atom_site_label
_atom_site_type_symbol
_atom_site_fract_x
_atom_site_fract_y
_atom_site_fract_z
C1 C 0.1826(8) 0.2791(6) 0.3627(5)
H1 H 0.1843 0.2325 0.3908
H2 H 0.1234 0.2937 0.3615
N1 N 0.2282(5) 0.2723(4) 0.2936(4)
C2 C 0.2116(6) 0.3280(5) 0.2386(5)
H3 H 0.1508 0.3403 0.2448
H4 H 0.2314 0.3105 0.1939
C3 C 0.2551(7) 0.3925(5) 0.2390(5)
C4 C 0.3413(7) 0.3968(5) 0.2159(5)
C5 C 0.3782(7) 0.4504(5) 0.2303(5)
H5 H 0.4372 0.4505 0.2171
C6 C 0.3331(7) 0.5062(5) 0.2639(5)
C7 C 0.2439(7) 0.5039(5) 0.2840(5)
C8 C 0.2087(7) 0.4480(5) 0.2704(5)
H6 H 0.1498 0.4469 0.2829
C9 C 0.3901(6) 0.3403(5) 0.1769(6)
H7 H 0.3560 0.3259 0.1475
H8 H 0.4021 0.2988 0.2095
N2 N 0.4710(5) 0.3646(4) 0.1331(4)
C10 C 0.4638(7) 0.3997(5) 0.0634(5)
H9 H 0.4351 0.3699 0.0416
H10 H 0.5202 0.4061 0.0347
C11 C 0.4145(7) 0.4711(5) 0.0685(5)
C12 C 0.3355(6) 0.4802(5) 0.0560(5)
H11 H 0.3150 0.4451 0.0374
C13 C 0.2838(6) 0.5427(5) 0.0709(5)
C14 C 0.3149(6) 0.5896(5) 0.1016(5)
H12 H 0.2799 0.6297 0.1147
C15 C 0.3947(7) 0.5813(5) 0.1145(6)
C16 C 0.4447(7) 0.5231(5) 0.0948(5)
H13 H 0.5012 0.5183 0.0994
C17 C 0.1976(6) 0.5526(5) 0.0586(5)
C18 C 0.1817(7) 0.5501(5) -0.0056(5)
H14 H 0.2267 0.5400 -0.0421
C19 C 0.1013(7) 0.5620(5) -0.0173(5)
C20 C 0.0364(6) 0.5719(4) 0.0366(5)
H15 H -0.0191 0.5756 0.0295
C21 C 0.0491(6) 0.5766(5) 0.1018(5)
C22 C 0.1317(6) 0.5665(4) 0.1123(5)
H16 H 0.1423 0.5692 0.1561
C23 C 0.0830(7) 0.5733(5) -0.0878(5)
H17 H 0.1342 0.5616 -0.1216
H18 H 0.0399 0.5423 -0.0899
N3 N 0.0527(5) 0.6484(4) -0.1043(4)
C24 C 0.1164(6) 0.7002(5) -0.1180(5)
H19 H 0.1029 0.7377 -0.1539
H20 H 0.1711 0.6765 -0.1369
C25 C 0.1259(6) 0.7339(5) -0.0591(5)
C26 C 0.1876(6) 0.7778(5) -0.0656(5)
C27 C 0.1979(6) 0.8033(5) -0.0081(5)
H21 H 0.2423 0.8323 -0.0127
C28 C 0.1467(6) 0.7887(5) 0.0560(5)
C29 C 0.0824(6) 0.7453(5) 0.0633(5)
C30 C 0.0710(6) 0.7196(5) 0.0051(5)
H22 H 0.0254 0.6921 0.0088
C31 C 0.2426(6) 0.8025(5) -0.1364(5)
H23 H 0.2840 0.8333 -0.1307
H24 H 0.2733 0.7613 -0.1566
N4 N 0.1898(5) 0.8412(4) -0.1827(4)
C32 C 0.1528(6) 0.9114(5) -0.1693(5)
H25 H 0.1279 0.9342 -0.2082
H26 H 0.1971 0.9403 -0.1655
C33 C 0.0861(6) 0.9085(5) -0.1040(5)
C34 C 0.0085(6) 0.8816(5) -0.1001(5)
H27 H -0.0056 0.8686 -0.1392
C35 C -0.0463(7) 0.8749(5) -0.0368(5)
H28 H -0.0985 0.8562 -0.0319
C36 C -0.0251(6) 0.8948(4) 0.0177(5)
H29 H -0.0627 0.8906 0.0608
C37 C 0.0522(6) 0.9217(5) 0.0105(5)
N5 N 0.1055(5) 0.9302(4) -0.0504(4)
C38 C 0.0824(6) 0.9408(5) 0.0692(5)
H30 H 0.1399 0.9556 0.0527
H31 H 0.0464 0.9811 0.0868
N6 N 0.0822(5) 0.8818(4) 0.1260(4)
C39 C 0.1546(6) 0.8276(5) 0.1126(5)
H32 H 0.2075 0.8509 0.0998
H33 H 0.1559 0.7942 0.1547
C40 C 0.0253(6) 0.7289(5) 0.1319(5)
H34 H 0.0597 0.7079 0.1653
H35 H -0.0027 0.7734 0.1468
N7 N -0.0396(5) 0.6807(4) 0.1340(4)
C41 C -0.0197(6) 0.6034(5) 0.1555(5)
H36 H -0.0021 0.5965 0.1999
H37 H -0.0698 0.5775 0.1608
C42 C 0.4220(7) 0.6304(5) 0.1538(6)
H38 H 0.4798 0.6157 0.1592
H39 H 0.4214 0.6782 0.1282
N8 N 0.3668(5) 0.6312(4) 0.2216(5)
C43 C 0.3797(7) 0.5659(5) 0.2736(6)
H40 H 0.4400 0.5510 0.2677
H41 H 0.3595 0.5778 0.3206
C44 C 0.1935(7) 0.5621(5) 0.3215(5)
H42 H 0.2290 0.5817 0.3464
H43 H 0.1758 0.6003 0.2880
N9 N 0.1203(5) 0.5365(4) 0.3697(4)
C45 C 0.1371(7) 0.5064(5) 0.4372(5)
H44 H 0.0837 0.4970 0.4697
H45 H 0.1647 0.5405 0.4548
C46 C 0.1918(9) 0.4397(6) 0.4326(6)
C47 C 0.2706(9) 0.4360(6) 0.4493(6)
H46 H 0.2882 0.4730 0.4672
C48 C 0.3225(10) 0.3732(7) 0.4376(7)
H47 H 0.3758 0.3662 0.4492
C49 C 0.2937(9) 0.3232(6) 0.4093(6)
H48 H 0.3290 0.2827 0.3981
C50 C 0.2156(9) 0.3312(6) 0.3974(6)
N10 N 0.1630(6) 0.3888(5) 0.4099(4)
S1 S 0.26699(19) 0.19317(15) 0.27930(17)
O1 O 0.2973(4) 0.1967(3) 0.2072(4)
O2 O 0.3248(5) 0.1681(4) 0.3221(4)
C51 C 0.1851(7) 0.1401(5) 0.3053(5)
C52 C 0.1107(7) 0.1577(5) 0.2808(5)
H49 H 0.1057 0.1998 0.2504
C53 C 0.0455(7) 0.1156(5) 0.2996(5)
H50 H -0.0023 0.1277 0.2801
C54 C 0.0482(7) 0.0553(5) 0.3470(5)
C55 C 0.1220(7) 0.0363(6) 0.3728(5)
H51 H 0.1264 -0.0054 0.4039
C56 C 0.1876(7) 0.0792(5) 0.3522(6)
H52 H 0.2362 0.0668 0.3708
C57 C -0.0242(7) 0.0100(6) 0.3702(5)
H53 H -0.0156 -0.0286 0.3427
H54 H -0.0759 0.0383 0.3648
H55 H -0.0280 -0.0092 0.4184
S2 S 0.55403(19) 0.30929(15) 0.13251(19)
O3 O 0.6254(4) 0.3474(4) 0.1017(4)
O4 O 0.5474(5) 0.2742(4) 0.2009(4)
C58 C 0.5491(7) 0.2501(6) 0.0770(7)
C59 C 0.5991(7) 0.2499(6) 0.0133(6)
H56 H 0.6399 0.2830 -0.0025
C60 C 0.5912(7) 0.2032(5) -0.0273(7)
H57 H 0.6299 0.2028 -0.0697
C61 C 0.5311(7) 0.1564(6) -0.0115(7)
C62 C 0.4799(8) 0.1564(6) 0.0532(7)
H58 H 0.4370 0.1250 0.0663
C63 C 0.4879(7) 0.1998(6) 0.0999(7)
H59 H 0.4544 0.1961 0.1448
C64 C 0.5195(8) 0.1046(6) -0.0577(7)
H60 H 0.4603 0.1062 -0.0593
H61 H 0.5384 0.0572 -0.0396
H62 H 0.5522 0.1173 -0.1039
S3 S -0.01822(19) 0.66262(15) -0.15166(15)
O5 O -0.0781(4) 0.6128(4) -0.1241(3)
O6 O -0.0414(4) 0.7364(3) -0.1586(3)
C65 C 0.0324(7) 0.6413(6) -0.2318(5)
C66 C 0.0844(7) 0.6886(6) -0.2779(5)
H63 H 0.0859 0.7347 -0.2678
C67 C 0.1329(8) 0.6682(6) -0.3376(6)
H64 H 0.1687 0.7000 -0.3677
C68 C 0.1297(8) 0.6012(7) -0.3542(6)
C69 C 0.0756(8) 0.5566(6) -0.3082(6)
H65 H 0.0709 0.5111 -0.3185
C70 C 0.0301(7) 0.5773(6) -0.2496(6)
H66 H -0.0054 0.5452 -0.2194
C71 C 0.1864(9) 0.5786(7) -0.4182(6)
H67 H 0.2411 0.5609 -0.4085
H68 H 0.1930 0.6188 -0.4544
H69 H 0.1618 0.5414 -0.4332
S4 S 0.22784(18) 0.83668(14) -0.26430(14)
O7 O 0.2650(4) 0.7660(3) -0.2697(3)
O8 O 0.1613(4) 0.8624(3) -0.2990(3)
C72 C 0.3075(7) 0.8955(5) -0.2904(5)
C73 C 0.3873(7) 0.8744(6) -0.2802(5)
H70 H 0.3999 0.8284 -0.2589
C74 C 0.4476(8) 0.9209(7) -0.3013(6)
H71 H 0.5034 0.9056 -0.2977
C75 C 0.4288(9) 0.9917(7) -0.3287(7)
C76 C 0.3478(9) 1.0072(7) -0.3368(6)
H72 H 0.3336 1.0535 -0.3565
C77 C 0.2881(8) 0.9637(5) -0.3198(5)
H73 H 0.2337 0.9782 -0.3274
C78 C 0.4983(10) 1.0401(8) -0.3495(8)
H74 H 0.5019 1.0609 -0.3973
H75 H 0.5512 1.0136 -0.3446
H76 H 0.4871 1.0774 -0.3203
S5 S 0.06513(18) 0.90528(14) 0.20315(14)
O9 O -0.0017(4) 0.9596(3) 0.2054(3)
O10 O 0.0566(4) 0.8423(3) 0.2497(3)
C79 C 0.1572(6) 0.9406(5) 0.2079(5)
C80 C 0.2191(7) 0.8970(5) 0.2339(5)
H77 H 0.2104 0.8495 0.2521
C81 C 0.2936(7) 0.9245(5) 0.2325(5)
H78 H 0.3356 0.8952 0.2508
C82 C 0.3090(7) 0.9914(5) 0.2063(6)
C83 C 0.2443(7) 1.0350(5) 0.1805(5)
H79 H 0.2534 1.0825 0.1626
C84 C 0.1702(7) 1.0105(5) 0.1809(5)
H80 H 0.1280 1.0401 0.1631
C85 C 0.3910(8) 1.0196(6) 0.2074(7)
H81 H 0.4005 1.0112 0.2541
H82 H 0.3887 1.0701 0.1914
H83 H 0.4367 0.9956 0.1773
S6 S -0.13426(17) 0.71329(15) 0.16034(15)
O11 O -0.1446(4) 0.7782(3) 0.1149(3)
O12 O -0.1888(4) 0.6603(4) 0.1656(4)
C86 C -0.1441(6) 0.7378(6) 0.2411(6)
C87 C -0.1335(7) 0.8052(6) 0.2522(6)
H84 H -0.1203 0.8400 0.2138
C88 C -0.1412(7) 0.8227(7) 0.3150(6)
H85 H -0.1379 0.8700 0.3210
C89 C -0.1539(8) 0.7715(8) 0.3703(7)
C90 C -0.1645(8) 0.7035(8) 0.3638(7)
H86 H -0.1764 0.6699 0.4034
C91 C -0.1580(7) 0.6839(7) 0.3006(6)
H87 H -0.1624 0.6366 0.2956
C92 C -0.1601(9) 0.7925(8) 0.4427(6)
H88 H -0.1261 0.8320 0.4389
H89 H -0.1398 0.7525 0.4723
H90 H -0.2184 0.8063 0.4624
S7 S 0.3420(2) 0.70654(16) 0.2504(2)
O13 O 0.2814(5) 0.6965(4) 0.3129(5)
O14 O 0.3220(5) 0.7540(4) 0.1934(5)
C93 C 0.4298(8) 0.7332(6) 0.2704(8)
C94 C 0.4864(9) 0.7688(7) 0.2168(8)
H91 H 0.4767 0.7776 0.1716
C95 C 0.5557(10) 0.7903(9) 0.2317(10)
H92 H 0.5939 0.8145 0.1957
C96 C 0.5721(10) 0.7795(9) 0.2919(11)
C97 C 0.5175(10) 0.7455(8) 0.3446(10)
H93 H 0.5302 0.7368 0.3887
C98 C 0.4425(9) 0.7229(7) 0.3352(9)
H94 H 0.4031 0.7016 0.3723
C99 C 0.6477(10) 0.8072(10) 0.3005(10)
H95 H 0.6949 0.7935 0.2650
H96 H 0.6588 0.7881 0.3456
H97 H 0.6398 0.8584 0.2967
S8 S 0.0330(2) 0.58677(16) 0.37255(15)
O15 O -0.0325(5) 0.5467(4) 0.4153(4)
O16 O 0.0279(5) 0.6121(4) 0.3028(3)
C100 C 0.0420(7) 0.6589(6) 0.4145(5)
C101 C 0.0246(7) 0.6538(6) 0.4856(5)
H98 H 0.0084 0.6108 0.5124
C102 C 0.0305(7) 0.7086(6) 0.5162(6)
H99 H 0.0185 0.7037 0.5647
C103 C 0.0533(7) 0.7721(6) 0.4800(6)
C104 C 0.0708(7) 0.7767(6) 0.4100(6)
H100 H 0.0884 0.8197 0.3842
C105 C 0.0645(7) 0.7241(6) 0.3757(6)
H101 H 0.0747 0.7303 0.3272
C106 C 0.0557(8) 0.8341(6) 0.5135(6)
H102 H 0.0011 0.8608 0.5189
H103 H 0.0983 0.8639 0.4854
H104 H 0.0691 0.8189 0.5585
C107 C 0.3103(4) 0.4533(4) -0.2026(4)
H105 H 0.2800 0.4198 -0.1650
Cl1 Cl 0.23895(19) 0.49782(16) -0.24880(16)
Cl2 Cl 0.35526(19) 0.51172(16) -0.16637(16)
Cl3 Cl 0.3874(2) 0.40537(19) -0.2552(2)
C108 C 0.7198(5) -0.0057(4) 0.0691(3)
H106 H 0.7685 0.0228 0.0634
Cl4 Cl 0.6348(2) 0.03126(19) 0.1224(2)
Cl5 Cl 0.7455(2) -0.09065(18) 0.1028(3)
Cl6 Cl 0.6931(3) -0.0028(2) -0.0102(2)
C109 C 0.2619(4) 0.2828(4) -0.0245(4)
H107 H 0.2313 0.2580 -0.0502
Cl7 Cl 0.3631(2) 0.29142(19) -0.07100(19)
Cl8 Cl 0.2107(2) 0.36513(19) -0.0140(2)
Cl9 Cl 0.2630(2) 0.2336(2) 0.05448(18)
C110 C 0.3181(9) 0.8254(4) 0.4722(4)
H108 H 0.3801 0.8184 0.4661
Cl10 Cl 0.2927(4) 0.8776(3) 0.4016(3)
Cl11 Cl 0.2770(5) 0.8666(4) 0.5441(3)
Cl12 Cl 0.2770(5) 0.7445(3) 0.4824(3)
C111 C 0.5871(7) 0.3128(6) 0.3532(6)
H109 H 0.6252 0.2951 0.3126
Cl13 Cl 0.5378(7) 0.3952(5) 0.3310(6)
Cl14 Cl 0.5069(7) 0.2566(5) 0.3896(6)
Cl15 Cl 0.6404(8) 0.3191(7) 0.4164(7)
C112 C 0.4200(8) 0.1276(7) 0.4601(8)
H110 H 0.4193 0.1535 0.4135
Cl16 Cl 0.3819(7) 0.1841(5) 0.5197(6)
Cl17 Cl 0.3585(8) 0.0578(6) 0.4741(7)
Cl18 Cl 0.5221(7) 0.0975(7) 0.4643(8)
C113? C 0.4799(9) 0.5034(8) 0.5515(10)
H111? H 0.4686 0.5296 0.5919
Cl19? Cl 0.4788(11) 0.5614(9) 0.4766(12)
Cl20? Cl 0.4056(7) 0.4435(8) 0.5610(7)
Cl21? Cl 0.5775(7) 0.4568(8) 0.5434(7)
loop_
_geom_bond_atom_site_label_1
_geom_bond_atom_site_label_2
_geom_bond_site_symmetry_1
_geom_bond_site_symmetry_2
C1 H1 1_555 1_555
H2 C1 1_555 1_555
N1 C1 1_555 1_555
C2 N1 1_555 1_555
H3 C2 1_555 1_555
H4 C2 1_555 1_555
C3 C2 1_555 1_555
C4 C3 1_555 1_555
C5 C4 1_555 1_555
H5 C5 1_555 1_555
C6 C5 1_555 1_555
C7 C6 1_555 1_555
C8 C3 1_555 1_555
H6 C8 1_555 1_555
C9 C4 1_555 1_555
H7 C9 1_555 1_555
H8 C9 1_555 1_555
N2 C9 1_555 1_555
C10 N2 1_555 1_555
H9 C10 1_555 1_555
H10 C10 1_555 1_555
C11 C10 1_555 1_555
C12 C11 1_555 1_555
H11 C12 1_555 1_555
C13 C12 1_555 1_555
C14 C13 1_555 1_555
H12 C14 1_555 1_555
C15 C14 1_555 1_555
C16 C11 1_555 1_555
H13 C16 1_555 1_555
C17 C13 1_555 1_555
C18 C17 1_555 1_555
H14 C18 1_555 1_555
C19 C18 1_555 1_555
C20 C19 1_555 1_555
H15 C20 1_555 1_555
C21 C20 1_555 1_555
C22 C17 1_555 1_555
H16 C22 1_555 1_555
C23 C19 1_555 1_555
H17 C23 1_555 1_555
H18 C23 1_555 1_555
N3 C23 1_555 1_555
C24 N3 1_555 1_555
H19 C24 1_555 1_555
H20 C24 1_555 1_555
C25 C24 1_555 1_555
C26 C25 1_555 1_555
C27 C26 1_555 1_555
H21 C27 1_555 1_555
C28 C27 1_555 1_555
C29 C28 1_555 1_555
C30 C25 1_555 1_555
H22 C30 1_555 1_555
C31 C26 1_555 1_555
H23 C31 1_555 1_555
H24 C31 1_555 1_555
N4 C31 1_555 1_555
C32 N4 1_555 1_555
H25 C32 1_555 1_555
H26 C32 1_555 1_555
C33 C32 1_555 1_555
C34 C33 1_555 1_555
H27 C34 1_555 1_555
C35 C34 1_555 1_555
H28 C35 1_555 1_555
C36 C35 1_555 1_555
H29 C36 1_555 1_555
C37 C36 1_555 1_555
N5 C33 1_555 1_555
C38 C37 1_555 1_555
H30 C38 1_555 1_555
H31 C38 1_555 1_555
N6 C38 1_555 1_555
C39 C28 1_555 1_555
H32 C39 1_555 1_555
H33 C39 1_555 1_555
C40 C29 1_555 1_555
H34 C40 1_555 1_555
H35 C40 1_555 1_555
N7 C40 1_555 1_555
C41 C21 1_555 1_555
H36 C41 1_555 1_555
H37 C41 1_555 1_555
C42 C15 1_555 1_555
H38 C42 1_555 1_555
H39 C42 1_555 1_555
N8 C42 1_555 1_555
C43 C6 1_555 1_555
H40 C43 1_555 1_555
H41 C43 1_555 1_555
C44 C7 1_555 1_555
H42 C44 1_555 1_555
H43 C44 1_555 1_555
N9 C44 1_555 1_555
C45 N9 1_555 1_555
H44 C45 1_555 1_555
H45 C45 1_555 1_555
C46 C45 1_555 1_555
C47 C46 1_555 1_555
H46 C47 1_555 1_555
C48 C47 1_555 1_555
H47 C48 1_555 1_555
C49 C48 1_555 1_555
H48 C49 1_555 1_555
C50 C1 1_555 1_555
N10 C46 1_555 1_555
S1 N1 1_555 1_555
O1 S1 1_555 1_555
O2 S1 1_555 1_555
C51 S1 1_555 1_555
C52 C51 1_555 1_555
H49 C52 1_555 1_555
C53 C52 1_555 1_555
H50 C53 1_555 1_555
C54 C53 1_555 1_555
C55 C54 1_555 1_555
H51 C55 1_555 1_555
C56 C51 1_555 1_555
H52 C56 1_555 1_555
C57 C54 1_555 1_555
H53 C57 1_555 1_555
H54 C57 1_555 1_555
H55 C57 1_555 1_555
S2 N2 1_555 1_555
O3 S2 1_555 1_555
O4 S2 1_555 1_555
C58 S2 1_555 1_555
C59 C58 1_555 1_555
H56 C59 1_555 1_555
C60 C59 1_555 1_555
H57 C60 1_555 1_555
C61 C60 1_555 1_555
C62 C61 1_555 1_555
H58 C62 1_555 1_555
C63 C58 1_555 1_555
H59 C63 1_555 1_555
C64 C61 1_555 1_555
H60 C64 1_555 1_555
H61 C64 1_555 1_555
H62 C64 1_555 1_555
S3 N3 1_555 1_555
O5 S3 1_555 1_555
O6 S3 1_555 1_555
C65 S3 1_555 1_555
C66 C65 1_555 1_555
H63 C66 1_555 1_555
C67 C66 1_555 1_555
H64 C67 1_555 1_555
C68 C67 1_555 1_555
C69 C68 1_555 1_555
H65 C69 1_555 1_555
C70 C65 1_555 1_555
H66 C70 1_555 1_555
C71 C68 1_555 1_555
H67 C71 1_555 1_555
H68 C71 1_555 1_555
H69 C71 1_555 1_555
S4 N4 1_555 1_555
O7 S4 1_555 1_555
O8 S4 1_555 1_555
C72 S4 1_555 1_555
C73 C72 1_555 1_555
H70 C73 1_555 1_555
C74 C73 1_555 1_555
H71 C74 1_555 1_555
C75 C74 1_555 1_555
C76 C75 1_555 1_555
H72 C76 1_555 1_555
C77 C72 1_555 1_555
H73 C77 1_555 1_555
C78 C75 1_555 1_555
H74 C78 1_555 1_555
H75 C78 1_555 1_555
H76 C78 1_555 1_555
S5 N6 1_555 1_555
O9 S5 1_555 1_555
O10 S5 1_555 1_555
C79 S5 1_555 1_555
C80 C79 1_555 1_555
H77 C80 1_555 1_555
C81 C80 1_555 1_555
H78 C81 1_555 1_555
C82 C81 1_555 1_555
C83 C82 1_555 1_555
H79 C83 1_555 1_555
C84 C79 1_555 1_555
H80 C84 1_555 1_555
C85 C82 1_555 1_555
H81 C85 1_555 1_555
H82 C85 1_555 1_555
H83 C85 1_555 1_555
S6 N7 1_555 1_555
O11 S6 1_555 1_555
O12 S6 1_555 1_555
C86 S6 1_555 1_555
C87 C86 1_555 1_555
H84 C87 1_555 1_555
C88 C87 1_555 1_555
H85 C88 1_555 1_555
C89 C88 1_555 1_555
C90 C89 1_555 1_555
H86 C90 1_555 1_555
C91 C86 1_555 1_555
H87 C91 1_555 1_555
C92 C89 1_555 1_555
H88 C92 1_555 1_555
H89 C92 1_555 1_555
H90 C92 1_555 1_555
S7 N8 1_555 1_555
O13 S7 1_555 1_555
O14 S7 1_555 1_555
C93 S7 1_555 1_555
C94 C93 1_555 1_555
H91 C94 1_555 1_555
C95 C94 1_555 1_555
H92 C95 1_555 1_555
C96 C95 1_555 1_555
C97 C96 1_555 1_555
H93 C97 1_555 1_555
C98 C93 1_555 1_555
H94 C98 1_555 1_555
C99 C96 1_555 1_555
H95 C99 1_555 1_555
H96 C99 1_555 1_555
H97 C99 1_555 1_555
S8 N9 1_555 1_555
O15 S8 1_555 1_555
O16 S8 1_555 1_555
C100 S8 1_555 1_555
C101 C100 1_555 1_555
H98 C101 1_555 1_555
C102 C101 1_555 1_555
H99 C102 1_555 1_555
C103 C102 1_555 1_555
C104 C103 1_555 1_555
H100 C104 1_555 1_555
C105 C100 1_555 1_555
H101 C105 1_555 1_555
C106 C103 1_555 1_555
H102 C106 1_555 1_555
H103 C106 1_555 1_555
H104 C106 1_555 1_555
C107 H105 1_555 1_555
Cl1 C107 1_555 1_555
Cl2 C107 1_555 1_555
Cl3 C107 1_555 1_555
C108 H106 1_555 1_555
Cl4 C108 1_555 1_555
Cl5 C108 1_555 1_555
Cl6 C108 1_555 1_555
C109 H107 1_555 1_555
Cl7 C109 1_555 1_555
Cl8 C109 1_555 1_555
Cl9 C109 1_555 1_555
C110 H108 1_555 1_555
Cl10 C110 1_555 1_555
Cl11 C110 1_555 1_555
Cl12 C110 1_555 1_555
C111 H109 1_555 1_555
Cl13 C111 1_555 1_555
Cl14 C111 1_555 1_555
Cl15 C111 1_555 1_555
C112 H110 1_555 1_555
Cl16 C112 1_555 1_555
Cl17 C112 1_555 1_555
Cl18 C112 1_555 1_555
C7 C8 1_555 1_555
C15 C16 1_555 1_555
C21 C22 1_555 1_555
C29 C30 1_555 1_555
C37 N5 1_555 1_555
N6 C39 1_555 1_555
N7 C41 1_555 1_555
N8 C43 1_555 1_555
C49 C50 1_555 1_555
C50 N10 1_555 1_555
C55 C56 1_555 1_555
C62 C63 1_555 1_555
C69 C70 1_555 1_555
C76 C77 1_555 1_555
C83 C84 1_555 1_555
C90 C91 1_555 1_555
C97 C98 1_555 1_555
C104 C105 1_555 1_555

#END
