
#######################################################################
#
#                 Cambridge Crystallographic Data Centre
#                                CCDC 
#
#######################################################################
#
# If this CIF has been generated from an entry in the Cambridge 
# Structural Database, then it will include bibliographic, chemical, 
# crystal, experimental, refinement or atomic coordinate data resulting 
# from the CCDC's data processing and validation procedures.
#
#######################################################################

data_UPEBOH
_chemical_formula_moiety         'C15 H14 F1 N3 O5,C3 H7 N1 O1'
_chemical_name_systematic        
'(S)-N-((5-Fluoro-2,4-dioxo-3,4-dihydropyrimidin-1(2H)-yl)acetyl)phenylalanine N,N-dimethylformamide solvate'
_symmetry_cell_setting           orthorhombic
_symmetry_space_group_name_H-M   'P 21 21 21'
_symmetry_Int_Tables_number      19
_space_group_name_Hall           'P 2ac 2ab'
loop_
_symmetry_equiv_pos_site_id
_symmetry_equiv_pos_as_xyz
1 x,y,z
2 1/2-x,-y,1/2+z
3 -x,1/2+y,1/2-z
4 1/2+x,1/2-y,-z
_cell_length_a                   4.8823(5)
_cell_length_b                   15.4644(16)
_cell_length_c                   25.189(2)
_cell_angle_alpha                90
_cell_angle_beta                 90
_cell_angle_gamma                90
_cell_volume                     1901.82
_chemical_melting_point          215-217deg.C
_cell_formula_units_Z            4
loop_
_atom_site_label
_atom_site_type_symbol
_atom_site_fract_x
_atom_site_fract_y
_atom_site_fract_z
F1 F -0.2507(11) 0.4104(3) 0.1854(2)
O1 O 0.2688(12) 0.2079(3) 0.0467(2)
O2 O -0.3839(13) 0.4108(4) 0.0795(2)
O3 O 0.0122(8) 0.1007(3) 0.1568(2)
O4 O 0.4373(12) -0.1917(3) 0.1897(2)
O5 O 0.7201(10) -0.0883(3) 0.2162(2)
N1 N 0.2196(11) 0.2564(3) 0.1309(2)
N2 N -0.0558(13) 0.3096(3) 0.0638(2)
N3 N 0.4228(10) 0.0374(3) 0.1668(2)
C1 C 0.1516(13) 0.2544(4) 0.0779(2)
C2 C -0.2033(15) 0.3652(4) 0.0958(3)
C3 C -0.1172(15) 0.3596(4) 0.1511(2)
C4 C 0.0790(14) 0.3073(4) 0.1666(2)
C5 C 0.4085(13) 0.1904(4) 0.1503(2)
C6 C 0.2612(12) 0.1053(4) 0.1584(2)
C7 C 0.3116(12) -0.0505(4) 0.1689(2)
C8 C 0.5158(13) -0.1102(4) 0.1941(2)
C9 C 0.2120(13) -0.0791(4) 0.1135(2)
C10 C 0.4356(13) -0.0823(4) 0.0721(2)
C11 C 0.5099(17) -0.0085(5) 0.0447(2)
C12 C 0.7160(20) -0.0097(6) 0.0077(3)
C13 C 0.8479(17) -0.0842(7) -0.0036(3)
C14 C 0.7741(18) -0.1595(6) 0.0223(3)
C15 C 0.5679(16) -0.1585(5) 0.0598(3)
O6 O 1.2166(14) 0.1904(3) 0.2743(2)
N4 N 0.9370(14) 0.1168(3) 0.3300(2)
C16 C 1.0280(30) 0.1602(8) 0.3775(4)
C17 C 0.7260(30) 0.0528(6) 0.3375(5)
C18 C 1.0360(20) 0.1364(6) 0.2843(3)
loop_
_geom_bond_atom_site_label_1
_geom_bond_atom_site_label_2
_geom_bond_site_symmetry_1
_geom_bond_site_symmetry_2
F1 C3 1_555 1_555
O1 C1 1_555 1_555
O2 C2 1_555 1_555
O3 C6 1_555 1_555
O4 C8 1_555 1_555
O5 C8 1_555 1_555
N1 C1 1_555 1_555
N2 C1 1_555 1_555
N3 C6 1_555 1_555
C2 N2 1_555 1_555
C3 C2 1_555 1_555
C4 N1 1_555 1_555
C5 N1 1_555 1_555
C6 C5 1_555 1_555
C7 N3 1_555 1_555
C8 C7 1_555 1_555
C9 C7 1_555 1_555
C10 C9 1_555 1_555
C11 C10 1_555 1_555
C12 C11 1_555 1_555
C13 C12 1_555 1_555
C14 C13 1_555 1_555
C15 C10 1_555 1_555
O6 C18 1_555 1_555
N4 C16 1_555 1_555
C17 N4 1_555 1_555
C18 N4 1_555 1_555
C3 C4 1_555 1_555
C14 C15 1_555 1_555

#END
