
#######################################################################
#
#                 Cambridge Crystallographic Data Centre
#                                CCDC 
#
#######################################################################
#
# If this CIF has been generated from an entry in the Cambridge 
# Structural Database, then it will include bibliographic, chemical, 
# crystal, experimental, refinement or atomic coordinate data resulting 
# from the CCDC's data processing and validation procedures.
#
#######################################################################

data_UPECUP
_chemical_formula_moiety         'C10 H8 Se2'
_chemical_name_systematic        2-(2-(selenophen-2-yl)vinyl)selenophene
_symmetry_cell_setting           monoclinic
_symmetry_space_group_name_H-M   'P 21/c'
_symmetry_Int_Tables_number      14
_space_group_name_Hall           '-P 2ybc'
loop_
_symmetry_equiv_pos_site_id
_symmetry_equiv_pos_as_xyz
1 x,y,z
2 -x,1/2+y,1/2-z
3 -x,-y,-z
4 x,1/2-y,1/2+z
_cell_length_a                   5.7908(4)
_cell_length_b                   7.7638(6)
_cell_length_c                   10.5961(8)
_cell_angle_alpha                90
_cell_angle_beta                 90.151(3)
_cell_angle_gamma                90
_cell_volume                     476.384
_exptl_crystal_colour            yellow
_cell_formula_units_Z            2
loop_
_atom_site_label
_atom_site_type_symbol
_atom_site_fract_x
_atom_site_fract_y
_atom_site_fract_z
C1 C 0.4485(11) 0.1325(6) 0.6881(6)
H1 H 0.5749 0.1820 0.6441
C2 C 0.2772(9) 0.0435(7) 0.6271(5)
H2 H 0.2772 0.0272 0.5383
C3 C 0.0885(8) -0.0270(5) 0.7102(4)
H3 H -0.0431 -0.0903 0.6832
C4 C 0.1474(10) 0.0213(6) 0.8422(4)
C5 C -0.0131(9) -0.0254(6) 0.9418(5)
H4 H -0.1421 -0.0958 0.9213
Se1 Se 0.41841(9) 0.15083(4) 0.86486(5)
C1B C -0.4485(11) -0.1325(6) 1.3119(6)
H1B H -0.5749 -0.1820 1.3559
C2B C -0.2772(9) -0.0435(7) 1.3729(5)
H2B H -0.2772 -0.0272 1.4617
C3B C -0.0885(8) 0.0270(5) 1.2898(4)
H3B H 0.0431 0.0903 1.3168
C4B C -0.1474(10) -0.0213(6) 1.1578(4)
C5B C 0.0131(9) 0.0254(6) 1.0582(5)
H4B H 0.1421 0.0958 1.0787
Se1B Se -0.41841(9) -0.15083(4) 1.13514(5)
loop_
_geom_bond_atom_site_label_1
_geom_bond_atom_site_label_2
_geom_bond_site_symmetry_1
_geom_bond_site_symmetry_2
C1 H1 1_555 1_555
C2 C1 1_555 1_555
H2 C2 1_555 1_555
C3 C2 1_555 1_555
H3 C3 1_555 1_555
C4 C3 1_555 1_555
C5 C4 1_555 1_555
H4 C5 1_555 1_555
Se1 C1 1_555 1_555
C1B H1B 1_555 1_555
C2B C1B 1_555 1_555
H2B C2B 1_555 1_555
C3B C2B 1_555 1_555
H3B C3B 1_555 1_555
C4B C3B 1_555 1_555
C5B C5 1_555 1_555
H4B C5B 1_555 1_555
Se1B C1B 1_555 1_555
C4 Se1 1_555 1_555
C4B C5B 1_555 1_555
C4B Se1B 1_555 1_555

#END
