
#######################################################################
#
#                 Cambridge Crystallographic Data Centre
#                                CCDC 
#
#######################################################################
#
# If this CIF has been generated from an entry in the Cambridge 
# Structural Database, then it will include bibliographic, chemical, 
# crystal, experimental, refinement or atomic coordinate data resulting 
# from the CCDC's data processing and validation procedures.
#
#######################################################################

data_UPEDID
_chemical_formula_moiety         'C23 H17 Cl1 F1 N1 O1 S1'
_chemical_name_systematic        
2-chloro-4-(4-fluorophenyl)-2a-phenyl-2,2a,3,4-tetrahydro-1H-azeto[2,1-d][1,5]benzothiazepin-1-one
_symmetry_cell_setting           monoclinic
_symmetry_space_group_name_H-M   'P 21/n'
_symmetry_Int_Tables_number      14
_space_group_name_Hall           '-P 2yn'
loop_
_symmetry_equiv_pos_site_id
_symmetry_equiv_pos_as_xyz
1 x,y,z
2 1/2-x,1/2+y,1/2-z
3 -x,-y,-z
4 1/2+x,1/2-y,1/2+z
_cell_length_a                   13.3710(18)
_cell_length_b                   8.6981(12)
_cell_length_c                   16.601(2)
_cell_angle_alpha                90
_cell_angle_beta                 92.723(2)
_cell_angle_gamma                90
_cell_volume                     1928.55
_chemical_melting_point          '533-536 K'
_cell_formula_units_Z            4
loop_
_atom_site_label
_atom_site_type_symbol
_atom_site_fract_x
_atom_site_fract_y
_atom_site_fract_z
Cl1 Cl 0.3867(1) 1.2337(1) 0.1145(1)
S1 S 0.0772(1) 0.7193(1) 0.0204(1)
F1 F -0.2719(1) 0.8278(2) 0.2645(1)
O1 O 0.3804(1) 1.0468(2) -0.0650(1)
N1 N 0.2843(1) 0.8985(2) 0.0215(1)
C1 C -0.0264(1) 0.7095(2) 0.2109(1)
C2 C -0.1165(1) 0.7113(2) 0.2481(1)
C3 C -0.1828(1) 0.8252(2) 0.2284(1)
C4 C -0.1633(1) 0.9372(2) 0.1739(1)
C5 C -0.0726(1) 0.9344(2) 0.1373(1)
C6 C -0.0029(1) 0.8201(2) 0.1556(1)
C7 C 0.0980(1) 0.8158(2) 0.1181(1)
C8 C 0.1446(1) 0.9746(2) 0.1097(1)
C9 C 0.2565(1) 0.9715(2) 0.0991(1)
C10 C 0.3194(1) 0.9137(2) 0.1712(1)
C11 C 0.2890(2) 0.9346(2) 0.2493(1)
C12 C 0.3508(2) 0.8894(3) 0.3145(1)
C13 C 0.4418(2) 0.8243(3) 0.3038(1)
C14 C 0.4728(2) 0.8023(3) 0.2271(2)
C15 C 0.4120(1) 0.8474(2) 0.1619(1)
C16 C 0.2958(1) 1.12430(2) 0.0611(1)
C17 C 0.3315(1) 1.02520(2) -0.0072(1)
C18 C 0.2830(1) 0.7442(2) -0.006(1)
C19 C 0.3704(1) 0.6847(2) -0.0356(1)
C20 C 0.3717(2) 0.5389(2) -0.0679(1)
C21 C 0.2864(2) 0.4510(2) -0.0711(1)
C22 C 0.1995(2) 0.5075(2) -0.0408(1)
C23 C 0.1957(1) 0.6551(2) -0.0083(1)
loop_
_geom_bond_atom_site_label_1
_geom_bond_atom_site_label_2
_geom_bond_site_symmetry_1
_geom_bond_site_symmetry_2
Cl1 C16 1_555 1_555
S1 C7 1_555 1_555
F1 C3 1_555 1_555
O1 C17 1_555 1_555
N1 C9 1_555 1_555
C1 C2 1_555 1_555
C2 C3 1_555 1_555
C3 C4 1_555 1_555
C4 C5 1_555 1_555
C5 C6 1_555 1_555
C6 C1 1_555 1_555
C7 C6 1_555 1_555
C8 C7 1_555 1_555
C9 C8 1_555 1_555
C10 C9 1_555 1_555
C11 C10 1_555 1_555
C12 C11 1_555 1_555
C13 C12 1_555 1_555
C14 C13 1_555 1_555
C15 C10 1_555 1_555
C16 C9 1_555 1_555
C17 N1 1_555 1_555
C18 N1 1_555 1_555
C19 C18 1_555 1_555
C20 C19 1_555 1_555
C21 C20 1_555 1_555
C22 C21 1_555 1_555
C23 S1 1_555 1_555
C14 C15 1_555 1_555
C16 C17 1_555 1_555
C18 C23 1_555 1_555
C22 C23 1_555 1_555

#END
