
#######################################################################
#
#                 Cambridge Crystallographic Data Centre
#                                CCDC 
#
#######################################################################
#
# If this CIF has been generated from an entry in the Cambridge 
# Structural Database, then it will include bibliographic, chemical, 
# crystal, experimental, refinement or atomic coordinate data resulting 
# from the CCDC's data processing and validation procedures.
#
#######################################################################

data_UPEDEZ
_chemical_formula_moiety         'C23 H27 N1 O3'
_chemical_name_systematic        
3-(2,3-Dimethylhexanoyl)-4,5-diphenyl-1,3-oxazolidin-2-one
_symmetry_cell_setting           monoclinic
_symmetry_space_group_name_H-M   'P 21'
_symmetry_Int_Tables_number      4
_space_group_name_Hall           'P 2yb'
loop_
_symmetry_equiv_pos_site_id
_symmetry_equiv_pos_as_xyz
1 x,y,z
2 -x,1/2+y,-z
_cell_length_a                   13.318(3)
_cell_length_b                   6.4847(15)
_cell_length_c                   24.705(6)
_cell_angle_alpha                90
_cell_angle_beta                 93.925(6)
_cell_angle_gamma                90
_cell_volume                     2128.6
_cell_formula_units_Z            4
_exptl_crystal_recrystallization_method hexane
loop_
_atom_site_label
_atom_site_type_symbol
_atom_site_fract_x
_atom_site_fract_y
_atom_site_fract_z
O1 O 0.5865(3) 0.3853(6) 0.0038(1)
N1 N 0.5757(3) 0.5929(7) 0.0741(2)
O2 O 0.5957(3) 0.8472(6) 0.1352(2)
C1 C 0.7636(4) 0.3758(10) -0.0100(2)
O3 O 0.4389(3) 0.3971(7) 0.0412(2)
C2 C 0.5234(5) 0.4533(9) 0.0403(2)
C3 C 0.6821(4) 0.6022(9) 0.0639(2)
C4 C 0.4290(4) 0.7104(8) 0.1244(2)
C5 C 0.5367(4) 0.7270(9) 0.1129(2)
C6 C 0.4124(4) 0.5273(9) 0.1621(2)
C7 C 0.8328(4) 0.4577(10) -0.0429(2)
C8 C 0.7475(5) 0.4930(10) 0.1062(2)
C9 C 0.7747(4) 0.1760(10) 0.0067(2)
C10 C 0.3001(4) 0.4635(11) 0.1592(3)
C11 C 0.8548(5) 0.0617(11) -0.0077(3)
C12 C 0.4557(5) 0.5634(1) 0.2199(2)
C13 C 0.8410(3) 0.5710(12) 0.1216(3)
C14 C 0.6779(4) 0.5073(9) 0.0062(2)
C15 C 0.7183(5) 0.3139(11) 0.1300(3)
C16 C 0.9138(5) 0.3402(15) -0.0581(3)
C17 C 0.9243(5) 0.1423(15) -0.0392(3)
C18 C 0.8759(8) 0.2907(19) 0.1817(4)
C19 C 0.9046(7) 0.4670(20) 0.1585(4)
C20 C 0.7825(7) 0.2128(14) 0.1672(3)
C21 C 0.4661(6) 0.3634(14) 0.2532(3)
C22 C 0.5018(6) 0.3973(17) 0.3092(3)
C46 C 0.3920(4) 0.9185(9) 0.1452(2)
H1 H 0.7030 0.7468 0.0621
H2 H 0.3908 0.6821 0.0899
H3 H 0.4494 0.4106 0.1480
H4 H 0.8254 0.5928 -0.0551
H5 H 0.7274 0.1172 0.0280
H6 H 0.2921 0.3454 0.1819
H7 H 0.2782 0.4300 0.1224
H8 H 0.2605 0.5756 0.1715
H9 H 0.8617 -0.0738 0.0043
H10 H 0.4125 0.6583 0.2378
H11 H 0.5214 0.6274 0.2189
H12 H 0.8615 0.6948 0.1069
H13 H 0.6685 0.6198 -0.0201
H14 H 0.6550 0.2599 0.1209
H15 H 0.9600 0.3953 -0.0807
H16 H 0.9792 0.0633 -0.0480
H17 H 0.9189 0.2229 0.2071
H18 H 0.9685 0.5196 0.1676
H19 H 0.7621 0.0903 0.1826
H20 H 0.4012 0.2953 0.2523
H21 H 0.5126 0.2720 0.2364
H22 H 0.5694 0.4489 0.3107
H23 H 0.5003 0.2694 0.3288
H24 H 0.4591 0.4959 0.3254
H52 H 0.4269 0.9497 0.1795
H53 H 0.3210 0.9111 0.1495
H54 H 0.4051 1.0247 0.1195
N2 N 0.9763(4) 1.0857(7) 0.4179(2)
O4 O 1.0856(3) 0.8824(7) 0.4727(2)
O5 O 0.9192(3) 0.8688(7) 0.4782(1)
O6 O 0.9973(3) 1.3556(7) 0.3645(2)
C23 C 1.0032(6) 0.9419(10) 0.4573(2)
C24 C 0.8674(4) 1.0906(9) 0.4061(2)
C25 C 0.8336(4) 0.9752(10) 0.3552(2)
C26 C 0.7380(5) 0.8721(11) 0.4548(2)
C27 C 1.0400(5) 1.2260(10) 0.3924(2)
C28 C 1.1509(4) 1.2018(9) 0.3996(2)
C29 C 0.8814(4) 0.8009(11) 0.3393(2)
C30 C 0.8345(5) 0.9930(9) 0.4601(2)
C31 C 0.6465(7) 0.5654(13) 0.4315(3)
C32 C 0.8436(5) 0.6870(12) 0.2953(3)
C33 C 1.1844(5) 1.0234(10) 0.3635(3)
C34 C 0.7471(5) 1.0351(11) 0.3261(3)
C35 C 1.2931(5) 0.9632(12) 0.3778(3)
C36 C 0.6493(6) 0.9653(12) 0.4641(2)
C37 C 0.7372(6) 0.6682(11) 0.4400(2)
C38 C 0.7569(6) 0.7514(15) 0.2675(3)
C39 C 1.2027(5) 1.4077(11) 0.3891(2)
C40 C 0.5591(7) 0.6628(18) 0.4390(3)
C41 C 0.7100(5) 0.9199(15) 0.2820(3)
C42 C 1.1616(6) 1.0646(12) 0.3033(3)
C43 C 0.5595(7) 0.8616(18) 0.4555(3)
C44 C 1.1597(8) 0.8654(19) 0.2683(3)
C45 C 1.1146(7) 0.9080(20) 0.2162(4)
H25 H 0.8443 1.2339 0.4033
H26 H 1.1679 1.1636 0.4375
H27 H 0.9405 0.7586 0.3584
H28 H 0.8272 1.1039 0.4865
H29 H 0.6458 0.4283 0.4205
H30 H 0.8764 0.5685 0.2848
H31 H 1.1436 0.9038 0.3723
H32 H 0.7134 1.1533 0.3360
H33 H 1.3096 0.8439 0.3572
H34 H 1.3019 0.9321 0.4158
H35 H 1.3365 1.0753 0.3695
H36 H 0.6494 1.1008 0.4765
H37 H 0.7974 0.5993 0.4358
H38 H 0.7307 0.6754 0.2379
H39 H 1.1879 1.4479 0.3520
H40 H 1.2741 1.3927 0.3960
H41 H 1.1785 1.5114 0.4126
H42 H 0.4984 0.5931 0.4328
H43 H 0.6513 0.9615 0.2624
H44 H 1.2121 1.1578 0.2908
H45 H 1.0968 1.1327 0.2982
H46 H 0.4992 0.9281 0.4611
H47 H 1.2279 0.8159 0.2652
H48 H 1.1220 0.7586 0.2854
H49 H 1.1398 1.0366 0.2034
H50 H 1.0429 0.9172 0.2180
H51 H 1.1302 0.7996 0.1917
loop_
_geom_bond_atom_site_label_1
_geom_bond_atom_site_label_2
_geom_bond_site_symmetry_1
_geom_bond_site_symmetry_2
O1 C2 1_555 1_555
N1 C2 1_555 1_555
O2 C5 1_555 1_555
C1 C7 1_555 1_555
O3 C2 1_555 1_555
C3 N1 1_555 1_555
C4 C5 1_555 1_555
C5 N1 1_555 1_555
C6 C4 1_555 1_555
C7 C16 1_555 1_555
C8 C3 1_555 1_555
C9 C1 1_555 1_555
C10 C6 1_555 1_555
C11 C9 1_555 1_555
C12 C6 1_555 1_555
C13 C8 1_555 1_555
C14 O1 1_555 1_555
C15 C8 1_555 1_555
C16 C17 1_555 1_555
C17 C11 1_555 1_555
C18 C19 1_555 1_555
C19 C13 1_555 1_555
C20 C15 1_555 1_555
C21 C12 1_555 1_555
C22 C21 1_555 1_555
N2 C23 1_555 1_555
O4 C23 1_555 1_555
O5 C23 1_555 1_555
O6 C27 1_555 1_555
C24 N2 1_555 1_555
C25 C24 1_555 1_555
C26 C30 1_555 1_555
C27 N2 1_555 1_555
C28 C27 1_555 1_555
C29 C25 1_555 1_555
C30 O5 1_555 1_555
C31 C37 1_555 1_555
C32 C29 1_555 1_555
C33 C28 1_555 1_555
C34 C25 1_555 1_555
C35 C33 1_555 1_555
C36 C26 1_555 1_555
C37 C26 1_555 1_555
C38 C32 1_555 1_555
C39 C28 1_555 1_555
C40 C31 1_555 1_555
C41 C34 1_555 1_555
C42 C33 1_555 1_555
C43 C36 1_555 1_555
C44 C42 1_555 1_555
C45 C44 1_555 1_555
C46 C4 1_555 1_555
H1 C3 1_555 1_555
H2 C4 1_555 1_555
H3 C6 1_555 1_555
H4 C7 1_555 1_555
H5 C9 1_555 1_555
H6 C10 1_555 1_555
H7 C10 1_555 1_555
H8 C10 1_555 1_555
H9 C11 1_555 1_555
H10 C12 1_555 1_555
H11 C12 1_555 1_555
H12 C13 1_555 1_555
H13 C14 1_555 1_555
H14 C15 1_555 1_555
H15 C16 1_555 1_555
H16 C17 1_555 1_555
H17 C18 1_555 1_555
H18 C19 1_555 1_555
H19 C20 1_555 1_555
H20 C21 1_555 1_555
H21 C21 1_555 1_555
H22 C22 1_555 1_555
H23 C22 1_555 1_555
H24 C22 1_555 1_555
H25 C24 1_555 1_555
H26 C28 1_555 1_555
H27 C29 1_555 1_555
H28 C30 1_555 1_555
H29 C31 1_555 1_555
H30 C32 1_555 1_555
H31 C33 1_555 1_555
H32 C34 1_555 1_555
H33 C35 1_555 1_555
H34 C35 1_555 1_555
H35 C35 1_555 1_555
H36 C36 1_555 1_555
H37 C37 1_555 1_555
H38 C38 1_555 1_555
H39 C39 1_555 1_555
H40 C39 1_555 1_555
H41 C39 1_555 1_555
H42 C40 1_555 1_555
H43 C41 1_555 1_555
H44 C42 1_555 1_555
H45 C42 1_555 1_555
H46 C43 1_555 1_555
H47 C44 1_555 1_555
H48 C44 1_555 1_555
H49 C45 1_555 1_555
H50 C45 1_555 1_555
H51 C45 1_555 1_555
H52 C46 1_555 1_555
H53 C46 1_555 1_555
H54 C46 1_555 1_555
C1 C14 1_555 1_555
C3 C14 1_555 1_555
C18 C20 1_555 1_555
C24 C30 1_555 1_555
C38 C41 1_555 1_555
C40 C43 1_555 1_555

#END
