
#######################################################################
#
#                 Cambridge Crystallographic Data Centre
#                                CCDC 
#
#######################################################################
#
# If this CIF has been generated from an entry in the Cambridge 
# Structural Database, then it will include bibliographic, chemical, 
# crystal, experimental, refinement or atomic coordinate data resulting 
# from the CCDC's data processing and validation procedures.
#
#######################################################################

data_UPENIO
_chemical_name_common            
'4,9,14,19,26,28,30,32,34-octamethoxy-24,26-bis((3-(((5-chloro-2-hydroxyphenyl)methylidene)amino)propyl)oxy)pillar[5]arene unknown solvate'
_chemical_formula_moiety         'C63 H66 Cl2 N2 O12'
_chemical_name_systematic        
'4-chloro-2-(((3-((34-(3-((5-chloro-2-hydroxybenzylidene)amino)propoxy)-9,14,19,24,26,28,30,32-octamethoxyhexacyclo[21.2.2.2^3,6^.2^8,11^.2^13,16^.2^18,21^]pentatriaconta-1(25),3,5,8,10,13,15,18,20,23,26,28,30,32,34-pentadecaen-4-yl)oxy)propyl)imino)methyl)phenol unknown solvate'
_symmetry_cell_setting           monoclinic
_symmetry_space_group_name_H-M   'C 2/c'
_symmetry_Int_Tables_number      15
_space_group_name_Hall           '-C 2yn'
loop_
_symmetry_equiv_pos_site_id
_symmetry_equiv_pos_as_xyz
1 x,y,z
2 -x,y,1/2-z
3 1/2+x,1/2+y,z
4 1/2-x,1/2+y,1/2-z
5 -x,-y,-z
6 x,-y,1/2+z
7 1/2-x,1/2-y,-z
8 1/2+x,1/2-y,1/2+z
_cell_length_a                   17.566(2)
_cell_length_b                   17.2691(19)
_cell_length_c                   20.337(3)
_cell_angle_alpha                90
_cell_angle_beta                 105.644(4)
_cell_angle_gamma                90
_cell_volume                     5940.68
_exptl_crystal_colour            yellow
_exptl_crystal_description       block
_cell_formula_units_Z            4
loop_
_atom_site_label
_atom_site_type_symbol
_atom_site_fract_x
_atom_site_fract_y
_atom_site_fract_z
C1 C 0.5000 0.4610(2) 0.2500
H1 H 0.5442 0.4940 0.2722
C2 C 0.47732(19) 0.41096(16) 0.30310(16)
C3 C 0.5327(2) 0.38914(17) 0.36275(17)
C4 C 0.5114(2) 0.34144(18) 0.40960(18)
H2 H 0.5490 0.3291 0.4500
C5 C 0.4362(2) 0.31168(17) 0.39820(16)
C6 C 0.3811(2) 0.33202(17) 0.33789(17)
C7 C 0.4014(2) 0.38160(17) 0.29147(17)
H3 H 0.3632 0.3954 0.2518
C8 C 0.6715(2) 0.3717(3) 0.4032(2)
H4 H 0.6765 0.3682 0.4513
H5 H 0.7192 0.3930 0.3961
H6 H 0.6628 0.3209 0.3833
C9 C 0.2574(2) 0.2980(2) 0.2610(2)
H7 H 0.2466 0.3494 0.2428
H8 H 0.2087 0.2728 0.2609
H9 H 0.2838 0.2690 0.2333
C10 C 0.4137(2) 0.25728(18) 0.44748(17)
H10 H 0.3598 0.2680 0.4486
H11 H 0.4480 0.2662 0.4929
C11 C 0.4201(2) 0.17271(17) 0.42802(16)
C12 C 0.4923(2) 0.13514(18) 0.44684(15)
C13 C 0.4987(2) 0.05846(18) 0.42981(15)
H12 H 0.5474 0.0337 0.4441
C14 C 0.4334(2) 0.01785(18) 0.39168(16)
C15 C 0.3617(2) 0.05605(18) 0.37065(19)
C16 C 0.3565(2) 0.13322(19) 0.39059(19)
H13 H 0.3077 0.1581 0.3777
C17 C 0.6310(2) 0.1495(2) 0.4915(2)
H14 H 0.6382 0.1052 0.5209
H15 H 0.6693 0.1884 0.5115
H16 H 0.6378 0.1346 0.4479
C18 C 0.2429(3) 0.0551(3) 0.2813(4)
H17 H 0.2102 0.0847 0.3030
H18 H 0.2106 0.0192 0.2497
H19 H 0.2690 0.0893 0.2572
C19 C 0.4419(2) -0.06550(18) 0.37136(17)
H20 H 0.4779 -0.0924 0.4090
H21 H 0.3909 -0.0910 0.3621
C20 C 0.4726(2) -0.07090(16) 0.30881(17)
C21 C 0.4204(2) -0.07137(16) 0.24410(18)
H22 H 0.3663 -0.0716 0.2398
C22 C 0.5531(2) -0.07147(17) 0.31464(17)
C23 C 0.6841(2) -0.0667(2) 0.38861(19)
H23 H 0.6962 -0.0214 0.3652
H24 H 0.7034 -0.1122 0.3702
C24 C 0.7228(2) -0.0604(2) 0.46488(19)
H25 H 0.6996 -0.0173 0.4831
H26 H 0.7121 -0.1072 0.4872
C25 C 0.8109(3) -0.0488(2) 0.4810(2)
H27 H 0.8327 -0.0455 0.5301
H28 H 0.8345 -0.0931 0.4649
C26 C 0.8943(2) 0.02382(19) 0.43097(18)
H29 H 0.9256 -0.0203 0.4353
C27 C 0.9195(2) 0.09401(19) 0.40297(18)
C28 C 0.9925(3) 0.0957(2) 0.38743(19)
H30 H 1.0245 0.0519 0.3940
C29 C 1.0164(3) 0.1623(2) 0.3625(2)
C30 C 0.9697(3) 0.2282(2) 0.3530(2)
H31 H 0.9871 0.2731 0.3363
C31 C 0.8999(3) 0.2279(2) 0.3676(2)
H32 H 0.8690 0.2725 0.3608
C32 C 0.8728(3) 0.1609(2) 0.3931(2)
Cl1 Cl 1.10802(11) 0.16529(9) 0.34513(10)
N1 N 0.8309(2) 0.02106(17) 0.44965(16)
O1 O 0.60792(14) 0.41937(14) 0.37260(14)
O2 O 0.30645(14) 0.30211(14) 0.32858(12)
O3 O 0.55537(16) 0.17908(13) 0.48279(12)
O4 O 0.29839(17) 0.01501(15) 0.32999(18)
O5 O 0.60226(15) -0.07245(14) 0.37974(12)
O6 O 0.8036(2) 0.16320(15) 0.40834(19)
H33 H 0.7916 0.1194 0.4176
H1A H 0.4558 0.4940 0.2278
C2A C 0.52268(19) 0.41096(16) 0.19690(16)
C3A C 0.4673(2) 0.38914(17) 0.13725(17)
C4A C 0.4886(2) 0.34144(18) 0.09040(18)
H2A H 0.4510 0.3291 0.0500
C5A C 0.5638(2) 0.31168(17) 0.10180(16)
C6A C 0.6189(2) 0.33202(17) 0.16211(17)
C7A C 0.5986(2) 0.38160(17) 0.20853(17)
H3A H 0.6368 0.3954 0.2482
C8A C 0.3285(2) 0.3717(3) 0.0968(2)
H4A H 0.3235 0.3682 0.0487
H5A H 0.2808 0.3930 0.1039
H6A H 0.3372 0.3209 0.1167
C9A C 0.7426(2) 0.2980(2) 0.2390(2)
H7A H 0.7534 0.3494 0.2572
H8A H 0.7913 0.2728 0.2391
H9A H 0.7162 0.2690 0.2667
C10A C 0.5863(2) 0.25728(18) 0.05252(17)
H10A H 0.6402 0.2680 0.0514
H11A H 0.5520 0.2662 0.0071
C11A C 0.5799(2) 0.17271(17) 0.07198(16)
C12A C 0.5077(2) 0.13514(18) 0.05316(15)
C13A C 0.5013(2) 0.05846(18) 0.07019(15)
H12A H 0.4526 0.0337 0.0559
C14A C 0.5666(2) 0.01785(18) 0.10832(16)
C15A C 0.6383(2) 0.05605(18) 0.12935(19)
C16A C 0.6435(2) 0.13322(19) 0.10941(19)
H13A H 0.6923 0.1581 0.1223
C17A C 0.3690(2) 0.1495(2) 0.0085(2)
H14A H 0.3618 0.1052 -0.0209
H15A H 0.3307 0.1884 -0.0115
H16A H 0.3622 0.1346 0.0521
C18A C 0.7571(3) 0.0551(3) 0.2187(4)
H17A H 0.7898 0.0847 0.1970
H18A H 0.7894 0.0192 0.2503
H19A H 0.7310 0.0893 0.2428
C19A C 0.5581(2) -0.06550(18) 0.12864(17)
H20A H 0.5221 -0.0924 0.0910
H21A H 0.6091 -0.0910 0.1379
C20A C 0.5274(2) -0.07090(16) 0.19119(17)
C21A C 0.5796(2) -0.07137(16) 0.25590(18)
H22A H 0.6337 -0.0716 0.2602
C22A C 0.4469(2) -0.07147(17) 0.18536(17)
C23A C 0.3159(2) -0.0667(2) 0.11139(19)
H23A H 0.3038 -0.0214 0.1348
H24A H 0.2966 -0.1122 0.1298
C24A C 0.2772(2) -0.0604(2) 0.03512(19)
H25A H 0.3004 -0.0173 0.0169
H26A H 0.2879 -0.1072 0.0128
C25A C 0.1891(3) -0.0488(2) 0.0190(2)
H27A H 0.1673 -0.0455 -0.0301
H28A H 0.1655 -0.0931 0.0351
C26A C 0.1057(2) 0.02382(19) 0.06903(18)
H29A H 0.0744 -0.0203 0.0647
C27A C 0.0805(2) 0.09401(19) 0.09703(18)
C28A C 0.0075(3) 0.0957(2) 0.11257(19)
H30A H -0.0245 0.0519 0.1060
C29A C -0.0164(3) 0.1623(2) 0.1375(2)
C30A C 0.0303(3) 0.2282(2) 0.1470(2)
H31A H 0.0129 0.2731 0.1637
C31A C 0.1001(3) 0.2279(2) 0.1324(2)
H32A H 0.1310 0.2725 0.1392
C32A C 0.1272(3) 0.1609(2) 0.1069(2)
Cl1A Cl -0.10802(11) 0.16529(9) 0.15487(10)
N1A N 0.1691(2) 0.02106(17) 0.05035(16)
O1A O 0.39208(14) 0.41937(14) 0.12740(14)
O2A O 0.69355(14) 0.30211(14) 0.17142(12)
O3A O 0.44463(16) 0.17908(13) 0.01721(12)
O4A O 0.70161(17) 0.01501(15) 0.17001(18)
O5A O 0.39774(15) -0.07245(14) 0.12026(12)
O6A O 0.1964(2) 0.16320(15) 0.09166(19)
H33A H 0.2084 0.1194 0.0824
H34? H 0.5442 0.4940 0.2722
loop_
_geom_bond_atom_site_label_1
_geom_bond_atom_site_label_2
_geom_bond_site_symmetry_1
_geom_bond_site_symmetry_2
C1 H1 1_555 1_555
C2 C1 1_555 1_555
C3 C2 1_555 1_555
C4 C3 1_555 1_555
H2 C4 1_555 1_555
C5 C4 1_555 1_555
C6 C5 1_555 1_555
C7 C2 1_555 1_555
H3 C7 1_555 1_555
C8 H4 1_555 1_555
H5 C8 1_555 1_555
H6 C8 1_555 1_555
C9 H7 1_555 1_555
H8 C9 1_555 1_555
H9 C9 1_555 1_555
C10 C5 1_555 1_555
H10 C10 1_555 1_555
H11 C10 1_555 1_555
C11 C10 1_555 1_555
C12 C11 1_555 1_555
C13 C12 1_555 1_555
H12 C13 1_555 1_555
C14 C13 1_555 1_555
C15 C14 1_555 1_555
C16 C11 1_555 1_555
H13 C16 1_555 1_555
C17 H14 1_555 1_555
H15 C17 1_555 1_555
H16 C17 1_555 1_555
C18 H17 1_555 1_555
H18 C18 1_555 1_555
H19 C18 1_555 1_555
C19 C14 1_555 1_555
H20 C19 1_555 1_555
H21 C19 1_555 1_555
C20 C19 1_555 1_555
C21 C20 1_555 1_555
H22 C21 1_555 1_555
C22 C20 1_555 1_555
C23 H23 1_555 1_555
H24 C23 1_555 1_555
C24 C23 1_555 1_555
H25 C24 1_555 1_555
H26 C24 1_555 1_555
C25 C24 1_555 1_555
H27 C25 1_555 1_555
H28 C25 1_555 1_555
C26 H29 1_555 1_555
C27 C26 1_555 1_555
C28 C27 1_555 1_555
H30 C28 1_555 1_555
C29 C28 1_555 1_555
C30 C29 1_555 1_555
H31 C30 1_555 1_555
C31 C30 1_555 1_555
H32 C31 1_555 1_555
C32 C27 1_555 1_555
Cl1 C29 1_555 1_555
N1 C25 1_555 1_555
O1 C3 1_555 1_555
O2 C6 1_555 1_555
O3 C12 1_555 1_555
O4 C15 1_555 1_555
O5 C22 1_555 1_555
O6 C32 1_555 1_555
H33 O6 1_555 1_555
H1A C1 1_555 1_555
C2A C1 1_555 1_555
C3A C2A 1_555 1_555
C4A C3A 1_555 1_555
H2A C4A 1_555 1_555
C5A C4A 1_555 1_555
C6A C5A 1_555 1_555
C7A C2A 1_555 1_555
H3A C7A 1_555 1_555
C8A H4A 1_555 1_555
H5A C8A 1_555 1_555
H6A C8A 1_555 1_555
C9A H7A 1_555 1_555
H8A C9A 1_555 1_555
H9A C9A 1_555 1_555
C10A C5A 1_555 1_555
H10A C10A 1_555 1_555
H11A C10A 1_555 1_555
C11A C10A 1_555 1_555
C12A C11A 1_555 1_555
C13A C12A 1_555 1_555
H12A C13A 1_555 1_555
C14A C13A 1_555 1_555
C15A C14A 1_555 1_555
C16A C11A 1_555 1_555
H13A C16A 1_555 1_555
C17A H14A 1_555 1_555
H15A C17A 1_555 1_555
H16A C17A 1_555 1_555
C18A H17A 1_555 1_555
H18A C18A 1_555 1_555
H19A C18A 1_555 1_555
C19A C14A 1_555 1_555
H20A C19A 1_555 1_555
H21A C19A 1_555 1_555
C20A C19A 1_555 1_555
C21A C22 1_555 1_555
H22A C21A 1_555 1_555
C22A C21 1_555 1_555
C23A H23A 1_555 1_555
H24A C23A 1_555 1_555
C24A C23A 1_555 1_555
H25A C24A 1_555 1_555
H26A C24A 1_555 1_555
C25A C24A 1_555 1_555
H27A C25A 1_555 1_555
H28A C25A 1_555 1_555
C26A H29A 1_555 1_555
C27A C26A 1_555 1_555
C28A C27A 1_555 1_555
H30A C28A 1_555 1_555
C29A C28A 1_555 1_555
C30A C29A 1_555 1_555
H31A C30A 1_555 1_555
C31A C30A 1_555 1_555
H32A C31A 1_555 1_555
C32A C27A 1_555 1_555
Cl1A C29A 1_555 1_555
N1A C25A 1_555 1_555
O1A C3A 1_555 1_555
O2A C6A 1_555 1_555
O3A C12A 1_555 1_555
O4A C15A 1_555 1_555
O5A C22A 1_555 1_555
O6A C32A 1_555 1_555
H33A O6A 1_555 1_555
C6 C7 1_555 1_555
C8 O1 1_555 1_555
C9 O2 1_555 1_555
C15 C16 1_555 1_555
C17 O3 1_555 1_555
C18 O4 1_555 1_555
C23 O5 1_555 1_555
C26 N1 1_555 1_555
C31 C32 1_555 1_555
C6A C7A 1_555 1_555
C8A O1A 1_555 1_555
C9A O2A 1_555 1_555
C15A C16A 1_555 1_555
C17A O3A 1_555 1_555
C18A O4A 1_555 1_555
C20A C21A 1_555 1_555
C20A C22A 1_555 1_555
C23A O5A 1_555 1_555
C26A N1A 1_555 1_555
C31A C32A 1_555 1_555

#END
