
#######################################################################
#
#                 Cambridge Crystallographic Data Centre
#                                CCDC 
#
#######################################################################
#
# If this CIF has been generated from an entry in the Cambridge 
# Structural Database, then it will include bibliographic, chemical, 
# crystal, experimental, refinement or atomic coordinate data resulting 
# from the CCDC's data processing and validation procedures.
#
#######################################################################

data_UPENAG
_chemical_name_common            
'4,9,14,19,26,28,30,32,34-octamethoxy-24,26-bis((6-(1,3-dioxo-1,3-dihydro-2H-isoindol-2-yl)hexyl)oxy)pillar[5]arene dichloromethane solvate'
_chemical_formula_moiety         'C71 H76 N2 O14,2(C1 H2 Cl2)'
_chemical_name_systematic        
'2-(6-((34-((6-(1,3-dioxo-1,3-dihydro-2H-isoindol-2-yl)hexyl)oxy)-9,14,19,24,26,28,30,32-octamethoxyhexacyclo[21.2.2.2^3,6^.2^8,11^.2^13,16^.2^18,21^]pentatriaconta-1(25),3,5,8,10,13,15,18,20,23,26,28,30,32,34-pentadecaen-4-yl)oxy)hexyl)-1H-isoindole-1,3(2H)-dione dichloromethane solvate'
_symmetry_cell_setting           monoclinic
_symmetry_space_group_name_H-M   'C 2/c'
_symmetry_Int_Tables_number      15
_space_group_name_Hall           '-C 2yn'
loop_
_symmetry_equiv_pos_site_id
_symmetry_equiv_pos_as_xyz
1 x,y,z
2 -x,y,1/2-z
3 1/2+x,1/2+y,z
4 1/2-x,1/2+y,1/2-z
5 -x,-y,-z
6 x,-y,1/2+z
7 1/2-x,1/2-y,-z
8 1/2+x,1/2-y,1/2+z
_cell_length_a                   12.8714(14)
_cell_length_b                   20.3276(19)
_cell_length_c                   26.232(3)
_cell_angle_alpha                90
_cell_angle_beta                 98.295(4)
_cell_angle_gamma                90
_cell_volume                     6791.66
_exptl_crystal_colour            yellow
_exptl_crystal_description       block
_cell_formula_units_Z            4
loop_
_atom_site_label
_atom_site_type_symbol
_atom_site_fract_x
_atom_site_fract_y
_atom_site_fract_z
C1 C 1.0000 -0.1952(2) 0.7500
H1 H 0.9482 -0.2232 0.7301
C2 C 1.0529(3) -0.15293(17) 0.71397(13)
C3 C 0.9967(3) -0.12956(18) 0.66754(13)
C4 C 0.8289(3) -0.1181(2) 0.61653(16)
H2 H 0.8322 -0.0717 0.6233
H3 H 0.7579 -0.1331 0.6155
H4 H 0.8520 -0.1268 0.5840
C5 C 1.0444(3) -0.08795(18) 0.63628(14)
H5 H 1.0067 -0.0735 0.6054
C6 C 1.1475(3) -0.06728(18) 0.65012(14)
C7 C 1.2015(3) -0.08881(18) 0.69652(14)
C8 C 1.1543(3) -0.13174(18) 0.72768(14)
H6 H 1.1923 -0.1463 0.7584
C9 C 1.3484(4) -0.0683(2) 0.76155(18)
H7 H 1.2956 -0.0591 0.7829
H8 H 1.4033 -0.0360 0.7678
H9 H 1.3772 -0.1112 0.7695
C10 C 1.1993(3) -0.02209(19) 0.61524(14)
H10 H 1.1708 -0.0312 0.5797
H11 H 1.2740 -0.0313 0.6196
C11 C 1.1830(3) 0.05040(19) 0.62643(13)
C12 C 1.1051(3) 0.08699(19) 0.59699(13)
C13 C 0.9825(5) 0.0926(3) 0.51952(19)
H12 H 0.9288 0.1144 0.5351
H13 H 0.9506 0.0647 0.4922
H14 H 1.0255 0.1249 0.5059
C14 C 1.0888(3) 0.15267(18) 0.60908(13)
H15 H 1.0368 0.1767 0.5889
C15 C 1.1492(3) 0.18288(17) 0.65107(13)
C16 C 1.2270(3) 0.14594(19) 0.67992(13)
C17 C 1.3569(4) 0.1408(2) 0.75429(17)
H16 H 1.3194 0.1046 0.7665
H17 H 1.3866 0.1675 0.7829
H18 H 1.4120 0.1243 0.7368
C18 C 1.2436(3) 0.08094(18) 0.66734(14)
H19 H 1.2970 0.0573 0.6869
C19 C 1.1286(3) 0.25260(17) 0.66644(13)
H20 H 1.0933 0.2761 0.6367
H21 H 1.1951 0.2744 0.6775
C20 C 1.0615(3) 0.25572(17) 0.70975(14)
C21 C 1.1076(3) 0.25636(18) 0.76073(14)
H22 H 1.1804 0.2572 0.7684
C22 C 0.9523(3) 0.25577(17) 0.69938(13)
C23 C 0.7987(3) 0.2616(2) 0.63599(14)
H23 H 0.7772 0.3040 0.6477
H24 H 0.7640 0.2274 0.6531
C24 C 0.7699(3) 0.25588(19) 0.57830(13)
H25 H 0.7848 0.2116 0.5677
H26 H 0.8127 0.2860 0.5617
C25 C 0.6544(3) 0.2712(2) 0.56082(14)
H27 H 0.6395 0.2659 0.5237
H28 H 0.6414 0.3169 0.5686
C26 C 0.5793(3) 0.2279(2) 0.58585(14)
H29 H 0.5988 0.1822 0.5825
H30 H 0.5865 0.2381 0.6223
C27 C 0.4652(3) 0.2371(2) 0.56208(17)
H31 H 0.4461 0.2829 0.5652
H32 H 0.4582 0.2266 0.5257
C28 C 0.3895(4) 0.1947(3) 0.58687(18)
H33 H 0.4021 0.2009 0.6239
H34 H 0.3181 0.2084 0.5746
C29 C 0.4598(3) 0.0800(2) 0.60765(16)
C30 C 0.4470(4) 0.0152(2) 0.58035(16)
C31 C 0.4865(4) -0.0452(3) 0.5952(2)
H35 H 0.5304 -0.0508 0.6263
C32 C 0.4593(5) -0.0981(3) 0.5625(2)
H36 H 0.4857 -0.1397 0.5716
C33 C 0.3930(5) -0.0895(3) 0.5164(2)
H37 H 0.3755 -0.1254 0.4950
C34 C 0.3526(5) -0.0280(3) 0.50194(19)
H38 H 0.3073 -0.0219 0.4713
C35 C 0.3824(4) 0.0240(3) 0.53501(16)
C36 C 0.3500(4) 0.0947(3) 0.53097(16)
N1 N 0.4011(3) 0.1253(2) 0.57518(13)
O1 O 0.8940(2) -0.15139(14) 0.65568(10)
O2 O 1.3032(2) -0.06600(16) 0.70933(11)
O3 O 1.0455(3) 0.05412(14) 0.55705(11)
O4 O 1.2868(2) 0.17935(14) 0.71966(11)
O5 O 0.9099(2) 0.25451(14) 0.64750(9)
O6 O 0.5093(3) 0.09211(19) 0.64877(12)
O7 O 0.2932(3) 0.1228(2) 0.49782(13)
H1A H 1.0518 -0.2232 0.7699
C2A C 0.9471(3) -0.15293(17) 0.78603(13)
C3A C 1.0033(3) -0.12956(18) 0.83246(13)
C4A C 1.1711(3) -0.1181(2) 0.88347(16)
H2A H 1.1678 -0.0717 0.8767
H3A H 1.2421 -0.1331 0.8845
H4A H 1.1480 -0.1268 0.9160
C5A C 0.9556(3) -0.08795(18) 0.86372(14)
H5A H 0.9933 -0.0735 0.8946
C6A C 0.8525(3) -0.06728(18) 0.84988(14)
C7A C 0.7985(3) -0.08881(18) 0.80348(14)
C8A C 0.8457(3) -0.13174(18) 0.77232(14)
H6A H 0.8077 -0.1463 0.7416
C9A C 0.6516(4) -0.0683(2) 0.73845(18)
H7A H 0.7044 -0.0591 0.7171
H8A H 0.5967 -0.0360 0.7322
H9A H 0.6228 -0.1112 0.7305
C10A C 0.8007(3) -0.02209(19) 0.88476(14)
H10A H 0.8292 -0.0312 0.9203
H11A H 0.7260 -0.0313 0.8804
C11A C 0.8170(3) 0.05040(19) 0.87357(13)
C12A C 0.8949(3) 0.08699(19) 0.90301(13)
C13A C 1.0175(5) 0.0926(3) 0.98048(19)
H12A H 1.0712 0.1144 0.9649
H13A H 1.0494 0.0647 1.0078
H14A H 0.9745 0.1249 0.9941
C14A C 0.9112(3) 0.15267(18) 0.89092(13)
H15A H 0.9632 0.1767 0.9111
C15A C 0.8508(3) 0.18288(17) 0.84893(13)
C16A C 0.7730(3) 0.14594(19) 0.82008(13)
C17A C 0.6431(4) 0.1408(2) 0.74571(17)
H16A H 0.6806 0.1046 0.7335
H17A H 0.6134 0.1675 0.7171
H18A H 0.5880 0.1243 0.7632
C18A C 0.7564(3) 0.08094(18) 0.83266(14)
H19A H 0.7030 0.0573 0.8131
C19A C 0.8714(3) 0.25260(17) 0.83356(13)
H20A H 0.9067 0.2761 0.8633
H21A H 0.8049 0.2744 0.8225
C20A C 0.9385(3) 0.25572(17) 0.79025(14)
C21A C 0.8924(3) 0.25636(18) 0.73927(14)
H22A H 0.8196 0.2572 0.7316
C22A C 1.0477(3) 0.25577(17) 0.80062(13)
C23A C 1.2013(3) 0.2616(2) 0.86401(14)
H23A H 1.2228 0.3040 0.8523
H24A H 1.2360 0.2274 0.8469
C24A C 1.2301(3) 0.25588(19) 0.92170(13)
H25A H 1.2152 0.2116 0.9323
H26A H 1.1873 0.2860 0.9383
C25A C 1.3456(3) 0.2712(2) 0.93918(14)
H27A H 1.3605 0.2659 0.9763
H28A H 1.3586 0.3169 0.9314
C26A C 1.4207(3) 0.2279(2) 0.91415(14)
H29A H 1.4012 0.1822 0.9175
H30A H 1.4135 0.2381 0.8777
C27A C 1.5348(3) 0.2371(2) 0.93792(17)
H31A H 1.5539 0.2829 0.9348
H32A H 1.5418 0.2266 0.9743
C28A C 1.6105(4) 0.1947(3) 0.91313(18)
H33A H 1.5979 0.2009 0.8761
H34A H 1.6819 0.2084 0.9254
C29A C 1.5402(3) 0.0800(2) 0.89235(16)
C30A C 1.5530(4) 0.0152(2) 0.91965(16)
C31A C 1.5135(4) -0.0452(3) 0.9048(2)
H35A H 1.4696 -0.0508 0.8737
C32A C 1.5407(5) -0.0981(3) 0.9375(2)
H36A H 1.5143 -0.1397 0.9284
C33A C 1.6070(5) -0.0895(3) 0.9836(2)
H37A H 1.6245 -0.1254 1.0050
C34A C 1.6474(5) -0.0280(3) 0.99806(19)
H38A H 1.6927 -0.0219 1.0287
C35A C 1.6176(4) 0.0240(3) 0.96499(16)
C36A C 1.6500(4) 0.0947(3) 0.96903(16)
N1A N 1.5989(3) 0.1253(2) 0.92482(13)
O1A O 1.1060(2) -0.15139(14) 0.84432(10)
O2A O 0.6968(2) -0.06600(16) 0.79067(11)
O3A O 0.9545(3) 0.05412(14) 0.94295(11)
O4A O 0.7132(2) 0.17935(14) 0.78034(11)
O5A O 1.0901(2) 0.25451(14) 0.85250(9)
O6A O 1.4907(3) 0.09211(19) 0.85123(12)
O7A O 1.7068(3) 0.1228(2) 1.00218(13)
C37 C 0.9049(8) 0.0733(4) 0.6823(3)
H40 H 0.9720 0.0618 0.6720
H41 H 0.9127 0.1167 0.6977
Cl1 Cl 0.8844(3) 0.0238(3) 0.72571(13)
Cl2 Cl 0.8160(3) 0.07950(14) 0.62757(12)
H39? H 0.9482 -0.2232 0.7301
loop_
_geom_bond_atom_site_label_1
_geom_bond_atom_site_label_2
_geom_bond_site_symmetry_1
_geom_bond_site_symmetry_2
C1 H1 1_555 1_555
C2 C1 1_555 1_555
C3 C2 1_555 1_555
C4 H2 1_555 1_555
H3 C4 1_555 1_555
H4 C4 1_555 1_555
C5 C3 1_555 1_555
H5 C5 1_555 1_555
C6 C5 1_555 1_555
C7 C6 1_555 1_555
C8 C2 1_555 1_555
H6 C8 1_555 1_555
C9 H7 1_555 1_555
H8 C9 1_555 1_555
H9 C9 1_555 1_555
C10 C6 1_555 1_555
H10 C10 1_555 1_555
H11 C10 1_555 1_555
C11 C10 1_555 1_555
C12 C11 1_555 1_555
C13 H12 1_555 1_555
H13 C13 1_555 1_555
H14 C13 1_555 1_555
C14 C12 1_555 1_555
H15 C14 1_555 1_555
C15 C14 1_555 1_555
C16 C15 1_555 1_555
C17 H16 1_555 1_555
H17 C17 1_555 1_555
H18 C17 1_555 1_555
C18 C11 1_555 1_555
H19 C18 1_555 1_555
C19 C15 1_555 1_555
H20 C19 1_555 1_555
H21 C19 1_555 1_555
C20 C19 1_555 1_555
C21 C20 1_555 1_555
H22 C21 1_555 1_555
C22 C20 1_555 1_555
C23 H23 1_555 1_555
H24 C23 1_555 1_555
C24 C23 1_555 1_555
H25 C24 1_555 1_555
H26 C24 1_555 1_555
C25 C24 1_555 1_555
H27 C25 1_555 1_555
H28 C25 1_555 1_555
C26 C25 1_555 1_555
H29 C26 1_555 1_555
H30 C26 1_555 1_555
C27 C26 1_555 1_555
H31 C27 1_555 1_555
H32 C27 1_555 1_555
C28 C27 1_555 1_555
H33 C28 1_555 1_555
H34 C28 1_555 1_555
C29 C30 1_555 1_555
C30 C31 1_555 1_555
C31 H35 1_555 1_555
C32 C31 1_555 1_555
H36 C32 1_555 1_555
C33 C32 1_555 1_555
H37 C33 1_555 1_555
C34 C33 1_555 1_555
H38 C34 1_555 1_555
C35 C30 1_555 1_555
C36 C35 1_555 1_555
N1 C28 1_555 1_555
O1 C3 1_555 1_555
O2 C7 1_555 1_555
O3 C12 1_555 1_555
O4 C16 1_555 1_555
O5 C22 1_555 1_555
O6 C29 1_555 1_555
O7 C36 1_555 1_555
C37 H40 1_555 1_555
H41 C37 1_555 1_555
Cl1 C37 1_555 1_555
Cl2 C37 1_555 1_555
H1A C1 1_555 1_555
C2A C1 1_555 1_555
C3A C2A 1_555 1_555
C4A H2A 1_555 1_555
H3A C4A 1_555 1_555
H4A C4A 1_555 1_555
C5A C3A 1_555 1_555
H5A C5A 1_555 1_555
C6A C5A 1_555 1_555
C7A C6A 1_555 1_555
C8A C2A 1_555 1_555
H6A C8A 1_555 1_555
C9A H7A 1_555 1_555
H8A C9A 1_555 1_555
H9A C9A 1_555 1_555
C10A C6A 1_555 1_555
H10A C10A 1_555 1_555
H11A C10A 1_555 1_555
C11A C10A 1_555 1_555
C12A C11A 1_555 1_555
C13A H12A 1_555 1_555
H13A C13A 1_555 1_555
H14A C13A 1_555 1_555
C14A C12A 1_555 1_555
H15A C14A 1_555 1_555
C15A C14A 1_555 1_555
C16A C15A 1_555 1_555
C17A H16A 1_555 1_555
H17A C17A 1_555 1_555
H18A C17A 1_555 1_555
C18A C11A 1_555 1_555
H19A C18A 1_555 1_555
C19A C15A 1_555 1_555
H20A C19A 1_555 1_555
H21A C19A 1_555 1_555
C20A C19A 1_555 1_555
C21A C22 1_555 1_555
H22A C21A 1_555 1_555
C22A C21 1_555 1_555
C23A H23A 1_555 1_555
H24A C23A 1_555 1_555
C24A C23A 1_555 1_555
H25A C24A 1_555 1_555
H26A C24A 1_555 1_555
C25A C24A 1_555 1_555
H27A C25A 1_555 1_555
H28A C25A 1_555 1_555
C26A C25A 1_555 1_555
H29A C26A 1_555 1_555
H30A C26A 1_555 1_555
C27A C26A 1_555 1_555
H31A C27A 1_555 1_555
H32A C27A 1_555 1_555
C28A C27A 1_555 1_555
H33A C28A 1_555 1_555
H34A C28A 1_555 1_555
C29A C30A 1_555 1_555
C30A C31A 1_555 1_555
C31A H35A 1_555 1_555
C32A C31A 1_555 1_555
H36A C32A 1_555 1_555
C33A C32A 1_555 1_555
H37A C33A 1_555 1_555
C34A C33A 1_555 1_555
H38A C34A 1_555 1_555
C35A C30A 1_555 1_555
C36A C35A 1_555 1_555
N1A C28A 1_555 1_555
O1A C3A 1_555 1_555
O2A C7A 1_555 1_555
O3A C12A 1_555 1_555
O4A C16A 1_555 1_555
O5A C22A 1_555 1_555
O6A C29A 1_555 1_555
O7A C36A 1_555 1_555
C4 O1 1_555 1_555
C7 C8 1_555 1_555
C9 O2 1_555 1_555
C13 O3 1_555 1_555
C16 C18 1_555 1_555
C17 O4 1_555 1_555
C23 O5 1_555 1_555
C29 N1 1_555 1_555
C34 C35 1_555 1_555
C36 N1 1_555 1_555
C4A O1A 1_555 1_555
C7A C8A 1_555 1_555
C9A O2A 1_555 1_555
C13A O3A 1_555 1_555
C16A C18A 1_555 1_555
C17A O4A 1_555 1_555
C20A C21A 1_555 1_555
C20A C22A 1_555 1_555
C23A O5A 1_555 1_555
C29A N1A 1_555 1_555
C34A C35A 1_555 1_555
C36A N1A 1_555 1_555

#END
