
#######################################################################
#
#                 Cambridge Crystallographic Data Centre
#                                CCDC 
#
#######################################################################
#
# If this CIF has been generated from an entry in the Cambridge 
# Structural Database, then it will include bibliographic, chemical, 
# crystal, experimental, refinement or atomic coordinate data resulting 
# from the CCDC's data processing and validation procedures.
#
#######################################################################

data_UPENEK
_chemical_name_common            
'4,9,14,19,26,28,30,32,34-octamethoxy-24,26-bis((3-(((2-hydroxyphenyl)methylidene)amino)propyl)oxy)pillar[5]arene unknown solvate'
_chemical_formula_moiety         'C63 H68 N2 O12'
_chemical_name_systematic        
'2-(((3-((34-(3-((2-hydroxybenzylidene)amino)propoxy)-9,14,19,24,26,28,30,32-octamethoxyhexacyclo[21.2.2.2^3,6^.2^8,11^.2^13,16^.2^18,21^]pentatriaconta-1(25),3,5,8,10,13,15,18,20,23,26,28,30,32,34-pentadecaen-4-yl)oxy)propyl)imino)methyl)phenol unknown solvate'
_symmetry_cell_setting           monoclinic
_symmetry_space_group_name_H-M   'C 2/c'
_symmetry_Int_Tables_number      15
_space_group_name_Hall           '-C 2yn'
loop_
_symmetry_equiv_pos_site_id
_symmetry_equiv_pos_as_xyz
1 x,y,z
2 -x,y,1/2-z
3 1/2+x,1/2+y,z
4 1/2-x,1/2+y,1/2-z
5 -x,-y,-z
6 x,-y,1/2+z
7 1/2-x,1/2-y,-z
8 1/2+x,1/2-y,1/2+z
_cell_length_a                   15.046(3)
_cell_length_b                   18.362(3)
_cell_length_c                   21.881(4)
_cell_angle_alpha                90
_cell_angle_beta                 105.197(5)
_cell_angle_gamma                90
_cell_volume                     5833.77
_exptl_crystal_colour            yellow
_exptl_crystal_description       block
_cell_formula_units_Z            4
loop_
_atom_site_label
_atom_site_type_symbol
_atom_site_fract_x
_atom_site_fract_y
_atom_site_fract_z
C1 C 0.9207(3) 0.8820(3) 0.4255(2)
C2 C 0.9504(4) 0.8144(3) 0.4112(3)
H1 H 0.9315 0.7721 0.4276
C3 C 1.0089(4) 0.8110(3) 0.3717(3)
H2 H 1.0283 0.7658 0.3610
C4 C 1.0387(4) 0.8733(4) 0.3482(3)
H3 H 1.0778 0.8700 0.3217
C5 C 1.0107(4) 0.9394(3) 0.3639(2)
H4 H 1.0316 0.9812 0.3480
C6 C 0.9514(3) 0.9464(3) 0.4031(2)
C7 C 0.9245(3) 1.0174(3) 0.4213(2)
H5 H 0.9485 1.0588 0.4070
C8 C 0.8472(4) 1.0990(3) 0.4730(3)
H6 H 0.8758 1.1341 0.4509
H7 H 0.8721 1.1064 0.5181
C9 C 0.7453(3) 1.1113(3) 0.4557(2)
H8 H 0.7323 1.1583 0.4717
H9 H 0.7162 1.0741 0.4752
C10 C 0.7057(3) 1.1090(3) 0.3845(2)
H10 H 0.7324 1.1473 0.3644
H11 H 0.7189 1.0625 0.3678
C11 C 0.5565(3) 1.1182(2) 0.31101(19)
C12 C 0.4611(3) 1.1177(2) 0.30197(19)
C13 C 0.4061(3) 1.1185(2) 0.24055(19)
H12 H 0.3424 1.1192 0.2336
C14 C 0.4194(3) 1.1130(2) 0.35791(19)
H13 H 0.4594 1.1377 0.3940
H14 H 0.3603 1.1375 0.3475
C15 C 0.4069(3) 1.0358(2) 0.37504(17)
C16 C 0.3249(3) 0.9995(2) 0.35049(19)
C17 C 0.3135(3) 0.9286(3) 0.3688(2)
H15 H 0.2564 0.9063 0.3537
C18 C 0.3839(3) 0.8899(2) 0.40871(19)
C19 C 0.4683(3) 0.9248(3) 0.43141(18)
C20 C 0.4780(3) 0.9977(2) 0.41534(18)
H16 H 0.5339 1.0211 0.4322
C21 C 0.6292(4) 0.9133(4) 0.4797(3)
H17 H 0.6394 0.9283 0.4401
H18 H 0.6730 0.8763 0.4984
H19 H 0.6364 0.9544 0.5078
C22 C 0.1982(4) 0.9973(3) 0.2592(3)
H20 H 0.1648 1.0297 0.2269
H21 H 0.1555 0.9697 0.2758
H22 H 0.2346 0.9646 0.2415
C23 C 0.3716(3) 0.8106(2) 0.4244(2)
H23 H 0.4065 0.8007 0.4676
H24 H 0.3071 0.8013 0.4214
C24 C 0.4039(4) 0.7609(2) 0.3794(2)
C25 C 0.4917(5) 0.7341(3) 0.3951(3)
H25 H 0.5316 0.7457 0.4341
C26 C 0.5227(8) 0.6886(4) 0.3520(5)
C27 C 0.4625(11) 0.6708(4) 0.2933(6)
C28 C 0.3775(8) 0.6973(4) 0.2805(4)
H26 H 0.3369 0.6847 0.2421
C29 C 0.3444(6) 0.7438(3) 0.3216(3)
C30 C 0.6788(7) 0.7018(7) 0.4097(6)
H27 H 0.6609 0.7518 0.4111
H28 H 0.7361 0.6992 0.3982
H29 H 0.6859 0.6799 0.4505
C31 C 0.2111(6) 0.7820(4) 0.2421(3)
H30 H 0.2490 0.8093 0.2212
H31 H 0.1543 0.8075 0.2385
H32 H 0.1984 0.7349 0.2226
C32 C 0.5000 0.6239(5) 0.2500
H33 H 0.5485 0.5929 0.2747
N1 N 0.8690(3) 1.0251(2) 0.45622(19)
O1 O 0.8617(3) 0.8855(2) 0.4630(2)
H34 H 0.8499 0.9282 0.4685
O2 O 0.6083(2) 1.11928(17) 0.37254(13)
O3 O 0.5383(2) 0.88495(19) 0.46925(15)
O4 O 0.2565(2) 1.03810(18) 0.30858(16)
O5 O 0.6097(8) 0.6638(4) 0.3640(4)
O6 O 0.2586(3) 0.7732(3) 0.30789(18)
H33A H 0.4515 0.5929 0.2253
C1A C 0.0793(3) 0.8820(3) 0.0745(2)
C2A C 0.0496(4) 0.8144(3) 0.0888(3)
H1A H 0.0685 0.7721 0.0724
C3A C -0.0089(4) 0.8110(3) 0.1283(3)
H2A H -0.0283 0.7658 0.1390
C4A C -0.0387(4) 0.8733(4) 0.1518(3)
H3A H -0.0778 0.8700 0.1783
C5A C -0.0107(4) 0.9394(3) 0.1361(2)
H4A H -0.0316 0.9812 0.1520
C6A C 0.0486(3) 0.9464(3) 0.0969(2)
C7A C 0.0755(3) 1.0174(3) 0.0787(2)
H5A H 0.0515 1.0588 0.0930
C8A C 0.1528(4) 1.0990(3) 0.0270(3)
H6A H 0.1242 1.1341 0.0491
H7A H 0.1279 1.1064 -0.0181
C9A C 0.2547(3) 1.1113(3) 0.0443(2)
H8A H 0.2677 1.1583 0.0283
H9A H 0.2838 1.0741 0.0248
C10A C 0.2943(3) 1.1090(3) 0.1155(2)
H10A H 0.2676 1.1473 0.1356
H11A H 0.2811 1.0625 0.1322
C11A C 0.4435(3) 1.1182(2) 0.18899(19)
C12A C 0.5389(3) 1.1177(2) 0.19803(19)
C13A C 0.5939(3) 1.1185(2) 0.25945(19)
H12A H 0.6576 1.1192 0.2664
C14A C 0.5806(3) 1.1130(2) 0.14209(19)
H13A H 0.5406 1.1377 0.1060
H14A H 0.6397 1.1375 0.1525
C15A C 0.5931(3) 1.0358(2) 0.12496(17)
C16A C 0.6751(3) 0.9995(2) 0.14951(19)
C17A C 0.6865(3) 0.9286(3) 0.1312(2)
H15A H 0.7436 0.9063 0.1463
C18A C 0.6161(3) 0.8899(2) 0.09129(19)
C19A C 0.5317(3) 0.9248(3) 0.06859(18)
C20A C 0.5220(3) 0.9977(2) 0.08466(18)
H16A H 0.4661 1.0211 0.0678
C21A C 0.3708(4) 0.9133(4) 0.0203(3)
H17A H 0.3606 0.9283 0.0599
H18A H 0.3270 0.8763 0.0016
H19A H 0.3636 0.9544 -0.0078
C22A C 0.8018(4) 0.9973(3) 0.2408(3)
H20A H 0.8352 1.0297 0.2731
H21A H 0.8445 0.9697 0.2242
H22A H 0.7654 0.9646 0.2585
C23A C 0.6284(3) 0.8106(2) 0.0756(2)
H23A H 0.5935 0.8007 0.0324
H24A H 0.6929 0.8013 0.0786
C24A C 0.5961(4) 0.7609(2) 0.1206(2)
C25A C 0.5083(5) 0.7341(3) 0.1049(3)
H25A H 0.4684 0.7457 0.0659
C26A C 0.4773(8) 0.6886(4) 0.1480(5)
C27A C 0.5375(11) 0.6708(4) 0.2067(6)
C28A C 0.6225(8) 0.6973(4) 0.2195(4)
H26A H 0.6631 0.6847 0.2579
C29A C 0.6556(6) 0.7438(3) 0.1784(3)
C30A C 0.3212(7) 0.7018(7) 0.0903(6)
H27A H 0.3391 0.7518 0.0889
H28A H 0.2639 0.6992 0.1018
H29A H 0.3141 0.6799 0.0495
C31A C 0.7889(6) 0.7820(4) 0.2579(3)
H30A H 0.7510 0.8093 0.2788
H31A H 0.8457 0.8075 0.2615
H32A H 0.8016 0.7349 0.2774
N1A N 0.1310(3) 1.0251(2) 0.04378(19)
O1A O 0.1383(3) 0.8855(2) 0.0370(2)
H34A H 0.1501 0.9282 0.0315
O2A O 0.3917(2) 1.11928(17) 0.12746(13)
O3A O 0.4617(2) 0.88495(19) 0.03075(15)
O4A O 0.7435(2) 1.03810(18) 0.19142(16)
O5A O 0.3903(8) 0.6638(4) 0.1360(4)
O6A O 0.7414(3) 0.7732(3) 0.19211(18)
H35? H 0.5485 0.5929 0.2747
loop_
_geom_bond_atom_site_label_1
_geom_bond_atom_site_label_2
_geom_bond_site_symmetry_1
_geom_bond_site_symmetry_2
C1 C2 1_555 1_555
C2 H1 1_555 1_555
C3 C2 1_555 1_555
H2 C3 1_555 1_555
C4 C3 1_555 1_555
H3 C4 1_555 1_555
C5 C4 1_555 1_555
H4 C5 1_555 1_555
C6 C1 1_555 1_555
C7 C6 1_555 1_555
H5 C7 1_555 1_555
C8 H6 1_555 1_555
H7 C8 1_555 1_555
C9 C8 1_555 1_555
H8 C9 1_555 1_555
H9 C9 1_555 1_555
C10 C9 1_555 1_555
H10 C10 1_555 1_555
H11 C10 1_555 1_555
C11 C12 1_555 1_555
C12 C13 1_555 1_555
C13 H12 1_555 1_555
C14 C12 1_555 1_555
H13 C14 1_555 1_555
H14 C14 1_555 1_555
C15 C14 1_555 1_555
C16 C15 1_555 1_555
C17 C16 1_555 1_555
H15 C17 1_555 1_555
C18 C17 1_555 1_555
C19 C18 1_555 1_555
C20 C15 1_555 1_555
H16 C20 1_555 1_555
C21 H17 1_555 1_555
H18 C21 1_555 1_555
H19 C21 1_555 1_555
C22 H20 1_555 1_555
H21 C22 1_555 1_555
H22 C22 1_555 1_555
C23 C18 1_555 1_555
H23 C23 1_555 1_555
H24 C23 1_555 1_555
C24 C23 1_555 1_555
C25 C24 1_555 1_555
H25 C25 1_555 1_555
C26 C25 1_555 1_555
C27 C26 1_555 1_555
C28 C27 1_555 1_555
H26 C28 1_555 1_555
C29 C24 1_555 1_555
C30 H27 1_555 1_555
H28 C30 1_555 1_555
H29 C30 1_555 1_555
C31 H30 1_555 1_555
H31 C31 1_555 1_555
H32 C31 1_555 1_555
C32 C27 1_555 1_555
H33 C32 1_555 1_555
N1 C7 1_555 1_555
O1 C1 1_555 1_555
H34 O1 1_555 1_555
O2 C10 1_555 1_555
O3 C19 1_555 1_555
O4 C16 1_555 1_555
O5 C26 1_555 1_555
O6 C29 1_555 1_555
H33A C32 1_555 1_555
C1A C2A 1_555 1_555
C2A H1A 1_555 1_555
C3A C2A 1_555 1_555
H2A C3A 1_555 1_555
C4A C3A 1_555 1_555
H3A C4A 1_555 1_555
C5A C4A 1_555 1_555
H4A C5A 1_555 1_555
C6A C1A 1_555 1_555
C7A C6A 1_555 1_555
H5A C7A 1_555 1_555
C8A H6A 1_555 1_555
H7A C8A 1_555 1_555
C9A C8A 1_555 1_555
H8A C9A 1_555 1_555
H9A C9A 1_555 1_555
C10A C9A 1_555 1_555
H10A C10A 1_555 1_555
H11A C10A 1_555 1_555
C11A C13 1_555 1_555
C12A C11A 1_555 1_555
C13A C11 1_555 1_555
H12A C13A 1_555 1_555
C14A C12A 1_555 1_555
H13A C14A 1_555 1_555
H14A C14A 1_555 1_555
C15A C14A 1_555 1_555
C16A C15A 1_555 1_555
C17A C16A 1_555 1_555
H15A C17A 1_555 1_555
C18A C17A 1_555 1_555
C19A C18A 1_555 1_555
C20A C15A 1_555 1_555
H16A C20A 1_555 1_555
C21A H17A 1_555 1_555
H18A C21A 1_555 1_555
H19A C21A 1_555 1_555
C22A H20A 1_555 1_555
H21A C22A 1_555 1_555
H22A C22A 1_555 1_555
C23A C18A 1_555 1_555
H23A C23A 1_555 1_555
H24A C23A 1_555 1_555
C24A C23A 1_555 1_555
C25A C24A 1_555 1_555
H25A C25A 1_555 1_555
C26A C25A 1_555 1_555
C27A C32 1_555 1_555
C28A C27A 1_555 1_555
H26A C28A 1_555 1_555
C29A C24A 1_555 1_555
C30A H27A 1_555 1_555
H28A C30A 1_555 1_555
H29A C30A 1_555 1_555
C31A H30A 1_555 1_555
H31A C31A 1_555 1_555
H32A C31A 1_555 1_555
N1A C7A 1_555 1_555
O1A C1A 1_555 1_555
H34A O1A 1_555 1_555
O2A C10A 1_555 1_555
O3A C19A 1_555 1_555
O4A C16A 1_555 1_555
O5A C26A 1_555 1_555
O6A C29A 1_555 1_555
C5 C6 1_555 1_555
C8 N1 1_555 1_555
C11 O2 1_555 1_555
C19 C20 1_555 1_555
C21 O3 1_555 1_555
C22 O4 1_555 1_555
C28 C29 1_555 1_555
C30 O5 1_555 1_555
C31 O6 1_555 1_555
C5A C6A 1_555 1_555
C8A N1A 1_555 1_555
C11A O2A 1_555 1_555
C12A C13A 1_555 1_555
C19A C20A 1_555 1_555
C21A O3A 1_555 1_555
C22A O4A 1_555 1_555
C26A C27A 1_555 1_555
C28A C29A 1_555 1_555
C30A O5A 1_555 1_555
C31A O6A 1_555 1_555

#END
