
#######################################################################
#
#                 Cambridge Crystallographic Data Centre
#                                CCDC 
#
#######################################################################
#
# If this CIF has been generated from an entry in the Cambridge 
# Structural Database, then it will include bibliographic, chemical, 
# crystal, experimental, refinement or atomic coordinate data resulting 
# from the CCDC's data processing and validation procedures.
#
#######################################################################

data_UPESIT
_chemical_formula_moiety         'C26 H36 N2 O4'
_chemical_name_systematic        N,N'-(decane-1,10-diyl)bis(2-phenylacetamide)
_symmetry_cell_setting           monoclinic
_symmetry_space_group_name_H-M   'P 21/c'
_symmetry_Int_Tables_number      14
_space_group_name_Hall           '-P 2ybc'
loop_
_symmetry_equiv_pos_site_id
_symmetry_equiv_pos_as_xyz
1 x,y,z
2 -x,1/2+y,1/2-z
3 -x,-y,-z
4 x,1/2-y,1/2+z
_cell_length_a                   24.1378(15)
_cell_length_b                   5.0455(3)
_cell_length_c                   10.1115(6)
_cell_angle_alpha                90
_cell_angle_beta                 94.855(5)
_cell_angle_gamma                90
_cell_volume                     1227.03
_exptl_crystal_colour            colorless
_exptl_crystal_description       blocks
_cell_formula_units_Z            2
loop_
_atom_site_label
_atom_site_type_symbol
_atom_site_fract_x
_atom_site_fract_y
_atom_site_fract_z
C1 C 0.48676(5) 0.1275(2) 0.97213(11)
H1 H 0.4729 0.2305 1.0458
H2 H 0.5156 0.2352 0.9334
C2 C 0.43912(5) 0.0816(2) 0.86695(12)
H3 H 0.4109 -0.0316 0.9049
H4 H 0.4533 -0.0163 0.7920
C3 C 0.41106(5) 0.3348(2) 0.81382(11)
H5 H 0.3966 0.4328 0.8884
H6 H 0.4391 0.4484 0.7756
C4 C 0.36361(5) 0.2835(2) 0.70858(12)
H7 H 0.3771 0.1693 0.6385
H8 H 0.3337 0.1865 0.7493
C5 C 0.33989(6) 0.5355(2) 0.64605(12)
H9 H 0.3249 0.6477 0.7150
H10 H 0.3698 0.6358 0.6070
N1 N 0.29596(5) 0.47557(19) 0.54347(10)
H11 H 0.2867 0.3093 0.5271
C6 C 0.26929(5) 0.6683(2) 0.47350(11)
O1 O 0.27967(4) 0.90201(18) 0.48448(10)
O2 O 0.22879(4) 0.56767(16) 0.38847(9)
C7 C 0.19629(6) 0.7588(3) 0.30787(14)
H12 H 0.2197 0.8472 0.2453
H13 H 0.1810 0.8957 0.3648
C8 C 0.15004(6) 0.6090(3) 0.23323(12)
C9 C 0.16114(7) 0.4159(3) 0.14261(14)
H14 H 0.1985 0.3747 0.1279
C10 C 0.11813(9) 0.2825(4) 0.07331(15)
H15 H 0.1261 0.1504 0.0107
C11 C 0.06422(9) 0.3387(4) 0.09402(19)
H16 H 0.0348 0.2461 0.0458
C12 C 0.05284(7) 0.5253(4) 0.1827(2)
H17 H 0.0153 0.5638 0.1969
C13 C 0.09549(7) 0.6622(4) 0.25375(16)
H18 H 0.0870 0.7928 0.3166
C1B C 0.51324(5) -0.1275(2) 1.02787(11)
H1B H 0.5271 -0.2305 0.9542
H2B H 0.4844 -0.2352 1.0666
C2B C 0.56088(5) -0.0816(2) 1.13305(12)
H3B H 0.5891 0.0316 1.0951
H4B H 0.5467 0.0163 1.2080
C3B C 0.58894(5) -0.3348(2) 1.18618(11)
H5B H 0.6034 -0.4328 1.1116
H6B H 0.5609 -0.4484 1.2244
C4B C 0.63639(5) -0.2835(2) 1.29142(12)
H7B H 0.6229 -0.1693 1.3615
H8B H 0.6663 -0.1865 1.2507
C5B C 0.66011(6) -0.5355(2) 1.35395(12)
H9B H 0.6751 -0.6477 1.2850
H10B H 0.6302 -0.6358 1.3930
N1B N 0.70404(5) -0.47557(19) 1.45653(10)
H11B H 0.7133 -0.3093 1.4729
C6B C 0.73071(5) -0.6683(2) 1.52650(11)
O1B O 0.72033(4) -0.90201(18) 1.51552(10)
O2B O 0.77121(4) -0.56767(16) 1.61153(9)
C7B C 0.80371(6) -0.7588(3) 1.69213(14)
H12B H 0.7803 -0.8472 1.7547
H13B H 0.8190 -0.8957 1.6352
C8B C 0.84996(6) -0.6090(3) 1.76677(12)
C9B C 0.83886(7) -0.4159(3) 1.85739(14)
H14B H 0.8015 -0.3747 1.8721
C10B C 0.88187(9) -0.2825(4) 1.92669(15)
H15B H 0.8739 -0.1504 1.9893
C11B C 0.93578(9) -0.3387(4) 1.90598(19)
H16B H 0.9652 -0.2461 1.9542
C12B C 0.94716(7) -0.5253(4) 1.8173(2)
H17B H 0.9847 -0.5638 1.8031
C13B C 0.90451(7) -0.6622(4) 1.74625(16)
H18B H 0.9130 -0.7928 1.6834
loop_
_geom_bond_atom_site_label_1
_geom_bond_atom_site_label_2
_geom_bond_site_symmetry_1
_geom_bond_site_symmetry_2
C1 H1 1_555 1_555
H2 C1 1_555 1_555
C2 C1 1_555 1_555
H3 C2 1_555 1_555
H4 C2 1_555 1_555
C3 C2 1_555 1_555
H5 C3 1_555 1_555
H6 C3 1_555 1_555
C4 C3 1_555 1_555
H7 C4 1_555 1_555
H8 C4 1_555 1_555
C5 C4 1_555 1_555
H9 C5 1_555 1_555
H10 C5 1_555 1_555
N1 C5 1_555 1_555
H11 N1 1_555 1_555
C6 N1 1_555 1_555
O1 C6 1_555 1_555
O2 C6 1_555 1_555
C7 O2 1_555 1_555
H12 C7 1_555 1_555
H13 C7 1_555 1_555
C8 C7 1_555 1_555
C9 C8 1_555 1_555
H14 C9 1_555 1_555
C10 C9 1_555 1_555
H15 C10 1_555 1_555
C11 C10 1_555 1_555
H16 C11 1_555 1_555
C12 C11 1_555 1_555
H17 C12 1_555 1_555
C13 C8 1_555 1_555
H18 C13 1_555 1_555
C1B C1 1_555 1_555
H1B C1B 1_555 1_555
H2B C1B 1_555 1_555
C2B C1B 1_555 1_555
H3B C2B 1_555 1_555
H4B C2B 1_555 1_555
C3B C2B 1_555 1_555
H5B C3B 1_555 1_555
H6B C3B 1_555 1_555
C4B C3B 1_555 1_555
H7B C4B 1_555 1_555
H8B C4B 1_555 1_555
C5B C4B 1_555 1_555
H9B C5B 1_555 1_555
H10B C5B 1_555 1_555
N1B C5B 1_555 1_555
H11B N1B 1_555 1_555
C6B N1B 1_555 1_555
O1B C6B 1_555 1_555
O2B C6B 1_555 1_555
C7B O2B 1_555 1_555
H12B C7B 1_555 1_555
H13B C7B 1_555 1_555
C8B C7B 1_555 1_555
C9B C8B 1_555 1_555
H14B C9B 1_555 1_555
C10B C9B 1_555 1_555
H15B C10B 1_555 1_555
C11B C10B 1_555 1_555
H16B C11B 1_555 1_555
C12B C11B 1_555 1_555
H17B C12B 1_555 1_555
C13B C8B 1_555 1_555
H18B C13B 1_555 1_555
C12 C13 1_555 1_555
C12B C13B 1_555 1_555

#END
