
#######################################################################
#
#                 Cambridge Crystallographic Data Centre
#                                CCDC 
#
#######################################################################
#
# If this CIF has been generated from an entry in the Cambridge 
# Structural Database, then it will include bibliographic, chemical, 
# crystal, experimental, refinement or atomic coordinate data resulting 
# from the CCDC's data processing and validation procedures.
#
#######################################################################

data_UPETIU02
_chemical_formula_moiety         'C26 H28 N4 O8,H2 O1'
_chemical_name_systematic        
'(2,5-dimethylpiperazine-1,4-diyl)bis{[2-methyl-3-(4-nitrophenyl)oxiran-2-yl]methanone} monohydrate'
_symmetry_cell_setting           monoclinic
_symmetry_space_group_name_H-M   'I 2'
_symmetry_Int_Tables_number      5
_space_group_name_Hall           'I 2y'
loop_
_symmetry_equiv_pos_site_id
_symmetry_equiv_pos_as_xyz
1 x,y,z
2 -x,y,-z
3 1/2+x,1/2+y,1/2+z
4 1/2-x,1/2+y,1/2-z
_cell_length_a                   9.9349(9)
_cell_length_b                   5.4755(5)
_cell_length_c                   25.351(3)
_cell_angle_alpha                90
_cell_angle_beta                 101.162(10)
_cell_angle_gamma                90
_cell_volume                     1352.97
_exptl_crystal_colour            'light yellow'
_exptl_crystal_description       block
_cell_formula_units_Z            2
loop_
_atom_site_label
_atom_site_type_symbol
_atom_site_fract_x
_atom_site_fract_y
_atom_site_fract_z
O1 O -0.3469(4) -0.4767(7) -0.77154(14)
O2 O -0.4339(3) -0.1689(7) -0.81617(11)
O3 O -0.7472(2) 0.2041(3) -0.60758(8)
O4 O -0.7028(2) -0.1623(4) -0.49425(9)
N1 N -0.4120(3) -0.2892(8) -0.77568(12)
N2 N -0.8724(2) 0.1144(4) -0.51225(9)
C1 C -0.4835(4) -0.2336(8) -0.63767(14)
H1 H -0.4568 -0.3089 -0.6044
C2 C -0.4303(4) -0.3146(8) -0.68142(15)
H2 H -0.3687 -0.4443 -0.6776
C3 C -0.4685(3) -0.2043(6) -0.72909(13)
C4 C -0.5578(4) -0.0195(9) -0.73574(15)
H3 H -0.5838 0.0536 -0.7693
C5 C -0.6117(4) 0.0632(7) -0.69229(15)
H4 H -0.6735 0.1926 -0.6968
C6 C -0.5746(3) -0.0439(6) -0.64318(12)
C7 C -0.6297(3) 0.0439(5) -0.59577(12)
H5 H -0.5608 0.0868 -0.5640
C8 C -0.7635(2) -0.0340(5) -0.58526(11)
C9 C -0.8513(3) -0.2137(5) -0.62072(13)
H6 H -0.9460 -0.1836 -0.6198
H7 H -0.8273 -0.3764 -0.6082
H8 H -0.8370 -0.1965 -0.6569
C10 C -0.7779(3) -0.0332(5) -0.52697(11)
C11 C -0.9805(2) 0.2392(5) -0.54964(11)
H9 H -0.9656 0.2189 -0.5861
H10 H -0.9782 0.4124 -0.5415
C12 C -0.8798(2) 0.1346(5) -0.45478(11)
H11 H -0.8711 -0.0291 -0.4388
C13 C -0.7651(3) 0.2947(7) -0.42457(14)
H12 H -0.6781 0.2309 -0.4291
H13 H -0.7691 0.2961 -0.3870
H14 H -0.7758 0.4581 -0.4385
O1A O -1.6531(4) -0.4767(7) -0.22846(14)
O2A O -1.5661(3) -0.1689(7) -0.18383(11)
O3A O -1.2528(2) 0.2041(3) -0.39242(8)
O4A O -1.2972(2) -0.1623(4) -0.50575(9)
N1A N -1.5880(3) -0.2892(8) -0.22432(12)
N2A N -1.1276(2) 0.1144(4) -0.48775(9)
C1A C -1.5165(4) -0.2336(8) -0.36233(14)
H1A H -1.5432 -0.3089 -0.3956
C2A C -1.5697(4) -0.3146(8) -0.31858(15)
H2A H -1.6313 -0.4443 -0.3224
C3A C -1.5315(3) -0.2043(6) -0.27091(13)
C4A C -1.4422(4) -0.0195(9) -0.26426(15)
H3A H -1.4162 0.0536 -0.2307
C5A C -1.3883(4) 0.0632(7) -0.30771(15)
H4A H -1.3265 0.1926 -0.3032
C6A C -1.4254(3) -0.0439(6) -0.35682(12)
C7A C -1.3703(3) 0.0439(5) -0.40423(12)
H5A H -1.4392 0.0868 -0.4360
C8A C -1.2365(2) -0.0340(5) -0.41474(11)
C9A C -1.1487(3) -0.2137(5) -0.37928(13)
H6A H -1.0540 -0.1836 -0.3802
H7A H -1.1727 -0.3764 -0.3918
H8A H -1.1630 -0.1965 -0.3431
C10A C -1.2221(3) -0.0332(5) -0.47303(11)
C11A C -1.0195(2) 0.2392(5) -0.45036(11)
H9A H -1.0344 0.2189 -0.4139
H10A H -1.0218 0.4124 -0.4585
C12A C -1.1202(2) 0.1346(5) -0.54522(11)
H11A H -1.1289 -0.0291 -0.5612
C13A C -1.2349(3) 0.2947(7) -0.57543(14)
H12A H -1.3219 0.2309 -0.5709
H13A H -1.2309 0.2961 -0.6130
H14A H -1.2242 0.4581 -0.5615
O5 O -0.5000 -0.5346(7) -0.5000
H15 H -0.567(3) -0.431(6) -0.5030(17)
H15A H -0.433(3) -0.431(6) -0.4970(17)
loop_
_geom_bond_atom_site_label_1
_geom_bond_atom_site_label_2
_geom_bond_site_symmetry_1
_geom_bond_site_symmetry_2
O1 N1 1_555 1_555
O2 N1 1_555 1_555
O3 C7 1_555 1_555
O4 C10 1_555 1_555
N1 C3 1_555 1_555
N2 C10 1_555 1_555
C1 H1 1_555 1_555
C2 C1 1_555 1_555
H2 C2 1_555 1_555
C3 C2 1_555 1_555
C4 C3 1_555 1_555
H3 C4 1_555 1_555
C5 C4 1_555 1_555
H4 C5 1_555 1_555
C6 C1 1_555 1_555
C7 C6 1_555 1_555
H5 C7 1_555 1_555
C8 O3 1_555 1_555
C9 C8 1_555 1_555
H6 C9 1_555 1_555
H7 C9 1_555 1_555
H8 C9 1_555 1_555
C10 C8 1_555 1_555
C11 N2 1_555 1_555
H9 C11 1_555 1_555
H10 C11 1_555 1_555
C12 N2 1_555 1_555
H11 C12 1_555 1_555
C13 C12 1_555 1_555
H12 C13 1_555 1_555
H13 C13 1_555 1_555
H14 C13 1_555 1_555
O5 H15 1_555 1_555
O1A N1A 1_555 1_555
O2A N1A 1_555 1_555
O3A C7A 1_555 1_555
O4A C10A 1_555 1_555
N1A C3A 1_555 1_555
N2A C10A 1_555 1_555
C1A H1A 1_555 1_555
C2A C1A 1_555 1_555
H2A C2A 1_555 1_555
C3A C2A 1_555 1_555
C4A C3A 1_555 1_555
H3A C4A 1_555 1_555
C5A C4A 1_555 1_555
H4A C5A 1_555 1_555
C6A C1A 1_555 1_555
C7A C6A 1_555 1_555
H5A C7A 1_555 1_555
C8A O3A 1_555 1_555
C9A C8A 1_555 1_555
H6A C9A 1_555 1_555
H7A C9A 1_555 1_555
H8A C9A 1_555 1_555
C10A C8A 1_555 1_555
C11A C12 1_555 1_555
H9A C11A 1_555 1_555
H10A C11A 1_555 1_555
C12A C11 1_555 1_555
H11A C12A 1_555 1_555
C13A C12A 1_555 1_555
H12A C13A 1_555 1_555
H13A C13A 1_555 1_555
H14A C13A 1_555 1_555
H15A O5 1_555 1_555
C5 C6 1_555 1_555
C7 C8 1_555 1_555
N2A C11A 1_555 1_555
N2A C12A 1_555 1_555
C5A C6A 1_555 1_555
C7A C8A 1_555 1_555

#END
