
#######################################################################
#
#                 Cambridge Crystallographic Data Centre
#                                CCDC 
#
#######################################################################
#
# If this CIF has been generated from an entry in the Cambridge 
# Structural Database, then it will include bibliographic, chemical, 
# crystal, experimental, refinement or atomic coordinate data resulting 
# from the CCDC's data processing and validation procedures.
#
#######################################################################

data_UPEWIX
_chemical_formula_moiety         'C12 H18 O4'
_chemical_name_systematic        
5,6',6'-trimethylhexahydro-3H,5'H-spiro[furan-2,2'-furo[3,2-b]furan]-5'-one
_symmetry_cell_setting           monoclinic
_symmetry_space_group_name_H-M   'P 21/c'
_symmetry_Int_Tables_number      14
_space_group_name_Hall           '-P 2ybc'
loop_
_symmetry_equiv_pos_site_id
_symmetry_equiv_pos_as_xyz
1 x,y,z
2 -x,1/2+y,1/2-z
3 -x,-y,-z
4 x,1/2-y,1/2+z
_cell_length_a                   11.6494(2)
_cell_length_b                   10.45558(17)
_cell_length_c                   9.88362(18)
_cell_angle_alpha                90
_cell_angle_beta                 105.7348(19)
_cell_angle_gamma                90
_cell_volume                     1158.73
_exptl_crystal_colour            colorless
_cell_formula_units_Z            4
loop_
_atom_site_label
_atom_site_type_symbol
_atom_site_fract_x
_atom_site_fract_y
_atom_site_fract_z
O1 O 0.30634(8) 0.44587(9) 0.27118(9)
O2 O 0.37814(7) 0.35979(8) 0.48355(8)
O3 O 0.25105(7) 0.52125(7) 0.64494(8)
O4 O 0.29868(7) 0.46983(7) 0.88426(8)
C1 C 0.28967(10) 0.41133(11) 0.38025(12)
C2 C 0.17241(10) 0.41238(10) 0.42159(11)
C3 C 0.21758(9) 0.39974(10) 0.58091(11)
H1 H 0.1594 0.3542 0.6220
C4 C 0.33539(9) 0.32717(10) 0.60528(11)
H2 H 0.3253 0.2329 0.6147
C5 C 0.41610(10) 0.38622(11) 0.73769(12)
H3 H 0.4924 0.4143 0.7214
H4 H 0.4333 0.3240 0.8161
C6 C 0.34637(10) 0.50086(11) 0.77064(11)
C7 C 0.41065(10) 0.62668(11) 0.81146(12)
H5 H 0.4178 0.6746 0.7277
H6 H 0.4911 0.6136 0.8761
C8 C 0.32855(11) 0.69483(11) 0.88445(12)
H7 H 0.2604 0.7353 0.8155
H8 H 0.3721 0.7607 0.9507
C9 C 0.28715(10) 0.58515(11) 0.96243(11)
H9 H 0.3425 0.5787 1.0591
C10 C 0.16083(11) 0.59604(12) 0.97395(14)
H10 H 0.1059 0.6046 0.8798
H11 H 0.1541 0.6714 1.0302
H12 H 0.1405 0.5192 1.0193
C11 C 0.10345(10) 0.29094(11) 0.35965(12)
H13 H 0.0303 0.2850 0.3902
H14 H 0.1532 0.2156 0.3925
H15 H 0.0829 0.2948 0.2568
C12 C 0.09894(10) 0.53173(11) 0.36796(12)
H16 H 0.0199 0.5233 0.3842
H17 H 0.0902 0.5416 0.2671
H18 H 0.1394 0.6070 0.4182
loop_
_geom_bond_atom_site_label_1
_geom_bond_atom_site_label_2
_geom_bond_site_symmetry_1
_geom_bond_site_symmetry_2
O1 C1 1_555 1_555
O2 C1 1_555 1_555
O3 C3 1_555 1_555
O4 C6 1_555 1_555
C1 C2 1_555 1_555
C2 C3 1_555 1_555
C3 H1 1_555 1_555
C4 O2 1_555 1_555
H2 C4 1_555 1_555
C5 C4 1_555 1_555
H3 C5 1_555 1_555
H4 C5 1_555 1_555
C6 O3 1_555 1_555
C7 C6 1_555 1_555
H5 C7 1_555 1_555
H6 C7 1_555 1_555
C8 C7 1_555 1_555
H7 C8 1_555 1_555
H8 C8 1_555 1_555
C9 O4 1_555 1_555
H9 C9 1_555 1_555
C10 C9 1_555 1_555
H10 C10 1_555 1_555
H11 C10 1_555 1_555
H12 C10 1_555 1_555
C11 C2 1_555 1_555
H13 C11 1_555 1_555
H14 C11 1_555 1_555
H15 C11 1_555 1_555
C12 C2 1_555 1_555
H16 C12 1_555 1_555
H17 C12 1_555 1_555
H18 C12 1_555 1_555
C3 C4 1_555 1_555
C5 C6 1_555 1_555
C8 C9 1_555 1_555

#END
