
#######################################################################
#
#                 Cambridge Crystallographic Data Centre
#                                CCDC 
#
#######################################################################
#
# If this CIF has been generated from an entry in the Cambridge 
# Structural Database, then it will include bibliographic, chemical, 
# crystal, experimental, refinement or atomic coordinate data resulting 
# from the CCDC's data processing and validation procedures.
#
#######################################################################

data_UPEYEU
_chemical_formula_moiety         'C72 H60 O2,3(C1 H1 Cl3)'
_chemical_name_systematic        
"9,20-bis(3,5-di-t-butylphenyl)dinaphtho[1,2,3-gh:1',2',3'-tu]pyranthrene-10,21-dione chloroform solvate"
_symmetry_cell_setting           triclinic
_symmetry_space_group_name_H-M   'P -1'
_symmetry_Int_Tables_number      2
_space_group_name_Hall           '-P 1'
loop_
_symmetry_equiv_pos_site_id
_symmetry_equiv_pos_as_xyz
1 x,y,z
2 -x,-y,-z
_cell_length_a                   10.293(2)
_cell_length_b                   15.245(4)
_cell_length_c                   21.665(5)
_cell_angle_alpha                87.020(6)
_cell_angle_beta                 86.029(6)
_cell_angle_gamma                79.479(6)
_cell_volume                     3331.74
_exptl_crystal_colour            orange
_exptl_crystal_description       'thin plate'
_cell_formula_units_Z            2
loop_
_atom_site_label
_atom_site_type_symbol
_atom_site_fract_x
_atom_site_fract_y
_atom_site_fract_z
C1 C 0.7003(15) 1.0256(7) 0.8298(4)
H1 H 0.6159 1.0496 0.8127
H2 H 0.7559 0.9882 0.7998
H3 H 0.7436 1.0743 0.8393
C2 C 0.7671(14) 0.9902(10) 0.9386(5)
H4 H 0.7351 0.9702 0.9791
H5 H 0.7656 1.0540 0.9381
H6 H 0.8570 0.9593 0.9296
C3 C 0.5316(8) 0.9962(13) 0.9132(7)
H7 H 0.5108 0.9536 0.9456
H8 H 0.4746 0.9965 0.8794
H9 H 0.5177 1.0553 0.9298
C4 C 0.8429(10) 0.5736(8) 0.9741(6)
H10 H 0.9187 0.6018 0.9787
H11 H 0.8549 0.5426 0.9356
H12 H 0.8349 0.5312 1.0085
C5 C 0.6950(14) 0.6907(9) 1.0361(4)
H13 H 0.6158 0.7363 1.0359
H14 H 0.7708 0.7179 1.0427
H15 H 0.6849 0.6465 1.0690
C6 C 0.5977(11) 0.5982(9) 0.9661(6)
H16 H 0.5167 0.6422 0.9660
H17 H 0.5916 0.5552 1.0004
H18 H 0.6103 0.5676 0.9274
C7 C 1.3483(15) 0.5773(7) 0.2173(6)
H19 H 1.2745 0.5461 0.2159
H20 H 1.3635 0.5858 0.2601
H21 H 1.4270 0.5423 0.1977
C8 C 1.4379(11) 0.7157(9) 0.1855(7)
H22 H 1.4518 0.7253 0.2283
H23 H 1.4214 0.7726 0.1627
H24 H 1.5160 0.6784 0.1671
C9 C 1.2981(17) 0.6542(10) 0.1142(4)
H25 H 1.2235 0.6242 0.1113
H26 H 1.3776 0.6180 0.0963
H27 H 1.2816 0.7117 0.0920
C10 C 0.8884(13) 0.8679(9) 0.1047(3)
H28 H 0.9571 0.8996 0.0876
H29 H 0.8064 0.8913 0.0852
H30 H 0.9144 0.8048 0.0969
C11 C 0.7420(11) 0.8446(9) 0.1993(7)
H31 H 0.7046 0.8754 0.2363
H32 H 0.7648 0.7811 0.2091
H33 H 0.6775 0.8549 0.1679
C12 C 0.8486(15) 0.9800(5) 0.1873(6)
H34 H 0.9338 0.9991 0.1839
H35 H 0.8082 0.9901 0.2287
H36 H 0.7916 1.0139 0.1573
O1 O 1.0091(4) 0.7584(3) 0.78090(14)
O2 O 0.9762(6) 0.6553(4) 0.34991(16)
C13 C 0.9881(5) 0.7604(3) 0.72589(19)
C14 C 1.0811(5) 0.7936(3) 0.67871(19)
C15 C 1.1790(5) 0.8327(3) 0.6974(2)
H37 H 1.1823 0.8427 0.7396
C16 C 1.2770(5) 0.8589(3) 0.6545(2)
C17 C 1.3927(6) 0.8828(4) 0.6751(3)
H38 H 1.3995 0.8899 0.7176
C18 C 1.4941(7) 0.8958(5) 0.6340(3)
H39 H 1.5709 0.9112 0.6483
C19 C 1.4851(6) 0.8863(5) 0.5707(3)
H40 H 1.5564 0.8945 0.5428
C20 C 1.3747(5) 0.8654(4) 0.5491(2)
H41 H 1.3708 0.8590 0.5063
C21 C 1.2647(5) 0.8528(3) 0.5898(2)
C22 C 1.1470(5) 0.8246(3) 0.5691(2)
C23 C 1.0667(5) 0.7859(3) 0.61381(19)
C24 C 0.9721(5) 0.7353(3) 0.59473(19)
C25 C 0.8770(5) 0.7056(3) 0.63928(19)
C26 C 0.7872(5) 0.6555(3) 0.62005(19)
C27 C 0.6662(5) 0.6533(3) 0.6584(2)
C28 C 0.5497(6) 0.6349(3) 0.6351(2)
H42 H 0.5506 0.6218 0.5932
C29 C 0.4357(6) 0.6355(4) 0.6715(3)
H43 H 0.3597 0.6231 0.6546
C30 C 0.4325(6) 0.6547(4) 0.7347(3)
H44 H 0.3562 0.6513 0.7605
C31 C 0.5393(5) 0.6781(4) 0.7583(2)
H45 H 0.5354 0.6921 0.8002
C32 C 0.6573(5) 0.6819(3) 0.7206(2)
C33 C 0.7648(5) 0.7161(3) 0.74370(18)
C34 C 0.8704(5) 0.7292(3) 0.70369(18)
C35 C 0.9773(7) 0.6742(4) 0.4037(2)
C36 C 1.0354(5) 0.7524(4) 0.4209(2)
C37 C 1.0835(5) 0.8069(4) 0.3767(2)
C38 C 1.1280(5) 0.8852(4) 0.3951(2)
C39 C 1.1537(5) 0.9532(4) 0.3524(2)
H46 H 1.1516 0.9440 0.3100
C40 C 1.1820(5) 1.0326(4) 0.3700(2)
H47 H 1.1990 1.0767 0.3401
C41 C 1.1851(5) 1.0467(4) 0.4335(2)
H48 H 1.1998 1.1018 0.4464
C42 C 1.1667(5) 0.9802(4) 0.4767(2)
H49 H 1.1714 0.9903 0.5189
C43 C 1.1409(5) 0.8965(4) 0.4595(2)
C44 C 1.1135(5) 0.8278(3) 0.50453(19)
C45 C 1.0423(5) 0.7647(3) 0.4863(2)
C46 C 0.9712(5) 0.7171(3) 0.53254(19)
C47 C 0.8960(5) 0.6531(3) 0.5160(2)
C48 C 0.8154(5) 0.6136(3) 0.5598(2)
C49 C 0.7685(5) 0.5343(3) 0.5452(2)
C50 C 0.7185(6) 0.4761(3) 0.5891(2)
H50 H 0.7167 0.4876 0.6314
C51 C 0.6720(7) 0.4025(4) 0.5719(3)
H51 H 0.6372 0.3655 0.6023
C52 C 0.6760(7) 0.3824(4) 0.5093(3)
H52 H 0.6384 0.3346 0.4974
C53 C 0.7350(7) 0.4328(4) 0.4659(3)
H53 H 0.7415 0.4175 0.4242
C54 C 0.7865(6) 0.5073(4) 0.4821(2)
C55 C 0.8532(7) 0.5557(4) 0.4376(2)
H54 H 0.8583 0.5401 0.3960
C56 C 0.9108(6) 0.6246(4) 0.4530(2)
C57 C 0.7493(5) 0.7460(3) 0.8090(2)
C58 C 0.7272(5) 0.8371(3) 0.8185(2)
H55 H 0.7283 0.8777 0.7845
C59 C 0.7034(5) 0.8685(3) 0.8780(2)
C60 C 0.7030(5) 0.8047(4) 0.9277(2)
H56 H 0.6882 0.8251 0.9682
C61 C 0.7234(5) 0.7137(3) 0.9197(2)
C62 C 0.7489(5) 0.6849(3) 0.85834(19)
H57 H 0.7658 0.6235 0.8510
C63 C 0.6776(6) 0.9695(4) 0.8893(2)
C64 C 0.7165(5) 0.6453(3) 0.9734(2)
C65 C 1.0854(5) 0.7933(4) 0.3082(2)
C66 C 1.1937(5) 0.7409(4) 0.2779(2)
H58 H 1.2656 0.7129 0.3005
C67 C 1.1967(5) 0.7295(3) 0.2147(2)
C68 C 1.0910(6) 0.7738(3) 0.1823(2)
H59 H 1.0917 0.7654 0.1396
C69 C 0.9831(5) 0.8305(4) 0.2104(2)
C70 C 0.9824(5) 0.8395(4) 0.2738(2)
H60 H 0.9115 0.8773 0.2940
C71 C 1.3163(6) 0.6684(4) 0.1830(2)
C72 C 0.8681(6) 0.8805(4) 0.1746(2)
C73 C 0.9081(8) 0.5729(4) 0.2367(3)
H61 H 0.9473 0.6218 0.2519
Cl1 Cl 0.7434(3) 0.5872(2) 0.26457(15)
Cl2 Cl 0.9958(3) 0.47302(14) 0.26438(11)
Cl3 Cl 0.9221(3) 0.57894(17) 0.15561(9)
C74 C 0.8307(8) 0.2541(6) 0.0980(3)
H62 H 0.8890 0.2379 0.1329
Cl4 Cl 0.7852(4) 0.3672(2) 0.0949(2)
Cl5 Cl 0.9169(3) 0.2113(4) 0.03235(15)
Cl6 Cl 0.6894(3) 0.20558(17) 0.11487(13)
C75 C 0.6269(8) 0.7992(6) 0.3765(4)
H63 H 0.6897 0.7674 0.3450
Cl7 Cl 0.7026(2) 0.87812(18) 0.40794(10)
Cl8 Cl 0.4875(3) 0.8519(3) 0.3404(2)
Cl9 Cl 0.5860(3) 0.7223(2) 0.43120(19)
C76? C 0.771(3) 1.009(2) 0.8398(11)
C77? C 0.720(3) 0.983(3) 0.9547(8)
C78? C 0.5276(13) 1.005(3) 0.8904(18)
C79? C 0.8623(13) 0.6057(18) 0.9849(15)
C80? C 0.646(3) 0.682(2) 1.0345(11)
C81? C 0.643(3) 0.5693(17) 0.9601(16)
C82? C 1.297(3) 0.5734(10) 0.2053(13)
C83? C 1.4517(17) 0.688(2) 0.1996(14)
C84? C 1.316(4) 0.685(2) 0.1117(5)
C85? C 0.903(4) 0.913(3) 0.1076(9)
C86? C 0.764(2) 0.8188(18) 0.1701(13)
C87? C 0.782(2) 0.9657(12) 0.2013(11)
H64? H 0.8576 0.9719 0.8385
H65? H 0.7776 1.0691 0.8507
H66? H 0.7341 1.0117 0.7995
H67? H 0.6638 0.9569 0.9855
H68? H 0.7108 1.0465 0.9611
H69? H 0.8113 0.9546 0.9585
H70? H 0.4831 0.9748 0.9236
H71? H 0.4944 0.9950 0.8511
H72? H 0.5110 1.0689 0.8972
H73? H 0.9044 0.6513 1.0006
H74? H 0.9084 0.5849 0.9464
H75? H 0.8658 0.5561 1.0150
H76? H 0.5677 0.7254 1.0254
H77? H 0.7058 0.7105 1.0561
H78? H 0.6209 0.6333 1.0604
H79? H 0.5501 0.5933 0.9563
H80? H 0.6531 0.5247 0.9939
H81? H 0.6806 0.5420 0.9219
H82? H 1.2091 0.5650 0.1961
H83? H 1.3061 0.5661 0.2496
H84? H 1.3629 0.5297 0.1842
H85? H 1.4946 0.6389 0.2260
H86? H 1.4387 0.7428 0.2214
H87? H 1.5070 0.6928 0.1620
H88? H 1.2450 0.6599 0.0961
H89? H 1.4002 0.6559 0.0927
H90? H 1.3029 0.7483 0.1017
H91? H 0.9709 0.9493 0.1080
H92? H 0.8247 0.9474 0.0902
H93? H 0.9360 0.8613 0.0826
H94? H 0.7879 0.7821 0.1344
H95? H 0.6773 0.8551 0.1659
H96? H 0.7629 0.7807 0.2074
H97? H 0.8359 1.0109 0.2043
H98? H 0.7441 0.9516 0.2421
H99? H 0.7108 0.9881 0.1741
loop_
_geom_bond_atom_site_label_1
_geom_bond_atom_site_label_2
_geom_bond_site_symmetry_1
_geom_bond_site_symmetry_2
C1 H1 1_555 1_555
H2 C1 1_555 1_555
H3 C1 1_555 1_555
C2 H4 1_555 1_555
H5 C2 1_555 1_555
H6 C2 1_555 1_555
C3 H7 1_555 1_555
H8 C3 1_555 1_555
H9 C3 1_555 1_555
C4 H10 1_555 1_555
H11 C4 1_555 1_555
H12 C4 1_555 1_555
C5 H13 1_555 1_555
H14 C5 1_555 1_555
H15 C5 1_555 1_555
C6 H16 1_555 1_555
H17 C6 1_555 1_555
H18 C6 1_555 1_555
C7 H19 1_555 1_555
H20 C7 1_555 1_555
H21 C7 1_555 1_555
C8 H22 1_555 1_555
H23 C8 1_555 1_555
H24 C8 1_555 1_555
C9 H25 1_555 1_555
H26 C9 1_555 1_555
H27 C9 1_555 1_555
C10 H28 1_555 1_555
H29 C10 1_555 1_555
H30 C10 1_555 1_555
C11 H31 1_555 1_555
H32 C11 1_555 1_555
H33 C11 1_555 1_555
C12 H34 1_555 1_555
H35 C12 1_555 1_555
H36 C12 1_555 1_555
O1 C13 1_555 1_555
O2 C35 1_555 1_555
C13 C14 1_555 1_555
C14 C15 1_555 1_555
C15 H37 1_555 1_555
C16 C15 1_555 1_555
C17 C16 1_555 1_555
H38 C17 1_555 1_555
C18 C17 1_555 1_555
H39 C18 1_555 1_555
C19 C18 1_555 1_555
H40 C19 1_555 1_555
C20 C19 1_555 1_555
H41 C20 1_555 1_555
C21 C16 1_555 1_555
C22 C21 1_555 1_555
C23 C14 1_555 1_555
C24 C23 1_555 1_555
C25 C24 1_555 1_555
C26 C25 1_555 1_555
C27 C26 1_555 1_555
C28 C27 1_555 1_555
H42 C28 1_555 1_555
C29 C28 1_555 1_555
H43 C29 1_555 1_555
C30 C29 1_555 1_555
H44 C30 1_555 1_555
C31 C30 1_555 1_555
H45 C31 1_555 1_555
C32 C27 1_555 1_555
C33 C32 1_555 1_555
C34 C13 1_555 1_555
C35 C36 1_555 1_555
C36 C37 1_555 1_555
C37 C38 1_555 1_555
C38 C39 1_555 1_555
C39 H46 1_555 1_555
C40 C39 1_555 1_555
H47 C40 1_555 1_555
C41 C40 1_555 1_555
H48 C41 1_555 1_555
C42 C41 1_555 1_555
H49 C42 1_555 1_555
C43 C38 1_555 1_555
C44 C22 1_555 1_555
C45 C36 1_555 1_555
C46 C24 1_555 1_555
C47 C46 1_555 1_555
C48 C26 1_555 1_555
C49 C48 1_555 1_555
C50 C49 1_555 1_555
H50 C50 1_555 1_555
C51 C50 1_555 1_555
H51 C51 1_555 1_555
C52 C51 1_555 1_555
H52 C52 1_555 1_555
C53 C52 1_555 1_555
H53 C53 1_555 1_555
C54 C49 1_555 1_555
C55 C54 1_555 1_555
H54 C55 1_555 1_555
C56 C35 1_555 1_555
C57 C33 1_555 1_555
C58 C57 1_555 1_555
H55 C58 1_555 1_555
C59 C58 1_555 1_555
C60 C59 1_555 1_555
H56 C60 1_555 1_555
C61 C60 1_555 1_555
C62 C57 1_555 1_555
H57 C62 1_555 1_555
C63 C1 1_555 1_555
C64 C4 1_555 1_555
C65 C37 1_555 1_555
C66 C65 1_555 1_555
H58 C66 1_555 1_555
C67 C66 1_555 1_555
C68 C67 1_555 1_555
H59 C68 1_555 1_555
C69 C68 1_555 1_555
C70 C65 1_555 1_555
H60 C70 1_555 1_555
C71 C7 1_555 1_555
C72 C10 1_555 1_555
C73 H61 1_555 1_555
Cl1 C73 1_555 1_555
Cl2 C73 1_555 1_555
Cl3 C73 1_555 1_555
C74 H62 1_555 1_555
Cl4 C74 1_555 1_555
Cl5 C74 1_555 1_555
Cl6 C74 1_555 1_555
C75 H63 1_555 1_555
Cl7 C75 1_555 1_555
Cl8 C75 1_555 1_555
Cl9 C75 1_555 1_555
C2 C63 1_555 1_555
C3 C63 1_555 1_555
C5 C64 1_555 1_555
C6 C64 1_555 1_555
C8 C71 1_555 1_555
C9 C71 1_555 1_555
C11 C72 1_555 1_555
C12 C72 1_555 1_555
C20 C21 1_555 1_555
C22 C23 1_555 1_555
C25 C34 1_555 1_555
C31 C32 1_555 1_555
C33 C34 1_555 1_555
C42 C43 1_555 1_555
C43 C44 1_555 1_555
C44 C45 1_555 1_555
C45 C46 1_555 1_555
C47 C48 1_555 1_555
C47 C56 1_555 1_555
C53 C54 1_555 1_555
C55 C56 1_555 1_555
C59 C63 1_555 1_555
C61 C62 1_555 1_555
C61 C64 1_555 1_555
C67 C71 1_555 1_555
C69 C70 1_555 1_555
C69 C72 1_555 1_555

#END
