
#######################################################################
#
#                 Cambridge Crystallographic Data Centre
#                                CCDC 
#
#######################################################################
#
# If this CIF has been generated from an entry in the Cambridge 
# Structural Database, then it will include bibliographic, chemical, 
# crystal, experimental, refinement or atomic coordinate data resulting 
# from the CCDC's data processing and validation procedures.
#
#######################################################################

data_UPIBAX
_chemical_formula_moiety         'C26 H22 N2 O4'
_chemical_name_systematic        
5-(1,3-Dioxo-1,3-diphenylpropan-2-yl)-1,3-dimethyl-5-phenylimidazolidine-2,4-dione
_symmetry_cell_setting           monoclinic
_symmetry_space_group_name_H-M   'P 21/c'
_symmetry_Int_Tables_number      14
_space_group_name_Hall           '-P 2ybc'
loop_
_symmetry_equiv_pos_site_id
_symmetry_equiv_pos_as_xyz
1 x,y,z
2 -x,1/2+y,1/2-z
3 -x,-y,-z
4 x,1/2-y,1/2+z
_cell_length_a                   10.5130(10)
_cell_length_b                   21.209(2)
_cell_length_c                   19.5593(19)
_cell_angle_alpha                90
_cell_angle_beta                 90.309(2)
_cell_angle_gamma                90
_cell_volume                     4361.08
_exptl_crystal_colour            colorless
_exptl_crystal_description       block
_cell_formula_units_Z            8
loop_
_atom_site_label
_atom_site_type_symbol
_atom_site_fract_x
_atom_site_fract_y
_atom_site_fract_z
C1 C 0.2162(2) 0.37990(11) 0.38010(13)
C2 C 0.2361(3) 0.44473(13) 0.37885(15)
H1 H 0.2623 0.4654 0.4184
C3 C 0.2175(3) 0.47856(15) 0.31965(19)
H2 H 0.2309 0.5219 0.3194
C4 C 0.1795(3) 0.44880(17) 0.26139(19)
H3 H 0.1661 0.4719 0.2216
C5 C 0.1609(3) 0.38448(16) 0.26111(16)
H4 H 0.1369 0.3641 0.2210
C6 C 0.1779(3) 0.35051(13) 0.32050(13)
H5 H 0.1634 0.3073 0.3204
C7 C 0.2409(2) 0.34529(12) 0.44503(12)
C8 C 0.1858(2) 0.27874(11) 0.45218(11)
H6 H 0.1036 0.2773 0.4283
C9 C 0.2775(2) 0.23318(12) 0.41641(11)
C10 C 0.2341(2) 0.16929(11) 0.39540(11)
C11 C 0.1082(2) 0.15387(12) 0.38211(12)
H7 H 0.0452 0.1843 0.3867
C12 C 0.0759(3) 0.09375(13) 0.36213(14)
H8 H -0.0088 0.0837 0.3535
C13 C 0.1680(3) 0.04850(13) 0.35490(16)
H9 H 0.1459 0.0079 0.3415
C14 C 0.2932(4) 0.06343(15) 0.36756(17)
H10 H 0.3556 0.0328 0.3623
C15 C 0.3270(3) 0.12319(14) 0.38784(15)
H11 H 0.4119 0.1328 0.3965
C16 C 0.1659(2) 0.25570(11) 0.52770(12)
C17 C 0.0591(2) 0.20592(12) 0.52864(12)
C18 C 0.2396(3) 0.15936(13) 0.56906(13)
C19 C 0.0418(3) 0.09284(14) 0.56086(18)
H12 H -0.0143 0.0877 0.5224
H13 H -0.0070 0.0931 0.6022
H14 H 0.1014 0.0586 0.5622
C20 C 0.4005(2) 0.24303(15) 0.56687(15)
H15 H 0.4347 0.2230 0.6070
H16 H 0.3968 0.2878 0.5740
H17 H 0.4541 0.2341 0.5285
C21 C 0.1234(2) 0.30781(12) 0.57676(13)
C22 C 0.1699(3) 0.31041(14) 0.64313(14)
H18 H 0.2301 0.2812 0.6579
C23 C 0.1269(3) 0.35631(17) 0.68733(16)
H19 H 0.1599 0.3584 0.7315
C24 C 0.0373(4) 0.39831(17) 0.66733(19)
H20 H 0.0093 0.4290 0.6977
C25 C -0.0126(3) 0.39567(15) 0.60183(19)
H21 H -0.0750 0.4241 0.5882
C26 C 0.0313(3) 0.35024(13) 0.55662(15)
H22 H -0.0017 0.3484 0.5124
N1 N 0.1104(2) 0.15215(10) 0.55456(11)
N2 N 0.27301(19) 0.21906(10) 0.55343(10)
O1 O 0.30319(18) 0.36885(9) 0.49054(9)
O2 O 0.38673(16) 0.24918(9) 0.40768(10)
O3 O -0.04957(17) 0.21412(9) 0.51120(10)
O4 O 0.3078(2) 0.11809(10) 0.59214(11)
C27 C 0.2956(2) 0.86470(11) 0.60853(13)
C28 C 0.3051(3) 0.92948(14) 0.61213(19)
H23 H 0.2899 0.9501 0.6532
C29 C 0.3372(4) 0.96366(17) 0.5545(3)
H24 H 0.3439 1.0073 0.5569
C30 C 0.3587(4) 0.9337(2) 0.4948(2)
H25 H 0.3809 0.9571 0.4565
C31 C 0.3486(4) 0.87015(18) 0.48974(18)
H26 H 0.3617 0.8503 0.4480
C32 C 0.3188(3) 0.83516(13) 0.54689(14)
H27 H 0.3143 0.7915 0.5439
C33 C 0.2595(2) 0.82956(12) 0.67107(13)
C34 C 0.3121(2) 0.76266(11) 0.67958(12)
H28 H 0.3932 0.7600 0.6553
C35 C 0.2176(2) 0.71624(12) 0.64571(12)
C36 C 0.2591(2) 0.65270(12) 0.62354(12)
C37 C 0.3830(3) 0.63774(13) 0.60586(14)
H29 H 0.4468 0.6679 0.6100
C38 C 0.4119(3) 0.57828(15) 0.58219(17)
H30 H 0.4951 0.5685 0.5702
C39 C 0.3187(4) 0.53346(15) 0.5762(2)
H31 H 0.3387 0.4935 0.5597
C40 C 0.1965(3) 0.54733(16) 0.5943(2)
H32 H 0.1337 0.5166 0.5909
C41 C 0.1662(3) 0.60661(14) 0.61759(18)
H33 H 0.0827 0.6159 0.6294
C42 C 0.3354(2) 0.74303(11) 0.75604(12)
C43 C 0.2665(3) 0.64566(13) 0.79790(13)
C44 C 0.4445(2) 0.69448(12) 0.75750(12)
C45 C 0.1019(3) 0.72835(15) 0.79626(15)
H34 H 0.0443 0.7086 0.7645
H35 H 0.0991 0.7732 0.7902
H36 H 0.0773 0.7181 0.8421
C46 C 0.4665(4) 0.58170(14) 0.78699(19)
H37 H 0.5410 0.5845 0.7589
H38 H 0.4141 0.5475 0.7713
H39 H 0.4915 0.5743 0.8336
C47 C 0.3746(2) 0.79815(12) 0.80248(13)
C48 C 0.3235(3) 0.80515(14) 0.86709(15)
H40 H 0.2635 0.7764 0.8827
C49 C 0.3611(3) 0.85473(18) 0.90864(19)
H41 H 0.3253 0.8592 0.9517
C50 C 0.4482(4) 0.89616(18) 0.8875(2)
H42 H 0.4716 0.9295 0.9157
C51 C 0.5036(4) 0.88981(16) 0.8242(2)
H43 H 0.5654 0.9182 0.8101
C52 C 0.4660(3) 0.84013(14) 0.78104(18)
H44 H 0.5028 0.8356 0.7382
O5 O 0.19251(18) 0.85314(10) 0.71383(10)
O6 O 0.10805(17) 0.73215(9) 0.63875(10)
O7 O 0.2003(2) 0.60410(10) 0.81991(12)
O8 O 0.55169(17) 0.70367(9) 0.73966(10)
N3 N 0.23083(19) 0.70569(10) 0.78400(10)
N4 N 0.3955(2) 0.64038(10) 0.78266(11)
loop_
_geom_bond_atom_site_label_1
_geom_bond_atom_site_label_2
_geom_bond_site_symmetry_1
_geom_bond_site_symmetry_2
C1 C2 1_555 1_555
C2 H1 1_555 1_555
C3 C2 1_555 1_555
H2 C3 1_555 1_555
C4 C3 1_555 1_555
H3 C4 1_555 1_555
C5 C4 1_555 1_555
H4 C5 1_555 1_555
C6 C1 1_555 1_555
H5 C6 1_555 1_555
C7 C1 1_555 1_555
C8 C7 1_555 1_555
H6 C8 1_555 1_555
C9 C8 1_555 1_555
C10 C9 1_555 1_555
C11 C10 1_555 1_555
H7 C11 1_555 1_555
C12 C11 1_555 1_555
H8 C12 1_555 1_555
C13 C12 1_555 1_555
H9 C13 1_555 1_555
C14 C13 1_555 1_555
H10 C14 1_555 1_555
C15 C10 1_555 1_555
H11 C15 1_555 1_555
C16 C8 1_555 1_555
C17 C16 1_555 1_555
C18 N1 1_555 1_555
C19 H12 1_555 1_555
H13 C19 1_555 1_555
H14 C19 1_555 1_555
C20 H15 1_555 1_555
H16 C20 1_555 1_555
H17 C20 1_555 1_555
C21 C16 1_555 1_555
C22 C21 1_555 1_555
H18 C22 1_555 1_555
C23 C22 1_555 1_555
H19 C23 1_555 1_555
C24 C23 1_555 1_555
H20 C24 1_555 1_555
C25 C24 1_555 1_555
H21 C25 1_555 1_555
C26 C21 1_555 1_555
H22 C26 1_555 1_555
N1 C17 1_555 1_555
N2 C16 1_555 1_555
O1 C7 1_555 1_555
O2 C9 1_555 1_555
O3 C17 1_555 1_555
O4 C18 1_555 1_555
C27 C28 1_555 1_555
C28 H23 1_555 1_555
C29 C28 1_555 1_555
H24 C29 1_555 1_555
C30 C29 1_555 1_555
H25 C30 1_555 1_555
C31 C30 1_555 1_555
H26 C31 1_555 1_555
C32 C27 1_555 1_555
H27 C32 1_555 1_555
C33 C27 1_555 1_555
C34 C33 1_555 1_555
H28 C34 1_555 1_555
C35 C34 1_555 1_555
C36 C35 1_555 1_555
C37 C36 1_555 1_555
H29 C37 1_555 1_555
C38 C37 1_555 1_555
H30 C38 1_555 1_555
C39 C38 1_555 1_555
H31 C39 1_555 1_555
C40 C39 1_555 1_555
H32 C40 1_555 1_555
C41 C36 1_555 1_555
H33 C41 1_555 1_555
C42 C34 1_555 1_555
C43 O7 1_555 1_555
C44 C42 1_555 1_555
C45 H34 1_555 1_555
H35 C45 1_555 1_555
H36 C45 1_555 1_555
C46 H37 1_555 1_555
H38 C46 1_555 1_555
H39 C46 1_555 1_555
C47 C42 1_555 1_555
C48 C47 1_555 1_555
H40 C48 1_555 1_555
C49 C48 1_555 1_555
H41 C49 1_555 1_555
C50 C49 1_555 1_555
H42 C50 1_555 1_555
C51 C50 1_555 1_555
H43 C51 1_555 1_555
C52 C47 1_555 1_555
H44 C52 1_555 1_555
O5 C33 1_555 1_555
O6 C35 1_555 1_555
O8 C44 1_555 1_555
N3 C42 1_555 1_555
N4 C43 1_555 1_555
C5 C6 1_555 1_555
C14 C15 1_555 1_555
C18 N2 1_555 1_555
C19 N1 1_555 1_555
C20 N2 1_555 1_555
C25 C26 1_555 1_555
C31 C32 1_555 1_555
C40 C41 1_555 1_555
C43 N3 1_555 1_555
C44 N4 1_555 1_555
C45 N3 1_555 1_555
C46 N4 1_555 1_555
C51 C52 1_555 1_555

#END
