
#######################################################################
#
#                 Cambridge Crystallographic Data Centre
#                                CCDC 
#
#######################################################################
#
# If this CIF has been generated from an entry in the Cambridge 
# Structural Database, then it will include bibliographic, chemical, 
# crystal, experimental, refinement or atomic coordinate data resulting 
# from the CCDC's data processing and validation procedures.
#
#######################################################################

data_UPIBEB
_chemical_formula_moiety         'C27 H22 N2 O4,0.5(H2 O1)'
_chemical_name_systematic        
'2-Benzoyl-3-(2-oxotetrahydropyrimidin-1(2H)-yl)-1,4-diphenylbut-2-ene-1,4-dione hemihydrate'
_symmetry_cell_setting           orthorhombic
_symmetry_space_group_name_H-M   'P b c n'
_symmetry_Int_Tables_number      60
_space_group_name_Hall           '-P 2n 2ab'
loop_
_symmetry_equiv_pos_site_id
_symmetry_equiv_pos_as_xyz
1 x,y,z
2 1/2-x,1/2-y,1/2+z
3 -x,y,1/2-z
4 1/2+x,1/2-y,-z
5 -x,-y,-z
6 1/2+x,1/2+y,1/2-z
7 x,-y,1/2+z
8 1/2-x,1/2+y,z
_cell_length_a                   11.3010(18)
_cell_length_b                   17.774(3)
_cell_length_c                   22.517(4)
_cell_angle_alpha                90
_cell_angle_beta                 90
_cell_angle_gamma                90
_cell_volume                     4522.85
_exptl_crystal_colour            yellow
_exptl_crystal_description       block
_cell_formula_units_Z            8
loop_
_atom_site_label
_atom_site_type_symbol
_atom_site_fract_x
_atom_site_fract_y
_atom_site_fract_z
O1 O 1.0000 0.0256(3) 0.7500
H23 H 1.002(4) 0.055(2) 0.7200(14)
H23B H 0.998(4) 0.055(2) 0.7800(14)
O2 O 0.96074(18) 0.12168(11) 0.64250(9)
O3 O 0.79238(18) 0.42542(12) 0.63167(10)
N1 N 0.82501(19) 0.20353(13) 0.60565(10)
O4 O 1.1235(2) 0.23781(13) 0.57112(10)
N2 N 0.7692(2) 0.08568(14) 0.64028(12)
H1 H 0.7878 0.0440 0.6572
C1 C 0.9164(3) 0.32596(18) 0.60529(13)
C2 C 0.9186(2) 0.25256(17) 0.59142(12)
C3 C 0.9994(3) 0.16616(18) 0.50809(12)
C4 C 0.8283(2) 0.36233(17) 0.64459(14)
C5 C 0.8562(3) 0.13451(17) 0.63035(12)
C6 C 0.7879(2) 0.32556(17) 0.70026(14)
C7 C 1.0234(3) 0.21940(17) 0.55751(13)
C8 C 1.0802(3) 0.42888(19) 0.66936(18)
H2 H 1.0488 0.3871 0.6886
C9 C 0.8526(3) 0.26899(16) 0.72803(13)
H3 H 0.9222 0.2520 0.7106
C10 C 1.0650(3) 0.43701(17) 0.60889(16)
C11 C 0.7012(2) 0.22153(17) 0.58992(15)
H4 H 0.6867 0.2745 0.5972
H5 H 0.6892 0.2123 0.5479
C12 C 0.6843(3) 0.3507(2) 0.72720(17)
H6 H 0.6403 0.3892 0.7101
O5 O 1.0072(3) 0.37746(15) 0.51974(13)
C13 C 0.9992(3) 0.38019(19) 0.57410(17)
C14 C 0.6450(3) 0.0966(2) 0.62493(18)
H7 H 0.5953 0.0716 0.6539
H8 H 0.6291 0.0747 0.5863
C15 C 1.0813(3) 0.1112(2) 0.49491(14)
H9 H 1.1505 0.1079 0.5171
C16 C 1.1119(3) 0.4994(2) 0.58061(19)
H10 H 1.1030 0.5054 0.5398
C17 C 0.8157(3) 0.23778(18) 0.78073(15)
H11 H 0.8604 0.2004 0.7989
C18 C 1.0619(4) 0.0614(2) 0.44964(19)
H12 H 1.1180 0.0246 0.4413
C19 C 0.7127(3) 0.2620(2) 0.80622(16)
H13 H 0.6867 0.2408 0.8417
C20 C 0.9617(5) 0.0654(3) 0.41695(19)
H14 H 0.9484 0.0309 0.3866
C21 C 0.8981(3) 0.1710(2) 0.47439(14)
H15 H 0.8424 0.2081 0.4825
C22 C 0.6171(3) 0.1772(2) 0.62372(19)
H16 H 0.5389 0.1839 0.6067
H17 H 0.6148 0.1959 0.6642
C23 C 0.6476(3) 0.3178(2) 0.77938(18)
H18 H 0.5773 0.3337 0.7968
C24 C 1.1724(3) 0.5532(2) 0.6138(3)
H19 H 1.2034 0.5956 0.5953
C25 C 1.1414(4) 0.4820(2) 0.7013(2)
H20 H 1.1521 0.4756 0.7419
C26 C 1.1864(4) 0.5435(2) 0.6739(3)
H21 H 1.2269 0.5794 0.6959
C27 C 0.8790(4) 0.1208(3) 0.42869(16)
H22 H 0.8107 0.1242 0.4058
loop_
_geom_bond_atom_site_label_1
_geom_bond_atom_site_label_2
_geom_bond_site_symmetry_1
_geom_bond_site_symmetry_2
O1 H23 1_555 1_555
O2 C5 1_555 1_555
O3 C4 1_555 1_555
N1 C2 1_555 1_555
O4 C7 1_555 1_555
N2 H1 1_555 1_555
C1 C2 1_555 1_555
C2 C7 1_555 1_555
C3 C7 1_555 1_555
C4 C1 1_555 1_555
C5 N1 1_555 1_555
C6 C4 1_555 1_555
C8 H2 1_555 1_555
C9 C6 1_555 1_555
H3 C9 1_555 1_555
C10 C8 1_555 1_555
C11 N1 1_555 1_555
H4 C11 1_555 1_555
H5 C11 1_555 1_555
C12 C6 1_555 1_555
H6 C12 1_555 1_555
O5 C13 1_555 1_555
C13 C1 1_555 1_555
C14 N2 1_555 1_555
H7 C14 1_555 1_555
H8 C14 1_555 1_555
C15 C3 1_555 1_555
H9 C15 1_555 1_555
C16 C10 1_555 1_555
H10 C16 1_555 1_555
C17 C9 1_555 1_555
H11 C17 1_555 1_555
C18 C15 1_555 1_555
H12 C18 1_555 1_555
C19 C17 1_555 1_555
H13 C19 1_555 1_555
C20 C18 1_555 1_555
H14 C20 1_555 1_555
C21 C3 1_555 1_555
H15 C21 1_555 1_555
C22 C11 1_555 1_555
H16 C22 1_555 1_555
H17 C22 1_555 1_555
C23 C12 1_555 1_555
H18 C23 1_555 1_555
C24 C16 1_555 1_555
H19 C24 1_555 1_555
C25 C8 1_555 1_555
H20 C25 1_555 1_555
C26 C24 1_555 1_555
H21 C26 1_555 1_555
C27 C20 1_555 1_555
H22 C27 1_555 1_555
H23B O1 1_555 1_555
N2 C5 1_555 1_555
C10 C13 1_555 1_555
C14 C22 1_555 1_555
C19 C23 1_555 1_555
C21 C27 1_555 1_555
C25 C26 1_555 1_555

#END
