
#######################################################################
#
#                 Cambridge Crystallographic Data Centre
#                                CCDC 
#
#######################################################################
#
# If this CIF has been generated from an entry in the Cambridge 
# Structural Database, then it will include bibliographic, chemical, 
# crystal, experimental, refinement or atomic coordinate data resulting 
# from the CCDC's data processing and validation procedures.
#
#######################################################################

data_UPIBIG
_chemical_formula_moiety         'C22 H21 N1 O1'
_chemical_name_systematic        
1-benzyl-3-(cyclohexa-2,5-dien-1-yl)-5-methyl-1,3-dihydro-2H-indol-2-one
_symmetry_cell_setting           orthorhombic
_symmetry_space_group_name_H-M   'P 21 21 21'
_symmetry_Int_Tables_number      19
_space_group_name_Hall           'P 2ac 2ab'
loop_
_symmetry_equiv_pos_site_id
_symmetry_equiv_pos_as_xyz
1 x,y,z
2 1/2-x,-y,1/2+z
3 1/2+x,1/2-y,-z
4 -x,1/2+y,1/2-z
_cell_length_a                   9.07015(16)
_cell_length_b                   9.23731(19)
_cell_length_c                   20.7228(4)
_cell_angle_alpha                90
_cell_angle_beta                 90
_cell_angle_gamma                90
_cell_volume                     1736.23
_exptl_crystal_colour            colorless
_exptl_crystal_description       block
_cell_formula_units_Z            4
loop_
_atom_site_label
_atom_site_type_symbol
_atom_site_fract_x
_atom_site_fract_y
_atom_site_fract_z
C1 C 0.3927(2) 0.3630(2) 0.50257(11)
C2 C 0.3076(2) 0.2841(2) 0.55504(11)
H1 H 0.2189 0.2408 0.5362
C3 C 0.2633(2) 0.4041(2) 0.59970(10)
C4 C 0.3187(2) 0.5340(2) 0.57559(10)
C5 C 0.2907(2) 0.6644(2) 0.60543(12)
H2 H 0.3281 0.7507 0.5890
C6 C 0.2047(2) 0.6625(3) 0.66094(12)
H3 H 0.1852 0.7494 0.6820
C7 C 0.1471(2) 0.5357(3) 0.68600(12)
C8 C 0.1770(2) 0.4050(3) 0.65455(11)
H4 H 0.1387 0.3188 0.6706
C9 C 0.0498(3) 0.5380(4) 0.74511(15)
H5 H -0.0474 0.5694 0.7333
H6 H 0.0903 0.6036 0.7764
H7 H 0.0448 0.4425 0.7633
C10 C 0.4058(3) 0.1617(2) 0.58395(11)
H8 H 0.4299 0.0955 0.5485
C11 C 0.5482(2) 0.2185(3) 0.60960(12)
H9 H 0.6055 0.2758 0.5825
C12 C 0.5975(3) 0.1926(3) 0.66817(13)
H10 H 0.6870 0.2335 0.6804
C13 C 0.5177(3) 0.1015(4) 0.71576(14)
H11 H 0.5790 0.0192 0.7270
H12 H 0.5016 0.1575 0.7547
C14 C 0.3735(3) 0.0480(3) 0.69165(14)
H13 H 0.3157 -0.0076 0.7192
C15 C 0.3240(3) 0.0749(3) 0.63385(14)
H14 H 0.2320 0.0381 0.6227
C16 C 0.4787(2) 0.6153(3) 0.48173(12)
H15 H 0.5446 0.5666 0.4519
H16 H 0.5387 0.6721 0.5111
C17 C 0.3795(2) 0.7161(2) 0.44411(9)
C18 C 0.2659(3) 0.6627(3) 0.40622(12)
H17 H 0.2489 0.5635 0.4044
C19 C 0.1776(4) 0.7559(3) 0.37101(13)
H18 H 0.1008 0.7193 0.3461
C20 C 0.2030(3) 0.9023(3) 0.37272(12)
H19 H 0.1442 0.9647 0.3487
C21 C 0.3159(3) 0.9568(2) 0.41017(12)
H20 H 0.3332 1.0559 0.4116
C22 C 0.4029(2) 0.8637(2) 0.44534(11)
H21 H 0.4790 0.9010 0.4704
N1 N 0.3985(2) 0.50707(19) 0.51855(9)
O1 O 0.4507(2) 0.3104(2) 0.45493(9)
loop_
_geom_bond_atom_site_label_1
_geom_bond_atom_site_label_2
_geom_bond_site_symmetry_1
_geom_bond_site_symmetry_2
C1 C2 1_555 1_555
C2 H1 1_555 1_555
C3 C2 1_555 1_555
C4 C3 1_555 1_555
C5 C4 1_555 1_555
H2 C5 1_555 1_555
C6 C5 1_555 1_555
H3 C6 1_555 1_555
C7 C6 1_555 1_555
C8 C3 1_555 1_555
H4 C8 1_555 1_555
C9 C7 1_555 1_555
H5 C9 1_555 1_555
H6 C9 1_555 1_555
H7 C9 1_555 1_555
C10 C2 1_555 1_555
H8 C10 1_555 1_555
C11 C10 1_555 1_555
H9 C11 1_555 1_555
C12 C11 1_555 1_555
H10 C12 1_555 1_555
C13 C12 1_555 1_555
H11 C13 1_555 1_555
H12 C13 1_555 1_555
C14 C13 1_555 1_555
H13 C14 1_555 1_555
C15 C10 1_555 1_555
H14 C15 1_555 1_555
C16 H15 1_555 1_555
H16 C16 1_555 1_555
C17 C16 1_555 1_555
C18 C17 1_555 1_555
H17 C18 1_555 1_555
C19 C18 1_555 1_555
H18 C19 1_555 1_555
C20 C19 1_555 1_555
H19 C20 1_555 1_555
C21 C20 1_555 1_555
H20 C21 1_555 1_555
C22 C17 1_555 1_555
H21 C22 1_555 1_555
N1 C1 1_555 1_555
O1 C1 1_555 1_555
C4 N1 1_555 1_555
C7 C8 1_555 1_555
C14 C15 1_555 1_555
C16 N1 1_555 1_555
C21 C22 1_555 1_555

#END
