
#######################################################################
#
#                 Cambridge Crystallographic Data Centre
#                                CCDC 
#
#######################################################################
#
# If this CIF has been generated from an entry in the Cambridge 
# Structural Database, then it will include bibliographic, chemical, 
# crystal, experimental, refinement or atomic coordinate data resulting 
# from the CCDC's data processing and validation procedures.
#
#######################################################################

data_UPICOM
_chemical_formula_moiety         'C36 H36 N24 O12,3.72(C1 O2)'
_chemical_name_systematic        'cucurbit[6]uril carbon dioxide'
_symmetry_cell_setting           rhombohedral
_symmetry_space_group_name_H-M   'R -3'
_symmetry_Int_Tables_number      148
_space_group_name_Hall           '-R 3'
loop_
_symmetry_equiv_pos_site_id
_symmetry_equiv_pos_as_xyz
1 x,y,z
2 -y,x-y,z
3 -x+y,-x,z
4 2/3+x,1/3+y,1/3+z
5 2/3-y,1/3+x-y,1/3+z
6 2/3-x+y,1/3-x,1/3+z
7 1/3+x,2/3+y,2/3+z
8 1/3-y,2/3+x-y,2/3+z
9 1/3-x+y,2/3-x,2/3+z
10 -x,-y,-z
11 y,-x+y,-z
12 x-y,x,-z
13 1/3-x,2/3-y,2/3-z
14 1/3+y,2/3-x+y,2/3-z
15 1/3+x-y,2/3+x,2/3-z
16 2/3-x,1/3-y,1/3-z
17 2/3+y,1/3-x+y,1/3-z
18 2/3+x-y,1/3+x,1/3-z
_cell_length_a                   31.782(5)
_cell_length_b                   31.782(5)
_cell_length_c                   12.388(3)
_cell_angle_alpha                90
_cell_angle_beta                 90
_cell_angle_gamma                120
_cell_volume                     10836.6
_exptl_crystal_colour            colorless
_exptl_crystal_description       needle
_cell_formula_units_Z            9
loop_
_atom_site_label
_atom_site_type_symbol
_atom_site_fract_x
_atom_site_fract_y
_atom_site_fract_z
O1 O 0.2274(3) 0.9874(3) 0.1814(6)
O2 O 0.1335(4) 0.7860(3) -0.0412(11)
O3 O 0.1246(4) 0.9574(4) 0.3161(8)
O4 O 0.0267(6) 0.7539(3) 0.1075(11)
O5 O 0.1058(4) 0.9071(3) 0.5945(9)
O6 O 0.0281(4) 0.7162(3) 0.3546(7)
N1 N 0.2401(3) 0.9384(3) 0.0625(7)
N2 N 0.1705(3) 0.9384(3) 0.0558(8)
N3 N 0.2044(3) 0.8605(3) -0.0276(7)
N4 N 0.1329(4) 0.8575(3) -0.0233(7)
N5 N 0.0956(3) 0.9158(4) 0.1576(7)
N6 N 0.0542(4) 0.8824(4) 0.3055(8)
N7 N 0.0591(4) 0.8363(3) 0.0730(9)
N8 N 0.0088(5) 0.8038(4) 0.2133(8)
N9 N 0.0412(3) 0.8510(4) 0.4903(6)
N10 N 0.0685(3) 0.8232(4) 0.6210(7)
N11 N 0.0077(3) 0.7742(3) 0.3958(5)
N12 N 0.0353(3) 0.7470(3) 0.5254(6)
C1 C 0.2146(4) 0.9581(4) 0.1079(8)
C2 C 0.2169(3) 0.9107(3) -0.0342(7)
H1 H 0.2359 0.9269 -0.1008
C3 C 0.1673(3) 0.9086(3) -0.0325(7)
H2 H 0.1621 0.9217 -0.1014
C4 C 0.1545(3) 0.8300(3) -0.0269(11)
C5 C 0.1342(4) 0.9504(4) 0.0882(8)
H3 H 0.1508 0.9821 0.1260
H4 H 0.1192 0.9547 0.0222
C6 C 0.0810(4) 0.8364(4) -0.0275(8)
H5 H 0.0731 0.8546 -0.0809
H6 H 0.0665 0.8025 -0.0535
C7 C 0.0936(4) 0.9228(4) 0.2653(8)
C8 C 0.0525(3) 0.8748(3) 0.1168(8)
H7 H 0.0358 0.8852 0.0637
C9 C 0.0213(3) 0.8534(3) 0.2204(7)
H8 H -0.0083 0.8568 0.2188
C10 C 0.0293(4) 0.7929(3) 0.1308(10)
C11 C 0.0376(5) 0.8836(5) 0.4150(10)
H9 H 0.0032 0.8756 0.4114
H10 H 0.0569 0.9172 0.4431
C12 C -0.0195(4) 0.7697(4) 0.2982(7)
H11 H -0.0471 0.7745 0.3169
H12 H -0.0331 0.7362 0.2699
C13 C 0.0748(5) 0.8650(5) 0.5684(15)
C14 C 0.0061(2) 0.8002(3) 0.4913(5)
H13 H -0.0274 0.7939 0.5067
C15 C 0.0251(3) 0.7802(3) 0.5812(6)
H14 H 0.0005 0.7638 0.6396
C16 C 0.0238(4) 0.7429(4) 0.4199(6)
C17 C 0.0948(3) 0.8232(3) 0.7143(7)
H15 H 0.0713 0.8023 0.7701
H16 H 0.1129 0.8566 0.7435
C18 C 0.0427(3) 0.7124(4) 0.5798(8)
H17 H 0.0294 0.6826 0.5350
H18 H 0.0242 0.7036 0.6483
O1L O 0.1059(3) 0.6793(3) 0.4853(6)
O2L O 0.1998(4) 0.8807(3) 0.7079(11)
O3L O 0.2087(4) 0.7093(4) 0.3506(8)
O4L O 0.3066(6) 0.9128(3) 0.5592(11)
O5L O 0.2275(4) 0.7596(3) 0.0722(9)
O6L O 0.3052(4) 0.9505(3) 0.3121(7)
N1L N 0.0932(3) 0.7283(3) 0.6042(7)
N2L N 0.1628(3) 0.7283(3) 0.6109(8)
N3L N 0.1289(3) 0.8062(3) 0.6943(7)
N4L N 0.2004(4) 0.8092(3) 0.6900(7)
N5L N 0.2377(3) 0.7509(4) 0.5091(7)
N6L N 0.2791(4) 0.7843(4) 0.3612(8)
N7L N 0.2742(4) 0.8304(3) 0.5937(9)
N8L N 0.3245(5) 0.8629(4) 0.4534(8)
N9L N 0.2921(3) 0.8157(4) 0.1764(6)
N10L N 0.2648(3) 0.8435(4) 0.0457(7)
N11L N 0.3256(3) 0.8925(3) 0.2709(5)
N12L N 0.2980(3) 0.9197(3) 0.1413(6)
C1L C 0.1187(4) 0.7086(4) 0.5588(8)
C2L C 0.1164(3) 0.7560(3) 0.7009(7)
H1L H 0.0974 0.7398 0.7675
C3L C 0.1660(3) 0.7581(3) 0.6992(7)
H2L H 0.1712 0.7450 0.7681
C4L C 0.1788(3) 0.8367(3) 0.6936(11)
C5L C 0.1991(4) 0.7163(4) 0.5785(8)
H3L H 0.1825 0.6846 0.5407
H4L H 0.2141 0.7120 0.6445
C6L C 0.2523(4) 0.8303(4) 0.6942(8)
H5L H 0.2602 0.8121 0.7476
H6L H 0.2668 0.8642 0.7202
C7L C 0.2397(4) 0.7439(4) 0.4014(8)
C8L C 0.2808(3) 0.7919(3) 0.5499(8)
H7L H 0.2975 0.7815 0.6030
C9L C 0.3120(3) 0.8133(3) 0.4463(7)
H8L H 0.3416 0.8099 0.4479
C10L C 0.3040(4) 0.8738(3) 0.5359(10)
C11L C 0.2957(5) 0.7831(5) 0.2517(10)
H9L H 0.3301 0.7911 0.2553
H10L H 0.2764 0.7495 0.2236
C12L C 0.3528(4) 0.8970(4) 0.3685(7)
H11L H 0.3804 0.8922 0.3498
H12L H 0.3664 0.9305 0.3968
C13L C 0.2585(5) 0.8017(5) 0.0983(15)
C14L C 0.3272(2) 0.8665(3) 0.1754(5)
H13L H 0.3607 0.8728 0.1600
C15L C 0.3082(3) 0.8865(3) 0.0855(6)
H14L H 0.3328 0.9029 0.0271
C16L C 0.3095(4) 0.9238(4) 0.2468(6)
C17L C 0.2385(3) 0.8435(3) -0.0476(7)
H15L H 0.2620 0.8644 -0.1034
H16L H 0.2204 0.8101 -0.0768
C18L C 0.2906(3) 0.9543(4) 0.0869(8)
H17L H 0.3039 0.9841 0.1317
H18L H 0.3091 0.9631 0.0184
C19 C 0.0364(3) 0.9269(3) 0.7135(6)
O7 O 0.0244(3) 0.9412(2) 0.6349(6)
O8 O 0.04964(17) 0.91400(19) 0.7837(5)
C20 C 0.1241(2) 0.7869(2) 0.2435(5)
O9 O 0.11891(12) 0.81846(12) 0.2644(4)
O10 O 0.1289(3) 0.7550(2) 0.2213(4)
C21 C 0.0040(9) 0.9576(10) 0.847(2)
O11 O -0.0371(8) 0.9384(5) 0.8056(14)
O12 O 0.0364(11) 0.9666(16) 0.914(3)
C22? C 0.1965(6) 0.9588(6) 0.1188(13)
C23? C 0.0257(8) 0.7890(6) 0.1622(16)
C24? C 0.0325(6) 0.8694(6) 0.4513(14)
C25? C -0.0181(5) 0.7550(5) 0.3236(14)
C26? C 0.0790(6) 0.8527(6) 0.5831(18)
C27? C 0.0111(4) 0.7849(4) 0.5127(13)
C28? C 0.0352(5) 0.7678(4) 0.5959(12)
C29? C 0.0313(7) 0.7304(7) 0.4308(11)
C30? C 0.1094(7) 0.8149(4) 0.7165(10)
C31? C 0.0556(7) 0.7017(5) 0.5833(11)
C32? C 0.1989(6) 0.9148(4) -0.0301(9)
C33? C 0.1480(6) 0.9083(5) -0.0204(11)
C34? C 0.1392(7) 0.8318(6) -0.0233(18)
C35? C 0.1136(8) 0.9451(7) 0.1146(14)
C36? C 0.0637(7) 0.8333(7) -0.0071(15)
C37? C 0.0848(8) 0.9125(7) 0.2972(16)
C38? C 0.0352(5) 0.8656(5) 0.1536(13)
C39? C 0.0098(6) 0.8418(5) 0.2600(14)
H19? H -0.0025 0.8582 0.4596
H20? H 0.0508 0.9019 0.4852
H21? H -0.0486 0.7526 0.3504
H22? H -0.0269 0.7246 0.2841
H23? H -0.0226 0.7760 0.5345
H24? H 0.0128 0.7501 0.6573
H25? H 0.0893 0.7937 0.7762
H26? H 0.1267 0.8486 0.7442
H27? H 0.0433 0.6729 0.5358
H28? H 0.0376 0.6911 0.6525
H29? H 0.2148 0.9304 -0.0999
H30? H 0.1398 0.9201 -0.0875
H31? H 0.1293 0.9765 0.1535
H32? H 0.0949 0.9481 0.0542
H33? H 0.0532 0.8509 -0.0561
H34? H 0.0502 0.7998 -0.0352
H35? H 0.0146 0.8745 0.1090
H36? H -0.0224 0.8402 0.2661
N13? N 0.2248(5) 0.9453(4) 0.0625(12)
N14? N 0.0774(5) 0.8123(5) 0.6314(14)
N15? N 0.0114(4) 0.7583(4) 0.4153(10)
N16? N 0.0466(5) 0.7366(4) 0.5343(9)
N17? N 0.1520(6) 0.9384(5) 0.0679(10)
N18? N 0.1888(5) 0.8651(4) -0.0232(11)
N19? N 0.1155(6) 0.8567(5) -0.0086(14)
N20? N 0.0792(5) 0.9085(6) 0.1877(14)
N21? N 0.0437(5) 0.8745(6) 0.3385(12)
N22? N 0.0443(5) 0.8311(5) 0.0974(14)
N23? N 0.0041(6) 0.7946(5) 0.2499(14)
N24? N 0.0430(6) 0.8366(4) 0.5103(15)
O13? O 0.2100(4) 0.9896(4) 0.1907(10)
O14? O 0.1221(7) 0.7872(6) -0.025(2)
O15? O 0.1146(6) 0.9492(5) 0.3452(11)
O16? O 0.0210(7) 0.7505(6) 0.1275(16)
O17? O 0.1089(6) 0.8958(4) 0.6037(16)
O18? O 0.0354(6) 0.7047(5) 0.3627(11)
loop_
_geom_bond_atom_site_label_1
_geom_bond_atom_site_label_2
_geom_bond_site_symmetry_1
_geom_bond_site_symmetry_2
O1 C1 1_555 1_555
O2 C4 1_555 1_555
O3 C7 1_555 1_555
O4 C10 1_555 1_555
O5 C13 1_555 1_555
O6 C16 1_555 1_555
N1 C1 1_555 1_555
N2 C1 1_555 1_555
N3 C2 1_555 1_555
N4 C3 1_555 1_555
N5 C5 1_555 1_555
N6 C7 1_555 1_555
N7 C6 1_555 1_555
N8 C9 1_555 1_555
N9 C11 1_555 1_555
N10 C13 1_555 1_555
N11 C12 1_555 1_555
N12 C15 1_555 1_555
C2 N1 1_555 1_555
H1 C2 1_555 1_555
C3 N2 1_555 1_555
H2 C3 1_555 1_555
C4 N3 1_555 1_555
C5 N2 1_555 1_555
H3 C5 1_555 1_555
H4 C5 1_555 1_555
C6 N4 1_555 1_555
H5 C6 1_555 1_555
H6 C6 1_555 1_555
C7 N5 1_555 1_555
C8 N5 1_555 1_555
H7 C8 1_555 1_555
C9 N6 1_555 1_555
H8 C9 1_555 1_555
C10 N7 1_555 1_555
C11 N6 1_555 1_555
H9 C11 1_555 1_555
H10 C11 1_555 1_555
C12 N8 1_555 1_555
H11 C12 1_555 1_555
H12 C12 1_555 1_555
C13 N9 1_555 1_555
C14 N9 1_555 1_555
H13 C14 1_555 1_555
C15 N10 1_555 1_555
H14 C15 1_555 1_555
C16 N11 1_555 1_555
C17 N10 1_555 1_555
H15 C17 1_555 1_555
H16 C17 1_555 1_555
C18 N12 1_555 1_555
H17 C18 1_555 1_555
H18 C18 1_555 1_555
C19 O7 1_555 1_555
O8 C19 1_555 1_555
C20 O9 1_555 1_555
O10 C20 1_555 1_555
C21 O11 1_555 1_555
O12 C21 1_555 1_555
O1L C1L 1_555 1_555
O2L C4L 1_555 1_555
O3L C7L 1_555 1_555
O4L C10L 1_555 1_555
O5L C13L 1_555 1_555
O6L C16L 1_555 1_555
N1L C18 1_555 1_555
N2L C1L 1_555 1_555
N3L C17 1_555 1_555
N4L C3L 1_555 1_555
N5L C5L 1_555 1_555
N6L C7L 1_555 1_555
N7L C6L 1_555 1_555
N8L C9L 1_555 1_555
N9L C11L 1_555 1_555
N10L C13L 1_555 1_555
N11L C12L 1_555 1_555
N12L C15L 1_555 1_555
C1L N1L 1_555 1_555
C2L N1L 1_555 1_555
H1L C2L 1_555 1_555
C3L N2L 1_555 1_555
H2L C3L 1_555 1_555
C4L N3L 1_555 1_555
C5L N2L 1_555 1_555
H3L C5L 1_555 1_555
H4L C5L 1_555 1_555
C6L N4L 1_555 1_555
H5L C6L 1_555 1_555
H6L C6L 1_555 1_555
C7L N5L 1_555 1_555
C8L N5L 1_555 1_555
H7L C8L 1_555 1_555
C9L N6L 1_555 1_555
H8L C9L 1_555 1_555
C10L N7L 1_555 1_555
C11L N6L 1_555 1_555
H9L C11L 1_555 1_555
H10L C11L 1_555 1_555
C12L N8L 1_555 1_555
H11L C12L 1_555 1_555
H12L C12L 1_555 1_555
C13L N9L 1_555 1_555
C14L N9L 1_555 1_555
H13L C14L 1_555 1_555
C15L N10L 1_555 1_555
H14L C15L 1_555 1_555
C16L N11L 1_555 1_555
C17L N3 1_555 1_555
H15L C17L 1_555 1_555
H16L C17L 1_555 1_555
C18L N1 1_555 1_555
H17L C18L 1_555 1_555
H18L C18L 1_555 1_555
N4 C4 1_555 1_555
N7 C8 1_555 1_555
N8 C10 1_555 1_555
N11 C14 1_555 1_555
N12 C16 1_555 1_555
C2 C3 1_555 1_555
C8 C9 1_555 1_555
C14 C15 1_555 1_555
N3L C2L 1_555 1_555
N4L C4L 1_555 1_555
N7L C8L 1_555 1_555
N8L C10L 1_555 1_555
N10L C17L 1_555 1_555
N11L C14L 1_555 1_555
N12L C16L 1_555 1_555
N12L C18L 1_555 1_555
C2L C3L 1_555 1_555
C8L C9L 1_555 1_555
C14L C15L 1_555 1_555

#END
