
#######################################################################
#
#                 Cambridge Crystallographic Data Centre
#                                CCDC 
#
#######################################################################
#
# If this CIF has been generated from an entry in the Cambridge 
# Structural Database, then it will include bibliographic, chemical, 
# crystal, experimental, refinement or atomic coordinate data resulting 
# from the CCDC's data processing and validation procedures.
#
#######################################################################

data_UPIDUU
_chemical_formula_moiety         'C36 H33 N1 O2,C1 H1 Cl3,H2 O1'
_chemical_name_systematic        
'2-(1-butyl-2,6-bis(2-(4-methylphenyl)vinyl)pyridin-4(1H)-ylidene)-1H-indene-1,3(2H)-dione chloroform solvate monohydrate'
_symmetry_cell_setting           triclinic
_symmetry_space_group_name_H-M   'P -1'
_symmetry_Int_Tables_number      2
_space_group_name_Hall           '-P 1'
loop_
_symmetry_equiv_pos_site_id
_symmetry_equiv_pos_as_xyz
1 x,y,z
2 -x,-y,-z
_cell_length_a                   8.5014(4)
_cell_length_b                   12.7359(6)
_cell_length_c                   16.5492(8)
_cell_angle_alpha                109.704(2)
_cell_angle_beta                 97.327(2)
_cell_angle_gamma                95.420(2)
_cell_volume                     1654.91
_exptl_crystal_colour            red
_exptl_crystal_description       Block
_cell_formula_units_Z            2
loop_
_atom_site_label
_atom_site_type_symbol
_atom_site_fract_x
_atom_site_fract_y
_atom_site_fract_z
Cl1 Cl 0.8078(4) 0.4001(2) 0.9146(2)
Cl2 Cl 0.7002(2) 0.58538(15) 1.02380(13)
Cl3 Cl 0.8037(3) 0.62049(19) 0.87813(14)
C1 C 0.7233(7) 0.5129(4) 0.9130(5)
H1 H 0.6149 0.4843 0.8793
O1 O 0.9012(9) 0.4328(5) 0.8469(8)
H2 H 0.9807 0.4292 0.8201
H3 H 0.8959 0.5014 0.8754
O2 O 0.1040(3) 0.16075(15) 0.50205(12)
O3 O 0.4496(3) 0.41770(16) 0.75017(13)
N1 N 0.2757(4) 0.56434(19) 0.48972(15)
C2 C 0.1914(4) 0.2077(2) 0.57347(15)
C3 C 0.2328(4) 0.1474(2) 0.63492(14)
C4 C 0.1928(4) 0.0353(2) 0.62569(18)
H4 H 0.1213 -0.0143 0.5777
C5 C 0.2631(5) -0.0004(3) 0.6905(2)
H5 H 0.2374 -0.0748 0.6864
C6 C 0.3717(5) 0.0741(3) 0.76168(19)
H6 H 0.4201 0.0484 0.8036
C7 C 0.4078(5) 0.1850(2) 0.77036(18)
H7 H 0.4770 0.2352 0.8190
C8 C 0.3400(4) 0.2213(2) 0.70602(15)
C9 C 0.3665(4) 0.3339(2) 0.69655(15)
C10 C 0.2705(3) 0.3219(2) 0.61285(15)
C11 C 0.2695(4) 0.4047(2) 0.57324(15)
C12 C 0.1746(4) 0.3871(2) 0.49209(15)
H8 H 0.1064 0.3191 0.4645
C13 C 0.1777(4) 0.4643(2) 0.45225(16)
C14 C 0.0660(4) 0.4395(3) 0.36995(17)
H9 H 0.0320 0.4997 0.3563
C15 C 0.0123(4) 0.3369(2) 0.31515(17)
H10 H 0.0535 0.2788 0.3289
C16 C -0.1042(4) 0.3035(2) 0.23537(16)
C17 C -0.1398(5) 0.1909(2) 0.18291(18)
H11 H -0.0841 0.1393 0.1985
C18 C -0.2522(6) 0.1525(3) 0.1098(2)
H12 H -0.2752 0.0755 0.0783
C19 C -0.3339(5) 0.2263(3) 0.08099(19)
C20 C -0.2964(5) 0.3415(3) 0.1338(2)
H13 H -0.3475 0.3939 0.1167
C21 C -0.1891(4) 0.3775(2) 0.20795(17)
H14 H -0.1708 0.4537 0.2419
C22 C -0.4571(6) 0.1867(4) -0.0007(2)
H15 H -0.4119 0.2032 -0.0461
H16 H -0.5487 0.2248 0.0102
H17 H -0.4895 0.1069 -0.0183
C23 C 0.3724(4) 0.5112(2) 0.60964(16)
H18 H 0.4408 0.5276 0.6623
C24 C 0.3736(4) 0.5880(2) 0.57037(17)
C25 C 0.4809(4) 0.6966(2) 0.60966(19)
H19 H 0.5118 0.7326 0.5726
C26 C 0.5353(5) 0.7455(3) 0.69246(19)
H20 H 0.4959 0.7101 0.7281
C27 C 0.6465(4) 0.8453(2) 0.7359(2)
C28 C 0.6897(5) 0.8838(3) 0.8267(2)
H21 H 0.6418 0.8455 0.8582
C29 C 0.8041(5) 0.9794(3) 0.8704(3)
H22 H 0.8288 1.0033 0.9308
C30 C 0.8824(5) 1.0403(3) 0.8280(3)
C31 C 0.8393(5) 0.9993(3) 0.7403(3)
H23 H 0.8888 1.0380 0.7095
C32 C 0.7294(5) 0.9062(3) 0.6928(2)
H24 H 0.7092 0.8829 0.6324
C33 C 1.0029(7) 1.1406(4) 0.8780(5)
H25 H 1.1056 1.1275 0.8616
H26 H 1.0094 1.1546 0.9391
H27 H 0.9718 1.2049 0.8656
C34 C 0.3094(6) 0.6424(3) 0.4344(3)
H28 H 0.4216 0.6752 0.4478
H29 H 0.2822 0.5991 0.3725
C35 C 0.2152(6) 0.7237(5) 0.4576(3)
H30 H 0.2453 0.7697 0.5188
H31 H 0.1032 0.6913 0.4462
C36 C 0.2490(7) 0.7993(6) 0.3950(5)
H32 H 0.2712 0.7509 0.3396
H33 H 0.1550 0.8332 0.3838
C37 C 0.3742(10) 0.8796(6) 0.4358(5)
H34 H 0.4263 0.8855 0.4905
H35 H 0.4092 0.9296 0.4097
loop_
_geom_bond_atom_site_label_1
_geom_bond_atom_site_label_2
_geom_bond_site_symmetry_1
_geom_bond_site_symmetry_2
Cl1 C1 1_555 1_555
Cl2 C1 1_555 1_555
Cl3 C1 1_555 1_555
C1 H1 1_555 1_555
O1 H2 1_555 1_555
H3 O1 1_555 1_555
O2 C2 1_555 1_555
O3 C9 1_555 1_555
N1 C13 1_555 1_555
C2 C3 1_555 1_555
C3 C4 1_555 1_555
C4 H4 1_555 1_555
C5 C4 1_555 1_555
H5 C5 1_555 1_555
C6 C5 1_555 1_555
H6 C6 1_555 1_555
C7 C6 1_555 1_555
H7 C7 1_555 1_555
C8 C3 1_555 1_555
C9 C8 1_555 1_555
C10 C2 1_555 1_555
C11 C10 1_555 1_555
C12 C11 1_555 1_555
H8 C12 1_555 1_555
C13 C12 1_555 1_555
C14 C13 1_555 1_555
H9 C14 1_555 1_555
C15 C14 1_555 1_555
H10 C15 1_555 1_555
C16 C15 1_555 1_555
C17 C16 1_555 1_555
H11 C17 1_555 1_555
C18 C17 1_555 1_555
H12 C18 1_555 1_555
C19 C18 1_555 1_555
C20 C19 1_555 1_555
H13 C20 1_555 1_555
C21 C16 1_555 1_555
H14 C21 1_555 1_555
C22 C19 1_555 1_555
H15 C22 1_555 1_555
H16 C22 1_555 1_555
H17 C22 1_555 1_555
C23 C11 1_555 1_555
H18 C23 1_555 1_555
C24 N1 1_555 1_555
C25 C24 1_555 1_555
H19 C25 1_555 1_555
C26 C25 1_555 1_555
H20 C26 1_555 1_555
C27 C26 1_555 1_555
C28 C27 1_555 1_555
H21 C28 1_555 1_555
C29 C28 1_555 1_555
H22 C29 1_555 1_555
C30 C29 1_555 1_555
C31 C30 1_555 1_555
H23 C31 1_555 1_555
C32 C27 1_555 1_555
H24 C32 1_555 1_555
C33 C30 1_555 1_555
H25 C33 1_555 1_555
H26 C33 1_555 1_555
H27 C33 1_555 1_555
C34 N1 1_555 1_555
H28 C34 1_555 1_555
H29 C34 1_555 1_555
C35 C34 1_555 1_555
H30 C35 1_555 1_555
H31 C35 1_555 1_555
C36 C35 1_555 1_555
H32 C36 1_555 1_555
H33 C36 1_555 1_555
C37 C36 1_555 1_555
H34 C37 1_555 1_555
H35 C37 1_555 1_555
C7 C8 1_555 1_555
C9 C10 1_555 1_555
C20 C21 1_555 1_555
C23 C24 1_555 1_555
C31 C32 1_555 1_555

#END
