
#######################################################################
#
#                 Cambridge Crystallographic Data Centre
#                                CCDC 
#
#######################################################################
#
# If this CIF has been generated from an entry in the Cambridge 
# Structural Database, then it will include bibliographic, chemical, 
# crystal, experimental, refinement or atomic coordinate data resulting 
# from the CCDC's data processing and validation procedures.
#
#######################################################################

data_UPIFAC
_chemical_formula_moiety         'C12 H20 O4'
_chemical_name_systematic        
3,3,5-trimethylhexahydro-2H-oxireno[f]chromene-2,7a(5H)-diol
_symmetry_cell_setting           orthorhombic
_symmetry_space_group_name_H-M   'P 21 21 21'
_symmetry_Int_Tables_number      19
_space_group_name_Hall           'P 2ac 2ab'
loop_
_symmetry_equiv_pos_site_id
_symmetry_equiv_pos_as_xyz
1 x,y,z
2 1/2-x,-y,1/2+z
3 1/2+x,1/2-y,-z
4 -x,1/2+y,1/2-z
_cell_length_a                   8.05049(8)
_cell_length_b                   11.43870(12)
_cell_length_c                   12.60616(16)
_cell_angle_alpha                90
_cell_angle_beta                 90
_cell_angle_gamma                90
_cell_volume                     1160.87
_exptl_crystal_colour            colorless
_exptl_crystal_description       block
_cell_formula_units_Z            4
loop_
_atom_site_label
_atom_site_type_symbol
_atom_site_fract_x
_atom_site_fract_y
_atom_site_fract_z
O1 O 0.31791(10) 0.44539(7) 0.40998(7)
O2 O 0.61926(10) 0.40152(7) 0.32488(7)
H1 H 0.5315 0.3752 0.3518
O3 O 0.46887(10) 0.65547(7) 0.16930(6)
O4 O 0.22445(10) 0.73998(7) 0.31063(7)
H2 H 0.2916 0.7728 0.2692
C1 C 0.33611(14) 0.57071(10) 0.40177(10)
H3 H 0.2874 0.6078 0.4665
C2 C 0.52560(14) 0.59089(10) 0.40199(9)
C3 C 0.60142(14) 0.52457(10) 0.30631(10)
H4 H 0.7151 0.5571 0.2941
C4 C 0.50550(15) 0.53834(10) 0.20422(10)
H5 H 0.5358 0.4821 0.1467
C5 C 0.33298(14) 0.58092(10) 0.20153(10)
H6 H 0.2615 0.5495 0.1432
C6 C 0.24320(14) 0.61681(10) 0.30300(10)
C7 C 0.06595(14) 0.56805(10) 0.30110(11)
H7 H 0.0012 0.6047 0.3590
H8 H 0.0128 0.5897 0.2331
C8 C 0.05951(14) 0.43604(11) 0.31384(10)
H9 H -0.0575 0.4096 0.3176
H10 H 0.1127 0.3979 0.2521
C9 C 0.14989(14) 0.40251(10) 0.41460(10)
H11 H 0.0921 0.4390 0.4765
C10 C 0.16100(16) 0.27224(11) 0.43201(10)
H12 H 0.2191 0.2360 0.3721
H13 H 0.0489 0.2395 0.4376
H14 H 0.2223 0.2566 0.4977
C11 C 0.60007(16) 0.54390(11) 0.50596(10)
H15 H 0.5658 0.5941 0.5651
H16 H 0.7215 0.5436 0.5008
H17 H 0.5603 0.4641 0.5183
C12 C 0.57289(15) 0.72109(10) 0.39600(11)
H18 H 0.5453 0.7516 0.3255
H19 H 0.6924 0.7298 0.4086
H20 H 0.5111 0.7647 0.4500
loop_
_geom_bond_atom_site_label_1
_geom_bond_atom_site_label_2
_geom_bond_site_symmetry_1
_geom_bond_site_symmetry_2
O1 C1 1_555 1_555
O2 H1 1_555 1_555
O3 C4 1_555 1_555
O4 H2 1_555 1_555
C1 H3 1_555 1_555
C2 C1 1_555 1_555
C3 O2 1_555 1_555
H4 C3 1_555 1_555
C4 C3 1_555 1_555
H5 C4 1_555 1_555
C5 O3 1_555 1_555
H6 C5 1_555 1_555
C6 O4 1_555 1_555
C7 C6 1_555 1_555
H7 C7 1_555 1_555
H8 C7 1_555 1_555
C8 C7 1_555 1_555
H9 C8 1_555 1_555
H10 C8 1_555 1_555
C9 O1 1_555 1_555
H11 C9 1_555 1_555
C10 C9 1_555 1_555
H12 C10 1_555 1_555
H13 C10 1_555 1_555
H14 C10 1_555 1_555
C11 C2 1_555 1_555
H15 C11 1_555 1_555
H16 C11 1_555 1_555
H17 C11 1_555 1_555
C12 C2 1_555 1_555
H18 C12 1_555 1_555
H19 C12 1_555 1_555
H20 C12 1_555 1_555
C1 C6 1_555 1_555
C2 C3 1_555 1_555
C4 C5 1_555 1_555
C5 C6 1_555 1_555
C8 C9 1_555 1_555

#END
