
#######################################################################
#
#                 Cambridge Crystallographic Data Centre
#                                CCDC 
#
#######################################################################
#
# If this CIF has been generated from an entry in the Cambridge 
# Structural Database, then it will include bibliographic, chemical, 
# crystal, experimental, refinement or atomic coordinate data resulting 
# from the CCDC's data processing and validation procedures.
#
#######################################################################

data_UPILIQ
_chemical_formula_moiety         'C19 H10 F3 N1 O2'
_chemical_name_systematic        
3-phenyl-7-(trifluoromethoxy)-5H-indeno[1,2-b]pyridin-5-one
_symmetry_cell_setting           triclinic
_symmetry_space_group_name_H-M   'P -1'
_symmetry_Int_Tables_number      2
_space_group_name_Hall           '-P 1'
loop_
_symmetry_equiv_pos_site_id
_symmetry_equiv_pos_as_xyz
1 x,y,z
2 -x,-y,-z
_cell_length_a                   5.8910(5)
_cell_length_b                   7.7688(6)
_cell_length_c                   16.6580(14)
_cell_angle_alpha                84.298(6)
_cell_angle_beta                 82.177(7)
_cell_angle_gamma                84.893(6)
_cell_volume                     749.331
_exptl_crystal_colour            colorless
_exptl_crystal_description       block
_cell_formula_units_Z            2
loop_
_atom_site_label
_atom_site_type_symbol
_atom_site_fract_x
_atom_site_fract_y
_atom_site_fract_z
O1 O 1.4684(3) 0.0423(2) -0.11831(11)
N1 N 0.7447(3) 0.3586(3) -0.05919(12)
C1 C 1.1166(3) 0.1997(3) -0.06265(13)
O2 O 1.2040(4) 0.1268(3) -0.42180(12)
C2 C 0.9262(3) 0.2836(3) 0.06475(13)
C3 C 0.9680(4) 0.2560(3) -0.18758(14)
C4 C 1.1839(4) 0.1659(3) -0.20435(14)
F1 F 1.3638(5) 0.1679(4) -0.54421(12)
C5 C 0.9282(3) 0.2780(3) -0.09931(13)
C6 C 1.2868(4) 0.1238(3) -0.12674(14)
C7 C 0.9098(4) 0.2913(3) 0.15441(13)
C8 C 1.2681(4) 0.1247(3) -0.28217(15)
H1 H 1.4106 0.0643 -0.2935
C9 C 0.7501(4) 0.3599(3) 0.02153(14)
H2 H 0.6253 0.4168 0.0511
C10 C 1.1169(4) 0.2011(3) 0.01966(13)
H3 H 1.2400 0.1489 0.0449
F2 F 1.1889(7) 0.3795(4) -0.49015(19)
C11 C 0.8811(5) 0.3009(4) 0.32346(17)
H4 H 0.8714 0.3039 0.3795
C12 C 0.7114(5) 0.3583(4) 0.20000(16)
H5 H 0.5854 0.4010 0.1739
C13 C 1.1312(5) 0.1772(3) -0.34232(15)
C14 C 1.0931(4) 0.2300(4) 0.19636(15)
H6 H 1.2285 0.1848 0.1679
C15 C 0.8336(4) 0.3044(4) -0.24850(15)
H7 H 0.6898 0.3632 -0.2374
C16 C 0.6983(5) 0.3624(4) 0.28323(17)
H8 H 0.5638 0.4075 0.3123
C17 C 1.0780(5) 0.2350(4) 0.28001(17)
H9 H 1.2030 0.1932 0.3068
C18 C 0.9172(5) 0.2636(4) -0.32705(16)
H10 H 0.8289 0.2945 -0.3692
F3 F 1.4988(6) 0.2742(7) -0.45302(18)
C19 C 1.3083(7) 0.2375(6) -0.4756(2)
loop_
_geom_bond_atom_site_label_1
_geom_bond_atom_site_label_2
_geom_bond_site_symmetry_1
_geom_bond_site_symmetry_2
O1 C6 1_555 1_555
N1 C5 1_555 1_555
C1 C5 1_555 1_555
O2 C13 1_555 1_555
C2 C7 1_555 1_555
C3 C4 1_555 1_555
C4 C6 1_555 1_555
F1 C19 1_555 1_555
C5 C3 1_555 1_555
C6 C1 1_555 1_555
C7 C12 1_555 1_555
C8 C4 1_555 1_555
H1 C8 1_555 1_555
C9 N1 1_555 1_555
H2 C9 1_555 1_555
C10 C1 1_555 1_555
H3 C10 1_555 1_555
F2 C19 1_555 1_555
C11 H4 1_555 1_555
C12 H5 1_555 1_555
C13 C8 1_555 1_555
C14 C7 1_555 1_555
H6 C14 1_555 1_555
C15 C3 1_555 1_555
H7 C15 1_555 1_555
C16 C11 1_555 1_555
H8 C16 1_555 1_555
C17 C11 1_555 1_555
H9 C17 1_555 1_555
C18 C13 1_555 1_555
H10 C18 1_555 1_555
F3 C19 1_555 1_555
C19 O2 1_555 1_555
C2 C9 1_555 1_555
C2 C10 1_555 1_555
C12 C16 1_555 1_555
C14 C17 1_555 1_555
C15 C18 1_555 1_555

#END
