
#######################################################################
#
#                 Cambridge Crystallographic Data Centre
#                                CCDC 
#
#######################################################################
#
# If this CIF has been generated from an entry in the Cambridge 
# Structural Database, then it will include bibliographic, chemical, 
# crystal, experimental, refinement or atomic coordinate data resulting 
# from the CCDC's data processing and validation procedures.
#
#######################################################################

data_UPILOW
_chemical_formula_moiety         'C24 H32 O3 Si1'
_chemical_name_systematic        
'ethyl 2-(1-benzofuran-2-ylmethylene)-4-(triisopropylsilyl)but-3-ynoate'
_symmetry_cell_setting           monoclinic
_symmetry_space_group_name_H-M   'P 21/c'
_symmetry_Int_Tables_number      14
_space_group_name_Hall           '-P 2ybc'
loop_
_symmetry_equiv_pos_site_id
_symmetry_equiv_pos_as_xyz
1 x,y,z
2 -x,1/2+y,1/2-z
3 -x,-y,-z
4 x,1/2-y,1/2+z
_cell_length_a                   10.7623(8)
_cell_length_b                   12.1897(7)
_cell_length_c                   17.3071(13)
_cell_angle_alpha                90
_cell_angle_beta                 91.387(8)
_cell_angle_gamma                90
_cell_volume                     2269.84
_cell_formula_units_Z            4
loop_
_atom_site_label
_atom_site_type_symbol
_atom_site_fract_x
_atom_site_fract_y
_atom_site_fract_z
C1 C 0.56887(16) 0.61706(14) 0.40314(10)
C2 C 0.60609(16) 0.70208(14) 0.44808(10)
H1 H 0.6517 0.6975 0.4956
C3 C 0.56389(16) 0.80006(14) 0.41064(10)
C4 C 0.57188(18) 0.91218(15) 0.42689(11)
H2 H 0.6136 0.9378 0.4724
C5 C 0.51772(18) 0.98458(15) 0.37515(11)
H3 H 0.5219 1.0611 0.3853
C6 C 0.45695(18) 0.94757(15) 0.30825(11)
H4 H 0.4209 0.9997 0.2737
C7 C 0.44745(18) 0.83767(15) 0.29062(11)
H5 H 0.4061 0.8125 0.2449
C8 C 0.50166(16) 0.76628(14) 0.34341(10)
C9 C 0.58215(16) 0.50035(14) 0.40816(10)
H6 H 0.5388 0.4582 0.3701
C10 C 0.64996(16) 0.44426(13) 0.46147(10)
C11 C 0.65600(16) 0.32257(14) 0.45267(10)
C12 C 0.74432(18) 0.15937(14) 0.50302(12)
H7 H 0.7760 0.1368 0.4522
H8 H 0.6630 0.1235 0.5105
C13 C 0.8341(2) 0.12732(17) 0.56622(14)
H9 H 0.9147 0.1620 0.5575
H10 H 0.8440 0.0474 0.5666
H11 H 0.8025 0.1515 0.6160
C14 C 0.71829(16) 0.49296(13) 0.52417(10)
C15 C 0.77749(16) 0.53139(14) 0.57788(10)
C16 C 0.87269(18) 0.73238(16) 0.66047(12)
H12 H 0.9279 0.7570 0.7044
C17 C 0.7428(2) 0.77861(18) 0.67483(16)
H13 H 0.7447 0.8588 0.6706
H14 H 0.7170 0.7578 0.7267
H15 H 0.6836 0.7488 0.6363
C18 C 0.9253(2) 0.78096(18) 0.58674(15)
H16 H 0.8737 0.7582 0.5421
H17 H 1.0105 0.7546 0.5804
H18 H 0.9255 0.8612 0.5904
C19 C 1.03717(17) 0.52793(17) 0.64076(11)
H19 H 1.0644 0.5676 0.5935
C20 C 1.1305(2) 0.5578(3) 0.70476(15)
H20 H 1.1112 0.5170 0.7518
H21 H 1.1260 0.6367 0.7152
H22 H 1.2145 0.5389 0.6886
C21 C 1.0446(2) 0.40450(19) 0.62158(15)
H23 H 1.1287 0.3865 0.6052
H24 H 0.9848 0.3871 0.5798
H25 H 1.0251 0.3615 0.6676
C22 C 0.80252(17) 0.52402(17) 0.74999(11)
H26 H 0.7153 0.5523 0.7491
C23 C 0.7922(2) 0.39883(18) 0.75255(13)
H27 H 0.8752 0.3669 0.7601
H28 H 0.7553 0.3722 0.7038
H29 H 0.7396 0.3772 0.7954
C24 C 0.8637(2) 0.5681(2) 0.82472(12)
H30 H 0.8149 0.5453 0.8690
H31 H 0.8671 0.6484 0.8226
H32 H 0.9482 0.5387 0.8303
O1 O 0.50377(11) 0.65408(9) 0.33788(7)
O2 O 0.60061(13) 0.27108(10) 0.40332(8)
O3 O 0.73115(11) 0.27774(9) 0.50622(7)
Si1 Si 0.87523(4) 0.57839(4) 0.66007(3)
loop_
_geom_bond_atom_site_label_1
_geom_bond_atom_site_label_2
_geom_bond_site_symmetry_1
_geom_bond_site_symmetry_2
C1 C2 1_555 1_555
C2 H1 1_555 1_555
C3 C2 1_555 1_555
C4 C3 1_555 1_555
H2 C4 1_555 1_555
C5 C4 1_555 1_555
H3 C5 1_555 1_555
C6 C5 1_555 1_555
H4 C6 1_555 1_555
C7 C6 1_555 1_555
H5 C7 1_555 1_555
C8 C3 1_555 1_555
C9 C1 1_555 1_555
H6 C9 1_555 1_555
C10 C9 1_555 1_555
C11 C10 1_555 1_555
C12 H7 1_555 1_555
H8 C12 1_555 1_555
C13 C12 1_555 1_555
H9 C13 1_555 1_555
H10 C13 1_555 1_555
H11 C13 1_555 1_555
C14 C10 1_555 1_555
C15 C14 1_555 1_555
C16 H12 1_555 1_555
C17 C16 1_555 1_555
H13 C17 1_555 1_555
H14 C17 1_555 1_555
H15 C17 1_555 1_555
C18 C16 1_555 1_555
H16 C18 1_555 1_555
H17 C18 1_555 1_555
H18 C18 1_555 1_555
C19 H19 1_555 1_555
C20 C19 1_555 1_555
H20 C20 1_555 1_555
H21 C20 1_555 1_555
H22 C20 1_555 1_555
C21 C19 1_555 1_555
H23 C21 1_555 1_555
H24 C21 1_555 1_555
H25 C21 1_555 1_555
C22 H26 1_555 1_555
C23 C22 1_555 1_555
H27 C23 1_555 1_555
H28 C23 1_555 1_555
H29 C23 1_555 1_555
C24 C22 1_555 1_555
H30 C24 1_555 1_555
H31 C24 1_555 1_555
H32 C24 1_555 1_555
O1 C1 1_555 1_555
O2 C11 1_555 1_555
O3 C11 1_555 1_555
Si1 C15 1_555 1_555
C7 C8 1_555 1_555
C8 O1 1_555 1_555
C12 O3 1_555 1_555
C16 Si1 1_555 1_555
C19 Si1 1_555 1_555
C22 Si1 1_555 1_555

#END
