
#######################################################################
#
#                 Cambridge Crystallographic Data Centre
#                                CCDC 
#
#######################################################################
#
# If this CIF has been generated from an entry in the Cambridge 
# Structural Database, then it will include bibliographic, chemical, 
# crystal, experimental, refinement or atomic coordinate data resulting 
# from the CCDC's data processing and validation procedures.
#
#######################################################################

data_UPIMUD
_chemical_formula_moiety         'C25 H28 O2'
_chemical_name_systematic        
phenyl(5,5,8a-trimethyl-2-phenyl-4a,5,6,7,8,8a-hexahydro-4H-chromen-3-yl)methanone
_symmetry_cell_setting           monoclinic
_symmetry_space_group_name_H-M   'P 21/c'
_symmetry_Int_Tables_number      14
_space_group_name_Hall           '-P 2ybc'
loop_
_symmetry_equiv_pos_site_id
_symmetry_equiv_pos_as_xyz
1 x,y,z
2 -x,1/2+y,1/2-z
3 -x,-y,-z
4 x,1/2-y,1/2+z
_cell_length_a                   7.6511(6)
_cell_length_b                   20.7338(18)
_cell_length_c                   12.4531(9)
_cell_angle_alpha                90
_cell_angle_beta                 95.040(3)
_cell_angle_gamma                90
_cell_volume                     1967.88
_exptl_crystal_colour            colorless
_cell_formula_units_Z            4
loop_
_atom_site_label
_atom_site_type_symbol
_atom_site_fract_x
_atom_site_fract_y
_atom_site_fract_z
O1 O 0.06236(11) 0.60082(4) 0.13221(7)
O2 O 0.30743(14) 0.78483(5) 0.30455(8)
C1 C 0.32461(19) 0.44968(7) 0.17991(12)
H1 H 0.2796 0.4053 0.1875
H2 H 0.4084 0.4491 0.1237
C2 C 0.17154(18) 0.49465(7) 0.14441(11)
H3 H 0.1196 0.4813 0.0722
H4 H 0.0799 0.4904 0.1954
C3 C 0.22832(17) 0.56480(7) 0.14005(10)
C4 C 0.07037(17) 0.66541(7) 0.15237(10)
C5 C 0.21451(17) 0.69504(7) 0.20006(10)
C6 C 0.22790(17) 0.76522(7) 0.22067(11)
C7 C 0.15579(16) 0.81342(6) 0.13914(11)
C8 C 0.11004(18) 0.87414(7) 0.17515(11)
H5 H 0.1282 0.8845 0.2496
C9 C 0.03819(19) 0.91952(7) 0.10276(12)
H6 H 0.0050 0.9607 0.1277
C10 C 0.01466(19) 0.90508(7) -0.00574(12)
H7 H -0.0353 0.9362 -0.0553
C11 C 0.42040(18) 0.47103(7) 0.28706(11)
H8 H 0.5212 0.4419 0.3049
H9 H 0.3397 0.4667 0.3446
C12 C 0.48748(17) 0.54075(7) 0.28588(11)
C13 C 0.32942(17) 0.58446(6) 0.24686(10)
H10 H 0.2437 0.5791 0.3024
C14 C 0.37023(17) 0.65618(7) 0.24636(11)
H11 H 0.4043 0.6707 0.3210
H12 H 0.4708 0.6639 0.2031
C15 C 0.3161(2) 0.58017(8) 0.03785(11)
H13 H 0.2324 0.5731 -0.0252
H14 H 0.4181 0.5520 0.0334
H15 H 0.3544 0.6253 0.0396
C16 C -0.09954(17) 0.69631(6) 0.11751(10)
C17 C -0.18353(18) 0.68070(7) 0.01672(11)
H16 H -0.1364 0.6479 -0.0256
C18 C -0.33507(19) 0.71271(7) -0.02193(12)
H17 H -0.3912 0.7021 -0.0907
C19 C -0.40465(18) 0.76012(7) 0.03966(12)
H18 H -0.5062 0.7831 0.0120
C20 C -0.32698(18) 0.77427(7) 0.14143(12)
H19 H -0.3771 0.8060 0.1844
C21 C -0.17551(17) 0.74193(7) 0.18073(11)
H20 H -0.1236 0.7511 0.2512
C22 C 0.06356(18) 0.84548(7) -0.04248(11)
H21 H 0.0489 0.8360 -0.1174
C23 C 0.13381(17) 0.79948(7) 0.02924(11)
H22 H 0.1670 0.7585 0.0037
C24 C 0.64591(19) 0.54546(8) 0.21870(13)
H23 H 0.6791 0.5908 0.2116
H24 H 0.6151 0.5271 0.1470
H25 H 0.7447 0.5214 0.2546
C25 C 0.55015(19) 0.56055(7) 0.40147(12)
H26 H 0.4493 0.5632 0.4446
H27 H 0.6078 0.6027 0.4007
H28 H 0.6335 0.5284 0.4330
loop_
_geom_bond_atom_site_label_1
_geom_bond_atom_site_label_2
_geom_bond_site_symmetry_1
_geom_bond_site_symmetry_2
O1 C3 1_555 1_555
O2 C6 1_555 1_555
C1 H1 1_555 1_555
H2 C1 1_555 1_555
C2 C1 1_555 1_555
H3 C2 1_555 1_555
H4 C2 1_555 1_555
C3 C2 1_555 1_555
C4 O1 1_555 1_555
C5 C4 1_555 1_555
C6 C5 1_555 1_555
C7 C6 1_555 1_555
C8 C7 1_555 1_555
H5 C8 1_555 1_555
C9 C8 1_555 1_555
H6 C9 1_555 1_555
C10 C9 1_555 1_555
H7 C10 1_555 1_555
C11 C1 1_555 1_555
H8 C11 1_555 1_555
H9 C11 1_555 1_555
C12 C11 1_555 1_555
C13 C3 1_555 1_555
H10 C13 1_555 1_555
C14 C5 1_555 1_555
H11 C14 1_555 1_555
H12 C14 1_555 1_555
C15 C3 1_555 1_555
H13 C15 1_555 1_555
H14 C15 1_555 1_555
H15 C15 1_555 1_555
C16 C4 1_555 1_555
C17 C16 1_555 1_555
H16 C17 1_555 1_555
C18 C17 1_555 1_555
H17 C18 1_555 1_555
C19 C18 1_555 1_555
H18 C19 1_555 1_555
C20 C19 1_555 1_555
H19 C20 1_555 1_555
C21 C16 1_555 1_555
H20 C21 1_555 1_555
C22 C10 1_555 1_555
H21 C22 1_555 1_555
C23 C7 1_555 1_555
H22 C23 1_555 1_555
C24 C12 1_555 1_555
H23 C24 1_555 1_555
H24 C24 1_555 1_555
H25 C24 1_555 1_555
C25 C12 1_555 1_555
H26 C25 1_555 1_555
H27 C25 1_555 1_555
H28 C25 1_555 1_555
C12 C13 1_555 1_555
C13 C14 1_555 1_555
C20 C21 1_555 1_555
C22 C23 1_555 1_555

#END
