
#######################################################################
#
#                 Cambridge Crystallographic Data Centre
#                                CCDC 
#
#######################################################################
#
# If this CIF has been generated from an entry in the Cambridge 
# Structural Database, then it will include bibliographic, chemical, 
# crystal, experimental, refinement or atomic coordinate data resulting 
# from the CCDC's data processing and validation procedures.
#
#######################################################################

data_UPIRUI
_chemical_formula_moiety         'C22 H13 F1'
_chemical_name_systematic        10-fluorobenzo[g]chrysene
_symmetry_cell_setting           orthorhombic
_symmetry_space_group_name_H-M   'P b c a'
_symmetry_Int_Tables_number      61
_space_group_name_Hall           '-P 2ac 2ab'
loop_
_symmetry_equiv_pos_site_id
_symmetry_equiv_pos_as_xyz
1 x,y,z
2 1/2-x,-y,1/2+z
3 -x,1/2+y,1/2-z
4 1/2+x,1/2-y,-z
5 -x,-y,-z
6 1/2+x,y,1/2-z
7 x,1/2-y,1/2+z
8 1/2-x,1/2+y,z
_cell_length_a                   12.0445(17)
_cell_length_b                   7.3901(10)
_cell_length_c                   31.140(4)
_cell_angle_alpha                90
_cell_angle_beta                 90
_cell_angle_gamma                90
_cell_volume                     2771.77
_exptl_crystal_colour            colorless
_exptl_crystal_description       needle
_cell_formula_units_Z            8
loop_
_atom_site_label
_atom_site_type_symbol
_atom_site_fract_x
_atom_site_fract_y
_atom_site_fract_z
F1 F 0.29771(15) 0.0246(2) 0.50213(5)
C1 C 0.2667(3) 0.1702(4) 0.29939(9)
C2 C 0.2827(3) 0.1989(4) 0.25641(9)
C3 C 0.3799(3) 0.2799(4) 0.24202(10)
C4 C 0.4626(3) 0.3217(4) 0.27096(9)
C5 C 0.6401(2) 0.4002(4) 0.33287(10)
C6 C 0.7271(3) 0.4202(4) 0.36116(10)
C7 C 0.7184(3) 0.3517(4) 0.40249(10)
C8 C 0.6215(2) 0.2703(4) 0.41559(9)
C9 C 0.4085(3) 0.1311(4) 0.44626(9)
C10 C 0.3076(3) 0.0917(4) 0.46154(9)
C11 C 0.1030(3) 0.1115(4) 0.45833(10)
C12 C 0.0096(3) 0.1626(4) 0.43679(11)
C13 C 0.0178(3) 0.2310(4) 0.39500(10)
C14 C 0.1195(2) 0.2426(4) 0.37498(10)
C15 C 0.2184(2) 0.1857(3) 0.39552(8)
C16 C 0.2081(2) 0.1258(4) 0.43875(9)
C17 C 0.4213(2) 0.1926(3) 0.40312(8)
C18 C 0.3285(2) 0.2005(3) 0.37644(9)
C19 C 0.3460(2) 0.2244(3) 0.33020(9)
C20 C 0.4489(2) 0.2908(3) 0.31512(8)
C21 C 0.5404(2) 0.3169(3) 0.34526(9)
C22 C 0.5295(2) 0.2540(4) 0.38782(8)
H1 H 0.201(2) 0.109(4) 0.3075(8)
H2 H 0.225(2) 0.159(4) 0.2362(8)
H3 H 0.394(2) 0.299(4) 0.2122(9)
H4 H 0.535(2) 0.367(4) 0.2597(8)
H5 H 0.649(2) 0.447(4) 0.3044(9)
H6 H 0.798(3) 0.485(4) 0.3516(9)
H7 H 0.780(2) 0.366(4) 0.4232(8)
H8 H 0.613(2) 0.227(4) 0.4431(9)
H9 H 0.474(2) 0.115(4) 0.4639(8)
H10 H 0.099(2) 0.065(4) 0.4884(10)
H11 H -0.061(3) 0.152(4) 0.4494(11)
H12 H -0.051(2) 0.279(4) 0.3767(9)
H13 H 0.127(2) 0.296(3) 0.3465(8)
loop_
_geom_bond_atom_site_label_1
_geom_bond_atom_site_label_2
_geom_bond_site_symmetry_1
_geom_bond_site_symmetry_2
F1 C10 1_555 1_555
C1 C2 1_555 1_555
C2 C3 1_555 1_555
C3 C4 1_555 1_555
C4 C20 1_555 1_555
C5 C6 1_555 1_555
C6 C7 1_555 1_555
C7 C8 1_555 1_555
C8 C22 1_555 1_555
C9 C10 1_555 1_555
C10 C16 1_555 1_555
C11 C12 1_555 1_555
C12 C13 1_555 1_555
C13 C14 1_555 1_555
C14 C15 1_555 1_555
C15 C16 1_555 1_555
C16 C11 1_555 1_555
C17 C9 1_555 1_555
C18 C15 1_555 1_555
C19 C1 1_555 1_555
C20 C19 1_555 1_555
C21 C5 1_555 1_555
C22 C17 1_555 1_555
H1 C1 1_555 1_555
H2 C2 1_555 1_555
H3 C3 1_555 1_555
H4 C4 1_555 1_555
H5 C5 1_555 1_555
H6 C6 1_555 1_555
H7 C7 1_555 1_555
H8 C8 1_555 1_555
H9 C9 1_555 1_555
H10 C11 1_555 1_555
H11 C12 1_555 1_555
H12 C13 1_555 1_555
H13 C14 1_555 1_555
C17 C18 1_555 1_555
C18 C19 1_555 1_555
C20 C21 1_555 1_555
C21 C22 1_555 1_555

#END
