
#######################################################################
#
#                 Cambridge Crystallographic Data Centre
#                                CCDC 
#
#######################################################################
#
# If this CIF has been generated from an entry in the Cambridge 
# Structural Database, then it will include bibliographic, chemical, 
# crystal, experimental, refinement or atomic coordinate data resulting 
# from the CCDC's data processing and validation procedures.
#
#######################################################################

data_UPIROC
_chemical_formula_moiety         'C18 H11 F1'
_chemical_name_systematic        6-fluorobenzo[c]phenanthrene
_symmetry_cell_setting           monoclinic
_symmetry_space_group_name_H-M   'P 21'
_symmetry_Int_Tables_number      4
_space_group_name_Hall           'P 2yb'
loop_
_symmetry_equiv_pos_site_id
_symmetry_equiv_pos_as_xyz
1 x,y,z
2 -x,1/2+y,-z
_cell_length_a                   13.173(2)
_cell_length_b                   5.8386(9)
_cell_length_c                   15.894(2)
_cell_angle_alpha                90
_cell_angle_beta                 105.009(2)
_cell_angle_gamma                90
_cell_volume                     1180.73
_exptl_crystal_colour            colorless
_exptl_crystal_description       plate
_cell_formula_units_Z            4
loop_
_atom_site_label
_atom_site_type_symbol
_atom_site_fract_x
_atom_site_fract_y
_atom_site_fract_z
C1 C 0.07669(16) 0.4217(4) 0.15704(13)
C2 C -0.00648(17) 0.2760(4) 0.15420(14)
C3 C -0.01345(18) 0.0636(4) 0.11216(14)
C4 C 0.06052(17) 0.0072(4) 0.06843(13)
C5 C 0.21213(18) 0.1054(4) 0.01354(13)
C6 C 0.28828(18) 0.2554(4) 0.00969(13)
C7 C 0.39541(18) 0.6014(4) 0.05673(15)
C8 C 0.41989(17) 0.7897(4) 0.10693(15)
C9 C 0.39795(18) 1.0251(4) 0.22957(15)
H1 H 0.4479 1.1306 0.2186
C10 C 0.35660(18) 1.0597(4) 0.29928(15)
C11 C 0.28625(18) 0.8967(4) 0.31698(16)
C12 C 0.25349(16) 0.7142(4) 0.26239(13)
C13 C 0.15917(15) 0.3605(4) 0.11882(13)
C14 C 0.14424(16) 0.1563(4) 0.06798(13)
C15 C 0.31171(17) 0.4542(4) 0.06299(14)
C16 C 0.25163(15) 0.5008(4) 0.12299(13)
C17 C 0.28776(16) 0.6836(4) 0.18572(13)
C18 C 0.36740(16) 0.8351(4) 0.17380(14)
F1 F 0.35216(15) 0.2068(4) -0.04374(12)
H2 H 0.0750(18) 0.583(4) 0.1848(14)
H3 H -0.064(2) 0.328(5) 0.1815(17)
H4 H -0.074(2) -0.039(5) 0.1111(17)
H5 H 0.0472(19) -0.136(5) 0.0339(15)
H6 H 0.211(2) -0.034(6) -0.0169(19)
H7 H 0.473(2) 0.897(6) 0.1019(18)
H8 H 0.374(2) 1.212(6) 0.3376(19)
H9 H 0.264(2) 0.911(5) 0.3672(17)
H10 H 0.214(2) 0.588(5) 0.2824(16)
C19 C 0.82527(16) -0.0758(4) 0.53278(13)
H11 H 0.7983 0.0666 0.5462
C20 C 0.87720(17) -0.2163(4) 0.59960(14)
H12 H 0.8851 -0.1697 0.6582
C21 C 0.91874(17) -0.4282(4) 0.58236(15)
H13 H 0.9510 -0.5281 0.6288
C22 C 0.91202(16) -0.4883(4) 0.49791(14)
H14 H 0.9413 -0.6295 0.4860
C23 C 0.86889(17) -0.3971(4) 0.34229(15)
H15 H 0.9010 -0.5356 0.3312
C24 C 0.82935(17) -0.2497(4) 0.27725(14)
C25 C 0.73041(18) 0.0947(4) 0.21484(14)
C26 C 0.67422(18) 0.2830(4) 0.22197(14)
H16 H 0.6525 0.3847 0.1740
C27 C 0.58213(18) 0.5191(4) 0.30725(16)
H17 H 0.5629 0.6225 0.2596
C28 C 0.54634(17) 0.5560(4) 0.37965(15)
H18 H 0.5045 0.6865 0.3831
C29 C 0.57210(17) 0.3988(4) 0.44877(16)
H19 H 0.5446 0.4194 0.4979
C30 C 0.63680(16) 0.2149(4) 0.44621(14)
H20 H 0.6517 0.1087 0.4931
C31 C 0.81095(15) -0.1393(4) 0.44373(13)
C32 C 0.86224(16) -0.3440(4) 0.42809(14)
C33 C 0.77166(16) -0.0504(4) 0.28778(14)
C34 C 0.75464(15) -0.0021(4) 0.36985(13)
C35 C 0.68156(16) 0.1810(4) 0.37506(13)
C36 C 0.64715(16) 0.3299(4) 0.30217(14)
F3 F 0.84035(16) -0.3037(4) 0.19892(12)
F2? F 0.4405(4) 0.5757(10) -0.0005(3)
F4? F 0.7532(4) 0.0784(9) 0.1419(3)
loop_
_geom_bond_atom_site_label_1
_geom_bond_atom_site_label_2
_geom_bond_site_symmetry_1
_geom_bond_site_symmetry_2
C1 C2 1_555 1_555
C2 C3 1_555 1_555
C3 C4 1_555 1_555
C4 C14 1_555 1_555
C5 C6 1_555 1_555
C6 C15 1_555 1_555
C7 C8 1_555 1_555
C8 C18 1_555 1_555
C9 H1 1_555 1_555
C10 C9 1_555 1_555
C11 C10 1_555 1_555
C12 C11 1_555 1_555
C13 C1 1_555 1_555
C14 C5 1_555 1_555
C15 C7 1_555 1_555
C16 C13 1_555 1_555
C17 C12 1_555 1_555
C18 C9 1_555 1_555
F1 C6 1_555 1_555
H2 C1 1_555 1_555
H3 C2 1_555 1_555
H4 C3 1_555 1_555
H5 C4 1_555 1_555
H6 C5 1_555 1_555
H7 C8 1_555 1_555
H8 C10 1_555 1_555
H9 C11 1_555 1_555
H10 C12 1_555 1_555
C19 H11 1_555 1_555
C20 C19 1_555 1_555
H12 C20 1_555 1_555
C21 C20 1_555 1_555
H13 C21 1_555 1_555
C22 C21 1_555 1_555
H14 C22 1_555 1_555
C23 H15 1_555 1_555
C24 C23 1_555 1_555
C25 C26 1_555 1_555
C26 H16 1_555 1_555
C27 H17 1_555 1_555
C28 C27 1_555 1_555
H18 C28 1_555 1_555
C29 C28 1_555 1_555
H19 C29 1_555 1_555
C30 C29 1_555 1_555
H20 C30 1_555 1_555
C31 C19 1_555 1_555
C32 C22 1_555 1_555
C33 C24 1_555 1_555
C34 C31 1_555 1_555
C35 C30 1_555 1_555
C36 C26 1_555 1_555
F3 C24 1_555 1_555
C13 C14 1_555 1_555
C15 C16 1_555 1_555
C16 C17 1_555 1_555
C17 C18 1_555 1_555
C23 C32 1_555 1_555
C25 C33 1_555 1_555
C27 C36 1_555 1_555
C31 C32 1_555 1_555
C33 C34 1_555 1_555
C34 C35 1_555 1_555
C35 C36 1_555 1_555

#END
