
#######################################################################
#
#                 Cambridge Crystallographic Data Centre
#                                CCDC 
#
#######################################################################
#
# If this CIF has been generated from an entry in the Cambridge 
# Structural Database, then it will include bibliographic, chemical, 
# crystal, experimental, refinement or atomic coordinate data resulting 
# from the CCDC's data processing and validation procedures.
#
#######################################################################

data_UPIRIW
_chemical_formula_moiety         'C18 H11 F1'
_chemical_name_systematic        5-fluorobenzo[c]phenanthrene
_symmetry_cell_setting           orthorhombic
_symmetry_space_group_name_H-M   'P 21 21 21'
_symmetry_Int_Tables_number      19
_space_group_name_Hall           'P 2ac 2ab'
loop_
_symmetry_equiv_pos_site_id
_symmetry_equiv_pos_as_xyz
1 x,y,z
2 1/2-x,-y,1/2+z
3 -x,1/2+y,1/2-z
4 1/2+x,1/2-y,-z
_cell_length_a                   5.7493(3)
_cell_length_b                   13.9077(8)
_cell_length_c                   14.6539(9)
_cell_angle_alpha                90
_cell_angle_beta                 90
_cell_angle_gamma                90
_cell_volume                     1171.72
_exptl_crystal_colour            yellow
_exptl_crystal_description       needle
_cell_formula_units_Z            4
loop_
_atom_site_label
_atom_site_type_symbol
_atom_site_fract_x
_atom_site_fract_y
_atom_site_fract_z
F1 F 1.4276(3) 0.65922(12) -0.17031(11)
C1 C 1.1796(3) 0.56773(11) 0.12542(11)
C2 C 1.3581(3) 0.62016(12) 0.16322(12)
C3 C 1.5281(3) 0.66316(12) 0.10806(13)
C4 C 1.5064(3) 0.65770(11) 0.01511(13)
C5 C 1.2854(3) 0.60732(11) -0.12126(12)
C6 C 1.1049(3) 0.56482(12) -0.16136(12)
C7 C 0.7540(3) 0.46398(13) -0.15276(11)
C8 C 0.5996(3) 0.41081(12) -0.10533(12)
C9 C 0.4844(3) 0.32629(11) 0.03473(12)
C10 C 0.5317(3) 0.29473(12) 0.12101(12)
C11 C 0.7418(3) 0.32227(12) 0.16256(11)
C12 C 0.8904(3) 0.38553(11) 0.12012(10)
C13 C 1.1624(3) 0.55336(10) 0.02977(10)
C14 C 1.3229(3) 0.60569(11) -0.02499(11)
C15 C 0.9483(3) 0.50748(11) -0.10840(10)
C16 C 0.9837(2) 0.49503(10) -0.01366(10)
C17 C 0.8383(3) 0.42551(10) 0.03337(10)
C18 C 0.6369(3) 0.38871(11) -0.01166(11)
H1 H 1.070(4) 0.5459(14) 0.1659(13)
H2 H 1.365(4) 0.6288(14) 0.2286(13)
H3 H 1.654(4) 0.6982(15) 0.1341(14)
H4 H 1.620(4) 0.6880(16) -0.0242(14)
H5 H 1.078(4) 0.5691(15) -0.2250(15)
H6 H 0.729(4) 0.4747(16) -0.2163(16)
H7 H 0.349(4) 0.3082(14) 0.0055(13)
H8 H 0.426(4) 0.2508(17) 0.1513(14)
H9 H 0.787(4) 0.2951(15) 0.2214(14)
H10 H 1.038(4) 0.3985(17) 0.1487(15)
F2? F 0.4439(11) 0.3826(4) -0.1506(5)
loop_
_geom_bond_atom_site_label_1
_geom_bond_atom_site_label_2
_geom_bond_site_symmetry_1
_geom_bond_site_symmetry_2
F1 C5 1_555 1_555
C1 C2 1_555 1_555
C2 C3 1_555 1_555
C3 C4 1_555 1_555
C4 C14 1_555 1_555
C5 C6 1_555 1_555
C6 C15 1_555 1_555
C7 C8 1_555 1_555
C8 C18 1_555 1_555
C9 C10 1_555 1_555
C10 C11 1_555 1_555
C11 C12 1_555 1_555
C12 C17 1_555 1_555
C13 C1 1_555 1_555
C14 C5 1_555 1_555
C15 C7 1_555 1_555
C16 C13 1_555 1_555
C17 C16 1_555 1_555
C18 C9 1_555 1_555
H1 C1 1_555 1_555
H2 C2 1_555 1_555
H3 C3 1_555 1_555
H4 C4 1_555 1_555
H5 C6 1_555 1_555
H6 C7 1_555 1_555
H7 C9 1_555 1_555
H8 C10 1_555 1_555
H9 C11 1_555 1_555
H10 C12 1_555 1_555
C13 C14 1_555 1_555
C15 C16 1_555 1_555
C17 C18 1_555 1_555

#END
