
#######################################################################
#
#                 Cambridge Crystallographic Data Centre
#                                CCDC 
#
#######################################################################
#
# If this CIF has been generated from an entry in the Cambridge 
# Structural Database, then it will include bibliographic, chemical, 
# crystal, experimental, refinement or atomic coordinate data resulting 
# from the CCDC's data processing and validation procedures.
#
#######################################################################

data_UPISIX
_chemical_formula_moiety         'C25 H21 N5 O3 S1'
_chemical_name_systematic        
trans-9b-azido-3a-methyl-5-((4-methylphenyl)sulfonyl)-1-phenyl-3,3a,5,9b-tetrahydro-4H-pyrrolo[3,4-c]quinolin-4-one
_symmetry_cell_setting           triclinic
_symmetry_space_group_name_H-M   'P -1'
_symmetry_Int_Tables_number      2
_space_group_name_Hall           '-P 1'
loop_
_symmetry_equiv_pos_site_id
_symmetry_equiv_pos_as_xyz
1 x,y,z
2 -x,-y,-z
_cell_length_a                   9.149(5)
_cell_length_b                   10.448(6)
_cell_length_c                   12.712(8)
_cell_angle_alpha                80.924(13)
_cell_angle_beta                 71.346(11)
_cell_angle_gamma                89.687(13)
_cell_volume                     1135.56
_exptl_crystal_colour            colorless
_exptl_crystal_description       prismatic
_cell_formula_units_Z            2
_exptl_crystal_recrystallization_method 'ethyl acetate'
loop_
_atom_site_label
_atom_site_type_symbol
_atom_site_fract_x
_atom_site_fract_y
_atom_site_fract_z
S1 S 0.75184(6) 0.21146(6) 0.59618(4)
N1 N 0.79479(18) 0.16238(17) 0.71713(13)
N2 N 0.7524(2) 0.25227(19) 1.07026(14)
N3 N 0.85503(19) 0.37060(16) 0.82744(14)
N4 N 0.9701(2) 0.43296(16) 0.76085(14)
N5 N 1.0665(2) 0.4978(2) 0.69759(19)
O1 O 0.54439(16) 0.17963(16) 0.82472(12)
O2 O 0.89646(18) 0.22638(19) 0.50876(12)
O3 O 0.63561(19) 0.12326(18) 0.59431(15)
C1 C 1.0052(2) 0.17584(17) 0.79632(15)
C2 C 1.1525(2) 0.14620(18) 0.79633(16)
H1 H 1.1895 0.1719 0.8503
C3 C 1.2452(2) 0.0789(2) 0.71715(18)
H2 H 1.3452 0.0612 0.7164
C4 C 1.1893(2) 0.0380(2) 0.63952(18)
H3 H 1.2516 -0.0084 0.5868
C5 C 1.0422(2) 0.0648(2) 0.63845(17)
H4 H 1.0045 0.0346 0.5866
C6 C 0.9511(2) 0.13640(19) 0.71445(16)
C7 C 0.6770(2) 0.1679(2) 0.81941(16)
C8 C 0.7345(2) 0.15693(19) 0.91807(15)
C9 C 0.6388(2) 0.2182(2) 1.01827(17)
H5 H 0.5905 0.2948 0.9936
H6 H 0.5594 0.1570 1.0706
C10 C 0.8883(2) 0.25987(19) 0.99936(16)
C11 C 0.8877(2) 0.23922(18) 0.88213(15)
C12 C 1.0223(2) 0.29357(19) 1.03218(17)
C13 C 1.0160(3) 0.2527(2) 1.14215(19)
H7 H 0.9296 0.2046 1.1923
C14 C 1.1362(4) 0.2824(3) 1.1784(2)
H8 H 1.1310 0.2534 1.2527
C15 C 1.2631(4) 0.3541(3) 1.1063(3)
H9 H 1.3438 0.3740 1.1314
C16 C 1.2716(3) 0.3967(3) 0.9965(3)
H10 H 1.3578 0.4459 0.9473
C17 C 1.1514(3) 0.3663(2) 0.9594(2)
H11 H 1.1574 0.3949 0.8850
C18 C 0.7544(3) 0.0142(2) 0.95769(19)
H12 H 0.8142 -0.0242 0.8947
H13 H 0.6548 -0.0303 0.9906
H14 H 0.8068 0.0075 1.0127
C19 C 0.6789(2) 0.3648(2) 0.60983(17)
C20 C 0.5224(3) 0.3832(3) 0.6424(2)
H15 H 0.4518 0.3132 0.6589
C21 C 0.4727(3) 0.5059(3) 0.6502(2)
H16 H 0.3671 0.5180 0.6729
C22 C 0.5735(3) 0.6127(3) 0.62548(19)
C23 C 0.7293(3) 0.5926(3) 0.5916(2)
H17 H 0.7996 0.6630 0.5740
C24 C 0.7822(3) 0.4701(3) 0.58360(18)
H18 H 0.8878 0.4581 0.5604
C25 C 0.5155(4) 0.7466(3) 0.6358(3)
H19 H 0.4323 0.7435 0.7052
H20 H 0.4793 0.7780 0.5738
H21 H 0.5979 0.8037 0.6348
loop_
_geom_bond_atom_site_label_1
_geom_bond_atom_site_label_2
_geom_bond_site_symmetry_1
_geom_bond_site_symmetry_2
S1 N1 1_555 1_555
N1 C6 1_555 1_555
N2 C9 1_555 1_555
N3 N4 1_555 1_555
N4 N5 1_555 1_555
O1 C7 1_555 1_555
O2 S1 1_555 1_555
O3 S1 1_555 1_555
C1 C2 1_555 1_555
C2 H1 1_555 1_555
C3 C2 1_555 1_555
H2 C3 1_555 1_555
C4 C3 1_555 1_555
H3 C4 1_555 1_555
C5 C4 1_555 1_555
H4 C5 1_555 1_555
C6 C1 1_555 1_555
C7 N1 1_555 1_555
C8 C7 1_555 1_555
C9 C8 1_555 1_555
H5 C9 1_555 1_555
H6 C9 1_555 1_555
C10 N2 1_555 1_555
C11 N3 1_555 1_555
C12 C10 1_555 1_555
C13 C12 1_555 1_555
H7 C13 1_555 1_555
C14 C13 1_555 1_555
H8 C14 1_555 1_555
C15 C14 1_555 1_555
H9 C15 1_555 1_555
C16 C15 1_555 1_555
H10 C16 1_555 1_555
C17 C12 1_555 1_555
H11 C17 1_555 1_555
C18 C8 1_555 1_555
H12 C18 1_555 1_555
H13 C18 1_555 1_555
H14 C18 1_555 1_555
C19 S1 1_555 1_555
C20 C19 1_555 1_555
H15 C20 1_555 1_555
C21 C20 1_555 1_555
H16 C21 1_555 1_555
C22 C21 1_555 1_555
C23 C22 1_555 1_555
H17 C23 1_555 1_555
C24 C19 1_555 1_555
H18 C24 1_555 1_555
C25 C22 1_555 1_555
H19 C25 1_555 1_555
H20 C25 1_555 1_555
H21 C25 1_555 1_555
C1 C11 1_555 1_555
C5 C6 1_555 1_555
C8 C11 1_555 1_555
C10 C11 1_555 1_555
C16 C17 1_555 1_555
C23 C24 1_555 1_555

#END
