
#######################################################################
#
#                 Cambridge Crystallographic Data Centre
#                                CCDC 
#
#######################################################################
#
# If this CIF has been generated from an entry in the Cambridge 
# Structural Database, then it will include bibliographic, chemical, 
# crystal, experimental, refinement or atomic coordinate data resulting 
# from the CCDC's data processing and validation procedures.
#
#######################################################################

data_UPISOC
_chemical_formula_moiety         
'C51 H51 N3 O6,C8 H12 N1 1+,Cl1 O4 1-,3(C1 H2 Cl2)'
_chemical_name_systematic        
'1-Phenylethylammonium perchlorate 2,17,19,34,49,52-hexamethyl-6,14,22,30,37,45-hexaoxa-48,50,54-triazadecacyclo[16.16.12.1^3,33^.1^5,8^.1^9,13^.1^16,20^.1^23,27^.1^28,31^.1^36,39^.1^40,44^]tetrapentaconta-1,3(49),5(54),9(53),10,12,16(52),17,19,23(51),24,26,31(50),33,36(48),40(47),41,4 3-octadecaene dichloromethane solvate'
_symmetry_cell_setting           triclinic
_symmetry_space_group_name_H-M   'P 1'
_symmetry_Int_Tables_number      1
_space_group_name_Hall           'P 1'
loop_
_symmetry_equiv_pos_site_id
_symmetry_equiv_pos_as_xyz
1 x,y,z
_cell_length_a                   11.6905(3)
_cell_length_b                   12.7459(2)
_cell_length_c                   13.0439(2)
_cell_angle_alpha                112.7720(10)
_cell_angle_beta                 99.5310(10)
_cell_angle_gamma                113.4180(10)
_cell_volume                     1522.82
_exptl_crystal_colour            colorless
_exptl_crystal_description       block
_cell_formula_units_Z            1
loop_
_atom_site_label
_atom_site_type_symbol
_atom_site_fract_x
_atom_site_fract_y
_atom_site_fract_z
Cl1 Cl 0.1160(2) -0.07168(19) -0.05970(17)
O1 O 0.0532(12) -0.1691(9) -0.1772(8)
O2 O 0.1511(13) -0.1179(12) 0.0154(9)
O3 O 0.2418(9) 0.0292(9) -0.0466(10)
O4 O 0.0397(8) -0.0105(8) -0.0187(7)
Cl2 Cl -0.3733(3) -0.8494(3) -1.2456(3)
Cl3 Cl -0.5157(4) -0.7107(4) -1.2558(5)
C1 C -0.467(2) -0.7834(15) -1.1706(15)
H1 H -0.4102 -0.7159 -1.0864
H2 H -0.5464 -0.8536 -1.1742
Cl4 Cl -0.2002(3) -0.0220(3) -0.3366(3)
Cl5 Cl -0.3192(3) -0.2617(3) -0.3267(4)
C2 C -0.2149(18) -0.0924(12) -0.2460(11)
H3 H -0.1254 -0.0709 -0.2008
H4 H -0.2503 -0.0541 -0.1881
Cl6 Cl -0.2323(6) -0.3885(7) 0.0120(5)
Cl7 Cl -0.3904(6) -0.2761(6) -0.0456(6)
C3 C -0.265(2) -0.319(2) -0.0718(19)
H5 H -0.2958 -0.3820 -0.1573
H6 H -0.1814 -0.2398 -0.0506
O5 O -0.1116(5) -0.6259(5) -0.9872(5)
O6 O 0.4624(5) -0.1591(5) -0.6171(4)
O7 O 0.5056(6) -0.5772(6) -0.8140(6)
O8 O -0.4904(5) -0.8930(5) -0.6825(4)
O9 O 0.3481(6) -0.2180(5) -0.1147(4)
O10 O 0.1280(7) -0.9677(5) -0.6171(5)
N1 N -0.2795(6) -0.7411(5) -0.6430(5)
N2 N 0.2390(6) -0.3523(6) -0.3161(5)
N3 N 0.1009(7) -0.8001(6) -0.6091(5)
C4 C 0.1232(7) -0.5504(7) -0.9766(6)
C5 C 0.1973(8) -0.6133(7) -0.9900(6)
C6 C 0.3351(8) -0.5449(7) -0.9139(7)
C7 C 0.3989(8) -0.4084(7) -0.8338(7)
C8 C 0.3247(8) -0.3435(7) -0.8223(6)
C9 C 0.1857(8) -0.4142(7) -0.8946(6)
C10 C 0.1417(9) -0.7530(7) -1.0909(8)
H7 H 0.0471 -0.7909 -1.1360
H8 H 0.1515 -0.8062 -1.0573
H9 H 0.1909 -0.7510 -1.1438
C11 C 0.5499(8) -0.3285(8) -0.7641(9)
H10 H 0.5865 -0.3868 -0.7818
H11 H 0.5685 -0.2843 -0.6788
H12 H 0.5913 -0.2631 -0.7872
C12 C 0.1092(9) -0.3410(8) -0.8869(8)
H13 H 0.1683 -0.2489 -0.8255
H14 H 0.0330 -0.3801 -0.8666
H15 H 0.0774 -0.3472 -0.9638
C13 C -0.0259(8) -0.6224(8) -1.0549(7)
H16 H -0.0379 -0.5786 -1.0997
H17 H -0.0538 -0.7131 -1.1133
C14 C -0.1576(8) -0.7221(7) -0.9565(6)
C15 C -0.1149(7) -0.8128(7) -0.9736(6)
H18 H -0.0531 -0.8134 -1.0113
C16 C -0.1653(8) -0.9037(7) -0.9338(7)
H19 H -0.1416 -0.9692 -0.9498
C17 C -0.2496(8) -0.8972(7) -0.8713(6)
H20 H -0.2806 -0.9563 -0.8427
C18 C -0.2886(7) -0.8029(6) -0.8508(6)
C19 C -0.2438(7) -0.7184(7) -0.8957(6)
H21 H -0.2727 -0.6571 -0.8848
C20 C -0.3603(8) -0.7803(7) -0.7651(7)
H22 H -0.3749 -0.7072 -0.7593
C21 C -0.4954(8) -0.8967(8) -0.7970(7)
H23 H -0.5697 -0.8867 -0.8296
H24 H -0.5065 -0.9799 -0.8560
C22 C -0.3577(7) -0.8051(7) -0.6071(6)
C23 C -0.3251(8) -0.7975(7) -0.4868(7)
H25 H -0.3735 -0.8863 -0.4978
H26 H -0.3554 -0.7434 -0.4358
C24 C 0.1399(11) -0.9683(8) -0.7268(8)
H27 H 0.0611 -1.0448 -0.7977
H28 H 0.2210 -0.9698 -0.7354
C25 C 0.3953(9) -0.1958(7) -0.7394(7)
H29 H 0.4616 -0.1509 -0.7672
H30 H 0.3293 -0.1668 -0.7419
C26 C 0.3921(7) -0.1502(6) -0.5404(6)
C27 C 0.3142(8) -0.0913(7) -0.5358(7)
H31 H 0.3032 -0.0582 -0.5875
C28 C 0.2528(9) -0.0825(8) -0.4525(7)
H32 H 0.1991 -0.0435 -0.4486
C29 C 0.2691(7) -0.1295(7) -0.3758(7)
H33 H 0.2253 -0.1240 -0.3212
C30 C 0.3508(8) -0.1858(7) -0.3790(6)
C31 C 0.4116(7) -0.1963(7) -0.4636(7)
H34 H 0.4657 -0.2350 -0.4678
C32 C 0.3704(8) -0.2399(8) -0.2980(7)
H35 H 0.4335 -0.2723 -0.3128
C33 C 0.4217(10) -0.1427(8) -0.1638(8)
H36 H 0.5186 -0.1058 -0.1257
H37 H 0.4049 -0.0701 -0.1512
C34 C 0.2429(7) -0.3279(7) -0.2098(6)
C35 C 0.1430(8) -0.4119(7) -0.1770(6)
H38 H 0.0894 -0.3718 -0.1507
H39 H 0.1916 -0.4129 -0.1088
C36 C 0.4143(8) -0.6144(8) -0.9254(8)
H40 H 0.3513 -0.7098 -0.9674
H41 H 0.4652 -0.5962 -0.9750
C37 C 0.4559(8) -0.6097(7) -0.7346(7)
C38 C 0.5553(9) -0.5455(9) -0.6195(9)
H42 H 0.6445 -0.4826 -0.5998
C39 C 0.5170(11) -0.5782(10) -0.5376(9)
H43 H 0.5818 -0.5358 -0.4602
C40 C 0.3840(9) -0.6732(9) -0.5644(8)
H44 H 0.3606 -0.6949 -0.5069
C41 C 0.2893(8) -0.7331(8) -0.6784(7)
C42 C 0.3255(8) -0.7019(7) -0.7638(7)
H45 H 0.2608 -0.7438 -0.8412
C43 C 0.1487(8) -0.8400(8) -0.7103(7)
H46 H 0.0863 -0.8573 -0.7840
C44 C 0.0989(8) -0.8716(7) -0.5645(7)
C45 C 0.0749(8) -0.8579(8) -0.4529(7)
H47 H 0.1603 -0.8218 -0.3894
H48 H 0.0132 -0.9457 -0.4672
C46 C -0.1742(7) -0.7377(7) -0.4249(6)
C47 C -0.1191(8) -0.8171(7) -0.4633(6)
C48 C 0.0162(7) -0.7698(7) -0.4092(6)
C49 C 0.1014(7) -0.6382(7) -0.3162(6)
C50 C 0.0470(7) -0.5551(7) -0.2794(6)
C51 C -0.0920(7) -0.6062(7) -0.3340(6)
C52 C -0.2090(9) -0.9587(7) -0.5705(7)
H49 H -0.3003 -0.9766 -0.5992
H50 H -0.2083 -1.0209 -0.5453
H51 H -0.1748 -0.9679 -0.6345
C53 C 0.2511(8) -0.5824(8) -0.2595(7)
H52 H 0.2723 -0.6513 -0.2948
H53 H 0.2770 -0.5494 -0.1738
H54 H 0.3000 -0.5109 -0.2734
C54 C -0.1524(9) -0.5179(8) -0.2958(7)
H55 H -0.0822 -0.4299 -0.2323
H56 H -0.2209 -0.5543 -0.2668
H57 H -0.1926 -0.5132 -0.3640
N4 N 0.0294(7) -0.5922(7) -0.5454(6)
H58 H -0.058(9) -0.634(8) -0.532(7)
H59 H 0.083(9) -0.530(9) -0.480(8)
H60 H 0.064(9) -0.635(9) -0.558(8)
C55 C -0.0190(7) -0.4487(6) -0.6061(6)
C56 C -0.0431(9) -0.4079(7) -0.6867(8)
H61 H -0.0294 -0.4425 -0.7584
C57 C -0.0869(10) -0.3176(8) -0.6664(9)
H62 H -0.1028 -0.2920 -0.7233
C58 C -0.1067(8) -0.2661(8) -0.5603(8)
H63 H -0.1367 -0.2053 -0.5450
C59 C -0.0830(8) -0.3030(8) -0.4794(8)
H64 H -0.0968 -0.2674 -0.4078
C60 C -0.0382(8) -0.3935(7) -0.4993(7)
H65 H -0.0210 -0.4170 -0.4409
C61 C 0.0226(7) -0.5508(6) -0.6370(6)
H66 H -0.0487 -0.6296 -0.7133
C62 C 0.1530(9) -0.5101(8) -0.6573(8)
H67 H 0.1483 -0.4827 -0.7169
H68 H 0.1679 -0.5842 -0.6855
H69 H 0.2267 -0.4372 -0.5825
loop_
_geom_bond_atom_site_label_1
_geom_bond_atom_site_label_2
_geom_bond_site_symmetry_1
_geom_bond_site_symmetry_2
Cl1 O1 1_555 1_555
O2 Cl1 1_555 1_555
O3 Cl1 1_555 1_555
O4 Cl1 1_555 1_555
Cl2 C1 1_555 1_555
Cl3 C1 1_555 1_555
C1 H1 1_555 1_555
H2 C1 1_555 1_555
Cl4 C2 1_555 1_555
Cl5 C2 1_555 1_555
C2 H3 1_555 1_555
H4 C2 1_555 1_555
Cl6 C3 1_555 1_555
Cl7 C3 1_555 1_555
C3 H5 1_555 1_555
H6 C3 1_555 1_555
O5 C13 1_555 1_555
O6 C25 1_555 1_555
O7 C36 1_555 1_555
O8 C21 1_555 1_555
O9 C33 1_555 1_555
O10 C24 1_555 1_555
N1 C20 1_555 1_555
N2 C32 1_555 1_555
N3 C43 1_555 1_555
C4 C5 1_555 1_555
C5 C6 1_555 1_555
C6 C7 1_555 1_555
C7 C8 1_555 1_555
C8 C9 1_555 1_555
C9 C4 1_555 1_555
C10 C5 1_555 1_555
H7 C10 1_555 1_555
H8 C10 1_555 1_555
H9 C10 1_555 1_555
C11 C7 1_555 1_555
H10 C11 1_555 1_555
H11 C11 1_555 1_555
H12 C11 1_555 1_555
C12 C9 1_555 1_555
H13 C12 1_555 1_555
H14 C12 1_555 1_555
H15 C12 1_555 1_555
C13 C4 1_555 1_555
H16 C13 1_555 1_555
H17 C13 1_555 1_555
C14 O5 1_555 1_555
C15 C14 1_555 1_555
H18 C15 1_555 1_555
C16 C15 1_555 1_555
H19 C16 1_555 1_555
C17 C16 1_555 1_555
H20 C17 1_555 1_555
C18 C17 1_555 1_555
C19 C14 1_555 1_555
H21 C19 1_555 1_555
C20 C18 1_555 1_555
H22 C20 1_555 1_555
C21 C20 1_555 1_555
H23 C21 1_555 1_555
H24 C21 1_555 1_555
C22 O8 1_555 1_555
C23 C22 1_555 1_555
H25 C23 1_555 1_555
H26 C23 1_555 1_555
C24 H27 1_555 1_555
H28 C24 1_555 1_555
C25 C8 1_555 1_555
H29 C25 1_555 1_555
H30 C25 1_555 1_555
C26 O6 1_555 1_555
C27 C26 1_555 1_555
H31 C27 1_555 1_555
C28 C27 1_555 1_555
H32 C28 1_555 1_555
C29 C28 1_555 1_555
H33 C29 1_555 1_555
C30 C29 1_555 1_555
C31 C26 1_555 1_555
H34 C31 1_555 1_555
C32 C30 1_555 1_555
H35 C32 1_555 1_555
C33 C32 1_555 1_555
H36 C33 1_555 1_555
H37 C33 1_555 1_555
C34 O9 1_555 1_555
C35 C34 1_555 1_555
H38 C35 1_555 1_555
H39 C35 1_555 1_555
C36 C6 1_555 1_555
H40 C36 1_555 1_555
H41 C36 1_555 1_555
C37 O7 1_555 1_555
C38 C37 1_555 1_555
H42 C38 1_555 1_555
C39 C38 1_555 1_555
H43 C39 1_555 1_555
C40 C39 1_555 1_555
H44 C40 1_555 1_555
C41 C40 1_555 1_555
C42 C37 1_555 1_555
H45 C42 1_555 1_555
C43 C24 1_555 1_555
H46 C43 1_555 1_555
C44 O10 1_555 1_555
C45 C44 1_555 1_555
H47 C45 1_555 1_555
H48 C45 1_555 1_555
C46 C23 1_555 1_555
C47 C46 1_555 1_555
C48 C45 1_555 1_555
C49 C48 1_555 1_555
C50 C35 1_555 1_555
C51 C46 1_555 1_555
C52 C47 1_555 1_555
H49 C52 1_555 1_555
H50 C52 1_555 1_555
H51 C52 1_555 1_555
C53 C49 1_555 1_555
H52 C53 1_555 1_555
H53 C53 1_555 1_555
H54 C53 1_555 1_555
C54 C51 1_555 1_555
H55 C54 1_555 1_555
H56 C54 1_555 1_555
H57 C54 1_555 1_555
N4 H58 1_555 1_555
H59 N4 1_555 1_555
H60 N4 1_555 1_555
C55 C56 1_555 1_555
C56 H61 1_555 1_555
C57 C56 1_555 1_555
H62 C57 1_555 1_555
C58 C57 1_555 1_555
H63 C58 1_555 1_555
C59 C58 1_555 1_555
H64 C59 1_555 1_555
C60 C55 1_555 1_555
H65 C60 1_555 1_555
C61 N4 1_555 1_555
H66 C61 1_555 1_555
C62 C61 1_555 1_555
H67 C62 1_555 1_555
H68 C62 1_555 1_555
H69 C62 1_555 1_555
N1 C22 1_555 1_555
N2 C34 1_555 1_555
N3 C44 1_555 1_555
C18 C19 1_555 1_555
C30 C31 1_555 1_555
C41 C42 1_555 1_555
C41 C43 1_555 1_555
C47 C48 1_555 1_555
C49 C50 1_555 1_555
C50 C51 1_555 1_555
C55 C61 1_555 1_555
C59 C60 1_555 1_555

#END
