
#######################################################################
#
#                 Cambridge Crystallographic Data Centre
#                                CCDC 
#
#######################################################################
#
# If this CIF has been generated from an entry in the Cambridge 
# Structural Database, then it will include bibliographic, chemical, 
# crystal, experimental, refinement or atomic coordinate data resulting 
# from the CCDC's data processing and validation procedures.
#
#######################################################################

data_UPISAO
_chemical_formula_moiety         'C21 H18 Br1 F3 O3'
_chemical_name_systematic        
'Ethyl 2-(3-bromophenyl)-6-phenyl-6-(trifluoromethyl)-5,6-dihydro-2H-pyran-3-carboxylate'
_symmetry_cell_setting           triclinic
_symmetry_space_group_name_H-M   'P -1'
_symmetry_Int_Tables_number      2
_space_group_name_Hall           '-P 1'
loop_
_symmetry_equiv_pos_site_id
_symmetry_equiv_pos_as_xyz
1 x,y,z
2 -x,-y,-z
_cell_length_a                   9.156(2)
_cell_length_b                   10.791(3)
_cell_length_c                   20.165(6)
_cell_angle_alpha                86.746(10)
_cell_angle_beta                 84.069(9)
_cell_angle_gamma                79.233(10)
_cell_volume                     1945.37
_exptl_crystal_colour            colorless
_exptl_crystal_description       block
_cell_formula_units_Z            4
loop_
_atom_site_label
_atom_site_type_symbol
_atom_site_fract_x
_atom_site_fract_y
_atom_site_fract_z
Br1 Br 0.58128(5) 0.73974(5) 0.22605(3)
O1 O 0.3145(3) 1.1817(3) 0.11685(13)
O2 O -0.0524(4) 0.9177(3) 0.10552(15)
O3 O -0.0912(3) 1.0624(3) 0.18474(15)
C1 C 0.3202(5) 1.2187(4) 0.0474(2)
C2 C 0.2811(5) 1.1169(4) 0.0059(2)
H1 H 0.2475 1.1560 -0.0368
H2 H 0.3720 1.0528 -0.0046
C3 C 0.1621(5) 1.0535(4) 0.0408(2)
H3 H 0.1167 1.0022 0.0154
C4 C 0.1158(5) 1.0639(4) 0.1047(2)
C5 C 0.1853(5) 1.1378(4) 0.1504(2)
H4 H 0.1099 1.2109 0.1678
C6 C 0.4782(5) 1.2411(4) 0.0276(2)
C7 C 0.5782(5) 1.2439(4) 0.0746(2)
H5 H 0.5470 1.2330 0.1206
C8 C 0.7231(5) 1.2622(4) 0.0554(2)
H6 H 0.7901 1.2638 0.0882
C9 C 0.7695(5) 1.2781(5) -0.0113(2)
H7 H 0.8684 1.2911 -0.0244
C10 C 0.6730(5) 1.2753(5) -0.0589(2)
H8 H 0.7053 1.2857 -0.1048
C11 C 0.5280(5) 1.2570(4) -0.0396(2)
H9 H 0.4618 1.2554 -0.0727
C12 C 0.2117(5) 1.3437(4) 0.0405(2)
C13 C -0.0149(5) 1.0040(4) 0.1309(2)
C14 C -0.2251(5) 1.0123(5) 0.2099(2)
H10 H -0.1989 0.9206 0.2204
H11 H -0.2978 1.0258 0.1759
C15 C -0.2912(6) 1.0809(5) 0.2716(3)
H12 H -0.3812 1.0491 0.2898
H13 H -0.3173 1.1714 0.2606
H14 H -0.2183 1.0669 0.3048
C16 C 0.2472(4) 1.0537(4) 0.2082(2)
C17 C 0.1906(5) 1.0744(4) 0.2735(2)
H15 H 0.1111 1.1430 0.2834
C18 C 0.2492(5) 0.9956(4) 0.3248(2)
H16 H 0.2092 1.0106 0.3696
C19 C 0.3645(5) 0.8961(4) 0.3116(2)
H17 H 0.4040 0.8420 0.3468
C20 C 0.4217(5) 0.8762(4) 0.2461(2)
C21 C 0.3648(5) 0.9545(4) 0.1944(2)
H18 H 0.4061 0.9404 0.1497
F1 F 0.2179(3) 1.3926(3) -0.02229(14)
F2 F 0.2394(3) 1.4316(2) 0.07913(15)
F3 F 0.0683(3) 1.3331(2) 0.05651(13)
Br2 Br 0.07704(6) 0.76241(5) 0.26714(3)
O4 O -0.0593(3) 0.3294(3) 0.38651(13)
O5 O -0.5437(3) 0.5996(3) 0.39321(15)
O6 O -0.4827(3) 0.4440(3) 0.32005(15)
C22 C -0.0754(5) 0.2911(4) 0.4555(2)
C23 C -0.1706(5) 0.3972(4) 0.4964(2)
H19 H -0.2099 0.3609 0.5393
H20 H -0.1070 0.4571 0.5066
C24 C -0.2983(5) 0.4670(4) 0.4609(2)
H21 H -0.3735 0.5240 0.4855
C25 C -0.3123(4) 0.4539(4) 0.3971(2)
C26 C -0.1917(4) 0.3769(4) 0.3523(2)
H22 H -0.2302 0.3045 0.3360
C27 C 0.0837(5) 0.2571(4) 0.4768(2)
C28 C 0.2073(5) 0.2508(4) 0.4306(2)
H23 H 0.1943 0.2679 0.3846
C29 C 0.3502(5) 0.2196(5) 0.4510(3)
H24 H 0.4345 0.2158 0.4189
C30 C 0.3704(5) 0.1942(5) 0.5174(3)
H25 H 0.4686 0.1722 0.5310
C31 C 0.2488(6) 0.2006(5) 0.5643(3)
H26 H 0.2629 0.1836 0.6102
C32 C 0.1054(5) 0.2321(4) 0.5440(2)
H27 H 0.0214 0.2367 0.5762
C33 C -0.1450(5) 0.1716(4) 0.4613(2)
C34 C -0.4575(5) 0.5111(4) 0.3707(2)
C35 C -0.6281(5) 0.4829(5) 0.2945(3)
H28 H -0.6410 0.5723 0.2783
H29 H -0.7087 0.4745 0.3303
C36 C -0.6350(7) 0.4003(6) 0.2390(3)
H30 H -0.7343 0.4208 0.2228
H31 H -0.6158 0.3118 0.2549
H32 H -0.5593 0.4139 0.2025
C37 C -0.1377(4) 0.4557(4) 0.2930(2)
C38 C -0.1606(5) 0.4320(4) 0.2287(2)
H33 H -0.2076 0.3635 0.2209
C39 C -0.1151(5) 0.5078(4) 0.1754(2)
H34 H -0.1324 0.4914 0.1314
C40 C -0.0449(5) 0.6067(4) 0.1860(2)
H35 H -0.0140 0.6589 0.1497
C41 C -0.0206(5) 0.6279(4) 0.2505(2)
C42 C -0.0662(4) 0.5537(4) 0.3039(2)
H36 H -0.0484 0.5699 0.3479
F4 F -0.1548(3) 0.1232(3) 0.52373(14)
F5 F -0.0655(3) 0.0810(2) 0.42278(15)
F6 F -0.2842(3) 0.1902(2) 0.44240(13)
loop_
_geom_bond_atom_site_label_1
_geom_bond_atom_site_label_2
_geom_bond_site_symmetry_1
_geom_bond_site_symmetry_2
Br1 C20 1_555 1_555
Br2 C41 1_555 1_555
O1 C1 1_555 1_555
O2 C13 1_555 1_555
O3 C13 1_555 1_555
O4 C22 1_555 1_555
O5 C34 1_555 1_555
O6 C34 1_555 1_555
C1 C2 1_555 1_555
C2 H1 1_555 1_555
H2 C2 1_555 1_555
C3 C2 1_555 1_555
H3 C3 1_555 1_555
C4 C3 1_555 1_555
C5 O1 1_555 1_555
H4 C5 1_555 1_555
C6 C1 1_555 1_555
C7 C6 1_555 1_555
H5 C7 1_555 1_555
C8 C7 1_555 1_555
H6 C8 1_555 1_555
C9 C8 1_555 1_555
H7 C9 1_555 1_555
C10 C9 1_555 1_555
H8 C10 1_555 1_555
C11 C6 1_555 1_555
H9 C11 1_555 1_555
C12 C1 1_555 1_555
C13 C4 1_555 1_555
C14 O3 1_555 1_555
H10 C14 1_555 1_555
H11 C14 1_555 1_555
C15 C14 1_555 1_555
H12 C15 1_555 1_555
H13 C15 1_555 1_555
H14 C15 1_555 1_555
C16 C5 1_555 1_555
C17 C16 1_555 1_555
H15 C17 1_555 1_555
C18 C17 1_555 1_555
H16 C18 1_555 1_555
C19 C18 1_555 1_555
H17 C19 1_555 1_555
C20 C19 1_555 1_555
C21 C16 1_555 1_555
H18 C21 1_555 1_555
C22 C23 1_555 1_555
C23 H19 1_555 1_555
H20 C23 1_555 1_555
C24 C23 1_555 1_555
H21 C24 1_555 1_555
C25 C24 1_555 1_555
C26 O4 1_555 1_555
H22 C26 1_555 1_555
C27 C22 1_555 1_555
C28 C27 1_555 1_555
H23 C28 1_555 1_555
C29 C28 1_555 1_555
H24 C29 1_555 1_555
C30 C29 1_555 1_555
H25 C30 1_555 1_555
C31 C30 1_555 1_555
H26 C31 1_555 1_555
C32 C27 1_555 1_555
H27 C32 1_555 1_555
C33 C22 1_555 1_555
C34 C25 1_555 1_555
C35 O6 1_555 1_555
H28 C35 1_555 1_555
H29 C35 1_555 1_555
C36 C35 1_555 1_555
H30 C36 1_555 1_555
H31 C36 1_555 1_555
H32 C36 1_555 1_555
C37 C26 1_555 1_555
C38 C37 1_555 1_555
H33 C38 1_555 1_555
C39 C38 1_555 1_555
H34 C39 1_555 1_555
C40 C39 1_555 1_555
H35 C40 1_555 1_555
C41 C40 1_555 1_555
C42 C37 1_555 1_555
H36 C42 1_555 1_555
F1 C12 1_555 1_555
F2 C12 1_555 1_555
F3 C12 1_555 1_555
F4 C33 1_555 1_555
F5 C33 1_555 1_555
F6 C33 1_555 1_555
C4 C5 1_555 1_555
C10 C11 1_555 1_555
C20 C21 1_555 1_555
C25 C26 1_555 1_555
C31 C32 1_555 1_555
C41 C42 1_555 1_555

#END
