
#######################################################################
#
#                 Cambridge Crystallographic Data Centre
#                                CCDC 
#
#######################################################################
#
# If this CIF has been generated from an entry in the Cambridge 
# Structural Database, then it will include bibliographic, chemical, 
# crystal, experimental, refinement or atomic coordinate data resulting 
# from the CCDC's data processing and validation procedures.
#
#######################################################################

data_UPIXOI
_chemical_formula_moiety         'C22 H16 Cl1 N1 O1'
_chemical_name_systematic        
3-(4-chlorophenyl)-1-methyl-4-phenylquinolin-2(1H)-one
_symmetry_cell_setting           triclinic
_symmetry_space_group_name_H-M   'P -1'
_symmetry_Int_Tables_number      2
_space_group_name_Hall           '-P 1'
loop_
_symmetry_equiv_pos_site_id
_symmetry_equiv_pos_as_xyz
1 x,y,z
2 -x,-y,-z
_cell_length_a                   9.594(7)
_cell_length_b                   9.699(7)
_cell_length_c                   11.132(6)
_cell_angle_alpha                67.85(5)
_cell_angle_beta                 65.73(4)
_cell_angle_gamma                70.29(5)
_cell_volume                     853.991
_exptl_crystal_colour            colorless
_exptl_crystal_description       Prism
_cell_formula_units_Z            2
loop_
_atom_site_label
_atom_site_type_symbol
_atom_site_fract_x
_atom_site_fract_y
_atom_site_fract_z
Cl1 Cl -0.47819(5) 0.38596(5) 0.15683(4)
O1 O -0.33070(15) 0.24313(15) 0.71439(13)
N1 N -0.10368(18) 0.21668(18) 0.75043(15)
C1 C -0.1727(2) 0.1797(2) 0.36385(19)
H1 H -0.0986 0.0860 0.3767
C2 C -0.2593(2) 0.2094(2) 0.27941(19)
H2 H -0.2458 0.1364 0.2357
C3 C -0.3658(2) 0.3479(2) 0.26011(18)
C4 C -0.3866(2) 0.4565(2) 0.32271(18)
H3 H -0.4581 0.5517 0.3069
C5 C -0.3013(2) 0.4238(2) 0.40842(18)
H4 H -0.3166 0.4964 0.4533
C6 C -0.1929(2) 0.2852(2) 0.43006(17)
C7 C -0.0997(2) 0.25496(19) 0.51982(18)
C8 C 0.0588(2) 0.23923(19) 0.47067(18)
C9 C 0.1439(2) 0.21182(19) 0.56237(18)
C10 C 0.3073(2) 0.1960(2) 0.51652(19)
H5 H 0.3648 0.2033 0.4224
C11 C 0.3862(2) 0.1702(2) 0.6057(2)
H6 H 0.4967 0.1587 0.5734
C12 C 0.3010(2) 0.1612(2) 0.7436(2)
H7 H 0.3545 0.1432 0.8052
C13 C 0.1400(2) 0.1782(2) 0.79219(19)
H8 H 0.0841 0.1734 0.8861
C14 C 0.0584(2) 0.20242(19) 0.70294(18)
C15 C -0.1886(2) 0.2391(2) 0.66646(19)
C16 C -0.1921(2) 0.2035(3) 0.89697(19)
H9 H -0.3042 0.2223 0.9121
H10 H -0.1730 0.2787 0.9243
H11 H -0.1578 0.1007 0.9519
C17 C 0.1445(2) 0.2521(2) 0.32107(18)
C18 C 0.1141(2) 0.3891(2) 0.2222(2)
H12 H 0.0430 0.4756 0.2503
C19 C 0.1874(2) 0.3994(2) 0.0832(2)
H13 H 0.1663 0.4929 0.0168
C20 C 0.2915(3) 0.2731(3) 0.0410(2)
H14 H 0.3423 0.2805 -0.0539
C21 C 0.3210(2) 0.1359(2) 0.1387(2)
H15 H 0.3906 0.0491 0.1102
C22 C 0.2487(2) 0.1254(2) 0.27792(19)
H16 H 0.2702 0.0319 0.3440
loop_
_geom_bond_atom_site_label_1
_geom_bond_atom_site_label_2
_geom_bond_site_symmetry_1
_geom_bond_site_symmetry_2
Cl1 C3 1_555 1_555
O1 C15 1_555 1_555
N1 C14 1_555 1_555
C1 H1 1_555 1_555
C2 C1 1_555 1_555
H2 C2 1_555 1_555
C3 C2 1_555 1_555
C4 C3 1_555 1_555
H3 C4 1_555 1_555
C5 C4 1_555 1_555
H4 C5 1_555 1_555
C6 C1 1_555 1_555
C7 C6 1_555 1_555
C8 C7 1_555 1_555
C9 C8 1_555 1_555
C10 C9 1_555 1_555
H5 C10 1_555 1_555
C11 C10 1_555 1_555
H6 C11 1_555 1_555
C12 C11 1_555 1_555
H7 C12 1_555 1_555
C13 C12 1_555 1_555
H8 C13 1_555 1_555
C14 C9 1_555 1_555
C15 N1 1_555 1_555
C16 N1 1_555 1_555
H9 C16 1_555 1_555
H10 C16 1_555 1_555
H11 C16 1_555 1_555
C17 C8 1_555 1_555
C18 C17 1_555 1_555
H12 C18 1_555 1_555
C19 C18 1_555 1_555
H13 C19 1_555 1_555
C20 C19 1_555 1_555
H14 C20 1_555 1_555
C21 C20 1_555 1_555
H15 C21 1_555 1_555
C22 C17 1_555 1_555
H16 C22 1_555 1_555
C5 C6 1_555 1_555
C7 C15 1_555 1_555
C13 C14 1_555 1_555
C21 C22 1_555 1_555

#END
