
#######################################################################
#
#                 Cambridge Crystallographic Data Centre
#                                CCDC 
#
#######################################################################
#
# If this CIF has been generated from an entry in the Cambridge 
# Structural Database, then it will include bibliographic, chemical, 
# crystal, experimental, refinement or atomic coordinate data resulting 
# from the CCDC's data processing and validation procedures.
#
#######################################################################

data_UPIXAU
_chemical_formula_moiety         'C22 H13 F1'
_chemical_name_systematic        9-fluorobenzo[g]chrysene
_symmetry_cell_setting           monoclinic
_symmetry_space_group_name_H-M   'P 21'
_symmetry_Int_Tables_number      4
_space_group_name_Hall           'P 2yb'
loop_
_symmetry_equiv_pos_site_id
_symmetry_equiv_pos_as_xyz
1 x,y,z
2 -x,1/2+y,-z
_cell_length_a                   9.2304(13)
_cell_length_b                   5.3143(18)
_cell_length_c                   14.9947(11)
_cell_angle_alpha                90
_cell_angle_beta                 104.81
_cell_angle_gamma                90
_cell_volume                     711.101
_exptl_crystal_colour            colorless
_exptl_crystal_description       plate
_cell_formula_units_Z            2
loop_
_atom_site_label
_atom_site_type_symbol
_atom_site_fract_x
_atom_site_fract_y
_atom_site_fract_z
C1 C 0.40149(19) 0.1941(4) 0.71674(11)
C2 C 0.3414(2) 0.0632(4) 0.63004(12)
C3 C 0.2103(2) 0.1415(4) 0.56345(13)
H1 H 0.1597 0.2849 0.5745
C4 C 0.1568(2) 0.0099(6) 0.48321(14)
H2 H 0.0706 0.0647 0.4407
C5 C 0.2297(3) -0.2037(5) 0.46466(15)
H3 H 0.1897 -0.2974 0.4117
C6 C 0.3601(3) -0.2757(5) 0.52423(15)
H4 H 0.4097 -0.4178 0.5111
C7 C 0.4217(2) -0.1385(4) 0.60583(12)
C8 C 0.5681(2) -0.1874(4) 0.66002(13)
H5 H 0.6212 -0.3258 0.6473
C9 C 0.6300(2) -0.0326(4) 0.73012(13)
C10 C 0.5537(2) 0.1646(4) 0.76338(12)
C11 C 0.62321(19) 0.3347(4) 0.84008(11)
C12 C 0.7762(2) 0.3237(4) 0.88666(13)
H6 H 0.8356 0.1974 0.8716
C13 C 0.8397(2) 0.4952(5) 0.95388(13)
H7 H 0.9414 0.4845 0.9830
C14 C 0.7545(2) 0.6828(5) 0.97864(13)
H8 H 0.7980 0.7981 1.0243
C15 C 0.6047(2) 0.6975(5) 0.93508(12)
H9 H 0.5473 0.8244 0.9517
C16 C 0.53579(19) 0.5253(4) 0.86590(11)
C17 C 0.37398(19) 0.5344(4) 0.82486(12)
C18 C 0.2817(2) 0.7050(5) 0.85512(13)
H10 H 0.3252 0.8305 0.8966
C19 C 0.1288(2) 0.6925(5) 0.82535(13)
H11 H 0.0698 0.8129 0.8441
C20 C 0.0626(2) 0.4993(5) 0.76712(12)
H12 H -0.0411 0.4823 0.7504
C21 C 0.1498(2) 0.3336(4) 0.73409(12)
H13 H 0.1044 0.2023 0.6961
C22 C 0.30807(19) 0.3585(4) 0.75673(11)
F1 F 0.77693(12) -0.0775(3) 0.77254(7)
loop_
_geom_bond_atom_site_label_1
_geom_bond_atom_site_label_2
_geom_bond_site_symmetry_1
_geom_bond_site_symmetry_2
C1 C2 1_555 1_555
C2 C3 1_555 1_555
C3 H1 1_555 1_555
C4 C3 1_555 1_555
H2 C4 1_555 1_555
C5 C4 1_555 1_555
H3 C5 1_555 1_555
C6 C5 1_555 1_555
H4 C6 1_555 1_555
C7 C2 1_555 1_555
C8 C7 1_555 1_555
H5 C8 1_555 1_555
C9 C8 1_555 1_555
C10 C1 1_555 1_555
C11 C10 1_555 1_555
C12 C11 1_555 1_555
H6 C12 1_555 1_555
C13 C12 1_555 1_555
H7 C13 1_555 1_555
C14 C13 1_555 1_555
H8 C14 1_555 1_555
C15 C14 1_555 1_555
H9 C15 1_555 1_555
C16 C11 1_555 1_555
C17 C16 1_555 1_555
C18 C17 1_555 1_555
H10 C18 1_555 1_555
C19 C18 1_555 1_555
H11 C19 1_555 1_555
C20 C19 1_555 1_555
H12 C20 1_555 1_555
C21 C20 1_555 1_555
H13 C21 1_555 1_555
C22 C1 1_555 1_555
F1 C9 1_555 1_555
C6 C7 1_555 1_555
C9 C10 1_555 1_555
C15 C16 1_555 1_555
C17 C22 1_555 1_555
C21 C22 1_555 1_555

#END
