
#######################################################################
#
#                 Cambridge Crystallographic Data Centre
#                                CCDC 
#
#######################################################################
#
# If this CIF has been generated from an entry in the Cambridge 
# Structural Database, then it will include bibliographic, chemical, 
# crystal, experimental, refinement or atomic coordinate data resulting 
# from the CCDC's data processing and validation procedures.
#
#######################################################################

data_UPIXIC
_chemical_formula_moiety         'C22 H18 Cl1 N1 O1'
_chemical_name_systematic        
3-(4-chlorophenyl)-N-methyl-N,3-diphenylacrylamide
_symmetry_cell_setting           orthorhombic
_symmetry_space_group_name_H-M   'P b c a'
_symmetry_Int_Tables_number      61
_space_group_name_Hall           '-P 2ac 2ab'
loop_
_symmetry_equiv_pos_site_id
_symmetry_equiv_pos_as_xyz
1 x,y,z
2 1/2-x,-y,1/2+z
3 -x,1/2+y,1/2-z
4 1/2+x,1/2-y,-z
5 -x,-y,-z
6 1/2+x,y,1/2-z
7 x,1/2-y,1/2+z
8 1/2-x,1/2+y,z
_cell_length_a                   14.855(8)
_cell_length_b                   14.726(8)
_cell_length_c                   16.022(9)
_cell_angle_alpha                90
_cell_angle_beta                 90
_cell_angle_gamma                90
_cell_volume                     3504.89
_exptl_crystal_colour            colorless
_exptl_crystal_description       Prism
_cell_formula_units_Z            8
loop_
_atom_site_label
_atom_site_type_symbol
_atom_site_fract_x
_atom_site_fract_y
_atom_site_fract_z
Cl1 Cl 1.05571(3) 0.77050(3) 0.18704(2)
O1 O 0.55947(6) 1.05245(7) 0.37901(7)
N1 N 0.65905(7) 1.10450(8) 0.47364(7)
C1 C 0.84904(9) 0.80062(10) 0.34315(9)
H1 H 0.8141 0.7631 0.3789
C2 C 0.91682(10) 0.76210(10) 0.29551(9)
H2 H 0.9283 0.6987 0.2980
C3 C 0.96733(9) 0.81770(10) 0.24421(9)
C4 C 0.95196(9) 0.91012(10) 0.23882(9)
H3 H 0.9875 0.9473 0.2033
C5 C 0.88348(9) 0.94707(10) 0.28653(9)
H4 H 0.8719 1.0104 0.2831
C6 C 0.83118(9) 0.89359(9) 0.33943(8)
C7 C 0.75986(9) 0.93515(10) 0.39231(9)
C8 C 0.75195(9) 0.90270(9) 0.47988(9)
C9 C 0.66836(10) 0.88717(10) 0.51642(10)
H5 H 0.6152 0.8959 0.4845
C10 C 0.66161(11) 0.85901(11) 0.59890(10)
H6 H 0.6041 0.8489 0.6232
C11 C 0.73882(11) 0.84574(10) 0.64556(10)
H7 H 0.7344 0.8260 0.7019
C12 C 0.82271(11) 0.86114(10) 0.61032(10)
H8 H 0.8757 0.8528 0.6426
C13 C 0.82906(10) 0.88872(10) 0.52798(9)
H9 H 0.8867 0.8983 0.5038
C14 C 0.70832(9) 1.00149(9) 0.36126(9)
H10 H 0.7181 1.0170 0.3044
C15 C 0.63744(9) 1.05370(9) 0.40569(9)
C16 C 0.58383(10) 1.14482(11) 0.51980(10)
H11 H 0.5439 1.1766 0.4808
H12 H 0.6072 1.1880 0.5610
H13 H 0.5502 1.0968 0.5484
C17 C 0.74777(9) 1.11173(9) 0.50786(9)
C18 C 0.76100(10) 1.09711(10) 0.59279(9)
H14 H 0.7112 1.0837 0.6279
C19 C 0.84665(10) 1.10222(10) 0.62578(10)
H15 H 0.8554 1.0934 0.6840
C20 C 0.91966(10) 1.12002(10) 0.57522(9)
H16 H 0.9787 1.1213 0.5980
C21 C 0.90623(10) 1.13611(10) 0.49085(10)
H17 H 0.9562 1.1491 0.4558
C22 C 0.82045(10) 1.13335(9) 0.45755(9)
H18 H 0.8114 1.1463 0.4001
loop_
_geom_bond_atom_site_label_1
_geom_bond_atom_site_label_2
_geom_bond_site_symmetry_1
_geom_bond_site_symmetry_2
Cl1 C3 1_555 1_555
O1 C15 1_555 1_555
N1 C15 1_555 1_555
C1 H1 1_555 1_555
C2 C1 1_555 1_555
H2 C2 1_555 1_555
C3 C2 1_555 1_555
C4 C3 1_555 1_555
H3 C4 1_555 1_555
C5 C4 1_555 1_555
H4 C5 1_555 1_555
C6 C1 1_555 1_555
C7 C6 1_555 1_555
C8 C7 1_555 1_555
C9 C8 1_555 1_555
H5 C9 1_555 1_555
C10 C9 1_555 1_555
H6 C10 1_555 1_555
C11 C10 1_555 1_555
H7 C11 1_555 1_555
C12 C11 1_555 1_555
H8 C12 1_555 1_555
C13 C8 1_555 1_555
H9 C13 1_555 1_555
C14 C7 1_555 1_555
H10 C14 1_555 1_555
C15 C14 1_555 1_555
C16 N1 1_555 1_555
H11 C16 1_555 1_555
H12 C16 1_555 1_555
H13 C16 1_555 1_555
C17 N1 1_555 1_555
C18 C17 1_555 1_555
H14 C18 1_555 1_555
C19 C18 1_555 1_555
H15 C19 1_555 1_555
C20 C19 1_555 1_555
H16 C20 1_555 1_555
C21 C20 1_555 1_555
H17 C21 1_555 1_555
C22 C17 1_555 1_555
H18 C22 1_555 1_555
C5 C6 1_555 1_555
C12 C13 1_555 1_555
C21 C22 1_555 1_555

#END
