
#######################################################################
#
#                 Cambridge Crystallographic Data Centre
#                                CCDC 
#
#######################################################################
#
# If this CIF has been generated from an entry in the Cambridge 
# Structural Database, then it will include bibliographic, chemical, 
# crystal, experimental, refinement or atomic coordinate data resulting 
# from the CCDC's data processing and validation procedures.
#
#######################################################################

data_UPOHOY
_chemical_formula_moiety         'C28 H22 Br1 Cl1 N2 O7'
_chemical_name_systematic        
"Methyl (3-(4-bromophenyl)-8-chloro-1'-methyl-3a-nitro-2'-oxo-1',2',3a,9b-tetrahydro-3H,4H-spiro[furo[3,4-c]chromene-1,3'-indol]-4-yl)acetate"
_symmetry_cell_setting           triclinic
_symmetry_space_group_name_H-M   'P -1'
_symmetry_Int_Tables_number      2
_space_group_name_Hall           '-P 1'
loop_
_symmetry_equiv_pos_site_id
_symmetry_equiv_pos_as_xyz
1 x,y,z
2 -x,-y,-z
_cell_length_a                   9.4166(3)
_cell_length_b                   10.7856(3)
_cell_length_c                   13.4728(4)
_cell_angle_alpha                93.6470(10)
_cell_angle_beta                 92.0120(10)
_cell_angle_gamma                99.3330(10)
_cell_volume                     1346.06
_exptl_crystal_colour            colorless
_exptl_crystal_description       block
_cell_formula_units_Z            2
loop_
_atom_site_label
_atom_site_type_symbol
_atom_site_fract_x
_atom_site_fract_y
_atom_site_fract_z
Br1 Br 0.36273(4) 0.46157(4) 0.82347(3)
Cl1 Cl 1.38775(8) 1.36316(7) 0.54283(6)
O1 O 1.2957(2) 0.7651(2) 1.00996(16)
O2 O 1.2816(2) 0.9680(2) 0.99784(15)
O3 O 1.24644(18) 0.91225(15) 0.76249(12)
O4 O 1.0129(2) 1.17980(17) 0.88130(13)
O5 O 0.78662(17) 1.01014(15) 0.74952(13)
O6 O 0.9871(3) 0.68565(18) 0.72030(18)
O7 O 0.9153(3) 0.77624(18) 0.59876(14)
N1 N 0.9323(2) 1.31138(19) 0.77255(17)
N2 N 0.9635(2) 0.77836(18) 0.68277(15)
C1 C 0.8708(3) 1.3001(2) 0.6748(2)
C2 C 0.8384(3) 1.3936(3) 0.6167(2)
H1 H 0.8532 1.4776 0.6411
C3 C 0.7834(3) 1.3576(3) 0.5213(2)
H2 H 0.7622 1.4191 0.4803
C4 C 0.7587(3) 1.2337(3) 0.4846(2)
H3 H 0.7195 1.2123 0.4203
C5 C 0.7922(3) 1.1406(3) 0.54360(19)
H4 H 0.7766 1.0566 0.5193
C6 C 0.8490(2) 1.1750(2) 0.63866(18)
C7 C 0.9022(2) 1.0978(2) 0.71585(17)
C8 C 0.9592(3) 1.1985(2) 0.80150(19)
C9 C 0.8461(3) 0.9169(2) 0.80173(18)
H5 H 0.8728 0.9515 0.8701
C10 C 0.9875(2) 0.9024(2) 0.74769(17)
C11 C 1.0103(2) 1.0135(2) 0.68041(17)
H6 H 0.9763 0.9789 0.6132
C12 C 1.1647(2) 1.0748(2) 0.67276(16)
C13 C 1.2758(3) 1.0178(2) 0.71035(17)
C14 C 1.4185(3) 1.0631(3) 0.6941(2)
H7 H 1.4909 1.0220 0.7179
C15 C 1.4527(3) 1.1691(3) 0.6429(2)
H8 H 1.5484 1.2007 0.6322
C16 C 1.3437(3) 1.2284(2) 0.60722(19)
C17 C 1.2013(3) 1.1823(2) 0.62093(17)
H9 H 1.1295 1.2229 0.5956
C18 C 1.1193(3) 0.9098(2) 0.81868(17)
H10 H 1.1296 0.9911 0.8573
C19 C 1.1265(3) 0.8110(2) 0.89290(19)
H11 H 1.0346 0.7917 0.9235
H12 H 1.1471 0.7342 0.8590
C20 C 1.2431(3) 0.8597(3) 0.97158(19)
C21 C 1.4062(4) 0.8023(4) 1.0886(3)
H13 H 1.4383 0.7287 1.1116
H14 H 1.3674 0.8463 1.1427
H15 H 1.4860 0.8565 1.0634
C22 C 0.7302(3) 0.8041(2) 0.80571(18)
C23 C 0.6348(3) 0.7640(3) 0.7251(2)
H16 H 0.6440 0.8063 0.6670
C24 C 0.5261(3) 0.6620(3) 0.7298(2)
H17 H 0.4623 0.6357 0.6754
C25 C 0.5137(3) 0.6003(3) 0.8155(2)
C26 C 0.6070(4) 0.6375(3) 0.8969(2)
H18 H 0.5981 0.5941 0.9544
C27 C 0.7144(3) 0.7407(3) 0.8915(2)
H19 H 0.7768 0.7677 0.9465
C28 C 0.9571(4) 1.4266(3) 0.8379(3)
H20 H 0.9992 1.4101 0.9007
H21 H 0.8672 1.4553 0.8484
H22 H 1.0214 1.4902 0.8077
loop_
_geom_bond_atom_site_label_1
_geom_bond_atom_site_label_2
_geom_bond_site_symmetry_1
_geom_bond_site_symmetry_2
Br1 C25 1_555 1_555
Cl1 C16 1_555 1_555
O1 C20 1_555 1_555
O2 C20 1_555 1_555
O3 C13 1_555 1_555
O4 C8 1_555 1_555
O5 C7 1_555 1_555
O6 N2 1_555 1_555
O7 N2 1_555 1_555
N1 C1 1_555 1_555
N2 C10 1_555 1_555
C1 C2 1_555 1_555
C2 H1 1_555 1_555
C3 C2 1_555 1_555
H2 C3 1_555 1_555
C4 C3 1_555 1_555
H3 C4 1_555 1_555
C5 C4 1_555 1_555
H4 C5 1_555 1_555
C6 C1 1_555 1_555
C7 C6 1_555 1_555
C8 N1 1_555 1_555
C9 O5 1_555 1_555
H5 C9 1_555 1_555
C10 C9 1_555 1_555
C11 C7 1_555 1_555
H6 C11 1_555 1_555
C12 C11 1_555 1_555
C13 C12 1_555 1_555
C14 C13 1_555 1_555
H7 C14 1_555 1_555
C15 C14 1_555 1_555
H8 C15 1_555 1_555
C16 C15 1_555 1_555
C17 C12 1_555 1_555
H9 C17 1_555 1_555
C18 O3 1_555 1_555
H10 C18 1_555 1_555
C19 C18 1_555 1_555
H11 C19 1_555 1_555
H12 C19 1_555 1_555
C20 C19 1_555 1_555
C21 O1 1_555 1_555
H13 C21 1_555 1_555
H14 C21 1_555 1_555
H15 C21 1_555 1_555
C22 C9 1_555 1_555
C23 C22 1_555 1_555
H16 C23 1_555 1_555
C24 C23 1_555 1_555
H17 C24 1_555 1_555
C25 C24 1_555 1_555
C26 C25 1_555 1_555
H18 C26 1_555 1_555
C27 C22 1_555 1_555
H19 C27 1_555 1_555
C28 N1 1_555 1_555
H20 C28 1_555 1_555
H21 C28 1_555 1_555
H22 C28 1_555 1_555
C5 C6 1_555 1_555
C7 C8 1_555 1_555
C10 C11 1_555 1_555
C10 C18 1_555 1_555
C16 C17 1_555 1_555
C26 C27 1_555 1_555

#END
