
#######################################################################
#
#                 Cambridge Crystallographic Data Centre
#                                CCDC 
#
#######################################################################
#
# If this CIF has been generated from an entry in the Cambridge 
# Structural Database, then it will include bibliographic, chemical, 
# crystal, experimental, refinement or atomic coordinate data resulting 
# from the CCDC's data processing and validation procedures.
#
#######################################################################

data_UPOHEO
_chemical_compound_source        'Hypericum uralum'
_chemical_name_common            'Uralione A'
_chemical_formula_moiety         'C35 H52 O5'
_chemical_name_systematic        
5-hydroxy-1-isobutyryl-4,4,12-trimethyl-9,11-bis(3-methylbut-2-en-1-yl)-12-(4-methylpent-3-en-1-yl)-3-oxatricyclo[7.3.1.0^2,7^]tridec-2(7)-ene-8,13-dione
_symmetry_cell_setting           orthorhombic
_symmetry_space_group_name_H-M   'P 21 21 21'
_symmetry_Int_Tables_number      19
_space_group_name_Hall           'P 2ac 2ab'
loop_
_symmetry_equiv_pos_site_id
_symmetry_equiv_pos_as_xyz
1 x,y,z
2 1/2-x,-y,1/2+z
3 1/2+x,1/2-y,-z
4 -x,1/2+y,1/2-z
_cell_length_a                   10.5497(2)
_cell_length_b                   12.5170(2)
_cell_length_c                   25.8998(4)
_cell_angle_alpha                90
_cell_angle_beta                 90
_cell_angle_gamma                90
_cell_volume                     3420.08
_cell_formula_units_Z            4
loop_
_atom_site_label
_atom_site_type_symbol
_atom_site_fract_x
_atom_site_fract_y
_atom_site_fract_z
O1 O 0.6528(3) 0.9805(2) 0.44091(10)
O2 O 0.5164(3) 0.8549(2) 0.28760(11)
O3 O 0.2563(3) 0.8135(3) 0.42433(13)
O4 O 0.7559(3) 1.0345(2) 0.31952(14)
O5 O 0.6786(4) 0.7806(3) 0.48738(13)
H1 H 0.7234 0.7526 0.5094
C1 C 0.5603(3) 0.9745(3) 0.35787(13)
C2 C 0.3469(4) 0.8816(3) 0.34768(14)
C3 C 0.4799(4) 0.8953(3) 0.32723(14)
C4 C 0.5539(3) 0.9421(3) 0.41447(14)
C5 C 0.4990(4) 1.0903(3) 0.34748(14)
C6 C 0.2841(4) 0.9935(3) 0.34237(16)
H2 H 0.2732 1.0093 0.3060
H3 H 0.2006 0.9909 0.3580
C7 C 0.2502(4) 0.5965(3) 0.32360(17)
C8 C 0.2709(4) 0.7977(3) 0.31813(18)
H4 H 0.1829 0.8020 0.3288
H5 H 0.2744 0.8144 0.2816
C9 C 0.3503(4) 0.8544(3) 0.40491(15)
C10 C 0.4614(4) 0.8812(3) 0.43505(14)
C11 C 0.5713(4) 1.1764(3) 0.37875(17)
H6 H 0.5250 1.1888 0.4105
H7 H 0.6532 1.1472 0.3882
C12 C 0.4672(5) 0.8453(4) 0.49038(16)
H8 H 0.4429 0.7707 0.4928
H9 H 0.4084 0.8869 0.5110
C13 C 0.3592(3) 1.0839(3) 0.36725(16)
H10 H 0.3635 1.0682 0.4043
C14 C 0.5016(4) 1.1125(3) 0.28930(16)
H11 H 0.5879 1.1178 0.2778
H12 H 0.4583 1.1783 0.2823
H13 H 0.4602 1.0552 0.2713
C15 C 0.7013(4) 0.9618(3) 0.33994(15)
C16 C 0.6004(5) 0.8597(4) 0.51082(16)
H14 H 0.6004 0.8495 0.5483
C17 C 0.3169(4) 0.6845(3) 0.32601(19)
H15 H 0.4026 0.6765 0.3334
C18 C 0.7683(4) 0.8558(4) 0.34899(18)
H16 H 0.7120 0.8079 0.3682
C19 C 0.5934(6) 1.2840(4) 0.3531(2)
H17 H 0.6611 1.2770 0.3280
H18 H 0.5172 1.3050 0.3348
C20 C 0.2854(4) 1.1899(3) 0.3617(2)
H19 H 0.3394 1.2490 0.3718
H20 H 0.2615 1.2001 0.3258
C21 C 0.6510(5) 0.9695(4) 0.49821(16)
C22 C 0.1684(5) 1.1893(4) 0.3948(2)
H21 H 0.1813 1.1756 0.4297
C23 C 0.0493(5) 1.2057(4) 0.3807(2)
C24 C 0.3088(6) 0.4887(4) 0.3298(2)
H22 H 0.2598 0.4475 0.3539
H23 H 0.3937 0.4964 0.3426
H24 H 0.3105 0.4530 0.2970
C25 C 0.8016(6) 0.8049(5) 0.2974(2)
H25 H 0.7253 0.7920 0.2782
H26 H 0.8446 0.7384 0.3033
H27 H 0.8558 0.8520 0.2783
C26 C 0.5687(7) 1.0577(5) 0.5189(2)
H28 H 0.6093 1.1252 0.5130
H29 H 0.5561 1.0476 0.5552
H30 H 0.4882 1.0565 0.5016
C27 C 0.7864(6) 0.9812(6) 0.5146(2)
H31 H 0.8360 0.9250 0.4995
H32 H 0.7918 0.9772 0.5515
H33 H 0.8183 1.0491 0.5031
C28 C 0.1120(6) 0.5964(5) 0.3116(3)
H34 H 0.0947 0.5440 0.2855
H35 H 0.0872 0.6657 0.2994
H36 H 0.0650 0.5794 0.3423
C29 C 0.6816(7) 1.4638(5) 0.3775(3)
C30 C -0.0562(6) 1.2016(6) 0.4189(3)
H37 H -0.0930 1.2714 0.4224
H38 H -0.0239 1.1786 0.4517
H39 H -0.1196 1.1522 0.4072
C31 C 0.6274(6) 1.3688(6) 0.3906(3)
H40 H 0.6105 1.3564 0.4253
C32 C 0.8889(6) 0.8751(7) 0.3804(3)
H41 H 0.9294 0.8080 0.3875
H42 H 0.8675 0.9095 0.4123
H43 H 0.9455 0.9199 0.3611
C33 C 0.0103(7) 1.2294(9) 0.3266(4)
H44 H 0.0823 1.2225 0.3042
H45 H -0.0220 1.3010 0.3247
H46 H -0.0544 1.1800 0.3162
C34 C 0.7145(9) 1.4934(7) 0.3252(3)
H47 H 0.7980 1.5239 0.3248
H48 H 0.6546 1.5449 0.3126
H49 H 0.7127 1.4312 0.3036
C35 C 0.7065(10) 1.5430(7) 0.4177(3)
H50 H 0.6302 1.5561 0.4369
H51 H 0.7350 1.6083 0.4021
H52 H 0.7708 1.5165 0.4406
loop_
_geom_bond_atom_site_label_1
_geom_bond_atom_site_label_2
_geom_bond_site_symmetry_1
_geom_bond_site_symmetry_2
O1 C4 1_555 1_555
O2 C3 1_555 1_555
O3 C9 1_555 1_555
O4 C15 1_555 1_555
O5 H1 1_555 1_555
C1 C3 1_555 1_555
C2 C3 1_555 1_555
C4 C1 1_555 1_555
C5 C1 1_555 1_555
C6 C2 1_555 1_555
H2 C6 1_555 1_555
H3 C6 1_555 1_555
C7 C17 1_555 1_555
C8 C2 1_555 1_555
H4 C8 1_555 1_555
H5 C8 1_555 1_555
C9 C2 1_555 1_555
C10 C4 1_555 1_555
C11 C5 1_555 1_555
H6 C11 1_555 1_555
H7 C11 1_555 1_555
C12 C10 1_555 1_555
H8 C12 1_555 1_555
H9 C12 1_555 1_555
C13 C5 1_555 1_555
H10 C13 1_555 1_555
C14 C5 1_555 1_555
H11 C14 1_555 1_555
H12 C14 1_555 1_555
H13 C14 1_555 1_555
C15 C1 1_555 1_555
C16 O5 1_555 1_555
H14 C16 1_555 1_555
C17 C8 1_555 1_555
H15 C17 1_555 1_555
C18 C15 1_555 1_555
H16 C18 1_555 1_555
C19 C11 1_555 1_555
H17 C19 1_555 1_555
H18 C19 1_555 1_555
C20 C13 1_555 1_555
H19 C20 1_555 1_555
H20 C20 1_555 1_555
C21 O1 1_555 1_555
C22 C20 1_555 1_555
H21 C22 1_555 1_555
C23 C22 1_555 1_555
C24 C7 1_555 1_555
H22 C24 1_555 1_555
H23 C24 1_555 1_555
H24 C24 1_555 1_555
C25 C18 1_555 1_555
H25 C25 1_555 1_555
H26 C25 1_555 1_555
H27 C25 1_555 1_555
C26 C21 1_555 1_555
H28 C26 1_555 1_555
H29 C26 1_555 1_555
H30 C26 1_555 1_555
C27 C21 1_555 1_555
H31 C27 1_555 1_555
H32 C27 1_555 1_555
H33 C27 1_555 1_555
C28 C7 1_555 1_555
H34 C28 1_555 1_555
H35 C28 1_555 1_555
H36 C28 1_555 1_555
C29 C31 1_555 1_555
C30 C23 1_555 1_555
H37 C30 1_555 1_555
H38 C30 1_555 1_555
H39 C30 1_555 1_555
C31 C19 1_555 1_555
H40 C31 1_555 1_555
C32 C18 1_555 1_555
H41 C32 1_555 1_555
H42 C32 1_555 1_555
H43 C32 1_555 1_555
C33 C23 1_555 1_555
H44 C33 1_555 1_555
H45 C33 1_555 1_555
H46 C33 1_555 1_555
C34 C29 1_555 1_555
H47 C34 1_555 1_555
H48 C34 1_555 1_555
H49 C34 1_555 1_555
C35 C29 1_555 1_555
H50 C35 1_555 1_555
H51 C35 1_555 1_555
H52 C35 1_555 1_555
C6 C13 1_555 1_555
C9 C10 1_555 1_555
C12 C16 1_555 1_555
C16 C21 1_555 1_555

#END
