
#######################################################################
#
#                 Cambridge Crystallographic Data Centre
#                                CCDC 
#
#######################################################################
#
# If this CIF has been generated from an entry in the Cambridge 
# Structural Database, then it will include bibliographic, chemical, 
# crystal, experimental, refinement or atomic coordinate data resulting 
# from the CCDC's data processing and validation procedures.
#
#######################################################################

data_UPOHUE
_chemical_formula_moiety         'C29 H25 Br1 N2 O8'
_chemical_name_systematic        
"Methyl (8-bromo-3-(2-methoxyphenyl)-1'-methyl-3a-nitro-2'-oxo-1',2',3a,9b-tetrahydro-3H,4H-spiro[furo[3,2-c]chromene-2,3'-indol]-4-yl)acetate"
_symmetry_cell_setting           triclinic
_symmetry_space_group_name_H-M   'P -1'
_symmetry_Int_Tables_number      2
_space_group_name_Hall           '-P 1'
loop_
_symmetry_equiv_pos_site_id
_symmetry_equiv_pos_as_xyz
1 x,y,z
2 -x,-y,-z
_cell_length_a                   9.6414(8)
_cell_length_b                   12.0321(10)
_cell_length_c                   12.9291(11)
_cell_angle_alpha                101.997(2)
_cell_angle_beta                 92.059(3)
_cell_angle_gamma                107.439(3)
_cell_volume                     1391.89
_exptl_crystal_colour            colorless
_exptl_crystal_description       block
_cell_formula_units_Z            2
loop_
_atom_site_label
_atom_site_type_symbol
_atom_site_fract_x
_atom_site_fract_y
_atom_site_fract_z
Br1 Br 0.88309(4) 0.11740(3) 0.15325(3)
O1 O 1.5389(3) 0.64235(18) -0.03016(19)
O2 O 1.4981(2) 0.76332(15) -0.12547(15)
O3 O 1.58052(18) 0.40290(17) -0.37758(15)
O4 O 1.0800(2) 0.02651(16) -0.37327(14)
O5 O 1.20566(19) 0.48537(14) -0.07823(14)
O6 O 0.9793(2) 0.3274(2) -0.2888(2)
O7 O 1.1506(2) 0.43730(17) -0.35835(15)
O8 O 1.24923(16) 0.17766(13) -0.17303(11)
N1 N 1.2953(3) -0.01646(19) -0.38751(18)
N2 N 1.1066(2) 0.36804(19) -0.30135(16)
C1 C 1.4512(3) 0.1384(2) -0.26368(19)
C2 C 1.5793(3) 0.2014(3) -0.2011(2)
H1 H 1.5883 0.2731 -0.1531
C3 C 1.6960(3) 0.1554(3) -0.2111(3)
H2 H 1.7841 0.1963 -0.1690
C4 C 1.6815(4) 0.0506(4) -0.2825(4)
H3 H 1.7607 0.0215 -0.2884
C5 C 1.5528(4) -0.0133(3) -0.3462(3)
H4 H 1.5441 -0.0844 -0.3949
C6 C 1.4376(3) 0.0324(2) -0.3349(2)
C7 C 1.2106(3) 0.0526(2) -0.35141(19)
C8 C 1.3104(2) 0.1662(2) -0.27215(17)
C9 C 1.3287(2) 0.28839(19) -0.30217(17)
H5 H 1.4257 0.3403 -0.2685
C10 C 1.2186(2) 0.3376(2) -0.23659(17)
C11 C 1.1421(2) 0.2371(2) -0.18184(18)
H6 H 1.0552 0.1817 -0.2275
C12 C 1.1014(2) 0.2785(2) -0.07295(18)
C13 C 1.0259(3) 0.1952(2) -0.01839(19)
H7 H 1.0021 0.1137 -0.0486
C14 C 0.9864(3) 0.2337(3) 0.0808(2)
C15 C 1.0200(3) 0.3533(3) 0.1269(2)
H8 H 0.9924 0.3779 0.1939
C16 C 1.0949(3) 0.4367(3) 0.0737(2)
H9 H 1.1183 0.5180 0.1045
C17 C 1.1353(3) 0.3991(2) -0.02636(19)
C18 C 1.3018(3) 0.4503(2) -0.15089(18)
H10 H 1.3756 0.4307 -0.1104
C19 C 1.3787(3) 0.5609(2) -0.19038(19)
H11 H 1.4338 0.5390 -0.2482
H12 H 1.3061 0.5912 -0.2181
C20 C 1.4795(3) 0.6571(2) -0.1053(2)
C21 C 1.6006(5) 0.8655(3) -0.0529(3)
H13 H 1.6044 0.9370 -0.0762
H14 H 1.6959 0.8558 -0.0516
H15 H 1.5694 0.8715 0.0171
C22 C 1.2366(4) -0.1348(3) -0.4575(3)
H16 H 1.1371 -0.1477 -0.4833
H17 H 1.2402 -0.1942 -0.4190
H18 H 1.2938 -0.1406 -0.5165
C23 C 1.3335(3) 0.2863(2) -0.41930(18)
C24 C 1.2145(3) 0.2263(2) -0.49421(19)
H19 H 1.1261 0.1867 -0.4722
C25 C 1.2237(3) 0.2236(2) -0.6010(2)
H20 H 1.1421 0.1837 -0.6502
C26 C 1.3549(4) 0.2807(3) -0.6335(2)
H21 H 1.3619 0.2788 -0.7054
C27 C 1.4760(3) 0.3405(2) -0.5616(2)
H22 H 1.5642 0.3786 -0.5848
C28 C 1.4664(3) 0.3439(2) -0.4546(2)
C29 C 1.7241(3) 0.4460(3) -0.4083(3)
H23 H 1.7922 0.4850 -0.3459
H24 H 1.7258 0.5020 -0.4517
H25 H 1.7509 0.3801 -0.4478
loop_
_geom_bond_atom_site_label_1
_geom_bond_atom_site_label_2
_geom_bond_site_symmetry_1
_geom_bond_site_symmetry_2
Br1 C14 1_555 1_555
O1 C20 1_555 1_555
O2 C20 1_555 1_555
O3 C28 1_555 1_555
O4 C7 1_555 1_555
O5 C17 1_555 1_555
O6 N2 1_555 1_555
O7 N2 1_555 1_555
O8 C8 1_555 1_555
N1 C6 1_555 1_555
N2 C10 1_555 1_555
C1 C2 1_555 1_555
C2 H1 1_555 1_555
C3 C2 1_555 1_555
H2 C3 1_555 1_555
C4 C3 1_555 1_555
H3 C4 1_555 1_555
C5 C4 1_555 1_555
H4 C5 1_555 1_555
C6 C1 1_555 1_555
C7 N1 1_555 1_555
C8 C1 1_555 1_555
C9 C8 1_555 1_555
H5 C9 1_555 1_555
C10 C9 1_555 1_555
C11 O8 1_555 1_555
H6 C11 1_555 1_555
C12 C11 1_555 1_555
C13 C12 1_555 1_555
H7 C13 1_555 1_555
C14 C13 1_555 1_555
C15 C14 1_555 1_555
H8 C15 1_555 1_555
C16 C15 1_555 1_555
H9 C16 1_555 1_555
C17 C12 1_555 1_555
C18 O5 1_555 1_555
H10 C18 1_555 1_555
C19 C18 1_555 1_555
H11 C19 1_555 1_555
H12 C19 1_555 1_555
C20 C19 1_555 1_555
C21 O2 1_555 1_555
H13 C21 1_555 1_555
H14 C21 1_555 1_555
H15 C21 1_555 1_555
C22 N1 1_555 1_555
H16 C22 1_555 1_555
H17 C22 1_555 1_555
H18 C22 1_555 1_555
C23 C9 1_555 1_555
C24 C23 1_555 1_555
H19 C24 1_555 1_555
C25 C24 1_555 1_555
H20 C25 1_555 1_555
C26 C25 1_555 1_555
H21 C26 1_555 1_555
C27 C26 1_555 1_555
H22 C27 1_555 1_555
C28 C23 1_555 1_555
C29 O3 1_555 1_555
H23 C29 1_555 1_555
H24 C29 1_555 1_555
H25 C29 1_555 1_555
C5 C6 1_555 1_555
C7 C8 1_555 1_555
C10 C11 1_555 1_555
C10 C18 1_555 1_555
C16 C17 1_555 1_555
C27 C28 1_555 1_555

#END
