
#######################################################################
#
#                 Cambridge Crystallographic Data Centre
#                                CCDC 
#
#######################################################################
#
# If this CIF has been generated from an entry in the Cambridge 
# Structural Database, then it will include bibliographic, chemical, 
# crystal, experimental, refinement or atomic coordinate data resulting 
# from the CCDC's data processing and validation procedures.
#
#######################################################################

data_UPOJIU
_chemical_formula_moiety         'C35 H30 N2 O8'
_chemical_name_systematic        
"Methyl 3-(2-(1'-benzyl-4-nitro-2'-oxo-3-phenyl-1',2',4,5-tetrahydro-3H-spiro[furan-2,3'-indol]-5-yl)-6-methoxyphenoxy)acrylate"
_symmetry_cell_setting           monoclinic
_symmetry_space_group_name_H-M   'P 21/c'
_symmetry_Int_Tables_number      14
_space_group_name_Hall           '-P 2ybc'
loop_
_symmetry_equiv_pos_site_id
_symmetry_equiv_pos_as_xyz
1 x,y,z
2 -x,1/2+y,1/2-z
3 -x,-y,-z
4 x,1/2-y,1/2+z
_cell_length_a                   10.9864(6)
_cell_length_b                   12.6254(7)
_cell_length_c                   21.7926(12)
_cell_angle_alpha                90
_cell_angle_beta                 96.245(2)
_cell_angle_gamma                90
_cell_volume                     3004.86
_exptl_crystal_colour            colorless
_exptl_crystal_description       block
_cell_formula_units_Z            4
loop_
_atom_site_label
_atom_site_type_symbol
_atom_site_fract_x
_atom_site_fract_y
_atom_site_fract_z
O1 O 0.20366(19) 0.27771(15) 0.28364(9)
O2 O 0.31884(17) 0.18474(15) 0.22402(8)
O3 O 0.51447(17) 0.40689(15) 0.08973(8)
O4 O 0.0901(2) 0.46142(15) -0.14365(9)
O5 O 0.09915(19) 0.53055(15) -0.05269(10)
O6 O -0.16263(16) 0.22818(14) -0.00322(8)
O7 O 0.10119(14) 0.19370(13) -0.02469(7)
O8 O 0.27297(16) 0.39836(13) 0.08640(7)
N1 N 0.0751(2) 0.45763(16) -0.08908(12)
N2 N -0.16356(18) 0.06175(15) -0.04714(9)
C1 C -0.3996(2) 0.0771(2) -0.12084(13)
H1 H -0.3427 0.1327 -0.1248
C2 C -0.5014(3) 0.0679(2) -0.16377(15)
H2 H -0.5140 0.1173 -0.1968
C3 C -0.5838(3) -0.0117(2) -0.15896(15)
H3 H -0.6541 -0.0175 -0.1883
C4 C -0.5649(3) -0.0834(3) -0.11152(15)
H4 H -0.6218 -0.1392 -0.1083
C5 C -0.4628(3) -0.0747(2) -0.06807(13)
H5 H -0.4503 -0.1247 -0.0354
C6 C -0.3792(2) 0.00683(19) -0.07221(12)
C7 C -0.2720(2) 0.0192(2) -0.02318(12)
H6 H -0.2958 0.0669 0.0095
H7 H -0.2519 -0.0507 -0.0042
C8 C -0.0904(2) 0.00662(18) -0.08569(11)
C9 C -0.1061(2) -0.09449(19) -0.10887(12)
H8 H -0.1736 -0.1368 -0.1001
C10 C -0.0201(3) -0.1324(2) -0.14535(13)
H9 H -0.0284 -0.2022 -0.1616
C11 C 0.0775(2) -0.0708(2) -0.15863(13)
H10 H 0.1352 -0.0985 -0.1838
C12 C 0.0917(2) 0.0315(2) -0.13536(12)
H11 H 0.1589 0.0741 -0.1443
C13 C 0.0064(2) 0.06966(18) -0.09910(11)
C14 C -0.0036(2) 0.17507(18) -0.06868(11)
C15 C -0.1195(2) 0.16139(19) -0.03476(11)
C16 C -0.2231(2) 0.3527(2) -0.13798(13)
H12 H -0.2127 0.3945 -0.1015
C17 C -0.3313(3) 0.3594(2) -0.17637(16)
H13 H -0.3941 0.4062 -0.1665
C18 C -0.3481(3) 0.2985(3) -0.22866(17)
H14 H -0.4234 0.3020 -0.2545
C19 C -0.2564(3) 0.2324(3) -0.24383(14)
H15 H -0.2682 0.1905 -0.2802
C20 C -0.1460(3) 0.2269(2) -0.20566(12)
H16 H -0.0819 0.1826 -0.2167
C21 C -0.1293(2) 0.28623(19) -0.15156(11)
C22 C -0.0102(2) 0.27351(18) -0.11051(11)
H17 H 0.0572 0.2681 -0.1377
C23 C 0.0250(2) 0.35875(18) -0.06280(11)
H18 H -0.0495 0.3782 -0.0427
C24 C 0.1183(2) 0.30592(19) -0.01382(11)
H19 H 0.0965 0.3236 0.0283
C25 C 0.2533(2) 0.32625(19) -0.01632(11)
C26 C 0.3270(2) 0.36493(19) 0.03406(11)
C27 C 0.4544(2) 0.3722(2) 0.03551(12)
C28 C 0.5081(3) 0.3416(2) -0.01597(12)
H20 H 0.5944 0.3463 -0.0163
C29 C 0.4354(2) 0.3039(2) -0.06716(12)
H21 H 0.4725 0.2837 -0.1028
C30 C 0.3104(2) 0.2953(2) -0.06741(12)
H22 H 0.2626 0.2679 -0.1028
C31 C 0.2915(2) 0.3310(2) 0.13548(11)
H23 H 0.3406 0.2698 0.1322
C32 C 0.2433(2) 0.3484(2) 0.18731(12)
H24 H 0.2018 0.4133 0.1925
C33 C 0.2523(3) 0.2703(2) 0.23707(13)
C34 C 0.3151(3) 0.0957(2) 0.26540(13)
H25 H 0.3659 0.0382 0.2519
H26 H 0.2304 0.0711 0.2650
H27 H 0.3465 0.1175 0.3073
C35 C 0.6454(3) 0.4143(2) 0.09162(13)
H28 H 0.6796 0.4407 0.1321
H29 H 0.6664 0.4631 0.0594
H30 H 0.6793 0.3441 0.0846
loop_
_geom_bond_atom_site_label_1
_geom_bond_atom_site_label_2
_geom_bond_site_symmetry_1
_geom_bond_site_symmetry_2
O1 C33 1_555 1_555
O2 C33 1_555 1_555
O3 C27 1_555 1_555
O4 N1 1_555 1_555
O5 N1 1_555 1_555
O6 C15 1_555 1_555
O7 C14 1_555 1_555
O8 C26 1_555 1_555
N1 C23 1_555 1_555
N2 C7 1_555 1_555
C1 H1 1_555 1_555
C2 C1 1_555 1_555
H2 C2 1_555 1_555
C3 C2 1_555 1_555
H3 C3 1_555 1_555
C4 C3 1_555 1_555
H4 C4 1_555 1_555
C5 C4 1_555 1_555
H5 C5 1_555 1_555
C6 C1 1_555 1_555
C7 C6 1_555 1_555
H6 C7 1_555 1_555
H7 C7 1_555 1_555
C8 N2 1_555 1_555
C9 C8 1_555 1_555
H8 C9 1_555 1_555
C10 C9 1_555 1_555
H9 C10 1_555 1_555
C11 C10 1_555 1_555
H10 C11 1_555 1_555
C12 C11 1_555 1_555
H11 C12 1_555 1_555
C13 C8 1_555 1_555
C14 C13 1_555 1_555
C15 N2 1_555 1_555
C16 H12 1_555 1_555
C17 C16 1_555 1_555
H13 C17 1_555 1_555
C18 C17 1_555 1_555
H14 C18 1_555 1_555
C19 C18 1_555 1_555
H15 C19 1_555 1_555
C20 C19 1_555 1_555
H16 C20 1_555 1_555
C21 C16 1_555 1_555
C22 C14 1_555 1_555
H17 C22 1_555 1_555
C23 C22 1_555 1_555
H18 C23 1_555 1_555
C24 O7 1_555 1_555
H19 C24 1_555 1_555
C25 C24 1_555 1_555
C26 C25 1_555 1_555
C27 C26 1_555 1_555
C28 C27 1_555 1_555
H20 C28 1_555 1_555
C29 C28 1_555 1_555
H21 C29 1_555 1_555
C30 C25 1_555 1_555
H22 C30 1_555 1_555
C31 O8 1_555 1_555
H23 C31 1_555 1_555
C32 C31 1_555 1_555
H24 C32 1_555 1_555
C33 C32 1_555 1_555
C34 O2 1_555 1_555
H25 C34 1_555 1_555
H26 C34 1_555 1_555
H27 C34 1_555 1_555
C35 O3 1_555 1_555
H28 C35 1_555 1_555
H29 C35 1_555 1_555
H30 C35 1_555 1_555
C5 C6 1_555 1_555
C12 C13 1_555 1_555
C14 C15 1_555 1_555
C20 C21 1_555 1_555
C21 C22 1_555 1_555
C23 C24 1_555 1_555
C29 C30 1_555 1_555

#END
