
#######################################################################
#
#                 Cambridge Crystallographic Data Centre
#                                CCDC 
#
#######################################################################
#
# If this CIF has been generated from an entry in the Cambridge 
# Structural Database, then it will include bibliographic, chemical, 
# crystal, experimental, refinement or atomic coordinate data resulting 
# from the CCDC's data processing and validation procedures.
#
#######################################################################

data_UPOJAM
_chemical_formula_moiety         'C32 H25 Cl1 N2 O7 S1'
_chemical_name_systematic        
"Methyl 3-(2-(1'-benzyl-4-nitro-2'-oxo-5-(2-thienyl)-1',2',4,5-tetrahydro-3H-spiro[furan-2,3'-indol]-3-yl)-4-chlorophenoxy)acrylate"
_symmetry_cell_setting           monoclinic
_symmetry_space_group_name_H-M   'P 21/c'
_symmetry_Int_Tables_number      14
_space_group_name_Hall           '-P 2ybc'
loop_
_symmetry_equiv_pos_site_id
_symmetry_equiv_pos_as_xyz
1 x,y,z
2 -x,1/2+y,1/2-z
3 -x,-y,-z
4 x,1/2-y,1/2+z
_cell_length_a                   9.6843(17)
_cell_length_b                   19.189(3)
_cell_length_c                   16.691(3)
_cell_angle_alpha                90
_cell_angle_beta                 111.180(9)
_cell_angle_gamma                90
_cell_volume                     2892.2
_exptl_crystal_colour            colorless
_exptl_crystal_description       block
_cell_formula_units_Z            4
loop_
_atom_site_label
_atom_site_type_symbol
_atom_site_fract_x
_atom_site_fract_y
_atom_site_fract_z
Cl1 Cl -0.02792(18) 0.29486(9) 0.14025(12)
S1 S 0.3718(2) 0.72702(11) 0.19492(12)
O1 O 0.9000(5) 0.5043(2) 0.5824(3)
O2 O 0.8484(4) 0.4049(2) 0.5085(3)
O3 O 0.1694(5) 0.6166(3) 0.2916(3)
O4 O -0.0436(5) 0.6315(2) 0.1924(3)
O5 O 0.4453(4) 0.4775(2) 0.3567(2)
O6 O 0.1521(4) 0.4774(2) 0.0037(2)
O7 O 0.3187(4) 0.60068(19) 0.0975(2)
N1 N 0.0822(6) 0.6089(2) 0.2183(3)
N2 N 0.3943(4) 0.4399(2) 0.0486(3)
C1 C 0.5229(7) 0.2751(3) 0.0133(4)
H1 H 0.5821 0.2934 -0.0147
C2 C 0.5528(8) 0.2089(4) 0.0478(4)
H2 H 0.6318 0.1832 0.0442
C3 C 0.4625(11) 0.1819(4) 0.0880(4)
H3 H 0.4794 0.1371 0.1108
C4 C 0.3499(9) 0.2200(4) 0.0945(5)
H4 H 0.2908 0.2013 0.1224
C5 C 0.3215(7) 0.2854(4) 0.0609(4)
H5 H 0.2433 0.3107 0.0660
C6 C 0.4081(6) 0.3147(3) 0.0190(3)
C7 C 0.3775(6) 0.3873(3) -0.0171(3)
H6 H 0.4447 0.3978 -0.0467
H7 H 0.2773 0.3893 -0.0589
C8 C 0.2803(6) 0.4793(3) 0.0532(3)
C9 C 0.3431(5) 0.5307(3) 0.1292(3)
C10 C 0.5053(5) 0.5132(3) 0.1620(3)
C11 C 0.6214(6) 0.5403(3) 0.2301(3)
H8 H 0.6060 0.5759 0.2638
C12 C 0.7625(6) 0.5131(3) 0.2468(4)
H9 H 0.8423 0.5301 0.2928
C13 C 0.7842(6) 0.4619(3) 0.1964(4)
H10 H 0.8798 0.4455 0.2082
C14 C 0.6693(6) 0.4332(3) 0.1279(4)
H11 H 0.6855 0.3981 0.0938
C15 C 0.5300(5) 0.4596(3) 0.1133(3)
C16 C 0.3388(6) 0.4309(3) 0.3056(3)
C17 C 0.3194(7) 0.3658(3) 0.3333(4)
H12 H 0.3815 0.3503 0.3871
C18 C 0.2085(7) 0.3230(3) 0.2820(4)
H13 H 0.1973 0.2782 0.2999
C19 C 0.1153(6) 0.3473(3) 0.2045(4)
C20 C 0.1337(6) 0.4131(3) 0.1760(3)
H14 H 0.0701 0.4283 0.1225
C21 C 0.2457(5) 0.4566(3) 0.2262(3)
C22 C 0.2690(5) 0.5280(3) 0.1962(3)
H15 H 0.3332 0.5535 0.2468
C23 C 0.1324(6) 0.5728(3) 0.1537(3)
H16 H 0.0518 0.5437 0.1161
C24 C 0.1799(6) 0.6263(3) 0.0985(3)
H17 H 0.1070 0.6255 0.0397
C25 C 0.2019(6) 0.6995(3) 0.1290(3)
C26 C 0.0897(8) 0.7518(3) 0.1143(4)
H18 H -0.0097 0.7473 0.0798
C27 C 0.1595(10) 0.8127(4) 0.1632(5)
H19 H 0.1074 0.8533 0.1638
C28 C 0.3051(10) 0.8063(4) 0.2075(5)
H20 H 0.3632 0.8415 0.2415
C29 C 0.5783(6) 0.4523(3) 0.4091(3)
H21 H 0.6070 0.4077 0.3999
C30 C 0.6667(6) 0.4899(3) 0.4724(4)
H22 H 0.6323 0.5327 0.4834
C31 C 0.8159(7) 0.4688(4) 0.5268(4)
C32 C 0.9965(7) 0.3797(4) 0.5559(4)
H23 H 1.0071 0.3333 0.5374
H24 H 1.0131 0.3793 0.6162
H25 H 1.0676 0.4097 0.5456
loop_
_geom_bond_atom_site_label_1
_geom_bond_atom_site_label_2
_geom_bond_site_symmetry_1
_geom_bond_site_symmetry_2
Cl1 C19 1_555 1_555
S1 C25 1_555 1_555
O1 C31 1_555 1_555
O2 C31 1_555 1_555
O3 N1 1_555 1_555
O4 N1 1_555 1_555
O5 C16 1_555 1_555
O6 C8 1_555 1_555
O7 C9 1_555 1_555
N1 C23 1_555 1_555
N2 C7 1_555 1_555
C1 H1 1_555 1_555
C2 C1 1_555 1_555
H2 C2 1_555 1_555
C3 C2 1_555 1_555
H3 C3 1_555 1_555
C4 C3 1_555 1_555
H4 C4 1_555 1_555
C5 C4 1_555 1_555
H5 C5 1_555 1_555
C6 C1 1_555 1_555
C7 C6 1_555 1_555
H6 C7 1_555 1_555
H7 C7 1_555 1_555
C8 N2 1_555 1_555
C9 C8 1_555 1_555
C10 C9 1_555 1_555
C11 C10 1_555 1_555
H8 C11 1_555 1_555
C12 C11 1_555 1_555
H9 C12 1_555 1_555
C13 C12 1_555 1_555
H10 C13 1_555 1_555
C14 C13 1_555 1_555
H11 C14 1_555 1_555
C15 N2 1_555 1_555
C16 C17 1_555 1_555
C17 H12 1_555 1_555
C18 C17 1_555 1_555
H13 C18 1_555 1_555
C19 C18 1_555 1_555
C20 C19 1_555 1_555
H14 C20 1_555 1_555
C21 C16 1_555 1_555
C22 C9 1_555 1_555
H15 C22 1_555 1_555
C23 C22 1_555 1_555
H16 C23 1_555 1_555
C24 O7 1_555 1_555
H17 C24 1_555 1_555
C25 C24 1_555 1_555
C26 C25 1_555 1_555
H18 C26 1_555 1_555
C27 C26 1_555 1_555
H19 C27 1_555 1_555
C28 S1 1_555 1_555
H20 C28 1_555 1_555
C29 O5 1_555 1_555
H21 C29 1_555 1_555
C30 C29 1_555 1_555
H22 C30 1_555 1_555
C31 C30 1_555 1_555
C32 O2 1_555 1_555
H23 C32 1_555 1_555
H24 C32 1_555 1_555
H25 C32 1_555 1_555
C5 C6 1_555 1_555
C10 C15 1_555 1_555
C14 C15 1_555 1_555
C20 C21 1_555 1_555
C21 C22 1_555 1_555
C23 C24 1_555 1_555
C27 C28 1_555 1_555

#END
