
#######################################################################
#
#                 Cambridge Crystallographic Data Centre
#                                CCDC 
#
#######################################################################
#
# If this CIF has been generated from an entry in the Cambridge 
# Structural Database, then it will include bibliographic, chemical, 
# crystal, experimental, refinement or atomic coordinate data resulting 
# from the CCDC's data processing and validation procedures.
#
#######################################################################

data_UPOKUG
_chemical_formula_moiety         'C26 H26 O1 P1 1+,Cl1 O4 1-'
_chemical_name_systematic        
'Trimethyl-(5-oxo-2,3,5-triphenylpenta-1,3-dien-1-yl)phosphonium perchlorate'
_symmetry_cell_setting           monoclinic
_symmetry_space_group_name_H-M   'P 21/n'
_symmetry_Int_Tables_number      14
_space_group_name_Hall           '-P 2yn'
loop_
_symmetry_equiv_pos_site_id
_symmetry_equiv_pos_as_xyz
1 x,y,z
2 1/2-x,1/2+y,1/2-z
3 -x,-y,-z
4 1/2+x,1/2-y,1/2+z
_cell_length_a                   10.6802(5)
_cell_length_b                   22.1133(10)
_cell_length_c                   11.5904(5)
_cell_angle_alpha                90
_cell_angle_beta                 114.767(3)
_cell_angle_gamma                90
_cell_volume                     2485.57
_exptl_crystal_colour            yellow
_exptl_crystal_description       block
_cell_formula_units_Z            4
loop_
_atom_site_label
_atom_site_type_symbol
_atom_site_fract_x
_atom_site_fract_y
_atom_site_fract_z
P1 P 0.47820(8) 0.14841(3) 1.00633(7)
C1 C 0.3601(4) 0.14984(15) 1.0774(3)
H1 H 0.2678 0.1532 1.0124
H2 H 0.3798 0.1839 1.1336
H3 H 0.3687 0.1132 1.1246
C2 C 0.6491(4) 0.14206(18) 1.1296(3)
H4 H 0.6697 0.1772 1.1831
H5 H 0.7140 0.1390 1.0924
H6 H 0.6552 0.1066 1.1795
C3 C 0.4657(4) 0.21755(13) 0.9225(3)
H7 H 0.3741 0.2217 0.8568
H8 H 0.5308 0.2171 0.8853
H9 H 0.4854 0.2509 0.9805
C4 C 0.4288(3) 0.08546(12) 0.9011(3)
H10 H 0.3648 0.0594 0.9095
C5 C 0.4715(3) 0.07040(11) 0.8109(2)
C6 C 0.4053(3) 0.02008(11) 0.7218(3)
C7 C 0.4782(3) -0.01288(13) 0.6693(3)
H11 H 0.5701 -0.0036 0.6901
C8 C 0.4149(4) -0.05977(14) 0.5855(3)
H12 H 0.4658 -0.0817 0.5516
C9 C 0.2826(4) -0.07430(15) 0.5523(3)
H13 H 0.2424 -0.1064 0.4973
C10 C 0.2057(4) -0.04030(15) 0.6018(3)
H14 H 0.1133 -0.0494 0.5788
C11 C 0.2663(3) 0.00619(13) 0.6836(3)
H15 H 0.2139 0.0290 0.7145
C12 C 0.5792(3) 0.10532(10) 0.7888(2)
C13 C 0.5259(3) 0.14855(11) 0.6808(2)
C14 C 0.6130(3) 0.17930(12) 0.6392(3)
H16 H 0.7079 0.1744 0.6831
C15 C 0.5629(4) 0.21650(14) 0.5355(3)
H17 H 0.6235 0.2358 0.5088
C16 C 0.4229(4) 0.22552(14) 0.4705(3)
H18 H 0.3887 0.2508 0.4000
C17 C 0.3334(4) 0.19640(14) 0.5114(3)
H19 H 0.2389 0.2027 0.4690
C18 C 0.3844(3) 0.15835(13) 0.6141(3)
H20 H 0.3235 0.1387 0.6399
C19 C 0.7142(3) 0.09554(12) 0.8586(3)
H21 H 0.7767 0.1197 0.8430
C20 C 0.7705(3) 0.04837(12) 0.9596(3)
C21 C 0.9085(3) 0.05729(12) 1.0664(3)
C22 C 0.9756(3) 0.11277(15) 1.0922(3)
H22 H 0.9375 0.1455 1.0383
C23 C 1.1009(4) 0.11943(19) 1.1994(3)
H23 H 1.1467 0.1564 1.2158
C24 C 1.1554(4) 0.0725(2) 1.2789(4)
H24 H 1.2364 0.0777 1.3520
C25 C 1.0917(4) 0.01641(19) 1.2523(3)
H25 H 1.1325 -0.0162 1.3053
C26 C 0.9670(3) 0.00868(14) 1.1468(3)
H26 H 0.9232 -0.0287 1.1303
O1 O 0.7047(2) 0.00263(8) 0.9539(2)
Cl1 Cl 0.03805(8) 0.17501(3) 0.72546(8)
O2 O 0.0037(5) 0.14936(19) 0.8165(4)
O3 O -0.0859(4) 0.2008(2) 0.6407(5)
O4 O 0.1187(5) 0.22590(17) 0.7644(4)
O5 O 0.0843(6) 0.1385(3) 0.6649(7)
loop_
_geom_bond_atom_site_label_1
_geom_bond_atom_site_label_2
_geom_bond_site_symmetry_1
_geom_bond_site_symmetry_2
P1 C1 1_555 1_555
C1 H1 1_555 1_555
H2 C1 1_555 1_555
H3 C1 1_555 1_555
C2 P1 1_555 1_555
H4 C2 1_555 1_555
H5 C2 1_555 1_555
H6 C2 1_555 1_555
C3 P1 1_555 1_555
H7 C3 1_555 1_555
H8 C3 1_555 1_555
H9 C3 1_555 1_555
C4 P1 1_555 1_555
H10 C4 1_555 1_555
C5 C4 1_555 1_555
C6 C5 1_555 1_555
C7 C6 1_555 1_555
H11 C7 1_555 1_555
C8 C7 1_555 1_555
H12 C8 1_555 1_555
C9 C8 1_555 1_555
H13 C9 1_555 1_555
C10 C9 1_555 1_555
H14 C10 1_555 1_555
C11 C6 1_555 1_555
H15 C11 1_555 1_555
C12 C5 1_555 1_555
C13 C12 1_555 1_555
C14 C13 1_555 1_555
H16 C14 1_555 1_555
C15 C14 1_555 1_555
H17 C15 1_555 1_555
C16 C15 1_555 1_555
H18 C16 1_555 1_555
C17 C16 1_555 1_555
H19 C17 1_555 1_555
C18 C13 1_555 1_555
H20 C18 1_555 1_555
C19 C12 1_555 1_555
H21 C19 1_555 1_555
C20 C19 1_555 1_555
C21 C20 1_555 1_555
C22 C21 1_555 1_555
H22 C22 1_555 1_555
C23 C22 1_555 1_555
H23 C23 1_555 1_555
C24 C23 1_555 1_555
H24 C24 1_555 1_555
C25 C24 1_555 1_555
H25 C25 1_555 1_555
C26 C21 1_555 1_555
H26 C26 1_555 1_555
Cl1 O2 1_555 1_555
O1 C20 1_555 1_555
O3 Cl1 1_555 1_555
O4 Cl1 1_555 1_555
O5 Cl1 1_555 1_555
C10 C11 1_555 1_555
C17 C18 1_555 1_555
C25 C26 1_555 1_555

#END
