
#######################################################################
#
#                 Cambridge Crystallographic Data Centre
#                                CCDC 
#
#######################################################################
#
# If this CIF has been generated from an entry in the Cambridge 
# Structural Database, then it will include bibliographic, chemical, 
# crystal, experimental, refinement or atomic coordinate data resulting 
# from the CCDC's data processing and validation procedures.
#
#######################################################################

data_UPOTIE
_chemical_formula_moiety         'C33 H25 Br2 N3 O3 S1'
_chemical_name_systematic        
2-amino-4,5-bis(4-bromophenyl)-9-methyl-6-((4-methylphenyl)sulfonyl)-5,6-dihydro-4H-pyrano[3,2-c]quinoline-3-carbonitrile
_symmetry_cell_setting           monoclinic
_symmetry_space_group_name_H-M   'P 21/n'
_symmetry_Int_Tables_number      14
_space_group_name_Hall           '-P 2yn'
loop_
_symmetry_equiv_pos_site_id
_symmetry_equiv_pos_as_xyz
1 x,y,z
2 1/2-x,1/2+y,1/2-z
3 -x,-y,-z
4 1/2+x,1/2-y,1/2+z
_cell_length_a                   13.4338(17)
_cell_length_b                   14.9273(18)
_cell_length_c                   14.8790(19)
_cell_angle_alpha                90
_cell_angle_beta                 100.640(2)
_cell_angle_gamma                90
_cell_volume                     2932.39
_exptl_crystal_colour            yellow
_exptl_crystal_description       block
_cell_formula_units_Z            4
loop_
_atom_site_label
_atom_site_type_symbol
_atom_site_fract_x
_atom_site_fract_y
_atom_site_fract_z
C1 C 0.6961(2) 0.1680(2) 0.6199(2)
C2 C 0.7197(3) 0.1607(2) 0.7139(2)
H1 H 0.7806 0.1843 0.7449
C3 C 0.6547(3) 0.1189(2) 0.7633(2)
C4 C 0.5653(3) 0.0832(2) 0.7152(2)
H2 H 0.5213 0.0543 0.7472
C5 C 0.5396(3) 0.0893(2) 0.6210(2)
H3 H 0.4795 0.0642 0.5902
C6 C 0.6038(2) 0.1327(2) 0.5731(2)
C7 C 0.6802(3) 0.1157(3) 0.8666(3)
H4 H 0.7452 0.1429 0.8872
H5 H 0.6821 0.0545 0.8866
H6 H 0.6296 0.1477 0.8915
C8 C 0.6667(2) 0.1438(2) 0.4256(2)
H7 H 0.6421 0.1717 0.3660
C9 C 0.7515(2) 0.2028(2) 0.4755(2)
C10 C 0.7627(2) 0.2096(2) 0.5653(2)
C11 C 0.7006(2) 0.0500(2) 0.4075(2)
C12 C 0.7320(3) -0.0106(2) 0.4783(2)
H8 H 0.7284 0.0058 0.5380
C13 C 0.7681(3) -0.0940(2) 0.4618(2)
H9 H 0.7882 -0.1340 0.5096
C14 C 0.7742(3) -0.1174(2) 0.3739(3)
C15 C 0.7413(3) -0.0607(3) 0.3028(3)
H10 H 0.7440 -0.0781 0.2433
C16 C 0.7040(3) 0.0227(2) 0.3196(2)
H11 H 0.6809 0.0610 0.2708
C17 C 0.8150(2) 0.2568(2) 0.4210(2)
H12 H 0.7687 0.2844 0.3699
C18 C 0.8658(2) 0.3325(2) 0.4824(2)
C19 C 0.8812(3) 0.3272(2) 0.5747(2)
C20 C 0.9012(3) 0.4078(2) 0.4412(2)
C21 C 0.8937(2) 0.2040(2) 0.3809(2)
C22 C 0.9270(3) 0.2365(2) 0.3043(2)
H13 H 0.8963 0.2871 0.2750
C23 C 1.0042(3) 0.1957(3) 0.2705(2)
H14 H 1.0264 0.2194 0.2199
C24 C 1.0481(3) 0.1200(3) 0.3122(2)
C25 C 1.0145(3) 0.0841(3) 0.3870(3)
H15 H 1.0429 0.0316 0.4140
C26 C 0.9386(3) 0.1269(2) 0.4209(2)
H16 H 0.9169 0.1034 0.4719
C27 C 0.5275(3) 0.3125(2) 0.4205(2)
C28 C 0.5293(3) 0.3503(3) 0.3359(3)
H17 H 0.5019 0.3197 0.2826
C29 C 0.5719(3) 0.4337(3) 0.3313(3)
H18 H 0.5723 0.4591 0.2742
C30 C 0.6141(3) 0.4808(3) 0.4093(3)
C31 C 0.6092(3) 0.4424(3) 0.4936(3)
H19 H 0.6354 0.4735 0.5469
C32 C 0.5668(3) 0.3600(3) 0.4998(2)
H20 H 0.5641 0.3357 0.5568
C33 C 0.6641(4) 0.5701(3) 0.4027(3)
H21 H 0.6884 0.5929 0.4631
H22 H 0.6158 0.6113 0.3697
H23 H 0.7199 0.5631 0.3713
N1 N 0.5798(2) 0.14160(17) 0.47530(17)
N2 N 0.9372(2) 0.3806(2) 0.63609(19)
H24 H 0.9692 0.4251 0.6181
H25 H 0.9413 0.3705 0.6936
N3 N 0.9263(3) 0.4692(2) 0.4047(2)
O1 O 0.83875(17) 0.26078(15) 0.61801(14)
O2 O 0.41170(19) 0.20384(19) 0.49053(19)
O3 O 0.4491(2) 0.17125(19) 0.33741(17)
S1 S 0.48026(7) 0.20369(6) 0.42851(6)
Br1 Br 0.83312(4) -0.23010(3) 0.35372(3)
Br2 Br 1.15808(4) 0.06525(4) 0.26904(3)
loop_
_geom_bond_atom_site_label_1
_geom_bond_atom_site_label_2
_geom_bond_site_symmetry_1
_geom_bond_site_symmetry_2
C1 C2 1_555 1_555
C2 H1 1_555 1_555
C3 C2 1_555 1_555
C4 C3 1_555 1_555
H2 C4 1_555 1_555
C5 C4 1_555 1_555
H3 C5 1_555 1_555
C6 C1 1_555 1_555
C7 C3 1_555 1_555
H4 C7 1_555 1_555
H5 C7 1_555 1_555
H6 C7 1_555 1_555
C8 H7 1_555 1_555
C9 C8 1_555 1_555
C10 C1 1_555 1_555
C11 C8 1_555 1_555
C12 C11 1_555 1_555
H8 C12 1_555 1_555
C13 C12 1_555 1_555
H9 C13 1_555 1_555
C14 C13 1_555 1_555
C15 C14 1_555 1_555
H10 C15 1_555 1_555
C16 C11 1_555 1_555
H11 C16 1_555 1_555
C17 C9 1_555 1_555
H12 C17 1_555 1_555
C18 C17 1_555 1_555
C19 C18 1_555 1_555
C20 C18 1_555 1_555
C21 C17 1_555 1_555
C22 C21 1_555 1_555
H13 C22 1_555 1_555
C23 C22 1_555 1_555
H14 C23 1_555 1_555
C24 C23 1_555 1_555
C25 C24 1_555 1_555
H15 C25 1_555 1_555
C26 C21 1_555 1_555
H16 C26 1_555 1_555
C27 C28 1_555 1_555
C28 H17 1_555 1_555
C29 C28 1_555 1_555
H18 C29 1_555 1_555
C30 C29 1_555 1_555
C31 C30 1_555 1_555
H19 C31 1_555 1_555
C32 C27 1_555 1_555
H20 C32 1_555 1_555
C33 C30 1_555 1_555
H21 C33 1_555 1_555
H22 C33 1_555 1_555
H23 C33 1_555 1_555
N1 C6 1_555 1_555
N2 C19 1_555 1_555
H24 N2 1_555 1_555
H25 N2 1_555 1_555
N3 C20 1_555 1_555
O1 C10 1_555 1_555
O2 S1 1_555 1_555
O3 S1 1_555 1_555
S1 C27 1_555 1_555
Br1 C14 1_555 1_555
Br2 C24 1_555 1_555
C5 C6 1_555 1_555
C8 N1 1_555 1_555
C9 C10 1_555 1_555
C15 C16 1_555 1_555
C19 O1 1_555 1_555
C25 C26 1_555 1_555
C31 C32 1_555 1_555
N1 S1 1_555 1_555

#END
