
#######################################################################
#
#                 Cambridge Crystallographic Data Centre
#                                CCDC 
#
#######################################################################
#
# If this CIF has been generated from an entry in the Cambridge 
# Structural Database, then it will include bibliographic, chemical, 
# crystal, experimental, refinement or atomic coordinate data resulting 
# from the CCDC's data processing and validation procedures.
#
#######################################################################

data_UPUHEU
_chemical_formula_moiety         'C24 H19 Cl1 N2 O6 S1'
_chemical_name_systematic        
"dimethyl 9-chloro-7a-phenyl-7aH,13aH-pyrido[2',1':2,3]pyrimido[1,6-b][1,2]benzothiazole-6,7-dicarboxylate 12,12-dioxide"
_symmetry_cell_setting           monoclinic
_symmetry_space_group_name_H-M   'P 21/n'
_symmetry_Int_Tables_number      14
_space_group_name_Hall           '-P 2yn'
loop_
_symmetry_equiv_pos_site_id
_symmetry_equiv_pos_as_xyz
1 x,y,z
2 1/2-x,1/2+y,1/2-z
3 -x,-y,-z
4 1/2+x,1/2-y,1/2+z
_cell_length_a                   10.8270(17)
_cell_length_b                   13.849(2)
_cell_length_c                   14.496(2)
_cell_angle_alpha                90
_cell_angle_beta                 90.488(5)
_cell_angle_gamma                90
_cell_volume                     2173.5
_exptl_crystal_colour            colorless
_exptl_crystal_description       Prism
_cell_formula_units_Z            4
loop_
_atom_site_label
_atom_site_type_symbol
_atom_site_fract_x
_atom_site_fract_y
_atom_site_fract_z
S1 S 0.68835(3) 0.54356(2) 0.05512(2)
Cl1 Cl 0.40568(3) 0.57130(2) 0.42299(2)
O1 O 0.62424(8) 0.50918(7) -0.02496(6)
O2 O 0.80866(8) 0.50270(6) 0.07193(6)
O3 O 1.08702(8) 0.60466(6) 0.17556(6)
O4 O 1.12574(8) 0.75918(7) 0.13566(6)
O5 O 0.97195(8) 0.72678(7) 0.30615(6)
O6 O 0.76884(8) 0.73866(7) 0.33353(6)
N1 N 0.68584(9) 0.66477(7) 0.05564(7)
N2 N 0.90126(9) 0.69188(7) 0.02573(7)
C1 C 0.60462(11) 0.53983(9) 0.15761(8)
C2 C 0.53775(11) 0.46143(9) 0.18989(9)
H1 H 0.5326 0.4031 0.1555
C3 C 0.47872(11) 0.47102(9) 0.27387(9)
H2 H 0.4339 0.4186 0.2994
C4 C 0.48625(11) 0.55896(9) 0.32019(8)
C5 C 0.55230(11) 0.63777(9) 0.28729(8)
H3 H 0.5541 0.6972 0.3200
C6 C 0.61562(11) 0.62667(8) 0.20471(8)
C7 C 0.69097(11) 0.70335(8) 0.15250(8)
C8 C 0.62624(11) 0.80180(8) 0.15053(8)
C9 C 0.50158(11) 0.80656(9) 0.12568(8)
H4 H 0.4566 0.7487 0.1148
C10 C 0.44285(12) 0.89545(9) 0.11669(9)
H5 H 0.3581 0.8980 0.0993
C11 C 0.50729(13) 0.98046(10) 0.13291(9)
H6 H 0.4670 1.0411 0.1266
C12 C 0.63077(13) 0.97621(10) 0.15835(10)
H7 H 0.6752 1.0341 0.1703
C13 C 0.69010(12) 0.88731(9) 0.16650(9)
H8 H 0.7751 0.8851 0.1832
C14 C 0.82820(11) 0.70873(8) 0.18187(8)
C15 C 0.86610(11) 0.72510(8) 0.27817(8)
C16 C 0.79522(13) 0.74591(11) 0.43122(9)
H9 H 0.8613 0.7006 0.4478
H10 H 0.7207 0.7302 0.4661
H11 H 0.8215 0.8119 0.4460
C17 C 0.92072(11) 0.69660(8) 0.11925(8)
C18 C 1.05618(11) 0.69227(9) 0.14670(8)
C19 C 1.21502(12) 0.59337(10) 0.20331(10)
H12 H 1.2681 0.6006 0.1493
H13 H 1.2272 0.5291 0.2302
H14 H 1.2364 0.6428 0.2492
C20 C 0.77422(11) 0.71509(9) -0.00376(8)
H15 H 0.7625 0.7858 0.0073
C21 C 0.75120(11) 0.69841(9) -0.10453(8)
H16 H 0.6728 0.7145 -0.1300
C22 C 0.83712(12) 0.66176(9) -0.15943(8)
H17 H 0.8204 0.6555 -0.2236
C23 C 0.95602(12) 0.63111(9) -0.12291(9)
H18 H 1.0145 0.6014 -0.1623
C24 C 0.98316(11) 0.64472(9) -0.03381(9)
H19 H 1.0599 0.6219 -0.0101
loop_
_geom_bond_atom_site_label_1
_geom_bond_atom_site_label_2
_geom_bond_site_symmetry_1
_geom_bond_site_symmetry_2
S1 O1 1_555 1_555
Cl1 C4 1_555 1_555
O2 S1 1_555 1_555
O3 C18 1_555 1_555
O4 C18 1_555 1_555
O5 C15 1_555 1_555
O6 C15 1_555 1_555
N1 S1 1_555 1_555
N2 C17 1_555 1_555
C1 S1 1_555 1_555
C2 C1 1_555 1_555
H1 C2 1_555 1_555
C3 C2 1_555 1_555
H2 C3 1_555 1_555
C4 C3 1_555 1_555
C5 C4 1_555 1_555
H3 C5 1_555 1_555
C6 C1 1_555 1_555
C7 N1 1_555 1_555
C8 C7 1_555 1_555
C9 C8 1_555 1_555
H4 C9 1_555 1_555
C10 C9 1_555 1_555
H5 C10 1_555 1_555
C11 C10 1_555 1_555
H6 C11 1_555 1_555
C12 C11 1_555 1_555
H7 C12 1_555 1_555
C13 C8 1_555 1_555
H8 C13 1_555 1_555
C14 C7 1_555 1_555
C15 C14 1_555 1_555
C16 O6 1_555 1_555
H9 C16 1_555 1_555
H10 C16 1_555 1_555
H11 C16 1_555 1_555
C17 C14 1_555 1_555
C18 C17 1_555 1_555
C19 O3 1_555 1_555
H12 C19 1_555 1_555
H13 C19 1_555 1_555
H14 C19 1_555 1_555
C20 N1 1_555 1_555
H15 C20 1_555 1_555
C21 C20 1_555 1_555
H16 C21 1_555 1_555
C22 C21 1_555 1_555
H17 C22 1_555 1_555
C23 C22 1_555 1_555
H18 C23 1_555 1_555
C24 N2 1_555 1_555
H19 C24 1_555 1_555
N2 C20 1_555 1_555
C5 C6 1_555 1_555
C6 C7 1_555 1_555
C12 C13 1_555 1_555
C23 C24 1_555 1_555

#END
