
#######################################################################
#
#                 Cambridge Crystallographic Data Centre
#                                CCDC 
#
#######################################################################
#
# If this CIF has been generated from an entry in the Cambridge 
# Structural Database, then it will include bibliographic, chemical, 
# crystal, experimental, refinement or atomic coordinate data resulting 
# from the CCDC's data processing and validation procedures.
#
#######################################################################

data_UPUHET
_chemical_formula_moiety         'C20 H12 O3 S2'
_chemical_name_systematic        
3-(3-(2,2'-Bithiophen-5-yl)acryloyl)-2H-chromen-2-one
_symmetry_cell_setting           monoclinic
_symmetry_space_group_name_H-M   'P 21/c'
_symmetry_Int_Tables_number      14
_space_group_name_Hall           '-P 2ybc'
loop_
_symmetry_equiv_pos_site_id
_symmetry_equiv_pos_as_xyz
1 x,y,z
2 -x,1/2+y,1/2-z
3 -x,-y,-z
4 x,1/2-y,1/2+z
_cell_length_a                   5.2115(10)
_cell_length_b                   9.5258(18)
_cell_length_c                   32.937(7)
_cell_angle_alpha                90
_cell_angle_beta                 91.797(3)
_cell_angle_gamma                90
_cell_volume                     1634.31
_exptl_crystal_colour            red
_exptl_crystal_description       block
_cell_formula_units_Z            4
loop_
_atom_site_label
_atom_site_type_symbol
_atom_site_fract_x
_atom_site_fract_y
_atom_site_fract_z
S1 S 0.31755(13) 1.03877(7) 0.190857(18)
S2 S 0.20236(16) 1.23157(9) 0.30912(2)
O1 O 0.2197(4) 0.7560(2) 0.07665(6)
O2 O 0.2493(3) 0.66776(18) 0.01599(5)
O3 O 0.8544(4) 1.0224(2) 0.05361(5)
C1 C 0.3382(5) 0.7580(3) 0.04598(7)
C2 C 0.5631(4) 0.8434(2) 0.03692(6)
C3 C 0.6757(4) 0.8254(2) 0.00087(6)
H1 H 0.8184 0.8798 -0.0048
C4 C 0.5859(5) 0.7273(2) -0.02865(7)
C5 C 0.3694(5) 0.6489(3) -0.02010(7)
C6 C 0.2675(5) 0.5509(3) -0.04704(9)
H2 H 0.1224 0.4993 -0.0408
C7 C 0.3864(6) 0.5320(3) -0.08317(9)
H3 H 0.3206 0.4666 -0.1017
C8 C 0.6019(6) 0.6080(3) -0.09257(8)
H4 H 0.6800 0.5931 -0.1172
C9 C 0.7018(5) 0.7056(3) -0.06575(7)
H5 H 0.8463 0.7571 -0.0723
C10 C 0.6753(5) 0.9524(3) 0.06514(7)
C11 C 0.5681(5) 0.9769(3) 0.10510(7)
H6 H 0.4350 0.9206 0.1139
C12 C 0.6593(5) 1.0785(3) 0.12873(7)
H7 H 0.7978 1.1284 0.1190
C13 C 0.5701(5) 1.1211(3) 0.16779(7)
C14 C 0.6612(5) 1.2286(3) 0.19148(8)
H8 H 0.7960 1.2864 0.1842
C15 C 0.5319(5) 1.2434(3) 0.22784(8)
H9 H 0.5733 1.3119 0.2471
C16 C 0.3406(5) 1.1486(3) 0.23244(7)
C17 C 0.1719(5) 1.1286(3) 0.26639(7)
C18 C -0.0261(5) 1.0344(3) 0.26990(7)
H10 H -0.0731 0.9690 0.2501
C19 C -0.1499(6) 1.0489(3) 0.30735(8)
H11 H -0.2880 0.9937 0.3147
C20 C -0.0484(6) 1.1494(3) 0.33093(8)
H12 H -0.1079 1.1722 0.3564
loop_
_geom_bond_atom_site_label_1
_geom_bond_atom_site_label_2
_geom_bond_site_symmetry_1
_geom_bond_site_symmetry_2
S1 C13 1_555 1_555
S2 C17 1_555 1_555
O1 C1 1_555 1_555
O2 C1 1_555 1_555
O3 C10 1_555 1_555
C1 C2 1_555 1_555
C2 C3 1_555 1_555
C3 H1 1_555 1_555
C4 C3 1_555 1_555
C5 O2 1_555 1_555
C6 C5 1_555 1_555
H2 C6 1_555 1_555
C7 C6 1_555 1_555
H3 C7 1_555 1_555
C8 C7 1_555 1_555
H4 C8 1_555 1_555
C9 C4 1_555 1_555
H5 C9 1_555 1_555
C10 C2 1_555 1_555
C11 C10 1_555 1_555
H6 C11 1_555 1_555
C12 C11 1_555 1_555
H7 C12 1_555 1_555
C13 C12 1_555 1_555
C14 C13 1_555 1_555
H8 C14 1_555 1_555
C15 C14 1_555 1_555
H9 C15 1_555 1_555
C16 S1 1_555 1_555
C17 C16 1_555 1_555
C18 C17 1_555 1_555
H10 C18 1_555 1_555
C19 C18 1_555 1_555
H11 C19 1_555 1_555
C20 S2 1_555 1_555
H12 C20 1_555 1_555
C4 C5 1_555 1_555
C8 C9 1_555 1_555
C15 C16 1_555 1_555
C19 C20 1_555 1_555

#END
