
#######################################################################
#
#                 Cambridge Crystallographic Data Centre
#                                CCDC 
#
#######################################################################
#
# If this CIF has been generated from an entry in the Cambridge 
# Structural Database, then it will include bibliographic, chemical, 
# crystal, experimental, refinement or atomic coordinate data resulting 
# from the CCDC's data processing and validation procedures.
#
#######################################################################

data_UPUKEX
_chemical_formula_moiety         'C25 H37 P1'
_chemical_name_systematic        butyl(2,6-diisopropylphenyl)mesitylphosphine
_symmetry_cell_setting           monoclinic
_symmetry_space_group_name_H-M   'P 21/c'
_symmetry_Int_Tables_number      14
_space_group_name_Hall           '-P 2ybc'
loop_
_symmetry_equiv_pos_site_id
_symmetry_equiv_pos_as_xyz
1 x,y,z
2 -x,1/2+y,1/2-z
3 -x,-y,-z
4 x,1/2-y,1/2+z
_cell_length_a                   10.85111(18)
_cell_length_b                   15.9095(3)
_cell_length_c                   13.0482(2)
_cell_angle_alpha                90
_cell_angle_beta                 101.8785(15)
_cell_angle_gamma                90
_cell_volume                     2204.35
_exptl_crystal_colour            colorless
_exptl_crystal_description       block
_cell_formula_units_Z            4
_exptl_crystal_recrystallization_method 'Re-crystallisation from solvent'
loop_
_atom_site_label
_atom_site_type_symbol
_atom_site_fract_x
_atom_site_fract_y
_atom_site_fract_z
P1 P 0.38006(4) 0.54739(2) 0.39942(3)
C1 C 0.26264(14) 0.61403(10) 0.31046(11)
C2 C 0.27172(15) 0.70206(10) 0.32473(12)
C3 C 0.18563(16) 0.75451(11) 0.26007(13)
H1 H 0.1922 0.8124 0.2692
C4 C 0.09147(16) 0.72210(11) 0.18324(13)
H2 H 0.0340 0.7578 0.1418
C5 C 0.08276(16) 0.63637(11) 0.16801(13)
H3 H 0.0192 0.6148 0.1158
C6 C 0.16738(14) 0.58109(10) 0.22932(11)
C7 C 0.37278(16) 0.74505(11) 0.40654(13)
H4 H 0.4199 0.7010 0.4504
C8 C 0.46550(18) 0.79248(12) 0.35432(17)
H5 H 0.5041 0.7540 0.3137
H6 H 0.5293 0.8180 0.4071
H7 H 0.4215 0.8353 0.3093
C9 C 0.3169(2) 0.80320(13) 0.47818(16)
H8 H 0.2755 0.8496 0.4382
H9 H 0.3829 0.8240 0.5328
H10 H 0.2570 0.7726 0.5086
C10 C 0.15475(15) 0.48803(10) 0.20261(12)
H11 H 0.2211 0.4585 0.2518
C11 C 0.02910(17) 0.45133(12) 0.21562(15)
H12 H 0.0212 0.4571 0.2872
H13 H 0.0255 0.3929 0.1969
H14 H -0.0384 0.4809 0.1710
C12 C 0.17817(18) 0.47235(12) 0.09202(13)
H15 H 0.1144 0.5003 0.0416
H16 H 0.1753 0.4131 0.0780
H17 H 0.2595 0.4939 0.0874
C13 C 0.28620(14) 0.46290(9) 0.44456(11)
C14 C 0.20802(14) 0.49116(10) 0.51211(11)
C15 C 0.14179(15) 0.43323(10) 0.56039(12)
H18 H 0.0893 0.4531 0.6031
C16 C 0.15144(15) 0.34739(10) 0.54708(12)
C17 C 0.22874(15) 0.32029(10) 0.48158(12)
H19 H 0.2363 0.2628 0.4715
C18 C 0.29563(15) 0.37502(10) 0.43013(12)
C19 C 0.19548(15) 0.58272(10) 0.53741(12)
H20 H 0.2776 0.6063 0.5627
H21 H 0.1461 0.5881 0.5902
H22 H 0.1548 0.6121 0.4754
C20 C 0.08410(18) 0.28566(11) 0.60385(14)
H23 H 0.0316 0.3156 0.6423
H24 H 0.1448 0.2530 0.6514
H25 H 0.0330 0.2490 0.5540
C21 C 0.37557(17) 0.33415(11) 0.36170(14)
H26 H 0.3481 0.3529 0.2907
H27 H 0.3671 0.2742 0.3645
H28 H 0.4622 0.3494 0.3864
C22 C 0.47270(15) 0.50489(11) 0.30711(13)
H29 H 0.5321 0.4637 0.3431
H30 H 0.4164 0.4764 0.2503
C23 C 0.54396(16) 0.57274(11) 0.26205(13)
H31 H 0.5960 0.6043 0.3184
H32 H 0.4849 0.6113 0.2202
C24 C 0.6276(3) 0.53187(14) 0.1933(2)
H33 H 0.6858 0.4931 0.2356
H34 H 0.5749 0.4999 0.1377
C25 C 0.7019(2) 0.59645(14) 0.14519(18)
H35 H 0.6448 0.6316 0.0978
H36 H 0.7572 0.5682 0.1077
H37 H 0.7507 0.6304 0.1996
H38? H 0.4808 0.6073 0.2179
H39? H 0.5830 0.6078 0.3206
C26? C 0.6407(16) 0.5565(12) 0.2020(12)
H40? H 0.6979 0.5133 0.2360
H41? H 0.6888 0.6072 0.1973
C27? C 0.5748(12) 0.5274(8) 0.0919(8)
H42? H 0.6364 0.5059 0.0554
H43? H 0.5317 0.5740 0.0538
H44? H 0.5152 0.4840 0.0978
loop_
_geom_bond_atom_site_label_1
_geom_bond_atom_site_label_2
_geom_bond_site_symmetry_1
_geom_bond_site_symmetry_2
P1 C1 1_555 1_555
C1 C2 1_555 1_555
C2 C3 1_555 1_555
C3 H1 1_555 1_555
C4 C3 1_555 1_555
H2 C4 1_555 1_555
C5 C4 1_555 1_555
H3 C5 1_555 1_555
C6 C1 1_555 1_555
C7 C2 1_555 1_555
H4 C7 1_555 1_555
C8 C7 1_555 1_555
H5 C8 1_555 1_555
H6 C8 1_555 1_555
H7 C8 1_555 1_555
C9 C7 1_555 1_555
H8 C9 1_555 1_555
H9 C9 1_555 1_555
H10 C9 1_555 1_555
C10 C6 1_555 1_555
H11 C10 1_555 1_555
C11 C10 1_555 1_555
H12 C11 1_555 1_555
H13 C11 1_555 1_555
H14 C11 1_555 1_555
C12 C10 1_555 1_555
H15 C12 1_555 1_555
H16 C12 1_555 1_555
H17 C12 1_555 1_555
C13 P1 1_555 1_555
C14 C13 1_555 1_555
C15 C14 1_555 1_555
H18 C15 1_555 1_555
C16 C15 1_555 1_555
C17 C16 1_555 1_555
H19 C17 1_555 1_555
C18 C13 1_555 1_555
C19 C14 1_555 1_555
H20 C19 1_555 1_555
H21 C19 1_555 1_555
H22 C19 1_555 1_555
C20 C16 1_555 1_555
H23 C20 1_555 1_555
H24 C20 1_555 1_555
H25 C20 1_555 1_555
C21 C18 1_555 1_555
H26 C21 1_555 1_555
H27 C21 1_555 1_555
H28 C21 1_555 1_555
C22 P1 1_555 1_555
H29 C22 1_555 1_555
H30 C22 1_555 1_555
C23 C22 1_555 1_555
H31 C23 1_555 1_555
H32 C23 1_555 1_555
C24 C23 1_555 1_555
H33 C24 1_555 1_555
H34 C24 1_555 1_555
C25 C24 1_555 1_555
H35 C25 1_555 1_555
H36 C25 1_555 1_555
H37 C25 1_555 1_555
C5 C6 1_555 1_555
C17 C18 1_555 1_555

#END
