
#######################################################################
#
#                 Cambridge Crystallographic Data Centre
#                                CCDC 
#
#######################################################################
#
# If this CIF has been generated from an entry in the Cambridge 
# Structural Database, then it will include bibliographic, chemical, 
# crystal, experimental, refinement or atomic coordinate data resulting 
# from the CCDC's data processing and validation procedures.
#
#######################################################################

data_UPUMIC
_chemical_formula_moiety         'C22 H17 N1 O3'
_chemical_name_systematic        
'Ethyl 3-benzoylpyrrolo[2,1-a]isoquinoline-1-carboxylate'
_symmetry_cell_setting           triclinic
_symmetry_space_group_name_H-M   'P -1'
_symmetry_Int_Tables_number      2
_space_group_name_Hall           '-P 1'
loop_
_symmetry_equiv_pos_site_id
_symmetry_equiv_pos_as_xyz
1 x,y,z
2 -x,-y,-z
_cell_length_a                   8.4125(6)
_cell_length_b                   9.9415(7)
_cell_length_c                   11.0268(8)
_cell_angle_alpha                65.643(4)
_cell_angle_beta                 84.421(4)
_cell_angle_gamma                87.463(4)
_cell_volume                     836.132
_exptl_crystal_colour            greenish
_exptl_crystal_description       rectangular
_chemical_melting_point          '140 deg.C'
_cell_formula_units_Z            2
loop_
_atom_site_label
_atom_site_type_symbol
_atom_site_fract_x
_atom_site_fract_y
_atom_site_fract_z
N1 N -0.07845(16) 0.33676(15) 0.33721(13)
C1 C -0.0991(2) 0.03100(19) 0.67993(17)
H1 H -0.0270 0.0605 0.7229
C2 C -0.1795(2) -0.0997(2) 0.74788(19)
H2 H -0.1617 -0.1576 0.8365
C3 C -0.2869(2) -0.1463(2) 0.6858(2)
H3 H -0.3409 -0.2350 0.7326
C4 C -0.3136(2) -0.0618(2) 0.55569(19)
H4 H -0.3849 -0.0942 0.5143
C5 C -0.23508(19) 0.07314(18) 0.48363(17)
C6 C -0.12433(18) 0.12081(17) 0.54604(16)
C7 C -0.04045(18) 0.25761(17) 0.46807(14)
C8 C -0.1899(2) 0.2901(2) 0.27833(17)
H5 H -0.2120 0.3474 0.1907
C9 C -0.2649(2) 0.1627(2) 0.34827(18)
H6 H -0.3386 0.1311 0.3081
C10 C 0.08477(19) 0.33516(17) 0.48672(15)
C11 C 0.1211(2) 0.45658(18) 0.36556(15)
H7 H 0.2006 0.5253 0.3499
C12 C 0.0217(2) 0.45868(18) 0.27350(15)
C13 C 0.0087(2) 0.57286(18) 0.13919(16)
C14 C 0.1526(2) 0.66829(18) 0.07896(15)
C15 C 0.3042(2) 0.6082(2) 0.07637(17)
H8 H 0.3179 0.5063 0.1159
C16 C 0.4351(2) 0.6979(2) 0.01583(18)
H9 H 0.5360 0.6566 0.0131
C17 C 0.4153(3) 0.8490(2) -0.04045(19)
H10 H 0.5034 0.9099 -0.0801
C18 C 0.2656(3) 0.9101(2) -0.0382(2)
H11 H 0.2530 1.0121 -0.0758
C19 C 0.1344(2) 0.8205(2) 0.01977(18)
H12 H 0.0332 0.8624 0.0192
C20 C 0.1740(2) 0.30394(18) 0.60318(16)
C21 C 0.4054(2) 0.3716(2) 0.67316(18)
H13 H 0.3457 0.3348 0.7603
H14 H 0.4553 0.4637 0.6587
C22 C 0.5309(3) 0.2622(2) 0.6701(2)
H15 H 0.4819 0.1692 0.6899
H16 H 0.6042 0.2497 0.7356
H17 H 0.5876 0.2971 0.5830
O1 O 0.14679(18) 0.21103(16) 0.71485(12)
O2 O 0.29731(15) 0.39791(14) 0.57099(12)
O3 O -0.11099(17) 0.59373(15) 0.07826(13)
loop_
_geom_bond_atom_site_label_1
_geom_bond_atom_site_label_2
_geom_bond_site_symmetry_1
_geom_bond_site_symmetry_2
N1 C7 1_555 1_555
C1 H1 1_555 1_555
C2 C1 1_555 1_555
H2 C2 1_555 1_555
C3 C2 1_555 1_555
H3 C3 1_555 1_555
C4 C3 1_555 1_555
H4 C4 1_555 1_555
C5 C4 1_555 1_555
C6 C1 1_555 1_555
C7 C6 1_555 1_555
C8 N1 1_555 1_555
H5 C8 1_555 1_555
C9 C5 1_555 1_555
H6 C9 1_555 1_555
C10 C7 1_555 1_555
C11 C10 1_555 1_555
H7 C11 1_555 1_555
C12 N1 1_555 1_555
C13 C12 1_555 1_555
C14 C13 1_555 1_555
C15 C14 1_555 1_555
H8 C15 1_555 1_555
C16 C15 1_555 1_555
H9 C16 1_555 1_555
C17 C16 1_555 1_555
H10 C17 1_555 1_555
C18 C17 1_555 1_555
H11 C18 1_555 1_555
C19 C14 1_555 1_555
H12 C19 1_555 1_555
C20 C10 1_555 1_555
C21 H13 1_555 1_555
H14 C21 1_555 1_555
C22 C21 1_555 1_555
H15 C22 1_555 1_555
H16 C22 1_555 1_555
H17 C22 1_555 1_555
O1 C20 1_555 1_555
O2 C20 1_555 1_555
O3 C13 1_555 1_555
C5 C6 1_555 1_555
C8 C9 1_555 1_555
C11 C12 1_555 1_555
C18 C19 1_555 1_555
C21 O2 1_555 1_555

#END
