
#######################################################################
#
#                 Cambridge Crystallographic Data Centre
#                                CCDC 
#
#######################################################################
#
# If this CIF has been generated from an entry in the Cambridge 
# Structural Database, then it will include bibliographic, chemical, 
# crystal, experimental, refinement or atomic coordinate data resulting 
# from the CCDC's data processing and validation procedures.
#
#######################################################################

data_UPUPIG
_chemical_name_common            
5,6-bis(4-diphenylaminophenyl)benzo[c][1,2,5]thiadiazole
_chemical_formula_moiety         'C42 H30 N4 S1'
_chemical_name_systematic        
4-(6-(4-(diphenylamino)phenyl)-2,1,3-benzothiadiazol-5-yl)-N,N-diphenylaniline
_symmetry_cell_setting           orthorhombic
_symmetry_space_group_name_H-M   'P b c n'
_symmetry_Int_Tables_number      60
_space_group_name_Hall           '-P 2n 2ab'
loop_
_symmetry_equiv_pos_site_id
_symmetry_equiv_pos_as_xyz
1 x,y,z
2 1/2-x,1/2-y,1/2+z
3 1/2+x,1/2-y,-z
4 -x,y,1/2-z
5 -x,-y,-z
6 1/2+x,1/2+y,1/2-z
7 1/2-x,1/2+y,z
8 x,-y,1/2+z
_cell_length_a                   6.8534(2)
_cell_length_b                   18.7576(4)
_cell_length_c                   24.5481(5)
_cell_angle_alpha                90
_cell_angle_beta                 90
_cell_angle_gamma                90
_cell_volume                     3155.74
_exptl_crystal_colour            orange
_exptl_crystal_description       'hexagonal prism'
_cell_formula_units_Z            4
_exptl_crystal_recrystallization_method ethanol
_exptl_crystal_preparation       
'Crystals were grown by slowly cooling a hot ethanol solution.'
loop_
_atom_site_label
_atom_site_type_symbol
_atom_site_fract_x
_atom_site_fract_y
_atom_site_fract_z
S1 S 0.0000 0.36303(2) 0.2500
N1 N 0.07051(19) 0.41772(6) 0.29691(5)
N2 N 0.16145(18) 0.87018(6) 0.39695(5)
C1 C 0.0412(2) 0.48366(7) 0.27682(6)
C2 C 0.0821(2) 0.54908(7) 0.30341(6)
H1 H 0.1380 0.5493 0.3388
C3 C 0.0400(2) 0.61224(7) 0.27743(5)
C4 C 0.0713(2) 0.68053(7) 0.30703(5)
C5 C 0.2512(2) 0.69575(7) 0.33080(5)
H2 H 0.3549 0.6624 0.3273
C6 C 0.2822(2) 0.75856(7) 0.35946(5)
H3 H 0.4071 0.7683 0.3745
C7 C 0.1302(2) 0.80764(7) 0.36635(5)
C8 C -0.0520(2) 0.79211(7) 0.34355(5)
H4 H -0.1576 0.8243 0.3485
C9 C -0.0798(2) 0.73005(7) 0.31371(5)
H5 H -0.2033 0.7210 0.2976
C10 C 0.3001(2) 0.86735(7) 0.44065(5)
C11 C 0.2652(2) 0.82302(8) 0.48472(6)
H6 H 0.1516 0.7940 0.4855
C12 C 0.3968(3) 0.82106(10) 0.52777(6)
H7 H 0.3735 0.7905 0.5579
C13 C 0.5623(3) 0.86368(10) 0.52683(7)
H8 H 0.6509 0.8630 0.5566
C14 C 0.5979(3) 0.90709(10) 0.48259(7)
H9 H 0.7123 0.9357 0.4818
C15 C 0.4678(2) 0.90934(9) 0.43919(7)
H10 H 0.4929 0.9393 0.4088
C16 C 0.0685(2) 0.93542(7) 0.38561(5)
C17 C 0.0478(2) 0.98607(8) 0.42682(6)
H11 H 0.0986 0.9764 0.4621
C18 C -0.0456(2) 1.05023(8) 0.41710(7)
H12 H -0.0576 1.0840 0.4457
C19 C -0.1214(2) 1.06572(8) 0.36638(7)
H13 H -0.1896 1.1091 0.3602
C20 C -0.0961(2) 1.01673(8) 0.32457(6)
H14 H -0.1435 1.0276 0.2892
C21 C -0.0030(2) 0.95230(8) 0.33366(6)
H15 H 0.0125 0.9194 0.3046
N1C N -0.07051(19) 0.41772(6) 0.20309(5)
N2C N -0.16145(18) 0.87018(6) 0.10305(5)
C1C C -0.0412(2) 0.48366(7) 0.22318(6)
C2C C -0.0821(2) 0.54908(7) 0.19659(6)
H1C H -0.1380 0.5493 0.1612
C3C C -0.0400(2) 0.61224(7) 0.22257(5)
C4C C -0.0713(2) 0.68053(7) 0.19297(5)
C5C C -0.2512(2) 0.69575(7) 0.16920(5)
H2C H -0.3549 0.6624 0.1727
C6C C -0.2822(2) 0.75856(7) 0.14054(5)
H3C H -0.4071 0.7683 0.1255
C7C C -0.1302(2) 0.80764(7) 0.13365(5)
C8C C 0.0520(2) 0.79211(7) 0.15645(5)
H4C H 0.1576 0.8243 0.1515
C9C C 0.0798(2) 0.73005(7) 0.18629(5)
H5C H 0.2033 0.7210 0.2024
C10C C -0.3001(2) 0.86735(7) 0.05935(5)
C11C C -0.2652(2) 0.82302(8) 0.01528(6)
H6C H -0.1516 0.7940 0.0145
C12C C -0.3968(3) 0.82106(10) -0.02777(6)
H7C H -0.3735 0.7905 -0.0579
C13C C -0.5623(3) 0.86368(10) -0.02683(7)
H8C H -0.6509 0.8630 -0.0566
C14C C -0.5979(3) 0.90709(10) 0.01741(7)
H9C H -0.7123 0.9357 0.0182
C15C C -0.4678(2) 0.90934(9) 0.06081(7)
H10C H -0.4929 0.9393 0.0912
C16C C -0.0685(2) 0.93542(7) 0.11439(5)
C17C C -0.0478(2) 0.98607(8) 0.07318(6)
H11C H -0.0986 0.9764 0.0379
C18C C 0.0456(2) 1.05023(8) 0.08290(7)
H12C H 0.0576 1.0840 0.0543
C19C C 0.1214(2) 1.06572(8) 0.13362(7)
H13C H 0.1896 1.1091 0.1398
C20C C 0.0961(2) 1.01673(8) 0.17543(6)
H14C H 0.1435 1.0276 0.2108
C21C C 0.0030(2) 0.95230(8) 0.16634(6)
H15C H -0.0125 0.9194 0.1954
loop_
_geom_bond_atom_site_label_1
_geom_bond_atom_site_label_2
_geom_bond_site_symmetry_1
_geom_bond_site_symmetry_2
S1 N1 1_555 1_555
N1 C1 1_555 1_555
N2 C7 1_555 1_555
C1 C2 1_555 1_555
C2 H1 1_555 1_555
C3 C2 1_555 1_555
C4 C3 1_555 1_555
C5 C4 1_555 1_555
H2 C5 1_555 1_555
C6 C5 1_555 1_555
H3 C6 1_555 1_555
C7 C6 1_555 1_555
C8 C7 1_555 1_555
H4 C8 1_555 1_555
C9 C4 1_555 1_555
H5 C9 1_555 1_555
C10 N2 1_555 1_555
C11 C10 1_555 1_555
H6 C11 1_555 1_555
C12 C11 1_555 1_555
H7 C12 1_555 1_555
C13 C12 1_555 1_555
H8 C13 1_555 1_555
C14 C13 1_555 1_555
H9 C14 1_555 1_555
C15 C10 1_555 1_555
H10 C15 1_555 1_555
C16 N2 1_555 1_555
C17 C16 1_555 1_555
H11 C17 1_555 1_555
C18 C17 1_555 1_555
H12 C18 1_555 1_555
C19 C18 1_555 1_555
H13 C19 1_555 1_555
C20 C19 1_555 1_555
H14 C20 1_555 1_555
C21 C16 1_555 1_555
H15 C21 1_555 1_555
N1C S1 1_555 1_555
N2C C7C 1_555 1_555
C1C C1 1_555 1_555
C2C C1C 1_555 1_555
H1C C2C 1_555 1_555
C3C C3 1_555 1_555
C4C C3C 1_555 1_555
C5C C4C 1_555 1_555
H2C C5C 1_555 1_555
C6C C5C 1_555 1_555
H3C C6C 1_555 1_555
C7C C6C 1_555 1_555
C8C C7C 1_555 1_555
H4C C8C 1_555 1_555
C9C C4C 1_555 1_555
H5C C9C 1_555 1_555
C10C N2C 1_555 1_555
C11C C10C 1_555 1_555
H6C C11C 1_555 1_555
C12C C11C 1_555 1_555
H7C C12C 1_555 1_555
C13C C12C 1_555 1_555
H8C C13C 1_555 1_555
C14C C13C 1_555 1_555
H9C C14C 1_555 1_555
C15C C10C 1_555 1_555
H10C C15C 1_555 1_555
C16C N2C 1_555 1_555
C17C C16C 1_555 1_555
H11C C17C 1_555 1_555
C18C C17C 1_555 1_555
H12C C18C 1_555 1_555
C19C C18C 1_555 1_555
H13C C19C 1_555 1_555
C20C C19C 1_555 1_555
H14C C20C 1_555 1_555
C21C C16C 1_555 1_555
H15C C21C 1_555 1_555
C8 C9 1_555 1_555
C14 C15 1_555 1_555
C20 C21 1_555 1_555
N1C C1C 1_555 1_555
C2C C3C 1_555 1_555
C8C C9C 1_555 1_555
C14C C15C 1_555 1_555
C20C C21C 1_555 1_555

#END
