
#######################################################################
#
#                 Cambridge Crystallographic Data Centre
#                                CCDC 
#
#######################################################################
#
# If this CIF has been generated from an entry in the Cambridge 
# Structural Database, then it will include bibliographic, chemical, 
# crystal, experimental, refinement or atomic coordinate data resulting 
# from the CCDC's data processing and validation procedures.
#
#######################################################################

data_UQACEV
_chemical_formula_moiety         'C10 H8 N2 O4'
_chemical_name_systematic        'Methyl 5-nitro-1H-indole-2-carboxylate'
_symmetry_cell_setting           monoclinic
_symmetry_space_group_name_H-M   'P 21/c'
_symmetry_Int_Tables_number      14
_space_group_name_Hall           '-P 2ybc'
loop_
_symmetry_equiv_pos_site_id
_symmetry_equiv_pos_as_xyz
1 x,y,z
2 -x,1/2+y,1/2-z
3 -x,-y,-z
4 x,1/2-y,1/2+z
_cell_length_a                   3.759(8)
_cell_length_b                   10.80(3)
_cell_length_c                   23.67(6)
_cell_angle_alpha                90
_cell_angle_beta                 90.23(3)
_cell_angle_gamma                90
_cell_volume                     960.928
_exptl_crystal_colour            colorless
_exptl_crystal_description       parallelepiped
_cell_formula_units_Z            4
loop_
_atom_site_label
_atom_site_type_symbol
_atom_site_fract_x
_atom_site_fract_y
_atom_site_fract_z
O1 O -0.5151(15) 0.3549(5) -0.3099(2)
O2 O -0.4268(15) 0.5547(5) -0.3181(2)
O3 O 0.4440(13) 0.3375(5) 0.02883(19)
O4 O 0.1952(13) 0.1552(4) 0.00198(18)
N1 N -0.4083(16) 0.4557(6) -0.2910(2)
N2 N 0.1894(15) 0.4481(5) -0.0739(2)
H1 H 0.2865 0.5031 -0.0525
C1 C -0.2501(18) 0.4579(7) -0.2335(3)
C2 C -0.1175(19) 0.5737(7) -0.2127(3)
H2 H -0.1320 0.6447 -0.2348
C3 C 0.0342(19) 0.5784(7) -0.1585(3)
H3 H 0.1236 0.6521 -0.1439
C4 C 0.0470(18) 0.4684(7) -0.1270(3)
C5 C -0.0839(18) 0.3542(6) -0.1477(3)
C6 C -0.2426(18) 0.3491(6) -0.2026(3)
H4 H -0.3366 0.2759 -0.2170
C7 C 0.1483(18) 0.3230(7) -0.0609(3)
C8 C -0.0244(17) 0.2617(7) -0.1052(3)
H5 H -0.0874 0.1785 -0.1068
C9 C 0.2762(18) 0.2754(7) -0.0055(3)
C10 C 0.317(2) 0.0996(7) 0.0558(3)
H6 H 0.2457 0.0142 0.0571
H7 H 0.2119 0.1434 0.0868
H8 H 0.5711 0.1050 0.0583
loop_
_geom_bond_atom_site_label_1
_geom_bond_atom_site_label_2
_geom_bond_site_symmetry_1
_geom_bond_site_symmetry_2
O1 N1 1_555 1_555
O2 N1 1_555 1_555
O3 C9 1_555 1_555
O4 C9 1_555 1_555
N1 C1 1_555 1_555
N2 H1 1_555 1_555
C1 C2 1_555 1_555
C2 H2 1_555 1_555
C3 C2 1_555 1_555
H3 C3 1_555 1_555
C4 N2 1_555 1_555
C5 C4 1_555 1_555
C6 C1 1_555 1_555
H4 C6 1_555 1_555
C7 N2 1_555 1_555
C8 C5 1_555 1_555
H5 C8 1_555 1_555
C9 C7 1_555 1_555
C10 O4 1_555 1_555
H6 C10 1_555 1_555
H7 C10 1_555 1_555
H8 C10 1_555 1_555
C3 C4 1_555 1_555
C5 C6 1_555 1_555
C7 C8 1_555 1_555

#END
