
#######################################################################
#
#                 Cambridge Crystallographic Data Centre
#                                CCDC 
#
#######################################################################
#
# If this CIF has been generated from an entry in the Cambridge 
# Structural Database, then it will include bibliographic, chemical, 
# crystal, experimental, refinement or atomic coordinate data resulting 
# from the CCDC's data processing and validation procedures.
#
#######################################################################

data_UQAFEY
_chemical_formula_moiety         'C12 H20 N2 O2 S1'
_chemical_name_systematic        "N,N-Diisopropyl-N'-phenylsulfuric diamide"
_symmetry_cell_setting           monoclinic
_symmetry_space_group_name_H-M   'C 2/c'
_symmetry_Int_Tables_number      15
_space_group_name_Hall           '-C 2yn'
loop_
_symmetry_equiv_pos_site_id
_symmetry_equiv_pos_as_xyz
1 x,y,z
2 -x,y,1/2-z
3 1/2+x,1/2+y,z
4 1/2-x,1/2+y,1/2-z
5 -x,-y,-z
6 x,-y,1/2+z
7 1/2-x,1/2-y,-z
8 1/2+x,1/2-y,1/2+z
_cell_length_a                   14.783(2)
_cell_length_b                   7.6193(11)
_cell_length_c                   24.663(3)
_cell_angle_alpha                90
_cell_angle_beta                 98.688(3)
_cell_angle_gamma                90
_cell_volume                     2746.07
_exptl_crystal_colour            colorless
_exptl_crystal_description       prismatic
_cell_formula_units_Z            8
loop_
_atom_site_label
_atom_site_type_symbol
_atom_site_fract_x
_atom_site_fract_y
_atom_site_fract_z
S1 S 0.11943(4) 0.20453(7) 0.32512(2)
O1 O 0.17548(10) 0.08381(18) 0.35840(6)
O2 O 0.11555(11) 0.1899(2) 0.26681(6)
N1 N 0.01341(12) 0.1814(2) 0.33362(7)
N2 N 0.14774(10) 0.39774(19) 0.34772(6)
C1 C -0.02146(14) 0.2287(3) 0.38194(8)
C2 C -0.10414(16) 0.3158(3) 0.37739(10)
H1 H -0.1347 0.3461 0.3429
C3 C -0.14142(18) 0.3579(3) 0.42314(11)
H2 H -0.1979 0.4140 0.4196
C4 C -0.0956(2) 0.3175(4) 0.47437(11)
H3 H -0.1200 0.3489 0.5056
C5 C -0.0141(2) 0.2310(4) 0.47883(10)
H4 H 0.0167 0.2025 0.5134
C6 C 0.02344(16) 0.1852(3) 0.43302(9)
H5 H 0.0788 0.1252 0.4366
C7 C 0.09405(15) 0.5458(3) 0.32081(8)
H6 H 0.0365 0.4971 0.3018
C8 C 0.06943(18) 0.6736(3) 0.36397(11)
H7 H 0.0419 0.6103 0.3909
H8 H 0.0270 0.7594 0.3467
H9 H 0.1238 0.7313 0.3814
C9 C 0.1407(2) 0.6387(3) 0.27796(10)
H10 H 0.1973 0.6892 0.2953
H11 H 0.1015 0.7298 0.2609
H12 H 0.1529 0.5558 0.2507
C10 C 0.24152(13) 0.4345(3) 0.37651(8)
H13 H 0.2473 0.5627 0.3773
C11 C 0.25441(18) 0.3775(3) 0.43579(9)
H14 H 0.2043 0.4197 0.4528
H15 H 0.3107 0.4249 0.4546
H16 H 0.2564 0.2517 0.4377
C12 C 0.31725(17) 0.3688(4) 0.34640(12)
H17 H 0.3171 0.2428 0.3461
H18 H 0.3752 0.4103 0.3647
H19 H 0.3072 0.4118 0.3094
H20 H -0.0241(13) 0.188(3) 0.3037(7)
loop_
_geom_bond_atom_site_label_1
_geom_bond_atom_site_label_2
_geom_bond_site_symmetry_1
_geom_bond_site_symmetry_2
S1 O1 1_555 1_555
O2 S1 1_555 1_555
N1 S1 1_555 1_555
N2 S1 1_555 1_555
C1 N1 1_555 1_555
C2 C1 1_555 1_555
H1 C2 1_555 1_555
C3 C2 1_555 1_555
H2 C3 1_555 1_555
C4 C3 1_555 1_555
H3 C4 1_555 1_555
C5 C4 1_555 1_555
H4 C5 1_555 1_555
C6 C1 1_555 1_555
H5 C6 1_555 1_555
C7 N2 1_555 1_555
H6 C7 1_555 1_555
C8 C7 1_555 1_555
H7 C8 1_555 1_555
H8 C8 1_555 1_555
H9 C8 1_555 1_555
C9 C7 1_555 1_555
H10 C9 1_555 1_555
H11 C9 1_555 1_555
H12 C9 1_555 1_555
C10 N2 1_555 1_555
H13 C10 1_555 1_555
C11 C10 1_555 1_555
H14 C11 1_555 1_555
H15 C11 1_555 1_555
H16 C11 1_555 1_555
C12 C10 1_555 1_555
H17 C12 1_555 1_555
H18 C12 1_555 1_555
H19 C12 1_555 1_555
H20 N1 1_555 1_555
C5 C6 1_555 1_555

#END
