
#######################################################################
#
#                 Cambridge Crystallographic Data Centre
#                                CCDC 
#
#######################################################################
#
# If this CIF has been generated from an entry in the Cambridge 
# Structural Database, then it will include bibliographic, chemical, 
# crystal, experimental, refinement or atomic coordinate data resulting 
# from the CCDC's data processing and validation procedures.
#
#######################################################################

data_UQAGUP
_chemical_formula_moiety         'C15 H18 Br1 N1 O4 S1'
_chemical_name_systematic        
(Z)-N-(4-Bromo-5-ethoxy-3,5-dimethylfuran-2(5H)-ylidene)-4-methylbenzenesulfonamide
_chemical_properties_biological  'low in vitro anti-cancer activity'
_symmetry_cell_setting           monoclinic
_symmetry_space_group_name_H-M   'P 21/c'
_symmetry_Int_Tables_number      14
_space_group_name_Hall           '-P 2ybc'
loop_
_symmetry_equiv_pos_site_id
_symmetry_equiv_pos_as_xyz
1 x,y,z
2 -x,1/2+y,1/2-z
3 -x,-y,-z
4 x,1/2-y,1/2+z
_cell_length_a                   11.714(5)
_cell_length_b                   14.106(5)
_cell_length_c                   10.402(4)
_cell_angle_alpha                90
_cell_angle_beta                 97.298(8)
_cell_angle_gamma                90
_cell_volume                     1704.88
_exptl_crystal_colour            colorless
_exptl_crystal_description       prism
_cell_formula_units_Z            4
loop_
_atom_site_label
_atom_site_type_symbol
_atom_site_fract_x
_atom_site_fract_y
_atom_site_fract_z
Br1 Br 0.99696(2) 0.621440(18) 0.89852(2)
S1 S 0.81548(5) 0.32650(4) 0.42065(5)
O1 O 0.81002(12) 0.49548(11) 0.58335(15)
O2 O 0.72879(13) 0.56832(11) 0.75075(16)
O3 O 0.79416(13) 0.39819(11) 0.32236(14)
O4 O 0.85339(13) 0.23488(11) 0.38415(15)
N1 N 0.91507(15) 0.36159(13) 0.53762(17)
C1 C 0.82240(19) 0.57187(17) 0.6820(2)
C2 C 0.93655(18) 0.54554(17) 0.7596(2)
C3 C 0.98279(18) 0.46812(16) 0.7149(2)
C4 C 0.90071(18) 0.43657(16) 0.6044(2)
C5 C 0.68950(18) 0.31209(16) 0.4962(2)
C6 C 0.60050(19) 0.37725(17) 0.4714(2)
H1 H 0.6054 0.4270 0.4108
C7 C 0.5045(2) 0.36895(17) 0.5360(2)
H2 H 0.4431 0.4130 0.5187
C8 C 0.4969(2) 0.29695(18) 0.6256(2)
C9 C 0.5867(2) 0.23155(18) 0.6466(2)
H3 H 0.5816 0.1810 0.7060
C10 C 0.68284(19) 0.23871(17) 0.5828(2)
H4 H 0.7435 0.1938 0.5984
C11 C 0.8208(2) 0.66631(16) 0.6134(2)
H5 H 0.7483 0.6732 0.5558
H6 H 0.8855 0.6695 0.5623
H7 H 0.8277 0.7175 0.6776
C12 C 1.09026(19) 0.41576(17) 0.7587(2)
H8 H 1.1365 0.4519 0.8270
H9 H 1.1342 0.4070 0.6854
H10 H 1.0713 0.3537 0.7926
C13 C 0.7164(2) 0.48393(18) 0.8255(3)
H11 H 0.7835 0.4763 0.8928
H12 H 0.7113 0.4274 0.7686
C14 C 0.6083(2) 0.4944(2) 0.8872(3)
H13 H 0.6144 0.5506 0.9432
H14 H 0.5973 0.4380 0.9391
H15 H 0.5425 0.5017 0.8196
C15 C 0.3962(2) 0.2907(2) 0.7026(3)
H16 H 0.3450 0.2392 0.6682
H17 H 0.3538 0.3507 0.6956
H18 H 0.4244 0.2781 0.7937
loop_
_geom_bond_atom_site_label_1
_geom_bond_atom_site_label_2
_geom_bond_site_symmetry_1
_geom_bond_site_symmetry_2
Br1 C2 1_555 1_555
S1 O3 1_555 1_555
O1 C1 1_555 1_555
O2 C1 1_555 1_555
O4 S1 1_555 1_555
N1 S1 1_555 1_555
C1 C2 1_555 1_555
C2 C3 1_555 1_555
C3 C4 1_555 1_555
C4 O1 1_555 1_555
C5 S1 1_555 1_555
C6 C5 1_555 1_555
H1 C6 1_555 1_555
C7 C6 1_555 1_555
H2 C7 1_555 1_555
C8 C7 1_555 1_555
C9 C8 1_555 1_555
H3 C9 1_555 1_555
C10 C5 1_555 1_555
H4 C10 1_555 1_555
C11 C1 1_555 1_555
H5 C11 1_555 1_555
H6 C11 1_555 1_555
H7 C11 1_555 1_555
C12 C3 1_555 1_555
H8 C12 1_555 1_555
H9 C12 1_555 1_555
H10 C12 1_555 1_555
C13 O2 1_555 1_555
H11 C13 1_555 1_555
H12 C13 1_555 1_555
C14 C13 1_555 1_555
H13 C14 1_555 1_555
H14 C14 1_555 1_555
H15 C14 1_555 1_555
C15 C8 1_555 1_555
H16 C15 1_555 1_555
H17 C15 1_555 1_555
H18 C15 1_555 1_555
N1 C4 1_555 1_555
C9 C10 1_555 1_555

#END
