
#######################################################################
#
#                 Cambridge Crystallographic Data Centre
#                                CCDC 
#
#######################################################################
#
# If this CIF has been generated from an entry in the Cambridge 
# Structural Database, then it will include bibliographic, chemical, 
# crystal, experimental, refinement or atomic coordinate data resulting 
# from the CCDC's data processing and validation procedures.
#
#######################################################################

data_UQALOO
_chemical_formula_moiety         'C46 H86 Li6 N8 O10 Si6'
_chemical_name_systematic        
"bis(\m~5~-1,1,3,3,5,5-Hexamethyltrisiloxane-1,5-diolato-O,O,O,O',O'',O'',O'')-bis(\m~4~-N'-cyano-N-phenylpiperidine-1-carboximidamido-N,N,N,N,N')-bis(diethyl ether)-hexa-lithium(i)"
_symmetry_cell_setting           monoclinic
_symmetry_space_group_name_H-M   'P 21/n'
_symmetry_Int_Tables_number      14
_space_group_name_Hall           '-P 2yn'
loop_
_symmetry_equiv_pos_site_id
_symmetry_equiv_pos_as_xyz
1 x,y,z
2 1/2-x,1/2+y,1/2-z
3 -x,-y,-z
4 1/2+x,1/2-y,1/2+z
_cell_length_a                   12.4883(19)
_cell_length_b                   14.027(2)
_cell_length_c                   18.534(3)
_cell_angle_alpha                90
_cell_angle_beta                 95.894(2)
_cell_angle_gamma                90
_cell_volume                     3229.5
_cell_formula_units_Z            2
loop_
_atom_site_label
_atom_site_type_symbol
_atom_site_fract_x
_atom_site_fract_y
_atom_site_fract_z
Li1 Li 0.9358(3) 0.3293(2) 0.9874(2)
Li2 Li 1.0297(3) 0.4769(3) 1.07153(19)
Si1 Si 1.11676(6) 0.28718(4) 1.12321(3)
Si2 Si 1.01349(7) 0.40145(5) 1.23525(4)
Si3 Si 1.04733(7) 0.61015(5) 1.17812(4)
O1 O 1.06247(12) 0.34253(9) 1.05356(7)
O2 O 1.04774(14) 0.30636(10) 1.19362(8)
O3 O 1.04150(15) 0.49182(10) 1.18465(8)
O4 O 0.99478(13) 0.36889(10) 0.90328(8)
N1 N 0.72401(15) 0.64644(12) 1.06273(10)
N2 N 0.56058(16) 0.57812(13) 1.09649(10)
N3 N 0.69396(16) 0.48305(12) 1.05751(10)
N4 N 0.87089(17) 0.46760(12) 1.01205(10)
C1 C 0.6894(2) 0.74190(16) 1.05400(13)
C2 C 0.5993(2) 0.76874(18) 1.00795(15)
H1 H 0.5534 0.7221 0.9867
C3 C 0.5773(3) 0.8635(2) 0.99338(17)
H2 H 0.5174 0.8801 0.9619
C4 C 0.6433(3) 0.9338(2) 1.0250(2)
H3 H 0.6279 0.9976 1.0153
C5 C 0.7317(3) 0.90850(19) 1.07076(17)
H4 H 0.7764 0.9557 1.0924
C6 C 0.7554(2) 0.81293(17) 1.08532(14)
H5 H 0.8161 0.7968 1.1163
C7 C 0.5396(2) 0.64654(17) 1.15331(14)
H6 H 0.4638 0.6630 1.1485
H7 H 0.5805 0.7044 1.1476
C8 C 0.5708(3) 0.60484(18) 1.22749(15)
H8 H 0.5530 0.6498 1.2642
H9 H 0.6479 0.5942 1.2339
C9 C 0.5128(3) 0.51112(19) 1.23733(15)
H10 H 0.5397 0.4827 1.2834
H11 H 0.4364 0.5230 1.2381
C10 C 0.5299(2) 0.44247(17) 1.17614(14)
H12 H 0.6047 0.4227 1.1800
H13 H 0.4859 0.3861 1.1802
C11 C 0.5004(2) 0.48930(16) 1.10350(14)
H14 H 0.5154 0.4457 1.0652
H15 H 0.4238 0.5030 1.0978
C12 C 0.66008(19) 0.57453(16) 1.07201(12)
C13 C 0.7866(2) 0.47759(14) 1.03279(12)
C14 C 1.1167(2) 0.15626(15) 1.11036(13)
H16 H 1.1594 0.1403 1.0718
H17 H 1.1465 0.1261 1.1544
H18 H 1.0442 0.1345 1.0982
C15 C 1.2559(2) 0.33200(19) 1.14765(14)
H19 H 1.2542 0.3999 1.1538
H20 H 1.2855 0.3028 1.1921
H21 H 1.2997 0.3164 1.1097
C16 C 1.0922(3) 0.4098(2) 1.32463(14)
H22 H 1.1676 0.4070 1.3187
H23 H 1.0765 0.4691 1.3472
H24 H 1.0736 0.3578 1.3546
C17 C 0.8679(2) 0.3998(2) 1.24310(16)
H25 H 0.8485 0.3399 1.2632
H26 H 0.8499 0.4507 1.2743
H27 H 0.8294 0.4079 1.1959
C18 C 1.1922(3) 0.6416(2) 1.19813(18)
H28 H 1.2017 0.7085 1.1897
H29 H 1.2155 0.6272 1.2479
H30 H 1.2341 0.6055 1.1671
C19 C 0.9638(3) 0.6639(2) 1.24468(16)
H31 H 0.8902 0.6444 1.2336
H32 H 0.9895 0.6429 1.2926
H33 H 0.9684 0.7321 1.2422
C20 C 0.8490(2) 0.12893(17) 0.97038(16)
H34 H 0.7856 0.0968 0.9475
H35 H 0.8704 0.0975 1.0162
C21 C 0.9376(3) 0.12222(18) 0.92290(18)
H36 H 0.9497 0.0565 0.9117
H37 H 1.0021 0.1489 0.9475
H38 H 0.9181 0.1569 0.8788
O5 O 0.8244(4) 0.2257(4) 0.9830(3)
C22 C 0.7247(4) 0.2382(3) 1.0127(3)
H39 H 0.6709 0.1969 0.9875
H40 H 0.7007 0.3035 1.0053
C23 C 0.7340(7) 0.2156(5) 1.0928(3)
H41 H 0.6654 0.2247 1.1109
H42 H 0.7861 0.2573 1.1181
H43 H 0.7565 0.1506 1.1003
Li3 Li 1.1228(3) 0.3636(3) 0.9642(2)
Li1B Li 1.0642(3) 0.6707(2) 1.0126(2)
Li2B Li 0.9703(3) 0.5231(3) 0.92847(19)
Si1B Si 0.88324(6) 0.71282(4) 0.87679(3)
Si2B Si 0.98651(7) 0.59855(5) 0.76475(4)
Si3B Si 0.95267(7) 0.38985(5) 0.82188(4)
O1B O 0.93753(12) 0.65747(9) 0.94644(7)
O2B O 0.95226(14) 0.69364(10) 0.80638(8)
O3B O 0.95850(15) 0.50818(10) 0.81535(8)
O4B O 1.00522(13) 0.63111(10) 1.09672(8)
N1B N 1.27599(15) 0.35356(12) 0.93727(10)
N2B N 1.43942(16) 0.42188(13) 0.90351(10)
N3B N 1.30604(16) 0.51695(12) 0.94249(10)
N4B N 1.12911(17) 0.53240(12) 0.98795(10)
C1B C 1.3106(2) 0.25810(16) 0.94600(13)
C2B C 1.4007(2) 0.23126(18) 0.99205(15)
H1B H 1.4466 0.2779 1.0133
C3B C 1.4227(3) 0.1365(2) 1.00662(17)
H2B H 1.4826 0.1199 1.0381
C4B C 1.3567(3) 0.0662(2) 0.9750(2)
H3B H 1.3721 0.0024 0.9847
C5B C 1.2683(3) 0.09150(19) 0.92924(17)
H4B H 1.2236 0.0443 0.9076
C6B C 1.2446(2) 0.18707(17) 0.91468(14)
H5B H 1.1839 0.2032 0.8837
C7B C 1.4604(2) 0.35346(17) 0.84669(14)
H6B H 1.5362 0.3370 0.8515
H7B H 1.4195 0.2956 0.8524
C8B C 1.4292(3) 0.39516(18) 0.77251(15)
H8B H 1.4470 0.3502 0.7358
H9B H 1.3521 0.4058 0.7661
C9B C 1.4872(3) 0.48888(19) 0.76267(15)
H10B H 1.4603 0.5173 0.7166
H11B H 1.5636 0.4770 0.7619
C10B C 1.4701(2) 0.55753(17) 0.82386(14)
H12B H 1.3953 0.5773 0.8200
H13B H 1.5141 0.6139 0.8198
C11B C 1.4996(2) 0.51070(16) 0.89650(14)
H14B H 1.4846 0.5543 0.9348
H15B H 1.5762 0.4970 0.9022
C12B C 1.33992(19) 0.42547(16) 0.92799(12)
C13B C 1.2134(2) 0.52241(14) 0.96721(12)
C14B C 0.8833(2) 0.84374(15) 0.88964(13)
H16B H 0.8406 0.8597 0.9282
H17B H 0.8535 0.8739 0.8456
H18B H 0.9558 0.8655 0.9018
C15B C 0.7441(2) 0.66800(19) 0.85235(14)
H19B H 0.7458 0.6001 0.8462
H20B H 0.7145 0.6972 0.8079
H21B H 0.7003 0.6836 0.8903
C16B C 0.9078(3) 0.5902(2) 0.67537(14)
H22B H 0.8324 0.5930 0.6813
H23B H 0.9235 0.5309 0.6528
H24B H 0.9264 0.6422 0.6454
C17B C 1.1321(2) 0.6002(2) 0.75690(16)
H25B H 1.1515 0.6601 0.7368
H26B H 1.1501 0.5493 0.7257
H27B H 1.1706 0.5921 0.8041
C18B C 0.8078(3) 0.3584(2) 0.80187(18)
H28B H 0.7983 0.2915 0.8103
H29B H 0.7845 0.3728 0.7521
H30B H 0.7659 0.3945 0.8329
C19B C 1.0362(3) 0.3361(2) 0.75532(16)
H31B H 1.1098 0.3556 0.7664
H32B H 1.0105 0.3571 0.7074
H33B H 1.0316 0.2679 0.7578
C20B C 1.1510(2) 0.87107(17) 1.02962(16)
H34B H 1.2144 0.9032 1.0525
H35B H 1.1296 0.9025 0.9838
C21B C 1.0624(3) 0.87778(18) 1.07710(18)
H36B H 1.0503 0.9435 1.0883
H37B H 0.9979 0.8511 1.0525
H38B H 1.0819 0.8431 1.1212
O5B O 1.1756(4) 0.7743(4) 1.0170(3)
C22B C 1.2753(4) 0.7618(3) 0.9873(3)
H39B H 1.3291 0.8031 1.0125
H40B H 1.2993 0.6965 0.9947
C23B C 1.2660(7) 0.7844(5) 0.9072(3)
H41B H 1.3346 0.7753 0.8891
H42B H 1.2139 0.7427 0.8819
H43B H 1.2435 0.8494 0.8997
Li3B Li 0.8772(3) 0.6364(3) 1.0358(2)
C24? C 0.8050(10) 0.2187(9) 1.0721(9)
C25? C 0.6864(11) 0.2314(15) 1.0546(14)
H44? H 0.8329 0.2703 1.1034
H45? H 0.8185 0.1594 1.0983
H46? H 0.6524 0.2332 1.0987
H47? H 0.6580 0.1792 1.0251
H48? H 0.6727 0.2901 1.0286
O6? O 0.8608(12) 0.2175(13) 1.0082(9)
loop_
_geom_bond_atom_site_label_1
_geom_bond_atom_site_label_2
_geom_bond_site_symmetry_1
_geom_bond_site_symmetry_2
Li1 O1 1_555 1_555
Li2 O1 1_555 1_555
Si1 O1 1_555 1_555
Si2 O2 1_555 1_555
Si3 O3 1_555 1_555
O1 Li3 1_555 1_555
O2 Si1 1_555 1_555
O3 Li2 1_555 1_555
O4 Li1 1_555 1_555
N1 C1 1_555 1_555
N2 C7 1_555 1_555
N3 C12 1_555 1_555
N4 Li1 1_555 1_555
C1 C2 1_555 1_555
C2 H1 1_555 1_555
C3 C2 1_555 1_555
H2 C3 1_555 1_555
C4 C3 1_555 1_555
H3 C4 1_555 1_555
C5 C4 1_555 1_555
H4 C5 1_555 1_555
C6 C1 1_555 1_555
H5 C6 1_555 1_555
C7 H6 1_555 1_555
H7 C7 1_555 1_555
C8 C7 1_555 1_555
H8 C8 1_555 1_555
H9 C8 1_555 1_555
C9 C8 1_555 1_555
H10 C9 1_555 1_555
H11 C9 1_555 1_555
C10 C9 1_555 1_555
H12 C10 1_555 1_555
H13 C10 1_555 1_555
C11 N2 1_555 1_555
H14 C11 1_555 1_555
H15 C11 1_555 1_555
C12 N1 1_555 1_555
C13 N3 1_555 1_555
C14 Si1 1_555 1_555
H16 C14 1_555 1_555
H17 C14 1_555 1_555
H18 C14 1_555 1_555
C15 Si1 1_555 1_555
H19 C15 1_555 1_555
H20 C15 1_555 1_555
H21 C15 1_555 1_555
C16 Si2 1_555 1_555
H22 C16 1_555 1_555
H23 C16 1_555 1_555
H24 C16 1_555 1_555
C17 Si2 1_555 1_555
H25 C17 1_555 1_555
H26 C17 1_555 1_555
H27 C17 1_555 1_555
C18 Si3 1_555 1_555
H28 C18 1_555 1_555
H29 C18 1_555 1_555
H30 C18 1_555 1_555
C19 Si3 1_555 1_555
H31 C19 1_555 1_555
H32 C19 1_555 1_555
H33 C19 1_555 1_555
C20 H34 1_555 1_555
H35 C20 1_555 1_555
C21 C20 1_555 1_555
H36 C21 1_555 1_555
H37 C21 1_555 1_555
H38 C21 1_555 1_555
O5 Li1 1_555 1_555
C22 O5 1_555 1_555
H39 C22 1_555 1_555
H40 C22 1_555 1_555
C23 C22 1_555 1_555
H41 C23 1_555 1_555
H42 C23 1_555 1_555
H43 C23 1_555 1_555
Li3 O4 1_555 1_555
Li1B O1B 1_555 1_555
Li2B O4 1_555 1_555
Si1B O1B 1_555 1_555
Si2B O2B 1_555 1_555
Si3B O4 1_555 1_555
O1B Li2B 1_555 1_555
O2B Si1B 1_555 1_555
O3B Li2B 1_555 1_555
O4B Li2 1_555 1_555
N1B Li3 1_555 1_555
N2B C7B 1_555 1_555
N3B C12B 1_555 1_555
N4B Li2 1_555 1_555
C1B N1B 1_555 1_555
C2B C1B 1_555 1_555
H1B C2B 1_555 1_555
C3B C2B 1_555 1_555
H2B C3B 1_555 1_555
C4B C3B 1_555 1_555
H3B C4B 1_555 1_555
C5B C4B 1_555 1_555
H4B C5B 1_555 1_555
C6B C1B 1_555 1_555
H5B C6B 1_555 1_555
C7B H6B 1_555 1_555
H7B C7B 1_555 1_555
C8B C7B 1_555 1_555
H8B C8B 1_555 1_555
H9B C8B 1_555 1_555
C9B C8B 1_555 1_555
H10B C9B 1_555 1_555
H11B C9B 1_555 1_555
C10B C9B 1_555 1_555
H12B C10B 1_555 1_555
H13B C10B 1_555 1_555
C11B N2B 1_555 1_555
H14B C11B 1_555 1_555
H15B C11B 1_555 1_555
C12B N1B 1_555 1_555
C13B N3B 1_555 1_555
C14B Si1B 1_555 1_555
H16B C14B 1_555 1_555
H17B C14B 1_555 1_555
H18B C14B 1_555 1_555
C15B Si1B 1_555 1_555
H19B C15B 1_555 1_555
H20B C15B 1_555 1_555
H21B C15B 1_555 1_555
C16B Si2B 1_555 1_555
H22B C16B 1_555 1_555
H23B C16B 1_555 1_555
H24B C16B 1_555 1_555
C17B Si2B 1_555 1_555
H25B C17B 1_555 1_555
H26B C17B 1_555 1_555
H27B C17B 1_555 1_555
C18B Si3B 1_555 1_555
H28B C18B 1_555 1_555
H29B C18B 1_555 1_555
H30B C18B 1_555 1_555
C19B Si3B 1_555 1_555
H31B C19B 1_555 1_555
H32B C19B 1_555 1_555
H33B C19B 1_555 1_555
C20B H34B 1_555 1_555
H35B C20B 1_555 1_555
C21B C20B 1_555 1_555
H36B C21B 1_555 1_555
H37B C21B 1_555 1_555
H38B C21B 1_555 1_555
O5B Li1B 1_555 1_555
C22B O5B 1_555 1_555
H39B C22B 1_555 1_555
H40B C22B 1_555 1_555
C23B C22B 1_555 1_555
H41B C23B 1_555 1_555
H42B C23B 1_555 1_555
H43B C23B 1_555 1_555
Li3B N1 1_555 1_555
Li2 N4 1_555 1_555
Si2 O3 1_555 1_555
Si3 O4B 1_555 1_555
N2 C12 1_555 1_555
N4 C13 1_555 1_555
N4 Li2B 1_555 1_555
N4 Li3B 1_555 1_555
C5 C6 1_555 1_555
C10 C11 1_555 1_555
C20 O5 1_555 1_555
Li3 N4B 1_555 1_555
Li1B O4B 1_555 1_555
Li1B N4B 1_555 1_555
Li2B N4B 1_555 1_555
Si2B O3B 1_555 1_555
Si3B O3B 1_555 1_555
O1B Li3B 1_555 1_555
O4B Li3B 1_555 1_555
N2B C12B 1_555 1_555
N4B C13B 1_555 1_555
C5B C6B 1_555 1_555
C10B C11B 1_555 1_555
C20B O5B 1_555 1_555

#END
