
#######################################################################
#
#                 Cambridge Crystallographic Data Centre
#                                CCDC 
#
#######################################################################
#
# If this CIF has been generated from an entry in the Cambridge 
# Structural Database, then it will include bibliographic, chemical, 
# crystal, experimental, refinement or atomic coordinate data resulting 
# from the CCDC's data processing and validation procedures.
#
#######################################################################

data_UQAMUW
_chemical_formula_moiety         'C14 H20 N2 O2'
_chemical_name_systematic        N,N'-dipropylisophthalamide
_symmetry_cell_setting           triclinic
_symmetry_space_group_name_H-M   'P -1'
_symmetry_Int_Tables_number      2
_space_group_name_Hall           '-P 1'
loop_
_symmetry_equiv_pos_site_id
_symmetry_equiv_pos_as_xyz
1 x,y,z
2 -x,-y,-z
_cell_length_a                   8.4734(15)
_cell_length_b                   8.5039(15)
_cell_length_c                   19.304(3)
_cell_angle_alpha                79.287(3)
_cell_angle_beta                 79.415(3)
_cell_angle_gamma                89.781(3)
_cell_volume                     1342.82
_exptl_crystal_colour            colorless
_exptl_crystal_description       prisms
_cell_formula_units_Z            4
loop_
_atom_site_label
_atom_site_type_symbol
_atom_site_fract_x
_atom_site_fract_y
_atom_site_fract_z
O1 O -0.14129(16) 0.11574(17) 0.11052(8)
O2 O 0.63762(16) 0.20636(17) -0.10873(8)
N1 N 0.0420(2) -0.0780(2) 0.12363(10)
H1 H 0.1433 -0.1013 0.1115
N2 N 0.46234(19) 0.0180(2) -0.12193(9)
H2 H 0.3619 -0.0180 -0.1110
C1 C 0.2473(2) 0.1077(2) -0.00089(10)
H3 H 0.2483 -0.0043 -0.0001
C2 C 0.1254(2) 0.1717(2) 0.04399(10)
C3 C 0.1222(2) 0.3367(2) 0.04075(11)
H4 H 0.0363 0.3814 0.0691
C4 C 0.2436(3) 0.4360(2) -0.00368(12)
H5 H 0.2424 0.5481 -0.0047
C5 C 0.3670(2) 0.3717(2) -0.04674(11)
H6 H 0.4514 0.4397 -0.0763
C6 C 0.3675(2) 0.2081(2) -0.04677(10)
C7 C -0.0035(2) 0.0671(2) 0.09567(10)
C8 C -0.0646(2) -0.2002(2) 0.17282(11)
H7 H -0.1778 -0.1748 0.1704
H8 H -0.0492 -0.2024 0.2226
C9 C -0.0284(3) -0.3620(2) 0.15275(12)
H9 H 0.0864 -0.3838 0.1529
H10 H -0.0475 -0.3595 0.1035
C10 C -0.1313(3) -0.4967(3) 0.20399(13)
H11 H -0.1148 -0.4980 0.2530
H12 H -0.1005 -0.5993 0.1902
H13 H -0.2448 -0.4793 0.2017
C11 C 0.5014(2) 0.1439(2) -0.09532(10)
C12 C 0.5780(2) -0.0628(2) -0.16812(11)
H14 H 0.6883 -0.0342 -0.1636
H15 H 0.5672 -0.0260 -0.2187
C13 C 0.5519(3) -0.2425(2) -0.14840(11)
H16 H 0.4423 -0.2713 -0.1538
H17 H 0.5609 -0.2791 -0.0975
C14 C 0.6746(3) -0.3272(3) -0.19584(13)
H18 H 0.6641 -0.2931 -0.2461
H19 H 0.6553 -0.4433 -0.1817
H20 H 0.7832 -0.2997 -0.1902
O3 O -0.20591(17) -0.13913(16) 0.60858(8)
O4 O -0.11727(17) 0.63964(16) 0.39140(8)
N3 N -0.02134(19) 0.04060(19) 0.62224(9)
H21 H 0.0115 0.1417 0.6110
N4 N 0.08375(19) 0.46442(19) 0.37749(9)
H22 H 0.1119 0.3645 0.3888
C15 C -0.1062(2) 0.2496(2) 0.49909(10)
H23 H 0.0056 0.2500 0.4997
C16 C -0.2070(2) 0.1278(2) 0.54345(10)
C17 C -0.3707(2) 0.1260(2) 0.54125(11)
H24 H -0.4388 0.0406 0.5699
C18 C -0.4345(2) 0.2489(3) 0.49725(12)
H25 H -0.5463 0.2485 0.4965
C19 C -0.3340(2) 0.3719(2) 0.45444(11)
H26 H -0.3778 0.4573 0.4254
C20 C -0.1690(2) 0.3707(2) 0.45388(10)
C21 C -0.1443(2) -0.0026(2) 0.59437(10)
C22 C 0.0617(2) -0.0687(2) 0.66994(11)
H27 H 0.0393 -0.1804 0.6659
H28 H 0.0217 -0.0572 0.7202
C23 C 0.2410(2) -0.0327(2) 0.65071(11)
H29 H 0.2622 0.0793 0.6548
H30 H 0.2797 -0.0429 0.6002
C24 C 0.3339(3) -0.1438(3) 0.69853(13)
H31 H 0.2932 -0.1375 0.7488
H32 H 0.4481 -0.1116 0.6860
H33 H 0.3206 -0.2539 0.6917
C25 C -0.0652(2) 0.5038(2) 0.40472(10)
C26 C 0.2010(2) 0.5794(2) 0.33010(11)
H34 H 0.1684 0.6893 0.3349
H35 H 0.2036 0.5685 0.2797
C27 C 0.3676(2) 0.5531(2) 0.34789(11)
H36 H 0.4020 0.4448 0.3410
H37 H 0.3637 0.5589 0.3989
C28 C 0.4893(3) 0.6775(3) 0.30083(13)
H38 H 0.4939 0.6715 0.2503
H39 H 0.5955 0.6566 0.3133
H40 H 0.4571 0.7846 0.3086
loop_
_geom_bond_atom_site_label_1
_geom_bond_atom_site_label_2
_geom_bond_site_symmetry_1
_geom_bond_site_symmetry_2
O1 C7 1_555 1_555
O2 C11 1_555 1_555
N1 H1 1_555 1_555
N2 H2 1_555 1_555
C1 H3 1_555 1_555
C2 C1 1_555 1_555
C3 C2 1_555 1_555
H4 C3 1_555 1_555
C4 C3 1_555 1_555
H5 C4 1_555 1_555
C5 C4 1_555 1_555
H6 C5 1_555 1_555
C6 C1 1_555 1_555
C7 N1 1_555 1_555
C8 N1 1_555 1_555
H7 C8 1_555 1_555
H8 C8 1_555 1_555
C9 C8 1_555 1_555
H9 C9 1_555 1_555
H10 C9 1_555 1_555
C10 C9 1_555 1_555
H11 C10 1_555 1_555
H12 C10 1_555 1_555
H13 C10 1_555 1_555
C11 N2 1_555 1_555
C12 N2 1_555 1_555
H14 C12 1_555 1_555
H15 C12 1_555 1_555
C13 C12 1_555 1_555
H16 C13 1_555 1_555
H17 C13 1_555 1_555
C14 C13 1_555 1_555
H18 C14 1_555 1_555
H19 C14 1_555 1_555
H20 C14 1_555 1_555
O3 C21 1_555 1_555
O4 C25 1_555 1_555
N3 H21 1_555 1_555
N4 H22 1_555 1_555
C15 H23 1_555 1_555
C16 C15 1_555 1_555
C17 C16 1_555 1_555
H24 C17 1_555 1_555
C18 C17 1_555 1_555
H25 C18 1_555 1_555
C19 C18 1_555 1_555
H26 C19 1_555 1_555
C20 C15 1_555 1_555
C21 N3 1_555 1_555
C22 N3 1_555 1_555
H27 C22 1_555 1_555
H28 C22 1_555 1_555
C23 C22 1_555 1_555
H29 C23 1_555 1_555
H30 C23 1_555 1_555
C24 C23 1_555 1_555
H31 C24 1_555 1_555
H32 C24 1_555 1_555
H33 C24 1_555 1_555
C25 N4 1_555 1_555
C26 N4 1_555 1_555
H34 C26 1_555 1_555
H35 C26 1_555 1_555
C27 C26 1_555 1_555
H36 C27 1_555 1_555
H37 C27 1_555 1_555
C28 C27 1_555 1_555
H38 C28 1_555 1_555
H39 C28 1_555 1_555
H40 C28 1_555 1_555
C2 C7 1_555 1_555
C5 C6 1_555 1_555
C6 C11 1_555 1_555
C16 C21 1_555 1_555
C19 C20 1_555 1_555
C20 C25 1_555 1_555

#END
