
#######################################################################
#
#                 Cambridge Crystallographic Data Centre
#                                CCDC 
#
#######################################################################
#
# If this CIF has been generated from an entry in the Cambridge 
# Structural Database, then it will include bibliographic, chemical, 
# crystal, experimental, refinement or atomic coordinate data resulting 
# from the CCDC's data processing and validation procedures.
#
#######################################################################

data_UQAMOQ
_chemical_formula_moiety         'C13 H19 N3 O2'
_chemical_name_systematic        N,N'-dipropylpyridine-2,6-dicarboxamide
_symmetry_cell_setting           orthorhombic
_symmetry_space_group_name_H-M   'P b c a'
_symmetry_Int_Tables_number      61
_space_group_name_Hall           '-P 2ac 2ab'
loop_
_symmetry_equiv_pos_site_id
_symmetry_equiv_pos_as_xyz
1 x,y,z
2 1/2-x,-y,1/2+z
3 1/2+x,1/2-y,-z
4 -x,1/2+y,1/2-z
5 -x,-y,-z
6 1/2+x,y,1/2-z
7 1/2-x,1/2+y,z
8 x,1/2-y,1/2+z
_cell_length_a                   17.919(2)
_cell_length_b                   15.3943(15)
_cell_length_c                   9.6893(12)
_cell_angle_alpha                90
_cell_angle_beta                 90
_cell_angle_gamma                90
_cell_volume                     2672.8
_exptl_crystal_colour            colorless
_exptl_crystal_description       prisms
_cell_formula_units_Z            8
loop_
_atom_site_label
_atom_site_type_symbol
_atom_site_fract_x
_atom_site_fract_y
_atom_site_fract_z
O1 O -0.01408(11) 0.30374(13) 0.05841(19)
N1 N -0.03397(12) 0.26672(15) 0.2815(2)
H1 H -0.0188 0.2342 0.3508
N2 N 0.07947(12) 0.15258(15) 0.2750(2)
C1 C 0.06748(14) 0.19935(16) 0.1603(3)
C2 C 0.11204(16) 0.19283(19) 0.0437(3)
H2 H 0.1021 0.2271 -0.0357
C3 C 0.17124(18) 0.1352(2) 0.0459(3)
H3 H 0.2027 0.1292 -0.0325
C4 C 0.18403(16) 0.08676(19) 0.1626(3)
H4 H 0.2244 0.0468 0.1662
C5 C 0.13711(15) 0.09718(18) 0.2749(3)
C6 C 0.00246(14) 0.26119(17) 0.1626(3)
C7 C -0.09776(16) 0.3237(2) 0.3035(3)
H5 H -0.0978 0.3701 0.2326
H6 H -0.0937 0.3516 0.3952
C8 C -0.1709(4) 0.2724(6) 0.2951(10)
H7 H -0.1769 0.2479 0.2013
H8 H -0.1697 0.2237 0.3618
C9 C -0.2364(2) 0.3317(4) 0.3278(6)
H9 H -0.2331 0.3509 0.4240
H10 H -0.2832 0.3001 0.3137
H11 H -0.2350 0.3824 0.2667
O2 O 0.2066(3) -0.0037(5) 0.4051(9)
N3 N 0.0963(2) 0.0447(2) 0.4976(4)
H12 H 0.0588 0.0811 0.4884
C10 C 0.1494(3) 0.0419(4) 0.3975(6)
C11 C 0.0995(3) -0.0101(3) 0.6184(5)
H13 H 0.0672 -0.0613 0.6023
H14 H 0.1513 -0.0314 0.6290
C12 C 0.0771(3) 0.0301(3) 0.7464(5)
H15 H 0.0247 0.0500 0.7372
H16 H 0.1084 0.0822 0.7618
C13 C 0.0829(4) -0.0283(4) 0.8719(6)
H17 H 0.0551 -0.0822 0.8551
H18 H 0.0618 0.0015 0.9524
H19 H 0.1354 -0.0421 0.8894
C14? C -0.1730(17) 0.289(2) 0.320(2)
H20? H -0.2070 0.3352 0.3530
H21? H -0.1726 0.2419 0.3903
C15? C -0.2007(7) 0.2532(11) 0.1820(16)
H22? H -0.2050 0.3008 0.1154
H23? H -0.2496 0.2259 0.1947
H24? H -0.1652 0.2100 0.1473
O3? O 0.1905(8) -0.0198(9) 0.4143(18)
N4? N 0.1130(6) 0.0840(7) 0.5188(9)
H25? H 0.0810 0.1259 0.5009
C16? C 0.1503(6) 0.0460(9) 0.4126(13)
C17? C 0.1244(7) 0.0571(7) 0.6615(10)
H26? H 0.1786 0.0555 0.6811
H27? H 0.1015 0.1006 0.7237
C18? C 0.0923(9) -0.0280(7) 0.6902(13)
H28? H 0.1161 -0.0718 0.6297
H29? H 0.0383 -0.0268 0.6685
C19? C 0.1029(11) -0.0547(10) 0.8408(12)
H30? H 0.1528 -0.0374 0.8718
H31? H 0.0976 -0.1178 0.8492
H32? H 0.0652 -0.0260 0.8981
loop_
_geom_bond_atom_site_label_1
_geom_bond_atom_site_label_2
_geom_bond_site_symmetry_1
_geom_bond_site_symmetry_2
O1 C6 1_555 1_555
N1 H1 1_555 1_555
N2 C1 1_555 1_555
C1 C2 1_555 1_555
C2 H2 1_555 1_555
C3 C2 1_555 1_555
H3 C3 1_555 1_555
C4 C3 1_555 1_555
H4 C4 1_555 1_555
C5 N2 1_555 1_555
C6 N1 1_555 1_555
C7 N1 1_555 1_555
H5 C7 1_555 1_555
H6 C7 1_555 1_555
C8 C7 1_555 1_555
H7 C8 1_555 1_555
H8 C8 1_555 1_555
C9 C8 1_555 1_555
H9 C9 1_555 1_555
H10 C9 1_555 1_555
H11 C9 1_555 1_555
O2 C10 1_555 1_555
N3 H12 1_555 1_555
C10 C5 1_555 1_555
C11 N3 1_555 1_555
H13 C11 1_555 1_555
H14 C11 1_555 1_555
C12 C11 1_555 1_555
H15 C12 1_555 1_555
H16 C12 1_555 1_555
C13 C12 1_555 1_555
H17 C13 1_555 1_555
H18 C13 1_555 1_555
H19 C13 1_555 1_555
C1 C6 1_555 1_555
C4 C5 1_555 1_555
N3 C10 1_555 1_555

#END
