
#######################################################################
#
#                 Cambridge Crystallographic Data Centre
#                                CCDC 
#
#######################################################################
#
# If this CIF has been generated from an entry in the Cambridge 
# Structural Database, then it will include bibliographic, chemical, 
# crystal, experimental, refinement or atomic coordinate data resulting 
# from the CCDC's data processing and validation procedures.
#
#######################################################################

data_UQAPUY
_chemical_formula_moiety         'C14 H9 Br1 N4 O2'
_chemical_name_systematic        
(Z)-N'-(7-Bromo-2-oxo-1,2-dihydro-3H-indol-3-ylidene)isonicotinohydrazide
_chemical_properties_biological  
'Herbicidal activity with some inhibition of acetohydroxyacid synthase (AHAS) both in vitro and in vivo'
_symmetry_cell_setting           triclinic
_symmetry_space_group_name_H-M   'P -1'
_symmetry_Int_Tables_number      2
_space_group_name_Hall           '-P 1'
loop_
_symmetry_equiv_pos_site_id
_symmetry_equiv_pos_as_xyz
1 x,y,z
2 -x,-y,-z
_cell_length_a                   6.6834(13)
_cell_length_b                   7.0727(14)
_cell_length_c                   14.285(3)
_cell_angle_alpha                95.56(3)
_cell_angle_beta                 99.00(3)
_cell_angle_gamma                102.95(3)
_cell_volume                     643.836
_exptl_crystal_colour            brown
_chemical_melting_point          '282-283 deg.C'
_cell_formula_units_Z            2
_exptl_crystal_recrystallization_method ethanol
loop_
_atom_site_label
_atom_site_type_symbol
_atom_site_fract_x
_atom_site_fract_y
_atom_site_fract_z
Br1 Br 0.62431(6) 0.93787(6) -0.28185(3)
O1 O 0.8998(4) 0.8662(4) 0.09379(18)
O2 O 0.3820(4) 0.5628(4) 0.28813(17)
N1 N 0.7291(5) 0.8718(4) -0.0597(2)
H1 H 0.842(6) 0.949(6) -0.077(3)
N2 N 0.4605(5) 0.6705(4) 0.1172(2)
N3 N 0.6116(5) 0.6949(5) 0.1958(2)
H2 H 0.732(7) 0.735(6) 0.192(3)
N4 N 1.0539(6) 0.7563(5) 0.5252(2)
C1 C 0.5204(6) 0.8128(5) -0.1089(2)
C2 C 0.4436(6) 0.8256(5) -0.2019(3)
C3 C 0.2296(6) 0.7583(5) -0.2363(3)
H3 H 0.1739 0.7680 -0.3005
C4 C 0.0976(6) 0.6770(5) -0.1769(3)
H4 H -0.0481 0.6322 -0.2008
C5 C 0.1758(6) 0.6604(5) -0.0831(3)
H5 H 0.0857 0.6034 -0.0428
C6 C 0.3887(6) 0.7289(5) -0.0495(2)
C7 C 0.5231(6) 0.7358(5) 0.0428(2)
C8 C 0.7399(6) 0.8314(5) 0.0313(2)
C9 C 0.5593(6) 0.6396(5) 0.2802(2)
C10 C 0.7393(6) 0.6819(5) 0.3627(2)
C11 C 0.6905(6) 0.6746(6) 0.4534(3)
H6 H 0.5493 0.6467 0.4621
C12 C 0.8528(7) 0.7090(6) 0.5311(3)
H7 H 0.8180 0.6981 0.5927
C13 C 1.0982(6) 0.7642(6) 0.4370(3)
H8 H 1.2410 0.7971 0.4308
C14 C 0.9479(6) 0.7272(6) 0.3544(3)
H9 H 0.9871 0.7328 0.2934
loop_
_geom_bond_atom_site_label_1
_geom_bond_atom_site_label_2
_geom_bond_site_symmetry_1
_geom_bond_site_symmetry_2
Br1 C2 1_555 1_555
O1 C8 1_555 1_555
O2 C9 1_555 1_555
N1 H1 1_555 1_555
N2 N3 1_555 1_555
N3 H2 1_555 1_555
N4 C12 1_555 1_555
C1 N1 1_555 1_555
C2 C1 1_555 1_555
C3 C2 1_555 1_555
H3 C3 1_555 1_555
C4 C3 1_555 1_555
H4 C4 1_555 1_555
C5 C4 1_555 1_555
H5 C5 1_555 1_555
C6 C1 1_555 1_555
C7 N2 1_555 1_555
C8 N1 1_555 1_555
C9 N3 1_555 1_555
C10 C9 1_555 1_555
C11 C10 1_555 1_555
H6 C11 1_555 1_555
C12 C11 1_555 1_555
H7 C12 1_555 1_555
C13 N4 1_555 1_555
H8 C13 1_555 1_555
C14 C10 1_555 1_555
H9 C14 1_555 1_555
C5 C6 1_555 1_555
C6 C7 1_555 1_555
C7 C8 1_555 1_555
C13 C14 1_555 1_555

#END
