
#######################################################################
#
#                 Cambridge Crystallographic Data Centre
#                                CCDC 
#
#######################################################################
#
# If this CIF has been generated from an entry in the Cambridge 
# Structural Database, then it will include bibliographic, chemical, 
# crystal, experimental, refinement or atomic coordinate data resulting 
# from the CCDC's data processing and validation procedures.
#
#######################################################################

data_UQAQEJ
_chemical_formula_moiety         'C29 H34 O6'
_chemical_name_systematic        
'(E)-Ethyl 2-(5-((3-methylbut-2-en-1-yl)oxy)-2-(3-(4-((3-methylbut-2-en-1-yl)oxy)phenyl)acryloyl)phenoxy)acetate'
_symmetry_cell_setting           monoclinic
_symmetry_space_group_name_H-M   'P 21/n'
_symmetry_Int_Tables_number      14
_space_group_name_Hall           '-P 2yn'
loop_
_symmetry_equiv_pos_site_id
_symmetry_equiv_pos_as_xyz
1 x,y,z
2 1/2-x,1/2+y,1/2-z
3 -x,-y,-z
4 1/2+x,1/2-y,1/2+z
_cell_length_a                   14.6832(14)
_cell_length_b                   7.7581(7)
_cell_length_c                   23.075(2)
_cell_angle_alpha                90
_cell_angle_beta                 101.670(2)
_cell_angle_gamma                90
_cell_volume                     2574.22
_exptl_crystal_colour            yellow
_exptl_crystal_description       needle
_chemical_melting_point          '77.3-78.2 deg.C'
_cell_formula_units_Z            4
_exptl_crystal_recrystallization_method methanol
loop_
_atom_site_label
_atom_site_type_symbol
_atom_site_fract_x
_atom_site_fract_y
_atom_site_fract_z
C1 C 0.86760(16) 0.4027(3) 0.00637(10)
C2 C 0.92610(15) 0.3220(3) -0.03209(9)
C3 C 0.89315(16) 0.3377(3) -0.09290(10)
H1 H 0.8382 0.3985 -0.1059
C4 C 0.93678(16) 0.2689(3) -0.13478(9)
H2 H 0.9121 0.2834 -0.1749
C5 C 1.01820(15) 0.1776(3) -0.11613(9)
C6 C 1.05478(15) 0.1591(3) -0.05626(9)
H3 H 1.1095 0.0972 -0.0439
C7 C 1.01054(14) 0.2319(3) -0.01473(8)
C8 C 0.88488(16) 0.3754(3) 0.07082(10)
H4 H 0.9328 0.3028 0.0887
C9 C 0.83257(16) 0.4535(3) 0.10385(10)
H5 H 0.7850 0.5225 0.0834
C10 C 0.83990(15) 0.4452(3) 0.16748(10)
C11 C 0.77846(16) 0.5369(3) 0.19407(10)
H6 H 0.7318 0.6009 0.1702
C12 C 0.78366(16) 0.5373(3) 0.25466(10)
H7 H 0.7416 0.6014 0.2710
C13 C 0.85183(16) 0.4419(3) 0.29051(10)
C14 C 0.91393(17) 0.3485(3) 0.26474(10)
H8 H 0.9600 0.2836 0.2887
C15 C 0.90862(17) 0.3501(3) 0.20492(10)
H9 H 0.9514 0.2870 0.1889
C16 C 0.80288(18) 0.5241(4) 0.38013(11)
H10 H 0.7389 0.4934 0.3636
H11 H 0.8102 0.6472 0.3753
C17 C 0.8270(2) 0.4773(4) 0.44368(12)
H12 H 0.8137 0.3648 0.4532
C18 C 0.86542(19) 0.5781(5) 0.48837(12)
C19 C 0.8860(3) 0.5102(5) 0.55049(13)
H13 H 0.8511 0.5744 0.5741
H14 H 0.9513 0.5219 0.5668
H15 H 0.8688 0.3908 0.5503
C20 C 0.8912(2) 0.7609(5) 0.48206(14)
H16 H 0.8775 0.7924 0.4410
H17 H 0.9565 0.7758 0.4976
H18 H 0.8563 0.8330 0.5035
C21 C 1.13621(15) 0.1460(3) 0.06266(9)
H19 H 1.1812 0.2039 0.0439
H20 H 1.1336 0.0256 0.0511
C22 C 1.16433(16) 0.1611(3) 0.12843(10)
C23 C 1.2830(2) 0.0769(5) 0.20832(11)
H21 H 1.2407 0.0205 0.2296
H22 H 1.2933 0.1940 0.2229
C24 C 1.3719(5) -0.0176(11) 0.2169(4)
H23 H 1.3618 -0.1284 0.1982
H24 H 1.3961 -0.0325 0.2585
H25 H 1.4156 0.0467 0.1997
C25 C 1.04814(16) 0.1490(3) -0.21440(9)
H26 H 1.1029 0.1277 -0.2308
H27 H 1.0353 0.2717 -0.2175
C26 C 0.96873(16) 0.0553(3) -0.25009(9)
H28 H 0.9300 -0.0045 -0.2298
C27 C 0.94846(17) 0.0494(3) -0.30791(10)
C28 C 0.8644(2) -0.0431(5) -0.34235(14)
H29 H 0.8318 -0.0983 -0.3154
H30 H 0.8839 -0.1283 -0.3674
H31 H 0.8240 0.0384 -0.3662
C29 C 1.0082(3) 0.1342(6) -0.34518(13)
H32 H 1.0666 0.1665 -0.3207
H33 H 0.9773 0.2352 -0.3636
H34 H 1.0189 0.0553 -0.3751
O1 O 0.80189(12) 0.4938(2) -0.01704(7)
O2 O 1.06806(11) 0.1015(2) -0.15288(6)
O3 O 0.86483(11) 0.4308(2) 0.35061(7)
O4 O 1.04757(10) 0.22310(19) 0.04475(6)
O5 O 1.12404(13) 0.2330(3) 0.16081(7)
O6 O 1.24446(12) 0.0775(2) 0.14582(6)
loop_
_geom_bond_atom_site_label_1
_geom_bond_atom_site_label_2
_geom_bond_site_symmetry_1
_geom_bond_site_symmetry_2
C1 C2 1_555 1_555
C2 C3 1_555 1_555
C3 H1 1_555 1_555
C4 C3 1_555 1_555
H2 C4 1_555 1_555
C5 C4 1_555 1_555
C6 C5 1_555 1_555
H3 C6 1_555 1_555
C7 C2 1_555 1_555
C8 C1 1_555 1_555
H4 C8 1_555 1_555
C9 C8 1_555 1_555
H5 C9 1_555 1_555
C10 C9 1_555 1_555
C11 C10 1_555 1_555
H6 C11 1_555 1_555
C12 C11 1_555 1_555
H7 C12 1_555 1_555
C13 C12 1_555 1_555
C14 C13 1_555 1_555
H8 C14 1_555 1_555
C15 C10 1_555 1_555
H9 C15 1_555 1_555
C16 H10 1_555 1_555
H11 C16 1_555 1_555
C17 C16 1_555 1_555
H12 C17 1_555 1_555
C18 C17 1_555 1_555
C19 C18 1_555 1_555
H13 C19 1_555 1_555
H14 C19 1_555 1_555
H15 C19 1_555 1_555
C20 C18 1_555 1_555
H16 C20 1_555 1_555
H17 C20 1_555 1_555
H18 C20 1_555 1_555
C21 H19 1_555 1_555
H20 C21 1_555 1_555
C22 C21 1_555 1_555
C23 H21 1_555 1_555
H22 C23 1_555 1_555
C24 C23 1_555 1_555
H23 C24 1_555 1_555
H24 C24 1_555 1_555
H25 C24 1_555 1_555
C25 H26 1_555 1_555
H27 C25 1_555 1_555
C26 C25 1_555 1_555
H28 C26 1_555 1_555
C27 C26 1_555 1_555
C28 C27 1_555 1_555
H29 C28 1_555 1_555
H30 C28 1_555 1_555
H31 C28 1_555 1_555
C29 C27 1_555 1_555
H32 C29 1_555 1_555
H33 C29 1_555 1_555
H34 C29 1_555 1_555
O1 C1 1_555 1_555
O2 C5 1_555 1_555
O3 C13 1_555 1_555
O4 C7 1_555 1_555
O5 C22 1_555 1_555
O6 C22 1_555 1_555
C6 C7 1_555 1_555
C14 C15 1_555 1_555
C16 O3 1_555 1_555
C21 O4 1_555 1_555
C23 O6 1_555 1_555
C25 O2 1_555 1_555

#END
