
#######################################################################
#
#                 Cambridge Crystallographic Data Centre
#                                CCDC 
#
#######################################################################
#
# If this CIF has been generated from an entry in the Cambridge 
# Structural Database, then it will include bibliographic, chemical, 
# crystal, experimental, refinement or atomic coordinate data resulting 
# from the CCDC's data processing and validation procedures.
#
#######################################################################

data_UQASAI
_chemical_formula_moiety         'C30 H33 N1 O4 S1'
_chemical_name_systematic        
3-(8,9-dimethyl-5-methylene-2,15-dioxatetracyclo[10.2.1.0^4,13^.0^8,13^]pentadec-3-yl)-1-(phenylsulfonyl)-1H-indole
_symmetry_cell_setting           orthorhombic
_symmetry_space_group_name_H-M   'P 21 21 21'
_symmetry_Int_Tables_number      19
_space_group_name_Hall           'P 2ac 2ab'
loop_
_symmetry_equiv_pos_site_id
_symmetry_equiv_pos_as_xyz
1 x,y,z
2 1/2-x,-y,1/2+z
3 -x,1/2+y,1/2-z
4 1/2+x,1/2-y,-z
_cell_length_a                   8.9538(7)
_cell_length_b                   22.0679(17)
_cell_length_c                   26.333(2)
_cell_angle_alpha                90
_cell_angle_beta                 90
_cell_angle_gamma                90
_cell_volume                     5203.18
_exptl_crystal_colour            colorless
_exptl_crystal_description       prismatic
_cell_formula_units_Z            8
loop_
_atom_site_label
_atom_site_type_symbol
_atom_site_fract_x
_atom_site_fract_y
_atom_site_fract_z
S1 S 0.97179(9) 0.40158(4) 0.95231(3)
N1 N 0.8127(3) 0.41745(11) 0.98149(9)
O1 O 0.6249(3) 0.57910(9) 1.02166(8)
O2 O 0.4277(3) 0.62128(11) 1.06804(9)
O3 O 1.0698(2) 0.45033(11) 0.96435(9)
O4 O 1.0078(3) 0.34109(10) 0.96545(9)
C1 C 0.6847(4) 0.38020(12) 0.98170(11)
C2 C 0.6714(4) 0.31793(14) 0.97774(13)
H1 H 0.7546 0.2933 0.9730
C3 C 0.5311(5) 0.29404(14) 0.98101(13)
H2 H 0.5189 0.2523 0.9783
C4 C 0.4051(4) 0.33045(15) 0.98828(14)
H3 H 0.3108 0.3129 0.9900
C5 C 0.4204(4) 0.39194(15) 0.99292(13)
H4 H 0.3370 0.4162 0.9983
C6 C 0.5616(3) 0.41771(13) 0.98945(11)
C7 C 0.6150(4) 0.47913(12) 0.99276(11)
C8 C 0.7629(4) 0.47744(13) 0.98728(11)
H5 H 0.8247 0.5113 0.9873
C9 C 0.5228(4) 0.53350(12) 1.00520(11)
H6 H 0.4628 0.5226 1.0350
C10 C 0.5469(5) 0.63310(14) 1.03519(14)
H7 H 0.6160 0.6617 1.0512
C11 C 0.4792(4) 0.66138(13) 0.98891(14)
H8 H 0.5465 0.6600 0.9600
H9 H 0.4486 0.7029 0.9950
C12 C 0.3459(4) 0.61929(12) 0.98206(12)
C13 C 0.4114(3) 0.55675(12) 0.96454(11)
H10 H 0.3274 0.5283 0.9650
C14 C 0.4628(5) 0.55980(19) 0.91006(13)
C15 C 0.3926(8) 0.6124(3) 0.8781(2)
H11 H 0.3982 0.6039 0.8420
H12 H 0.4422 0.6506 0.8850
C16 C 0.224(2) 0.6135(10) 0.8972(7)
H13 H 0.1628 0.6355 0.8731
H14 H 0.1863 0.5724 0.8995
C17 C 0.2157(4) 0.64237(13) 0.94655(14)
C18 C 0.0664(4) 0.62091(15) 0.96882(16)
H15 H 0.0752 0.5770 0.9734
C19 C 0.0348(5) 0.64733(18) 1.02111(18)
H16 H -0.0333 0.6205 1.0389
H17 H -0.0150 0.6861 1.0170
C20 C 0.1746(5) 0.65655(17) 1.05389(17)
H18 H 0.2106 0.6978 1.0501
H19 H 0.1501 0.6501 1.0894
C21 C 0.2947(4) 0.61255(15) 1.03778(13)
H20 H 0.2582 0.5712 1.0430
C22 C 0.5885(12) 0.5510(5) 0.8906(5)
H21 H 0.6094 0.5143 0.8747
H22 H 0.6610 0.5812 0.8920
C23 C 0.2150(5) 0.71219(14) 0.94146(16)
H23 H 0.1337 0.7244 0.9200
H24 H 0.3076 0.7254 0.9268
H25 H 0.2033 0.7301 0.9744
C24 C -0.0706(5) 0.63120(19) 0.9352(2)
H26 H -0.1586 0.6178 0.9528
H27 H -0.0597 0.6087 0.9042
H28 H -0.0795 0.6736 0.9275
C25 C 0.9293(4) 0.40461(14) 0.88725(12)
C26 C 0.8869(5) 0.35318(18) 0.86269(16)
H29 H 0.8816 0.3165 0.8799
C27 C 0.8518(6) 0.3565(2) 0.81155(18)
H30 H 0.8225 0.3219 0.7941
C28 C 0.8604(6) 0.4107(2) 0.78696(16)
H31 H 0.8355 0.4129 0.7527
C29 C 0.9045(6) 0.4609(2) 0.81168(16)
H32 H 0.9123 0.4974 0.7942
C30 C 0.9383(4) 0.45885(16) 0.86249(14)
H33 H 0.9667 0.4938 0.8798
S2 S -0.28649(11) 0.73359(5) 0.78676(4)
N2 N -0.1119(3) 0.70901(14) 0.79203(11)
O5 O 0.0720(3) 0.55980(10) 0.72735(10)
O6 O 0.2662(4) 0.49078(11) 0.73844(12)
O7 O -0.3739(3) 0.68014(13) 0.77871(12)
O8 O -0.3139(3) 0.77152(14) 0.82915(11)
C34 C 0.0146(4) 0.74580(15) 0.80107(11)
C35 C 0.0261(4) 0.80055(17) 0.82614(12)
H40 H -0.0576 0.8203 0.8389
C36 C 0.1661(4) 0.82428(17) 0.83130(14)
H41 H 0.1778 0.8617 0.8471
C37 C 0.2918(5) 0.79397(17) 0.81347(14)
H42 H 0.3858 0.8109 0.8182
C38 C 0.2786(4) 0.73894(16) 0.78879(13)
H43 H 0.3630 0.7189 0.7769
C39 C 0.1377(4) 0.71395(15) 0.78202(12)
C40 C 0.0849(4) 0.65832(15) 0.76002(12)
C41 C -0.0640(4) 0.65706(16) 0.76606(14)
H44 H -0.1263 0.6262 0.7547
C42 C 0.1756(4) 0.60712(15) 0.73937(12)
H45 H 0.2368 0.5921 0.7675
C43 C 0.1447(5) 0.50808(17) 0.70756(17)
H46 H 0.0737 0.4745 0.7045
C44 C 0.2122(5) 0.52211(16) 0.65656(15)
H47 H 0.1455 0.5460 0.6355
H48 H 0.2413 0.4857 0.6385
C45 C 0.3477(4) 0.55876(14) 0.67428(12)
C46 C 0.2842(3) 0.61972(13) 0.69472(11)
H49 H 0.3692 0.6417 0.7093
C47 C 0.2295(4) 0.65744(16) 0.65109(14)
C48 C 0.3707(11) 0.6776(4) 0.6236(3)
H50 H 0.3469 0.7065 0.5970
H51 H 0.4400 0.6964 0.6472
C49 C 0.435(2) 0.6221(9) 0.6020(8)
H52 H 0.5245 0.6341 0.5840
H53 H 0.3648 0.6079 0.5766
C50 C 0.4766(4) 0.56723(14) 0.63414(12)
C51 C 0.6276(4) 0.56765(17) 0.66253(14)
H54 H 0.6191 0.5980 0.6895
C52 C 0.6586(5) 0.50740(19) 0.68839(18)
H55 H 0.7274 0.5143 0.7163
H56 H 0.7078 0.4808 0.6643
C53 C 0.5211(5) 0.47518(18) 0.70892(16)
H57 H 0.5468 0.4536 0.7398
H58 H 0.4859 0.4459 0.6842
C54 C 0.3981(4) 0.52084(16) 0.72009(14)
H59 H 0.4336 0.5485 0.7466
C55 C 0.0998(5) 0.68124(18) 0.64409(14)
H60 H 0.0250 0.6758 0.6682
H61 H 0.0810 0.7038 0.6150
C56 C 0.4770(5) 0.51710(19) 0.59369(14)
H62 H 0.3869 0.5194 0.5740
H63 H 0.4826 0.4783 0.6100
H64 H 0.5617 0.5223 0.5718
C57 C 0.7621(5) 0.5857(2) 0.63018(16)
H65 H 0.8500 0.5867 0.6510
H66 H 0.7453 0.6251 0.6158
H67 H 0.7754 0.5567 0.6034
C58 C -0.2882(4) 0.77803(16) 0.73175(15)
C59 C -0.2951(6) 0.8395(2) 0.73426(19)
H68 H -0.2974 0.8588 0.7656
C60 C -0.2988(6) 0.8726(2) 0.6906(2)
H69 H -0.3038 0.9147 0.6923
C61 C -0.2951(6) 0.8451(2) 0.64474(19)
H70 H -0.3002 0.8682 0.6152
C62 C -0.2840(6) 0.7834(2) 0.64164(19)
H71 H -0.2791 0.7645 0.6101
C63 C -0.2801(5) 0.74935(19) 0.68553(17)
H72 H -0.2721 0.7074 0.6839
C31? C 0.3000(16) 0.5566(6) 0.8813(4)
H34? H 0.3098 0.5459 0.8457
H35? H 0.2321 0.5287 0.8979
C32? C 0.253(3) 0.6219(11) 0.8883(8)
H36? H 0.1648 0.6291 0.8677
H37? H 0.3318 0.6478 0.8754
C33? C 0.5490(13) 0.5235(5) 0.8859(5)
H38? H 0.6456 0.5354 0.8776
H39? H 0.5150 0.4853 0.8766
C64? C 0.3071(10) 0.6448(4) 0.5974(3)
H73? H 0.2630 0.6098 0.5809
H74? H 0.2973 0.6797 0.5752
C65? C 0.476(3) 0.6328(11) 0.6109(10)
H75? H 0.5382 0.6347 0.5808
H76? H 0.5123 0.6622 0.6354
loop_
_geom_bond_atom_site_label_1
_geom_bond_atom_site_label_2
_geom_bond_site_symmetry_1
_geom_bond_site_symmetry_2
S1 N1 1_555 1_555
N1 C1 1_555 1_555
O1 C9 1_555 1_555
O2 C10 1_555 1_555
O3 S1 1_555 1_555
O4 S1 1_555 1_555
C1 C2 1_555 1_555
C2 H1 1_555 1_555
C3 C2 1_555 1_555
H2 C3 1_555 1_555
C4 C3 1_555 1_555
H3 C4 1_555 1_555
C5 C4 1_555 1_555
H4 C5 1_555 1_555
C6 C1 1_555 1_555
C7 C6 1_555 1_555
C8 N1 1_555 1_555
H5 C8 1_555 1_555
C9 C7 1_555 1_555
H6 C9 1_555 1_555
C10 O1 1_555 1_555
H7 C10 1_555 1_555
C11 C10 1_555 1_555
H8 C11 1_555 1_555
H9 C11 1_555 1_555
C12 C11 1_555 1_555
C13 C9 1_555 1_555
H10 C13 1_555 1_555
C14 C13 1_555 1_555
C15 C14 1_555 1_555
H11 C15 1_555 1_555
H12 C15 1_555 1_555
C16 C15 1_555 1_555
H13 C16 1_555 1_555
H14 C16 1_555 1_555
C17 C12 1_555 1_555
C18 C17 1_555 1_555
H15 C18 1_555 1_555
C19 C18 1_555 1_555
H16 C19 1_555 1_555
H17 C19 1_555 1_555
C20 C19 1_555 1_555
H18 C20 1_555 1_555
H19 C20 1_555 1_555
C21 O2 1_555 1_555
H20 C21 1_555 1_555
C22 C14 1_555 1_555
H21 C22 1_555 1_555
H22 C22 1_555 1_555
C23 C17 1_555 1_555
H23 C23 1_555 1_555
H24 C23 1_555 1_555
H25 C23 1_555 1_555
C24 C18 1_555 1_555
H26 C24 1_555 1_555
H27 C24 1_555 1_555
H28 C24 1_555 1_555
C25 S1 1_555 1_555
C26 C25 1_555 1_555
H29 C26 1_555 1_555
C27 C26 1_555 1_555
H30 C27 1_555 1_555
C28 C27 1_555 1_555
H31 C28 1_555 1_555
C29 C28 1_555 1_555
H32 C29 1_555 1_555
C30 C25 1_555 1_555
H33 C30 1_555 1_555
S2 N2 1_555 1_555
N2 C34 1_555 1_555
O5 C42 1_555 1_555
O6 C43 1_555 1_555
O7 S2 1_555 1_555
O8 S2 1_555 1_555
C34 C35 1_555 1_555
C35 H40 1_555 1_555
C36 C35 1_555 1_555
H41 C36 1_555 1_555
C37 C36 1_555 1_555
H42 C37 1_555 1_555
C38 C37 1_555 1_555
H43 C38 1_555 1_555
C39 C34 1_555 1_555
C40 C39 1_555 1_555
C41 N2 1_555 1_555
H44 C41 1_555 1_555
C42 C40 1_555 1_555
H45 C42 1_555 1_555
C43 O5 1_555 1_555
H46 C43 1_555 1_555
C44 C43 1_555 1_555
H47 C44 1_555 1_555
H48 C44 1_555 1_555
C45 C44 1_555 1_555
C46 C42 1_555 1_555
H49 C46 1_555 1_555
C47 C46 1_555 1_555
C48 C47 1_555 1_555
H50 C48 1_555 1_555
H51 C48 1_555 1_555
C49 C48 1_555 1_555
H52 C49 1_555 1_555
H53 C49 1_555 1_555
C50 C45 1_555 1_555
C51 C50 1_555 1_555
H54 C51 1_555 1_555
C52 C51 1_555 1_555
H55 C52 1_555 1_555
H56 C52 1_555 1_555
C53 C52 1_555 1_555
H57 C53 1_555 1_555
H58 C53 1_555 1_555
C54 O6 1_555 1_555
H59 C54 1_555 1_555
C55 C47 1_555 1_555
H60 C55 1_555 1_555
H61 C55 1_555 1_555
C56 C50 1_555 1_555
H62 C56 1_555 1_555
H63 C56 1_555 1_555
H64 C56 1_555 1_555
C57 C51 1_555 1_555
H65 C57 1_555 1_555
H66 C57 1_555 1_555
H67 C57 1_555 1_555
C58 S2 1_555 1_555
C59 C58 1_555 1_555
H68 C59 1_555 1_555
C60 C59 1_555 1_555
H69 C60 1_555 1_555
C61 C60 1_555 1_555
H70 C61 1_555 1_555
C62 C61 1_555 1_555
H71 C62 1_555 1_555
C63 C58 1_555 1_555
H72 C63 1_555 1_555
C5 C6 1_555 1_555
C7 C8 1_555 1_555
C12 C13 1_555 1_555
C12 C21 1_555 1_555
C16 C17 1_555 1_555
C20 C21 1_555 1_555
C29 C30 1_555 1_555
C38 C39 1_555 1_555
C40 C41 1_555 1_555
C45 C46 1_555 1_555
C45 C54 1_555 1_555
C49 C50 1_555 1_555
C53 C54 1_555 1_555
C62 C63 1_555 1_555

#END
