
#######################################################################
#
#                 Cambridge Crystallographic Data Centre
#                                CCDC 
#
#######################################################################
#
# If this CIF has been generated from an entry in the Cambridge 
# Structural Database, then it will include bibliographic, chemical, 
# crystal, experimental, refinement or atomic coordinate data resulting 
# from the CCDC's data processing and validation procedures.
#
#######################################################################

data_UQASOW
_chemical_formula_moiety         'C15 H16 N2 O1 S1'
_chemical_name_systematic        
N-(dimethyl(oxido)sulfanylidene)-N'-phenylbenzenecarboximidamide
_symmetry_cell_setting           orthorhombic
_symmetry_space_group_name_H-M   'P n a 21'
_symmetry_Int_Tables_number      33
_space_group_name_Hall           'P 2c -2n'
loop_
_symmetry_equiv_pos_site_id
_symmetry_equiv_pos_as_xyz
1 x,y,z
2 -x,-y,1/2+z
3 1/2+x,1/2-y,z
4 1/2-x,1/2+y,1/2+z
_cell_length_a                   25.0228(14)
_cell_length_b                   8.3677(4)
_cell_length_c                   6.5763(4)
_cell_angle_alpha                90
_cell_angle_beta                 90
_cell_angle_gamma                90
_cell_volume                     1376.97
_exptl_crystal_colour            colorless
_exptl_crystal_description       block
_cell_formula_units_Z            4
loop_
_atom_site_label
_atom_site_type_symbol
_atom_site_fract_x
_atom_site_fract_y
_atom_site_fract_z
C1 C 0.07064(7) 0.4336(2) 0.7724(3)
H1 H 0.0609 0.4595 0.9080
C2 C 0.03220(7) 0.3801(2) 0.6372(3)
H2 H -0.0038 0.3695 0.6814
C3 C 0.04536(8) 0.3415(2) 0.4382(3)
H3 H 0.0186 0.3059 0.3464
C4 C 0.09817(8) 0.3555(2) 0.3745(3)
H4 H 0.1077 0.3291 0.2387
C5 C 0.13702(8) 0.4082(2) 0.5101(3)
H5 H 0.1731 0.4162 0.4661
C6 C 0.12403(7) 0.4498(2) 0.7097(3)
C7 C 0.16427(6) 0.6147(2) 0.9597(3)
C8 C 0.12424(6) 0.74835(19) 0.9500(3)
C9 C 0.10737(7) 0.8098(2) 0.7642(3)
H6 H 0.1187 0.7609 0.6411
C10 C 0.07373(8) 0.9434(2) 0.7583(3)
H7 H 0.0626 0.9859 0.6313
C11 C 0.05669(8) 1.0136(2) 0.9377(4)
H8 H 0.0342 1.1050 0.9336
C12 C 0.07236(7) 0.9508(2) 1.1229(3)
H9 H 0.0598 0.9972 1.2457
C13 C 0.10650(6) 0.82002(19) 1.1295(3)
H10 H 0.1179 0.7790 1.2571
C14 C 0.28679(7) 0.6139(2) 1.3275(3)
H11 H 0.2647 0.6243 1.4498
H12 H 0.2984 0.7201 1.2825
H13 H 0.3182 0.5483 1.3583
C15 C 0.29182(7) 0.5239(2) 0.9168(3)
H14 H 0.3280 0.4923 0.9570
H15 H 0.2927 0.6317 0.8586
H16 H 0.2781 0.4486 0.8153
N1 N 0.16590(6) 0.49117(17) 0.8434(3)
N2 N 0.20209(5) 0.64272(16) 1.1091(2)
O1 O 0.23967(5) 0.35701(15) 1.1888(2)
S1 S 0.249397(14) 0.52240(4) 1.13370(9)
loop_
_geom_bond_atom_site_label_1
_geom_bond_atom_site_label_2
_geom_bond_site_symmetry_1
_geom_bond_site_symmetry_2
C1 H1 1_555 1_555
C2 C1 1_555 1_555
H2 C2 1_555 1_555
C3 C2 1_555 1_555
H3 C3 1_555 1_555
C4 C3 1_555 1_555
H4 C4 1_555 1_555
C5 C4 1_555 1_555
H5 C5 1_555 1_555
C6 C1 1_555 1_555
C7 C8 1_555 1_555
C8 C9 1_555 1_555
C9 H6 1_555 1_555
C10 C9 1_555 1_555
H7 C10 1_555 1_555
C11 C10 1_555 1_555
H8 C11 1_555 1_555
C12 C11 1_555 1_555
H9 C12 1_555 1_555
C13 C8 1_555 1_555
H10 C13 1_555 1_555
C14 H11 1_555 1_555
H12 C14 1_555 1_555
H13 C14 1_555 1_555
C15 H14 1_555 1_555
H15 C15 1_555 1_555
H16 C15 1_555 1_555
N1 C6 1_555 1_555
N2 C7 1_555 1_555
O1 S1 1_555 1_555
S1 C14 1_555 1_555
C5 C6 1_555 1_555
C7 N1 1_555 1_555
C12 C13 1_555 1_555
C15 S1 1_555 1_555
N2 S1 1_555 1_555

#END
