
#######################################################################
#
#                 Cambridge Crystallographic Data Centre
#                                CCDC 
#
#######################################################################
#
# If this CIF has been generated from an entry in the Cambridge 
# Structural Database, then it will include bibliographic, chemical, 
# crystal, experimental, refinement or atomic coordinate data resulting 
# from the CCDC's data processing and validation procedures.
#
#######################################################################

data_UQATAJ
_chemical_formula_moiety         'C27 H26 N2'
_chemical_name_systematic        
2,5,5-triphenyl-4,5,5a,6,7,8,8a,8b-octahydroimidazo[4,5,1-hi]indole
_symmetry_cell_setting           monoclinic
_symmetry_space_group_name_H-M   'P 21/c'
_symmetry_Int_Tables_number      14
_space_group_name_Hall           '-P 2ybc'
loop_
_symmetry_equiv_pos_site_id
_symmetry_equiv_pos_as_xyz
1 x,y,z
2 -x,1/2+y,1/2-z
3 -x,-y,-z
4 x,1/2-y,1/2+z
_cell_length_a                   9.8508(3)
_cell_length_b                   19.2961(6)
_cell_length_c                   10.3465(3)
_cell_angle_alpha                90
_cell_angle_beta                 101.1190(10)
_cell_angle_gamma                90
_cell_volume                     1929.77
_exptl_crystal_colour            colorless
_exptl_crystal_description       block
_cell_formula_units_Z            4
loop_
_atom_site_label
_atom_site_type_symbol
_atom_site_fract_x
_atom_site_fract_y
_atom_site_fract_z
C1 C 0.30880(13) 0.08796(7) 0.46636(12)
H1 H 0.2470 0.1079 0.3941
C2 C 0.28649(14) 0.02093(7) 0.50697(13)
H2 H 0.2104 -0.0052 0.4612
C3 C 0.37506(15) -0.00803(7) 0.61423(12)
H3 H 0.3592 -0.0537 0.6421
C4 C 0.48691(15) 0.03005(7) 0.68062(12)
H4 H 0.5466 0.0106 0.7548
C5 C 0.51156(13) 0.09640(7) 0.63881(12)
H5 H 0.5894 0.1218 0.6830
C6 C 0.42197(13) 0.12587(6) 0.53170(11)
C7 C 0.45119(12) 0.19492(6) 0.48159(11)
C8 C 0.56024(13) 0.28475(6) 0.41317(12)
H6 H 0.5898 0.2778 0.3269
C9 C 0.64836(13) 0.34276(7) 0.48642(12)
H7 H 0.6503 0.3819 0.4249
H8 H 0.7444 0.3257 0.5139
C10 C 0.59807(14) 0.36982(8) 0.60844(13)
H9 H 0.6134 0.4205 0.6146
H10 H 0.6550 0.3485 0.6878
C11 C 0.44505(13) 0.35513(7) 0.60911(11)
H11 H 0.4105 0.3901 0.6648
H12 H 0.4371 0.3091 0.6492
C12 C 0.35318(12) 0.35642(6) 0.47067(11)
H13 H 0.3526 0.4035 0.4300
C13 C 0.40350(12) 0.30136(6) 0.38418(11)
H14 H 0.3708 0.3122 0.2887
C14 C 0.22786(12) 0.25181(6) 0.49305(11)
H15 H 0.2568 0.2406 0.5877
H16 H 0.1431 0.2253 0.4566
C15 C 0.20323(12) 0.33115(6) 0.47249(11)
C16 C 0.13751(12) 0.36641(6) 0.57749(11)
C17 C 0.14003(13) 0.43875(7) 0.58602(11)
H17 H 0.1919 0.4645 0.5341
C18 C 0.06795(14) 0.47378(7) 0.66917(12)
H18 H 0.0719 0.5229 0.6747
C19 C -0.00987(14) 0.43662(7) 0.74414(12)
H19 H -0.0614 0.4603 0.7992
C20 C -0.01187(13) 0.36491(7) 0.73817(12)
H20 H -0.0642 0.3394 0.7901
C21 C 0.06236(12) 0.32977(7) 0.65640(11)
H21 H 0.0617 0.2805 0.6544
C22 C 0.09936(12) 0.34156(6) 0.34140(11)
C23 C 0.12641(13) 0.37923(6) 0.23405(11)
H22 H 0.2137 0.4011 0.2393
C24 C 0.02585(13) 0.38510(7) 0.11856(11)
H23 H 0.0458 0.4110 0.0464
C25 C -0.10208(13) 0.35363(7) 0.10823(12)
H24 H -0.1690 0.3570 0.0290
C26 C -0.13135(13) 0.31693(7) 0.21574(12)
H25 H -0.2192 0.2956 0.2105
C27 C -0.03218(13) 0.31157(6) 0.33026(11)
H26 H -0.0539 0.2869 0.4032
N1 N 0.34012(10) 0.23618(5) 0.42009(9)
N2 N 0.57426(11) 0.21757(6) 0.48361(10)
loop_
_geom_bond_atom_site_label_1
_geom_bond_atom_site_label_2
_geom_bond_site_symmetry_1
_geom_bond_site_symmetry_2
C1 H1 1_555 1_555
C2 C1 1_555 1_555
H2 C2 1_555 1_555
C3 C2 1_555 1_555
H3 C3 1_555 1_555
C4 C3 1_555 1_555
H4 C4 1_555 1_555
C5 C4 1_555 1_555
H5 C5 1_555 1_555
C6 C1 1_555 1_555
C7 C6 1_555 1_555
C8 H6 1_555 1_555
C9 C8 1_555 1_555
H7 C9 1_555 1_555
H8 C9 1_555 1_555
C10 C9 1_555 1_555
H9 C10 1_555 1_555
H10 C10 1_555 1_555
C11 C10 1_555 1_555
H11 C11 1_555 1_555
H12 C11 1_555 1_555
C12 C11 1_555 1_555
H13 C12 1_555 1_555
C13 C8 1_555 1_555
H14 C13 1_555 1_555
C14 H15 1_555 1_555
H16 C14 1_555 1_555
C15 C12 1_555 1_555
C16 C15 1_555 1_555
C17 C16 1_555 1_555
H17 C17 1_555 1_555
C18 C17 1_555 1_555
H18 C18 1_555 1_555
C19 C18 1_555 1_555
H19 C19 1_555 1_555
C20 C19 1_555 1_555
H20 C20 1_555 1_555
C21 C16 1_555 1_555
H21 C21 1_555 1_555
C22 C15 1_555 1_555
C23 C22 1_555 1_555
H22 C23 1_555 1_555
C24 C23 1_555 1_555
H23 C24 1_555 1_555
C25 C24 1_555 1_555
H24 C25 1_555 1_555
C26 C25 1_555 1_555
H25 C26 1_555 1_555
C27 C22 1_555 1_555
H26 C27 1_555 1_555
N1 C7 1_555 1_555
N2 C7 1_555 1_555
C5 C6 1_555 1_555
C8 N2 1_555 1_555
C12 C13 1_555 1_555
C13 N1 1_555 1_555
C14 C15 1_555 1_555
C14 N1 1_555 1_555
C20 C21 1_555 1_555
C26 C27 1_555 1_555

#END
