
#######################################################################
#
#                 Cambridge Crystallographic Data Centre
#                                CCDC 
#
#######################################################################
#
# If this CIF has been generated from an entry in the Cambridge 
# Structural Database, then it will include bibliographic, chemical, 
# crystal, experimental, refinement or atomic coordinate data resulting 
# from the CCDC's data processing and validation procedures.
#
#######################################################################

data_UQATIR
_chemical_formula_moiety         'C30 H26 N2'
_chemical_name_systematic        
(1S*,7aS*)-1,3,6,6-tetraphenyl-5,6,7,7a-tetrahydro-1H-pyrrolo[1,2-c]imidazole
_symmetry_cell_setting           triclinic
_symmetry_space_group_name_H-M   'P -1'
_symmetry_Int_Tables_number      2
_space_group_name_Hall           '-P 1'
loop_
_symmetry_equiv_pos_site_id
_symmetry_equiv_pos_as_xyz
1 x,y,z
2 -x,-y,-z
_cell_length_a                   10.2686(6)
_cell_length_b                   10.9392(7)
_cell_length_c                   11.3165(6)
_cell_angle_alpha                97.2560(10)
_cell_angle_beta                 116.1950(10)
_cell_angle_gamma                102.4620(10)
_cell_volume                     1077.56
_exptl_crystal_colour            colorless
_exptl_crystal_description       block
_cell_formula_units_Z            2
loop_
_atom_site_label
_atom_site_type_symbol
_atom_site_fract_x
_atom_site_fract_y
_atom_site_fract_z
C1 C 0.20740(15) 0.81867(12) 0.10106(12)
H1 H 0.2032 0.8610 0.0276
H2 H 0.1052 0.7587 0.0713
C2 C 0.26310(14) 0.91866(12) 0.23340(12)
H3 H 0.3414 0.9978 0.2440
C3 C 0.13795(15) 0.95492(12) 0.25937(13)
H4 H 0.0378 0.9146 0.1745
C4 C 0.23704(15) 0.83641(12) 0.40169(12)
C5 C 0.35334(15) 0.73361(12) 0.28165(13)
H5 H 0.2790 0.6542 0.2738
H6 H 0.4576 0.7300 0.3388
C6 C 0.32851(14) 0.74700(11) 0.13920(12)
C7 C 0.47323(15) 0.82927(12) 0.14441(13)
C8 C 0.59982(16) 0.90696(13) 0.26572(13)
H7 H 0.5966 0.9119 0.3488
C9 C 0.73048(16) 0.97721(13) 0.26651(14)
H8 H 0.8164 1.0284 0.3501
C10 C 0.73581(16) 0.97282(13) 0.14549(15)
H9 H 0.8256 1.0198 0.1461
C11 C 0.60917(16) 0.89937(13) 0.02385(14)
H10 H 0.6112 0.8975 -0.0595
C12 C 0.47934(15) 0.82860(12) 0.02358(13)
H11 H 0.3931 0.7788 -0.0604
C13 C 0.27508(15) 0.61254(12) 0.04563(13)
C14 C 0.13387(16) 0.56276(13) -0.07154(13)
H12 H 0.0662 0.6135 -0.0960
C15 C 0.09078(17) 0.43919(13) -0.15330(14)
H13 H -0.0060 0.4066 -0.2330
C16 C 0.18712(17) 0.36361(13) -0.11972(15)
H14 H 0.1569 0.2792 -0.1753
C17 C 0.32901(17) 0.41271(13) -0.00348(15)
H15 H 0.3965 0.3618 0.0204
C18 C 0.37232(16) 0.53598(12) 0.07791(14)
H16 H 0.4697 0.5687 0.1568
C19 C 0.16285(14) 1.09956(12) 0.29565(13)
C20 C 0.16801(16) 1.17141(13) 0.20365(14)
H17 H 0.1540 1.1290 0.1184
C21 C 0.19346(17) 1.30460(14) 0.23518(16)
H18 H 0.1952 1.3523 0.1711
C22 C 0.21620(17) 1.36748(13) 0.36021(16)
H19 H 0.2366 1.4587 0.3832
C23 C 0.20896(17) 1.29656(14) 0.45145(15)
H20 H 0.2232 1.3392 0.5367
C24 C 0.18096(15) 1.16320(13) 0.41882(14)
H21 H 0.1742 1.1152 0.4813
C25 C 0.26049(15) 0.75894(12) 0.50321(12)
C26 C 0.13944(16) 0.70675(12) 0.52608(13)
H22 H 0.0444 0.7217 0.4768
C27 C 0.15723(16) 0.63324(13) 0.62021(13)
H23 H 0.0747 0.5985 0.6357
C28 C 0.29555(16) 0.61031(13) 0.69185(13)
H24 H 0.3074 0.5590 0.7555
C29 C 0.41635(16) 0.66256(13) 0.67030(13)
H25 H 0.5113 0.6474 0.7199
C30 C 0.39966(15) 0.73676(13) 0.57679(13)
H26 H 0.4831 0.7725 0.5629
N1 N 0.13335(13) 0.89343(10) 0.36641(11)
N2 N 0.33030(12) 0.85054(10) 0.34097(10)
loop_
_geom_bond_atom_site_label_1
_geom_bond_atom_site_label_2
_geom_bond_site_symmetry_1
_geom_bond_site_symmetry_2
C1 H1 1_555 1_555
H2 C1 1_555 1_555
C2 C1 1_555 1_555
H3 C2 1_555 1_555
C3 C2 1_555 1_555
H4 C3 1_555 1_555
C4 C25 1_555 1_555
C5 H5 1_555 1_555
H6 C5 1_555 1_555
C6 C1 1_555 1_555
C7 C6 1_555 1_555
C8 C7 1_555 1_555
H7 C8 1_555 1_555
C9 C8 1_555 1_555
H8 C9 1_555 1_555
C10 C9 1_555 1_555
H9 C10 1_555 1_555
C11 C10 1_555 1_555
H10 C11 1_555 1_555
C12 C7 1_555 1_555
H11 C12 1_555 1_555
C13 C6 1_555 1_555
C14 C13 1_555 1_555
H12 C14 1_555 1_555
C15 C14 1_555 1_555
H13 C15 1_555 1_555
C16 C15 1_555 1_555
H14 C16 1_555 1_555
C17 C16 1_555 1_555
H15 C17 1_555 1_555
C18 C13 1_555 1_555
H16 C18 1_555 1_555
C19 C3 1_555 1_555
C20 C19 1_555 1_555
H17 C20 1_555 1_555
C21 C20 1_555 1_555
H18 C21 1_555 1_555
C22 C21 1_555 1_555
H19 C22 1_555 1_555
C23 C22 1_555 1_555
H20 C23 1_555 1_555
C24 C19 1_555 1_555
H21 C24 1_555 1_555
C25 C26 1_555 1_555
C26 H22 1_555 1_555
C27 C26 1_555 1_555
H23 C27 1_555 1_555
C28 C27 1_555 1_555
H24 C28 1_555 1_555
C29 C28 1_555 1_555
H25 C29 1_555 1_555
C30 C25 1_555 1_555
H26 C30 1_555 1_555
N1 C3 1_555 1_555
N2 C2 1_555 1_555
C4 N1 1_555 1_555
C4 N2 1_555 1_555
C5 C6 1_555 1_555
C5 N2 1_555 1_555
C11 C12 1_555 1_555
C17 C18 1_555 1_555
C23 C24 1_555 1_555
C29 C30 1_555 1_555

#END
