
#######################################################################
#
#                 Cambridge Crystallographic Data Centre
#                                CCDC 
#
#######################################################################
#
# If this CIF has been generated from an entry in the Cambridge 
# Structural Database, then it will include bibliographic, chemical, 
# crystal, experimental, refinement or atomic coordinate data resulting 
# from the CCDC's data processing and validation procedures.
#
#######################################################################

data_UQAXIU
_chemical_formula_moiety         'C2 H10 N2 2+,2(C6 H4 N1 O3 1-)'
_chemical_name_systematic        '1,2-Diammonioethane bis(2-nitrophenolate)'
_symmetry_cell_setting           orthorhombic
_symmetry_space_group_name_H-M   'P c c n'
_symmetry_Int_Tables_number      56
_space_group_name_Hall           '-P 2ab 2ac'
loop_
_symmetry_equiv_pos_site_id
_symmetry_equiv_pos_as_xyz
1 x,y,z
2 1/2-x,1/2-y,z
3 1/2+x,-y,1/2-z
4 -x,1/2+y,1/2-z
5 -x,-y,-z
6 1/2+x,1/2+y,-z
7 1/2-x,y,1/2+z
8 x,1/2-y,1/2+z
_cell_length_a                   26.047(5)
_cell_length_b                   6.8351(14)
_cell_length_c                   8.4637(17)
_cell_angle_alpha                90
_cell_angle_beta                 90
_cell_angle_gamma                90
_cell_volume                     1506.83
_exptl_crystal_colour            yellow
_cell_formula_units_Z            4
_exptl_crystal_recrystallization_method ethanol
loop_
_atom_site_label
_atom_site_type_symbol
_atom_site_fract_x
_atom_site_fract_y
_atom_site_fract_z
O1 O 0.5585 0.0822(2) 0.8432(1)
O2 O 0.6481 -0.0753(2) 1.2293(2)
O3 O 0.5715 -0.0704(2) 1.1332(1)
N1 N 0.6188 -0.0565(2) 1.1167(2)
C1 C 0.6083(1) 0.0512(2) 0.8356(2)
C2 C 0.6350(1) 0.0868(2) 0.6921(2)
H1 H 0.6160 0.1298 0.6028
C3 C 0.6870(1) 0.0617(3) 0.6768(2)
H2 H 0.7031 0.0896 0.5786
C4 C 0.7166(1) -0.0043(3) 0.8040(3)
H3 H 0.7526 -0.0219 0.7930
C5 C 0.6927(1) -0.0433(3) 0.9446(2)
H4 H 0.7123 -0.0892 1.0318
C6 C 0.6397(1) -0.0161(2) 0.9612(2)
N2 N 0.4958 0.7503(2) 0.4092(2)
C7 C 0.5205(1) 0.9252(2) 0.4802(2)
H5 H 0.5455 0.9821 0.4049
H6 H 0.5392 0.8874 0.5773
H7 H 0.5207(8) 0.656(3) 0.385(3)
H8 H 0.4735(8) 0.692(3) 0.489(3)
H9 H 0.4759(8) 0.786(3) 0.320(3)
N2D N 0.5042 1.2497(2) 0.5908(2)
C7D C 0.4795(1) 1.0748(2) 0.5198(2)
H5D H 0.4545 1.0179 0.5951
H6D H 0.4608 1.1126 0.4227
H7D H 0.4793(8) 1.344(3) 0.615(3)
H8D H 0.5265(8) 1.308(3) 0.511(3)
H9D H 0.5241(8) 1.214(3) 0.680(3)
loop_
_geom_bond_atom_site_label_1
_geom_bond_atom_site_label_2
_geom_bond_site_symmetry_1
_geom_bond_site_symmetry_2
O1 C1 1_555 1_555
O2 N1 1_555 1_555
O3 N1 1_555 1_555
N1 C6 1_555 1_555
C1 C2 1_555 1_555
C2 H1 1_555 1_555
C3 C2 1_555 1_555
H2 C3 1_555 1_555
C4 C3 1_555 1_555
H3 C4 1_555 1_555
C5 C4 1_555 1_555
H4 C5 1_555 1_555
C6 C1 1_555 1_555
N2 C7 1_555 1_555
C7 H5 1_555 1_555
H6 C7 1_555 1_555
H7 N2 1_555 1_555
H8 N2 1_555 1_555
H9 N2 1_555 1_555
N2D C7D 1_555 1_555
C7D C7 1_555 1_555
H5D C7D 1_555 1_555
H6D C7D 1_555 1_555
H7D N2D 1_555 1_555
H8D N2D 1_555 1_555
H9D N2D 1_555 1_555
C5 C6 1_555 1_555

#END
