
#######################################################################
#
#                 Cambridge Crystallographic Data Centre
#                                CCDC 
#
#######################################################################
#
# If this CIF has been generated from an entry in the Cambridge 
# Structural Database, then it will include bibliographic, chemical, 
# crystal, experimental, refinement or atomic coordinate data resulting 
# from the CCDC's data processing and validation procedures.
#
#######################################################################

data_UQAXOA
_chemical_formula_moiety         'C2 H10 N2 2+,2(C6 H4 N1 O3 1-),H2 O1'
_chemical_name_systematic        
'1,2-Diammonioethane bis(4-nitrophenolate) monohydrate'
_symmetry_cell_setting           monoclinic
_symmetry_space_group_name_H-M   'C 2/c'
_symmetry_Int_Tables_number      15
_space_group_name_Hall           '-C 2yn'
loop_
_symmetry_equiv_pos_site_id
_symmetry_equiv_pos_as_xyz
1 x,y,z
2 -x,y,1/2-z
3 1/2+x,1/2+y,z
4 1/2-x,1/2+y,1/2-z
5 -x,-y,-z
6 x,-y,1/2+z
7 1/2-x,1/2-y,-z
8 1/2+x,1/2-y,1/2+z
_cell_length_a                   11.328(2)
_cell_length_b                   7.2623(15)
_cell_length_c                   20.038(4)
_cell_angle_alpha                90
_cell_angle_beta                 93.58(3)
_cell_angle_gamma                90
_cell_volume                     1645.26
_exptl_crystal_colour            yellow
_cell_formula_units_Z            4
_exptl_crystal_recrystallization_method '95% ethanol solution'
loop_
_atom_site_label
_atom_site_type_symbol
_atom_site_fract_x
_atom_site_fract_y
_atom_site_fract_z
O1 O 0.8277(1) 0.0908(1) 0.6824
O2 O 0.6228(1) -0.0890(2) 0.3944
O3 O 0.7973(1) 0.0025(2) 0.3718
N1 N 0.7222(1) -0.0301(2) 0.4128
C1 C 0.8032(1) 0.0615(2) 0.6185(1)
C2 C 0.8841(1) 0.1092(2) 0.5703(1)
H1 H 0.9578 0.1631 0.5846
C3 C 0.8583(1) 0.0792(2) 0.5034(1)
H2 H 0.9133 0.1126 0.4716
C4 C 0.7502(1) -0.0009(2) 0.4826(1)
C5 C 0.6687(1) -0.0523(2) 0.5284(1)
H3 H 0.5957 -0.1075 0.5135
C6 C 0.6949(1) -0.0222(2) 0.5954(1)
H4 H 0.6397 -0.0580 0.6267
N2 N 0.6657(1) 0.7475(2) 0.259
H5 H 0.6671 0.8281 0.2938
H6 H 0.7199 0.7825 0.2297
H7 H 0.6836 0.6325 0.2746
C7 C 0.5464(1) 0.7465(2) 0.2244(1)
H8 H 0.5369 0.6357 0.1958
H9 H 0.5364 0.8566 0.1955
N2A N 0.3343(1) 0.7475(2) 0.241
H5A H 0.3329 0.8281 0.2062
H6A H 0.2801 0.7825 0.2703
H7A H 0.3164 0.6325 0.2254
C7A C 0.4536(1) 0.7465(2) 0.2756(1)
H8A H 0.4631 0.6357 0.3042
H9A H 0.4636 0.8566 0.3045
O4 O 1.0000 0.3214(2) 0.7500
H10 H 0.9557(15) 0.254(2) 0.7242(9)
H10A H 1.0443(15) 0.254(2) 0.7758(9)
loop_
_geom_bond_atom_site_label_1
_geom_bond_atom_site_label_2
_geom_bond_site_symmetry_1
_geom_bond_site_symmetry_2
O1 C1 1_555 1_555
O2 N1 1_555 1_555
O3 N1 1_555 1_555
N1 C4 1_555 1_555
C1 C2 1_555 1_555
C2 H1 1_555 1_555
C3 C2 1_555 1_555
H2 C3 1_555 1_555
C4 C3 1_555 1_555
C5 C4 1_555 1_555
H3 C5 1_555 1_555
C6 C1 1_555 1_555
H4 C6 1_555 1_555
N2 H5 1_555 1_555
H6 N2 1_555 1_555
H7 N2 1_555 1_555
C7 N2 1_555 1_555
H8 C7 1_555 1_555
H9 C7 1_555 1_555
O4 H10 1_555 1_555
N2A H5A 1_555 1_555
H6A N2A 1_555 1_555
H7A N2A 1_555 1_555
C7A C7 1_555 1_555
H8A C7A 1_555 1_555
H9A C7A 1_555 1_555
H10A O4 1_555 1_555
C5 C6 1_555 1_555
N2A C7A 1_555 1_555

#END
