
#######################################################################
#
#                 Cambridge Crystallographic Data Centre
#                                CCDC 
#
#######################################################################
#
# If this CIF has been generated from an entry in the Cambridge 
# Structural Database, then it will include bibliographic, chemical, 
# crystal, experimental, refinement or atomic coordinate data resulting 
# from the CCDC's data processing and validation procedures.
#
#######################################################################

data_UQAYER
_chemical_formula_moiety         'C26 H22 N2 O6 S2,C42 H42 N28 O14,12.5(H2 O1)'
_chemical_name_systematic        
"[2]-(2,2'-((E)-Ethene-1,2-diylbis(pyridinium-4,1-diylmethanediyl))dibenzenesulfonate)-(cucurbit[7]uril)-pseudorotaxane hydrate"
_symmetry_cell_setting           monoclinic
_symmetry_space_group_name_H-M   'P 21/c'
_symmetry_Int_Tables_number      14
_space_group_name_Hall           '-P 2ybc'
loop_
_symmetry_equiv_pos_site_id
_symmetry_equiv_pos_as_xyz
1 x,y,z
2 -x,1/2+y,1/2-z
3 -x,-y,-z
4 x,1/2-y,1/2+z
_cell_length_a                   26.882(2)
_cell_length_b                   13.2626(10)
_cell_length_c                   25.650(2)
_cell_angle_alpha                90
_cell_angle_beta                 110.939(3)
_cell_angle_gamma                90
_cell_volume                     8540.96
_exptl_crystal_colour            colorless
_exptl_crystal_description       block
_cell_formula_units_Z            4
loop_
_atom_site_label
_atom_site_type_symbol
_atom_site_fract_x
_atom_site_fract_y
_atom_site_fract_z
O1 O 0.0312(2) 0.0157(4) 0.1910(2)
O2 O 0.0339(2) 0.2203(4) 0.2975(2)
O3 O 0.1091(2) 0.4362(4) 0.3368(2)
O4 O 0.2166(2) 0.4971(5) 0.2845(2)
O5 O 0.2664(2) 0.3900(5) 0.1826(2)
O6 O 0.2223(2) 0.1561(5) 0.1051(2)
O7 O 0.11865(18) -0.0098(4) 0.1138(2)
O8 O 0.1918(2) -0.2149(5) 0.3864(3)
O9 O 0.1900(3) -0.0240(5) 0.4796(3)
O10 O 0.2766(2) 0.2030(5) 0.5208(2)
O11 O 0.3839(2) 0.2909(5) 0.4792(2)
O12 O 0.4257(2) 0.1588(5) 0.3755(2)
O13 O 0.3781(3) -0.0756(5) 0.2968(3)
O14 O 0.2820(2) -0.2538(5) 0.3021(2)
N1 N 0.0704(2) -0.1400(5) 0.2155(2)
N2 N 0.0415(2) -0.0618(5) 0.2755(3)
N3 N 0.0445(3) 0.0663(5) 0.3443(3)
N4 N 0.0649(3) 0.2083(5) 0.3940(3)
N5 N 0.1201(2) 0.3584(5) 0.4207(3)
N6 N 0.1864(2) 0.4493(5) 0.4128(3)
N7 N 0.2561(3) 0.5083(5) 0.3806(3)
N8 N 0.3074(2) 0.4887(5) 0.3302(3)
N9 N 0.3401(3) 0.4127(5) 0.2631(2)
N10 N 0.3419(3) 0.2903(5) 0.2052(2)
N11 N 0.3137(2) 0.1370(5) 0.1515(3)
N12 N 0.2629(2) 0.0010(5) 0.1251(3)
N13 N 0.1952(2) -0.1077(5) 0.1379(3)
N14 N 0.1288(2) -0.1592(5) 0.1629(3)
N15 N 0.1374(3) -0.2251(5) 0.2940(3)
N16 N 0.1061(2) -0.1542(5) 0.3538(3)
N17 N 0.1000(3) -0.0338(5) 0.4228(3)
N18 N 0.1321(3) 0.1103(5) 0.4660(3)
N19 N 0.1884(2) 0.2570(5) 0.4887(3)
N20 N 0.2525(2) 0.3686(5) 0.4931(3)
N21 N 0.3215(2) 0.4190(6) 0.4572(3)
N22 N 0.3749(2) 0.4056(5) 0.4088(3)
N23 N 0.4027(2) 0.3200(6) 0.3408(3)
N24 N 0.4047(3) 0.1978(5) 0.2824(3)
N25 N 0.3742(2) 0.0443(5) 0.2299(3)
N26 N 0.3240(2) -0.0929(5) 0.2038(3)
N27 N 0.2590(3) -0.2158(6) 0.2080(3)
N28 N 0.1946(3) -0.2470(5) 0.2406(3)
C1 C 0.0457(3) -0.0539(6) 0.2239(3)
C2 C 0.0111(3) 0.0083(7) 0.2961(3)
H1 H -0.0155 -0.0300 0.3066
H2 H -0.0084 0.0554 0.2657
C3 C 0.0461(3) 0.1713(6) 0.3402(3)
C4 C 0.0677(3) 0.3158(6) 0.4062(3)
H3 H 0.0433 0.3518 0.3731
H4 H 0.0549 0.3275 0.4374
C5 C 0.1363(3) 0.4156(6) 0.3861(3)
C6 C 0.2087(3) 0.5346(6) 0.3911(4)
H5 H 0.1814 0.5590 0.3560
H6 H 0.2169 0.5905 0.4185
C7 C 0.2557(3) 0.4972(6) 0.3269(3)
C8 C 0.3222(3) 0.5041(6) 0.2817(3)
H7 H 0.2912 0.5313 0.2508
H8 H 0.3510 0.5550 0.2908
C9 C 0.3101(3) 0.3670(6) 0.2132(3)
C10 C 0.3282(4) 0.2415(6) 0.1516(3)
H9 H 0.2981 0.2783 0.1242
H10 H 0.3590 0.2465 0.1391
C11 C 0.2610(3) 0.1037(7) 0.1251(3)
C12 C 0.2160(3) -0.0600(7) 0.0986(3)
H11 H 0.2248 -0.1131 0.0761
H12 H 0.1878 -0.0171 0.0727
C13 C 0.1445(3) -0.0846(6) 0.1357(3)
C14 C 0.0753(3) -0.1636(7) 0.1629(3)
H13 H 0.0528 -0.1160 0.1345
H14 H 0.0611 -0.2323 0.1517
C15 C 0.1485(3) -0.1990(6) 0.3486(4)
C16 C 0.1005(3) -0.1389(6) 0.4078(3)
H15 H 0.0669 -0.1709 0.4070
H16 H 0.1303 -0.1732 0.4370
C17 C 0.1454(4) 0.0128(7) 0.4586(3)
C18 C 0.1677(4) 0.1712(7) 0.5102(3)
H17 H 0.1978 0.1291 0.5335
H18 H 0.1484 0.1961 0.5341
C19 C 0.2429(3) 0.2685(7) 0.5032(3)
C20 C 0.3058(3) 0.4075(7) 0.5065(3)
H19 H 0.3312 0.3615 0.5334
H20 H 0.3083 0.4740 0.5248
C21 C 0.3618(3) 0.3640(7) 0.4515(3)
C22 C 0.4188(3) 0.3716(7) 0.3946(3)
H21 H 0.4408 0.3250 0.4241
H22 H 0.4413 0.4302 0.3938
C23 C 0.4127(3) 0.2202(7) 0.3374(3)
C24 C 0.4200(3) 0.1022(7) 0.2648(4)
H23 H 0.4401 0.0620 0.2982
H24 H 0.4438 0.1153 0.2437
C25 C 0.3604(3) -0.0450(7) 0.2481(4)
C26 C 0.3114(3) -0.1999(6) 0.2067(4)
H25 H 0.3142 -0.2353 0.1739
H26 H 0.3379 -0.2299 0.2406
C27 C 0.2489(3) -0.2397(6) 0.2559(4)
C28 C 0.1716(3) -0.2939(7) 0.2775(4)
H27 H 0.2005 -0.3182 0.3114
H28 H 0.1504 -0.3532 0.2586
C29 C 0.0816(3) -0.2128(6) 0.2606(3)
H29 H 0.0637 -0.2790 0.2473
C30 C 0.0589(3) -0.1593(6) 0.3019(3)
H30 H 0.0290 -0.1981 0.3070
C31 C 0.0555(3) 0.0331(6) 0.4011(3)
H31 H 0.0230 0.0054 0.4062
C32 C 0.0754(3) 0.1301(6) 0.4359(3)
H32 H 0.0560 0.1425 0.4621
C33 C 0.1605(3) 0.3518(6) 0.4756(3)
H33 H 0.1463 0.3722 0.5052
C34 C 0.2050(3) 0.4267(6) 0.4727(3)
H34 H 0.2071 0.4887 0.4956
C35 C 0.3084(3) 0.5076(7) 0.4222(4)
H35 H 0.3161 0.5711 0.4447
C36 C 0.3448(3) 0.4969(7) 0.3869(3)
H36 H 0.3688 0.5566 0.3917
C37 C 0.3930(3) 0.3734(6) 0.2883(3)
H37 H 0.4207 0.4259 0.2917
C38 C 0.3941(3) 0.2868(6) 0.2468(3)
H38 H 0.4224 0.2979 0.2306
C39 C 0.3515(3) 0.0545(6) 0.1702(3)
H39 H 0.3795 0.0575 0.1530
C40 C 0.3159(3) -0.0415(6) 0.1516(3)
H40 H 0.3267 -0.0841 0.1253
C41 C 0.2113(3) -0.2089(7) 0.1585(3)
H41 H 0.2130 -0.2547 0.1282
C42 C 0.1664(3) -0.2411(6) 0.1805(3)
H42 H 0.1500 -0.3071 0.1645
S1 S 0.09083(11) 0.5216(2) 0.10471(12)
O15 O 0.0777(3) 0.5654(6) 0.1509(3)
O16 O 0.1478(3) 0.5222(7) 0.1151(4)
O17 O 0.0613(4) 0.5652(7) 0.0542(4)
S2 S 0.43257(12) -0.2945(3) 0.65202(15)
O18 O 0.4757(3) -0.2278(7) 0.6849(4)
O19 O 0.4320(4) -0.3862(7) 0.6806(4)
O20 O 0.3805(3) -0.2424(8) 0.6315(5)
N29 N 0.1706(4) 0.2886(6) 0.2378(3)
N30 N 0.4055(3) -0.0846(8) 0.5230(4)
C43 C 0.0709(4) 0.3929(7) 0.1025(4)
C44 C 0.0312(3) 0.3575(7) 0.0553(4)
H43 H 0.0155 0.4013 0.0244
C45 C 0.0137(4) 0.2565(7) 0.0526(4)
H44 H -0.0136 0.2322 0.0200
C46 C 0.0368(4) 0.1925(8) 0.0982(4)
H45 H 0.0249 0.1248 0.0969
C47 C 0.0768(4) 0.2282(7) 0.1452(4)
H46 H 0.0924 0.1847 0.1761
C48 C 0.0945(4) 0.3280(8) 0.1476(4)
C49 C 0.1400(5) 0.3696(8) 0.1984(4)
H47 H 0.1647 0.4082 0.1853
H48 H 0.1249 0.4167 0.2188
C50 C 0.2081(5) 0.2365(10) 0.2245(5)
H49 H 0.2115 0.2452 0.1892
C51 C 0.2395(6) 0.1739(12) 0.2616(6)
H50 H 0.2655 0.1375 0.2521
C52 C 0.2362(6) 0.1585(12) 0.3142(6)
C53 C 0.1950(6) 0.2087(11) 0.3241(5)
H51 H 0.1895 0.1981 0.3583
C54 C 0.1623(6) 0.2726(10) 0.2854(5)
H52 H 0.1339 0.3056 0.2922
C55 C 0.2795(6) 0.1020(12) 0.3571(6)
H53 H 0.3091 0.0825 0.3474
C56 C 0.2808(6) 0.0770(10) 0.4055(5)
H54 H 0.2515 0.0959 0.4158
C57 C 0.3583(5) -0.0749(11) 0.5309(5)
H55 H 0.3535 -0.1056 0.5622
C58 C 0.3168(5) -0.0194(10) 0.4924(5)
H56 H 0.2840 -0.0098 0.4980
C59 C 0.3248(5) 0.0207(10) 0.4465(6)
C60 C 0.3753(7) 0.0216(14) 0.4457(7)
H57 H 0.3829 0.0582 0.4175
C61 C 0.4157(7) -0.0311(13) 0.4859(7)
H58 H 0.4510 -0.0278 0.4861
C62 C 0.4496(4) -0.1391(8) 0.5691(5)
H59 H 0.4440 -0.1321 0.6050
H60 H 0.4847 -0.1096 0.5733
C63 C 0.4482(4) -0.2518(9) 0.5529(5)
C64 C 0.4549(5) -0.2819(12) 0.5042(5)
H61 H 0.4594 -0.2337 0.4788
C65 C 0.4550(6) -0.3832(14) 0.4936(6)
H62 H 0.4594 -0.4031 0.4599
C66 C 0.4493(5) -0.4572(11) 0.5274(5)
H63 H 0.4490 -0.5261 0.5172
C67 C 0.4440(4) -0.4304(9) 0.5768(5)
H64 H 0.4412 -0.4810 0.6018
C68 C 0.4428(3) -0.3283(8) 0.5905(4)
O21 O 0.0641(3) 0.6248(5) 0.3457(3)
O22 O 0.1110(2) 0.5998(5) 0.4634(2)
O23 O 0.1229(3) 0.7380(5) 0.0377(3)
O24 O 0.0517(3) 0.0263(5) 0.0033(2)
O25 O 0.2959(4) -0.3228(6) 0.5243(3)
O26 O 0.4551(3) -0.3854(7) 0.3495(4)
O27 O 0.3893(4) -0.2436(8) 0.3712(3)
O28 O 0.2252(4) -0.1897(7) 0.5384(4)
O29 O 0.3100(4) -0.2448(8) 0.4280(4)
O30 O 0.4718(6) -0.0817(10) 0.4030(5)
O31 O 0.3654(6) 0.4738(13) 0.1443(7)
O32 O 0.4022(8) 0.1576(15) 0.5751(7)
O33 O 0.4371(4) 0.3158(10) 0.6022(5)
O34 O 0.2701(6) 0.5712(9) 0.1299(6)
O35 O 0.4429(6) -0.0756(13) 0.7382(6)
O36 O 0.5086(7) -0.4208(14) 0.7839(8)
loop_
_geom_bond_atom_site_label_1
_geom_bond_atom_site_label_2
_geom_bond_site_symmetry_1
_geom_bond_site_symmetry_2
O1 C1 1_555 1_555
O2 C3 1_555 1_555
O3 C5 1_555 1_555
O4 C7 1_555 1_555
O5 C9 1_555 1_555
O6 C11 1_555 1_555
O7 C13 1_555 1_555
O8 C15 1_555 1_555
O9 C17 1_555 1_555
O10 C19 1_555 1_555
O11 C21 1_555 1_555
O12 C23 1_555 1_555
O13 C25 1_555 1_555
O14 C27 1_555 1_555
N1 C1 1_555 1_555
N2 C1 1_555 1_555
N3 C2 1_555 1_555
N4 C3 1_555 1_555
N5 C4 1_555 1_555
N6 C5 1_555 1_555
N7 C6 1_555 1_555
N8 C7 1_555 1_555
N9 C8 1_555 1_555
N10 C9 1_555 1_555
N11 C10 1_555 1_555
N12 C11 1_555 1_555
N13 C12 1_555 1_555
N14 C13 1_555 1_555
N15 C15 1_555 1_555
N16 C15 1_555 1_555
N17 C16 1_555 1_555
N18 C17 1_555 1_555
N19 C18 1_555 1_555
N20 C19 1_555 1_555
N21 C20 1_555 1_555
N22 C21 1_555 1_555
N23 C22 1_555 1_555
N24 C23 1_555 1_555
N25 C24 1_555 1_555
N26 C25 1_555 1_555
N27 C26 1_555 1_555
N28 C27 1_555 1_555
C2 N2 1_555 1_555
H1 C2 1_555 1_555
H2 C2 1_555 1_555
C3 N3 1_555 1_555
C4 N4 1_555 1_555
H3 C4 1_555 1_555
H4 C4 1_555 1_555
C5 N5 1_555 1_555
C6 N6 1_555 1_555
H5 C6 1_555 1_555
H6 C6 1_555 1_555
C7 N7 1_555 1_555
C8 N8 1_555 1_555
H7 C8 1_555 1_555
H8 C8 1_555 1_555
C9 N9 1_555 1_555
C10 N10 1_555 1_555
H9 C10 1_555 1_555
H10 C10 1_555 1_555
C11 N11 1_555 1_555
C12 N12 1_555 1_555
H11 C12 1_555 1_555
H12 C12 1_555 1_555
C13 N13 1_555 1_555
C14 N1 1_555 1_555
H13 C14 1_555 1_555
H14 C14 1_555 1_555
C16 N16 1_555 1_555
H15 C16 1_555 1_555
H16 C16 1_555 1_555
C17 N17 1_555 1_555
C18 N18 1_555 1_555
H17 C18 1_555 1_555
H18 C18 1_555 1_555
C19 N19 1_555 1_555
C20 N20 1_555 1_555
H19 C20 1_555 1_555
H20 C20 1_555 1_555
C21 N21 1_555 1_555
C22 N22 1_555 1_555
H21 C22 1_555 1_555
H22 C22 1_555 1_555
C23 N23 1_555 1_555
C24 N24 1_555 1_555
H23 C24 1_555 1_555
H24 C24 1_555 1_555
C25 N25 1_555 1_555
C26 N26 1_555 1_555
H25 C26 1_555 1_555
H26 C26 1_555 1_555
C27 N27 1_555 1_555
C28 N15 1_555 1_555
H27 C28 1_555 1_555
H28 C28 1_555 1_555
C29 N1 1_555 1_555
H29 C29 1_555 1_555
C30 N2 1_555 1_555
H30 C30 1_555 1_555
C31 N3 1_555 1_555
H31 C31 1_555 1_555
C32 N4 1_555 1_555
H32 C32 1_555 1_555
C33 N5 1_555 1_555
H33 C33 1_555 1_555
C34 N6 1_555 1_555
H34 C34 1_555 1_555
C35 N7 1_555 1_555
H35 C35 1_555 1_555
C36 N8 1_555 1_555
H36 C36 1_555 1_555
C37 N9 1_555 1_555
H37 C37 1_555 1_555
C38 N10 1_555 1_555
H38 C38 1_555 1_555
C39 N11 1_555 1_555
H39 C39 1_555 1_555
C40 N12 1_555 1_555
H40 C40 1_555 1_555
C41 N13 1_555 1_555
H41 C41 1_555 1_555
C42 N14 1_555 1_555
H42 C42 1_555 1_555
S1 O15 1_555 1_555
O16 S1 1_555 1_555
O17 S1 1_555 1_555
S2 O18 1_555 1_555
O19 S2 1_555 1_555
O20 S2 1_555 1_555
N29 C49 1_555 1_555
N30 C57 1_555 1_555
C43 S1 1_555 1_555
C44 C43 1_555 1_555
H43 C44 1_555 1_555
C45 C44 1_555 1_555
H44 C45 1_555 1_555
C46 C45 1_555 1_555
H45 C46 1_555 1_555
C47 C46 1_555 1_555
H46 C47 1_555 1_555
C48 C43 1_555 1_555
C49 C48 1_555 1_555
H47 C49 1_555 1_555
H48 C49 1_555 1_555
C50 N29 1_555 1_555
H49 C50 1_555 1_555
C51 C50 1_555 1_555
H50 C51 1_555 1_555
C52 C51 1_555 1_555
C53 C52 1_555 1_555
H51 C53 1_555 1_555
C54 N29 1_555 1_555
H52 C54 1_555 1_555
C55 C52 1_555 1_555
H53 C55 1_555 1_555
C56 C55 1_555 1_555
H54 C56 1_555 1_555
C57 H55 1_555 1_555
C58 C57 1_555 1_555
H56 C58 1_555 1_555
C59 C56 1_555 1_555
C60 C59 1_555 1_555
H57 C60 1_555 1_555
C61 N30 1_555 1_555
H58 C61 1_555 1_555
C62 N30 1_555 1_555
H59 C62 1_555 1_555
H60 C62 1_555 1_555
C63 C62 1_555 1_555
C64 C63 1_555 1_555
H61 C64 1_555 1_555
C65 C64 1_555 1_555
H62 C65 1_555 1_555
C66 C65 1_555 1_555
H63 C66 1_555 1_555
C67 C66 1_555 1_555
H64 C67 1_555 1_555
C68 S2 1_555 1_555
N14 C14 1_555 1_555
N15 C29 1_555 1_555
N16 C30 1_555 1_555
N17 C31 1_555 1_555
N18 C32 1_555 1_555
N19 C33 1_555 1_555
N20 C34 1_555 1_555
N21 C35 1_555 1_555
N22 C36 1_555 1_555
N23 C37 1_555 1_555
N24 C38 1_555 1_555
N25 C39 1_555 1_555
N26 C40 1_555 1_555
N27 C41 1_555 1_555
N28 C28 1_555 1_555
N28 C42 1_555 1_555
C29 C30 1_555 1_555
C31 C32 1_555 1_555
C33 C34 1_555 1_555
C35 C36 1_555 1_555
C37 C38 1_555 1_555
C39 C40 1_555 1_555
C41 C42 1_555 1_555
C47 C48 1_555 1_555
C53 C54 1_555 1_555
C58 C59 1_555 1_555
C60 C61 1_555 1_555
C63 C68 1_555 1_555
C67 C68 1_555 1_555

#END
