
#######################################################################
#
#                 Cambridge Crystallographic Data Centre
#                                CCDC 
#
#######################################################################
#
# If this CIF has been generated from an entry in the Cambridge 
# Structural Database, then it will include bibliographic, chemical, 
# crystal, experimental, refinement or atomic coordinate data resulting 
# from the CCDC's data processing and validation procedures.
#
#######################################################################

data_UQEBEY
_chemical_formula_moiety         'C33 H36 Br2 N2 O1'
_chemical_name_systematic        
6,8-Dibromo-1'-ethyl-4-((1-ethyl-3,3-dimethyl-1,3-dihydro-2H-indol-2-ylidene)methyl)-3',3'-dimethyl-1',3,3',4-tetrahydrospiro[chromene-2,2'-indole]
_symmetry_cell_setting           monoclinic
_symmetry_space_group_name_H-M   'P 21/n'
_symmetry_Int_Tables_number      14
_space_group_name_Hall           '-P 2yn'
loop_
_symmetry_equiv_pos_site_id
_symmetry_equiv_pos_as_xyz
1 x,y,z
2 1/2-x,1/2+y,1/2-z
3 -x,-y,-z
4 1/2+x,1/2-y,1/2+z
_cell_length_a                   12.9699(15)
_cell_length_b                   12.5196(13)
_cell_length_c                   19.327(2)
_cell_angle_alpha                90
_cell_angle_beta                 106.493(3)
_cell_angle_gamma                90
_cell_volume                     3009.15
_exptl_crystal_colour            'light pink'
_exptl_crystal_description       block
_cell_formula_units_Z            4
loop_
_atom_site_label
_atom_site_type_symbol
_atom_site_fract_x
_atom_site_fract_y
_atom_site_fract_z
Br1 Br 0.79443(4) 0.66439(4) 0.64920(2)
Br2 Br 0.89340(3) 0.39564(3) 0.44239(2)
O1 O 0.69936(17) 0.49544(18) 0.34503(11)
N1 N 0.4423(2) 0.9312(2) 0.40914(15)
N2 N 0.6495(2) 0.5256(2) 0.22180(14)
C1 C 0.7148(2) 0.5381(2) 0.41208(16)
C2 C 0.6504(2) 0.6162(2) 0.42953(16)
C3 C 0.6748(3) 0.6535(3) 0.50047(17)
H1 H 0.6314 0.7073 0.5129
C4 C 0.7623(3) 0.6123(3) 0.55289(17)
C5 C 0.8274(3) 0.5360(3) 0.53649(18)
H2 H 0.8873 0.5085 0.5727
C6 C 0.8041(2) 0.5000(2) 0.46623(18)
C7 C 0.5553(2) 0.6608(2) 0.37089(16)
H3 H 0.4894 0.6189 0.3703
C8 C 0.5800(3) 0.6457(3) 0.29817(17)
H4 H 0.5163 0.6678 0.2589
H5 H 0.6402 0.6934 0.2968
C9 C 0.6092(2) 0.5320(3) 0.28422(16)
C10 C 0.5347(3) 0.7769(3) 0.38149(17)
H6 H 0.5867 0.8254 0.3737
C11 C 0.4528(3) 0.8210(2) 0.40040(16)
C12 C 0.3564(3) 0.7667(3) 0.41740(17)
C13 C 0.2958(3) 0.8611(3) 0.43517(16)
C14 C 0.2021(3) 0.8650(3) 0.45583(19)
H7 H 0.1656 0.8012 0.4615
C15 C 0.1623(3) 0.9645(4) 0.4681(2)
H8 H 0.0986 0.9686 0.4829
C16 C 0.2146(3) 1.0565(3) 0.4590(2)
H9 H 0.1856 1.1235 0.4672
C17 C 0.3085(3) 1.0543(3) 0.43816(19)
H10 H 0.3438 1.1184 0.4316
C18 C 0.3490(3) 0.9548(3) 0.42727(17)
C19 C 0.5177(2) 0.4449(3) 0.26885(17)
C20 C 0.5516(2) 0.3727(3) 0.21645(17)
C21 C 0.5158(3) 0.2728(3) 0.19137(18)
H11 H 0.4656 0.2359 0.2102
C22 C 0.5544(3) 0.2261(3) 0.1376(2)
H12 H 0.5304 0.1570 0.1198
C23 C 0.6267(3) 0.2797(3) 0.11057(19)
H13 H 0.6514 0.2476 0.0737
C24 C 0.6644(3) 0.3800(3) 0.13611(18)
H14 H 0.7151 0.4166 0.1177
C25 C 0.6258(3) 0.4255(3) 0.18945(17)
C26 C 0.5080(3) 1.0117(3) 0.38867(19)
H15 H 0.5830 0.9856 0.3997
H16 H 0.5082 1.0771 0.4175
C27 C 0.4676(4) 1.0390(4) 0.3092(2)
H17 H 0.4742 0.9763 0.2804
H18 H 0.5104 1.0978 0.2983
H19 H 0.3920 1.0607 0.2974
C28 C 0.3916(3) 0.6902(3) 0.4820(2)
H20 H 0.4395 0.7279 0.5231
H21 H 0.4297 0.6292 0.4690
H22 H 0.3281 0.6648 0.4950
C29 C 0.2843(3) 0.7061(3) 0.3517(2)
H23 H 0.2185 0.6824 0.3625
H24 H 0.3232 0.6438 0.3412
H25 H 0.2655 0.7536 0.3097
C30 C 0.7476(3) 0.5820(3) 0.2202(2)
H26 H 0.8005 0.5297 0.2126
H27 H 0.7792 0.6169 0.2675
C31 C 0.7268(5) 0.6653(4) 0.1616(3)
H28 H 0.6934 0.6315 0.1148
H29 H 0.7950 0.6983 0.1608
H30 H 0.6785 0.7201 0.1709
C32 C 0.5111(3) 0.3854(3) 0.33712(19)
H31 H 0.4548 0.3307 0.3239
H32 H 0.4940 0.4362 0.3708
H33 H 0.5804 0.3512 0.3601
C33 C 0.4077(3) 0.4931(3) 0.2303(2)
H34 H 0.4131 0.5341 0.1883
H35 H 0.3847 0.5403 0.2635
H36 H 0.3550 0.4356 0.2144
loop_
_geom_bond_atom_site_label_1
_geom_bond_atom_site_label_2
_geom_bond_site_symmetry_1
_geom_bond_site_symmetry_2
Br1 C4 1_555 1_555
Br2 C6 1_555 1_555
O1 C1 1_555 1_555
N1 C11 1_555 1_555
N2 C9 1_555 1_555
C1 C2 1_555 1_555
C2 C3 1_555 1_555
C3 H1 1_555 1_555
C4 C3 1_555 1_555
C5 C4 1_555 1_555
H2 C5 1_555 1_555
C6 C1 1_555 1_555
C7 C2 1_555 1_555
H3 C7 1_555 1_555
C8 C7 1_555 1_555
H4 C8 1_555 1_555
H5 C8 1_555 1_555
C9 O1 1_555 1_555
C10 C7 1_555 1_555
H6 C10 1_555 1_555
C11 C10 1_555 1_555
C12 C11 1_555 1_555
C13 C12 1_555 1_555
C14 C13 1_555 1_555
H7 C14 1_555 1_555
C15 C14 1_555 1_555
H8 C15 1_555 1_555
C16 C15 1_555 1_555
H9 C16 1_555 1_555
C17 C16 1_555 1_555
H10 C17 1_555 1_555
C18 N1 1_555 1_555
C19 C9 1_555 1_555
C20 C19 1_555 1_555
C21 C20 1_555 1_555
H11 C21 1_555 1_555
C22 C21 1_555 1_555
H12 C22 1_555 1_555
C23 C22 1_555 1_555
H13 C23 1_555 1_555
C24 C23 1_555 1_555
H14 C24 1_555 1_555
C25 N2 1_555 1_555
C26 N1 1_555 1_555
H15 C26 1_555 1_555
H16 C26 1_555 1_555
C27 C26 1_555 1_555
H17 C27 1_555 1_555
H18 C27 1_555 1_555
H19 C27 1_555 1_555
C28 C12 1_555 1_555
H20 C28 1_555 1_555
H21 C28 1_555 1_555
H22 C28 1_555 1_555
C29 C12 1_555 1_555
H23 C29 1_555 1_555
H24 C29 1_555 1_555
H25 C29 1_555 1_555
C30 N2 1_555 1_555
H26 C30 1_555 1_555
H27 C30 1_555 1_555
C31 C30 1_555 1_555
H28 C31 1_555 1_555
H29 C31 1_555 1_555
H30 C31 1_555 1_555
C32 C19 1_555 1_555
H31 C32 1_555 1_555
H32 C32 1_555 1_555
H33 C32 1_555 1_555
C33 C19 1_555 1_555
H34 C33 1_555 1_555
H35 C33 1_555 1_555
H36 C33 1_555 1_555
C5 C6 1_555 1_555
C8 C9 1_555 1_555
C13 C18 1_555 1_555
C17 C18 1_555 1_555
C20 C25 1_555 1_555
C24 C25 1_555 1_555

#END
