
#######################################################################
#
#                 Cambridge Crystallographic Data Centre
#                                CCDC 
#
#######################################################################
#
# If this CIF has been generated from an entry in the Cambridge 
# Structural Database, then it will include bibliographic, chemical, 
# crystal, experimental, refinement or atomic coordinate data resulting 
# from the CCDC's data processing and validation procedures.
#
#######################################################################

data_UQEGOO
_chemical_formula_moiety         'C94 H89 B1 N10 O3'
_chemical_name_systematic        
(13,20,43,50-tetra-t-butyl-31,32-bis(2,6-di-isopropylphenoxy)-3,6,9,24,27,36,39,54,55,56-deca-azapentadecacyclo[39.10.2.2^15,18^.1^5,37^.1^7,26^.1^28,35^.0^2,40^.0^4,38^.0^8,25^.0^10,23^.0^11,16^.0^17,22^.0^29,34^.0^45,53^.0^48,52^]octapentaconta-1(51),2(40),3,5,7,9,11,13,15,17,19,21,23,25,27,29,31,33,35(55),36,38,41,43,45(53),46,48(52),49,57-octacosaene)-phenoxy-boron
_symmetry_cell_setting           monoclinic
_symmetry_space_group_name_H-M   'P 21/n'
_symmetry_Int_Tables_number      14
_space_group_name_Hall           '-P 2yn'
loop_
_symmetry_equiv_pos_site_id
_symmetry_equiv_pos_as_xyz
1 x,y,z
2 1/2-x,1/2+y,1/2-z
3 -x,-y,-z
4 1/2+x,1/2-y,1/2+z
_cell_length_a                   15.6465(16)
_cell_length_b                   16.275(2)
_cell_length_c                   32.337(4)
_cell_angle_alpha                90
_cell_angle_beta                 99.915(9)
_cell_angle_gamma                90
_cell_volume                     8111.52
_exptl_crystal_colour            red
_exptl_crystal_description       block
_cell_formula_units_Z            4
loop_
_atom_site_label
_atom_site_type_symbol
_atom_site_fract_x
_atom_site_fract_y
_atom_site_fract_z
B1 B 0.8821(5) 0.3826(7) 0.1093(3)
C1 C 0.7847(3) 0.2990(3) 0.19647(11)
C2 C 0.8694(2) 0.3138(3) 0.21627(14)
C3 C 0.8933(2) 0.2990(3) 0.25903(14)
H1 H 0.9500 0.3089 0.2723
C4 C 0.8325(3) 0.2693(4) 0.28199(11)
C5 C 0.7479(3) 0.2544(3) 0.26218(14)
C6 C 0.7239(2) 0.2692(3) 0.21942(14)
H2 H 0.6673 0.2593 0.2062
N1 N 0.8712(3) 0.5497(4) 0.07569(16)
C7 C 0.9272(4) 0.2519(6) 0.3460(2)
C8 C 0.9885(6) 0.1919(5) 0.3420(2)
C9 C 1.0708(5) 0.1961(6) 0.3664(3)
H3 H 1.1118 0.1559 0.3638
C10 C 1.0917(4) 0.2602(8) 0.3948(2)
H4 H 1.1467 0.2629 0.4111
C11 C 1.0304(8) 0.3201(6) 0.3987(2)
H5 H 1.0444 0.3630 0.4177
C12 C 0.9481(6) 0.3160(5) 0.3743(3)
C13 C 1.0237(9) 0.1050(9) 0.2826(5)
H6 H 1.0285 0.1535 0.2663
H7 H 1.0023 0.0604 0.2643
H8 H 1.0798 0.0910 0.2982
C14 C 0.9630(6) 0.1207(8) 0.3122(3)
H9 H 0.9081 0.1369 0.2947
C15 C 0.9434(7) 0.0427(8) 0.3341(3)
H10 H 0.9247 0.0009 0.3135
H11 H 0.8983 0.0529 0.3501
H12 H 0.9947 0.0245 0.3525
C16 C 0.8979(14) 0.4562(13) 0.3731(7)
H13 H 0.9543 0.4573 0.3653
H14 H 0.9004 0.4825 0.3999
H15 H 0.8573 0.4847 0.3524
C17 C 0.8705(15) 0.3726(10) 0.3759(6)
H16 H 0.8355 0.3640 0.3480
C18 C 0.8112(15) 0.3419(12) 0.4040(5)
H17 H 0.8034 0.2836 0.4003
H18 H 0.7560 0.3689 0.3972
H19 H 0.8360 0.3533 0.4327
C19 C 0.6155(3) 0.1891(5) 0.26461(15)
C20 C 0.6218(3) 0.1055(5) 0.25687(18)
C21 C 0.5494(5) 0.0622(3) 0.2373(2)
H20 H 0.5537 0.0063 0.2322
C22 C 0.4707(4) 0.1025(5) 0.22555(16)
H21 H 0.4222 0.0735 0.2125
C23 C 0.4643(3) 0.1861(5) 0.23329(18)
H22 H 0.4116 0.2130 0.2254
C24 C 0.5367(5) 0.2294(3) 0.25283(19)
C25 C 0.7288(8) -0.0019(9) 0.2414(4)
H23 H 0.7900 -0.0127 0.2474
H24 H 0.7135 0.0194 0.2134
H25 H 0.6975 -0.0519 0.2438
C26 C 0.7061(6) 0.0593(7) 0.2718(3)
H26 H 0.7509 0.1016 0.2726
C27 C 0.7101(6) 0.0369(6) 0.3151(3)
H27 H 0.6626 0.0011 0.3177
H28 H 0.7066 0.0856 0.3316
H29 H 0.7639 0.0092 0.3250
C28 C 0.4492(10) 0.3570(9) 0.2353(5)
H30 H 0.3971 0.3331 0.2419
H31 H 0.4520 0.3469 0.2063
H32 H 0.4488 0.4152 0.2402
C29 C 0.5210(9) 0.3290(7) 0.3045(4)
H33 H 0.5133 0.2850 0.3219
H34 H 0.5190 0.3826 0.3143
C30 C 0.71377(15) 0.5169(3) 0.05852(13)
C31 C 0.6627(2) 0.4591(2) 0.07455(13)
N2 N 0.5735(2) 0.4705(3) 0.06983(12)
C32 C 0.53536(15) 0.5395(3) 0.04909(13)
C33 C 0.5864(2) 0.5973(3) 0.03306(12)
N3 N 0.6756(2) 0.5859(2) 0.03778(12)
N4 N 0.9452(3) 0.4510(4) 0.12321(18)
C34 C 0.44488(17) 0.5462(3) 0.04776(13)
C35 C 0.3976(2) 0.4923(3) 0.06838(13)
H35 H 0.4251 0.4480 0.0832
C36 C 0.3092(2) 0.5048(3) 0.06688(14)
C37 C 0.26814(18) 0.5711(3) 0.04476(15)
H36 H 0.2090 0.5794 0.0438
C38 C 0.3154(3) 0.6250(3) 0.02413(14)
C39 C 0.4038(3) 0.6126(3) 0.02564(14)
O1 O 0.8453(3) 0.2449(4) 0.32269(15)
C40 C 0.4549(3) 0.6709(3) 0.00647(14)
C41 C 0.4120(2) 0.7364(3) -0.01564(15)
C42 C 0.4586(3) 0.7949(3) -0.03379(14)
H37 H 0.4299 0.8387 -0.0486
C43 C 0.5482(3) 0.7880(3) -0.02984(15)
C44 C 0.5911(2) 0.7225(3) -0.00773(15)
H38 H 0.6511 0.7178 -0.0051
C45 C 0.5445(3) 0.6640(3) 0.01042(13)
C46 C 0.2741(4) 0.6919(5) 0.0004(2)
H39 H 0.2145 0.6991 -0.0018
C47 C 0.3213(4) 0.7461(5) -0.0193(2)
H40 H 0.2934 0.7891 -0.0351
C48 C 0.2589(4) 0.4476(6) 0.0925(3)
C49 C 0.2889(5) 0.4566(8) 0.1390(3)
H41 H 0.2696 0.4102 0.1532
H42 H 0.2652 0.5061 0.1486
H43 H 0.3511 0.4593 0.1449
C50 C 0.2752(5) 0.3619(6) 0.0818(3)
H44 H 0.3361 0.3504 0.0890
H45 H 0.2564 0.3534 0.0523
H46 H 0.2437 0.3258 0.0972
C51 C 0.1627(4) 0.4623(6) 0.0850(3)
H47 H 0.1387 0.4487 0.0564
H48 H 0.1514 0.5191 0.0900
H49 H 0.1363 0.4285 0.1036
C52 C 0.5995(5) 0.8563(6) -0.0483(3)
C53 C 0.5788(6) 0.9426(6) -0.0313(3)
H50 H 0.6016 0.9458 -0.0018
H51 H 0.5171 0.9506 -0.0357
H52 H 0.6050 0.9845 -0.0459
C54 C 0.5719(6) 0.8535(6) -0.0975(3)
H53 H 0.6053 0.8928 -0.1101
H54 H 0.5113 0.8665 -0.1049
H55 H 0.5822 0.7994 -0.1075
C55 C 0.6976(5) 0.8448(5) -0.0401(3)
H56 H 0.7187 0.8465 -0.0104
H57 H 0.7242 0.8879 -0.0536
H58 H 0.7117 0.7926 -0.0510
C56 C 1.0463(3) 0.5231(2) 0.16190(15)
C57 C 1.00985(19) 0.5648(3) 0.12564(12)
N5 N 1.0419(3) 0.6413(3) 0.11687(11)
C58 C 1.1104(3) 0.6761(2) 0.14436(16)
C59 C 1.1469(2) 0.6344(3) 0.18062(13)
N6 N 1.1149(2) 0.5578(3) 0.18939(10)
O2 O 0.6905(3) 0.2260(4) 0.28643(16)
C60 C 1.2181(2) 0.6664(4) 0.21074(15)
C61 C 1.2504(3) 0.6276(3) 0.24849(18)
H59 H 1.2285 0.5768 0.2546
C62 C 1.3155(3) 0.6647(4) 0.27707(13)
C63 C 1.3483(2) 0.7407(4) 0.26790(16)
H60 H 1.3919 0.7655 0.2870
C64 C 1.3160(3) 0.7795(3) 0.2302(2)
C65 C 1.2510(3) 0.7424(4) 0.20157(14)
O3 O 0.9133(2) 0.3156(3) 0.08698(13)
C66 C 1.2170(3) 0.7827(4) 0.16052(16)
C67 C 1.2542(3) 0.8565(4) 0.15121(19)
C68 C 1.2226(4) 0.8973(3) 0.1139(2)
H61 H 1.2475 0.9466 0.1077
C69 C 1.1537(4) 0.8642(4) 0.08597(18)
C70 C 1.1165(3) 0.7905(4) 0.09528(19)
H62 H 1.0704 0.7684 0.0766
C71 C 1.1482(3) 0.7497(3) 0.1326(2)
C72 C 1.3242(5) 0.8952(6) 0.1805(3)
H63 H 1.3502 0.9438 0.1740
C73 C 1.3496(5) 0.8554(6) 0.2186(3)
H64 H 1.3921 0.8806 0.2381
C74 C 1.3490(5) 0.6208(7) 0.3173(3)
C75 C 1.4377(6) 0.6535(7) 0.3388(3)
H65 H 1.4796 0.6452 0.3207
H66 H 1.4558 0.6246 0.3647
H67 H 1.4332 0.7111 0.3444
C76 C 1.2845(6) 0.6320(8) 0.3470(3)
H68 H 1.2725 0.6894 0.3496
H69 H 1.3085 0.6101 0.3740
H70 H 1.2317 0.6035 0.3360
C77 C 1.3616(5) 0.5275(7) 0.3122(3)
H71 H 1.3162 0.5065 0.2911
H72 H 1.3597 0.5005 0.3384
H73 H 1.4168 0.5175 0.3040
C78 C 1.1122(7) 0.9118(9) 0.0436(4)
C79 C 1.0199(10) 0.9336(12) 0.0518(5)
H74 H 0.9947 0.9746 0.0321
H75 H 1.0238 0.9544 0.0799
H76 H 0.9843 0.8852 0.0486
C80 C 1.1030(11) 0.8610(8) 0.0032(4)
H77 H 1.1112 0.8958 -0.0197
H78 H 1.0461 0.8370 -0.0025
H79 H 1.1458 0.8182 0.0066
C81 C 1.1628(13) 0.9903(11) 0.0395(6)
H80 H 1.1682 1.0211 0.0651
H81 H 1.1326 1.0227 0.0167
H82 H 1.2195 0.9767 0.0340
C82 C 0.9645(3) 0.3213(3) 0.05679(13)
C83 C 1.0275(3) 0.2614(3) 0.05621(14)
H83 H 1.0366 0.2215 0.0771
C84 C 1.0770(3) 0.2610(3) 0.02441(17)
H84 H 1.1192 0.2209 0.0240
C85 C 1.0635(3) 0.3206(3) -0.00681(14)
H85 H 1.0966 0.3204 -0.0281
C86 C 1.0005(3) 0.3806(3) -0.00624(13)
H86 H 0.9914 0.4205 -0.0271
C87 C 0.9510(2) 0.3809(3) 0.02556(15)
H87 H 0.9088 0.4211 0.0259
C88 C 0.9391(4) 0.5232(5) 0.1033(2)
C89 C 0.9989(4) 0.4476(5) 0.1608(2)
C90 C 0.9178(4) 0.3530(5) 0.1868(2)
C91 C 0.7775(4) 0.3253(5) 0.1541(2)
C92 C 0.7202(4) 0.4008(5) 0.0958(2)
C93 C 0.8010(3) 0.5028(5) 0.0707(2)
N7 N 0.9897(3) 0.3976(4) 0.19217(17)
N8 N 0.8596(3) 0.3495(4) 0.14856(18)
N9 N 0.7076(3) 0.3496(4) 0.12575(18)
N10 N 0.8018(3) 0.4260(4) 0.08919(16)
C94 C 0.5348(8) 0.3152(7) 0.2654(4)
H88 H 0.5879 0.3431 0.2609
loop_
_geom_bond_atom_site_label_1
_geom_bond_atom_site_label_2
_geom_bond_site_symmetry_1
_geom_bond_site_symmetry_2
B1 N4 1_555 1_555
C1 C2 1_555 1_555
C2 C3 1_555 1_555
C3 H1 1_555 1_555
C4 C3 1_555 1_555
C5 C4 1_555 1_555
C6 C1 1_555 1_555
H2 C6 1_555 1_555
N1 C88 1_555 1_555
C7 C8 1_555 1_555
C8 C9 1_555 1_555
C9 H3 1_555 1_555
C10 C9 1_555 1_555
H4 C10 1_555 1_555
C11 C10 1_555 1_555
H5 C11 1_555 1_555
C12 C7 1_555 1_555
C13 H6 1_555 1_555
H7 C13 1_555 1_555
H8 C13 1_555 1_555
C14 C8 1_555 1_555
H9 C14 1_555 1_555
C15 C14 1_555 1_555
H10 C15 1_555 1_555
H11 C15 1_555 1_555
H12 C15 1_555 1_555
C16 H13 1_555 1_555
H14 C16 1_555 1_555
H15 C16 1_555 1_555
C17 C12 1_555 1_555
H16 C17 1_555 1_555
C18 C17 1_555 1_555
H17 C18 1_555 1_555
H18 C18 1_555 1_555
H19 C18 1_555 1_555
C19 C20 1_555 1_555
C20 C21 1_555 1_555
C21 H20 1_555 1_555
C22 C21 1_555 1_555
H21 C22 1_555 1_555
C23 C22 1_555 1_555
H22 C23 1_555 1_555
C24 C19 1_555 1_555
C25 H23 1_555 1_555
H24 C25 1_555 1_555
H25 C25 1_555 1_555
C26 C20 1_555 1_555
H26 C26 1_555 1_555
C27 C26 1_555 1_555
H27 C27 1_555 1_555
H28 C27 1_555 1_555
H29 C27 1_555 1_555
C28 H30 1_555 1_555
H31 C28 1_555 1_555
H32 C28 1_555 1_555
C29 H33 1_555 1_555
H34 C29 1_555 1_555
C30 C31 1_555 1_555
C31 N2 1_555 1_555
N2 C32 1_555 1_555
C32 C33 1_555 1_555
C33 N3 1_555 1_555
N3 C30 1_555 1_555
N4 C88 1_555 1_555
C34 C32 1_555 1_555
C35 C34 1_555 1_555
H35 C35 1_555 1_555
C36 C35 1_555 1_555
C37 C36 1_555 1_555
H36 C37 1_555 1_555
C38 C37 1_555 1_555
C39 C34 1_555 1_555
O1 C4 1_555 1_555
C40 C39 1_555 1_555
C41 C40 1_555 1_555
C42 C41 1_555 1_555
H37 C42 1_555 1_555
C43 C42 1_555 1_555
C44 C43 1_555 1_555
H38 C44 1_555 1_555
C45 C33 1_555 1_555
C46 C38 1_555 1_555
H39 C46 1_555 1_555
C47 C41 1_555 1_555
H40 C47 1_555 1_555
C48 C36 1_555 1_555
C49 C48 1_555 1_555
H41 C49 1_555 1_555
H42 C49 1_555 1_555
H43 C49 1_555 1_555
C50 C48 1_555 1_555
H44 C50 1_555 1_555
H45 C50 1_555 1_555
H46 C50 1_555 1_555
C51 C48 1_555 1_555
H47 C51 1_555 1_555
H48 C51 1_555 1_555
H49 C51 1_555 1_555
C52 C43 1_555 1_555
C53 C52 1_555 1_555
H50 C53 1_555 1_555
H51 C53 1_555 1_555
H52 C53 1_555 1_555
C54 C52 1_555 1_555
H53 C54 1_555 1_555
H54 C54 1_555 1_555
H55 C54 1_555 1_555
C55 C52 1_555 1_555
H56 C55 1_555 1_555
H57 C55 1_555 1_555
H58 C55 1_555 1_555
C56 C57 1_555 1_555
C57 N5 1_555 1_555
N5 C58 1_555 1_555
C58 C59 1_555 1_555
C59 N6 1_555 1_555
N6 C56 1_555 1_555
O2 C5 1_555 1_555
C60 C59 1_555 1_555
C61 C60 1_555 1_555
H59 C61 1_555 1_555
C62 C61 1_555 1_555
C63 C62 1_555 1_555
H60 C63 1_555 1_555
C64 C63 1_555 1_555
C65 C60 1_555 1_555
O3 B1 1_555 1_555
C66 C65 1_555 1_555
C67 C66 1_555 1_555
C68 C67 1_555 1_555
H61 C68 1_555 1_555
C69 C68 1_555 1_555
C70 C69 1_555 1_555
H62 C70 1_555 1_555
C71 C58 1_555 1_555
C72 C67 1_555 1_555
H63 C72 1_555 1_555
C73 C64 1_555 1_555
H64 C73 1_555 1_555
C74 C62 1_555 1_555
C75 C74 1_555 1_555
H65 C75 1_555 1_555
H66 C75 1_555 1_555
H67 C75 1_555 1_555
C76 C74 1_555 1_555
H68 C76 1_555 1_555
H69 C76 1_555 1_555
H70 C76 1_555 1_555
C77 C74 1_555 1_555
H71 C77 1_555 1_555
H72 C77 1_555 1_555
H73 C77 1_555 1_555
C78 C69 1_555 1_555
C79 C78 1_555 1_555
H74 C79 1_555 1_555
H75 C79 1_555 1_555
H76 C79 1_555 1_555
C80 C78 1_555 1_555
H77 C80 1_555 1_555
H78 C80 1_555 1_555
H79 C80 1_555 1_555
C81 C78 1_555 1_555
H80 C81 1_555 1_555
H81 C81 1_555 1_555
H82 C81 1_555 1_555
C82 O3 1_555 1_555
C83 C82 1_555 1_555
H83 C83 1_555 1_555
C84 C83 1_555 1_555
H84 C84 1_555 1_555
C85 C84 1_555 1_555
H85 C85 1_555 1_555
C86 C85 1_555 1_555
H86 C86 1_555 1_555
C87 C82 1_555 1_555
H87 C87 1_555 1_555
C88 C57 1_555 1_555
C89 N4 1_555 1_555
C90 C2 1_555 1_555
C91 C1 1_555 1_555
C92 C31 1_555 1_555
C93 N1 1_555 1_555
N7 C89 1_555 1_555
N8 B1 1_555 1_555
N9 C91 1_555 1_555
N10 B1 1_555 1_555
C94 C24 1_555 1_555
H88 C94 1_555 1_555
C5 C6 1_555 1_555
C7 O1 1_555 1_555
C11 C12 1_555 1_555
C13 C14 1_555 1_555
C16 C17 1_555 1_555
C19 O2 1_555 1_555
C23 C24 1_555 1_555
C25 C26 1_555 1_555
C28 C94 1_555 1_555
C29 C94 1_555 1_555
C30 C93 1_555 1_555
C38 C39 1_555 1_555
C40 C45 1_555 1_555
C44 C45 1_555 1_555
C46 C47 1_555 1_555
C56 C89 1_555 1_555
C64 C65 1_555 1_555
C66 C71 1_555 1_555
C70 C71 1_555 1_555
C72 C73 1_555 1_555
C86 C87 1_555 1_555
C90 N7 1_555 1_555
C90 N8 1_555 1_555
C91 N8 1_555 1_555
C92 N9 1_555 1_555
C92 N10 1_555 1_555
C93 N10 1_555 1_555

#END
