
#######################################################################
#
#                 Cambridge Crystallographic Data Centre
#                                CCDC 
#
#######################################################################
#
# If this CIF has been generated from an entry in the Cambridge 
# Structural Database, then it will include bibliographic, chemical, 
# crystal, experimental, refinement or atomic coordinate data resulting 
# from the CCDC's data processing and validation procedures.
#
#######################################################################

data_UQEKUY
_chemical_name_common            
'5,11,17,23-tetrakis(cyclohexylammoniomethyl)-C-n-propylcalix(4)resorcinarene trichloride tri-iodide 1,4-dioxane solvate monohydrate'
_chemical_formula_moiety         
'C68 H104 N4 O8 4+,I3 1-,3(Cl1 1-),1.5(C4 H8 O2),H2 O1'
_chemical_name_systematic        
'2,8,14,20-tetra-n-propyl-4,6,10,12,16,18,22,24-octahydroxy-5,11,17,23-tetrakis(cyclohexylammoniomethyl)calix(4)arene trichloride tri-iodide 1,4-dioxane solvate monohydrate'
_symmetry_cell_setting           triclinic
_symmetry_space_group_name_H-M   'P -1'
_symmetry_Int_Tables_number      2
_space_group_name_Hall           '-P 1'
loop_
_symmetry_equiv_pos_site_id
_symmetry_equiv_pos_as_xyz
1 x,y,z
2 -x,-y,-z
_cell_length_a                   12.0439(8)
_cell_length_b                   13.1940(5)
_cell_length_c                   25.6543(10)
_cell_angle_alpha                102.364(3)
_cell_angle_beta                 93.086(5)
_cell_angle_gamma                90.337(4)
_cell_volume                     3975.7
_exptl_crystal_colour            orange
_exptl_crystal_description       plate
_cell_formula_units_Z            2
loop_
_atom_site_label
_atom_site_type_symbol
_atom_site_fract_x
_atom_site_fract_y
_atom_site_fract_z
C1 C 0.4113(8) 1.1819(7) 0.1496(4)
C2 C 0.4518(10) 1.2489(8) 0.1212(4)
C3 C 0.5585(10) 1.2904(8) 0.1309(4)
C4 C 0.6266(9) 1.2642(8) 0.1714(4)
C5 C 0.5877(9) 1.2003(8) 0.2036(4)
C6 C 0.4773(9) 1.1596(7) 0.1911(4)
H1 H 0.4482 1.1156 0.2121
C7 C 0.6035(10) 1.3635(9) 0.0991(4)
H2 H 0.5428 1.4073 0.0892
H3 H 0.6611 1.4097 0.1212
C8 C 0.6884(11) 1.3723(9) 0.0134(4)
H4 H 0.6239 1.4135 0.0039
C9 C 0.7293(12) 1.3032(9) -0.0377(4)
H5 H 0.7950 1.2642 -0.0287
H6 H 0.6701 1.2526 -0.0546
C10 C 0.7599(14) 1.3701(11) -0.0760(5)
H7 H 0.6937 1.4080 -0.0855
H8 H 0.7854 1.3257 -0.1092
C11 C 0.8536(15) 1.4486(12) -0.0496(6)
H9 H 0.9217 1.4105 -0.0430
H10 H 0.8711 1.4943 -0.0742
C12 C 0.8186(14) 1.5134(10) 0.0022(6)
H11 H 0.7553 1.5567 -0.0052
H12 H 0.8809 1.5605 0.0190
C13 C 0.7846(13) 1.4477(10) 0.0410(5)
H13 H 0.7594 1.4929 0.0740
H14 H 0.8488 1.4076 0.0508
C14 C 0.6595(9) 1.1750(8) 0.2487(4)
H15 H 0.7367 1.1986 0.2440
C15 C 0.6659(10) 1.0584(8) 0.2480(5)
H16 H 0.7101 1.0484 0.2802
H17 H 0.5901 1.0300 0.2493
C16 C 0.7190(11) 0.9998(9) 0.1982(5)
H18 H 0.7113 0.9244 0.1966
H19 H 0.6775 1.0148 0.1664
C17 C 0.8402(12) 1.0260(13) 0.1953(9)
H20 H 0.8553 1.0290 0.1585
H21 H 0.8860 0.9726 0.2066
H22 H 0.8581 1.0935 0.2190
C18 C 0.6255(8) 1.2383(7) 0.3029(4)
C19 C 0.6656(8) 1.3401(7) 0.3194(4)
C20 C 0.6372(8) 1.4008(7) 0.3693(4)
C21 C 0.5620(9) 1.3622(8) 0.3992(4)
C22 C 0.5180(8) 1.2612(7) 0.3834(4)
C23 C 0.5531(9) 1.2011(8) 0.3345(4)
H23 H 0.5253 1.1319 0.3230
C24 C 0.6870(9) 1.5099(8) 0.3865(5)
H24 H 0.6821 1.5351 0.4256
H25 H 0.7665 1.5093 0.3784
C25 C 0.6909(10) 1.6778(8) 0.3569(5)
H26 H 0.7647 1.6588 0.3419
C26 C 0.6251(16) 1.7347(11) 0.3207(8)
H27 H 0.5500 1.7493 0.3341
H28 H 0.6163 1.6902 0.2843
C27 C 0.6841(16) 1.8379(12) 0.3181(7)
H29 H 0.7583 1.8239 0.3036
H30 H 0.6399 1.8745 0.2945
C28 C 0.6961(13) 1.9042(10) 0.3741(8)
H31 H 0.7339 1.9707 0.3735
H32 H 0.6216 1.9197 0.3881
C29 C 0.7626(14) 1.8477(10) 0.4097(6)
H33 H 0.7707 1.8919 0.4461
H34 H 0.8379 1.8352 0.3962
C30 C 0.7086(12) 1.7439(9) 0.4125(5)
H35 H 0.7572 1.7076 0.4346
H36 H 0.6364 1.7561 0.4292
C31 C 0.4356(9) 1.2204(7) 0.4164(4)
H37 H 0.4558 1.2537 0.4546
C32 C 0.4424(10) 1.1023(8) 0.4120(4)
H38 H 0.4216 1.0664 0.3747
H39 H 0.5203 1.0846 0.4202
C33 C 0.3670(12) 1.0619(9) 0.4495(5)
H40 H 0.3869 1.0978 0.4869
H41 H 0.2887 1.0777 0.4410
C34 C 0.3784(14) 0.9458(10) 0.4442(5)
H42 H 0.3615 0.9104 0.4069
H43 H 0.3263 0.9214 0.4671
H44 H 0.4546 0.9305 0.4551
C35 C 0.3186(9) 1.2557(8) 0.4042(4)
C36 C 0.2707(9) 1.3448(8) 0.4347(4)
C37 C 0.1658(10) 1.3781(8) 0.4228(4)
C38 C 0.1013(9) 1.3179(8) 0.3787(4)
C39 C 0.1437(9) 1.2275(7) 0.3483(4)
C40 C 0.2528(9) 1.1996(8) 0.3605(4)
H45 H 0.2833 1.1404 0.3384
C41 C 0.1203(10) 1.4735(9) 0.4558(5)
H46 H 0.1402 1.4756 0.4939
H47 H 0.0382 1.4708 0.4508
C42 C 0.1235(13) 1.6706(10) 0.4779(5)
H48 H 0.0421 1.6627 0.4823
C43 C 0.1832(13) 1.6870(11) 0.5319(5)
H49 H 0.2645 1.6919 0.5285
H50 H 0.1678 1.6280 0.5489
C44 C 0.1404(17) 1.7911(13) 0.5672(6)
H51 H 0.0610 1.7825 0.5737
H52 H 0.1829 1.8066 0.6021
C45 C 0.1535(18) 1.8780(14) 0.5404(7)
H53 H 0.2335 1.8891 0.5360
H54 H 0.1257 1.9419 0.5633
C46 C 0.0929(19) 1.8595(14) 0.4875(9)
H55 H 0.1030 1.9199 0.4709
H56 H 0.0124 1.8499 0.4914
C47 C 0.1405(14) 1.7588(12) 0.4512(6)
H57 H 0.1011 1.7443 0.4154
H58 H 0.2207 1.7687 0.4467
C48 C 0.0732(10) 1.1622(8) 0.3008(4)
H59 H -0.0066 1.1782 0.3072
C49 C 0.0868(11) 1.0452(8) 0.2966(4)
H60 H 0.0502 1.0074 0.2624
H61 H 0.1669 1.0290 0.2960
C50 C 0.0375(12) 1.0067(9) 0.3425(5)
H62 H 0.0730 1.0452 0.3768
H63 H -0.0431 1.0212 0.3427
C51 C 0.0540(13) 0.8929(11) 0.3379(7)
H64 H 0.0142 0.8543 0.3053
H65 H 0.0250 0.8720 0.3691
H66 H 0.1335 0.8780 0.3363
C52 C 0.0998(9) 1.1967(7) 0.2502(4)
C53 C 0.0414(8) 1.2753(8) 0.2331(4)
C54 C 0.0644(9) 1.3123(8) 0.1886(4)
C55 C 0.1501(9) 1.2658(8) 0.1574(4)
C56 C 0.2082(9) 1.1836(7) 0.1709(4)
C57 C 0.1850(8) 1.1528(7) 0.2184(4)
H67 H 0.2287 1.1004 0.2292
C58 C 0.0030(10) 1.4007(8) 0.1754(5)
H68 H -0.0776 1.3837 0.1707
H69 H 0.0279 1.4152 0.1416
C59 C -0.0219(11) 1.5970(10) 0.2147(7)
H70 H -0.0087 1.6451 0.2503
C60 C -0.1438(11) 1.5913(11) 0.2042(6)
H71 H -0.1784 1.5718 0.2348
H72 H -0.1621 1.5358 0.1722
C61 C -0.1930(17) 1.6896(14) 0.1954(9)
H73 H -0.2721 1.6776 0.1828
H74 H -0.1893 1.7421 0.2294
C62 C -0.1314(13) 1.7276(12) 0.1555(7)
H75 H -0.1647 1.7932 0.1499
H76 H -0.1395 1.6763 0.1211
C63 C -0.0094(14) 1.7466(13) 0.1712(9)
H77 H 0.0285 1.7730 0.1434
H78 H 0.0008 1.7983 0.2054
C64 C 0.0375(15) 1.6441(14) 0.1771(10)
H79 H 0.0339 1.5959 0.1417
H80 H 0.1168 1.6542 0.1897
C65 C 0.2948(9) 1.1279(8) 0.1356(4)
H81 H 0.2725 1.1354 0.0985
C66 C 0.2994(10) 1.0111(8) 0.1333(4)
H82 H 0.3242 0.9997 0.1690
H83 H 0.3550 0.9800 0.1078
C67 C 0.1865(11) 0.9562(9) 0.1161(5)
H84 H 0.1959 0.8807 0.1134
H85 H 0.1342 0.9806 0.1445
C68 C 0.1344(16) 0.9727(14) 0.0636(7)
H86 H 0.1897 0.9600 0.0364
H87 H 0.1087 1.0442 0.0682
H88 H 0.0711 0.9245 0.0523
N1 N 0.6524(8) 1.3052(7) 0.0500(4)
H89 H 0.5968 1.2534 0.0302
H90 H 0.7174 1.2669 0.0603
N2 N 0.6255(8) 1.5795(7) 0.3577(4)
H91 H 0.5547 1.5984 0.3749
H92 H 0.6072 1.5419 0.3205
N3 N 0.1633(9) 1.5711(7) 0.4417(4)
H93 H 0.1389 1.5711 0.4042
H94 H 0.2456 1.5711 0.4441
N4 N 0.0244(8) 1.4963(7) 0.2209(5)
H95 H -0.0048 1.4802 0.2536
H96 H 0.1059 1.5059 0.2274
O1 O 0.3895(7) 1.2812(6) 0.0810(3)
H97 H 0.3218 1.2806 0.0873
O2 O 0.7339(7) 1.3058(6) 0.1822(3)
H98 H 0.7793 1.2631 0.1667
O3 O 0.7337(6) 1.3898(5) 0.2919(3)
H99 H 0.7229 1.3653 0.2590
O4 O 0.5322(7) 1.4209(5) 0.4474(3)
H100 H 0.5040 1.4764 0.4426
O5 O 0.3235(6) 1.4066(6) 0.4783(3)
H101 H 0.3919 1.4091 0.4737
O6 O -0.0053(6) 1.3477(6) 0.3658(3)
H102 H -0.0044 1.4110 0.3649
O7 O -0.0509(6) 1.3213(6) 0.2589(3)
H103 H -0.0399 1.3280 0.2921
O8 O 0.1808(7) 1.3031(6) 0.1135(3)
H104 H 0.1305 1.2886 0.0889
C69 C 0.4448(12) 1.5142(11) 0.2210(6)
H105 H 0.4356 1.4549 0.1900
H106 H 0.5020 1.5622 0.2132
C70 C 0.3381(12) 1.5685(11) 0.2297(7)
H107 H 0.3497 1.6311 0.2587
H108 H 0.3130 1.5914 0.1967
C71 C 0.2895(12) 1.4643(11) 0.2894(6)
H109 H 0.2323 1.4164 0.2973
H110 H 0.3008 1.5224 0.3209
C72 C 0.3960(11) 1.4084(11) 0.2787(7)
H111 H 0.4211 1.3807 0.3102
H112 H 0.3841 1.3493 0.2478
O9 O 0.4798(7) 1.4777(7) 0.2676(4)
O10 O 0.2527(7) 1.5037(7) 0.2435(5)
I1 I 0.36996(8) 1.89027(6) 0.26702(3)
I2 I 0.47583(7) 1.78296(5) 0.17251(3)
I3 I 0.57869(9) 1.66927(8) 0.07750(4)
C73 C 0.4319(13) 1.0758(11) -0.0126(7)
H113 H 0.4068 1.1210 -0.0370
H114 H 0.3844 1.0893 0.0184
C74 C 0.5825(15) 1.0349(11) 0.0410(5)
H115 H 0.5395 1.0480 0.0735
H116 H 0.6619 1.0503 0.0520
O11 O 0.5436(9) 1.1017(7) 0.0055(4)
C73A C 0.5681(13) 0.9242(11) 0.0126(7)
H113A H 0.5932 0.8790 0.0370
H114A H 0.6156 0.9107 -0.0184
C74A C 0.4175(15) 0.9651(11) -0.0410(5)
H115A H 0.4605 0.9520 -0.0735
H116A H 0.3381 0.9497 -0.0520
O11A O 0.4564(9) 0.8983(7) -0.0055(4)
O13 O 0.0439(12) 1.2678(16) 0.0327(5)
Cl1 Cl 0.4201(3) 1.6252(3) 0.42726(16)
Cl2 Cl -0.0103(3) 1.5630(2) 0.34795(15)
Cl3 Cl 0.8547(3) 1.1874(4) 0.08777(15)
O12? O 0.156(3) 1.095(3) -0.042(2)
O14? O 0.095(3) 1.222(3) -0.0076(15)
loop_
_geom_bond_atom_site_label_1
_geom_bond_atom_site_label_2
_geom_bond_site_symmetry_1
_geom_bond_site_symmetry_2
C1 C2 1_555 1_555
C2 C3 1_555 1_555
C3 C4 1_555 1_555
C4 C5 1_555 1_555
C5 C6 1_555 1_555
C6 C1 1_555 1_555
H1 C6 1_555 1_555
C7 C3 1_555 1_555
H2 C7 1_555 1_555
H3 C7 1_555 1_555
C8 H4 1_555 1_555
C9 C8 1_555 1_555
H5 C9 1_555 1_555
H6 C9 1_555 1_555
C10 C9 1_555 1_555
H7 C10 1_555 1_555
H8 C10 1_555 1_555
C11 C10 1_555 1_555
H9 C11 1_555 1_555
H10 C11 1_555 1_555
C12 C11 1_555 1_555
H11 C12 1_555 1_555
H12 C12 1_555 1_555
C13 C8 1_555 1_555
H13 C13 1_555 1_555
H14 C13 1_555 1_555
C14 C5 1_555 1_555
H15 C14 1_555 1_555
C15 C14 1_555 1_555
H16 C15 1_555 1_555
H17 C15 1_555 1_555
C16 C15 1_555 1_555
H18 C16 1_555 1_555
H19 C16 1_555 1_555
C17 C16 1_555 1_555
H20 C17 1_555 1_555
H21 C17 1_555 1_555
H22 C17 1_555 1_555
C18 C14 1_555 1_555
C19 C18 1_555 1_555
C20 C19 1_555 1_555
C21 C20 1_555 1_555
C22 C21 1_555 1_555
C23 C18 1_555 1_555
H23 C23 1_555 1_555
C24 C20 1_555 1_555
H24 C24 1_555 1_555
H25 C24 1_555 1_555
C25 H26 1_555 1_555
C26 C25 1_555 1_555
H27 C26 1_555 1_555
H28 C26 1_555 1_555
C27 C26 1_555 1_555
H29 C27 1_555 1_555
H30 C27 1_555 1_555
C28 C27 1_555 1_555
H31 C28 1_555 1_555
H32 C28 1_555 1_555
C29 C28 1_555 1_555
H33 C29 1_555 1_555
H34 C29 1_555 1_555
C30 C25 1_555 1_555
H35 C30 1_555 1_555
H36 C30 1_555 1_555
C31 C22 1_555 1_555
H37 C31 1_555 1_555
C32 C31 1_555 1_555
H38 C32 1_555 1_555
H39 C32 1_555 1_555
C33 C32 1_555 1_555
H40 C33 1_555 1_555
H41 C33 1_555 1_555
C34 C33 1_555 1_555
H42 C34 1_555 1_555
H43 C34 1_555 1_555
H44 C34 1_555 1_555
C35 C31 1_555 1_555
C36 C35 1_555 1_555
C37 C36 1_555 1_555
C38 C37 1_555 1_555
C39 C38 1_555 1_555
C40 C35 1_555 1_555
H45 C40 1_555 1_555
C41 C37 1_555 1_555
H46 C41 1_555 1_555
H47 C41 1_555 1_555
C42 H48 1_555 1_555
C43 C42 1_555 1_555
H49 C43 1_555 1_555
H50 C43 1_555 1_555
C44 C43 1_555 1_555
H51 C44 1_555 1_555
H52 C44 1_555 1_555
C45 C44 1_555 1_555
H53 C45 1_555 1_555
H54 C45 1_555 1_555
C46 C45 1_555 1_555
H55 C46 1_555 1_555
H56 C46 1_555 1_555
C47 C42 1_555 1_555
H57 C47 1_555 1_555
H58 C47 1_555 1_555
C48 C39 1_555 1_555
H59 C48 1_555 1_555
C49 C48 1_555 1_555
H60 C49 1_555 1_555
H61 C49 1_555 1_555
C50 C49 1_555 1_555
H62 C50 1_555 1_555
H63 C50 1_555 1_555
C51 C50 1_555 1_555
H64 C51 1_555 1_555
H65 C51 1_555 1_555
H66 C51 1_555 1_555
C52 C48 1_555 1_555
C53 C52 1_555 1_555
C54 C53 1_555 1_555
C55 C54 1_555 1_555
C56 C55 1_555 1_555
C57 C52 1_555 1_555
H67 C57 1_555 1_555
C58 C54 1_555 1_555
H68 C58 1_555 1_555
H69 C58 1_555 1_555
C59 H70 1_555 1_555
C60 C59 1_555 1_555
H71 C60 1_555 1_555
H72 C60 1_555 1_555
C61 C60 1_555 1_555
H73 C61 1_555 1_555
H74 C61 1_555 1_555
C62 C61 1_555 1_555
H75 C62 1_555 1_555
H76 C62 1_555 1_555
C63 C62 1_555 1_555
H77 C63 1_555 1_555
H78 C63 1_555 1_555
C64 C59 1_555 1_555
H79 C64 1_555 1_555
H80 C64 1_555 1_555
C65 C1 1_555 1_555
H81 C65 1_555 1_555
C66 C65 1_555 1_555
H82 C66 1_555 1_555
H83 C66 1_555 1_555
C67 C66 1_555 1_555
H84 C67 1_555 1_555
H85 C67 1_555 1_555
C68 C67 1_555 1_555
H86 C68 1_555 1_555
H87 C68 1_555 1_555
H88 C68 1_555 1_555
N1 C7 1_555 1_555
H89 N1 1_555 1_555
H90 N1 1_555 1_555
N2 C24 1_555 1_555
H91 N2 1_555 1_555
H92 N2 1_555 1_555
N3 C41 1_555 1_555
H93 N3 1_555 1_555
H94 N3 1_555 1_555
N4 C58 1_555 1_555
H95 N4 1_555 1_555
H96 N4 1_555 1_555
O1 C2 1_555 1_555
H97 O1 1_555 1_555
O2 C4 1_555 1_555
H98 O2 1_555 1_555
O3 C19 1_555 1_555
H99 O3 1_555 1_555
O4 C21 1_555 1_555
H100 O4 1_555 1_555
O5 C36 1_555 1_555
H101 O5 1_555 1_555
O6 C38 1_555 1_555
H102 O6 1_555 1_555
O7 C53 1_555 1_555
H103 O7 1_555 1_555
O8 C55 1_555 1_555
H104 O8 1_555 1_555
C69 H105 1_555 1_555
H106 C69 1_555 1_555
C70 C69 1_555 1_555
H107 C70 1_555 1_555
H108 C70 1_555 1_555
C71 H109 1_555 1_555
H110 C71 1_555 1_555
C72 C71 1_555 1_555
H111 C72 1_555 1_555
H112 C72 1_555 1_555
O9 C69 1_555 1_555
O10 C70 1_555 1_555
I1 I2 1_555 1_555
I2 I3 1_555 1_555
C73 H113 1_555 1_555
H114 C73 1_555 1_555
C74 H115 1_555 1_555
H116 C74 1_555 1_555
O11 C73 1_555 1_555
C73A C74 1_555 1_555
H113A C73A 1_555 1_555
H114A C73A 1_555 1_555
C74A C73 1_555 1_555
H115A C74A 1_555 1_555
H116A C74A 1_555 1_555
O11A C73A 1_555 1_555
C8 N1 1_555 1_555
C12 C13 1_555 1_555
C22 C23 1_555 1_555
C25 N2 1_555 1_555
C29 C30 1_555 1_555
C39 C40 1_555 1_555
C42 N3 1_555 1_555
C46 C47 1_555 1_555
C56 C57 1_555 1_555
C56 C65 1_555 1_555
C59 N4 1_555 1_555
C63 C64 1_555 1_555
C71 O10 1_555 1_555
C72 O9 1_555 1_555
C74 O11 1_555 1_555
C74A O11A 1_555 1_555

#END
