
#######################################################################
#
#                 Cambridge Crystallographic Data Centre
#                                CCDC 
#
#######################################################################
#
# If this CIF has been generated from an entry in the Cambridge 
# Structural Database, then it will include bibliographic, chemical, 
# crystal, experimental, refinement or atomic coordinate data resulting 
# from the CCDC's data processing and validation procedures.
#
#######################################################################

data_UQELAF
_chemical_name_common            
'5,11,17,23-tetrakis(cyclohexylammoniomethyl)-C-n-propylcalix(4)resorcinarene tribromide tri-iodide 1,4-dioxane solvate hydrate'
_chemical_formula_moiety         
'C68 H104 N4 O8 4+,I3 1-,3(Br1 1-),1.5(C4 H8 O2),1.8(H2 O1)'
_chemical_name_systematic        
'2,8,14,20-tetra-n-propyl-4,6,10,12,16,18,22,24-octahydroxy-5,11,17,23-tetrakis(cyclohexylammoniomethyl)calix(4)arene tribromide tri-iodide 1,4-dioxane solvate hydrate'
_symmetry_cell_setting           triclinic
_symmetry_space_group_name_H-M   'P -1'
_symmetry_Int_Tables_number      2
_space_group_name_Hall           '-P 1'
loop_
_symmetry_equiv_pos_site_id
_symmetry_equiv_pos_as_xyz
1 x,y,z
2 -x,-y,-z
_cell_length_a                   12.2171(3)
_cell_length_b                   13.1621(3)
_cell_length_c                   25.6541(6)
_cell_angle_alpha                77.8171(19)
_cell_angle_beta                 86.247(2)
_cell_angle_gamma                89.7322(18)
_cell_volume                     4023.52
_exptl_crystal_colour            brown
_exptl_crystal_description       plate
_cell_formula_units_Z            2
loop_
_atom_site_label
_atom_site_type_symbol
_atom_site_fract_x
_atom_site_fract_y
_atom_site_fract_z
C1 C -0.2927(6) 0.6864(5) -0.1694(3)
C2 C -0.3529(6) 0.7680(5) -0.1548(3)
C3 C -0.4366(6) 0.8147(5) -0.1854(3)
C4 C -0.4638(6) 0.7793(5) -0.2301(3)
C5 C -0.4019(6) 0.7005(5) -0.2477(3)
C6 C -0.3180(6) 0.6575(5) -0.2167(3)
H1 H -0.2758 0.6063 -0.2280
C7 C -0.5000(7) 0.9058(6) -0.1712(3)
H2 H -0.5779 0.8899 -0.1667
H3 H -0.4765 0.9201 -0.1381
C8 C -0.5237(8) 1.1028(6) -0.2093(4)
H4 H -0.5051 1.1531 -0.2427
C9 C -0.6459(8) 1.0996(8) -0.2014(4)
H5 H -0.6681 1.0464 -0.1702
H6 H -0.6766 1.0814 -0.2322
C10 C -0.6906(10) 1.2038(9) -0.1941(5)
H7 H -0.6757 1.2558 -0.2267
H8 H -0.7694 1.1986 -0.1864
C11 C -0.6405(9) 1.2337(8) -0.1515(4)
H9 H -0.6574 1.1818 -0.1190
H10 H -0.6717 1.2990 -0.1462
C12 C -0.5147(10) 1.2467(8) -0.1605(5)
H11 H -0.4845 1.2672 -0.1302
H12 H -0.4955 1.2993 -0.1924
C13 C -0.4701(9) 1.1398(8) -0.1669(5)
H13 H -0.3916 1.1453 -0.1756
H14 H -0.4827 1.0899 -0.1334
C14 C -0.4260(6) 0.6671(5) -0.2988(3)
H15 H -0.5031 0.6829 -0.3050
C15 C -0.4118(6) 0.5495(5) -0.2949(3)
H16 H -0.3343 0.5334 -0.2946
H17 H -0.4472 0.5125 -0.2614
C16 C -0.4594(7) 0.5110(6) -0.3406(3)
H18 H -0.5366 0.5286 -0.3416
H19 H -0.4226 0.5464 -0.3741
C17 C -0.4477(9) 0.3958(7) -0.3354(4)
H20 H -0.4721 0.3608 -0.2998
H21 H -0.3722 0.3797 -0.3423
H22 H -0.4914 0.3731 -0.3606
C18 C -0.3569(6) 0.7326(5) -0.3460(2)
C19 C -0.4008(6) 0.8235(5) -0.3773(3)
C20 C -0.3382(6) 0.8818(5) -0.4203(2)
C21 C -0.2322(6) 0.8510(5) -0.4331(2)
C22 C -0.1861(5) 0.7618(5) -0.4030(2)
C23 C -0.2519(6) 0.7059(5) -0.3597(2)
H23 H -0.2224 0.6470 -0.3388
C24 C -0.3824(6) 0.9773(5) -0.4562(3)
H24 H -0.3604 0.9762 -0.4931
H25 H -0.4619 0.9750 -0.4524
C25 C -0.3839(7) 1.1738(5) -0.4810(3)
H26 H -0.4624 1.1653 -0.4850
C26 C -0.3232(9) 1.1897(6) -0.5355(3)
H27 H -0.3358 1.1307 -0.5515
H28 H -0.2450 1.1956 -0.5321
C27 C -0.3649(11) 1.2902(7) -0.5714(4)
H29 H -0.3242 1.3025 -0.6060
H30 H -0.4417 1.2817 -0.5771
C28 C -0.3511(10) 1.3829(6) -0.5459(4)
H31 H -0.3799 1.4444 -0.5684
H32 H -0.2737 1.3948 -0.5428
C29 C -0.4109(11) 1.3648(7) -0.4906(4)
H33 H -0.4891 1.3582 -0.4937
H34 H -0.3987 1.4237 -0.4743
C30 C -0.3680(8) 1.2647(6) -0.4551(3)
H35 H -0.2907 1.2730 -0.4502
H36 H -0.4074 1.2521 -0.4202
C31 C -0.0701(6) 0.7263(5) -0.4170(2)
H37 H -0.0508 0.7602 -0.4543
C32 C -0.0641(6) 0.6074(5) -0.4137(2)
H38 H 0.0112 0.5892 -0.4217
H39 H -0.0853 0.5717 -0.3774
C33 C -0.1359(7) 0.5695(5) -0.4510(3)
H40 H -0.1154 0.6049 -0.4875
H41 H -0.2117 0.5862 -0.4428
C34 C -0.1255(9) 0.4517(6) -0.4463(4)
H42 H -0.1555 0.4161 -0.4117
H43 H -0.0496 0.4342 -0.4505
H44 H -0.1650 0.4310 -0.4735
C35 C 0.0134(5) 0.7630(5) -0.3834(2)
C36 C 0.0597(6) 0.8636(5) -0.4004(3)
C37 C 0.1316(5) 0.9036(5) -0.3701(3)
C38 C 0.1581(5) 0.8423(5) -0.3208(3)
C39 C 0.1171(5) 0.7410(5) -0.3033(3)
C40 C 0.0455(5) 0.7048(5) -0.3353(3)
H45 H 0.0174 0.6377 -0.3239
C41 C 0.1823(6) 1.0095(5) -0.3867(3)
H46 H 0.1777 1.0348 -0.4248
H47 H 0.2591 1.0065 -0.3790
C42 C 0.1846(6) 1.1792(5) -0.3551(3)
H48 H 0.2551 1.1595 -0.3398
C43 C 0.1196(10) 1.2366(7) -0.3189(5)
H49 H 0.1110 1.1933 -0.2833
H50 H 0.0471 1.2509 -0.3319
C44 C 0.1758(12) 1.3390(8) -0.3164(5)
H51 H 0.2457 1.3250 -0.3006
H52 H 0.1304 1.3762 -0.2944
C45 C 0.1939(10) 1.4057(7) -0.3737(5)
H53 H 0.1238 1.4218 -0.3890
H54 H 0.2302 1.4706 -0.3726
C46 C 0.2634(9) 1.3466(6) -0.4075(4)
H55 H 0.3338 1.3317 -0.3923
H56 H 0.2762 1.3887 -0.4432
C47 C 0.2065(8) 1.2447(6) -0.4103(4)
H57 H 0.1378 1.2596 -0.4272
H58 H 0.2527 1.2069 -0.4317
C48 C 0.1509(6) 0.6762(5) -0.2500(3)
H59 H 0.2255 0.6984 -0.2455
C49 C 0.1559(6) 0.5588(5) -0.2490(3)
H60 H 0.0819 0.5311 -0.2470
H61 H 0.1934 0.5479 -0.2818
C50 C 0.2159(7) 0.5009(6) -0.2012(3)
H62 H 0.1876 0.5231 -0.1693
H63 H 0.2013 0.4270 -0.1962
C51 C 0.3394(8) 0.5199(8) -0.2086(5)
H64 H 0.3766 0.4579 -0.1924
H65 H 0.3582 0.5757 -0.1919
H66 H 0.3613 0.5380 -0.2460
C52 C 0.0791(6) 0.7007(5) -0.2040(3)
C53 C 0.1178(7) 0.7660(6) -0.1724(3)
C54 C 0.0516(7) 0.7924(6) -0.1311(3)
C55 C -0.0545(7) 0.7525(6) -0.1204(3)
C56 C -0.0947(6) 0.6815(5) -0.1487(3)
C57 C -0.0259(6) 0.6600(5) -0.1908(3)
H67 H -0.0522 0.6158 -0.2111
C58 C 0.0955(8) 0.8681(8) -0.0982(3)
H68 H 0.1493 0.9155 -0.1199
H69 H 0.0358 0.9086 -0.0866
C59 C 0.1862(7) 0.8725(6) -0.0154(3)
H70 H 0.1242 0.9130 -0.0049
C60 C 0.2272(7) 0.8029(7) 0.0345(3)
H71 H 0.1699 0.7543 0.0519
H72 H 0.2899 0.7635 0.0250
C61 C 0.2599(10) 0.8706(8) 0.0724(4)
H73 H 0.2861 0.8271 0.1045
H74 H 0.1965 0.9082 0.0828
C62 C 0.3518(12) 0.9494(10) 0.0448(5)
H75 H 0.3698 0.9932 0.0691
H76 H 0.4171 0.9112 0.0375
C63 C 0.3197(13) 1.0150(9) -0.0051(5)
H77 H 0.3821 1.0569 -0.0225
H78 H 0.2621 1.0616 0.0027
C64 C 0.2780(9) 0.9480(8) -0.0436(4)
H79 H 0.2505 0.9935 -0.0748
H80 H 0.3385 0.9089 -0.0556
C65 C -0.2069(6) 0.6316(5) -0.1345(2)
H81 H -0.2283 0.6397 -0.0981
C66 C -0.2042(7) 0.5133(5) -0.1323(3)
H82 H -0.1798 0.5022 -0.1674
H83 H -0.1502 0.4824 -0.1077
C67 C -0.3131(8) 0.4568(6) -0.1152(4)
H84 H -0.3644 0.4818 -0.1422
H85 H -0.3021 0.3834 -0.1141
C68 C -0.3641(12) 0.4685(9) -0.0622(5)
H86 H -0.3106 0.4541 -0.0359
H87 H -0.4246 0.4206 -0.0518
H88 H -0.3899 0.5383 -0.0648
N1 N -0.4773(5) 0.9995(5) -0.2166(3)
H89 H -0.4049 1.0070 -0.2226
H90 H -0.5033 0.9853 -0.2459
N2 N -0.3431(5) 1.0765(4) -0.4440(2)
H91 H -0.2701 1.0774 -0.4464
H92 H -0.3652 1.0782 -0.4104
N3 N 0.1226(5) 1.0826(5) -0.3566(3)
H93 H 0.0597 1.1007 -0.3716
H94 H 0.1061 1.0486 -0.3232
N4 N 0.1471(6) 0.8049(5) -0.0507(3)
H95 H 0.2035 0.7701 -0.0618
H96 H 0.0984 0.7589 -0.0322
O1 O -0.3253(5) 0.8042(5) -0.1103(2)
H97 H -0.3795 0.8018 -0.0895
O2 O -0.5511(4) 0.8253(4) -0.2557(2)
H98 H -0.5439 0.8225 -0.2874
O3 O -0.5064(4) 0.8507(4) -0.3642(2)
H99 H -0.5070 0.9110 -0.3604
O4 O -0.1790(4) 0.9117(4) -0.47677(19)
H100 H -0.1129 0.9107 -0.4729
O5 O 0.0287(5) 0.9245(4) -0.4481(2)
H101 H 0.0109 0.9800 -0.4377
O6 O 0.2265(4) 0.8905(4) -0.2930(2)
H102 H 0.2277 0.8568 -0.2622
O7 O 0.2216(5) 0.8095(5) -0.1843(2)
H103 H 0.2672 0.7674 -0.1713
O8 O -0.1167(6) 0.7833(5) -0.0802(2)
H104 H -0.1815 0.7847 -0.0868
C69 C -0.2173(8) 0.9692(8) -0.2883(4)
H105 H -0.2083 1.0268 -0.3189
H106 H -0.2725 0.9222 -0.2955
C70 C -0.1099(7) 0.9130(7) -0.2796(5)
H107 H -0.1201 0.8536 -0.2500
H108 H -0.0861 0.8877 -0.3113
C71 C -0.0628(8) 1.0153(9) -0.2218(4)
H109 H -0.0255 1.0038 -0.1907
C72 C -0.1676(8) 1.0719(8) -0.2288(4)
H110 H -0.1904 1.0944 -0.1961
H111 H -0.1570 1.1333 -0.2572
O9 O -0.2516(5) 1.0070(5) -0.2417(3)
O10 O -0.0272(5) 0.9812(5) -0.2682(3)
C73 C 0.0796(11) 0.5347(8) -0.0415(5)
H112 H 0.1565 0.5486 -0.0523
H113 H 0.0390 0.5479 -0.0735
C74 C -0.0650(10) 0.5779(8) 0.0137(4)
H114 H -0.1148 0.5935 -0.0148
H115 H -0.0850 0.6212 0.0391
O11 O 0.0421(7) 0.6033(6) -0.0078(3)
C73A C -0.0796(11) 0.4653(8) 0.0415(5)
H112A H -0.1565 0.4514 0.0523
H113A H -0.0390 0.4521 0.0735
C74A C 0.0650(10) 0.4221(8) -0.0137(4)
H114A H 0.1148 0.4065 0.0148
H115A H 0.0850 0.3788 -0.0391
O11A O -0.0421(7) 0.3967(6) 0.0078(3)
I1 I 0.07417(7) 1.17228(7) -0.07914(3)
I2 I -0.02902(4) 1.28609(4) -0.17316(2)
I3 I -0.13436(5) 1.39273(4) -0.26638(2)
O12 O -0.4588(7) 0.7486(9) -0.0269(3)
H116 H -0.4176 0.6951 -0.0058
H117 H -0.5218 0.7364 -0.0405
Br2 Br -0.64860(10) 0.66681(10) -0.09359(4)
O13 O -0.3433(12) 0.6103(12) 0.0477(5)
H118 H -0.3632 0.6182 0.0832
H119 H -0.2897 0.5548 0.0497
Br3 Br -0.52148(7) 1.07801(6) -0.34651(4)
Br4 Br -0.08630(7) 1.14605(7) -0.43070(4)
Br1? Br -0.6124(8) 0.7195(7) -0.0798(4)
loop_
_geom_bond_atom_site_label_1
_geom_bond_atom_site_label_2
_geom_bond_site_symmetry_1
_geom_bond_site_symmetry_2
C1 C2 1_555 1_555
C2 C3 1_555 1_555
C3 C4 1_555 1_555
C4 C5 1_555 1_555
C5 C6 1_555 1_555
C6 C1 1_555 1_555
H1 C6 1_555 1_555
C7 C3 1_555 1_555
H2 C7 1_555 1_555
H3 C7 1_555 1_555
C8 H4 1_555 1_555
C9 C8 1_555 1_555
H5 C9 1_555 1_555
H6 C9 1_555 1_555
C10 C9 1_555 1_555
H7 C10 1_555 1_555
H8 C10 1_555 1_555
C11 C10 1_555 1_555
H9 C11 1_555 1_555
H10 C11 1_555 1_555
C12 C11 1_555 1_555
H11 C12 1_555 1_555
H12 C12 1_555 1_555
C13 C8 1_555 1_555
H13 C13 1_555 1_555
H14 C13 1_555 1_555
C14 C5 1_555 1_555
H15 C14 1_555 1_555
C15 C14 1_555 1_555
H16 C15 1_555 1_555
H17 C15 1_555 1_555
C16 C15 1_555 1_555
H18 C16 1_555 1_555
H19 C16 1_555 1_555
C17 C16 1_555 1_555
H20 C17 1_555 1_555
H21 C17 1_555 1_555
H22 C17 1_555 1_555
C18 C14 1_555 1_555
C19 C18 1_555 1_555
C20 C19 1_555 1_555
C21 C20 1_555 1_555
C22 C21 1_555 1_555
C23 C18 1_555 1_555
H23 C23 1_555 1_555
C24 C20 1_555 1_555
H24 C24 1_555 1_555
H25 C24 1_555 1_555
C25 H26 1_555 1_555
C26 C25 1_555 1_555
H27 C26 1_555 1_555
H28 C26 1_555 1_555
C27 C26 1_555 1_555
H29 C27 1_555 1_555
H30 C27 1_555 1_555
C28 C27 1_555 1_555
H31 C28 1_555 1_555
H32 C28 1_555 1_555
C29 C28 1_555 1_555
H33 C29 1_555 1_555
H34 C29 1_555 1_555
C30 C25 1_555 1_555
H35 C30 1_555 1_555
H36 C30 1_555 1_555
C31 C22 1_555 1_555
H37 C31 1_555 1_555
C32 C31 1_555 1_555
H38 C32 1_555 1_555
H39 C32 1_555 1_555
C33 C32 1_555 1_555
H40 C33 1_555 1_555
H41 C33 1_555 1_555
C34 C33 1_555 1_555
H42 C34 1_555 1_555
H43 C34 1_555 1_555
H44 C34 1_555 1_555
C35 C31 1_555 1_555
C36 C35 1_555 1_555
C37 C36 1_555 1_555
C38 C37 1_555 1_555
C39 C38 1_555 1_555
C40 C35 1_555 1_555
H45 C40 1_555 1_555
C41 C37 1_555 1_555
H46 C41 1_555 1_555
H47 C41 1_555 1_555
C42 H48 1_555 1_555
C43 C42 1_555 1_555
H49 C43 1_555 1_555
H50 C43 1_555 1_555
C44 C43 1_555 1_555
H51 C44 1_555 1_555
H52 C44 1_555 1_555
C45 C44 1_555 1_555
H53 C45 1_555 1_555
H54 C45 1_555 1_555
C46 C45 1_555 1_555
H55 C46 1_555 1_555
H56 C46 1_555 1_555
C47 C42 1_555 1_555
H57 C47 1_555 1_555
H58 C47 1_555 1_555
C48 C39 1_555 1_555
H59 C48 1_555 1_555
C49 C48 1_555 1_555
H60 C49 1_555 1_555
H61 C49 1_555 1_555
C50 C49 1_555 1_555
H62 C50 1_555 1_555
H63 C50 1_555 1_555
C51 C50 1_555 1_555
H64 C51 1_555 1_555
H65 C51 1_555 1_555
H66 C51 1_555 1_555
C52 C48 1_555 1_555
C53 C52 1_555 1_555
C54 C53 1_555 1_555
C55 C54 1_555 1_555
C56 C55 1_555 1_555
C57 C52 1_555 1_555
H67 C57 1_555 1_555
C58 C54 1_555 1_555
H68 C58 1_555 1_555
H69 C58 1_555 1_555
C59 H70 1_555 1_555
C60 C59 1_555 1_555
H71 C60 1_555 1_555
H72 C60 1_555 1_555
C61 C60 1_555 1_555
H73 C61 1_555 1_555
H74 C61 1_555 1_555
C62 C61 1_555 1_555
H75 C62 1_555 1_555
H76 C62 1_555 1_555
C63 C62 1_555 1_555
H77 C63 1_555 1_555
H78 C63 1_555 1_555
C64 C59 1_555 1_555
H79 C64 1_555 1_555
H80 C64 1_555 1_555
C65 C1 1_555 1_555
H81 C65 1_555 1_555
C66 C65 1_555 1_555
H82 C66 1_555 1_555
H83 C66 1_555 1_555
C67 C66 1_555 1_555
H84 C67 1_555 1_555
H85 C67 1_555 1_555
C68 C67 1_555 1_555
H86 C68 1_555 1_555
H87 C68 1_555 1_555
H88 C68 1_555 1_555
N1 C7 1_555 1_555
H89 N1 1_555 1_555
H90 N1 1_555 1_555
N2 C24 1_555 1_555
H91 N2 1_555 1_555
H92 N2 1_555 1_555
N3 C41 1_555 1_555
H93 N3 1_555 1_555
H94 N3 1_555 1_555
N4 C58 1_555 1_555
H95 N4 1_555 1_555
H96 N4 1_555 1_555
O1 C2 1_555 1_555
H97 O1 1_555 1_555
O2 C4 1_555 1_555
H98 O2 1_555 1_555
O3 C19 1_555 1_555
H99 O3 1_555 1_555
O4 C21 1_555 1_555
H100 O4 1_555 1_555
O5 C36 1_555 1_555
H101 O5 1_555 1_555
O6 C38 1_555 1_555
H102 O6 1_555 1_555
O7 C53 1_555 1_555
H103 O7 1_555 1_555
O8 C55 1_555 1_555
H104 O8 1_555 1_555
C69 H105 1_555 1_555
H106 C69 1_555 1_555
C70 C69 1_555 1_555
H107 C70 1_555 1_555
H108 C70 1_555 1_555
C71 H109 1_555 1_555
C72 C71 1_555 1_555
H110 C72 1_555 1_555
H111 C72 1_555 1_555
O9 C69 1_555 1_555
O10 C70 1_555 1_555
C73 H112 1_555 1_555
H113 C73 1_555 1_555
C74 H114 1_555 1_555
H115 C74 1_555 1_555
O11 C73 1_555 1_555
I1 I2 1_555 1_555
I2 I3 1_555 1_555
O12 H116 1_555 1_555
H117 O12 1_555 1_555
O13 H118 1_555 1_555
H119 O13 1_555 1_555
C73A C74 1_555 1_555
H112A C73A 1_555 1_555
H113A C73A 1_555 1_555
C74A C73 1_555 1_555
H114A C74A 1_555 1_555
H115A C74A 1_555 1_555
O11A C73A 1_555 1_555
C8 N1 1_555 1_555
C12 C13 1_555 1_555
C22 C23 1_555 1_555
C25 N2 1_555 1_555
C29 C30 1_555 1_555
C39 C40 1_555 1_555
C42 N3 1_555 1_555
C46 C47 1_555 1_555
C56 C57 1_555 1_555
C56 C65 1_555 1_555
C59 N4 1_555 1_555
C63 C64 1_555 1_555
C71 O10 1_555 1_555
C72 O9 1_555 1_555
C74 O11 1_555 1_555
C74A O11A 1_555 1_555

#END
