
#######################################################################
#
#                 Cambridge Crystallographic Data Centre
#                                CCDC 
#
#######################################################################
#
# If this CIF has been generated from an entry in the Cambridge 
# Structural Database, then it will include bibliographic, chemical, 
# crystal, experimental, refinement or atomic coordinate data resulting 
# from the CCDC's data processing and validation procedures.
#
#######################################################################

data_UQELIN
_chemical_name_common            
'5,11,17,23-tetrakis(2-hydroxyethylammoniomethyl)-C-methylcalix(4)resorcinarene bromide pentaiodide unknown solvate'
_chemical_formula_moiety         'C44 H64 N4 O12 4+,0.5(I5 1-),3.5(Br1 1-)'
_chemical_name_systematic        
'2,8,14,20-tetramethyl-4,6,10,12,16,18,22,24-octahydroxy-5,11,17,23-tetrakis(2-hydroxyethylammoniomethyl)calix(4)arene bromide pentaiodide unknown solvate'
_symmetry_cell_setting           tetragonal
_symmetry_space_group_name_H-M   'P 4/n n c'
_symmetry_Int_Tables_number      126
_space_group_name_Hall           '-P 4a 2bc'
loop_
_symmetry_equiv_pos_site_id
_symmetry_equiv_pos_as_xyz
1 x,y,z
2 1/2-y,x,z
3 1/2-x,1/2-y,z
4 y,1/2-x,z
5 x,1/2-y,1/2-z
6 1/2-x,y,1/2-z
7 y,x,1/2-z
8 1/2-y,1/2-x,1/2-z
9 -x,-y,-z
10 1/2+y,-x,-z
11 1/2+x,1/2+y,-z
12 -y,1/2+x,-z
13 -x,1/2+y,1/2+z
14 1/2+x,-y,1/2+z
15 -y,-x,1/2+z
16 1/2+y,1/2+x,1/2+z
_cell_length_a                   12.3868(2)
_cell_length_b                   12.3868(2)
_cell_length_c                   36.9094(11)
_cell_angle_alpha                90
_cell_angle_beta                 90
_cell_angle_gamma                90
_cell_volume                     5663.11
_exptl_crystal_colour            yellow
_exptl_crystal_description       plate
_cell_formula_units_Z            4
loop_
_atom_site_label
_atom_site_type_symbol
_atom_site_fract_x
_atom_site_fract_y
_atom_site_fract_z
I1 I 0.7500 -0.2500 0.33647(6)
I2 I 0.7500 -0.2500 0.2500
I3 I 0.7500 -0.2500 0.41370(8)
I1D I 0.7500 -0.2500 0.16353(6)
I3D I 0.7500 -0.2500 0.08630(8)
Br1 Br 0.5989(3) 0.1350(4) 0.32562(13)
O1 O 0.2995(5) -0.1457(5) 0.40307(18)
H1 H 0.2363 -0.1471 0.4097
O2 O 0.6098(5) 0.0799(6) 0.4059(2)
H2 H 0.6060 0.0883 0.3839
C1 C 0.5263(8) 0.2029(7) 0.5074(2)
H3 H 0.5699 0.2604 0.5168
H4 H 0.5511 0.1353 0.5170
H5 H 0.4524 0.2141 0.5143
N1 N 0.4226(8) -0.0784(7) 0.3387(2)
H6 H 0.3560 -0.1030 0.3424
H7 H 0.4183 -0.0075 0.3351
C2 C 0.5090(6) 0.0513(6) 0.4193(2)
C3 C 0.3910(14) -0.1195(15) 0.2750(4)
H8 H 0.4232 -0.1506 0.2535
H9 H 0.3256 -0.1596 0.2804
C4 C 0.4509(7) -0.0339(7) 0.4040(2)
C5 C 0.4907(8) -0.0997(8) 0.3725(3)
H10 H 0.4873 -0.1758 0.3786
H11 H 0.5654 -0.0816 0.3675
C6 C 0.3505(6) -0.0598(6) 0.4187(2)
C7 C 0.3088(6) -0.0038(6) 0.4486(2)
C8 C 0.4718(6) 0.1083(6) 0.4490(2)
C9 C 0.3706(6) 0.0796(6) 0.4628(2)
H12 H 0.3434 0.1181 0.4824
C10 C 0.4673(12) -0.1300(12) 0.3058(4)
H13 H 0.4809 -0.2058 0.3106
H14 H 0.5354 -0.0962 0.2996
C11 C 0.5351(6) 0.2010(6) 0.4658(2)
H15 H 0.6113 0.1886 0.4599
O3 O 0.3638(12) -0.0082(12) 0.2681(3)
H16 H 0.3370 -0.0035 0.2463
O1A O 0.6457(5) 0.2995(5) 0.40307(18)
H1A H 0.6471 0.2363 0.4097
O2A O 0.4201(6) 0.6098(5) 0.4059(2)
H2A H 0.4117 0.6060 0.3839
C1A C 0.2971(7) 0.5263(8) 0.5074(2)
H3A H 0.2396 0.5699 0.5168
H4A H 0.3647 0.5511 0.5170
H5A H 0.2859 0.4524 0.5143
N1A N 0.5784(7) 0.4226(8) 0.3387(2)
H6A H 0.6030 0.3560 0.3424
H7A H 0.5075 0.4183 0.3351
C2A C 0.4487(6) 0.5090(6) 0.4193(2)
C3A C 0.6195(15) 0.3910(14) 0.2750(4)
H8A H 0.6506 0.4232 0.2535
H9A H 0.6596 0.3256 0.2804
C4A C 0.5339(7) 0.4509(7) 0.4040(2)
C5A C 0.5997(8) 0.4907(8) 0.3725(3)
H10A H 0.6758 0.4873 0.3786
H11A H 0.5816 0.5654 0.3675
C6A C 0.5598(6) 0.3505(6) 0.4187(2)
C7A C 0.5038(6) 0.3088(6) 0.4486(2)
C8A C 0.3917(6) 0.4718(6) 0.4490(2)
C9A C 0.4204(6) 0.3706(6) 0.4628(2)
H12A H 0.3819 0.3434 0.4824
C10A C 0.6300(12) 0.4673(12) 0.3058(4)
H13A H 0.7058 0.4809 0.3106
H14A H 0.5962 0.5354 0.2996
C11A C 0.2990(6) 0.5351(6) 0.4658(2)
H15A H 0.3114 0.6113 0.4599
O3A O 0.5082(12) 0.3638(12) 0.2681(3)
H16A H 0.5035 0.3370 0.2463
O1B O 0.2005(5) 0.6457(5) 0.40307(18)
H1B H 0.2637 0.6471 0.4097
O2B O -0.1098(5) 0.4201(6) 0.4059(2)
H2B H -0.1060 0.4117 0.3839
C1B C -0.0263(8) 0.2971(7) 0.5074(2)
H3B H -0.0699 0.2396 0.5168
H4B H -0.0511 0.3647 0.5170
H5B H 0.0476 0.2859 0.5143
N1B N 0.0774(8) 0.5784(7) 0.3387(2)
H6B H 0.1440 0.6030 0.3424
H7B H 0.0817 0.5075 0.3351
C2B C -0.0090(6) 0.4487(6) 0.4193(2)
C3B C 0.1090(14) 0.6195(15) 0.2750(4)
H8B H 0.0768 0.6506 0.2535
H9B H 0.1744 0.6596 0.2804
C4B C 0.0491(7) 0.5339(7) 0.4040(2)
C5B C 0.0093(8) 0.5997(8) 0.3725(3)
H10B H 0.0127 0.6758 0.3786
H11B H -0.0654 0.5816 0.3675
C6B C 0.1495(6) 0.5598(6) 0.4187(2)
C7B C 0.1912(6) 0.5038(6) 0.4486(2)
C8B C 0.0282(6) 0.3917(6) 0.4490(2)
C9B C 0.1294(6) 0.4204(6) 0.4628(2)
H12B H 0.1566 0.3819 0.4824
C10B C 0.0327(12) 0.6300(12) 0.3058(4)
H13B H 0.0191 0.7058 0.3106
H14B H -0.0354 0.5962 0.2996
C11B C -0.0351(6) 0.2990(6) 0.4658(2)
H15B H -0.1113 0.3114 0.4599
O3B O 0.1362(12) 0.5082(12) 0.2681(3)
H16B H 0.1630 0.5035 0.2463
O1C O -0.1457(5) 0.2005(5) 0.40307(18)
H1C H -0.1471 0.2637 0.4097
O2C O 0.0799(6) -0.1098(5) 0.4059(2)
H2C H 0.0883 -0.1060 0.3839
C1C C 0.2029(7) -0.0263(8) 0.5074(2)
H3C H 0.2604 -0.0699 0.5168
H4C H 0.1353 -0.0511 0.5170
H5C H 0.2141 0.0476 0.5143
N1C N -0.0784(7) 0.0774(8) 0.3387(2)
H6C H -0.1030 0.1440 0.3424
H7C H -0.0075 0.0817 0.3351
C2C C 0.0513(6) -0.0090(6) 0.4193(2)
C3C C -0.1195(15) 0.1090(14) 0.2750(4)
H8C H -0.1506 0.0768 0.2535
H9C H -0.1596 0.1744 0.2804
C4C C -0.0339(7) 0.0491(7) 0.4040(2)
C5C C -0.0997(8) 0.0093(8) 0.3725(3)
H10C H -0.1758 0.0127 0.3786
H11C H -0.0816 -0.0654 0.3675
C6C C -0.0598(6) 0.1495(6) 0.4187(2)
C7C C -0.0038(6) 0.1912(6) 0.4486(2)
C8C C 0.1083(6) 0.0282(6) 0.4490(2)
C9C C 0.0796(6) 0.1294(6) 0.4628(2)
H12C H 0.1181 0.1566 0.4824
C10C C -0.1300(12) 0.0327(12) 0.3058(4)
H13C H -0.2058 0.0191 0.3106
H14C H -0.0962 -0.0354 0.2996
C11C C 0.2010(6) -0.0351(6) 0.4658(2)
H15C H 0.1886 -0.1113 0.4599
O3C O -0.0082(12) 0.1362(12) 0.2681(3)
H16C H -0.0035 0.1630 0.2463
Br2? Br 0.5537(16) 0.1505(13) 0.3218(5)
loop_
_geom_bond_atom_site_label_1
_geom_bond_atom_site_label_2
_geom_bond_site_symmetry_1
_geom_bond_site_symmetry_2
I1 I2 1_555 1_555
I2 I1D 1_555 1_555
I3 I1 1_555 1_555
O1 H1 1_555 1_555
O2 H2 1_555 1_555
C1 H3 1_555 1_555
H4 C1 1_555 1_555
H5 C1 1_555 1_555
N1 H6 1_555 1_555
H7 N1 1_555 1_555
C2 O2 1_555 1_555
C3 H8 1_555 1_555
H9 C3 1_555 1_555
C4 C2 1_555 1_555
C5 N1 1_555 1_555
H10 C5 1_555 1_555
H11 C5 1_555 1_555
C6 O1 1_555 1_555
C7 C6 1_555 1_555
C8 C2 1_555 1_555
C9 C7 1_555 1_555
H12 C9 1_555 1_555
C10 N1 1_555 1_555
H13 C10 1_555 1_555
H14 C10 1_555 1_555
C11 C1 1_555 1_555
H15 C11 1_555 1_555
O3 C3 1_555 1_555
H16 O3 1_555 1_555
I1D I3D 1_555 1_555
O1A H1A 1_555 1_555
O2A H2A 1_555 1_555
C1A H3A 1_555 1_555
H4A C1A 1_555 1_555
H5A C1A 1_555 1_555
N1A H6A 1_555 1_555
H7A N1A 1_555 1_555
C2A O2A 1_555 1_555
C3A H8A 1_555 1_555
H9A C3A 1_555 1_555
C4A C2A 1_555 1_555
C5A N1A 1_555 1_555
H10A C5A 1_555 1_555
H11A C5A 1_555 1_555
C6A O1A 1_555 1_555
C7A C11 1_555 1_555
C8A C2A 1_555 1_555
C9A C7A 1_555 1_555
H12A C9A 1_555 1_555
C10A N1A 1_555 1_555
H13A C10A 1_555 1_555
H14A C10A 1_555 1_555
C11A C1A 1_555 1_555
H15A C11A 1_555 1_555
O3A C3A 1_555 1_555
H16A O3A 1_555 1_555
O1B H1B 1_555 1_555
O2B H2B 1_555 1_555
C1B H3B 1_555 1_555
H4B C1B 1_555 1_555
H5B C1B 1_555 1_555
N1B H6B 1_555 1_555
H7B N1B 1_555 1_555
C2B O2B 1_555 1_555
C3B H8B 1_555 1_555
H9B C3B 1_555 1_555
C4B C2B 1_555 1_555
C5B N1B 1_555 1_555
H10B C5B 1_555 1_555
H11B C5B 1_555 1_555
C6B O1B 1_555 1_555
C7B C11A 1_555 1_555
C8B C2B 1_555 1_555
C9B C7B 1_555 1_555
H12B C9B 1_555 1_555
C10B N1B 1_555 1_555
H13B C10B 1_555 1_555
H14B C10B 1_555 1_555
C11B C1B 1_555 1_555
H15B C11B 1_555 1_555
O3B C3B 1_555 1_555
H16B O3B 1_555 1_555
O1C H1C 1_555 1_555
O2C H2C 1_555 1_555
C1C H3C 1_555 1_555
H4C C1C 1_555 1_555
H5C C1C 1_555 1_555
N1C H6C 1_555 1_555
H7C N1C 1_555 1_555
C2C O2C 1_555 1_555
C3C H8C 1_555 1_555
H9C C3C 1_555 1_555
C4C C2C 1_555 1_555
C5C N1C 1_555 1_555
H10C C5C 1_555 1_555
H11C C5C 1_555 1_555
C6C O1C 1_555 1_555
C7C C11B 1_555 1_555
C8C C2C 1_555 1_555
C9C C7C 1_555 1_555
H12C C9C 1_555 1_555
C10C N1C 1_555 1_555
H13C C10C 1_555 1_555
H14C C10C 1_555 1_555
C11C C7 1_555 1_555
H15C C11C 1_555 1_555
O3C C3C 1_555 1_555
H16C O3C 1_555 1_555
C3 C10 1_555 1_555
C4 C5 1_555 1_555
C4 C6 1_555 1_555
C8 C9 1_555 1_555
C8 C11 1_555 1_555
C3A C10A 1_555 1_555
C4A C5A 1_555 1_555
C4A C6A 1_555 1_555
C6A C7A 1_555 1_555
C8A C9A 1_555 1_555
C8A C11A 1_555 1_555
C3B C10B 1_555 1_555
C4B C5B 1_555 1_555
C4B C6B 1_555 1_555
C6B C7B 1_555 1_555
C8B C9B 1_555 1_555
C8B C11B 1_555 1_555
C1C C11C 1_555 1_555
C3C C10C 1_555 1_555
C4C C5C 1_555 1_555
C4C C6C 1_555 1_555
C6C C7C 1_555 1_555
C8C C9C 1_555 1_555
C8C C11C 1_555 1_555

#END
