
#######################################################################
#
#                 Cambridge Crystallographic Data Centre
#                                CCDC 
#
#######################################################################
#
# If this CIF has been generated from an entry in the Cambridge 
# Structural Database, then it will include bibliographic, chemical, 
# crystal, experimental, refinement or atomic coordinate data resulting 
# from the CCDC's data processing and validation procedures.
#
#######################################################################

data_UQELEJ
_chemical_name_common            
'5,11,17,23-tetrakis(n-propylammoniomethyl)-C-n-propylcalix(4)resorcinarene tribromide tri-iodide methanol solvate'
_chemical_formula_moiety         'C56 H88 N4 O8 4+,2(C1 H4 O1),I3 1-,3(Br1 1-)'
_chemical_name_systematic        
'2,8,14,20-tetra-n-propyl-4,6,10,12,16,18,22,24-octahydroxy-5,11,17,23-tetrakis(n-propylammoniomethyl)calix(4)arene tribromide tri-iodide methanol solvate'
_symmetry_cell_setting           monoclinic
_symmetry_space_group_name_H-M   'P 21/n'
_symmetry_Int_Tables_number      14
_space_group_name_Hall           '-P 2yn'
loop_
_symmetry_equiv_pos_site_id
_symmetry_equiv_pos_as_xyz
1 x,y,z
2 1/2-x,1/2+y,1/2-z
3 -x,-y,-z
4 1/2+x,1/2-y,1/2+z
_cell_length_a                   15.0087(4)
_cell_length_b                   27.3833(5)
_cell_length_c                   16.3215(4)
_cell_angle_alpha                90
_cell_angle_beta                 91.343(2)
_cell_angle_gamma                90
_cell_volume                     6706.09
_exptl_crystal_colour            red
_exptl_crystal_description       needle
_cell_formula_units_Z            4
loop_
_atom_site_label
_atom_site_type_symbol
_atom_site_fract_x
_atom_site_fract_y
_atom_site_fract_z
C1 C 1.1018(7) 0.2977(3) 0.0764(6)
C2 C 1.1712(7) 0.3229(3) 0.0408(6)
C3 C 1.2465(7) 0.3370(3) 0.0870(6)
C4 C 1.2527(7) 0.3274(4) 0.1686(6)
C5 C 1.1824(7) 0.3026(3) 0.2085(6)
C6 C 1.1098(6) 0.2881(3) 0.1607(6)
H1 H 1.0641 0.2711 0.1856
C7 C 1.3236(8) 0.3580(4) 0.0403(6)
H2 H 1.3766 0.3578 0.0753
H3 H 1.3349 0.3374 -0.0067
C8 C 1.3698(8) 0.4272(5) -0.0519(7)
H4 H 1.3555 0.4609 -0.0648
H5 H 1.3628 0.4081 -0.1017
C9 C 1.4667(9) 0.4239(5) -0.0205(8)
H6 H 1.4830 0.3900 -0.0115
H7 H 1.4735 0.4412 0.0311
C10 C 1.5271(10) 0.4468(5) -0.0851(10)
H8 H 1.5096 0.4352 -0.1386
H9 H 1.5880 0.4379 -0.0735
H10 H 1.5215 0.4817 -0.0835
C11 C 1.1883(6) 0.2937(3) 0.3001(6)
H11 H 1.2518 0.2936 0.3157
C12 C 1.1505(7) 0.2427(3) 0.3240(6)
H12 H 1.0866 0.2427 0.3138
H13 H 1.1761 0.2182 0.2886
C13 C 1.1687(8) 0.2281(4) 0.4120(6)
H14 H 1.2325 0.2282 0.4230
H15 H 1.1418 0.2518 0.4480
C14 C 1.1319(10) 0.1781(4) 0.4293(8)
H16 H 1.1675 0.1539 0.4030
H17 H 1.0716 0.1761 0.4086
H18 H 1.1330 0.1725 0.4874
C15 C 1.1455(6) 0.3356(3) 0.3472(5)
C16 C 1.1962(6) 0.3751(3) 0.3742(6)
C17 C 1.1581(7) 0.4143(3) 0.4156(6)
C18 C 1.0670(7) 0.4134(3) 0.4297(5)
C19 C 1.0138(6) 0.3751(3) 0.4037(5)
C20 C 1.0553(6) 0.3374(3) 0.3623(5)
H19 H 1.0201 0.3116 0.3435
C21 C 1.2172(7) 0.4564(3) 0.4447(6)
H20 H 1.1901 0.4724 0.4909
H21 H 1.2747 0.4438 0.4630
C22 C 1.2823(9) 0.5366(4) 0.4059(9)
H22 H 1.2486 0.5541 0.4465
H23 H 1.3378 0.5259 0.4318
C23 C 1.3024(10) 0.5702(5) 0.3378(10)
H24 H 1.2526 0.5711 0.2989
H25 H 1.3546 0.5589 0.3095
C24 C 1.3200(13) 0.6231(5) 0.3746(14)
H26 H 1.3270 0.6460 0.3306
H27 H 1.3733 0.6226 0.4083
H28 H 1.2705 0.6327 0.4071
C25 C 0.9149(7) 0.3754(3) 0.4192(5)
H29 H 0.9069 0.3973 0.4660
C26 C 0.8784(7) 0.3256(3) 0.4457(5)
H30 H 0.8141 0.3278 0.4494
H31 H 0.8914 0.3016 0.4039
C27 C 0.9161(12) 0.3084(4) 0.5255(9)
H32 H 0.9057 0.3331 0.5668
H33 H 0.9800 0.3046 0.5209
C28 C 0.8760(19) 0.2595(8) 0.5542(12)
H34 H 0.8893 0.2343 0.5155
H35 H 0.8125 0.2627 0.5581
H36 H 0.9012 0.2510 0.6069
C29 C 0.8604(6) 0.3975(3) 0.3489(5)
C30 C 0.8398(6) 0.4465(3) 0.3455(5)
C31 C 0.7828(6) 0.4664(3) 0.2849(5)
C32 C 0.7496(6) 0.4358(3) 0.2230(5)
C33 C 0.7748(6) 0.3866(3) 0.2191(5)
C34 C 0.8292(6) 0.3686(3) 0.2827(5)
H37 H 0.8457 0.3359 0.2814
C35 C 0.7587(6) 0.5199(3) 0.2879(5)
H38 H 0.7138 0.5271 0.2459
H39 H 0.7340 0.5276 0.3407
C36 C 0.8284(8) 0.6048(3) 0.2845(6)
H40 H 0.7772 0.6159 0.2522
H41 H 0.8808 0.6214 0.2649
C37 C 0.8152(8) 0.6173(3) 0.3758(6)
H42 H 0.7590 0.6040 0.3936
H43 H 0.8627 0.6028 0.4089
C38 C 0.8158(9) 0.6731(4) 0.3870(8)
H44 H 0.7653 0.6870 0.3583
H45 H 0.8696 0.6864 0.3655
H46 H 0.8127 0.6808 0.4443
C39 C 0.7452(7) 0.3546(3) 0.1475(6)
H47 H 0.6923 0.3701 0.1225
C40 C 0.7175(7) 0.3029(3) 0.1727(6)
H48 H 0.7055 0.2839 0.1235
H49 H 0.7672 0.2877 0.2018
C41 C 0.6364(8) 0.3004(4) 0.2262(7)
H50 H 0.6444 0.3220 0.2729
H51 H 0.6289 0.2674 0.2464
C42 C 0.5520(10) 0.3160(7) 0.1746(10)
H52 H 0.5467 0.2960 0.1265
H53 H 0.5576 0.3496 0.1587
H54 H 0.4999 0.3121 0.2070
C43 C 0.8165(6) 0.3539(3) 0.0821(5)
C44 C 0.8147(8) 0.3885(3) 0.0178(6)
C45 C 0.8749(7) 0.3862(3) -0.0443(6)
C46 C 0.9404(7) 0.3496(3) -0.0426(5)
C47 C 0.9474(7) 0.3169(3) 0.0220(5)
C48 C 0.8840(6) 0.3206(3) 0.0814(5)
H55 H 0.8875 0.2985 0.1246
C49 C 0.8709(9) 0.4236(3) -0.1144(6)
H56 H 0.9017 0.4110 -0.1615
H57 H 0.8093 0.4297 -0.1307
C50 C 0.9144(8) 0.5085(4) -0.1509(6)
H58 H 0.8533 0.5149 -0.1685
H59 H 0.9457 0.4959 -0.1977
C51 C 0.9564(9) 0.5555(4) -0.1252(7)
H60 H 1.0153 0.5492 -0.1017
H61 H 0.9208 0.5709 -0.0837
C52 C 0.9637(10) 0.5887(4) -0.1976(7)
H62 H 0.9859 0.5707 -0.2433
H63 H 1.0039 0.6149 -0.1843
H64 H 0.9060 0.6018 -0.2117
C53 C 1.0231(7) 0.2788(3) 0.0252(6)
H65 H 1.0440 0.2754 -0.0310
C54 C 0.9898(7) 0.2281(3) 0.0510(6)
H66 H 1.0406 0.2067 0.0601
H67 H 0.9589 0.2310 0.1022
C55 C 0.9275(8) 0.2055(4) -0.0131(7)
H68 H 0.8766 0.2268 -0.0215
H69 H 0.9057 0.1746 0.0077
C56 C 0.9703(12) 0.1964(7) -0.0953(10)
H70 H 0.9354 0.1731 -0.1261
H71 H 1.0295 0.1839 -0.0864
H72 H 0.9730 0.2265 -0.1253
N1 N 1.3058(6) 0.4082(3) 0.0121(5)
H73 H 1.3084 0.4280 0.0553
H74 H 1.2506 0.4095 -0.0089
N2 N 1.2302(6) 0.4927(3) 0.3777(6)
H75 H 1.1772 0.5024 0.3584
H76 H 1.2587 0.4784 0.3370
N3 N 0.8393(5) 0.5505(2) 0.2746(5)
H77 H 0.8580 0.5448 0.2241
H78 H 0.8820 0.5406 0.3094
N4 N 0.9142(6) 0.4705(3) -0.0860(5)
H79 H 0.8853 0.4818 -0.0429
H80 H 0.9701 0.4643 -0.0698
O1 O 1.1725(5) 0.3344(3) -0.0408(4)
H81 H 1.1214 0.3387 -0.0581
O2 O 1.3252(5) 0.3424(3) 0.2153(5)
H82 H 1.3538 0.3625 0.1896
O3 O 1.2867(5) 0.3783(3) 0.3628(5)
H83 H 1.2969 0.3760 0.3139
O4 O 1.0298(5) 0.4542(2) 0.4682(4)
H84 H 1.0534 0.4578 0.5136
O5 O 0.8699(4) 0.4800(2) 0.4036(4)
H85 H 0.9194 0.4718 0.4210
O6 O 0.6937(5) 0.4549(2) 0.1625(4)
H86 H 0.6424 0.4461 0.1702
O7 O 0.7526(5) 0.4253(2) 0.0128(4)
H87 H 0.7344 0.4313 0.0587
O8 O 1.0047(5) 0.3488(3) -0.1029(4)
H88 H 0.9834 0.3366 -0.1449
I1 I 0.95520(6) 0.04856(3) 0.07097(6)
I2 I 0.92845(4) 0.12337(2) 0.19313(4)
I3 I 0.88576(5) 0.20279(2) 0.30542(4)
C57 C 0.5343(12) 0.4239(7) 0.3081(9)
H89 H 0.5558 0.3915 0.2972
H90 H 0.4728 0.4223 0.3229
H91 H 0.5688 0.4380 0.3523
O9 O 0.5425(8) 0.4535(5) 0.2358(8)
H92 H 0.4934 0.4563 0.2133
C58 C 0.8626(13) 0.3083(8) -0.2518(14)
H93 H 0.8396 0.3067 -0.1975
H94 H 0.8737 0.2759 -0.2713
H95 H 0.8198 0.3240 -0.2876
O10 O 0.9398(8) 0.3342(4) -0.2505(5)
H96 H 0.9316 0.3606 -0.2734
Br1 Br 0.86610(8) 0.53763(4) 0.07950(6)
Br2 Br 1.32985(9) 0.46036(5) 0.19375(8)
Br3 Br 1.05065(7) 0.56317(4) 0.34985(6)
loop_
_geom_bond_atom_site_label_1
_geom_bond_atom_site_label_2
_geom_bond_site_symmetry_1
_geom_bond_site_symmetry_2
C1 C2 1_555 1_555
C2 C3 1_555 1_555
C3 C4 1_555 1_555
C4 C5 1_555 1_555
C5 C6 1_555 1_555
C6 C1 1_555 1_555
H1 C6 1_555 1_555
C7 C3 1_555 1_555
H2 C7 1_555 1_555
H3 C7 1_555 1_555
C8 H4 1_555 1_555
H5 C8 1_555 1_555
C9 C8 1_555 1_555
H6 C9 1_555 1_555
H7 C9 1_555 1_555
C10 C9 1_555 1_555
H8 C10 1_555 1_555
H9 C10 1_555 1_555
H10 C10 1_555 1_555
C11 C5 1_555 1_555
H11 C11 1_555 1_555
C12 C11 1_555 1_555
H12 C12 1_555 1_555
H13 C12 1_555 1_555
C13 C12 1_555 1_555
H14 C13 1_555 1_555
H15 C13 1_555 1_555
C14 C13 1_555 1_555
H16 C14 1_555 1_555
H17 C14 1_555 1_555
H18 C14 1_555 1_555
C15 C11 1_555 1_555
C16 C15 1_555 1_555
C17 C16 1_555 1_555
C18 C17 1_555 1_555
C19 C18 1_555 1_555
C20 C15 1_555 1_555
H19 C20 1_555 1_555
C21 C17 1_555 1_555
H20 C21 1_555 1_555
H21 C21 1_555 1_555
C22 H22 1_555 1_555
H23 C22 1_555 1_555
C23 C22 1_555 1_555
H24 C23 1_555 1_555
H25 C23 1_555 1_555
C24 C23 1_555 1_555
H26 C24 1_555 1_555
H27 C24 1_555 1_555
H28 C24 1_555 1_555
C25 C19 1_555 1_555
H29 C25 1_555 1_555
C26 C25 1_555 1_555
H30 C26 1_555 1_555
H31 C26 1_555 1_555
C27 C26 1_555 1_555
H32 C27 1_555 1_555
H33 C27 1_555 1_555
C28 C27 1_555 1_555
H34 C28 1_555 1_555
H35 C28 1_555 1_555
H36 C28 1_555 1_555
C29 C25 1_555 1_555
C30 C29 1_555 1_555
C31 C30 1_555 1_555
C32 C31 1_555 1_555
C33 C32 1_555 1_555
C34 C29 1_555 1_555
H37 C34 1_555 1_555
C35 C31 1_555 1_555
H38 C35 1_555 1_555
H39 C35 1_555 1_555
C36 H40 1_555 1_555
H41 C36 1_555 1_555
C37 C36 1_555 1_555
H42 C37 1_555 1_555
H43 C37 1_555 1_555
C38 C37 1_555 1_555
H44 C38 1_555 1_555
H45 C38 1_555 1_555
H46 C38 1_555 1_555
C39 C33 1_555 1_555
H47 C39 1_555 1_555
C40 C39 1_555 1_555
H48 C40 1_555 1_555
H49 C40 1_555 1_555
C41 C40 1_555 1_555
H50 C41 1_555 1_555
H51 C41 1_555 1_555
C42 C41 1_555 1_555
H52 C42 1_555 1_555
H53 C42 1_555 1_555
H54 C42 1_555 1_555
C43 C39 1_555 1_555
C44 C43 1_555 1_555
C45 C44 1_555 1_555
C46 C45 1_555 1_555
C47 C46 1_555 1_555
C48 C43 1_555 1_555
H55 C48 1_555 1_555
C49 C45 1_555 1_555
H56 C49 1_555 1_555
H57 C49 1_555 1_555
C50 H58 1_555 1_555
H59 C50 1_555 1_555
C51 C50 1_555 1_555
H60 C51 1_555 1_555
H61 C51 1_555 1_555
C52 C51 1_555 1_555
H62 C52 1_555 1_555
H63 C52 1_555 1_555
H64 C52 1_555 1_555
C53 C1 1_555 1_555
H65 C53 1_555 1_555
C54 C53 1_555 1_555
H66 C54 1_555 1_555
H67 C54 1_555 1_555
C55 C54 1_555 1_555
H68 C55 1_555 1_555
H69 C55 1_555 1_555
C56 C55 1_555 1_555
H70 C56 1_555 1_555
H71 C56 1_555 1_555
H72 C56 1_555 1_555
N1 C7 1_555 1_555
H73 N1 1_555 1_555
H74 N1 1_555 1_555
N2 C21 1_555 1_555
H75 N2 1_555 1_555
H76 N2 1_555 1_555
N3 C35 1_555 1_555
H77 N3 1_555 1_555
H78 N3 1_555 1_555
N4 C49 1_555 1_555
H79 N4 1_555 1_555
H80 N4 1_555 1_555
O1 C2 1_555 1_555
H81 O1 1_555 1_555
O2 C4 1_555 1_555
H82 O2 1_555 1_555
O3 C16 1_555 1_555
H83 O3 1_555 1_555
O4 C18 1_555 1_555
H84 O4 1_555 1_555
O5 C30 1_555 1_555
H85 O5 1_555 1_555
O6 C32 1_555 1_555
H86 O6 1_555 1_555
O7 C44 1_555 1_555
H87 O7 1_555 1_555
O8 C46 1_555 1_555
H88 O8 1_555 1_555
I1 I2 1_555 1_555
I2 I3 1_555 1_555
C57 H89 1_555 1_555
H90 C57 1_555 1_555
H91 C57 1_555 1_555
O9 C57 1_555 1_555
H92 O9 1_555 1_555
C58 H93 1_555 1_555
H94 C58 1_555 1_555
H95 C58 1_555 1_555
O10 C58 1_555 1_555
H96 O10 1_555 1_555
C8 N1 1_555 1_555
C19 C20 1_555 1_555
C22 N2 1_555 1_555
C33 C34 1_555 1_555
C36 N3 1_555 1_555
C47 C48 1_555 1_555
C47 C53 1_555 1_555
C50 N4 1_555 1_555

#END
