
#######################################################################
#
#                 Cambridge Crystallographic Data Centre
#                                CCDC 
#
#######################################################################
#
# If this CIF has been generated from an entry in the Cambridge 
# Structural Database, then it will include bibliographic, chemical, 
# crystal, experimental, refinement or atomic coordinate data resulting 
# from the CCDC's data processing and validation procedures.
#
#######################################################################

data_UQEPIQ
_chemical_name_common            
'(S)-Ethyl N-((2-(methoxycarbonyl)phenyl)sulfanyl)tryptophanate'
_chemical_formula_moiety         'C21 H22 N2 O4 S1'
_chemical_name_systematic        
'(S)-Ethyl 2-(2-methoxyphenylsulfenamido)-3-(1H-indol-3-yl)propanoate'
_symmetry_cell_setting           orthorhombic
_symmetry_space_group_name_H-M   'P 21 21 21'
_symmetry_Int_Tables_number      19
_space_group_name_Hall           'P 2ac 2ab'
loop_
_symmetry_equiv_pos_site_id
_symmetry_equiv_pos_as_xyz
1 x,y,z
2 1/2-x,-y,1/2+z
3 -x,1/2+y,1/2-z
4 1/2+x,1/2-y,-z
_cell_length_a                   8.078(2)
_cell_length_b                   12.824(4)
_cell_length_c                   18.788(6)
_cell_angle_alpha                90
_cell_angle_beta                 90
_cell_angle_gamma                90
_cell_volume                     1946.29
_exptl_crystal_colour            colorless
_exptl_crystal_description       prism
_chemical_melting_point          '74-76 deg.C'
_cell_formula_units_Z            4
loop_
_atom_site_label
_atom_site_type_symbol
_atom_site_fract_x
_atom_site_fract_y
_atom_site_fract_z
S1 S 0.31223(7) 0.10588(4) 0.17747(3)
O1 O 0.5059(2) 0.41118(15) 0.16240(10)
O2 O 0.4653(3) 0.42868(16) 0.04524(10)
O3 O 0.2713(2) -0.10171(13) 0.18482(9)
O4 O 0.4676(2) -0.22548(12) 0.17822(9)
N1 N -0.0779(3) 0.46679(16) 0.18609(11)
N2 N 0.3287(3) 0.23472(15) 0.16999(10)
C1 C 0.0779(3) 0.38574(18) 0.10399(12)
C2 C 0.0590(3) 0.49267(18) 0.08354(11)
C3 C 0.1092(3) 0.55288(19) 0.02471(13)
H1 H 0.1733 0.5233 -0.0111
C4 C 0.0625(3) 0.65615(19) 0.02080(13)
H2 H 0.0957 0.6962 -0.0179
C5 C -0.0343(3) 0.7015(2) 0.07428(13)
H3 H -0.0637 0.7714 0.0703
C6 C -0.0873(3) 0.64562(19) 0.13256(14)
H4 H -0.1515 0.6763 0.1679
C7 C -0.0407(3) 0.54102(18) 0.13649(13)
C8 C -0.0069(3) 0.37422(19) 0.16616(12)
H5 H -0.0154 0.3122 0.1915
C9 C 0.1765(3) 0.30372(17) 0.06511(12)
H6 H 0.1937 0.3263 0.0164
H7 H 0.1128 0.2396 0.0637
C10 C 0.3457(3) 0.28144(18) 0.09954(12)
H8 H 0.4063 0.2327 0.0690
C11 C 0.4483(3) 0.3804(2) 0.10744(13)
C12 C 0.5588(4) 0.5307(3) 0.04418(18)
H9 H 0.4837 0.5883 0.0356
H10 H 0.6144 0.5420 0.0893
C13 C 0.6763(5) 0.5222(3) -0.01206(17)
H11 H 0.7505 0.4655 -0.0024
H12 H 0.7381 0.5859 -0.0156
H13 H 0.6194 0.5095 -0.0561
C14 C 0.5180(3) 0.05733(19) 0.16494(11)
C15 C 0.6497(3) 0.12520(19) 0.15267(12)
H14 H 0.6294 0.1963 0.1481
C16 C 0.8098(3) 0.0885(2) 0.14729(12)
H15 H 0.8954 0.1350 0.1381
C17 C 0.8449(3) -0.0163(2) 0.15525(12)
H16 H 0.9536 -0.0401 0.1534
C18 C 0.7156(3) -0.0851(2) 0.16605(12)
H17 H 0.7379 -0.1559 0.1708
C19 C 0.5527(3) -0.05035(17) 0.16993(12)
C20 C 0.4160(3) -0.12579(17) 0.17892(11)
C21 C 0.3360(4) -0.30364(18) 0.17705(13)
H18 H 0.2575 -0.2887 0.2140
H19 H 0.3829 -0.3715 0.1847
H20 H 0.2813 -0.3020 0.1317
H21 H -0.155(3) 0.474(2) 0.2201(11)
H22 H 0.387(4) 0.266(2) 0.2036(15)
loop_
_geom_bond_atom_site_label_1
_geom_bond_atom_site_label_2
_geom_bond_site_symmetry_1
_geom_bond_site_symmetry_2
S1 N2 1_555 1_555
O1 C11 1_555 1_555
O2 C11 1_555 1_555
O3 C20 1_555 1_555
O4 C20 1_555 1_555
N1 C7 1_555 1_555
N2 C10 1_555 1_555
C1 C2 1_555 1_555
C2 C3 1_555 1_555
C3 H1 1_555 1_555
C4 C3 1_555 1_555
H2 C4 1_555 1_555
C5 C4 1_555 1_555
H3 C5 1_555 1_555
C6 C5 1_555 1_555
H4 C6 1_555 1_555
C7 C2 1_555 1_555
C8 N1 1_555 1_555
H5 C8 1_555 1_555
C9 C1 1_555 1_555
H6 C9 1_555 1_555
H7 C9 1_555 1_555
C10 C9 1_555 1_555
H8 C10 1_555 1_555
C11 C10 1_555 1_555
C12 O2 1_555 1_555
H9 C12 1_555 1_555
H10 C12 1_555 1_555
C13 C12 1_555 1_555
H11 C13 1_555 1_555
H12 C13 1_555 1_555
H13 C13 1_555 1_555
C14 S1 1_555 1_555
C15 C14 1_555 1_555
H14 C15 1_555 1_555
C16 C15 1_555 1_555
H15 C16 1_555 1_555
C17 C16 1_555 1_555
H16 C17 1_555 1_555
C18 C17 1_555 1_555
H17 C18 1_555 1_555
C19 C14 1_555 1_555
C20 C19 1_555 1_555
C21 O4 1_555 1_555
H18 C21 1_555 1_555
H19 C21 1_555 1_555
H20 C21 1_555 1_555
H21 N1 1_555 1_555
H22 N2 1_555 1_555
C1 C8 1_555 1_555
C6 C7 1_555 1_555
C18 C19 1_555 1_555

#END
