
#######################################################################
#
#                 Cambridge Crystallographic Data Centre
#                                CCDC 
#
#######################################################################
#
# If this CIF has been generated from an entry in the Cambridge 
# Structural Database, then it will include bibliographic, chemical, 
# crystal, experimental, refinement or atomic coordinate data resulting 
# from the CCDC's data processing and validation procedures.
#
#######################################################################

data_UQESAL
_chemical_formula_moiety         'C16 H16 O5'
_chemical_name_systematic        
1-(3,4-Dihydroxyphenyl)-2-(3,4-dimethoxyphenyl)ethanone
_symmetry_cell_setting           monoclinic
_symmetry_space_group_name_H-M   'P 21/c'
_symmetry_Int_Tables_number      14
_space_group_name_Hall           '-P 2ybc'
loop_
_symmetry_equiv_pos_site_id
_symmetry_equiv_pos_as_xyz
1 x,y,z
2 -x,1/2+y,1/2-z
3 -x,-y,-z
4 x,1/2-y,1/2+z
_cell_length_a                   10.5574(10)
_cell_length_b                   8.3576(9)
_cell_length_c                   16.5528(16)
_cell_angle_alpha                90
_cell_angle_beta                 91.762(3)
_cell_angle_gamma                90
_cell_volume                     1459.84
_exptl_crystal_colour            colorless
_exptl_crystal_description       block
_chemical_melting_point          '178-180 deg.C'
_cell_formula_units_Z            4
_exptl_crystal_recrystallization_method 'ethyl acetate/petroleum ether'
loop_
_atom_site_label
_atom_site_type_symbol
_atom_site_fract_x
_atom_site_fract_y
_atom_site_fract_z
C1 C -0.0906(3) 0.0938(4) 0.39112(19)
C2 C -0.1221(3) -0.0304(4) 0.33817(19)
H1 H -0.0720 -0.0487 0.2938
C3 C -0.2247(3) -0.1256(4) 0.3499(2)
C4 C -0.3003(3) -0.0993(4) 0.4163(2)
C5 C -0.2697(3) 0.0225(5) 0.4696(2)
H2 H -0.3194 0.0402 0.5141
C6 C -0.1656(3) 0.1182(5) 0.4572(2)
H3 H -0.1457 0.1999 0.4935
C7 C 0.0188(3) 0.1951(4) 0.3737(2)
C8 C 0.0495(3) 0.3326(5) 0.4303(2)
H4 H -0.0288 0.3871 0.4425
H5 H 0.0846 0.2895 0.4806
C9 C 0.1411(4) 0.4533(5) 0.3982(2)
C10 C 0.2701(3) 0.4241(4) 0.4019(2)
H6 H 0.3005 0.3295 0.4248
C11 C 0.3545(3) 0.5345(4) 0.3719(2)
C12 C 0.3075(4) 0.6787(4) 0.3384(2)
C13 C 0.1803(4) 0.7080(5) 0.3365(2)
H7 H 0.1493 0.8039 0.3153
C14 C 0.0977(3) 0.5963(6) 0.3659(2)
H8 H 0.0111 0.6174 0.3640
C15 C 0.5355(3) 0.3699(5) 0.4028(3)
H9 H 0.5096 0.3526 0.4571
H10 H 0.6263 0.3749 0.4019
H11 H 0.5058 0.2834 0.3691
C16 C 0.3614(4) 0.9388(5) 0.2899(3)
H12 H 0.3048 0.9377 0.2434
H13 H 0.4351 1.0010 0.2784
H14 H 0.3193 0.9851 0.3349
O1 O -0.4028(2) -0.1902(3) 0.43162(14)
H15 H -0.4149 -0.2541 0.3946
O2 O -0.2623(2) -0.2487(3) 0.30029(15)
H16 H -0.2129 -0.2569 0.2632
O3 O 0.0840(2) 0.1695(3) 0.31504(14)
O4 O 0.4829(2) 0.5180(3) 0.37301(14)
O5 O 0.3988(2) 0.7780(3) 0.30954(14)
loop_
_geom_bond_atom_site_label_1
_geom_bond_atom_site_label_2
_geom_bond_site_symmetry_1
_geom_bond_site_symmetry_2
C1 C2 1_555 1_555
C2 H1 1_555 1_555
C3 C2 1_555 1_555
C4 C3 1_555 1_555
C5 C4 1_555 1_555
H2 C5 1_555 1_555
C6 C1 1_555 1_555
H3 C6 1_555 1_555
C7 C1 1_555 1_555
C8 C7 1_555 1_555
H4 C8 1_555 1_555
H5 C8 1_555 1_555
C9 C8 1_555 1_555
C10 C9 1_555 1_555
H6 C10 1_555 1_555
C11 C10 1_555 1_555
C12 C11 1_555 1_555
C13 C12 1_555 1_555
H7 C13 1_555 1_555
C14 C9 1_555 1_555
H8 C14 1_555 1_555
C15 H9 1_555 1_555
H10 C15 1_555 1_555
H11 C15 1_555 1_555
C16 H12 1_555 1_555
H13 C16 1_555 1_555
H14 C16 1_555 1_555
O1 C4 1_555 1_555
H15 O1 1_555 1_555
O2 C3 1_555 1_555
H16 O2 1_555 1_555
O3 C7 1_555 1_555
O4 C11 1_555 1_555
O5 C12 1_555 1_555
C5 C6 1_555 1_555
C13 C14 1_555 1_555
C15 O4 1_555 1_555
C16 O5 1_555 1_555

#END
