
#######################################################################
#
#                 Cambridge Crystallographic Data Centre
#                                CCDC 
#
#######################################################################
#
# If this CIF has been generated from an entry in the Cambridge 
# Structural Database, then it will include bibliographic, chemical, 
# crystal, experimental, refinement or atomic coordinate data resulting 
# from the CCDC's data processing and validation procedures.
#
#######################################################################

data_UQEWAP
_chemical_formula_moiety         'C32 H42 O8,H2 O1'
_chemical_name_systematic        
"4a'-(1,3-bis(benzyloxy)propan-2-yl)-7',8'-dihydroxy-6'-(2-hydroxyethyl)-7'-methyloctahydro-3H-spiro[furan-2,3'-isochromen]-4'(1'H)-one monohydrate"
_symmetry_cell_setting           monoclinic
_symmetry_space_group_name_H-M   'P 21/c'
_symmetry_Int_Tables_number      14
_space_group_name_Hall           '-P 2ybc'
loop_
_symmetry_equiv_pos_site_id
_symmetry_equiv_pos_as_xyz
1 x,y,z
2 -x,1/2+y,1/2-z
3 -x,-y,-z
4 x,1/2-y,1/2+z
_cell_length_a                   17.884(6)
_cell_length_b                   8.613(3)
_cell_length_c                   19.093(6)
_cell_angle_alpha                90
_cell_angle_beta                 93.692(5)
_cell_angle_gamma                90
_cell_volume                     2934.88
_cell_formula_units_Z            4
loop_
_atom_site_label
_atom_site_type_symbol
_atom_site_fract_x
_atom_site_fract_y
_atom_site_fract_z
O1 O 0.31736(13) 0.2698(3) 0.55396(12)
O2 O 0.19796(13) 0.3420(3) 0.50944(11)
O3 O 0.22308(14) 0.0029(3) 0.60749(13)
O4 O 0.02527(15) 0.4925(3) 0.56605(15)
H1 H -0.0073 0.4781 0.5330
O5 O 0.00178(19) 0.3607(3) 0.69528(15)
H2 H -0.0139 0.3092 0.7287
O6 O 0.0211(2) -0.2480(4) 0.67064(17)
H3 H -0.0188 -0.2916 0.6539
O7 O 0.36003(13) 0.2246(3) 0.76661(13)
O8 O 0.24605(13) 0.5792(3) 0.71492(11)
C1 C 0.3676(2) 0.2353(5) 0.49970(19)
H4 H 0.4068 0.1610 0.5170
H5 H 0.3921 0.3312 0.4840
C2 C 0.3193(3) 0.1657(7) 0.4410(3)
H6 H 0.3059 0.2451 0.4048
H7 H 0.3461 0.0799 0.4188
C3 C 0.2522(2) 0.1075(5) 0.47180(18)
H8 H 0.2590 -0.0011 0.4879
H9 H 0.2080 0.1134 0.4379
C4 C 0.24417(19) 0.2172(4) 0.53345(17)
C5 C 0.21435(18) 0.1410(4) 0.59935(17)
C6 C 0.17919(18) 0.2430(4) 0.65378(16)
C7 C 0.12585(18) 0.1485(4) 0.69783(16)
H10 H 0.1509 0.0495 0.7115
H11 H 0.1184 0.2068 0.7415
C8 C 0.04874(19) 0.1107(4) 0.66247(17)
H12 H 0.0180 0.0687 0.7001
C9 C 0.0099(2) 0.2599(4) 0.63598(19)
C10 C 0.05931(19) 0.3467(4) 0.58697(18)
H13 H 0.0640 0.2821 0.5440
C11 C 0.13796(18) 0.3836(4) 0.61837(16)
H14 H 0.1326 0.4639 0.6556
C12 C 0.1848(2) 0.4552(4) 0.56298(17)
H15 H 0.1582 0.5460 0.5415
H16 H 0.2333 0.4913 0.5851
C13 C 0.0492(2) -0.0151(4) 0.60549(17)
H17 H -0.0020 -0.0242 0.5830
H18 H 0.0825 0.0195 0.5691
C14 C 0.0743(2) -0.1732(4) 0.6306(2)
H19 H 0.0839 -0.2387 0.5895
H20 H 0.1221 -0.1630 0.6595
C15 C -0.0682(2) 0.2313(6) 0.6002(3)
H21 H -0.0946 0.3305 0.5936
H22 H -0.0968 0.1632 0.6298
H23 H -0.0633 0.1819 0.5545
C16 C 0.24901(19) 0.3021(4) 0.70246(16)
H24 H 0.2867 0.3416 0.6703
C17 C 0.28700(19) 0.1711(4) 0.74484(18)
H25 H 0.2585 0.1461 0.7861
H26 H 0.2900 0.0766 0.7156
C18 C 0.40188(19) 0.1086(4) 0.80372(19)
H27 H 0.4079 0.0178 0.7728
H28 H 0.3747 0.0743 0.8445
C19 C 0.47766(19) 0.1699(4) 0.82864(16)
C20 C 0.4952(2) 0.3263(4) 0.82946(18)
H29 H 0.4589 0.3999 0.8123
C21 C 0.5652(2) 0.3765(4) 0.85513(18)
H30 H 0.5767 0.4843 0.8552
C22 C 0.6185(2) 0.2719(5) 0.88047(18)
H31 H 0.6663 0.3069 0.8984
C23 C 0.6016(2) 0.1156(5) 0.87950(17)
H32 H 0.6382 0.0424 0.8966
C24 C 0.53183(19) 0.0649(4) 0.85380(17)
H33 H 0.5208 -0.0430 0.8534
C25 C 0.2311(2) 0.4375(4) 0.75062(16)
H34 H 0.1779 0.4336 0.7618
H35 H 0.2626 0.4311 0.7951
C26 C 0.2363(2) 0.7141(4) 0.75585(18)
H36 H 0.1854 0.7118 0.7733
H37 H 0.2393 0.8062 0.7252
C27 C 0.2926(2) 0.7332(4) 0.81786(16)
C28 C 0.2719(2) 0.8053(4) 0.87836(18)
H38 H 0.2218 0.8399 0.8813
C29 C 0.3234(2) 0.8277(5) 0.93478(18)
H39 H 0.3085 0.8780 0.9759
C30 C 0.3958(2) 0.7774(4) 0.93141(18)
H40 H 0.4312 0.7916 0.9702
C31 C 0.4168(2) 0.7057(4) 0.87083(19)
H41 H 0.4669 0.6711 0.8680
C32 C 0.3658(2) 0.6842(4) 0.81476(17)
H42 H 0.3811 0.6351 0.7735
O9 O -0.1046(5) 0.6133(10) 0.6182(4)
H43 H -0.1323 0.6266 0.5809
H44 H -0.1043 0.5631 0.6572
O10? O 0.02527(15) 0.4925(3) 0.56605(15)
H45? H -0.0146 0.5113 0.5875
loop_
_geom_bond_atom_site_label_1
_geom_bond_atom_site_label_2
_geom_bond_site_symmetry_1
_geom_bond_site_symmetry_2
O1 C1 1_555 1_555
O2 C4 1_555 1_555
O3 C5 1_555 1_555
O4 H1 1_555 1_555
O5 H2 1_555 1_555
O6 H3 1_555 1_555
O7 C17 1_555 1_555
O8 C25 1_555 1_555
C1 H4 1_555 1_555
H5 C1 1_555 1_555
C2 C1 1_555 1_555
H6 C2 1_555 1_555
H7 C2 1_555 1_555
C3 C2 1_555 1_555
H8 C3 1_555 1_555
H9 C3 1_555 1_555
C4 O1 1_555 1_555
C5 C4 1_555 1_555
C6 C5 1_555 1_555
C7 C6 1_555 1_555
H10 C7 1_555 1_555
H11 C7 1_555 1_555
C8 C7 1_555 1_555
H12 C8 1_555 1_555
C9 O5 1_555 1_555
C10 O4 1_555 1_555
H13 C10 1_555 1_555
C11 C6 1_555 1_555
H14 C11 1_555 1_555
C12 O2 1_555 1_555
H15 C12 1_555 1_555
H16 C12 1_555 1_555
C13 C8 1_555 1_555
H17 C13 1_555 1_555
H18 C13 1_555 1_555
C14 O6 1_555 1_555
H19 C14 1_555 1_555
H20 C14 1_555 1_555
C15 C9 1_555 1_555
H21 C15 1_555 1_555
H22 C15 1_555 1_555
H23 C15 1_555 1_555
C16 C6 1_555 1_555
H24 C16 1_555 1_555
C17 C16 1_555 1_555
H25 C17 1_555 1_555
H26 C17 1_555 1_555
C18 O7 1_555 1_555
H27 C18 1_555 1_555
H28 C18 1_555 1_555
C19 C18 1_555 1_555
C20 C19 1_555 1_555
H29 C20 1_555 1_555
C21 C20 1_555 1_555
H30 C21 1_555 1_555
C22 C21 1_555 1_555
H31 C22 1_555 1_555
C23 C22 1_555 1_555
H32 C23 1_555 1_555
C24 C19 1_555 1_555
H33 C24 1_555 1_555
C25 C16 1_555 1_555
H34 C25 1_555 1_555
H35 C25 1_555 1_555
C26 O8 1_555 1_555
H36 C26 1_555 1_555
H37 C26 1_555 1_555
C27 C26 1_555 1_555
C28 C27 1_555 1_555
H38 C28 1_555 1_555
C29 C28 1_555 1_555
H39 C29 1_555 1_555
C30 C29 1_555 1_555
H40 C30 1_555 1_555
C31 C30 1_555 1_555
H41 C31 1_555 1_555
C32 C27 1_555 1_555
H42 C32 1_555 1_555
O9 H43 1_555 1_555
H44 O9 1_555 1_555
C3 C4 1_555 1_555
C8 C9 1_555 1_555
C9 C10 1_555 1_555
C10 C11 1_555 1_555
C11 C12 1_555 1_555
C13 C14 1_555 1_555
C23 C24 1_555 1_555
C31 C32 1_555 1_555

#END
