
#######################################################################
#
#                 Cambridge Crystallographic Data Centre
#                                CCDC 
#
#######################################################################
#
# If this CIF has been generated from an entry in the Cambridge 
# Structural Database, then it will include bibliographic, chemical, 
# crystal, experimental, refinement or atomic coordinate data resulting 
# from the CCDC's data processing and validation procedures.
#
#######################################################################

data_UQEWUK
_chemical_formula_moiety         'C58 H44'
_chemical_name_systematic        
12,17-di-t-butyl-10,19-diphenylaceanthryleno[1,2-b]dibenzo[hi,mn]tetracene
_symmetry_cell_setting           triclinic
_symmetry_space_group_name_H-M   'P -1'
_symmetry_Int_Tables_number      2
_space_group_name_Hall           '-P 1'
loop_
_symmetry_equiv_pos_site_id
_symmetry_equiv_pos_as_xyz
1 x,y,z
2 -x,-y,-z
_cell_length_a                   8.9299(14)
_cell_length_b                   10.9153(18)
_cell_length_c                   20.996(3)
_cell_angle_alpha                97.424(8)
_cell_angle_beta                 94.152(8)
_cell_angle_gamma                100.236(8)
_cell_volume                     1987.52
_exptl_crystal_colour            red
_exptl_crystal_description       cubic
_cell_formula_units_Z            2
loop_
_atom_site_label
_atom_site_type_symbol
_atom_site_fract_x
_atom_site_fract_y
_atom_site_fract_z
C1 C 0.2901(15) 1.0217(17) 0.5316(13)
H1 H 0.2808 1.0905 0.5636
H2 H 0.2268 1.0236 0.4929
H3 H 0.3947 1.0289 0.5223
C2 C 0.1444(15) 0.9152(18) 0.6133(5)
H4 H 0.1978 0.9785 0.6473
H5 H 0.1260 0.8353 0.6287
H6 H 0.0486 0.9366 0.5997
C3 C 0.1349(13) 0.8108(16) 0.5036(7)
H7 H 0.0430 0.8421 0.4941
H8 H 0.1097 0.7321 0.5197
H9 H 0.1850 0.7987 0.4649
C4 C 0.7975(3) 0.9702(3) 1.08745(14)
C5 C 0.8640(4) 0.8635(4) 1.08241(15)
H10 H 0.8674 0.8197 1.0416
C6 C 0.9242(5) 0.8209(4) 1.13489(17)
H11 H 0.9644 0.7476 1.1296
C7 C 0.9258(4) 0.8871(4) 1.19672(18)
H12 H 0.9705 0.8596 1.2323
C8 C 0.8630(4) 0.9900(4) 1.20478(16)
H13 H 0.8648 1.0327 1.2462
C9 C 0.7940(3) 1.0357(3) 1.15216(13)
C10 C 0.7258(4) 1.1404(3) 1.16140(15)
H14 H 0.7194 1.1765 1.2035
C11 C 0.6664(3) 1.1941(3) 1.11099(14)
C12 C 0.6005(4) 1.3026(3) 1.11318(17)
H15 H 0.5869 1.3449 1.1531
C13 C 0.5564(4) 1.3468(3) 1.05870(17)
H16 H 0.5132 1.4186 1.0621
C14 C 0.5753(4) 1.2848(3) 0.99545(15)
H17 H 0.5446 1.3155 0.9583
C15 C 0.6391(3) 1.1803(3) 0.99198(14)
C16 C 0.6814(3) 1.1325(3) 1.04824(13)
C17 C 0.7399(3) 1.0228(3) 1.03624(13)
C18 C 0.7278(3) 0.9911(3) 0.96457(12)
C19 C 0.7559(3) 0.8901(3) 0.92438(12)
H18 H 0.7875 0.8238 0.9419
C20 C 0.7373(3) 0.8857(3) 0.85562(12)
C21 C 0.7719(3) 0.7834(2) 0.81303(12)
C22 C 0.7480(3) 0.7808(2) 0.74614(11)
C23 C 0.8088(3) 0.6943(2) 0.69837(11)
C24 C 0.9293(3) 0.6349(2) 0.71384(12)
H19 H 0.9747 0.6512 0.7561
C25 C 0.9861(3) 0.5517(3) 0.66925(12)
C26 C 0.9198(3) 0.5312(3) 0.60638(12)
H20 H 0.9533 0.4746 0.5762
C27 C 0.8041(3) 0.5926(3) 0.58685(12)
C28 C 0.7387(3) 0.5727(3) 0.52144(13)
H21 H 0.7756 0.5192 0.4909
C29 C 0.6248(3) 0.6299(3) 0.50325(13)
H22 H 0.5830 0.6133 0.4604
C30 C 0.5656(3) 0.7154(3) 0.54760(12)
C31 C 0.4423(3) 0.7715(3) 0.53013(13)
H23 H 0.3976 0.7529 0.4878
C32 C 0.3846(3) 0.8532(3) 0.57318(13)
C33 C 0.4617(3) 0.8851(2) 0.63507(12)
H24 H 0.4264 0.9421 0.6645
C34 C 0.5879(3) 0.8367(2) 0.65525(12)
C35 C 0.6646(3) 0.8696(2) 0.72165(12)
C36 C 0.6503(3) 0.9786(2) 0.76242(12)
C37 C 0.6852(3) 0.9869(2) 0.82999(12)
C38 C 0.6579(3) 1.0902(3) 0.87344(12)
H25 H 0.6290 1.1586 0.8571
C39 C 0.6732(3) 1.0909(3) 0.93792(13)
C40 C 0.7502(3) 0.6777(2) 0.63267(12)
C41 C 0.6339(3) 0.7433(2) 0.61188(11)
C42 C 1.1198(3) 0.4894(3) 0.68942(13)
C43 C 1.1169(4) 0.4656(4) 0.75932(14)
H26 H 1.1343 0.5445 0.7874
H27 H 1.1955 0.4197 0.7696
H28 H 1.0190 0.4175 0.7650
C44 C 1.2699(4) 0.5769(3) 0.68069(18)
H29 H 1.2757 0.6572 0.7065
H30 H 1.2724 0.5878 0.6361
H31 H 1.3551 0.5404 0.6940
C45 C 1.1147(4) 0.3629(3) 0.64739(15)
H32 H 1.1979 0.3256 0.6622
H33 H 1.1233 0.3759 0.6033
H34 H 1.0195 0.3079 0.6503
C46 C 0.2430(3) 0.9072(3) 0.55518(14)
C47 C 0.6125(3) 1.0913(2) 0.73584(12)
C48 C 0.4886(3) 1.1460(3) 0.75241(13)
H35 H 0.4220 1.1092 0.7796
C49 C 0.4630(4) 1.2538(3) 0.72926(16)
H36 H 0.3799 1.2891 0.7411
C50 C 0.5596(5) 1.3091(3) 0.68880(16)
H37 H 0.5427 1.3822 0.6735
C51 C 0.6802(4) 1.2565(3) 0.67121(15)
H38 H 0.7450 1.2934 0.6434
C52 C 0.7075(3) 1.1483(3) 0.69439(13)
H39 H 0.7906 1.1135 0.6820
C53 C 0.8159(3) 0.6752(3) 0.84201(12)
C54 C 0.9424(3) 0.6891(3) 0.88703(13)
H40 H 1.0077 0.7668 0.8974
C55 C 0.9718(4) 0.5883(4) 0.91638(15)
H41 H 1.0566 0.5985 0.9463
C56 C 0.8757(5) 0.4730(4) 0.90142(17)
H42 H 0.8946 0.4058 0.9218
C57 C 0.7514(5) 0.4571(3) 0.85606(17)
H43 H 0.6873 0.3789 0.8453
C58 C 0.7225(4) 0.5574(3) 0.82676(13)
H44 H 0.6388 0.5460 0.7961
C59? C 0.2234(18) 0.9120(16) 0.4814(4)
H45? H 0.1412 0.9547 0.4717
H46? H 0.2006 0.8279 0.4585
H47? H 0.3163 0.9564 0.4684
C60? C 0.2670(16) 1.0497(10) 0.5828(6)
H48? H 0.3719 1.0882 0.5815
H49? H 0.2418 1.0586 0.6267
H50? H 0.2021 1.0899 0.5574
C61? C 0.1086(11) 0.8339(16) 0.5746(10)
H51? H 0.0744 0.8807 0.6108
H52? H 0.1321 0.7569 0.5865
H53? H 0.0294 0.8149 0.5394
loop_
_geom_bond_atom_site_label_1
_geom_bond_atom_site_label_2
_geom_bond_site_symmetry_1
_geom_bond_site_symmetry_2
C1 H1 1_555 1_555
H2 C1 1_555 1_555
H3 C1 1_555 1_555
C2 H4 1_555 1_555
H5 C2 1_555 1_555
H6 C2 1_555 1_555
C3 H7 1_555 1_555
H8 C3 1_555 1_555
H9 C3 1_555 1_555
C4 C5 1_555 1_555
C5 H10 1_555 1_555
C6 C5 1_555 1_555
H11 C6 1_555 1_555
C7 C6 1_555 1_555
H12 C7 1_555 1_555
C8 C7 1_555 1_555
H13 C8 1_555 1_555
C9 C4 1_555 1_555
C10 C9 1_555 1_555
H14 C10 1_555 1_555
C11 C10 1_555 1_555
C12 C11 1_555 1_555
H15 C12 1_555 1_555
C13 C12 1_555 1_555
H16 C13 1_555 1_555
C14 C13 1_555 1_555
H17 C14 1_555 1_555
C15 C14 1_555 1_555
C16 C11 1_555 1_555
C17 C4 1_555 1_555
C18 C17 1_555 1_555
C19 C18 1_555 1_555
H18 C19 1_555 1_555
C20 C19 1_555 1_555
C21 C20 1_555 1_555
C22 C21 1_555 1_555
C23 C22 1_555 1_555
C24 C23 1_555 1_555
H19 C24 1_555 1_555
C25 C24 1_555 1_555
C26 C25 1_555 1_555
H20 C26 1_555 1_555
C27 C26 1_555 1_555
C28 C27 1_555 1_555
H21 C28 1_555 1_555
C29 C28 1_555 1_555
H22 C29 1_555 1_555
C30 C29 1_555 1_555
C31 C30 1_555 1_555
H23 C31 1_555 1_555
C32 C31 1_555 1_555
C33 C32 1_555 1_555
H24 C33 1_555 1_555
C34 C33 1_555 1_555
C35 C22 1_555 1_555
C36 C35 1_555 1_555
C37 C20 1_555 1_555
C38 C37 1_555 1_555
H25 C38 1_555 1_555
C39 C15 1_555 1_555
C40 C23 1_555 1_555
C41 C30 1_555 1_555
C42 C25 1_555 1_555
C43 C42 1_555 1_555
H26 C43 1_555 1_555
H27 C43 1_555 1_555
H28 C43 1_555 1_555
C44 C42 1_555 1_555
H29 C44 1_555 1_555
H30 C44 1_555 1_555
H31 C44 1_555 1_555
C45 C42 1_555 1_555
H32 C45 1_555 1_555
H33 C45 1_555 1_555
H34 C45 1_555 1_555
C46 C1 1_555 1_555
C47 C36 1_555 1_555
C48 C47 1_555 1_555
H35 C48 1_555 1_555
C49 C48 1_555 1_555
H36 C49 1_555 1_555
C50 C49 1_555 1_555
H37 C50 1_555 1_555
C51 C50 1_555 1_555
H38 C51 1_555 1_555
C52 C47 1_555 1_555
H39 C52 1_555 1_555
C53 C21 1_555 1_555
C54 C53 1_555 1_555
H40 C54 1_555 1_555
C55 C54 1_555 1_555
H41 C55 1_555 1_555
C56 C55 1_555 1_555
H42 C56 1_555 1_555
C57 C56 1_555 1_555
H43 C57 1_555 1_555
C58 C53 1_555 1_555
H44 C58 1_555 1_555
C2 C46 1_555 1_555
C3 C46 1_555 1_555
C8 C9 1_555 1_555
C15 C16 1_555 1_555
C16 C17 1_555 1_555
C18 C39 1_555 1_555
C27 C40 1_555 1_555
C32 C46 1_555 1_555
C34 C35 1_555 1_555
C34 C41 1_555 1_555
C36 C37 1_555 1_555
C38 C39 1_555 1_555
C40 C41 1_555 1_555
C51 C52 1_555 1_555
C57 C58 1_555 1_555

#END
