
#######################################################################
#
#                 Cambridge Crystallographic Data Centre
#                                CCDC 
#
#######################################################################
#
# If this CIF has been generated from an entry in the Cambridge 
# Structural Database, then it will include bibliographic, chemical, 
# crystal, experimental, refinement or atomic coordinate data resulting 
# from the CCDC's data processing and validation procedures.
#
#######################################################################

data_UQEWET
_chemical_formula_moiety         'C23 H27 Br1 O5'
_chemical_name_systematic        
"2-(4a',7'-Dimethyl-4'-oxo-1',4,4',4a',5,5',6',8a'-octahydro-3H-spiro[furan-2,3'-isochromen]-6'-yl)ethyl 4-bromobenzoate"
_symmetry_cell_setting           triclinic
_symmetry_space_group_name_H-M   'P -1'
_symmetry_Int_Tables_number      2
_space_group_name_Hall           '-P 1'
loop_
_symmetry_equiv_pos_site_id
_symmetry_equiv_pos_as_xyz
1 x,y,z
2 -x,-y,-z
_cell_length_a                   6.970(2)
_cell_length_b                   7.664(2)
_cell_length_c                   19.425(5)
_cell_angle_alpha                89.456(4)
_cell_angle_beta                 89.176(4)
_cell_angle_gamma                85.220(4)
_cell_volume                     1033.89
_cell_formula_units_Z            2
loop_
_atom_site_label
_atom_site_type_symbol
_atom_site_fract_x
_atom_site_fract_y
_atom_site_fract_z
Br1 Br 0.36682(7) 0.01152(6) -0.16639(2)
O1 O 0.6761(5) 1.0044(4) 0.34442(16)
O2 O 0.9963(5) 1.0568(4) 0.36451(16)
O3 O 0.7625(6) 0.7181(5) 0.4455(2)
O4 O 0.7759(4) 0.4216(4) 0.09582(13)
O5 O 1.0513(4) 0.3147(4) 0.04376(15)
C1 C 0.5426(8) 1.1474(8) 0.3655(3)
H1 H 0.4161 1.1042 0.3771
H2 H 0.5247 1.2345 0.3277
C2 C 0.6233(7) 1.2302(6) 0.4275(3)
H3 H 0.5206 1.2635 0.4618
H4 H 0.6890 1.3354 0.4143
C3 C 0.7644(7) 1.0881(6) 0.4555(2)
H5 H 0.7014 1.0137 0.4895
H6 H 0.8743 1.1385 0.4775
C4 C 0.8302(7) 0.9836(6) 0.3914(2)
C5 C 0.8653(7) 0.7836(6) 0.4046(2)
C6 C 1.0807(7) 0.9609(5) 0.3066(2)
H7 H 1.1805 1.0281 0.2845
H8 H 0.9803 0.9449 0.2722
C7 C 1.1701(6) 0.7839(5) 0.3300(2)
H9 H 1.2659 0.8057 0.3661
C8 C 1.0191(6) 0.6726(5) 0.3641(2)
C9 C 1.1183(7) 0.5345(6) 0.4123(2)
H10 H 1.1835 0.5929 0.4488
H11 H 1.2129 0.4593 0.3860
H12 H 1.0217 0.4631 0.4328
C10 C 0.9123(6) 0.5848(5) 0.30577(19)
H13 H 0.8085 0.5194 0.3262
H14 H 0.8521 0.6765 0.2749
C11 C 1.0508(6) 0.4583(5) 0.2635(2)
H15 H 1.0940 0.3596 0.2952
C12 C 1.2294(6) 0.5449(5) 0.2421(2)
C13 C 1.3592(7) 0.4536(7) 0.1878(3)
H16 H 1.4693 0.5223 0.1784
H17 H 1.2867 0.4426 0.1454
H18 H 1.4056 0.3368 0.2045
C14 C 1.2795(6) 0.6888(6) 0.2721(2)
H19 H 1.3937 0.7358 0.2557
C15 C 0.9449(6) 0.3774(5) 0.2046(2)
H20 H 1.0294 0.2795 0.1850
H21 H 0.8284 0.3280 0.2237
C16 C 0.8852(6) 0.5053(5) 0.1471(2)
H22 H 0.8060 0.6068 0.1665
H23 H 1.0013 0.5489 0.1253
C17 C 0.8780(6) 0.3286(5) 0.04716(19)
C18 C 0.7496(5) 0.2484(5) -0.00226(19)
C19 C 0.5497(6) 0.2735(5) 0.00291(19)
H24 H 0.4914 0.3408 0.0396
C20 C 0.4356(6) 0.2011(5) -0.0450(2)
H25 H 0.2992 0.2175 -0.0414
C21 C 0.5227(6) 0.1050(5) -0.09801(19)
C22 C 0.7226(6) 0.0742(5) -0.1041(2)
H26 H 0.7800 0.0049 -0.1404
C23 C 0.8345(6) 0.1476(5) -0.0558(2)
H27 H 0.9708 0.1292 -0.0590
loop_
_geom_bond_atom_site_label_1
_geom_bond_atom_site_label_2
_geom_bond_site_symmetry_1
_geom_bond_site_symmetry_2
Br1 C21 1_555 1_555
O1 C1 1_555 1_555
O2 C4 1_555 1_555
O3 C5 1_555 1_555
O4 C16 1_555 1_555
O5 C17 1_555 1_555
C1 H1 1_555 1_555
H2 C1 1_555 1_555
C2 C1 1_555 1_555
H3 C2 1_555 1_555
H4 C2 1_555 1_555
C3 C2 1_555 1_555
H5 C3 1_555 1_555
H6 C3 1_555 1_555
C4 O1 1_555 1_555
C5 C4 1_555 1_555
C6 O2 1_555 1_555
H7 C6 1_555 1_555
H8 C6 1_555 1_555
C7 C6 1_555 1_555
H9 C7 1_555 1_555
C8 C5 1_555 1_555
C9 C8 1_555 1_555
H10 C9 1_555 1_555
H11 C9 1_555 1_555
H12 C9 1_555 1_555
C10 C8 1_555 1_555
H13 C10 1_555 1_555
H14 C10 1_555 1_555
C11 C10 1_555 1_555
H15 C11 1_555 1_555
C12 C11 1_555 1_555
C13 C12 1_555 1_555
H16 C13 1_555 1_555
H17 C13 1_555 1_555
H18 C13 1_555 1_555
C14 C7 1_555 1_555
H19 C14 1_555 1_555
C15 C11 1_555 1_555
H20 C15 1_555 1_555
H21 C15 1_555 1_555
C16 C15 1_555 1_555
H22 C16 1_555 1_555
H23 C16 1_555 1_555
C17 O4 1_555 1_555
C18 C17 1_555 1_555
C19 C18 1_555 1_555
H24 C19 1_555 1_555
C20 C19 1_555 1_555
H25 C20 1_555 1_555
C21 C20 1_555 1_555
C22 C21 1_555 1_555
H26 C22 1_555 1_555
C23 C18 1_555 1_555
H27 C23 1_555 1_555
C3 C4 1_555 1_555
C7 C8 1_555 1_555
C12 C14 1_555 1_555
C22 C23 1_555 1_555

#END
