
#######################################################################
#
#                 Cambridge Crystallographic Data Centre
#                                CCDC 
#
#######################################################################
#
# If this CIF has been generated from an entry in the Cambridge 
# Structural Database, then it will include bibliographic, chemical, 
# crystal, experimental, refinement or atomic coordinate data resulting 
# from the CCDC's data processing and validation procedures.
#
#######################################################################

data_UQEXIY
_chemical_name_common            'Chisopanin A'
_chemical_formula_moiety         'C34 H54 O8'
_chemical_name_systematic        
'23,24,25-Trihydroxy-4,4,8-trimethyl-21,24-epoxycholest-14-ene-3,7-diyl diacetate'
_symmetry_cell_setting           monoclinic
_symmetry_space_group_name_H-M   'P 21'
_symmetry_Int_Tables_number      4
_space_group_name_Hall           'P 2yb'
loop_
_symmetry_equiv_pos_site_id
_symmetry_equiv_pos_as_xyz
1 x,y,z
2 -x,1/2+y,-z
_cell_length_a                   7.3932(14)
_cell_length_b                   9.0434(15)
_cell_length_c                   26.310(3)
_cell_angle_alpha                90
_cell_angle_beta                 92.432(2)
_cell_angle_gamma                90
_cell_volume                     1757.49
_cell_formula_units_Z            2
loop_
_atom_site_label
_atom_site_type_symbol
_atom_site_fract_x
_atom_site_fract_y
_atom_site_fract_z
O1 O 0.0781(11) 1.0107(9) 0.1014(3)
O2 O -0.0938(16) 1.1193(14) 0.0452(4)
O3 O 0.5721(10) 0.8698(7) 0.2237(2)
O4 O 0.8598(16) 0.9408(13) 0.2380(4)
O5 O 0.1115(8) 0.4816(6) 0.4528(2)
O6 O 0.2311(9) 0.2658(6) 0.4922(2)
H1 H 0.1295 0.2297 0.4927
O7 O 0.4223(8) 0.6287(6) 0.5080(2)
H2 H 0.5268 0.6587 0.5072
O8 O 0.0885(9) 0.6335(6) 0.5412(2)
H3 H 0.1881 0.6734 0.5415
C1 C 0.0799(14) 0.6954(11) 0.1246(4)
H4 H 0.0119 0.6043 0.1277
H5 H 0.0407 0.7627 0.1506
C2 C 0.0337(15) 0.7634(11) 0.0724(4)
H6 H 0.0564 0.6915 0.0460
H7 H -0.0938 0.7889 0.0699
C3 C 0.1465(16) 0.9009(13) 0.0641(4)
H8 H 0.1205 0.9377 0.0295
C4 C 0.3441(16) 0.8866(12) 0.0726(4)
C5 C 0.3875(15) 0.8046(10) 0.1246(4)
H9 H 0.3469 0.8736 0.1505
C6 C 0.5927(15) 0.7866(11) 0.1371(4)
H10 H 0.6411 0.7109 0.1153
H11 H 0.6541 0.8788 0.1302
C7 C 0.6285(15) 0.7437(11) 0.1930(4)
H12 H 0.7583 0.7260 0.1993
C8 C 0.5197(14) 0.6051(10) 0.2100(4)
C9 C 0.3190(13) 0.6279(11) 0.1924(3)
H13 H 0.2804 0.7172 0.2101
C10 C 0.2834(15) 0.6613(11) 0.1347(4)
C11 C 0.2065(14) 0.5011(11) 0.2144(4)
H14 H 0.0794 0.5212 0.2067
H15 H 0.2366 0.4103 0.1971
C12 C 0.2323(14) 0.4755(12) 0.2717(4)
H16 H 0.1164 0.4903 0.2869
H17 H 0.2658 0.3727 0.2771
C13 C 0.3694(14) 0.5694(10) 0.2999(4)
C14 C 0.5322(15) 0.5865(10) 0.2667(4)
C15 C 0.6937(16) 0.5718(11) 0.2930(4)
H18 H 0.8073 0.5793 0.2793
C16 C 0.6581(14) 0.5410(11) 0.3483(4)
H19 H 0.6780 0.6290 0.3689
H20 H 0.7362 0.4627 0.3617
C17 C 0.4581(13) 0.4935(10) 0.3479(3)
H21 H 0.4554 0.3867 0.3415
C18 C 0.1849(13) 0.4497(10) 0.4038(4)
H22 H 0.1046 0.4892 0.3770
H23 H 0.1922 0.3435 0.3992
C19 C 0.3749(13) 0.5180(10) 0.3997(3)
H24 H 0.3668 0.6246 0.4059
C20 C 0.4982(13) 0.4481(9) 0.4421(3)
H25 H 0.5117 0.3432 0.4357
H26 H 0.6173 0.4932 0.4422
C21 C 0.4163(13) 0.4710(8) 0.4939(3)
H27 H 0.4863 0.4141 0.5196
C22 C 0.2180(14) 0.4260(9) 0.4952(4)
C23 C 0.4221(16) 0.8030(13) 0.0258(4)
H28 H 0.3375 0.7286 0.0140
H29 H 0.5350 0.7571 0.0359
H30 H 0.4412 0.8722 -0.0011
C24 C 0.4307(15) 1.0451(12) 0.0752(4)
H31 H 0.3923 1.1002 0.0454
H32 H 0.5602 1.0366 0.0766
H33 H 0.3925 1.0953 0.1050
C25 C 0.3341(14) 0.5268(11) 0.1000(4)
H34 H 0.2589 0.5281 0.0694
H35 H 0.3155 0.4359 0.1179
H36 H 0.4589 0.5343 0.0916
C26 C 0.6173(15) 0.4727(11) 0.1861(4)
H37 H 0.7390 0.4666 0.2002
H38 H 0.6196 0.4861 0.1499
H39 H 0.5538 0.3830 0.1933
C27 C 0.2945(15) 0.7237(10) 0.3133(4)
H40 H 0.3894 0.7821 0.3291
H41 H 0.1978 0.7127 0.3362
H42 H 0.2497 0.7719 0.2827
C28 C -0.033(2) 1.1158(17) 0.0875(6)
C29 C -0.0910(18) 1.2121(15) 0.1295(5)
H43 H 0.0088 1.2729 0.1412
H44 H -0.1296 1.1518 0.1571
H45 H -0.1894 1.2739 0.1175
C30 C 0.700(2) 0.9574(15) 0.2434(5)
C31 C 0.621(2) 1.0814(13) 0.2729(4)
H46 H 0.7097 1.1174 0.2975
H47 H 0.5170 1.0464 0.2901
H48 H 0.5850 1.1600 0.2501
C32 C 0.1118(14) 0.4709(10) 0.5425(3)
C33 C 0.2248(14) 0.4303(10) 0.5906(3)
H49 H 0.3327 0.4894 0.5925
H50 H 0.2571 0.3275 0.5894
H51 H 0.1554 0.4484 0.6200
C34 C -0.0738(14) 0.4083(10) 0.5420(4)
H52 H -0.1362 0.4458 0.5705
H53 H -0.0670 0.3025 0.5441
H54 H -0.1382 0.4362 0.5110
loop_
_geom_bond_atom_site_label_1
_geom_bond_atom_site_label_2
_geom_bond_site_symmetry_1
_geom_bond_site_symmetry_2
O1 C3 1_555 1_555
O2 C28 1_555 1_555
O3 C7 1_555 1_555
O4 C30 1_555 1_555
O5 C18 1_555 1_555
O6 H1 1_555 1_555
O7 H2 1_555 1_555
O8 H3 1_555 1_555
C1 H4 1_555 1_555
H5 C1 1_555 1_555
C2 C1 1_555 1_555
H6 C2 1_555 1_555
H7 C2 1_555 1_555
C3 C2 1_555 1_555
H8 C3 1_555 1_555
C4 C3 1_555 1_555
C5 C4 1_555 1_555
H9 C5 1_555 1_555
C6 C5 1_555 1_555
H10 C6 1_555 1_555
H11 C6 1_555 1_555
C7 C6 1_555 1_555
H12 C7 1_555 1_555
C8 C7 1_555 1_555
C9 C8 1_555 1_555
H13 C9 1_555 1_555
C10 C1 1_555 1_555
C11 C9 1_555 1_555
H14 C11 1_555 1_555
H15 C11 1_555 1_555
C12 C11 1_555 1_555
H16 C12 1_555 1_555
H17 C12 1_555 1_555
C13 C12 1_555 1_555
C14 C8 1_555 1_555
C15 C14 1_555 1_555
H18 C15 1_555 1_555
C16 C15 1_555 1_555
H19 C16 1_555 1_555
H20 C16 1_555 1_555
C17 C13 1_555 1_555
H21 C17 1_555 1_555
C18 H22 1_555 1_555
H23 C18 1_555 1_555
C19 C17 1_555 1_555
H24 C19 1_555 1_555
C20 C19 1_555 1_555
H25 C20 1_555 1_555
H26 C20 1_555 1_555
C21 O7 1_555 1_555
H27 C21 1_555 1_555
C22 O5 1_555 1_555
C23 C4 1_555 1_555
H28 C23 1_555 1_555
H29 C23 1_555 1_555
H30 C23 1_555 1_555
C24 C4 1_555 1_555
H31 C24 1_555 1_555
H32 C24 1_555 1_555
H33 C24 1_555 1_555
C25 C10 1_555 1_555
H34 C25 1_555 1_555
H35 C25 1_555 1_555
H36 C25 1_555 1_555
C26 C8 1_555 1_555
H37 C26 1_555 1_555
H38 C26 1_555 1_555
H39 C26 1_555 1_555
C27 C13 1_555 1_555
H40 C27 1_555 1_555
H41 C27 1_555 1_555
H42 C27 1_555 1_555
C28 O1 1_555 1_555
C29 C28 1_555 1_555
H43 C29 1_555 1_555
H44 C29 1_555 1_555
H45 C29 1_555 1_555
C30 O3 1_555 1_555
C31 C30 1_555 1_555
H46 C31 1_555 1_555
H47 C31 1_555 1_555
H48 C31 1_555 1_555
C32 O8 1_555 1_555
C33 C32 1_555 1_555
H49 C33 1_555 1_555
H50 C33 1_555 1_555
H51 C33 1_555 1_555
C34 C32 1_555 1_555
H52 C34 1_555 1_555
H53 C34 1_555 1_555
H54 C34 1_555 1_555
O6 C22 1_555 1_555
C5 C10 1_555 1_555
C9 C10 1_555 1_555
C13 C14 1_555 1_555
C16 C17 1_555 1_555
C18 C19 1_555 1_555
C20 C21 1_555 1_555
C21 C22 1_555 1_555
C22 C32 1_555 1_555

#END
