
#######################################################################
#
#                 Cambridge Crystallographic Data Centre
#                                CCDC 
#
#######################################################################
#
# If this CIF has been generated from an entry in the Cambridge 
# Structural Database, then it will include bibliographic, chemical, 
# crystal, experimental, refinement or atomic coordinate data resulting 
# from the CCDC's data processing and validation procedures.
#
#######################################################################

data_UQIBAZ
_chemical_formula_moiety         'C13 H12 O4'
_chemical_name_systematic        
1-(7-hydroxy-3-methylene-2,3,3a,8b-tetrahydrofuro[3,2-b][1]benzofuran-6-yl)ethanone
_symmetry_cell_setting           orthorhombic
_symmetry_space_group_name_H-M   'P 21 21 21'
_symmetry_Int_Tables_number      19
_space_group_name_Hall           'P 2ac 2ab'
loop_
_symmetry_equiv_pos_site_id
_symmetry_equiv_pos_as_xyz
1 x,y,z
2 1/2-x,-y,1/2+z
3 1/2+x,1/2-y,-z
4 -x,1/2+y,1/2-z
_cell_length_a                   4.1861(5)
_cell_length_b                   10.6310(11)
_cell_length_c                   25.0660(19)
_cell_angle_alpha                90
_cell_angle_beta                 90
_cell_angle_gamma                90
_cell_volume                     1115.5
_exptl_crystal_colour            'light colorless'
_exptl_crystal_description       block
_cell_formula_units_Z            4
loop_
_atom_site_label
_atom_site_type_symbol
_atom_site_fract_x
_atom_site_fract_y
_atom_site_fract_z
O1 O -0.0631(7) -0.9592(2) -0.14543(8)
O2 O 0.2526(12) -0.4631(2) -0.12197(12)
H1 H 0.3262 -0.4326 -0.1494
O3 O 0.5233(11) -0.4677(3) -0.21314(11)
O4 O 0.0152(8) -0.9046(3) -0.02158(9)
C1 C -0.2583(9) -0.9808(3) -0.09775(13)
H2 H -0.4837 -0.9925 -0.1071
C2 C -0.2130(9) -0.8664(3) -0.06176(13)
H3 H -0.4142 -0.8362 -0.0464
C3 C 0.0114(10) -0.6483(4) -0.09090(13)
H4 H -0.0514 -0.6064 -0.0601
C4 C 0.1799(12) -0.5859(4) -0.13048(14)
C5 C 0.2706(10) -0.6476(3) -0.17802(12)
C6 C 0.1904(9) -0.7752(3) -0.18456(12)
H5 H 0.2475 -0.8184 -0.2154
C7 C 0.0267(9) -0.8342(3) -0.14465(11)
C8 C -0.0604(8) -0.7722(3) -0.09802(12)
C9 C 0.4484(13) -0.5797(4) -0.21937(15)
C10 C 0.5368(12) -0.6437(4) -0.27015(14)
H6 H 0.3465 -0.6650 -0.2895
H7 H 0.6548 -0.7189 -0.2623
H8 H 0.6662 -0.5883 -0.2914
C11 C -0.1354(9) -1.0889(4) -0.06603(15)
C12 C -0.148(2) -1.2069(5) -0.0804(2)
H9 H -0.018(14) -1.265(5) -0.061(2)
H10 H -0.230(16) -1.232(5) -0.114(2)
C13 C 0.0027(12) -1.0367(4) -0.01594(14)
H11 H -0.1297 -1.0593 0.0143
H12 H 0.2155 -1.0702 -0.0102
loop_
_geom_bond_atom_site_label_1
_geom_bond_atom_site_label_2
_geom_bond_site_symmetry_1
_geom_bond_site_symmetry_2
O1 C1 1_555 1_555
O2 H1 1_555 1_555
O3 C9 1_555 1_555
O4 C2 1_555 1_555
C1 H2 1_555 1_555
C2 C1 1_555 1_555
H3 C2 1_555 1_555
C3 H4 1_555 1_555
C4 O2 1_555 1_555
C5 C4 1_555 1_555
C6 C5 1_555 1_555
H5 C6 1_555 1_555
C7 O1 1_555 1_555
C8 C2 1_555 1_555
C9 C5 1_555 1_555
C10 C9 1_555 1_555
H6 C10 1_555 1_555
H7 C10 1_555 1_555
H8 C10 1_555 1_555
C11 C1 1_555 1_555
C12 C11 1_555 1_555
H9 C12 1_555 1_555
H10 C12 1_555 1_555
C13 O4 1_555 1_555
H11 C13 1_555 1_555
H12 C13 1_555 1_555
C3 C4 1_555 1_555
C3 C8 1_555 1_555
C6 C7 1_555 1_555
C7 C8 1_555 1_555
C11 C13 1_555 1_555

#END
