
#######################################################################
#
#                 Cambridge Crystallographic Data Centre
#                                CCDC 
#
#######################################################################
#
# If this CIF has been generated from an entry in the Cambridge 
# Structural Database, then it will include bibliographic, chemical, 
# crystal, experimental, refinement or atomic coordinate data resulting 
# from the CCDC's data processing and validation procedures.
#
#######################################################################

data_UQIDUV
_chemical_formula_moiety         'C34 H26 N2 O2'
_chemical_name_systematic        
28-(4-methylphenyl)-30-oxa-12,29-diazaoctacyclo[13.6.6.3^2,14^.0^2,14^.0^3,12^.0^4,9^.0^16,21^.0^22,27^]triaconta-4,6,8,16,18,20,22,24,26,28-decaen-13-one
_symmetry_cell_setting           orthorhombic
_symmetry_space_group_name_H-M   'P 21 21 21'
_symmetry_Int_Tables_number      19
_space_group_name_Hall           'P 2ac 2ab'
loop_
_symmetry_equiv_pos_site_id
_symmetry_equiv_pos_as_xyz
1 x,y,z
2 1/2-x,-y,1/2+z
3 1/2+x,1/2-y,-z
4 -x,1/2+y,1/2-z
_cell_length_a                   12.4634(6)
_cell_length_b                   14.0050(6)
_cell_length_c                   14.1872(8)
_cell_angle_alpha                90
_cell_angle_beta                 90
_cell_angle_gamma                90
_cell_volume                     2476.37
_exptl_crystal_colour            colorless
_exptl_crystal_description       prism
_cell_formula_units_Z            4
loop_
_atom_site_label
_atom_site_type_symbol
_atom_site_fract_x
_atom_site_fract_y
_atom_site_fract_z
O1 O -0.63417(10) -1.28118(9) -0.88024(9)
O2 O -0.38110(11) -1.10966(9) -0.73370(9)
N1 N -0.50442(13) -1.22076(11) -0.68711(11)
N2 N -0.61641(12) -1.19591(11) -0.93070(11)
C1 C -0.75085(16) -1.36731(14) -0.72741(14)
H1 H -0.7271 -1.4105 -0.7726
C2 C -0.85649(17) -1.36961(15) -0.69841(14)
H2 H -0.9042 -1.4129 -0.7251
C3 C -0.89097(16) -1.30667(15) -0.62896(14)
H3 H -0.9618 -1.3084 -0.6083
C4 C -0.82009(16) -1.24158(15) -0.59067(14)
H4 H -0.8439 -1.1999 -0.5441
C5 C -0.71355(15) -1.23705(13) -0.62038(14)
C6 C -0.63834(16) -1.16424(14) -0.57754(14)
H5 H -0.6538 -1.1582 -0.5108
H6 H -0.6509 -1.1026 -0.6068
C7 C -0.52095(16) -1.19147(15) -0.59014(13)
H7 H -0.4754 -1.1373 -0.5755
H8 H -0.5026 -1.2434 -0.5478
C8 C -0.44028(14) -1.17731(13) -0.75013(13)
C9 C -0.45852(14) -1.22503(13) -0.84630(12)
C10 C -0.35509(14) -1.26757(13) -0.89380(12)
H9 H -0.3012 -1.2186 -0.9078
C11 C -0.39725(14) -1.31620(12) -0.98212(13)
C12 C -0.37622(15) -1.28803(13) -1.07355(13)
H10 H -0.3274 -1.2393 -1.0856
C13 C -0.42887(16) -1.33344(14) -1.14728(14)
H11 H -0.4146 -1.3156 -1.2091
C14 C -0.50234(17) -1.40500(14) -1.12925(14)
H12 H -0.5375 -1.4345 -1.1792
C15 C -0.52435(16) -1.43343(14) -1.03742(14)
H13 H -0.5740 -1.4815 -1.0255
C16 C -0.47084(15) -1.38875(13) -0.96373(13)
C17 C -0.49379(15) -1.40294(12) -0.85996(13)
H14 H -0.5434 -1.4560 -0.8484
C18 C -0.38880(15) -1.41447(13) -0.80717(13)
C19 C -0.36539(16) -1.48461(13) -0.74156(13)
H15 H -0.4157 -1.5315 -0.7275
C20 C -0.26608(17) -1.48450(14) -0.69684(15)
H16 H -0.2499 -1.5315 -0.6528
C21 C -0.19126(16) -1.41442(14) -0.71783(14)
H17 H -0.1246 -1.4153 -0.6884
C22 C -0.21507(15) -1.34277(14) -0.78258(14)
H18 H -0.1650 -1.2954 -0.7961
C23 C -0.31404(14) -1.34294(13) -0.82648(13)
C24 C -0.53964(14) -1.30575(13) -0.82648(12)
C25 C -0.56315(14) -1.30427(13) -0.71932(13)
H19 H -0.5303 -1.3610 -0.6910
C26 C -0.67948(15) -1.30099(13) -0.68978(13)
C27 C -0.52261(14) -1.16323(13) -0.91368(12)
C28 C -0.48261(15) -1.07937(13) -0.96558(13)
C29 C -0.54111(15) -1.04457(14) -1.04260(14)
H20 H -0.6066 -1.0722 -1.0582
C30 C -0.50216(16) -0.96957(14) -1.09545(13)
H21 H -0.5424 -0.9470 -1.1460
C31 C -0.40395(16) -0.92689(13) -1.07485(14)
C32 C -0.34753(16) -0.96060(13) -0.99730(14)
H22 H -0.2825 -0.9323 -0.9814
C33 C -0.38594(15) -1.03547(13) -0.94294(13)
H23 H -0.3468 -1.0564 -0.8911
C34 C -0.35889(17) -0.84819(14) -1.13514(14)
H24 H -0.3261 -0.8008 -1.0956
H25 H -0.4157 -0.8194 -1.1710
H26 H -0.3061 -0.8741 -1.1773
loop_
_geom_bond_atom_site_label_1
_geom_bond_atom_site_label_2
_geom_bond_site_symmetry_1
_geom_bond_site_symmetry_2
O1 N2 1_555 1_555
O2 C8 1_555 1_555
N1 C7 1_555 1_555
N2 C27 1_555 1_555
C1 H1 1_555 1_555
C2 C1 1_555 1_555
H2 C2 1_555 1_555
C3 C2 1_555 1_555
H3 C3 1_555 1_555
C4 C3 1_555 1_555
H4 C4 1_555 1_555
C5 C4 1_555 1_555
C6 C5 1_555 1_555
H5 C6 1_555 1_555
H6 C6 1_555 1_555
C7 C6 1_555 1_555
H7 C7 1_555 1_555
H8 C7 1_555 1_555
C8 N1 1_555 1_555
C9 C8 1_555 1_555
C10 C9 1_555 1_555
H9 C10 1_555 1_555
C11 C10 1_555 1_555
C12 C11 1_555 1_555
H10 C12 1_555 1_555
C13 C12 1_555 1_555
H11 C13 1_555 1_555
C14 C13 1_555 1_555
H12 C14 1_555 1_555
C15 C14 1_555 1_555
H13 C15 1_555 1_555
C16 C11 1_555 1_555
C17 C16 1_555 1_555
H14 C17 1_555 1_555
C18 C17 1_555 1_555
C19 C18 1_555 1_555
H15 C19 1_555 1_555
C20 C19 1_555 1_555
H16 C20 1_555 1_555
C21 C20 1_555 1_555
H17 C21 1_555 1_555
C22 C21 1_555 1_555
H18 C22 1_555 1_555
C23 C10 1_555 1_555
C24 O1 1_555 1_555
C25 N1 1_555 1_555
H19 C25 1_555 1_555
C26 C1 1_555 1_555
C27 C9 1_555 1_555
C28 C27 1_555 1_555
C29 C28 1_555 1_555
H20 C29 1_555 1_555
C30 C29 1_555 1_555
H21 C30 1_555 1_555
C31 C30 1_555 1_555
C32 C31 1_555 1_555
H22 C32 1_555 1_555
C33 C28 1_555 1_555
H23 C33 1_555 1_555
C34 C31 1_555 1_555
H24 C34 1_555 1_555
H25 C34 1_555 1_555
H26 C34 1_555 1_555
C5 C26 1_555 1_555
C9 C24 1_555 1_555
C15 C16 1_555 1_555
C17 C24 1_555 1_555
C18 C23 1_555 1_555
C22 C23 1_555 1_555
C24 C25 1_555 1_555
C25 C26 1_555 1_555
C32 C33 1_555 1_555

#END
