
#######################################################################
#
#                 Cambridge Crystallographic Data Centre
#                                CCDC 
#
#######################################################################
#
# If this CIF has been generated from an entry in the Cambridge 
# Structural Database, then it will include bibliographic, chemical, 
# crystal, experimental, refinement or atomic coordinate data resulting 
# from the CCDC's data processing and validation procedures.
#
#######################################################################

data_UQIFAD
_chemical_formula_moiety         'C38 H28 N2 O2,C2 H6 O1'
_chemical_name_systematic        
'34-(4-methylphenyl)-32-oxa-16,33-diazanonacyclo[17.6.6.3^2,18^.0^2,18^.0^3,16^.0^4,13^.0^7,12^.0^20,25^.0^26,31^]tetratriaconta-4,6,8,10,12,20,22,24,26,28,30,33-dodecaen-17-one ethanol solvate'
_symmetry_cell_setting           orthorhombic
_symmetry_space_group_name_H-M   'P 21 21 21'
_symmetry_Int_Tables_number      19
_space_group_name_Hall           'P 2ac 2ab'
loop_
_symmetry_equiv_pos_site_id
_symmetry_equiv_pos_as_xyz
1 x,y,z
2 1/2-x,-y,1/2+z
3 1/2+x,1/2-y,-z
4 -x,1/2+y,1/2-z
_cell_length_a                   8.0478(4)
_cell_length_b                   18.7957(8)
_cell_length_c                   19.2434(9)
_cell_angle_alpha                90
_cell_angle_beta                 90
_cell_angle_gamma                90
_cell_volume                     2910.83
_cell_formula_units_Z            4
loop_
_atom_site_label
_atom_site_type_symbol
_atom_site_fract_x
_atom_site_fract_y
_atom_site_fract_z
O1 O -0.8124(2) -0.87317(8) -0.20312(9)
C1 C -0.9740(3) -1.03808(11) -0.27525(11)
C2 C -1.1599(3) -1.03555(11) -0.17150(11)
O2 O -0.9526(2) -0.92933(8) -0.33980(8)
N1 N -0.9479(2) -0.98680(9) -0.38646(9)
C3 C -1.2062(3) -1.03708(14) -0.04893(12)
H1 H -1.2182 -1.0622 -0.0076
C4 C -1.1701(3) -0.96115(11) -0.17161(11)
C5 C -0.8150(3) -1.11563(11) -0.18059(12)
C6 C -0.9804(3) -0.95584(11) -0.27009(11)
C7 C -1.2751(3) -1.03735(11) -0.28883(11)
C8 C -1.4971(3) -1.04074(13) -0.37087(12)
H2 H -1.5716 -1.0664 -0.3979
C9 C -1.3915(3) -0.92799(12) -0.33178(12)
H3 H -1.3936 -0.8785 -0.3332
C10 C -1.2185(3) -0.96351(14) -0.04886(12)
H4 H -1.2400 -0.9396 -0.0075
C11 C -0.8693(3) -1.18480(11) -0.19923(12)
H5 H -0.8946 -1.1945 -0.2454
C12 C -0.7856(3) -1.15637(12) -0.06124(12)
C13 C -1.2787(3) -0.96299(11) -0.28962(11)
C14 C -1.3822(3) -1.07648(12) -0.32976(11)
H6 H -1.3777 -1.1259 -0.3298
C15 C -0.8383(3) -0.93424(12) -0.22434(12)
C16 C -0.8851(3) -1.23719(12) -0.15104(12)
H7 H -0.9213 -1.2821 -0.1647
C17 C -0.9603(3) -1.04611(11) -0.35388(11)
C18 C -1.0267(3) -1.17589(12) -0.37132(12)
H8 H -1.0745 -1.1776 -0.3274
N2 N -0.7486(2) -0.99178(10) -0.20917(10)
C19 C -0.8475(3) -1.22432(12) -0.08088(12)
C20 C -0.8716(3) -1.27671(13) -0.02926(14)
H9 H -0.9073 -1.3219 -0.0420
C21 C -1.1394(3) -1.06754(11) -0.24322(11)
H10 H -1.1415 -1.1197 -0.2421
C22 C -0.7508(3) -1.14388(13) 0.00950(12)
H11 H -0.7068 -1.1003 0.0230
C23 C -0.8079(3) -1.05963(11) -0.23676(12)
H12 H -0.7284 -1.0756 -0.2720
C24 C -1.0243(3) -1.23647(12) -0.41227(12)
H13 H -1.0671 -1.2787 -0.3945
C25 C -1.1988(3) -0.92508(12) -0.11007(12)
H14 H -1.2049 -0.8757 -0.1096
C26 C -0.7658(3) -1.10250(12) -0.11318(12)
C27 C -0.9601(3) -1.23570(13) -0.47864(12)
C28 C -1.1761(3) -1.07342(12) -0.11044(12)
H15 H -1.1670 -1.1227 -0.1105
C29 C -1.1496(3) -0.92950(11) -0.24307(11)
H16 H -1.1572 -0.8775 -0.2426
C30 C -1.5011(3) -0.96727(13) -0.37179(12)
H17 H -1.5784 -0.9439 -0.3996
C31 C -0.7808(3) -1.19483(14) 0.05833(13)
H18 H -0.7597 -1.1852 0.1049
C32 C -0.9581(3) -1.11230(11) -0.39523(11)
C33 C -0.6208(3) -0.99326(13) -0.15593(12)
H19 H -0.5889 -0.9452 -0.1434
H20 H -0.5232 -1.0181 -0.1729
C34 C -0.8933(3) -1.11143(13) -0.46227(12)
H21 H -0.8478 -1.0696 -0.4797
C35 C -0.8432(3) -1.26189(14) 0.03896(14)
H22 H -0.8651 -1.2960 0.0727
C36 C -0.9638(4) -1.30139(14) -0.52319(13)
H23 H -1.0480 -1.2964 -0.5582
H24 H -0.9883 -1.3421 -0.4948
H25 H -0.8576 -1.3077 -0.5450
C37 C -0.8956(3) -1.17175(13) -0.50327(12)
H26 H -0.8532 -1.1696 -0.5482
C38 C -0.6917(3) -1.03141(12) -0.09360(12)
H27 H -0.7768 -1.0020 -0.0724
H28 H -0.6044 -1.0387 -0.0596
loop_
_geom_bond_atom_site_label_1
_geom_bond_atom_site_label_2
_geom_bond_site_symmetry_1
_geom_bond_site_symmetry_2
O1 C15 1_555 1_555
C1 C6 1_555 1_555
C2 C4 1_555 1_555
O2 N1 1_555 1_555
N1 C17 1_555 1_555
C3 H1 1_555 1_555
C4 C25 1_555 1_555
C5 C11 1_555 1_555
C6 O2 1_555 1_555
C7 C13 1_555 1_555
C8 H2 1_555 1_555
C9 H3 1_555 1_555
C10 C3 1_555 1_555
H4 C10 1_555 1_555
C11 H5 1_555 1_555
C12 C19 1_555 1_555
C13 C9 1_555 1_555
C14 C7 1_555 1_555
H6 C14 1_555 1_555
C15 C6 1_555 1_555
C16 C11 1_555 1_555
H7 C16 1_555 1_555
C17 C1 1_555 1_555
C18 H8 1_555 1_555
N2 C15 1_555 1_555
C19 C16 1_555 1_555
C20 C19 1_555 1_555
H9 C20 1_555 1_555
C21 C1 1_555 1_555
H10 C21 1_555 1_555
C22 C12 1_555 1_555
H11 C22 1_555 1_555
C23 C1 1_555 1_555
H12 C23 1_555 1_555
C24 C18 1_555 1_555
H13 C24 1_555 1_555
C25 C10 1_555 1_555
H14 C25 1_555 1_555
C26 C5 1_555 1_555
C27 C24 1_555 1_555
C28 C2 1_555 1_555
H15 C28 1_555 1_555
C29 C4 1_555 1_555
H16 C29 1_555 1_555
C30 C8 1_555 1_555
H17 C30 1_555 1_555
C31 C22 1_555 1_555
H18 C31 1_555 1_555
C32 C17 1_555 1_555
C33 N2 1_555 1_555
H19 C33 1_555 1_555
H20 C33 1_555 1_555
C34 C32 1_555 1_555
H21 C34 1_555 1_555
C35 C20 1_555 1_555
H22 C35 1_555 1_555
C36 C27 1_555 1_555
H23 C36 1_555 1_555
H24 C36 1_555 1_555
H25 C36 1_555 1_555
C37 C27 1_555 1_555
H26 C37 1_555 1_555
C38 C26 1_555 1_555
H27 C38 1_555 1_555
H28 C38 1_555 1_555
C2 C21 1_555 1_555
C3 C28 1_555 1_555
C5 C23 1_555 1_555
C6 C29 1_555 1_555
C7 C21 1_555 1_555
C8 C14 1_555 1_555
C9 C30 1_555 1_555
C12 C26 1_555 1_555
C13 C29 1_555 1_555
C18 C32 1_555 1_555
N2 C23 1_555 1_555
C31 C35 1_555 1_555
C33 C38 1_555 1_555
C34 C37 1_555 1_555

#END
