
#######################################################################
#
#                 Cambridge Crystallographic Data Centre
#                                CCDC 
#
#######################################################################
#
# If this CIF has been generated from an entry in the Cambridge 
# Structural Database, then it will include bibliographic, chemical, 
# crystal, experimental, refinement or atomic coordinate data resulting 
# from the CCDC's data processing and validation procedures.
#
#######################################################################

data_UQIHEJ
_chemical_formula_moiety         'C23 H22 N2 O5 S2'
_chemical_name_systematic        
'1-cyano-1-(1-((4-methylphenyl)sulfonyl)-1,4-dihydropyridin-4-yl)prop-1-en-2-yl 4-methylbenzenesulfonate'
_symmetry_cell_setting           triclinic
_symmetry_space_group_name_H-M   'P -1'
_symmetry_Int_Tables_number      2
_space_group_name_Hall           '-P 1'
loop_
_symmetry_equiv_pos_site_id
_symmetry_equiv_pos_as_xyz
1 x,y,z
2 -x,-y,-z
_cell_length_a                   6.082(3)
_cell_length_b                   9.440(5)
_cell_length_c                   20.128(11)
_cell_angle_alpha                96.127(7)
_cell_angle_beta                 92.136(8)
_cell_angle_gamma                91.155(8)
_cell_volume                     1147.89
_exptl_crystal_colour            colorless
_exptl_crystal_description       block
_cell_formula_units_Z            2
loop_
_atom_site_label
_atom_site_type_symbol
_atom_site_fract_x
_atom_site_fract_y
_atom_site_fract_z
C1 C -0.2755(10) 0.6177(7) 0.2691(3)
H1 H -0.4121 0.6212 0.2884
C2 C -0.2080(10) 0.4941(7) 0.2437(4)
H2 H -0.3005 0.4145 0.2441
C3 C 0.0131(9) 0.4750(7) 0.2136(3)
H3 H -0.0074 0.4279 0.1679
C4 C 0.1244(10) 0.6188(7) 0.2112(3)
H4 H 0.2532 0.6227 0.1880
C5 C 0.0497(10) 0.7387(7) 0.2401(3)
H5 H 0.1360 0.8214 0.2413
C6 C 0.1560(9) 0.3826(6) 0.2545(3)
C7 C 0.2191(9) 0.2519(6) 0.2345(3)
C8 C 0.3615(11) 0.1603(7) 0.2728(3)
H6 H 0.5104 0.1676 0.2590
H7 H 0.3099 0.0631 0.2644
H8 H 0.3563 0.1912 0.3197
C9 C 0.2283(10) 0.4457(6) 0.3199(3)
C10 C -0.0874(10) 0.8376(7) 0.4004(3)
C11 C 0.1213(11) 0.8890(8) 0.4200(4)
H9 H 0.1961 0.9510 0.3954
C12 C 0.2161(11) 0.8449(8) 0.4781(4)
H10 H 0.3559 0.8798 0.4925
C13 C 0.1118(13) 0.7528(8) 0.5144(4)
C14 C -0.0966(13) 0.7046(8) 0.4933(4)
H11 H -0.1708 0.6422 0.5179
C15 C -0.1969(11) 0.7458(7) 0.4374(3)
H12 H -0.3384 0.7124 0.4242
C16 C 0.2259(14) 0.7030(10) 0.5770(4)
H13 H 0.3765 0.6821 0.5681
H14 H 0.1517 0.6188 0.5885
H15 H 0.2208 0.7769 0.6135
C17 C 0.3961(10) 0.0320(6) 0.0941(3)
C18 C 0.2818(11) -0.0794(7) 0.0596(3)
H16 H 0.1411 -0.0672 0.0417
C19 C 0.3799(12) -0.2133(7) 0.0517(3)
H17 H 0.3019 -0.2904 0.0288
C20 C 0.5879(12) -0.2328(7) 0.0769(3)
C21 C 0.6985(11) -0.1146(8) 0.1111(3)
H18 H 0.8392 -0.1257 0.1292
C22 C 0.6077(11) 0.0166(8) 0.1188(3)
H19 H 0.6871 0.0944 0.1405
C23 C 0.6920(14) -0.3766(8) 0.0686(4)
H20 H 0.6238 -0.4381 0.0973
H21 H 0.8464 -0.3662 0.0802
H22 H 0.6719 -0.4173 0.0229
N1 N -0.1549(8) 0.7458(5) 0.2691(3)
N2 N 0.2871(10) 0.4988(6) 0.3700(3)
O1 O -0.0944(8) 1.0016(4) 0.3042(3)
O2 O -0.4397(7) 0.8799(4) 0.3298(2)
O3 O 0.1036(8) 0.2059(5) 0.0558(2)
O4 O 0.4335(8) 0.3089(5) 0.1203(2)
O5 O 0.1371(6) 0.1862(4) 0.1726(2)
S1 S -0.2062(3) 0.88165(17) 0.32545(9)
S2 S 0.2722(3) 0.19719(18) 0.10567(8)
loop_
_geom_bond_atom_site_label_1
_geom_bond_atom_site_label_2
_geom_bond_site_symmetry_1
_geom_bond_site_symmetry_2
C1 H1 1_555 1_555
C2 C1 1_555 1_555
H2 C2 1_555 1_555
C3 C2 1_555 1_555
H3 C3 1_555 1_555
C4 C3 1_555 1_555
H4 C4 1_555 1_555
C5 C4 1_555 1_555
H5 C5 1_555 1_555
C6 C3 1_555 1_555
C7 C6 1_555 1_555
C8 C7 1_555 1_555
H6 C8 1_555 1_555
H7 C8 1_555 1_555
H8 C8 1_555 1_555
C9 C6 1_555 1_555
C10 C11 1_555 1_555
C11 H9 1_555 1_555
C12 C11 1_555 1_555
H10 C12 1_555 1_555
C13 C12 1_555 1_555
C14 C13 1_555 1_555
H11 C14 1_555 1_555
C15 C10 1_555 1_555
H12 C15 1_555 1_555
C16 C13 1_555 1_555
H13 C16 1_555 1_555
H14 C16 1_555 1_555
H15 C16 1_555 1_555
C17 C18 1_555 1_555
C18 H16 1_555 1_555
C19 C18 1_555 1_555
H17 C19 1_555 1_555
C20 C19 1_555 1_555
C21 C20 1_555 1_555
H18 C21 1_555 1_555
C22 C17 1_555 1_555
H19 C22 1_555 1_555
C23 C20 1_555 1_555
H20 C23 1_555 1_555
H21 C23 1_555 1_555
H22 C23 1_555 1_555
N1 C1 1_555 1_555
N2 C9 1_555 1_555
O1 S1 1_555 1_555
O2 S1 1_555 1_555
O3 S2 1_555 1_555
O4 S2 1_555 1_555
O5 C7 1_555 1_555
S1 C10 1_555 1_555
S2 C17 1_555 1_555
C5 N1 1_555 1_555
C14 C15 1_555 1_555
C21 C22 1_555 1_555
N1 S1 1_555 1_555
O5 S2 1_555 1_555

#END
