
#######################################################################
#
#                 Cambridge Crystallographic Data Centre
#                                CCDC 
#
#######################################################################
#
# If this CIF has been generated from an entry in the Cambridge 
# Structural Database, then it will include bibliographic, chemical, 
# crystal, experimental, refinement or atomic coordinate data resulting 
# from the CCDC's data processing and validation procedures.
#
#######################################################################

data_UQIRET
_chemical_formula_moiety         'C21 H24 Br1 F2 N3 O3 S1'
_chemical_name_systematic        
't-butyl ((4S,6S)-4-(5-bromo-2,4-difluorophenyl)-6-(3,5-dimethylisoxazol-4-yl)-4-methyl- 5,6-dihydro-4H-1,3-thiazin-2-yl)carbamate'
_symmetry_cell_setting           orthorhombic
_symmetry_space_group_name_H-M   'P 21 21 21'
_symmetry_Int_Tables_number      19
_space_group_name_Hall           'P 2ac 2ab'
loop_
_symmetry_equiv_pos_site_id
_symmetry_equiv_pos_as_xyz
1 x,y,z
2 1/2-x,-y,1/2+z
3 -x,1/2+y,1/2-z
4 1/2+x,1/2-y,-z
_cell_length_a                   9.8960(3)
_cell_length_b                   10.8264(3)
_cell_length_c                   23.0379(8)
_cell_angle_alpha                90
_cell_angle_beta                 90
_cell_angle_gamma                90
_cell_volume                     2468.24
_exptl_crystal_description       prism
_cell_formula_units_Z            4
_exptl_crystal_recrystallization_method 'Ethyl acetate/Hexanes'
loop_
_atom_site_label
_atom_site_type_symbol
_atom_site_fract_x
_atom_site_fract_y
_atom_site_fract_z
Br1 Br 0.46840(10) 0.45374(9) -0.12228(4)
S1 S 0.82922(13) 0.37035(13) 0.10695(9)
F1 F 0.8565(4) 0.8059(4) -0.0134(2)
F2 F 0.6391(6) 0.6549(5) -0.1778(2)
N1 N 0.5663(4) 0.3687(4) 0.1330(2)
H1 H 0.4854 0.3967 0.1295
N2 N 0.6316(4) 0.5475(4) 0.0911(2)
N3 N 1.2789(6) 0.4101(6) 0.0552(4)
O1 O 0.6838(5) 0.2042(5) 0.1681(3)
O2 O 0.4592(4) 0.2265(4) 0.1809(2)
O3 O 1.2733(5) 0.4383(6) 0.1146(5)
C1 C 0.6677(5) 0.4407(5) 0.1090(2)
C2 C 0.7232(5) 0.6400(5) 0.0660(3)
C3 C 0.8731(5) 0.6163(5) 0.0827(3)
H2 H 0.9296 0.6769 0.0634
H3 H 0.8835 0.6276 0.1243
C4 C 0.9217(5) 0.4873(5) 0.0664(3)
H4 H 0.9039 0.4746 0.0250
C5 C 0.6755(7) 0.7656(6) 0.0915(4)
H5 H 0.5833 0.7802 0.0806
H6 H 0.7314 0.8308 0.0767
H7 H 0.6823 0.7634 0.1331
C6 C 0.7045(5) 0.6397(5) -0.0011(3)
C7 C 0.6161(5) 0.5588(5) -0.0283(3)
H8 H 0.5709 0.5003 -0.0061
C8 C 0.6619(8) 0.6484(7) -0.1198(3)
C9 C 0.7699(6) 0.7242(5) -0.0370(3)
C10 C 0.7520(7) 0.7303(6) -0.0946(4)
H9 H 0.7987 0.7877 -0.1169
C11 C 0.5935(7) 0.5626(6) -0.0869(3)
C12 C 1.0679(6) 0.4620(6) 0.0773(3)
C13 C 1.1582(7) 0.4226(6) 0.0346(4)
C14 C 1.1456(7) 0.4673(7) 0.1272(4)
C15 C 1.1437(12) 0.3912(11) -0.0256(5)
H10 H 1.2173 0.3391 -0.0372
H11 H 1.1441 0.4653 -0.0485
H12 H 1.0598 0.3483 -0.0313
C16 C 1.1067(10) 0.4957(10) 0.1862(5)
H13 H 1.1787 0.4735 0.2121
H14 H 1.0269 0.4501 0.1962
H15 H 1.0889 0.5826 0.1896
C17 C 0.5793(6) 0.2590(5) 0.1614(3)
C18 C 0.4433(8) 0.1145(6) 0.2176(3)
C19 C 0.2964(9) 0.1174(10) 0.2325(5)
H16 H 0.2438 0.1147 0.1975
H17 H 0.2763 0.1921 0.2533
H18 H 0.2746 0.0474 0.2563
C20 C 0.5259(10) 0.1333(14) 0.2728(4)
H19 H 0.5089 0.0664 0.2991
H20 H 0.5006 0.2099 0.2907
H21 H 0.6203 0.1353 0.2632
C21 C 0.4799(16) -0.0004(8) 0.1836(7)
H22 H 0.4301 -0.0017 0.1478
H23 H 0.4579 -0.0724 0.2060
H24 H 0.5750 0.0000 0.1753
loop_
_geom_bond_atom_site_label_1
_geom_bond_atom_site_label_2
_geom_bond_site_symmetry_1
_geom_bond_site_symmetry_2
Br1 C11 1_555 1_555
S1 C1 1_555 1_555
F1 C9 1_555 1_555
F2 C8 1_555 1_555
N1 H1 1_555 1_555
N2 C1 1_555 1_555
N3 O3 1_555 1_555
O1 C17 1_555 1_555
O2 C17 1_555 1_555
O3 C14 1_555 1_555
C1 N1 1_555 1_555
C2 N2 1_555 1_555
C3 C2 1_555 1_555
H2 C3 1_555 1_555
H3 C3 1_555 1_555
C4 S1 1_555 1_555
H4 C4 1_555 1_555
C5 C2 1_555 1_555
H5 C5 1_555 1_555
H6 C5 1_555 1_555
H7 C5 1_555 1_555
C6 C2 1_555 1_555
C7 C6 1_555 1_555
H8 C7 1_555 1_555
C8 C10 1_555 1_555
C9 C6 1_555 1_555
C10 C9 1_555 1_555
H9 C10 1_555 1_555
C11 C7 1_555 1_555
C12 C4 1_555 1_555
C13 N3 1_555 1_555
C14 C12 1_555 1_555
C15 C13 1_555 1_555
H10 C15 1_555 1_555
H11 C15 1_555 1_555
H12 C15 1_555 1_555
C16 C14 1_555 1_555
H13 C16 1_555 1_555
H14 C16 1_555 1_555
H15 C16 1_555 1_555
C17 N1 1_555 1_555
C18 O2 1_555 1_555
C19 C18 1_555 1_555
H16 C19 1_555 1_555
H17 C19 1_555 1_555
H18 C19 1_555 1_555
C20 C18 1_555 1_555
H19 C20 1_555 1_555
H20 C20 1_555 1_555
H21 C20 1_555 1_555
C21 C18 1_555 1_555
H22 C21 1_555 1_555
H23 C21 1_555 1_555
H24 C21 1_555 1_555
C3 C4 1_555 1_555
C8 C11 1_555 1_555
C12 C13 1_555 1_555

#END
