
#######################################################################
#
#                 Cambridge Crystallographic Data Centre
#                                CCDC 
#
#######################################################################
#
# If this CIF has been generated from an entry in the Cambridge 
# Structural Database, then it will include bibliographic, chemical, 
# crystal, experimental, refinement or atomic coordinate data resulting 
# from the CCDC's data processing and validation procedures.
#
#######################################################################

data_UQIVUN
_chemical_formula_moiety         'C25 H25 N3 O2'
_chemical_name_systematic        
3-(5-ethoxy-2-((4-ethoxyphenyl)diazenyl)phenyl)-1-methyl-1H-indole
_symmetry_cell_setting           monoclinic
_symmetry_space_group_name_H-M   'P 21/c'
_symmetry_Int_Tables_number      14
_space_group_name_Hall           '-P 2ybc'
loop_
_symmetry_equiv_pos_site_id
_symmetry_equiv_pos_as_xyz
1 x,y,z
2 -x,1/2+y,1/2-z
3 -x,-y,-z
4 x,1/2-y,1/2+z
_cell_length_a                   13.494(3)
_cell_length_b                   7.6217(15)
_cell_length_c                   21.388(4)
_cell_angle_alpha                90
_cell_angle_beta                 104.02(3)
_cell_angle_gamma                90
_cell_volume                     2134.17
_exptl_crystal_colour            yellow
_exptl_crystal_description       block
_cell_formula_units_Z            4
loop_
_atom_site_label
_atom_site_type_symbol
_atom_site_fract_x
_atom_site_fract_y
_atom_site_fract_z
C1 C 0.04979(15) 0.8968(3) 0.37199(10)
C2 C 0.00448(17) 0.8937(3) 0.42459(10)
H1 H 0.0413 0.9347 0.4644
C3 C -0.09253(17) 0.8318(3) 0.41855(10)
H2 H -0.1215 0.8322 0.4538
C4 C -0.14765(16) 0.7681(3) 0.35916(11)
C5 C -0.10274(16) 0.7633(3) 0.30716(10)
H3 H -0.1390 0.7167 0.2681
C6 C -0.00345(16) 0.8278(3) 0.31263(10)
C7 C 0.29002(17) 1.1004(3) 0.43472(10)
C8 C 0.34575(18) 1.1470(3) 0.49575(11)
H4 H 0.3166 1.1343 0.5307
C9 C 0.44402(18) 1.2121(3) 0.50567(11)
H5 H 0.4805 1.2427 0.5469
C10 C 0.48794(18) 1.2316(3) 0.45352(12)
C11 C 0.4318(2) 1.1865(4) 0.39213(12)
H6 H 0.4606 1.2006 0.3571
C12 C 0.33445(19) 1.1215(4) 0.38258(12)
H7 H 0.2979 1.0914 0.3413
C13 C -0.30655(17) 0.6517(4) 0.29799(11)
H8 H -0.2770 0.5486 0.2830
H9 H -0.3132 0.7430 0.2656
C14 C -0.4095(2) 0.6087(6) 0.31012(16)
H10 H -0.4010 0.5259 0.3449
H11 H -0.4526 0.5588 0.2719
H12 H -0.4403 0.7139 0.3213
C15 C 0.64451(18) 1.3449(4) 0.51919(12)
H13 H 0.6521 1.2473 0.5491
H14 H 0.6122 1.4413 0.5363
C16 C 0.7469(2) 1.4002(4) 0.51023(15)
H15 H 0.7819 1.3000 0.4988
H16 H 0.7866 1.4498 0.5497
H17 H 0.7378 1.4863 0.4765
C17 C 0.13810(16) 0.7529(3) 0.25025(10)
C18 C 0.22388(17) 0.6858(3) 0.29398(12)
H18 H 0.2253 0.6788 0.3376
C19 C 0.30655(19) 0.6299(4) 0.27183(14)
H19 H 0.3636 0.5845 0.3008
C20 C 0.3058(2) 0.6405(4) 0.20639(15)
H20 H 0.3630 0.6035 0.1929
C21 C 0.2233(2) 0.7040(4) 0.16182(13)
H21 H 0.2231 0.7103 0.1184
C22 C 0.13904(17) 0.7592(3) 0.18422(11)
C23 C 0.03993(16) 0.8170(3) 0.25528(10)
C24 C -0.01251(17) 0.8564(3) 0.19360(10)
H22 H -0.0789 0.8996 0.1824
C25 C 0.0167(2) 0.8604(4) 0.08181(11)
H23 H -0.0502 0.8140 0.0639
H24 H 0.0647 0.8066 0.0612
H25 H 0.0163 0.9850 0.0750
O1 O -0.24363(12) 0.7106(3) 0.35824(8)
O2 O 0.58396(13) 1.2938(3) 0.45738(8)
N1 N 0.14734(14) 0.9718(3) 0.37566(8)
N2 N 0.19151(14) 1.0296(3) 0.43064(9)
N3 N 0.04620(15) 0.8236(3) 0.15058(9)
loop_
_geom_bond_atom_site_label_1
_geom_bond_atom_site_label_2
_geom_bond_site_symmetry_1
_geom_bond_site_symmetry_2
C1 C2 1_555 1_555
C2 H1 1_555 1_555
C3 C2 1_555 1_555
H2 C3 1_555 1_555
C4 C3 1_555 1_555
C5 C4 1_555 1_555
H3 C5 1_555 1_555
C6 C1 1_555 1_555
C7 C8 1_555 1_555
C8 H4 1_555 1_555
C9 C8 1_555 1_555
H5 C9 1_555 1_555
C10 C9 1_555 1_555
C11 C10 1_555 1_555
H6 C11 1_555 1_555
C12 C7 1_555 1_555
H7 C12 1_555 1_555
C13 H8 1_555 1_555
H9 C13 1_555 1_555
C14 C13 1_555 1_555
H10 C14 1_555 1_555
H11 C14 1_555 1_555
H12 C14 1_555 1_555
C15 H13 1_555 1_555
H14 C15 1_555 1_555
C16 C15 1_555 1_555
H15 C16 1_555 1_555
H16 C16 1_555 1_555
H17 C16 1_555 1_555
C17 C18 1_555 1_555
C18 H18 1_555 1_555
C19 C18 1_555 1_555
H19 C19 1_555 1_555
C20 C19 1_555 1_555
H20 C20 1_555 1_555
C21 C20 1_555 1_555
H21 C21 1_555 1_555
C22 C17 1_555 1_555
C23 C6 1_555 1_555
C24 C23 1_555 1_555
H22 C24 1_555 1_555
C25 H23 1_555 1_555
H24 C25 1_555 1_555
H25 C25 1_555 1_555
O1 C4 1_555 1_555
O2 C10 1_555 1_555
N1 C1 1_555 1_555
N2 C7 1_555 1_555
N3 C22 1_555 1_555
C5 C6 1_555 1_555
C11 C12 1_555 1_555
C13 O1 1_555 1_555
C15 O2 1_555 1_555
C17 C23 1_555 1_555
C21 C22 1_555 1_555
C24 N3 1_555 1_555
C25 N3 1_555 1_555
N1 N2 1_555 1_555

#END
