
#######################################################################
#
#                 Cambridge Crystallographic Data Centre
#                                CCDC 
#
#######################################################################
#
# If this CIF has been generated from an entry in the Cambridge 
# Structural Database, then it will include bibliographic, chemical, 
# crystal, experimental, refinement or atomic coordinate data resulting 
# from the CCDC's data processing and validation procedures.
#
#######################################################################

data_UQIVOG
_chemical_formula_moiety         'C10 H12 F1 N3 O5,C3 H7 N1 O1'
_chemical_name_systematic        
'Methyl N-((5-fluoro-2,4-dioxo-3,4-dihydropyrimidin-1(2H)-yl)acetyl)alaninate N,N-dimethylformamide solvate'
_symmetry_cell_setting           orthorhombic
_symmetry_space_group_name_H-M   'P 21 21 21'
_symmetry_Int_Tables_number      19
_space_group_name_Hall           'P 2ac 2ab'
loop_
_symmetry_equiv_pos_site_id
_symmetry_equiv_pos_as_xyz
1 x,y,z
2 1/2-x,-y,1/2+z
3 -x,1/2+y,1/2-z
4 1/2+x,1/2-y,-z
_cell_length_a                   4.740(7)
_cell_length_b                   19.23(3)
_cell_length_c                   19.22(9)
_cell_angle_alpha                90
_cell_angle_beta                 90
_cell_angle_gamma                90
_cell_volume                     1751.91
_cell_formula_units_Z            4
loop_
_atom_site_label
_atom_site_type_symbol
_atom_site_fract_x
_atom_site_fract_y
_atom_site_fract_z
N1 N 0.2406(13) 0.6344(4) 0.2704(3)
C1 C 0.5373(17) 0.6652(4) 0.0564(3)
C2 C 0.8788(19) 0.5895(4) -0.0119(4)
C3 C 0.7530(20) 0.5309(5) 0.0289(4)
C4 C 0.5660(20) 0.5375(5) 0.0773(4)
C5 C 0.2541(16) 0.6129(4) 0.1490(4)
C6 C 0.4087(15) 0.6247(4) 0.2174(4)
C7 C 0.3421(18) 0.6481(6) 0.3405(4)
C8 C 0.2650(30) 0.7203(7) 0.3630(5)
C9 C 0.3330(40) 0.8169(7) 0.4399(7)
C10 C 0.2260(40) 0.5943(6) 0.3931(5)
F1 F 0.8679(14) 0.4653(3) 0.0139(3)
O1 O 0.4382(13) 0.7229(3) 0.0679(3)
O2 O 1.0639(14) 0.5862(3) -0.0554(3)
O3 O 0.6660(11) 0.6274(4) 0.2198(3)
O4 O 0.3950(20) 0.7455(5) 0.4145(4)
O5 O 0.1010(50) 0.7538(6) 0.3358(8)
N3 N 0.4544(13) 0.6055(3) 0.0908(3)
N4 N 0.7453(14) 0.6529(3) 0.0067(3)
N2 N 0.0670(20) 0.3824(5) 0.2741(5)
C11 C -0.1130(40) 0.4381(10) 0.2961(9)
C12 C 0.0650(50) 0.3191(8) 0.3164(8)
C13 C 0.1890(50) 0.3923(10) 0.2180(8)
O6 O 0.1970(30) 0.4411(5) 0.1779(5)
loop_
_geom_bond_atom_site_label_1
_geom_bond_atom_site_label_2
_geom_bond_site_symmetry_1
_geom_bond_site_symmetry_2
N1 C6 1_555 1_555
N2 C11 1_555 1_555
C1 O1 1_555 1_555
C2 C3 1_555 1_555
C3 C4 1_555 1_555
C4 N3 1_555 1_555
C5 C6 1_555 1_555
C6 O3 1_555 1_555
C7 N1 1_555 1_555
C8 C7 1_555 1_555
C9 O4 1_555 1_555
C10 C7 1_555 1_555
C12 N2 1_555 1_555
C13 N2 1_555 1_555
F1 C3 1_555 1_555
O2 C2 1_555 1_555
O4 C8 1_555 1_555
O5 C8 1_555 1_555
O6 C13 1_555 1_555
N3 C1 1_555 1_555
N4 C1 1_555 1_555
C2 N4 1_555 1_555
C5 N3 1_555 1_555

#END
