
#######################################################################
#
#                 Cambridge Crystallographic Data Centre
#                                CCDC 
#
#######################################################################
#
# If this CIF has been generated from an entry in the Cambridge 
# Structural Database, then it will include bibliographic, chemical, 
# crystal, experimental, refinement or atomic coordinate data resulting 
# from the CCDC's data processing and validation procedures.
#
#######################################################################

data_UQOGAJ
_chemical_formula_moiety         'C20 H22 O6'
_chemical_name_systematic        
8b-Methyl-6a-isopropyl-3b,4,4a,7a,7b,8b,9,10-octahydrotris(oxireno)(6,7:8a,9:4b,5)phenanthro(1,2-c)furan-3,6(1H,6aH)-dione
_symmetry_cell_setting           orthorhombic
_symmetry_space_group_name_H-M   'P 21 21 21'
_symmetry_Int_Tables_number      19
_space_group_name_Hall           'P 2ac 2ab'
loop_
_symmetry_equiv_pos_site_id
_symmetry_equiv_pos_as_xyz
1 x,y,z
2 1/2-x,-y,1/2+z
3 -x,1/2+y,1/2-z
4 1/2+x,1/2-y,-z
_cell_length_a                   9.3443(7)
_cell_length_b                   11.4954(8)
_cell_length_c                   16.1665(11)
_cell_angle_alpha                90
_cell_angle_beta                 90
_cell_angle_gamma                90
_cell_volume                     1736.55
_exptl_crystal_colour            colorless
_exptl_crystal_description       prismatic
_cell_formula_units_Z            4
loop_
_atom_site_label
_atom_site_type_symbol
_atom_site_fract_x
_atom_site_fract_y
_atom_site_fract_z
O1 O 0.12936(17) 0.81214(12) 0.03760(8)
O2 O 0.08148(15) 0.66397(11) 0.20861(9)
O3 O 0.42265(14) 0.56941(12) 0.13996(9)
O4 O 0.1734(3) 0.59842(15) -0.01705(11)
O5 O 0.48597(18) 1.16517(13) 0.14130(10)
O6 O 0.38576(17) 1.23795(11) 0.25582(9)
C1 C 0.2044(2) 0.86326(16) 0.31285(11)
H1 H 0.1313 0.8133 0.3364
H2 H 0.2970 0.8304 0.3265
C2 C 0.1922(2) 0.98514(17) 0.35139(11)
H3 H 0.0923 1.0076 0.3546
H4 H 0.2307 0.9839 0.4071
C3 C 0.27194(19) 1.07134(16) 0.30082(11)
C4 C 0.33015(18) 1.04736(15) 0.22704(10)
C5 C 0.31880(18) 0.93269(14) 0.18302(10)
H5 H 0.4040 0.8874 0.1977
C6 C 0.3187(3) 0.94592(16) 0.08846(11)
H6 H 0.2510 1.0061 0.0731
H7 H 0.4129 0.9707 0.0705
C7 C 0.2799(2) 0.83508(16) 0.04430(12)
H8 H 0.3381 0.8154 -0.0041
C8 C 0.21393(19) 0.73650(15) 0.08839(11)
C9 C 0.19071(17) 0.74455(14) 0.18044(11)
C10 C 0.18701(17) 0.86617(15) 0.21789(10)
C11 C 0.2293(2) 0.64118(15) 0.22861(12)
H9 H 0.2565 0.6557 0.2862
C12 C 0.2994(2) 0.54021(16) 0.18900(12)
H10 H 0.3071 0.4696 0.2227
C13 C 0.29759(19) 0.52309(15) 0.09854(12)
C14 C 0.2238(2) 0.61582(16) 0.05010(12)
C15 C 0.3158(2) 0.40225(16) 0.06345(13)
H11 H 0.3735 0.3587 0.1035
C16 C 0.1751(3) 0.3381(2) 0.0558(2)
H12 H 0.1301 0.3335 0.1091
H13 H 0.1922 0.2610 0.0352
H14 H 0.1136 0.3790 0.0181
C17 C 0.3997(3) 0.4025(3) -0.01701(19)
H15 H 0.3411 0.4338 -0.0605
H16 H 0.4271 0.3244 -0.0307
H17 H 0.4839 0.4496 -0.0107
C18 C 0.3011(2) 1.19401(16) 0.32325(13)
H18 H 0.2126 1.2375 0.3286
H19 H 0.3534 1.1987 0.3750
C19 C 0.4085(2) 1.15051(15) 0.20004(12)
C20 C 0.04270(19) 0.92424(18) 0.19683(13)
H20 H 0.0241 0.9164 0.1387
H21 H 0.0466 1.0052 0.2111
H22 H -0.0324 0.8873 0.2276
loop_
_geom_bond_atom_site_label_1
_geom_bond_atom_site_label_2
_geom_bond_site_symmetry_1
_geom_bond_site_symmetry_2
O1 C7 1_555 1_555
O2 C9 1_555 1_555
O3 C12 1_555 1_555
O4 C14 1_555 1_555
O5 C19 1_555 1_555
O6 C18 1_555 1_555
C1 H1 1_555 1_555
H2 C1 1_555 1_555
C2 C1 1_555 1_555
H3 C2 1_555 1_555
H4 C2 1_555 1_555
C3 C2 1_555 1_555
C4 C3 1_555 1_555
C5 C4 1_555 1_555
H5 C5 1_555 1_555
C6 C5 1_555 1_555
H6 C6 1_555 1_555
H7 C6 1_555 1_555
C7 C6 1_555 1_555
H8 C7 1_555 1_555
C8 O1 1_555 1_555
C9 C8 1_555 1_555
C10 C1 1_555 1_555
C11 O2 1_555 1_555
H9 C11 1_555 1_555
C12 C11 1_555 1_555
H10 C12 1_555 1_555
C13 O3 1_555 1_555
C14 C8 1_555 1_555
C15 C13 1_555 1_555
H11 C15 1_555 1_555
C16 C15 1_555 1_555
H12 C16 1_555 1_555
H13 C16 1_555 1_555
H14 C16 1_555 1_555
C17 C15 1_555 1_555
H15 C17 1_555 1_555
H16 C17 1_555 1_555
H17 C17 1_555 1_555
C18 C3 1_555 1_555
H18 C18 1_555 1_555
H19 C18 1_555 1_555
C19 O6 1_555 1_555
C20 C10 1_555 1_555
H20 C20 1_555 1_555
H21 C20 1_555 1_555
H22 C20 1_555 1_555
C4 C19 1_555 1_555
C5 C10 1_555 1_555
C7 C8 1_555 1_555
C9 C10 1_555 1_555
C9 C11 1_555 1_555
C12 C13 1_555 1_555
C13 C14 1_555 1_555

#END
