
#######################################################################
#
#                 Cambridge Crystallographic Data Centre
#                                CCDC 
#
#######################################################################
#
# If this CIF has been generated from an entry in the Cambridge 
# Structural Database, then it will include bibliographic, chemical, 
# crystal, experimental, refinement or atomic coordinate data resulting 
# from the CCDC's data processing and validation procedures.
#
#######################################################################

data_UQOPUN
_chemical_formula_moiety         'C23 H15 N1 O3'
_chemical_name_systematic        
'6-oxo-5-phenyl-6H-pyrido[3,2,1-jk]carbazol-4-yl acetate'
_symmetry_cell_setting           monoclinic
_symmetry_space_group_name_H-M   'P 21/c'
_symmetry_Int_Tables_number      14
_space_group_name_Hall           '-P 2ybc'
loop_
_symmetry_equiv_pos_site_id
_symmetry_equiv_pos_as_xyz
1 x,y,z
2 -x,1/2+y,1/2-z
3 -x,-y,-z
4 x,1/2-y,1/2+z
_cell_length_a                   8.5103(17)
_cell_length_b                   31.286(6)
_cell_length_c                   6.9167(14)
_cell_angle_alpha                90
_cell_angle_beta                 109.90(3)
_cell_angle_gamma                90
_cell_volume                     1731.63
_exptl_crystal_colour            brown
_exptl_crystal_description       block
_cell_formula_units_Z            4
_exptl_crystal_recrystallization_method dichloromethane
_exptl_crystal_preparation       Luminescent
loop_
_atom_site_label
_atom_site_type_symbol
_atom_site_fract_x
_atom_site_fract_y
_atom_site_fract_z
C1 C 0.46438(17) 0.18505(5) 0.7741(2)
C2 C 0.49829(17) 0.13850(5) 0.7930(2)
C3 C 0.65476(18) 0.12357(5) 0.8916(2)
C4 C 0.79425(17) 0.15097(5) 0.9885(2)
C5 C 0.95853(19) 0.14011(6) 1.1082(2)
H1 H 0.9896 0.1115 1.1287
C6 C 1.07448(19) 0.17168(6) 1.1959(3)
H2 H 1.1822 0.1637 1.2765
C7 C 1.03569(19) 0.21478(6) 1.1679(2)
H3 H 1.1162 0.2354 1.2281
C8 C 0.87431(17) 0.22669(5) 1.0483(2)
C9 C 0.76002(16) 0.19413(5) 0.9655(2)
C10 C 0.61765(16) 0.25580(4) 0.86790(19)
C11 C 0.78330(17) 0.26638(5) 0.9859(2)
C12 C 0.82957(19) 0.30913(5) 1.0167(2)
H4 H 0.9385 0.3168 1.0942
C13 C 0.7111(2) 0.33992(5) 0.9303(2)
H5 H 0.7403 0.3686 0.9503
C14 C 0.5484(2) 0.32874(5) 0.8134(2)
H6 H 0.4711 0.3503 0.7567
C15 C 0.49832(18) 0.28666(5) 0.7792(2)
H7 H 0.3894 0.2794 0.7002
C16 C 0.35203(19) 0.11000(5) 0.7004(2)
C17 C 0.3483(3) 0.08022(6) 0.5522(3)
H8 H 0.4391 0.0774 0.5072
C18 C 0.2076(3) 0.05417(7) 0.4694(3)
H9 H 0.2059 0.0339 0.3704
C19 C 0.0730(3) 0.05824(6) 0.5325(3)
H10 H -0.0206 0.0411 0.4755
C20 C 0.0760(2) 0.08758(6) 0.6796(3)
H11 H -0.0153 0.0902 0.7238
C21 C 0.21344(19) 0.11339(5) 0.7631(3)
H12 H 0.2138 0.1334 0.8628
C22 C 0.6634(2) 0.05500(6) 1.0367(3)
C23 C 0.7171(3) 0.00982(7) 1.0141(4)
H13 H 0.7595 0.0085 0.9022
H14 H 0.6229 -0.0090 0.9869
H15 H 0.8029 0.0012 1.1390
N1 N 0.60417(14) 0.21069(4) 0.85770(17)
O1 O 0.32616(12) 0.20035(3) 0.69008(17)
O2 O 0.69091(15) 0.08015(4) 0.89369(19)
O3 O 0.6062(2) 0.06765(5) 1.1592(2)
loop_
_geom_bond_atom_site_label_1
_geom_bond_atom_site_label_2
_geom_bond_site_symmetry_1
_geom_bond_site_symmetry_2
C1 C2 1_555 1_555
C2 C3 1_555 1_555
C3 C4 1_555 1_555
C4 C5 1_555 1_555
C5 H1 1_555 1_555
C6 C5 1_555 1_555
H2 C6 1_555 1_555
C7 C6 1_555 1_555
H3 C7 1_555 1_555
C8 C7 1_555 1_555
C9 C4 1_555 1_555
C10 C11 1_555 1_555
C11 C8 1_555 1_555
C12 C11 1_555 1_555
H4 C12 1_555 1_555
C13 C12 1_555 1_555
H5 C13 1_555 1_555
C14 C13 1_555 1_555
H6 C14 1_555 1_555
C15 C10 1_555 1_555
H7 C15 1_555 1_555
C16 C2 1_555 1_555
C17 C16 1_555 1_555
H8 C17 1_555 1_555
C18 C17 1_555 1_555
H9 C18 1_555 1_555
C19 C18 1_555 1_555
H10 C19 1_555 1_555
C20 C19 1_555 1_555
H11 C20 1_555 1_555
C21 C16 1_555 1_555
H12 C21 1_555 1_555
C22 C23 1_555 1_555
C23 H13 1_555 1_555
H14 C23 1_555 1_555
H15 C23 1_555 1_555
N1 C1 1_555 1_555
O1 C1 1_555 1_555
O2 C3 1_555 1_555
O3 C22 1_555 1_555
C8 C9 1_555 1_555
C9 N1 1_555 1_555
C10 N1 1_555 1_555
C14 C15 1_555 1_555
C20 C21 1_555 1_555
C22 O2 1_555 1_555

#END
