
#######################################################################
#
#                 Cambridge Crystallographic Data Centre
#                                CCDC 
#
#######################################################################
#
# If this CIF has been generated from an entry in the Cambridge 
# Structural Database, then it will include bibliographic, chemical, 
# crystal, experimental, refinement or atomic coordinate data resulting 
# from the CCDC's data processing and validation procedures.
#
#######################################################################

data_UQUKIC
_chemical_formula_moiety         'C28 H60 Ca2 N8'
_chemical_name_systematic        
bis(\m-N-(((propan-2-yl)imino)methyl)propan-2-aminido)-bis(N-(((propan-2-yl)imino)methyl)propan-2-aminido)-di-calcium
_symmetry_cell_setting           monoclinic
_symmetry_space_group_name_H-M   'P 21/c'
_symmetry_Int_Tables_number      14
_space_group_name_Hall           '-P 2ybc'
loop_
_symmetry_equiv_pos_site_id
_symmetry_equiv_pos_as_xyz
1 x,y,z
2 -x,1/2+y,1/2-z
3 -x,-y,-z
4 x,1/2-y,1/2+z
_cell_length_a                   10.006(5)
_cell_length_b                   18.368(8)
_cell_length_c                   20.699(9)
_cell_angle_alpha                90
_cell_angle_beta                 99.344(10)
_cell_angle_gamma                90
_cell_volume                     3753.8
_exptl_crystal_colour            white
_exptl_crystal_description       block
_cell_formula_units_Z            4
_chemical_properties_physical    'Air-sensitive, Moisture-sensitive'
loop_
_atom_site_label
_atom_site_type_symbol
_atom_site_fract_x
_atom_site_fract_y
_atom_site_fract_z
Ca1 Ca 0.20716(7) 0.88949(4) 0.18178(3)
Ca2 Ca 0.16448(8) 0.73007(4) 0.10528(4)
N1 N 0.2437(3) 0.94665(15) 0.28456(12)
N2 N 0.3009(3) 1.00819(16) 0.19677(13)
N3 N 0.0026(3) 0.65984(15) 0.04006(14)
N4 N 0.2035(3) 0.60800(16) 0.08528(14)
C1 C 0.2909(3) 1.0045(2) 0.25931(16)
H1 H 0.3187 1.0449 0.2868
C2 C 0.2328(4) 0.9485(2) 0.35380(17)
H2 H 0.2907 0.9890 0.3751
C3 C 0.2830(6) 0.8781(3) 0.3850(2)
H3 H 0.2302 0.8378 0.3628
H4 H 0.2729 0.8787 0.4313
H5 H 0.3787 0.8718 0.3814
C4 C 0.0865(5) 0.9624(3) 0.3624(2)
H6 H 0.0579 1.0103 0.3446
H7 H 0.0797 0.9609 0.4091
H8 H 0.0280 0.9248 0.3391
C5 C 0.3554(5) 1.0748(2) 0.17344(19)
H9 H 0.3660 1.1113 0.2097
C6 C 0.2578(6) 1.1052(3) 0.1163(2)
H10 H 0.2481 1.0705 0.0799
H11 H 0.2928 1.1515 0.1025
H12 H 0.1694 1.1132 0.1297
C7 C 0.0836(4) 0.60348(18) 0.05019(16)
H13 H 0.0538 0.5579 0.0314
C8 C -0.1292(4) 0.6494(2) 0.0002(2)
H14 H -0.1366 0.5973 -0.0140
C9 C -0.1428(5) 0.6961(3) -0.0598(2)
H15 H -0.1359 0.7474 -0.0470
H16 H -0.2310 0.6872 -0.0870
H17 H -0.0705 0.6841 -0.0848
C10 C -0.2399(5) 0.6648(3) 0.0391(3)
H18 H -0.2265 0.6349 0.0789
H19 H -0.3277 0.6530 0.0127
H20 H -0.2380 0.7164 0.0511
C11 C 0.2805(5) 0.5405(2) 0.0979(2)
H21 H 0.2200 0.4990 0.0811
C12 C 0.3233(5) 0.5304(3) 0.1693(2)
H22 H 0.3784 0.5721 0.1872
H23 H 0.3767 0.4857 0.1772
H24 H 0.2430 0.5269 0.1907
C13 C 0.3995(7) 0.5400(4) 0.0631(3)
H25 H 0.3681 0.5393 0.0157
H26 H 0.4544 0.4966 0.0758
H27 H 0.4542 0.5837 0.0748
N5 N 0.1361(4) 0.75856(18) 0.21537(16)
N6 N 0.3507(4) 0.7750(2) 0.19655(18)
N7 N 0.1720(4) 0.84955(18) 0.05871(15)
N8 N 0.0004(4) 0.90116(19) 0.10479(17)
C14 C 0.4926(5) 1.0613(3) 0.1545(2)
H28 H 0.5542 1.0420 0.1923
H29 H 0.5289 1.1072 0.1404
H30 H 0.4839 1.0261 0.1185
C15 C 0.2667(4) 0.7502(2) 0.23450(19)
H31 H 0.3001 0.7267 0.2748
C16 C 0.0457(6) 0.7267(4) 0.2566(3)
H32 H 0.0962 0.7204 0.3020
C17 C -0.0050(8) 0.6530(4) 0.2297(4)
H33 H -0.0499 0.6585 0.1842
H34 H -0.0696 0.6335 0.2562
H35 H 0.0717 0.6195 0.2314
C18 C -0.0729(5) 0.7779(3) 0.2580(3)
H36 H -0.0393 0.8247 0.2767
H37 H -0.1348 0.7566 0.2850
H38 H -0.1210 0.7853 0.2134
C19 C 0.4976(8) 0.7677(5) 0.2193(4)
H39 H 0.5121 0.7361 0.2591
C20 C 0.5547(10) 0.8437(6) 0.2383(5)
H40 H 0.5402 0.8755 0.1997
H41 H 0.6519 0.8400 0.2548
H42 H 0.5084 0.8641 0.2724
C21 C 0.5648(5) 0.7335(3) 0.1684(3)
H43 H 0.5224 0.6863 0.1561
H44 H 0.6611 0.7262 0.1856
H45 H 0.5556 0.7651 0.1299
C22 C 0.0627(4) 0.8913(2) 0.0552(2)
H46 H 0.0289 0.9147 0.0149
C23 C 0.2453(7) 0.8554(4) 0.0030(3)
H47 H 0.1817 0.8740 -0.0358
C24 C 0.2951(7) 0.7800(3) -0.0133(3)
H48 H 0.3398 0.7833 -0.0520
H49 H 0.2178 0.7467 -0.0224
H50 H 0.3594 0.7617 0.0239
C25 C 0.3609(10) 0.9070(5) 0.0181(4)
H51 H 0.4233 0.8895 0.0565
H52 H 0.3267 0.9552 0.0274
H53 H 0.4088 0.9101 -0.0195
C26 C -0.1214(5) 0.9455(3) 0.0955(3)
H54 H -0.1224 0.9759 0.0554
C27 C -0.1194(7) 0.9957(5) 0.1539(4)
H55 H -0.1218 0.9666 0.1933
H56 H -0.1985 1.0279 0.1463
H57 H -0.0365 1.0251 0.1596
C28 C -0.2466(6) 0.8982(4) 0.0862(4)
H58 H -0.2477 0.8677 0.0473
H59 H -0.3274 0.9292 0.0805
H60 H -0.2458 0.8672 0.1248
N9? N 0.275(2) 0.8336(10) 0.0763(8)
N10? N 0.371(3) 0.8016(12) 0.1764(10)
C29? C 0.384(2) 0.8144(12) 0.1170(10)
H61? H 0.4691 0.8103 0.1028
C30? C 0.306(4) 0.846(2) 0.0087(13)
H62? H 0.3851 0.8142 0.0033
C31? C 0.344(8) 0.924(3) -0.003(3)
H63? H 0.4381 0.9329 0.0180
H64? H 0.2837 0.9570 0.0160
H65? H 0.3359 0.9332 -0.0500
C32? C 0.185(4) 0.821(2) -0.0420(16)
H66? H 0.1614 0.7710 -0.0328
H67? H 0.2096 0.8240 -0.0859
H68? H 0.1077 0.8531 -0.0396
C33? C 0.481(5) 0.782(3) 0.228(2)
H69? H 0.5460 0.7536 0.2054
C34? C 0.456(4) 0.7347(16) 0.2837(16)
H70? H 0.4183 0.6878 0.2669
H71? H 0.3911 0.7590 0.3075
H72? H 0.5411 0.7267 0.3134
C35? C 0.563(8) 0.844(4) 0.263(3)
H73? H 0.6253 0.8633 0.2351
H74? H 0.6146 0.8267 0.3042
H75? H 0.5013 0.8831 0.2719
N11? N 0.049(2) 0.7610(11) 0.2155(11)
N12? N -0.0010(18) 0.8604(10) 0.1511(9)
C36? C -0.033(2) 0.8148(10) 0.1950(9)
H76? H -0.1152 0.8208 0.2119
C37? C -0.002(3) 0.7139(18) 0.2623(15)
H77? H -0.0862 0.7378 0.2723
C38? C 0.092(3) 0.707(2) 0.3271(14)
H78? H 0.1801 0.6890 0.3195
H79? H 0.0529 0.6722 0.3551
H80? H 0.1024 0.7544 0.3487
C39? C -0.045(5) 0.639(2) 0.236(2)
H81? H 0.0274 0.6173 0.2152
H82? H -0.1278 0.6426 0.2036
H83? H -0.0620 0.6072 0.2720
C40? C -0.107(3) 0.9114(13) 0.1290(17)
H84? H -0.1665 0.9104 0.1634
C41? C -0.193(5) 0.879(3) 0.068(2)
H85? H -0.1373 0.8719 0.0341
H86? H -0.2678 0.9126 0.0523
H87? H -0.2305 0.8323 0.0794
C42? C -0.059(5) 0.9906(18) 0.128(2)
H88? H -0.0424 1.0100 0.1724
H89? H -0.1286 1.0198 0.1007
H90? H 0.0252 0.9925 0.1091
loop_
_geom_bond_atom_site_label_1
_geom_bond_atom_site_label_2
_geom_bond_site_symmetry_1
_geom_bond_site_symmetry_2
Ca1 N1 1_555 1_555
Ca2 N3 1_555 1_555
N1 C1 1_555 1_555
N2 Ca1 1_555 1_555
N3 C7 1_555 1_555
N4 Ca2 1_555 1_555
C1 N2 1_555 1_555
H1 C1 1_555 1_555
C2 N1 1_555 1_555
H2 C2 1_555 1_555
C3 C2 1_555 1_555
H3 C3 1_555 1_555
H4 C3 1_555 1_555
H5 C3 1_555 1_555
C4 C2 1_555 1_555
H6 C4 1_555 1_555
H7 C4 1_555 1_555
H8 C4 1_555 1_555
C5 N2 1_555 1_555
H9 C5 1_555 1_555
C6 C5 1_555 1_555
H10 C6 1_555 1_555
H11 C6 1_555 1_555
H12 C6 1_555 1_555
C7 N4 1_555 1_555
H13 C7 1_555 1_555
C8 N3 1_555 1_555
H14 C8 1_555 1_555
C9 C8 1_555 1_555
H15 C9 1_555 1_555
H16 C9 1_555 1_555
H17 C9 1_555 1_555
C10 C8 1_555 1_555
H18 C10 1_555 1_555
H19 C10 1_555 1_555
H20 C10 1_555 1_555
C11 N4 1_555 1_555
H21 C11 1_555 1_555
C12 C11 1_555 1_555
H22 C12 1_555 1_555
H23 C12 1_555 1_555
H24 C12 1_555 1_555
C13 C11 1_555 1_555
H25 C13 1_555 1_555
H26 C13 1_555 1_555
H27 C13 1_555 1_555
N5 Ca1 1_555 1_555
N6 Ca1 1_555 1_555
N7 Ca1 1_555 1_555
N8 Ca1 1_555 1_555
C14 C5 1_555 1_555
H28 C14 1_555 1_555
H29 C14 1_555 1_555
H30 C14 1_555 1_555
C15 N5 1_555 1_555
H31 C15 1_555 1_555
C16 N5 1_555 1_555
H32 C16 1_555 1_555
C17 C16 1_555 1_555
H33 C17 1_555 1_555
H34 C17 1_555 1_555
H35 C17 1_555 1_555
C18 C16 1_555 1_555
H36 C18 1_555 1_555
H37 C18 1_555 1_555
H38 C18 1_555 1_555
C19 N6 1_555 1_555
H39 C19 1_555 1_555
C20 C19 1_555 1_555
H40 C20 1_555 1_555
H41 C20 1_555 1_555
H42 C20 1_555 1_555
C21 C19 1_555 1_555
H43 C21 1_555 1_555
H44 C21 1_555 1_555
H45 C21 1_555 1_555
C22 N7 1_555 1_555
H46 C22 1_555 1_555
C23 N7 1_555 1_555
H47 C23 1_555 1_555
C24 C23 1_555 1_555
H48 C24 1_555 1_555
H49 C24 1_555 1_555
H50 C24 1_555 1_555
C25 C23 1_555 1_555
H51 C25 1_555 1_555
H52 C25 1_555 1_555
H53 C25 1_555 1_555
C26 N8 1_555 1_555
H54 C26 1_555 1_555
C27 C26 1_555 1_555
H55 C27 1_555 1_555
H56 C27 1_555 1_555
H57 C27 1_555 1_555
C28 C26 1_555 1_555
H58 C28 1_555 1_555
H59 C28 1_555 1_555
H60 C28 1_555 1_555
Ca2 N5 1_555 1_555
Ca2 N6 1_555 1_555
Ca2 N7 1_555 1_555
N6 C15 1_555 1_555
N8 C22 1_555 1_555

#END
