
#######################################################################
#
#                 Cambridge Crystallographic Data Centre
#                                CCDC 
#
#######################################################################
#
# If this CIF has been generated from an entry in the Cambridge 
# Structural Database, then it will include bibliographic, chemical, 
# crystal, experimental, refinement or atomic coordinate data resulting 
# from the CCDC's data processing and validation procedures.
#
#######################################################################

data_UQUMUQ
_chemical_formula_moiety         'C24 H29 N1 O5 S1'
_chemical_name_systematic        
'ethyl (2S*,4S*,4aS*,8aR*)-4-phenyl-8-tosyloctahydro-2H-pyrano[2,3-b]pyridine-2-carboxylate'
_symmetry_cell_setting           monoclinic
_symmetry_space_group_name_H-M   'C 2/c'
_symmetry_Int_Tables_number      15
_space_group_name_Hall           '-C 2yn'
loop_
_symmetry_equiv_pos_site_id
_symmetry_equiv_pos_as_xyz
1 x,y,z
2 -x,y,1/2-z
3 1/2+x,1/2+y,z
4 1/2-x,1/2+y,1/2-z
5 -x,-y,-z
6 x,-y,1/2+z
7 1/2-x,1/2-y,-z
8 1/2+x,1/2-y,1/2+z
_cell_length_a                   26.203(3)
_cell_length_b                   11.8669(12)
_cell_length_c                   15.3490(15)
_cell_angle_alpha                90
_cell_angle_beta                 104.705(2)
_cell_angle_gamma                90
_cell_volume                     4616.42
_exptl_crystal_colour            colorless
_exptl_crystal_description       block
_cell_formula_units_Z            8
loop_
_atom_site_label
_atom_site_type_symbol
_atom_site_fract_x
_atom_site_fract_y
_atom_site_fract_z
S1 S 0.34010(2) 0.35529(4) 1.09055(3)
O1 O 0.33607(5) 0.35975(12) 0.88422(9)
O2 O 0.32660(5) 0.23877(11) 1.07478(9)
O3 O 0.33224(5) 0.40900(12) 1.16974(9)
O4 O 0.41892(7) 0.31114(19) 0.81668(14)
O5 O 0.3689(2) 0.1881(4) 0.7168(3)
N1 N 0.30384(6) 0.42517(13) 1.00415(10)
C1 C 0.31553(8) 0.54711(15) 1.00181(13)
H1 H 0.3485 0.5579 0.9826
H2 H 0.3207 0.5795 1.0629
C2 C 0.27061(8) 0.60746(17) 0.93701(13)
H3 H 0.2801 0.6876 0.9324
H4 H 0.2387 0.6045 0.9602
C3 C 0.25877(9) 0.55293(17) 0.84359(14)
H5 H 0.2288 0.5920 0.8024
H6 H 0.2899 0.5597 0.8185
C4 C 0.24528(8) 0.42881(16) 0.85139(12)
H7 H 0.2133 0.4251 0.8755
C5 C 0.28987(7) 0.36728(16) 0.91779(12)
H8 H 0.2778 0.2893 0.9272
C6 C 0.32526(8) 0.29344(18) 0.80437(13)
H9 H 0.3118 0.2183 0.8181
C7 C 0.28331(8) 0.34826(18) 0.72966(13)
H10 H 0.2761 0.3005 0.6750
H11 H 0.2958 0.4227 0.7145
C8 C 0.23321(8) 0.36232(17) 0.76188(13)
H12 H 0.2224 0.2849 0.7759
C9 C 0.18685(9) 0.41096(18) 0.69200(14)
C10 C 0.19277(10) 0.48236(19) 0.62326(15)
H13 H 0.2272 0.5012 0.6184
C11 C 0.14933(11) 0.5261(2) 0.56207(17)
H14 H 0.1540 0.5750 0.5157
C12 C 0.09951(11) 0.4992(3) 0.5680(2)
H15 H 0.0697 0.5292 0.5257
C13 C 0.09276(11) 0.4286(3) 0.6356(2)
H16 H 0.0582 0.4102 0.6400
C14 C 0.13629(10) 0.3844(2) 0.69689(18)
H17 H 0.1313 0.3353 0.7429
C15 C 0.40677(7) 0.37253(16) 1.09200(12)
C16 C 0.43491(8) 0.46283(18) 1.13754(14)
H18 H 0.4185 0.5147 1.1689
C17 C 0.48723(8) 0.47669(19) 1.13680(15)
H19 H 0.5062 0.5400 1.1662
C18 C 0.51234(8) 0.4002(2) 1.09411(14)
C19 C 0.48331(8) 0.3107(2) 1.04819(16)
H20 H 0.4999 0.2582 1.0176
C20 C 0.43061(8) 0.29686(19) 1.04626(15)
H21 H 0.4110 0.2360 1.0139
C21 C 0.56990(8) 0.4137(2) 1.09775(17)
H22 H 0.5910 0.4009 1.1595
H23 H 0.5763 0.4902 1.0788
H24 H 0.5799 0.3589 1.0573
C22 C 0.37677(10) 0.2757(2) 0.77877(17)
C23 C 0.4140(3) 0.1483(8) 0.6890(5)
H25 H 0.4459 0.1572 0.7396
H26 H 0.4096 0.0669 0.6748
C24 C 0.4219(3) 0.2053(7) 0.6138(5)
H27 H 0.3917 0.1919 0.5621
H28 H 0.4542 0.1777 0.6000
H29 H 0.4252 0.2862 0.6266
O6? O 0.3665(2) 0.2353(4) 0.6938(4)
C25? C 0.4121(3) 0.2106(6) 0.6603(5)
H30? H 0.4405 0.2650 0.6864
H31? H 0.4026 0.2203 0.5940
C26? C 0.4315(3) 0.0973(7) 0.6821(6)
H32? H 0.4029 0.0433 0.6594
H33? H 0.4443 0.0895 0.7476
H34? H 0.4605 0.0824 0.6540
loop_
_geom_bond_atom_site_label_1
_geom_bond_atom_site_label_2
_geom_bond_site_symmetry_1
_geom_bond_site_symmetry_2
S1 O2 1_555 1_555
O1 C5 1_555 1_555
O3 S1 1_555 1_555
O4 C22 1_555 1_555
O5 C22 1_555 1_555
N1 S1 1_555 1_555
C1 N1 1_555 1_555
H1 C1 1_555 1_555
H2 C1 1_555 1_555
C2 C1 1_555 1_555
H3 C2 1_555 1_555
H4 C2 1_555 1_555
C3 C2 1_555 1_555
H5 C3 1_555 1_555
H6 C3 1_555 1_555
C4 C3 1_555 1_555
H7 C4 1_555 1_555
C5 N1 1_555 1_555
H8 C5 1_555 1_555
C6 O1 1_555 1_555
H9 C6 1_555 1_555
C7 C6 1_555 1_555
H10 C7 1_555 1_555
H11 C7 1_555 1_555
C8 C4 1_555 1_555
H12 C8 1_555 1_555
C9 C8 1_555 1_555
C10 C9 1_555 1_555
H13 C10 1_555 1_555
C11 C10 1_555 1_555
H14 C11 1_555 1_555
C12 C11 1_555 1_555
H15 C12 1_555 1_555
C13 C12 1_555 1_555
H16 C13 1_555 1_555
C14 C9 1_555 1_555
H17 C14 1_555 1_555
C15 S1 1_555 1_555
C16 C15 1_555 1_555
H18 C16 1_555 1_555
C17 C16 1_555 1_555
H19 C17 1_555 1_555
C18 C17 1_555 1_555
C19 C18 1_555 1_555
H20 C19 1_555 1_555
C20 C15 1_555 1_555
H21 C20 1_555 1_555
C21 C18 1_555 1_555
H22 C21 1_555 1_555
H23 C21 1_555 1_555
H24 C21 1_555 1_555
C22 C6 1_555 1_555
C23 O5 1_555 1_555
H25 C23 1_555 1_555
H26 C23 1_555 1_555
C24 C23 1_555 1_555
H27 C24 1_555 1_555
H28 C24 1_555 1_555
H29 C24 1_555 1_555
C4 C5 1_555 1_555
C7 C8 1_555 1_555
C13 C14 1_555 1_555
C19 C20 1_555 1_555

#END
