
#######################################################################
#
#                 Cambridge Crystallographic Data Centre
#                                CCDC 
#
#######################################################################
#
# If this CIF has been generated from an entry in the Cambridge 
# Structural Database, then it will include bibliographic, chemical, 
# crystal, experimental, refinement or atomic coordinate data resulting 
# from the CCDC's data processing and validation procedures.
#
#######################################################################

data_UQUYIQ01
_chemical_formula_moiety         'C16 H10 O4'
_chemical_name_systematic        '2-oxo-2H-chromen-7-yl benzoate'
_symmetry_cell_setting           monoclinic
_symmetry_space_group_name_H-M   'P 21/c'
_symmetry_Int_Tables_number      14
_space_group_name_Hall           '-P 2ybc'
loop_
_symmetry_equiv_pos_site_id
_symmetry_equiv_pos_as_xyz
1 x,y,z
2 -x,1/2+y,1/2-z
3 -x,-y,-z
4 x,1/2-y,1/2+z
_cell_length_a                   6.6490(5)
_cell_length_b                   28.779(2)
_cell_length_c                   7.2200(6)
_cell_angle_alpha                90
_cell_angle_beta                 115.909(3)
_cell_angle_gamma                90
_cell_volume                     1242.7
_exptl_crystal_colour            colorless
_exptl_crystal_description       block
_cell_formula_units_Z            4
loop_
_atom_site_label
_atom_site_type_symbol
_atom_site_fract_x
_atom_site_fract_y
_atom_site_fract_z
O1 O -0.45144(18) 0.16161(4) -0.1059(2)
O2 O -0.82719(16) 0.15553(3) -0.25357(16)
O3 O -0.56116(15) 0.00198(3) -0.27852(15)
O4 O -0.43053(19) -0.06748(4) -0.2931(2)
C1 C -0.6751(3) 0.23035(5) -0.1923(2)
C2 C -0.8858(3) 0.24876(5) -0.2489(3)
H1 H -1.0073 0.2291 -0.2802
C3 C -0.9163(4) 0.29631(6) -0.2591(3)
H2 H -1.0587 0.3085 -0.2985
C4 C -0.7388(4) 0.32559(6) -0.2116(3)
H3 H -0.7605 0.3576 -0.2183
C5 C -0.5296(4) 0.30786(6) -0.1543(3)
H4 H -0.4091 0.3279 -0.1212
C6 C -0.4949(3) 0.26001(5) -0.1448(3)
H5 H -0.3524 0.2481 -0.1070
C7 C -0.6319(2) 0.17966(5) -0.1771(2)
C8 C -0.8352(2) 0.10722(4) -0.2445(2)
C9 C -0.6836(2) 0.07782(4) -0.2664(2)
H6 H -0.5625 0.0893 -0.2844
C10 C -0.7180(2) 0.03064(4) -0.26080(18)
C11 C -0.9000(2) 0.01201(4) -0.23948(18)
C12 C -1.0526(2) 0.04327(5) -0.2229(2)
H7 H -1.1778 0.0320 -0.2116
C13 C -1.0203(2) 0.09042(5) -0.2231(2)
H8 H -1.1210 0.1109 -0.2091
C14 C -0.5761(2) -0.04589(5) -0.2743(2)
C15 C -0.7631(2) -0.06487(5) -0.2486(2)
H9 H -0.7758 -0.0969 -0.2411
C16 C -0.9182(2) -0.03756(5) -0.23527(19)
H10 H -1.0394 -0.0508 -0.2231
loop_
_geom_bond_atom_site_label_1
_geom_bond_atom_site_label_2
_geom_bond_site_symmetry_1
_geom_bond_site_symmetry_2
O1 C7 1_555 1_555
O2 C7 1_555 1_555
O3 C10 1_555 1_555
O4 C14 1_555 1_555
C1 C2 1_555 1_555
C2 H1 1_555 1_555
C3 C2 1_555 1_555
H2 C3 1_555 1_555
C4 C3 1_555 1_555
H3 C4 1_555 1_555
C5 C4 1_555 1_555
H4 C5 1_555 1_555
C6 C1 1_555 1_555
H5 C6 1_555 1_555
C7 C1 1_555 1_555
C8 O2 1_555 1_555
C9 C8 1_555 1_555
H6 C9 1_555 1_555
C10 C9 1_555 1_555
C11 C10 1_555 1_555
C12 C11 1_555 1_555
H7 C12 1_555 1_555
C13 C8 1_555 1_555
H8 C13 1_555 1_555
C14 O3 1_555 1_555
C15 C14 1_555 1_555
H9 C15 1_555 1_555
C16 C11 1_555 1_555
H10 C16 1_555 1_555
C5 C6 1_555 1_555
C12 C13 1_555 1_555
C15 C16 1_555 1_555

#END
