
#######################################################################
#
#                 Cambridge Crystallographic Data Centre
#                                CCDC 
#
#######################################################################
#
# If this CIF has been generated from an entry in the Cambridge 
# Structural Database, then it will include bibliographic, chemical, 
# crystal, experimental, refinement or atomic coordinate data resulting 
# from the CCDC's data processing and validation procedures.
#
#######################################################################

data_URACOG
_chemical_name_common            'Benzyl 3-acetoxy-12-oxooleanan-28-oate'
_chemical_formula_moiety         'C39 H56 O5'
_chemical_name_systematic        
'3\b-Acetoxy-12-oxoolean-28-oic acid benzyl ester'
_symmetry_cell_setting           orthorhombic
_symmetry_space_group_name_H-M   'P 21 21 21'
_symmetry_Int_Tables_number      19
_space_group_name_Hall           'P 2ac 2ab'
loop_
_symmetry_equiv_pos_site_id
_symmetry_equiv_pos_as_xyz
1 x,y,z
2 1/2+x,1/2-y,-z
3 -x,1/2+y,1/2-z
4 1/2-x,-y,1/2+z
_cell_length_a                   6.9775(3)
_cell_length_b                   12.4235(5)
_cell_length_c                   39.1480(16)
_cell_angle_alpha                90
_cell_angle_beta                 90
_cell_angle_gamma                90
_cell_volume                     3393.54
_exptl_crystal_colour            colorless
_exptl_crystal_description       block
_cell_formula_units_Z            4
loop_
_atom_site_label
_atom_site_type_symbol
_atom_site_fract_x
_atom_site_fract_y
_atom_site_fract_z
O1 O 0.9465(2) 0.71768(14) 0.64283(4)
O2 O 1.2672(3) 0.74643(14) 0.64732(5)
O3 O 0.6349(3) 0.89260(13) 0.85384(4)
O4 O 0.3626(3) 0.60770(14) 0.90948(5)
O5 O 0.5121(3) 0.45703(13) 0.92650(5)
C1 C 0.7536(4) 0.80684(18) 0.72827(6)
H1 H 0.6580 0.8629 0.7340
H2 H 0.8770 0.8280 0.7388
C2 C 0.7781(4) 0.80269(19) 0.68926(6)
H3 H 0.6533 0.7870 0.6783
H4 H 0.8236 0.8733 0.6808
C3 C 0.9216(4) 0.71608(18) 0.67993(5)
H5 H 1.0471 0.7333 0.6910
C4 C 0.8594(4) 0.60222(18) 0.69087(6)
C5 C 0.8254(3) 0.60835(17) 0.73047(6)
H6 H 0.9535 0.6277 0.7401
C6 C 0.6882(3) 0.69845(18) 0.74376(6)
C7 C 0.7249(3) 0.70419(16) 0.78349(5)
H7 H 0.8628 0.7250 0.7856
C8 C 0.7082(3) 0.59695(17) 0.80415(6)
C9 C 0.8147(4) 0.50465(17) 0.78578(6)
H8 H 0.9541 0.5134 0.7895
H9 H 0.7757 0.4353 0.7961
C10 C 0.7762(4) 0.50003(17) 0.74724(6)
H10 H 0.6396 0.4829 0.7432
H11 H 0.8547 0.4423 0.7368
C11 C 0.6151(4) 0.79569(18) 0.80144(6)
H12 H 0.6530 0.8647 0.7908
H13 H 0.4765 0.7855 0.7971
C12 C 0.6455(3) 0.80507(17) 0.83995(6)
C13 C 0.6707(3) 0.70130(17) 0.85983(5)
H14 H 0.5409 0.6672 0.8594
C14 C 0.8015(3) 0.61930(17) 0.84082(6)
C15 C 0.8127(4) 0.51426(17) 0.86228(6)
H15 H 0.6891 0.4756 0.8603
H16 H 0.9136 0.4674 0.8526
C16 C 0.8564(4) 0.53346(18) 0.90039(6)
H17 H 0.8545 0.4636 0.9126
H18 H 0.9867 0.5641 0.9026
C17 C 0.7116(3) 0.61004(18) 0.91721(6)
C18 C 0.7123(3) 0.71981(17) 0.89836(5)
H19 H 0.6031 0.7628 0.9077
C19 C 0.8967(4) 0.78302(18) 0.90615(6)
H20 H 0.8898 0.8535 0.8944
H21 H 1.0070 0.7432 0.8965
C20 C 0.9346(4) 0.8027(2) 0.94448(6)
C21 C 0.9352(4) 0.6923(2) 0.96255(6)
H22 H 1.0479 0.6506 0.9547
H23 H 0.9485 0.7037 0.9875
C22 C 0.7538(4) 0.62654(18) 0.95579(6)
H24 H 0.6433 0.6635 0.9665
H25 H 0.7672 0.5552 0.9668
C23 C 1.0282(4) 0.52563(19) 0.68376(6)
H26 H 1.0650 0.5309 0.6597
H27 H 0.9897 0.4515 0.6889
H28 H 1.1374 0.5457 0.6982
C24 C 0.6862(4) 0.5619(2) 0.67035(6)
H29 H 0.5830 0.6153 0.6715
H30 H 0.6413 0.4936 0.6800
H31 H 0.7237 0.5511 0.6465
C25 C 0.4751(4) 0.6817(2) 0.73452(6)
H32 H 0.4432 0.6051 0.7363
H33 H 0.4522 0.7065 0.7111
H34 H 0.3946 0.7229 0.7503
C26 C 0.4960(4) 0.56045(19) 0.80771(6)
H35 H 0.4524 0.5294 0.7860
H36 H 0.4160 0.6226 0.8135
H37 H 0.4860 0.5062 0.8258
C27 C 1.0085(3) 0.66348(18) 0.83667(6)
H38 H 1.0857 0.6423 0.8565
H39 H 1.0046 0.7422 0.8351
H40 H 1.0658 0.6338 0.8158
C28 C 0.5095(4) 0.56109(18) 0.91635(6)
C29 C 1.1334(4) 0.8542(2) 0.94813(7)
H41 H 1.1345 0.9240 0.9365
H42 H 1.2300 0.8070 0.9378
H43 H 1.1626 0.8646 0.9724
C30 C 0.7847(4) 0.8789(2) 0.96021(6)
H44 H 0.8141 0.8902 0.9844
H45 H 0.6569 0.8469 0.9580
H46 H 0.7877 0.9481 0.9482
C31 C 0.3242(4) 0.4050(2) 0.92880(8)
H47 H 0.2654 0.3995 0.9059
H48 H 0.2378 0.4475 0.9437
C32 C 0.3546(4) 0.29481(19) 0.94361(7)
C33 C 0.3912(4) 0.2077(2) 0.92240(7)
H49 H 0.3971 0.2183 0.8984
C34 C 0.4195(4) 0.1051(2) 0.93572(7)
H50 H 0.4449 0.0461 0.9210
C35 C 0.4104(4) 0.0901(2) 0.97059(7)
H51 H 0.4310 0.0204 0.9799
C36 C 0.3715(5) 0.1755(2) 0.99212(7)
H52 H 0.3623 0.1642 1.0161
C37 C 0.3456(4) 0.2783(2) 0.97862(7)
H53 H 0.3218 0.3373 0.9935
C38 C 1.1264(4) 0.72903(19) 0.63014(6)
C39 C 1.1258(4) 0.7154(2) 0.59200(6)
H54 H 1.2318 0.7566 0.5821
H55 H 1.0040 0.7416 0.5827
H56 H 1.1412 0.6390 0.5864
loop_
_geom_bond_atom_site_label_1
_geom_bond_atom_site_label_2
_geom_bond_site_symmetry_1
_geom_bond_site_symmetry_2
O1 C3 1_555 1_555
O2 C38 1_555 1_555
O3 C12 1_555 1_555
O4 C28 1_555 1_555
O5 C28 1_555 1_555
C1 H1 1_555 1_555
H2 C1 1_555 1_555
C2 C1 1_555 1_555
H3 C2 1_555 1_555
H4 C2 1_555 1_555
C3 C2 1_555 1_555
H5 C3 1_555 1_555
C4 C3 1_555 1_555
C5 C4 1_555 1_555
H6 C5 1_555 1_555
C6 C1 1_555 1_555
C7 C6 1_555 1_555
H7 C7 1_555 1_555
C8 C7 1_555 1_555
C9 C8 1_555 1_555
H8 C9 1_555 1_555
H9 C9 1_555 1_555
C10 C5 1_555 1_555
H10 C10 1_555 1_555
H11 C10 1_555 1_555
C11 C7 1_555 1_555
H12 C11 1_555 1_555
H13 C11 1_555 1_555
C12 C11 1_555 1_555
C13 C12 1_555 1_555
H14 C13 1_555 1_555
C14 C8 1_555 1_555
C15 C14 1_555 1_555
H15 C15 1_555 1_555
H16 C15 1_555 1_555
C16 C15 1_555 1_555
H17 C16 1_555 1_555
H18 C16 1_555 1_555
C17 C16 1_555 1_555
C18 C13 1_555 1_555
H19 C18 1_555 1_555
C19 C18 1_555 1_555
H20 C19 1_555 1_555
H21 C19 1_555 1_555
C20 C19 1_555 1_555
C21 C20 1_555 1_555
H22 C21 1_555 1_555
H23 C21 1_555 1_555
C22 C17 1_555 1_555
H24 C22 1_555 1_555
H25 C22 1_555 1_555
C23 C4 1_555 1_555
H26 C23 1_555 1_555
H27 C23 1_555 1_555
H28 C23 1_555 1_555
C24 C4 1_555 1_555
H29 C24 1_555 1_555
H30 C24 1_555 1_555
H31 C24 1_555 1_555
C25 C6 1_555 1_555
H32 C25 1_555 1_555
H33 C25 1_555 1_555
H34 C25 1_555 1_555
C26 C8 1_555 1_555
H35 C26 1_555 1_555
H36 C26 1_555 1_555
H37 C26 1_555 1_555
C27 C14 1_555 1_555
H38 C27 1_555 1_555
H39 C27 1_555 1_555
H40 C27 1_555 1_555
C28 C17 1_555 1_555
C29 C20 1_555 1_555
H41 C29 1_555 1_555
H42 C29 1_555 1_555
H43 C29 1_555 1_555
C30 C20 1_555 1_555
H44 C30 1_555 1_555
H45 C30 1_555 1_555
H46 C30 1_555 1_555
C31 O5 1_555 1_555
H47 C31 1_555 1_555
H48 C31 1_555 1_555
C32 C31 1_555 1_555
C33 C32 1_555 1_555
H49 C33 1_555 1_555
C34 C33 1_555 1_555
H50 C34 1_555 1_555
C35 C34 1_555 1_555
H51 C35 1_555 1_555
C36 C35 1_555 1_555
H52 C36 1_555 1_555
C37 C32 1_555 1_555
H53 C37 1_555 1_555
C38 O1 1_555 1_555
C39 C38 1_555 1_555
H54 C39 1_555 1_555
H55 C39 1_555 1_555
H56 C39 1_555 1_555
C5 C6 1_555 1_555
C9 C10 1_555 1_555
C13 C14 1_555 1_555
C17 C18 1_555 1_555
C21 C22 1_555 1_555
C36 C37 1_555 1_555

#END
