
#######################################################################
#
#                 Cambridge Crystallographic Data Centre
#                                CCDC 
#
#######################################################################
#
# If this CIF has been generated from an entry in the Cambridge 
# Structural Database, then it will include bibliographic, chemical, 
# crystal, experimental, refinement or atomic coordinate data resulting 
# from the CCDC's data processing and validation procedures.
#
#######################################################################

data_URAGEB
_chemical_formula_moiety         'C15 H22 O3'
_chemical_name_systematic        
1,4-dihydroxy-4-methyl-6-methylene-2-(2-methylprop-1-en-1-yl)bicyclo[3.3.1]nonan-3-one
_symmetry_cell_setting           orthorhombic
_symmetry_space_group_name_H-M   'P 21 21 21'
_symmetry_Int_Tables_number      19
_space_group_name_Hall           'P 2ac 2ab'
loop_
_symmetry_equiv_pos_site_id
_symmetry_equiv_pos_as_xyz
1 x,y,z
2 1/2-x,-y,1/2+z
3 1/2+x,1/2-y,-z
4 -x,1/2+y,1/2-z
_cell_length_a                   6.72260(10)
_cell_length_b                   11.26120(10)
_cell_length_c                   19.1305(2)
_cell_angle_alpha                90
_cell_angle_beta                 90
_cell_angle_gamma                90
_cell_volume                     1448.27
_exptl_crystal_colour            colorless
_exptl_crystal_description       block
_cell_formula_units_Z            4
loop_
_atom_site_label
_atom_site_type_symbol
_atom_site_fract_x
_atom_site_fract_y
_atom_site_fract_z
O1 O 1.61824(12) 0.52342(7) -0.20185(5)
H1 H 1.6511 0.4577 -0.2163
O2 O 1.18957(13) 0.40050(7) -0.21591(5)
O3 O 1.19705(13) 0.81676(7) -0.25949(4)
H2 H 1.0798 0.8318 -0.2673
C1 C 1.25315(18) 0.63282(10) -0.06893(6)
C2 C 1.20995(16) 0.71973(9) -0.21159(6)
C3 C 1.03194(17) 0.58213(10) -0.29725(6)
H3 H 0.9255 0.5485 -0.2733
C4 C 1.40368(17) 0.73376(10) -0.17153(6)
H4 H 1.4038 0.8089 -0.1468
H5 H 1.5148 0.7336 -0.2039
C5 C 1.04928(18) 0.63186(11) -0.10215(6)
H6 H 0.9498 0.6488 -0.0668
H7 H 1.0225 0.5534 -0.1209
C6 C 1.21801(17) 0.60260(9) -0.25561(5)
H8 H 1.3265 0.6122 -0.2894
C7 C 1.44510(16) 0.51219(9) -0.15894(6)
C8 C 1.03294(17) 0.72400(10) -0.16114(6)
H9 H 0.9113 0.7099 -0.1871
H10 H 1.0245 0.8027 -0.1408
C9 C 1.42634(17) 0.63110(10) -0.11917(6)
H11 H 1.5489 0.6437 -0.0924
C10 C 1.4622(2) 0.40695(10) -0.10993(6)
H12 H 1.3432 0.4007 -0.0824
H13 H 1.5745 0.4179 -0.0796
H14 H 1.4797 0.3356 -0.1367
C11 C 0.8017(2) 0.58323(13) -0.39742(7)
H15 H 0.7121 0.5525 -0.3628
H16 H 0.8164 0.5264 -0.4344
H17 H 0.7494 0.6560 -0.4160
C12 C 1.27117(16) 0.49604(9) -0.21030(5)
C13 C 1.2787(2) 0.63895(12) -0.00016(7)
H18 H 1.4064 0.6423 0.0184
H19 H 1.1689 0.6399 0.0294
C14 C 1.00195(19) 0.60657(11) -0.36436(6)
C15 C 1.1551(3) 0.65877(16) -0.41237(7)
H20 H 1.2782 0.6685 -0.3876
H21 H 1.1100 0.7347 -0.4289
H22 H 1.1752 0.6066 -0.4514
loop_
_geom_bond_atom_site_label_1
_geom_bond_atom_site_label_2
_geom_bond_site_symmetry_1
_geom_bond_site_symmetry_2
O1 H1 1_555 1_555
O2 C12 1_555 1_555
O3 H2 1_555 1_555
C1 C5 1_555 1_555
C2 O3 1_555 1_555
C3 H3 1_555 1_555
C4 C2 1_555 1_555
H4 C4 1_555 1_555
H5 C4 1_555 1_555
C5 H6 1_555 1_555
H7 C5 1_555 1_555
C6 C2 1_555 1_555
H8 C6 1_555 1_555
C7 O1 1_555 1_555
C8 C2 1_555 1_555
H9 C8 1_555 1_555
H10 C8 1_555 1_555
C9 C1 1_555 1_555
H11 C9 1_555 1_555
C10 C7 1_555 1_555
H12 C10 1_555 1_555
H13 C10 1_555 1_555
H14 C10 1_555 1_555
C11 H15 1_555 1_555
H16 C11 1_555 1_555
H17 C11 1_555 1_555
C12 C6 1_555 1_555
C13 C1 1_555 1_555
H18 C13 1_555 1_555
H19 C13 1_555 1_555
C14 C3 1_555 1_555
C15 C14 1_555 1_555
H20 C15 1_555 1_555
H21 C15 1_555 1_555
H22 C15 1_555 1_555
C3 C6 1_555 1_555
C4 C9 1_555 1_555
C5 C8 1_555 1_555
C7 C9 1_555 1_555
C7 C12 1_555 1_555
C11 C14 1_555 1_555

#END
