
#######################################################################
#
#                 Cambridge Crystallographic Data Centre
#                                CCDC 
#
#######################################################################
#
# If this CIF has been generated from an entry in the Cambridge 
# Structural Database, then it will include bibliographic, chemical, 
# crystal, experimental, refinement or atomic coordinate data resulting 
# from the CCDC's data processing and validation procedures.
#
#######################################################################

data_URAHIF
_chemical_name_common            '2-Methyl-4-(2-methylbenzamido)benzoic acid'
_chemical_formula_moiety         'C16 H15 N1 O3'
_chemical_name_systematic        
'2-Methyl-4-((2-methylbenzoyl)amino)benzoic acid'
_symmetry_cell_setting           monoclinic
_symmetry_space_group_name_H-M   'C 2/c'
_symmetry_Int_Tables_number      15
_space_group_name_Hall           '-C 2yn'
loop_
_symmetry_equiv_pos_site_id
_symmetry_equiv_pos_as_xyz
1 x,y,z
2 -x,y,1/2-z
3 1/2+x,1/2+y,z
4 1/2-x,1/2+y,1/2-z
5 -x,-y,-z
6 x,-y,1/2+z
7 1/2-x,1/2-y,-z
8 1/2+x,1/2-y,1/2+z
_cell_length_a                   23.318(9)
_cell_length_b                   10.230(2)
_cell_length_c                   13.901(3)
_cell_angle_alpha                90
_cell_angle_beta                 125.50(3)
_cell_angle_gamma                90
_cell_volume                     2699.6
_exptl_crystal_colour            colorless
_exptl_crystal_description       block
_chemical_melting_point          '497 K'
_cell_formula_units_Z            8
loop_
_atom_site_label
_atom_site_type_symbol
_atom_site_fract_x
_atom_site_fract_y
_atom_site_fract_z
N1 N 0.27879(10) 1.06074(17) 0.23814(17)
H1 H 0.2725 1.1380 0.2547
O1 O 0.25277(9) 0.84642(15) 0.23884(17)
C1 C 0.09320(14) 0.8941(3) 0.0956(2)
H2 H 0.0432 0.8865 0.0559
H3 H 0.1141 0.8086 0.1159
H4 H 0.1026 0.9364 0.0445
O2 O 0.45652(10) 0.90523(16) 0.04728(17)
H5 H 0.4798 0.9040 0.0202
C2 C 0.12408(12) 0.9737(2) 0.2061(2)
O3 O 0.46865(10) 1.11880(17) 0.03858(18)
C3 C 0.08066(13) 1.0191(2) 0.2371(2)
H6 H 0.0328 1.0002 0.1884
C4 C 0.10675(14) 1.0914(2) 0.3382(2)
H7 H 0.0764 1.1214 0.3562
C5 C 0.17705(14) 1.1195(2) 0.4121(2)
H8 H 0.1949 1.1656 0.4818
C6 C 0.22118(12) 1.0787(2) 0.3823(2)
H9 H 0.2688 1.0997 0.4312
C7 C 0.19543(12) 1.0070(2) 0.2804(2)
C8 C 0.24493(12) 0.9618(2) 0.2510(2)
C9 C 0.32340(11) 1.0500(2) 0.2002(2)
C10 C 0.32865(11) 1.1578(2) 0.1449(2)
H10 H 0.3043 1.2335 0.1373
C11 C 0.36888(12) 1.1568(2) 0.1007(2)
C12 C 0.40456(11) 1.0408(2) 0.1123(2)
C13 C 0.39995(12) 0.9348(2) 0.1700(2)
H11 H 0.4244 0.8589 0.1787
C14 C 0.36050(12) 0.9378(2) 0.2148(2)
H12 H 0.3589 0.8657 0.2540
C15 C 0.37002(14) 1.2772(2) 0.0391(2)
H13 H 0.3369 1.3400 0.0312
H14 H 0.3574 1.2538 -0.0378
H15 H 0.4164 1.3144 0.0848
C16 C 0.44573(12) 1.0256(2) 0.0627(2)
loop_
_geom_bond_atom_site_label_1
_geom_bond_atom_site_label_2
_geom_bond_site_symmetry_1
_geom_bond_site_symmetry_2
N1 H1 1_555 1_555
O1 C8 1_555 1_555
C1 H2 1_555 1_555
H3 C1 1_555 1_555
H4 C1 1_555 1_555
O2 H5 1_555 1_555
C2 C1 1_555 1_555
O3 C16 1_555 1_555
C3 C2 1_555 1_555
H6 C3 1_555 1_555
C4 C3 1_555 1_555
H7 C4 1_555 1_555
C5 C4 1_555 1_555
H8 C5 1_555 1_555
C6 C5 1_555 1_555
H9 C6 1_555 1_555
C7 C2 1_555 1_555
C8 N1 1_555 1_555
C9 N1 1_555 1_555
C10 C9 1_555 1_555
H10 C10 1_555 1_555
C11 C10 1_555 1_555
C12 C11 1_555 1_555
C13 C12 1_555 1_555
H11 C13 1_555 1_555
C14 C9 1_555 1_555
H12 C14 1_555 1_555
C15 C11 1_555 1_555
H13 C15 1_555 1_555
H14 C15 1_555 1_555
H15 C15 1_555 1_555
C16 O2 1_555 1_555
C6 C7 1_555 1_555
C7 C8 1_555 1_555
C12 C16 1_555 1_555
C13 C14 1_555 1_555

#END
