
#######################################################################
#
#                 Cambridge Crystallographic Data Centre
#                                CCDC 
#
#######################################################################
#
# If this CIF has been generated from an entry in the Cambridge 
# Structural Database, then it will include bibliographic, chemical, 
# crystal, experimental, refinement or atomic coordinate data resulting 
# from the CCDC's data processing and validation procedures.
#
#######################################################################

data_URALEF
_chemical_formula_moiety         'C19 H19 F1 N2'
_chemical_name_systematic        
1-(3,5-Dimethylphenyl)-2-(4-fluorophenyl)-4,5-dimethyl-1H-imidazole
_symmetry_cell_setting           triclinic
_symmetry_space_group_name_H-M   'P -1'
_symmetry_Int_Tables_number      2
_space_group_name_Hall           '-P 1'
loop_
_symmetry_equiv_pos_site_id
_symmetry_equiv_pos_as_xyz
1 x,y,z
2 -x,-y,-z
_cell_length_a                   8.4226(10)
_cell_length_b                   9.5572(10)
_cell_length_c                   11.0351(11)
_cell_angle_alpha                105.423(9)
_cell_angle_beta                 105.677(9)
_cell_angle_gamma                95.781(9)
_cell_volume                     810.065
_exptl_crystal_colour            colorless
_exptl_crystal_description       block
_chemical_melting_point          '377 K'
_cell_formula_units_Z            2
loop_
_atom_site_label
_atom_site_type_symbol
_atom_site_fract_x
_atom_site_fract_y
_atom_site_fract_z
F1 F 0.29950(19) 0.53513(14) 0.86850(14)
N1 N 0.19985(15) -0.06005(14) 0.37504(12)
N2 N 0.32289(16) -0.11576(15) 0.55605(13)
C1 C 0.27033(18) -0.00885(17) 0.50979(14)
C2 C 0.2859(2) -0.23874(19) 0.44868(16)
C3 C 0.20944(19) -0.20827(17) 0.33550(15)
C4 C 0.14226(18) 0.02522(16) 0.28741(14)
C5 C -0.02859(18) 0.01651(18) 0.23336(15)
C6 C -0.08585(19) 0.10368(18) 0.15377(15)
C7 C 0.0323(2) 0.19566(17) 0.12941(14)
C8 C 0.2035(2) 0.20141(16) 0.17950(15)
C9 C 0.25852(18) 0.11506(16) 0.26059(14)
C10 C -0.2713(2) 0.0990(2) 0.0987(2)
C11 C 0.3276(3) 0.2979(2) 0.1464(2)
C12 C 0.28022(18) 0.14031(17) 0.59540(15)
C13 C 0.1660(2) 0.2313(2) 0.56533(17)
C14 C 0.1740(3) 0.3655(2) 0.6562(2)
C15 C 0.2952(3) 0.4060(2) 0.77740(19)
C16 C 0.4109(2) 0.3201(2) 0.81121(19)
C17 C 0.4030(2) 0.1881(2) 0.71957(16)
C18 C 0.3314(3) -0.3824(2) 0.4636(2)
C19 C 0.1442(2) -0.3012(2) 0.19482(17)
H1 H -0.10645 -0.04873 0.25055
H2 H -0.00553 0.25686 0.07653
H3 H 0.37514 0.11800 0.29712
H4 H -0.29302 0.13147 0.01961
H5 H -0.30948 0.16460 0.16526
H6 H -0.33197 -0.00229 0.07526
H7 H 0.34608 0.24283 0.06431
H8 H 0.43413 0.32742 0.21839
H9 H 0.28339 0.38610 0.13490
H10 H 0.08176 0.20091 0.48163
H11 H 0.09729 0.42825 0.63510
H12 H 0.49398 0.35114 0.89552
H13 H 0.48261 0.12777 0.74092
H14 H 0.45009 -0.38100 0.47068
H15 H 0.26202 -0.46386 0.38633
H16 H 0.31177 -0.39629 0.54360
H17 H 0.14887 -0.40467 0.18925
H18 H 0.21302 -0.26845 0.14515
H19 H 0.02775 -0.29169 0.15728
loop_
_geom_bond_atom_site_label_1
_geom_bond_atom_site_label_2
_geom_bond_site_symmetry_1
_geom_bond_site_symmetry_2
F1 C15 1_555 1_555
N1 C1 1_555 1_555
N2 C1 1_555 1_555
C1 C12 1_555 1_555
C2 N2 1_555 1_555
C3 N1 1_555 1_555
C4 N1 1_555 1_555
C5 C4 1_555 1_555
C6 C5 1_555 1_555
C7 C6 1_555 1_555
C8 C7 1_555 1_555
C9 C4 1_555 1_555
C10 C6 1_555 1_555
C11 C8 1_555 1_555
C12 C13 1_555 1_555
C13 C14 1_555 1_555
C14 C15 1_555 1_555
C15 C16 1_555 1_555
C16 C17 1_555 1_555
C17 C12 1_555 1_555
C18 C2 1_555 1_555
C19 C3 1_555 1_555
H1 C5 1_555 1_555
H2 C7 1_555 1_555
H3 C9 1_555 1_555
H4 C10 1_555 1_555
H5 C10 1_555 1_555
H6 C10 1_555 1_555
H7 C11 1_555 1_555
H8 C11 1_555 1_555
H9 C11 1_555 1_555
H10 C13 1_555 1_555
H11 C14 1_555 1_555
H12 C16 1_555 1_555
H13 C17 1_555 1_555
H14 C18 1_555 1_555
H15 C18 1_555 1_555
H16 C18 1_555 1_555
H17 C19 1_555 1_555
H18 C19 1_555 1_555
H19 C19 1_555 1_555
C2 C3 1_555 1_555
C8 C9 1_555 1_555

#END
