
#######################################################################
#
#                 Cambridge Crystallographic Data Centre
#                                CCDC 
#
#######################################################################
#
# If this CIF has been generated from an entry in the Cambridge 
# Structural Database, then it will include bibliographic, chemical, 
# crystal, experimental, refinement or atomic coordinate data resulting 
# from the CCDC's data processing and validation procedures.
#
#######################################################################

data_URANOS
_chemical_formula_moiety         'C42 H34 S2'
_chemical_name_systematic        8,16-dimesitylthioxantheno[3,2-b]thioxanthene
_symmetry_cell_setting           monoclinic
_symmetry_space_group_name_H-M   'P 21/c'
_symmetry_Int_Tables_number      14
_space_group_name_Hall           '-P 2ybc'
loop_
_symmetry_equiv_pos_site_id
_symmetry_equiv_pos_as_xyz
1 x,y,z
2 -x,1/2+y,1/2-z
3 -x,-y,-z
4 x,1/2-y,1/2+z
_cell_length_a                   8.7385(9)
_cell_length_b                   12.8721(18)
_cell_length_c                   13.8005(14)
_cell_angle_alpha                90
_cell_angle_beta                 98.841(4)
_cell_angle_gamma                90
_cell_volume                     1533.88
_exptl_crystal_colour            blue
_exptl_crystal_description       Block
_cell_formula_units_Z            2
loop_
_atom_site_label
_atom_site_type_symbol
_atom_site_fract_x
_atom_site_fract_y
_atom_site_fract_z
S1 S 0.90530(5) 0.04199(3) 0.37132(3)
C1 C 0.74698(17) 0.00081(11) 0.42463(11)
C2 C 0.65595(17) 0.07708(11) 0.45347(11)
H1 H 0.6841 0.1476 0.4461
C3 C 0.51900(17) 0.05412(10) 0.49463(11)
C4 C 0.42457(17) 0.13049(11) 0.52344(11)
H2 H 0.4521 0.2010 0.5155
C5 C 0.28758(17) 0.10885(11) 0.56458(10)
C6 C 0.19403(17) 0.18881(11) 0.59093(11)
C7 C 0.05002(17) 0.17189(11) 0.62927(11)
C8 C -0.04284(18) 0.25669(12) 0.64967(12)
H3 H -0.0093 0.3253 0.6387
C9 C -0.18093(18) 0.24264(13) 0.68503(12)
H4 H -0.2413 0.3011 0.6976
C10 C -0.23173(18) 0.14278(13) 0.70233(12)
H5 H -0.3267 0.1331 0.7267
C11 C -0.14362(18) 0.05768(12) 0.68395(12)
H6 H -0.1779 -0.0105 0.6961
C12 C -0.00466(17) 0.07174(12) 0.64763(11)
C13 C 0.24308(17) 0.29949(11) 0.58035(11)
C14 C 0.18641(18) 0.35628(12) 0.49557(12)
C15 C 0.23108(19) 0.45961(12) 0.48818(12)
H7 H 0.1918 0.4980 0.4310
C16 C 0.33187(19) 0.50794(12) 0.56258(12)
C17 C 0.38834(18) 0.45045(12) 0.64549(12)
H8 H 0.4589 0.4820 0.6962
C18 C 0.34401(17) 0.34711(12) 0.65632(11)
C19 C 0.0760(2) 0.30720(14) 0.41324(13)
H9 H -0.0236 0.2940 0.4353
H10 H 0.1195 0.2415 0.3942
H11 H 0.0605 0.3543 0.3568
C20 C 0.3779(2) 0.61983(12) 0.55286(14)
H12 H 0.3100 0.6646 0.5849
H13 H 0.3682 0.6382 0.4833
H14 H 0.4855 0.6295 0.5841
C21 C 0.4023(2) 0.28859(13) 0.74924(12)
H15 H 0.4807 0.3303 0.7904
H16 H 0.4483 0.2227 0.7328
H17 H 0.3158 0.2747 0.7850
S1B S 0.09470(5) -0.04199(3) 0.62868(3)
C1B C 0.25302(17) -0.00081(11) 0.57537(11)
C2B C 0.34405(17) -0.07708(11) 0.54653(11)
H1B H 0.3159 -0.1476 0.5539
C3B C 0.48100(17) -0.05412(10) 0.50537(11)
C4B C 0.57543(17) -0.13049(11) 0.47656(11)
H2B H 0.5479 -0.2010 0.4845
C5B C 0.71242(17) -0.10885(11) 0.43542(10)
C6B C 0.80597(17) -0.18881(11) 0.40907(11)
C7B C 0.94998(17) -0.17189(11) 0.37073(11)
C8B C 1.04284(18) -0.25669(12) 0.35033(12)
H3B H 1.0093 -0.3253 0.3613
C9B C 1.18093(18) -0.24264(13) 0.31497(12)
H4B H 1.2413 -0.3011 0.3024
C10B C 1.23173(18) -0.14278(13) 0.29767(12)
H5B H 1.3267 -0.1331 0.2733
C11B C 1.14362(18) -0.05768(12) 0.31605(12)
H6B H 1.1779 0.0105 0.3039
C12B C 1.00466(17) -0.07174(12) 0.35237(11)
C13B C 0.75692(17) -0.29949(11) 0.41965(11)
C14B C 0.81359(18) -0.35628(12) 0.50443(12)
C15B C 0.76892(19) -0.45961(12) 0.51182(12)
H7B H 0.8082 -0.4980 0.5690
C16B C 0.66813(19) -0.50794(12) 0.43742(12)
C17B C 0.61166(18) -0.45045(12) 0.35451(12)
H8B H 0.5411 -0.4820 0.3038
C18B C 0.65599(17) -0.34711(12) 0.34368(11)
C19B C 0.9240(2) -0.30720(14) 0.58676(13)
H9B H 1.0236 -0.2940 0.5647
H10B H 0.8805 -0.2415 0.6058
H11B H 0.9395 -0.3543 0.6432
C20B C 0.6221(2) -0.61983(12) 0.44714(14)
H12B H 0.6900 -0.6646 0.4151
H13B H 0.6318 -0.6382 0.5167
H14B H 0.5145 -0.6295 0.4159
C21B C 0.5977(2) -0.28859(13) 0.25076(12)
H15B H 0.5193 -0.3303 0.2096
H16B H 0.5517 -0.2227 0.2672
H17B H 0.6842 -0.2747 0.2150
loop_
_geom_bond_atom_site_label_1
_geom_bond_atom_site_label_2
_geom_bond_site_symmetry_1
_geom_bond_site_symmetry_2
S1 C1 1_555 1_555
C1 C2 1_555 1_555
C2 H1 1_555 1_555
C3 C2 1_555 1_555
C4 C3 1_555 1_555
H2 C4 1_555 1_555
C5 C4 1_555 1_555
C6 C5 1_555 1_555
C7 C6 1_555 1_555
C8 C7 1_555 1_555
H3 C8 1_555 1_555
C9 C8 1_555 1_555
H4 C9 1_555 1_555
C10 C9 1_555 1_555
H5 C10 1_555 1_555
C11 C10 1_555 1_555
H6 C11 1_555 1_555
C12 C7 1_555 1_555
C13 C6 1_555 1_555
C14 C13 1_555 1_555
C15 C14 1_555 1_555
H7 C15 1_555 1_555
C16 C15 1_555 1_555
C17 C16 1_555 1_555
H8 C17 1_555 1_555
C18 C13 1_555 1_555
C19 C14 1_555 1_555
H9 C19 1_555 1_555
H10 C19 1_555 1_555
H11 C19 1_555 1_555
C20 C16 1_555 1_555
H12 C20 1_555 1_555
H13 C20 1_555 1_555
H14 C20 1_555 1_555
C21 C18 1_555 1_555
H15 C21 1_555 1_555
H16 C21 1_555 1_555
H17 C21 1_555 1_555
S1B C12 1_555 1_555
C1B C5 1_555 1_555
C2B C1B 1_555 1_555
H1B C2B 1_555 1_555
C3B C3 1_555 1_555
C4B C3B 1_555 1_555
H2B C4B 1_555 1_555
C5B C1 1_555 1_555
C6B C5B 1_555 1_555
C7B C6B 1_555 1_555
C8B C7B 1_555 1_555
H3B C8B 1_555 1_555
C9B C8B 1_555 1_555
H4B C9B 1_555 1_555
C10B C9B 1_555 1_555
H5B C10B 1_555 1_555
C11B C10B 1_555 1_555
H6B C11B 1_555 1_555
C12B S1 1_555 1_555
C13B C6B 1_555 1_555
C14B C13B 1_555 1_555
C15B C14B 1_555 1_555
H7B C15B 1_555 1_555
C16B C15B 1_555 1_555
C17B C16B 1_555 1_555
H8B C17B 1_555 1_555
C18B C13B 1_555 1_555
C19B C14B 1_555 1_555
H9B C19B 1_555 1_555
H10B C19B 1_555 1_555
H11B C19B 1_555 1_555
C20B C16B 1_555 1_555
H12B C20B 1_555 1_555
H13B C20B 1_555 1_555
H14B C20B 1_555 1_555
C21B C18B 1_555 1_555
H15B C21B 1_555 1_555
H16B C21B 1_555 1_555
H17B C21B 1_555 1_555
C11 C12 1_555 1_555
C17 C18 1_555 1_555
S1B C1B 1_555 1_555
C2B C3B 1_555 1_555
C4B C5B 1_555 1_555
C7B C12B 1_555 1_555
C11B C12B 1_555 1_555
C17B C18B 1_555 1_555

#END
