
#######################################################################
#
#                 Cambridge Crystallographic Data Centre
#                                CCDC 
#
#######################################################################
#
# If this CIF has been generated from an entry in the Cambridge 
# Structural Database, then it will include bibliographic, chemical, 
# crystal, experimental, refinement or atomic coordinate data resulting 
# from the CCDC's data processing and validation procedures.
#
#######################################################################

data_URANEI
_chemical_formula_moiety         'C64 H56 S2'
_chemical_name_systematic        
"7,9,16,18-tetramesitylthiochromeno[3',2':6,7]naphtho[2,3-b]thioxanthene unknown solvate"
_symmetry_cell_setting           rhombohedral
_symmetry_space_group_name_H-M   'R -3'
_symmetry_Int_Tables_number      148
_space_group_name_Hall           '-R 3'
loop_
_symmetry_equiv_pos_site_id
_symmetry_equiv_pos_as_xyz
1 x,y,z
2 -y,x-y,z
3 -x+y,-x,z
4 2/3+x,1/3+y,1/3+z
5 2/3-y,1/3+x-y,1/3+z
6 2/3-x+y,1/3-x,1/3+z
7 1/3+x,2/3+y,2/3+z
8 1/3-y,2/3+x-y,2/3+z
9 1/3-x+y,2/3-x,2/3+z
10 -x,-y,-z
11 y,-x+y,-z
12 x-y,x,-z
13 1/3-x,2/3-y,2/3-z
14 1/3+y,2/3-x+y,2/3-z
15 1/3+x-y,2/3+x,2/3-z
16 2/3-x,1/3-y,1/3-z
17 2/3+y,1/3-x+y,1/3-z
18 2/3+x-y,1/3+x,1/3-z
_cell_length_a                   42.2959(12)
_cell_length_b                   42.2959(12)
_cell_length_c                   7.80368(17)
_cell_angle_alpha                90
_cell_angle_beta                 90
_cell_angle_gamma                120
_cell_volume                     12090
_exptl_crystal_colour            blue
_exptl_crystal_description       plate
_cell_formula_units_Z            9
loop_
_atom_site_label
_atom_site_type_symbol
_atom_site_fract_x
_atom_site_fract_y
_atom_site_fract_z
S1 S 0.32620(2) 0.04504(2) 0.93154(4)
C1 C 0.34303(3) 0.11271(3) 0.84235(15)
H1 H 0.3642 0.1195 0.9092
C2 C 0.25386(3) -0.00035(3) 0.83287(15)
C3 C 0.39812(3) 0.19031(3) 0.88119(16)
C4 C 0.22190(3) -0.03495(3) 0.84041(16)
H2 H 0.2010 -0.0390 0.7770
C5 C 0.31712(3) 0.07668(3) 0.83077(15)
C6 C 0.22249(3) 0.02155(3) 0.62314(16)
C7 C 0.28419(3) 0.00429(3) 0.92916(15)
C8 C 0.33934(3) 0.14079(3) 0.75702(15)
C9 C 0.28376(3) 0.06472(3) 0.73362(15)
C10 C 0.30726(3) 0.12919(3) 0.65052(15)
C11 C 0.28130(3) 0.09254(3) 0.64197(15)
H3 H 0.2606 0.0855 0.5708
C12 C 0.25477(3) 0.02882(3) 0.73121(15)
C13 C 0.40039(4) 0.20418(3) 1.04705(16)
C14 C 0.25051(4) -0.05787(3) 1.03161(16)
H4 H 0.2493 -0.0772 1.0984
C15 C 0.42822(4) 0.18917(3) 0.81219(17)
C16 C 0.22025(4) -0.06309(3) 0.93804(17)
H5 H 0.1984 -0.0861 0.9412
C17 C 0.45896(4) 0.19963(4) 0.91319(18)
H6 H 0.4793 0.1989 0.8661
C18 C 0.46064(4) 0.21120(4) 1.08221(19)
C19 C 0.36459(3) 0.17761(3) 0.77411(15)
C20 C 0.28247(4) -0.02421(3) 1.02677(16)
H7 H 0.3032 -0.0206 1.0900
C21 C 0.43141(4) 0.21372(4) 1.14462(17)
H8 H 0.4325 0.2223 1.2583
C22 C 0.22152(4) 0.01241(4) 0.44928(17)
C23 C 0.16827(4) 0.02585(4) 0.5798(2)
H9 H 0.1500 0.0303 0.6248
C24 C 0.37101(4) 0.21073(4) 1.11879(19)
H10 H 0.3476 0.1939 1.0646
H11 H 0.3772 0.2360 1.0955
H12 H 0.3691 0.2065 1.2428
C25 C 0.19555(4) 0.02829(4) 0.68867(19)
C26 C 0.19383(4) 0.01050(4) 0.34555(19)
H13 H 0.1933 0.0044 0.2280
C27 C 0.42728(4) 0.17706(4) 0.62924(18)
H14 H 0.4170 0.1884 0.5553
H15 H 0.4121 0.1504 0.6222
H16 H 0.4521 0.1845 0.5915
C28 C 0.16713(4) 0.01715(4) 0.4078(2)
C29 C 0.19683(5) 0.03939(5) 0.8721(2)
H17 H 0.1977 0.0212 0.9469
H18 H 0.1750 0.0410 0.8984
H19 H 0.2187 0.0632 0.8909
C30 C 0.25032(4) 0.00579(4) 0.37347(19)
H20 H 0.2519 -0.0131 0.4399
H21 H 0.2739 0.0285 0.3766
H22 H 0.2440 -0.0023 0.2545
C31 C 0.49312(5) 0.21999(5) 1.1942(2)
H23 H 0.5152 0.2301 1.1235
H24 H 0.4894 0.1977 1.2505
H25 H 0.4959 0.2379 1.2812
C32 C 0.13707(6) 0.01411(7) 0.2916(3)
H26 H 0.1476 0.0262 0.1823
H27 H 0.1247 0.0258 0.3464
H28 H 0.1194 -0.0117 0.2710
S1O S 0.34047(2) 0.28829(2) 0.40179(4)
C1O C 0.32364(3) 0.22062(3) 0.49098(15)
H1O H 0.3025 0.2138 0.4241
C2O C 0.41281(3) 0.33368(3) 0.50046(15)
C3O C 0.26855(3) 0.14302(3) 0.45214(16)
C4O C 0.44477(3) 0.36828(3) 0.49292(16)
H2O H 0.4657 0.3723 0.5563
C5O C 0.34955(3) 0.25665(3) 0.50256(15)
C6O C 0.44418(3) 0.31178(3) 0.71019(16)
C7O C 0.38248(3) 0.32904(3) 0.40417(15)
C8O C 0.32733(3) 0.19254(3) 0.57631(15)
C9O C 0.38291(3) 0.26861(3) 0.59971(15)
C10O C 0.35941(3) 0.20414(3) 0.68281(15)
C11O C 0.38537(3) 0.24079(3) 0.69136(15)
H3O H 0.4061 0.2478 0.7625
C12O C 0.41190(3) 0.30451(3) 0.60212(15)
C13O C 0.26628(4) 0.12915(3) 0.28628(16)
C14O C 0.41616(4) 0.39120(3) 0.30172(16)
H4O H 0.4174 0.4105 0.2349
C15O C 0.23845(4) 0.14416(3) 0.52114(17)
C16O C 0.44642(4) 0.39642(3) 0.39529(17)
H5O H 0.4683 0.4194 0.3921
C17O C 0.20771(4) 0.13370(4) 0.42014(18)
H6O H 0.1874 0.1344 0.4672
C18O C 0.20603(4) 0.12213(4) 0.25112(19)
C19O C 0.30208(3) 0.15572(3) 0.55922(15)
C20O C 0.38420(4) 0.35754(3) 0.30656(16)
H7O H 0.3635 0.3539 0.2433
C21O C 0.23526(4) 0.11961(4) 0.18871(17)
H8O H 0.2342 0.1110 0.0750
C22O C 0.44515(4) 0.32092(4) 0.88405(17)
C23O C 0.49840(4) 0.30748(4) 0.7535(2)
H9O H 0.5167 0.3030 0.7085
C24O C 0.29566(4) 0.12260(4) 0.21454(19)
H10O H 0.3191 0.1394 0.2687
H11O H 0.2895 0.0973 0.2378
H12O H 0.2976 0.1268 0.0905
C25O C 0.47112(4) 0.30504(4) 0.64466(19)
C26O C 0.47284(4) 0.32283(4) 0.98778(19)
H13O H 0.4734 0.3289 1.1053
C27O C 0.23939(4) 0.15627(4) 0.70409(18)
H14O H 0.2497 0.1449 0.7780
H15O H 0.2546 0.1829 0.7111
H16O H 0.2146 0.1488 0.7418
C28O C 0.49954(4) 0.31618(4) 0.9255(2)
C29O C 0.46984(5) 0.29394(5) 0.4612(2)
H17O H 0.4690 0.3121 0.3864
H18O H 0.4917 0.2923 0.4349
H19O H 0.4480 0.2701 0.4424
C30O C 0.41635(4) 0.32754(4) 0.95986(19)
H20O H 0.4148 0.3464 0.8934
H21O H 0.3928 0.3048 0.9567
H22O H 0.4227 0.3356 1.0788
C31O C 0.17355(5) 0.11334(5) 0.1391(2)
H23O H 0.1515 0.1032 0.2098
H24O H 0.1773 0.1356 0.0828
H25O H 0.1708 0.0954 0.0521
C32O C 0.52960(6) 0.31922(7) 1.0417(3)
H26O H 0.5191 0.3071 1.1510
H27O H 0.5420 0.3075 0.9869
H28O H 0.5473 0.3450 1.0623
loop_
_geom_bond_atom_site_label_1
_geom_bond_atom_site_label_2
_geom_bond_site_symmetry_1
_geom_bond_site_symmetry_2
S1 C5 1_555 1_555
C1 H1 1_555 1_555
C2 C4 1_555 1_555
C3 C13 1_555 1_555
C4 H2 1_555 1_555
C5 C1 1_555 1_555
C6 C12 1_555 1_555
C7 S1 1_555 1_555
C8 C1 1_555 1_555
C9 C5 1_555 1_555
C10 C8 1_555 1_555
C11 C9 1_555 1_555
H3 C11 1_555 1_555
C12 C2 1_555 1_555
C13 C21 1_555 1_555
C14 H4 1_555 1_555
C15 C3 1_555 1_555
C16 C4 1_555 1_555
H5 C16 1_555 1_555
C17 C15 1_555 1_555
H6 C17 1_555 1_555
C18 C17 1_555 1_555
C19 C3 1_555 1_555
C20 C7 1_555 1_555
H7 C20 1_555 1_555
C21 C18 1_555 1_555
H8 C21 1_555 1_555
C22 C6 1_555 1_555
C23 H9 1_555 1_555
C24 C13 1_555 1_555
H10 C24 1_555 1_555
H11 C24 1_555 1_555
H12 C24 1_555 1_555
C25 C6 1_555 1_555
C26 C22 1_555 1_555
H13 C26 1_555 1_555
C27 C15 1_555 1_555
H14 C27 1_555 1_555
H15 C27 1_555 1_555
H16 C27 1_555 1_555
C28 C23 1_555 1_555
C29 C25 1_555 1_555
H17 C29 1_555 1_555
H18 C29 1_555 1_555
H19 C29 1_555 1_555
C30 C22 1_555 1_555
H20 C30 1_555 1_555
H21 C30 1_555 1_555
H22 C30 1_555 1_555
C31 C18 1_555 1_555
H23 C31 1_555 1_555
H24 C31 1_555 1_555
H25 C31 1_555 1_555
C32 C28 1_555 1_555
H26 C32 1_555 1_555
H27 C32 1_555 1_555
H28 C32 1_555 1_555
S1O C5O 1_555 1_555
C1O H1O 1_555 1_555
C2O C4O 1_555 1_555
C3O C13O 1_555 1_555
C4O H2O 1_555 1_555
C5O C1O 1_555 1_555
C6O C12O 1_555 1_555
C7O S1O 1_555 1_555
C8O C1O 1_555 1_555
C9O C5O 1_555 1_555
C10O C19 1_555 1_555
C11O C9O 1_555 1_555
H3O C11O 1_555 1_555
C12O C2O 1_555 1_555
C13O C21O 1_555 1_555
C14O H4O 1_555 1_555
C15O C3O 1_555 1_555
C16O C4O 1_555 1_555
H5O C16O 1_555 1_555
C17O C15O 1_555 1_555
H6O C17O 1_555 1_555
C18O C17O 1_555 1_555
C19O C10 1_555 1_555
C20O C7O 1_555 1_555
H7O C20O 1_555 1_555
C21O C18O 1_555 1_555
H8O C21O 1_555 1_555
C22O C6O 1_555 1_555
C23O H9O 1_555 1_555
C24O C13O 1_555 1_555
H10O C24O 1_555 1_555
H11O C24O 1_555 1_555
H12O C24O 1_555 1_555
C25O C6O 1_555 1_555
C26O C22O 1_555 1_555
H13O C26O 1_555 1_555
C27O C15O 1_555 1_555
H14O C27O 1_555 1_555
H15O C27O 1_555 1_555
H16O C27O 1_555 1_555
C28O C23O 1_555 1_555
C29O C25O 1_555 1_555
H17O C29O 1_555 1_555
H18O C29O 1_555 1_555
H19O C29O 1_555 1_555
C30O C22O 1_555 1_555
H20O C30O 1_555 1_555
H21O C30O 1_555 1_555
H22O C30O 1_555 1_555
C31O C18O 1_555 1_555
H23O C31O 1_555 1_555
H24O C31O 1_555 1_555
H25O C31O 1_555 1_555
C32O C28O 1_555 1_555
H26O C32O 1_555 1_555
H27O C32O 1_555 1_555
H28O C32O 1_555 1_555
C2 C7 1_555 1_555
C8 C19 1_555 1_555
C9 C12 1_555 1_555
C10 C11 1_555 1_555
C14 C16 1_555 1_555
C14 C20 1_555 1_555
C23 C25 1_555 1_555
C26 C28 1_555 1_555
C2O C7O 1_555 1_555
C3O C19O 1_555 1_555
C8O C10O 1_555 1_555
C8O C19O 1_555 1_555
C9O C12O 1_555 1_555
C10O C11O 1_555 1_555
C14O C16O 1_555 1_555
C14O C20O 1_555 1_555
C23O C25O 1_555 1_555
C26O C28O 1_555 1_555

#END
