
#######################################################################
#
#                 Cambridge Crystallographic Data Centre
#                                CCDC 
#
#######################################################################
#
# If this CIF has been generated from an entry in the Cambridge 
# Structural Database, then it will include bibliographic, chemical, 
# crystal, experimental, refinement or atomic coordinate data resulting 
# from the CCDC's data processing and validation procedures.
#
#######################################################################

data_URAQEK02
_chemical_formula_moiety         'C22 H30 N4 O2'
_chemical_name_systematic        
2,2'-(Hydrazine-1,2-diylidenedimethylylidene)bis(5-(diethylamino)phenol)
_symmetry_cell_setting           monoclinic
_symmetry_space_group_name_H-M   'P 21/n'
_symmetry_Int_Tables_number      14
_space_group_name_Hall           '-P 2yn'
loop_
_symmetry_equiv_pos_site_id
_symmetry_equiv_pos_as_xyz
1 x,y,z
2 1/2-x,1/2+y,1/2-z
3 -x,-y,-z
4 1/2+x,1/2-y,1/2+z
_cell_length_a                   12.055(3)
_cell_length_b                   6.5584(15)
_cell_length_c                   13.381(6)
_cell_angle_alpha                90
_cell_angle_beta                 95.95(2)
_cell_angle_gamma                90
_cell_volume                     1052.22
_exptl_crystal_colour            yellow
_exptl_crystal_description       needle
_cell_formula_units_Z            2
loop_
_atom_site_label
_atom_site_type_symbol
_atom_site_fract_x
_atom_site_fract_y
_atom_site_fract_z
O1 O 0.0222(3) 0.2111(5) 0.2043(2)
H1 H -0.0002 0.2536 0.1482
N1 N 0.0129(3) 0.4638(7) 0.0492(2)
N2 N 0.2264(3) 0.4173(6) 0.5108(3)
C1 C 0.0982(3) 0.5538(7) 0.2129(3)
C2 C 0.0793(4) 0.3627(8) 0.2581(3)
C3 C 0.1185(3) 0.3205(7) 0.3556(3)
H2 H 0.1034 0.1940 0.3825
C4 C 0.1808(4) 0.4628(7) 0.4158(3)
C5 C 0.1972(4) 0.6584(7) 0.3727(3)
H3 H 0.2359 0.7591 0.4107
C6 C 0.1557(3) 0.6978(7) 0.2751(3)
H4 H 0.1665 0.8270 0.2491
C7 C 0.0628(3) 0.5961(8) 0.1096(3)
H5 H 0.0764 0.7251 0.0848
C8 C 0.2029(4) 0.2239(8) 0.5590(4)
H6 H 0.2586 0.2030 0.6158
H7 H 0.2108 0.1142 0.5116
C9 C 0.0866(4) 0.2095(9) 0.5959(4)
H8 H 0.0777 0.0782 0.6258
H9 H 0.0306 0.2274 0.5402
H10 H 0.0788 0.3141 0.6449
C10 C 0.2994(5) 0.5647(9) 0.5746(4)
H11 H 0.3540 0.4889 0.6181
H12 H 0.3393 0.6506 0.5313
C11 C 0.2348(6) 0.6917(10) 0.6352(5)
H13 H 0.2837 0.7818 0.6755
H14 H 0.1953 0.6071 0.6783
H15 H 0.1823 0.7704 0.5923
O1B O -0.0222(3) 0.7889(5) -0.2043(2)
H1B H 0.0002 0.7464 -0.1482
N1B N -0.0129(3) 0.5362(7) -0.0492(2)
N2B N -0.2264(3) 0.5827(6) -0.5108(3)
C1B C -0.0982(3) 0.4462(7) -0.2129(3)
C2B C -0.0793(4) 0.6373(8) -0.2581(3)
C3B C -0.1185(3) 0.6795(7) -0.3556(3)
H2B H -0.1034 0.8060 -0.3825
C4B C -0.1808(4) 0.5372(7) -0.4158(3)
C5B C -0.1972(4) 0.3416(7) -0.3727(3)
H3B H -0.2359 0.2409 -0.4107
C6B C -0.1557(3) 0.3022(7) -0.2751(3)
H4B H -0.1665 0.1730 -0.2491
C7B C -0.0628(3) 0.4039(8) -0.1096(3)
H5B H -0.0764 0.2749 -0.0848
C8B C -0.2029(4) 0.7761(8) -0.5590(4)
H6B H -0.2586 0.7970 -0.6158
H7B H -0.2108 0.8858 -0.5116
C9B C -0.0866(4) 0.7905(9) -0.5959(4)
H8B H -0.0777 0.9218 -0.6258
H9B H -0.0306 0.7726 -0.5402
H10B H -0.0788 0.6859 -0.6449
C10B C -0.2994(5) 0.4353(9) -0.5746(4)
H11B H -0.3540 0.5111 -0.6181
H12B H -0.3393 0.3494 -0.5313
C11B C -0.2348(6) 0.3083(10) -0.6352(5)
H13B H -0.2837 0.2182 -0.6755
H14B H -0.1953 0.3929 -0.6783
H15B H -0.1823 0.2296 -0.5923
loop_
_geom_bond_atom_site_label_1
_geom_bond_atom_site_label_2
_geom_bond_site_symmetry_1
_geom_bond_site_symmetry_2
O1 H1 1_555 1_555
N1 C7 1_555 1_555
N2 C4 1_555 1_555
C1 C2 1_555 1_555
C2 O1 1_555 1_555
C3 C2 1_555 1_555
H2 C3 1_555 1_555
C4 C3 1_555 1_555
C5 C4 1_555 1_555
H3 C5 1_555 1_555
C6 C1 1_555 1_555
H4 C6 1_555 1_555
C7 C1 1_555 1_555
H5 C7 1_555 1_555
C8 N2 1_555 1_555
H6 C8 1_555 1_555
H7 C8 1_555 1_555
C9 C8 1_555 1_555
H8 C9 1_555 1_555
H9 C9 1_555 1_555
H10 C9 1_555 1_555
C10 N2 1_555 1_555
H11 C10 1_555 1_555
H12 C10 1_555 1_555
C11 C10 1_555 1_555
H13 C11 1_555 1_555
H14 C11 1_555 1_555
H15 C11 1_555 1_555
O1B H1B 1_555 1_555
N1B N1 1_555 1_555
N2B C4B 1_555 1_555
C1B C2B 1_555 1_555
C2B O1B 1_555 1_555
C3B C2B 1_555 1_555
H2B C3B 1_555 1_555
C4B C3B 1_555 1_555
C5B C4B 1_555 1_555
H3B C5B 1_555 1_555
C6B C1B 1_555 1_555
H4B C6B 1_555 1_555
C7B N1B 1_555 1_555
H5B C7B 1_555 1_555
C8B N2B 1_555 1_555
H6B C8B 1_555 1_555
H7B C8B 1_555 1_555
C9B C8B 1_555 1_555
H8B C9B 1_555 1_555
H9B C9B 1_555 1_555
H10B C9B 1_555 1_555
C10B N2B 1_555 1_555
H11B C10B 1_555 1_555
H12B C10B 1_555 1_555
C11B C10B 1_555 1_555
H13B C11B 1_555 1_555
H14B C11B 1_555 1_555
H15B C11B 1_555 1_555
C5 C6 1_555 1_555
C1B C7B 1_555 1_555
C5B C6B 1_555 1_555

#END
