
#######################################################################
#
#                 Cambridge Crystallographic Data Centre
#                                CCDC 
#
#######################################################################
#
# If this CIF has been generated from an entry in the Cambridge 
# Structural Database, then it will include bibliographic, chemical, 
# crystal, experimental, refinement or atomic coordinate data resulting 
# from the CCDC's data processing and validation procedures.
#
#######################################################################

data_URAQIO
_chemical_formula_moiety         'C5 H3 Cl3 N4 S1'
_chemical_name_systematic        
3-Methyl-6-(trichloromethyl)[1,2,4]triazolo[3,4-b][1,3,4]thiadiazole
_symmetry_cell_setting           monoclinic
_symmetry_space_group_name_H-M   'P 21/n'
_symmetry_Int_Tables_number      14
_space_group_name_Hall           '-P 2yn'
loop_
_symmetry_equiv_pos_site_id
_symmetry_equiv_pos_as_xyz
1 x,y,z
2 1/2-x,1/2+y,1/2-z
3 -x,-y,-z
4 1/2+x,1/2-y,1/2+z
_cell_length_a                   5.8732(12)
_cell_length_b                   9.4164(19)
_cell_length_c                   16.750(3)
_cell_angle_alpha                90
_cell_angle_beta                 91.82(3)
_cell_angle_gamma                90
_cell_volume                     925.881
_exptl_crystal_colour            colorless
_exptl_crystal_description       prism
_cell_formula_units_Z            4
_exptl_crystal_recrystallization_method chloroform/ethanol
loop_
_atom_site_label
_atom_site_type_symbol
_atom_site_fract_x
_atom_site_fract_y
_atom_site_fract_z
S1 S 0.13777(9) 0.52705(5) 0.13657(3)
Cl1 Cl 0.55694(10) 0.67616(5) 0.27560(3)
Cl2 Cl 0.15047(9) 0.53079(6) 0.32341(3)
Cl3 Cl 0.58496(8) 0.38759(5) 0.33267(3)
N1 N 0.3533(3) 0.30847(19) -0.04370(11)
N2 N 0.1853(3) 0.40411(19) -0.01768(11)
N3 N 0.4320(3) 0.35972(16) 0.08095(10)
N4 N 0.5132(3) 0.37661(17) 0.15796(10)
C1 C 0.7018(4) 0.1903(2) 0.01481(13)
H1 H 0.7271 0.1594 -0.0401
H2 H 0.6776 0.1070 0.0486
H3 H 0.8353 0.2430 0.0352
C2 C 0.4981(3) 0.2833(2) 0.01591(12)
C3 C 0.2385(3) 0.4306(2) 0.05699(12)
C4 C 0.3744(3) 0.46089(19) 0.19257(12)
C5 C 0.4165(3) 0.5096(2) 0.27709(11)
loop_
_geom_bond_atom_site_label_1
_geom_bond_atom_site_label_2
_geom_bond_site_symmetry_1
_geom_bond_site_symmetry_2
S1 C3 1_555 1_555
Cl1 C5 1_555 1_555
Cl2 C5 1_555 1_555
Cl3 C5 1_555 1_555
N1 N2 1_555 1_555
N2 C3 1_555 1_555
N3 N4 1_555 1_555
N4 C4 1_555 1_555
C1 H1 1_555 1_555
H2 C1 1_555 1_555
H3 C1 1_555 1_555
C2 N1 1_555 1_555
C3 N3 1_555 1_555
C4 S1 1_555 1_555
C5 C4 1_555 1_555
N3 C2 1_555 1_555
C1 C2 1_555 1_555

#END
