
#######################################################################
#
#                 Cambridge Crystallographic Data Centre
#                                CCDC 
#
#######################################################################
#
# If this CIF has been generated from an entry in the Cambridge 
# Structural Database, then it will include bibliographic, chemical, 
# crystal, experimental, refinement or atomic coordinate data resulting 
# from the CCDC's data processing and validation procedures.
#
#######################################################################

data_URARAI
_chemical_formula_moiety         'C28 H20 O2'
_chemical_name_systematic        
3,24-dioxahexacyclo[24.3.1.0^4,13^.0^7,12^.0^14,23^.0^15,20^]triaconta-1(30),4(13),5,7,9,11,14,16,18,20,22,26,28-tridecaene
_symmetry_cell_setting           monoclinic
_symmetry_space_group_name_H-M   'P 21'
_symmetry_Int_Tables_number      4
_space_group_name_Hall           'P 2yb'
loop_
_symmetry_equiv_pos_site_id
_symmetry_equiv_pos_as_xyz
1 x,y,z
2 -x,1/2+y,-z
_cell_length_a                   9.4569(10)
_cell_length_b                   19.807(2)
_cell_length_c                   21.941(2)
_cell_angle_alpha                90
_cell_angle_beta                 96.830(2)
_cell_angle_gamma                90
_cell_volume                     4080.66
_exptl_crystal_colour            yellow
_exptl_crystal_description       block
_cell_formula_units_Z            8
loop_
_atom_site_label
_atom_site_type_symbol
_atom_site_fract_x
_atom_site_fract_y
_atom_site_fract_z
O1 O 0.3157(4) 0.41341(19) 0.98777(15)
O2 O 0.4667(4) 0.48477(18) 0.81787(15)
C1 C 0.2135(6) 0.4686(3) 0.9895(3)
H1 H 0.1958 0.4772 1.0314
H2 H 0.1240 0.4570 0.9655
C2 C 0.2772(6) 0.5299(3) 0.9630(3)
C3 C 0.3447(8) 0.5805(4) 0.9985(3)
H3 H 0.3375 0.5817 1.0404
C4 C 0.4229(9) 0.6296(4) 0.9728(4)
H4 H 0.4632 0.6653 0.9962
C5 C 0.4395(7) 0.6242(3) 0.9111(3)
H5 H 0.4964 0.6554 0.8938
C6 C 0.3741(7) 0.5740(3) 0.8749(3)
C7 C 0.2847(6) 0.5303(3) 0.9007(3)
H6 H 0.2285 0.5005 0.8755
C8 C 0.4178(7) 0.5543(3) 0.8140(3)
H7 H 0.3377 0.5586 0.7823
H8 H 0.4936 0.5836 0.8037
C9 C 0.5605(5) 0.4691(2) 0.8696(2)
C10 C 0.6878(6) 0.5068(3) 0.8828(3)
H9 H 0.7073 0.5422 0.8571
C11 C 0.7806(6) 0.4917(3) 0.9322(3)
H10 H 0.8627 0.5176 0.9407
C12 C 0.7567(5) 0.4376(3) 0.9716(2)
C13 C 0.8490(6) 0.4216(4) 1.0241(3)
H11 H 0.9292 0.4482 1.0347
C14 C 0.8243(7) 0.3680(4) 1.0602(3)
H12 H 0.8860 0.3592 1.0956
C15 C 0.7101(7) 0.3271(3) 1.0448(3)
H13 H 0.6983 0.2889 1.0683
C16 C 0.6118(6) 0.3412(3) 0.9952(2)
H14 H 0.5319 0.3139 0.9866
C17 C 0.6324(5) 0.3978(3) 0.9570(2)
C18 C 0.5304(5) 0.4157(2) 0.9056(2)
C19 C 0.3965(5) 0.3752(2) 0.8936(2)
C20 C 0.2979(5) 0.3743(3) 0.9347(2)
C21 C 0.1777(6) 0.3301(3) 0.9263(3)
H15 H 0.1128 0.3300 0.9550
C22 C 0.1572(7) 0.2888(3) 0.8775(3)
H16 H 0.0798 0.2595 0.8734
C23 C 0.2515(6) 0.2893(3) 0.8326(3)
C24 C 0.2295(7) 0.2496(3) 0.7791(3)
H17 H 0.1524 0.2201 0.7744
C25 C 0.3153(8) 0.2527(3) 0.7345(3)
H18 H 0.2966 0.2267 0.6992
C26 C 0.4314(7) 0.2951(3) 0.7423(2)
H19 H 0.4911 0.2977 0.7116
C27 C 0.4612(6) 0.3334(3) 0.7942(2)
H20 H 0.5423 0.3604 0.7984
C28 C 0.3735(5) 0.3332(2) 0.8407(2)
O3 O 0.7348(3) 0.81876(16) 0.67104(13)
O4 O 0.4734(4) 0.79006(17) 0.49894(15)
C29 C 0.8751(5) 0.7946(3) 0.6581(2)
H21 H 0.8974 0.7522 0.6792
H22 H 0.9478 0.8273 0.6728
C30 C 0.8722(6) 0.7851(3) 0.5904(3)
C31 C 0.9668(7) 0.8152(3) 0.5549(3)
H23 H 1.0496 0.8350 0.5739
C32 C 0.9395(9) 0.8160(4) 0.4921(4)
H24 H 1.0067 0.8338 0.4689
C33 C 0.8146(9) 0.7910(4) 0.4634(3)
H25 H 0.7947 0.7947 0.4210
C34 C 0.7154(7) 0.7596(3) 0.4972(3)
C35 C 0.7532(6) 0.7535(3) 0.5602(2)
H26 H 0.6967 0.7272 0.5828
C36 C 0.5670(7) 0.7433(3) 0.4721(2)
H27 H 0.5552 0.7478 0.4278
H28 H 0.5444 0.6972 0.4823
C37 C 0.6823(5) 0.8747(2) 0.63695(19)
C38 C 0.7652(5) 0.9340(2) 0.63886(19)
H29 H 0.8565 0.9343 0.6600
C39 C 0.7118(5) 0.9907(2) 0.6098(2)
H30 H 0.7666 1.0298 0.6119
C40 C 0.5754(5) 0.9913(2) 0.57676(18)
C41 C 0.5187(6) 1.0491(2) 0.5461(2)
H31 H 0.5724 1.0885 0.5477
C42 C 0.3853(6) 1.0485(3) 0.5135(2)
H32 H 0.3498 1.0873 0.4932
C43 C 0.3024(6) 0.9895(3) 0.5110(2)
H33 H 0.2120 0.9893 0.4891
C44 C 0.3540(5) 0.9331(2) 0.54045(19)
H34 H 0.2978 0.8945 0.5387
C45 C 0.4930(5) 0.9314(2) 0.57429(18)
C46 C 0.5487(5) 0.8721(2) 0.60531(19)
C47 C 0.4581(5) 0.8105(2) 0.6054(2)
C48 C 0.3939(4) 0.7933(2) 0.6600(2)
C49 C 0.4181(5) 0.8316(2) 0.7138(2)
H35 H 0.4764 0.8695 0.7146
C50 C 0.3578(6) 0.8145(3) 0.7651(3)
H36 H 0.3765 0.8403 0.8005
C51 C 0.2680(6) 0.7584(3) 0.7648(3)
H37 H 0.2252 0.7477 0.7996
C52 C 0.2437(6) 0.7196(3) 0.7137(3)
H38 H 0.1850 0.6820 0.7140
C53 C 0.3057(5) 0.7353(2) 0.6602(2)
C54 C 0.2804(6) 0.6962(3) 0.6069(3)
H39 H 0.2237 0.6579 0.6069
C55 C 0.3374(6) 0.7135(3) 0.5548(3)
H40 H 0.3182 0.6873 0.5196
C56 C 0.4252(5) 0.7708(2) 0.5542(2)
O5 O 0.6816(3) 0.53793(18) 0.62908(13)
O6 O 0.9678(4) 0.46963(17) 0.78912(14)
C57 C 0.9137(7) 0.4010(3) 0.7964(3)
H41 H 0.8645 0.3989 0.8327
H42 H 0.9927 0.3695 0.8016
C58 C 0.8142(6) 0.3820(3) 0.7413(2)
C59 C 0.8355(8) 0.3261(3) 0.7051(3)
H43 H 0.9019 0.2934 0.7195
C60 C 0.7599(9) 0.3189(4) 0.6488(4)
H44 H 0.7697 0.2798 0.6262
C61 C 0.6703(8) 0.3685(4) 0.6254(3)
H45 H 0.6250 0.3648 0.5855
C62 C 0.6458(6) 0.4245(3) 0.6605(2)
C63 C 0.7149(5) 0.4278(3) 0.7198(2)
H46 H 0.6923 0.4626 0.7454
C64 C 0.5717(6) 0.4873(3) 0.6347(2)
H47 H 0.5192 0.4780 0.5949
H48 H 0.5053 0.5033 0.6619
C65 C 0.7139(5) 0.5800(2) 0.6794(2)
C66 C 0.6097(5) 0.6278(3) 0.6908(2)
H49 H 0.5222 0.6282 0.6665
C67 C 0.6358(6) 0.6728(3) 0.7364(2)
H50 H 0.5668 0.7047 0.7427
C68 C 0.7653(5) 0.6726(2) 0.7748(2)
C69 C 0.7937(7) 0.7193(3) 0.8234(2)
H51 H 0.7252 0.7512 0.8303
C70 C 0.9200(7) 0.7182(3) 0.8603(2)
H52 H 0.9380 0.7496 0.8918
C71 C 1.0222(6) 0.6700(3) 0.8511(2)
H53 H 1.1068 0.6684 0.8774
C72 C 0.9999(5) 0.6250(3) 0.80385(19)
H54 H 1.0708 0.5940 0.7979
C73 C 0.8708(5) 0.6245(2) 0.76362(19)
C74 C 0.8427(5) 0.5779(2) 0.71331(19)
C75 C 0.9594(5) 0.5328(2) 0.6960(2)
C76 C 1.0118(5) 0.5427(3) 0.6377(2)
C77 C 0.9582(5) 0.5948(3) 0.5966(2)
H55 H 0.8922 0.6253 0.6086
C78 C 1.0020(6) 0.6006(3) 0.5400(2)
H56 H 0.9655 0.6350 0.5139
C79 C 1.1000(7) 0.5561(4) 0.5208(3)
H57 H 1.1264 0.5597 0.4815
C80 C 1.1574(6) 0.5076(4) 0.5589(3)
H58 H 1.2256 0.4788 0.5460
C81 C 1.1155(5) 0.4998(3) 0.6185(3)
C82 C 1.1738(6) 0.4500(3) 0.6603(3)
H59 H 1.2462 0.4225 0.6492
C83 C 1.1280(6) 0.4408(3) 0.7163(3)
H60 H 1.1693 0.4079 0.7430
C84 C 1.0177(5) 0.4815(3) 0.7332(2)
O7 O 0.8958(4) -0.04128(17) 0.85011(14)
O8 O 0.6688(3) 0.11020(17) 0.73209(14)
C85 C 0.7840(7) -0.0916(3) 0.8391(2)
H61 H 0.7873 -0.1219 0.8740
H62 H 0.7981 -0.1180 0.8031
C86 C 0.6418(6) -0.0572(3) 0.8294(2)
C87 C 0.5482(7) -0.0571(4) 0.8722(3)
H63 H 0.5609 -0.0864 0.9055
C88 C 0.4339(8) -0.0128(5) 0.8653(3)
H64 H 0.3673 -0.0142 0.8932
C89 C 0.4169(6) 0.0331(4) 0.8180(3)
H65 H 0.3428 0.0642 0.8153
C90 C 0.5115(5) 0.0324(3) 0.7745(2)
C91 C 0.6161(5) -0.0157(3) 0.7789(2)
H66 H 0.6714 -0.0206 0.7468
C92 C 0.5231(6) 0.0876(3) 0.7290(3)
H67 H 0.4913 0.0713 0.6880
H68 H 0.4626 0.1251 0.7377
C93 C 0.9537(5) -0.0195(2) 0.7986(2)
C94 C 1.0439(5) -0.0648(3) 0.7717(2)
H69 H 1.0554 -0.1087 0.7864
C95 C 1.1142(6) -0.0441(3) 0.7240(2)
H70 H 1.1769 -0.0735 0.7080
C96 C 1.0939(5) 0.0206(3) 0.6988(2)
C97 C 1.1632(6) 0.0427(4) 0.6486(3)
H71 H 1.2266 0.0140 0.6322
C98 C 1.1391(7) 0.1042(5) 0.6245(3)
H72 H 1.1851 0.1173 0.5912
C99 C 1.0463(6) 0.1488(3) 0.6484(2)
H73 H 1.0301 0.1913 0.6309
C100 C 0.9791(5) 0.1302(3) 0.6976(2)
H74 H 0.9176 0.1605 0.7133
C101 C 1.0010(5) 0.0660(3) 0.7252(2)
C102 C 0.9348(5) 0.0456(2) 0.77774(19)
C103 C 0.8612(5) 0.0973(2) 0.81235(19)
C104 C 0.9334(5) 0.1190(2) 0.8700(2)
C105 C 1.0682(6) 0.0942(3) 0.8941(2)
H75 H 1.1128 0.0623 0.8718
C106 C 1.1355(6) 0.1156(3) 0.9494(2)
H76 H 1.2253 0.0991 0.9638
C107 C 1.0696(8) 0.1619(3) 0.9838(3)
H77 H 1.1146 0.1755 1.0218
C108 C 0.9420(8) 0.1875(3) 0.9630(3)
H78 H 0.9001 0.2187 0.9869
C109 C 0.8687(6) 0.1679(3) 0.9052(2)
C110 C 0.7382(7) 0.1955(3) 0.8808(3)
H79 H 0.6962 0.2284 0.9030
C111 C 0.6705(6) 0.1755(3) 0.8252(3)
H80 H 0.5827 0.1940 0.8104
C112 C 0.7344(5) 0.1267(2) 0.7904(2)
loop_
_geom_bond_atom_site_label_1
_geom_bond_atom_site_label_2
_geom_bond_site_symmetry_1
_geom_bond_site_symmetry_2
O1 C1 1_555 1_555
O2 C8 1_555 1_555
C1 H1 1_555 1_555
H2 C1 1_555 1_555
C2 C1 1_555 1_555
C3 C2 1_555 1_555
H3 C3 1_555 1_555
C4 C3 1_555 1_555
H4 C4 1_555 1_555
C5 C4 1_555 1_555
H5 C5 1_555 1_555
C6 C5 1_555 1_555
C7 C2 1_555 1_555
H6 C7 1_555 1_555
C8 C6 1_555 1_555
H7 C8 1_555 1_555
H8 C8 1_555 1_555
C9 O2 1_555 1_555
C10 C9 1_555 1_555
H9 C10 1_555 1_555
C11 C10 1_555 1_555
H10 C11 1_555 1_555
C12 C11 1_555 1_555
C13 C12 1_555 1_555
H11 C13 1_555 1_555
C14 C13 1_555 1_555
H12 C14 1_555 1_555
C15 C14 1_555 1_555
H13 C15 1_555 1_555
C16 C15 1_555 1_555
H14 C16 1_555 1_555
C17 C12 1_555 1_555
C18 C9 1_555 1_555
C19 C18 1_555 1_555
C20 O1 1_555 1_555
C21 C20 1_555 1_555
H15 C21 1_555 1_555
C22 C21 1_555 1_555
H16 C22 1_555 1_555
C23 C22 1_555 1_555
C24 C23 1_555 1_555
H17 C24 1_555 1_555
C25 C24 1_555 1_555
H18 C25 1_555 1_555
C26 C25 1_555 1_555
H19 C26 1_555 1_555
C27 C26 1_555 1_555
H20 C27 1_555 1_555
C28 C19 1_555 1_555
O3 C29 1_555 1_555
O4 C36 1_555 1_555
C29 H21 1_555 1_555
H22 C29 1_555 1_555
C30 C29 1_555 1_555
C31 C30 1_555 1_555
H23 C31 1_555 1_555
C32 C31 1_555 1_555
H24 C32 1_555 1_555
C33 C32 1_555 1_555
H25 C33 1_555 1_555
C34 C33 1_555 1_555
C35 C30 1_555 1_555
H26 C35 1_555 1_555
C36 C34 1_555 1_555
H27 C36 1_555 1_555
H28 C36 1_555 1_555
C37 O3 1_555 1_555
C38 C37 1_555 1_555
H29 C38 1_555 1_555
C39 C38 1_555 1_555
H30 C39 1_555 1_555
C40 C39 1_555 1_555
C41 C40 1_555 1_555
H31 C41 1_555 1_555
C42 C41 1_555 1_555
H32 C42 1_555 1_555
C43 C42 1_555 1_555
H33 C43 1_555 1_555
C44 C43 1_555 1_555
H34 C44 1_555 1_555
C45 C40 1_555 1_555
C46 C37 1_555 1_555
C47 C46 1_555 1_555
C48 C47 1_555 1_555
C49 C48 1_555 1_555
H35 C49 1_555 1_555
C50 C49 1_555 1_555
H36 C50 1_555 1_555
C51 C50 1_555 1_555
H37 C51 1_555 1_555
C52 C51 1_555 1_555
H38 C52 1_555 1_555
C53 C48 1_555 1_555
C54 C53 1_555 1_555
H39 C54 1_555 1_555
C55 C54 1_555 1_555
H40 C55 1_555 1_555
C56 O4 1_555 1_555
O5 C64 1_555 1_555
O6 C57 1_555 1_555
C57 H41 1_555 1_555
H42 C57 1_555 1_555
C58 C57 1_555 1_555
C59 C58 1_555 1_555
H43 C59 1_555 1_555
C60 C59 1_555 1_555
H44 C60 1_555 1_555
C61 C60 1_555 1_555
H45 C61 1_555 1_555
C62 C61 1_555 1_555
C63 C58 1_555 1_555
H46 C63 1_555 1_555
C64 C62 1_555 1_555
H47 C64 1_555 1_555
H48 C64 1_555 1_555
C65 O5 1_555 1_555
C66 C65 1_555 1_555
H49 C66 1_555 1_555
C67 C66 1_555 1_555
H50 C67 1_555 1_555
C68 C67 1_555 1_555
C69 C68 1_555 1_555
H51 C69 1_555 1_555
C70 C69 1_555 1_555
H52 C70 1_555 1_555
C71 C70 1_555 1_555
H53 C71 1_555 1_555
C72 C71 1_555 1_555
H54 C72 1_555 1_555
C73 C68 1_555 1_555
C74 C65 1_555 1_555
C75 C74 1_555 1_555
C76 C75 1_555 1_555
C77 C76 1_555 1_555
H55 C77 1_555 1_555
C78 C77 1_555 1_555
H56 C78 1_555 1_555
C79 C78 1_555 1_555
H57 C79 1_555 1_555
C80 C79 1_555 1_555
H58 C80 1_555 1_555
C81 C76 1_555 1_555
C82 C81 1_555 1_555
H59 C82 1_555 1_555
C83 C82 1_555 1_555
H60 C83 1_555 1_555
C84 O6 1_555 1_555
O7 C85 1_555 1_555
O8 C92 1_555 1_555
C85 H61 1_555 1_555
H62 C85 1_555 1_555
C86 C85 1_555 1_555
C87 C86 1_555 1_555
H63 C87 1_555 1_555
C88 C87 1_555 1_555
H64 C88 1_555 1_555
C89 C88 1_555 1_555
H65 C89 1_555 1_555
C90 C89 1_555 1_555
C91 C86 1_555 1_555
H66 C91 1_555 1_555
C92 C90 1_555 1_555
H67 C92 1_555 1_555
H68 C92 1_555 1_555
C93 O7 1_555 1_555
C94 C93 1_555 1_555
H69 C94 1_555 1_555
C95 C94 1_555 1_555
H70 C95 1_555 1_555
C96 C95 1_555 1_555
C97 C96 1_555 1_555
H71 C97 1_555 1_555
C98 C97 1_555 1_555
H72 C98 1_555 1_555
C99 C98 1_555 1_555
H73 C99 1_555 1_555
C100 C99 1_555 1_555
H74 C100 1_555 1_555
C101 C96 1_555 1_555
C102 C93 1_555 1_555
C103 C102 1_555 1_555
C104 C103 1_555 1_555
C105 C104 1_555 1_555
H75 C105 1_555 1_555
C106 C105 1_555 1_555
H76 C106 1_555 1_555
C107 C106 1_555 1_555
H77 C107 1_555 1_555
C108 C107 1_555 1_555
H78 C108 1_555 1_555
C109 C104 1_555 1_555
C110 C109 1_555 1_555
H79 C110 1_555 1_555
C111 C110 1_555 1_555
H80 C111 1_555 1_555
C112 O8 1_555 1_555
C6 C7 1_555 1_555
C16 C17 1_555 1_555
C17 C18 1_555 1_555
C19 C20 1_555 1_555
C23 C28 1_555 1_555
C27 C28 1_555 1_555
C34 C35 1_555 1_555
C44 C45 1_555 1_555
C45 C46 1_555 1_555
C47 C56 1_555 1_555
C52 C53 1_555 1_555
C55 C56 1_555 1_555
C62 C63 1_555 1_555
C72 C73 1_555 1_555
C73 C74 1_555 1_555
C75 C84 1_555 1_555
C80 C81 1_555 1_555
C83 C84 1_555 1_555
C90 C91 1_555 1_555
C100 C101 1_555 1_555
C101 C102 1_555 1_555
C103 C112 1_555 1_555
C108 C109 1_555 1_555
C111 C112 1_555 1_555

#END
