
#######################################################################
#
#                 Cambridge Crystallographic Data Centre
#                                CCDC 
#
#######################################################################
#
# If this CIF has been generated from an entry in the Cambridge 
# Structural Database, then it will include bibliographic, chemical, 
# crystal, experimental, refinement or atomic coordinate data resulting 
# from the CCDC's data processing and validation procedures.
#
#######################################################################

data_URASIQ01
_chemical_formula_moiety         'C14 H17 N3 O3'
_chemical_name_systematic        
7-(diethylamino)-2-oxo-2H-chromene-3-carbohydrazide
_symmetry_cell_setting           triclinic
_symmetry_space_group_name_H-M   'P -1'
_symmetry_Int_Tables_number      2
_space_group_name_Hall           '-P 1'
loop_
_symmetry_equiv_pos_site_id
_symmetry_equiv_pos_as_xyz
1 x,y,z
2 -x,-y,-z
_cell_length_a                   9.2120(18)
_cell_length_b                   12.624(3)
_cell_length_c                   12.927(3)
_cell_angle_alpha                94.78(3)
_cell_angle_beta                 109.99(3)
_cell_angle_gamma                105.42(3)
_cell_volume                     1336.46
_exptl_crystal_colour            yellow
_exptl_crystal_description       block
_chemical_melting_point          '433-438 K'
_cell_formula_units_Z            4
_exptl_crystal_recrystallization_method 
'Re-crystallisation from solvent: dichloromethane, petroleum ether'
_exptl_crystal_preparation       Luminescent
loop_
_atom_site_label
_atom_site_type_symbol
_atom_site_fract_x
_atom_site_fract_y
_atom_site_fract_z
N1 N 0.37094(13) 0.21008(9) 1.22555(9)
N2 N 0.30689(13) -0.11563(9) 0.58434(9)
H1 H 0.2697 -0.1665 0.6173
N3 N 0.30169(16) -0.14910(10) 0.47591(10)
H2 H 0.402(2) -0.1143(13) 0.4745(12)
H3 H 0.2251(19) -0.1225(12) 0.4269(13)
O1 O 0.28301(10) -0.04724(7) 0.90355(7)
O2 O 0.23042(11) -0.17647(7) 0.75952(8)
O3 O 0.42149(12) 0.06902(7) 0.59713(8)
C1 C 0.29031(16) 0.12102(11) 1.27217(11)
H4 H 0.3312 0.1439 1.3531
H5 H 0.3171 0.0539 1.2558
C2 C 0.10701(17) 0.09453(12) 1.22498(13)
H6 H 0.0799 0.1610 1.2399
H7 H 0.0598 0.0380 1.2597
H8 H 0.0652 0.0677 1.1455
C3 C 0.41947(16) 0.32444(11) 1.28706(11)
H9 H 0.3544 0.3267 1.3319
H10 H 0.3976 0.3736 1.2339
C4 C 0.38721(14) 0.18923(11) 1.12620(10)
C5 C 0.46878(15) 0.27726(11) 1.08375(11)
H11 H 0.5104 0.3502 1.1245
C6 C 0.48636(15) 0.25586(11) 0.98443(11)
H12 H 0.5406 0.3148 0.9591
C7 C 0.42479(14) 0.14692(10) 0.91857(10)
C8 C 0.34594(14) 0.06170(10) 0.96191(10)
C9 C 0.32577(15) 0.07987(10) 1.06140(10)
H13 H 0.2718 0.0204 1.0862
C10 C 0.43012(15) 0.11847(10) 0.81278(10)
H14 H 0.4809 0.1745 0.7827
C11 C 0.36371(14) 0.01185(10) 0.75288(10)
C12 C 0.28939(14) -0.07697(10) 0.80039(10)
C13 C 0.36618(15) -0.00953(11) 0.63860(11)
C14 C 0.59829(17) 0.36708(12) 1.36317(11)
H15 H 0.6184 0.3233 1.4207
H16 H 0.6265 0.4441 1.3971
H17 H 0.6631 0.3609 1.3199
N4 N 0.89924(13) 0.48848(9) 0.76298(9)
N5 N 0.80165(14) 0.74503(10) 1.37557(9)
H18 H 0.7327 0.6789 1.3491
N6 N 0.82009(17) 0.80199(11) 1.48069(10)
H19 H 0.926(2) 0.8406(14) 1.5127(13)
H20 H 0.764(2) 0.8522(14) 1.4672(13)
O4 O 0.73383(10) 0.54885(7) 1.06811(7)
O5 O 0.64654(11) 0.56195(8) 1.20531(8)
O6 O 0.98580(12) 0.88513(8) 1.34805(8)
C15 C 0.77031(16) 0.38048(11) 0.71588(12)
H21 H 0.7669 0.3405 0.7764
H22 H 0.7982 0.3366 0.6647
C16 C 0.60172(17) 0.38807(12) 0.65377(12)
H23 H 0.5670 0.4233 0.7056
H24 H 0.5268 0.3142 0.6198
H25 H 0.6048 0.4315 0.5966
C17 C 0.94072(18) 0.59463(12) 0.61468(11)
H26 H 0.8339 0.5520 0.5619
H27 H 1.0130 0.6143 0.5757
H28 H 0.9360 0.6615 0.6527
C18 C 1.00263(17) 0.52522(11) 0.69962(11)
H29 H 1.0117 0.4597 0.6607
H30 H 1.1109 0.5689 0.7521
C19 C 0.91279(15) 0.55621(10) 0.85589(10)
C20 C 1.03027(15) 0.66525(11) 0.89623(11)
H31 H 1.0969 0.6914 0.8576
C21 C 1.04569(16) 0.73123(11) 0.99049(11)
H32 H 1.1233 0.8018 1.0148
C22 C 0.94828(15) 0.69654(10) 1.05264(10)
C23 C 0.83348(15) 0.58968(10) 1.01162(10)
C24 C 0.81296(15) 0.52076(11) 0.91663(10)
H33 H 0.7336 0.4509 0.8922
C25 C 0.95869(16) 0.75889(11) 1.15171(11)
H34 H 1.0336 0.8304 1.1790
C26 C 0.86312(15) 0.71852(10) 1.20929(10)
C27 C 0.74238(15) 0.60859(11) 1.16528(11)
C28 C 0.88711(16) 0.78989(11) 1.31583(11)
loop_
_geom_bond_atom_site_label_1
_geom_bond_atom_site_label_2
_geom_bond_site_symmetry_1
_geom_bond_site_symmetry_2
N1 C1 1_555 1_555
N2 H1 1_555 1_555
N3 N2 1_555 1_555
H2 N3 1_555 1_555
H3 N3 1_555 1_555
O1 C8 1_555 1_555
O2 C12 1_555 1_555
O3 C13 1_555 1_555
C1 H4 1_555 1_555
H5 C1 1_555 1_555
C2 C1 1_555 1_555
H6 C2 1_555 1_555
H7 C2 1_555 1_555
H8 C2 1_555 1_555
C3 N1 1_555 1_555
H9 C3 1_555 1_555
H10 C3 1_555 1_555
C4 N1 1_555 1_555
C5 C4 1_555 1_555
H11 C5 1_555 1_555
C6 C5 1_555 1_555
H12 C6 1_555 1_555
C7 C6 1_555 1_555
C8 C7 1_555 1_555
C9 C4 1_555 1_555
H13 C9 1_555 1_555
C10 C7 1_555 1_555
H14 C10 1_555 1_555
C11 C10 1_555 1_555
C12 O1 1_555 1_555
C13 N2 1_555 1_555
C14 C3 1_555 1_555
H15 C14 1_555 1_555
H16 C14 1_555 1_555
H17 C14 1_555 1_555
N4 C15 1_555 1_555
N5 H18 1_555 1_555
N6 N5 1_555 1_555
H19 N6 1_555 1_555
H20 N6 1_555 1_555
O4 C23 1_555 1_555
O5 C27 1_555 1_555
O6 C28 1_555 1_555
C15 H21 1_555 1_555
H22 C15 1_555 1_555
C16 C15 1_555 1_555
H23 C16 1_555 1_555
H24 C16 1_555 1_555
H25 C16 1_555 1_555
C17 H26 1_555 1_555
H27 C17 1_555 1_555
H28 C17 1_555 1_555
C18 N4 1_555 1_555
H29 C18 1_555 1_555
H30 C18 1_555 1_555
C19 N4 1_555 1_555
C20 C19 1_555 1_555
H31 C20 1_555 1_555
C21 C20 1_555 1_555
H32 C21 1_555 1_555
C22 C21 1_555 1_555
C23 C22 1_555 1_555
C24 C19 1_555 1_555
H33 C24 1_555 1_555
C25 C22 1_555 1_555
H34 C25 1_555 1_555
C26 C25 1_555 1_555
C27 O4 1_555 1_555
C28 N5 1_555 1_555
C8 C9 1_555 1_555
C11 C12 1_555 1_555
C11 C13 1_555 1_555
C17 C18 1_555 1_555
C23 C24 1_555 1_555
C26 C27 1_555 1_555
C26 C28 1_555 1_555

#END
