
#######################################################################
#
#                 Cambridge Crystallographic Data Centre
#                                CCDC 
#
#######################################################################
#
# If this CIF has been generated from an entry in the Cambridge 
# Structural Database, then it will include bibliographic, chemical, 
# crystal, experimental, refinement or atomic coordinate data resulting 
# from the CCDC's data processing and validation procedures.
#
#######################################################################

data_URAWEQ
_chemical_formula_moiety         'C16 H20 O4'
_chemical_name_systematic        'Methyl 3,4-bis(cyclopropylmethoxy)benzoate'
_symmetry_cell_setting           orthorhombic
_symmetry_space_group_name_H-M   'P 21 21 21'
_symmetry_Int_Tables_number      19
_space_group_name_Hall           'P 2ac 2ab'
loop_
_symmetry_equiv_pos_site_id
_symmetry_equiv_pos_as_xyz
1 x,y,z
2 1/2+x,1/2-y,-z
3 -x,1/2+y,1/2-z
4 1/2-x,-y,1/2+z
_cell_length_a                   4.9018(8)
_cell_length_b                   15.543(2)
_cell_length_c                   18.846(2)
_cell_angle_alpha                90
_cell_angle_beta                 90
_cell_angle_gamma                90
_cell_volume                     1435.85
_exptl_crystal_colour            colorless
_exptl_crystal_description       prism
_cell_formula_units_Z            4
_exptl_crystal_recrystallization_method 'ethyl acetate/hexane'
loop_
_atom_site_label
_atom_site_type_symbol
_atom_site_fract_x
_atom_site_fract_y
_atom_site_fract_z
O1 O 0.3872(2) 0.69719(7) 0.66936(5)
O2 O 0.6968(2) 0.59026(7) 0.66908(5)
O3 O 0.7825(2) 0.48335(5) 0.42141(5)
O4 O 0.4320(2) 0.56811(6) 0.34625(4)
C1 C 0.4862(3) 0.62225(8) 0.56094(7)
C2 C 0.6558(3) 0.56094(8) 0.52884(7)
C3 C 0.6319(3) 0.54351(8) 0.45719(6)
C4 C 0.4378(3) 0.58918(8) 0.41612(7)
C5 C 0.2695(3) 0.64967(8) 0.44863(7)
C6 C 0.2930(3) 0.66574(8) 0.52102(7)
C7 C 0.5139(3) 0.64194(8) 0.63788(7)
C8 C 0.7487(4) 0.60502(11) 0.74361(7)
C9 C 0.9395(3) 0.42507(8) 0.46452(6)
C10 C 1.0118(3) 0.34763(8) 0.42075(7)
C11 C 1.2662(3) 0.29938(9) 0.44212(8)
C12 C 1.2614(3) 0.35005(9) 0.37423(7)
C13 C 0.2283(3) 0.61039(9) 0.30217(7)
C14 C 0.2718(4) 0.57919(10) 0.22787(7)
C15 C 0.5052(4) 0.61632(12) 0.18752(10)
C16 C 0.2225(4) 0.64137(13) 0.16830(8)
H1 H 0.7878 0.5312 0.5565
H2 H 0.1381 0.6800 0.4213
H3 H 0.1765 0.7066 0.5431
H4 H 0.5750 0.6078 0.7693
H5 H 0.8469 0.6595 0.7495
H6 H 0.8593 0.5578 0.7626
H7 H 0.8319 0.4073 0.5065
H8 H 1.1078 0.4538 0.4813
H9 H 0.8558 0.3120 0.4033
H10 H 1.3747 0.3225 0.4821
H11 H 1.2633 0.2358 0.4386
H12 H 1.2558 0.3176 0.3291
H13 H 1.3671 0.4043 0.3725
H14 H 0.2504 0.6736 0.3045
H15 H 0.0423 0.5955 0.3186
H16 H 0.2271 0.5175 0.2183
H17 H 0.6201 0.6597 0.2118
H18 H 0.6047 0.5779 0.1546
H19 H 0.1462 0.6184 0.1235
H20 H 0.1615 0.7002 0.1807
loop_
_geom_bond_atom_site_label_1
_geom_bond_atom_site_label_2
_geom_bond_site_symmetry_1
_geom_bond_site_symmetry_2
O1 C7 1_555 1_555
O2 C7 1_555 1_555
O3 C3 1_555 1_555
O4 C4 1_555 1_555
C1 C2 1_555 1_555
C2 C3 1_555 1_555
C3 C4 1_555 1_555
C4 C5 1_555 1_555
C5 C6 1_555 1_555
C6 C1 1_555 1_555
C7 C1 1_555 1_555
C8 O2 1_555 1_555
C9 O3 1_555 1_555
C10 C9 1_555 1_555
C11 C10 1_555 1_555
C12 C10 1_555 1_555
C13 O4 1_555 1_555
C14 C13 1_555 1_555
C15 C14 1_555 1_555
C16 C14 1_555 1_555
H1 C2 1_555 1_555
H2 C5 1_555 1_555
H3 C6 1_555 1_555
H4 C8 1_555 1_555
H5 C8 1_555 1_555
H6 C8 1_555 1_555
H7 C9 1_555 1_555
H8 C9 1_555 1_555
H9 C10 1_555 1_555
H10 C11 1_555 1_555
H11 C11 1_555 1_555
H12 C12 1_555 1_555
H13 C12 1_555 1_555
H14 C13 1_555 1_555
H15 C13 1_555 1_555
H16 C14 1_555 1_555
H17 C15 1_555 1_555
H18 C15 1_555 1_555
H19 C16 1_555 1_555
H20 C16 1_555 1_555
C11 C12 1_555 1_555
C15 C16 1_555 1_555

#END
