
#######################################################################
#
#                 Cambridge Crystallographic Data Centre
#                                CCDC 
#
#######################################################################
#
# If this CIF has been generated from an entry in the Cambridge 
# Structural Database, then it will include bibliographic, chemical, 
# crystal, experimental, refinement or atomic coordinate data resulting 
# from the CCDC's data processing and validation procedures.
#
#######################################################################

data_URAWAN
_chemical_name_common            Piperaquine
_chemical_formula_moiety         'C29 H32 Cl2 N6'
_chemical_name_systematic        
7-chloro-4-(4-(3-(4-(7-chloroquinolin-4-yl)piperazin-1-yl)propyl)piperazin-1-yl)quinoline
_chemical_properties_biological  'anti-malarial drug'
_symmetry_cell_setting           monoclinic
_symmetry_space_group_name_H-M   'P 21/n'
_symmetry_Int_Tables_number      14
_space_group_name_Hall           '-P 2yn'
loop_
_symmetry_equiv_pos_site_id
_symmetry_equiv_pos_as_xyz
1 x,y,z
2 1/2-x,1/2+y,1/2-z
3 -x,-y,-z
4 1/2+x,1/2-y,1/2+z
_cell_length_a                   13.2585(8)
_cell_length_b                   12.5741(7)
_cell_length_c                   15.8609(7)
_cell_angle_alpha                90
_cell_angle_beta                 91.299(4)
_cell_angle_gamma                90
_cell_volume                     2643.55
_chemical_melting_point          '199-200 deg.C'
_cell_formula_units_Z            4
_exptl_crystal_recrystallization_method chloroform
loop_
_atom_site_label
_atom_site_type_symbol
_atom_site_fract_x
_atom_site_fract_y
_atom_site_fract_z
C1 C 0.4869(2) 0.7686(3) -1.05783(16)
C2 C 0.4516(2) 0.8589(2) -1.01677(17)
H1 H 0.4394 0.9213 -1.0468
C3 C 0.4349(2) 0.8551(2) -0.93230(17)
H2 H 0.4104 0.9150 -0.9051
C4 C 0.45422(18) 0.7618(2) -0.88567(15)
C5 C 0.5054(2) 0.6765(2) -1.01602(17)
H3 H 0.5276 0.6170 -1.0451
C6 C 0.49104(19) 0.6712(2) -0.92832(16)
C7 C 0.5078(2) 0.5781(2) -0.80579(18)
H4 H 0.5263 0.5163 -0.7771
C8 C 0.47298(19) 0.6631(2) -0.75773(16)
H5 H 0.4699 0.6570 -0.6994
C9 C 0.44360(18) 0.7549(2) -0.79649(15)
C10 C 0.29700(19) 0.8532(2) -0.75555(17)
H6 H 0.2681 0.7961 -0.7228
H7 H 0.2722 0.8466 -0.8133
C11 C 0.2651(2) 0.9588(2) -0.72019(16)
H8 H 0.2889 1.0154 -0.7562
H9 H 0.1921 0.9622 -0.7198
C12 C 0.44420(19) 0.8568(2) -0.66587(15)
H10 H 0.5170 0.8495 -0.6632
H11 H 0.4153 0.8021 -0.6307
C13 C 0.41433(19) 0.9647(2) -0.63459(16)
H12 H 0.4412 0.9752 -0.5778
H13 H 0.4425 1.0191 -0.6705
C14 C 0.2715(2) 1.0788(2) -0.60441(16)
H14 H 0.1984 1.0812 -0.6078
H15 H 0.2966 1.1333 -0.6418
C15 C 0.3053(2) 1.1053(2) -0.51499(16)
H16 H 0.2755 1.1727 -0.4992
H17 H 0.3780 1.1143 -0.5135
C16 C 0.2775(2) 1.0223(2) -0.45024(15)
H18 H 0.2058 1.0074 -0.4554
H19 H 0.3136 0.9569 -0.4616
C17 C 0.2302(2) 1.1380(2) -0.33658(15)
H20 H 0.1623 1.1096 -0.3407
H21 H 0.2337 1.1992 -0.3736
C18 C 0.2527(2) 1.1724(2) -0.24691(16)
H22 H 0.3200 1.2025 -0.2426
H23 H 0.2048 1.2264 -0.2303
C19 C 0.2986(2) 0.9668(2) -0.30655(15)
H24 H 0.3484 0.9146 -0.3231
H25 H 0.2327 0.9336 -0.3107
C20 C 0.31977(19) 1.0001(2) -0.21619(16)
H26 H 0.3153 0.9388 -0.1793
H27 H 0.3874 1.0291 -0.2108
C21 C 0.23650(18) 1.1012(2) -0.10506(15)
C22 C 0.2638(2) 1.1946(2) -0.06727(17)
H28 H 0.2940 1.2480 -0.0986
C23 C 0.2464(2) 1.2103(3) 0.01879(18)
H29 H 0.2660 1.2751 0.0422
C24 C 0.18829(18) 1.0230(2) -0.05406(15)
C25 C 0.1747(2) 1.0470(2) 0.03209(16)
C26 C 0.1456(2) 0.9282(2) -0.08579(16)
H30 H 0.1521 0.9120 -0.1426
C27 C 0.0951(2) 0.8595(2) -0.03570(17)
H31 H 0.0675 0.7973 -0.0581
C28 C 0.0851(2) 0.8832(2) 0.04974(17)
C29 C 0.1235(2) 0.9740(2) 0.08315(16)
H32 H 0.1160 0.9883 0.1402
Cl1 Cl 0.51113(7) 0.77678(8) -1.16497(5)
Cl2 Cl 0.01865(7) 0.79625(7) 0.11324(5)
N1 N 0.51664(17) 0.57832(18) -0.88809(14)
N2 N 0.40746(15) 0.84456(17) -0.75305(12)
N3 N 0.30506(15) 0.97469(17) -0.63474(12)
N4 N 0.30159(15) 1.05731(16) -0.36400(12)
N5 N 0.24561(16) 1.08079(17) -0.19185(12)
N6 N 0.20478(19) 1.1408(2) 0.06862(15)
loop_
_geom_bond_atom_site_label_1
_geom_bond_atom_site_label_2
_geom_bond_site_symmetry_1
_geom_bond_site_symmetry_2
C1 C2 1_555 1_555
C2 H1 1_555 1_555
C3 C2 1_555 1_555
H2 C3 1_555 1_555
C4 C3 1_555 1_555
C5 C1 1_555 1_555
H3 C5 1_555 1_555
C6 C4 1_555 1_555
C7 H4 1_555 1_555
C8 C7 1_555 1_555
H5 C8 1_555 1_555
C9 C4 1_555 1_555
C10 H6 1_555 1_555
H7 C10 1_555 1_555
C11 C10 1_555 1_555
H8 C11 1_555 1_555
H9 C11 1_555 1_555
C12 H10 1_555 1_555
H11 C12 1_555 1_555
C13 C12 1_555 1_555
H12 C13 1_555 1_555
H13 C13 1_555 1_555
C14 H14 1_555 1_555
H15 C14 1_555 1_555
C15 C14 1_555 1_555
H16 C15 1_555 1_555
H17 C15 1_555 1_555
C16 C15 1_555 1_555
H18 C16 1_555 1_555
H19 C16 1_555 1_555
C17 H20 1_555 1_555
H21 C17 1_555 1_555
C18 C17 1_555 1_555
H22 C18 1_555 1_555
H23 C18 1_555 1_555
C19 H24 1_555 1_555
H25 C19 1_555 1_555
C20 C19 1_555 1_555
H26 C20 1_555 1_555
H27 C20 1_555 1_555
C21 C22 1_555 1_555
C22 H28 1_555 1_555
C23 C22 1_555 1_555
H29 C23 1_555 1_555
C24 C21 1_555 1_555
C25 C24 1_555 1_555
C26 C24 1_555 1_555
H30 C26 1_555 1_555
C27 C26 1_555 1_555
H31 C27 1_555 1_555
C28 C27 1_555 1_555
C29 C25 1_555 1_555
H32 C29 1_555 1_555
Cl1 C1 1_555 1_555
Cl2 C28 1_555 1_555
N1 C6 1_555 1_555
N2 C9 1_555 1_555
N3 C11 1_555 1_555
N4 C16 1_555 1_555
N5 C18 1_555 1_555
N6 C23 1_555 1_555
C5 C6 1_555 1_555
C7 N1 1_555 1_555
C8 C9 1_555 1_555
C10 N2 1_555 1_555
C12 N2 1_555 1_555
C13 N3 1_555 1_555
C14 N3 1_555 1_555
C17 N4 1_555 1_555
C19 N4 1_555 1_555
C20 N5 1_555 1_555
C21 N5 1_555 1_555
C25 N6 1_555 1_555
C28 C29 1_555 1_555

#END
