
#######################################################################
#
#                 Cambridge Crystallographic Data Centre
#                                CCDC 
#
#######################################################################
#
# If this CIF has been generated from an entry in the Cambridge 
# Structural Database, then it will include bibliographic, chemical, 
# crystal, experimental, refinement or atomic coordinate data resulting 
# from the CCDC's data processing and validation procedures.
#
#######################################################################

data_URAXOB
_chemical_name_common            Thiacloprid
_chemical_formula_moiety         'C10 H9 Cl1 N4 S1'
_chemical_name_systematic        
(Z)-N-(3-[(6-Chloropyridin-3-yl)methyl]-1,3-thiazolidin-2-ylidene)cyanamide
_chemical_properties_biological  'insecticidal activity'
_symmetry_cell_setting           monoclinic
_symmetry_space_group_name_H-M   'P 21/c'
_symmetry_Int_Tables_number      14
_space_group_name_Hall           '-P 2ybc'
loop_
_symmetry_equiv_pos_site_id
_symmetry_equiv_pos_as_xyz
1 x,y,z
2 -x,1/2+y,1/2-z
3 -x,-y,-z
4 x,1/2-y,1/2+z
_cell_length_a                   7.1294(14)
_cell_length_b                   35.469(7)
_cell_length_c                   9.0211(18)
_cell_angle_alpha                90
_cell_angle_beta                 97.80(3)
_cell_angle_gamma                90
_cell_volume                     2260.08
_exptl_crystal_colour            colorless
_exptl_crystal_description       block
_cell_formula_units_Z            8
_exptl_crystal_recrystallization_method 'ethyl acetate'
loop_
_atom_site_label
_atom_site_type_symbol
_atom_site_fract_x
_atom_site_fract_y
_atom_site_fract_z
C1 C 0.8652(3) 0.04805(6) 0.2994(3)
C2 C 0.7778(4) 0.05431(7) 0.4241(3)
H1 H 0.8315 0.0461 0.5183
C3 C 0.6087(4) 0.07309(7) 0.4038(3)
H2 H 0.5443 0.0777 0.4850
C4 C 0.5334(3) 0.08520(5) 0.2624(3)
C5 C 0.6313(4) 0.07628(6) 0.1459(3)
H3 H 0.5795 0.0835 0.0500
C6 C 0.3545(3) 0.10860(6) 0.2362(3)
H4 H 0.2856 0.1025 0.1390
H5 H 0.2744 0.1024 0.3115
C7 C 0.4452(4) 0.16785(7) 0.3852(3)
H6 H 0.5677 0.1592 0.4331
H7 H 0.3516 0.1622 0.4507
C8 C 0.4506(6) 0.20899(8) 0.3572(4)
H8 H 0.5573 0.2202 0.4200
H9 H 0.3354 0.2207 0.3811
C9 C 0.4189(3) 0.16902(6) 0.1222(3)
C10 C 0.4177(3) 0.17589(7) -0.1287(3)
Cl1 Cl 1.08715(10) 0.02601(2) 0.31970(11)
N1 N 0.7967(3) 0.05776(6) 0.1620(3)
N2 N 0.3963(2) 0.14899(5) 0.2425(2)
N3 N 0.4000(3) 0.15412(5) -0.0121(2)
N4 N 0.4288(4) 0.19221(7) -0.2375(3)
S1 S 0.47264(10) 0.216369(16) 0.16494(8)
C11 C 1.3337(3) 0.05498(7) 0.7709(3)
C12 C 1.2138(4) 0.04665(8) 0.8736(3)
H10 H 1.2387 0.0268 0.9406
C13 C 1.0549(4) 0.06898(8) 0.8737(3)
H11 H 0.9712 0.0646 0.9423
C14 C 1.0214(3) 0.09783(7) 0.7712(3)
C15 C 1.1509(4) 0.10300(8) 0.6735(3)
H12 H 1.1280 0.1222 0.6033
C16 C 0.8483(3) 0.12283(9) 0.7672(4)
H13 H 0.7818 0.1234 0.6660
H14 H 0.7636 0.1121 0.8315
C17 C 0.8939(5) 0.19245(10) 0.7102(4)
H15 H 0.7664 0.1963 0.6595
H16 H 0.9753 0.1866 0.6353
C18 C 0.9605(6) 0.22673(9) 0.7904(4)
H17 H 0.8799 0.2478 0.7556
H18 H 1.0887 0.2325 0.7728
C19 C 0.9155(3) 0.17075(7) 0.9595(3)
C20 C 0.9267(3) 0.15741(8) 1.2059(3)
Cl2 Cl 1.53924(11) 0.02813(2) 0.76846(10)
N5 N 1.3080(3) 0.08234(7) 0.6720(3)
N6 N 0.8957(3) 0.16118(6) 0.8155(2)
N7 N 0.9051(3) 0.14604(6) 1.0652(2)
N8 N 0.9439(4) 0.16423(9) 1.3319(3)
S2 S 0.95422(12) 0.21907(2) 0.98475(9)
loop_
_geom_bond_atom_site_label_1
_geom_bond_atom_site_label_2
_geom_bond_site_symmetry_1
_geom_bond_site_symmetry_2
C1 C2 1_555 1_555
C2 H1 1_555 1_555
C3 C2 1_555 1_555
H2 C3 1_555 1_555
C4 C3 1_555 1_555
C5 C4 1_555 1_555
H3 C5 1_555 1_555
C6 C4 1_555 1_555
H4 C6 1_555 1_555
H5 C6 1_555 1_555
C7 H6 1_555 1_555
H7 C7 1_555 1_555
C8 C7 1_555 1_555
H8 C8 1_555 1_555
H9 C8 1_555 1_555
C9 N2 1_555 1_555
C10 N3 1_555 1_555
C11 C12 1_555 1_555
C12 H10 1_555 1_555
C13 C12 1_555 1_555
H11 C13 1_555 1_555
C14 C13 1_555 1_555
C15 C14 1_555 1_555
H12 C15 1_555 1_555
C16 C14 1_555 1_555
H13 C16 1_555 1_555
H14 C16 1_555 1_555
C17 H15 1_555 1_555
H16 C17 1_555 1_555
C18 C17 1_555 1_555
H17 C18 1_555 1_555
H18 C18 1_555 1_555
C19 N6 1_555 1_555
C20 N7 1_555 1_555
Cl1 C1 1_555 1_555
Cl2 C11 1_555 1_555
N1 C1 1_555 1_555
N2 C6 1_555 1_555
N3 C9 1_555 1_555
N4 C10 1_555 1_555
N5 C11 1_555 1_555
N6 C16 1_555 1_555
N7 C19 1_555 1_555
N8 C20 1_555 1_555
S1 C8 1_555 1_555
S2 C18 1_555 1_555
C5 N1 1_555 1_555
C7 N2 1_555 1_555
C9 S1 1_555 1_555
C15 N5 1_555 1_555
C17 N6 1_555 1_555
C19 S2 1_555 1_555

#END
