
#######################################################################
#
#                 Cambridge Crystallographic Data Centre
#                                CCDC 
#
#######################################################################
#
# If this CIF has been generated from an entry in the Cambridge 
# Structural Database, then it will include bibliographic, chemical, 
# crystal, experimental, refinement or atomic coordinate data resulting 
# from the CCDC's data processing and validation procedures.
#
#######################################################################

data_URAXUH
_chemical_compound_source        
'Cladosporium cladosporioides PXP-49, isolated from roots of Rhizophora stylosa'
_chemical_formula_moiety         'C28 H44 O4,H2 O1'
_chemical_name_systematic        
'(22E,24R)-3\b,5\a,9\a-Trihydroxyergosta-7,22-dien-6-one monohydrate'
_symmetry_cell_setting           monoclinic
_symmetry_space_group_name_H-M   'P 21'
_symmetry_Int_Tables_number      4
_space_group_name_Hall           'P 2yb'
loop_
_symmetry_equiv_pos_site_id
_symmetry_equiv_pos_as_xyz
1 x,y,z
2 -x,1/2+y,-z
_cell_length_a                   6.7605(8)
_cell_length_b                   7.2626(11)
_cell_length_c                   28.461(2)
_cell_angle_alpha                90
_cell_angle_beta                 96.0830(10)
_cell_angle_gamma                90
_cell_volume                     1389.53
_exptl_crystal_colour            colorless
_exptl_crystal_description       needle
_cell_formula_units_Z            2
_exptl_crystal_recrystallization_method chloroform/methanol
loop_
_atom_site_label
_atom_site_type_symbol
_atom_site_fract_x
_atom_site_fract_y
_atom_site_fract_z
O1 O 0.8875(4) 0.0054(4) 0.52563(10)
H1 H 0.9909 0.0624 0.5235
O2 O 0.4476(4) 0.2358(4) 0.60388(9)
H2 H 0.3863 0.2270 0.5775
O3 O 0.5562(4) 0.6238(4) 0.55751(10)
O4 O 0.4840(4) 0.2365(4) 0.69723(9)
H3 H 0.4212 0.2108 0.6718
C1 C 0.8286(7) 0.1178(6) 0.65380(14)
H6 H 0.9211 0.1058 0.6821
H7 H 0.7149 0.0399 0.6576
C2 C 0.9293(6) 0.0501(6) 0.61159(15)
H8 H 1.0513 0.1188 0.6097
H9 H 0.9640 -0.0787 0.6161
C3 C 0.7952(6) 0.0726(6) 0.56552(15)
H10 H 0.6758 -0.0019 0.5680
C4 C 0.7289(6) 0.2714(6) 0.55897(13)
H11 H 0.6375 0.2816 0.5304
H12 H 0.8437 0.3478 0.5551
C5 C 0.6271(6) 0.3417(5) 0.60092(13)
C6 C 0.5590(6) 0.5400(6) 0.59528(15)
C7 C 0.4882(6) 0.6255(6) 0.63688(13)
H13 H 0.4196 0.7364 0.6331
C8 C 0.5173(6) 0.5519(5) 0.67999(14)
C9 C 0.6322(6) 0.3742(5) 0.69000(14)
C10 C 0.7588(6) 0.3185(5) 0.64904(14)
C11 C 0.7618(7) 0.3829(6) 0.73789(14)
H14 H 0.8054 0.2592 0.7467
H15 H 0.8795 0.4554 0.7340
C12 C 0.6586(7) 0.4650(6) 0.77811(14)
H16 H 0.7531 0.4736 0.8061
H17 H 0.5519 0.3838 0.7852
C13 C 0.5735(6) 0.6555(6) 0.76590(13)
C14 C 0.4259(6) 0.6303(6) 0.72149(13)
H18 H 0.3312 0.5369 0.7300
C15 C 0.3080(6) 0.8098(6) 0.71665(14)
H19 H 0.1746 0.7887 0.7014
H20 H 0.3738 0.8996 0.6984
C16 C 0.3026(7) 0.8755(6) 0.76823(15)
H21 H 0.1674 0.8727 0.7767
H22 H 0.3523 1.0005 0.7719
C17 C 0.4362(6) 0.7424(6) 0.80017(14)
H23 H 0.3503 0.6441 0.8101
C18 C 0.5296(7) 0.8390(7) 0.84525(15)
H24 H 0.6067 0.9439 0.8354
C19 C 0.3696(8) 0.9138(8) 0.87252(16)
H25 H 0.2887 0.8264 0.8848
C20 C 0.3289(8) 1.0835(8) 0.88128(17)
H26 H 0.4126 1.1709 0.8700
C21 C 0.1657(9) 1.1575(9) 0.90707(19)
H27 H 0.1019 1.0547 0.9219
C22 C 0.2406(12) 1.2938(10) 0.9449(2)
H28 H 0.3067 1.3949 0.9299
C23 C 0.0845(14) 1.3730(13) 0.9714(3)
H29 H 0.0014 1.2760 0.9811
H30 H 0.0052 1.4578 0.9516
H31 H 0.1454 1.4366 0.9988
C24 C 0.9393(6) 0.4470(6) 0.64853(14)
H32 H 1.0417 0.4093 0.6725
H33 H 0.9000 0.5711 0.6546
H34 H 0.9888 0.4409 0.6182
C25 C 0.7358(6) 0.7927(6) 0.75607(15)
H35 H 0.7981 0.7527 0.7291
H36 H 0.8335 0.7996 0.7831
H37 H 0.6775 0.9120 0.7499
C26 C 0.6712(9) 0.7170(9) 0.87720(17)
H38 H 0.7094 0.7798 0.9064
H39 H 0.7876 0.6909 0.8617
H40 H 0.6055 0.6038 0.8835
C27 C 0.0112(11) 1.2509(12) 0.8717(2)
H41 H 0.0681 1.3595 0.8593
H42 H -0.1028 1.2843 0.8872
H43 H -0.0285 1.1675 0.8462
C28 C 0.3933(12) 1.1993(12) 0.9799(2)
H44 H 0.3376 1.0880 0.9910
H45 H 0.4293 1.2800 1.0061
H46 H 0.5095 1.1705 0.9646
O5 O 0.2328(4) 0.1982(4) 0.51822(8)
H4 H 0.1825 0.3000 0.5082
H5 H 0.3038 0.1571 0.4976
loop_
_geom_bond_atom_site_label_1
_geom_bond_atom_site_label_2
_geom_bond_site_symmetry_1
_geom_bond_site_symmetry_2
O1 H1 1_555 1_555
O2 H2 1_555 1_555
O3 C6 1_555 1_555
O4 H3 1_555 1_555
O5 H4 1_555 1_555
H5 O5 1_555 1_555
C1 H6 1_555 1_555
H7 C1 1_555 1_555
C2 C1 1_555 1_555
H8 C2 1_555 1_555
H9 C2 1_555 1_555
C3 O1 1_555 1_555
H10 C3 1_555 1_555
C4 C3 1_555 1_555
H11 C4 1_555 1_555
H12 C4 1_555 1_555
C5 O2 1_555 1_555
C6 C5 1_555 1_555
C7 C6 1_555 1_555
H13 C7 1_555 1_555
C8 C7 1_555 1_555
C9 O4 1_555 1_555
C10 C1 1_555 1_555
C11 C9 1_555 1_555
H14 C11 1_555 1_555
H15 C11 1_555 1_555
C12 C11 1_555 1_555
H16 C12 1_555 1_555
H17 C12 1_555 1_555
C13 C12 1_555 1_555
C14 C8 1_555 1_555
H18 C14 1_555 1_555
C15 C14 1_555 1_555
H19 C15 1_555 1_555
H20 C15 1_555 1_555
C16 C15 1_555 1_555
H21 C16 1_555 1_555
H22 C16 1_555 1_555
C17 C13 1_555 1_555
H23 C17 1_555 1_555
C18 C17 1_555 1_555
H24 C18 1_555 1_555
C19 C18 1_555 1_555
H25 C19 1_555 1_555
C20 C19 1_555 1_555
H26 C20 1_555 1_555
C21 C20 1_555 1_555
H27 C21 1_555 1_555
C22 C21 1_555 1_555
H28 C22 1_555 1_555
C23 C22 1_555 1_555
H29 C23 1_555 1_555
H30 C23 1_555 1_555
H31 C23 1_555 1_555
C24 C10 1_555 1_555
H32 C24 1_555 1_555
H33 C24 1_555 1_555
H34 C24 1_555 1_555
C25 C13 1_555 1_555
H35 C25 1_555 1_555
H36 C25 1_555 1_555
H37 C25 1_555 1_555
C26 C18 1_555 1_555
H38 C26 1_555 1_555
H39 C26 1_555 1_555
H40 C26 1_555 1_555
C27 C21 1_555 1_555
H41 C27 1_555 1_555
H42 C27 1_555 1_555
H43 C27 1_555 1_555
C28 C22 1_555 1_555
H44 C28 1_555 1_555
H45 C28 1_555 1_555
H46 C28 1_555 1_555
C2 C3 1_555 1_555
C4 C5 1_555 1_555
C5 C10 1_555 1_555
C8 C9 1_555 1_555
C9 C10 1_555 1_555
C13 C14 1_555 1_555
C16 C17 1_555 1_555

#END
