
#######################################################################
#
#                 Cambridge Crystallographic Data Centre
#                                CCDC 
#
#######################################################################
#
# If this CIF has been generated from an entry in the Cambridge 
# Structural Database, then it will include bibliographic, chemical, 
# crystal, experimental, refinement or atomic coordinate data resulting 
# from the CCDC's data processing and validation procedures.
#
#######################################################################

data_UREAOH01
_chemical_name_common            Droxia
_chemical_formula_moiety         'C1 H4 N2 O2'
_chemical_name_systematic        N-Hydroxyurea
_chemical_properties_biological  'antineoplastic agent'
_symmetry_cell_setting           monoclinic
_symmetry_space_group_name_H-M   'P 21/c'
_symmetry_Int_Tables_number      14
_space_group_name_Hall           '-P 2ybc'
loop_
_symmetry_equiv_pos_site_id
_symmetry_equiv_pos_as_xyz
1 x,y,z
2 -x,1/2+y,1/2-z
3 -x,-y,-z
4 x,1/2-y,1/2+z
_cell_length_a                   8.393(8)
_cell_length_b                   4.907(5)
_cell_length_c                   8.798(8)
_cell_angle_alpha                90
_cell_angle_beta                 121.20
_cell_angle_gamma                90
_cell_volume                     309.933
_cell_formula_units_Z            4
loop_
_atom_site_label
_atom_site_type_symbol
_atom_site_fract_x
_atom_site_fract_y
_atom_site_fract_z
C1 C 0.27380 0.02550 0.02690
H1 H 0.21000 -0.17500 -0.31000
H2 H 0.07500 -0.22500 -0.10000
H3 H 0.30000 0.30500 -0.12000
H4 H 0.47500 0.33500 0.12500
N1 N 0.15980 -0.12190 -0.11660
N2 N 0.35610 0.24360 0.00610
O1 O 0.12520 -0.03810 -0.28270
O2 O 0.30220 -0.04910 0.17520
loop_
_geom_bond_atom_site_label_1
_geom_bond_atom_site_label_2
_geom_bond_site_symmetry_1
_geom_bond_site_symmetry_2
C1 N1 1_555 1_555
H1 O1 1_555 1_555
H2 N1 1_555 1_555
H3 N2 1_555 1_555
H4 N2 1_555 1_555
N1 O1 1_555 1_555
N2 C1 1_555 1_555
O2 C1 1_555 1_555

#END
