
#######################################################################
#
#                 Cambridge Crystallographic Data Centre
#                                CCDC 
#
#######################################################################
#
# If this CIF has been generated from an entry in the Cambridge 
# Structural Database, then it will include bibliographic, chemical, 
# crystal, experimental, refinement or atomic coordinate data resulting 
# from the CCDC's data processing and validation procedures.
#
#######################################################################

data_UREBEA
_chemical_name_common            
"N,N',N'',N'''-((2,8,14,20-tetraethyl-4,6,10,12,16,18,22,24-octahydroxypentacyclo[19.3.1.1$3,7!.1$9,13!.1$15,19!]octacosa-1(25),3(28),4,6,9(27),10,12,15(26),16,18,21,23-dodecaene-5,11,17,23-tetrayl)tetrakis(methylene))tetrakis(2-hydroxyethanaminium) tetrakis(chloride) chloroform 1,4-dioxane solvate hydrate"
_chemical_formula_moiety         
'C48 H72 N4 O12 4+,C4 H8 O2,0.35(C1 H1 Cl3),1.3(H2 O1),4(Cl1 1-)'
_chemical_name_systematic        
'5,11,17,23-tetrakis((2-hydroxyethanaminium)methylene)-C-ethylcalix(4)resorcinarene tetrakis(chloride) chloroform 1,4-dioxane solvate hydrate'
_symmetry_cell_setting           triclinic
_symmetry_space_group_name_H-M   'P -1'
_symmetry_Int_Tables_number      2
_space_group_name_Hall           '-P 1'
loop_
_symmetry_equiv_pos_site_id
_symmetry_equiv_pos_as_xyz
1 x,y,z
2 -x,-y,-z
_cell_length_a                   11.5056(11)
_cell_length_b                   12.2155(11)
_cell_length_c                   21.7973(18)
_cell_angle_alpha                92.487(7)
_cell_angle_beta                 94.726(8)
_cell_angle_gamma                90.706(8)
_cell_volume                     3049.86
_exptl_crystal_colour            red
_exptl_crystal_description       block
_cell_formula_units_Z            2
loop_
_atom_site_label
_atom_site_type_symbol
_atom_site_fract_x
_atom_site_fract_y
_atom_site_fract_z
C1 C 0.7056(7) 0.5081(6) 0.3346(4)
C2 C 0.7501(7) 0.4286(7) 0.2971(4)
C3 C 0.6926(7) 0.3267(6) 0.2829(4)
C4 C 0.5862(7) 0.3098(6) 0.3042(4)
C5 C 0.5383(7) 0.3841(6) 0.3438(4)
C6 C 0.5968(7) 0.4861(6) 0.3559(4)
H1 H 0.5617 0.5405 0.3789
C7 C 0.7437(8) 0.2480(8) 0.2374(5)
H2 H 0.8278 0.2488 0.2459
H3 H 0.7156 0.1746 0.2440
C8 C 0.5934(11) 0.2639(12) 0.1518(7)
H4 H 0.5521 0.3210 0.1730
H5 H 0.5622 0.1937 0.1624
C9 C 0.5722(15) 0.2760(13) 0.0814(7)
H6 H 0.4898 0.2863 0.0702
H7 H 0.6148 0.3395 0.0693
C10 C 0.4231(6) 0.3637(7) 0.3717(4)
H8 H 0.4037 0.2859 0.3631
C11 C 0.4338(7) 0.3815(7) 0.4429(4)
H9 H 0.4616 0.4557 0.4535
H10 H 0.3570 0.3738 0.4577
C12 C 0.5146(9) 0.3028(9) 0.4750(5)
H11 H 0.5224 0.3213 0.5184
H12 H 0.5898 0.3071 0.4590
H13 H 0.4835 0.2296 0.4681
C13 C 0.3229(6) 0.4278(6) 0.3396(4)
C14 C 0.2688(7) 0.3842(7) 0.2861(4)
C15 C 0.1732(7) 0.4391(7) 0.2555(4)
C16 C 0.1392(7) 0.5381(7) 0.2819(4)
C17 C 0.1930(7) 0.5836(7) 0.3365(5)
C18 C 0.2853(7) 0.5259(7) 0.3658(4)
H14 H 0.3217 0.5535 0.4030
C19 C 0.1021(7) 0.3865(7) 0.2002(4)
H15 H 0.1053 0.3075 0.2030
H16 H 0.0213 0.4073 0.2021
C20 C 0.0589(9) 0.3667(9) 0.0884(5)
H17 H 0.0654 0.2876 0.0871
H18 H -0.0208 0.3848 0.0956
C21 C 0.088(2) 0.410(3) 0.0286(14)
H19 H 0.0360 0.3748 -0.0038
H20 H 0.0719 0.4875 0.0294
C22 C 0.1533(7) 0.6924(7) 0.3631(4)
H21 H 0.0686 0.6947 0.3537
C23 C 0.1760(8) 0.7081(7) 0.4330(4)
H22 H 0.1458 0.6447 0.4523
H23 H 0.2595 0.7127 0.4438
C24 C 0.1198(10) 0.8104(10) 0.4579(6)
H24 H 0.1194 0.8079 0.5019
H25 H 0.0411 0.8142 0.4398
H26 H 0.1632 0.8738 0.4479
C25 C 0.2060(7) 0.7863(7) 0.3298(4)
C26 C 0.1421(7) 0.8416(7) 0.2832(4)
C27 C 0.1927(7) 0.9273(7) 0.2530(4)
C28 C 0.3073(7) 0.9585(6) 0.2696(4)
C29 C 0.3736(7) 0.9082(7) 0.3181(4)
C30 C 0.3223(7) 0.8203(7) 0.3444(4)
H27 H 0.3674 0.7818 0.3733
C31 C 0.1148(8) 0.9863(8) 0.2058(5)
H28 H 0.1506 1.0564 0.1985
H29 H 0.0404 1.0005 0.2222
C32 C 0.1931(12) 0.9086(10) 0.1107(5)
H30 H 0.2517 0.8661 0.1332
H31 H 0.2264 0.9802 0.1047
C33 C 0.156(2) 0.850(3) 0.0478(11)
H32 H 0.2147 0.8634 0.0193
H33 H 0.1496 0.7721 0.0526
C34 C 0.4977(7) 0.9461(7) 0.3388(4)
H34 H 0.5080 1.0177 0.3213
C35 C 0.5168(7) 0.9650(7) 0.4096(4)
H35 H 0.4553 1.0112 0.4235
H36 H 0.5108 0.8952 0.4287
C36 C 0.6349(9) 1.0185(9) 0.4310(5)
H37 H 0.6370 1.0386 0.4741
H38 H 0.6459 1.0828 0.4082
H39 H 0.6959 0.9677 0.4241
C37 C 0.5863(7) 0.8702(6) 0.3110(4)
C38 C 0.6222(8) 0.8845(7) 0.2535(4)
C39 C 0.7009(8) 0.8162(7) 0.2264(4)
C40 C 0.7431(7) 0.7265(6) 0.2598(4)
C41 C 0.7138(7) 0.7106(6) 0.3191(4)
C42 C 0.6361(7) 0.7833(6) 0.3435(4)
H40 H 0.6160 0.7739 0.3834
C43 C 0.7398(9) 0.8347(8) 0.1645(5)
H41 H 0.7927 0.7774 0.1531
H42 H 0.7810 0.9045 0.1649
C44 C 0.6551(18) 0.7936(15) 0.0512(7)
H43 H 0.6856 0.7200 0.0527
H44 H 0.5834 0.7909 0.0245
C45 C 0.743(2) 0.8688(13) 0.0250(9)
H45 H 0.8185 0.8648 0.0483
H46 H 0.7525 0.8469 -0.0177
C46 C 0.7680(7) 0.6167(6) 0.3541(4)
H47 H 0.8474 0.6099 0.3414
C47 C 0.7804(8) 0.6381(7) 0.4241(4)
H48 H 0.8173 0.7093 0.4338
H49 H 0.7035 0.6396 0.4393
C48 C 0.8516(10) 0.5517(10) 0.4564(6)
H50 H 0.8648 0.5722 0.4994
H51 H 0.9252 0.5452 0.4388
H52 H 0.8104 0.4827 0.4514
N1 N 0.7164(8) 0.2714(8) 0.1725(5)
H53 H 0.7447 0.3447 0.1658
H54 H 0.7582 0.2205 0.1473
N2 N 0.1400(6) 0.4156(7) 0.1396(4)
H55 H 0.2182 0.3891 0.1354
H56 H 0.1419 0.4947 0.1371
N3 N 0.0942(8) 0.9196(8) 0.1445(4)
H57 H 0.0660 0.8471 0.1528
H58 H 0.0333 0.9543 0.1191
N4 N 0.6295(13) 0.8341(12) 0.1158(6)
H59 H 0.5690 0.7878 0.1300
H60 H 0.5997 0.9079 0.1139
O1 O 0.8576(5) 0.4398(5) 0.2731(3)
H61 H 0.8747 0.5051 0.2722
O2 O 0.5344(5) 0.2082(4) 0.2886(3)
H62 H 0.4652 0.2195 0.2805
O3 O 0.3056(6) 0.2856(5) 0.2646(3)
H63 H 0.3076 0.2863 0.2271
O4 O 0.0428(5) 0.5900(5) 0.2573(3)
H64 H 0.0578 0.6071 0.2189
O5 O 0.0270(5) 0.8201(5) 0.2660(3)
H65 H 0.0192 0.7535 0.2629
O6 O 0.3641(5) 1.0414(5) 0.2421(3)
H66 H 0.3209 1.0647 0.2140
O7 O 0.5849(6) 0.9691(5) 0.2165(3)
H67 H 0.5319 1.0016 0.2320
O8 O 0.8213(5) 0.6564(5) 0.2357(3)
H68 H 0.7958 0.6341 0.2011
O9 O 0.6075(11) 0.1872(11) 0.0529(6)
H69 H 0.5722 0.1337 0.0639
O10 O 0.2026(17) 0.396(2) 0.0123(9)
H70 H 0.2232 0.4147 -0.0240
O11 O 0.0462(12) 0.8917(14) 0.0240(7)
H71 H 0.0495 0.9025 -0.0163
O12 O 0.7012(13) 0.9750(12) 0.0289(8)
H72 H 0.6552 0.9796 -0.0017
O15 O 0.4568(12) 1.0121(13) 0.0788(7)
H91 H 0.4072 1.0592 0.0890
H92 H 0.4305 0.9480 0.0839
C53 C 0.4060(11) 0.6693(10) 0.1987(6)
H94 H 0.3224 0.6698 0.2020
H95 H 0.4432 0.7133 0.2330
C54 C 0.4489(11) 0.5535(12) 0.2013(6)
H96 H 0.5327 0.5527 0.1988
H97 H 0.4319 0.5230 0.2400
C55 C 0.4205(11) 0.5369(11) 0.0924(6)
H98 H 0.5043 0.5372 0.0898
H99 H 0.3845 0.4932 0.0576
C56 C 0.3773(11) 0.6496(11) 0.0906(6)
H100 H 0.3936 0.6806 0.0519
H101 H 0.2935 0.6489 0.0930
O17 O 0.3919(7) 0.4888(6) 0.1507(5)
O18 O 0.4322(7) 0.7160(7) 0.1409(5)
C57 C 0.093(2) 0.1605(18) 0.3549(14)
H102 H 0.1326 0.1578 0.3168
Cl1 Cl 0.0287(13) 0.2841(11) 0.3739(8)
Cl2 Cl 0.1799(14) 0.1514(16) 0.4228(9)
Cl3 Cl -0.0214(12) 0.0623(12) 0.3591(9)
Cl4 Cl 0.2916(2) 0.1923(2) 0.13793(13)
Cl5 Cl 0.7496(3) 0.5238(3) 0.11764(16)
Cl6 Cl 0.1063(2) 0.9009(2) -0.12077(13)
Cl7 Cl 0.0544(3) 0.6589(2) 0.13342(15)
H73? H -0.0104 0.4109 0.0834
H74? H 0.0353 0.2936 0.0984
C49? C 0.118(3) 0.361(2) 0.0293(11)
H75? H 0.1858 0.3148 0.0334
H76? H 0.0650 0.3309 -0.0041
H77? H 0.2477 0.8598 0.1315
H78? H 0.2313 0.9795 0.1093
C50? C 0.161(3) 0.863(4) 0.0449(14)
H79? H 0.2287 0.8399 0.0244
H80? H 0.1039 0.8037 0.0433
H81? H 0.7343 0.9123 0.1574
H82? H 0.8216 0.8160 0.1649
C51? C 0.713(3) 0.827(3) 0.0552(13)
H83? H 0.7915 0.8575 0.0598
H84? H 0.7067 0.7726 0.0215
C52? C 0.624(3) 0.918(3) 0.0436(16)
H85? H 0.6665 0.9850 0.0564
H86? H 0.6112 0.9186 -0.0009
N5? N 0.681(3) 0.778(2) 0.1152(11)
H87? H 0.5972 0.7829 0.1184
H88? H 0.7014 0.7013 0.1153
O13? O 0.1537(19) 0.4718(18) 0.0161(9)
H89? H 0.1783 0.4739 -0.0199
O14? O 0.514(2) 0.933(2) 0.0643(10)
H90? H 0.4819 0.9308 0.0249
O16? O 0.113(3) 0.960(3) 0.0216(14)
H93? H 0.1164 0.9489 -0.0162
O19? O 0.002(3) 0.162(3) 0.3200(15)
O20? O 0.068(5) 0.103(5) 0.428(3)
loop_
_geom_bond_atom_site_label_1
_geom_bond_atom_site_label_2
_geom_bond_site_symmetry_1
_geom_bond_site_symmetry_2
C1 C2 1_555 1_555
C2 C3 1_555 1_555
C3 C4 1_555 1_555
C4 C5 1_555 1_555
C5 C6 1_555 1_555
C6 C1 1_555 1_555
H1 C6 1_555 1_555
C7 C3 1_555 1_555
H2 C7 1_555 1_555
H3 C7 1_555 1_555
C8 H4 1_555 1_555
H5 C8 1_555 1_555
C9 C8 1_555 1_555
H6 C9 1_555 1_555
H7 C9 1_555 1_555
C10 C5 1_555 1_555
H8 C10 1_555 1_555
C11 C10 1_555 1_555
H9 C11 1_555 1_555
H10 C11 1_555 1_555
C12 C11 1_555 1_555
H11 C12 1_555 1_555
H12 C12 1_555 1_555
H13 C12 1_555 1_555
C13 C10 1_555 1_555
C14 C13 1_555 1_555
C15 C14 1_555 1_555
C16 C15 1_555 1_555
C17 C16 1_555 1_555
C18 C13 1_555 1_555
H14 C18 1_555 1_555
C19 C15 1_555 1_555
H15 C19 1_555 1_555
H16 C19 1_555 1_555
C20 H17 1_555 1_555
H18 C20 1_555 1_555
C21 C20 1_555 1_555
H19 C21 1_555 1_555
H20 C21 1_555 1_555
C22 C17 1_555 1_555
H21 C22 1_555 1_555
C23 C22 1_555 1_555
H22 C23 1_555 1_555
H23 C23 1_555 1_555
C24 C23 1_555 1_555
H24 C24 1_555 1_555
H25 C24 1_555 1_555
H26 C24 1_555 1_555
C25 C22 1_555 1_555
C26 C25 1_555 1_555
C27 C26 1_555 1_555
C28 C27 1_555 1_555
C29 C28 1_555 1_555
C30 C25 1_555 1_555
H27 C30 1_555 1_555
C31 C27 1_555 1_555
H28 C31 1_555 1_555
H29 C31 1_555 1_555
C32 H30 1_555 1_555
H31 C32 1_555 1_555
C33 C32 1_555 1_555
H32 C33 1_555 1_555
H33 C33 1_555 1_555
C34 C29 1_555 1_555
H34 C34 1_555 1_555
C35 C34 1_555 1_555
H35 C35 1_555 1_555
H36 C35 1_555 1_555
C36 C35 1_555 1_555
H37 C36 1_555 1_555
H38 C36 1_555 1_555
H39 C36 1_555 1_555
C37 C34 1_555 1_555
C38 C37 1_555 1_555
C39 C38 1_555 1_555
C40 C39 1_555 1_555
C41 C40 1_555 1_555
C42 C37 1_555 1_555
H40 C42 1_555 1_555
C43 C39 1_555 1_555
H41 C43 1_555 1_555
H42 C43 1_555 1_555
C44 H43 1_555 1_555
H44 C44 1_555 1_555
C45 C44 1_555 1_555
H45 C45 1_555 1_555
H46 C45 1_555 1_555
C46 C1 1_555 1_555
H47 C46 1_555 1_555
C47 C46 1_555 1_555
H48 C47 1_555 1_555
H49 C47 1_555 1_555
C48 C47 1_555 1_555
H50 C48 1_555 1_555
H51 C48 1_555 1_555
H52 C48 1_555 1_555
N1 C7 1_555 1_555
H53 N1 1_555 1_555
H54 N1 1_555 1_555
N2 C19 1_555 1_555
H55 N2 1_555 1_555
H56 N2 1_555 1_555
N3 C31 1_555 1_555
H57 N3 1_555 1_555
H58 N3 1_555 1_555
N4 C43 1_555 1_555
H59 N4 1_555 1_555
H60 N4 1_555 1_555
O1 C2 1_555 1_555
H61 O1 1_555 1_555
O2 C4 1_555 1_555
H62 O2 1_555 1_555
O3 C14 1_555 1_555
H63 O3 1_555 1_555
O4 C16 1_555 1_555
H64 O4 1_555 1_555
O5 C26 1_555 1_555
H65 O5 1_555 1_555
O6 C28 1_555 1_555
H66 O6 1_555 1_555
O7 C38 1_555 1_555
H67 O7 1_555 1_555
O8 C40 1_555 1_555
H68 O8 1_555 1_555
O9 C9 1_555 1_555
H69 O9 1_555 1_555
O10 C21 1_555 1_555
H70 O10 1_555 1_555
O11 C33 1_555 1_555
H71 O11 1_555 1_555
O12 C45 1_555 1_555
H72 O12 1_555 1_555
O15 H91 1_555 1_555
H92 O15 1_555 1_555
C53 H94 1_555 1_555
H95 C53 1_555 1_555
C54 C53 1_555 1_555
H96 C54 1_555 1_555
H97 C54 1_555 1_555
C55 H98 1_555 1_555
H99 C55 1_555 1_555
C56 C55 1_555 1_555
H100 C56 1_555 1_555
H101 C56 1_555 1_555
O17 C54 1_555 1_555
O18 C53 1_555 1_555
C57 H102 1_555 1_555
Cl1 C57 1_555 1_555
Cl2 C57 1_555 1_555
Cl3 C57 1_555 1_555
C8 N1 1_555 1_555
C17 C18 1_555 1_555
C20 N2 1_555 1_555
C29 C30 1_555 1_555
C32 N3 1_555 1_555
C41 C42 1_555 1_555
C41 C46 1_555 1_555
C44 N4 1_555 1_555
C55 O17 1_555 1_555
C56 O18 1_555 1_555

#END
