
#######################################################################
#
#                 Cambridge Crystallographic Data Centre
#                                CCDC 
#
#######################################################################
#
# If this CIF has been generated from an entry in the Cambridge 
# Structural Database, then it will include bibliographic, chemical, 
# crystal, experimental, refinement or atomic coordinate data resulting 
# from the CCDC's data processing and validation procedures.
#
#######################################################################

data_UREJAD
_chemical_formula_moiety         'C10 H6 N4 O4'
_chemical_name_systematic        3,3'-Dinitro-4,4'-bipyridine
_symmetry_cell_setting           orthorhombic
_symmetry_space_group_name_H-M   'P n a 21'
_symmetry_Int_Tables_number      33
_space_group_name_Hall           'P 2c -2n'
loop_
_symmetry_equiv_pos_site_id
_symmetry_equiv_pos_as_xyz
1 x,y,z
2 -x,-y,1/2+z
3 1/2-x,1/2+y,1/2+z
4 1/2+x,1/2-y,z
_cell_length_a                   9.3580(19)
_cell_length_b                   17.815(4)
_cell_length_c                   6.3870(13)
_cell_angle_alpha                90
_cell_angle_beta                 90
_cell_angle_gamma                90
_cell_volume                     1064.79
_exptl_crystal_colour            yellow
_exptl_crystal_description       block
_cell_formula_units_Z            4
loop_
_atom_site_label
_atom_site_type_symbol
_atom_site_fract_x
_atom_site_fract_y
_atom_site_fract_z
N1 N 0.6207(7) 0.3139(2) 0.2435(8)
C1 C 0.6194(6) 0.1867(3) 0.3674(10)
H1 H 0.5890 0.1532 0.4699
O1 O 0.8746(5) 0.2549(2) -0.2244(9)
N2 N 0.8363(5) -0.0689(2) 0.2211(10)
O2 O 0.8568(5) 0.1406(2) -0.1756(6)
C2 C 0.5853(7) 0.2620(3) 0.3771(10)
H2 H 0.5311 0.2772 0.4916
N3 N 0.8294(4) 0.2037(2) -0.1255(7)
O3 O 0.5400(5) 0.1011(2) -0.1225(8)
C3 C 0.7017(6) 0.2911(3) 0.0879(10)
H3 H 0.7333 0.3269 -0.0075
N4 N 0.6084(5) 0.0441(3) -0.1202(8)
O4 O 0.5987(6) 0.0001(3) -0.2657(8)
C4 C 0.7423(5) 0.2184(2) 0.0572(8)
C5 C 0.7021(5) 0.1625(2) 0.1959(8)
C6 C 0.7473(5) 0.0821(2) 0.1935(8)
C7 C 0.7029(5) 0.0261(3) 0.0504(9)
C8 C 0.7463(6) -0.0465(3) 0.0707(11)
H4 H 0.7121 -0.0819 -0.0238
C9 C 0.8758(6) -0.0164(3) 0.3553(9)
H5 H 0.9354 -0.0310 0.4645
C10 C 0.8368(5) 0.0574(3) 0.3476(8)
H6 H 0.8712 0.0908 0.4475
loop_
_geom_bond_atom_site_label_1
_geom_bond_atom_site_label_2
_geom_bond_site_symmetry_1
_geom_bond_site_symmetry_2
N1 C2 1_555 1_555
C1 H1 1_555 1_555
O1 N3 1_555 1_555
N2 C8 1_555 1_555
O2 N3 1_555 1_555
C2 C1 1_555 1_555
H2 C2 1_555 1_555
N3 C4 1_555 1_555
O3 N4 1_555 1_555
C3 N1 1_555 1_555
H3 C3 1_555 1_555
N4 O4 1_555 1_555
C4 C3 1_555 1_555
C5 C1 1_555 1_555
C6 C5 1_555 1_555
C7 N4 1_555 1_555
C8 C7 1_555 1_555
H4 C8 1_555 1_555
C9 N2 1_555 1_555
H5 C9 1_555 1_555
C10 C6 1_555 1_555
H6 C10 1_555 1_555
C4 C5 1_555 1_555
C6 C7 1_555 1_555
C9 C10 1_555 1_555

#END
