
#######################################################################
#
#                 Cambridge Crystallographic Data Centre
#                                CCDC 
#
#######################################################################
#
# If this CIF has been generated from an entry in the Cambridge 
# Structural Database, then it will include bibliographic, chemical, 
# crystal, experimental, refinement or atomic coordinate data resulting 
# from the CCDC's data processing and validation procedures.
#
#######################################################################

data_URELIN
_chemical_name_common            
"3,3'-Disulfanediylbis(5-phenyl-1H-1,2,4-triazole) dihydrate"
_chemical_formula_moiety         'C16 H12 N6 S2,2(H2 O1)'
_chemical_name_systematic        
'5-phenyl-3-[(5-phenyl-1H-1,2,4-triazol-3-yl)disulfanyl]-1H-1,2,4-triazole dihydrate'
_symmetry_cell_setting           monoclinic
_symmetry_space_group_name_H-M   'C 2/c'
_symmetry_Int_Tables_number      15
_space_group_name_Hall           '-C 2yn'
loop_
_symmetry_equiv_pos_site_id
_symmetry_equiv_pos_as_xyz
1 x,y,z
2 -x,y,1/2-z
3 1/2+x,1/2+y,z
4 1/2-x,1/2+y,1/2-z
5 -x,-y,-z
6 x,-y,1/2+z
7 1/2-x,1/2-y,-z
8 1/2+x,1/2-y,1/2+z
_cell_length_a                   12.3911(13)
_cell_length_b                   14.7125(16)
_cell_length_c                   10.2966(11)
_cell_angle_alpha                90
_cell_angle_beta                 104.125(2)
_cell_angle_gamma                90
_cell_volume                     1820.36
_exptl_crystal_colour            yellow
_exptl_crystal_description       polyhedron
_cell_formula_units_Z            4
loop_
_atom_site_label
_atom_site_type_symbol
_atom_site_fract_x
_atom_site_fract_y
_atom_site_fract_z
S1 S 0.43278(4) 0.48004(3) 0.16853(5)
N1 N 0.26234(13) 0.68205(9) 0.22572(14)
H1 H 0.2373 0.7366 0.2112
N2 N 0.33478(13) 0.64316(9) 0.16425(15)
N3 N 0.28640(12) 0.54543(9) 0.30878(14)
C1 C 0.13764(18) 0.58140(14) 0.4862(2)
H2 H 0.1698 0.5240 0.4897
C2 C 0.0682(2) 0.60203(17) 0.5693(2)
H3 H 0.0543 0.5586 0.6288
C3 C 0.01979(18) 0.68669(16) 0.5640(2)
H4 H -0.0284 0.6999 0.6180
C4 C 0.0428(2) 0.75119(16) 0.4792(2)
H5 H 0.0115 0.8088 0.4773
C5 C 0.11194(17) 0.73153(13) 0.3963(2)
H6 H 0.1270 0.7759 0.3388
C6 C 0.15919(13) 0.64584(11) 0.39834(16)
C7 C 0.23446(14) 0.62407(11) 0.31284(16)
C8 C 0.34687(14) 0.56106(11) 0.21779(17)
S1A S 0.56722(4) 0.48004(3) 0.33147(5)
N1A N 0.73766(13) 0.68205(9) 0.27428(14)
H1A H 0.7627 0.7366 0.2888
N2A N 0.66522(13) 0.64316(9) 0.33575(15)
N3A N 0.71360(12) 0.54543(9) 0.19122(14)
C1A C 0.86236(18) 0.58140(14) 0.0138(2)
H2A H 0.8302 0.5240 0.0103
C2A C 0.9318(2) 0.60203(17) -0.0693(2)
H3A H 0.9457 0.5586 -0.1288
C3A C 0.98021(18) 0.68669(16) -0.0640(2)
H4A H 1.0284 0.6999 -0.1180
C4A C 0.9572(2) 0.75119(16) 0.0208(2)
H5A H 0.9885 0.8088 0.0227
C5A C 0.88806(17) 0.73153(13) 0.1037(2)
H6A H 0.8730 0.7759 0.1612
C6A C 0.84081(13) 0.64584(11) 0.10166(16)
C7A C 0.76554(14) 0.62407(11) 0.18716(16)
C8A C 0.65313(14) 0.56106(11) 0.28221(17)
O1 O 0.27936(14) 0.35247(9) 0.37303(13)
H7 H 0.3018 0.3501 0.4572
H8 H 0.2833 0.4118 0.3533
loop_
_geom_bond_atom_site_label_1
_geom_bond_atom_site_label_2
_geom_bond_site_symmetry_1
_geom_bond_site_symmetry_2
S1 C8 1_555 1_555
N1 H1 1_555 1_555
N2 N1 1_555 1_555
N3 C7 1_555 1_555
C1 H2 1_555 1_555
C2 C1 1_555 1_555
H3 C2 1_555 1_555
C3 C2 1_555 1_555
H4 C3 1_555 1_555
C4 C3 1_555 1_555
H5 C4 1_555 1_555
C5 C4 1_555 1_555
H6 C5 1_555 1_555
C6 C1 1_555 1_555
C7 N1 1_555 1_555
C8 N2 1_555 1_555
O1 H7 1_555 1_555
H8 O1 1_555 1_555
S1A S1 1_555 1_555
N1A H1A 1_555 1_555
N2A N1A 1_555 1_555
N3A C7A 1_555 1_555
C1A H2A 1_555 1_555
C2A C1A 1_555 1_555
H3A C2A 1_555 1_555
C3A C2A 1_555 1_555
H4A C3A 1_555 1_555
C4A C3A 1_555 1_555
H5A C4A 1_555 1_555
C5A C4A 1_555 1_555
H6A C5A 1_555 1_555
C6A C1A 1_555 1_555
C7A N1A 1_555 1_555
C8A S1A 1_555 1_555
N3 C8 1_555 1_555
C5 C6 1_555 1_555
C6 C7 1_555 1_555
N2A C8A 1_555 1_555
N3A C8A 1_555 1_555
C5A C6A 1_555 1_555
C6A C7A 1_555 1_555

#END
