
#######################################################################
#
#                 Cambridge Crystallographic Data Centre
#                                CCDC 
#
#######################################################################
#
# If this CIF has been generated from an entry in the Cambridge 
# Structural Database, then it will include bibliographic, chemical, 
# crystal, experimental, refinement or atomic coordinate data resulting 
# from the CCDC's data processing and validation procedures.
#
#######################################################################

data_UREROZ
_chemical_formula_moiety         'C23 H19 N1 O4 S2'
_chemical_name_systematic        
'(3-(Phenylsulfanyl)-1-(phenylsulfonyl)-1H-indol-2-yl)methyl acetate'
_symmetry_cell_setting           monoclinic
_symmetry_space_group_name_H-M   'P 21/c'
_symmetry_Int_Tables_number      14
_space_group_name_Hall           '-P 2ybc'
loop_
_symmetry_equiv_pos_site_id
_symmetry_equiv_pos_as_xyz
1 x,y,z
2 -x,1/2+y,1/2-z
3 -x,-y,-z
4 x,1/2-y,1/2+z
_cell_length_a                   14.6530(6)
_cell_length_b                   9.4482(4)
_cell_length_c                   15.2461(7)
_cell_angle_alpha                90
_cell_angle_beta                 97.055(3)
_cell_angle_gamma                90
_cell_volume                     2094.76
_exptl_crystal_colour            white
_exptl_crystal_description       block
_cell_formula_units_Z            4
loop_
_atom_site_label
_atom_site_type_symbol
_atom_site_fract_x
_atom_site_fract_y
_atom_site_fract_z
C1 C 0.16888(11) 0.62556(16) 0.35882(10)
C2 C 0.09311(12) 0.55131(18) 0.38072(11)
H1 H 0.0349 0.5645 0.3500
C3 C 0.10805(13) 0.45722(19) 0.44998(12)
H2 H 0.0586 0.4057 0.4660
C4 C 0.19466(14) 0.43671(19) 0.49671(12)
H3 H 0.2019 0.3728 0.5434
C5 C 0.26938(13) 0.50947(18) 0.47475(11)
H4 H 0.3273 0.4959 0.5061
C6 C 0.25666(11) 0.60461(16) 0.40419(10)
C7 C 0.31844(11) 0.69850(17) 0.36612(11)
C8 C 0.27026(11) 0.77336(17) 0.30037(11)
C9 C 0.30417(12) 0.89164(18) 0.24908(12)
H5 H 0.3708 0.8898 0.2536
H6 H 0.2795 0.8842 0.1872
C10 C 0.28751(13) 1.14037(19) 0.24295(13)
C11 C 0.2490(2) 1.2651(2) 0.28528(19)
H7 H 0.2619 1.3495 0.2540
H8 H 0.2765 1.2722 0.3456
H9 H 0.1837 1.2541 0.2836
C12 C 0.07661(13) 0.49985(18) 0.14300(12)
H10 H 0.0490 0.4775 0.1930
C13 C 0.08604(15) 0.3989(2) 0.08013(13)
H11 H 0.0656 0.3071 0.0880
C14 C 0.12545(14) 0.4326(2) 0.00578(13)
H12 H 0.1311 0.3637 -0.0368
C15 C 0.15663(14) 0.5672(2) -0.00607(12)
H13 H 0.1831 0.5894 -0.0567
C16 C 0.14880(12) 0.66998(19) 0.05698(11)
H14 H 0.1703 0.7612 0.0495
C17 C 0.10864(10) 0.63531(16) 0.13106(10)
C18 C 0.43670(12) 0.7939(2) 0.50554(13)
C19 C 0.39555(14) 0.9229(3) 0.51322(15)
H15 H 0.3656 0.9675 0.4634
C20 C 0.39877(17) 0.9870(3) 0.59577(18)
H16 H 0.3692 1.0730 0.6018
C21 C 0.4459(2) 0.9222(4) 0.66824(17)
H17 H 0.4489 0.9654 0.7233
C22 C 0.48819(18) 0.7960(4) 0.66036(17)
H18 H 0.5203 0.7537 0.7099
C23 C 0.48383(15) 0.7297(3) 0.57906(15)
H19 H 0.5123 0.6426 0.5739
N1 N 0.17660(9) 0.73225(14) 0.29437(9)
O1 O 0.01013(8) 0.74327(13) 0.24414(9)
O2 O 0.11545(9) 0.90024(12) 0.17575(8)
O3 O 0.27314(8) 1.02147(12) 0.28681(8)
O4 O 0.32709(11) 1.14258(15) 0.17888(9)
S1 S 0.09482(3) 0.76585(4) 0.21008(3)
S2 S 0.43695(3) 0.71174(6) 0.40011(3)
loop_
_geom_bond_atom_site_label_1
_geom_bond_atom_site_label_2
_geom_bond_site_symmetry_1
_geom_bond_site_symmetry_2
C1 C2 1_555 1_555
C2 H1 1_555 1_555
C3 C2 1_555 1_555
H2 C3 1_555 1_555
C4 C3 1_555 1_555
H3 C4 1_555 1_555
C5 C4 1_555 1_555
H4 C5 1_555 1_555
C6 C1 1_555 1_555
C7 C6 1_555 1_555
C8 C7 1_555 1_555
C9 C8 1_555 1_555
H5 C9 1_555 1_555
H6 C9 1_555 1_555
C10 C11 1_555 1_555
C11 H7 1_555 1_555
H8 C11 1_555 1_555
H9 C11 1_555 1_555
C12 H10 1_555 1_555
C13 C12 1_555 1_555
H11 C13 1_555 1_555
C14 C13 1_555 1_555
H12 C14 1_555 1_555
C15 C14 1_555 1_555
H13 C15 1_555 1_555
C16 C15 1_555 1_555
H14 C16 1_555 1_555
C17 C12 1_555 1_555
C18 C19 1_555 1_555
C19 H15 1_555 1_555
C20 C19 1_555 1_555
H16 C20 1_555 1_555
C21 C20 1_555 1_555
H17 C21 1_555 1_555
C22 C21 1_555 1_555
H18 C22 1_555 1_555
C23 C18 1_555 1_555
H19 C23 1_555 1_555
N1 C1 1_555 1_555
O1 S1 1_555 1_555
O2 S1 1_555 1_555
O3 C9 1_555 1_555
O4 C10 1_555 1_555
S1 C17 1_555 1_555
S2 C7 1_555 1_555
C5 C6 1_555 1_555
C8 N1 1_555 1_555
C10 O3 1_555 1_555
C16 C17 1_555 1_555
C18 S2 1_555 1_555
C22 C23 1_555 1_555
N1 S1 1_555 1_555

#END
