
#######################################################################
#
#                 Cambridge Crystallographic Data Centre
#                                CCDC 
#
#######################################################################
#
# If this CIF has been generated from an entry in the Cambridge 
# Structural Database, then it will include bibliographic, chemical, 
# crystal, experimental, refinement or atomic coordinate data resulting 
# from the CCDC's data processing and validation procedures.
#
#######################################################################

data_URESAM
_chemical_formula_moiety         'C17 H12 S1'
_chemical_name_systematic        5-Methylphenanthro[2,3-b]thiophene
_symmetry_cell_setting           monoclinic
_symmetry_space_group_name_H-M   'P 21/n'
_symmetry_Int_Tables_number      14
_space_group_name_Hall           '-P 2yn'
loop_
_symmetry_equiv_pos_site_id
_symmetry_equiv_pos_as_xyz
1 x,y,z
2 1/2-x,1/2+y,1/2-z
3 -x,-y,-z
4 1/2+x,1/2-y,1/2+z
_cell_length_a                   18.7011(10)
_cell_length_b                   5.8199(3)
_cell_length_c                   23.4546(14)
_cell_angle_alpha                90
_cell_angle_beta                 105.158(2)
_cell_angle_gamma                90
_cell_volume                     2463.95
_exptl_crystal_colour            colorless
_exptl_crystal_description       block
_cell_formula_units_Z            8
loop_
_atom_site_label
_atom_site_type_symbol
_atom_site_fract_x
_atom_site_fract_y
_atom_site_fract_z
C1 C 0.33522(15) 0.2874(5) 0.07093(11)
H1 H 0.3227 0.3551 0.0337
C4 C 0.31625(12) 0.3776(4) 0.11600(10)
H4 H 0.2897 0.5136 0.1144
C6 C 0.34245(11) 0.2359(3) 0.16957(9)
C8 C 0.38181(11) 0.0412(3) 0.15862(9)
C10 C 0.41350(11) -0.1131(4) 0.20223(10)
H6 H 0.4394 -0.2397 0.1939
C11 C 0.40615(10) -0.0763(3) 0.25924(9)
C14 C 0.36605(10) 0.1153(3) 0.27204(8)
C15 C 0.33449(11) 0.2692(3) 0.22664(9)
H7 H 0.3079 0.3951 0.2345
C17 C 0.35973(10) 0.1459(3) 0.33238(9)
C19 C 0.31838(11) 0.3236(4) 0.34787(10)
H9 H 0.2927 0.4236 0.3187
C21 C 0.31458(12) 0.3548(5) 0.40558(11)
H11 H 0.2870 0.4754 0.4149
C23 C 0.35180(13) 0.2064(5) 0.44909(10)
H13 H 0.3492 0.2269 0.4878
C25 C 0.39265(13) 0.0289(4) 0.43557(10)
H15 H 0.4176 -0.0697 0.4653
C27 C 0.39736(10) -0.0063(3) 0.37744(9)
C29 C 0.44026(11) -0.1964(4) 0.36283(10)
C32 C 0.44238(12) -0.2279(4) 0.30675(10)
H18 H 0.4684 -0.3534 0.2980
C33 C 0.48297(13) -0.3532(4) 0.41088(11)
H19 H 0.5035 -0.4779 0.3935
H20 H 0.4503 -0.4131 0.4328
H21 H 0.5223 -0.2686 0.4369
S2 S 0.38490(4) 0.03471(13) 0.08505(3)
C2 C 0.55737(13) 0.7887(4) 0.06335(10)
H2 H 0.5490 0.8546 0.0261
C3 C 0.60214(13) 0.8818(4) 0.11144(10)
H3 H 0.6274 1.0193 0.1114
C5 C 0.60700(11) 0.7451(3) 0.16387(9)
C7 C 0.56138(11) 0.5470(3) 0.15084(9)
C9 C 0.55612(11) 0.3950(3) 0.19459(10)
H5 H 0.5255 0.2669 0.1856
C12 C 0.59727(11) 0.4349(3) 0.25262(9)
C13 C 0.64532(10) 0.6288(3) 0.26671(9)
C16 C 0.64871(11) 0.7820(3) 0.22128(9)
H8 H 0.6794 0.9101 0.2298
C18 C 0.68848(11) 0.6597(3) 0.32765(8)
C20 C 0.74001(12) 0.8395(4) 0.34412(9)
H10 H 0.7475 0.9395 0.3153
C22 C 0.77956(13) 0.8707(4) 0.40190(10)
H12 H 0.8128 0.9921 0.4119
C24 C 0.76975(13) 0.7205(4) 0.44519(10)
H14 H 0.7965 0.7414 0.4843
C26 C 0.72101(13) 0.5424(4) 0.43057(10)
H16 H 0.7153 0.4424 0.4600
C28 C 0.67910(12) 0.5061(3) 0.37200(9)
C30 C 0.62704(12) 0.3163(4) 0.35639(10)
C31 C 0.59013(12) 0.2845(4) 0.29960(10)
H17 H 0.5584 0.1591 0.2901
C34 C 0.61402(14) 0.1585(4) 0.40359(12)
H22 H 0.5801 0.0392 0.3856
H23 H 0.5935 0.2445 0.4304
H24 H 0.6602 0.0911 0.4248
S1 S 0.51607(4) 0.53496(12) 0.07611(3)
loop_
_geom_bond_atom_site_label_1
_geom_bond_atom_site_label_2
_geom_bond_site_symmetry_1
_geom_bond_site_symmetry_2
C1 H1 1_555 1_555
C2 H2 1_555 1_555
C3 C2 1_555 1_555
H3 C3 1_555 1_555
C4 C1 1_555 1_555
H4 C4 1_555 1_555
C5 C3 1_555 1_555
C6 C4 1_555 1_555
C7 C5 1_555 1_555
C8 C6 1_555 1_555
C9 C7 1_555 1_555
H5 C9 1_555 1_555
C10 C8 1_555 1_555
H6 C10 1_555 1_555
C11 C10 1_555 1_555
C12 C9 1_555 1_555
C13 C12 1_555 1_555
C14 C11 1_555 1_555
C15 C6 1_555 1_555
H7 C15 1_555 1_555
C16 C5 1_555 1_555
H8 C16 1_555 1_555
C17 C14 1_555 1_555
C18 C13 1_555 1_555
C19 C17 1_555 1_555
H9 C19 1_555 1_555
C20 C18 1_555 1_555
H10 C20 1_555 1_555
C21 C19 1_555 1_555
H11 C21 1_555 1_555
C22 C20 1_555 1_555
H12 C22 1_555 1_555
C23 C21 1_555 1_555
H13 C23 1_555 1_555
C24 C22 1_555 1_555
H14 C24 1_555 1_555
C25 C23 1_555 1_555
H15 C25 1_555 1_555
C26 C24 1_555 1_555
H16 C26 1_555 1_555
C27 C17 1_555 1_555
C28 C18 1_555 1_555
C29 C27 1_555 1_555
C30 C28 1_555 1_555
C31 C12 1_555 1_555
H17 C31 1_555 1_555
C32 C11 1_555 1_555
H18 C32 1_555 1_555
C33 C29 1_555 1_555
H19 C33 1_555 1_555
H20 C33 1_555 1_555
H21 C33 1_555 1_555
C34 C30 1_555 1_555
H22 C34 1_555 1_555
H23 C34 1_555 1_555
H24 C34 1_555 1_555
S1 C2 1_555 1_555
S2 C1 1_555 1_555
C7 S1 1_555 1_555
C8 S2 1_555 1_555
C13 C16 1_555 1_555
C14 C15 1_555 1_555
C25 C27 1_555 1_555
C26 C28 1_555 1_555
C29 C32 1_555 1_555
C30 C31 1_555 1_555

#END
