
#######################################################################
#
#                 Cambridge Crystallographic Data Centre
#                                CCDC 
#
#######################################################################
#
# If this CIF has been generated from an entry in the Cambridge 
# Structural Database, then it will include bibliographic, chemical, 
# crystal, experimental, refinement or atomic coordinate data resulting 
# from the CCDC's data processing and validation procedures.
#
#######################################################################

data_URESEQ
_chemical_name_common            
'2-Isopropyl-5-methylcyclohexyl N-t-butyl-P-phenylphosphonamidate'
_chemical_formula_moiety         'C20 H34 N1 O2 P1'
_chemical_name_systematic        
'N-t-Butyl O-2-isopropyl-5-methylcyclohexylphenylphosphonamidate'
_symmetry_cell_setting           orthorhombic
_symmetry_space_group_name_H-M   'P 21 21 21'
_symmetry_Int_Tables_number      19
_space_group_name_Hall           'P 2ac 2ab'
loop_
_symmetry_equiv_pos_site_id
_symmetry_equiv_pos_as_xyz
1 x,y,z
2 1/2-x,-y,1/2+z
3 -x,1/2+y,1/2-z
4 1/2+x,1/2-y,-z
_cell_length_a                   8.305(3)
_cell_length_b                   11.064(4)
_cell_length_c                   22.557(9)
_cell_angle_alpha                90
_cell_angle_beta                 90
_cell_angle_gamma                90
_cell_volume                     2072.68
_exptl_crystal_colour            colorless
_exptl_crystal_description       block
_cell_formula_units_Z            4
_exptl_crystal_recrystallization_method dichloromethane/hexane
loop_
_atom_site_label
_atom_site_type_symbol
_atom_site_fract_x
_atom_site_fract_y
_atom_site_fract_z
P1 P 0.54415(14) 0.34918(10) 0.23972(5)
O1 O 0.6726(3) 0.2945(3) 0.19552(12)
O2 O 0.5009(3) 0.4756(2) 0.23040(13)
N1 N 0.3903(4) 0.2570(3) 0.23664(16)
H1 H 0.4139 0.1816 0.2332
C1 C 0.7421(5) 0.3383(5) 0.09282(17)
H2 H 0.8542 0.3192 0.1027
C2 C 0.6512(5) 0.3284(4) 0.30808(17)
C3 C 0.7238(7) 0.4734(5) 0.1000(2)
H3 H 0.7301 0.4912 0.1425
C4 C 0.6383(5) 0.2641(4) 0.13399(18)
H4 H 0.5247 0.2806 0.1256
C5 C 0.6923(6) 0.4277(4) 0.3410(2)
H5 H 0.6632 0.5044 0.3281
C6 C 0.6699(6) 0.1301(4) 0.1270(2)
H6 H 0.7795 0.1132 0.1394
H7 H 0.5983 0.0861 0.1533
C7 C 0.2175(5) 0.2851(4) 0.2390(2)
C8 C 0.6471(7) 0.0842(5) 0.0651(2)
H8 H 0.5336 0.0970 0.0551
C9 C 0.7434(7) 0.1585(6) 0.0229(2)
H9 H 0.7165 0.1348 -0.0173
H10 H 0.8568 0.1418 0.0291
C10 C 0.6942(6) 0.2165(4) 0.3286(2)
H11 H 0.6688 0.1482 0.3065
C11 C 0.7741(6) 0.2041(5) 0.3811(2)
H12 H 0.7992 0.1275 0.3952
C12 C 0.8169(6) 0.3034(6) 0.4129(2)
H13 H 0.8739 0.2941 0.4481
C13 C 0.7145(6) 0.2930(5) 0.0299(2)
H14 H 0.6046 0.3111 0.0183
H15 H 0.7856 0.3362 0.0032
C14 C 0.1234(6) 0.1719(5) 0.2447(3)
H16 H 0.1550 0.1304 0.2802
H17 H 0.1435 0.1211 0.2110
H18 H 0.0107 0.1908 0.2467
C15 C 0.6792(8) -0.0509(5) 0.0587(2)
H19 H 0.6648 -0.0744 0.0181
H20 H 0.6054 -0.0951 0.0833
H21 H 0.7876 -0.0683 0.0708
C16 C 0.5637(7) 0.5245(5) 0.0774(2)
H22 H 0.5523 0.5065 0.0360
H23 H 0.5621 0.6105 0.0830
H24 H 0.4764 0.4885 0.0990
C17 C 0.7781(7) 0.4143(5) 0.3941(2)
H25 H 0.8077 0.4819 0.4160
C18 C 0.8611(8) 0.5424(6) 0.0696(3)
H26 H 0.9626 0.5089 0.0817
H27 H 0.8566 0.6261 0.0807
H28 H 0.8502 0.5354 0.0274
C19 C 0.1788(8) 0.3622(6) 0.2900(3)
H29 H 0.0641 0.3665 0.2948
H30 H 0.2210 0.4419 0.2835
H31 H 0.2260 0.3286 0.3252
C20 C 0.1671(8) 0.3533(7) 0.1851(3)
H32 H 0.0565 0.3770 0.1890
H33 H 0.1793 0.3028 0.1508
H34 H 0.2332 0.4240 0.1809
loop_
_geom_bond_atom_site_label_1
_geom_bond_atom_site_label_2
_geom_bond_site_symmetry_1
_geom_bond_site_symmetry_2
P1 O1 1_555 1_555
O1 C4 1_555 1_555
O2 P1 1_555 1_555
N1 P1 1_555 1_555
H1 N1 1_555 1_555
C1 H2 1_555 1_555
C2 P1 1_555 1_555
C3 C1 1_555 1_555
H3 C3 1_555 1_555
C4 C1 1_555 1_555
H4 C4 1_555 1_555
C5 C2 1_555 1_555
H5 C5 1_555 1_555
C6 C4 1_555 1_555
H6 C6 1_555 1_555
H7 C6 1_555 1_555
C7 N1 1_555 1_555
C8 C6 1_555 1_555
H8 C8 1_555 1_555
C9 C8 1_555 1_555
H9 C9 1_555 1_555
H10 C9 1_555 1_555
C10 C2 1_555 1_555
H11 C10 1_555 1_555
C11 C10 1_555 1_555
H12 C11 1_555 1_555
C12 C11 1_555 1_555
H13 C12 1_555 1_555
C13 C1 1_555 1_555
H14 C13 1_555 1_555
H15 C13 1_555 1_555
C14 C7 1_555 1_555
H16 C14 1_555 1_555
H17 C14 1_555 1_555
H18 C14 1_555 1_555
C15 C8 1_555 1_555
H19 C15 1_555 1_555
H20 C15 1_555 1_555
H21 C15 1_555 1_555
C16 C3 1_555 1_555
H22 C16 1_555 1_555
H23 C16 1_555 1_555
H24 C16 1_555 1_555
C17 C5 1_555 1_555
H25 C17 1_555 1_555
C18 C3 1_555 1_555
H26 C18 1_555 1_555
H27 C18 1_555 1_555
H28 C18 1_555 1_555
C19 C7 1_555 1_555
H29 C19 1_555 1_555
H30 C19 1_555 1_555
H31 C19 1_555 1_555
C20 C7 1_555 1_555
H32 C20 1_555 1_555
H33 C20 1_555 1_555
H34 C20 1_555 1_555
C9 C13 1_555 1_555
C12 C17 1_555 1_555

#END
