
#######################################################################
#
#                 Cambridge Crystallographic Data Centre
#                                CCDC 
#
#######################################################################
#
# If this CIF has been generated from an entry in the Cambridge 
# Structural Database, then it will include bibliographic, chemical, 
# crystal, experimental, refinement or atomic coordinate data resulting 
# from the CCDC's data processing and validation procedures.
#
#######################################################################

data_URESER
_chemical_formula_moiety         'C52 H28 N10,2(C1 H2 Cl2)'
_chemical_name_systematic        
'3,4-bis(dicyanomethylene)-2,5-bis(4-(diphenylamino)phenyl)hexa-1,5-diene-1,1,6,6-tetracarbonitrile dichloromethane solvate'
_symmetry_cell_setting           triclinic
_symmetry_space_group_name_H-M   'P -1'
_symmetry_Int_Tables_number      2
_space_group_name_Hall           '-P 1'
loop_
_symmetry_equiv_pos_site_id
_symmetry_equiv_pos_as_xyz
1 x,y,z
2 -x,-y,-z
_cell_length_a                   8.480(3)
_cell_length_b                   15.471(4)
_cell_length_c                   18.112(5)
_cell_angle_alpha                91.016(7)
_cell_angle_beta                 94.203(8)
_cell_angle_gamma                93.318(8)
_cell_volume                     2365.25
_exptl_crystal_colour            colorless
_exptl_crystal_description       plate
_cell_formula_units_Z            2
loop_
_atom_site_label
_atom_site_type_symbol
_atom_site_fract_x
_atom_site_fract_y
_atom_site_fract_z
Cl1 Cl 0.5651(3) 0.17470(13) 0.13911(13)
Cl2 Cl 0.7478(3) 0.11478(13) 0.26725(12)
C1 C 0.6555(11) 0.2022(5) 0.2276(5)
H1 H 0.563(9) 0.222(4) 0.264(4)
H2 H 0.725(7) 0.238(4) 0.219(3)
Cl4 Cl 0.8908(9) 0.3293(3) 0.8795(3)
Cl5 Cl 0.8456(6) 0.4172(3) 0.7434(3)
C2 C 0.8043(12) 0.3218(5) 0.7936(4)
H3 H 0.6778 0.3113 0.7960
H4 H 0.8464 0.2668 0.7650
N1 N 0.5155(6) 0.0935(3) 0.8146(3)
N2 N 0.3298(7) 0.3918(3) 0.1985(3)
N3 N 0.7483(8) 0.4366(4) 0.5420(3)
N4 N 0.4479(7) 0.3262(3) 0.6990(4)
N5 N 0.1492(7) 0.4918(4) 0.6249(3)
N6 N -0.1168(8) 0.2411(4) 0.6305(3)
N7 N -0.1897(8) 0.2583(4) 0.4317(3)
N8 N 0.0472(7) 0.0159(4) 0.4073(3)
N9 N 0.3233(7) 0.1736(3) 0.3201(3)
N10 N 0.6706(8) 0.0541(3) 0.4592(3)
C3 C 0.3363(8) 0.3868(4) 0.2739(4)
C4 C 0.4838(8) 0.3851(4) 0.3166(4)
H7 H 0.5903 0.3920 0.2895
C5 C 0.4920(8) 0.3749(4) 0.3908(4)
H8 H 0.6040 0.3745 0.4208
C6 C 0.3522(8) 0.3646(4) 0.4286(4)
C7 C 0.2067(8) 0.3692(4) 0.3870(4)
H9 H 0.1004 0.3643 0.4144
C8 C 0.1987(8) 0.3798(4) 0.3119(4)
H10 H 0.0867 0.3826 0.2823
C9 C 0.3531(8) 0.3480(4) 0.5061(4)
C10 C 0.2048(8) 0.2979(4) 0.5300(3)
C11 C 0.1890(7) 0.2071(4) 0.5009(3)
C12 C 0.3356(7) 0.1584(4) 0.5146(3)
C13 C 0.3816(8) 0.1415(3) 0.5910(3)
C14 C 0.2695(8) 0.1300(3) 0.6438(4)
H11 H 0.1479 0.1340 0.6266
C15 C 0.3109(8) 0.1138(4) 0.7169(3)
H12 H 0.2223 0.1053 0.7550
C16 C 0.4721(8) 0.1086(4) 0.7409(4)
C17 C 0.5859(8) 0.1211(3) 0.6900(3)
H13 H 0.7074 0.1186 0.7078
C18 C 0.5437(8) 0.1366(4) 0.6182(4)
H14 H 0.6336 0.1453 0.5808
C19 C 0.4215(8) 0.1240(4) 0.8721(4)
C20 C 0.3742(8) 0.2073(4) 0.8719(4)
H15 H 0.3976 0.2486 0.8274
C21 C 0.2954(9) 0.2365(4) 0.9310(4)
H16 H 0.2532 0.2997 0.9305
C22 C 0.2712(8) 0.1839(4) 0.9907(4)
H17 H 0.2134 0.2073 1.0363
C23 C 0.3231(9) 0.0999(4) 0.9906(4)
H18 H 0.3067 0.0594 1.0364
C24 C 0.3953(8) 0.0705(4) 0.9308(4)
H19 H 0.4316 0.0061 0.9294
C25 C 0.6662(8) 0.0640(4) 0.8356(4)
C26 C 0.7226(9) -0.0057(4) 0.7987(4)
H20 H 0.6497 -0.0390 0.7560
C27 C 0.8710(9) -0.0319(4) 0.8167(4)
H21 H 0.9128 -0.0846 0.7871
C28 C 0.9686(9) 0.0094(5) 0.8735(4)
H22 H 1.0849 -0.0103 0.8864
C29 C 0.9106(9) 0.0765(4) 0.9127(4)
H23 H 0.9808 0.1063 0.9580
C30 C 0.7637(9) 0.1050(4) 0.8938(4)
H24 H 0.7229 0.1581 0.9232
C31 C 0.4554(8) 0.4315(4) 0.1603(4)
C32 C 0.4974(8) 0.3959(4) 0.0939(4)
H25 H 0.4389 0.3377 0.0718
C33 C 0.6164(9) 0.4374(4) 0.0572(4)
H26 H 0.6459 0.4122 0.0055
C34 C 0.6974(9) 0.5115(4) 0.0872(4)
H27 H 0.7910 0.5416 0.0594
C35 C 0.6569(9) 0.5458(4) 0.1524(4)
H28 H 0.7186 0.6030 0.1747
C36 C 0.5373(9) 0.5074(4) 0.1899(4)
H29 H 0.5070 0.5347 0.2407
C37 C 0.1898(8) 0.3593(4) 0.1537(4)
C38 C 0.1283(8) 0.4072(4) 0.0984(4)
H30 H 0.1801 0.4696 0.0890
C39 C -0.0035(9) 0.3748(5) 0.0537(4)
H31 H -0.0511 0.4117 0.0096
C40 C -0.0716(9) 0.2935(5) 0.0677(4)
H32 H -0.1729 0.2688 0.0345
C41 C -0.0096(8) 0.2452(4) 0.1236(4)
H33 H -0.0631 0.1833 0.1337
C42 C 0.1241(8) 0.2766(4) 0.1678(4)
H34 H 0.1743 0.2390 0.2109
C43 C 0.4728(8) 0.3644(4) 0.5624(4)
C44 C 0.6260(9) 0.4063(4) 0.5494(3)
C45 C 0.4570(8) 0.3426(4) 0.6383(4)
C46 C 0.1100(8) 0.3327(4) 0.5749(3)
C47 C 0.1317(8) 0.4228(4) 0.6027(4)
C48 C -0.0218(8) 0.2825(4) 0.6055(4)
C49 C 0.0553(7) 0.1725(4) 0.4632(3)
C50 C -0.0806(9) 0.2198(4) 0.4461(4)
C51 C 0.0513(8) 0.0836(4) 0.4339(4)
C52 C 0.4165(7) 0.1362(4) 0.4544(3)
C53 C 0.3632(8) 0.1583(4) 0.3801(4)
C54 C 0.5558(9) 0.0904(4) 0.4588(3)
Cl3? Cl 0.938(2) 0.4020(9) 0.7667(8)
Cl6? Cl 0.7336(10) 0.3377(3) 0.8750(3)
H5? H 0.7060 0.3152 0.7521
H6? H 0.8614 0.2612 0.7946
loop_
_geom_bond_atom_site_label_1
_geom_bond_atom_site_label_2
_geom_bond_site_symmetry_1
_geom_bond_site_symmetry_2
Cl1 C1 1_555 1_555
Cl2 C1 1_555 1_555
C1 H1 1_555 1_555
H2 C1 1_555 1_555
Cl4 C2 1_555 1_555
Cl5 C2 1_555 1_555
C2 H3 1_555 1_555
H4 C2 1_555 1_555
N1 C16 1_555 1_555
N2 C3 1_555 1_555
N3 C44 1_555 1_555
N4 C45 1_555 1_555
N5 C47 1_555 1_555
N6 C48 1_555 1_555
N7 C50 1_555 1_555
N8 C51 1_555 1_555
N9 C53 1_555 1_555
N10 C54 1_555 1_555
C3 C4 1_555 1_555
C4 H7 1_555 1_555
C5 C4 1_555 1_555
H8 C5 1_555 1_555
C6 C5 1_555 1_555
C7 C6 1_555 1_555
H9 C7 1_555 1_555
C8 C3 1_555 1_555
H10 C8 1_555 1_555
C9 C6 1_555 1_555
C10 C9 1_555 1_555
C11 C10 1_555 1_555
C12 C11 1_555 1_555
C13 C12 1_555 1_555
C14 C13 1_555 1_555
H11 C14 1_555 1_555
C15 C14 1_555 1_555
H12 C15 1_555 1_555
C16 C15 1_555 1_555
C17 C16 1_555 1_555
H13 C17 1_555 1_555
C18 C13 1_555 1_555
H14 C18 1_555 1_555
C19 N1 1_555 1_555
C20 C19 1_555 1_555
H15 C20 1_555 1_555
C21 C20 1_555 1_555
H16 C21 1_555 1_555
C22 C21 1_555 1_555
H17 C22 1_555 1_555
C23 C22 1_555 1_555
H18 C23 1_555 1_555
C24 C19 1_555 1_555
H19 C24 1_555 1_555
C25 N1 1_555 1_555
C26 C25 1_555 1_555
H20 C26 1_555 1_555
C27 C26 1_555 1_555
H21 C27 1_555 1_555
C28 C27 1_555 1_555
H22 C28 1_555 1_555
C29 C28 1_555 1_555
H23 C29 1_555 1_555
C30 C25 1_555 1_555
H24 C30 1_555 1_555
C31 N2 1_555 1_555
C32 C31 1_555 1_555
H25 C32 1_555 1_555
C33 C32 1_555 1_555
H26 C33 1_555 1_555
C34 C33 1_555 1_555
H27 C34 1_555 1_555
C35 C34 1_555 1_555
H28 C35 1_555 1_555
C36 C31 1_555 1_555
H29 C36 1_555 1_555
C37 N2 1_555 1_555
C38 C37 1_555 1_555
H30 C38 1_555 1_555
C39 C38 1_555 1_555
H31 C39 1_555 1_555
C40 C39 1_555 1_555
H32 C40 1_555 1_555
C41 C40 1_555 1_555
H33 C41 1_555 1_555
C42 C37 1_555 1_555
H34 C42 1_555 1_555
C43 C9 1_555 1_555
C44 C43 1_555 1_555
C45 C43 1_555 1_555
C46 C10 1_555 1_555
C47 C46 1_555 1_555
C48 C46 1_555 1_555
C49 C11 1_555 1_555
C50 C49 1_555 1_555
C51 C49 1_555 1_555
C52 C12 1_555 1_555
C53 C52 1_555 1_555
C54 C52 1_555 1_555
C7 C8 1_555 1_555
C17 C18 1_555 1_555
C23 C24 1_555 1_555
C29 C30 1_555 1_555
C35 C36 1_555 1_555
C41 C42 1_555 1_555

#END
