
#######################################################################
#
#                 Cambridge Crystallographic Data Centre
#                                CCDC 
#
#######################################################################
#
# If this CIF has been generated from an entry in the Cambridge 
# Structural Database, then it will include bibliographic, chemical, 
# crystal, experimental, refinement or atomic coordinate data resulting 
# from the CCDC's data processing and validation procedures.
#
#######################################################################

data_URETOB
_chemical_name_common            
"3,3'-(1,4-Phenylene)bis(5-methyl-1H-1,2,4-triazole) tetrahydrate"
_chemical_formula_moiety         'C12 H12 N6,4(H2 O1)'
_chemical_name_systematic        
'5-methyl-3-[4-(5-methyl-1H-1,2,4-triazol-3-yl)phenyl]-1H-1,2,4-triazole tetrahydrate'
_symmetry_cell_setting           monoclinic
_symmetry_space_group_name_H-M   'C 2/c'
_symmetry_Int_Tables_number      15
_space_group_name_Hall           '-C 2yn'
loop_
_symmetry_equiv_pos_site_id
_symmetry_equiv_pos_as_xyz
1 x,y,z
2 -x,y,1/2-z
3 1/2+x,1/2+y,z
4 1/2-x,1/2+y,1/2-z
5 -x,-y,-z
6 x,-y,1/2+z
7 1/2-x,1/2-y,-z
8 1/2+x,1/2-y,1/2+z
_cell_length_a                   12.7343(19)
_cell_length_b                   13.937(2)
_cell_length_c                   9.0648(14)
_cell_angle_alpha                90
_cell_angle_beta                 100.893(3)
_cell_angle_gamma                90
_cell_volume                     1579.81
_exptl_crystal_colour            yellow
_exptl_crystal_description       plate
_cell_formula_units_Z            4
loop_
_atom_site_label
_atom_site_type_symbol
_atom_site_fract_x
_atom_site_fract_y
_atom_site_fract_z
N1 N 0.66106(13) 0.34969(11) -0.19565(17)
H1 H 0.6874 0.3847 -0.2578
N2 N 0.62354(14) 0.38395(11) -0.07499(17)
N3 N 0.60877(12) 0.22386(10) -0.09140(16)
C1 C 0.68428(18) 0.19667(15) -0.3248(2)
H2 H 0.7292 0.1449 -0.2805
H3 H 0.7230 0.2361 -0.3830
H4 H 0.6218 0.1711 -0.3887
C2 C 0.65166(14) 0.25529(13) -0.20444(18)
C3 C 0.59264(14) 0.30486(12) -0.01538(19)
C4 C 0.54472(14) 0.30544(12) 0.12072(19)
C5 C 0.52248(17) 0.22014(13) 0.1863(2)
H5 H 0.5379 0.1622 0.1443
C6 C 0.52170(16) 0.39108(13) 0.1860(2)
H6 H 0.5358 0.4491 0.1429
N1A N 0.33894(13) 0.34969(11) 0.69565(17)
H1A H 0.3126 0.3847 0.7578
N2A N 0.37646(14) 0.38395(11) 0.57499(17)
N3A N 0.39123(12) 0.22386(10) 0.59140(16)
C1A C 0.31572(18) 0.19667(15) 0.8248(2)
H2A H 0.2708 0.1449 0.7805
H3A H 0.2770 0.2361 0.8830
H4A H 0.3782 0.1711 0.8887
C2A C 0.34834(14) 0.25529(13) 0.70444(18)
C3A C 0.40736(14) 0.30486(12) 0.51538(19)
C4A C 0.45528(14) 0.30544(12) 0.37928(19)
C5A C 0.47752(17) 0.22014(13) 0.3137(2)
H5A H 0.4621 0.1622 0.3557
C6A C 0.47830(16) 0.39108(13) 0.3140(2)
H6A H 0.4642 0.4491 0.3571
O1 O 0.73472(14) 0.45314(11) -0.41166(19)
H7 H 0.6969 0.4969 -0.4609
H8 H 0.8001 0.4691 -0.4017
O2 O 0.44076(12) -0.02791(9) 0.10493(16)
H9 H 0.4240 -0.0868 0.0928
H10 H 0.4790 -0.0006 0.0500
H11? H 0.4784 -0.0277 0.1930
loop_
_geom_bond_atom_site_label_1
_geom_bond_atom_site_label_2
_geom_bond_site_symmetry_1
_geom_bond_site_symmetry_2
N1 H1 1_555 1_555
N2 N1 1_555 1_555
N3 C2 1_555 1_555
C1 H2 1_555 1_555
H3 C1 1_555 1_555
H4 C1 1_555 1_555
C2 N1 1_555 1_555
C3 N2 1_555 1_555
C4 C3 1_555 1_555
C5 C4 1_555 1_555
H5 C5 1_555 1_555
C6 C4 1_555 1_555
H6 C6 1_555 1_555
O1 H7 1_555 1_555
H8 O1 1_555 1_555
O2 H9 1_555 1_555
H10 O2 1_555 1_555
N1A H1A 1_555 1_555
N2A N1A 1_555 1_555
N3A C2A 1_555 1_555
C1A H2A 1_555 1_555
H3A C1A 1_555 1_555
H4A C1A 1_555 1_555
C2A N1A 1_555 1_555
C3A N2A 1_555 1_555
C4A C3A 1_555 1_555
C5A C5 1_555 1_555
H5A C5A 1_555 1_555
C6A C6 1_555 1_555
H6A C6A 1_555 1_555
N3 C3 1_555 1_555
C1 C2 1_555 1_555
N3A C3A 1_555 1_555
C1A C2A 1_555 1_555
C4A C5A 1_555 1_555
C4A C6A 1_555 1_555

#END
