
#######################################################################
#
#                 Cambridge Crystallographic Data Centre
#                                CCDC 
#
#######################################################################
#
# If this CIF has been generated from an entry in the Cambridge 
# Structural Database, then it will include bibliographic, chemical, 
# crystal, experimental, refinement or atomic coordinate data resulting 
# from the CCDC's data processing and validation procedures.
#
#######################################################################

data_UREXIZ
_chemical_formula_moiety         'C26 H21 F6 N1 O5'
_chemical_name_systematic        
(S)-cyano(3-phenoxyphenyl)methyl(Z)-(1R,3S)-2,2-dimethyl-3-(2-[2,2,2-trifluoro-1-(trifluoromethyl)ethoxycarbonyl]vinyl)cyclopropane-1-carboxylate
_symmetry_cell_setting           orthorhombic
_symmetry_space_group_name_H-M   'P 21 21 21'
_symmetry_Int_Tables_number      19
_space_group_name_Hall           'P 2ac 2ab'
loop_
_symmetry_equiv_pos_site_id
_symmetry_equiv_pos_as_xyz
1 x,y,z
2 1/2-x,-y,1/2+z
3 -x,1/2+y,1/2-z
4 1/2+x,1/2-y,-z
_cell_length_a                   7.4932(2)
_cell_length_b                   9.2679(2)
_cell_length_c                   36.9165(8)
_cell_angle_alpha                90
_cell_angle_beta                 90
_cell_angle_gamma                90
_cell_volume                     2563.71
_exptl_crystal_colour            colorless
_exptl_crystal_description       plate
_cell_formula_units_Z            4
loop_
_atom_site_label
_atom_site_type_symbol
_atom_site_fract_x
_atom_site_fract_y
_atom_site_fract_z
F1 F 0.9406(3) 0.7188(4) 0.39798(7)
F2 F 0.8936(3) 0.6123(3) 0.44823(6)
F3 F 0.9197(3) 0.8418(3) 0.44673(7)
F4 F 0.5707(4) 0.6522(2) 0.47933(5)
F5 F 0.5953(4) 0.8812(2) 0.47448(6)
F6 F 0.3792(3) 0.7694(3) 0.44896(7)
O1 O 0.6010(3) 0.61863(19) 0.40474(5)
O2 O 0.4704(3) 0.7556(2) 0.36230(5)
O3 O 0.3658(3) 0.3918(2) 0.25488(5)
O4 O 0.3278(2) 0.57874(18) 0.21721(4)
O5 O -0.0634(2) 0.6201(3) 0.10760(5)
N1 N 0.7583(4) 0.5008(3) 0.20012(6)
C1 C 0.8548(5) 0.7284(4) 0.42894(10)
C2 C 0.5516(5) 0.7623(4) 0.45687(9)
C3 C 0.6580(4) 0.7456(3) 0.42269(7)
H1 H 0.6367 0.8309 0.4067
C4 C 0.5049(4) 0.6380(3) 0.37320(7)
C5 C 0.4624(4) 0.4984(3) 0.35754(6)
H2 H 0.5242 0.4163 0.3665
C6 C 0.3425(4) 0.4784(3) 0.33150(6)
H3 H 0.3310 0.3832 0.3223
C7 C 0.2268(4) 0.5881(3) 0.31574(6)
H4 H 0.2238 0.6811 0.3295
C8 C 0.0544(4) 0.5510(3) 0.29675(7)
C9 C 0.2095(4) 0.6050(3) 0.27442(6)
H5 H 0.1973 0.7070 0.2659
C10 C -0.0072(5) 0.3963(4) 0.29394(9)
H6 H 0.0954 0.3340 0.2888
H7 H -0.0947 0.3877 0.2743
H8 H -0.0622 0.3670 0.3169
C11 C -0.0958(4) 0.6583(4) 0.30134(9)
H9 H -0.1767 0.6520 0.2805
H10 H -0.0465 0.7560 0.3029
H11 H -0.1617 0.6364 0.3236
C12 C 0.3083(4) 0.5105(3) 0.24965(6)
C13 C 0.4145(3) 0.4969(3) 0.18922(6)
H12 H 0.3725 0.3946 0.1905
C14 C 0.6090(4) 0.4999(3) 0.19511(6)
C15 C 0.3567(3) 0.5607(3) 0.15333(6)
C16 C 0.4784(3) 0.6086(3) 0.12799(6)
H13 H 0.6028 0.6030 0.1328
C17 C 0.4178(3) 0.6650(3) 0.09551(6)
H14 H 0.5014 0.6983 0.0781
C18 C 0.2380(3) 0.6735(3) 0.08809(6)
H15 H 0.1972 0.7142 0.0660
C19 C 0.1186(3) 0.6220(3) 0.11322(7)
C20 C 0.1758(3) 0.5663(3) 0.14596(6)
H16 H 0.0918 0.5321 0.1632
C21 C -0.1298(3) 0.6912(4) 0.07707(7)
C22 C -0.1479(4) 0.8371(4) 0.07716(8)
H17 H -0.1069 0.8922 0.0972
C23 C -0.2266(4) 0.9048(4) 0.04787(9)
H18 H -0.2392 1.0068 0.0477
C24 C -0.2859(4) 0.8259(4) 0.01934(8)
H19 H -0.3414 0.8728 -0.0006
C25 C -0.2664(4) 0.6809(4) 0.01912(8)
H20 H -0.3072 0.6267 -0.0011
C26 C -0.1869(4) 0.6104(4) 0.04824(8)
H21 H -0.1727 0.5086 0.0481
loop_
_geom_bond_atom_site_label_1
_geom_bond_atom_site_label_2
_geom_bond_site_symmetry_1
_geom_bond_site_symmetry_2
F1 C1 1_555 1_555
F2 C1 1_555 1_555
F3 C1 1_555 1_555
F4 C2 1_555 1_555
F5 C2 1_555 1_555
F6 C2 1_555 1_555
O1 C3 1_555 1_555
O2 C4 1_555 1_555
O3 C12 1_555 1_555
O4 C12 1_555 1_555
O5 C19 1_555 1_555
N1 C14 1_555 1_555
C1 C3 1_555 1_555
C2 C3 1_555 1_555
C3 H1 1_555 1_555
C4 O1 1_555 1_555
C5 C4 1_555 1_555
H2 C5 1_555 1_555
C6 C5 1_555 1_555
H3 C6 1_555 1_555
C7 C6 1_555 1_555
H4 C7 1_555 1_555
C8 C7 1_555 1_555
C9 C7 1_555 1_555
H5 C9 1_555 1_555
C10 C8 1_555 1_555
H6 C10 1_555 1_555
H7 C10 1_555 1_555
H8 C10 1_555 1_555
C11 C8 1_555 1_555
H9 C11 1_555 1_555
H10 C11 1_555 1_555
H11 C11 1_555 1_555
C12 C9 1_555 1_555
C13 O4 1_555 1_555
H12 C13 1_555 1_555
C14 C13 1_555 1_555
C15 C13 1_555 1_555
C16 C15 1_555 1_555
H13 C16 1_555 1_555
C17 C16 1_555 1_555
H14 C17 1_555 1_555
C18 C17 1_555 1_555
H15 C18 1_555 1_555
C19 C18 1_555 1_555
C20 C15 1_555 1_555
H16 C20 1_555 1_555
C21 O5 1_555 1_555
C22 C21 1_555 1_555
H17 C22 1_555 1_555
C23 C22 1_555 1_555
H18 C23 1_555 1_555
C24 C23 1_555 1_555
H19 C24 1_555 1_555
C25 C24 1_555 1_555
H20 C25 1_555 1_555
C26 C21 1_555 1_555
H21 C26 1_555 1_555
C8 C9 1_555 1_555
C19 C20 1_555 1_555
C25 C26 1_555 1_555

#END
