
#######################################################################
#
#                 Cambridge Crystallographic Data Centre
#                                CCDC 
#
#######################################################################
#
# If this CIF has been generated from an entry in the Cambridge 
# Structural Database, then it will include bibliographic, chemical, 
# crystal, experimental, refinement or atomic coordinate data resulting 
# from the CCDC's data processing and validation procedures.
#
#######################################################################

data_UREYAT
_chemical_formula_moiety         'C24 H20 O4'
_chemical_name_systematic        
'methyl 6-(4-methoxyphenyl)-6a-phenyl-6,6a-dihydro-1aH-indeno[1,2-b]oxirene-6-carboxylate'
_symmetry_cell_setting           monoclinic
_symmetry_space_group_name_H-M   'P 21/n'
_symmetry_Int_Tables_number      14
_space_group_name_Hall           '-P 2yn'
loop_
_symmetry_equiv_pos_site_id
_symmetry_equiv_pos_as_xyz
1 x,y,z
2 1/2-x,1/2+y,1/2-z
3 -x,-y,-z
4 1/2+x,1/2-y,1/2+z
_cell_length_a                   12.6203(7)
_cell_length_b                   10.0898(6)
_cell_length_c                   15.4768(9)
_cell_angle_alpha                90
_cell_angle_beta                 106.857(2)
_cell_angle_gamma                90
_cell_volume                     1886.08
_exptl_crystal_colour            colorless
_exptl_crystal_description       block
_cell_formula_units_Z            4
loop_
_atom_site_label
_atom_site_type_symbol
_atom_site_fract_x
_atom_site_fract_y
_atom_site_fract_z
O1 O 0.44231(11) 0.38795(13) 0.20993(8)
O2 O 0.41350(10) 0.40188(10) 0.34424(8)
O3 O 0.43915(8) 0.66565(11) 0.15044(7)
O4 O 0.92462(9) 0.45262(12) 0.56844(7)
C1 C 0.74188(12) 0.62273(16) 0.22804(10)
H1 H 0.7586 0.6762 0.2792
C2 C 0.82582(13) 0.57761(17) 0.19476(11)
H2 H 0.8989 0.5998 0.2243
C3 C 0.80233(14) 0.50041(18) 0.11868(12)
H3 H 0.8591 0.4710 0.0964
C4 C 0.69425(15) 0.46670(18) 0.07548(12)
H4 H 0.6779 0.4150 0.0235
C5 C 0.61017(13) 0.50933(16) 0.10902(10)
H5 H 0.5375 0.4848 0.0801
C6 C 0.63299(11) 0.58856(13) 0.18547(9)
C7 C 0.54028(11) 0.63560(14) 0.21958(9)
C8 C 0.49770(12) 0.77217(15) 0.20915(10)
H6 H 0.5355 0.8426 0.1860
C9 C 0.44607(11) 0.79813(14) 0.28148(10)
C10 C 0.39323(14) 0.91181(15) 0.29766(12)
H7 H 0.3893 0.9868 0.2619
C11 C 0.34663(15) 0.91135(17) 0.36789(14)
H8 H 0.3110 0.9868 0.3799
C12 C 0.35238(15) 0.79980(17) 0.42060(14)
H9 H 0.3209 0.8014 0.4680
C13 C 0.40418(13) 0.68529(15) 0.40427(11)
H10 H 0.4070 0.6102 0.4397
C14 C 0.45164(11) 0.68532(13) 0.33405(10)
C15 C 0.51720(11) 0.57507(13) 0.30477(9)
C16 C 0.62527(11) 0.54054(13) 0.37723(9)
C17 C 0.67649(12) 0.62745(14) 0.44584(10)
H11 H 0.6433 0.7085 0.4501
C18 C 0.77591(13) 0.59568(16) 0.50792(10)
H12 H 0.8090 0.6557 0.5533
C19 C 0.82687(11) 0.47576(15) 0.50344(9)
C20 C 0.77798(12) 0.38837(14) 0.43507(10)
H13 H 0.8116 0.3076 0.4307
C21 C 0.67853(12) 0.42169(14) 0.37309(10)
H14 H 0.6463 0.3623 0.3270
C22 C 0.97784(14) 0.32894(19) 0.56429(12)
H15 H 1.0453 0.3239 0.6129
H16 H 0.9943 0.3221 0.5077
H17 H 0.9297 0.2577 0.5695
C23 C 0.45214(11) 0.44637(14) 0.27865(10)
C24 C 0.36859(16) 0.26952(17) 0.33290(14)
H18 H 0.3429 0.2470 0.3837
H19 H 0.4250 0.2081 0.3289
H20 H 0.3079 0.2653 0.2786
loop_
_geom_bond_atom_site_label_1
_geom_bond_atom_site_label_2
_geom_bond_site_symmetry_1
_geom_bond_site_symmetry_2
O1 C23 1_555 1_555
O2 C23 1_555 1_555
O3 C7 1_555 1_555
O4 C19 1_555 1_555
C1 H1 1_555 1_555
C2 C1 1_555 1_555
H2 C2 1_555 1_555
C3 C2 1_555 1_555
H3 C3 1_555 1_555
C4 C3 1_555 1_555
H4 C4 1_555 1_555
C5 C4 1_555 1_555
H5 C5 1_555 1_555
C6 C1 1_555 1_555
C7 C6 1_555 1_555
C8 O3 1_555 1_555
H6 C8 1_555 1_555
C9 C8 1_555 1_555
C10 C9 1_555 1_555
H7 C10 1_555 1_555
C11 C10 1_555 1_555
H8 C11 1_555 1_555
C12 C11 1_555 1_555
H9 C12 1_555 1_555
C13 C12 1_555 1_555
H10 C13 1_555 1_555
C14 C9 1_555 1_555
C15 C7 1_555 1_555
C16 C15 1_555 1_555
C17 C16 1_555 1_555
H11 C17 1_555 1_555
C18 C17 1_555 1_555
H12 C18 1_555 1_555
C19 C18 1_555 1_555
C20 C19 1_555 1_555
H13 C20 1_555 1_555
C21 C16 1_555 1_555
H14 C21 1_555 1_555
C22 O4 1_555 1_555
H15 C22 1_555 1_555
H16 C22 1_555 1_555
H17 C22 1_555 1_555
C23 C15 1_555 1_555
C24 O2 1_555 1_555
H18 C24 1_555 1_555
H19 C24 1_555 1_555
H20 C24 1_555 1_555
C5 C6 1_555 1_555
C7 C8 1_555 1_555
C13 C14 1_555 1_555
C14 C15 1_555 1_555
C20 C21 1_555 1_555

#END
