
#######################################################################
#
#                 Cambridge Crystallographic Data Centre
#                                CCDC 
#
#######################################################################
#
# If this CIF has been generated from an entry in the Cambridge 
# Structural Database, then it will include bibliographic, chemical, 
# crystal, experimental, refinement or atomic coordinate data resulting 
# from the CCDC's data processing and validation procedures.
#
#######################################################################

data_UREYEX
_chemical_formula_moiety         'C23 H16 Br2 O4'
_chemical_name_systematic        
'methyl 2,6-dibromo-3-hydroxy-5a-phenyl-5a,6-dihydro-10bH-benzo[b]indeno[1,2-d]furan-10b-carboxylate'
_symmetry_cell_setting           triclinic
_symmetry_space_group_name_H-M   'P -1'
_symmetry_Int_Tables_number      2
_space_group_name_Hall           '-P 1'
loop_
_symmetry_equiv_pos_site_id
_symmetry_equiv_pos_as_xyz
1 x,y,z
2 -x,-y,-z
_cell_length_a                   8.0971(3)
_cell_length_b                   11.2035(4)
_cell_length_c                   12.1077(4)
_cell_angle_alpha                87.7950(10)
_cell_angle_beta                 71.1220(10)
_cell_angle_gamma                74.2330(10)
_cell_volume                     998.701
_exptl_crystal_colour            colorless
_exptl_crystal_description       block
_cell_formula_units_Z            2
loop_
_atom_site_label
_atom_site_type_symbol
_atom_site_fract_x
_atom_site_fract_y
_atom_site_fract_z
Br1 Br 0.37186(4) 0.87554(3) 0.83693(3)
Br2 Br -0.43922(5) 1.13761(4) 0.52844(3)
O1 O -0.2596(3) 1.32857(18) 0.92967(16)
O2 O -0.2338(3) 1.45163(16) 0.78007(16)
O3 O 0.0244(3) 0.78378(18) 0.94398(19)
H1 H 0.1035 0.7788 0.9737
O4 O -0.3715(2) 1.11037(17) 0.81349(16)
C1 C -0.3369(3) 1.2012(2) 0.7276(2)
C2 C -0.2595(3) 1.1364(2) 0.6031(2)
H2 H -0.1991 1.0493 0.6103
C3 C -0.1158(3) 1.1959(2) 0.5356(2)
C4 C -0.0345(4) 1.1942(3) 0.4160(2)
H3 H -0.0727 1.1565 0.3653
C5 C 0.1040(5) 1.2494(3) 0.3736(3)
H4 H 0.1604 1.2483 0.2933
C6 C 0.1613(4) 1.3067(3) 0.4480(3)
H5 H 0.2551 1.3438 0.4173
C7 C 0.0794(4) 1.3090(3) 0.5685(2)
H6 H 0.1169 1.3475 0.6190
C8 C -0.0593(3) 1.2526(2) 0.6113(2)
C9 C -0.1619(3) 1.2350(2) 0.7364(2)
C10 C -0.0776(3) 1.1150(2) 0.7837(2)
C11 C 0.0957(3) 1.0640(2) 0.7870(2)
H7 H 0.1861 1.1039 0.7557
C12 C 0.1314(4) 0.9516(2) 0.8385(2)
C13 C -0.0026(4) 0.8925(2) 0.8899(2)
C14 C -0.1769(4) 0.9429(2) 0.8841(2)
H8 H -0.2682 0.9039 0.9161
C15 C -0.2085(3) 1.0521(2) 0.8293(2)
C16 C -0.5051(3) 1.3086(2) 0.7487(2)
C17 C -0.6629(4) 1.3092(3) 0.8391(3)
H9 H -0.6662 1.2426 0.8873
C18 C -0.8159(4) 1.4091(3) 0.8578(3)
H10 H -0.9214 1.4091 0.9186
C19 C -0.8133(4) 1.5072(3) 0.7879(3)
H11 H -0.9163 1.5741 0.8015
C20 C -0.6580(5) 1.5074(3) 0.6972(3)
H12 H -0.6559 1.5743 0.6495
C21 C -0.5052(4) 1.4079(3) 0.6773(3)
H13 H -0.4013 1.4077 0.6150
C22 C -0.2203(3) 1.3425(2) 0.8268(2)
C23 C -0.3245(5) 1.5582(3) 0.8619(3)
H14 H -0.3269 1.6329 0.8201
H15 H -0.2602 1.5567 0.9163
H16 H -0.4464 1.5558 0.9035
loop_
_geom_bond_atom_site_label_1
_geom_bond_atom_site_label_2
_geom_bond_site_symmetry_1
_geom_bond_site_symmetry_2
Br1 C12 1_555 1_555
Br2 C2 1_555 1_555
O1 C22 1_555 1_555
O2 C22 1_555 1_555
O3 H1 1_555 1_555
O4 C1 1_555 1_555
C1 C2 1_555 1_555
C2 H2 1_555 1_555
C3 C2 1_555 1_555
C4 C3 1_555 1_555
H3 C4 1_555 1_555
C5 C4 1_555 1_555
H4 C5 1_555 1_555
C6 C5 1_555 1_555
H5 C6 1_555 1_555
C7 C6 1_555 1_555
H6 C7 1_555 1_555
C8 C3 1_555 1_555
C9 C1 1_555 1_555
C10 C9 1_555 1_555
C11 C10 1_555 1_555
H7 C11 1_555 1_555
C12 C11 1_555 1_555
C13 O3 1_555 1_555
C14 C13 1_555 1_555
H8 C14 1_555 1_555
C15 O4 1_555 1_555
C16 C1 1_555 1_555
C17 C16 1_555 1_555
H9 C17 1_555 1_555
C18 C17 1_555 1_555
H10 C18 1_555 1_555
C19 C18 1_555 1_555
H11 C19 1_555 1_555
C20 C19 1_555 1_555
H12 C20 1_555 1_555
C21 C16 1_555 1_555
H13 C21 1_555 1_555
C22 C9 1_555 1_555
C23 O2 1_555 1_555
H14 C23 1_555 1_555
H15 C23 1_555 1_555
H16 C23 1_555 1_555
C7 C8 1_555 1_555
C8 C9 1_555 1_555
C10 C15 1_555 1_555
C12 C13 1_555 1_555
C14 C15 1_555 1_555
C20 C21 1_555 1_555

#END
