
#######################################################################
#
#                 Cambridge Crystallographic Data Centre
#                                CCDC 
#
#######################################################################
#
# If this CIF has been generated from an entry in the Cambridge 
# Structural Database, then it will include bibliographic, chemical, 
# crystal, experimental, refinement or atomic coordinate data resulting 
# from the CCDC's data processing and validation procedures.
#
#######################################################################

data_URIHAF
_chemical_name_common            
'5,11,17,23-tetrakis(Prolylmethyl)-25,26,27,28-tetrahydroxycalix(4)arene undecahydrate'
_chemical_formula_moiety         'C52 H60 N4 O12,11(H2 O1)'
_chemical_name_systematic        
'1-((11-((2-Carboxylatopyrrolidin-1-yl)methyl)-17-((2-carboxypyrrolidinium-1-yl)methyl)-23-((2-carboxypyrrolidin-1-yl)methyl)-25,26,27,28-tetrahydroxypentacyclo[19.3.1.1^3,7^.1^9,13^.1^15,19^]octacosa-1(25),3(28),4,6,9(27),10,12,15(26),16,18,21,23-dodecaen-5-yl)methyl)pyrrolidinium-2-carboxylate undecahydrate'
_symmetry_cell_setting           monoclinic
_symmetry_space_group_name_H-M   'C 2'
_symmetry_Int_Tables_number      5
_space_group_name_Hall           'C 2y'
loop_
_symmetry_equiv_pos_site_id
_symmetry_equiv_pos_as_xyz
1 x,y,z
2 -x,y,-z
3 1/2+x,1/2+y,z
4 1/2-x,1/2+y,-z
_cell_length_a                   19.723(4)
_cell_length_b                   18.459(4)
_cell_length_c                   17.842(3)
_cell_angle_alpha                90
_cell_angle_beta                 112.245(6)
_cell_angle_gamma                90
_cell_volume                     6012.23
_exptl_crystal_colour            colorless
_exptl_crystal_description       prism
_cell_formula_units_Z            4
loop_
_atom_site_label
_atom_site_type_symbol
_atom_site_fract_x
_atom_site_fract_y
_atom_site_fract_z
N1 N 0.3994(3) 0.4483(4) 0.7009(3)
H1 H 0.4315 0.4105 0.7039
N2 N 0.6038(4) 0.2505(4) 0.6863(4)
N3 N 0.9138(3) 0.4558(3) 0.7574(4)
H2 H 0.8849 0.4959 0.7564
N4 N 0.7037(5) 0.6597(4) 0.7308(4)
O1 O 0.6524(3) 0.4339(4) 1.0549(3)
H3 H 0.6767 0.3973 1.0524
O2 O 0.7442(4) 0.3230(3) 1.0665(3)
H4 H 0.7140 0.3119 1.0874
O3 O 0.8400(3) 0.4318(3) 1.0795(3)
H5 H 0.7986 0.4120 1.0631
O4 O 0.7447(4) 0.5447(4) 1.0866(3)
H6 H 0.7892 0.5350 1.1110
O5 O 0.3531(4) 0.3114(4) 0.6655(5)
O6 O 0.2457(4) 0.3405(4) 0.5638(4)
O7 O 0.5136(3) 0.3573(5) 0.6932(4)
O8 O 0.5991(4) 0.4421(4) 0.7379(5)
O9 O 0.8007(3) 0.5526(3) 0.7501(4)
O10 O 0.7269(4) 0.4633(3) 0.7564(5)
H7 H 0.6898 0.4620 0.7687
C1 C 0.5904(4) 0.4392(5) 0.9845(4)
C2 C 0.5602(5) 0.5079(5) 0.9549(4)
C3 C 0.4952(4) 0.5086(6) 0.8883(5)
H8 H 0.4739 0.5543 0.8682
C4 C 0.4599(5) 0.4482(7) 0.8496(5)
C5 C 0.4885(5) 0.3798(6) 0.8792(4)
H9 H 0.4634 0.3370 0.8540
C6 C 0.5567(5) 0.3753(5) 0.9486(4)
C7 C 0.5882(5) 0.2995(6) 0.9796(5)
H10 H 0.6103 0.2995 1.0395
H11 H 0.5485 0.2630 0.9620
C8 C 0.7216(5) 0.2939(5) 0.9890(5)
C9 C 0.6465(5) 0.2806(5) 0.9452(5)
C10 C 0.6270(6) 0.2481(6) 0.8708(5)
H12 H 0.5770 0.2358 0.8427
C11 C 0.6762(5) 0.2322(4) 0.8342(5)
C12 C 0.7498(6) 0.2470(4) 0.8793(4)
H13 H 0.7850 0.2364 0.8565
C13 C 0.7736(5) 0.2772(4) 0.9576(5)
C14 C 0.8551(5) 0.2947(4) 1.0034(5)
H14 H 0.8664 0.2933 1.0623
H15 H 0.8852 0.2571 0.9910
C15 C 0.8665(4) 0.4317(4) 1.0185(4)
C16 C 0.8756(4) 0.3678(4) 0.9811(4)
C17 C 0.9077(4) 0.3735(4) 0.9237(4)
H16 H 0.9163 0.3309 0.8987
C18 C 0.9275(4) 0.4409(5) 0.9021(4)
C19 C 0.9141(4) 0.5018(4) 0.9380(4)
H17 H 0.9267 0.5476 0.9226
C20 C 0.8836(4) 0.4998(4) 0.9943(4)
C21 C 0.8693(4) 0.5701(4) 1.0325(4)
H18 H 0.9033 0.6083 1.0292
H19 H 0.8790 0.5615 1.0904
C22 C 0.7346(5) 0.5793(4) 1.0137(4)
C23 C 0.7898(4) 0.5961(4) 0.9891(4)
C24 C 0.7731(5) 0.6352(4) 0.9158(4)
H20 H 0.8112 0.6486 0.8982
C25 C 0.7023(5) 0.6537(4) 0.8705(4)
C26 C 0.6458(5) 0.6354(4) 0.8955(5)
H21 H 0.5967 0.6477 0.8630
C27 C 0.6618(4) 0.5986(5) 0.9689(4)
C28 C 0.5985(5) 0.5774(6) 0.9929(5)
H22 H 0.6171 0.5723 1.0525
H23 H 0.5622 0.6172 0.9776
C29 C 0.3893(5) 0.4506(7) 0.7803(5)
H24 H 0.3629 0.4955 0.7831
H25 H 0.3589 0.4088 0.7834
C30 C 0.3303(4) 0.4343(4) 0.6283(4)
H26 H 0.2896 0.4639 0.6330
C31 C 0.3496(6) 0.4638(6) 0.5582(6)
H27 H 0.3601 0.4232 0.5279
H28 H 0.3080 0.4919 0.5203
C32 C 0.4134(5) 0.5097(6) 0.5921(5)
H29 H 0.4029 0.5582 0.5666
H30 H 0.4550 0.4885 0.5816
C33 C 0.4331(5) 0.5166(6) 0.6828(5)
H31 H 0.4868 0.5175 0.7127
H32 H 0.4112 0.5606 0.6961
C34 C 0.3078(5) 0.3548(5) 0.6188(5)
C35 C 0.6538(5) 0.2007(5) 0.7526(5)
H33 H 0.6280 0.1544 0.7513
H34 H 0.6981 0.1898 0.7413
C36 C 0.6311(4) 0.3285(5) 0.6931(4)
H35 H 0.6810 0.3324 0.7367
C37 C 0.6347(5) 0.3442(5) 0.6120(5)
H36 H 0.6836 0.3370 0.6141
H37 H 0.6204 0.3933 0.5963
C38 C 0.5819(9) 0.2918(6) 0.5514(7)
H38 H 0.5954 0.2838 0.5040
H39 H 0.5307 0.3094 0.5328
C39 C 0.5928(5) 0.2227(5) 0.6030(5)
H40 H 0.5504 0.1922 0.5821
H41 H 0.6349 0.1961 0.6039
C40 C 0.5766(4) 0.3783(6) 0.7125(5)
C41 C 0.9654(4) 0.4449(5) 0.8423(4)
H42 H 1.0010 0.4854 0.8579
H43 H 0.9931 0.3996 0.8456
C42 C 0.9539(6) 0.4715(5) 0.7010(7)
H44 H 0.9972 0.4419 0.7185
C43 C 0.9036(8) 0.4450(10) 0.6166(8)
H45 H 0.9286 0.4084 0.5955
H46 H 0.8875 0.4858 0.5779
C44 C 0.8372(7) 0.4107(6) 0.6319(5)
H47 H 0.7959 0.4454 0.6168
H48 H 0.8204 0.3662 0.5992
C45 C 0.8632(4) 0.3933(4) 0.7195(5)
H49 H 0.8898 0.3466 0.7317
H50 H 0.8221 0.3915 0.7383
O11 O 1.0235(9) 0.569(2) 0.6888(14)
H51 H 1.0684 0.5395 0.7244
O12 O 0.9639(8) 0.5945(7) 0.7656(9)
C46 C 0.9781(8) 0.5486(6) 0.7231(8)
C47 C 0.6857(7) 0.7001(6) 0.7939(6)
H52 H 0.6332 0.7135 0.7717
H53 H 0.7149 0.7453 0.8081
C48 C 0.6767(5) 0.5836(5) 0.7152(4)
H54 H 0.6466 0.5749 0.7457
C49 C 0.6296(19) 0.5698(10) 0.6250(8)
H55 H 0.6600 0.5544 0.5946
H56 H 0.5913 0.5329 0.6184
C50 C 0.5960(10) 0.6452(9) 0.5981(11)
H57 H 0.5808 0.6524 0.5390
H58 H 0.5539 0.6544 0.6141
C51 C 0.6624(10) 0.6920(9) 0.6463(7)
H59 H 0.6458 0.7416 0.6518
H60 H 0.6958 0.6951 0.6167
C52 C 0.7405(6) 0.5296(5) 0.7437(5)
O13 O 0.4742(3) 0.7875(4) 0.2420(4)
O14 O 0.5513(5) 0.7087(4) 0.1861(5)
O15 O 0.1564(5) 0.5206(5) 0.7691(5)
O16 O 0.6492(5) 0.2020(4) 0.2281(5)
O17 O 0.3801(5) 0.8839(5) 0.4174(6)
O18 O 0.3563(6) 0.8744(5) 0.2590(5)
O19 O 0.7951(6) 0.2249(6) 0.5311(6)
O20 O 0.5492(10) 0.7239(11) 0.4104(10)
O22 O 0.5639(7) 0.0212(6) 0.5653(9)
O23 O 0.6973(9) 0.7055(11) 0.3012(11)
O24 O 0.7466(8) 0.5705(6) 0.3045(8)
O25 O 0.7051(11) 0.0708(11) 0.5808(13)
O26 O 0.5413(6) 0.2204(6) 0.3499(7)
O27 O 0.7262(8) 0.0988(8) 0.4436(9)
O28 O 0.5000 0.7981(8) 0.5000
O21? O 0.5633(11) 0.7126(9) 0.3685(14)
C53? C 0.6424(9) 0.2707(6) 0.5757(11)
C54? C 0.9621(5) 0.5502(5) 0.6851(7)
C55? C 0.633(3) 0.5792(19) 0.6231(8)
C56? C 0.6660(18) 0.6438(14) 0.5952(16)
C57? C 0.6944(17) 0.7065(10) 0.6563(10)
H61? H 0.6764 0.3742 0.6186
H62? H 0.5912 0.3684 0.5770
H63? H 0.6251 0.2730 0.5160
H64? H 0.6938 0.2533 0.5980
H65? H 0.5428 0.2278 0.5664
H66? H 0.6069 0.1728 0.6051
H67? H 1.0004 0.4472 0.7192
H68? H 0.6449 0.5744 0.7436
H69? H 0.6411 0.5329 0.6000
H70? H 0.5794 0.5857 0.6095
H71? H 0.6286 0.6634 0.5448
H72? H 0.7072 0.6258 0.5815
H73? H 0.7413 0.7268 0.6576
H74? H 0.6578 0.7456 0.6475
H75? H 1.0296 0.6070 0.6822
O29? O 0.9172(6) 0.5913(5) 0.6956(7)
O30? O 1.0126(11) 0.566(2) 0.6633(16)
loop_
_geom_bond_atom_site_label_1
_geom_bond_atom_site_label_2
_geom_bond_site_symmetry_1
_geom_bond_site_symmetry_2
N1 H1 1_555 1_555
N2 C35 1_555 1_555
N3 H2 1_555 1_555
N4 C47 1_555 1_555
O1 H3 1_555 1_555
O2 H4 1_555 1_555
O3 H5 1_555 1_555
O4 H6 1_555 1_555
O5 C34 1_555 1_555
O6 C34 1_555 1_555
O7 C40 1_555 1_555
O8 C40 1_555 1_555
O9 C52 1_555 1_555
O10 H7 1_555 1_555
C1 O1 1_555 1_555
C2 C1 1_555 1_555
C3 C2 1_555 1_555
H8 C3 1_555 1_555
C4 C3 1_555 1_555
C5 C4 1_555 1_555
H9 C5 1_555 1_555
C6 C1 1_555 1_555
C7 C6 1_555 1_555
H10 C7 1_555 1_555
H11 C7 1_555 1_555
C8 O2 1_555 1_555
C9 C7 1_555 1_555
C10 C9 1_555 1_555
H12 C10 1_555 1_555
C11 C10 1_555 1_555
C12 C11 1_555 1_555
H13 C12 1_555 1_555
C13 C8 1_555 1_555
C14 C13 1_555 1_555
H14 C14 1_555 1_555
H15 C14 1_555 1_555
C15 O3 1_555 1_555
C16 C14 1_555 1_555
C17 C16 1_555 1_555
H16 C17 1_555 1_555
C18 C17 1_555 1_555
C19 C18 1_555 1_555
H17 C19 1_555 1_555
C20 C15 1_555 1_555
C21 C20 1_555 1_555
H18 C21 1_555 1_555
H19 C21 1_555 1_555
C22 O4 1_555 1_555
C23 C21 1_555 1_555
C24 C23 1_555 1_555
H20 C24 1_555 1_555
C25 C24 1_555 1_555
C26 C25 1_555 1_555
H21 C26 1_555 1_555
C27 C22 1_555 1_555
C28 C2 1_555 1_555
H22 C28 1_555 1_555
H23 C28 1_555 1_555
C29 N1 1_555 1_555
H24 C29 1_555 1_555
H25 C29 1_555 1_555
C30 N1 1_555 1_555
H26 C30 1_555 1_555
C31 C30 1_555 1_555
H27 C31 1_555 1_555
H28 C31 1_555 1_555
C32 C31 1_555 1_555
H29 C32 1_555 1_555
H30 C32 1_555 1_555
C33 N1 1_555 1_555
H31 C33 1_555 1_555
H32 C33 1_555 1_555
C34 C30 1_555 1_555
C35 C11 1_555 1_555
H33 C35 1_555 1_555
H34 C35 1_555 1_555
C36 N2 1_555 1_555
H35 C36 1_555 1_555
C37 C36 1_555 1_555
H36 C37 1_555 1_555
H37 C37 1_555 1_555
C38 C37 1_555 1_555
H38 C38 1_555 1_555
H39 C38 1_555 1_555
C39 N2 1_555 1_555
H40 C39 1_555 1_555
H41 C39 1_555 1_555
C40 C36 1_555 1_555
C41 N3 1_555 1_555
H42 C41 1_555 1_555
H43 C41 1_555 1_555
C42 N3 1_555 1_555
H44 C42 1_555 1_555
C43 C42 1_555 1_555
H45 C43 1_555 1_555
H46 C43 1_555 1_555
C44 C43 1_555 1_555
H47 C44 1_555 1_555
H48 C44 1_555 1_555
C45 N3 1_555 1_555
H49 C45 1_555 1_555
H50 C45 1_555 1_555
O11 H51 1_555 1_555
O12 C46 1_555 1_555
C46 C42 1_555 1_555
C47 C25 1_555 1_555
H52 C47 1_555 1_555
H53 C47 1_555 1_555
C48 N4 1_555 1_555
H54 C48 1_555 1_555
C49 C48 1_555 1_555
H55 C49 1_555 1_555
H56 C49 1_555 1_555
C50 C49 1_555 1_555
H57 C50 1_555 1_555
H58 C50 1_555 1_555
C51 N4 1_555 1_555
H59 C51 1_555 1_555
H60 C51 1_555 1_555
C52 O10 1_555 1_555
C4 C29 1_555 1_555
C5 C6 1_555 1_555
C8 C9 1_555 1_555
C12 C13 1_555 1_555
C15 C16 1_555 1_555
C18 C41 1_555 1_555
C19 C20 1_555 1_555
C22 C23 1_555 1_555
C26 C27 1_555 1_555
C27 C28 1_555 1_555
C32 C33 1_555 1_555
C38 C39 1_555 1_555
C44 C45 1_555 1_555
O11 C46 1_555 1_555
C48 C52 1_555 1_555
C50 C51 1_555 1_555

#END
