
#######################################################################
#
#                 Cambridge Crystallographic Data Centre
#                                CCDC 
#
#######################################################################
#
# If this CIF has been generated from an entry in the Cambridge 
# Structural Database, then it will include bibliographic, chemical, 
# crystal, experimental, refinement or atomic coordinate data resulting 
# from the CCDC's data processing and validation procedures.
#
#######################################################################

data_URIYUR
_chemical_formula_moiety         'C26 H26 N2 O1'
_chemical_name_systematic        
9-(2,5-dimethylbenzyl)-4a-methyl-3-phenyl-4,4a,9,9a-tetrahydro[1,2]oxazino[6,5-b]indole
_chemical_properties_biological  
'activity against leishmania major and leishmania panamensis'
_symmetry_cell_setting           triclinic
_symmetry_space_group_name_H-M   'P -1'
_symmetry_Int_Tables_number      2
_space_group_name_Hall           '-P 1'
loop_
_symmetry_equiv_pos_site_id
_symmetry_equiv_pos_as_xyz
1 x,y,z
2 -x,-y,-z
_cell_length_a                   6.8190(12)
_cell_length_b                   8.4731(15)
_cell_length_c                   17.387(3)
_cell_angle_alpha                91.130(4)
_cell_angle_beta                 90.978(5)
_cell_angle_gamma                96.993(4)
_cell_volume                     996.728
_exptl_crystal_colour            colorless
_exptl_crystal_description       plate
_cell_formula_units_Z            2
loop_
_atom_site_label
_atom_site_type_symbol
_atom_site_fract_x
_atom_site_fract_y
_atom_site_fract_z
O1 O 0.64768(13) 0.90408(10) 0.79100(5)
N1 N 0.48170(15) 0.64328(12) 0.76364(6)
N2 N 0.64608(15) 0.96685(12) 0.71442(6)
C1 C 0.19393(17) 0.73055(13) 0.72280(7)
C2 C 0.71411(17) 0.30767(14) 0.85620(7)
C3 C 0.58172(17) 0.41875(13) 0.84072(7)
C4 C 0.27772(17) 0.84847(14) 0.78551(7)
C5 C 0.31874(17) 0.61164(14) 0.71469(7)
C6 C 0.02385(17) 0.72588(14) 0.67820(7)
H1 H -0.0580 0.8055 0.6831
C7 C 0.41429(17) 0.42194(14) 0.88529(7)
H2 H 0.3268 0.4948 0.8741
C8 C 0.47279(19) 1.10373(14) 0.62403(7)
C9 C -0.02357(18) 0.59914(15) 0.62539(7)
H3 H -0.1379 0.5941 0.5950
C10 C 0.48558(18) 1.02654(13) 0.69929(7)
C11 C 0.62871(17) 0.53691(14) 0.77701(7)
H4 H 0.7539 0.6002 0.7895
H5 H 0.6452 0.4781 0.7296
C12 C 0.37397(18) 0.31916(15) 0.94624(7)
C13 C 0.67194(19) 0.20373(14) 0.91640(7)
H6 H 0.7569 0.1287 0.9271
C14 C 0.2957(2) 1.08955(15) 0.58183(8)
H7 H 0.1828 1.0336 0.6018
C15 C 0.89666(18) 0.30058(15) 0.80929(7)
H8 H 0.8589 0.2701 0.7571
H9 H 0.9736 0.2238 0.8306
H10 H 0.9738 0.4033 0.8102
C16 C 0.32020(17) 1.01826(14) 0.75560(7)
H11 H 0.2024 1.0485 0.7307
H12 H 0.3565 1.0920 0.7983
C17 C 0.10021(19) 0.48121(15) 0.61844(7)
H13 H 0.0669 0.3976 0.5834
C18 C 0.50522(19) 0.20973(15) 0.96096(7)
H14 H 0.4814 0.1395 1.0011
C19 C 0.27345(18) 0.48502(14) 0.66280(7)
H15 H 0.3556 0.4056 0.6578
C20 C 0.47932(17) 0.78984(14) 0.80653(7)
H16 H 0.4809 0.7667 0.8615
C21 C 0.14184(19) 0.84519(16) 0.85501(7)
H17 H 0.0166 0.8763 0.8395
H18 H 0.2014 0.9177 0.8943
H19 H 0.1225 0.7396 0.8748
C22 C 0.6404(2) 1.19111(16) 0.59419(8)
H20 H 0.7594 1.2015 0.6218
C23 C 0.2868(2) 1.15831(16) 0.51022(8)
H21 H 0.1690 1.1458 0.4817
C24 C 0.1958(2) 0.32953(18) 0.99541(8)
H22 H 0.2232 0.4165 1.0318
H23 H 0.1660 0.2321 1.0225
H24 H 0.0848 0.3466 0.9633
C25 C 0.6294(2) 1.26240(17) 0.52334(8)
H25 H 0.7408 1.3218 0.5040
C26 C 0.4534(2) 1.24559(17) 0.48121(8)
H26 H 0.4471 1.2928 0.4335
loop_
_geom_bond_atom_site_label_1
_geom_bond_atom_site_label_2
_geom_bond_site_symmetry_1
_geom_bond_site_symmetry_2
O1 N2 1_555 1_555
N1 C5 1_555 1_555
N2 C10 1_555 1_555
C1 C4 1_555 1_555
C2 C3 1_555 1_555
C3 C7 1_555 1_555
C4 C16 1_555 1_555
C5 C1 1_555 1_555
C6 C1 1_555 1_555
H1 C6 1_555 1_555
C7 H2 1_555 1_555
C8 C10 1_555 1_555
C9 C6 1_555 1_555
H3 C9 1_555 1_555
C10 C16 1_555 1_555
C11 N1 1_555 1_555
H4 C11 1_555 1_555
H5 C11 1_555 1_555
C12 C7 1_555 1_555
C13 C2 1_555 1_555
H6 C13 1_555 1_555
C14 C8 1_555 1_555
H7 C14 1_555 1_555
C15 C2 1_555 1_555
H8 C15 1_555 1_555
H9 C15 1_555 1_555
H10 C15 1_555 1_555
C16 H11 1_555 1_555
H12 C16 1_555 1_555
C17 C9 1_555 1_555
H13 C17 1_555 1_555
C18 C12 1_555 1_555
H14 C18 1_555 1_555
C19 C5 1_555 1_555
H15 C19 1_555 1_555
C20 O1 1_555 1_555
H16 C20 1_555 1_555
C21 C4 1_555 1_555
H17 C21 1_555 1_555
H18 C21 1_555 1_555
H19 C21 1_555 1_555
C22 C8 1_555 1_555
H20 C22 1_555 1_555
C23 C14 1_555 1_555
H21 C23 1_555 1_555
C24 C12 1_555 1_555
H22 C24 1_555 1_555
H23 C24 1_555 1_555
H24 C24 1_555 1_555
C25 C22 1_555 1_555
H25 C25 1_555 1_555
C26 C23 1_555 1_555
H26 C26 1_555 1_555
N1 C20 1_555 1_555
C3 C11 1_555 1_555
C4 C20 1_555 1_555
C13 C18 1_555 1_555
C17 C19 1_555 1_555
C25 C26 1_555 1_555

#END
