
#######################################################################
#
#                 Cambridge Crystallographic Data Centre
#                                CCDC 
#
#######################################################################
#
# If this CIF has been generated from an entry in the Cambridge 
# Structural Database, then it will include bibliographic, chemical, 
# crystal, experimental, refinement or atomic coordinate data resulting 
# from the CCDC's data processing and validation procedures.
#
#######################################################################

data_URIZUS
_chemical_formula_moiety         'C29 H17 F3 N2 O5,C3 H7 N1 O1,C3 H8 O1'
_chemical_name_systematic        
'5-(2-(5-fluoro-2-hydroxyphenyl)-4,5-bis(4-fluorophenyl)-1H-imidazol-1-yl)isophthalic acid dimethylformamide isopropanol solvate'
_symmetry_cell_setting           triclinic
_symmetry_space_group_name_H-M   'P -1'
_symmetry_Int_Tables_number      2
_space_group_name_Hall           '-P 1'
loop_
_symmetry_equiv_pos_site_id
_symmetry_equiv_pos_as_xyz
1 x,y,z
2 -x,-y,-z
_cell_length_a                   9.1127(3)
_cell_length_b                   12.7452(7)
_cell_length_c                   14.6534(9)
_cell_angle_alpha                89.060(5)
_cell_angle_beta                 89.138(4)
_cell_angle_gamma                69.885(4)
_cell_volume                     1597.79
_exptl_crystal_description       block
_cell_formula_units_Z            2
loop_
_atom_site_label
_atom_site_type_symbol
_atom_site_fract_x
_atom_site_fract_y
_atom_site_fract_z
N1 N 0.2159(3) 0.87888(19) 0.02185(16)
O1 O 0.3598(2) 0.66808(18) -0.02088(18)
H1 H 0.3446 0.7353 -0.0200
C1 C 0.1369(3) 0.7957(2) 0.3947(2)
F1 F -0.0968(2) 0.56870(16) 0.16648(16)
O2 O -0.2753(3) 1.0072(2) 0.50638(16)
H2 H -0.3608 1.0490 0.5243
C2 C 0.1718(3) 0.8097(2) 0.30377(19)
H3 H 0.2647 0.7630 0.2779
N2 N 0.1115(2) 0.91241(18) 0.15989(16)
C3 C -0.1077(3) 0.9481(2) 0.3799(2)
C4 C 0.0677(3) 0.8935(2) 0.25179(19)
C5 C 0.1435(3) 0.7262(2) 0.08675(19)
C6 C 0.0264(3) 0.6988(2) 0.1320(2)
H4 H -0.0482 0.7517 0.1670
C7 C -0.0710(3) 0.9620(2) 0.2892(2)
H5 H -0.1403 1.0178 0.2536
O3 O -0.3573(3) 1.0894(2) 0.37143(18)
C8 C 0.2491(3) 0.6457(2) 0.0305(2)
O4 O 0.3641(3) 0.6369(2) 0.41731(18)
C9 C 0.1559(3) 0.8382(2) 0.08923(19)
C10 C 0.2116(3) 0.9849(2) 0.0462(2)
C11 C 0.2792(3) 1.0489(2) -0.0141(2)
F2 F 0.4959(2) 1.21199(19) -0.18549(17)
C12 C 0.0219(4) 0.5930(3) 0.1245(2)
C13 C -0.0030(3) 0.8656(2) 0.4333(2)
H6 H -0.0260 0.8570 0.4944
C14 C 0.1294(4) 0.5117(2) 0.0741(2)
H7 H 0.1257 0.4397 0.0723
C15 C 0.3253(3) 1.0120(3) -0.1033(2)
H8 H 0.3070 0.9490 -0.1239
C16 C 0.1122(3) 1.1055(2) 0.1910(2)
C17 C -0.2607(4) 1.0229(3) 0.4180(2)
C18 C 0.1918(4) 1.1005(3) 0.2721(2)
H9 H 0.2659 1.0336 0.2914
F3 F 0.0233(3) 1.3866(2) 0.3439(2)
O5 O 0.2256(3) 0.7153(2) 0.53800(17)
H10 H 0.1574 0.6892 0.5515
C19 C 0.2423(4) 0.5389(2) 0.0265(2)
H11 H 0.3151 0.4851 -0.0088
C20 C 0.2523(4) 0.7070(3) 0.4502(2)
C21 C 0.3067(3) 1.1451(2) 0.0131(2)
H12 H 0.2768 1.1724 0.0715
C22 C 0.0026(3) 1.2057(2) 0.1632(2)
H13 H -0.0512 1.2088 0.1092
C23 C 0.1464(3) 1.0067(2) 0.13227(19)
C24 C 0.0526(5) 1.2928(3) 0.2934(3)
C25 C 0.3965(4) 1.0663(3) -0.1610(2)
H14 H 0.4272 1.0402 -0.2196
C26 C 0.3771(3) 1.2001(3) -0.0447(3)
H15 H 0.3944 1.2641 -0.0256
C27 C -0.0281(4) 1.3009(3) 0.2140(3)
H16 H -0.1012 1.3684 0.1951
C28 C 0.1602(5) 1.1958(3) 0.3243(3)
H17 H 0.2113 1.1935 0.3791
C29 C 0.4214(3) 1.1594(3) -0.1305(3)
N3 N 0.7089(3) 0.6906(3) 0.4347(2)
O6 O 0.5252(3) 0.8609(2) 0.4199(2)
C30 C 0.5889(4) 0.7729(3) 0.4636(3)
H18 H 0.5479 0.7655 0.5208
C31 C 0.7776(5) 0.6940(4) 0.3457(3)
H19 H 0.7485 0.6463 0.3050
H20 H 0.8893 0.6687 0.3506
H21 H 0.7405 0.7692 0.3222
C32 C 0.7702(7) 0.5873(5) 0.4846(4)
H22 H 0.8769 0.5746 0.5003
H23 H 0.7653 0.5271 0.4476
H24 H 0.7094 0.5910 0.5393
O7 O 0.4521(4) 0.5798(3) 0.6326(2)
H25 H 0.3630 0.5828 0.6210
C33 C 0.4736(6) 0.4950(3) 0.7831(3)
H26 H 0.3948 0.4667 0.7628
H27 H 0.4570 0.5132 0.8466
H28 H 0.5749 0.4392 0.7747
C34 C 0.4643(6) 0.5962(4) 0.7298(3)
H29 H 0.3604 0.6486 0.7457
C35 C 0.5624(9) 0.6554(6) 0.7502(5)
H30 H 0.6683 0.6113 0.7350
H31 H 0.5547 0.6716 0.8142
H32 H 0.5318 0.7240 0.7157
loop_
_geom_bond_atom_site_label_1
_geom_bond_atom_site_label_2
_geom_bond_site_symmetry_1
_geom_bond_site_symmetry_2
N1 C9 1_555 1_555
O1 H1 1_555 1_555
C1 C2 1_555 1_555
F1 C12 1_555 1_555
O2 H2 1_555 1_555
C2 H3 1_555 1_555
N2 C4 1_555 1_555
C3 C7 1_555 1_555
C4 C2 1_555 1_555
C5 C6 1_555 1_555
C6 H4 1_555 1_555
C7 C4 1_555 1_555
H5 C7 1_555 1_555
O3 C17 1_555 1_555
C8 O1 1_555 1_555
O4 C20 1_555 1_555
C9 N2 1_555 1_555
C10 N1 1_555 1_555
C11 C10 1_555 1_555
F2 C29 1_555 1_555
C12 C6 1_555 1_555
C13 C1 1_555 1_555
H6 C13 1_555 1_555
C14 C12 1_555 1_555
H7 C14 1_555 1_555
C15 C11 1_555 1_555
H8 C15 1_555 1_555
C16 C18 1_555 1_555
C17 O2 1_555 1_555
C18 H9 1_555 1_555
F3 C24 1_555 1_555
O5 H10 1_555 1_555
C19 C8 1_555 1_555
H11 C19 1_555 1_555
C20 C1 1_555 1_555
C21 C11 1_555 1_555
H12 C21 1_555 1_555
C22 C16 1_555 1_555
H13 C22 1_555 1_555
C23 N2 1_555 1_555
C24 C27 1_555 1_555
C25 C15 1_555 1_555
H14 C25 1_555 1_555
C26 C21 1_555 1_555
H15 C26 1_555 1_555
C27 C22 1_555 1_555
H16 C27 1_555 1_555
C28 C18 1_555 1_555
H17 C28 1_555 1_555
C29 C25 1_555 1_555
N3 C30 1_555 1_555
O6 C30 1_555 1_555
C30 H18 1_555 1_555
C31 N3 1_555 1_555
H19 C31 1_555 1_555
H20 C31 1_555 1_555
H21 C31 1_555 1_555
C32 N3 1_555 1_555
H22 C32 1_555 1_555
H23 C32 1_555 1_555
H24 C32 1_555 1_555
O7 H25 1_555 1_555
C33 H26 1_555 1_555
H27 C33 1_555 1_555
H28 C33 1_555 1_555
C34 O7 1_555 1_555
H29 C34 1_555 1_555
C35 C34 1_555 1_555
H30 C35 1_555 1_555
H31 C35 1_555 1_555
H32 C35 1_555 1_555
C3 C13 1_555 1_555
C3 C17 1_555 1_555
C5 C8 1_555 1_555
C5 C9 1_555 1_555
C10 C23 1_555 1_555
C14 C19 1_555 1_555
C16 C23 1_555 1_555
O5 C20 1_555 1_555
C24 C28 1_555 1_555
C26 C29 1_555 1_555
C33 C34 1_555 1_555

#END
