
#######################################################################
#
#                 Cambridge Crystallographic Data Centre
#                                CCDC 
#
#######################################################################
#
# If this CIF has been generated from an entry in the Cambridge 
# Structural Database, then it will include bibliographic, chemical, 
# crystal, experimental, refinement or atomic coordinate data resulting 
# from the CCDC's data processing and validation procedures.
#
#######################################################################

data_UROBAG
_chemical_formula_moiety         'C29 H17 F3 N2 O5'
_chemical_name_systematic        
'5-(2-(5-fluoro-2-hydroxyphenyl)-4,5-bis(4-fluorophenyl)-1H-imidazol-1-yl)isophthalic acid'
_symmetry_cell_setting           monoclinic
_symmetry_space_group_name_H-M   'P 21/n'
_symmetry_Int_Tables_number      14
_space_group_name_Hall           '-P 2yn'
loop_
_symmetry_equiv_pos_site_id
_symmetry_equiv_pos_as_xyz
1 x,y,z
2 1/2-x,1/2+y,1/2-z
3 -x,-y,-z
4 1/2+x,1/2-y,1/2+z
_cell_length_a                   14.8457(2)
_cell_length_b                   20.0452(3)
_cell_length_c                   16.2309(2)
_cell_angle_alpha                90
_cell_angle_beta                 104.7880(10)
_cell_angle_gamma                90
_cell_volume                     4670.09
_exptl_crystal_description       laminar
_cell_formula_units_Z            8
loop_
_atom_site_label
_atom_site_type_symbol
_atom_site_fract_x
_atom_site_fract_y
_atom_site_fract_z
F1 F 0.69912(11) 0.22338(8) 0.63486(12)
F2 F 0.13840(10) 0.29571(8) 0.34868(10)
F3 F 0.34995(10) 0.78515(7) 0.63034(11)
O1 O -0.02033(10) 0.57644(8) 0.37647(9)
O2 O 0.12745(10) 0.58750(8) 0.77855(8)
H1 H 0.0935 0.5912 0.8110
O3 O 0.11336(10) 0.56438(9) 0.33845(9)
O4 O 0.61308(10) 0.59510(8) 0.75404(10)
H2 H 0.5971 0.5583 0.7334
O5 O -0.00873(10) 0.58137(9) 0.68065(9)
N1 N 0.35900(11) 0.52091(9) 0.60555(10)
N2 N 0.51016(11) 0.50747(9) 0.66029(11)
C1 C 0.07668(14) 0.57444(10) 0.54945(13)
H3 H 0.0131 0.5831 0.5367
C2 C 0.21368(14) 0.54821(11) 0.50366(13)
C3 C 0.64424(17) 0.27816(13) 0.63164(17)
C4 C 0.06528(14) 0.56826(10) 0.39433(12)
C5 C 0.11990(13) 0.56369(10) 0.48472(12)
C6 C 0.12860(13) 0.57222(10) 0.63383(12)
C7 C 0.39121(15) 0.67199(12) 0.64033(14)
H4 H 0.3331 0.6615 0.6050
C8 C 0.49817(16) 0.75518(13) 0.71455(15)
H5 H 0.5111 0.7996 0.7293
C9 C 0.07631(14) 0.58129(10) 0.70027(12)
C10 C 0.54391(14) 0.63991(12) 0.72358(13)
C11 C 0.45620(14) 0.62123(11) 0.67125(13)
C12 C 0.41357(16) 0.73668(12) 0.66236(15)
C13 C 0.47437(14) 0.44819(11) 0.62410(13)
C14 C 0.56305(16) 0.70640(12) 0.74438(14)
H6 H 0.6209 0.7181 0.7792
C15 C 0.22343(14) 0.55764(11) 0.65403(13)
C16 C 0.38073(14) 0.45510(11) 0.58805(13)
C17 C 0.44050(14) 0.55145(11) 0.64799(13)
C18 C 0.31526(14) 0.41127(11) 0.52838(14)
C19 C 0.19729(15) 0.33368(12) 0.40824(15)
C20 C 0.23616(15) 0.38351(13) 0.54517(15)
H7 H 0.2228 0.3916 0.5972
C21 C 0.33326(15) 0.39892(12) 0.44957(15)
H8 H 0.3864 0.4170 0.4379
C22 C 0.53312(14) 0.38877(12) 0.62661(14)
C23 C 0.27347(16) 0.36016(13) 0.38796(16)
H9 H 0.2850 0.3526 0.3351
C24 C 0.62420(16) 0.39499(13) 0.62074(16)
H10 H 0.6481 0.4372 0.6154
C25 C 0.17699(16) 0.34390(13) 0.48496(16)
H11 H 0.1245 0.3246 0.4964
C26 C 0.55518(18) 0.26974(14) 0.6403(2)
H12 H 0.5326 0.2275 0.6478
C27 C 0.68017(17) 0.33958(14) 0.62275(17)
H13 H 0.7410 0.3441 0.6181
C28 C 0.49988(16) 0.32576(13) 0.63762(19)
H14 H 0.4394 0.3210 0.6433
H15 H 0.073(3) 0.567(2) 0.282(3)
C29 C 0.26473(14) 0.54450(10) 0.58790(12)
H16 H 0.2430(17) 0.5384(12) 0.4594(16)
H17 H 0.2564(14) 0.5541(10) 0.7113(14)
F4 F 0.29182(10) 0.22382(8) 0.76830(12)
F5 F 0.65929(10) 0.77384(7) 0.99439(11)
O6 O 1.01328(10) 0.56931(9) 1.18335(9)
F6 F 0.91741(10) 0.26429(9) 0.95065(11)
O7 O 1.01304(9) 0.58902(8) 0.88058(9)
O8 O 0.87875(10) 0.57318(9) 0.78217(9)
H18 H 0.9114 0.5811 0.7495
O9 O 0.87784(10) 0.56692(8) 1.21950(9)
O10 O 0.37831(10) 0.59909(8) 0.85736(10)
H19 H 0.3966 0.5603 0.8609
N3 N 0.64254(11) 0.51091(8) 0.93928(10)
N4 N 0.49060(11) 0.50244(9) 0.88891(10)
C30 C 0.73666(13) 0.53526(10) 0.96469(12)
C31 C 0.34943(16) 0.27637(13) 0.79595(16)
C32 C 0.92324(15) 0.57140(11) 1.01143(13)
C33 C 0.92724(14) 0.56574(11) 1.16424(12)
C34 C 0.92958(14) 0.57692(11) 0.86110(13)
C35 C 0.31472(15) 0.34017(12) 0.78361(15)
H20 H 0.2523 0.3477 0.7567
C36 C 0.69933(13) 0.39522(11) 0.92595(13)
C37 C 0.78177(14) 0.54136(10) 1.05033(12)
H21 H 0.7500 0.5331 1.0918
C38 C 0.46779(14) 0.38293(11) 0.85377(12)
C39 C 0.74432(14) 0.36907(12) 1.00538(14)
H22 H 0.7252 0.3818 1.0534
C40 C 0.50110(17) 0.75282(13) 0.92860(16)
H23 H 0.4884 0.7982 0.9291
C41 C 0.37452(14) 0.39305(12) 0.81209(13)
H24 H 0.3518 0.4364 0.8032
C42 C 0.62329(13) 0.44407(11) 0.91673(12)
C43 C 0.61226(15) 0.66283(11) 0.96149(14)
H25 H 0.6732 0.6488 0.9844
C44 C 0.55933(13) 0.54468(11) 0.91982(12)
C45 C 0.43130(16) 0.70775(12) 0.89492(15)
H26 H 0.3706 0.7229 0.8733
C46 C 0.59013(16) 0.72919(12) 0.96154(15)
C47 C 0.52811(14) 0.44004(11) 0.88580(12)
C48 C 0.81740(15) 0.32429(12) 1.01363(15)
H27 H 0.8471 0.3064 1.0665
C49 C 0.54221(14) 0.61615(11) 0.92663(12)
C50 C 0.50009(15) 0.31735(12) 0.86494(15)
H28 H 0.5623 0.3094 0.8922
C51 C 0.45028(14) 0.64002(11) 0.89277(13)
C52 C 0.44157(17) 0.26405(13) 0.83627(17)
H29 H 0.4639 0.2205 0.8440
C53 C 0.87521(14) 0.55997(10) 1.07351(12)
C54 C 0.84445(15) 0.30722(13) 0.94251(17)
C55 C 0.72786(16) 0.37513(13) 0.85498(15)
H30 H 0.6975 0.3916 0.8015
C56 C 0.80108(18) 0.33089(14) 0.86269(17)
H31 H 0.8205 0.3175 0.8151
H32 H 0.917(3) 0.5729(19) 1.278(3)
C57 C 0.87679(14) 0.56557(10) 0.92617(12)
C58 C 0.78339(14) 0.54754(10) 0.90227(12)
H33 H 0.7502(15) 0.5413(11) 0.8400(15)
H34 H 0.9864(16) 0.5834(11) 1.0290(13)
loop_
_geom_bond_atom_site_label_1
_geom_bond_atom_site_label_2
_geom_bond_site_symmetry_1
_geom_bond_site_symmetry_2
F1 C3 1_555 1_555
F2 C19 1_555 1_555
F3 C12 1_555 1_555
O1 C4 1_555 1_555
O2 H1 1_555 1_555
O3 C4 1_555 1_555
O4 H2 1_555 1_555
O5 C9 1_555 1_555
N1 C16 1_555 1_555
N2 C13 1_555 1_555
C1 H3 1_555 1_555
C2 C5 1_555 1_555
C3 C26 1_555 1_555
C4 C5 1_555 1_555
C5 C1 1_555 1_555
C6 C1 1_555 1_555
C7 H4 1_555 1_555
C8 H5 1_555 1_555
C9 O2 1_555 1_555
C10 O4 1_555 1_555
C11 C7 1_555 1_555
C12 C7 1_555 1_555
C13 C16 1_555 1_555
C14 C8 1_555 1_555
H6 C14 1_555 1_555
C15 C6 1_555 1_555
C16 C18 1_555 1_555
C17 N1 1_555 1_555
C18 C20 1_555 1_555
C19 C23 1_555 1_555
C20 H7 1_555 1_555
C21 C18 1_555 1_555
H8 C21 1_555 1_555
C22 C13 1_555 1_555
C23 C21 1_555 1_555
H9 C23 1_555 1_555
C24 C22 1_555 1_555
H10 C24 1_555 1_555
C25 C19 1_555 1_555
H11 C25 1_555 1_555
C26 H12 1_555 1_555
C27 C3 1_555 1_555
H13 C27 1_555 1_555
C28 C22 1_555 1_555
H14 C28 1_555 1_555
H15 O3 1_555 1_555
C29 N1 1_555 1_555
H16 C2 1_555 1_555
H17 C15 1_555 1_555
F4 C31 1_555 1_555
F5 C46 1_555 1_555
O6 C33 1_555 1_555
F6 C54 1_555 1_555
O7 C34 1_555 1_555
O8 H18 1_555 1_555
O9 C33 1_555 1_555
O10 H19 1_555 1_555
N3 C30 1_555 1_555
N4 C44 1_555 1_555
C30 C37 1_555 1_555
C31 C35 1_555 1_555
C32 C53 1_555 1_555
C33 C53 1_555 1_555
C34 O8 1_555 1_555
C35 H20 1_555 1_555
C36 C39 1_555 1_555
C37 H21 1_555 1_555
C38 C41 1_555 1_555
C39 H22 1_555 1_555
C40 H23 1_555 1_555
C41 C35 1_555 1_555
H24 C41 1_555 1_555
C42 N3 1_555 1_555
C43 H25 1_555 1_555
C44 N3 1_555 1_555
C45 C40 1_555 1_555
H26 C45 1_555 1_555
C46 C40 1_555 1_555
C47 N4 1_555 1_555
C48 C39 1_555 1_555
H27 C48 1_555 1_555
C49 C43 1_555 1_555
C50 C38 1_555 1_555
H28 C50 1_555 1_555
C51 O10 1_555 1_555
C52 C31 1_555 1_555
H29 C52 1_555 1_555
C53 C37 1_555 1_555
C54 C48 1_555 1_555
C55 C36 1_555 1_555
H30 C55 1_555 1_555
C56 C54 1_555 1_555
H31 C56 1_555 1_555
H32 O9 1_555 1_555
C57 C32 1_555 1_555
C58 C30 1_555 1_555
H33 C58 1_555 1_555
H34 C32 1_555 1_555
N2 C17 1_555 1_555
C2 C29 1_555 1_555
C6 C9 1_555 1_555
C8 C12 1_555 1_555
C10 C11 1_555 1_555
C10 C14 1_555 1_555
C11 C17 1_555 1_555
C15 C29 1_555 1_555
C20 C25 1_555 1_555
C24 C27 1_555 1_555
C26 C28 1_555 1_555
C34 C57 1_555 1_555
C36 C42 1_555 1_555
C38 C47 1_555 1_555
C42 C47 1_555 1_555
C43 C46 1_555 1_555
C44 C49 1_555 1_555
C45 C51 1_555 1_555
C49 C51 1_555 1_555
C50 C52 1_555 1_555
C55 C56 1_555 1_555
C57 C58 1_555 1_555

#END
