
#######################################################################
#
#                 Cambridge Crystallographic Data Centre
#                                CCDC 
#
#######################################################################
#
# If this CIF has been generated from an entry in the Cambridge 
# Structural Database, then it will include bibliographic, chemical, 
# crystal, experimental, refinement or atomic coordinate data resulting 
# from the CCDC's data processing and validation procedures.
#
#######################################################################

data_UROCUB
_chemical_formula_moiety         'C26 H25 Br1 N2 O1'
_chemical_name_systematic        
(4aR,9aR)-6-bromo-4a-ethyl-9-(2-methylbenzyl)-3-phenyl-4,4a,9,9a-tetrahydro-[1,2]oxazino[6,5-b]indole
_symmetry_cell_setting           triclinic
_symmetry_space_group_name_H-M   'P -1'
_symmetry_Int_Tables_number      2
_space_group_name_Hall           '-P 1'
loop_
_symmetry_equiv_pos_site_id
_symmetry_equiv_pos_as_xyz
1 x,y,z
2 -x,-y,-z
_cell_length_a                   9.1842(15)
_cell_length_b                   10.542(2)
_cell_length_c                   11.953(2)
_cell_angle_alpha                84.992(11)
_cell_angle_beta                 72.078(11)
_cell_angle_gamma                74.256(11)
_cell_volume                     1059.81
_exptl_crystal_colour            colorless
_exptl_crystal_description       plank
_cell_formula_units_Z            2
loop_
_atom_site_label
_atom_site_type_symbol
_atom_site_fract_x
_atom_site_fract_y
_atom_site_fract_z
Br1 Br 0.69412(3) 1.35008(2) 0.51573(2)
O1 O -0.01590(17) 1.09542(15) 0.71568(13)
N1 N 0.2264(2) 1.03875(18) 0.76807(17)
N2 N 0.0541(2) 1.10375(18) 0.58982(16)
C1 C 0.3489(2) 1.0945(2) 0.70676(19)
C2 C 0.5100(3) 1.0339(2) 0.6650(2)
C3 C 0.6122(3) 1.1117(2) 0.6070(2)
C4 C 0.5517(3) 1.2458(2) 0.5939(2)
C5 C 0.3903(2) 1.3078(2) 0.63657(19)
C6 C 0.2895(2) 1.2306(2) 0.69244(18)
C7 C 0.1100(2) 1.2677(2) 0.74449(19)
C8 C 0.0277(2) 1.3247(2) 0.6499(2)
C9 C 0.0687(2) 1.2208(2) 0.55904(19)
C10 C 0.0736(2) 1.1318(2) 0.7825(2)
H1 H 0.007(3) 1.135(2) 0.860(2)
C11 C 0.2451(3) 0.8981(2) 0.7845(2)
C12 C 0.2939(2) 0.8426(2) 0.8935(2)
C13 C 0.3115(2) 0.7077(2) 0.9196(2)
C14 C 0.3541(3) 0.6580(2) 1.0208(2)
C15 C 0.3816(3) 0.7376(3) 1.0943(2)
C16 C 0.3662(3) 0.8702(3) 1.0671(2)
C17 C 0.3228(3) 0.9223(2) 0.9674(2)
C18 C 0.2853(3) 0.6179(2) 0.8400(3)
C19 C 0.0531(3) 1.3650(2) 0.8465(2)
C20 C 0.1244(3) 1.3155(2) 0.9474(2)
C21 C 0.1333(2) 1.2445(2) 0.43104(19)
C22 C 0.2259(3) 1.3340(2) 0.3905(2)
C23 C 0.2929(3) 1.3503(2) 0.2708(2)
C24 C 0.2669(3) 1.2784(2) 0.1900(2)
C25 C 0.1724(3) 1.1906(2) 0.2300(2)
C26 C 0.1047(2) 1.1740(2) 0.3495(2)
H2 H 0.057(3) 1.409(2) 0.611(2)
H3 H 0.047(3) 1.116(3) 0.374(2)
H4 H 0.722(3) 1.075(2) 0.578(2)
H5 H 0.550(3) 0.945(3) 0.673(2)
H6 H 0.351(3) 1.400(3) 0.626(2)
H7 H 0.241(3) 1.383(2) 0.447(2)
H8 H 0.147(3) 0.880(2) 0.789(2)
H9 H -0.062(3) 1.388(2) 0.875(2)
H10 H 0.367(3) 0.611(3) 0.757(2)
H11 H 0.148(3) 1.139(2) 0.176(2)
H12 H 0.082(3) 1.234(3) 0.990(2)
H13 H 0.320(3) 0.851(2) 0.714(2)
H14 H 0.082(3) 1.446(3) 0.813(2)
H15 H 0.092(3) 1.383(3) 1.006(2)
H16 H 0.408(3) 0.696(2) 1.169(2)
H17 H 0.318(3) 1.288(3) 0.108(2)
H18 H 0.360(3) 1.409(2) 0.243(2)
H19 H 0.244(3) 1.294(3) 0.918(2)
H20 H 0.396(3) 0.926(2) 1.115(2)
H21 H 0.311(3) 1.013(3) 0.948(2)
H22 H 0.370(3) 0.573(3) 1.035(2)
H23 H -0.085(3) 1.348(2) 0.685(2)
H24 H 0.302(3) 0.531(3) 0.871(2)
H25 H 0.181(3) 0.647(3) 0.836(2)
loop_
_geom_bond_atom_site_label_1
_geom_bond_atom_site_label_2
_geom_bond_site_symmetry_1
_geom_bond_site_symmetry_2
Br1 C4 1_555 1_555
O1 N2 1_555 1_555
N1 C1 1_555 1_555
N2 C9 1_555 1_555
C1 C2 1_555 1_555
C2 C3 1_555 1_555
C3 C4 1_555 1_555
C4 C5 1_555 1_555
C5 C6 1_555 1_555
C6 C1 1_555 1_555
C7 C6 1_555 1_555
C8 C7 1_555 1_555
C9 C8 1_555 1_555
C10 O1 1_555 1_555
H1 C10 1_555 1_555
C11 N1 1_555 1_555
C12 C11 1_555 1_555
C13 C12 1_555 1_555
C14 C13 1_555 1_555
C15 C14 1_555 1_555
C16 C15 1_555 1_555
C17 C12 1_555 1_555
C18 C13 1_555 1_555
C19 C7 1_555 1_555
C20 C19 1_555 1_555
C21 C9 1_555 1_555
C22 C21 1_555 1_555
C23 C22 1_555 1_555
C24 C23 1_555 1_555
C25 C24 1_555 1_555
C26 C21 1_555 1_555
H2 C8 1_555 1_555
H3 C26 1_555 1_555
H4 C3 1_555 1_555
H5 C2 1_555 1_555
H6 C5 1_555 1_555
H7 C22 1_555 1_555
H8 C11 1_555 1_555
H9 C19 1_555 1_555
H10 C18 1_555 1_555
H11 C25 1_555 1_555
H12 C20 1_555 1_555
H13 C11 1_555 1_555
H14 C19 1_555 1_555
H15 C20 1_555 1_555
H16 C15 1_555 1_555
H17 C24 1_555 1_555
H18 C23 1_555 1_555
H19 C20 1_555 1_555
H20 C16 1_555 1_555
H21 C17 1_555 1_555
H22 C14 1_555 1_555
H23 C8 1_555 1_555
H24 C18 1_555 1_555
H25 C18 1_555 1_555
N1 C10 1_555 1_555
C7 C10 1_555 1_555
C16 C17 1_555 1_555
C25 C26 1_555 1_555

#END
