
#######################################################################
#
#                 Cambridge Crystallographic Data Centre
#                                CCDC 
#
#######################################################################
#
# If this CIF has been generated from an entry in the Cambridge 
# Structural Database, then it will include bibliographic, chemical, 
# crystal, experimental, refinement or atomic coordinate data resulting 
# from the CCDC's data processing and validation procedures.
#
#######################################################################

data_UROGOY
_chemical_formula_moiety         'C65 H39 N7 O4,3(C1 H1 Cl3)'
_chemical_name_systematic        
'1-(5-Hydroxy-3-oxo-4-((4-(10,15,20-triphenylporphyrin-5-yl)phenyl)amino)-1,3-dihydro-2H-indazol-2-yl)-9,10-anthraquinone chloroform solvate'
_symmetry_cell_setting           triclinic
_symmetry_space_group_name_H-M   'P -1'
_symmetry_Int_Tables_number      2
_space_group_name_Hall           '-P 1'
loop_
_symmetry_equiv_pos_site_id
_symmetry_equiv_pos_as_xyz
1 x,y,z
2 -x,-y,-z
_cell_length_a                   12.503(3)
_cell_length_b                   15.350(3)
_cell_length_c                   16.356(3)
_cell_angle_alpha                94.40(3)
_cell_angle_beta                 92.59(3)
_cell_angle_gamma                103.94(3)
_cell_volume                     3031.05
_cell_formula_units_Z            2
loop_
_atom_site_label
_atom_site_type_symbol
_atom_site_fract_x
_atom_site_fract_y
_atom_site_fract_z
O1 O 1.4539(3) 1.1422(2) 0.2803(2)
O2 O 1.0597(3) 0.8691(2) 0.30038(19)
O3 O 1.0520(3) 0.8880(2) 0.4811(2)
O4 O 0.7585(3) 0.5803(2) 0.4948(2)
N1 N 0.6130(3) 0.8842(3) 0.2154(2)
N2 N 0.3761(3) 0.8149(3) 0.1730(2)
N3 N 0.3765(3) 0.9800(3) 0.1003(2)
N4 N 0.6106(3) 1.0523(3) 0.1462(2)
N5 N 1.2404(3) 1.0759(3) 0.2599(2)
N6 N 1.2917(3) 0.8204(3) 0.3946(2)
N7 N 1.1799(3) 0.8065(3) 0.3766(2)
C1 C 0.7241(4) 0.9246(3) 0.2257(3)
C2 C 0.7815(4) 0.8622(3) 0.2599(3)
H1 H 0.8591 0.8719 0.2701
C3 C 0.7048(4) 0.7888(3) 0.2742(3)
H2 H 0.7173 0.7379 0.2992
C4 C 0.5992(4) 0.8011(3) 0.2446(3)
C5 C 0.4979(4) 0.7357(3) 0.2471(3)
C6 C 0.4954(4) 0.6547(4) 0.2936(3)
C7 C 0.5545(4) 0.5918(3) 0.2673(3)
H3 H 0.5963 0.6005 0.2202
C8 C 0.5514(4) 0.5159(4) 0.3111(3)
H4 H 0.5932 0.4742 0.2947
C9 C 0.4871(4) 0.5017(4) 0.3785(3)
H5 H 0.4846 0.4501 0.4077
C10 C 0.4276(4) 0.5623(4) 0.4026(3)
H6 H 0.3820 0.5520 0.4475
C11 C 0.4342(4) 0.6401(4) 0.3605(3)
H7 H 0.3953 0.6832 0.3791
C12 C 0.3952(4) 0.7431(3) 0.2130(3)
C13 C 0.2964(4) 0.6749(4) 0.2046(3)
H8 H 0.2858 0.6174 0.2251
C14 C 0.2191(4) 0.7049(4) 0.1623(3)
H9 H 0.1444 0.6729 0.1496
C15 C 0.2690(4) 0.7926(4) 0.1403(3)
C16 C 0.2169(4) 0.8482(3) 0.0968(3)
C17 C 0.0989(4) 0.8086(3) 0.0635(3)
C18 C 0.0727(4) 0.7463(4) -0.0023(3)
H10 H 0.1293 0.7236 -0.0265
C19 C -0.0346(4) 0.7156(4) -0.0346(3)
H11 H -0.0506 0.6721 -0.0808
C20 C -0.1189(4) 0.7466(3) -0.0015(3)
H12 H -0.1926 0.7259 -0.0248
C21 C -0.0939(4) 0.8079(4) 0.0657(3)
H13 H -0.1516 0.8289 0.0902
C22 C 0.0126(4) 0.8401(4) 0.0989(3)
H14 H 0.0281 0.8834 0.1454
C23 C 0.2698(4) 0.9349(3) 0.0779(3)
C24 C 0.2166(4) 0.9936(3) 0.0331(3)
H15 H 0.1428 0.9782 0.0099
C25 C 0.2881(4) 1.0712(3) 0.0304(3)
H16 H 0.2750 1.1219 0.0055
C26 C 0.3916(4) 1.0656(3) 0.0727(3)
C27 C 0.4856(4) 1.1363(3) 0.0861(3)
C28 C 0.4731(4) 1.2266(3) 0.0650(3)
C29 C 0.4627(5) 1.2487(4) -0.0153(3)
H17 H 0.4713 1.2074 -0.0593
C30 C 0.4402(5) 1.3289(4) -0.0323(3)
H18 H 0.4297 1.3410 -0.0878
C31 C 0.4330(5) 1.3914(4) 0.0296(3)
H19 H 0.4186 1.4473 0.0177
C32 C 0.4467(5) 1.3725(4) 0.1097(4)
H20 H 0.4407 1.4150 0.1535
C33 C 0.4693(4) 1.2920(4) 0.1263(3)
H21 H 0.4826 1.2814 0.1818
C34 C 0.5885(4) 1.1308(3) 0.1199(3)
C35 C 0.6857(4) 1.2019(4) 0.1338(3)
H22 H 0.6933 1.2629 0.1228
C36 C 0.7648(4) 1.1664(3) 0.1655(3)
H23 H 0.8394 1.1982 0.1788
C37 C 0.7196(4) 1.0731(3) 0.1762(3)
C38 C 0.7760(4) 1.0146(3) 0.2099(3)
C39 C 0.8991(4) 1.0454(3) 0.2265(3)
C40 C 0.9474(4) 1.0389(3) 0.3043(3)
H24 H 0.9017 1.0269 0.3490
C41 C 1.0587(4) 1.0495(3) 0.3172(3)
H25 H 1.0899 1.0422 0.3695
C42 C 1.1262(4) 1.0713(3) 0.2517(3)
C43 C 1.0800(4) 1.0897(3) 0.1783(3)
H26 H 1.1266 1.1123 0.1365
C44 C 0.9674(4) 1.0754(3) 0.1654(3)
H27 H 0.9366 1.0863 0.1142
C45 C 1.2967(4) 1.0241(3) 0.2979(3)
C46 C 1.4191(4) 1.0676(3) 0.3043(3)
C47 C 1.4945(4) 1.0176(4) 0.3427(3)
H28 H 1.5721 1.0423 0.3456
C48 C 1.4539(4) 0.9383(4) 0.3734(3)
H29 H 1.5024 0.9089 0.4001
C49 C 1.3374(4) 0.8979(3) 0.3656(3)
C50 C 1.2588(4) 0.9402(3) 0.3278(3)
C51 C 1.1521(4) 0.8749(3) 0.3301(3)
C52 C 1.1062(4) 0.7294(3) 0.3981(3)
C53 C 1.1330(5) 0.6470(3) 0.3827(3)
H30 H 1.2012 0.6448 0.3603
C54 C 1.0589(5) 0.5673(4) 0.4003(3)
H31 H 1.0798 0.5118 0.3934
C55 C 0.9562(5) 0.5682(4) 0.4274(3)
H32 H 0.9048 0.5133 0.4353
C56 C 0.9283(4) 0.6505(4) 0.4431(3)
C57 C 0.8188(4) 0.6495(3) 0.4732(3)
C58 C 0.7832(4) 0.7363(3) 0.4777(3)
C59 C 0.6747(4) 0.7369(4) 0.4910(3)
H33 H 0.6222 0.6823 0.4981
C60 C 0.6436(4) 0.8180(4) 0.4939(3)
H34 H 0.5683 0.8182 0.4995
C61 C 0.7184(5) 0.8963(4) 0.4890(3)
H35 H 0.6956 0.9511 0.4935
C62 C 0.8284(4) 0.8989(3) 0.4775(3)
H36 H 0.8807 0.9546 0.4741
C63 C 0.8603(4) 0.8177(3) 0.4711(3)
C64 C 0.9813(4) 0.8192(3) 0.4606(3)
C65 C 1.0050(4) 0.7340(3) 0.4310(3)
H39 H 1.2880(15) 1.1249(10) 0.2448(16)
C66 C 0.7022(5) 0.2655(4) 0.3507(3)
H37 H 0.6505 0.2277 0.3060
Cl1 Cl 0.78596(13) 0.20056(11) 0.39125(9)
Cl2 Cl 0.78532(15) 0.36136(11) 0.30828(10)
Cl3 Cl 0.62490(15) 0.30214(13) 0.42648(10)
C67 C 0.2051(5) 0.3667(4) 0.3102(3)
H38 H 0.2309 0.4099 0.3601
Cl4 Cl 0.29809(14) 0.29709(11) 0.29953(10)
Cl5 Cl 0.07064(14) 0.30183(12) 0.32546(10)
Cl6 Cl 0.20366(17) 0.43010(12) 0.22516(10)
C68 C 0.8675(4) 0.5550(3) 0.1264(3)
Cl7 Cl 0.7292(3) 0.4876(3) 0.1144(2)
Cl8 Cl 0.9575(4) 0.4843(4) 0.1325(4)
Cl9 Cl 0.8859(4) 0.6288(3) 0.2198(2)
C69? C 0.8675(4) 0.5550(3) 0.1264(3)
C70? C 0.8367(6) 0.4911(8) 0.1160(5)
Cl10? Cl 0.7620(6) 0.4689(6) 0.0678(5)
Cl11? Cl 0.9653(5) 0.4968(8) 0.0721(5)
Cl12? Cl 0.9642(5) 0.4973(5) 0.1680(5)
Cl13? Cl 0.8616(9) 0.5643(9) 0.2087(4)
Cl14? Cl 0.8091(7) 0.6048(7) 0.2077(6)
Cl15? Cl 0.7492(7) 0.5282(10) 0.0451(6)
loop_
_geom_bond_atom_site_label_1
_geom_bond_atom_site_label_2
_geom_bond_site_symmetry_1
_geom_bond_site_symmetry_2
O1 C46 1_555 1_555
O2 C51 1_555 1_555
O3 C64 1_555 1_555
O4 C57 1_555 1_555
N1 C1 1_555 1_555
N2 C12 1_555 1_555
N3 C23 1_555 1_555
N4 C34 1_555 1_555
N5 C42 1_555 1_555
N6 N7 1_555 1_555
N7 C51 1_555 1_555
C1 C2 1_555 1_555
C2 H1 1_555 1_555
C3 C2 1_555 1_555
H2 C3 1_555 1_555
C4 N1 1_555 1_555
C5 C4 1_555 1_555
C6 C5 1_555 1_555
C7 C6 1_555 1_555
H3 C7 1_555 1_555
C8 C7 1_555 1_555
H4 C8 1_555 1_555
C9 C8 1_555 1_555
H5 C9 1_555 1_555
C10 C9 1_555 1_555
H6 C10 1_555 1_555
C11 C6 1_555 1_555
H7 C11 1_555 1_555
C12 C5 1_555 1_555
C13 C12 1_555 1_555
H8 C13 1_555 1_555
C14 C13 1_555 1_555
H9 C14 1_555 1_555
C15 N2 1_555 1_555
C16 C15 1_555 1_555
C17 C16 1_555 1_555
C18 C17 1_555 1_555
H10 C18 1_555 1_555
C19 C18 1_555 1_555
H11 C19 1_555 1_555
C20 C19 1_555 1_555
H12 C20 1_555 1_555
C21 C20 1_555 1_555
H13 C21 1_555 1_555
C22 C17 1_555 1_555
H14 C22 1_555 1_555
C23 C16 1_555 1_555
C24 C23 1_555 1_555
H15 C24 1_555 1_555
C25 C24 1_555 1_555
H16 C25 1_555 1_555
C26 N3 1_555 1_555
C27 C26 1_555 1_555
C28 C27 1_555 1_555
C29 C28 1_555 1_555
H17 C29 1_555 1_555
C30 C29 1_555 1_555
H18 C30 1_555 1_555
C31 C30 1_555 1_555
H19 C31 1_555 1_555
C32 C31 1_555 1_555
H20 C32 1_555 1_555
C33 C28 1_555 1_555
H21 C33 1_555 1_555
C34 C27 1_555 1_555
C35 C34 1_555 1_555
H22 C35 1_555 1_555
C36 C35 1_555 1_555
H23 C36 1_555 1_555
C37 N4 1_555 1_555
C38 C1 1_555 1_555
C39 C38 1_555 1_555
C40 C39 1_555 1_555
H24 C40 1_555 1_555
C41 C40 1_555 1_555
H25 C41 1_555 1_555
C42 C41 1_555 1_555
C43 C42 1_555 1_555
H26 C43 1_555 1_555
C44 C39 1_555 1_555
H27 C44 1_555 1_555
C45 N5 1_555 1_555
C46 C45 1_555 1_555
C47 C46 1_555 1_555
H28 C47 1_555 1_555
C48 C47 1_555 1_555
H29 C48 1_555 1_555
C49 N6 1_555 1_555
C50 C45 1_555 1_555
C51 C50 1_555 1_555
C52 N7 1_555 1_555
C53 C52 1_555 1_555
H30 C53 1_555 1_555
C54 C53 1_555 1_555
H31 C54 1_555 1_555
C55 C54 1_555 1_555
H32 C55 1_555 1_555
C56 C55 1_555 1_555
C57 C56 1_555 1_555
C58 C57 1_555 1_555
C59 C58 1_555 1_555
H33 C59 1_555 1_555
C60 C59 1_555 1_555
H34 C60 1_555 1_555
C61 C60 1_555 1_555
H35 C61 1_555 1_555
C62 C61 1_555 1_555
H36 C62 1_555 1_555
C63 C58 1_555 1_555
C64 C63 1_555 1_555
C65 C52 1_555 1_555
C66 H37 1_555 1_555
Cl1 C66 1_555 1_555
Cl2 C66 1_555 1_555
Cl3 C66 1_555 1_555
C67 H38 1_555 1_555
Cl4 C67 1_555 1_555
Cl5 C67 1_555 1_555
Cl6 C67 1_555 1_555
C68 Cl7 1_555 1_555
Cl8 C68 1_555 1_555
Cl9 C68 1_555 1_555
H39 N5 1_555 1_555
C3 C4 1_555 1_555
C10 C11 1_555 1_555
C14 C15 1_555 1_555
C21 C22 1_555 1_555
C25 C26 1_555 1_555
C32 C33 1_555 1_555
C36 C37 1_555 1_555
C37 C38 1_555 1_555
C43 C44 1_555 1_555
C48 C49 1_555 1_555
C49 C50 1_555 1_555
C56 C65 1_555 1_555
C62 C63 1_555 1_555
C64 C65 1_555 1_555

#END
