
#######################################################################
#
#                 Cambridge Crystallographic Data Centre
#                                CCDC 
#
#######################################################################
#
# If this CIF has been generated from an entry in the Cambridge 
# Structural Database, then it will include bibliographic, chemical, 
# crystal, experimental, refinement or atomic coordinate data resulting 
# from the CCDC's data processing and validation procedures.
#
#######################################################################

data_UROPOI
_chemical_formula_moiety         'C19 H20 N2 O3'
_chemical_name_systematic        
2-amino-4-(3-methoxyphenyl)-7,7-dimethyl-5-oxo-5,6,7,8-tetrahydro-4H-chromene-3-carbonitrile
_chemical_properties_biological  'tested for antitumor activity in vitro'
_symmetry_cell_setting           monoclinic
_symmetry_space_group_name_H-M   'P 21/n'
_symmetry_Int_Tables_number      14
_space_group_name_Hall           '-P 2yn'
loop_
_symmetry_equiv_pos_site_id
_symmetry_equiv_pos_as_xyz
1 x,y,z
2 1/2-x,1/2+y,1/2-z
3 -x,-y,-z
4 1/2+x,1/2-y,1/2+z
_cell_length_a                   9.1689(11)
_cell_length_b                   17.5404(19)
_cell_length_c                   10.9242(9)
_cell_angle_alpha                90
_cell_angle_beta                 100.367(11)
_cell_angle_gamma                90
_cell_volume                     1728.22
_exptl_crystal_colour            colorless
_exptl_crystal_description       block
_cell_formula_units_Z            4
loop_
_atom_site_label
_atom_site_type_symbol
_atom_site_fract_x
_atom_site_fract_y
_atom_site_fract_z
C1 C 0.9806(3) 0.15794(14) 0.1647(2)
C2 C 0.9088(3) 0.16769(14) 0.0464(2)
C3 C 0.8424(3) 0.24312(15) -0.0020(2)
H1 H 0.7418 0.2333 -0.0471
C4 C 0.8305(3) 0.29335(14) 0.10784(19)
C5 C 0.8995(3) 0.27745(14) 0.2227(2)
C6 C 0.8937(3) 0.32375(15) 0.3360(2)
H2 H 0.9899 0.3221 0.3901
H3 H 0.8220 0.3013 0.3806
C7 C 0.8519(3) 0.40621(16) 0.3062(2)
C8 C 0.7164(3) 0.40672(18) 0.2014(2)
H4 H 0.6324 0.3860 0.2330
H5 H 0.6930 0.4591 0.1769
C9 C 0.7372(3) 0.36190(16) 0.0883(2)
C10 C 0.9041(3) 0.10689(15) -0.0388(2)
C11 C 0.8140(4) 0.44461(19) 0.4215(2)
H6 H 0.8998 0.4446 0.4865
H7 H 0.7350 0.4172 0.4488
H8 H 0.7833 0.4962 0.4018
C12 C 0.9807(3) 0.44790(18) 0.2650(3)
H9 H 1.0651 0.4472 0.3313
H10 H 0.9526 0.4997 0.2446
H11 H 1.0055 0.4230 0.1933
C13 C 0.9303(3) 0.27859(15) -0.0927(2)
C14 C 1.0581(3) 0.32015(17) -0.0503(2)
H12 H 1.0882 0.3280 0.0347
C15 C 1.1418(4) 0.3502(2) -0.1329(3)
C16 C 1.0974(6) 0.3371(2) -0.2592(4)
H13 H 1.1521 0.3569 -0.3157
C17 C 0.9745(6) 0.2954(2) -0.3000(3)
H14 H 0.9467 0.2862 -0.3849
C18 C 0.8882(4) 0.26588(19) -0.2187(2)
H15 H 0.8031 0.2379 -0.2489
C19 C 1.3094(5) 0.4137(3) 0.0280(5)
H16 H 1.3981 0.4438 0.0386
H17 H 1.3275 0.3681 0.0769
H18 H 1.2316 0.4424 0.0545
N1 N 1.0540(3) 0.09720(13) 0.21614(18)
H19 H 1.0602 0.0570 0.1722
H20 H 1.0954 0.0981 0.2933
N2 N 0.8976(3) 0.05874(14) -0.1101(2)
O1 O 0.9861(2) 0.21410(10) 0.25185(14)
O2 O 0.6762(2) 0.38009(13) -0.01533(15)
O3 O 1.2664(3) 0.39403(18) -0.0990(3)
loop_
_geom_bond_atom_site_label_1
_geom_bond_atom_site_label_2
_geom_bond_site_symmetry_1
_geom_bond_site_symmetry_2
C1 C2 1_555 1_555
C2 C3 1_555 1_555
C3 H1 1_555 1_555
C4 C3 1_555 1_555
C5 C4 1_555 1_555
C6 C5 1_555 1_555
H2 C6 1_555 1_555
H3 C6 1_555 1_555
C7 C6 1_555 1_555
C8 C7 1_555 1_555
H4 C8 1_555 1_555
H5 C8 1_555 1_555
C9 C4 1_555 1_555
C10 C2 1_555 1_555
C11 C7 1_555 1_555
H6 C11 1_555 1_555
H7 C11 1_555 1_555
H8 C11 1_555 1_555
C12 C7 1_555 1_555
H9 C12 1_555 1_555
H10 C12 1_555 1_555
H11 C12 1_555 1_555
C13 C3 1_555 1_555
C14 C13 1_555 1_555
H12 C14 1_555 1_555
C15 C14 1_555 1_555
C16 C15 1_555 1_555
H13 C16 1_555 1_555
C17 C16 1_555 1_555
H14 C17 1_555 1_555
C18 C13 1_555 1_555
H15 C18 1_555 1_555
C19 H16 1_555 1_555
H17 C19 1_555 1_555
H18 C19 1_555 1_555
N1 C1 1_555 1_555
H19 N1 1_555 1_555
H20 N1 1_555 1_555
N2 C10 1_555 1_555
O1 C1 1_555 1_555
O2 C9 1_555 1_555
O3 C15 1_555 1_555
C5 O1 1_555 1_555
C8 C9 1_555 1_555
C17 C18 1_555 1_555
C19 O3 1_555 1_555

#END
