
#######################################################################
#
#                 Cambridge Crystallographic Data Centre
#                                CCDC 
#
#######################################################################
#
# If this CIF has been generated from an entry in the Cambridge 
# Structural Database, then it will include bibliographic, chemical, 
# crystal, experimental, refinement or atomic coordinate data resulting 
# from the CCDC's data processing and validation procedures.
#
#######################################################################

data_URPOAD10
_chemical_formula_moiety         'C19 H24 N7 O12 P1,0.5(H2 O1)'
_chemical_name_systematic        
"Uridyl-(3'-5')-adenosine phosphate hemihydrate"
_symmetry_cell_setting           monoclinic
_symmetry_space_group_name_H-M   'P 21'
_symmetry_Int_Tables_number      4
_space_group_name_Hall           'P 2yb'
loop_
_symmetry_equiv_pos_site_id
_symmetry_equiv_pos_as_xyz
1 x,y,z
2 -x,1/2+y,-z
_cell_length_a                   16.91(2)
_cell_length_b                   12.37(1)
_cell_length_c                   11.25(1)
_cell_angle_alpha                90
_cell_angle_beta                 96.0(1)
_cell_angle_gamma                90
_cell_volume                     2340.35
_cell_formula_units_Z            4
loop_
_atom_site_label
_atom_site_type_symbol
_atom_site_fract_x
_atom_site_fract_y
_atom_site_fract_z
C1 C -0.13740 -0.02060 0.36260
C2 C -0.09320 -0.05510 0.48510
C3 C -0.00460 -0.05650 0.45930
C4 C 0.04880 -0.12770 0.53610
C5 C -0.13320 -0.66510 0.82220
C6 C -0.17910 -0.19710 0.15760
C7 C -0.14030 -0.48960 0.79730
C8 C -0.19200 -0.49270 0.69250
C9 C -0.21180 -0.59840 0.64650
C10 C -0.17160 -0.32760 0.72320
C11 C -0.07180 -0.32940 0.91270
C12 C 0.01010 -0.31590 0.86890
C13 C 0.00480 -0.20100 0.82590
C14 C -0.04560 -0.14440 0.91030
C15 C -0.09480 -0.05050 0.85880
C16 C -0.15910 -0.39610 0.16190
C22 C -0.09610 -0.38030 0.24970
C28 C -0.07720 -0.28100 0.28760
C38 C -0.08480 -0.07730 0.27780
H1 H -0.03900 -0.28000 0.35600
H2 H -0.12600 -0.02300 0.91700
H3 H -0.05900 0.00400 0.83700
H4 H -0.01300 -0.12000 0.97800
H5 H -0.02400 -0.20700 0.75000
H6 H 0.03100 -0.35900 0.80900
H7 H -0.06800 -0.37300 0.98300
H8 H -0.12000 -0.73000 0.86400
H9 H -0.17100 -0.25100 0.71500
H10 H -0.18000 0.12500 0.35000
H11 H -0.06900 -0.44000 0.28400
H12 H -0.24100 -0.30900 0.06300
H13 H -0.09000 -0.03700 0.20100
H23 H -0.19200 -0.04000 0.34400
H34 H -0.10900 -0.12300 0.51000
H38 H 0.01500 0.01600 0.46800
N1 N -0.11420 -0.18890 0.24620
N2 N -0.17960 -0.68070 0.71790
N3 N -0.10870 -0.57030 0.86820
N4 N -0.21070 -0.39420 0.64670
N5 N -0.12900 -0.37980 0.81720
N6 N -0.25300 -0.61790 0.54570
N7 N -0.19720 -0.30040 0.12150
O1 O -0.00920 -0.08480 0.33260
O2 O -0.13130 0.09090 0.34620
O3 O 0.01910 -0.23430 0.53630
O4 O -0.10350 0.02260 0.57650
O5 O -0.10030 -0.23020 0.94080
O6 O 0.06330 -0.32990 0.97600
O7 O 0.07890 -0.15590 0.81510
O8 O -0.14360 -0.08170 0.75530
O9 O -0.24460 -0.04890 0.58590
O10 O -0.18630 0.10880 0.71670
O17 O -0.21380 -0.12070 0.11750
O25 O -0.18060 -0.48260 0.11320
P1 P -0.17620 0.00480 0.65740
C17 C 0.35320 0.45570 0.13080
C18 C 0.33350 0.26210 0.14650
C19 C 0.38070 0.26320 0.26160
C20 C 0.41350 0.35740 0.29590
C21 C 0.43970 0.55810 0.27900
C23 C 0.38760 0.63040 0.34800
C24 C 0.41260 0.59640 0.47390
C25 C 0.50130 0.57340 0.47070
C26 C 0.53850 0.49900 0.56760
C27 C 0.39390 1.31030 0.81190
C29 C 0.37220 1.13520 0.79600
C30 C 0.33130 1.14220 0.68650
C31 C 0.31990 1.24570 0.63360
C32 C 0.32810 0.97590 0.73380
C33 C 0.41030 0.98100 0.93970
C34 C 0.35130 0.94190 1.02790
C35 C 0.34090 0.82150 0.99690
C36 C 0.42110 0.78740 0.95540
C37 C 0.41940 0.70120 0.86070
H14 H 0.44900 0.35300 0.36500
H15 H 0.39000 0.20200 0.30800
H16 H 0.28800 0.36100 0.01600
H17 H 0.45100 0.59800 0.20900
H18 H 0.33300 0.62000 0.32000
H19 H 0.38200 0.53400 0.48900
H20 H 0.53100 0.63800 0.48200
H21 H 0.53500 0.53100 0.64300
H22 H 0.59400 0.48900 0.55600
H24 H 0.47000 0.68900 0.83600
H25 H 0.40000 0.63500 0.89400
H26 H 0.45600 0.76000 1.02300
H27 H 0.30200 0.81000 0.93300
H28 H 0.29600 0.97000 1.02200
H29 H 0.44500 1.03200 0.97700
H30 H 0.41400 1.37200 0.85100
H31 H 0.31400 0.90100 0.73400
H32 H 0.44000 0.98000 1.12000
H33 H 0.46000 0.38000 0.60000
H35 H 0.36000 1.40000 0.68000
H36 H 0.30000 1.32000 0.48000
H37 H 0.26000 1.22000 0.48000
N8 N 0.39940 0.45360 0.23870
N9 N 0.32010 0.36010 0.09000
N10 N 0.35500 1.32950 0.70400
N11 N 0.40770 1.21870 0.86310
N12 N 0.30280 1.04200 0.64630
N13 N 0.37020 1.02830 0.82910
N14 N 0.28100 1.26300 0.52940
O11 O 0.33960 0.53910 0.07600
O12 O 0.30380 0.17820 0.09840
O13 O 0.50890 0.53070 0.35400
O14 O 0.40840 0.74000 0.32920
O15 O 0.49610 0.39590 0.55920
O16 O 0.40370 0.67080 0.56420
O18 O 0.45350 0.88570 0.90740
O19 O 0.38430 0.95510 1.14360
O20 O 0.32270 0.76370 1.09790
O21 O 0.36500 0.73120 0.75930
O22 O 0.26020 0.69400 0.59650
O23 O 0.33880 0.53770 0.69500
P2 P 0.33590 0.65080 0.65290
H39 H 0.22000 -0.40000 -0.20000
O24 O 0.21130 -0.36930 -0.09460
loop_
_geom_bond_atom_site_label_1
_geom_bond_atom_site_label_2
_geom_bond_site_symmetry_1
_geom_bond_site_symmetry_2
C1 C2 1_555 1_555
C2 C3 1_555 1_555
C3 C4 1_555 1_555
C4 O3 1_555 1_555
C5 H8 1_555 1_555
C6 N1 1_555 1_555
C7 C8 1_555 1_555
C8 C9 1_555 1_555
C9 N2 1_555 1_555
C10 H9 1_555 1_555
C11 C12 1_555 1_555
C12 C13 1_555 1_555
C13 C14 1_555 1_555
C14 C15 1_555 1_555
C15 H2 1_555 1_555
C16 C22 1_555 1_555
C17 N8 1_555 1_555
C18 C19 1_555 1_555
C19 C20 1_555 1_555
C20 H14 1_555 1_555
C21 C23 1_555 1_555
C22 C28 1_555 1_555
C23 C24 1_555 1_555
C24 C25 1_555 1_555
C25 C26 1_555 1_555
C26 H21 1_555 1_555
C27 H30 1_555 1_555
C28 H1 1_555 1_555
C29 C30 1_555 1_555
C30 C31 1_555 1_555
C31 N10 1_555 1_555
C32 H31 1_555 1_555
C33 C34 1_555 1_555
C34 C35 1_555 1_555
C35 C36 1_555 1_555
C36 C37 1_555 1_555
C37 H24 1_555 1_555
C38 C1 1_555 1_555
H3 C15 1_555 1_555
H4 C14 1_555 1_555
H5 C13 1_555 1_555
H6 C12 1_555 1_555
H7 C11 1_555 1_555
H10 O2 1_555 1_555
H11 C22 1_555 1_555
H12 N7 1_555 1_555
H13 C38 1_555 1_555
H15 C19 1_555 1_555
H16 N9 1_555 1_555
H17 C21 1_555 1_555
H18 C23 1_555 1_555
H19 C24 1_555 1_555
H20 C25 1_555 1_555
H22 C26 1_555 1_555
H23 C1 1_555 1_555
H25 C37 1_555 1_555
H26 C36 1_555 1_555
H27 C35 1_555 1_555
H28 C34 1_555 1_555
H29 C33 1_555 1_555
H32 O19 1_555 1_555
H33 O15 1_555 1_555
H34 C2 1_555 1_555
H35 N10 1_555 1_555
H36 N14 1_555 1_555
H37 N14 1_555 1_555
H38 C3 1_555 1_555
H39 O24 1_555 1_555
N1 C28 1_555 1_555
N2 C5 1_555 1_555
N3 C5 1_555 1_555
N4 C8 1_555 1_555
N5 C7 1_555 1_555
N6 C9 1_555 1_555
N7 C6 1_555 1_555
N8 C20 1_555 1_555
N9 C17 1_555 1_555
N10 C27 1_555 1_555
N11 C27 1_555 1_555
N12 C30 1_555 1_555
N13 C29 1_555 1_555
N14 C31 1_555 1_555
O1 C3 1_555 1_555
O2 C1 1_555 1_555
O4 C2 1_555 1_555
O5 C11 1_555 1_555
O6 C12 1_555 1_555
O7 C13 1_555 1_555
O8 C15 1_555 1_555
O9 P1 1_555 1_555
O10 P1 1_555 1_555
O11 C17 1_555 1_555
O12 C18 1_555 1_555
O13 C21 1_555 1_555
O14 C23 1_555 1_555
O15 C26 1_555 1_555
O16 C24 1_555 1_555
O17 C6 1_555 1_555
O18 C33 1_555 1_555
O19 C34 1_555 1_555
O20 C35 1_555 1_555
O21 C37 1_555 1_555
O22 P2 1_555 1_555
O23 P2 1_555 1_555
O25 C16 1_555 1_555
P1 O4 1_555 1_555
P2 O16 1_555 1_555
C7 N3 1_555 1_555
C10 N4 1_555 1_555
C10 N5 1_555 1_555
C11 N5 1_555 1_555
C14 O5 1_555 1_555
C16 N7 1_555 1_555
C18 N9 1_555 1_555
C21 N8 1_555 1_555
C25 O13 1_555 1_555
C29 N11 1_555 1_555
C32 N12 1_555 1_555
C32 N13 1_555 1_555
C33 N13 1_555 1_555
C36 O18 1_555 1_555
C38 N1 1_555 1_555
C38 O1 1_555 1_555
O8 P1 1_555 1_555
O21 P2 1_555 1_555

#END
