
#######################################################################
#
#                 Cambridge Crystallographic Data Centre
#                                CCDC 
#
#######################################################################
#
# If this CIF has been generated from an entry in the Cambridge 
# Structural Database, then it will include bibliographic, chemical, 
# crystal, experimental, refinement or atomic coordinate data resulting 
# from the CCDC's data processing and validation procedures.
#
#######################################################################

data_URUDER06
_chemical_name_common            'Isoniazid 4-aminosalicylic acid'
_chemical_formula_moiety         'C7 H7 N1 O3,C6 H7 N3 O1'
_chemical_name_systematic        'Isonicotinohydrazide 4-aminosalicylic acid'
_symmetry_cell_setting           orthorhombic
_symmetry_space_group_name_H-M   'P n a 21'
_symmetry_Int_Tables_number      33
_space_group_name_Hall           'P 2c -2n'
loop_
_symmetry_equiv_pos_site_id
_symmetry_equiv_pos_as_xyz
1 x,y,z
2 -x,-y,1/2+z
3 1/2-x,1/2+y,1/2+z
4 1/2+x,1/2-y,z
_cell_length_a                   21.893(2)
_cell_length_b                   16.5073(18)
_cell_length_c                   7.2990(7)
_cell_angle_alpha                90
_cell_angle_beta                 90
_cell_angle_gamma                90
_cell_volume                     2637.82
_exptl_crystal_colour            yellow
_exptl_crystal_description       block
_cell_formula_units_Z            8
loop_
_atom_site_label
_atom_site_type_symbol
_atom_site_fract_x
_atom_site_fract_y
_atom_site_fract_z
O1 O 0.42384(9) 0.00361(11) 0.1155(4)
O2 O 0.52069(8) 0.03753(11) 0.1719(4)
O3 O 0.34693(8) 0.11760(12) 0.0378(3)
N1 N 0.40881(12) 0.39032(15) 0.1433(5)
C1 C 0.44889(11) 0.14213(15) 0.1489(4)
C2 C 0.39115(11) 0.17043(16) 0.0933(4)
C3 C 0.37824(11) 0.25232(16) 0.0915(4)
C4 C 0.42197(11) 0.30913(15) 0.1438(4)
C5 C 0.47957(12) 0.28160(16) 0.2036(4)
C6 C 0.49213(11) 0.19962(16) 0.2042(4)
C7 C 0.46328(11) 0.05556(16) 0.1449(4)
H1 H 0.531(2) -0.022(3) 0.161(8)
H2 H 0.3652(16) 0.067(2) 0.056(6)
H3 H 0.4394(18) 0.425(2) 0.148(7)
H4 H 0.373(2) 0.409(2) 0.076(7)
H5 H 0.3365(13) 0.2686(17) 0.053(5)
H6 H 0.5101(12) 0.3195(16) 0.236(4)
H7 H 0.5305(12) 0.1753(16) 0.253(4)
O4 O 0.18303(9) 0.00744(12) 0.4834(4)
O5 O 0.27833(8) 0.03821(11) 0.4008(4)
O6 O 0.10159(9) 0.11850(14) 0.4905(4)
N2 N 0.16794(12) 0.39298(14) 0.4198(4)
C8 C 0.20717(10) 0.14479(14) 0.4183(4)
C9 C 0.14754(11) 0.17186(17) 0.4538(4)
C10 C 0.13462(12) 0.25430(18) 0.4545(4)
C11 C 0.17988(11) 0.31159(15) 0.4177(4)
C12 C 0.23894(12) 0.28380(16) 0.3720(4)
C13 C 0.25140(12) 0.20261(16) 0.3729(4)
C14 C 0.22230(12) 0.05809(15) 0.4352(4)
H8 H 0.287(3) -0.022(4) 0.402(11)
H9 H 0.1337(18) 0.408(2) 0.461(6)
H10 H 0.2035(17) 0.433(2) 0.408(6)
H11 H 0.127(3) 0.070(4) 0.475(12)
H12 H 0.0985(15) 0.2732(19) 0.480(5)
H13 H 0.2700(16) 0.318(2) 0.356(6)
H14 H 0.2922(15) 0.1829(19) 0.349(5)
O7 O 0.37639(9) 0.39857(13) 0.6664(4)
N3 N 0.45693(10) 0.11605(14) 0.6606(4)
N4 N 0.47730(10) 0.41988(14) 0.6508(5)
N5 N 0.47291(13) 0.50532(15) 0.6505(7)
C15 C 0.50081(12) 0.16532(17) 0.7193(4)
C16 C 0.49490(11) 0.24880(16) 0.7227(4)
C17 C 0.44039(10) 0.28272(15) 0.6622(4)
C18 C 0.39431(12) 0.23131(19) 0.6020(4)
C19 C 0.40432(12) 0.14864(18) 0.6021(5)
C20 C 0.42831(11) 0.37196(15) 0.6592(4)
H15 H 0.5374(15) 0.130(2) 0.759(5)
H16 H 0.5265(16) 0.279(2) 0.765(5)
H17 H 0.5118(19) 0.402(2) 0.637(8)
H18 H 0.450(2) 0.518(3) 0.752(8)
H19 H 0.447(2) 0.520(3) 0.546(7)
H20 H 0.3549(16) 0.256(2) 0.565(5)
H21 H 0.3743(14) 0.1113(19) 0.564(5)
O8 O 0.11407(9) 0.10625(12) 0.9168(4)
N6 N 0.20128(10) 0.38553(12) 0.9098(4)
N7 N 0.21527(11) 0.08168(13) 0.9313(4)
N8 N 0.20979(13) -0.00421(14) 0.9297(5)
C21 C 0.24304(12) 0.33406(16) 0.8456(4)
C22 C 0.23486(12) 0.25056(16) 0.8475(4)
C23 C 0.18092(11) 0.21996(13) 0.9179(4)
C24 C 0.13720(11) 0.27303(17) 0.9814(4)
C25 C 0.14860(11) 0.35570(16) 0.9759(4)
C26 C 0.16702(11) 0.13010(15) 0.9229(4)
H22 H 0.2546(18) 0.097(2) 0.951(6)
H23 H 0.183(2) -0.023(3) 1.020(6)
H24 H 0.197(3) -0.020(4) 0.818(10)
H25 H 0.2772(12) 0.3524(16) 0.808(4)
H26 H 0.2636(15) 0.215(2) 0.804(6)
H27 H 0.0991(14) 0.253(2) 1.045(5)
H28 H 0.1187(14) 0.4005(17) 1.023(5)
loop_
_geom_bond_atom_site_label_1
_geom_bond_atom_site_label_2
_geom_bond_site_symmetry_1
_geom_bond_site_symmetry_2
O1 C7 1_555 1_555
O2 C7 1_555 1_555
O3 C2 1_555 1_555
N1 C4 1_555 1_555
C1 C2 1_555 1_555
C2 C3 1_555 1_555
C3 C4 1_555 1_555
C4 C5 1_555 1_555
C5 C6 1_555 1_555
C6 C1 1_555 1_555
C7 C1 1_555 1_555
O4 C14 1_555 1_555
O5 C14 1_555 1_555
O6 C9 1_555 1_555
N2 C11 1_555 1_555
C8 C9 1_555 1_555
C9 C10 1_555 1_555
C10 C11 1_555 1_555
C11 C12 1_555 1_555
C12 C13 1_555 1_555
C13 C8 1_555 1_555
C14 C8 1_555 1_555
O7 C20 1_555 1_555
N3 C15 1_555 1_555
N4 N5 1_555 1_555
N5 H18 1_555 1_555
C15 C16 1_555 1_555
C16 C17 1_555 1_555
C17 C18 1_555 1_555
C18 C19 1_555 1_555
C19 N3 1_555 1_555
C20 N4 1_555 1_555
O8 C26 1_555 1_555
N6 C21 1_555 1_555
N7 N8 1_555 1_555
N8 H23 1_555 1_555
C21 C22 1_555 1_555
C22 C23 1_555 1_555
C23 C24 1_555 1_555
C24 C25 1_555 1_555
C25 N6 1_555 1_555
C26 N7 1_555 1_555
H1 O2 1_555 1_555
H2 O3 1_555 1_555
H3 N1 1_555 1_555
H4 N1 1_555 1_555
H5 C3 1_555 1_555
H6 C5 1_555 1_555
H7 C6 1_555 1_555
H8 O5 1_555 1_555
H9 N2 1_555 1_555
H10 N2 1_555 1_555
H11 O6 1_555 1_555
H12 C10 1_555 1_555
H13 C12 1_555 1_555
H14 C13 1_555 1_555
H15 C15 1_555 1_555
H16 C16 1_555 1_555
H17 N4 1_555 1_555
H19 N5 1_555 1_555
H20 C18 1_555 1_555
H21 C19 1_555 1_555
H22 N7 1_555 1_555
H24 N8 1_555 1_555
H25 C21 1_555 1_555
H26 C22 1_555 1_555
H27 C24 1_555 1_555
H28 C25 1_555 1_555
C17 C20 1_555 1_555
C23 C26 1_555 1_555

#END
