
#######################################################################
#
#                 Cambridge Crystallographic Data Centre
#                                CCDC 
#
#######################################################################
#
# If this CIF has been generated from an entry in the Cambridge 
# Structural Database, then it will include bibliographic, chemical, 
# crystal, experimental, refinement or atomic coordinate data resulting 
# from the CCDC's data processing and validation procedures.
#
#######################################################################

data_URUDER05
_chemical_name_common            'Isoniazid 4-aminosalicylic acid'
_chemical_formula_moiety         'C7 H7 N1 O3,C6 H7 N3 O1'
_chemical_name_systematic        'Isonicotinohydrazide 4-aminosalicylic acid'
_symmetry_cell_setting           orthorhombic
_symmetry_space_group_name_H-M   'P n a 21'
_symmetry_Int_Tables_number      33
_space_group_name_Hall           'P 2c -2n'
loop_
_symmetry_equiv_pos_site_id
_symmetry_equiv_pos_as_xyz
1 x,y,z
2 -x,-y,1/2+z
3 1/2-x,1/2+y,1/2+z
4 1/2+x,1/2-y,z
_cell_length_a                   21.893(10)
_cell_length_b                   16.515(7)
_cell_length_c                   7.283(3)
_cell_angle_alpha                90
_cell_angle_beta                 90
_cell_angle_gamma                90
_cell_volume                     2633.26
_exptl_crystal_colour            yellow
_exptl_crystal_description       block
_cell_formula_units_Z            8
loop_
_atom_site_label
_atom_site_type_symbol
_atom_site_fract_x
_atom_site_fract_y
_atom_site_fract_z
O1 O 0.11404(9) 0.10605(12) 0.9166(4)
N1 N 0.20111(10) 0.38525(13) 0.9099(4)
N2 N 0.21544(10) 0.08145(13) 0.9311(4)
N3 N 0.20981(13) -0.00458(14) 0.9292(5)
C1 C 0.24317(12) 0.33400(16) 0.8454(4)
C2 C 0.23489(12) 0.25039(16) 0.8474(4)
C3 C 0.18101(11) 0.21972(13) 0.9179(4)
C4 C 0.13699(11) 0.27275(16) 0.9816(4)
C5 C 0.14864(11) 0.35567(16) 0.9762(4)
C6 C 0.16709(11) 0.12993(15) 0.9221(4)
H1 H 0.2550(17) 0.0998(19) 0.952(6)
H2 H 0.1850(19) -0.022(2) 1.019(6)
H3 H 0.200(3) -0.027(4) 0.815(12)
H4 H 0.2773(13) 0.3545(18) 0.807(5)
H6 H 0.2657(16) 0.216(2) 0.794(6)
H10 H 0.0981(15) 0.254(2) 1.045(5)
H11 H 0.1190(13) 0.3984(17) 1.038(5)
O2 O 0.31697(9) 0.50730(12) 0.9845(4)
O3 O 0.22146(8) 0.53810(11) 0.9012(4)
O4 O 0.39837(8) 0.61792(14) 0.9900(3)
N4 N 0.33219(12) 0.89256(14) 0.9194(4)
C7 C 0.29269(10) 0.64430(14) 0.9174(4)
C8 C 0.35246(11) 0.67171(16) 0.9537(4)
C9 C 0.36544(12) 0.75410(17) 0.9544(4)
C10 C 0.32018(11) 0.81151(15) 0.9178(4)
C11 C 0.26095(12) 0.78366(16) 0.8717(4)
C12 C 0.24856(12) 0.70212(15) 0.8728(4)
C13 C 0.27757(11) 0.55791(15) 0.9356(4)
H5 H 0.211(3) 0.466(4) 0.906(11)
H7 H 0.3641(17) 0.907(2) 0.959(5)
H8 H 0.2983(16) 0.925(2) 0.918(5)
H9 H 0.372(3) 0.568(3) 0.987(11)
H12 H 0.4025(15) 0.7736(19) 0.983(5)
H13 H 0.2289(17) 0.821(2) 0.856(6)
H14 H 0.2060(15) 0.677(2) 0.843(5)
O5 O 0.42402(9) 0.00303(11) 0.1151(4)
O6 O 0.52088(8) 0.03707(11) 0.1718(4)
O7 O 0.34703(8) 0.11722(12) 0.0373(3)
N5 N 0.40873(12) 0.39017(14) 0.1437(5)
C14 C 0.44897(11) 0.14174(15) 0.1483(4)
C15 C 0.39125(11) 0.16990(16) 0.0929(4)
C16 C 0.37818(11) 0.25178(16) 0.0915(4)
C17 C 0.42213(11) 0.30873(15) 0.1447(4)
C18 C 0.47959(12) 0.28098(16) 0.2042(4)
C19 C 0.49244(11) 0.19940(16) 0.2048(4)
C20 C 0.46355(11) 0.05491(16) 0.1446(4)
H15 H 0.5315(19) -0.014(2) 0.158(8)
H16 H 0.3642(17) 0.063(2) 0.054(6)
H17 H 0.4402(17) 0.430(2) 0.153(7)
H18 H 0.373(2) 0.405(2) 0.076(7)
H19 H 0.3349(16) 0.2652(19) 0.059(5)
H20 H 0.5091(14) 0.3182(19) 0.237(5)
H21 H 0.5299(13) 0.1801(16) 0.251(4)
O8 O 0.37623(9) 0.39892(12) 0.6673(4)
N6 N 0.45681(10) 0.11621(14) 0.6600(4)
N7 N 0.47736(10) 0.42040(13) 0.6508(5)
N8 N 0.47320(12) 0.50550(14) 0.6516(6)
C21 C 0.50073(12) 0.16579(17) 0.7201(4)
C22 C 0.49502(12) 0.24926(16) 0.7229(4)
C23 C 0.44037(10) 0.28289(15) 0.6621(4)
C24 C 0.39423(12) 0.23188(18) 0.6017(4)
C25 C 0.40420(12) 0.14910(18) 0.6020(4)
C26 C 0.42827(11) 0.37243(15) 0.6596(4)
H22 H 0.5385(16) 0.132(2) 0.762(6)
H23 H 0.5245(16) 0.278(2) 0.757(6)
H24 H 0.513(2) 0.407(3) 0.629(8)
H25 H 0.444(2) 0.520(3) 0.556(7)
H26 H 0.451(2) 0.515(3) 0.757(8)
H27 H 0.3555(16) 0.252(2) 0.561(6)
H28 H 0.3732(16) 0.112(2) 0.564(6)
loop_
_geom_bond_atom_site_label_1
_geom_bond_atom_site_label_2
_geom_bond_site_symmetry_1
_geom_bond_site_symmetry_2
O1 C6 1_555 1_555
O2 C13 1_555 1_555
O3 C13 1_555 1_555
O4 C8 1_555 1_555
N1 C1 1_555 1_555
N2 N3 1_555 1_555
N3 H2 1_555 1_555
N4 C10 1_555 1_555
C1 C2 1_555 1_555
C2 C3 1_555 1_555
C3 C4 1_555 1_555
C4 C5 1_555 1_555
C5 N1 1_555 1_555
C6 N2 1_555 1_555
C7 C8 1_555 1_555
C8 C9 1_555 1_555
C9 C10 1_555 1_555
C10 C11 1_555 1_555
C11 C12 1_555 1_555
C12 C7 1_555 1_555
C13 C7 1_555 1_555
O5 C20 1_555 1_555
O6 C20 1_555 1_555
O7 C15 1_555 1_555
N5 C17 1_555 1_555
C14 C15 1_555 1_555
C15 C16 1_555 1_555
C16 C17 1_555 1_555
C17 C18 1_555 1_555
C18 C19 1_555 1_555
C19 C14 1_555 1_555
C20 C14 1_555 1_555
O8 C26 1_555 1_555
N6 C21 1_555 1_555
N7 N8 1_555 1_555
N8 H25 1_555 1_555
C21 C22 1_555 1_555
C22 C23 1_555 1_555
C23 C24 1_555 1_555
C24 C25 1_555 1_555
C25 N6 1_555 1_555
C26 N7 1_555 1_555
H1 N2 1_555 1_555
H3 N3 1_555 1_555
H4 C1 1_555 1_555
H5 O3 1_555 1_555
H6 C2 1_555 1_555
H7 N4 1_555 1_555
H8 N4 1_555 1_555
H9 O4 1_555 1_555
H10 C4 1_555 1_555
H11 C5 1_555 1_555
H12 C9 1_555 1_555
H13 C11 1_555 1_555
H14 C12 1_555 1_555
H15 O6 1_555 1_555
H16 O7 1_555 1_555
H17 N5 1_555 1_555
H18 N5 1_555 1_555
H19 C16 1_555 1_555
H20 C18 1_555 1_555
H21 C19 1_555 1_555
H22 C21 1_555 1_555
H23 C22 1_555 1_555
H24 N7 1_555 1_555
H26 N8 1_555 1_555
H27 C24 1_555 1_555
H28 C25 1_555 1_555
C3 C6 1_555 1_555
C23 C26 1_555 1_555

#END
