
#######################################################################
#
#                 Cambridge Crystallographic Data Centre
#                                CCDC 
#
#######################################################################
#
# If this CIF has been generated from an entry in the Cambridge 
# Structural Database, then it will include bibliographic, chemical, 
# crystal, experimental, refinement or atomic coordinate data resulting 
# from the CCDC's data processing and validation procedures.
#
#######################################################################

data_URUDER01
_chemical_name_common            'Isoniazid 4-aminosalicylic acid'
_chemical_formula_moiety         'C7 H7 N1 O3,C6 H7 N3 O1'
_chemical_name_systematic        'Isonicotinohydrazide 4-aminosalicylic acid'
_symmetry_cell_setting           orthorhombic
_symmetry_space_group_name_H-M   'P n a 21'
_symmetry_Int_Tables_number      33
_space_group_name_Hall           'P 2c -2n'
loop_
_symmetry_equiv_pos_site_id
_symmetry_equiv_pos_as_xyz
1 x,y,z
2 -x,-y,1/2+z
3 1/2-x,1/2+y,1/2+z
4 1/2+x,1/2-y,z
_cell_length_a                   21.845(2)
_cell_length_b                   16.5081(13)
_cell_length_c                   7.2355(6)
_cell_angle_alpha                90
_cell_angle_beta                 90
_cell_angle_gamma                90
_cell_volume                     2609.26
_exptl_crystal_colour            yellow
_exptl_crystal_description       block
_cell_formula_units_Z            8
loop_
_atom_site_label
_atom_site_type_symbol
_atom_site_fract_x
_atom_site_fract_y
_atom_site_fract_z
O1 O 0.11417(7) 0.10512(9) 0.9152(3)
N1 N 0.20078(8) 0.38487(10) 0.9103(3)
N2 N 0.21605(9) 0.08066(11) 0.9298(3)
N3 N 0.21048(10) -0.00552(11) 0.9276(4)
C1 C 0.24353(9) 0.33374(13) 0.8451(3)
C2 C 0.23527(10) 0.24993(13) 0.8472(3)
C3 C 0.18118(9) 0.21900(11) 0.9174(3)
C4 C 0.13676(9) 0.27198(14) 0.9813(3)
C5 C 0.14802(9) 0.35491(14) 0.9762(3)
C6 C 0.16710(9) 0.12930(12) 0.9217(3)
H1 H 0.2531(15) 0.0966(18) 0.947(5)
H2 H 0.193(2) -0.024(3) 0.802(7)
H3 H 0.1843(17) -0.024(2) 1.015(6)
H4 H 0.2809(11) 0.3554(15) 0.801(4)
H6 H 0.2644(11) 0.2182(15) 0.798(4)
H10 H 0.0993(13) 0.2515(17) 1.037(5)
H11 H 0.1175(12) 0.3956(15) 1.031(4)
O2 O 0.31646(7) 0.50617(9) 0.9879(3)
O3 O 0.22096(7) 0.53679(9) 0.9013(3)
O4 O 0.39842(7) 0.61668(11) 0.9903(3)
N4 N 0.33276(10) 0.89177(11) 0.9190(3)
C7 C 0.29262(9) 0.64352(12) 0.9187(3)
C8 C 0.35268(9) 0.67029(13) 0.9539(3)
C9 C 0.36585(10) 0.75279(14) 0.9543(3)
C10 C 0.32041(10) 0.81029(12) 0.9166(3)
C11 C 0.26122(10) 0.78284(13) 0.8711(3)
C12 C 0.24827(10) 0.70135(13) 0.8722(3)
C13 C 0.27699(10) 0.55677(13) 0.9370(3)
H5 H 0.210(2) 0.470(3) 0.909(9)
H7 H 0.2986(13) 0.9269(17) 0.911(5)
H8 H 0.3678(17) 0.910(2) 0.964(6)
H9 H 0.3762(18) 0.573(2) 0.987(6)
H12 H 0.4026(14) 0.7720(18) 0.982(5)
H13 H 0.2280(14) 0.8196(18) 0.849(5)
H14 H 0.2072(12) 0.6851(14) 0.844(4)
O5 O 0.42421(7) 0.00177(9) 0.1148(3)
O6 O 0.52183(7) 0.03584(9) 0.1699(3)
O7 O 0.34725(7) 0.11608(10) 0.0360(3)
N5 N 0.40920(10) 0.38898(12) 0.1452(4)
C14 C 0.44956(9) 0.14060(12) 0.1485(3)
C15 C 0.39154(9) 0.16880(13) 0.0922(3)
C16 C 0.37834(9) 0.25084(13) 0.0920(3)
C17 C 0.42238(9) 0.30765(12) 0.1452(3)
C18 C 0.48037(10) 0.28011(13) 0.2055(3)
C19 C 0.49290(9) 0.19822(13) 0.2053(3)
C20 C 0.46415(9) 0.05383(13) 0.1437(3)
H15 H 0.5340(17) -0.025(2) 0.159(7)
H16 H 0.3613(13) 0.0682(18) 0.058(5)
H17 H 0.4401(14) 0.4192(19) 0.154(6)
H18 H 0.3790(15) 0.4053(19) 0.076(5)
H19 H 0.3354(12) 0.2671(15) 0.058(4)
H20 H 0.5096(12) 0.3184(16) 0.239(4)
H21 H 0.5320(11) 0.1729(15) 0.253(4)
O8 O 0.37592(7) 0.40050(10) 0.6703(3)
N6 N 0.45631(8) 0.11739(11) 0.6588(3)
N7 N 0.47762(8) 0.42133(11) 0.6517(3)
N8 N 0.47324(9) 0.50699(12) 0.6517(4)
C21 C 0.50045(10) 0.16651(14) 0.7193(3)
C22 C 0.49491(9) 0.25011(13) 0.7239(3)
C23 C 0.44013(9) 0.28407(12) 0.6621(3)
C24 C 0.39376(10) 0.23308(14) 0.6004(3)
C25 C 0.40341(10) 0.15034(14) 0.6002(4)
C26 C 0.42818(9) 0.37355(13) 0.6609(3)
H22 H 0.5374(11) 0.1342(15) 0.762(4)
H23 H 0.5283(13) 0.2848(18) 0.762(5)
H24 H 0.5160(14) 0.4022(17) 0.630(5)
H25 H 0.4463(17) 0.521(2) 0.545(6)
H26 H 0.3554(13) 0.2582(18) 0.561(5)
H27 H 0.4538(19) 0.520(2) 0.760(7)
H28 H 0.3701(12) 0.1142(16) 0.559(4)
loop_
_geom_bond_atom_site_label_1
_geom_bond_atom_site_label_2
_geom_bond_site_symmetry_1
_geom_bond_site_symmetry_2
O1 C6 1_555 1_555
O2 C13 1_555 1_555
O3 C13 1_555 1_555
O4 C8 1_555 1_555
N1 C1 1_555 1_555
N2 N3 1_555 1_555
N3 H2 1_555 1_555
N4 C10 1_555 1_555
C1 C2 1_555 1_555
C2 C3 1_555 1_555
C3 C4 1_555 1_555
C4 C5 1_555 1_555
C5 N1 1_555 1_555
C6 N2 1_555 1_555
C7 C8 1_555 1_555
C8 C9 1_555 1_555
C9 C10 1_555 1_555
C10 C11 1_555 1_555
C11 C12 1_555 1_555
C12 C7 1_555 1_555
C13 C7 1_555 1_555
O5 C20 1_555 1_555
O6 C20 1_555 1_555
O7 C15 1_555 1_555
N5 C17 1_555 1_555
C14 C15 1_555 1_555
C15 C16 1_555 1_555
C16 C17 1_555 1_555
C17 C18 1_555 1_555
C18 C19 1_555 1_555
C19 C14 1_555 1_555
C20 C14 1_555 1_555
O8 C26 1_555 1_555
N6 C21 1_555 1_555
N7 N8 1_555 1_555
N8 H25 1_555 1_555
C21 C22 1_555 1_555
C22 C23 1_555 1_555
C23 C24 1_555 1_555
C24 C25 1_555 1_555
C25 N6 1_555 1_555
C26 N7 1_555 1_555
H1 N2 1_555 1_555
H3 N3 1_555 1_555
H4 C1 1_555 1_555
H5 O3 1_555 1_555
H6 C2 1_555 1_555
H7 N4 1_555 1_555
H8 N4 1_555 1_555
H9 O4 1_555 1_555
H10 C4 1_555 1_555
H11 C5 1_555 1_555
H12 C9 1_555 1_555
H13 C11 1_555 1_555
H14 C12 1_555 1_555
H15 O6 1_555 1_555
H16 O7 1_555 1_555
H17 N5 1_555 1_555
H18 N5 1_555 1_555
H19 C16 1_555 1_555
H20 C18 1_555 1_555
H21 C19 1_555 1_555
H22 C21 1_555 1_555
H23 C22 1_555 1_555
H24 N7 1_555 1_555
H26 C24 1_555 1_555
H27 N8 1_555 1_555
H28 C25 1_555 1_555
C3 C6 1_555 1_555
C23 C26 1_555 1_555

#END
