
#######################################################################
#
#                 Cambridge Crystallographic Data Centre
#                                CCDC 
#
#######################################################################
#
# If this CIF has been generated from an entry in the Cambridge 
# Structural Database, then it will include bibliographic, chemical, 
# crystal, experimental, refinement or atomic coordinate data resulting 
# from the CCDC's data processing and validation procedures.
#
#######################################################################

data_URUGIY
_chemical_formula_moiety         'C7 H7 N1 O3,C5 H5 N3 O1,H2 O1'
_chemical_name_systematic        
'pyrazine-2-carboxamide 4-aminosalicylic acid monohydrate'
_symmetry_cell_setting           triclinic
_symmetry_space_group_name_H-M   'P -1'
_symmetry_Int_Tables_number      2
_space_group_name_Hall           '-P 1'
loop_
_symmetry_equiv_pos_site_id
_symmetry_equiv_pos_as_xyz
1 x,y,z
2 -x,-y,-z
_cell_length_a                   6.7780(14)
_cell_length_b                   7.0380(14)
_cell_length_c                   15.050(3)
_cell_angle_alpha                96.59(3)
_cell_angle_beta                 98.42(3)
_cell_angle_gamma                105.27(3)
_cell_volume                     676.226
_exptl_crystal_colour            yellow
_exptl_crystal_description       block
_cell_formula_units_Z            2
loop_
_atom_site_label
_atom_site_type_symbol
_atom_site_fract_x
_atom_site_fract_y
_atom_site_fract_z
O1 O 0.6635(4) 0.3872(4) 0.39601(18)
O2 O 0.7902(5) 0.6749(4) 0.49239(17)
O3 O 0.6054(5) 0.3909(4) 0.22411(19)
N1 N 0.7403(7) 1.0157(6) 0.1202(3)
C1 C 0.7322(6) 0.6895(5) 0.3355(3)
C2 C 0.6707(6) 0.5934(5) 0.2448(3)
C3 C 0.6748(6) 0.7017(6) 0.1735(3)
C4 C 0.7399(6) 0.9095(6) 0.1906(3)
C5 C 0.8012(6) 1.0071(6) 0.2810(3)
C6 C 0.7986(6) 0.8989(6) 0.3511(3)
C7 C 0.7260(6) 0.5729(6) 0.4091(2)
H1 H 0.77839 0.59556 0.53027
H2 H 0.722(7) 0.949(6) 0.0645(17)
H3 H 0.804(6) 1.141(3) 0.131(3)
H4 H 0.604(8) 0.341(7) 0.271(2)
H5 H 0.63286 0.63383 0.11248
H6 H 0.84461 1.14879 0.29373
H7 H 0.84295 0.96748 0.41194
O4 O 0.0431(5) 0.4149(4) 0.10908(18)
N2 N 0.2310(5) 0.5844(5) 0.3863(2)
N3 N 0.2484(5) 0.8646(5) 0.2669(2)
N4 N 0.1412(6) 0.7332(6) 0.0836(3)
C8 C 0.2877(6) 0.7816(6) 0.4166(3)
C9 C 0.2984(6) 0.9187(6) 0.3567(3)
C10 C 0.1868(6) 0.6684(6) 0.2377(3)
C11 C 0.1808(6) 0.5288(6) 0.2966(3)
C12 C 0.1192(6) 0.5963(6) 0.1372(3)
H8 H 0.32123 0.82827 0.48026
H9 H 0.34322 1.05691 0.38099
H10 H 0.100(9) 0.703(9) 0.0240(15)
H11 H 0.211(10) 0.874(10) 0.103(4)
H12 H 0.13984 0.39075 0.27202
O5 O 0.2978(7) 0.1599(5) 0.0728(2)
H13 H 0.215(11) 0.226(11) 0.082(4)
H14 H 0.425(12) 0.218(12) 0.099(5)
loop_
_geom_bond_atom_site_label_1
_geom_bond_atom_site_label_2
_geom_bond_site_symmetry_1
_geom_bond_site_symmetry_2
O1 C7 1_555 1_555
O2 C7 1_555 1_555
O3 C2 1_555 1_555
N1 C4 1_555 1_555
C1 C2 1_555 1_555
C2 C3 1_555 1_555
C3 C4 1_555 1_555
C4 C5 1_555 1_555
C5 C6 1_555 1_555
C6 C1 1_555 1_555
C7 C1 1_555 1_555
O4 C12 1_555 1_555
N2 C8 1_555 1_555
N3 C9 1_555 1_555
N4 C12 1_555 1_555
C8 C9 1_555 1_555
C9 H9 1_555 1_555
C10 N3 1_555 1_555
C11 N2 1_555 1_555
C12 C10 1_555 1_555
O5 H13 1_555 1_555
H1 O2 1_555 1_555
H2 N1 1_555 1_555
H3 N1 1_555 1_555
H4 O3 1_555 1_555
H5 C3 1_555 1_555
H6 C5 1_555 1_555
H7 C6 1_555 1_555
H8 C8 1_555 1_555
H10 N4 1_555 1_555
H11 N4 1_555 1_555
H12 C11 1_555 1_555
H14 O5 1_555 1_555
C10 C11 1_555 1_555

#END
