
#######################################################################
#
#                 Cambridge Crystallographic Data Centre
#                                CCDC 
#
#######################################################################
#
# If this CIF has been generated from an entry in the Cambridge 
# Structural Database, then it will include bibliographic, chemical, 
# crystal, experimental, refinement or atomic coordinate data resulting 
# from the CCDC's data processing and validation procedures.
#
#######################################################################

data_URUMOK
_chemical_compound_source        'Isaria farinosa'
_chemical_name_common            'Farylhydrazone A dihydrate'
_chemical_formula_moiety         'C12 H13 N3 O5,2(H2 O1)'
_chemical_name_systematic        
'2-(2-(1-((Carboxymethyl)amino)-1-oxopropan-2-ylidene)hydrazino)benzoic acid dihydrate'
_symmetry_cell_setting           triclinic
_symmetry_space_group_name_H-M   'P -1'
_symmetry_Int_Tables_number      2
_space_group_name_Hall           '-P 1'
loop_
_symmetry_equiv_pos_site_id
_symmetry_equiv_pos_as_xyz
1 x,y,z
2 -x,-y,-z
_cell_length_a                   8.933(2)
_cell_length_b                   9.339(2)
_cell_length_c                   9.9444(18)
_cell_angle_alpha                116.449(7)
_cell_angle_beta                 100.762(11)
_cell_angle_gamma                92.763(12)
_cell_volume                     721.53
_exptl_crystal_colour            colorless
_exptl_crystal_description       block
_cell_formula_units_Z            2
loop_
_atom_site_label
_atom_site_type_symbol
_atom_site_fract_x
_atom_site_fract_y
_atom_site_fract_z
O1 O 0.35378(14) 0.54373(14) 0.72075(13)
O2 O 0.23271(14) 0.45549(14) 0.85250(14)
H1 H 0.1922 0.3804 0.7638
O3 O 0.88674(14) 1.02172(15) 0.67637(14)
O4 O 0.98270(15) 1.30916(15) 1.23510(14)
O5 O 1.15080(15) 1.48459(16) 1.22002(14)
H2 H 1.1696 1.5322 1.3170
N1 N 0.58300(16) 0.78835(16) 0.87892(15)
H3 H 0.5344 0.7112 0.7874
N2 N 0.69357(15) 0.89913(16) 0.89094(15)
N3 N 0.90626(16) 1.12334(17) 0.93348(16)
H4 H 0.8758 1.1054 1.0045
C1 C 0.42671(17) 0.68116(18) 0.99725(18)
C2 C 1.04705(18) 1.3546(2) 1.16120(19)
C3 C 0.84657(18) 1.01622(19) 0.78742(18)
C4 C 0.72400(18) 0.88690(19) 0.76474(18)
C5 C 0.54554(18) 0.79563(19) 1.01068(18)
C6 C 1.01621(18) 1.26617(19) 0.98679(19)
H5 H 0.9744 1.3364 0.9428
H6 H 1.1130 1.2359 0.9540
C7 C 0.62527(19) 0.9142(2) 1.15794(18)
H7 H 0.7053 0.9917 1.1681
C8 C 0.6481(2) 0.7580(2) 0.60636(19)
H8 H 0.5361 0.7546 0.5903
H9 H 0.6746 0.6531 0.5949
H10 H 0.6837 0.7814 0.5299
C9 C 0.5877(2) 0.9187(2) 1.28830(19)
H11 H 0.6428 0.9989 1.3876
C10 C 0.4702(2) 0.8071(2) 1.2759(2)
H12 H 0.4439 0.8120 1.3660
C11 C 0.39206(19) 0.6891(2) 1.13145(19)
H13 H 0.3131 0.6117 1.1232
C12 C 0.33677(18) 0.55559(19) 0.84442(19)
O6 O 0.05580(14) 0.21857(15) 0.59464(15)
H14 H 0.0893 0.1540 0.5200
H15 H 0.0031 0.1625 0.6207
O7 O 0.20358(16) 0.66237(17) 0.51625(15)
H16 H 0.2224 0.6221 0.5770
H17 H 0.1243 0.7071 0.5283
loop_
_geom_bond_atom_site_label_1
_geom_bond_atom_site_label_2
_geom_bond_site_symmetry_1
_geom_bond_site_symmetry_2
O1 C12 1_555 1_555
O2 H1 1_555 1_555
O3 C3 1_555 1_555
O4 C2 1_555 1_555
O5 H2 1_555 1_555
N1 H3 1_555 1_555
N2 N1 1_555 1_555
N3 H4 1_555 1_555
C1 C5 1_555 1_555
C2 O5 1_555 1_555
C3 N3 1_555 1_555
C4 N2 1_555 1_555
C5 N1 1_555 1_555
C6 N3 1_555 1_555
H5 C6 1_555 1_555
H6 C6 1_555 1_555
C7 C5 1_555 1_555
H7 C7 1_555 1_555
C8 C4 1_555 1_555
H8 C8 1_555 1_555
H9 C8 1_555 1_555
H10 C8 1_555 1_555
C9 C7 1_555 1_555
H11 C9 1_555 1_555
C10 C9 1_555 1_555
H12 C10 1_555 1_555
C11 C1 1_555 1_555
H13 C11 1_555 1_555
C12 O2 1_555 1_555
O6 H14 1_555 1_555
H15 O6 1_555 1_555
O7 H16 1_555 1_555
H17 O7 1_555 1_555
C1 C12 1_555 1_555
C2 C6 1_555 1_555
C3 C4 1_555 1_555
C10 C11 1_555 1_555

#END
