
#######################################################################
#
#                 Cambridge Crystallographic Data Centre
#                                CCDC 
#
#######################################################################
#
# If this CIF has been generated from an entry in the Cambridge 
# Structural Database, then it will include bibliographic, chemical, 
# crystal, experimental, refinement or atomic coordinate data resulting 
# from the CCDC's data processing and validation procedures.
#
#######################################################################

data_URUNAX
_chemical_compound_source        'Paraminabea acronocephala'
_chemical_name_common            Minabeolide-8
_chemical_formula_moiety         'C29 H42 O5'
_chemical_name_systematic        
'3,26-Dioxo-22,26-epoxycholest-4-en-11-yl acetate'
_symmetry_cell_setting           monoclinic
_symmetry_space_group_name_H-M   'P 21'
_symmetry_Int_Tables_number      4
_space_group_name_Hall           'P 2yb'
loop_
_symmetry_equiv_pos_site_id
_symmetry_equiv_pos_as_xyz
1 x,y,z
2 -x,1/2+y,-z
_cell_length_a                   13.846(4)
_cell_length_b                   6.1634(17)
_cell_length_c                   15.497(4)
_cell_angle_alpha                90
_cell_angle_beta                 105.886(15)
_cell_angle_gamma                90
_cell_volume                     1271.98
_exptl_crystal_colour            colorless
_exptl_crystal_description       prism
_chemical_melting_point          '260-261 deg.C'
_cell_formula_units_Z            2
loop_
_atom_site_label
_atom_site_type_symbol
_atom_site_fract_x
_atom_site_fract_y
_atom_site_fract_z
O1 O -1.07614(9) 0.0804(3) 0.11078(8)
O2 O -0.06699(8) -0.01030(17) 0.35358(7)
O3 O 0.09222(8) -0.0289(2) 0.42488(8)
O4 O -0.64176(8) -0.0642(2) 0.34757(7)
O5 O -0.58398(10) -0.3684(2) 0.42452(9)
C1 C -0.83243(11) -0.1251(3) 0.22616(10)
H1 H -0.8053 -0.2371 0.2701
H2 H -0.8199 0.0140 0.2565
C2 C -0.94583(12) -0.1579(3) 0.18979(10)
H3 H -0.9590 -0.3011 0.1632
H4 H -0.9767 -0.1495 0.2388
C3 C -0.99115(12) 0.0091(3) 0.12125(10)
C4 C -0.92947(12) 0.0733(3) 0.06261(10)
H5 H -0.9567 0.1701 0.0163
C5 C -0.83602(12) 0.0007(2) 0.07158(10)
C6 C -0.78603(12) 0.0399(3) -0.00136(10)
H6 H -0.8239 0.1485 -0.0422
H7 H -0.7874 -0.0932 -0.0351
C7 C -0.67707(11) 0.1163(3) 0.03385(10)
H8 H -0.6454 0.1121 -0.0148
H9 H -0.6766 0.2657 0.0537
C8 C -0.61576(11) -0.0220(3) 0.11158(9)
H10 H -0.6116 -0.1700 0.0898
C9 C -0.66975(11) -0.0291(3) 0.18697(9)
H11 H -0.6801 0.1223 0.2016
C10 C -0.77732(12) -0.1321(3) 0.15248(10)
C11 C -0.60225(11) -0.1313(3) 0.27393(10)
H12 H -0.6042 -0.2898 0.2688
C12 C -0.49341(11) -0.0534(3) 0.30142(10)
H13 H -0.4916 0.0958 0.3218
H14 H -0.4556 -0.1405 0.3514
C13 C -0.44284(11) -0.0665(2) 0.22598(10)
C14 C -0.50987(12) 0.0666(3) 0.14769(10)
H15 H -0.5169 0.2105 0.1721
C15 C -0.44500(12) 0.0972(3) 0.08328(10)
H16 H -0.4637 0.2282 0.0480
H17 H -0.4513 -0.0259 0.0431
C16 C -0.33693(12) 0.1147(3) 0.14562(10)
H18 H -0.3110 0.2603 0.1437
H19 H -0.2929 0.0133 0.1270
C17 C -0.34275(11) 0.0598(3) 0.24197(10)
H20 H -0.3514 0.1974 0.2706
C18 C -0.43049(12) -0.3015(3) 0.20000(11)
H21 H -0.3967 -0.3052 0.1536
H22 H -0.4954 -0.3678 0.1786
H23 H -0.3916 -0.3794 0.2515
C19 C -0.77188(13) -0.3682(3) 0.12227(11)
H24 H -0.7296 -0.4506 0.1706
H25 H -0.7446 -0.3717 0.0716
H26 H -0.8381 -0.4299 0.1057
C20 C -0.24522(11) -0.0438(3) 0.29972(10)
H27 H -0.2342 -0.1769 0.2692
C21 C -0.24983(13) -0.1084(3) 0.39363(11)
H28 H -0.2986 -0.2215 0.3892
H29 H -0.2686 0.0152 0.4231
H30 H -0.1851 -0.1596 0.4277
C22 C -0.15679(11) 0.1070(3) 0.30278(10)
H31 H -0.1521 0.1254 0.2413
C23 C -0.15872(12) 0.3284(3) 0.34248(12)
H32 H -0.1609 0.3164 0.4043
H33 H -0.2176 0.4075 0.3090
C24 C -0.06410(12) 0.4461(3) 0.33775(12)
H34 H -0.0653 0.5933 0.3596
H35 H -0.0618 0.4534 0.2758
C25 C 0.02940(12) 0.3303(3) 0.39376(11)
H36 H 0.0369 0.3726 0.4562
C26 C 0.02164(12) 0.0862(3) 0.39080(10)
C27 C 0.12436(13) 0.4057(3) 0.37098(11)
H37 H 0.1349 0.5572 0.3847
H38 H 0.1172 0.3830 0.3083
H39 H 0.1808 0.3243 0.4056
C28 C -0.62107(13) -0.1922(3) 0.42138(11)
C29 C -0.65125(14) -0.0821(4) 0.49534(11)
H40 H -0.7228 -0.0631 0.4785
H41 H -0.6191 0.0570 0.5066
H42 H -0.6314 -0.1692 0.5486
loop_
_geom_bond_atom_site_label_1
_geom_bond_atom_site_label_2
_geom_bond_site_symmetry_1
_geom_bond_site_symmetry_2
O1 C3 1_555 1_555
O2 C22 1_555 1_555
O3 C26 1_555 1_555
O4 C11 1_555 1_555
O5 C28 1_555 1_555
C1 H1 1_555 1_555
H2 C1 1_555 1_555
C2 C1 1_555 1_555
H3 C2 1_555 1_555
H4 C2 1_555 1_555
C3 C2 1_555 1_555
C4 C3 1_555 1_555
H5 C4 1_555 1_555
C5 C4 1_555 1_555
C6 C5 1_555 1_555
H6 C6 1_555 1_555
H7 C6 1_555 1_555
C7 C6 1_555 1_555
H8 C7 1_555 1_555
H9 C7 1_555 1_555
C8 C7 1_555 1_555
H10 C8 1_555 1_555
C9 C8 1_555 1_555
H11 C9 1_555 1_555
C10 C1 1_555 1_555
C11 C9 1_555 1_555
H12 C11 1_555 1_555
C12 C11 1_555 1_555
H13 C12 1_555 1_555
H14 C12 1_555 1_555
C13 C12 1_555 1_555
C14 C8 1_555 1_555
H15 C14 1_555 1_555
C15 C14 1_555 1_555
H16 C15 1_555 1_555
H17 C15 1_555 1_555
C16 C15 1_555 1_555
H18 C16 1_555 1_555
H19 C16 1_555 1_555
C17 C13 1_555 1_555
H20 C17 1_555 1_555
C18 C13 1_555 1_555
H21 C18 1_555 1_555
H22 C18 1_555 1_555
H23 C18 1_555 1_555
C19 C10 1_555 1_555
H24 C19 1_555 1_555
H25 C19 1_555 1_555
H26 C19 1_555 1_555
C20 C17 1_555 1_555
H27 C20 1_555 1_555
C21 C20 1_555 1_555
H28 C21 1_555 1_555
H29 C21 1_555 1_555
H30 C21 1_555 1_555
C22 C20 1_555 1_555
H31 C22 1_555 1_555
C23 C22 1_555 1_555
H32 C23 1_555 1_555
H33 C23 1_555 1_555
C24 C23 1_555 1_555
H34 C24 1_555 1_555
H35 C24 1_555 1_555
C25 C24 1_555 1_555
H36 C25 1_555 1_555
C26 O2 1_555 1_555
C27 C25 1_555 1_555
H37 C27 1_555 1_555
H38 C27 1_555 1_555
H39 C27 1_555 1_555
C28 O4 1_555 1_555
C29 C28 1_555 1_555
H40 C29 1_555 1_555
H41 C29 1_555 1_555
H42 C29 1_555 1_555
C5 C10 1_555 1_555
C9 C10 1_555 1_555
C13 C14 1_555 1_555
C16 C17 1_555 1_555
C25 C26 1_555 1_555

#END
