
#######################################################################
#
#                 Cambridge Crystallographic Data Centre
#                                CCDC 
#
#######################################################################
#
# If this CIF has been generated from an entry in the Cambridge 
# Structural Database, then it will include bibliographic, chemical, 
# crystal, experimental, refinement or atomic coordinate data resulting 
# from the CCDC's data processing and validation procedures.
#
#######################################################################

data_URUQOP
_chemical_formula_moiety         'C18 H17 N1 O2 S1'
_chemical_name_systematic        4-(9-phenanthrylsulfinyl)morpholine
_symmetry_cell_setting           monoclinic
_symmetry_space_group_name_H-M   'P 21/c'
_symmetry_Int_Tables_number      14
_space_group_name_Hall           '-P 2ybc'
loop_
_symmetry_equiv_pos_site_id
_symmetry_equiv_pos_as_xyz
1 x,y,z
2 -x,1/2+y,1/2-z
3 -x,-y,-z
4 x,1/2-y,1/2+z
_cell_length_a                   7.1683(9)
_cell_length_b                   10.3931(12)
_cell_length_c                   19.491(2)
_cell_angle_alpha                90
_cell_angle_beta                 90.929(2)
_cell_angle_gamma                90
_cell_volume                     1451.91
_exptl_crystal_colour            colorless
_exptl_crystal_description       plate
_cell_formula_units_Z            4
loop_
_atom_site_label
_atom_site_type_symbol
_atom_site_fract_x
_atom_site_fract_y
_atom_site_fract_z
S1 S 0.44986(5) 0.71309(4) 0.34995(2)
O1 O 0.49764(17) 0.79260(11) 0.28934(6)
O2 O -0.00042(16) 0.48745(11) 0.24789(6)
N1 N 0.26114(17) 0.62074(12) 0.33285(6)
C1 C 0.3485(2) 0.82117(14) 0.41062(7)
C2 C 0.3177(2) 0.77887(14) 0.47990(7)
C3 C 0.3377(2) 0.64908(15) 0.49958(8)
H1 H 0.3662 0.5861 0.4660
C4 C 0.3166(2) 0.61256(16) 0.56659(8)
H2 H 0.3314 0.5248 0.5792
C5 C 0.2733(2) 0.70409(17) 0.61630(8)
H3 H 0.2619 0.6789 0.6629
C6 C 0.2473(2) 0.83037(16) 0.59790(8)
H4 H 0.2150 0.8913 0.6320
C7 C 0.2675(2) 0.87184(15) 0.52961(7)
C8 C 0.2420(2) 1.00558(14) 0.50911(8)
C9 C 0.1868(2) 1.10267(16) 0.55523(8)
H5 H 0.1646 1.0814 0.6018
C10 C 0.1648(2) 1.22754(16) 0.53345(9)
H6 H 0.1264 1.2913 0.5651
C11 C 0.1980(2) 1.26236(16) 0.46556(9)
H7 H 0.1842 1.3493 0.4514
C12 C 0.2507(2) 1.17011(15) 0.41960(9)
H8 H 0.2727 1.1935 0.3733
C13 C 0.2727(2) 1.04101(15) 0.44017(8)
C14 C 0.3294(2) 0.94584(14) 0.39175(8)
H9 H 0.3539 0.9704 0.3458
C15 C 0.0995(2) 0.68707(14) 0.30120(8)
H10 H 0.1350 0.7246 0.2566
H11 H 0.0578 0.7577 0.3314
C16 C -0.0568(2) 0.59066(15) 0.29061(9)
H12 H -0.0949 0.5562 0.3356
H13 H -0.1660 0.6343 0.2694
C17 C 0.3179(2) 0.51062(15) 0.29000(8)
H14 H 0.4214 0.4634 0.3129
H15 H 0.3620 0.5419 0.2451
C18 C 0.1531(2) 0.42218(15) 0.27934(9)
H16 H 0.1902 0.3490 0.2501
H17 H 0.1146 0.3872 0.3242
loop_
_geom_bond_atom_site_label_1
_geom_bond_atom_site_label_2
_geom_bond_site_symmetry_1
_geom_bond_site_symmetry_2
S1 O1 1_555 1_555
O2 C16 1_555 1_555
N1 S1 1_555 1_555
C1 S1 1_555 1_555
C2 C1 1_555 1_555
C3 C2 1_555 1_555
H1 C3 1_555 1_555
C4 C3 1_555 1_555
H2 C4 1_555 1_555
C5 C4 1_555 1_555
H3 C5 1_555 1_555
C6 C5 1_555 1_555
H4 C6 1_555 1_555
C7 C2 1_555 1_555
C8 C7 1_555 1_555
C9 C8 1_555 1_555
H5 C9 1_555 1_555
C10 C9 1_555 1_555
H6 C10 1_555 1_555
C11 C10 1_555 1_555
H7 C11 1_555 1_555
C12 C11 1_555 1_555
H8 C12 1_555 1_555
C13 C8 1_555 1_555
C14 C1 1_555 1_555
H9 C14 1_555 1_555
C15 N1 1_555 1_555
H10 C15 1_555 1_555
H11 C15 1_555 1_555
C16 C15 1_555 1_555
H12 C16 1_555 1_555
H13 C16 1_555 1_555
C17 N1 1_555 1_555
H14 C17 1_555 1_555
H15 C17 1_555 1_555
C18 O2 1_555 1_555
H16 C18 1_555 1_555
H17 C18 1_555 1_555
C6 C7 1_555 1_555
C12 C13 1_555 1_555
C13 C14 1_555 1_555
C17 C18 1_555 1_555

#END
