
#######################################################################
#
#                 Cambridge Crystallographic Data Centre
#                                CCDC 
#
#######################################################################
#
# If this CIF has been generated from an entry in the Cambridge 
# Structural Database, then it will include bibliographic, chemical, 
# crystal, experimental, refinement or atomic coordinate data resulting 
# from the CCDC's data processing and validation procedures.
#
#######################################################################

data_URURIK
_chemical_formula_moiety         'C32 H38 N2 O4 S1'
_chemical_name_systematic        
2,7-dioctylbenzo[lmn]thieno[2,3-f][3,8]phenanthroline-1,3,6,8(2H,7H)-tetrone
_symmetry_cell_setting           monoclinic
_symmetry_space_group_name_H-M   'P 21/n'
_symmetry_Int_Tables_number      14
_space_group_name_Hall           '-P 2yn'
loop_
_symmetry_equiv_pos_site_id
_symmetry_equiv_pos_as_xyz
1 x,y,z
2 1/2-x,1/2+y,1/2-z
3 -x,-y,-z
4 1/2+x,1/2-y,1/2+z
_cell_length_a                   21.7114(4)
_cell_length_b                   4.96590(10)
_cell_length_c                   26.7513(5)
_cell_angle_alpha                90
_cell_angle_beta                 90.2752(9)
_cell_angle_gamma                90
_cell_volume                     2884.2
_exptl_crystal_colour            yellow
_exptl_crystal_description       needle
_cell_formula_units_Z            4
loop_
_atom_site_label
_atom_site_type_symbol
_atom_site_fract_x
_atom_site_fract_y
_atom_site_fract_z
S1 S 0.79688(4) -0.5309(2) 0.28641(4)
C1 C 0.91749(17) -0.6032(18) 0.2960(4)
H1 H 0.9576 -0.6745 0.2909
O1 O 0.70646(7) -0.2303(3) 0.32995(6)
O2 O 1.02878(8) -0.4576(4) 0.34817(7)
C2 C 0.80639(10) -0.1417(4) 0.36007(7)
C3 C 0.89966(10) -0.3793(4) 0.33275(7)
N1 N 0.71374(8) 0.0843(4) 0.39088(7)
N2 N 1.03519(8) -0.1253(4) 0.40595(7)
C4 C 0.94292(10) 0.1252(4) 0.42990(8)
O3 O 1.04261(7) 0.2168(3) 0.46186(6)
C5 C 0.84290(10) 0.0109(4) 0.39337(7)
C6 C 0.93557(10) -0.2319(4) 0.36646(7)
C7 C 0.83446(10) -0.3326(4) 0.32995(7)
O4 O 0.72342(8) 0.4419(4) 0.44367(7)
C8 C 0.85178(11) 0.3649(5) 0.45518(8)
H2 H 0.8333 0.5012 0.4750
C9 C 0.90746(10) -0.0332(4) 0.39643(7)
C10 C 0.73955(10) -0.1022(4) 0.35838(8)
C11 C 0.74846(11) 0.2598(5) 0.42069(8)
C12 C 1.00239(11) -0.2828(5) 0.37178(8)
C13 C 1.01000(11) 0.0818(4) 0.43429(8)
C14 C 0.81560(10) 0.2122(4) 0.42337(8)
C15 C 0.91495(11) 0.3212(5) 0.45850(8)
H3 H 0.9391 0.4275 0.4807
C16 C 1.10199(10) -0.1774(5) 0.41045(9)
H4 H 1.1097 -0.3730 0.4071
H5 H 1.1165 -0.1206 0.4440
C17 C 0.64581(11) 0.0997(6) 0.39270(10)
H6 H 0.6336 0.1840 0.4247
H7 H 0.6289 -0.0855 0.3922
C18 C 0.61718(10) 0.2583(5) 0.34993(10)
H8 H 0.6364 0.4389 0.3485
H9 H 0.6260 0.1653 0.3180
C19 C 0.86297(10) -0.6826(5) 0.27126(8)
H10 H 0.8637 -0.8197 0.2465
C20 C 0.54798(11) 0.2896(6) 0.35555(11)
H11 H 0.5288 0.1087 0.3560
H12 H 0.5393 0.3766 0.3880
C21 C 0.51874(11) 0.4546(6) 0.31421(11)
H13 H 0.5404 0.6296 0.3122
H14 H 0.5252 0.3600 0.2821
C22 C 0.45081(13) 0.5081(7) 0.31997(12)
H15 H 0.4440 0.5997 0.3523
H16 H 0.4288 0.3336 0.3210
C23 C 1.13753(12) -0.0287(6) 0.37120(11)
H17 H 1.1280 0.1657 0.3738
H18 H 1.1237 -0.0908 0.3378
C24 C 0.42289(12) 0.6798(7) 0.27842(11)
H19 H 0.4455 0.8529 0.2770
H20 H 0.4291 0.5866 0.2461
C25 C 1.23507(17) 0.0537(11) 0.42175(17)
H21 H 1.2220 -0.0522 0.4512
H22 H 1.2196 0.2398 0.4260
C26 C 0.35546(14) 0.7384(8) 0.28426(14)
H23 H 0.3328 0.5655 0.2838
H24 H 0.3490 0.8213 0.3175
C27 C 1.20679(14) -0.0668(9) 0.37532(15)
H25 H 1.2160 -0.2620 0.3747
H26 H 1.2264 0.0154 0.3457
C28 C 0.32829(16) 0.9181(9) 0.24570(15)
H27 H 0.3522 1.0852 0.2440
H28 H 0.2856 0.9600 0.2545
H29 H 0.3291 0.8278 0.2131
C29 C 1.3056(2) 0.0587(15) 0.4197(2)
H30 H 1.3200 -0.1267 0.4128
H31 H 1.3178 0.1716 0.3909
C30 C 1.4056(2) 0.1597(17) 0.4574(2)
H32 H 1.4218 -0.0261 0.4551
H33 H 1.4175 0.2570 0.4266
C31 C 1.3360(2) 0.1498(14) 0.4606(2)
H34 H 1.3248 0.0339 0.4893
H35 H 1.3210 0.3336 0.4681
C32 C 1.4318(3) 0.2873(18) 0.4987(3)
H36 H 1.4355 0.4805 0.4919
H37 H 1.4727 0.2113 0.5052
H38 H 1.4055 0.2598 0.5279
C33? C 0.81197(18) -0.540(3) 0.2913(5)
H39? H 0.7702 -0.5691 0.2821
S2? S 0.93051(13) -0.6157(13) 0.2948(2)
H40? H 0.8579 -0.8113 0.2453
loop_
_geom_bond_atom_site_label_1
_geom_bond_atom_site_label_2
_geom_bond_site_symmetry_1
_geom_bond_site_symmetry_2
S1 C7 1_555 1_555
C1 H1 1_555 1_555
O1 C10 1_555 1_555
O2 C12 1_555 1_555
C2 C5 1_555 1_555
C3 C1 1_555 1_555
N1 C10 1_555 1_555
N2 C12 1_555 1_555
C4 C9 1_555 1_555
O3 C13 1_555 1_555
C5 C9 1_555 1_555
C6 C3 1_555 1_555
C7 C2 1_555 1_555
O4 C11 1_555 1_555
C8 H2 1_555 1_555
C9 C6 1_555 1_555
C10 C2 1_555 1_555
C11 N1 1_555 1_555
C12 C6 1_555 1_555
C13 N2 1_555 1_555
C14 C5 1_555 1_555
C15 C4 1_555 1_555
H3 C15 1_555 1_555
C16 N2 1_555 1_555
H4 C16 1_555 1_555
H5 C16 1_555 1_555
C17 N1 1_555 1_555
H6 C17 1_555 1_555
H7 C17 1_555 1_555
C18 C17 1_555 1_555
H8 C18 1_555 1_555
H9 C18 1_555 1_555
C19 S1 1_555 1_555
H10 C19 1_555 1_555
C20 C18 1_555 1_555
H11 C20 1_555 1_555
H12 C20 1_555 1_555
C21 C20 1_555 1_555
H13 C21 1_555 1_555
H14 C21 1_555 1_555
C22 C21 1_555 1_555
H15 C22 1_555 1_555
H16 C22 1_555 1_555
C23 C16 1_555 1_555
H17 C23 1_555 1_555
H18 C23 1_555 1_555
C24 C22 1_555 1_555
H19 C24 1_555 1_555
H20 C24 1_555 1_555
C25 H21 1_555 1_555
H22 C25 1_555 1_555
C26 C24 1_555 1_555
H23 C26 1_555 1_555
H24 C26 1_555 1_555
C27 C23 1_555 1_555
H25 C27 1_555 1_555
H26 C27 1_555 1_555
C28 C26 1_555 1_555
H27 C28 1_555 1_555
H28 C28 1_555 1_555
H29 C28 1_555 1_555
C29 C25 1_555 1_555
H30 C29 1_555 1_555
H31 C29 1_555 1_555
C30 H32 1_555 1_555
H33 C30 1_555 1_555
C31 C29 1_555 1_555
H34 C31 1_555 1_555
H35 C31 1_555 1_555
C32 C30 1_555 1_555
H36 C32 1_555 1_555
H37 C32 1_555 1_555
H38 C32 1_555 1_555
C1 C19 1_555 1_555
C3 C7 1_555 1_555
C4 C13 1_555 1_555
C8 C14 1_555 1_555
C8 C15 1_555 1_555
C11 C14 1_555 1_555
C25 C27 1_555 1_555
C30 C31 1_555 1_555

#END
