
#######################################################################
#
#                 Cambridge Crystallographic Data Centre
#                                CCDC 
#
#######################################################################
#
# If this CIF has been generated from an entry in the Cambridge 
# Structural Database, then it will include bibliographic, chemical, 
# crystal, experimental, refinement or atomic coordinate data resulting 
# from the CCDC's data processing and validation procedures.
#
#######################################################################

data_URUREG
_chemical_formula_moiety         'C17 H16 O1'
_chemical_name_systematic        2-(diphenylmethylene)tetrahydrofuran
_symmetry_cell_setting           monoclinic
_symmetry_space_group_name_H-M   'P 21/n'
_symmetry_Int_Tables_number      14
_space_group_name_Hall           '-P 2yn'
loop_
_symmetry_equiv_pos_site_id
_symmetry_equiv_pos_as_xyz
1 x,y,z
2 1/2-x,1/2+y,1/2-z
3 -x,-y,-z
4 1/2+x,1/2-y,1/2+z
_cell_length_a                   6.0680(6)
_cell_length_b                   24.331(3)
_cell_length_c                   8.6078(8)
_cell_angle_alpha                90
_cell_angle_beta                 93.387(8)
_cell_angle_gamma                90
_cell_volume                     1268.64
_cell_formula_units_Z            4
loop_
_atom_site_label
_atom_site_type_symbol
_atom_site_fract_x
_atom_site_fract_y
_atom_site_fract_z
C1 C 1.2399(5) 0.76953(11) 0.5768(3)
H1 H 1.1492 0.8023 0.5490
H2 H 1.3977 0.7791 0.5704
C2 C 1.1956(4) 0.74973(12) 0.7382(3)
H3 H 1.1578 0.7806 0.8066
H4 H 1.3240 0.7297 0.7865
C3 C 0.9989(4) 0.71159(10) 0.7058(3)
H5 H 0.9979 0.6816 0.7833
H6 H 0.8578 0.7320 0.7062
C4 C 1.0373(3) 0.68976(9) 0.5465(2)
C5 C 0.9546(3) 0.64412(9) 0.4782(2)
C6 C 0.9981(3) 0.62523(9) 0.3191(2)
C7 C 1.1947(4) 0.63570(10) 0.2474(3)
H7 H 1.3083 0.6562 0.3014
C8 C 1.2261(4) 0.61661(10) 0.0987(3)
H8 H 1.3606 0.6244 0.0520
C9 C 1.0646(4) 0.58641(10) 0.0173(3)
H9 H 1.0876 0.5733 -0.0844
C10 C 0.8691(4) 0.57565(11) 0.0861(3)
H10 H 0.7562 0.5553 0.0308
C11 C 0.8365(4) 0.59424(10) 0.2346(3)
H11 H 0.7020 0.5859 0.2806
C12 C 0.8015(3) 0.60936(9) 0.5665(2)
C13 C 0.8568(4) 0.55522(10) 0.6019(3)
H12 H 0.9940 0.5410 0.5724
C14 C 0.7154(4) 0.52160(10) 0.6797(3)
H13 H 0.7560 0.4847 0.7029
C15 C 0.5151(4) 0.54182(11) 0.7235(3)
H14 H 0.4173 0.5188 0.7761
C16 C 0.4586(4) 0.59564(11) 0.6901(3)
H15 H 0.3220 0.6098 0.7210
C17 C 0.5998(4) 0.62924(10) 0.6119(3)
H16 H 0.5586 0.6662 0.5891
O1 O 1.1806(2) 0.72404(7) 0.47434(18)
loop_
_geom_bond_atom_site_label_1
_geom_bond_atom_site_label_2
_geom_bond_site_symmetry_1
_geom_bond_site_symmetry_2
C1 H1 1_555 1_555
H2 C1 1_555 1_555
C2 C1 1_555 1_555
H3 C2 1_555 1_555
H4 C2 1_555 1_555
C3 C2 1_555 1_555
H5 C3 1_555 1_555
H6 C3 1_555 1_555
C4 C3 1_555 1_555
C5 C4 1_555 1_555
C6 C5 1_555 1_555
C7 C6 1_555 1_555
H7 C7 1_555 1_555
C8 C7 1_555 1_555
H8 C8 1_555 1_555
C9 C8 1_555 1_555
H9 C9 1_555 1_555
C10 C9 1_555 1_555
H10 C10 1_555 1_555
C11 C6 1_555 1_555
H11 C11 1_555 1_555
C12 C5 1_555 1_555
C13 C12 1_555 1_555
H12 C13 1_555 1_555
C14 C13 1_555 1_555
H13 C14 1_555 1_555
C15 C14 1_555 1_555
H14 C15 1_555 1_555
C16 C15 1_555 1_555
H15 C16 1_555 1_555
C17 C12 1_555 1_555
H16 C17 1_555 1_555
O1 C1 1_555 1_555
C4 O1 1_555 1_555
C10 C11 1_555 1_555
C16 C17 1_555 1_555

#END
