
#######################################################################
#
#                 Cambridge Crystallographic Data Centre
#                                CCDC 
#
#######################################################################
#
# If this CIF has been generated from an entry in the Cambridge 
# Structural Database, then it will include bibliographic, chemical, 
# crystal, experimental, refinement or atomic coordinate data resulting 
# from the CCDC's data processing and validation procedures.
#
#######################################################################

data_URUSEG
_chemical_compound_source        'Talaromyces flavus'
_chemical_name_common            'talaperoxide B'
_chemical_formula_moiety         'C16 H24 O5'
_chemical_name_systematic        
'(2S,3S,6R,7R)-2,2,6-Trimethyl-5-oxo-7,8-dioxatricyclo[7.3.1.0^1,6^]tridec-10-yl acetate'
_symmetry_cell_setting           monoclinic
_symmetry_space_group_name_H-M   'P 21'
_symmetry_Int_Tables_number      4
_space_group_name_Hall           'P 2yb'
loop_
_symmetry_equiv_pos_site_id
_symmetry_equiv_pos_as_xyz
1 x,y,z
2 -x,1/2+y,-z
_cell_length_a                   8.73800(10)
_cell_length_b                   12.27280(10)
_cell_length_c                   14.31590(10)
_cell_angle_alpha                90
_cell_angle_beta                 97.1630(10)
_cell_angle_gamma                90
_cell_volume                     1523.25
_exptl_crystal_colour            colorless
_exptl_crystal_description       block
_cell_formula_units_Z            4
loop_
_atom_site_label
_atom_site_type_symbol
_atom_site_fract_x
_atom_site_fract_y
_atom_site_fract_z
C1 C 0.63206(16) 0.59681(11) 0.44748(9)
C2 C 0.78806(17) 0.63409(11) 0.49682(10)
C3 C 0.92468(18) 0.58647(13) 0.45593(12)
H1 H 1.0204 0.6062 0.4969
H2 H 0.9302 0.6190 0.3932
C4 C 0.91591(17) 0.46107(13) 0.44602(12)
H3 H 0.9982 0.4366 0.4092
H4 H 0.9368 0.4282 0.5095
C5 C 0.76000(16) 0.41821(11) 0.39819(10)
C6 C 0.62763(15) 0.46852(11) 0.45026(9)
C7 C 0.46531(16) 0.43485(11) 0.40757(10)
H5 H 0.4486 0.4545 0.3400
H6 H 0.4528 0.3550 0.4131
C8 C 0.34815(16) 0.49369(11) 0.46019(10)
H7 H 0.2433 0.4758 0.4275
C9 C 0.35650(16) 0.45068(11) 0.55943(10)
H8 H 0.3230 0.3727 0.5572
C10 C 0.51717(16) 0.45870(12) 0.61405(10)
H9 H 0.5234 0.4096 0.6693
H10 H 0.5342 0.5341 0.6377
C11 C 0.64562(16) 0.42847(11) 0.55434(10)
H11 H 0.6547 0.3481 0.5540
H12 H 0.7441 0.4575 0.5864
C12 C 0.60119(18) 0.65260(12) 0.35073(10)
H13 H 0.5285 0.6086 0.3088
H14 H 0.6983 0.6597 0.3236
H15 H 0.5571 0.7251 0.3581
C13 C 0.74616(19) 0.44270(14) 0.29195(11)
H16 H 0.7697 0.5197 0.2824
H17 H 0.6409 0.4270 0.2630
H18 H 0.8191 0.3970 0.2628
C14 C 0.7638(2) 0.29254(13) 0.40590(14)
H19 H 0.8479 0.2640 0.3736
H20 H 0.6654 0.2626 0.3766
H21 H 0.7807 0.2713 0.4724
C15 C 0.18261(17) 0.46221(13) 0.67520(11)
C16 C 0.0976(2) 0.53996(15) 0.73030(13)
H22 H 0.0276 0.4993 0.7659
H23 H 0.0379 0.5906 0.6871
H24 H 0.1715 0.5809 0.7740
O1 O 0.79988(14) 0.69766(10) 0.56202(8)
O2 O 0.51947(11) 0.63803(7) 0.50412(7)
O3 O 0.36696(11) 0.60945(8) 0.45489(7)
O4 O 0.19202(15) 0.36577(10) 0.68839(9)
O5 O 0.25080(12) 0.51400(8) 0.60865(7)
C17 C 0.67281(17) 0.65799(11) 0.96658(10)
C18 C 0.62020(19) 0.62180(12) 0.86616(11)
C19 C 0.7203(2) 0.66590(14) 0.79597(12)
H25 H 0.6786 0.6418 0.7318
H26 H 0.8260 0.6364 0.8103
C20 C 0.7258(2) 0.79108(14) 0.79926(10)
H27 H 0.6239 0.8196 0.7722
H28 H 0.8026 0.8165 0.7588
C21 C 0.76698(17) 0.83990(12) 0.89828(10)
C22 C 0.65968(16) 0.78640(10) 0.96688(9)
C23 C 0.69608(18) 0.82320(12) 1.06943(10)
H29 H 0.8046 0.8059 1.0932
H30 H 0.6814 0.9029 1.0740
C24 C 0.58790(19) 0.76384(12) 1.12768(10)
H31 H 0.6187 0.7842 1.1950
C25 C 0.42459(19) 0.80263(12) 1.10093(11)
H32 H 0.4199 0.8822 1.1155
C26 C 0.36634(18) 0.78594(13) 0.99791(11)
H33 H 0.2716 0.8296 0.9812
H34 H 0.3396 0.7082 0.9867
C27 C 0.48906(16) 0.81999(12) 0.93453(10)
H35 H 0.4856 0.9003 0.9281
H36 H 0.4587 0.7890 0.8711
C28 C 0.8276(2) 0.60363(14) 1.00358(12)
H37 H 0.8788 0.6459 1.0566
H38 H 0.8938 0.6011 0.9531
H39 H 0.8087 0.5293 1.0245
C29 C 0.94060(19) 0.82563(15) 0.92942(12)
H40 H 0.9679 0.7484 0.9261
H41 H 0.9656 0.8515 0.9943
H42 H 0.9990 0.8679 0.8878
C30 C 0.7408(2) 0.96413(13) 0.88999(14)
H43 H 0.7583 0.9972 0.9527
H44 H 0.6346 0.9785 0.8619
H45 H 0.8127 0.9955 0.8501
C31 C 0.20898(19) 0.79807(13) 1.18816(11)
C32 C 0.1253(2) 0.72911(15) 1.25197(12)
H46 H 0.0390 0.7706 1.2717
H47 H 0.1963 0.7083 1.3075
H48 H 0.0858 0.6634 1.2183
O6 O 0.50643(14) 0.56631(9) 0.84474(8)
O7 O 0.55978(12) 0.61519(8) 1.02193(7)
O8 O 0.60594(13) 0.64788(9) 1.12051(7)
O9 O 0.17517(17) 0.88987(11) 1.16475(11)
O10 O 0.32862(13) 0.74413(9) 1.16057(8)
loop_
_geom_bond_atom_site_label_1
_geom_bond_atom_site_label_2
_geom_bond_site_symmetry_1
_geom_bond_site_symmetry_2
C1 C2 1_555 1_555
C2 C3 1_555 1_555
C3 H1 1_555 1_555
H2 C3 1_555 1_555
C4 C3 1_555 1_555
H3 C4 1_555 1_555
H4 C4 1_555 1_555
C5 C4 1_555 1_555
C6 C1 1_555 1_555
C7 C6 1_555 1_555
H5 C7 1_555 1_555
H6 C7 1_555 1_555
C8 C7 1_555 1_555
H7 C8 1_555 1_555
C9 C8 1_555 1_555
H8 C9 1_555 1_555
C10 C9 1_555 1_555
H9 C10 1_555 1_555
H10 C10 1_555 1_555
C11 C6 1_555 1_555
H11 C11 1_555 1_555
H12 C11 1_555 1_555
C12 C1 1_555 1_555
H13 C12 1_555 1_555
H14 C12 1_555 1_555
H15 C12 1_555 1_555
C13 C5 1_555 1_555
H16 C13 1_555 1_555
H17 C13 1_555 1_555
H18 C13 1_555 1_555
C14 C5 1_555 1_555
H19 C14 1_555 1_555
H20 C14 1_555 1_555
H21 C14 1_555 1_555
C15 C16 1_555 1_555
C16 H22 1_555 1_555
H23 C16 1_555 1_555
H24 C16 1_555 1_555
O1 C2 1_555 1_555
O2 C1 1_555 1_555
O3 C8 1_555 1_555
O4 C15 1_555 1_555
O5 C9 1_555 1_555
C17 C18 1_555 1_555
C18 C19 1_555 1_555
C19 H25 1_555 1_555
H26 C19 1_555 1_555
C20 C19 1_555 1_555
H27 C20 1_555 1_555
H28 C20 1_555 1_555
C21 C20 1_555 1_555
C22 C17 1_555 1_555
C23 C22 1_555 1_555
H29 C23 1_555 1_555
H30 C23 1_555 1_555
C24 C23 1_555 1_555
H31 C24 1_555 1_555
C25 C24 1_555 1_555
H32 C25 1_555 1_555
C26 C25 1_555 1_555
H33 C26 1_555 1_555
H34 C26 1_555 1_555
C27 C22 1_555 1_555
H35 C27 1_555 1_555
H36 C27 1_555 1_555
C28 C17 1_555 1_555
H37 C28 1_555 1_555
H38 C28 1_555 1_555
H39 C28 1_555 1_555
C29 C21 1_555 1_555
H40 C29 1_555 1_555
H41 C29 1_555 1_555
H42 C29 1_555 1_555
C30 C21 1_555 1_555
H43 C30 1_555 1_555
H44 C30 1_555 1_555
H45 C30 1_555 1_555
C31 C32 1_555 1_555
C32 H46 1_555 1_555
H47 C32 1_555 1_555
H48 C32 1_555 1_555
O6 C18 1_555 1_555
O7 C17 1_555 1_555
O8 C24 1_555 1_555
O9 C31 1_555 1_555
O10 C25 1_555 1_555
C5 C6 1_555 1_555
C10 C11 1_555 1_555
C15 O5 1_555 1_555
O2 O3 1_555 1_555
C21 C22 1_555 1_555
C26 C27 1_555 1_555
C31 O10 1_555 1_555
O7 O8 1_555 1_555

#END
