
#######################################################################
#
#                 Cambridge Crystallographic Data Centre
#                                CCDC 
#
#######################################################################
#
# If this CIF has been generated from an entry in the Cambridge 
# Structural Database, then it will include bibliographic, chemical, 
# crystal, experimental, refinement or atomic coordinate data resulting 
# from the CCDC's data processing and validation procedures.
#
#######################################################################

data_URUYEM
_chemical_formula_moiety         'C25 H20 N4 S1'
_chemical_name_systematic        
4-(1,3-Benzothiazol-2-yl)-N,N-bis(pyridin-2-ylmethyl)aniline
_symmetry_cell_setting           monoclinic
_symmetry_space_group_name_H-M   'P 21'
_symmetry_Int_Tables_number      4
_space_group_name_Hall           'P 2yb'
loop_
_symmetry_equiv_pos_site_id
_symmetry_equiv_pos_as_xyz
1 x,y,z
2 -x,1/2+y,-z
_cell_length_a                   10.0651(6)
_cell_length_b                   6.0997(4)
_cell_length_c                   16.8565(10)
_cell_angle_alpha                90
_cell_angle_beta                 91.991(12)
_cell_angle_gamma                90
_cell_volume                     1034.26
_exptl_crystal_colour            colorless
_exptl_crystal_description       block
_cell_formula_units_Z            2
loop_
_atom_site_label
_atom_site_type_symbol
_atom_site_fract_x
_atom_site_fract_y
_atom_site_fract_z
C1 C 0.7072(3) 0.5632(7) 1.0000(2)
C2 C 0.7865(4) 0.6165(7) 1.0667(2)
H1 H 0.7751 0.7484 1.0934
C3 C 0.8823(4) 0.4681(9) 1.0921(3)
H2 H 0.9355 0.4993 1.1369
C4 C 0.9000(4) 0.2761(8) 1.0522(3)
H3 H 0.9667 0.1803 1.0696
C5 C 0.8210(3) 0.2206(9) 0.9865(2)
H4 H 0.8330 0.0874 0.9609
C6 C 0.7238(3) 0.3658(7) 0.9594(2)
C7 C 0.5601(3) 0.4999(6) 0.8827(2)
C8 C 0.4599(3) 0.5253(6) 0.8173(2)
C9 C 0.3853(3) 0.7153(8) 0.8076(2)
H5 H 0.3994 0.8305 0.8431
C10 C 0.2915(3) 0.7380(7) 0.7473(2)
H6 H 0.2441 0.8684 0.7423
C11 C 0.2657(3) 0.5685(6) 0.6930(2)
C12 C 0.3416(3) 0.3769(6) 0.7024(2)
H7 H 0.3285 0.2620 0.6668
C13 C 0.4354(3) 0.3558(6) 0.7635(2)
H8 H 0.4832 0.2259 0.7689
C14 C 0.1344(4) 0.4140(6) 0.5795(2)
H9 H 0.0485 0.4459 0.5542
H10 H 0.1248 0.2820 0.6108
C15 C 0.2329(4) 0.3693(7) 0.5155(2)
N1 N 0.2189(4) 0.1717(6) 0.48145(19)
C16 C 0.3005(6) 0.1286(10) 0.4228(3)
H11 H 0.2927 -0.0080 0.3985
C17 C 0.3940(6) 0.2672(13) 0.3954(3)
H12 H 0.4455 0.2286 0.3528
C18 C 0.4096(5) 0.4622(12) 0.4317(3)
H13 H 0.4757 0.5583 0.4163
C19 C 0.0947(3) 0.7952(6) 0.6236(2)
H14 H 0.0537 0.7985 0.5707
H15 H 0.1561 0.9175 0.6278
C20 C -0.0128(3) 0.8288(6) 0.6832(2)
C21 C -0.0553(4) 0.6626(6) 0.7315(2)
H16 H -0.0164 0.5244 0.7298
C22 C -0.1575(3) 0.7055(9) 0.7829(2)
H17 H -0.1880 0.5971 0.8165
C23 C -0.2124(4) 0.9128(8) 0.7827(3)
H18 H -0.2816 0.9458 0.8158
C24 C -0.1643(4) 1.0686(8) 0.7334(3)
N2 N 0.6394(3) 0.3343(5) 0.89333(17)
N3 N -0.0649(3) 1.0298(6) 0.6839(2)
N4 N 0.1703(3) 0.5931(5) 0.63239(17)
C25 C 0.3252(4) 0.5201(9) 0.4934(2)
H19 H 0.3320 0.6560 0.5182
S1 S 0.58036(9) 0.71303(18) 0.95370(5)
loop_
_geom_bond_atom_site_label_1
_geom_bond_atom_site_label_2
_geom_bond_site_symmetry_1
_geom_bond_site_symmetry_2
C1 C2 1_555 1_555
C2 H1 1_555 1_555
C3 C2 1_555 1_555
H2 C3 1_555 1_555
C4 C3 1_555 1_555
H3 C4 1_555 1_555
C5 C4 1_555 1_555
H4 C5 1_555 1_555
C6 C1 1_555 1_555
C7 C8 1_555 1_555
C8 C9 1_555 1_555
C9 H5 1_555 1_555
C10 C9 1_555 1_555
H6 C10 1_555 1_555
C11 C10 1_555 1_555
C12 C11 1_555 1_555
H7 C12 1_555 1_555
C13 C8 1_555 1_555
H8 C13 1_555 1_555
C14 H9 1_555 1_555
H10 C14 1_555 1_555
C15 C14 1_555 1_555
N1 C15 1_555 1_555
C16 N1 1_555 1_555
H11 C16 1_555 1_555
C17 C16 1_555 1_555
H12 C17 1_555 1_555
C18 C17 1_555 1_555
H13 C18 1_555 1_555
C19 H14 1_555 1_555
H15 C19 1_555 1_555
C20 C19 1_555 1_555
C21 C20 1_555 1_555
H16 C21 1_555 1_555
C22 C21 1_555 1_555
H17 C22 1_555 1_555
C23 C22 1_555 1_555
H18 C23 1_555 1_555
C24 C23 1_555 1_555
N2 C6 1_555 1_555
N3 C20 1_555 1_555
N4 C11 1_555 1_555
C25 C15 1_555 1_555
H19 C25 1_555 1_555
S1 C1 1_555 1_555
C5 C6 1_555 1_555
C7 N2 1_555 1_555
C7 S1 1_555 1_555
C12 C13 1_555 1_555
C14 N4 1_555 1_555
C18 C25 1_555 1_555
C19 N4 1_555 1_555
C24 N3 1_555 1_555

#END
