
#######################################################################
#
#                 Cambridge Crystallographic Data Centre
#                                CCDC 
#
#######################################################################
#
# If this CIF has been generated from an entry in the Cambridge 
# Structural Database, then it will include bibliographic, chemical, 
# crystal, experimental, refinement or atomic coordinate data resulting 
# from the CCDC's data processing and validation procedures.
#
#######################################################################

data_USAGAX
_chemical_formula_moiety         'C23 H30 O8'
_chemical_name_systematic        
"8-Hydroxy-4a,7-dimethyl-3,4,4a,5,7,8,9,10a-octahydro-1H-azuleno[5',6':3,4]benzo[1,2-b]oxete-4,5,10b(2aH)-triyl triacetate"
_symmetry_cell_setting           monoclinic
_symmetry_space_group_name_H-M   'P 21'
_symmetry_Int_Tables_number      4
_space_group_name_Hall           'P 2yb'
loop_
_symmetry_equiv_pos_site_id
_symmetry_equiv_pos_as_xyz
1 x,y,z
2 -x,1/2+y,-z
_cell_length_a                   10.304(1)
_cell_length_b                   10.498(1)
_cell_length_c                   11.017(1)
_cell_angle_alpha                90
_cell_angle_beta                 109.24(1)
_cell_angle_gamma                90
_cell_volume                     1125.16
_exptl_crystal_colour            colorless
_exptl_crystal_description       block
_cell_formula_units_Z            2
loop_
_atom_site_label
_atom_site_type_symbol
_atom_site_fract_x
_atom_site_fract_y
_atom_site_fract_z
O1 O -0.2713(8) -0.0288(8) -0.8796(6)
H1 H -0.2028 -0.0257 -0.8151
O2 O -0.5563(4) -0.1071(5) -0.3763(4)
O3 O -0.4658(7) -0.2606(7) -0.2309(6)
O4 O -0.3558(7) 0.1229(5) -0.2701(6)
O5 O -0.0046(4) -0.1707(4) -0.1723(4)
O6 O -0.0266(7) -0.2935(11) -0.0141(8)
O7 O -0.1829(4) -0.3733(4) -0.3840(4)
O8 O 0.0270(7) -0.4593(7) -0.3165(8)
C1 C -0.2455(6) -0.2252(5) -0.6656(5)
C2 C -0.2488(8) -0.2494(7) -0.8025(6)
H2 H -0.1562 -0.2362 -0.8067
C3 C -0.3426(9) -0.1454(9) -0.8803(7)
H3 H -0.3887 -0.1741 -0.9687
C4 C -0.4488(7) -0.1237(9) -0.8102(6)
H4 H -0.4823 -0.0367 -0.8209
H5 H -0.5262 -0.1814 -0.8420
C5 C -0.3677(5) -0.1515(6) -0.6707(4)
C6 C -0.4114(5) -0.1154(6) -0.5729(5)
H6 H -0.4910 -0.0664 -0.5959
C7 C -0.3481(5) -0.1441(5) -0.4315(5)
H7 H -0.3761 -0.2312 -0.4200
C8 C -0.1889(5) -0.1424(5) -0.3735(5)
C9 C -0.1265(5) -0.2572(5) -0.4227(5)
H8 H -0.0275 -0.2568 -0.3758
C10 C -0.1440(7) -0.2701(6) -0.5629(6)
H9 H -0.0751 -0.3152 -0.5814
C11 C -0.4213(5) -0.0565(5) -0.3600(5)
C12 C -0.3420(6) -0.0067(6) -0.2223(5)
H10 H -0.3952 -0.0199 -0.1643
C13 C -0.1938(6) -0.0468(6) -0.1597(5)
H11 H -0.1346 0.0251 -0.1595
H12 H -0.1795 -0.0698 -0.0710
C14 C -0.1524(5) -0.1576(5) -0.2261(5)
H13 H -0.1957 -0.2353 -0.2083
C15 C -0.4377(8) 0.0846(7) -0.3984(7)
H14 H -0.3965 0.1065 -0.4631
H15 H -0.5320 0.1143 -0.4236
C16 C -0.2942(19) -0.3829(10) -0.8470(10)
H16 H -0.2938 -0.3940 -0.9334
H17 H -0.3854 -0.3967 -0.8445
H18 H -0.2323 -0.4430 -0.7914
C17 C -0.1234(6) -0.0211(6) -0.4079(5)
H19 H -0.0253 -0.0258 -0.3698
H20 H -0.1568 0.0524 -0.3757
H21 H -0.1475 -0.0148 -0.4996
C18 C -0.0933(8) -0.4675(7) -0.3288(7)
C19 C -0.1623(16) -0.5749(12) -0.2875(14)
H22 H -0.0961 -0.6400 -0.2492
H23 H -0.2327 -0.6092 -0.3608
H24 H -0.2028 -0.5450 -0.2258
C20 C -0.5626(7) -0.2097(7) -0.3047(7)
C21 C -0.7076(9) -0.2527(10) -0.3302(11)
H25 H -0.7084 -0.3255 -0.2777
H26 H -0.7477 -0.2752 -0.4192
H27 H -0.7597 -0.1850 -0.3100
C22 C 0.0448(7) -0.2416(8) -0.0647(7)
C23 C 0.1980(7) -0.2410(9) -0.0166(7)
H28 H 0.2306 -0.2925 0.0595
H29 H 0.2305 -0.1553 0.0033
H30 H 0.2316 -0.2749 -0.0815
loop_
_geom_bond_atom_site_label_1
_geom_bond_atom_site_label_2
_geom_bond_site_symmetry_1
_geom_bond_site_symmetry_2
O1 H1 1_555 1_555
O2 C11 1_555 1_555
O3 C20 1_555 1_555
O4 C12 1_555 1_555
O5 C14 1_555 1_555
O6 C22 1_555 1_555
O7 C9 1_555 1_555
O8 C18 1_555 1_555
C1 C2 1_555 1_555
C2 H2 1_555 1_555
C3 O1 1_555 1_555
H3 C3 1_555 1_555
C4 C3 1_555 1_555
H4 C4 1_555 1_555
H5 C4 1_555 1_555
C5 C1 1_555 1_555
C6 C5 1_555 1_555
H6 C6 1_555 1_555
C7 C6 1_555 1_555
H7 C7 1_555 1_555
C8 C7 1_555 1_555
C9 C8 1_555 1_555
H8 C9 1_555 1_555
C10 C1 1_555 1_555
H9 C10 1_555 1_555
C11 C7 1_555 1_555
C12 C11 1_555 1_555
H10 C12 1_555 1_555
C13 C12 1_555 1_555
H11 C13 1_555 1_555
H12 C13 1_555 1_555
C14 C8 1_555 1_555
H13 C14 1_555 1_555
C15 O4 1_555 1_555
H14 C15 1_555 1_555
H15 C15 1_555 1_555
C16 C2 1_555 1_555
H16 C16 1_555 1_555
H17 C16 1_555 1_555
H18 C16 1_555 1_555
C17 C8 1_555 1_555
H19 C17 1_555 1_555
H20 C17 1_555 1_555
H21 C17 1_555 1_555
C18 O7 1_555 1_555
C19 C18 1_555 1_555
H22 C19 1_555 1_555
H23 C19 1_555 1_555
H24 C19 1_555 1_555
C20 O2 1_555 1_555
C21 C20 1_555 1_555
H25 C21 1_555 1_555
H26 C21 1_555 1_555
H27 C21 1_555 1_555
C22 O5 1_555 1_555
C23 C22 1_555 1_555
H28 C23 1_555 1_555
H29 C23 1_555 1_555
H30 C23 1_555 1_555
C2 C3 1_555 1_555
C4 C5 1_555 1_555
C9 C10 1_555 1_555
C11 C15 1_555 1_555
C13 C14 1_555 1_555

#END
