
#######################################################################
#
#                 Cambridge Crystallographic Data Centre
#                                CCDC 
#
#######################################################################
#
# If this CIF has been generated from an entry in the Cambridge 
# Structural Database, then it will include bibliographic, chemical, 
# crystal, experimental, refinement or atomic coordinate data resulting 
# from the CCDC's data processing and validation procedures.
#
#######################################################################

data_USAJUU
_chemical_formula_moiety         'C17 H15 N1 O2'
_chemical_name_systematic        
3-(Amino(phenyl)methylene)-4-phenyldihydrofuran-2(3H)-one
_symmetry_cell_setting           monoclinic
_symmetry_space_group_name_H-M   'P 21/c'
_symmetry_Int_Tables_number      14
_space_group_name_Hall           '-P 2ybc'
loop_
_symmetry_equiv_pos_site_id
_symmetry_equiv_pos_as_xyz
1 x,y,z
2 -x,1/2+y,1/2-z
3 -x,-y,-z
4 x,1/2-y,1/2+z
_cell_length_a                   6.0057(9)
_cell_length_b                   10.3248(15)
_cell_length_c                   22.742(3)
_cell_angle_alpha                90
_cell_angle_beta                 93.277(3)
_cell_angle_gamma                90
_cell_volume                     1407.87
_exptl_crystal_colour            colorless
_exptl_crystal_description       block
_cell_formula_units_Z            4
loop_
_atom_site_label
_atom_site_type_symbol
_atom_site_fract_x
_atom_site_fract_y
_atom_site_fract_z
C1 C 0.1724(4) -0.04087(19) 0.16556(9)
C2 C 0.2502(3) 0.08966(17) 0.16007(7)
C3 C 0.4328(3) 0.09441(15) 0.11774(7)
H1 H 0.5680 0.1291 0.1382
C4 C 0.4675(4) -0.05092(17) 0.10555(8)
H2 H 0.4620 -0.0668 0.0634
H3 H 0.6118 -0.0788 0.1223
C5 C 0.1639(3) 0.19037(17) 0.18958(7)
C6 C 0.2515(3) 0.32413(17) 0.18294(7)
C7 C 0.1239(3) 0.41742(19) 0.15464(7)
H4 H -0.0190 0.3970 0.1396
C8 C 0.2046(4) 0.54154(19) 0.14812(8)
H5 H 0.1160 0.6041 0.1289
C9 C 0.4127(4) 0.57208(18) 0.16972(8)
H6 H 0.4674 0.6555 0.1650
C10 C 0.5430(4) 0.4806(2) 0.19844(8)
H7 H 0.6857 0.5014 0.2135
C11 C 0.4598(4) 0.35661(17) 0.20478(7)
H8 H 0.5480 0.2943 0.2243
C12 C 0.3805(4) 0.17297(17) 0.06276(8)
C13 C 0.1797(4) 0.16215(18) 0.03137(9)
H9 H 0.0740 0.1043 0.0441
C14 C 0.1297(4) 0.2347(2) -0.01862(10)
H10 H -0.0081 0.2265 -0.0391
C15 C 0.2863(6) 0.3191(2) -0.03764(10)
H11 H 0.2543 0.3687 -0.0712
C16 C 0.4876(5) 0.3308(2) -0.00787(10)
H12 H 0.5936 0.3878 -0.0211
C17 C 0.5346(4) 0.25761(18) 0.04223(8)
H13 H 0.6731 0.2658 0.0624
N1 N -0.0040(3) 0.17883(15) 0.22597(7)
H14 H -0.020(3) 0.2473(14) 0.2509(7)
H15 H -0.057(3) 0.0987(15) 0.2329(6)
O1 O 0.2921(3) -0.12119(11) 0.13212(6)
O2 O 0.0259(3) -0.08482(11) 0.19445(5)
loop_
_geom_bond_atom_site_label_1
_geom_bond_atom_site_label_2
_geom_bond_site_symmetry_1
_geom_bond_site_symmetry_2
C1 C2 1_555 1_555
C2 C3 1_555 1_555
C3 H1 1_555 1_555
C4 C3 1_555 1_555
H2 C4 1_555 1_555
H3 C4 1_555 1_555
C5 C2 1_555 1_555
C6 C5 1_555 1_555
C7 C6 1_555 1_555
H4 C7 1_555 1_555
C8 C7 1_555 1_555
H5 C8 1_555 1_555
C9 C8 1_555 1_555
H6 C9 1_555 1_555
C10 C9 1_555 1_555
H7 C10 1_555 1_555
C11 C6 1_555 1_555
H8 C11 1_555 1_555
C12 C3 1_555 1_555
C13 C12 1_555 1_555
H9 C13 1_555 1_555
C14 C13 1_555 1_555
H10 C14 1_555 1_555
C15 C14 1_555 1_555
H11 C15 1_555 1_555
C16 C15 1_555 1_555
H12 C16 1_555 1_555
C17 C12 1_555 1_555
H13 C17 1_555 1_555
N1 C5 1_555 1_555
H14 N1 1_555 1_555
H15 N1 1_555 1_555
O1 C1 1_555 1_555
O2 C1 1_555 1_555
C4 O1 1_555 1_555
C10 C11 1_555 1_555
C16 C17 1_555 1_555

#END
