
#######################################################################
#
#                 Cambridge Crystallographic Data Centre
#                                CCDC 
#
#######################################################################
#
# If this CIF has been generated from an entry in the Cambridge 
# Structural Database, then it will include bibliographic, chemical, 
# crystal, experimental, refinement or atomic coordinate data resulting 
# from the CCDC's data processing and validation procedures.
#
#######################################################################

data_USAKAB
_chemical_formula_moiety         'C17 H14 F1 N1 O2'
_chemical_name_systematic        
3-(Amino(4-fluorophenyl)methylene)-4-phenyldihydrofuran-2(3H)-one
_symmetry_cell_setting           monoclinic
_symmetry_space_group_name_H-M   'P 21/c'
_symmetry_Int_Tables_number      14
_space_group_name_Hall           '-P 2ybc'
loop_
_symmetry_equiv_pos_site_id
_symmetry_equiv_pos_as_xyz
1 x,y,z
2 -x,1/2+y,1/2-z
3 -x,-y,-z
4 x,1/2-y,1/2+z
_cell_length_a                   13.707(3)
_cell_length_b                   9.6840(19)
_cell_length_c                   11.622(2)
_cell_angle_alpha                90
_cell_angle_beta                 111.24(3)
_cell_angle_gamma                90
_cell_volume                     1437.89
_exptl_crystal_colour            colorless
_exptl_crystal_description       block
_cell_formula_units_Z            4
loop_
_atom_site_label
_atom_site_type_symbol
_atom_site_fract_x
_atom_site_fract_y
_atom_site_fract_z
C1 C 0.2238(2) -0.3502(2) 0.2781(3)
C2 C 0.2401(2) -0.2576(3) 0.3726(3)
H1 H 0.2779 -0.2822 0.4540
C3 C 0.1987(2) -0.1269(3) 0.3432(2)
H2 H 0.2078 -0.0628 0.4058
C4 C 0.14404(16) -0.0895(2) 0.2224(2)
C5 C 0.1291(2) -0.1864(2) 0.1301(2)
H3 H 0.0921 -0.1624 0.0483
C6 C 0.1687(2) -0.3187(3) 0.1582(3)
H4 H 0.1578 -0.3845 0.0965
C7 C 0.10018(17) 0.0530(2) 0.1937(2)
C8 C 0.13709(18) 0.1449(2) 0.1297(2)
C9 C 0.10271(19) 0.2842(2) 0.1080(2)
C10 C 0.2121(2) 0.2536(3) 0.0017(3)
H5 H 0.2802 0.2920 0.0124
H6 H 0.1764 0.2315 -0.0849
C11 C 0.22459(19) 0.1220(2) 0.0819(2)
H7 H 0.2096 0.0399 0.0290
C12 C 0.3325(2) 0.1092(2) 0.1809(3)
C13 C 0.4043(3) 0.0231(5) 0.1677(6)
H8 H 0.3869 -0.0303 0.0966
C14 C 0.5032(4) 0.0112(7) 0.2566(7)
H9 H 0.5512 -0.0490 0.2441
C15 C 0.5307(3) 0.0853(5) 0.3602(6)
H10 H 0.5974 0.0760 0.4198
C16 C 0.4627(3) 0.1722(5) 0.3784(4)
H11 H 0.4814 0.2249 0.4501
C17 C 0.3635(2) 0.1831(4) 0.2885(3)
H12 H 0.3158 0.2433 0.3019
F1 F 0.26236(14) -0.48090(15) 0.30770(17)
N1 N 0.02527(17) 0.0838(2) 0.2375(2)
H13 H 0.006(2) 0.019(3) 0.279(2)
H14 H 0.000(2) 0.167(3) 0.230(2)
O1 O 0.04023(14) 0.34698(17) 0.14213(17)
O2 O 0.15140(15) 0.35152(17) 0.04170(17)
loop_
_geom_bond_atom_site_label_1
_geom_bond_atom_site_label_2
_geom_bond_site_symmetry_1
_geom_bond_site_symmetry_2
C1 C2 1_555 1_555
C2 H1 1_555 1_555
C3 C2 1_555 1_555
H2 C3 1_555 1_555
C4 C3 1_555 1_555
C5 C4 1_555 1_555
H3 C5 1_555 1_555
C6 C1 1_555 1_555
H4 C6 1_555 1_555
C7 C4 1_555 1_555
C8 C7 1_555 1_555
C9 C8 1_555 1_555
C10 H5 1_555 1_555
H6 C10 1_555 1_555
C11 C8 1_555 1_555
H7 C11 1_555 1_555
C12 C11 1_555 1_555
C13 C12 1_555 1_555
H8 C13 1_555 1_555
C14 C13 1_555 1_555
H9 C14 1_555 1_555
C15 C14 1_555 1_555
H10 C15 1_555 1_555
C16 C15 1_555 1_555
H11 C16 1_555 1_555
C17 C12 1_555 1_555
H12 C17 1_555 1_555
F1 C1 1_555 1_555
N1 C7 1_555 1_555
H13 N1 1_555 1_555
H14 N1 1_555 1_555
O1 C9 1_555 1_555
O2 C9 1_555 1_555
C5 C6 1_555 1_555
C10 C11 1_555 1_555
C10 O2 1_555 1_555
C16 C17 1_555 1_555

#END
