
#######################################################################
#
#                 Cambridge Crystallographic Data Centre
#                                CCDC 
#
#######################################################################
#
# If this CIF has been generated from an entry in the Cambridge 
# Structural Database, then it will include bibliographic, chemical, 
# crystal, experimental, refinement or atomic coordinate data resulting 
# from the CCDC's data processing and validation procedures.
#
#######################################################################

data_USALIK
_chemical_name_common            'Stereumin H monohydrate'
_chemical_formula_moiety         'C15 H22 O4,H2 O1'
_chemical_name_systematic        
'1,2a,8-Trihydroxy-5,8-dimethyl-2-methylenedecahydroacenaphthylen-3(1H)-one monohydrate'
_symmetry_cell_setting           triclinic
_symmetry_space_group_name_H-M   'P 1'
_symmetry_Int_Tables_number      1
_space_group_name_Hall           'P 1'
loop_
_symmetry_equiv_pos_site_id
_symmetry_equiv_pos_as_xyz
1 x,y,z
_cell_length_a                   8.583(2)
_cell_length_b                   9.549(3)
_cell_length_c                   11.107(3)
_cell_angle_alpha                73.568(4)
_cell_angle_beta                 69.697(3)
_cell_angle_gamma                67.017(4)
_cell_volume                     774.454
_exptl_crystal_colour            colorless
_exptl_crystal_description       block
_cell_formula_units_Z            2
loop_
_atom_site_label
_atom_site_type_symbol
_atom_site_fract_x
_atom_site_fract_y
_atom_site_fract_z
O1 O 0.9974(8) -0.0787(7) 1.1678(5)
H1 H 1.0479 -0.1636 1.2045
O2 O 1.2833(8) -0.2854(8) 0.8173(5)
H2 H 1.3788 -0.2713 0.7899
O3 O 0.8710(10) 0.4566(9) 0.8367(7)
O4 O 1.1804(8) 0.2299(7) 0.7981(5)
H3 H 1.2413 0.1646 0.7513
C1 C 1.1222(11) -0.0215(10) 1.0648(8)
H4 H 1.2278 -0.0472 1.0930
C2 C 1.1737(11) -0.0821(10) 0.9394(8)
H5 H 1.2876 -0.0686 0.8896
C3 C 1.1968(11) -0.2446(11) 0.9475(8)
C4 C 1.0204(12) -0.2755(11) 0.9806(9)
H6 H 1.0444 -0.3773 0.9638
H7 H 0.9623 -0.2745 1.0726
C5 C 0.8979(11) -0.1554(11) 0.9009(9)
H8 H 0.9513 -0.1625 0.8093
H9 H 0.7882 -0.1768 0.9268
C6 C 0.8612(13) 0.0062(11) 0.9202(9)
H10 H 0.8197 0.0075 1.0141
C7 C 1.0438(11) 0.0325(11) 0.8685(7)
H11 H 1.0906 0.0259 0.7756
C8 C 1.0285(12) 0.1863(11) 0.8869(8)
C9 C 1.0448(12) 0.1575(11) 1.0285(8)
C10 C 0.8630(12) 0.3190(13) 0.8703(8)
C11 C 0.7005(12) 0.2812(12) 0.9005(9)
H12 H 0.6184 0.3665 0.8587
H13 H 0.6476 0.2720 0.9938
C12 C 0.7259(12) 0.1314(11) 0.8576(9)
H14 H 0.7729 0.1421 0.7627
C13 C 0.5507(13) 0.1149(14) 0.8942(10)
H15 H 0.5596 0.0273 0.8630
H16 H 0.4726 0.2064 0.8562
H17 H 0.5058 0.1002 0.9874
C14 C 1.0006(14) 0.2646(12) 1.1006(10)
H18 H 1.0150 0.2353 1.1844
H19 H 0.9555 0.3686 1.0671
C15 C 1.3074(14) -0.3513(10) 1.0393(10)
H20 H 1.3117 -0.4555 1.0473
H21 H 1.2561 -0.3205 1.1234
H22 H 1.4243 -0.3455 1.0052
O5 O 0.8570(8) 1.0356(7) 0.3989(5)
H23 H 0.8835 0.9905 0.3382
O6 O 0.2809(8) 1.1743(7) 0.5409(6)
H24 H 0.2618 1.0932 0.5519
O7 O 0.7708(10) 0.4541(8) 0.5989(7)
O8 O 0.6308(8) 0.7015(7) 0.7102(5)
H25 H 0.6753 0.7456 0.7358
C16 C 0.7665(11) 0.9546(11) 0.5177(7)
H26 H 0.7856 0.9801 0.5899
C17 C 0.5717(10) 0.9993(9) 0.5437(7)
H27 H 0.5222 1.0001 0.6374
C18 C 0.4679(12) 1.1527(10) 0.4751(8)
C19 C 0.4797(14) 1.1485(11) 0.3334(8)
H28 H 0.3929 1.2401 0.3021
H29 H 0.5948 1.1503 0.2780
C20 C 0.4515(13) 1.0153(11) 0.3235(8)
H30 H 0.3638 1.0199 0.2902
C21 C 0.5782(11) 0.8662(9) 0.3725(7)
H31 H 0.6975 0.8698 0.3284
C22 C 0.5475(11) 0.8564(9) 0.5169(7)
H32 H 0.4302 0.8499 0.5650
C23 C 0.6861(11) 0.7226(10) 0.5710(8)
C24 C 0.8459(12) 0.7859(11) 0.5271(8)
C25 C 0.7332(12) 0.5781(12) 0.5254(9)
C26 C 0.7403(14) 0.5815(12) 0.3881(9)
H33 H 0.7435 0.4823 0.3788
H34 H 0.8453 0.6025 0.3289
C27 C 0.5699(13) 0.7135(11) 0.3543(8)
H35 H 0.4658 0.6929 0.4184
C28 C 0.5673(14) 0.7048(13) 0.2205(9)
H36 H 0.4551 0.7689 0.2057
H37 H 0.5872 0.6000 0.2163
H38 H 0.6580 0.7402 0.1551
C29 C 1.0101(14) 0.7039(14) 0.4935(10)
H39 H 1.0957 0.7519 0.4580
H40 H 1.0424 0.5970 0.5049
C30 C 0.5010(17) 1.2926(11) 0.4843(10)
H41 H 0.4220 1.3842 0.4471
H42 H 0.6200 1.2871 0.4375
H43 H 0.4820 1.2956 0.5741
O9 O 0.9902(9) 0.1951(8) 0.4782(7)
H44 H 1.0146 0.2720 0.4161
H45 H 0.8983 0.1794 0.4713
O10 O 0.2256(12) 0.5109(9) 0.7250(8)
H46 H 0.2348 0.4145 0.7260
H47 H 0.1466 0.5765 0.6831
loop_
_geom_bond_atom_site_label_1
_geom_bond_atom_site_label_2
_geom_bond_site_symmetry_1
_geom_bond_site_symmetry_2
O1 H1 1_555 1_555
O2 H2 1_555 1_555
O3 C10 1_555 1_555
O4 H3 1_555 1_555
C1 O1 1_555 1_555
H4 C1 1_555 1_555
C2 C1 1_555 1_555
H5 C2 1_555 1_555
C3 O2 1_555 1_555
C4 C3 1_555 1_555
H6 C4 1_555 1_555
H7 C4 1_555 1_555
C5 C4 1_555 1_555
H8 C5 1_555 1_555
H9 C5 1_555 1_555
C6 C5 1_555 1_555
H10 C6 1_555 1_555
C7 C2 1_555 1_555
H11 C7 1_555 1_555
C8 O4 1_555 1_555
C9 C1 1_555 1_555
C10 C8 1_555 1_555
C11 C10 1_555 1_555
H12 C11 1_555 1_555
H13 C11 1_555 1_555
C12 C6 1_555 1_555
H14 C12 1_555 1_555
C13 C12 1_555 1_555
H15 C13 1_555 1_555
H16 C13 1_555 1_555
H17 C13 1_555 1_555
C14 C9 1_555 1_555
H18 C14 1_555 1_555
H19 C14 1_555 1_555
C15 C3 1_555 1_555
H20 C15 1_555 1_555
H21 C15 1_555 1_555
H22 C15 1_555 1_555
O5 H23 1_555 1_555
O6 H24 1_555 1_555
O7 C25 1_555 1_555
O8 H25 1_555 1_555
C16 O5 1_555 1_555
H26 C16 1_555 1_555
C17 C16 1_555 1_555
H27 C17 1_555 1_555
C18 O6 1_555 1_555
C19 C18 1_555 1_555
H28 C19 1_555 1_555
H29 C19 1_555 1_555
C20 C19 1_555 1_555
H30 C20 1_555 1_555
C21 C20 1_555 1_555
H31 C21 1_555 1_555
C22 C17 1_555 1_555
H32 C22 1_555 1_555
C23 O8 1_555 1_555
C24 C16 1_555 1_555
C25 C23 1_555 1_555
C26 C25 1_555 1_555
H33 C26 1_555 1_555
H34 C26 1_555 1_555
C27 C21 1_555 1_555
H35 C27 1_555 1_555
C28 C27 1_555 1_555
H36 C28 1_555 1_555
H37 C28 1_555 1_555
H38 C28 1_555 1_555
C29 C24 1_555 1_555
H39 C29 1_555 1_555
H40 C29 1_555 1_555
C30 C18 1_555 1_555
H41 C30 1_555 1_555
H42 C30 1_555 1_555
H43 C30 1_555 1_555
O9 H44 1_555 1_555
H45 O9 1_555 1_555
O10 H46 1_555 1_555
H47 O10 1_555 1_555
C2 C3 1_555 1_555
C6 C7 1_555 1_555
C7 C8 1_555 1_555
C8 C9 1_555 1_555
C11 C12 1_555 1_555
C17 C18 1_555 1_555
C21 C22 1_555 1_555
C22 C23 1_555 1_555
C23 C24 1_555 1_555
C26 C27 1_555 1_555

#END
