
#######################################################################
#
#                 Cambridge Crystallographic Data Centre
#                                CCDC 
#
#######################################################################
#
# If this CIF has been generated from an entry in the Cambridge 
# Structural Database, then it will include bibliographic, chemical, 
# crystal, experimental, refinement or atomic coordinate data resulting 
# from the CCDC's data processing and validation procedures.
#
#######################################################################

data_USANAF
_chemical_formula_moiety         'C26 H33 N2 O1 1+,C1 F3 O3 S1 1-'
_chemical_name_systematic        
'3-cyclohexyl-1-(2,6-diisopropylphenyl)-4-oxo-3,4-dihydroquinazolin-1-ium trifluoromethanesulfonate'
_symmetry_cell_setting           orthorhombic
_symmetry_space_group_name_H-M   'P b c a'
_symmetry_Int_Tables_number      61
_space_group_name_Hall           '-P 2ac 2ab'
loop_
_symmetry_equiv_pos_site_id
_symmetry_equiv_pos_as_xyz
1 x,y,z
2 1/2-x,-y,1/2+z
3 -x,1/2+y,1/2-z
4 1/2+x,1/2-y,-z
5 -x,-y,-z
6 1/2+x,y,1/2-z
7 x,1/2-y,1/2+z
8 1/2-x,1/2+y,z
_cell_length_a                   19.998(4)
_cell_length_b                   13.503(3)
_cell_length_c                   20.640(4)
_cell_angle_alpha                90
_cell_angle_beta                 90
_cell_angle_gamma                90
_cell_volume                     5573.48
_exptl_crystal_colour            colorless
_exptl_crystal_description       prism
_cell_formula_units_Z            8
loop_
_atom_site_label
_atom_site_type_symbol
_atom_site_fract_x
_atom_site_fract_y
_atom_site_fract_z
S1 S 0.08092(7) 0.88316(10) 0.30319(7)
O1 O 0.0762(4) 0.8384(5) 0.3664(3)
O2 O 0.0851(2) 0.9859(3) 0.3067(3)
O3 O 0.0389(3) 0.8392(7) 0.2603(4)
F1 F 0.1694(2) 0.7450(3) 0.2841(3)
F2 F 0.1780(3) 0.8601(5) 0.2219(3)
F3 F 0.2107(3) 0.8833(5) 0.3060(4)
C1 C 0.1622(3) 0.8400(5) 0.2807(3)
N1 N 0.08756(13) 0.2590(2) 0.35742(11)
N2 N 0.11921(15) 0.2620(2) 0.24873(11)
O4 O 0.1351(2) 0.4083(3) 0.19550(13)
C2 C 0.10199(17) 0.2135(3) 0.30270(14)
H1 H 0.095(2) 0.148(4) 0.3059(17)
C3 C 0.11962(19) 0.3667(3) 0.24526(15)
C4 C 0.10316(17) 0.4167(3) 0.30556(15)
C5 C 0.1024(2) 0.5208(3) 0.30791(19)
H2 H 0.1122 0.5574 0.2710
C6 C 0.0872(2) 0.5681(3) 0.3647(2)
H3 H 0.0854 0.6369 0.3660
C7 C 0.0748(2) 0.5140(3) 0.4197(2)
H4 H 0.0662 0.5470 0.4584
C8 C 0.07463(19) 0.4117(3) 0.41892(17)
H5 H 0.0655 0.3759 0.4564
C9 C 0.08839(15) 0.3634(2) 0.36105(14)
C10 C 0.07562(16) 0.2018(2) 0.41634(14)
C11 C 0.00934(18) 0.1896(2) 0.43719(15)
C12 C 0.0009(2) 0.1440(3) 0.49676(17)
H6 H -0.0421 0.1335 0.5123
C13 C 0.0543(3) 0.1141(3) 0.53339(19)
H7 H 0.0470 0.0873 0.5743
C14 C 0.1179(3) 0.1231(3) 0.51059(19)
H8 H 0.1531 0.0984 0.5353
C15 C 0.1322(2) 0.1686(3) 0.45092(18)
C16 C -0.04907(18) 0.2207(3) 0.39640(17)
H9 H -0.0326 0.2676 0.3639
C17 C -0.1034(3) 0.2715(5) 0.4345(3)
H10 H -0.1271 0.2234 0.4600
H11 H -0.1339 0.3033 0.4052
H12 H -0.0838 0.3201 0.4627
C18 C -0.0778(3) 0.1325(4) 0.3608(3)
H13 H -0.0922 0.0836 0.3916
H14 H -0.0441 0.1045 0.3331
H15 H -0.1152 0.1534 0.3351
C19 C 0.2015(2) 0.1810(4) 0.4267(2)
H16 H 0.1988 0.2100 0.3833
C20 C 0.2406(4) 0.2533(9) 0.4696(4)
H17 H 0.2380 0.3187 0.4515
H18 H 0.2866 0.2330 0.4717
H19 H 0.2218 0.2535 0.5124
C21 C 0.2335(5) 0.0755(9) 0.4199(6)
H20 H 0.2700 0.0692 0.4497
H21 H 0.2496 0.0667 0.3764
H22 H 0.2004 0.0260 0.4292
C22 C 0.1382(2) 0.2054(3) 0.18903(16)
H23 H 0.1539 0.2540 0.1572
C23 C 0.0802(2) 0.1531(4) 0.1595(2)
H24 H 0.0444 0.1998 0.1514
H25 H 0.0638 0.1029 0.1891
C24 C 0.1016(3) 0.1054(5) 0.0966(2)
H26 H 0.0646 0.0678 0.0788
H27 H 0.1135 0.1565 0.0657
C25 C 0.1601(3) 0.0380(5) 0.1067(2)
H28 H 0.1458 -0.0181 0.1325
H29 H 0.1744 0.0129 0.0649
C26 C 0.2172(3) 0.0848(5) 0.1385(2)
H30 H 0.2366 0.1337 0.1097
H31 H 0.2510 0.0352 0.1475
C27 C 0.1964(2) 0.1353(4) 0.2023(2)
H32 H 0.1831 0.0857 0.2337
H33 H 0.2339 0.1720 0.2200
loop_
_geom_bond_atom_site_label_1
_geom_bond_atom_site_label_2
_geom_bond_site_symmetry_1
_geom_bond_site_symmetry_2
S1 O1 1_555 1_555
O2 S1 1_555 1_555
O3 S1 1_555 1_555
F1 C1 1_555 1_555
F2 C1 1_555 1_555
F3 C1 1_555 1_555
C1 S1 1_555 1_555
N1 C2 1_555 1_555
N2 C2 1_555 1_555
O4 C3 1_555 1_555
C2 H1 1_555 1_555
C3 N2 1_555 1_555
C4 C3 1_555 1_555
C5 C4 1_555 1_555
H2 C5 1_555 1_555
C6 C5 1_555 1_555
H3 C6 1_555 1_555
C7 C6 1_555 1_555
H4 C7 1_555 1_555
C8 C7 1_555 1_555
H5 C8 1_555 1_555
C9 N1 1_555 1_555
C10 N1 1_555 1_555
C11 C10 1_555 1_555
C12 C11 1_555 1_555
H6 C12 1_555 1_555
C13 C12 1_555 1_555
H7 C13 1_555 1_555
C14 C13 1_555 1_555
H8 C14 1_555 1_555
C15 C10 1_555 1_555
C16 C11 1_555 1_555
H9 C16 1_555 1_555
C17 C16 1_555 1_555
H10 C17 1_555 1_555
H11 C17 1_555 1_555
H12 C17 1_555 1_555
C18 C16 1_555 1_555
H13 C18 1_555 1_555
H14 C18 1_555 1_555
H15 C18 1_555 1_555
C19 C15 1_555 1_555
H16 C19 1_555 1_555
C20 C19 1_555 1_555
H17 C20 1_555 1_555
H18 C20 1_555 1_555
H19 C20 1_555 1_555
C21 C19 1_555 1_555
H20 C21 1_555 1_555
H21 C21 1_555 1_555
H22 C21 1_555 1_555
C22 N2 1_555 1_555
H23 C22 1_555 1_555
C23 C22 1_555 1_555
H24 C23 1_555 1_555
H25 C23 1_555 1_555
C24 C23 1_555 1_555
H26 C24 1_555 1_555
H27 C24 1_555 1_555
C25 C24 1_555 1_555
H28 C25 1_555 1_555
H29 C25 1_555 1_555
C26 C25 1_555 1_555
H30 C26 1_555 1_555
H31 C26 1_555 1_555
C27 C22 1_555 1_555
H32 C27 1_555 1_555
H33 C27 1_555 1_555
C4 C9 1_555 1_555
C8 C9 1_555 1_555
C14 C15 1_555 1_555
C26 C27 1_555 1_555

#END
