
#######################################################################
#
#                 Cambridge Crystallographic Data Centre
#                                CCDC 
#
#######################################################################
#
# If this CIF has been generated from an entry in the Cambridge 
# Structural Database, then it will include bibliographic, chemical, 
# crystal, experimental, refinement or atomic coordinate data resulting 
# from the CCDC's data processing and validation procedures.
#
#######################################################################

data_USEGAC
_chemical_formula_moiety         'C13 H15 N1 O2'
_chemical_name_systematic        
3-hydroxy-3-(3-methylbut-2-en-1-yl)-1,3-dihydro-2H-indol-2-one
_symmetry_cell_setting           monoclinic
_symmetry_space_group_name_H-M   'P 21/c'
_symmetry_Int_Tables_number      14
_space_group_name_Hall           '-P 2ybc'
loop_
_symmetry_equiv_pos_site_id
_symmetry_equiv_pos_as_xyz
1 x,y,z
2 -x,1/2+y,1/2-z
3 -x,-y,-z
4 x,1/2-y,1/2+z
_cell_length_a                   10.1491(10)
_cell_length_b                   11.4621(11)
_cell_length_c                   10.7009(10)
_cell_angle_alpha                90
_cell_angle_beta                 96.5690(10)
_cell_angle_gamma                90
_cell_volume                     1236.66
_exptl_crystal_colour            yellow
_exptl_crystal_description       block
_cell_formula_units_Z            4
loop_
_atom_site_label
_atom_site_type_symbol
_atom_site_fract_x
_atom_site_fract_y
_atom_site_fract_z
O1 O 0.02042(11) 0.38771(8) 0.16433(9)
H1 H 0.0084 0.3888 0.0872
O2 O 0.01143(12) 0.63637(8) 0.08801(10)
N1 N 0.07434(12) 0.65035(10) 0.29901(10)
H2 H 0.0533 0.7221 0.3092
C1 C 0.19895(15) 0.37774(13) 0.42635(15)
H3 H 0.2141 0.3041 0.3943
C2 C 0.22396(19) 0.39959(16) 0.55379(16)
H4 H 0.2567 0.3403 0.6080
C3 C 0.20081(19) 0.50851(16) 0.60125(16)
H5 H 0.2190 0.5217 0.6873
C4 C 0.15104(16) 0.59895(14) 0.52363(14)
H6 H 0.1348 0.6722 0.5559
C5 C 0.12679(13) 0.57598(11) 0.39747(12)
C6 C 0.15118(13) 0.46689(11) 0.34744(13)
C7 C 0.11883(13) 0.47125(11) 0.20732(13)
C8 C 0.06145(13) 0.59570(11) 0.18807(12)
C9 C 0.24102(16) 0.45828(14) 0.13575(15)
H7 H 0.2798 0.3819 0.1536
H8 H 0.2125 0.4620 0.0462
C10 C 0.34468(16) 0.54843(17) 0.16782(17)
H9 H 0.3800 0.5528 0.2518
C11 C 0.39218(17) 0.62310(18) 0.09001(19)
C12 C 0.3497(2) 0.6297(2) -0.0483(2)
H10 H 0.4197 0.6014 -0.0934
H11 H 0.3301 0.7092 -0.0717
H12 H 0.2719 0.5827 -0.0687
C13 C 0.4992(3) 0.7092(3) 0.1369(3)
H13 H 0.5197 0.7011 0.2263
H14 H 0.4686 0.7871 0.1175
H15 H 0.5773 0.6941 0.0967
loop_
_geom_bond_atom_site_label_1
_geom_bond_atom_site_label_2
_geom_bond_site_symmetry_1
_geom_bond_site_symmetry_2
O1 H1 1_555 1_555
O2 C8 1_555 1_555
N1 H2 1_555 1_555
C1 H3 1_555 1_555
C2 C1 1_555 1_555
H4 C2 1_555 1_555
C3 C2 1_555 1_555
H5 C3 1_555 1_555
C4 C3 1_555 1_555
H6 C4 1_555 1_555
C5 N1 1_555 1_555
C6 C1 1_555 1_555
C7 O1 1_555 1_555
C8 N1 1_555 1_555
C9 C7 1_555 1_555
H7 C9 1_555 1_555
H8 C9 1_555 1_555
C10 C9 1_555 1_555
H9 C10 1_555 1_555
C11 C10 1_555 1_555
C12 C11 1_555 1_555
H10 C12 1_555 1_555
H11 C12 1_555 1_555
H12 C12 1_555 1_555
C13 C11 1_555 1_555
H13 C13 1_555 1_555
H14 C13 1_555 1_555
H15 C13 1_555 1_555
C4 C5 1_555 1_555
C5 C6 1_555 1_555
C6 C7 1_555 1_555
C7 C8 1_555 1_555

#END
