
#######################################################################
#
#                 Cambridge Crystallographic Data Centre
#                                CCDC 
#
#######################################################################
#
# If this CIF has been generated from an entry in the Cambridge 
# Structural Database, then it will include bibliographic, chemical, 
# crystal, experimental, refinement or atomic coordinate data resulting 
# from the CCDC's data processing and validation procedures.
#
#######################################################################

data_USEGIK
_chemical_formula_moiety         'C22 H18 N2 2+,C2 H3 N1,2(B1 F4 1-)'
_chemical_name_systematic        
'3,8-dimethylnaphtho[1,2-a][3,8]phenanthrolinediium bis(tetrafluoroborate) acetonitrile solvate'
_symmetry_cell_setting           monoclinic
_symmetry_space_group_name_H-M   'C 2/c'
_symmetry_Int_Tables_number      15
_space_group_name_Hall           '-C 2yn'
loop_
_symmetry_equiv_pos_site_id
_symmetry_equiv_pos_as_xyz
1 x,y,z
2 -x,y,1/2-z
3 1/2+x,1/2+y,z
4 1/2-x,1/2+y,1/2-z
5 -x,-y,-z
6 x,-y,1/2+z
7 1/2-x,1/2-y,-z
8 1/2+x,1/2-y,1/2+z
_cell_length_a                   22.7449(6)
_cell_length_b                   19.7482(6)
_cell_length_c                   11.4956(3)
_cell_angle_alpha                90
_cell_angle_beta                 115.335(1)
_cell_angle_gamma                90
_cell_volume                     4666.87
_exptl_crystal_colour            yellow
_exptl_crystal_description       rectangular
_cell_formula_units_Z            8
loop_
_atom_site_label
_atom_site_type_symbol
_atom_site_fract_x
_atom_site_fract_y
_atom_site_fract_z
C1 C 0.66450(7) 0.13857(7) 0.82249(13)
H1 H 0.6770 0.1626 0.9011
C2 C 0.68501(8) 0.07367(8) 0.82384(14)
H2 H 0.7129 0.0532 0.9032
N1 N 0.66580(7) 0.03770(7) 0.71176(13)
C3 C 0.68646(11) -0.03367(9) 0.71754(19)
H3 H 0.7112 -0.0471 0.8076
H4 H 0.6480 -0.0627 0.6773
H5 H 0.7139 -0.0386 0.6715
C4 C 0.63161(8) 0.06640(8) 0.59903(14)
H6 H 0.6195 0.0404 0.5227
C5 C 0.61292(7) 0.13461(7) 0.59016(12)
C6 C 0.58797(8) 0.16702(8) 0.46750(13)
H7 H 0.5767 0.1413 0.3911
C7 C 0.58072(7) 0.23507(8) 0.46212(12)
H8 H 0.5702 0.2584 0.3834
C8 C 0.58891(7) 0.27183(7) 0.57516(12)
C9 C 0.58737(7) 0.34296(8) 0.56951(13)
H9 H 0.5792 0.3649 0.4905
N2 N 0.59702(7) 0.37984(7) 0.67152(12)
C10 C 0.60330(13) 0.45436(9) 0.6626(2)
H10 H 0.6103 0.4754 0.7447
H11 H 0.6404 0.4644 0.6432
H12 H 0.5634 0.4724 0.5940
C11 C 0.59990(7) 0.35073(7) 0.78417(13)
C12 C 0.60642(10) 0.39382(9) 0.88786(16)
H13 H 0.6104 0.4414 0.8813
C13 C 0.60686(9) 0.36619(9) 0.99695(15)
H14 H 0.6152 0.3943 1.0694
C14 C 0.59504(7) 0.29583(8) 1.00409(14)
C15 C 0.58786(8) 0.27008(9) 1.11214(14)
H15 H 0.5947 0.2989 1.1830
C16 C 0.57107(8) 0.20376(9) 1.11488(15)
H16 H 0.5679 0.1862 1.1889
C17 C 0.55856(7) 0.16143(9) 1.00843(14)
H17 H 0.5446 0.1161 1.0089
C18 C 0.56645(7) 0.18535(8) 0.90353(13)
H18 H 0.5575 0.1564 0.8319
C19 C 0.58770(6) 0.25227(8) 0.90073(12)
C20 C 0.59727(6) 0.27962(7) 0.79296(12)
C21 C 0.60218(6) 0.23972(7) 0.69313(12)
C22 C 0.62454(7) 0.17044(7) 0.70439(12)
B1 B 0.28317(10) 0.41301(10) 0.06811(19)
F1 F 0.21925(6) 0.39426(8) -0.00958(12)
F2 F 0.29112(8) 0.41718(9) 0.19493(13)
F3 F 0.32436(8) 0.36282(8) 0.06184(17)
F4 F 0.29730(8) 0.47394(8) 0.02907(16)
B2 B 0.0000 0.50976(15) 0.2500
F5 F 0.0286(6) 0.5612(4) 0.2171(9)
F6 F 0.0468(3) 0.4729(3) 0.3356(6)
F5A F -0.0286(6) 0.5612(4) 0.2829(9)
F6A F -0.0468(3) 0.4729(3) 0.1644(6)
N3 N 0.25435(9) 0.17099(11) 0.35254(18)
C23 C 0.25682(8) 0.20250(9) 0.27138(16)
C24 C 0.25980(9) 0.24255(11) 0.16848(18)
H19 H 0.2717 0.2892 0.1980
H20 H 0.2172 0.2422 0.0942
H21 H 0.2925 0.2234 0.1436
F7? F 0.0638(3) 0.5074(8) 0.3174(11)
F8? F -0.0212(5) 0.4517(3) 0.2959(11)
F9? F 0.0256(6) 0.5512(7) 0.1814(12)
F10? F 0.0206(7) 0.4964(7) 0.3734(7)
B3? B 0.5000 0.41754(15) 0.2500
F11? F 0.5000 0.35095(10) 0.2500
F12? F 0.4642(2) 0.4555(2) 0.1551(4)
F13? F 0.4654(2) 0.41675(17) 0.3414(4)
F14? F 0.5567(2) 0.4463(3) 0.3332(6)
loop_
_geom_bond_atom_site_label_1
_geom_bond_atom_site_label_2
_geom_bond_site_symmetry_1
_geom_bond_site_symmetry_2
C1 H1 1_555 1_555
C2 C1 1_555 1_555
H2 C2 1_555 1_555
N1 C2 1_555 1_555
C3 N1 1_555 1_555
H3 C3 1_555 1_555
H4 C3 1_555 1_555
H5 C3 1_555 1_555
C4 N1 1_555 1_555
H6 C4 1_555 1_555
C5 C4 1_555 1_555
C6 C5 1_555 1_555
H7 C6 1_555 1_555
C7 C6 1_555 1_555
H8 C7 1_555 1_555
C8 C7 1_555 1_555
C9 C8 1_555 1_555
H9 C9 1_555 1_555
N2 C9 1_555 1_555
C10 N2 1_555 1_555
H10 C10 1_555 1_555
H11 C10 1_555 1_555
H12 C10 1_555 1_555
C11 N2 1_555 1_555
C12 C11 1_555 1_555
H13 C12 1_555 1_555
C13 C12 1_555 1_555
H14 C13 1_555 1_555
C14 C13 1_555 1_555
C15 C14 1_555 1_555
H15 C15 1_555 1_555
C16 C15 1_555 1_555
H16 C16 1_555 1_555
C17 C16 1_555 1_555
H17 C17 1_555 1_555
C18 C17 1_555 1_555
H18 C18 1_555 1_555
C19 C14 1_555 1_555
C20 C11 1_555 1_555
C21 C8 1_555 1_555
C22 C1 1_555 1_555
B1 F1 1_555 1_555
F2 B1 1_555 1_555
F3 B1 1_555 1_555
F4 B1 1_555 1_555
B2 F5 1_555 1_555
F6 B2 1_555 1_555
N3 C23 1_555 1_555
C23 C24 1_555 1_555
C24 H19 1_555 1_555
H20 C24 1_555 1_555
H21 C24 1_555 1_555
F5A B2 1_555 1_555
F6A B2 1_555 1_555
C5 C22 1_555 1_555
C18 C19 1_555 1_555
C19 C20 1_555 1_555
C20 C21 1_555 1_555
C21 C22 1_555 1_555

#END
