
#######################################################################
#
#                 Cambridge Crystallographic Data Centre
#                                CCDC 
#
#######################################################################
#
# If this CIF has been generated from an entry in the Cambridge 
# Structural Database, then it will include bibliographic, chemical, 
# crystal, experimental, refinement or atomic coordinate data resulting 
# from the CCDC's data processing and validation procedures.
#
#######################################################################

data_USEHEH
_chemical_formula_moiety         'C19 H12 Br1 N3 O2'
_chemical_name_systematic        
(5-bromo-2-oxo-3-(2-oxo-2-phenylethyl)-2,3-dihydro-1H-indol-3-yl)malononitrile
_symmetry_cell_setting           triclinic
_symmetry_space_group_name_H-M   'P -1'
_symmetry_Int_Tables_number      2
_space_group_name_Hall           '-P 1'
loop_
_symmetry_equiv_pos_site_id
_symmetry_equiv_pos_as_xyz
1 x,y,z
2 -x,-y,-z
_cell_length_a                   8.9365(8)
_cell_length_b                   10.0229(9)
_cell_length_c                   10.5846(10)
_cell_angle_alpha                72.6120(10)
_cell_angle_beta                 68.3510(10)
_cell_angle_gamma                78.5860(10)
_cell_volume                     836.801
_exptl_crystal_colour            colorless
_exptl_crystal_description       prism
_chemical_melting_point          '388 K'
_cell_formula_units_Z            2
loop_
_atom_site_label
_atom_site_type_symbol
_atom_site_fract_x
_atom_site_fract_y
_atom_site_fract_z
C1 C 1.3238(2) 0.2024(2) 0.5720(2)
C2 C 1.3644(2) 0.0703(2) 0.6457(2)
H1 H 1.4725 0.0346 0.6271
C3 C 1.2449(2) -0.0095(2) 0.7475(2)
H2 H 1.2709 -0.0986 0.7983
C4 C 1.0861(2) 0.0471(2) 0.77128(19)
C5 C 1.0459(2) 0.18026(19) 0.69527(19)
C6 C 1.1647(2) 0.2599(2) 0.5951(2)
H3 H 1.1392 0.3495 0.5447
C7 C 0.8646(2) 0.21155(19) 0.74544(19)
C8 C 0.8118(2) 0.0816(2) 0.8699(2)
C9 C 0.7876(2) 0.2070(2) 0.6357(2)
H4 H 0.6713 0.2343 0.6732
C10 C 0.8068(3) 0.0660(3) 0.6134(2)
C11 C 0.8530(3) 0.3101(2) 0.5014(2)
C12 C 0.7985(2) 0.35019(19) 0.78887(19)
H5 H 0.8434 0.4270 0.7101
H6 H 0.6820 0.3626 0.8107
C13 C 0.8367(2) 0.3579(2) 0.91384(19)
C14 C 0.7746(2) 0.4850(2) 0.96931(19)
C15 C 0.7039(3) 0.6058(2) 0.8985(2)
H7 H 0.6936 0.6087 0.8135
C16 C 0.6490(3) 0.7215(2) 0.9543(3)
H8 H 0.6026 0.8024 0.9062
C17 C 0.6624(3) 0.7180(2) 1.0800(2)
H9 H 0.6248 0.7962 1.1172
C18 C 0.7314(3) 0.5992(3) 1.1511(2)
H10 H 0.7398 0.5970 1.2367
C19 C 0.7884(3) 0.4829(2) 1.0964(2)
H11 H 0.8361 0.4031 1.1447
N1 N 0.9059(3) 0.3919(2) 0.4014(2)
N2 N 0.8151(3) -0.0444(2) 0.6026(2)
N3 N 0.94535(19) -0.00995(16) 0.87005(17)
H12 H 0.9447 -0.0957 0.9271
O1 O 0.67358(17) 0.06563(15) 0.94665(15)
O2 O 0.91366(18) 0.25901(14) 0.96969(15)
Br1 Br 1.48924(3) 0.31175(3) 0.43287(3)
loop_
_geom_bond_atom_site_label_1
_geom_bond_atom_site_label_2
_geom_bond_site_symmetry_1
_geom_bond_site_symmetry_2
C1 C2 1_555 1_555
C2 H1 1_555 1_555
C3 C2 1_555 1_555
H2 C3 1_555 1_555
C4 C3 1_555 1_555
C5 C4 1_555 1_555
C6 C1 1_555 1_555
H3 C6 1_555 1_555
C7 C5 1_555 1_555
C8 C7 1_555 1_555
C9 C7 1_555 1_555
H4 C9 1_555 1_555
C10 C9 1_555 1_555
C11 C9 1_555 1_555
C12 C7 1_555 1_555
H5 C12 1_555 1_555
H6 C12 1_555 1_555
C13 C12 1_555 1_555
C14 C13 1_555 1_555
C15 C14 1_555 1_555
H7 C15 1_555 1_555
C16 C15 1_555 1_555
H8 C16 1_555 1_555
C17 C16 1_555 1_555
H9 C17 1_555 1_555
C18 C17 1_555 1_555
H10 C18 1_555 1_555
C19 C14 1_555 1_555
H11 C19 1_555 1_555
N1 C11 1_555 1_555
N2 C10 1_555 1_555
N3 C4 1_555 1_555
H12 N3 1_555 1_555
O1 C8 1_555 1_555
O2 C13 1_555 1_555
Br1 C1 1_555 1_555
C5 C6 1_555 1_555
C8 N3 1_555 1_555
C18 C19 1_555 1_555

#END
