
#######################################################################
#
#                 Cambridge Crystallographic Data Centre
#                                CCDC 
#
#######################################################################
#
# If this CIF has been generated from an entry in the Cambridge 
# Structural Database, then it will include bibliographic, chemical, 
# crystal, experimental, refinement or atomic coordinate data resulting 
# from the CCDC's data processing and validation procedures.
#
#######################################################################

data_USEKIO
_chemical_formula_moiety         'C19 H20 Br1 N1 O1'
_chemical_name_systematic        
N-(2-bromobenzyl)-N-(2-methyl-1-phenylprop-1-en-1-yl)acetamide
_symmetry_cell_setting           orthorhombic
_symmetry_space_group_name_H-M   'P b c n'
_symmetry_Int_Tables_number      60
_space_group_name_Hall           '-P 2n 2ab'
loop_
_symmetry_equiv_pos_site_id
_symmetry_equiv_pos_as_xyz
1 x,y,z
2 1/2-x,1/2-y,1/2+z
3 -x,y,1/2-z
4 1/2+x,1/2-y,-z
5 -x,-y,-z
6 1/2+x,1/2+y,1/2-z
7 x,-y,1/2+z
8 1/2-x,1/2+y,z
_cell_length_a                   15.6449(2)
_cell_length_b                   9.02047(12)
_cell_length_c                   23.2833(3)
_cell_angle_alpha                90
_cell_angle_beta                 90
_cell_angle_gamma                90
_cell_volume                     3285.84
_exptl_crystal_colour            colorless
_exptl_crystal_description       block
_cell_formula_units_Z            8
loop_
_atom_site_label
_atom_site_type_symbol
_atom_site_fract_x
_atom_site_fract_y
_atom_site_fract_z
Br1 Br 0.078828(10) 0.749932(18) 0.185595(7)
C1 C -0.02730(10) 0.74204(16) 0.14559(6)
C2 C -0.05874(11) 0.87442(17) 0.12343(7)
H1 H -0.0271 0.9636 0.1280
C3 C -0.13633(11) 0.87591(18) 0.09471(7)
H2 H -0.1580 0.9660 0.0794
C4 C -0.18239(10) 0.74513(17) 0.08836(7)
H3 H -0.2359 0.7456 0.0690
C5 C -0.14964(9) 0.61343(17) 0.11048(6)
H4 H -0.1813 0.5244 0.1057
C6 C -0.07150(9) 0.60837(16) 0.13949(6)
C7 C -0.03914(9) 0.46171(15) 0.16240(6)
H5 H -0.0053 0.4798 0.1976
H6 H -0.0886 0.3989 0.1730
N1 N 0.01428(7) 0.38163(13) 0.12042(5)
O1 O -0.10295(7) 0.27040(12) 0.08297(5)
C8 C -0.02469(9) 0.28488(15) 0.08368(6)
C9 C 0.03153(10) 0.19648(18) 0.04362(6)
H7 H -0.0023 0.1180 0.0255
H8 H 0.0785 0.1519 0.0654
H9 H 0.0549 0.2621 0.0140
C10 C 0.09611(9) 0.18926(16) 0.20037(6)
H10 H 0.0496 0.1493 0.1792
C11 C 0.12171(9) 0.12029(16) 0.25072(6)
H11 H 0.0929 0.0339 0.2637
C12 C 0.18944(9) 0.17733(16) 0.28220(6)
H12 H 0.2074 0.1298 0.3165
C13 C 0.23085(9) 0.30431(17) 0.26320(6)
H13 H 0.2774 0.3435 0.2846
C14 C 0.20461(9) 0.37465(16) 0.21293(6)
H14 H 0.2326 0.4628 0.2009
C15 C 0.13750(9) 0.31693(15) 0.17992(6)
C16 C 0.10608(9) 0.39070(15) 0.12673(6)
C17 C 0.15303(9) 0.46290(16) 0.08776(6)
C18 C 0.24938(10) 0.4644(2) 0.08736(7)
H15 H 0.2709 0.3827 0.1110
H16 H 0.2699 0.5588 0.1029
H17 H 0.2700 0.4526 0.0479
C19 C 0.11397(10) 0.55109(18) 0.03971(6)
H18 H 0.0518 0.5540 0.0445
H19 H 0.1280 0.5045 0.0029
H20 H 0.1367 0.6523 0.0404
loop_
_geom_bond_atom_site_label_1
_geom_bond_atom_site_label_2
_geom_bond_site_symmetry_1
_geom_bond_site_symmetry_2
Br1 C1 1_555 1_555
C1 C2 1_555 1_555
C2 H1 1_555 1_555
C3 C2 1_555 1_555
H2 C3 1_555 1_555
C4 C3 1_555 1_555
H3 C4 1_555 1_555
C5 C4 1_555 1_555
H4 C5 1_555 1_555
C6 C1 1_555 1_555
C7 C6 1_555 1_555
H5 C7 1_555 1_555
H6 C7 1_555 1_555
N1 C7 1_555 1_555
O1 C8 1_555 1_555
C8 N1 1_555 1_555
C9 C8 1_555 1_555
H7 C9 1_555 1_555
H8 C9 1_555 1_555
H9 C9 1_555 1_555
C10 H10 1_555 1_555
C11 C10 1_555 1_555
H11 C11 1_555 1_555
C12 C11 1_555 1_555
H12 C12 1_555 1_555
C13 C12 1_555 1_555
H13 C13 1_555 1_555
C14 C13 1_555 1_555
H14 C14 1_555 1_555
C15 C10 1_555 1_555
C16 N1 1_555 1_555
C17 C16 1_555 1_555
C18 C17 1_555 1_555
H15 C18 1_555 1_555
H16 C18 1_555 1_555
H17 C18 1_555 1_555
C19 C17 1_555 1_555
H18 C19 1_555 1_555
H19 C19 1_555 1_555
H20 C19 1_555 1_555
C5 C6 1_555 1_555
C14 C15 1_555 1_555
C15 C16 1_555 1_555

#END
