
#######################################################################
#
#                 Cambridge Crystallographic Data Centre
#                                CCDC 
#
#######################################################################
#
# If this CIF has been generated from an entry in the Cambridge 
# Structural Database, then it will include bibliographic, chemical, 
# crystal, experimental, refinement or atomic coordinate data resulting 
# from the CCDC's data processing and validation procedures.
#
#######################################################################

data_USEKUA
_chemical_formula_moiety         'C20 H21 N1 O1'
_chemical_name_systematic        
N-benzyl-N-(2-methyl-3,4-dihydronaphthalen-1-yl)acetamide
_symmetry_cell_setting           orthorhombic
_symmetry_space_group_name_H-M   'P 21 21 21'
_symmetry_Int_Tables_number      19
_space_group_name_Hall           'P 2ac 2ab'
loop_
_symmetry_equiv_pos_site_id
_symmetry_equiv_pos_as_xyz
1 x,y,z
2 1/2-x,-y,1/2+z
3 -x,1/2+y,1/2-z
4 1/2+x,1/2-y,-z
_cell_length_a                   7.3684(3)
_cell_length_b                   9.7503(4)
_cell_length_c                   22.0856(9)
_cell_angle_alpha                90
_cell_angle_beta                 90
_cell_angle_gamma                90
_cell_volume                     1586.72
_exptl_crystal_colour            colorless
_exptl_crystal_description       block
_cell_formula_units_Z            4
loop_
_atom_site_label
_atom_site_type_symbol
_atom_site_fract_x
_atom_site_fract_y
_atom_site_fract_z
C1 C -0.0370(2) 0.50933(18) 0.04009(8)
H1 H -0.0219 0.4196 0.0595
H2 H -0.0247 0.4994 -0.0039
H3 H -0.1575 0.5459 0.0496
C2 C 0.1057(2) 0.60608(17) 0.06312(7)
C3 C 0.0871(2) 0.75440(16) 0.04474(8)
H4 H -0.0433 0.7772 0.0407
H5 H 0.1447 0.7677 0.0047
C4 C 0.1741(2) 0.85200(16) 0.09031(8)
H6 H 0.1814 0.9449 0.0724
H7 H 0.0967 0.8575 0.1269
C5 C 0.3623(2) 0.80580(16) 0.10844(7)
C6 C 0.4974(2) 0.89902(17) 0.12337(7)
H8 H 0.4750 0.9946 0.1198
C7 C 0.6659(2) 0.85312(18) 0.14363(9)
H9 H 0.7582 0.9174 0.1535
C8 C 0.6989(2) 0.71452(19) 0.14943(9)
H10 H 0.8129 0.6835 0.1641
C9 C 0.5656(2) 0.62030(18) 0.13387(8)
H11 H 0.5897 0.5249 0.1374
C10 C 0.3959(2) 0.66441(16) 0.11298(7)
C11 C 0.2524(2) 0.56664(16) 0.09442(7)
N1 N 0.28261(19) 0.42498(14) 0.10897(6)
O1 O 0.3513(2) 0.20761(13) 0.08119(7)
C12 C 0.3384(3) 0.32978(19) 0.06791(9)
C13 C 0.3841(3) 0.3801(2) 0.00506(9)
H12 H 0.4867 0.3274 -0.0110
H13 H 0.4166 0.4775 0.0068
H14 H 0.2786 0.3681 -0.0214
C14 C 0.2563(2) 0.38313(18) 0.17247(8)
H15 H 0.3119 0.4531 0.1992
H16 H 0.3211 0.2956 0.1793
C15 C 0.0597(2) 0.36500(18) 0.19040(8)
C16 C -0.0169(2) 0.45287(19) 0.23260(8)
H17 H 0.0520 0.5277 0.2478
C17 C -0.1934(3) 0.4325(2) 0.25294(9)
H18 H -0.2441 0.4928 0.2822
C18 C -0.2939(3) 0.3262(2) 0.23090(9)
H19 H -0.4133 0.3111 0.2457
C19 C -0.2232(3) 0.2408(2) 0.18750(10)
H20 H -0.2956 0.1692 0.1712
C20 C -0.0441(3) 0.25908(19) 0.16713(9)
H21 H 0.0054 0.1991 0.1375
loop_
_geom_bond_atom_site_label_1
_geom_bond_atom_site_label_2
_geom_bond_site_symmetry_1
_geom_bond_site_symmetry_2
C1 H1 1_555 1_555
H2 C1 1_555 1_555
H3 C1 1_555 1_555
C2 C1 1_555 1_555
C3 C2 1_555 1_555
H4 C3 1_555 1_555
H5 C3 1_555 1_555
C4 C3 1_555 1_555
H6 C4 1_555 1_555
H7 C4 1_555 1_555
C5 C4 1_555 1_555
C6 C5 1_555 1_555
H8 C6 1_555 1_555
C7 C6 1_555 1_555
H9 C7 1_555 1_555
C8 C7 1_555 1_555
H10 C8 1_555 1_555
C9 C8 1_555 1_555
H11 C9 1_555 1_555
C10 C5 1_555 1_555
C11 C2 1_555 1_555
N1 C11 1_555 1_555
O1 C12 1_555 1_555
C12 N1 1_555 1_555
C13 C12 1_555 1_555
H12 C13 1_555 1_555
H13 C13 1_555 1_555
H14 C13 1_555 1_555
C14 N1 1_555 1_555
H15 C14 1_555 1_555
H16 C14 1_555 1_555
C15 C14 1_555 1_555
C16 C15 1_555 1_555
H17 C16 1_555 1_555
C17 C16 1_555 1_555
H18 C17 1_555 1_555
C18 C17 1_555 1_555
H19 C18 1_555 1_555
C19 C18 1_555 1_555
H20 C19 1_555 1_555
C20 C15 1_555 1_555
H21 C20 1_555 1_555
C9 C10 1_555 1_555
C10 C11 1_555 1_555
C19 C20 1_555 1_555

#END
