
#######################################################################
#
#                 Cambridge Crystallographic Data Centre
#                                CCDC 
#
#######################################################################
#
# If this CIF has been generated from an entry in the Cambridge 
# Structural Database, then it will include bibliographic, chemical, 
# crystal, experimental, refinement or atomic coordinate data resulting 
# from the CCDC's data processing and validation procedures.
#
#######################################################################

data_USEKOU
_chemical_formula_moiety         'C21 H24 Br1 N1 O1'
_chemical_name_systematic        
N-benzyl-2-bromo-2-methyl-N-(2-methyl-1-phenylprop-1-en-1-yl)propanamide
_symmetry_cell_setting           triclinic
_symmetry_space_group_name_H-M   'P -1'
_symmetry_Int_Tables_number      2
_space_group_name_Hall           '-P 1'
loop_
_symmetry_equiv_pos_site_id
_symmetry_equiv_pos_as_xyz
1 x,y,z
2 -x,-y,-z
_cell_length_a                   7.9989(2)
_cell_length_b                   9.6732(2)
_cell_length_c                   13.3484(3)
_cell_angle_alpha                90.048(2)
_cell_angle_beta                 96.165(2)
_cell_angle_gamma                112.241(3)
_cell_volume                     949.494
_exptl_crystal_colour            colorless
_exptl_crystal_description       block
_cell_formula_units_Z            2
loop_
_atom_site_label
_atom_site_type_symbol
_atom_site_fract_x
_atom_site_fract_y
_atom_site_fract_z
C1 C 0.8308(3) 0.2341(2) 0.16637(18)
H1 H 0.9075 0.1775 0.1851
H2 H 0.8232 0.2462 0.0933
H3 H 0.7087 0.1801 0.1855
Br1 Br 0.92372(3) 0.34656(2) 0.368185(14)
C2 C 0.9136(3) 0.3877(2) 0.22111(13)
C3 C 1.1034(3) 0.4722(2) 0.19306(14)
H4 H 1.1616 0.5645 0.2354
H5 H 1.0960 0.4970 0.1220
H6 H 1.1752 0.4098 0.2037
O1 O 0.63875(19) 0.40494(15) 0.14741(11)
C4 C 0.7812(2) 0.4701(2) 0.20079(12)
N1 N 0.8299(2) 0.61490(16) 0.23529(10)
C5 C 0.9718(2) 0.6944(2) 0.31844(12)
H7 H 1.0538 0.6398 0.3323
H8 H 0.9136 0.6952 0.3801
C6 C 1.0824(2) 0.8531(2) 0.29467(14)
C7 C 1.1131(3) 0.9697(2) 0.36433(17)
H9 H 1.0581 0.9496 0.4251
C8 C 1.2237(3) 1.1155(3) 0.3457(2)
H10 H 1.2441 1.1942 0.3938
C9 C 1.3039(3) 1.1462(3) 0.2575(2)
H11 H 1.3793 1.2458 0.2449
C10 C 1.2740(3) 1.0315(3) 0.18776(19)
H12 H 1.3293 1.0523 0.1271
C11 C 1.1636(3) 0.8863(2) 0.20584(15)
H13 H 1.1430 0.8084 0.1570
C12 C 0.7059(2) 0.68858(19) 0.20638(12)
C13 C 0.6771(3) 0.7241(2) 0.11144(13)
C14 C 0.7701(3) 0.6928(3) 0.02686(14)
H14 H 0.8658 0.6589 0.0547
H15 H 0.8240 0.7842 -0.0094
H16 H 0.6809 0.6148 -0.0197
C15 C 0.5418(3) 0.7931(2) 0.07748(14)
H17 H 0.4635 0.7859 0.1305
H18 H 0.4670 0.7398 0.0158
H19 H 0.6066 0.8984 0.0640
C16 C 0.6141(2) 0.7173(2) 0.29132(12)
C17 C 0.6179(3) 0.8593(2) 0.31221(13)
H20 H 0.6849 0.9406 0.2742
C18 C 0.5249(3) 0.8838(2) 0.38788(14)
H21 H 0.5264 0.9809 0.4005
C19 C 0.4300(3) 0.7666(3) 0.44496(14)
H22 H 0.3649 0.7829 0.4962
C20 C 0.4303(3) 0.6260(2) 0.42729(14)
H23 H 0.3670 0.5459 0.4672
C21 C 0.5229(3) 0.6016(2) 0.35127(13)
H24 H 0.5239 0.5049 0.3401
loop_
_geom_bond_atom_site_label_1
_geom_bond_atom_site_label_2
_geom_bond_site_symmetry_1
_geom_bond_site_symmetry_2
C1 H1 1_555 1_555
H2 C1 1_555 1_555
H3 C1 1_555 1_555
Br1 C2 1_555 1_555
C2 C1 1_555 1_555
C3 C2 1_555 1_555
H4 C3 1_555 1_555
H5 C3 1_555 1_555
H6 C3 1_555 1_555
O1 C4 1_555 1_555
C4 C2 1_555 1_555
N1 C4 1_555 1_555
C5 N1 1_555 1_555
H7 C5 1_555 1_555
H8 C5 1_555 1_555
C6 C5 1_555 1_555
C7 C6 1_555 1_555
H9 C7 1_555 1_555
C8 C7 1_555 1_555
H10 C8 1_555 1_555
C9 C8 1_555 1_555
H11 C9 1_555 1_555
C10 C9 1_555 1_555
H12 C10 1_555 1_555
C11 C6 1_555 1_555
H13 C11 1_555 1_555
C12 N1 1_555 1_555
C13 C12 1_555 1_555
C14 C13 1_555 1_555
H14 C14 1_555 1_555
H15 C14 1_555 1_555
H16 C14 1_555 1_555
C15 C13 1_555 1_555
H17 C15 1_555 1_555
H18 C15 1_555 1_555
H19 C15 1_555 1_555
C16 C12 1_555 1_555
C17 C16 1_555 1_555
H20 C17 1_555 1_555
C18 C17 1_555 1_555
H21 C18 1_555 1_555
C19 C18 1_555 1_555
H22 C19 1_555 1_555
C20 C19 1_555 1_555
H23 C20 1_555 1_555
C21 C16 1_555 1_555
H24 C21 1_555 1_555
C10 C11 1_555 1_555
C20 C21 1_555 1_555

#END
