
#######################################################################
#
#                 Cambridge Crystallographic Data Centre
#                                CCDC 
#
#######################################################################
#
# If this CIF has been generated from an entry in the Cambridge 
# Structural Database, then it will include bibliographic, chemical, 
# crystal, experimental, refinement or atomic coordinate data resulting 
# from the CCDC's data processing and validation procedures.
#
#######################################################################

data_USELAH
_chemical_formula_moiety         'C22 H25 N1 O1'
_chemical_name_systematic        
N-benzyl-N-(cyclohexylidene(phenyl)methyl)acetamide
_symmetry_cell_setting           monoclinic
_symmetry_space_group_name_H-M   'P 21/c'
_symmetry_Int_Tables_number      14
_space_group_name_Hall           '-P 2ybc'
loop_
_symmetry_equiv_pos_site_id
_symmetry_equiv_pos_as_xyz
1 x,y,z
2 -x,1/2+y,1/2-z
3 -x,-y,-z
4 x,1/2-y,1/2+z
_cell_length_a                   14.9540(3)
_cell_length_b                   8.16087(11)
_cell_length_c                   15.9498(3)
_cell_angle_alpha                90
_cell_angle_beta                 112.960(2)
_cell_angle_gamma                90
_cell_volume                     1792.27
_exptl_crystal_colour            colorless
_exptl_crystal_description       block
_cell_formula_units_Z            4
loop_
_atom_site_label
_atom_site_type_symbol
_atom_site_fract_x
_atom_site_fract_y
_atom_site_fract_z
C1 C 0.52688(8) 0.76248(16) 0.00744(8)
H1 H 0.4642 0.7152 0.0008
H2 H 0.5262 0.7876 -0.0529
H3 H 0.5382 0.8633 0.0435
O1 O 0.61052(6) 0.57257(11) 0.12469(5)
C2 C 0.60647(8) 0.64198(14) 0.05476(7)
N1 N 0.67370(6) 0.61040(11) 0.01858(6)
C3 C 0.75078(8) 0.49041(14) 0.06465(7)
H4 H 0.7579 0.4157 0.0188
H5 H 0.7320 0.4238 0.1071
C4 C 0.84666(8) 0.57318(13) 0.11687(7)
C5 C 0.85957(8) 0.66317(14) 0.19490(7)
H6 H 0.8082 0.6697 0.2158
C6 C 0.94610(9) 0.74302(15) 0.24233(8)
H7 H 0.9541 0.8040 0.2955
C7 C 1.02145(9) 0.73418(15) 0.21222(8)
H8 H 1.0810 0.7892 0.2446
C8 C 1.00958(8) 0.64512(15) 0.13505(8)
H9 H 1.0612 0.6384 0.1145
C9 C 0.92244(8) 0.56522(14) 0.08725(8)
H10 H 0.9146 0.5047 0.0340
C10 C 0.68006(7) 0.68866(14) -0.06009(7)
C11 C 0.70087(8) 0.84809(14) -0.06048(7)
C12 C 0.72570(9) 0.95986(14) 0.02079(8)
H11 H 0.7249 0.8970 0.0736
H12 H 0.6767 1.0482 0.0070
C13 C 0.82667(9) 1.03483(15) 0.04423(8)
H13 H 0.8397 1.1155 0.0939
H14 H 0.8763 0.9473 0.0665
C14 C 0.83574(11) 1.11930(16) -0.03751(8)
H15 H 0.7937 1.2177 -0.0537
H16 H 0.9037 1.1556 -0.0209
C15 C 0.80666(10) 1.00553(15) -0.11980(8)
H17 H 0.8542 0.9149 -0.1068
H18 H 0.8075 1.0671 -0.1730
C16 C 0.70503(9) 0.93485(14) -0.14232(8)
H19 H 0.6565 1.0244 -0.1611
H20 H 0.6889 0.8569 -0.1937
C17 C 0.66758(8) 0.57088(13) -0.13556(7)
C18 C 0.58724(8) 0.46687(14) -0.16757(7)
H21 H 0.5389 0.4744 -0.1429
C19 C 0.57717(9) 0.35277(15) -0.23494(8)
H22 H 0.5219 0.2832 -0.2564
C20 C 0.64736(9) 0.33949(15) -0.27129(8)
H23 H 0.6407 0.2603 -0.3170
C21 C 0.72717(8) 0.44242(15) -0.24052(7)
H24 H 0.7750 0.4350 -0.2658
C22 C 0.73756(8) 0.55638(14) -0.17283(7)
H25 H 0.7931 0.6255 -0.1515
loop_
_geom_bond_atom_site_label_1
_geom_bond_atom_site_label_2
_geom_bond_site_symmetry_1
_geom_bond_site_symmetry_2
C1 H1 1_555 1_555
H2 C1 1_555 1_555
H3 C1 1_555 1_555
O1 C2 1_555 1_555
C2 C1 1_555 1_555
N1 C2 1_555 1_555
C3 N1 1_555 1_555
H4 C3 1_555 1_555
H5 C3 1_555 1_555
C4 C3 1_555 1_555
C5 C4 1_555 1_555
H6 C5 1_555 1_555
C6 C5 1_555 1_555
H7 C6 1_555 1_555
C7 C6 1_555 1_555
H8 C7 1_555 1_555
C8 C7 1_555 1_555
H9 C8 1_555 1_555
C9 C4 1_555 1_555
H10 C9 1_555 1_555
C10 N1 1_555 1_555
C11 C10 1_555 1_555
C12 C11 1_555 1_555
H11 C12 1_555 1_555
H12 C12 1_555 1_555
C13 C12 1_555 1_555
H13 C13 1_555 1_555
H14 C13 1_555 1_555
C14 C13 1_555 1_555
H15 C14 1_555 1_555
H16 C14 1_555 1_555
C15 C14 1_555 1_555
H17 C15 1_555 1_555
H18 C15 1_555 1_555
C16 C11 1_555 1_555
H19 C16 1_555 1_555
H20 C16 1_555 1_555
C17 C10 1_555 1_555
C18 C17 1_555 1_555
H21 C18 1_555 1_555
C19 C18 1_555 1_555
H22 C19 1_555 1_555
C20 C19 1_555 1_555
H23 C20 1_555 1_555
C21 C20 1_555 1_555
H24 C21 1_555 1_555
C22 C17 1_555 1_555
H25 C22 1_555 1_555
C8 C9 1_555 1_555
C15 C16 1_555 1_555
C21 C22 1_555 1_555

#END
