
#######################################################################
#
#                 Cambridge Crystallographic Data Centre
#                                CCDC 
#
#######################################################################
#
# If this CIF has been generated from an entry in the Cambridge 
# Structural Database, then it will include bibliographic, chemical, 
# crystal, experimental, refinement or atomic coordinate data resulting 
# from the CCDC's data processing and validation procedures.
#
#######################################################################

data_USELIP
_chemical_formula_moiety         'C106 Cl24'
_chemical_name_systematic        tetracosachloro-C106fullerene
_symmetry_cell_setting           monoclinic
_symmetry_space_group_name_H-M   'C 2/c'
_symmetry_Int_Tables_number      15
_space_group_name_Hall           '-C 2yn'
loop_
_symmetry_equiv_pos_site_id
_symmetry_equiv_pos_as_xyz
1 x,y,z
2 -x,y,1/2-z
3 1/2+x,1/2+y,z
4 1/2-x,1/2+y,1/2-z
5 -x,-y,-z
6 x,-y,1/2+z
7 1/2-x,1/2-y,-z
8 1/2+x,1/2-y,1/2+z
_cell_length_a                   23.306(2)
_cell_length_b                   12.3220(10)
_cell_length_c                   27.987(3)
_cell_angle_alpha                90
_cell_angle_beta                 113.423(12)
_cell_angle_gamma                90
_cell_volume                     7374.9
_exptl_crystal_colour            orange
_exptl_crystal_description       block
_cell_formula_units_Z            4
loop_
_atom_site_label
_atom_site_type_symbol
_atom_site_fract_x
_atom_site_fract_y
_atom_site_fract_z
Cl1 Cl 0.36476(7) 0.69107(11) 0.30119(6)
Cl2 Cl 0.67466(8) 0.71303(16) 0.33781(7)
Cl3 Cl 0.79518(6) 0.20416(12) 0.40366(5)
Cl4 Cl 0.38941(8) -0.06748(14) 0.38756(6)
Cl5 Cl 0.2749(2) 0.4368(5) 0.3280(4)
Cl6 Cl 0.53322(9) 0.73305(13) 0.39044(6)
Cl7 Cl 0.75979(7) 0.48019(15) 0.43954(8)
Cl8 Cl 0.70415(7) -0.06035(13) 0.43266(6)
Cl9 Cl 0.57949(7) -0.01766(11) 0.48588(5)
Cl10 Cl 0.35628(8) 0.23673(14) 0.42683(9)
Cl11 Cl 0.62267(7) 0.52086(13) 0.49816(6)
Cl12 Cl 0.53898(6) 0.28068(11) 0.51833(5)
C1 C 0.5056(2) -0.0670(4) 0.27746(18)
C2 C 0.4567(2) -0.0416(4) 0.29466(19)
C3 C 0.3947(2) -0.0153(4) 0.2556(2)
C4 C 0.3562(3) 0.0637(4) 0.2661(2)
C5 C 0.3191(2) 0.1352(5) 0.2268(2)
C6 C 0.3025(5) 0.2309(8) 0.2466(4)
C7 C 0.2973(4) 0.3266(8) 0.2166(4)
C8 C 0.3198(4) 0.4134(7) 0.2528(3)
C9 C 0.3493(5) 0.5001(8) 0.2394(6)
C10 C 0.4014(3) 0.5699(5) 0.2878(2)
C11 C 0.4523(3) 0.6067(4) 0.2690(2)
C12 C 0.5142(3) 0.6144(5) 0.3031(2)
C13 C 0.5623(3) 0.6111(5) 0.2842(2)
C14 C 0.6263(3) 0.5911(6) 0.3233(2)
C15 C 0.6568(3) 0.5033(7) 0.3050(4)
C16 C 0.6852(3) 0.4195(7) 0.3412(4)
C17 C 0.7017(3) 0.3200(6) 0.3285(3)
C18 C 0.7115(2) 0.2194(5) 0.3629(2)
C19 C 0.6884(3) 0.1233(5) 0.3267(2)
C20 C 0.6597(3) 0.0361(5) 0.3373(2)
C21 C 0.6154(2) -0.0262(4) 0.29660(19)
C22 C 0.5670(2) -0.0548(4) 0.31317(19)
C23 C 0.5822(3) -0.0185(5) 0.3636(2)
C24 C 0.5356(3) 0.0076(5) 0.38092(19)
C25 C 0.4729(3) -0.0057(4) 0.34695(19)
C26 C 0.4234(3) 0.0422(5) 0.3623(2)
C27 C 0.3731(3) 0.0956(5) 0.3182(2)
C28 C 0.3573(5) 0.1854(9) 0.3366(4)
C29 C 0.3220(5) 0.2574(8) 0.2983(4)
C30 C 0.3300(5) 0.3786(9) 0.3053(4)
C31 C 0.4001(3) 0.4149(5) 0.3451(2)
C32 C 0.4313(3) 0.5052(5) 0.3383(2)
C33 C 0.4927(3) 0.5227(5) 0.3720(2)
C34 C 0.5346(3) 0.6010(5) 0.3608(2)
C35 C 0.5924(5) 0.5348(9) 0.3897(4)
C36 C 0.6344(5) 0.5246(10) 0.3705(4)
C37 C 0.6831(3) 0.4339(6) 0.3935(4)
C38 C 0.6643(3) 0.3318(5) 0.4131(3)
C39 C 0.6766(2) 0.2286(5) 0.3991(2)
C40 C 0.6476(2) 0.1379(4) 0.4102(2)
C41 C 0.6475(2) 0.0289(5) 0.3863(2)
C42 C 0.6048(3) 0.1542(4) 0.43327(19)
C43 C 0.5542(2) 0.0732(5) 0.42997(19)
C44 C 0.5043(3) 0.1514(5) 0.4300(2)
C45 C 0.4461(3) 0.1378(5) 0.3997(2)
C46 C 0.4004(3) 0.2314(5) 0.3851(2)
C47 C 0.4303(3) 0.3397(5) 0.3849(2)
C48 C 0.4926(3) 0.3559(5) 0.4178(2)
C49 C 0.5231(3) 0.4480(5) 0.4115(2)
C50 C 0.5941(3) 0.4572(5) 0.4347(2)
C51 C 0.6211(3) 0.3461(5) 0.4361(3)
C52 C 0.5921(3) 0.2574(5) 0.4460(2)
C53 C 0.5302(3) 0.2633(4) 0.45124(19)
Cl1A Cl 0.63524(7) 0.69107(11) 0.19881(6)
Cl2A Cl 0.32534(8) 0.71303(16) 0.16219(7)
Cl3A Cl 0.20482(6) 0.20416(12) 0.09634(5)
Cl4A Cl 0.61059(8) -0.06748(14) 0.11244(6)
Cl5A Cl 0.7251(2) 0.4368(5) 0.1720(4)
Cl6A Cl 0.46678(9) 0.73305(13) 0.10956(6)
Cl7A Cl 0.24021(7) 0.48019(15) 0.06046(8)
Cl8A Cl 0.29585(7) -0.06035(13) 0.06734(6)
Cl9A Cl 0.42051(7) -0.01766(11) 0.01412(5)
Cl10A Cl 0.64372(8) 0.23673(14) 0.07317(9)
Cl11A Cl 0.37733(7) 0.52086(13) 0.00184(6)
Cl12A Cl 0.46102(6) 0.28068(11) -0.01833(5)
C1A C 0.4944(2) -0.0670(4) 0.22254(18)
C2A C 0.5433(2) -0.0416(4) 0.20534(19)
C3A C 0.6053(2) -0.0153(4) 0.2444(2)
C4A C 0.6438(3) 0.0637(4) 0.2339(2)
C5A C 0.6809(2) 0.1352(5) 0.2732(2)
C6A C 0.6975(5) 0.2309(8) 0.2534(4)
C7A C 0.7027(4) 0.3266(8) 0.2834(4)
C8A C 0.6802(4) 0.4134(7) 0.2472(3)
C9A C 0.6507(5) 0.5001(8) 0.2606(6)
C10A C 0.5986(3) 0.5699(5) 0.2122(2)
C11A C 0.5477(3) 0.6067(4) 0.2310(2)
C12A C 0.4858(3) 0.6144(5) 0.1969(2)
C13A C 0.4377(3) 0.6111(5) 0.2158(2)
C14A C 0.3737(3) 0.5911(6) 0.1767(2)
C15A C 0.3432(3) 0.5033(7) 0.1950(4)
C16A C 0.3148(3) 0.4195(7) 0.1588(4)
C17A C 0.2983(3) 0.3200(6) 0.1715(3)
C18A C 0.2885(2) 0.2194(5) 0.1371(2)
C19A C 0.3116(3) 0.1233(5) 0.1733(2)
C20A C 0.3403(3) 0.0361(5) 0.1627(2)
C21A C 0.3846(2) -0.0262(4) 0.20340(19)
C22A C 0.4330(2) -0.0548(4) 0.18683(19)
C23A C 0.4178(3) -0.0185(5) 0.1364(2)
C24A C 0.4644(3) 0.0076(5) 0.11908(19)
C25A C 0.5271(3) -0.0057(4) 0.15305(19)
C26A C 0.5766(3) 0.0422(5) 0.1377(2)
C27A C 0.6269(3) 0.0956(5) 0.1818(2)
C28A C 0.6427(5) 0.1854(9) 0.1634(4)
C29A C 0.6780(5) 0.2574(8) 0.2017(4)
C30A C 0.6700(5) 0.3786(9) 0.1947(4)
C31A C 0.5999(3) 0.4149(5) 0.1549(2)
C32A C 0.5687(3) 0.5052(5) 0.1617(2)
C33A C 0.5073(3) 0.5227(5) 0.1280(2)
C34A C 0.4654(3) 0.6010(5) 0.1392(2)
C35A C 0.4076(5) 0.5348(9) 0.1103(4)
C36A C 0.3656(5) 0.5246(10) 0.1295(4)
C37A C 0.3169(3) 0.4339(6) 0.1065(4)
C38A C 0.3357(3) 0.3318(5) 0.0869(3)
C39A C 0.3234(2) 0.2286(5) 0.1009(2)
C40A C 0.3524(2) 0.1379(4) 0.0898(2)
C41A C 0.3525(2) 0.0289(5) 0.1137(2)
C42A C 0.3952(3) 0.1542(4) 0.06673(19)
C43A C 0.4458(2) 0.0732(5) 0.07003(19)
C44A C 0.4957(3) 0.1514(5) 0.0700(2)
C45A C 0.5539(3) 0.1378(5) 0.1003(2)
C46A C 0.5996(3) 0.2314(5) 0.1149(2)
C47A C 0.5697(3) 0.3397(5) 0.1151(2)
C48A C 0.5074(3) 0.3559(5) 0.0822(2)
C49A C 0.4769(3) 0.4480(5) 0.0885(2)
C50A C 0.4059(3) 0.4572(5) 0.0653(2)
C51A C 0.3789(3) 0.3461(5) 0.0639(3)
C52A C 0.4079(3) 0.2574(5) 0.0540(2)
C53A C 0.4698(3) 0.2633(4) 0.04876(19)
Cl13? Cl 0.2823(4) 0.4548(7) 0.3081(7)
C54? C 0.3148(7) 0.2509(12) 0.2295(6)
C55? C 0.3605(9) 0.4907(16) 0.2600(7)
C56? C 0.3648(7) 0.2181(13) 0.3224(6)
C57? C 0.3397(6) 0.2917(11) 0.2813(6)
C58? C 0.3493(8) 0.4124(15) 0.2956(8)
C59? C 0.6058(7) 0.5806(12) 0.3724(6)
C60? C 0.6345(7) 0.5057(11) 0.4074(6)
loop_
_geom_bond_atom_site_label_1
_geom_bond_atom_site_label_2
_geom_bond_site_symmetry_1
_geom_bond_site_symmetry_2
Cl1 C10 1_555 1_555
Cl2 C14 1_555 1_555
Cl3 C18 1_555 1_555
Cl4 C26 1_555 1_555
Cl5 C30 1_555 1_555
Cl6 C34 1_555 1_555
Cl7 C37 1_555 1_555
Cl8 C41 1_555 1_555
Cl9 C43 1_555 1_555
Cl10 C46 1_555 1_555
Cl11 C50 1_555 1_555
Cl12 C53 1_555 1_555
C1 C2 1_555 1_555
C2 C3 1_555 1_555
C3 C4 1_555 1_555
C4 C5 1_555 1_555
C5 C6 1_555 1_555
C6 C7 1_555 1_555
C7 C8 1_555 1_555
C8 C9 1_555 1_555
C9 C10 1_555 1_555
C10 C11 1_555 1_555
C11 C12 1_555 1_555
C12 C13 1_555 1_555
C13 C14 1_555 1_555
C14 C15 1_555 1_555
C15 C16 1_555 1_555
C16 C17 1_555 1_555
C17 C18 1_555 1_555
C18 C19 1_555 1_555
C19 C20 1_555 1_555
C20 C21 1_555 1_555
C21 C22 1_555 1_555
C22 C1 1_555 1_555
C23 C22 1_555 1_555
C24 C23 1_555 1_555
C25 C2 1_555 1_555
C26 C25 1_555 1_555
C27 C4 1_555 1_555
C28 C27 1_555 1_555
C29 C6 1_555 1_555
C30 C8 1_555 1_555
C31 C30 1_555 1_555
C32 C10 1_555 1_555
C33 C32 1_555 1_555
C34 C12 1_555 1_555
C35 C34 1_555 1_555
C36 C14 1_555 1_555
C37 C16 1_555 1_555
C38 C37 1_555 1_555
C39 C18 1_555 1_555
C40 C39 1_555 1_555
C41 C20 1_555 1_555
C42 C40 1_555 1_555
C43 C24 1_555 1_555
C44 C43 1_555 1_555
C45 C26 1_555 1_555
C46 C28 1_555 1_555
C47 C31 1_555 1_555
C48 C47 1_555 1_555
C49 C33 1_555 1_555
C50 C35 1_555 1_555
C51 C38 1_555 1_555
C52 C42 1_555 1_555
C53 C44 1_555 1_555
Cl1A C10A 1_555 1_555
Cl2A C14A 1_555 1_555
Cl3A C18A 1_555 1_555
Cl4A C26A 1_555 1_555
Cl5A C30A 1_555 1_555
Cl6A C34A 1_555 1_555
Cl7A C37A 1_555 1_555
Cl8A C41A 1_555 1_555
Cl9A C43A 1_555 1_555
Cl10A C46A 1_555 1_555
Cl11A C50A 1_555 1_555
Cl12A C53A 1_555 1_555
C1A C1 1_555 1_555
C2A C1A 1_555 1_555
C3A C21 1_555 1_555
C4A C3A 1_555 1_555
C5A C19 1_555 1_555
C6A C5A 1_555 1_555
C7A C17 1_555 1_555
C8A C7A 1_555 1_555
C9A C15 1_555 1_555
C10A C9A 1_555 1_555
C11A C13 1_555 1_555
C12A C11A 1_555 1_555
C13A C11 1_555 1_555
C14A C13A 1_555 1_555
C15A C9 1_555 1_555
C16A C15A 1_555 1_555
C17A C7 1_555 1_555
C18A C17A 1_555 1_555
C19A C5 1_555 1_555
C20A C19A 1_555 1_555
C21A C3 1_555 1_555
C22A C1A 1_555 1_555
C23A C22A 1_555 1_555
C24A C23A 1_555 1_555
C25A C2A 1_555 1_555
C26A C25A 1_555 1_555
C27A C4A 1_555 1_555
C28A C27A 1_555 1_555
C29A C6A 1_555 1_555
C30A C8A 1_555 1_555
C31A C30A 1_555 1_555
C32A C10A 1_555 1_555
C33A C32A 1_555 1_555
C34A C12A 1_555 1_555
C35A C34A 1_555 1_555
C36A C14A 1_555 1_555
C37A C16A 1_555 1_555
C38A C37A 1_555 1_555
C39A C18A 1_555 1_555
C40A C39A 1_555 1_555
C41A C20A 1_555 1_555
C42A C40A 1_555 1_555
C43A C24A 1_555 1_555
C44A C43A 1_555 1_555
C45A C26A 1_555 1_555
C46A C28A 1_555 1_555
C47A C31A 1_555 1_555
C48A C47A 1_555 1_555
C49A C33A 1_555 1_555
C50A C35A 1_555 1_555
C51A C38A 1_555 1_555
C52A C42A 1_555 1_555
C53A C44A 1_555 1_555
C23 C41 1_555 1_555
C24 C25 1_555 1_555
C26 C27 1_555 1_555
C28 C29 1_555 1_555
C29 C30 1_555 1_555
C31 C32 1_555 1_555
C33 C34 1_555 1_555
C35 C36 1_555 1_555
C36 C37 1_555 1_555
C38 C39 1_555 1_555
C40 C41 1_555 1_555
C42 C43 1_555 1_555
C44 C45 1_555 1_555
C45 C46 1_555 1_555
C46 C47 1_555 1_555
C48 C49 1_555 1_555
C48 C53 1_555 1_555
C49 C50 1_555 1_555
C50 C51 1_555 1_555
C51 C52 1_555 1_555
C52 C53 1_555 1_555
C2A C3A 1_555 1_555
C4A C5A 1_555 1_555
C6A C7A 1_555 1_555
C8A C9A 1_555 1_555
C10A C11A 1_555 1_555
C12A C13A 1_555 1_555
C14A C15A 1_555 1_555
C16A C17A 1_555 1_555
C18A C19A 1_555 1_555
C20A C21A 1_555 1_555
C21A C22A 1_555 1_555
C23A C41A 1_555 1_555
C24A C25A 1_555 1_555
C26A C27A 1_555 1_555
C28A C29A 1_555 1_555
C29A C30A 1_555 1_555
C31A C32A 1_555 1_555
C33A C34A 1_555 1_555
C35A C36A 1_555 1_555
C36A C37A 1_555 1_555
C38A C39A 1_555 1_555
C40A C41A 1_555 1_555
C42A C43A 1_555 1_555
C44A C45A 1_555 1_555
C45A C46A 1_555 1_555
C46A C47A 1_555 1_555
C48A C49A 1_555 1_555
C48A C53A 1_555 1_555
C49A C50A 1_555 1_555
C50A C51A 1_555 1_555
C51A C52A 1_555 1_555
C52A C53A 1_555 1_555

#END
