
#######################################################################
#
#                 Cambridge Crystallographic Data Centre
#                                CCDC 
#
#######################################################################
#
# If this CIF has been generated from an entry in the Cambridge 
# Structural Database, then it will include bibliographic, chemical, 
# crystal, experimental, refinement or atomic coordinate data resulting 
# from the CCDC's data processing and validation procedures.
#
#######################################################################

data_USEWUM
_chemical_formula_moiety         'C22 H20 N2 O4 S2'
_chemical_name_systematic        
"dimethyl 2,2'-diphenyl-4,4'-bi-1,3-thiazole-4,4'(5H,5'H)-dicarboxylate"
_symmetry_cell_setting           monoclinic
_symmetry_space_group_name_H-M   'P 21/c'
_symmetry_Int_Tables_number      14
_space_group_name_Hall           '-P 2ybc'
loop_
_symmetry_equiv_pos_site_id
_symmetry_equiv_pos_as_xyz
1 x,y,z
2 -x,1/2+y,1/2-z
3 -x,-y,-z
4 x,1/2-y,1/2+z
_cell_length_a                   11.3995(11)
_cell_length_b                   15.4075(15)
_cell_length_c                   12.3398(12)
_cell_angle_alpha                90
_cell_angle_beta                 97.817(2)
_cell_angle_gamma                90
_cell_volume                     2147.2
_exptl_crystal_colour            'pale yellow'
_exptl_crystal_description       block
_cell_formula_units_Z            4
loop_
_atom_site_label
_atom_site_type_symbol
_atom_site_fract_x
_atom_site_fract_y
_atom_site_fract_z
C1 C 0.15349(18) 0.04827(13) 0.36903(16)
H1 H 0.1774 0.0984 0.3362
C2 C 0.0936(2) -0.01547(14) 0.30572(17)
H2 H 0.0771 -0.0084 0.2303
C3 C 0.05809(19) -0.08996(13) 0.3543(2)
H3 H 0.0164 -0.1325 0.3117
C4 C 0.08413(18) -0.10143(13) 0.4654(2)
H4 H 0.0614 -0.1523 0.4974
C5 C 0.14407(16) -0.03766(12) 0.52992(17)
H5 H 0.1613 -0.0455 0.6051
C6 C 0.17829(15) 0.03805(11) 0.48173(15)
C7 C 0.23915(15) 0.10881(11) 0.54727(14)
C8 C 0.32709(15) 0.24151(12) 0.58287(13)
C9 C 0.34851(17) 0.20059(13) 0.69942(15)
H6 H 0.3053 0.2325 0.7491
H7 H 0.4321 0.2019 0.7279
C10 C 0.44202(16) 0.24917(14) 0.53105(16)
C11 C 0.6063(2) 0.1675(2) 0.4912(3)
H8 H 0.5812 0.1734 0.4140
H9 H 0.6409 0.1112 0.5060
H10 H 0.6640 0.2115 0.5147
C12 C -0.05927(17) 0.30399(13) 0.72534(17)
H11 H 0.0080 0.2809 0.7663
C13 C -0.16763(19) 0.29862(15) 0.7642(2)
H12 H -0.1733 0.2706 0.8301
C14 C -0.26682(19) 0.33479(17) 0.7052(2)
H13 H -0.3395 0.3311 0.7311
C15 C -0.25844(19) 0.37609(17) 0.6085(3)
H14 H -0.3253 0.4017 0.5699
C16 C -0.15145(17) 0.38025(14) 0.5673(2)
H15 H -0.1469 0.4074 0.5007
C17 C -0.05062(15) 0.34345(11) 0.62629(16)
C18 C 0.06467(15) 0.34648(11) 0.58357(14)
C19 C 0.22606(17) 0.36457(13) 0.46312(15)
H16 H 0.2432 0.3214 0.4103
H17 H 0.2681 0.4175 0.4504
C20 C 0.26474(14) 0.33118(12) 0.58154(13)
C21 C 0.34779(16) 0.39589(13) 0.64923(16)
C22 C 0.3788(3) 0.54311(18) 0.6984(3)
H18 H 0.3880 0.5280 0.7746
H19 H 0.3391 0.5980 0.6878
H20 H 0.4554 0.5471 0.6745
N1 N 0.25372(12) 0.18347(9) 0.50753(11)
N2 N 0.16110(12) 0.32232(10) 0.63949(11)
O1 O 0.46797(13) 0.30863(11) 0.47744(14)
O2 O 0.50540(13) 0.17737(11) 0.54957(15)
O3 O 0.43444(14) 0.37581(11) 0.70941(15)
O4 O 0.30898(13) 0.47658(9) 0.63505(13)
S1 S 0.29637(5) 0.09016(4) 0.68562(4)
S2 S 0.06977(5) 0.38466(4) 0.45014(4)
loop_
_geom_bond_atom_site_label_1
_geom_bond_atom_site_label_2
_geom_bond_site_symmetry_1
_geom_bond_site_symmetry_2
C1 H1 1_555 1_555
C2 C1 1_555 1_555
H2 C2 1_555 1_555
C3 C2 1_555 1_555
H3 C3 1_555 1_555
C4 C3 1_555 1_555
H4 C4 1_555 1_555
C5 C4 1_555 1_555
H5 C5 1_555 1_555
C6 C1 1_555 1_555
C7 C6 1_555 1_555
C8 C9 1_555 1_555
C9 H6 1_555 1_555
H7 C9 1_555 1_555
C10 C8 1_555 1_555
C11 H8 1_555 1_555
H9 C11 1_555 1_555
H10 C11 1_555 1_555
C12 H11 1_555 1_555
C13 C12 1_555 1_555
H12 C13 1_555 1_555
C14 C13 1_555 1_555
H13 C14 1_555 1_555
C15 C14 1_555 1_555
H14 C15 1_555 1_555
C16 C15 1_555 1_555
H15 C16 1_555 1_555
C17 C12 1_555 1_555
C18 C17 1_555 1_555
C19 H16 1_555 1_555
H17 C19 1_555 1_555
C20 C8 1_555 1_555
C21 C20 1_555 1_555
C22 H18 1_555 1_555
H19 C22 1_555 1_555
H20 C22 1_555 1_555
N1 C7 1_555 1_555
N2 C18 1_555 1_555
O1 C10 1_555 1_555
O2 C10 1_555 1_555
O3 C21 1_555 1_555
O4 C21 1_555 1_555
S1 C7 1_555 1_555
S2 C18 1_555 1_555
C5 C6 1_555 1_555
C8 N1 1_555 1_555
C9 S1 1_555 1_555
C11 O2 1_555 1_555
C16 C17 1_555 1_555
C19 C20 1_555 1_555
C19 S2 1_555 1_555
C20 N2 1_555 1_555
C22 O4 1_555 1_555

#END
