
#######################################################################
#
#                 Cambridge Crystallographic Data Centre
#                                CCDC 
#
#######################################################################
#
# If this CIF has been generated from an entry in the Cambridge 
# Structural Database, then it will include bibliographic, chemical, 
# crystal, experimental, refinement or atomic coordinate data resulting 
# from the CCDC's data processing and validation procedures.
#
#######################################################################

data_USICIK
_chemical_formula_moiety         'C27 H33 N3 O5'
_chemical_name_systematic        
'ethyl methyl (cyanomethyl)((5-(diisopropylcarbamoyl)pyridin-2-yl)(phenyl)methyl)malonate'
_symmetry_cell_setting           monoclinic
_symmetry_space_group_name_H-M   'P 21'
_symmetry_Int_Tables_number      4
_space_group_name_Hall           'P 2yb'
loop_
_symmetry_equiv_pos_site_id
_symmetry_equiv_pos_as_xyz
1 x,y,z
2 -x,1/2+y,-z
_cell_length_a                   7.7400(15)
_cell_length_b                   15.740(3)
_cell_length_c                   10.990(2)
_cell_angle_alpha                90
_cell_angle_beta                 90.17(3)
_cell_angle_gamma                90
_cell_volume                     1338.88
_exptl_crystal_colour            colorless
_exptl_crystal_description       block
_cell_formula_units_Z            2
loop_
_atom_site_label
_atom_site_type_symbol
_atom_site_fract_x
_atom_site_fract_y
_atom_site_fract_z
C1 C 1.0372(4) 0.76042(19) 0.8031(3)
H1 H 1.0745 0.7715 0.7214
H2 H 1.1337 0.7656 0.8577
H3 H 0.9496 0.8007 0.8253
C2 C 0.9640(3) 0.67109(16) 0.8108(2)
H4 H 0.937(3) 0.6608(17) 0.897(2)
C3 C 1.0922(3) 0.6037(2) 0.7733(3)
H5 H 1.0377 0.5489 0.7761
H6 H 1.1891 0.6044 0.8280
H7 H 1.1311 0.6148 0.6921
C4 C 0.5953(4) 0.6963(3) 0.9092(3)
H8 H 0.6861 0.6995 0.9688
H9 H 0.4909 0.6773 0.9474
H10 H 0.5769 0.7515 0.8742
C5 C 0.6456(3) 0.63478(15) 0.81093(18)
H11 H 0.549(3) 0.6326(16) 0.753(2)
C6 C 0.6737(4) 0.5448(2) 0.8567(3)
H12 H 0.7155 0.5100 0.7914
H13 H 0.5665 0.5222 0.8861
H14 H 0.7571 0.5454 0.9216
C7 C 0.7954(2) 0.67872(12) 0.62271(16)
C8 C 0.6272(2) 0.66993(11) 0.55415(15)
C9 C 0.4847(2) 0.72236(13) 0.56774(17)
H15 H 0.4861 0.7662 0.6244
C10 C 0.3400(2) 0.70850(13) 0.49571(17)
H16 H 0.2430 0.7429 0.5037
C11 C 0.3416(2) 0.64330(11) 0.41234(15)
C12 C 0.6179(2) 0.60796(13) 0.46638(17)
H17 H 0.7143 0.5737 0.4546
C13 C 0.1792(2) 0.62602(12) 0.33506(15)
H18 H 0.082(3) 0.6193(14) 0.3984(19)
C14 C 0.1372(3) 0.70203(12) 0.25470(16)
C15 C 0.2664(3) 0.74905(14) 0.1981(2)
H19 H 0.3814 0.7338 0.2093
C16 C 0.2260(4) 0.81843(15) 0.1251(2)
H20 H 0.3133 0.8492 0.0873
C17 C 0.0542(5) 0.84142(18) 0.1089(2)
H21 H 0.0261 0.8876 0.0598
C18 C -0.0730(4) 0.79642(18) 0.1648(2)
H22 H -0.1878 0.8123 0.1538
C19 C -0.0336(3) 0.72689(16) 0.2384(2)
H23 H -0.1217 0.6971 0.2767
C20 C 0.1918(2) 0.53987(11) 0.26269(15)
C21 C 0.0130(3) 0.51937(13) 0.20734(19)
C22 C -0.2584(3) 0.4570(2) 0.2370(3)
H24 H -0.3131 0.5051 0.1995
H25 H -0.3290 0.4366 0.3025
H26 H -0.2440 0.4127 0.1778
C23 C 0.2439(2) 0.46618(12) 0.34692(17)
C24 C 0.2114(4) 0.40806(17) 0.5458(2)
H27 H 0.2130 0.3537 0.5042
H28 H 0.1190 0.4069 0.6052
C25 C 0.3807(5) 0.4217(2) 0.6095(3)
H29 H 0.4728 0.4193 0.5513
H30 H 0.3973 0.3781 0.6695
H31 H 0.3805 0.4763 0.6484
C26 C 0.3173(3) 0.54716(13) 0.15534(17)
H32 H 0.2809 0.5945 0.1048
H33 H 0.4310 0.5608 0.1873
C27 C 0.3326(3) 0.47144(16) 0.07778(19)
N1 N 0.79752(19) 0.66428(10) 0.74288(13)
N2 N 0.4777(2) 0.59370(11) 0.39621(15)
N3 N 0.3493(3) 0.41684(16) 0.0121(2)
O1 O 0.92489(17) 0.69675(11) 0.56319(12)
O2 O 0.17896(19) 0.47579(9) 0.45783(12)
O3 O 0.32794(18) 0.40633(10) 0.31423(13)
O4 O -0.08998(17) 0.48203(11) 0.28438(16)
O5 O -0.0244(2) 0.53574(16) 0.10436(18)
loop_
_geom_bond_atom_site_label_1
_geom_bond_atom_site_label_2
_geom_bond_site_symmetry_1
_geom_bond_site_symmetry_2
C1 H1 1_555 1_555
H2 C1 1_555 1_555
H3 C1 1_555 1_555
C2 C1 1_555 1_555
H4 C2 1_555 1_555
C3 C2 1_555 1_555
H5 C3 1_555 1_555
H6 C3 1_555 1_555
H7 C3 1_555 1_555
C4 H8 1_555 1_555
H9 C4 1_555 1_555
H10 C4 1_555 1_555
C5 C4 1_555 1_555
H11 C5 1_555 1_555
C6 C5 1_555 1_555
H12 C6 1_555 1_555
H13 C6 1_555 1_555
H14 C6 1_555 1_555
C7 C8 1_555 1_555
C8 C9 1_555 1_555
C9 H15 1_555 1_555
C10 C9 1_555 1_555
H16 C10 1_555 1_555
C11 C10 1_555 1_555
C12 C8 1_555 1_555
H17 C12 1_555 1_555
C13 C11 1_555 1_555
H18 C13 1_555 1_555
C14 C13 1_555 1_555
C15 C14 1_555 1_555
H19 C15 1_555 1_555
C16 C15 1_555 1_555
H20 C16 1_555 1_555
C17 C16 1_555 1_555
H21 C17 1_555 1_555
C18 C17 1_555 1_555
H22 C18 1_555 1_555
C19 C14 1_555 1_555
H23 C19 1_555 1_555
C20 C13 1_555 1_555
C21 C20 1_555 1_555
C22 H24 1_555 1_555
H25 C22 1_555 1_555
H26 C22 1_555 1_555
C23 C20 1_555 1_555
C24 H27 1_555 1_555
H28 C24 1_555 1_555
C25 C24 1_555 1_555
H29 C25 1_555 1_555
H30 C25 1_555 1_555
H31 C25 1_555 1_555
C26 C20 1_555 1_555
H32 C26 1_555 1_555
H33 C26 1_555 1_555
C27 C26 1_555 1_555
N1 C2 1_555 1_555
N2 C11 1_555 1_555
N3 C27 1_555 1_555
O1 C7 1_555 1_555
O2 C23 1_555 1_555
O3 C23 1_555 1_555
O4 C21 1_555 1_555
O5 C21 1_555 1_555
C5 N1 1_555 1_555
C7 N1 1_555 1_555
C12 N2 1_555 1_555
C18 C19 1_555 1_555
C22 O4 1_555 1_555
C24 O2 1_555 1_555

#END
