
#######################################################################
#
#                 Cambridge Crystallographic Data Centre
#                                CCDC 
#
#######################################################################
#
# If this CIF has been generated from an entry in the Cambridge 
# Structural Database, then it will include bibliographic, chemical, 
# crystal, experimental, refinement or atomic coordinate data resulting 
# from the CCDC's data processing and validation procedures.
#
#######################################################################

data_USICEG
_chemical_formula_moiety         'C23 H17 Cl1 N4 O5'
_chemical_name_systematic        
2-(1-(4-chloro-1-methyl-2-oxo-3-(1H-pyrrol-1-yl)-2,3-dihydro-1H-indol-3-yl)-2-nitroethyl)-1H-isoindole-1,3(2H)-dione
_symmetry_cell_setting           monoclinic
_symmetry_space_group_name_H-M   'P 21'
_symmetry_Int_Tables_number      4
_space_group_name_Hall           'P 2yb'
loop_
_symmetry_equiv_pos_site_id
_symmetry_equiv_pos_as_xyz
1 x,y,z
2 -x,1/2+y,-z
_cell_length_a                   9.0167(8)
_cell_length_b                   9.9451(9)
_cell_length_c                   12.3020(11)
_cell_angle_alpha                90
_cell_angle_beta                 106.4260(10)
_cell_angle_gamma                90
_cell_volume                     1058.12
_exptl_crystal_colour            colorless
_exptl_crystal_description       block
_cell_formula_units_Z            2
loop_
_atom_site_label
_atom_site_type_symbol
_atom_site_fract_x
_atom_site_fract_y
_atom_site_fract_z
Cl1 Cl 0.97084(3) 0.17187(4) 0.97993(2)
O1 O 0.71280(11) 0.15117(11) 0.49661(8)
O2 O 1.24824(14) -0.00923(13) 0.66589(11)
O3 O 1.29074(14) 0.17641(14) 0.58962(13)
O4 O 0.94985(11) 0.43840(10) 0.60070(8)
O5 O 1.27661(11) 0.21378(10) 0.89784(8)
N1 N 1.08477(11) 0.29851(10) 0.74495(8)
N2 N 0.64367(12) 0.31969(11) 0.60217(10)
N3 N 0.79548(12) 0.02955(10) 0.72965(9)
N4 N 1.20546(14) 0.09635(13) 0.61700(11)
C1 C 1.28422(15) 0.72631(14) 0.82988(12)
H1 H 1.2980 0.8202 0.8221
C2 C 1.17364(14) 0.65790(14) 0.74525(11)
H2 H 1.1118 0.7031 0.6801
C3 C 1.15829(13) 0.52135(12) 0.76076(10)
C4 C 1.04993(14) 0.42261(12) 0.68917(10)
C5 C 1.00967(12) 0.17069(13) 0.70623(9)
H3 H 1.0634 0.1015 0.7627
C6 C 0.83470(12) 0.16671(13) 0.70347(9)
C7 C 0.79494(13) 0.27017(12) 0.78075(11)
C8 C 0.68693(15) 0.36027(13) 0.71526(12)
C9 C 0.63676(17) 0.47209(14) 0.76269(15)
H4 H 0.5626 0.5324 0.7179
C10 C 0.69972(18) 0.49203(14) 0.87867(15)
H5 H 0.6713 0.5701 0.9125
C11 C 1.37477(14) 0.65961(15) 0.92554(11)
H6 H 1.4469 0.7093 0.9827
C12 C 1.36115(14) 0.52095(14) 0.93877(11)
H7 H 1.4241 0.4748 1.0029
C13 C 1.25206(14) 0.45402(13) 0.85445(11)
C14 C 1.21354(13) 0.30809(13) 0.84241(10)
C15 C 0.72436(14) 0.20912(13) 0.58527(11)
C16 C 0.84852(14) 0.28855(13) 0.89631(11)
C17 C 0.80256(17) 0.40161(14) 0.94654(13)
H8 H 0.8412 0.4162 1.0259
C18 C 0.53373(16) 0.39128(17) 0.51118(14)
H9 H 0.5197 0.3423 0.4398
H10 H 0.5731 0.4817 0.5040
H11 H 0.4343 0.3981 0.5284
C19 C 0.66379(15) -0.00181(14) 0.75921(12)
H12 H 0.5874 0.0602 0.7671
C20 C 0.66149(17) -0.13821(15) 0.77546(13)
H13 H 0.5842 -0.1872 0.7974
C21 C 0.79469(16) -0.19237(13) 0.75364(12)
H14 H 0.8234 -0.2846 0.7580
C22 C 0.87540(16) -0.08780(13) 0.72490(12)
H15 H 0.9697 -0.0948 0.7052
C23 C 1.03738(15) 0.13136(13) 0.59298(11)
H16 H 0.9723 0.0532 0.5596
H17 H 1.0110 0.2072 0.5388
loop_
_geom_bond_atom_site_label_1
_geom_bond_atom_site_label_2
_geom_bond_site_symmetry_1
_geom_bond_site_symmetry_2
Cl1 C16 1_555 1_555
O1 C15 1_555 1_555
O2 N4 1_555 1_555
O3 N4 1_555 1_555
O4 C4 1_555 1_555
O5 C14 1_555 1_555
N1 C4 1_555 1_555
N2 C8 1_555 1_555
N3 C6 1_555 1_555
N4 C23 1_555 1_555
C1 H1 1_555 1_555
C2 C1 1_555 1_555
H2 C2 1_555 1_555
C3 C2 1_555 1_555
C4 C3 1_555 1_555
C5 N1 1_555 1_555
H3 C5 1_555 1_555
C6 C5 1_555 1_555
C7 C6 1_555 1_555
C8 C7 1_555 1_555
C9 C8 1_555 1_555
H4 C9 1_555 1_555
C10 C9 1_555 1_555
H5 C10 1_555 1_555
C11 C1 1_555 1_555
H6 C11 1_555 1_555
C12 C11 1_555 1_555
H7 C12 1_555 1_555
C13 C3 1_555 1_555
C14 N1 1_555 1_555
C15 N2 1_555 1_555
C16 C7 1_555 1_555
C17 C10 1_555 1_555
H8 C17 1_555 1_555
C18 N2 1_555 1_555
H9 C18 1_555 1_555
H10 C18 1_555 1_555
H11 C18 1_555 1_555
C19 N3 1_555 1_555
H12 C19 1_555 1_555
C20 C19 1_555 1_555
H13 C20 1_555 1_555
C21 C20 1_555 1_555
H14 C21 1_555 1_555
C22 N3 1_555 1_555
H15 C22 1_555 1_555
C23 C5 1_555 1_555
H16 C23 1_555 1_555
H17 C23 1_555 1_555
C6 C15 1_555 1_555
C12 C13 1_555 1_555
C13 C14 1_555 1_555
C16 C17 1_555 1_555
C21 C22 1_555 1_555

#END
