
#######################################################################
#
#                 Cambridge Crystallographic Data Centre
#                                CCDC 
#
#######################################################################
#
# If this CIF has been generated from an entry in the Cambridge 
# Structural Database, then it will include bibliographic, chemical, 
# crystal, experimental, refinement or atomic coordinate data resulting 
# from the CCDC's data processing and validation procedures.
#
#######################################################################

data_USIDOR
_chemical_formula_moiety         'C22 H16 O1 S1'
_chemical_name_systematic        
3-(4-methylphenyl)-2-(phenylsulfanyl)-1H-inden-1-one
_symmetry_cell_setting           monoclinic
_symmetry_space_group_name_H-M   'P 21/c'
_symmetry_Int_Tables_number      14
_space_group_name_Hall           '-P 2ybc'
loop_
_symmetry_equiv_pos_site_id
_symmetry_equiv_pos_as_xyz
1 x,y,z
2 -x,1/2+y,1/2-z
3 -x,-y,-z
4 x,1/2-y,1/2+z
_cell_length_a                   10.168(3)
_cell_length_b                   15.700(4)
_cell_length_c                   11.009(3)
_cell_angle_alpha                90
_cell_angle_beta                 94.542(5)
_cell_angle_gamma                90
_cell_volume                     1751.93
_exptl_crystal_colour            red
_exptl_crystal_description       Block
_cell_formula_units_Z            4
loop_
_atom_site_label
_atom_site_type_symbol
_atom_site_fract_x
_atom_site_fract_y
_atom_site_fract_z
S1 S 0.90945(5) 0.23092(4) 0.48079(5)
O1 O 0.63966(14) 0.12204(10) 0.49899(14)
C1 C 0.66669(19) -0.03843(13) 0.6664(2)
H1 H 0.5788 -0.0357 0.6360
C2 C 0.7123(2) -0.10485(14) 0.7411(2)
H2 H 0.6542 -0.1473 0.7614
C3 C 0.8423(2) -0.10895(13) 0.7856(2)
H3 H 0.8710 -0.1547 0.8345
C4 C 0.9315(2) -0.04584(12) 0.7589(2)
H4 H 1.0193 -0.0486 0.7897
C5 C 0.88677(16) 0.02051(11) 0.68579(17)
C6 C 0.75555(17) 0.02331(11) 0.63863(16)
C7 C 0.73914(18) 0.09876(13) 0.55725(17)
C8 C 0.87275(18) 0.14043(12) 0.56343(17)
C9 C 0.95680(16) 0.09555(11) 0.63985(16)
C10 C 1.09412(16) 0.11766(11) 0.67987(17)
C11 C 1.13204(19) 0.12615(13) 0.8027(2)
H5 H 1.0721 0.1143 0.8601
C12 C 1.2583(2) 0.15215(14) 0.8407(2)
H6 H 1.2808 0.1602 0.9234
C13 C 1.3509(2) 0.16634(13) 0.7598(3)
C14 C 1.3141(2) 0.15682(14) 0.6379(3)
H7 H 1.3763 0.1658 0.5817
C15 C 1.18688(19) 0.13418(14) 0.5966(2)
H8 H 1.1634 0.1300 0.5134
C16 C 1.4915(2) 0.19076(19) 0.8025(4)
H9 H 1.5434 0.1401 0.8169
H10 H 1.4915 0.2230 0.8766
H11 H 1.5285 0.2246 0.7411
C17 C 0.80841(18) 0.30971(12) 0.54035(15)
C18 C 0.7653(2) 0.30706(14) 0.65614(18)
H12 H 0.7876 0.2609 0.7065
C19 C 0.6905(3) 0.37136(15) 0.6976(2)
H13 H 0.6606 0.3681 0.7752
C20 C 0.6596(3) 0.44047(16) 0.6255(3)
H14 H 0.6080 0.4842 0.6533
C21 C 0.7053(3) 0.44474(17) 0.5117(3)
H15 H 0.6870 0.4925 0.4633
C22 C 0.7769(2) 0.37993(15) 0.4689(2)
H16 H 0.8049 0.3830 0.3907
loop_
_geom_bond_atom_site_label_1
_geom_bond_atom_site_label_2
_geom_bond_site_symmetry_1
_geom_bond_site_symmetry_2
S1 C8 1_555 1_555
O1 C7 1_555 1_555
C1 H1 1_555 1_555
C2 C1 1_555 1_555
H2 C2 1_555 1_555
C3 C2 1_555 1_555
H3 C3 1_555 1_555
C4 C3 1_555 1_555
H4 C4 1_555 1_555
C5 C4 1_555 1_555
C6 C1 1_555 1_555
C7 C6 1_555 1_555
C8 C7 1_555 1_555
C9 C5 1_555 1_555
C10 C9 1_555 1_555
C11 C10 1_555 1_555
H5 C11 1_555 1_555
C12 C11 1_555 1_555
H6 C12 1_555 1_555
C13 C12 1_555 1_555
C14 C13 1_555 1_555
H7 C14 1_555 1_555
C15 C10 1_555 1_555
H8 C15 1_555 1_555
C16 C13 1_555 1_555
H9 C16 1_555 1_555
H10 C16 1_555 1_555
H11 C16 1_555 1_555
C17 S1 1_555 1_555
C18 C17 1_555 1_555
H12 C18 1_555 1_555
C19 C18 1_555 1_555
H13 C19 1_555 1_555
C20 C19 1_555 1_555
H14 C20 1_555 1_555
C21 C20 1_555 1_555
H15 C21 1_555 1_555
C22 C17 1_555 1_555
H16 C22 1_555 1_555
C5 C6 1_555 1_555
C8 C9 1_555 1_555
C14 C15 1_555 1_555
C21 C22 1_555 1_555

#END
