
#######################################################################
#
#                 Cambridge Crystallographic Data Centre
#                                CCDC 
#
#######################################################################
#
# If this CIF has been generated from an entry in the Cambridge 
# Structural Database, then it will include bibliographic, chemical, 
# crystal, experimental, refinement or atomic coordinate data resulting 
# from the CCDC's data processing and validation procedures.
#
#######################################################################

data_USIJUC
_chemical_formula_moiety         'C28 H19 N3 O3'
_chemical_name_systematic        
7-(4-Methoxyphenyl)-8-methyl-10-phenyl-5H-benzo[h]pyrazolo[3,4-b]quinoline-5,6(10H)-dione
_symmetry_cell_setting           triclinic
_symmetry_space_group_name_H-M   'P -1'
_symmetry_Int_Tables_number      2
_space_group_name_Hall           '-P 1'
loop_
_symmetry_equiv_pos_site_id
_symmetry_equiv_pos_as_xyz
1 x,y,z
2 -x,-y,-z
_cell_length_a                   9.1940(10)
_cell_length_b                   9.8540(10)
_cell_length_c                   12.9140(14)
_cell_angle_alpha                102.364(2)
_cell_angle_beta                 103.646(2)
_cell_angle_gamma                98.3500(10)
_cell_volume                     1086.72
_exptl_crystal_colour            red
_exptl_crystal_description       block
_cell_formula_units_Z            2
loop_
_atom_site_label
_atom_site_type_symbol
_atom_site_fract_x
_atom_site_fract_y
_atom_site_fract_z
N1 N 1.2691(2) 0.5633(2) 0.40167(16)
N2 N 1.4412(2) 0.7393(2) 0.36339(19)
N3 N 1.5712(3) 0.8433(2) 0.4220(2)
O1 O 1.3250(3) 0.5577(2) 0.77777(17)
O2 O 1.1128(3) 0.3231(3) 0.71193(19)
O3 O 1.8189(2) 0.9568(2) 1.05755(16)
C1 C 1.3868(3) 0.6741(3) 0.4334(2)
C2 C 1.4807(3) 0.7377(2) 0.5404(2)
C3 C 1.5939(3) 0.8431(3) 0.5264(2)
C4 C 1.7265(3) 0.9439(3) 0.6120(2)
H1 H 1.7975 0.9829 0.5768
H2 H 1.7766 0.8943 0.6616
H3 H 1.6906 1.0193 0.6526
C5 C 1.4488(3) 0.6857(2) 0.6264(2)
C6 C 1.3254(3) 0.5685(2) 0.5967(2)
C7 C 1.2403(3) 0.5113(2) 0.4838(2)
C8 C 1.2754(3) 0.5081(3) 0.6797(3)
C9 C 1.1480(3) 0.3752(3) 0.6419(3)
C10 C 1.0708(3) 0.3188(3) 0.5245(2)
C11 C 0.9541(3) 0.1991(3) 0.4894(3)
H4 H 0.9282 0.1544 0.5410
C12 C 0.8767(3) 0.1458(3) 0.3808(3)
H5 H 0.7991 0.0650 0.3582
C13 C 0.9151(3) 0.2135(3) 0.3046(3)
H6 H 0.8620 0.1788 0.2303
C14 C 1.0322(3) 0.3326(3) 0.3381(2)
H7 H 1.0567 0.3776 0.2863
C15 C 1.1130(3) 0.3854(3) 0.4484(2)
C16 C 1.3873(4) 0.7096(3) 0.2462(2)
C17 C 1.2318(4) 0.6760(3) 0.1980(2)
H8 H 1.1641 0.6786 0.2413
C18 C 1.1780(4) 0.6384(3) 0.0847(3)
H9 H 1.0731 0.6147 0.0514
C19 C 1.2759(6) 0.6356(4) 0.0213(3)
H10 H 1.2378 0.6093 -0.0551
C20 C 1.4304(6) 0.6711(4) 0.0685(3)
H11 H 1.4969 0.6696 0.0242
C21 C 1.4884(4) 0.7096(3) 0.1830(3)
H12 H 1.5933 0.7348 0.2159
C22 C 1.5449(3) 0.7531(3) 0.7420(2)
C23 C 1.5369(3) 0.8880(3) 0.7963(2)
H13 H 1.4687 0.9360 0.7613
C24 C 1.6289(3) 0.9515(3) 0.9015(2)
H14 H 1.6209 1.0413 0.9376
C25 C 1.7322(3) 0.8836(3) 0.9535(2)
C26 C 1.7427(3) 0.7509(3) 0.9005(2)
H15 H 1.8129 0.7042 0.9351
C27 C 1.6486(3) 0.6867(3) 0.7956(2)
H16 H 1.6557 0.5961 0.7604
C28 C 1.9325(4) 0.8925(3) 1.1116(3)
H17 H 1.8843 0.8066 1.1241
H18 H 1.9907 0.9566 1.1810
H19 H 1.9995 0.8707 1.0663
loop_
_geom_bond_atom_site_label_1
_geom_bond_atom_site_label_2
_geom_bond_site_symmetry_1
_geom_bond_site_symmetry_2
N1 C1 1_555 1_555
N2 N3 1_555 1_555
N3 C3 1_555 1_555
O1 C8 1_555 1_555
O2 C9 1_555 1_555
O3 C25 1_555 1_555
C1 N2 1_555 1_555
C2 C1 1_555 1_555
C3 C2 1_555 1_555
C4 C3 1_555 1_555
H1 C4 1_555 1_555
H2 C4 1_555 1_555
H3 C4 1_555 1_555
C5 C2 1_555 1_555
C6 C5 1_555 1_555
C7 N1 1_555 1_555
C8 C6 1_555 1_555
C9 C8 1_555 1_555
C10 C9 1_555 1_555
C11 C10 1_555 1_555
H4 C11 1_555 1_555
C12 C11 1_555 1_555
H5 C12 1_555 1_555
C13 C12 1_555 1_555
H6 C13 1_555 1_555
C14 C13 1_555 1_555
H7 C14 1_555 1_555
C15 C7 1_555 1_555
C16 N2 1_555 1_555
C17 C16 1_555 1_555
H8 C17 1_555 1_555
C18 C17 1_555 1_555
H9 C18 1_555 1_555
C19 C18 1_555 1_555
H10 C19 1_555 1_555
C20 C19 1_555 1_555
H11 C20 1_555 1_555
C21 C16 1_555 1_555
H12 C21 1_555 1_555
C22 C5 1_555 1_555
C23 C22 1_555 1_555
H13 C23 1_555 1_555
C24 C23 1_555 1_555
H14 C24 1_555 1_555
C25 C24 1_555 1_555
C26 C25 1_555 1_555
H15 C26 1_555 1_555
C27 C22 1_555 1_555
H16 C27 1_555 1_555
C28 O3 1_555 1_555
H17 C28 1_555 1_555
H18 C28 1_555 1_555
H19 C28 1_555 1_555
C6 C7 1_555 1_555
C10 C15 1_555 1_555
C14 C15 1_555 1_555
C20 C21 1_555 1_555
C26 C27 1_555 1_555

#END
