
#######################################################################
#
#                 Cambridge Crystallographic Data Centre
#                                CCDC 
#
#######################################################################
#
# If this CIF has been generated from an entry in the Cambridge 
# Structural Database, then it will include bibliographic, chemical, 
# crystal, experimental, refinement or atomic coordinate data resulting 
# from the CCDC's data processing and validation procedures.
#
#######################################################################

data_USIKEN
_chemical_formula_moiety         'C13 H25 I1 O2 Si1'
_chemical_name_systematic        
5-((t-Butyl(dimethyl)silyl)oxy)-2-iodo-6-methylcyclohex-2-en-1-ol
_symmetry_cell_setting           orthorhombic
_symmetry_space_group_name_H-M   'P 21 21 21'
_symmetry_Int_Tables_number      19
_space_group_name_Hall           'P 2ac 2ab'
loop_
_symmetry_equiv_pos_site_id
_symmetry_equiv_pos_as_xyz
1 x,y,z
2 1/2-x,-y,1/2+z
3 -x,1/2+y,1/2-z
4 1/2+x,1/2-y,-z
_cell_length_a                   11.5224(12)
_cell_length_b                   11.6757(14)
_cell_length_c                   12.5624(15)
_cell_angle_alpha                90
_cell_angle_beta                 90
_cell_angle_gamma                90
_cell_volume                     1690.05
_exptl_crystal_colour            colorless
_exptl_crystal_description       block
_cell_formula_units_Z            4
loop_
_atom_site_label
_atom_site_type_symbol
_atom_site_fract_x
_atom_site_fract_y
_atom_site_fract_z
C1 C 0.3879(3) 0.7946(3) 0.1562(2)
C2 C 0.4401(3) 0.6777(3) 0.1562(3)
H1 H 0.3822 0.6245 0.1275
C3 C 0.5456(3) 0.6750(3) 0.0827(3)
H2 H 0.5163 0.6834 0.0098
C4 C 0.6252(3) 0.7755(2) 0.1030(2)
H3 H 0.6921 0.7706 0.0550
C5 C 0.5625(3) 0.8873(3) 0.0837(3)
H4 H 0.6055 0.9488 0.1176
H5 H 0.5611 0.9026 0.0078
C6 C 0.4414(3) 0.8877(3) 0.1249(3)
H6 H 0.4020 0.9571 0.1285
C7 C 0.6080(4) 0.5592(3) 0.0876(4)
H7 H 0.6716 0.5591 0.0383
H8 H 0.5546 0.4992 0.0693
H9 H 0.6368 0.5468 0.1584
C8 C 0.8891(3) 0.6660(3) 0.1911(3)
H10 H 0.8649 0.5959 0.2243
H11 H 0.9699 0.6787 0.2053
H12 H 0.8770 0.6608 0.1156
C9 C 0.8608(3) 0.9226(3) 0.1897(4)
H13 H 0.8597 0.9191 0.1134
H14 H 0.9391 0.9336 0.2138
H15 H 0.8135 0.9854 0.2133
C10 C 0.8008(3) 0.7860(3) 0.3948(2)
C11 C 0.7306(5) 0.8868(4) 0.4355(4)
H16 H 0.6523 0.8810 0.4098
H17 H 0.7646 0.9569 0.4106
H18 H 0.7304 0.8862 0.5119
C12 C 0.7462(4) 0.6751(3) 0.4341(3)
H19 H 0.7535 0.6706 0.5101
H20 H 0.7851 0.6111 0.4020
H21 H 0.6655 0.6737 0.4149
C13 C 0.9254(4) 0.7972(5) 0.4365(4)
H22 H 0.9579 0.8686 0.4129
H23 H 0.9715 0.7350 0.4098
H24 H 0.9249 0.7951 0.5129
I1 I 0.21838(2) 0.80396(3) 0.21874(2)
O1 O 0.66512(16) 0.77039(16) 0.21145(15)
O2 O 0.4662(2) 0.6426(2) 0.2618(2)
H25 H 0.5180 0.6832 0.2860
Si1 Si 0.80291(7) 0.78664(7) 0.24525(6)
loop_
_geom_bond_atom_site_label_1
_geom_bond_atom_site_label_2
_geom_bond_site_symmetry_1
_geom_bond_site_symmetry_2
C1 C2 1_555 1_555
C2 H1 1_555 1_555
C3 C2 1_555 1_555
H2 C3 1_555 1_555
C4 C3 1_555 1_555
H3 C4 1_555 1_555
C5 C4 1_555 1_555
H4 C5 1_555 1_555
H5 C5 1_555 1_555
C6 C1 1_555 1_555
H6 C6 1_555 1_555
C7 C3 1_555 1_555
H7 C7 1_555 1_555
H8 C7 1_555 1_555
H9 C7 1_555 1_555
C8 H10 1_555 1_555
H11 C8 1_555 1_555
H12 C8 1_555 1_555
C9 H13 1_555 1_555
H14 C9 1_555 1_555
H15 C9 1_555 1_555
C10 C11 1_555 1_555
C11 H16 1_555 1_555
H17 C11 1_555 1_555
H18 C11 1_555 1_555
C12 C10 1_555 1_555
H19 C12 1_555 1_555
H20 C12 1_555 1_555
H21 C12 1_555 1_555
C13 C10 1_555 1_555
H22 C13 1_555 1_555
H23 C13 1_555 1_555
H24 C13 1_555 1_555
I1 C1 1_555 1_555
O1 C4 1_555 1_555
O2 C2 1_555 1_555
H25 O2 1_555 1_555
Si1 C8 1_555 1_555
C5 C6 1_555 1_555
C9 Si1 1_555 1_555
C10 Si1 1_555 1_555
O1 Si1 1_555 1_555

#END
