
#######################################################################
#
#                 Cambridge Crystallographic Data Centre
#                                CCDC 
#
#######################################################################
#
# If this CIF has been generated from an entry in the Cambridge 
# Structural Database, then it will include bibliographic, chemical, 
# crystal, experimental, refinement or atomic coordinate data resulting 
# from the CCDC's data processing and validation procedures.
#
#######################################################################

data_USIMEP
_chemical_formula_moiety         'C16 H18 N2 O6'
_chemical_name_systematic        
'Methyl 2-acetamido-2-(4-hydroxy-2-methyl-1,3-dioxo-1,2,3,4-tetrahydroisoquinolin-4-yl)propanoate'
_symmetry_cell_setting           orthorhombic
_symmetry_space_group_name_H-M   'F d d 2'
_symmetry_Int_Tables_number      43
_space_group_name_Hall           'F 2 -2d'
loop_
_symmetry_equiv_pos_site_id
_symmetry_equiv_pos_as_xyz
1 x,y,z
2 -x,-y,z
3 1/4+x,1/4-y,1/4+z
4 1/4-x,1/4+y,1/4+z
5 x,1/2+y,1/2+z
6 -x,1/2-y,1/2+z
7 1/4+x,3/4-y,3/4+z
8 1/4-x,3/4+y,3/4+z
9 1/2+x,y,1/2+z
10 1/2-x,-y,1/2+z
11 3/4+x,1/4-y,3/4+z
12 3/4-x,1/4+y,3/4+z
13 1/2+x,1/2+y,z
14 1/2-x,1/2-y,z
15 3/4+x,3/4-y,1/4+z
16 3/4-x,3/4+y,1/4+z
_cell_length_a                   28.269(3)
_cell_length_b                   30.785(3)
_cell_length_c                   7.2402(7)
_cell_angle_alpha                90
_cell_angle_beta                 90
_cell_angle_gamma                90
_cell_volume                     6300.86
_exptl_crystal_colour            colorless
_exptl_crystal_description       needle
_cell_formula_units_Z            16
loop_
_atom_site_label
_atom_site_type_symbol
_atom_site_fract_x
_atom_site_fract_y
_atom_site_fract_z
O1 O 0.47977(5) 0.11568(4) 0.2169(2)
O2 O 0.47676(5) 0.26170(5) 0.1344(3)
O3 O 0.38515(5) 0.10839(4) 0.17189(17)
H1 H 0.3839 0.1072 0.0810
O4 O 0.38917(6) 0.11449(5) 0.8098(2)
O5 O 0.32119(5) 0.18505(5) 0.5171(2)
O6 O 0.32024(4) 0.11246(4) 0.4855(2)
N1 N 0.47892(5) 0.18876(5) 0.1787(3)
N2 N 0.41410(5) 0.10693(5) 0.5170(2)
C1 C 0.45700(6) 0.14918(5) 0.2067(3)
C2 C 0.45492(6) 0.22775(5) 0.1445(3)
C3 C 0.40330(6) 0.22463(5) 0.1109(2)
C4 C 0.38036(6) 0.26071(5) 0.0350(3)
H2 H 0.3967 0.2867 0.0189
C5 C 0.33325(7) 0.25770(5) -0.0162(3)
H3 H 0.3178 0.2817 -0.0658
C6 C 0.30912(6) 0.21859(6) 0.0070(3)
H4 H 0.2779 0.2162 -0.0324
C7 C 0.33127(6) 0.18322(5) 0.0883(3)
H5 H 0.3146 0.1575 0.1063
C8 C 0.37843(6) 0.18619(5) 0.1430(2)
C9 C 0.40277(5) 0.14828(5) 0.2352(2)
C10 C 0.39486(6) 0.14845(5) 0.4531(2)
C11 C 0.40917(7) 0.09226(6) 0.6906(2)
C12 C 0.42964(8) 0.04832(6) 0.7313(3)
H6 H 0.4055 0.0299 0.7823
H7 H 0.4550 0.0512 0.8184
H8 H 0.4415 0.0357 0.6192
C13 C 0.34125(6) 0.15084(5) 0.4905(2)
C14 C 0.26972(7) 0.11397(7) 0.5119(4)
H9 H 0.2577 0.0850 0.5258
H10 H 0.2552 0.1274 0.4067
H11 H 0.2626 0.1305 0.6209
C15 C 0.41817(7) 0.18712(5) 0.5488(3)
H12 H 0.4100 0.1870 0.6774
H13 H 0.4073 0.2136 0.4931
H14 H 0.4519 0.1851 0.5358
C16 C 0.53101(7) 0.19065(7) 0.1893(5)
H15 H 0.5443 0.1672 0.1188
H16 H 0.5408 0.1881 0.3158
H17 H 0.5418 0.2179 0.1401
H18 H 0.4221(11) 0.0890(11) 0.444(6)
loop_
_geom_bond_atom_site_label_1
_geom_bond_atom_site_label_2
_geom_bond_site_symmetry_1
_geom_bond_site_symmetry_2
O1 C1 1_555 1_555
O2 C2 1_555 1_555
O3 H1 1_555 1_555
O4 C11 1_555 1_555
O5 C13 1_555 1_555
O6 C13 1_555 1_555
N1 C1 1_555 1_555
N2 C10 1_555 1_555
C1 C9 1_555 1_555
C2 N1 1_555 1_555
C3 C2 1_555 1_555
C4 C3 1_555 1_555
H2 C4 1_555 1_555
C5 C4 1_555 1_555
H3 C5 1_555 1_555
C6 C5 1_555 1_555
H4 C6 1_555 1_555
C7 C6 1_555 1_555
H5 C7 1_555 1_555
C8 C3 1_555 1_555
C9 O3 1_555 1_555
C10 C9 1_555 1_555
C11 N2 1_555 1_555
C12 C11 1_555 1_555
H6 C12 1_555 1_555
H7 C12 1_555 1_555
H8 C12 1_555 1_555
C13 C10 1_555 1_555
C14 O6 1_555 1_555
H9 C14 1_555 1_555
H10 C14 1_555 1_555
H11 C14 1_555 1_555
C15 C10 1_555 1_555
H12 C15 1_555 1_555
H13 C15 1_555 1_555
H14 C15 1_555 1_555
C16 N1 1_555 1_555
H15 C16 1_555 1_555
H16 C16 1_555 1_555
H17 C16 1_555 1_555
H18 N2 1_555 1_555
C7 C8 1_555 1_555
C8 C9 1_555 1_555

#END
