
#######################################################################
#
#                 Cambridge Crystallographic Data Centre
#                                CCDC 
#
#######################################################################
#
# If this CIF has been generated from an entry in the Cambridge 
# Structural Database, then it will include bibliographic, chemical, 
# crystal, experimental, refinement or atomic coordinate data resulting 
# from the CCDC's data processing and validation procedures.
#
#######################################################################

data_USIMOZ
_chemical_formula_moiety         'C16 H16 N2 O5,H2 O1'
_chemical_name_systematic        
"Methyl 2,2',4'-trimethyl-1,3-dioxo-2,3-dihydro-1H,4'H-spiro[isoquinoline-4,5'-[1,3]oxazole]-4'-carboxylate monohydrate"
_symmetry_cell_setting           monoclinic
_symmetry_space_group_name_H-M   'C c'
_symmetry_Int_Tables_number      9
_space_group_name_Hall           'C -2yc'
loop_
_symmetry_equiv_pos_site_id
_symmetry_equiv_pos_as_xyz
1 x,y,z
2 x,-y,1/2+z
3 1/2+x,1/2+y,z
4 1/2+x,1/2-y,1/2+z
_cell_length_a                   30.1583(5)
_cell_length_b                   13.3236(2)
_cell_length_c                   16.1956(3)
_cell_angle_alpha                90
_cell_angle_beta                 107.9090(10)
_cell_angle_gamma                90
_cell_volume                     6192.35
_exptl_crystal_colour            colorless
_exptl_crystal_description       block
_cell_formula_units_Z            16
loop_
_atom_site_label
_atom_site_type_symbol
_atom_site_fract_x
_atom_site_fract_y
_atom_site_fract_z
O1 O 0.30281(12) 0.2765(2) 0.14225(19)
O2 O 0.39964(9) 0.3935(2) 0.39756(17)
O3 O 0.34313(9) 0.3374(2) 0.48595(17)
O4 O 0.37662(10) 0.1217(2) 0.31199(17)
O5 O 0.44080(9) 0.1400(2) 0.42720(18)
N1 N 0.35175(11) 0.3386(3) 0.2686(2)
N2 N 0.39775(11) 0.2158(3) 0.5303(2)
C1 C 0.28946(12) 0.2661(3) 0.3567(2)
C2 C 0.25458(13) 0.2476(3) 0.3975(3)
H1 H 0.2620 0.2505 0.4576
C3 C 0.21009(14) 0.2255(3) 0.3478(3)
H2 H 0.1874 0.2137 0.3745
C4 C 0.19825(13) 0.2204(3) 0.2569(3)
H3 H 0.1683 0.2016 0.2241
C5 C 0.23084(14) 0.2432(3) 0.2166(3)
H4 H 0.2227 0.2443 0.1563
C6 C 0.27638(13) 0.2646(3) 0.2668(3)
C7 C 0.31023(13) 0.2916(3) 0.2191(3)
C8 C 0.36567(11) 0.3446(3) 0.3581(2)
C9 C 0.33906(12) 0.2831(3) 0.4068(2)
C10 C 0.38111(12) 0.2984(3) 0.5465(2)
C11 C 0.36767(11) 0.1825(3) 0.4445(2)
C12 C 0.39607(12) 0.1445(3) 0.3863(2)
C13 C 0.47021(14) 0.1019(3) 0.3779(3)
H5 H 0.4999 0.0827 0.4171
H6 H 0.4745 0.1533 0.3395
H7 H 0.4556 0.0446 0.3447
C14 C 0.38335(14) 0.3833(3) 0.2256(2)
H8 H 0.4139 0.3546 0.2490
H9 H 0.3850 0.4545 0.2351
H10 H 0.3718 0.3699 0.1644
C15 C 0.39983(14) 0.3604(3) 0.6266(2)
H11 H 0.4260 0.3267 0.6661
H12 H 0.3760 0.3698 0.6538
H13 H 0.4096 0.4245 0.6114
C16 C 0.33853(14) 0.0959(3) 0.4570(3)
H14 H 0.3585 0.0426 0.4869
H15 H 0.3194 0.0722 0.4014
H16 H 0.3190 0.1173 0.4906
O6 O 0.17921(11) -0.0287(2) 0.29031(19)
O7 O 0.06918(9) -0.1226(2) 0.04491(18)
O8 O 0.12636(9) -0.0921(2) -0.05205(16)
O9 O 0.09330(9) 0.1183(2) 0.11979(17)
O10 O 0.03184(9) 0.1224(2) -0.00230(17)
N3 N 0.12725(10) -0.0902(2) 0.1682(2)
N4 N 0.07512(11) 0.0346(3) -0.1008(2)
C17 C 0.18472(12) -0.0174(3) 0.0701(2)
C18 C 0.21485(13) 0.0013(3) 0.0233(3)
H17 H 0.2047 -0.0032 -0.0370
C19 C 0.26169(13) 0.0276(3) 0.0678(3)
H18 H 0.2822 0.0423 0.0369
C20 C 0.27671(14) 0.0313(3) 0.1575(3)
H19 H 0.3075 0.0479 0.1868
C21 C 0.24597(13) 0.0104(3) 0.2043(3)
H20 H 0.2563 0.0135 0.2645
C22 C 0.19970(13) -0.0154(3) 0.1612(2)
C23 C 0.16884(14) -0.0412(3) 0.2123(2)
C24 C 0.10731(13) -0.0871(3) 0.0804(2)
C25 C 0.13304(12) -0.0310(3) 0.0241(2)
C26 C 0.08918(13) -0.0501(3) -0.1164(2)
C27 C 0.10396(12) 0.0670(3) -0.0150(2)
C28 C 0.07613(12) 0.1038(3) 0.0421(2)
C29 C 0.00323(13) 0.1641(3) 0.0477(3)
H21 H -0.0285 0.1694 0.0113
H22 H 0.0147 0.2295 0.0688
H23 H 0.0048 0.1209 0.0959
C30 C 0.09913(13) -0.1323(3) 0.2191(2)
H24 H 0.1183 -0.1417 0.2780
H25 H 0.0865 -0.1958 0.1949
H26 H 0.0741 -0.0871 0.2178
C31 C 0.13473(13) 0.1570(3) -0.0258(2)
H27 H 0.1152 0.2137 -0.0488
H28 H 0.1517 0.1385 -0.0649
H29 H 0.1563 0.1742 0.0296
C32 C 0.07239(15) -0.1115(3) -0.1950(2)
H30 H 0.0476 -0.0770 -0.2370
H31 H 0.0611 -0.1746 -0.1808
H32 H 0.0975 -0.1232 -0.2187
O11 O 0.29539(11) 0.7790(2) 0.14338(19)
O12 O 0.40685(9) 0.8724(2) 0.38838(17)
O13 O 0.35053(10) 0.8389(2) 0.48741(17)
O14 O 0.37889(10) 0.6275(2) 0.30962(17)
O15 O 0.44270(9) 0.6292(3) 0.42682(17)
N5 N 0.34843(11) 0.8409(3) 0.26549(19)
N6 N 0.40077(11) 0.7097(2) 0.5313(2)
C33 C 0.29217(12) 0.7673(3) 0.3645(2)
C34 C 0.26016(13) 0.7485(3) 0.4112(3)
H33 H 0.2699 0.7523 0.4715
C35 C 0.21502(13) 0.7247(3) 0.3673(3)
H34 H 0.1943 0.7124 0.3984
C36 C 0.19914(13) 0.7183(3) 0.2766(3)
H35 H 0.1687 0.6985 0.2480
C37 C 0.22930(13) 0.7417(3) 0.2305(3)
H36 H 0.2189 0.7417 0.1702
C38 C 0.27562(12) 0.7654(3) 0.2751(2)
C39 C 0.30631(12) 0.7931(3) 0.2211(3)
C40 C 0.36817(12) 0.8375(3) 0.3541(2)
C41 C 0.34282(12) 0.7819(3) 0.4084(2)
C42 C 0.38632(12) 0.7949(3) 0.5489(2)
C43 C 0.37050(11) 0.6792(3) 0.4452(2)
C44 C 0.39834(12) 0.6428(3) 0.3859(2)
C45 C 0.47038(14) 0.5868(4) 0.3761(3)
H37 H 0.5018 0.5772 0.4127
H38 H 0.4702 0.6318 0.3297
H39 H 0.4574 0.5234 0.3524
C46 C 0.37691(14) 0.8838(3) 0.2152(3)
H40 H 0.3887 0.9480 0.2390
H41 H 0.3581 0.8919 0.1559
H42 H 0.4025 0.8396 0.2180
C47 C 0.40560(13) 0.8526(3) 0.6309(2)
H43 H 0.4317 0.8171 0.6688
H44 H 0.3820 0.8605 0.6588
H45 H 0.4156 0.9175 0.6180
C48 C 0.34064(14) 0.5929(3) 0.4551(3)
H46 H 0.3601 0.5370 0.4808
H47 H 0.3203 0.5738 0.3991
H48 H 0.3224 0.6125 0.4916
O16 O 0.17125(10) 0.5298(2) 0.78544(18)
O17 O 0.07459(9) 0.6445(2) 0.52910(17)
O18 O 0.12950(9) 0.5846(2) 0.44028(16)
O19 O 0.09987(10) 0.3685(2) 0.62041(18)
O20 O 0.03465(9) 0.3921(2) 0.50926(17)
N7 N 0.12224(10) 0.5892(2) 0.6581(2)
N8 N 0.07543(11) 0.4612(3) 0.4005(2)
C49 C 0.18563(12) 0.5185(3) 0.5708(2)
C50 C 0.21834(14) 0.5001(3) 0.5299(3)
H49 H 0.2104 0.5040 0.4698
C51 C 0.26429(13) 0.4752(3) 0.5802(3)
H50 H 0.2866 0.4606 0.5529
C52 C 0.27623(14) 0.4723(3) 0.6697(3)
H51 H 0.3066 0.4570 0.7026
C53 C 0.24270(12) 0.4924(3) 0.7104(3)
H52 H 0.2508 0.4897 0.7706
C54 C 0.19700(12) 0.5166(3) 0.6618(2)
C55 C 0.16310(13) 0.5417(3) 0.7074(2)
C56 C 0.10813(13) 0.5951(3) 0.5693(2)
C57 C 0.13468(12) 0.5317(3) 0.5196(2)
C58 C 0.09041(13) 0.5429(3) 0.3801(2)
C59 C 0.10641(13) 0.4315(3) 0.4857(2)
C60 C 0.08038(12) 0.3949(3) 0.5467(2)
C61 C 0.00681(13) 0.3564(4) 0.5623(3)
H53 H -0.0242 0.3414 0.5258
H54 H 0.0055 0.4073 0.6034
H55 H 0.0207 0.2968 0.5927
C62 C 0.09134(14) 0.6345(3) 0.7026(2)
H56 H 0.1038 0.6226 0.7639
H57 H 0.0609 0.6051 0.6811
H58 H 0.0892 0.7055 0.6919
C63 C 0.07209(15) 0.6007(3) 0.2993(2)
H59 H 0.0465 0.5651 0.2601
H60 H 0.0963 0.6097 0.2728
H61 H 0.0615 0.6651 0.3121
C64 C 0.13766(13) 0.3436(3) 0.4736(3)
H62 H 0.1186 0.2859 0.4517
H63 H 0.1600 0.3274 0.5284
H64 H 0.1537 0.3631 0.4332
O21 O 0.47148(11) 0.9248(2) 0.1413(2)
H65 H 0.4798 0.8974 0.1971
H66 H 0.4595 0.8812 0.1017
O22 O 0.49352(11) 0.8434(2) 0.3137(2)
H67 H 0.5006 0.8086 0.2815
H68 H 0.5207 0.8731 0.3349
O23 O 0.50341(10) 0.3176(2) 0.28964(19)
H69 H 0.4995 0.3484 0.2366
H70 H 0.5191 0.3683 0.3286
O24 O 0.48380(11) 0.4064(2) 0.12191(19)
H71 H 0.4573 0.3713 0.0893
H72 H 0.4700 0.4401 0.1504
loop_
_geom_bond_atom_site_label_1
_geom_bond_atom_site_label_2
_geom_bond_site_symmetry_1
_geom_bond_site_symmetry_2
O1 C7 1_555 1_555
O2 C8 1_555 1_555
O3 C9 1_555 1_555
O4 C12 1_555 1_555
O5 C12 1_555 1_555
N1 C7 1_555 1_555
N2 C10 1_555 1_555
C1 C2 1_555 1_555
C2 H1 1_555 1_555
C3 C2 1_555 1_555
H2 C3 1_555 1_555
C4 C3 1_555 1_555
H3 C4 1_555 1_555
C5 C4 1_555 1_555
H4 C5 1_555 1_555
C6 C1 1_555 1_555
C7 C6 1_555 1_555
C8 N1 1_555 1_555
C9 C1 1_555 1_555
C10 O3 1_555 1_555
C11 N2 1_555 1_555
C12 C11 1_555 1_555
C13 O5 1_555 1_555
H5 C13 1_555 1_555
H6 C13 1_555 1_555
H7 C13 1_555 1_555
C14 N1 1_555 1_555
H8 C14 1_555 1_555
H9 C14 1_555 1_555
H10 C14 1_555 1_555
C15 C10 1_555 1_555
H11 C15 1_555 1_555
H12 C15 1_555 1_555
H13 C15 1_555 1_555
C16 C11 1_555 1_555
H14 C16 1_555 1_555
H15 C16 1_555 1_555
H16 C16 1_555 1_555
O6 C23 1_555 1_555
O7 C24 1_555 1_555
O8 C25 1_555 1_555
O9 C28 1_555 1_555
O10 C28 1_555 1_555
N3 C23 1_555 1_555
N4 C26 1_555 1_555
C17 C18 1_555 1_555
C18 H17 1_555 1_555
C19 C18 1_555 1_555
H18 C19 1_555 1_555
C20 C19 1_555 1_555
H19 C20 1_555 1_555
C21 C20 1_555 1_555
H20 C21 1_555 1_555
C22 C17 1_555 1_555
C23 C22 1_555 1_555
C24 N3 1_555 1_555
C25 C17 1_555 1_555
C26 O8 1_555 1_555
C27 N4 1_555 1_555
C28 C27 1_555 1_555
C29 O10 1_555 1_555
H21 C29 1_555 1_555
H22 C29 1_555 1_555
H23 C29 1_555 1_555
C30 N3 1_555 1_555
H24 C30 1_555 1_555
H25 C30 1_555 1_555
H26 C30 1_555 1_555
C31 C27 1_555 1_555
H27 C31 1_555 1_555
H28 C31 1_555 1_555
H29 C31 1_555 1_555
C32 C26 1_555 1_555
H30 C32 1_555 1_555
H31 C32 1_555 1_555
H32 C32 1_555 1_555
O11 C39 1_555 1_555
O12 C40 1_555 1_555
O13 C41 1_555 1_555
O14 C44 1_555 1_555
O15 C44 1_555 1_555
N5 C39 1_555 1_555
N6 C42 1_555 1_555
C33 C34 1_555 1_555
C34 H33 1_555 1_555
C35 C34 1_555 1_555
H34 C35 1_555 1_555
C36 C35 1_555 1_555
H35 C36 1_555 1_555
C37 C36 1_555 1_555
H36 C37 1_555 1_555
C38 C33 1_555 1_555
C39 C38 1_555 1_555
C40 N5 1_555 1_555
C41 C33 1_555 1_555
C42 O13 1_555 1_555
C43 N6 1_555 1_555
C44 C43 1_555 1_555
C45 O15 1_555 1_555
H37 C45 1_555 1_555
H38 C45 1_555 1_555
H39 C45 1_555 1_555
C46 N5 1_555 1_555
H40 C46 1_555 1_555
H41 C46 1_555 1_555
H42 C46 1_555 1_555
C47 C42 1_555 1_555
H43 C47 1_555 1_555
H44 C47 1_555 1_555
H45 C47 1_555 1_555
C48 C43 1_555 1_555
H46 C48 1_555 1_555
H47 C48 1_555 1_555
H48 C48 1_555 1_555
O16 C55 1_555 1_555
O17 C56 1_555 1_555
O18 C57 1_555 1_555
O19 C60 1_555 1_555
O20 C60 1_555 1_555
N7 C55 1_555 1_555
N8 C58 1_555 1_555
C49 C50 1_555 1_555
C50 H49 1_555 1_555
C51 C50 1_555 1_555
H50 C51 1_555 1_555
C52 C51 1_555 1_555
H51 C52 1_555 1_555
C53 C52 1_555 1_555
H52 C53 1_555 1_555
C54 C49 1_555 1_555
C55 C54 1_555 1_555
C56 N7 1_555 1_555
C57 C49 1_555 1_555
C58 O18 1_555 1_555
C59 N8 1_555 1_555
C60 C59 1_555 1_555
C61 O20 1_555 1_555
H53 C61 1_555 1_555
H54 C61 1_555 1_555
H55 C61 1_555 1_555
C62 N7 1_555 1_555
H56 C62 1_555 1_555
H57 C62 1_555 1_555
H58 C62 1_555 1_555
C63 C58 1_555 1_555
H59 C63 1_555 1_555
H60 C63 1_555 1_555
H61 C63 1_555 1_555
C64 C59 1_555 1_555
H62 C64 1_555 1_555
H63 C64 1_555 1_555
H64 C64 1_555 1_555
O21 H65 1_555 1_555
H66 O21 1_555 1_555
O22 H67 1_555 1_555
H68 O22 1_555 1_555
O23 H69 1_555 1_555
H70 O23 1_555 1_555
O24 H71 1_555 1_555
H72 O24 1_555 1_555
C5 C6 1_555 1_555
C8 C9 1_555 1_555
C9 C11 1_555 1_555
C21 C22 1_555 1_555
C24 C25 1_555 1_555
C25 C27 1_555 1_555
C37 C38 1_555 1_555
C40 C41 1_555 1_555
C41 C43 1_555 1_555
C53 C54 1_555 1_555
C56 C57 1_555 1_555
C57 C59 1_555 1_555

#END
