
#######################################################################
#
#                 Cambridge Crystallographic Data Centre
#                                CCDC 
#
#######################################################################
#
# If this CIF has been generated from an entry in the Cambridge 
# Structural Database, then it will include bibliographic, chemical, 
# crystal, experimental, refinement or atomic coordinate data resulting 
# from the CCDC's data processing and validation procedures.
#
#######################################################################

data_USIYAX
_chemical_formula_moiety         'C31 H34 N2 O7'
_chemical_name_systematic        
9-((4-(Dimethylamino)benzyl)amino)-5-(3,4,5-trimethoxyphenyl)-5,8,8a,9-tetrahydrofuro[3',4':6,7]naphtho[2,3-d][1,3]dioxol-6(5aH)-one
_symmetry_cell_setting           monoclinic
_symmetry_space_group_name_H-M   'P 21'
_symmetry_Int_Tables_number      4
_space_group_name_Hall           'P 2yb'
loop_
_symmetry_equiv_pos_site_id
_symmetry_equiv_pos_as_xyz
1 x,y,z
2 -x,1/2+y,-z
_cell_length_a                   10.188(2)
_cell_length_b                   11.530(3)
_cell_length_c                   11.691(3)
_cell_angle_alpha                90
_cell_angle_beta                 96.192(4)
_cell_angle_gamma                90
_cell_volume                     1365.3
_exptl_crystal_colour            colorless
_exptl_crystal_description       prism
_cell_formula_units_Z            2
loop_
_atom_site_label
_atom_site_type_symbol
_atom_site_fract_x
_atom_site_fract_y
_atom_site_fract_z
O1 O 0.52128(9) 0.59140(8) 0.21947(8)
O2 O 0.52819(9) 0.39712(8) 0.27006(7)
O3 O 0.14528(9) 0.64023(8) 0.82671(7)
O4 O 0.14154(9) 0.44619(9) 0.83314(8)
O5 O 0.53808(8) 0.28789(8) 0.99527(8)
O6 O 0.74780(8) 0.42130(8) 0.99096(7)
O7 O 0.77467(8) 0.56748(8) 0.81392(8)
N1 N -0.02700(11) 1.09298(11) 0.83706(10)
N2 N 0.14526(11) 0.72761(10) 0.48482(9)
C1 C 0.53397(14) 0.47595(12) 0.17577(12)
H1 H 0.4615 0.4596 0.1145
H2 H 0.6191 0.4675 0.1430
C2 C 0.46171(12) 0.57629(12) 0.31872(11)
C3 C 0.40468(12) 0.65809(12) 0.38261(10)
H3 H 0.3992 0.7370 0.3591
C4 C 0.35439(12) 0.62146(11) 0.48439(10)
C5 C 0.27834(12) 0.71177(11) 0.54717(10)
H4 H 0.3268 0.7873 0.5483
C6 C 0.27250(13) 0.67110(11) 0.67159(10)
H5 H 0.3641 0.6717 0.7122
C7 C 0.18142(14) 0.73142(12) 0.74730(11)
H6 H 0.2274 0.7963 0.7902
H7 H 0.1021 0.7620 0.7007
C8 C 0.16817(12) 0.53318(12) 0.78400(11)
C9 C 0.22116(12) 0.54719(12) 0.66907(11)
H8 H 0.1437 0.5439 0.6088
C10 C 0.32353(12) 0.46168(11) 0.63313(10)
H9 H 0.2802 0.3843 0.6197
C11 C 0.36598(12) 0.50503(12) 0.51885(10)
C12 C 0.42322(12) 0.42254(12) 0.45006(11)
H10 H 0.4305 0.3433 0.4723
C13 C 0.46778(12) 0.46049(12) 0.35037(11)
C14 C 0.11461(15) 0.84675(13) 0.44324(12)
H11 H 0.0420 0.8443 0.3797
H12 H 0.1932 0.8807 0.4130
C15 C 0.07453(13) 0.92169(12) 0.53913(11)
C16 C 0.15867(13) 1.00166(12) 0.59750(12)
H13 H 0.2414 1.0168 0.5701
C17 C 0.12671(13) 1.06049(13) 0.69451(12)
H14 H 0.1869 1.1151 0.7314
C18 C 0.00521(12) 1.03947(12) 0.73842(11)
C19 C -0.08234(13) 0.96224(12) 0.67618(11)
H15 H -0.1670 0.9491 0.7008
C20 C -0.04779(13) 0.90515(12) 0.58008(11)
H16 H -0.1091 0.8530 0.5406
C21 C 0.07587(14) 1.15428(13) 0.91019(12)
H17 H 0.1551 1.1057 0.9220
H18 H 0.0443 1.1713 0.9847
H19 H 0.0972 1.2270 0.8730
C22 C -0.14462(14) 1.05611(15) 0.88653(12)
H20 H -0.2228 1.0745 0.8333
H21 H -0.1499 1.0966 0.9596
H22 H -0.1407 0.9723 0.9002
C23 C 0.44248(12) 0.44741(11) 0.72446(10)
C24 C 0.43331(13) 0.37052(11) 0.81531(11)
H23 H 0.3558 0.3252 0.8181
C25 C 0.53765(12) 0.36013(11) 0.90182(11)
C26 C 0.65162(12) 0.42673(12) 0.89914(10)
C27 C 0.66085(12) 0.50269(11) 0.80689(11)
C28 C 0.55777(12) 0.51155(11) 0.71925(11)
H24 H 0.5658 0.5614 0.6557
C29 C 0.41589(13) 0.23341(13) 1.01374(11)
H25 H 0.3478 0.2928 1.0183
H26 H 0.4272 0.1894 1.0858
H27 H 0.3890 0.1807 0.9497
C30 C 0.87104(13) 0.37267(14) 0.96535(13)
H28 H 0.8542 0.3019 0.9197
H29 H 0.9254 0.3539 1.0373
H30 H 0.9176 0.4290 0.9216
C31 C 0.78655(14) 0.65140(14) 0.72551(12)
H31 H 0.7865 0.6119 0.6513
H32 H 0.8693 0.6944 0.7426
H33 H 0.7120 0.7054 0.7221
H34 H 0.1326(14) 0.6802(12) 0.4235(10)
loop_
_geom_bond_atom_site_label_1
_geom_bond_atom_site_label_2
_geom_bond_site_symmetry_1
_geom_bond_site_symmetry_2
O1 C1 1_555 1_555
O2 C1 1_555 1_555
O3 C7 1_555 1_555
O4 C8 1_555 1_555
O5 C25 1_555 1_555
O6 C26 1_555 1_555
O7 C27 1_555 1_555
N1 C18 1_555 1_555
N2 C5 1_555 1_555
C1 H1 1_555 1_555
H2 C1 1_555 1_555
C2 O1 1_555 1_555
C3 C2 1_555 1_555
H3 C3 1_555 1_555
C4 C3 1_555 1_555
C5 C4 1_555 1_555
H4 C5 1_555 1_555
C6 C5 1_555 1_555
H5 C6 1_555 1_555
C7 C6 1_555 1_555
H6 C7 1_555 1_555
H7 C7 1_555 1_555
C8 O3 1_555 1_555
C9 C6 1_555 1_555
H8 C9 1_555 1_555
C10 C9 1_555 1_555
H9 C10 1_555 1_555
C11 C4 1_555 1_555
C12 C11 1_555 1_555
H10 C12 1_555 1_555
C13 O2 1_555 1_555
C14 N2 1_555 1_555
H11 C14 1_555 1_555
H12 C14 1_555 1_555
C15 C14 1_555 1_555
C16 C15 1_555 1_555
H13 C16 1_555 1_555
C17 C16 1_555 1_555
H14 C17 1_555 1_555
C18 C17 1_555 1_555
C19 C18 1_555 1_555
H15 C19 1_555 1_555
C20 C15 1_555 1_555
H16 C20 1_555 1_555
C21 N1 1_555 1_555
H17 C21 1_555 1_555
H18 C21 1_555 1_555
H19 C21 1_555 1_555
C22 N1 1_555 1_555
H20 C22 1_555 1_555
H21 C22 1_555 1_555
H22 C22 1_555 1_555
C23 C10 1_555 1_555
C24 C23 1_555 1_555
H23 C24 1_555 1_555
C25 C24 1_555 1_555
C26 C25 1_555 1_555
C27 C26 1_555 1_555
C28 C23 1_555 1_555
H24 C28 1_555 1_555
C29 O5 1_555 1_555
H25 C29 1_555 1_555
H26 C29 1_555 1_555
H27 C29 1_555 1_555
C30 O6 1_555 1_555
H28 C30 1_555 1_555
H29 C30 1_555 1_555
H30 C30 1_555 1_555
C31 O7 1_555 1_555
H31 C31 1_555 1_555
H32 C31 1_555 1_555
H33 C31 1_555 1_555
H34 N2 1_555 1_555
C2 C13 1_555 1_555
C8 C9 1_555 1_555
C10 C11 1_555 1_555
C12 C13 1_555 1_555
C19 C20 1_555 1_555
C27 C28 1_555 1_555

#END
