
#######################################################################
#
#                 Cambridge Crystallographic Data Centre
#                                CCDC 
#
#######################################################################
#
# If this CIF has been generated from an entry in the Cambridge 
# Structural Database, then it will include bibliographic, chemical, 
# crystal, experimental, refinement or atomic coordinate data resulting 
# from the CCDC's data processing and validation procedures.
#
#######################################################################

data_USIZIG
_chemical_formula_moiety         'C16 H17 N3 S1'
_chemical_name_systematic        
N-(4-Methylphenyl)-2-(1-phenylethylidene)hydrazinecarbothioamide
_symmetry_cell_setting           monoclinic
_symmetry_space_group_name_H-M   'P 21/c'
_symmetry_Int_Tables_number      14
_space_group_name_Hall           '-P 2ybc'
loop_
_symmetry_equiv_pos_site_id
_symmetry_equiv_pos_as_xyz
1 x,y,z
2 -x,1/2+y,1/2-z
3 -x,-y,-z
4 x,1/2-y,1/2+z
_cell_length_a                   10.5881(3)
_cell_length_b                   5.7355(2)
_cell_length_c                   26.9746(7)
_cell_angle_alpha                90
_cell_angle_beta                 108.670(2)
_cell_angle_gamma                90
_cell_volume                     1551.91
_exptl_crystal_colour            colorless
_exptl_crystal_description       prismatic
_cell_formula_units_Z            4
loop_
_atom_site_label
_atom_site_type_symbol
_atom_site_fract_x
_atom_site_fract_y
_atom_site_fract_z
S1 S 1.08154(5) 0.02598(9) 0.436028(18)
N1 N 0.82552(14) 0.5213(3) 0.42960(6)
N2 N 0.90859(14) 0.3341(3) 0.44695(6)
N3 N 0.99833(16) 0.4238(3) 0.38311(6)
C1 C 1.06088(19) 0.2091(4) 0.31610(7)
H1 H 1.0044 0.0876 0.3179
C2 C 1.1318(2) 0.1997(4) 0.28098(7)
H2 H 1.1229 0.0699 0.2595
C3 C 1.2149(2) 0.3777(5) 0.27725(7)
C4 C 1.2278(2) 0.5681(4) 0.30964(8)
H3 H 1.2841 0.6896 0.3077
C5 C 1.15789(19) 0.5810(4) 0.34519(7)
H4 H 1.1672 0.7109 0.3667
C6 C 1.07490(16) 0.4014(3) 0.34853(6)
C7 C 1.2928(3) 0.3658(8) 0.23886(12)
H5 H 1.2491 0.4593 0.2087
H6 H 1.2971 0.2070 0.2283
H7 H 1.3814 0.4237 0.2553
C8 C 0.99248(15) 0.2719(3) 0.42007(6)
C9 C 0.74014(16) 0.5714(3) 0.45287(7)
C10 C 0.64955(15) 0.7680(3) 0.43048(6)
C11 C 0.6772(2) 0.9235(4) 0.39573(7)
H8 H 0.7547 0.9058 0.3869
C12 C 0.5910(3) 1.1032(5) 0.37429(9)
H9 H 0.6102 1.2057 0.3510
C13 C 0.4749(2) 1.1320(5) 0.38739(9)
H10 H 0.4162 1.2526 0.3726
C14 C 0.4478(2) 0.9828(5) 0.42192(12)
H11 H 0.3707 1.0024 0.4309
C15 C 0.53386(19) 0.8031(4) 0.44367(10)
H12 H 0.5146 0.7037 0.4675
C16 C 0.7269(2) 0.4397(4) 0.49895(8)
H13 H 0.6858 0.5377 0.5182
H14 H 0.8137 0.3932 0.5212
H15 H 0.6728 0.3038 0.4869
H16 H 0.904(2) 0.230(4) 0.4714(8)
H17 H 0.960(2) 0.548(4) 0.3831(8)
loop_
_geom_bond_atom_site_label_1
_geom_bond_atom_site_label_2
_geom_bond_site_symmetry_1
_geom_bond_site_symmetry_2
S1 C8 1_555 1_555
N1 N2 1_555 1_555
N2 C8 1_555 1_555
N3 C6 1_555 1_555
C1 H1 1_555 1_555
C2 C1 1_555 1_555
H2 C2 1_555 1_555
C3 C2 1_555 1_555
C4 C3 1_555 1_555
H3 C4 1_555 1_555
C5 C4 1_555 1_555
H4 C5 1_555 1_555
C6 C1 1_555 1_555
C7 C3 1_555 1_555
H5 C7 1_555 1_555
H6 C7 1_555 1_555
H7 C7 1_555 1_555
C8 N3 1_555 1_555
C9 N1 1_555 1_555
C10 C9 1_555 1_555
C11 C10 1_555 1_555
H8 C11 1_555 1_555
C12 C11 1_555 1_555
H9 C12 1_555 1_555
C13 C12 1_555 1_555
H10 C13 1_555 1_555
C14 C13 1_555 1_555
H11 C14 1_555 1_555
C15 C10 1_555 1_555
H12 C15 1_555 1_555
C16 C9 1_555 1_555
H13 C16 1_555 1_555
H14 C16 1_555 1_555
H15 C16 1_555 1_555
H16 N2 1_555 1_555
H17 N3 1_555 1_555
C5 C6 1_555 1_555
C14 C15 1_555 1_555

#END
