
#######################################################################
#
#                 Cambridge Crystallographic Data Centre
#                                CCDC 
#
#######################################################################
#
# If this CIF has been generated from an entry in the Cambridge 
# Structural Database, then it will include bibliographic, chemical, 
# crystal, experimental, refinement or atomic coordinate data resulting 
# from the CCDC's data processing and validation procedures.
#
#######################################################################

data_USIZUS
_chemical_formula_moiety         'C10 H9 F1 N2 O4'
_chemical_name_systematic        4-(3-Fluoro-4-nitrophenyl)morpholin-3-one
_symmetry_cell_setting           triclinic
_symmetry_space_group_name_H-M   'P -1'
_symmetry_Int_Tables_number      2
_space_group_name_Hall           '-P 1'
loop_
_symmetry_equiv_pos_site_id
_symmetry_equiv_pos_as_xyz
1 x,y,z
2 -x,-y,-z
_cell_length_a                   6.6408(7)
_cell_length_b                   7.3788(10)
_cell_length_c                   10.8546(14)
_cell_angle_alpha                73.30(3)
_cell_angle_beta                 75.39(3)
_cell_angle_gamma                74.30(3)
_cell_volume                     481.587
_exptl_crystal_colour            colorless
_exptl_crystal_description       prism
_cell_formula_units_Z            2
loop_
_atom_site_label
_atom_site_type_symbol
_atom_site_fract_x
_atom_site_fract_y
_atom_site_fract_z
F1 F 0.38071(13) 0.73231(13) -0.24062(8)
O1 O 0.23003(15) 0.94560(12) 0.40672(8)
O2 O 0.04787(15) 0.82852(15) 0.16307(9)
O3 O 0.74637(16) 0.59970(13) -0.37865(9)
O4 O 1.03428(15) 0.62270(13) -0.32888(9)
N1 N 0.39251(16) 0.79057(14) 0.18692(10)
N2 N 0.84043(18) 0.63168(15) -0.30564(10)
C1 C 0.5325(2) 0.77071(18) 0.27977(12)
H1 H 0.6152 0.8739 0.2456
H2 H 0.6347 0.6443 0.2855
C2 C 0.4068(2) 0.78419(19) 0.41571(12)
H3 H 0.3550 0.6634 0.4599
H4 H 0.5001 0.7996 0.4685
C3 C 0.0821(2) 0.90024(19) 0.35316(12)
H5 H -0.0349 1.0155 0.3382
H6 H 0.0196 0.7956 0.4183
C4 C 0.1736(2) 0.83638(18) 0.22515(12)
C5 C 0.4968(2) 0.75696(16) 0.06139(12)
C6 C 0.7205(2) 0.71941(17) 0.03016(12)
H7 H 0.7988 0.7192 0.0924
C7 C 0.8283(2) 0.68282(17) -0.09000(12)
H8 H 0.9795 0.6591 -0.1095
C8 C 0.7182(2) 0.68025(17) -0.18264(12)
C9 C 0.4967(2) 0.72366(18) -0.15317(12)
C10 C 0.3858(2) 0.76283(17) -0.03458(12)
H9 H 0.2345 0.7938 -0.0178
loop_
_geom_bond_atom_site_label_1
_geom_bond_atom_site_label_2
_geom_bond_site_symmetry_1
_geom_bond_site_symmetry_2
F1 C9 1_555 1_555
O1 C2 1_555 1_555
O2 C4 1_555 1_555
O3 N2 1_555 1_555
O4 N2 1_555 1_555
N1 C1 1_555 1_555
N2 C8 1_555 1_555
C1 H1 1_555 1_555
H2 C1 1_555 1_555
C2 C1 1_555 1_555
H3 C2 1_555 1_555
H4 C2 1_555 1_555
C3 O1 1_555 1_555
H5 C3 1_555 1_555
H6 C3 1_555 1_555
C4 N1 1_555 1_555
C5 N1 1_555 1_555
C6 C5 1_555 1_555
H7 C6 1_555 1_555
C7 C6 1_555 1_555
H8 C7 1_555 1_555
C8 C7 1_555 1_555
C9 C8 1_555 1_555
C10 C5 1_555 1_555
H9 C10 1_555 1_555
C3 C4 1_555 1_555
C9 C10 1_555 1_555

#END
