
#######################################################################
#
#                 Cambridge Crystallographic Data Centre
#                                CCDC 
#
#######################################################################
#
# If this CIF has been generated from an entry in the Cambridge 
# Structural Database, then it will include bibliographic, chemical, 
# crystal, experimental, refinement or atomic coordinate data resulting 
# from the CCDC's data processing and validation procedures.
#
#######################################################################

data_USOBIP02
_chemical_formula_moiety         'C11 H7 Cl1 F3 N1'
_chemical_name_systematic        
4-(chloro(fluoro)methyl)-2-(difluoromethyl)quinoline
_symmetry_cell_setting           monoclinic
_symmetry_space_group_name_H-M   'C 2/c'
_symmetry_Int_Tables_number      15
_space_group_name_Hall           '-C 2yn'
loop_
_symmetry_equiv_pos_site_id
_symmetry_equiv_pos_as_xyz
1 x,y,z
2 -x,y,1/2-z
3 1/2+x,1/2+y,z
4 1/2-x,1/2+y,1/2-z
5 -x,-y,-z
6 x,-y,1/2+z
7 1/2-x,1/2-y,-z
8 1/2+x,1/2-y,1/2+z
_cell_length_a                   23.5167(11)
_cell_length_b                   10.1022(3)
_cell_length_c                   17.5581(7)
_cell_angle_alpha                90
_cell_angle_beta                 99.469(2)
_cell_angle_gamma                90
_cell_volume                     4114.45
_cell_formula_units_Z            16
loop_
_atom_site_label
_atom_site_type_symbol
_atom_site_fract_x
_atom_site_fract_y
_atom_site_fract_z
C1 C 0.17031(13) 0.2730(3) 0.05718(16)
C2 C 0.13373(14) 0.1613(3) 0.04421(18)
H1 H 0.0943 0.1729 0.0226
C3 C 0.15422(16) 0.0377(3) 0.0623(2)
H2 H 0.1293 -0.0366 0.0527
C4 C 0.21254(16) 0.0193(4) 0.0952(2)
H3 H 0.2265 -0.0673 0.1083
C5 C 0.24901(15) 0.1243(3) 0.10852(18)
H4 H 0.2883 0.1099 0.1299
C6 C 0.22907(13) 0.2551(3) 0.09078(16)
C7 C 0.26378(13) 0.3707(3) 0.10418(17)
C8 C 0.23995(14) 0.4916(3) 0.08433(18)
H5 H 0.2624 0.5699 0.0931
C9 C 0.18105(14) 0.4979(3) 0.05041(18)
C10 C 0.32673(15) 0.3591(4) 0.13928(18)
H6 H 0.3450 0.2878 0.1120
C11 C 0.15295(17) 0.6278(3) 0.0280(2)
H7 H 0.1114 0.6142 0.0057
N1 N 0.14689(11) 0.3941(2) 0.03728(14)
F1 F 0.35479(9) 0.4757(2) 0.13278(12)
F2 F 0.15768(12) 0.7093(2) 0.08999(15)
F3 F 0.18067(12) 0.6920(2) -0.02404(15)
Cl1 Cl 0.33433(4) 0.31957(11) 0.23963(5)
C12 C 0.00389(13) 0.2659(3) 0.12092(16)
C13 C -0.02356(14) 0.1542(3) 0.08407(18)
H8 H -0.0538 0.1655 0.0416
C14 C -0.00733(15) 0.0301(3) 0.10846(19)
H9 H -0.0263 -0.0446 0.0829
C15 C 0.03734(14) 0.0119(3) 0.17123(19)
H10 H 0.0484 -0.0752 0.1879
C16 C 0.06495(14) 0.1177(3) 0.20844(18)
H11 H 0.0952 0.1037 0.2507
C17 C 0.04902(13) 0.2487(3) 0.18480(17)
C18 C 0.07406(13) 0.3655(3) 0.22191(18)
C19 C 0.05506(14) 0.4867(3) 0.19379(18)
H12 H 0.0718 0.5657 0.2168
C20 C 0.01008(14) 0.4923(3) 0.12996(17)
C21 C 0.12004(14) 0.3532(4) 0.29309(19)
H13 H 0.1081 0.2853 0.3288
C22 C -0.01343(16) 0.6233(3) 0.0990(2)
H14 H -0.0400 0.6104 0.0489
N2 N -0.01507(11) 0.3884(2) 0.09431(14)
F4 F 0.12754(9) 0.4731(2) 0.33015(12)
F5 F -0.04171(11) 0.6854(2) 0.15068(15)
F6 F 0.02979(11) 0.70750(19) 0.08926(13)
Cl2 Cl 0.18687(4) 0.30683(12) 0.26652(5)
loop_
_geom_bond_atom_site_label_1
_geom_bond_atom_site_label_2
_geom_bond_site_symmetry_1
_geom_bond_site_symmetry_2
C1 C2 1_555 1_555
C2 H1 1_555 1_555
C3 C2 1_555 1_555
H2 C3 1_555 1_555
C4 C3 1_555 1_555
H3 C4 1_555 1_555
C5 C4 1_555 1_555
H4 C5 1_555 1_555
C6 C1 1_555 1_555
C7 C6 1_555 1_555
C8 C7 1_555 1_555
H5 C8 1_555 1_555
C9 C8 1_555 1_555
C10 C7 1_555 1_555
H6 C10 1_555 1_555
C11 C9 1_555 1_555
H7 C11 1_555 1_555
N1 C1 1_555 1_555
F1 C10 1_555 1_555
F2 C11 1_555 1_555
F3 C11 1_555 1_555
Cl1 C10 1_555 1_555
C12 C13 1_555 1_555
C13 H8 1_555 1_555
C14 C13 1_555 1_555
H9 C14 1_555 1_555
C15 C14 1_555 1_555
H10 C15 1_555 1_555
C16 C15 1_555 1_555
H11 C16 1_555 1_555
C17 C12 1_555 1_555
C18 C17 1_555 1_555
C19 C18 1_555 1_555
H12 C19 1_555 1_555
C20 C19 1_555 1_555
C21 C18 1_555 1_555
H13 C21 1_555 1_555
C22 C20 1_555 1_555
H14 C22 1_555 1_555
N2 C12 1_555 1_555
F4 C21 1_555 1_555
F5 C22 1_555 1_555
F6 C22 1_555 1_555
Cl2 C21 1_555 1_555
C5 C6 1_555 1_555
C9 N1 1_555 1_555
C16 C17 1_555 1_555
C20 N2 1_555 1_555

#END
