
#######################################################################
#
#                 Cambridge Crystallographic Data Centre
#                                CCDC 
#
#######################################################################
#
# If this CIF has been generated from an entry in the Cambridge 
# Structural Database, then it will include bibliographic, chemical, 
# crystal, experimental, refinement or atomic coordinate data resulting 
# from the CCDC's data processing and validation procedures.
#
#######################################################################

data_USODEM
_chemical_name_common            
1,2;5,6-Di-O-isopropylidene-3-C-nitromethyl-alpha-D-allofuranose
_chemical_formula_moiety         'C13 H21 N1 O8'
_chemical_name_systematic        
5-(2,2-Dimethyl-1,3-dioxolan-4-yl)-2,2-dimethyl-6-(nitromethyl)tetrahydrofuro[2,3-d][1,3]dioxol-6-ol
_symmetry_cell_setting           hexagonal
_symmetry_space_group_name_H-M   'P 61'
_symmetry_Int_Tables_number      169
_space_group_name_Hall           'P 61'
loop_
_symmetry_equiv_pos_site_id
_symmetry_equiv_pos_as_xyz
1 x,y,z
2 -y,x-y,1/3+z
3 -x+y,-x,2/3+z
4 -x,-y,1/2+z
5 y,-x+y,5/6+z
6 x-y,x,1/6+z
_cell_length_a                   13.2581(19)
_cell_length_b                   13.2581(19)
_cell_length_c                   16.462(3)
_cell_angle_alpha                90
_cell_angle_beta                 90
_cell_angle_gamma                120
_cell_volume                     2505.97
_exptl_crystal_colour            colorless
_exptl_crystal_description       prismatic
_cell_formula_units_Z            6
loop_
_atom_site_label
_atom_site_type_symbol
_atom_site_fract_x
_atom_site_fract_y
_atom_site_fract_z
O1 O 0.2338(3) 0.7097(4) 0.2334(2)
O2 O 0.0552(3) 0.6458(3) 0.1793(2)
O3 O 0.0092(2) 0.5408(3) 0.0319(2)
O4 O 0.3029(3) 0.6935(3) 0.1082(2)
O5 O 0.1802(3) 0.4394(3) -0.0205(3)
O6 O 0.3601(3) 0.4537(4) -0.0197(3)
O7 O 0.0437(7) 0.7865(7) -0.0252(4)
O8 O 0.0234(7) 0.6912(7) -0.1261(4)
N1 N 0.0764(5) 0.7349(5) -0.0646(3)
C1 C 0.2559(4) 0.7508(4) 0.1523(3)
H1 H 0.3068 0.8355 0.1502
C2 C 0.1347(4) 0.7135(4) 0.1170(3)
H2 H 0.1263 0.7800 0.1005
C3 C 0.1227(4) 0.6337(4) 0.0451(3)
C4 C 0.2095(3) 0.5932(4) 0.0705(3)
H3 H 0.1721 0.5317 0.1114
C5 C 0.2641(4) 0.5535(5) 0.0066(3)
H4 H 0.2918 0.6081 -0.0392
C6 C 0.3605(5) 0.5349(5) 0.0379(3)
H5 H 0.4347 0.6070 0.0381
H6 H 0.3438 0.5025 0.0923
C7 C 0.1610(4) 0.7012(5) -0.0346(3)
H7 H 0.2360 0.7709 -0.0268
H8 H 0.1703 0.6537 -0.0754
C8 C 0.1192(4) 0.6842(5) 0.2544(3)
C9 C 0.0671(6) 0.5833(6) 0.3133(4)
H9 H 0.0672 0.5174 0.2892
H10 H -0.0114 0.5635 0.3258
H11 H 0.1125 0.6050 0.3623
C10 C 0.1218(6) 0.7930(6) 0.2860(4)
H12 H 0.1542 0.8528 0.2453
H13 H 0.1689 0.8196 0.3341
H14 H 0.0440 0.7755 0.2986
C11 C 0.2428(4) 0.3839(5) -0.0501(4)
C12 C 0.1872(7) 0.2647(6) -0.0156(6)
H15 H 0.1886 0.2690 0.0426
H16 H 0.2291 0.2269 -0.0332
H17 H 0.1080 0.2210 -0.0340
C13 C 0.2482(6) 0.3881(7) -0.1415(4)
H18 H 0.2860 0.4677 -0.1592
H19 H 0.1707 0.3469 -0.1632
H20 H 0.2915 0.3523 -0.1602
H21 H -0.017(6) 0.497(6) 0.077(5)
loop_
_geom_bond_atom_site_label_1
_geom_bond_atom_site_label_2
_geom_bond_site_symmetry_1
_geom_bond_site_symmetry_2
O1 C1 1_555 1_555
O2 C2 1_555 1_555
O3 C3 1_555 1_555
O4 C1 1_555 1_555
O5 C5 1_555 1_555
O6 C6 1_555 1_555
O7 N1 1_555 1_555
O8 N1 1_555 1_555
N1 C7 1_555 1_555
C1 H1 1_555 1_555
C2 C1 1_555 1_555
H2 C2 1_555 1_555
C3 C2 1_555 1_555
C4 O4 1_555 1_555
H3 C4 1_555 1_555
C5 C4 1_555 1_555
H4 C5 1_555 1_555
C6 C5 1_555 1_555
H5 C6 1_555 1_555
H6 C6 1_555 1_555
C7 C3 1_555 1_555
H7 C7 1_555 1_555
H8 C7 1_555 1_555
C8 O1 1_555 1_555
C9 C8 1_555 1_555
H9 C9 1_555 1_555
H10 C9 1_555 1_555
H11 C9 1_555 1_555
C10 C8 1_555 1_555
H12 C10 1_555 1_555
H13 C10 1_555 1_555
H14 C10 1_555 1_555
C11 O5 1_555 1_555
C12 C11 1_555 1_555
H15 C12 1_555 1_555
H16 C12 1_555 1_555
H17 C12 1_555 1_555
C13 C11 1_555 1_555
H18 C13 1_555 1_555
H19 C13 1_555 1_555
H20 C13 1_555 1_555
H21 O3 1_555 1_555
O2 C8 1_555 1_555
O6 C11 1_555 1_555
C3 C4 1_555 1_555

#END
