
#######################################################################
#
#                 Cambridge Crystallographic Data Centre
#                                CCDC 
#
#######################################################################
#
# If this CIF has been generated from an entry in the Cambridge 
# Structural Database, then it will include bibliographic, chemical, 
# crystal, experimental, refinement or atomic coordinate data resulting 
# from the CCDC's data processing and validation procedures.
#
#######################################################################

data_USOGAL
_chemical_formula_moiety         'C17 H18 N4 S1'
_chemical_name_systematic        
N'',N'''-bis(1-phenylethylidene)thiocarbonohydrazide
_symmetry_cell_setting           triclinic
_symmetry_space_group_name_H-M   'P -1'
_symmetry_Int_Tables_number      2
_space_group_name_Hall           '-P 1'
loop_
_symmetry_equiv_pos_site_id
_symmetry_equiv_pos_as_xyz
1 x,y,z
2 -x,-y,-z
_cell_length_a                   7.5947(15)
_cell_length_b                   8.8202(18)
_cell_length_c                   13.084(3)
_cell_angle_alpha                76.62(3)
_cell_angle_beta                 76.39(3)
_cell_angle_gamma                82.35(3)
_cell_volume                     825.849
_exptl_crystal_colour            colorless
_exptl_crystal_description       block
_cell_formula_units_Z            2
loop_
_atom_site_label
_atom_site_type_symbol
_atom_site_fract_x
_atom_site_fract_y
_atom_site_fract_z
S1 S 0.91194(11) 0.69768(7) -0.10817(5)
N1 N 0.7946(3) 0.9200(2) 0.00704(14)
H1 H 0.7779 0.9500 0.0669
N2 N 0.7386(3) 1.0205(2) -0.07909(14)
N3 N 0.9241(3) 0.6971(2) 0.09311(14)
H2 H 0.9787 0.6046 0.0982
N4 N 0.8830(3) 0.7712(2) 0.17832(15)
C1 C 0.8745(3) 0.7765(3) -0.00005(18)
C2 C 0.6582(3) 1.1530(3) -0.06107(18)
C3 C 0.6205(4) 1.2028(3) 0.0448(2)
H3 H 0.6098 1.1120 0.1022
H4 H 0.5091 1.2689 0.0525
H5 H 0.7185 1.2592 0.0474
C4 C 0.6017(3) 1.2612(2) -0.15566(18)
C5 C 0.6339(4) 1.2169(3) -0.25393(19)
H6 H 0.6893 1.1180 -0.2604
C6 C 0.5846(4) 1.3179(3) -0.3422(2)
H7 H 0.6078 1.2867 -0.4076
C7 C 0.5015(4) 1.4645(3) -0.3343(2)
H8 H 0.4694 1.5324 -0.3942
C8 C 0.4666(4) 1.5095(3) -0.2381(2)
H9 H 0.4092 1.6080 -0.2321
C9 C 0.5164(4) 1.4089(3) -0.1491(2)
H10 H 0.4921 1.4411 -0.0839
C10 C 0.9131(3) 0.6990(3) 0.27089(18)
C11 C 0.9913(4) 0.5327(3) 0.2956(2)
H11 H 0.9160 0.4657 0.2797
H12 H 0.9961 0.5032 0.3703
H13 H 1.1118 0.5228 0.2525
C12 C 0.8641(3) 0.7926(3) 0.35463(18)
C13 C 0.8581(5) 0.9550(3) 0.3268(2)
H14 H 0.8894 1.0049 0.2550
C14 C 0.8063(7) 1.0415(4) 0.4049(3)
H15 H 0.8012 1.1501 0.3855
C15 C 0.7621(7) 0.9703(4) 0.5109(3)
H16 H 0.7270 1.0304 0.5631
C16 C 0.7691(5) 0.8118(4) 0.5402(2)
H17 H 0.7384 0.7633 0.6124
C17 C 0.8217(4) 0.7239(3) 0.4628(2)
H18 H 0.8291 0.6154 0.4834
loop_
_geom_bond_atom_site_label_1
_geom_bond_atom_site_label_2
_geom_bond_site_symmetry_1
_geom_bond_site_symmetry_2
S1 C1 1_555 1_555
N1 H1 1_555 1_555
N2 N1 1_555 1_555
N3 H2 1_555 1_555
N4 N3 1_555 1_555
C1 N1 1_555 1_555
C2 N2 1_555 1_555
C3 C2 1_555 1_555
H3 C3 1_555 1_555
H4 C3 1_555 1_555
H5 C3 1_555 1_555
C4 C2 1_555 1_555
C5 C4 1_555 1_555
H6 C5 1_555 1_555
C6 C5 1_555 1_555
H7 C6 1_555 1_555
C7 C6 1_555 1_555
H8 C7 1_555 1_555
C8 C7 1_555 1_555
H9 C8 1_555 1_555
C9 C4 1_555 1_555
H10 C9 1_555 1_555
C10 N4 1_555 1_555
C11 C10 1_555 1_555
H11 C11 1_555 1_555
H12 C11 1_555 1_555
H13 C11 1_555 1_555
C12 C10 1_555 1_555
C13 C12 1_555 1_555
H14 C13 1_555 1_555
C14 C13 1_555 1_555
H15 C14 1_555 1_555
C15 C14 1_555 1_555
H16 C15 1_555 1_555
C16 C15 1_555 1_555
H17 C16 1_555 1_555
C17 C12 1_555 1_555
H18 C17 1_555 1_555
N3 C1 1_555 1_555
C8 C9 1_555 1_555
C16 C17 1_555 1_555

#END
