
#######################################################################
#
#                 Cambridge Crystallographic Data Centre
#                                CCDC 
#
#######################################################################
#
# If this CIF has been generated from an entry in the Cambridge 
# Structural Database, then it will include bibliographic, chemical, 
# crystal, experimental, refinement or atomic coordinate data resulting 
# from the CCDC's data processing and validation procedures.
#
#######################################################################

data_USOGEQ
_chemical_formula_moiety         'C14 H18 N2 O4'
_chemical_name_systematic        
'4-(4-(ethoxycarbonyl)piperazin-1-yl)benzoic acid'
_symmetry_cell_setting           orthorhombic
_symmetry_space_group_name_H-M   'P n a 21'
_symmetry_Int_Tables_number      33
_space_group_name_Hall           'P 2c -2n'
loop_
_symmetry_equiv_pos_site_id
_symmetry_equiv_pos_as_xyz
1 x,y,z
2 -x,-y,1/2+z
3 1/2-x,1/2+y,1/2+z
4 1/2+x,1/2-y,z
_cell_length_a                   18.508(5)
_cell_length_b                   4.994(5)
_cell_length_c                   29.594(5)
_cell_angle_alpha                90
_cell_angle_beta                 90
_cell_angle_gamma                90
_cell_volume                     2735.34
_exptl_crystal_colour            colorless
_exptl_crystal_description       Block
_cell_formula_units_Z            8
loop_
_atom_site_label
_atom_site_type_symbol
_atom_site_fract_x
_atom_site_fract_y
_atom_site_fract_z
O1 O 0.6918(3) 0.2291(13) 0.3795(3)
H1 H 0.6528 0.2795 0.3678
O2 O 0.6971(2) 0.6589(12) 0.3981(2)
O3 O 1.1546(2) -0.0268(10) 0.61300(19)
O4 O 1.1990(3) -0.2288(9) 0.5501(2)
N1 N 0.9933(3) 0.2577(10) 0.4888(3)
N2 N 1.1101(3) 0.0764(13) 0.5433(2)
C1 C 0.7243(4) 0.4362(14) 0.3986(3)
C2 C 0.7949(4) 0.3828(13) 0.4214(3)
C3 C 0.8164(3) 0.5513(14) 0.4560(3)
H2 H 0.7865 0.6969 0.4647
C4 C 0.8816(3) 0.5082(14) 0.4781(3)
H3 H 0.8957 0.6237 0.5021
C5 C 0.9277(4) 0.2923(16) 0.4653(3)
C6 C 0.9066(3) 0.1323(14) 0.4308(3)
H4 H 0.9369 -0.0110 0.4216
C7 C 0.8404(4) 0.1743(18) 0.4086(3)
H5 H 0.8266 0.0591 0.3845
C8 C 0.9880(4) 0.2484(15) 0.5397(3)
H6 H 0.9564 0.3955 0.5503
H7 H 0.9658 0.0767 0.5490
C9 C 1.0603(4) 0.2747(17) 0.5609(3)
H8 H 1.0797 0.4562 0.5551
H9 H 1.0558 0.2519 0.5940
C10 C 1.1159(4) 0.0718(17) 0.4939(3)
H10 H 1.1459 -0.0828 0.4846
H11 H 1.1402 0.2372 0.4834
C11 C 1.0420(3) 0.0510(15) 0.4721(3)
H12 H 1.0470 0.0688 0.4389
H13 H 1.0211 -0.1275 0.4785
C12 C 1.1547(3) -0.0536(14) 0.5723(2)
C13 C 1.2448(4) -0.3858(16) 0.5793(3)
H14 H 1.2154 -0.4868 0.6014
H15 H 1.2788 -0.2686 0.5959
C14 C 1.2859(4) -0.5770(15) 0.5485(3)
H16 H 1.3186 -0.6875 0.5667
H17 H 1.3141 -0.4739 0.5265
H18 H 1.2516 -0.6926 0.5326
O5 O 0.5524(3) 0.7761(13) 0.3627(3)
H19 H 0.5911 0.7222 0.3744
O6 O 0.5460(2) 0.3407(11) 0.34180(19)
O7 O 0.0883(3) 1.0119(11) 0.12725(19)
O8 O 0.0441(3) 1.2149(11) 0.1901(2)
N3 N 0.2507(3) 0.7383(12) 0.2493(3)
N4 N 0.1310(3) 0.9039(12) 0.1970(2)
C15 C 0.5191(3) 0.5682(13) 0.3412(3)
C16 C 0.4492(4) 0.6208(14) 0.3179(3)
C17 C 0.4035(4) 0.8309(17) 0.3305(3)
H20 H 0.4176 0.9480 0.3543
C18 C 0.3379(4) 0.8706(15) 0.3089(3)
H21 H 0.3066 1.0094 0.3188
C19 C 0.3175(3) 0.7085(16) 0.2727(3)
C20 C 0.3630(4) 0.4965(14) 0.2608(3)
H22 H 0.3492 0.3795 0.2369
C21 C 0.4273(4) 0.4547(15) 0.2829(3)
H23 H 0.4573 0.3093 0.2741
C22 C 0.2016(3) 0.9471(15) 0.2664(3)
H24 H 0.2210 1.1259 0.2586
H25 H 0.1986 0.9348 0.2998
C23 C 0.1267(4) 0.9150(17) 0.2462(3)
H26 H 0.1043 0.7484 0.2578
H27 H 0.0959 1.0677 0.2554
C24 C 0.1800(4) 0.7025(18) 0.1806(3)
H28 H 0.1830 0.7130 0.1472
H29 H 0.1617 0.5226 0.1888
C25 C 0.2552(4) 0.7435(14) 0.2011(3)
H30 H 0.2881 0.6001 0.1905
H31 H 0.2751 0.9176 0.1910
C26 C 0.0880(4) 1.0370(15) 0.1678(3)
C27 C -0.0015(4) 1.3737(16) 0.1605(3)
H32 H -0.0346 1.2564 0.1433
H33 H 0.0285 1.4762 0.1389
C28 C -0.0436(4) 1.5605(15) 0.1900(3)
H34 H -0.0708 1.6860 0.1711
H35 H -0.0103 1.6605 0.2095
H36 H -0.0772 1.4574 0.2088
loop_
_geom_bond_atom_site_label_1
_geom_bond_atom_site_label_2
_geom_bond_site_symmetry_1
_geom_bond_site_symmetry_2
O1 H1 1_555 1_555
O2 C1 1_555 1_555
O3 C12 1_555 1_555
O4 C12 1_555 1_555
N1 C5 1_555 1_555
N2 C9 1_555 1_555
C1 O1 1_555 1_555
C2 C1 1_555 1_555
C3 C2 1_555 1_555
H2 C3 1_555 1_555
C4 C3 1_555 1_555
H3 C4 1_555 1_555
C5 C4 1_555 1_555
C6 C5 1_555 1_555
H4 C6 1_555 1_555
C7 C2 1_555 1_555
H5 C7 1_555 1_555
C8 N1 1_555 1_555
H6 C8 1_555 1_555
H7 C8 1_555 1_555
C9 C8 1_555 1_555
H8 C9 1_555 1_555
H9 C9 1_555 1_555
C10 N2 1_555 1_555
H10 C10 1_555 1_555
H11 C10 1_555 1_555
C11 N1 1_555 1_555
H12 C11 1_555 1_555
H13 C11 1_555 1_555
C12 N2 1_555 1_555
C13 O4 1_555 1_555
H14 C13 1_555 1_555
H15 C13 1_555 1_555
C14 C13 1_555 1_555
H16 C14 1_555 1_555
H17 C14 1_555 1_555
H18 C14 1_555 1_555
O5 H19 1_555 1_555
O6 C15 1_555 1_555
O7 C26 1_555 1_555
O8 C26 1_555 1_555
N3 C19 1_555 1_555
N4 C23 1_555 1_555
C15 O5 1_555 1_555
C16 C15 1_555 1_555
C17 C16 1_555 1_555
H20 C17 1_555 1_555
C18 C17 1_555 1_555
H21 C18 1_555 1_555
C19 C18 1_555 1_555
C20 C19 1_555 1_555
H22 C20 1_555 1_555
C21 C16 1_555 1_555
H23 C21 1_555 1_555
C22 N3 1_555 1_555
H24 C22 1_555 1_555
H25 C22 1_555 1_555
C23 C22 1_555 1_555
H26 C23 1_555 1_555
H27 C23 1_555 1_555
C24 N4 1_555 1_555
H28 C24 1_555 1_555
H29 C24 1_555 1_555
C25 N3 1_555 1_555
H30 C25 1_555 1_555
H31 C25 1_555 1_555
C26 N4 1_555 1_555
C27 O8 1_555 1_555
H32 C27 1_555 1_555
H33 C27 1_555 1_555
C28 C27 1_555 1_555
H34 C28 1_555 1_555
H35 C28 1_555 1_555
H36 C28 1_555 1_555
C6 C7 1_555 1_555
C10 C11 1_555 1_555
C20 C21 1_555 1_555
C24 C25 1_555 1_555

#END
