
#######################################################################
#
#                 Cambridge Crystallographic Data Centre
#                                CCDC 
#
#######################################################################
#
# If this CIF has been generated from an entry in the Cambridge 
# Structural Database, then it will include bibliographic, chemical, 
# crystal, experimental, refinement or atomic coordinate data resulting 
# from the CCDC's data processing and validation procedures.
#
#######################################################################

data_USOHAM
_chemical_formula_moiety         'C24 H15 N1 O3'
_chemical_name_systematic        
12-Benzoyl-2-methylbenzo[f]pyrido[1,2-a]indole-6,11-dione
_symmetry_cell_setting           monoclinic
_symmetry_space_group_name_H-M   'P 21/c'
_symmetry_Int_Tables_number      14
_space_group_name_Hall           '-P 2ybc'
loop_
_symmetry_equiv_pos_site_id
_symmetry_equiv_pos_as_xyz
1 x,y,z
2 -x,1/2+y,1/2-z
3 -x,-y,-z
4 x,1/2-y,1/2+z
_cell_length_a                   7.1260(14)
_cell_length_b                   10.125(2)
_cell_length_c                   24.352(5)
_cell_angle_alpha                90
_cell_angle_beta                 90.22(3)
_cell_angle_gamma                90
_cell_volume                     1757
_exptl_crystal_colour            red
_exptl_crystal_description       block
_chemical_melting_point          '538 K'
_cell_formula_units_Z            4
loop_
_atom_site_label
_atom_site_type_symbol
_atom_site_fract_x
_atom_site_fract_y
_atom_site_fract_z
N1 N 0.1808(3) 0.6115(3) 0.44928(11)
C1 C 0.2311(4) 0.4972(3) 0.47630(13)
O1 O 0.2792(4) 0.5789(3) 0.56513(10)
O2 O 0.2339(4) 0.1643(3) 0.42739(10)
C2 C 0.3188(4) 0.2429(3) 0.51506(14)
C3 C 0.3265(4) 0.3501(3) 0.55128(14)
C4 C 0.2309(4) 0.3959(3) 0.43837(13)
C5 C 0.1497(4) 0.5816(3) 0.39425(14)
C6 C 0.3601(5) 0.1177(4) 0.53431(16)
H1 H 0.3511 0.0459 0.5107
C7 C 0.2598(5) 0.2599(4) 0.45665(15)
C8 C 0.2775(5) 0.4848(4) 0.53324(14)
C9 C 0.1643(5) 0.7379(4) 0.46870(15)
H2 H 0.1848 0.7557 0.5057
C10 C 0.1807(5) 0.4458(4) 0.38678(13)
C11 C 0.3024(6) 0.2844(3) 0.31344(13)
O3 O 0.0328(4) 0.4141(3) 0.30306(11)
C12 C 0.1000(5) 0.6856(4) 0.35921(15)
H3 H 0.0775 0.6684 0.3223
C13 C 0.1184(5) 0.8354(4) 0.43411(17)
H4 H 0.1092 0.9213 0.4475
C14 C 0.3777(5) 0.3285(4) 0.60562(14)
H5 H 0.3820 0.3988 0.6302
C15 C 0.4852(6) 0.2881(4) 0.33161(15)
H6 H 0.5208 0.3493 0.3582
C16 C 0.0840(5) 0.8116(4) 0.37831(17)
C17 C 0.1615(5) 0.3819(4) 0.33307(15)
C18 C 0.4220(5) 0.2029(5) 0.62324(17)
H7 H 0.4577 0.1894 0.6596
C19 C 0.2519(7) 0.1918(4) 0.27499(15)
H8 H 0.1291 0.1897 0.2619
C20 C 0.3799(9) 0.1024(5) 0.25553(18)
H9 H 0.3424 0.0377 0.2307
C21 C 0.4142(5) 0.0979(4) 0.58804(17)
H10 H 0.4453 0.0137 0.6003
C22 C 0.6168(7) 0.2010(4) 0.31047(18)
H11 H 0.7413 0.2054 0.3219
C23 C 0.5615(9) 0.1081(5) 0.2725(2)
H12 H 0.6488 0.0491 0.2583
C24 C 0.0376(6) 0.9245(4) 0.34044(18)
H13 H 0.0216 0.8917 0.3037
H14 H 0.1379 0.9877 0.3412
H15 H -0.0765 0.9660 0.3523
loop_
_geom_bond_atom_site_label_1
_geom_bond_atom_site_label_2
_geom_bond_site_symmetry_1
_geom_bond_site_symmetry_2
N1 C1 1_555 1_555
C1 C4 1_555 1_555
O1 C8 1_555 1_555
O2 C7 1_555 1_555
C2 C3 1_555 1_555
C3 C8 1_555 1_555
C4 C7 1_555 1_555
C5 N1 1_555 1_555
C6 C2 1_555 1_555
H1 C6 1_555 1_555
C7 C2 1_555 1_555
C8 C1 1_555 1_555
C9 N1 1_555 1_555
H2 C9 1_555 1_555
C10 C4 1_555 1_555
C11 C15 1_555 1_555
O3 C17 1_555 1_555
C12 C5 1_555 1_555
H3 C12 1_555 1_555
C13 C9 1_555 1_555
H4 C13 1_555 1_555
C14 C3 1_555 1_555
H5 C14 1_555 1_555
C15 H6 1_555 1_555
C16 C12 1_555 1_555
C17 C10 1_555 1_555
C18 C14 1_555 1_555
H7 C18 1_555 1_555
C19 C11 1_555 1_555
H8 C19 1_555 1_555
C20 C19 1_555 1_555
H9 C20 1_555 1_555
C21 C6 1_555 1_555
H10 C21 1_555 1_555
C22 C15 1_555 1_555
H11 C22 1_555 1_555
C23 C20 1_555 1_555
H12 C23 1_555 1_555
C24 C16 1_555 1_555
H13 C24 1_555 1_555
H14 C24 1_555 1_555
H15 C24 1_555 1_555
C5 C10 1_555 1_555
C11 C17 1_555 1_555
C13 C16 1_555 1_555
C18 C21 1_555 1_555
C22 C23 1_555 1_555

#END
