
#######################################################################
#
#                 Cambridge Crystallographic Data Centre
#                                CCDC 
#
#######################################################################
#
# If this CIF has been generated from an entry in the Cambridge 
# Structural Database, then it will include bibliographic, chemical, 
# crystal, experimental, refinement or atomic coordinate data resulting 
# from the CCDC's data processing and validation procedures.
#
#######################################################################

data_USOKOD
_chemical_formula_moiety         'C19 H19 Cl1 N2 O6'
_chemical_name_systematic        
'(S,E)-Ethyl 2-(4-chlorophenyl)-2-(((4-methoxybenzylidene)amino)oxy)-3-nitropropanoate'
_symmetry_cell_setting           monoclinic
_symmetry_space_group_name_H-M   'P 21'
_symmetry_Int_Tables_number      4
_space_group_name_Hall           'P 2yb'
loop_
_symmetry_equiv_pos_site_id
_symmetry_equiv_pos_as_xyz
1 x,y,z
2 -x,1/2+y,-z
_cell_length_a                   8.3959(9)
_cell_length_b                   20.777(2)
_cell_length_c                   11.9679(13)
_cell_angle_alpha                90
_cell_angle_beta                 105.102(2)
_cell_angle_gamma                90
_cell_volume                     2015.6
_exptl_crystal_colour            colorless
_exptl_crystal_description       block
_cell_formula_units_Z            4
loop_
_atom_site_label
_atom_site_type_symbol
_atom_site_fract_x
_atom_site_fract_y
_atom_site_fract_z
C1 C -0.2463(5) 1.0792(2) 0.7642(4)
C2 C -0.2811(5) 1.0874(2) 0.6482(4)
H1 H -0.3383 1.1236 0.6137
C3 C -0.2312(5) 1.0417(2) 0.5823(4)
H2 H -0.2515 1.0479 0.5028
C4 C -0.1512(4) 0.98679(19) 0.6319(3)
C5 C -0.1176(5) 0.9803(2) 0.7504(3)
H3 H -0.0616 0.9439 0.7855
C6 C -0.1645(5) 1.0260(2) 0.8174(4)
H4 H -0.1414 1.0210 0.8973
C7 C -0.0983(5) 0.9342(2) 0.5588(3)
C8 C -0.2122(6) 0.8756(2) 0.5364(5)
C9 C 0.0682(7) 0.9072(3) 0.6248(4)
C10 C 0.3624(9) 0.9538(8) 0.6753(9)
H5 H 0.4057 0.9847 0.6301
H6 H 0.4114 0.9121 0.6688
C11 C 0.4009(17) 0.9743(8) 0.7988(10)
H7 H 0.4798 1.0088 0.8116
H8 H 0.4459 0.9386 0.8478
H9 H 0.3017 0.9888 0.8166
C12 C 0.0041(5) 0.9513(2) 0.3013(3)
H10 H -0.0250 0.9945 0.2915
C13 C 0.0733(4) 0.9202(2) 0.2154(3)
C14 C 0.1055(6) 0.9575(2) 0.1268(4)
H11 H 0.0822 1.0014 0.1236
C15 C 0.1708(6) 0.9303(2) 0.0447(4)
H12 H 0.1936 0.9561 -0.0128
C16 C 0.2032(5) 0.8657(2) 0.0459(3)
C17 C 0.1723(5) 0.8272(2) 0.1347(4)
H13 H 0.1948 0.7833 0.1377
C18 C 0.1082(5) 0.8560(2) 0.2167(3)
H14 H 0.0877 0.8307 0.2755
C19 C 0.2607(8) 0.7756(3) -0.0593(5)
H15 H 0.3405 0.7555 0.0031
H16 H 0.2875 0.7668 -0.1310
H17 H 0.1529 0.7590 -0.0625
Cl1 Cl -0.31191(19) 1.13801(7) 0.84817(13)
N1 N -0.3784(5) 0.89278(19) 0.4599(5)
N2 N -0.0178(4) 0.92199(17) 0.3882(3)
O1 O -0.4686(5) 0.9268(2) 0.4967(5)
O2 O -0.4143(6) 0.8727(2) 0.3627(5)
O3 O 0.0895(6) 0.8551(2) 0.6653(4)
O4 O 0.1825(4) 0.9501(3) 0.6336(3)
O5 O -0.0922(3) 0.96451(13) 0.4537(2)
O6 O 0.2622(5) 0.84243(18) -0.0410(3)
C20 C 0.4625(5) 0.5426(2) 0.8451(4)
C21 C 0.4904(7) 0.6039(3) 0.8798(4)
H18 H 0.4603 0.6184 0.9448
C22 C 0.5643(6) 0.6451(2) 0.8179(4)
H19 H 0.5854 0.6875 0.8419
C23 C 0.6068(4) 0.62342(16) 0.7205(3)
C24 C 0.5807(6) 0.5605(2) 0.6893(4)
H20 H 0.6107 0.5453 0.6245
C25 C 0.5098(6) 0.5190(2) 0.7533(4)
H21 H 0.4949 0.4758 0.7335
C26 C 0.6794(4) 0.67020(17) 0.6490(3)
C27 C 0.8495(4) 0.69877(18) 0.7147(3)
C28 C 0.5620(4) 0.72795(18) 0.6176(3)
C29 C 0.2948(5) 0.7614(2) 0.5209(5)
H22 H 0.3251 0.7944 0.4730
H23 H 0.2867 0.7812 0.5926
C30 C 0.1366(5) 0.7339(3) 0.4613(6)
H24 H 0.1418 0.7180 0.3871
H25 H 0.0528 0.7665 0.4511
H26 H 0.1104 0.6992 0.5064
C31 C 0.7490(4) 0.65116(18) 0.3809(3)
H27 H 0.7688 0.6071 0.3880
C32 C 0.7601(4) 0.68383(18) 0.2760(3)
C33 C 0.7015(5) 0.7457(2) 0.2490(3)
H28 H 0.6532 0.7671 0.3002
C34 C 0.7116(5) 0.7768(2) 0.1502(3)
H29 H 0.6705 0.8184 0.1344
C35 C 0.7843(5) 0.7451(2) 0.0740(3)
C36 C 0.8442(5) 0.6839(2) 0.0980(3)
H30 H 0.8930 0.6629 0.0468
C37 C 0.8322(5) 0.6531(2) 0.1984(3)
H31 H 0.8729 0.6115 0.2139
C38 C 0.7439(7) 0.8350(3) -0.0555(4)
H32 H 0.6290 0.8380 -0.0575
H33 H 0.7590 0.8468 -0.1296
H34 H 0.8062 0.8636 0.0027
Cl2 Cl 0.3660(2) 0.49006(9) 0.92171(13)
N3 N 0.9705(4) 0.6462(2) 0.7509(3)
N4 N 0.7126(3) 0.68147(15) 0.4635(2)
O7 O 0.9860(5) 0.6218(2) 0.8452(4)
O8 O 1.0446(6) 0.6274(3) 0.6852(4)
O9 O 0.4209(3) 0.71185(13) 0.5459(2)
O10 O 0.5932(3) 0.78024(13) 0.6610(3)
O11 O 0.6928(3) 0.63659(12) 0.5489(2)
O12 O 0.7992(4) 0.77086(15) -0.0288(2)
C39? C 0.3273(9) 0.9196(4) 0.7148(8)
C40? C 0.4338(17) 0.9788(7) 0.7455(16)
H35? H 0.3781 0.8871 0.6771
H36? H 0.2995 0.9011 0.7817
H37? H 0.4633 0.9942 0.6780
H38? H 0.5320 0.9682 0.8044
H39? H 0.3738 1.0116 0.7737
loop_
_geom_bond_atom_site_label_1
_geom_bond_atom_site_label_2
_geom_bond_site_symmetry_1
_geom_bond_site_symmetry_2
C1 C2 1_555 1_555
C2 H1 1_555 1_555
C3 C2 1_555 1_555
H2 C3 1_555 1_555
C4 C3 1_555 1_555
C5 C4 1_555 1_555
H3 C5 1_555 1_555
C6 C1 1_555 1_555
H4 C6 1_555 1_555
C7 C4 1_555 1_555
C8 C7 1_555 1_555
C9 C7 1_555 1_555
C10 H5 1_555 1_555
H6 C10 1_555 1_555
C11 C10 1_555 1_555
H7 C11 1_555 1_555
H8 C11 1_555 1_555
H9 C11 1_555 1_555
C12 H10 1_555 1_555
C13 C12 1_555 1_555
C14 C13 1_555 1_555
H11 C14 1_555 1_555
C15 C14 1_555 1_555
H12 C15 1_555 1_555
C16 C15 1_555 1_555
C17 C16 1_555 1_555
H13 C17 1_555 1_555
C18 C13 1_555 1_555
H14 C18 1_555 1_555
C19 H15 1_555 1_555
H16 C19 1_555 1_555
H17 C19 1_555 1_555
C20 C21 1_555 1_555
C21 H18 1_555 1_555
C22 C21 1_555 1_555
H19 C22 1_555 1_555
C23 C22 1_555 1_555
C24 C23 1_555 1_555
H20 C24 1_555 1_555
C25 C20 1_555 1_555
H21 C25 1_555 1_555
C26 C23 1_555 1_555
C27 C26 1_555 1_555
C28 C26 1_555 1_555
C29 H22 1_555 1_555
H23 C29 1_555 1_555
C30 C29 1_555 1_555
H24 C30 1_555 1_555
H25 C30 1_555 1_555
H26 C30 1_555 1_555
C31 H27 1_555 1_555
C32 C31 1_555 1_555
C33 C32 1_555 1_555
H28 C33 1_555 1_555
C34 C33 1_555 1_555
H29 C34 1_555 1_555
C35 C34 1_555 1_555
C36 C35 1_555 1_555
H30 C36 1_555 1_555
C37 C32 1_555 1_555
H31 C37 1_555 1_555
C38 H32 1_555 1_555
H33 C38 1_555 1_555
H34 C38 1_555 1_555
Cl1 C1 1_555 1_555
Cl2 C20 1_555 1_555
N1 C8 1_555 1_555
N2 C12 1_555 1_555
N3 C27 1_555 1_555
N4 C31 1_555 1_555
O1 N1 1_555 1_555
O2 N1 1_555 1_555
O3 C9 1_555 1_555
O4 C9 1_555 1_555
O5 C7 1_555 1_555
O6 C16 1_555 1_555
O7 N3 1_555 1_555
O8 N3 1_555 1_555
O9 C28 1_555 1_555
O10 C28 1_555 1_555
O11 C26 1_555 1_555
O12 C35 1_555 1_555
C5 C6 1_555 1_555
C10 O4 1_555 1_555
C17 C18 1_555 1_555
C19 O6 1_555 1_555
C24 C25 1_555 1_555
C29 O9 1_555 1_555
C36 C37 1_555 1_555
C38 O12 1_555 1_555
N2 O5 1_555 1_555
N4 O11 1_555 1_555

#END
