
#######################################################################
#
#                 Cambridge Crystallographic Data Centre
#                                CCDC 
#
#######################################################################
#
# If this CIF has been generated from an entry in the Cambridge 
# Structural Database, then it will include bibliographic, chemical, 
# crystal, experimental, refinement or atomic coordinate data resulting 
# from the CCDC's data processing and validation procedures.
#
#######################################################################

data_USOLOF
_chemical_formula_moiety         'C13 H18 O3'
_chemical_name_systematic        
8-methoxy-4-methyl-11-methylene-9-oxatricyclo[5.2.2.0^4,8^]undecan-5-one
_symmetry_cell_setting           monoclinic
_symmetry_space_group_name_H-M   'P 21'
_symmetry_Int_Tables_number      4
_space_group_name_Hall           'P 2yb'
loop_
_symmetry_equiv_pos_site_id
_symmetry_equiv_pos_as_xyz
1 x,y,z
2 -x,1/2+y,-z
_cell_length_a                   6.9846(2)
_cell_length_b                   11.6887(3)
_cell_length_c                   7.2441(2)
_cell_angle_alpha                90
_cell_angle_beta                 109.1830(10)
_cell_angle_gamma                90
_cell_volume                     558.576
_exptl_crystal_colour            colorless
_exptl_crystal_description       block
_cell_formula_units_Z            2
loop_
_atom_site_label
_atom_site_type_symbol
_atom_site_fract_x
_atom_site_fract_y
_atom_site_fract_z
C1 C 0.2516(3) 0.08703(18) 0.7348(3)
C2 C 0.2497(3) -0.01233(19) 0.8768(3)
H1 H 0.1690 0.0110 0.9584
C3 C 0.1617(3) -0.12225(19) 0.7707(3)
C4 C -0.0129(3) -0.10384(19) 0.5847(3)
H2 H -0.1336 -0.0855 0.6169
H3 H -0.0387 -0.1741 0.5093
C5 C 0.0287(3) -0.00763(19) 0.4603(3)
H4 H -0.0961 0.0051 0.3503
C6 C 0.1984(3) -0.0290(2) 0.3762(3)
H5 H 0.1995 0.0324 0.2864
H6 H 0.1716 -0.0999 0.3025
C7 C 0.4073(3) -0.03651(19) 0.5336(3)
H7 H 0.5111 -0.0369 0.4718
H8 H 0.4173 -0.1077 0.6049
C8 C 0.4454(3) 0.06569(18) 0.6796(3)
C9 C 0.5926(3) 0.02349(18) 0.8740(3)
C10 C 0.4740(3) -0.0177(2) 1.0046(3)
H9 H 0.4995 0.0314 1.1180
H10 H 0.5122 -0.0954 1.0486
C11 C 0.5224(4) 0.1695(2) 0.5980(3)
H11 H 0.5459 0.2314 0.6898
H12 H 0.4231 0.1921 0.4768
H13 H 0.6468 0.1503 0.5759
C12 C 0.2242(4) -0.2257(2) 0.8354(4)
H14 H 0.1602 -0.2896 0.7658
H15 H 0.3324 -0.2347 0.9507
C13 C 0.1387(4) 0.2250(2) 0.9248(4)
H16 H 0.0070 0.1968 0.8499
H17 H 0.1342 0.3069 0.9333
H18 H 0.1786 0.1929 1.0539
O1 O 0.2826(2) 0.19296(13) 0.8314(2)
O2 O 0.0728(2) 0.09629(13) 0.5735(2)
O3 O 0.7747(2) 0.02184(16) 0.9190(2)
loop_
_geom_bond_atom_site_label_1
_geom_bond_atom_site_label_2
_geom_bond_site_symmetry_1
_geom_bond_site_symmetry_2
C1 C2 1_555 1_555
C2 H1 1_555 1_555
C3 C2 1_555 1_555
C4 C3 1_555 1_555
H2 C4 1_555 1_555
H3 C4 1_555 1_555
C5 C4 1_555 1_555
H4 C5 1_555 1_555
C6 C5 1_555 1_555
H5 C6 1_555 1_555
H6 C6 1_555 1_555
C7 C6 1_555 1_555
H7 C7 1_555 1_555
H8 C7 1_555 1_555
C8 C1 1_555 1_555
C9 C8 1_555 1_555
C10 C2 1_555 1_555
H9 C10 1_555 1_555
H10 C10 1_555 1_555
C11 C8 1_555 1_555
H11 C11 1_555 1_555
H12 C11 1_555 1_555
H13 C11 1_555 1_555
C12 C3 1_555 1_555
H14 C12 1_555 1_555
H15 C12 1_555 1_555
C13 H16 1_555 1_555
H17 C13 1_555 1_555
H18 C13 1_555 1_555
O1 C1 1_555 1_555
O2 C1 1_555 1_555
O3 C9 1_555 1_555
C5 O2 1_555 1_555
C7 C8 1_555 1_555
C9 C10 1_555 1_555
C13 O1 1_555 1_555

#END
