
#######################################################################
#
#                 Cambridge Crystallographic Data Centre
#                                CCDC 
#
#######################################################################
#
# If this CIF has been generated from an entry in the Cambridge 
# Structural Database, then it will include bibliographic, chemical, 
# crystal, experimental, refinement or atomic coordinate data resulting 
# from the CCDC's data processing and validation procedures.
#
#######################################################################

data_USOLUL
_chemical_formula_moiety         'C28 H39 N1 O4'
_chemical_name_systematic        
N-(2-hydroxy-1,2-diphenylethyl)-N,3-dimethyl-5-(2,2,5,5-tetramethyl-1,3-dioxolan-4-yl)pentanamide
_symmetry_cell_setting           monoclinic
_symmetry_space_group_name_H-M   'P 21'
_symmetry_Int_Tables_number      4
_space_group_name_Hall           'P 2yb'
loop_
_symmetry_equiv_pos_site_id
_symmetry_equiv_pos_as_xyz
1 x,y,z
2 -x,1/2+y,-z
_cell_length_a                   10.1896(4)
_cell_length_b                   6.9566(2)
_cell_length_c                   18.6948(6)
_cell_angle_alpha                90
_cell_angle_beta                 95.887(2)
_cell_angle_gamma                90
_cell_volume                     1318.19
_exptl_crystal_colour            colorless
_exptl_crystal_description       block
_cell_formula_units_Z            2
loop_
_atom_site_label
_atom_site_type_symbol
_atom_site_fract_x
_atom_site_fract_y
_atom_site_fract_z
C1 C 0.2728(2) 0.9304(4) 0.50653(13)
C2 C 0.2416(3) 0.7574(4) 0.53850(14)
H1 H 0.2918 0.6483 0.5321
C3 C 0.1364(3) 0.7468(5) 0.57980(16)
H2 H 0.1164 0.6311 0.6011
C4 C 0.0613(3) 0.9085(6) 0.58919(16)
H3 H -0.0101 0.9009 0.6163
C5 C 0.0921(3) 1.0827(6) 0.55830(16)
H4 H 0.0421 1.1917 0.5652
C6 C 0.1975(3) 1.0926(5) 0.51734(15)
H5 H 0.2183 1.2091 0.4968
C7 C 0.3882(2) 0.9412(4) 0.46132(13)
H6 H 0.4014 1.0752 0.4475
C8 C 0.3599(3) 0.8187(3) 0.39308(13)
H7 H 0.3376 0.6896 0.4089
C9 C 0.2420(3) 0.8895(4) 0.34384(13)
C10 C 0.2245(3) 1.0827(5) 0.32419(15)
H8 H 0.2863 1.1742 0.3416
C11 C 0.1141(4) 1.1374(6) 0.27847(17)
H9 H 0.1037 1.2655 0.2648
C12 C 0.0207(4) 1.0051(8) 0.25336(19)
H10 H -0.0536 1.0435 0.2237
C13 C 0.0377(4) 0.8168(8) 0.2723(2)
H11 H -0.0252 0.7268 0.2551
C14 C 0.1482(3) 0.7574(6) 0.31695(18)
H12 H 0.1588 0.6281 0.3288
C15 C 0.5429(3) 0.9742(4) 0.33331(17)
H13 H 0.6364 0.9531 0.3367
H14 H 0.5240 1.0766 0.3651
H15 H 0.5114 1.0082 0.2848
C16 C 0.5161(2) 0.6214(4) 0.33549(12)
C17 C 0.6286(2) 0.6104(4) 0.28765(13)
H16 H 0.7120 0.6175 0.3176
H17 H 0.6235 0.7205 0.2557
C18 C 0.6260(2) 0.4257(4) 0.24248(12)
H18 H 0.6246 0.3153 0.2749
C19 C 0.7504(3) 0.4134(5) 0.20381(16)
H19 H 0.7508 0.2940 0.1781
H20 H 0.8267 0.4199 0.2384
H21 H 0.7519 0.5184 0.1706
C20 C 0.5002(2) 0.4209(4) 0.18978(14)
H22 H 0.4246 0.4370 0.2168
H23 H 0.5018 0.5293 0.1573
C21 C 0.4815(2) 0.2371(4) 0.14530(13)
H24 H 0.5362 0.2427 0.1058
H25 H 0.5099 0.1276 0.1751
C22 C 0.3392(2) 0.2104(4) 0.11579(14)
H26 H 0.2843 0.2188 0.1557
C23 C 0.3018(3) 0.0265(4) 0.07280(15)
C24 C 0.2646(4) -0.1361(5) 0.1207(2)
H27 H 0.1875 -0.1008 0.1432
H28 H 0.3362 -0.1609 0.1570
H29 H 0.2463 -0.2497 0.0922
C25 C 0.4050(4) -0.0385(6) 0.0257(2)
H30 H 0.3679 -0.1341 -0.0075
H31 H 0.4787 -0.0923 0.0551
H32 H 0.4340 0.0694 -0.0005
C26 C 0.1795(4) 0.2934(6) 0.0284(2)
C27 C 0.0636(3) 0.3570(7) 0.0658(3)
H33 H -0.0163 0.3098 0.0401
H34 H 0.0611 0.4949 0.0674
H35 H 0.0718 0.3071 0.1139
C28 C 0.1754(5) 0.3695(8) -0.0481(2)
H36 H 0.2540 0.3309 -0.0685
H37 H 0.1701 0.5072 -0.0475
H38 H 0.0996 0.3183 -0.0765
N1 N 0.4770(2) 0.7981(3) 0.35366(11)
O1 O 0.50702(18) 0.8695(3) 0.49830(10)
H39 H 0.5148 0.9100 0.5397
O2 O 0.46510(18) 0.4743(3) 0.35625(9)
O3 O 0.30085(19) 0.3583(3) 0.06600(11)
O4 O 0.1866(3) 0.0894(4) 0.02895(15)
loop_
_geom_bond_atom_site_label_1
_geom_bond_atom_site_label_2
_geom_bond_site_symmetry_1
_geom_bond_site_symmetry_2
C1 C2 1_555 1_555
C2 H1 1_555 1_555
C3 C2 1_555 1_555
H2 C3 1_555 1_555
C4 C3 1_555 1_555
H3 C4 1_555 1_555
C5 C4 1_555 1_555
H4 C5 1_555 1_555
C6 C1 1_555 1_555
H5 C6 1_555 1_555
C7 C1 1_555 1_555
H6 C7 1_555 1_555
C8 C7 1_555 1_555
H7 C8 1_555 1_555
C9 C8 1_555 1_555
C10 C9 1_555 1_555
H8 C10 1_555 1_555
C11 C10 1_555 1_555
H9 C11 1_555 1_555
C12 C11 1_555 1_555
H10 C12 1_555 1_555
C13 C12 1_555 1_555
H11 C13 1_555 1_555
C14 C9 1_555 1_555
H12 C14 1_555 1_555
C15 H13 1_555 1_555
H14 C15 1_555 1_555
H15 C15 1_555 1_555
C16 C17 1_555 1_555
C17 H16 1_555 1_555
H17 C17 1_555 1_555
C18 C17 1_555 1_555
H18 C18 1_555 1_555
C19 C18 1_555 1_555
H19 C19 1_555 1_555
H20 C19 1_555 1_555
H21 C19 1_555 1_555
C20 C18 1_555 1_555
H22 C20 1_555 1_555
H23 C20 1_555 1_555
C21 C20 1_555 1_555
H24 C21 1_555 1_555
H25 C21 1_555 1_555
C22 C21 1_555 1_555
H26 C22 1_555 1_555
C23 C22 1_555 1_555
C24 C23 1_555 1_555
H27 C24 1_555 1_555
H28 C24 1_555 1_555
H29 C24 1_555 1_555
C25 C23 1_555 1_555
H30 C25 1_555 1_555
H31 C25 1_555 1_555
H32 C25 1_555 1_555
C26 C27 1_555 1_555
C27 H33 1_555 1_555
H34 C27 1_555 1_555
H35 C27 1_555 1_555
C28 C26 1_555 1_555
H36 C28 1_555 1_555
H37 C28 1_555 1_555
H38 C28 1_555 1_555
N1 C8 1_555 1_555
O1 C7 1_555 1_555
H39 O1 1_555 1_555
O2 C16 1_555 1_555
O3 C22 1_555 1_555
O4 C23 1_555 1_555
C5 C6 1_555 1_555
C13 C14 1_555 1_555
C15 N1 1_555 1_555
C16 N1 1_555 1_555
C26 O3 1_555 1_555
C26 O4 1_555 1_555

#END
