
#######################################################################
#
#                 Cambridge Crystallographic Data Centre
#                                CCDC 
#
#######################################################################
#
# If this CIF has been generated from an entry in the Cambridge 
# Structural Database, then it will include bibliographic, chemical, 
# crystal, experimental, refinement or atomic coordinate data resulting 
# from the CCDC's data processing and validation procedures.
#
#######################################################################

data_USOLIZ01
_chemical_formula_moiety         'C13 H19 Br1 O3'
_chemical_name_systematic        
2-(2-bromoprop-2-en-1-yl)-7a-methoxy-4a-methylhexahydrocyclopenta[b]pyran-5(2H)-one
_symmetry_cell_setting           monoclinic
_symmetry_space_group_name_H-M   'P 21'
_symmetry_Int_Tables_number      4
_space_group_name_Hall           'P 2yb'
loop_
_symmetry_equiv_pos_site_id
_symmetry_equiv_pos_as_xyz
1 x,y,z
2 -x,1/2+y,-z
_cell_length_a                   8.9199(4)
_cell_length_b                   6.6803(3)
_cell_length_c                   11.3989(6)
_cell_angle_alpha                90
_cell_angle_beta                 97.6110(10)
_cell_angle_gamma                90
_cell_volume                     673.249
_exptl_crystal_colour            colorless
_exptl_crystal_description       block
_cell_formula_units_Z            2
loop_
_atom_site_label
_atom_site_type_symbol
_atom_site_fract_x
_atom_site_fract_y
_atom_site_fract_z
Br1 Br 0.13298(2) 0.48030(6) 0.05801(2)
O1 O 0.63291(17) 0.3700(2) 0.11024(13)
C1 C 0.1799(3) 0.8308(4) 0.1930(3)
H1 H 0.2106 0.9092 0.2615
H2 H 0.1334 0.8930 0.1225
O2 O 0.52440(15) 0.54738(19) 0.25497(12)
C2 C 0.2017(2) 0.6361(4) 0.1958(2)
C3 C 0.2729(2) 0.5156(4) 0.29903(18)
H3 H 0.1970 0.4199 0.3216
H4 H 0.3004 0.6068 0.3669
O3 O 0.8292(2) 0.4146(2) 0.51511(15)
C4 C 0.4132(2) 0.3993(3) 0.27696(19)
H5 H 0.3887 0.3129 0.2053
C5 C 0.4761(2) 0.2706(3) 0.38179(19)
H6 H 0.4005 0.1689 0.3973
H7 H 0.4988 0.3550 0.4533
C6 C 0.7333(2) 0.3168(3) 0.31345(19)
C7 C 0.6202(2) 0.1678(3) 0.35441(18)
H8 H 0.5937 0.0663 0.2918
H9 H 0.6682 0.0976 0.4262
C8 C 0.8008(2) 0.4581(3) 0.41158(18)
C9 C 0.8673(2) 0.2044(3) 0.2712(2)
H10 H 0.8299 0.1174 0.2044
H11 H 0.9180 0.1231 0.3362
H12 H 0.9391 0.3014 0.2460
C10 C 0.7689(2) 0.6454(3) 0.2271(2)
H13 H 0.7150 0.7691 0.1983
H14 H 0.8525 0.6209 0.1797
C11 C 0.66050(19) 0.4663(3) 0.22030(16)
C12 C 0.5731(2) 0.4969(4) 0.01372(18)
H15 H 0.5557 0.4179 -0.0592
H16 H 0.6455 0.6042 0.0043
H17 H 0.4773 0.5554 0.0302
C13 C 0.8285(3) 0.6609(3) 0.3594(2)
H18 H 0.9378 0.6930 0.3709
H19 H 0.7739 0.7666 0.3974
loop_
_geom_bond_atom_site_label_1
_geom_bond_atom_site_label_2
_geom_bond_site_symmetry_1
_geom_bond_site_symmetry_2
Br1 C2 1_555 1_555
O1 C11 1_555 1_555
C1 H1 1_555 1_555
H2 C1 1_555 1_555
O2 C4 1_555 1_555
C2 C1 1_555 1_555
C3 C2 1_555 1_555
H3 C3 1_555 1_555
H4 C3 1_555 1_555
O3 C8 1_555 1_555
C4 C3 1_555 1_555
H5 C4 1_555 1_555
C5 C4 1_555 1_555
H6 C5 1_555 1_555
H7 C5 1_555 1_555
C6 C7 1_555 1_555
C7 C5 1_555 1_555
H8 C7 1_555 1_555
H9 C7 1_555 1_555
C8 C6 1_555 1_555
C9 C6 1_555 1_555
H10 C9 1_555 1_555
H11 C9 1_555 1_555
H12 C9 1_555 1_555
C10 H13 1_555 1_555
H14 C10 1_555 1_555
C11 O2 1_555 1_555
C12 O1 1_555 1_555
H15 C12 1_555 1_555
H16 C12 1_555 1_555
H17 C12 1_555 1_555
C13 C8 1_555 1_555
H18 C13 1_555 1_555
H19 C13 1_555 1_555
C6 C11 1_555 1_555
C10 C11 1_555 1_555
C10 C13 1_555 1_555

#END
