
#######################################################################
#
#                 Cambridge Crystallographic Data Centre
#                                CCDC 
#
#######################################################################
#
# If this CIF has been generated from an entry in the Cambridge 
# Structural Database, then it will include bibliographic, chemical, 
# crystal, experimental, refinement or atomic coordinate data resulting 
# from the CCDC's data processing and validation procedures.
#
#######################################################################

data_USOPOI
_chemical_formula_moiety         'C44 H32 Cl4 N4 O4,2(C1 H1 Cl3)'
_chemical_name_systematic        
'1,4,19,28-Tetrachloro-43,43,44,44-tetramethoxy-6,17,30,41-tetraazadodecacyclo[26.14.1.1^4,19^.0^2,27^.0^3,20^.0^5,18^.0^7,16^.0^9,14^.0^21,26^.0^29,42^.0^31,40^.0^33,38^]tetratetraconta-5(18),6,8,10,12,14,16,21,23,25,29(42),30,32,34,36,38,40-heptadecaene chloroform solvate'
_symmetry_cell_setting           triclinic
_symmetry_space_group_name_H-M   'P -1'
_symmetry_Int_Tables_number      2
_space_group_name_Hall           '-P 1'
loop_
_symmetry_equiv_pos_site_id
_symmetry_equiv_pos_as_xyz
1 x,y,z
2 -x,-y,-z
_cell_length_a                   12.0776(5)
_cell_length_b                   14.6795(7)
_cell_length_c                   15.1588(7)
_cell_angle_alpha                71.2790(10)
_cell_angle_beta                 78.3720(10)
_cell_angle_gamma                67.2760(10)
_cell_volume                     2338.51
_exptl_crystal_colour            yellow
_exptl_crystal_description       cubic
_cell_formula_units_Z            2
loop_
_atom_site_label
_atom_site_type_symbol
_atom_site_fract_x
_atom_site_fract_y
_atom_site_fract_z
C1 C 0.3845(6) 0.6745(6) 0.1341(5)
H1 H 0.3554 0.6719 0.0830
C2 C 0.4438(5) 0.7425(5) 0.1225(4)
H2 H 0.4524 0.7868 0.0639
C3 C 0.4908(4) 0.7444(4) 0.1996(3)
C4 C 0.5335(4) 0.8323(3) 0.1872(3)
H3 H 0.5879 0.8384 0.1299
C5 C 0.4244(3) 0.9367(3) 0.1800(2)
C6 C 0.4779(3) 1.0016(3) 0.2114(3)
C7 C 0.5110(3) 0.9184(3) 0.3066(3)
C8 C 0.5979(3) 0.8248(3) 0.2711(3)
H4 H 0.6728 0.8383 0.2446
C9 C 0.3344(3) 0.9191(3) 0.2619(3)
C10 C 0.1718(3) 0.8966(3) 0.3544(3)
C11 C 0.0548(4) 0.8964(4) 0.3649(3)
H5 H 0.0183 0.9061 0.3125
C12 C -0.0082(4) 0.8817(3) 0.4532(4)
C13 C -0.1306(4) 0.8844(4) 0.4661(4)
H6 H -0.1693 0.8953 0.4145
C14 C -0.1898(4) 0.8716(4) 0.5516(5)
H7 H -0.2690 0.8738 0.5585
C15 C -0.1332(5) 0.8546(4) 0.6311(4)
H8 H -0.1755 0.8454 0.6899
C16 C -0.0180(5) 0.8516(4) 0.6228(4)
H9 H 0.0175 0.8407 0.6761
C17 C 0.0493(4) 0.8649(3) 0.5340(3)
C18 C 0.1667(4) 0.8635(3) 0.5227(3)
H10 H 0.2043 0.8521 0.5750
C19 C 0.2295(3) 0.8787(3) 0.4351(3)
C20 C 0.3911(3) 0.9041(3) 0.3429(3)
C21 C 0.5609(3) 0.6499(3) 0.3618(3)
H11 H 0.5116 0.6458 0.4219
C22 C 0.6683(4) 0.5433(3) 0.3654(3)
C23 C 0.7251(3) 0.5507(3) 0.2666(2)
C24 C 0.7836(3) 0.6244(3) 0.2470(3)
C25 C 0.7644(3) 0.6565(3) 0.3360(2)
C26 C 0.7650(4) 0.5545(3) 0.4121(3)
C27 C 0.6303(3) 0.7252(3) 0.3483(2)
H12 H 0.6181 0.7430 0.4075
C28 C 0.7722(3) 0.5419(3) 0.1179(3)
C29 C 0.7696(4) 0.5013(4) 0.0475(3)
H13 H 0.7308 0.4541 0.0600
C30 C 0.8250(4) 0.5310(3) -0.0424(3)
C31 C 0.8272(5) 0.4880(5) -0.1152(3)
H14 H 0.7882 0.4412 -0.1042
C32 C 0.8856(5) 0.5149(5) -0.2001(3)
H15 H 0.8881 0.4850 -0.2464
C33 C 0.9418(5) 0.5863(5) -0.2192(3)
H16 H 0.9795 0.6050 -0.2785
C34 C 0.9426(4) 0.6295(4) -0.1521(3)
H17 H 0.9816 0.6767 -0.1658
C35 C 0.8839(3) 0.6026(3) -0.0612(3)
C36 C 0.8837(4) 0.6450(3) 0.0093(3)
H18 H 0.9204 0.6936 -0.0036
C37 C 0.8295(3) 0.6155(3) 0.0984(2)
C38 C 0.9010(5) 0.3822(4) 0.4702(4)
H19 H 0.8807 0.3422 0.4409
H20 H 0.8517 0.3859 0.5280
H21 H 0.9844 0.3504 0.4824
C39 C 0.7851(6) 0.5843(5) 0.5538(3)
H22 H 0.7797 0.6547 0.5295
H23 H 0.8678 0.5406 0.5484
H24 H 0.7543 0.5719 0.6184
C40 C 0.6396(5) 1.0683(5) 0.1664(5)
H25 H 0.6949 1.0221 0.2121
H26 H 0.5847 1.1247 0.1899
H27 H 0.6837 1.0938 0.1098
C41 C 0.3487(5) 1.1770(4) 0.1553(4)
H28 H 0.2829 1.1692 0.1355
H29 H 0.4102 1.1800 0.1044
H30 H 0.3203 1.2391 0.1744
C44 C 0.4840(4) 0.6732(3) 0.2847(3)
C45 C 0.4163(5) 0.6099(4) 0.2956(4)
H33 H 0.4040 0.5670 0.3541
C46 C 0.3689(6) 0.6113(6) 0.2207(5)
H34 H 0.3252 0.5687 0.2285
Cl1 Cl 0.86935(9) 0.71032(8) 0.34157(8)
Cl2 Cl 0.57066(9) 0.94813(8) 0.38634(8)
Cl3 Cl 0.62809(11) 0.43340(8) 0.41893(8)
Cl4 Cl 0.36456(11) 0.99144(11) 0.07081(8)
N1 N 0.2283(3) 0.9164(3) 0.2646(2)
N2 N 0.3446(3) 0.8827(2) 0.4277(2)
N3 N 0.7174(3) 0.5085(3) 0.2063(2)
N4 N 0.8341(3) 0.6584(2) 0.1669(2)
O1 O 0.3974(3) 1.0915(2) 0.2321(2)
O2 O 0.5736(3) 1.0154(2) 0.1474(2)
O3 O 0.8806(3) 0.4839(2) 0.4091(2)
O4 O 0.7155(3) 0.5628(2) 0.50166(18)
C42 C 0.5893(7) 0.3358(6) 0.2323(6)
H31 H 0.5942 0.3966 0.2426
Cl5 Cl 0.73528(19) 0.25078(17) 0.21721(16)
Cl6 Cl 0.5179(3) 0.37314(19) 0.1319(2)
Cl7 Cl 0.5173(3) 0.2757(3) 0.3320(2)
C43 C 0.9935(8) 0.1869(7) 0.9157(7)
H32 H 1.0067 0.2509 0.8790
Cl8 Cl 0.8980(3) 0.2100(3) 1.0172(2)
Cl9 Cl 0.9164(3) 0.1576(5) 0.8519(3)
Cl10 Cl 1.1271(3) 0.0970(3) 0.9404(4)
loop_
_geom_bond_atom_site_label_1
_geom_bond_atom_site_label_2
_geom_bond_site_symmetry_1
_geom_bond_site_symmetry_2
C1 H1 1_555 1_555
C2 C1 1_555 1_555
H2 C2 1_555 1_555
C3 C2 1_555 1_555
C4 C3 1_555 1_555
H3 C4 1_555 1_555
C5 C4 1_555 1_555
C6 C5 1_555 1_555
C7 C6 1_555 1_555
C8 C4 1_555 1_555
H4 C8 1_555 1_555
C9 C5 1_555 1_555
C10 C11 1_555 1_555
C11 H5 1_555 1_555
C12 C11 1_555 1_555
C13 C12 1_555 1_555
H6 C13 1_555 1_555
C14 C13 1_555 1_555
H7 C14 1_555 1_555
C15 C14 1_555 1_555
H8 C15 1_555 1_555
C16 C15 1_555 1_555
H9 C16 1_555 1_555
C17 C12 1_555 1_555
C18 C17 1_555 1_555
H10 C18 1_555 1_555
C19 C10 1_555 1_555
C20 C7 1_555 1_555
C21 H11 1_555 1_555
C22 C21 1_555 1_555
C23 C22 1_555 1_555
C24 C23 1_555 1_555
C25 C24 1_555 1_555
C26 C22 1_555 1_555
C27 C8 1_555 1_555
H12 C27 1_555 1_555
C28 C29 1_555 1_555
C29 H13 1_555 1_555
C30 C29 1_555 1_555
C31 C30 1_555 1_555
H14 C31 1_555 1_555
C32 C31 1_555 1_555
H15 C32 1_555 1_555
C33 C32 1_555 1_555
H16 C33 1_555 1_555
C34 C33 1_555 1_555
H17 C34 1_555 1_555
C35 C30 1_555 1_555
C36 C35 1_555 1_555
H18 C36 1_555 1_555
C37 C28 1_555 1_555
C38 H19 1_555 1_555
H20 C38 1_555 1_555
H21 C38 1_555 1_555
C39 H22 1_555 1_555
H23 C39 1_555 1_555
H24 C39 1_555 1_555
C40 H25 1_555 1_555
H26 C40 1_555 1_555
H27 C40 1_555 1_555
C41 H28 1_555 1_555
H29 C41 1_555 1_555
H30 C41 1_555 1_555
C42 H31 1_555 1_555
C43 H32 1_555 1_555
C44 C3 1_555 1_555
C45 C44 1_555 1_555
H33 C45 1_555 1_555
C46 C1 1_555 1_555
H34 C46 1_555 1_555
Cl1 C25 1_555 1_555
Cl2 C7 1_555 1_555
Cl3 C22 1_555 1_555
Cl4 C5 1_555 1_555
Cl5 C42 1_555 1_555
Cl6 C42 1_555 1_555
Cl7 C42 1_555 1_555
Cl8 C43 1_555 1_555
Cl9 C43 1_555 1_555
Cl10 C43 1_555 1_555
N1 C9 1_555 1_555
N2 C19 1_555 1_555
N3 C23 1_555 1_555
N4 C24 1_555 1_555
O1 C6 1_555 1_555
O2 C6 1_555 1_555
O3 C26 1_555 1_555
O4 C26 1_555 1_555
C7 C8 1_555 1_555
C9 C20 1_555 1_555
C10 N1 1_555 1_555
C16 C17 1_555 1_555
C18 C19 1_555 1_555
C20 N2 1_555 1_555
C21 C27 1_555 1_555
C21 C44 1_555 1_555
C25 C26 1_555 1_555
C25 C27 1_555 1_555
C28 N3 1_555 1_555
C34 C35 1_555 1_555
C36 C37 1_555 1_555
C37 N4 1_555 1_555
C38 O3 1_555 1_555
C39 O4 1_555 1_555
C40 O2 1_555 1_555
C41 O1 1_555 1_555
C45 C46 1_555 1_555

#END
