
#######################################################################
#
#                 Cambridge Crystallographic Data Centre
#                                CCDC 
#
#######################################################################
#
# If this CIF has been generated from an entry in the Cambridge 
# Structural Database, then it will include bibliographic, chemical, 
# crystal, experimental, refinement or atomic coordinate data resulting 
# from the CCDC's data processing and validation procedures.
#
#######################################################################

data_USOQEZ
_chemical_formula_moiety         'C32 H26 Cl4 N4 O4'
_chemical_name_systematic        
1,4,15,20-Tetrachloro-31,31,32,32-tetramethoxy-6,13,22,29-tetraazanonacyclo[18.10.1.1^4,15^.0^2,19^.0^3,16^.0^5,14^.0^7,12^.0^21,30^.0^23,28^]dotriaconta-5,7(12),8,10,13,17,21,23(28),24,26,29-undecaene
_symmetry_cell_setting           orthorhombic
_symmetry_space_group_name_H-M   'P c a 21'
_symmetry_Int_Tables_number      29
_space_group_name_Hall           'P 2c -2ac'
loop_
_symmetry_equiv_pos_site_id
_symmetry_equiv_pos_as_xyz
1 x,y,z
2 -x,-y,1/2+z
3 1/2+x,-y,z
4 1/2-x,y,1/2+z
_cell_length_a                   19.142(8)
_cell_length_b                   8.024(3)
_cell_length_c                   19.142(8)
_cell_angle_alpha                90
_cell_angle_beta                 90
_cell_angle_gamma                90
_cell_volume                     2940.12
_exptl_crystal_colour            yellow
_cell_formula_units_Z            4
loop_
_atom_site_label
_atom_site_type_symbol
_atom_site_fract_x
_atom_site_fract_y
_atom_site_fract_z
Cl1 Cl 0.20069(3) 0.27605(6) 0.39867(3)
Cl2 Cl 0.06277(3) 0.25187(6) 0.23514(3)
Cl3 Cl 0.17072(3) 0.80992(7) 0.09927(3)
Cl4 Cl 0.08398(3) 0.85921(8) 0.50555(3)
O1 O 0.17692(8) 0.5000(2) 0.53027(8)
N1 N -0.03015(8) 0.5760(2) 0.24606(9)
N2 N 0.23839(8) 0.8907(2) 0.44881(9)
C1 C 0.17283(9) 0.4837(2) 0.40424(10)
O2 O 0.06727(7) 0.4709(2) 0.48168(8)
O3 O 0.07906(8) 0.4461(2) 0.09428(8)
N3 N 0.29246(8) 0.5990(2) 0.37919(9)
O4 O 0.19064(7) 0.4302(2) 0.13878(9)
N4 N 0.02090(9) 0.8565(2) 0.16623(9)
C2 C 0.20341(9) 0.7565(2) 0.43783(10)
C3 C 0.03072(9) 0.5827(2) 0.21731(9)
C4 C 0.08898(9) 0.4581(2) 0.21996(10)
C5 C 0.11848(9) 0.5342(2) 0.34789(9)
C6 C 0.09417(9) 0.7071(2) 0.37566(9)
C7 C 0.13047(10) 0.6828(2) 0.16249(10)
C8 C -0.06906(10) 0.7169(3) 0.23542(11)
C9 C 0.14459(9) 0.5229(2) 0.27193(9)
C10 C 0.23040(9) 0.6098(2) 0.40492(9)
C11 C -0.04454(10) 0.8539(3) 0.19531(10)
C12 C 0.33193(10) 0.7411(3) 0.38863(11)
C13 C 0.16889(9) 0.6866(2) 0.23531(10)
C14 C 0.12814(9) 0.7195(2) 0.45043(10)
C15 C 0.30560(10) 0.8826(3) 0.42451(10)
C16 C -0.13596(12) 0.7244(4) 0.26574(13)
C17 C 0.15142(11) 0.8448(2) 0.27330(11)
C18 C 0.05627(10) 0.7224(2) 0.17863(10)
C19 C 0.12480(10) 0.4921(3) 0.14709(10)
C20 C 0.34910(13) 1.0204(3) 0.43554(13)
C21 C 0.11570(11) 0.8536(2) 0.33240(11)
C22 C 0.13347(9) 0.5342(2) 0.47366(10)
C23 C -0.08743(14) 0.9939(3) 0.18547(13)
C24 C 0.44056(13) 0.8805(4) 0.37419(16)
C25 C 0.40023(12) 0.7426(4) 0.36272(14)
C26 C -0.15175(15) 0.9961(4) 0.21507(15)
C27 C 0.06175(16) 0.3013(4) 0.5034(2)
C28 C 0.41541(14) 1.0179(4) 0.41152(17)
C29 C 0.0989(2) 0.4771(5) 0.02317(14)
C30 C 0.15452(14) 0.5593(5) 0.59782(15)
C31 C -0.17601(13) 0.8624(4) 0.25537(16)
C32 C 0.19657(16) 0.2549(3) 0.12283(18)
H1 H 0.0431(14) 0.706(3) 0.3820(13)
H2 H 0.1603(15) 0.945(4) 0.2540(15)
H3 H 0.4196(14) 0.652(4) 0.3370(16)
H4 H 0.3350(14) 1.108(4) 0.4574(15)
H5 H 0.212(2) 0.668(4) 0.2251(18)
H6 H 0.444(2) 1.105(6) 0.431(2)
H7 H 0.251(3) 0.240(5) 0.095(3)
H8 H 0.183(4) 0.198(10) 0.163(4)
H9 H 0.016(2) 0.280(6) 0.526(3)
H10 H -0.1509(15) 0.632(4) 0.2973(16)
H11 H 0.133(2) 0.456(6) 0.020(2)
H12 H 0.093(2) 0.584(6) 0.606(2)
H13 H 0.4769(18) 0.878(4) 0.3532(19)
H14 H 0.152(3) 0.213(7) 0.098(3)
H15 H 0.146(4) 0.520(12) 0.627(5)
H16 H 0.032(4) 0.204(12) 0.464(5)
H17 H 0.0806(12) 0.456(3) 0.3518(13)
H18 H 0.1824(13) 0.442(3) 0.2714(13)
H19 H 0.0990(14) 0.961(4) 0.3537(15)
H20 H -0.0639(19) 1.083(6) 0.157(2)
H21 H -0.216(3) 0.862(6) 0.276(2)
H22 H -0.174(2) 1.098(7) 0.204(3)
H23 H 0.163(2) 0.700(6) 0.593(2)
H24 H 0.063(2) 0.452(5) -0.010(2)
H25 H 0.087(2) 0.616(7) 0.015(3)
H26 H 0.087(2) 0.304(6) 0.531(3)
loop_
_geom_bond_atom_site_label_1
_geom_bond_atom_site_label_2
_geom_bond_site_symmetry_1
_geom_bond_site_symmetry_2
Cl1 C1 1_555 1_555
Cl2 C4 1_555 1_555
Cl3 C7 1_555 1_555
Cl4 C14 1_555 1_555
O1 C22 1_555 1_555
N1 C3 1_555 1_555
N2 C2 1_555 1_555
C1 C5 1_555 1_555
O2 C22 1_555 1_555
O3 C19 1_555 1_555
N3 C10 1_555 1_555
O4 C19 1_555 1_555
N4 C11 1_555 1_555
C2 C10 1_555 1_555
C3 C4 1_555 1_555
C4 C9 1_555 1_555
C5 C6 1_555 1_555
C6 C14 1_555 1_555
C7 C13 1_555 1_555
C8 N1 1_555 1_555
C9 C5 1_555 1_555
C10 C1 1_555 1_555
C11 C8 1_555 1_555
C12 N3 1_555 1_555
C13 C9 1_555 1_555
C14 C2 1_555 1_555
C15 N2 1_555 1_555
C16 C8 1_555 1_555
C17 C13 1_555 1_555
C18 N4 1_555 1_555
C19 C4 1_555 1_555
C20 C15 1_555 1_555
C21 C6 1_555 1_555
C22 C1 1_555 1_555
C23 C11 1_555 1_555
C24 C25 1_555 1_555
C25 C12 1_555 1_555
C26 C23 1_555 1_555
C27 O2 1_555 1_555
C28 C20 1_555 1_555
C29 O3 1_555 1_555
C30 O1 1_555 1_555
C31 C16 1_555 1_555
C32 O4 1_555 1_555
H1 C6 1_555 1_555
H2 C17 1_555 1_555
H3 C25 1_555 1_555
H4 C20 1_555 1_555
H5 C13 1_555 1_555
H6 C28 1_555 1_555
H7 C32 1_555 1_555
H8 C32 1_555 1_555
H9 C27 1_555 1_555
H10 C16 1_555 1_555
H11 C29 1_555 1_555
H12 C30 1_555 1_555
H13 C24 1_555 1_555
H14 C32 1_555 1_555
H15 C30 1_555 1_555
H16 C27 1_555 1_555
H17 C5 1_555 1_555
H18 C9 1_555 1_555
H19 C21 1_555 1_555
H20 C23 1_555 1_555
H21 C31 1_555 1_555
H22 C26 1_555 1_555
H23 C30 1_555 1_555
H24 C29 1_555 1_555
H25 C29 1_555 1_555
H26 C27 1_555 1_555
C3 C18 1_555 1_555
C7 C18 1_555 1_555
C7 C19 1_555 1_555
C12 C15 1_555 1_555
C14 C22 1_555 1_555
C17 C21 1_555 1_555
C24 C28 1_555 1_555
C26 C31 1_555 1_555

#END
