
#######################################################################
#
#                 Cambridge Crystallographic Data Centre
#                                CCDC 
#
#######################################################################
#
# If this CIF has been generated from an entry in the Cambridge 
# Structural Database, then it will include bibliographic, chemical, 
# crystal, experimental, refinement or atomic coordinate data resulting 
# from the CCDC's data processing and validation procedures.
#
#######################################################################

data_USOSUR
_chemical_formula_moiety         'C14 H26 N2 O3'
_chemical_name_systematic        
1-((((2,2-Dimethylpropanoyl)amino)oxy)methyl)-N-isobutylcyclopropanecarboxamide
_symmetry_cell_setting           triclinic
_symmetry_space_group_name_H-M   'P -1'
_symmetry_Int_Tables_number      2
_space_group_name_Hall           '-P 1'
loop_
_symmetry_equiv_pos_site_id
_symmetry_equiv_pos_as_xyz
1 x,y,z
2 -x,-y,-z
_cell_length_a                   10.25(3)
_cell_length_b                   10.88(3)
_cell_length_c                   16.30(4)
_cell_angle_alpha                90.00(4)
_cell_angle_beta                 90.00(5)
_cell_angle_gamma                114.59(4)
_cell_volume                     1652.92
_cell_formula_units_Z            4
loop_
_atom_site_label
_atom_site_type_symbol
_atom_site_fract_x
_atom_site_fract_y
_atom_site_fract_z
N1 N -0.1497(5) 0.1651(5) 0.2216(2)
N2 N 0.0909(4) 0.2608(4) 0.4146(3)
O1 O 0.0891(3) 0.2571(3) 0.23473(18)
O2 O -0.1614(3) 0.1798(3) 0.30628(16)
O3 O 0.0151(4) 0.2063(4) 0.5429(2)
C1 C -0.1484(5) 0.0888(4) 0.4363(3)
C2 C -0.2805(5) 0.0756(6) 0.4850(3)
H1 H -0.2663 0.1353 0.5315
H2 H -0.3688 0.0544 0.4549
C3 C -0.2280(6) -0.0306(6) 0.4921(3)
H3 H -0.2843 -0.1170 0.4664
H4 H -0.1818 -0.0360 0.5431
C4 C -0.1672(5) 0.0606(5) 0.3471(3)
H5 H -0.0917 0.0370 0.3266
H6 H -0.2588 -0.0146 0.3367
C5 C -0.0166(5) 0.2163(5) 0.1900(3)
C6 C -0.0104(5) 0.2153(5) 0.0967(3)
C7 C -0.1176(7) 0.0813(6) 0.0606(4)
H7 H -0.2135 0.0732 0.0693
H8 H -0.1061 0.0077 0.0872
H9 H -0.1004 0.0791 0.0029
C8 C 0.1401(6) 0.2373(7) 0.0714(3)
H10 H 0.1478 0.2423 0.0127
H11 H 0.1597 0.1633 0.0907
H12 H 0.2081 0.3201 0.0948
C9 C -0.0446(8) 0.3297(7) 0.0641(4)
H13 H 0.0223 0.4141 0.0864
H14 H -0.1402 0.3148 0.0801
H15 H -0.0376 0.3325 0.0054
C10 C -0.0086(5) 0.1898(5) 0.4691(3)
C11 C 0.2306(5) 0.3642(5) 0.4372(3)
H16 H 0.2470 0.3533 0.4948
H17 H 0.3033 0.3492 0.4061
C12 C 0.2489(9) 0.4975(8) 0.4245(8)
H18 H 0.2091 0.4993 0.4789
C13 C 0.3983(9) 0.6037(9) 0.4525(10)
H19 H 0.4118 0.6915 0.4333
H20 H 0.4719 0.5806 0.4303
H21 H 0.4034 0.6044 0.5114
C14 C 0.1677(15) 0.5605(11) 0.3906(13)
H22 H 0.0928 0.4971 0.3572
H23 H 0.2282 0.6356 0.3576
H24 H 0.1259 0.5923 0.4339
H25 H 0.073(4) 0.255(4) 0.364(3)
H26 H -0.236(5) 0.139(4) 0.193(3)
N3 N 0.0572(4) 0.8095(4) 0.2931(2)
H27 H 0.0073 0.8071 0.3359
N4 N 0.3695(4) 0.9251(4) 0.1385(2)
H28 H 0.2804 0.8862 0.1519
O4 O 0.0625(3) 0.7466(3) 0.16322(19)
O5 O 0.2033(3) 0.8943(3) 0.28961(17)
O6 O 0.5792(3) 1.1063(4) 0.1571(2)
C15 C 0.3800(4) 1.0965(4) 0.2363(3)
C16 C 0.4761(5) 1.1784(5) 0.3050(3)
H29 H 0.4329 1.1743 0.3584
H30 H 0.5738 1.1862 0.3063
C17 C 0.4374(5) 1.2487(5) 0.2391(4)
H31 H 0.5114 1.2999 0.2000
H32 H 0.3705 1.2879 0.2521
C18 C 0.2246(4) 1.0207(4) 0.2535(3)
H33 H 0.1923 1.0718 0.2908
H34 H 0.1700 1.0059 0.2031
C19 C -0.0029(5) 0.7320(4) 0.2279(3)
C20 C -0.1579(5) 0.6279(5) 0.2377(3)
C21 C -0.2461(7) 0.6774(9) 0.2903(5)
H35 H -0.2073 0.6944 0.3448
H36 H -0.3432 0.6102 0.2921
H37 H -0.2444 0.7595 0.2675
C22 C -0.1512(8) 0.5049(7) 0.2789(6)
H38 H -0.1069 0.4644 0.2424
H39 H -0.2465 0.4405 0.2919
H40 H -0.0958 0.5324 0.3285
C23 C -0.2278(6) 0.5889(7) 0.1541(3)
H41 H -0.2234 0.6683 0.1262
H42 H -0.3263 0.5264 0.1606
H43 H -0.1781 0.5474 0.1224
C24 C 0.4511(5) 1.0425(5) 0.1747(3)
C25 C 0.4220(6) 0.8603(6) 0.0784(3)
H44 H 0.3804 0.8651 0.0257
H45 H 0.5250 0.9112 0.0738
C26 C 0.3935(11) 0.7230(9) 0.0941(4)
H46 H 0.2909 0.6795 0.0812
C27 C 0.3934(15) 0.6653(12) 0.1759(5)
H47 H 0.4880 0.7069 0.1991
H48 H 0.3652 0.5697 0.1711
H49 H 0.3271 0.6817 0.2110
C28 C 0.4523(10) 0.6611(9) 0.0288(5)
H50 H 0.5537 0.7137 0.0233
H51 H 0.4060 0.6601 -0.0226
H52 H 0.4343 0.5704 0.0441
loop_
_geom_bond_atom_site_label_1
_geom_bond_atom_site_label_2
_geom_bond_site_symmetry_1
_geom_bond_site_symmetry_2
N1 O2 1_555 1_555
N2 C10 1_555 1_555
O1 C5 1_555 1_555
O2 C4 1_555 1_555
O3 C10 1_555 1_555
C1 C2 1_555 1_555
C2 H1 1_555 1_555
H2 C2 1_555 1_555
C3 C1 1_555 1_555
H3 C3 1_555 1_555
H4 C3 1_555 1_555
C4 C1 1_555 1_555
H5 C4 1_555 1_555
H6 C4 1_555 1_555
C5 N1 1_555 1_555
C6 C5 1_555 1_555
C7 C6 1_555 1_555
H7 C7 1_555 1_555
H8 C7 1_555 1_555
H9 C7 1_555 1_555
C8 C6 1_555 1_555
H10 C8 1_555 1_555
H11 C8 1_555 1_555
H12 C8 1_555 1_555
C9 C6 1_555 1_555
H13 C9 1_555 1_555
H14 C9 1_555 1_555
H15 C9 1_555 1_555
C10 C1 1_555 1_555
C11 N2 1_555 1_555
H16 C11 1_555 1_555
H17 C11 1_555 1_555
C12 C11 1_555 1_555
H18 C12 1_555 1_555
C13 C12 1_555 1_555
H19 C13 1_555 1_555
H20 C13 1_555 1_555
H21 C13 1_555 1_555
C14 C12 1_555 1_555
H22 C14 1_555 1_555
H23 C14 1_555 1_555
H24 C14 1_555 1_555
H25 N2 1_555 1_555
H26 N1 1_555 1_555
N3 H27 1_555 1_555
N4 H28 1_555 1_555
O4 C19 1_555 1_555
O5 N3 1_555 1_555
O6 C24 1_555 1_555
C15 C16 1_555 1_555
C16 H29 1_555 1_555
H30 C16 1_555 1_555
C17 C15 1_555 1_555
H31 C17 1_555 1_555
H32 C17 1_555 1_555
C18 O5 1_555 1_555
H33 C18 1_555 1_555
H34 C18 1_555 1_555
C19 N3 1_555 1_555
C20 C19 1_555 1_555
C21 C20 1_555 1_555
H35 C21 1_555 1_555
H36 C21 1_555 1_555
H37 C21 1_555 1_555
C22 C20 1_555 1_555
H38 C22 1_555 1_555
H39 C22 1_555 1_555
H40 C22 1_555 1_555
C23 C20 1_555 1_555
H41 C23 1_555 1_555
H42 C23 1_555 1_555
H43 C23 1_555 1_555
C24 N4 1_555 1_555
C25 N4 1_555 1_555
H44 C25 1_555 1_555
H45 C25 1_555 1_555
C26 C25 1_555 1_555
H46 C26 1_555 1_555
C27 C26 1_555 1_555
H47 C27 1_555 1_555
H48 C27 1_555 1_555
H49 C27 1_555 1_555
C28 C26 1_555 1_555
H50 C28 1_555 1_555
H51 C28 1_555 1_555
H52 C28 1_555 1_555
C2 C3 1_555 1_555
C15 C18 1_555 1_555
C15 C24 1_555 1_555
C16 C17 1_555 1_555

#END
