
#######################################################################
#
#                 Cambridge Crystallographic Data Centre
#                                CCDC 
#
#######################################################################
#
# If this CIF has been generated from an entry in the Cambridge 
# Structural Database, then it will include bibliographic, chemical, 
# crystal, experimental, refinement or atomic coordinate data resulting 
# from the CCDC's data processing and validation procedures.
#
#######################################################################

data_USOXUW
_chemical_formula_moiety         'C23 H27 N1 O3 S1'
_chemical_name_systematic        
(2-((4-Methylphenyl)sulfonyl)-2-azaspiro[4.5]dec-4-yl)(phenyl)methanone
_symmetry_cell_setting           triclinic
_symmetry_space_group_name_H-M   'P -1'
_symmetry_Int_Tables_number      2
_space_group_name_Hall           '-P 1'
loop_
_symmetry_equiv_pos_site_id
_symmetry_equiv_pos_as_xyz
1 x,y,z
2 -x,-y,-z
_cell_length_a                   9.1346(3)
_cell_length_b                   9.4360(3)
_cell_length_c                   13.0100(4)
_cell_angle_alpha                100.760(2)
_cell_angle_beta                 103.332(2)
_cell_angle_gamma                98.5020(10)
_cell_volume                     1050.39
_exptl_crystal_colour            colorless
_exptl_crystal_description       prism
_cell_formula_units_Z            2
loop_
_atom_site_label
_atom_site_type_symbol
_atom_site_fract_x
_atom_site_fract_y
_atom_site_fract_z
S1 S 0.26867(7) -0.13369(7) 0.06598(5)
O1 O 0.3380(2) -0.1418(2) -0.02214(14)
O2 O 0.1403(2) -0.2447(2) 0.06018(14)
O3 O 0.0383(3) 0.2035(2) 0.33020(16)
N1 N 0.2108(2) 0.0213(2) 0.08146(16)
C1 C 0.4120(3) -0.1253(3) 0.18498(19)
C2 C 0.5636(3) -0.0662(3) 0.1935(2)
H1 H 0.5914 -0.0374 0.1350
C3 C 0.6729(3) -0.0507(3) 0.2899(2)
H2 H 0.7746 -0.0105 0.2960
C4 C 0.6341(3) -0.0939(3) 0.3781(2)
C5 C 0.7540(4) -0.0801(4) 0.4827(2)
H3 H 0.8525 -0.0360 0.4767
H4 H 0.7577 -0.1761 0.4967
H5 H 0.7283 -0.0197 0.5413
C6 C 0.4820(3) -0.1535(3) 0.3673(2)
H6 H 0.4543 -0.1832 0.4256
C7 C 0.3705(3) -0.1697(3) 0.27148(19)
H7 H 0.2687 -0.2100 0.2653
C8 C 0.1052(3) 0.0484(3) 0.1501(2)
H8 H 0.1368 0.0174 0.2175
H9 H 0.0008 -0.0022 0.1125
C9 C 0.1198(3) 0.2152(3) 0.17060(19)
H10 H 0.0586 0.2382 0.1057
C10 C 0.2939(3) 0.2735(3) 0.1807(2)
C11 C 0.3164(3) 0.1591(3) 0.0874(2)
H11 H 0.2914 0.1903 0.0196
H12 H 0.4219 0.1456 0.1025
C12 C 0.3947(3) 0.2670(3) 0.2908(2)
H13 H 0.3605 0.3237 0.3477
H14 H 0.3800 0.1656 0.2978
C13 C 0.5661(4) 0.3249(4) 0.3086(4)
H15 H 0.6211 0.3237 0.3817
H16 H 0.6048 0.2612 0.2581
C14 C 0.5939(5) 0.4773(5) 0.2925(5)
H17 H 0.7026 0.5105 0.3009
H18 H 0.5636 0.5427 0.3472
C15 C 0.5041(5) 0.4838(4) 0.1810(4)
H19 H 0.5393 0.4233 0.1265
H20 H 0.5229 0.5844 0.1726
C16 C 0.3284(4) 0.4290(3) 0.1624(3)
H21 H 0.2909 0.4956 0.2118
H22 H 0.2750 0.4296 0.0888
C17 C 0.0616(3) 0.2764(3) 0.2658(2)
C18 C 0.0368(3) 0.4315(3) 0.2821(2)
C19 C 0.0746(4) 0.5170(4) 0.3870(2)
H23 H 0.1154 0.4776 0.4452
C20 C 0.0522(4) 0.6601(4) 0.4059(3)
H24 H 0.0798 0.7172 0.4764
C21 C -0.0103(4) 0.7178(3) 0.3214(3)
H25 H -0.0258 0.8141 0.3345
C22 C -0.0506(3) 0.6339(3) 0.2166(3)
H26 H -0.0949 0.6730 0.1592
C23 C -0.0253(3) 0.4918(3) 0.1967(2)
H27 H -0.0500 0.4364 0.1257
loop_
_geom_bond_atom_site_label_1
_geom_bond_atom_site_label_2
_geom_bond_site_symmetry_1
_geom_bond_site_symmetry_2
S1 O1 1_555 1_555
O2 S1 1_555 1_555
O3 C17 1_555 1_555
N1 S1 1_555 1_555
C1 S1 1_555 1_555
C2 C1 1_555 1_555
H1 C2 1_555 1_555
C3 C2 1_555 1_555
H2 C3 1_555 1_555
C4 C3 1_555 1_555
C5 C4 1_555 1_555
H3 C5 1_555 1_555
H4 C5 1_555 1_555
H5 C5 1_555 1_555
C6 C4 1_555 1_555
H6 C6 1_555 1_555
C7 C1 1_555 1_555
H7 C7 1_555 1_555
C8 N1 1_555 1_555
H8 C8 1_555 1_555
H9 C8 1_555 1_555
C9 C8 1_555 1_555
H10 C9 1_555 1_555
C10 C9 1_555 1_555
C11 N1 1_555 1_555
H11 C11 1_555 1_555
H12 C11 1_555 1_555
C12 C10 1_555 1_555
H13 C12 1_555 1_555
H14 C12 1_555 1_555
C13 C12 1_555 1_555
H15 C13 1_555 1_555
H16 C13 1_555 1_555
C14 C13 1_555 1_555
H17 C14 1_555 1_555
H18 C14 1_555 1_555
C15 C14 1_555 1_555
H19 C15 1_555 1_555
H20 C15 1_555 1_555
C16 C10 1_555 1_555
H21 C16 1_555 1_555
H22 C16 1_555 1_555
C17 C9 1_555 1_555
C18 C17 1_555 1_555
C19 C18 1_555 1_555
H23 C19 1_555 1_555
C20 C19 1_555 1_555
H24 C20 1_555 1_555
C21 C20 1_555 1_555
H25 C21 1_555 1_555
C22 C21 1_555 1_555
H26 C22 1_555 1_555
C23 C18 1_555 1_555
H27 C23 1_555 1_555
C6 C7 1_555 1_555
C10 C11 1_555 1_555
C15 C16 1_555 1_555
C22 C23 1_555 1_555

#END
