
#######################################################################
#
#                 Cambridge Crystallographic Data Centre
#                                CCDC 
#
#######################################################################
#
# If this CIF has been generated from an entry in the Cambridge 
# Structural Database, then it will include bibliographic, chemical, 
# crystal, experimental, refinement or atomic coordinate data resulting 
# from the CCDC's data processing and validation procedures.
#
#######################################################################

data_USOYAD
_chemical_formula_moiety         'C24 H29 N1 O3 S1'
_chemical_name_systematic        
(4-Methylphenyl)(2-((4-methylphenyl)sulfonyl)-2-azaspiro[4.5]dec-4-yl)methanone
_symmetry_cell_setting           monoclinic
_symmetry_space_group_name_H-M   'P 21/n'
_symmetry_Int_Tables_number      14
_space_group_name_Hall           '-P 2yn'
loop_
_symmetry_equiv_pos_site_id
_symmetry_equiv_pos_as_xyz
1 x,y,z
2 1/2-x,1/2+y,1/2-z
3 -x,-y,-z
4 1/2+x,1/2-y,1/2+z
_cell_length_a                   13.9631(4)
_cell_length_b                   8.2152(2)
_cell_length_c                   18.5589(5)
_cell_angle_alpha                90
_cell_angle_beta                 95.5060(10)
_cell_angle_gamma                90
_cell_volume                     2119.06
_exptl_crystal_colour            colorless
_exptl_crystal_description       prism
_cell_formula_units_Z            4
loop_
_atom_site_label
_atom_site_type_symbol
_atom_site_fract_x
_atom_site_fract_y
_atom_site_fract_z
C1 C 0.01645(14) 0.6298(3) 0.12287(11)
C2 C -0.08048(15) 0.6006(3) 0.10536(12)
H1 H -0.1166 0.5434 0.1381
C3 C -0.12433(15) 0.6550(3) 0.04015(12)
H2 H -0.1908 0.6338 0.0281
C4 C -0.07335(16) 0.7404(3) -0.00830(12)
C5 C 0.02432(16) 0.7660(3) 0.00970(12)
H3 H 0.0605 0.8229 -0.0231
C6 C 0.06966(15) 0.7104(3) 0.07419(13)
H4 H 0.1368 0.7270 0.0854
C7 C -0.12344(19) 0.8029(4) -0.07814(13)
H5 H -0.1917 0.7734 -0.0811
H6 H -0.0941 0.7544 -0.1190
H7 H -0.1172 0.9216 -0.0799
C8 C -0.01593(13) 0.7881(2) 0.28925(11)
H8 H -0.0191 0.7562 0.3404
H9 H -0.0737 0.7463 0.2600
C9 C -0.00854(13) 0.9740(2) 0.28209(10)
C10 C -0.04357(14) 1.0289(2) 0.20495(11)
H10 H -0.0248 1.1440 0.1989
H11 H -0.0107 0.9630 0.1701
C11 C -0.15222(15) 1.0133(3) 0.18679(12)
H12 H -0.1705 1.0594 0.1381
H13 H -0.1704 0.8968 0.1858
C12 C -0.20635(16) 1.1025(3) 0.24256(13)
H14 H -0.1947 1.2210 0.2390
H15 H -0.2763 1.0833 0.2320
C13 C -0.17449(14) 1.0454(3) 0.31858(12)
H16 H -0.1922 0.9296 0.3236
H17 H -0.2083 1.1093 0.3536
C14 C -0.06585(14) 1.0649(3) 0.33600(11)
H18 H -0.0472 1.0231 0.3854
H19 H -0.0492 1.1820 0.3354
C15 C 0.10291(13) 1.0012(2) 0.29475(11)
H20 H 0.1210 1.1051 0.2714
C16 C 0.14497(13) 0.8556(3) 0.25698(12)
H21 H 0.1535 0.8814 0.2059
H22 H 0.2078 0.8230 0.2820
C17 C 0.13694(13) 1.0036(2) 0.37496(11)
C18 C 0.14333(13) 1.1607(2) 0.41557(11)
C19 C 0.13926(15) 1.3125(3) 0.38263(11)
H23 H 0.1368 1.3200 0.3314
C20 C 0.13870(16) 1.4538(3) 0.42381(12)
H24 H 0.1358 1.5566 0.4003
C21 C 0.14227(15) 1.4468(3) 0.49873(12)
C22 C 0.1359(2) 1.5991(3) 0.54342(14)
H25 H 0.1311 1.6943 0.5114
H26 H 0.1936 1.6085 0.5776
H27 H 0.0789 1.5934 0.5702
C23 C 0.14984(17) 1.2947(3) 0.53108(12)
H28 H 0.1549 1.2871 0.5824
C24 C 0.15023(16) 1.1544(3) 0.49070(12)
H29 H 0.1553 1.0519 0.5145
N1 N 0.07236(11) 0.7258(2) 0.26182(9)
O1 O 0.16931(12) 0.5342(2) 0.20050(11)
O2 O 0.00912(13) 0.45170(18) 0.23621(10)
O3 O 0.15437(11) 0.87569(18) 0.40683(8)
S1 S 0.07087(4) 0.57083(6) 0.20839(3)
loop_
_geom_bond_atom_site_label_1
_geom_bond_atom_site_label_2
_geom_bond_site_symmetry_1
_geom_bond_site_symmetry_2
C1 C2 1_555 1_555
C2 H1 1_555 1_555
C3 C2 1_555 1_555
H2 C3 1_555 1_555
C4 C3 1_555 1_555
C5 C4 1_555 1_555
H3 C5 1_555 1_555
C6 C1 1_555 1_555
H4 C6 1_555 1_555
C7 C4 1_555 1_555
H5 C7 1_555 1_555
H6 C7 1_555 1_555
H7 C7 1_555 1_555
C8 H8 1_555 1_555
H9 C8 1_555 1_555
C9 C8 1_555 1_555
C10 C9 1_555 1_555
H10 C10 1_555 1_555
H11 C10 1_555 1_555
C11 C10 1_555 1_555
H12 C11 1_555 1_555
H13 C11 1_555 1_555
C12 C11 1_555 1_555
H14 C12 1_555 1_555
H15 C12 1_555 1_555
C13 C12 1_555 1_555
H16 C13 1_555 1_555
H17 C13 1_555 1_555
C14 C9 1_555 1_555
H18 C14 1_555 1_555
H19 C14 1_555 1_555
C15 C9 1_555 1_555
H20 C15 1_555 1_555
C16 C15 1_555 1_555
H21 C16 1_555 1_555
H22 C16 1_555 1_555
C17 C15 1_555 1_555
C18 C17 1_555 1_555
C19 C18 1_555 1_555
H23 C19 1_555 1_555
C20 C19 1_555 1_555
H24 C20 1_555 1_555
C21 C20 1_555 1_555
C22 C21 1_555 1_555
H25 C22 1_555 1_555
H26 C22 1_555 1_555
H27 C22 1_555 1_555
C23 C21 1_555 1_555
H28 C23 1_555 1_555
C24 C18 1_555 1_555
H29 C24 1_555 1_555
N1 C8 1_555 1_555
O1 S1 1_555 1_555
O2 S1 1_555 1_555
O3 C17 1_555 1_555
S1 C1 1_555 1_555
C5 C6 1_555 1_555
C13 C14 1_555 1_555
C16 N1 1_555 1_555
C23 C24 1_555 1_555
N1 S1 1_555 1_555

#END
