
#######################################################################
#
#                 Cambridge Crystallographic Data Centre
#                                CCDC 
#
#######################################################################
#
# If this CIF has been generated from an entry in the Cambridge 
# Structural Database, then it will include bibliographic, chemical, 
# crystal, experimental, refinement or atomic coordinate data resulting 
# from the CCDC's data processing and validation procedures.
#
#######################################################################

data_USUBIV
_chemical_name_common            
10,17-dichloro-7,8,13,14-tetrahydro-9,12-etheno-6,15-(metheno)cyclohepta[12]annulene
_chemical_formula_moiety         'C20 H16 Cl2'
_chemical_name_systematic        
16,18-dichlorotetracyclo[13.2.2.1^4,12^.0^5,11^]icosa-1(17),4(20),5,7,9,11,15,18-octaene
_symmetry_cell_setting           monoclinic
_symmetry_space_group_name_H-M   'P 21/c'
_symmetry_Int_Tables_number      14
_space_group_name_Hall           '-P 2ybc'
loop_
_symmetry_equiv_pos_site_id
_symmetry_equiv_pos_as_xyz
1 x,y,z
2 -x,1/2+y,1/2-z
3 -x,-y,-z
4 x,1/2-y,1/2+z
_cell_length_a                   7.0600(1)
_cell_length_b                   24.1388(5)
_cell_length_c                   9.0001(2)
_cell_angle_alpha                90
_cell_angle_beta                 92.063(2)
_cell_angle_gamma                90
_cell_volume                     1532.8
_exptl_crystal_colour            blue
_exptl_crystal_description       blocks
_cell_formula_units_Z            4
loop_
_atom_site_label
_atom_site_type_symbol
_atom_site_fract_x
_atom_site_fract_y
_atom_site_fract_z
C1 C 0.2212(2) 0.48555(5) 0.66249(15)
H1 H 0.3221 0.5039 0.6069
H2 H 0.1158 0.5122 0.6729
C2 C 0.14798(18) 0.43237(5) 0.57495(14)
H3 H 0.0102 0.4282 0.5885
H4 H 0.1674 0.4378 0.4675
C3 C 0.24692(18) 0.37998(5) 0.62532(14)
C4 C 0.42536(18) 0.35993(5) 0.58517(13)
C5 C 0.52573(19) 0.37714(5) 0.46351(14)
H5 H 0.4669 0.4053 0.4043
C6 C 0.7011(2) 0.35874(6) 0.41620(16)
H6 H 0.7434 0.3753 0.3276
C7 C 0.8223(2) 0.31953(6) 0.48083(18)
H7 H 0.9352 0.3129 0.4293
C8 C 0.8031(2) 0.28853(6) 0.60943(18)
H8 H 0.9051 0.2641 0.6339
C9 C 0.6546(2) 0.28827(5) 0.70755(16)
H9 H 0.6721 0.2650 0.7920
C10 C 0.48496(19) 0.31727(5) 0.69922(14)
C11 C 0.33659(19) 0.31323(5) 0.79927(14)
C12 C 0.19228(19) 0.34878(5) 0.74815(14)
H10 H 0.0718 0.3515 0.7913
C13 C 0.3418(2) 0.28758(6) 0.95228(15)
H11 H 0.4139 0.2524 0.9499
H12 H 0.2108 0.2787 0.9802
C14 C 0.4360(2) 0.32700(6) 1.07409(15)
H13 H 0.3793 0.3202 1.1714
H14 H 0.5737 0.3194 1.0843
C15 C 0.4035(2) 0.38644(5) 1.02784(14)
C16 C 0.22695(19) 0.41209(6) 1.02724(14)
Cl1 Cl 0.05239(6) 0.38642(2) 1.14152(4)
C17 C 0.17313(19) 0.45171(6) 0.92217(14)
H15 H 0.0502 0.4677 0.9239
C18 C 0.29787(19) 0.46822(5) 0.81428(14)
C19 C 0.48690(18) 0.45241(5) 0.83872(13)
Cl2 Cl 0.66236(5) 0.47741(2) 0.72442(4)
C20 C 0.53864(18) 0.41198(5) 0.94135(14)
H16 H 0.6680 0.4014 0.9531
loop_
_geom_bond_atom_site_label_1
_geom_bond_atom_site_label_2
_geom_bond_site_symmetry_1
_geom_bond_site_symmetry_2
C1 H1 1_555 1_555
H2 C1 1_555 1_555
C2 C1 1_555 1_555
H3 C2 1_555 1_555
H4 C2 1_555 1_555
C3 C2 1_555 1_555
C4 C3 1_555 1_555
C5 C4 1_555 1_555
H5 C5 1_555 1_555
C6 C5 1_555 1_555
H6 C6 1_555 1_555
C7 C6 1_555 1_555
H7 C7 1_555 1_555
C8 C7 1_555 1_555
H8 C8 1_555 1_555
C9 C8 1_555 1_555
H9 C9 1_555 1_555
C10 C4 1_555 1_555
C11 C10 1_555 1_555
C12 C3 1_555 1_555
H10 C12 1_555 1_555
C13 C11 1_555 1_555
H11 C13 1_555 1_555
H12 C13 1_555 1_555
C14 C13 1_555 1_555
H13 C14 1_555 1_555
H14 C14 1_555 1_555
C15 C14 1_555 1_555
C16 C15 1_555 1_555
Cl1 C16 1_555 1_555
C17 C16 1_555 1_555
H15 C17 1_555 1_555
C18 C1 1_555 1_555
C19 C18 1_555 1_555
Cl2 C19 1_555 1_555
C20 C15 1_555 1_555
H16 C20 1_555 1_555
C9 C10 1_555 1_555
C11 C12 1_555 1_555
C17 C18 1_555 1_555
C19 C20 1_555 1_555

#END
