
#######################################################################
#
#                 Cambridge Crystallographic Data Centre
#                                CCDC 
#
#######################################################################
#
# If this CIF has been generated from an entry in the Cambridge 
# Structural Database, then it will include bibliographic, chemical, 
# crystal, experimental, refinement or atomic coordinate data resulting 
# from the CCDC's data processing and validation procedures.
#
#######################################################################

data_USUCIW
_chemical_compound_source        'Aspergillus wentii SD-310'
_chemical_name_common            'asperether C'
_chemical_formula_moiety         'C19 H26 O4'
_chemical_name_systematic        
6-(hydroxymethyl)-6,11a-dimethyl-1,2,3a,6,7,8,9,10,11,11a-decahydrophenanthro[1,2-b]furan-1,4-diol
_chemical_properties_biological  'tested for antitumour activity'
_symmetry_cell_setting           monoclinic
_symmetry_space_group_name_H-M   'P 21'
_symmetry_Int_Tables_number      4
_space_group_name_Hall           'P 2yb'
loop_
_symmetry_equiv_pos_site_id
_symmetry_equiv_pos_as_xyz
1 x,y,z
2 -x,1/2+y,-z
_cell_length_a                   11.1182(10)
_cell_length_b                   12.8745(11)
_cell_length_c                   11.7116(8)
_cell_angle_alpha                90
_cell_angle_beta                 90.3980(10)
_cell_angle_gamma                90
_cell_volume                     1676.37
_cell_formula_units_Z            4
loop_
_atom_site_label
_atom_site_type_symbol
_atom_site_fract_x
_atom_site_fract_y
_atom_site_fract_z
O1 O 0.0519(4) 0.4342(4) 0.2456(3)
O2 O 0.2700(6) 0.4703(4) 0.0264(4)
H1 H 0.2775 0.5211 -0.0152
O3 O -0.0012(4) 0.4923(4) 0.4934(4)
H2 H -0.0378 0.5017 0.5531
O4 O 0.2707(5) 0.2751(4) 0.9295(4)
H3 H 0.2692 0.3235 0.9750
C1 C 0.0803(6) 0.4527(6) 0.1276(5)
H4 H 0.0227 0.5005 0.0939
H5 H 0.0780 0.3882 0.0850
C2 C 0.2050(6) 0.4987(6) 0.1249(5)
H6 H 0.1994 0.5746 0.1290
C3 C 0.2622(6) 0.4576(6) 0.2350(5)
C4 C 0.1560(5) 0.4620(5) 0.3160(5)
H7 H 0.1461 0.5341 0.3411
C5 C 0.1614(5) 0.3945(5) 0.4196(5)
C6 C 0.2422(6) 0.3139(5) 0.4314(5)
C7 C 0.3310(6) 0.2909(6) 0.3357(5)
H8 H 0.3344 0.2163 0.3239
H9 H 0.4105 0.3136 0.3595
C8 C 0.2987(6) 0.3435(5) 0.2224(5)
H10 H 0.3673 0.3393 0.1719
H11 H 0.2329 0.3057 0.1868
C9 C 0.0824(5) 0.4148(5) 0.5090(5)
C10 C 0.0908(6) 0.3582(5) 0.6108(5)
H12 H 0.0389 0.3726 0.6707
C11 C 0.1769(6) 0.2805(5) 0.6224(5)
C12 C 0.2511(5) 0.2544(5) 0.5317(5)
C13 C 0.3347(6) 0.1615(6) 0.5361(5)
H13 H 0.3298 0.1248 0.4639
H14 H 0.4167 0.1860 0.5455
C14 C 0.307(2) 0.0883(17) 0.6295(18)
H15 H 0.3683 0.0348 0.6342
H16 H 0.2299 0.0552 0.6156
C15 C 0.303(2) 0.1506(15) 0.7416(12)
H17 H 0.3778 0.1892 0.7507
H18 H 0.2965 0.1032 0.8056
C16 C 0.1915(6) 0.2297(6) 0.7413(6)
C17 C 0.2476(6) 0.3135(6) 0.8162(5)
H19 H 0.3225 0.3367 0.7826
H20 H 0.1938 0.3727 0.8201
C18 C 0.3684(7) 0.5233(6) 0.2767(6)
H21 H 0.3414 0.5927 0.2923
H22 H 0.4291 0.5252 0.2188
H23 H 0.4014 0.4934 0.3451
C19 C 0.083(2) 0.1775(18) 0.783(2)
H24 H 0.0697 0.1147 0.7407
H25 H 0.0148 0.2227 0.7738
H26 H 0.0930 0.1611 0.8627
O5 O 0.7524(4) 0.1561(4) 0.0736(4)
O6 O 0.9859(4) 0.2319(4) 0.2675(5)
H36 H 1.0134 0.2891 0.2840
O7 O 0.4904(4) 0.2072(4) 0.0112(4)
H37 H 0.4245 0.2199 -0.0175
O8 O 0.1240(4) 0.0579(4) 0.3095(4)
H38 H 0.0852 0.1111 0.2983
C23 C 0.8756(6) 0.1768(6) 0.0987(5)
H39 H 0.9131 0.2125 0.0352
H40 H 0.9187 0.1125 0.1126
C24 C 0.8778(6) 0.2446(6) 0.2045(5)
H41 H 0.8719 0.3174 0.1805
C25 C 0.7627(6) 0.2154(5) 0.2647(5)
C26 C 0.6785(5) 0.2011(5) 0.1637(5)
H42 H 0.6511 0.2698 0.1384
C27 C 0.5706(5) 0.1337(5) 0.1810(5)
C28 C 0.5607(5) 0.0629(5) 0.2716(5)
C29 C 0.6593(5) 0.0620(6) 0.3626(5)
H43 H 0.6739 -0.0093 0.3855
H44 H 0.6306 0.0992 0.4290
C30 C 0.7784(6) 0.1100(5) 0.3257(6)
H45 H 0.8189 0.0622 0.2747
H46 H 0.8293 0.1195 0.3924
C31 C 0.4764(6) 0.1389(6) 0.0997(5)
C32 C 0.3757(6) 0.0786(5) 0.1122(5)
H47 H 0.3125 0.0856 0.0604
C33 C 0.3660(5) 0.0062(5) 0.2021(5)
C34 C 0.4612(5) -0.0016(5) 0.2809(5)
C35 C 0.4574(6) -0.0851(5) 0.3722(5)
H48 H 0.5382 -0.1114 0.3850
H49 H 0.4300 -0.0545 0.4431
C36 C 0.3757(6) -0.1744(6) 0.3408(6)
H50 H 0.3702 -0.2225 0.4043
H51 H 0.4082 -0.2115 0.2758
C37 C 0.2520(6) -0.1327(6) 0.3114(6)
H52 H 0.2213 -0.0942 0.3761
H53 H 0.1979 -0.1905 0.2971
C38 C 0.2535(6) -0.0616(6) 0.2060(5)
C39 C 0.1393(6) 0.0039(6) 0.2039(5)
H54 H 0.1436 0.0538 0.1419
H55 H 0.0704 -0.0406 0.1901
C40 C 0.7226(6) 0.2986(6) 0.3464(6)
H56 H 0.7141 0.3632 0.3061
H57 H 0.7814 0.3063 0.4061
H58 H 0.6467 0.2795 0.3789
C41 C 0.2494(7) -0.1276(6) 0.0963(6)
H59 H 0.3201 -0.1702 0.0925
H60 H 0.2461 -0.0827 0.0309
H61 H 0.1793 -0.1712 0.0971
H27? H 0.4128 0.1806 0.5062
H28? H 0.3023 0.1063 0.4887
C20? C 0.349(3) 0.120(2) 0.663(2)
H29? H 0.3792 0.0491 0.6610
H30? H 0.4082 0.1619 0.7030
C21? C 0.235(3) 0.1210(19) 0.7299(17)
H31? H 0.1744 0.0793 0.6911
H32? H 0.2488 0.0914 0.8050
C22? C 0.059(3) 0.221(2) 0.801(3)
H33? H 0.0043 0.1869 0.7499
H34? H 0.0300 0.2894 0.8182
H35? H 0.0661 0.1816 0.8705
loop_
_geom_bond_atom_site_label_1
_geom_bond_atom_site_label_2
_geom_bond_site_symmetry_1
_geom_bond_site_symmetry_2
O1 C1 1_555 1_555
O2 H1 1_555 1_555
O3 H2 1_555 1_555
O4 H3 1_555 1_555
C1 H4 1_555 1_555
H5 C1 1_555 1_555
C2 O2 1_555 1_555
H6 C2 1_555 1_555
C3 C2 1_555 1_555
C4 O1 1_555 1_555
H7 C4 1_555 1_555
C5 C4 1_555 1_555
C6 C5 1_555 1_555
C7 C6 1_555 1_555
H8 C7 1_555 1_555
H9 C7 1_555 1_555
C8 C3 1_555 1_555
H10 C8 1_555 1_555
H11 C8 1_555 1_555
C9 O3 1_555 1_555
C10 C9 1_555 1_555
H12 C10 1_555 1_555
C11 C10 1_555 1_555
C12 C6 1_555 1_555
C13 C12 1_555 1_555
H13 C13 1_555 1_555
H14 C13 1_555 1_555
C14 C13 1_555 1_555
H15 C14 1_555 1_555
H16 C14 1_555 1_555
C15 C14 1_555 1_555
H17 C15 1_555 1_555
H18 C15 1_555 1_555
C16 C11 1_555 1_555
C17 O4 1_555 1_555
H19 C17 1_555 1_555
H20 C17 1_555 1_555
C18 C3 1_555 1_555
H21 C18 1_555 1_555
H22 C18 1_555 1_555
H23 C18 1_555 1_555
C19 C16 1_555 1_555
H24 C19 1_555 1_555
H25 C19 1_555 1_555
H26 C19 1_555 1_555
O5 C23 1_555 1_555
O6 H36 1_555 1_555
O7 H37 1_555 1_555
O8 H38 1_555 1_555
C23 H39 1_555 1_555
H40 C23 1_555 1_555
C24 O6 1_555 1_555
H41 C24 1_555 1_555
C25 C24 1_555 1_555
C26 O5 1_555 1_555
H42 C26 1_555 1_555
C27 C26 1_555 1_555
C28 C27 1_555 1_555
C29 C28 1_555 1_555
H43 C29 1_555 1_555
H44 C29 1_555 1_555
C30 C25 1_555 1_555
H45 C30 1_555 1_555
H46 C30 1_555 1_555
C31 O7 1_555 1_555
C32 C31 1_555 1_555
H47 C32 1_555 1_555
C33 C32 1_555 1_555
C34 C28 1_555 1_555
C35 C34 1_555 1_555
H48 C35 1_555 1_555
H49 C35 1_555 1_555
C36 C35 1_555 1_555
H50 C36 1_555 1_555
H51 C36 1_555 1_555
C37 C36 1_555 1_555
H52 C37 1_555 1_555
H53 C37 1_555 1_555
C38 C33 1_555 1_555
C39 O8 1_555 1_555
H54 C39 1_555 1_555
H55 C39 1_555 1_555
C40 C25 1_555 1_555
H56 C40 1_555 1_555
H57 C40 1_555 1_555
H58 C40 1_555 1_555
C41 C38 1_555 1_555
H59 C41 1_555 1_555
H60 C41 1_555 1_555
H61 C41 1_555 1_555
C1 C2 1_555 1_555
C3 C4 1_555 1_555
C5 C9 1_555 1_555
C7 C8 1_555 1_555
C11 C12 1_555 1_555
C15 C16 1_555 1_555
C16 C17 1_555 1_555
C23 C24 1_555 1_555
C25 C26 1_555 1_555
C27 C31 1_555 1_555
C29 C30 1_555 1_555
C33 C34 1_555 1_555
C37 C38 1_555 1_555
C38 C39 1_555 1_555

#END
