
#######################################################################
#
#                 Cambridge Crystallographic Data Centre
#                                CCDC 
#
#######################################################################
#
# If this CIF has been generated from an entry in the Cambridge 
# Structural Database, then it will include bibliographic, chemical, 
# crystal, experimental, refinement or atomic coordinate data resulting 
# from the CCDC's data processing and validation procedures.
#
#######################################################################

data_USUCES
_chemical_compound_source        'Aspergillus wentii SD-310'
_chemical_name_common            'asperether B monohydrate'
_chemical_formula_moiety         'C19 H26 O3,H2 O1'
_chemical_name_systematic        
'6,6,11a-trimethyl-1,2,3a,6,7,8,9,10,11,11a-decahydrophenanthro[1,2-b]furan-1,4-diol monohydrate'
_chemical_properties_biological  'tested for antitumour activity'
_symmetry_cell_setting           orthorhombic
_symmetry_space_group_name_H-M   'P 21 21 21'
_symmetry_Int_Tables_number      19
_space_group_name_Hall           'P 2ac 2ab'
loop_
_symmetry_equiv_pos_site_id
_symmetry_equiv_pos_as_xyz
1 x,y,z
2 1/2-x,-y,1/2+z
3 -x,1/2+y,1/2-z
4 1/2+x,1/2-y,-z
_cell_length_a                   6.2051(6)
_cell_length_b                   8.2010(8)
_cell_length_c                   34.011(3)
_cell_angle_alpha                90
_cell_angle_beta                 90
_cell_angle_gamma                90
_cell_volume                     1730.75
_cell_formula_units_Z            4
loop_
_atom_site_label
_atom_site_type_symbol
_atom_site_fract_x
_atom_site_fract_y
_atom_site_fract_z
O1 O 0.2515(5) 0.5684(3) 0.04658(9)
O2 O -0.0100(5) 0.1850(4) 0.05197(14)
H1 H 0.0289 0.0894 0.0520
O3 O 0.6734(5) 0.7429(3) 0.04715(6)
H2 H 0.7539 0.8211 0.0440
C1 C 0.0919(8) 0.4573(5) 0.03348(15)
H3 H 0.0735 0.4659 0.0052
H4 H -0.0451 0.4807 0.0460
C2 C 0.1684(7) 0.2865(5) 0.04448(13)
H5 H 0.2519 0.2410 0.0226
C3 C 0.3197(7) 0.3184(5) 0.07934(12)
C4 C 0.4223(7) 0.4775(4) 0.06589(11)
H6 H 0.5328 0.4517 0.0462
C5 C 0.5251(7) 0.5791(5) 0.09771(11)
C6 C 0.5012(7) 0.5436(5) 0.13769(12)
C7 C 0.3448(8) 0.4097(5) 0.15013(12)
H7 H 0.4272 0.3175 0.1598
H8 H 0.2578 0.4499 0.1718
C8 C 0.1951(7) 0.3507(5) 0.11761(13)
H9 H 0.0850 0.4323 0.1128
H10 H 0.1240 0.2512 0.1260
C9 C 0.6578(7) 0.7074(4) 0.08688(10)
C10 C 0.7699(7) 0.7976(5) 0.11446(11)
H11 H 0.8550 0.8848 0.1064
C11 C 0.7560(7) 0.7589(5) 0.15423(10)
C12 C 0.6195(7) 0.6330(5) 0.16594(11)
C13 C 0.5967(9) 0.5858(6) 0.20924(11)
H12 H 0.4453 0.5700 0.2152
H13 H 0.6700 0.4830 0.2136
C14 C 0.6870(11) 0.7109(7) 0.23655(13)
H14 H 0.5833 0.7986 0.2393
H15 H 0.7064 0.6617 0.2622
C15 C 0.8911(10) 0.7795(8) 0.22385(13)
H16 H 0.9979 0.6932 0.2234
H17 H 0.9373 0.8593 0.2431
C16 C 0.8858(7) 0.8611(6) 0.18340(11)
C17 C 0.7887(10) 1.0326(5) 0.18594(14)
H18 H 0.6375 1.0246 0.1916
H19 H 0.8087 1.0878 0.1613
H20 H 0.8591 1.0926 0.2065
C18 C 0.4813(8) 0.1807(5) 0.08456(14)
H21 H 0.5506 0.1586 0.0599
H22 H 0.4078 0.0845 0.0935
H23 H 0.5876 0.2120 0.1036
C19 C 1.1209(8) 0.8788(7) 0.16927(15)
H24 H 1.2052 0.9298 0.1895
H25 H 1.1247 0.9447 0.1460
H26 H 1.1791 0.7730 0.1636
O4 O 0.0715(5) 0.8644(3) 0.02964(7)
H27 H 0.1207 0.7791 0.0406
H28 H 0.0884 0.8541 0.0050
loop_
_geom_bond_atom_site_label_1
_geom_bond_atom_site_label_2
_geom_bond_site_symmetry_1
_geom_bond_site_symmetry_2
O1 C1 1_555 1_555
O2 H1 1_555 1_555
O3 H2 1_555 1_555
C1 H3 1_555 1_555
H4 C1 1_555 1_555
C2 O2 1_555 1_555
H5 C2 1_555 1_555
C3 C2 1_555 1_555
C4 O1 1_555 1_555
H6 C4 1_555 1_555
C5 C4 1_555 1_555
C6 C5 1_555 1_555
C7 C6 1_555 1_555
H7 C7 1_555 1_555
H8 C7 1_555 1_555
C8 C3 1_555 1_555
H9 C8 1_555 1_555
H10 C8 1_555 1_555
C9 O3 1_555 1_555
C10 C9 1_555 1_555
H11 C10 1_555 1_555
C11 C10 1_555 1_555
C12 C6 1_555 1_555
C13 C12 1_555 1_555
H12 C13 1_555 1_555
H13 C13 1_555 1_555
C14 C13 1_555 1_555
H14 C14 1_555 1_555
H15 C14 1_555 1_555
C15 C14 1_555 1_555
H16 C15 1_555 1_555
H17 C15 1_555 1_555
C16 C11 1_555 1_555
C17 C16 1_555 1_555
H18 C17 1_555 1_555
H19 C17 1_555 1_555
H20 C17 1_555 1_555
C18 C3 1_555 1_555
H21 C18 1_555 1_555
H22 C18 1_555 1_555
H23 C18 1_555 1_555
C19 C16 1_555 1_555
H24 C19 1_555 1_555
H25 C19 1_555 1_555
H26 C19 1_555 1_555
O4 H27 1_555 1_555
H28 O4 1_555 1_555
C1 C2 1_555 1_555
C3 C4 1_555 1_555
C5 C9 1_555 1_555
C7 C8 1_555 1_555
C11 C12 1_555 1_555
C15 C16 1_555 1_555

#END
