
#######################################################################
#
#                 Cambridge Crystallographic Data Centre
#                                CCDC 
#
#######################################################################
#
# If this CIF has been generated from an entry in the Cambridge 
# Structural Database, then it will include bibliographic, chemical, 
# crystal, experimental, refinement or atomic coordinate data resulting 
# from the CCDC's data processing and validation procedures.
#
#######################################################################

data_USUGOG
_chemical_formula_moiety         'C28 H21 N1 O3 S1,C1 H1 Cl3'
_chemical_name_systematic        
"6'-methoxy-2',3'-diphenylspiro[1,2-benzothiazole-3,1'-indene] 1,1-dioxide chloroform solvate"
_symmetry_cell_setting           monoclinic
_symmetry_space_group_name_H-M   'P 21/n'
_symmetry_Int_Tables_number      14
_space_group_name_Hall           '-P 2yn'
loop_
_symmetry_equiv_pos_site_id
_symmetry_equiv_pos_as_xyz
1 x,y,z
2 1/2-x,1/2+y,1/2-z
3 -x,-y,-z
4 1/2+x,1/2-y,1/2+z
_cell_length_a                   10.5388(4)
_cell_length_b                   19.2355(6)
_cell_length_c                   13.3088(5)
_cell_angle_alpha                90
_cell_angle_beta                 104.0930(10)
_cell_angle_gamma                90
_cell_volume                     2616.74
_exptl_crystal_description       block
_cell_formula_units_Z            4
loop_
_atom_site_label
_atom_site_type_symbol
_atom_site_fract_x
_atom_site_fract_y
_atom_site_fract_z
S1 S 0.82808(5) 0.18038(3) 0.69933(4)
N1 N 0.70255(16) 0.12894(10) 0.64945(14)
H1 H 0.7032 0.0834 0.6566
O1 O 0.82335(16) 0.20033(9) 0.80277(12)
O2 O 0.94691(15) 0.14970(9) 0.68593(14)
O3 O 0.39143(15) 0.25255(9) 0.88250(12)
C1 C 0.58766(19) 0.17023(11) 0.59054(16)
C2 C 0.6445(2) 0.23922(11) 0.56293(16)
C3 C 0.7729(2) 0.25078(11) 0.61603(17)
C4 C 0.8421(2) 0.31056(12) 0.60405(19)
H2 H 0.9297 0.3175 0.6425
C5 C 0.7772(2) 0.35974(12) 0.5334(2)
H3 H 0.8208 0.4013 0.5227
C6 C 0.6489(2) 0.34823(13) 0.47821(19)
H4 H 0.6067 0.3820 0.4292
C7 C 0.5804(2) 0.28883(12) 0.49271(17)
H5 H 0.4921 0.2823 0.4556
C8 C 0.5082(2) 0.12870(11) 0.49716(16)
C9 C 0.5678(2) 0.09795(12) 0.41746(16)
C10 C 0.6751(2) 0.12865(13) 0.38936(18)
H6 H 0.7119 0.1703 0.4225
C11 C 0.7282(3) 0.09864(14) 0.3134(2)
H7 H 0.8010 0.1199 0.2955
C12 C 0.6756(3) 0.03792(14) 0.26379(19)
H8 H 0.7110 0.0181 0.2111
C13 C 0.5707(2) 0.00639(12) 0.29200(18)
H9 H 0.5345 -0.0353 0.2587
C14 C 0.5188(2) 0.03559(12) 0.36851(17)
H10 H 0.4485 0.0129 0.3882
C15 C 0.3824(2) 0.12270(11) 0.50455(16)
C16 C 0.27014(19) 0.09189(11) 0.42806(16)
C17 C 0.2385(2) 0.11522(12) 0.32584(17)
H11 H 0.2899 0.1505 0.3050
C18 C 0.1323(2) 0.08725(14) 0.25414(19)
H12 H 0.1114 0.1034 0.1846
C19 C 0.0568(2) 0.03592(15) 0.2839(2)
H13 H -0.0152 0.0166 0.2346
C20 C 0.0861(2) 0.01261(13) 0.3860(2)
H14 H 0.0339 -0.0224 0.4064
C21 C 0.1923(2) 0.04062(12) 0.45823(18)
H15 H 0.2120 0.0249 0.5280
C22 C 0.3675(2) 0.15452(11) 0.60167(16)
C23 C 0.4866(2) 0.18307(11) 0.65411(16)
C24 C 0.5014(2) 0.21775(11) 0.74782(16)
H16 H 0.5824 0.2384 0.7819
C25 C 0.3918(2) 0.22117(11) 0.79031(17)
C26 C 0.2721(2) 0.19212(12) 0.73833(17)
H17 H 0.1990 0.1952 0.7681
C27 C 0.2588(2) 0.15908(12) 0.64451(17)
H18 H 0.1771 0.1397 0.6094
C28 C 0.5080(2) 0.28633(14) 0.93796(19)
H19 H 0.4936 0.3063 1.0020
H20 H 0.5795 0.2525 0.9549
H21 H 0.5309 0.3234 0.8950
Cl1 Cl 0.79534(9) 0.15962(4) 1.07111(7)
Cl2 Cl 0.58168(8) 0.07138(5) 0.96858(6)
Cl3 Cl 0.84702(12) 0.03664(5) 0.96680(14)
C29 C 0.7358(3) 0.10459(14) 0.9652(2)
H22 H 0.7269 0.1318 0.8999
loop_
_geom_bond_atom_site_label_1
_geom_bond_atom_site_label_2
_geom_bond_site_symmetry_1
_geom_bond_site_symmetry_2
S1 N1 1_555 1_555
N1 H1 1_555 1_555
O1 S1 1_555 1_555
O2 S1 1_555 1_555
O3 C25 1_555 1_555
C1 N1 1_555 1_555
C2 C1 1_555 1_555
C3 S1 1_555 1_555
C4 C3 1_555 1_555
H2 C4 1_555 1_555
C5 C4 1_555 1_555
H3 C5 1_555 1_555
C6 C5 1_555 1_555
H4 C6 1_555 1_555
C7 C2 1_555 1_555
H5 C7 1_555 1_555
C8 C1 1_555 1_555
C9 C8 1_555 1_555
C10 C9 1_555 1_555
H6 C10 1_555 1_555
C11 C10 1_555 1_555
H7 C11 1_555 1_555
C12 C11 1_555 1_555
H8 C12 1_555 1_555
C13 C12 1_555 1_555
H9 C13 1_555 1_555
C14 C9 1_555 1_555
H10 C14 1_555 1_555
C15 C8 1_555 1_555
C16 C15 1_555 1_555
C17 C16 1_555 1_555
H11 C17 1_555 1_555
C18 C17 1_555 1_555
H12 C18 1_555 1_555
C19 C18 1_555 1_555
H13 C19 1_555 1_555
C20 C19 1_555 1_555
H14 C20 1_555 1_555
C21 C16 1_555 1_555
H15 C21 1_555 1_555
C22 C15 1_555 1_555
C23 C1 1_555 1_555
C24 C23 1_555 1_555
H16 C24 1_555 1_555
C25 C24 1_555 1_555
C26 C25 1_555 1_555
H17 C26 1_555 1_555
C27 C22 1_555 1_555
H18 C27 1_555 1_555
C28 O3 1_555 1_555
H19 C28 1_555 1_555
H20 C28 1_555 1_555
H21 C28 1_555 1_555
Cl1 C29 1_555 1_555
Cl2 C29 1_555 1_555
Cl3 C29 1_555 1_555
C29 H22 1_555 1_555
C2 C3 1_555 1_555
C6 C7 1_555 1_555
C13 C14 1_555 1_555
C20 C21 1_555 1_555
C22 C23 1_555 1_555
C26 C27 1_555 1_555

#END
