
#######################################################################
#
#                 Cambridge Crystallographic Data Centre
#                                CCDC 
#
#######################################################################
#
# If this CIF has been generated from an entry in the Cambridge 
# Structural Database, then it will include bibliographic, chemical, 
# crystal, experimental, refinement or atomic coordinate data resulting 
# from the CCDC's data processing and validation procedures.
#
#######################################################################

data_USUGUM
_chemical_formula_moiety         'C22 H17 N1 O2 S1'
_chemical_name_systematic        
"3'-methyl-2'-phenylspiro[1,2-benzothiazole-3,1'-indene] 1,1-dioxide"
_symmetry_cell_setting           triclinic
_symmetry_space_group_name_H-M   'P -1'
_symmetry_Int_Tables_number      2
_space_group_name_Hall           '-P 1'
loop_
_symmetry_equiv_pos_site_id
_symmetry_equiv_pos_as_xyz
1 x,y,z
2 -x,-y,-z
_cell_length_a                   8.8896(7)
_cell_length_b                   9.8927(7)
_cell_length_c                   11.5646(12)
_cell_angle_alpha                94.747(4)
_cell_angle_beta                 112.490(3)
_cell_angle_gamma                110.443(3)
_cell_volume                     852.549
_exptl_crystal_description       block
_cell_formula_units_Z            2
loop_
_atom_site_label
_atom_site_type_symbol
_atom_site_fract_x
_atom_site_fract_y
_atom_site_fract_z
S1 S 1.07482(6) 1.00463(5) 0.82937(4)
N1 N 1.07203(19) 0.85931(16) 0.89053(14)
H1 H 1.1246 0.8665 0.9739
O1 O 1.00302(18) 1.08636(15) 0.88674(13)
O2 O 1.24635(18) 1.08979(15) 0.83517(14)
C1 C 0.9721(2) 0.71524(19) 0.79098(17)
C2 C 0.8690(2) 0.7495(2) 0.66584(17)
C3 C 0.9208(2) 0.8995(2) 0.67162(17)
C4 C 0.8522(3) 0.9532(2) 0.56411(18)
H2 H 0.8921 1.0570 0.5697
C5 C 0.7239(3) 0.8494(2) 0.44927(19)
H3 H 0.6740 0.8819 0.3743
C6 C 0.6676(3) 0.6976(2) 0.44305(19)
H4 H 0.5773 0.6278 0.3641
C7 C 0.7411(2) 0.6461(2) 0.55007(18)
H5 H 0.7045 0.5423 0.5440
C8 C 0.8535(2) 0.5929(2) 0.82837(17)
C9 C 0.7222(2) 0.5911(2) 0.86511(18)
H6 H 0.6958 0.6757 0.8724
C10 C 0.6290(2) 0.4596(2) 0.89120(19)
H7 H 0.5397 0.4557 0.9183
C11 C 0.6652(3) 0.3356(2) 0.87805(19)
H8 H 0.5987 0.2475 0.8948
C12 C 0.7979(2) 0.3374(2) 0.84059(19)
H9 H 0.8224 0.2520 0.8317
C13 C 0.8928(2) 0.4684(2) 0.81681(17)
C14 C 1.0411(2) 0.5048(2) 0.77982(17)
C15 C 1.1191(3) 0.3977(2) 0.7608(2)
H10 H 1.1595 0.3632 0.8394
H11 H 1.2208 0.4476 0.7424
H12 H 1.0279 0.3123 0.6881
C16 C 1.0926(2) 0.6463(2) 0.76940(17)
C17 C 1.2367(2) 0.7291(2) 0.73377(18)
C18 C 1.2086(3) 0.7050(2) 0.6056(2)
H13 H 1.0965 0.6343 0.5403
C19 C 1.3431(3) 0.7836(3) 0.5721(2)
H14 H 1.3232 0.7657 0.4844
C20 C 1.5059(3) 0.8879(3) 0.6670(2)
H15 H 1.5973 0.9426 0.6442
C21 C 1.5357(3) 0.9125(3) 0.7946(2)
H16 H 1.6479 0.9835 0.8597
C22 C 1.4014(2) 0.8335(2) 0.8282(2)
H17 H 1.4224 0.8510 0.9161
loop_
_geom_bond_atom_site_label_1
_geom_bond_atom_site_label_2
_geom_bond_site_symmetry_1
_geom_bond_site_symmetry_2
S1 N1 1_555 1_555
N1 H1 1_555 1_555
O1 S1 1_555 1_555
O2 S1 1_555 1_555
C1 N1 1_555 1_555
C2 C1 1_555 1_555
C3 S1 1_555 1_555
C4 C3 1_555 1_555
H2 C4 1_555 1_555
C5 C4 1_555 1_555
H3 C5 1_555 1_555
C6 C5 1_555 1_555
H4 C6 1_555 1_555
C7 C2 1_555 1_555
H5 C7 1_555 1_555
C8 C1 1_555 1_555
C9 C8 1_555 1_555
H6 C9 1_555 1_555
C10 C9 1_555 1_555
H7 C10 1_555 1_555
C11 C10 1_555 1_555
H8 C11 1_555 1_555
C12 C11 1_555 1_555
H9 C12 1_555 1_555
C13 C8 1_555 1_555
C14 C13 1_555 1_555
C15 C14 1_555 1_555
H10 C15 1_555 1_555
H11 C15 1_555 1_555
H12 C15 1_555 1_555
C16 C1 1_555 1_555
C17 C16 1_555 1_555
C18 C17 1_555 1_555
H13 C18 1_555 1_555
C19 C18 1_555 1_555
H14 C19 1_555 1_555
C20 C19 1_555 1_555
H15 C20 1_555 1_555
C21 C20 1_555 1_555
H16 C21 1_555 1_555
C22 C17 1_555 1_555
H17 C22 1_555 1_555
C2 C3 1_555 1_555
C6 C7 1_555 1_555
C12 C13 1_555 1_555
C14 C16 1_555 1_555
C21 C22 1_555 1_555

#END
