
#######################################################################
#
#                 Cambridge Crystallographic Data Centre
#                                CCDC 
#
#######################################################################
#
# If this CIF has been generated from an entry in the Cambridge 
# Structural Database, then it will include bibliographic, chemical, 
# crystal, experimental, refinement or atomic coordinate data resulting 
# from the CCDC's data processing and validation procedures.
#
#######################################################################

data_USUHIA
_chemical_formula_moiety         'C15 H11 F3 O2 S1'
_chemical_name_systematic        
(2-Hydroxy-6-(methylsulfanyl)-4-(trifluoromethyl)phenyl)(phenyl)methanone
_symmetry_cell_setting           monoclinic
_symmetry_space_group_name_H-M   'P 21'
_symmetry_Int_Tables_number      4
_space_group_name_Hall           'P 2yb'
loop_
_symmetry_equiv_pos_site_id
_symmetry_equiv_pos_as_xyz
1 x,y,z
2 -x,1/2+y,-z
_cell_length_a                   8.9606(3)
_cell_length_b                   8.1807(2)
_cell_length_c                   10.6159(3)
_cell_angle_alpha                90
_cell_angle_beta                 114.197(2)
_cell_angle_gamma                90
_cell_volume                     709.817
_exptl_crystal_colour            colorless
_exptl_crystal_description       block
_cell_formula_units_Z            2
loop_
_atom_site_label
_atom_site_type_symbol
_atom_site_fract_x
_atom_site_fract_y
_atom_site_fract_z
C1 C 0.22738(17) 0.07635(19) 0.11886(14)
C2 C 0.27172(15) 0.05741(17) 0.26122(14)
C3 C 0.38012(16) 0.16747(17) 0.35528(14)
C4 C 0.44232(17) 0.29953(18) 0.30868(15)
H1 H 0.5141 0.3760 0.3720
C5 C 0.39676(17) 0.31656(19) 0.16734(16)
C6 C 0.29107(19) 0.2075(2) 0.07160(15)
H2 H 0.2625 0.2217 -0.0243
C7 C 0.0098(3) 0.0188(2) -0.15500(18)
H3 H -0.0321 0.1271 -0.1466
H4 H -0.0803 -0.0490 -0.2175
H5 H 0.0930 0.0302 -0.1921
C8 C 0.21086(15) -0.08214(18) 0.31975(12)
C9 C 0.05079(16) -0.0668(2) 0.32921(13)
C10 C 0.0075(2) -0.1861(2) 0.4031(2)
H6 H 0.0803 -0.2734 0.4467
C11 C -0.1431(3) -0.1756(3) 0.4118(3)
H7 H -0.1729 -0.2560 0.4619
C12 C -0.2489(3) -0.0493(3) 0.3483(3)
H8 H -0.3518 -0.0437 0.3542
C13 C -0.2065(2) 0.0690(3) 0.2764(3)
H9 H -0.2794 0.1567 0.2341
C14 C -0.0568(2) 0.0600(2) 0.26554(19)
H10 H -0.0285 0.1406 0.2147
C15 C 0.4635(2) 0.4596(2) 0.1177(2)
F1 F 0.6079(2) 0.5076(3) 0.2077(2)
F2 F 0.4879(3) 0.4224(3) 0.0044(2)
F3 F 0.3647(3) 0.5848(2) 0.0834(3)
O1 O 0.29553(13) -0.20423(15) 0.36265(13)
O2 O 0.41755(13) 0.13988(16) 0.49135(11)
S1 S 0.09851(6) -0.07562(6) 0.01089(4)
H11 H 0.497(3) 0.195(4) 0.534(2)
loop_
_geom_bond_atom_site_label_1
_geom_bond_atom_site_label_2
_geom_bond_site_symmetry_1
_geom_bond_site_symmetry_2
C1 C2 1_555 1_555
C2 C3 1_555 1_555
C3 C4 1_555 1_555
C4 H1 1_555 1_555
C5 C4 1_555 1_555
C6 C1 1_555 1_555
H2 C6 1_555 1_555
C7 H3 1_555 1_555
H4 C7 1_555 1_555
H5 C7 1_555 1_555
C8 C2 1_555 1_555
C9 C8 1_555 1_555
C10 C9 1_555 1_555
H6 C10 1_555 1_555
C11 C10 1_555 1_555
H7 C11 1_555 1_555
C12 C11 1_555 1_555
H8 C12 1_555 1_555
C13 C12 1_555 1_555
H9 C13 1_555 1_555
C14 C9 1_555 1_555
H10 C14 1_555 1_555
C15 C5 1_555 1_555
F1 C15 1_555 1_555
F2 C15 1_555 1_555
F3 C15 1_555 1_555
O1 C8 1_555 1_555
O2 C3 1_555 1_555
S1 C1 1_555 1_555
H11 O2 1_555 1_555
C5 C6 1_555 1_555
C7 S1 1_555 1_555
C13 C14 1_555 1_555

#END
