
#######################################################################
#
#                 Cambridge Crystallographic Data Centre
#                                CCDC 
#
#######################################################################
#
# If this CIF has been generated from an entry in the Cambridge 
# Structural Database, then it will include bibliographic, chemical, 
# crystal, experimental, refinement or atomic coordinate data resulting 
# from the CCDC's data processing and validation procedures.
#
#######################################################################

data_USUJAV
_chemical_formula_moiety         'C30 H33 N3 O6 S3,C1 H1 Cl3'
_chemical_name_systematic        
"N,N',N''-(benzene-1,3,5-triyltris(methylene))tris(4-methylbenzenesulfonamide) chloroform solvate"
_symmetry_cell_setting           rhombohedral
_symmetry_space_group_name_H-M   'R -3'
_symmetry_Int_Tables_number      148
_space_group_name_Hall           '-R 3'
loop_
_symmetry_equiv_pos_site_id
_symmetry_equiv_pos_as_xyz
1 x,y,z
2 -y,x-y,z
3 -x+y,-x,z
4 2/3+x,1/3+y,1/3+z
5 2/3-y,1/3+x-y,1/3+z
6 2/3-x+y,1/3-x,1/3+z
7 1/3+x,2/3+y,2/3+z
8 1/3-y,2/3+x-y,2/3+z
9 1/3-x+y,2/3-x,2/3+z
10 -x,-y,-z
11 y,-x+y,-z
12 x-y,x,-z
13 1/3-x,2/3-y,2/3-z
14 1/3+y,2/3-x+y,2/3-z
15 1/3+x-y,2/3+x,2/3-z
16 2/3-x,1/3-y,1/3-z
17 2/3+y,1/3-x+y,1/3-z
18 2/3+x-y,1/3+x,1/3-z
_cell_length_a                   18.3260(9)
_cell_length_b                   18.3260(9)
_cell_length_c                   18.5870(10)
_cell_angle_alpha                90
_cell_angle_beta                 90
_cell_angle_gamma                120
_cell_volume                     5405.99
_exptl_crystal_colour            colorless
_exptl_crystal_description       blocks
_cell_formula_units_Z            6
loop_
_atom_site_label
_atom_site_type_symbol
_atom_site_fract_x
_atom_site_fract_y
_atom_site_fract_z
S1 S 0.53730(4) 0.55972(4) 0.10952(3)
O1 O 0.51192(12) 0.47569(11) 0.08537(10)
O2 O 0.52089(13) 0.57294(14) 0.18216(11)
C1 C 0.40817(14) 0.74314(14) 0.06960(12)
H1 H 0.4595 0.7955 0.0696
C2 C 0.40991(14) 0.66785(14) 0.06962(12)
C3 C 0.49489(16) 0.67317(16) 0.06984(17)
H2 H 0.5306 0.7129 0.0319
H3 H 0.5227 0.6959 0.1167
N1 N 0.48866(13) 0.59144(13) 0.05765(13)
H4 H 0.490(2) 0.577(2) 0.0133(8)
C4 C 0.64644(15) 0.62313(16) 0.09459(13)
C5 C 0.68061(16) 0.61594(16) 0.03019(14)
H5 H 0.6455 0.5769 -0.0054
C6 C 0.76605(16) 0.66588(17) 0.01815(15)
H6 H 0.7894 0.6611 -0.0260
C7 C 0.81841(18) 0.7230(2) 0.06963(18)
C8 C 0.7828(2) 0.7295(3) 0.1331(2)
H7 H 0.8179 0.7687 0.1686
C9 C 0.69741(19) 0.6807(2) 0.14610(18)
H8 H 0.6740 0.6865 0.1898
C10 C 0.9118(2) 0.7780(3) 0.0546(3)
H9 H 0.9270 0.8374 0.0566
H10 H 0.9246 0.7650 0.0068
H11 H 0.9440 0.7672 0.0909
S1A S 0.44028(4) 0.97758(6) 0.10952(3)
O1A O 0.52431(11) 1.03623(16) 0.08537(10)
O2A O 0.42706(14) 0.94795(19) 0.18216(11)
C1A C 0.25686(14) 0.66503(20) 0.06960(12)
H1A H 0.2045 0.6640 0.0696
C2A C 0.33215(14) 0.74206(20) 0.06962(12)
C3A C 0.32683(16) 0.82172(23) 0.06984(17)
H2A H 0.2871 0.8177 0.0319
H3A H 0.3041 0.8268 0.1167
N1A N 0.40856(13) 0.89722(18) 0.05765(13)
H4A H 0.423(2) 0.913(3) 0.0133(8)
C4A C 0.37687(16) 1.02331(22) 0.09459(13)
C5A C 0.38406(16) 1.06467(23) 0.03019(14)
H5A H 0.4231 1.0686 -0.0054
C6A C 0.33412(17) 1.10017(23) 0.01815(15)
H6A H 0.3389 1.1283 -0.0260
C7A C 0.2770(2) 1.09541(27) 0.06963(18)
C8A C 0.2705(3) 1.0533(4) 0.1331(2)
H7A H 0.2313 1.0492 0.1686
C9A C 0.3193(2) 1.01671(28) 0.14610(18)
H8A H 0.3135 0.9875 0.1898
C10A C 0.2220(3) 1.1338(4) 0.0546(3)
H9A H 0.1626 1.0896 0.0566
H10A H 0.2350 1.1596 0.0068
H11A H 0.2328 1.1768 0.0909
S1B S 0.02242(6) 0.46270(4) 0.10952(3)
O1B O -0.03623(16) 0.48808(12) 0.08537(10)
O2B O 0.05205(19) 0.47911(13) 0.18216(11)
C1B C 0.33497(20) 0.59183(14) 0.06960(12)
H1B H 0.3360 0.5405 0.0696
C2B C 0.25794(20) 0.59009(14) 0.06962(12)
C3B C 0.17828(23) 0.50511(16) 0.06984(17)
H2B H 0.1823 0.4694 0.0319
H3B H 0.1732 0.4773 0.1167
N1B N 0.10278(18) 0.51134(13) 0.05765(13)
H4B H 0.087(3) 0.510(2) 0.0133(8)
C4B C -0.02331(22) 0.35356(15) 0.09459(13)
C5B C -0.06467(23) 0.31939(16) 0.03019(14)
H5B H -0.0686 0.3545 -0.0054
C6B C -0.10017(23) 0.23395(16) 0.01815(15)
H6B H -0.1283 0.2106 -0.0260
C7B C -0.09541(27) 0.18159(18) 0.06963(18)
C8B C -0.0533(4) 0.2172(2) 0.1331(2)
H7B H -0.0492 0.1821 0.1686
C9B C -0.01671(28) 0.30259(19) 0.14610(18)
H8B H 0.0125 0.3260 0.1898
C10B C -0.1338(4) 0.0882(2) 0.0546(3)
H9B H -0.0896 0.0730 0.0566
H10B H -0.1596 0.0754 0.0068
H11B H -0.1768 0.0560 0.0909
Cl1 Cl 0.37983(7) 0.60827(7) -0.13018(7)
C11 C 0.3333 0.6667 -0.1049(3)
H12 H 0.3333 0.6667 -0.0511
Cl1A Cl 0.39173(7) 0.77156(10) -0.13018(7)
Cl1B Cl 0.22844(10) 0.62017(7) -0.13018(7)
loop_
_geom_bond_atom_site_label_1
_geom_bond_atom_site_label_2
_geom_bond_site_symmetry_1
_geom_bond_site_symmetry_2
S1 O1 1_555 1_555
O2 S1 1_555 1_555
C1 H1 1_555 1_555
C2 C1 1_555 1_555
C3 C2 1_555 1_555
H2 C3 1_555 1_555
H3 C3 1_555 1_555
N1 S1 1_555 1_555
H4 N1 1_555 1_555
C4 S1 1_555 1_555
C5 C4 1_555 1_555
H5 C5 1_555 1_555
C6 C5 1_555 1_555
H6 C6 1_555 1_555
C7 C6 1_555 1_555
C8 C7 1_555 1_555
H7 C8 1_555 1_555
C9 C4 1_555 1_555
H8 C9 1_555 1_555
C10 C7 1_555 1_555
H9 C10 1_555 1_555
H10 C10 1_555 1_555
H11 C10 1_555 1_555
Cl1 C11 1_555 1_555
C11 H12 1_555 1_555
S1A O1A 1_555 1_555
O2A S1A 1_555 1_555
C1A H1A 1_555 1_555
C2A C1 1_555 1_555
C3A C2A 1_555 1_555
H2A C3A 1_555 1_555
H3A C3A 1_555 1_555
N1A S1A 1_555 1_555
H4A N1A 1_555 1_555
C4A S1A 1_555 1_555
C5A C4A 1_555 1_555
H5A C5A 1_555 1_555
C6A C5A 1_555 1_555
H6A C6A 1_555 1_555
C7A C6A 1_555 1_555
C8A C7A 1_555 1_555
H7A C8A 1_555 1_555
C9A C4A 1_555 1_555
H8A C9A 1_555 1_555
C10A C7A 1_555 1_555
H9A C10A 1_555 1_555
H10A C10A 1_555 1_555
H11A C10A 1_555 1_555
S1B O1B 1_555 1_555
O2B S1B 1_555 1_555
C1B C2 1_555 1_555
H1B C1B 1_555 1_555
C2B C1A 1_555 1_555
C3B C2B 1_555 1_555
H2B C3B 1_555 1_555
H3B C3B 1_555 1_555
N1B S1B 1_555 1_555
H4B N1B 1_555 1_555
C4B S1B 1_555 1_555
C5B C4B 1_555 1_555
H5B C5B 1_555 1_555
C6B C5B 1_555 1_555
H6B C6B 1_555 1_555
C7B C6B 1_555 1_555
C8B C7B 1_555 1_555
H7B C8B 1_555 1_555
C9B C4B 1_555 1_555
H8B C9B 1_555 1_555
C10B C7B 1_555 1_555
H9B C10B 1_555 1_555
H10B C10B 1_555 1_555
H11B C10B 1_555 1_555
Cl1A C11 1_555 1_555
Cl1B C11 1_555 1_555
C3 N1 1_555 1_555
C8 C9 1_555 1_555
C1A C2A 1_555 1_555
C3A N1A 1_555 1_555
C8A C9A 1_555 1_555
C1B C2B 1_555 1_555
C3B N1B 1_555 1_555
C8B C9B 1_555 1_555

#END
