
#######################################################################
#
#                 Cambridge Crystallographic Data Centre
#                                CCDC 
#
#######################################################################
#
# If this CIF has been generated from an entry in the Cambridge 
# Structural Database, then it will include bibliographic, chemical, 
# crystal, experimental, refinement or atomic coordinate data resulting 
# from the CCDC's data processing and validation procedures.
#
#######################################################################

data_USUKAV
_chemical_formula_moiety         'C21 H11 Cl2 N3 O2,C3 H7 N1 O1'
_chemical_name_systematic        
'10-Chloro-6-(4-chlorophenyl)-4,7-dioxo-1,2-dihydro-4H,7H-benzo[b]imidazo[1,2,3-ij][1,8]naphthyridine-5-carbonitrile N,N-dimethylformamide solvate'
_symmetry_cell_setting           monoclinic
_symmetry_space_group_name_H-M   'P 21/c'
_symmetry_Int_Tables_number      14
_space_group_name_Hall           '-P 2ybc'
loop_
_symmetry_equiv_pos_site_id
_symmetry_equiv_pos_as_xyz
1 x,y,z
2 -x,1/2+y,1/2-z
3 -x,-y,-z
4 x,1/2-y,1/2+z
_cell_length_a                   13.130(2)
_cell_length_b                   7.7782(14)
_cell_length_c                   20.977(4)
_cell_angle_alpha                90
_cell_angle_beta                 94.569(3)
_cell_angle_gamma                90
_cell_volume                     2135.53
_exptl_crystal_colour            yellow
_exptl_crystal_description       block
_chemical_melting_point          'above 300 deg.C'
_cell_formula_units_Z            4
loop_
_atom_site_label
_atom_site_type_symbol
_atom_site_fract_x
_atom_site_fract_y
_atom_site_fract_z
Cl1 Cl 0.70594(3) 0.39301(7) 1.15760(2)
Cl2 Cl -0.09528(3) 0.23124(8) 0.78948(3)
O1 O 0.54881(9) -0.11656(17) 0.74984(6)
O2 O 0.29131(9) 0.25508(19) 0.95820(6)
N1 N 0.56139(9) 0.02419(17) 0.84450(6)
N2 N 0.59105(9) 0.14651(17) 0.93879(6)
N3 N 0.30655(12) -0.0867(2) 0.68045(8)
C1 C 0.67179(12) 0.0018(2) 0.85846(8)
H1 H 0.7095 0.0564 0.8261
H2 H 0.6898 -0.1191 0.8609
C2 C 0.69325(12) 0.0897(2) 0.92334(8)
H3 H 0.7228 0.0099 0.9552
H4 H 0.7390 0.1868 0.9203
C3 C 0.56607(12) 0.22759(19) 0.99433(7)
C4 C 0.64213(12) 0.2692(2) 1.04194(7)
H5 H 0.7105 0.2456 1.0369
C5 C 0.61314(12) 0.3460(2) 1.09659(7)
C6 C 0.51201(13) 0.3877(2) 1.10475(8)
H6 H 0.4945 0.4415 1.1419
C7 C 0.43844(12) 0.3479(2) 1.05669(7)
H7 H 0.3707 0.3764 1.0616
C8 C 0.46282(11) 0.26542(19) 1.00052(7)
C9 C 0.38061(11) 0.2225(2) 0.95013(7)
C10 C 0.41444(11) 0.13841(19) 0.89314(7)
C11 C 0.35280(11) 0.08741(19) 0.83675(7)
C12 C 0.39835(11) 0.0058(2) 0.78805(7)
C13 C 0.50671(12) -0.0361(2) 0.79036(7)
C14 C 0.51843(11) 0.10563(19) 0.89264(7)
C15 C 0.24091(11) 0.12310(19) 0.82702(7)
C16 C 0.17084(12) 0.0476(2) 0.86459(8)
H8 H 0.1937 -0.0242 0.8982
C17 C 0.06766(12) 0.0782(2) 0.85249(8)
H9 H 0.0209 0.0264 0.8775
C18 C 0.03451(12) 0.1861(2) 0.80315(8)
C19 C 0.10219(13) 0.2631(2) 0.76537(8)
H10 H 0.0789 0.3360 0.7322
C20 C 0.20541(12) 0.2304(2) 0.77747(8)
H11 H 0.2517 0.2812 0.7519
C21 C 0.34354(12) -0.0452(2) 0.72926(8)
O3 O -0.09595(14) 0.1815(3) 0.00360(9)
N4 N 0.02421(11) 0.3384(2) 0.06059(8)
C22 C -0.0479(2) 0.4228(4) 0.09804(13)
H12 H -0.1158 0.4051 0.0786
H13 H -0.0334 0.5437 0.1000
H14 H -0.0427 0.3759 0.1405
C23 C 0.13072(18) 0.3828(4) 0.07352(13)
H15 H 0.1705 0.3248 0.0436
H16 H 0.1535 0.3484 0.1162
H17 H 0.1389 0.5048 0.0693
C24 C -0.00741(18) 0.2251(3) 0.01632(11)
H18 H 0.0419 0.1746 -0.0070
loop_
_geom_bond_atom_site_label_1
_geom_bond_atom_site_label_2
_geom_bond_site_symmetry_1
_geom_bond_site_symmetry_2
Cl1 C5 1_555 1_555
Cl2 C18 1_555 1_555
O1 C13 1_555 1_555
O2 C9 1_555 1_555
O3 C24 1_555 1_555
N1 C1 1_555 1_555
N2 C2 1_555 1_555
N3 C21 1_555 1_555
N4 C22 1_555 1_555
C1 H1 1_555 1_555
H2 C1 1_555 1_555
C2 C1 1_555 1_555
H3 C2 1_555 1_555
H4 C2 1_555 1_555
C3 N2 1_555 1_555
C4 C3 1_555 1_555
H5 C4 1_555 1_555
C5 C4 1_555 1_555
C6 C5 1_555 1_555
H6 C6 1_555 1_555
C7 C6 1_555 1_555
H7 C7 1_555 1_555
C8 C3 1_555 1_555
C9 C8 1_555 1_555
C10 C9 1_555 1_555
C11 C10 1_555 1_555
C12 C11 1_555 1_555
C13 N1 1_555 1_555
C14 N1 1_555 1_555
C15 C11 1_555 1_555
C16 C15 1_555 1_555
H8 C16 1_555 1_555
C17 C16 1_555 1_555
H9 C17 1_555 1_555
C18 C17 1_555 1_555
C19 C18 1_555 1_555
H10 C19 1_555 1_555
C20 C15 1_555 1_555
H11 C20 1_555 1_555
C21 C12 1_555 1_555
C22 H12 1_555 1_555
H13 C22 1_555 1_555
H14 C22 1_555 1_555
C23 N4 1_555 1_555
H15 C23 1_555 1_555
H16 C23 1_555 1_555
H17 C23 1_555 1_555
C24 N4 1_555 1_555
H18 C24 1_555 1_555
N2 C14 1_555 1_555
C7 C8 1_555 1_555
C10 C14 1_555 1_555
C12 C13 1_555 1_555
C19 C20 1_555 1_555

#END
