
#######################################################################
#
#                 Cambridge Crystallographic Data Centre
#                                CCDC 
#
#######################################################################
#
# If this CIF has been generated from an entry in the Cambridge 
# Structural Database, then it will include bibliographic, chemical, 
# crystal, experimental, refinement or atomic coordinate data resulting 
# from the CCDC's data processing and validation procedures.
#
#######################################################################

data_USUKID
_chemical_formula_moiety         'C26 H20 N2 O4,C1 H2 Cl2'
_chemical_name_systematic        
'9-Benzyl-6a-nitro-7,8,9,13c-tetrahydrochromeno[3,4-c]carbazol-6(6aH)-one dichloromethane solvate'
_symmetry_cell_setting           triclinic
_symmetry_space_group_name_H-M   'P -1'
_symmetry_Int_Tables_number      2
_space_group_name_Hall           '-P 1'
loop_
_symmetry_equiv_pos_site_id
_symmetry_equiv_pos_as_xyz
1 x,y,z
2 -x,-y,-z
_cell_length_a                   10.7238(10)
_cell_length_b                   11.0547(10)
_cell_length_c                   11.4998(11)
_cell_angle_alpha                77.694(2)
_cell_angle_beta                 64.383(2)
_cell_angle_gamma                85.929(2)
_cell_volume                     1200.69
_exptl_crystal_colour            colorless
_exptl_crystal_description       block
_cell_formula_units_Z            2
loop_
_atom_site_label
_atom_site_type_symbol
_atom_site_fract_x
_atom_site_fract_y
_atom_site_fract_z
C1 C 0.1134(4) 0.3342(3) 0.5830(4)
C2 C 0.0766(5) 0.3312(4) 0.4820(4)
H1 H -0.0132 0.3481 0.4918
C3 C 0.1742(7) 0.3031(5) 0.3688(5)
H2 H 0.1514 0.3012 0.2999
C4 C 0.3068(6) 0.2774(4) 0.3551(4)
H3 H 0.3726 0.2568 0.2774
C5 C 0.3429(4) 0.2819(4) 0.4562(4)
H4 H 0.4335 0.2671 0.4450
C6 C 0.2448(4) 0.3082(3) 0.5734(3)
C7 C 0.2745(3) 0.3159(3) 0.6892(3)
H5 H 0.3733 0.3345 0.6573
C8 C 0.1908(3) 0.4199(3) 0.7533(3)
C9 C 0.0384(4) 0.4067(3) 0.7832(4)
C10 C 0.2074(4) 0.4308(3) 0.8758(4)
H6 H 0.3046 0.4429 0.8529
H7 H 0.1586 0.5027 0.9080
C11 C 0.1512(4) 0.3158(3) 0.9845(4)
H8 H 0.1939 0.3098 1.0446
H9 H 0.0522 0.3221 1.0339
C12 C 0.1809(3) 0.2027(3) 0.9264(3)
C13 C 0.2342(3) 0.1993(3) 0.7965(3)
C14 C 0.2473(3) 0.0708(3) 0.7863(3)
C15 C 0.1956(3) 0.0025(3) 0.9170(4)
C16 C 0.1928(4) -0.1266(4) 0.9467(4)
H10 H 0.1594 -0.1703 1.0333
C17 C 0.2413(4) -0.1862(4) 0.8431(5)
H11 H 0.2411 -0.2723 0.8600
C18 C 0.2916(4) -0.1207(4) 0.7116(4)
H12 H 0.3231 -0.1639 0.6434
C19 C 0.2943(3) 0.0055(3) 0.6838(4)
H13 H 0.3273 0.0483 0.5969
C20 C 0.0880(4) 0.0493(4) 1.1439(3)
H14 H 0.0233 -0.0187 1.1687
H15 H 0.0350 0.1188 1.1781
C21 C 0.1845(3) 0.0112(3) 1.2089(3)
C22 C 0.1289(4) -0.0486(4) 1.3384(4)
H16 H 0.0343 -0.0658 1.3833
C23 C 0.2138(5) -0.0836(4) 1.4029(4)
H17 H 0.1754 -0.1244 1.4907
C24 C 0.3523(5) -0.0588(4) 1.3387(5)
H18 H 0.4085 -0.0818 1.3824
C25 C 0.4084(4) 0.0007(4) 1.2089(4)
H19 H 0.5029 0.0184 1.1646
C26 C 0.3253(4) 0.0344(4) 1.1439(4)
H20 H 0.3646 0.0732 1.0555
N1 N 0.2427(4) 0.5448(3) 0.6566(3)
N2 N 0.1554(3) 0.0842(3) 1.0007(3)
O1 O 0.1554(3) 0.6155(3) 0.6436(3)
O2 O 0.3643(3) 0.5670(3) 0.6044(3)
O3 O 0.0081(2) 0.3617(2) 0.6986(2)
O4 O -0.0556(3) 0.4303(3) 0.8791(3)
C27 C 0.3424(6) 0.6613(8) 0.1745(6)
H21 H 0.2539 0.6847 0.1845
Cl1 Cl 0.4739(2) 0.6710(3) 0.02460(19)
Cl2 Cl 0.37544(19) 0.60859(17) 0.30405(17)
loop_
_geom_bond_atom_site_label_1
_geom_bond_atom_site_label_2
_geom_bond_site_symmetry_1
_geom_bond_site_symmetry_2
C1 C2 1_555 1_555
C2 H1 1_555 1_555
C3 C2 1_555 1_555
H2 C3 1_555 1_555
C4 C3 1_555 1_555
H3 C4 1_555 1_555
C5 C4 1_555 1_555
H4 C5 1_555 1_555
C6 C1 1_555 1_555
C7 C6 1_555 1_555
H5 C7 1_555 1_555
C8 C7 1_555 1_555
C9 C8 1_555 1_555
C10 C8 1_555 1_555
H6 C10 1_555 1_555
H7 C10 1_555 1_555
C11 C10 1_555 1_555
H8 C11 1_555 1_555
H9 C11 1_555 1_555
C12 C11 1_555 1_555
C13 C7 1_555 1_555
C14 C13 1_555 1_555
C15 C14 1_555 1_555
C16 C15 1_555 1_555
H10 C16 1_555 1_555
C17 C16 1_555 1_555
H11 C17 1_555 1_555
C18 C17 1_555 1_555
H12 C18 1_555 1_555
C19 C14 1_555 1_555
H13 C19 1_555 1_555
C20 H14 1_555 1_555
H15 C20 1_555 1_555
C21 C20 1_555 1_555
C22 C21 1_555 1_555
H16 C22 1_555 1_555
C23 C22 1_555 1_555
H17 C23 1_555 1_555
C24 C23 1_555 1_555
H18 C24 1_555 1_555
C25 C24 1_555 1_555
H19 C25 1_555 1_555
C26 C21 1_555 1_555
H20 C26 1_555 1_555
C27 H21 1_555 1_555
Cl1 C27 1_555 1_555
Cl2 C27 1_555 1_555
N1 C8 1_555 1_555
N2 C12 1_555 1_555
O1 N1 1_555 1_555
O2 N1 1_555 1_555
O3 C1 1_555 1_555
O4 C9 1_555 1_555
C5 C6 1_555 1_555
C9 O3 1_555 1_555
C12 C13 1_555 1_555
C15 N2 1_555 1_555
C18 C19 1_555 1_555
C20 N2 1_555 1_555
C25 C26 1_555 1_555

#END
