
#######################################################################
#
#                 Cambridge Crystallographic Data Centre
#                                CCDC 
#
#######################################################################
#
# If this CIF has been generated from an entry in the Cambridge 
# Structural Database, then it will include bibliographic, chemical, 
# crystal, experimental, refinement or atomic coordinate data resulting 
# from the CCDC's data processing and validation procedures.
#
#######################################################################

data_USUQIK
_chemical_formula_moiety         'C22 H15 N1 O2'
_chemical_name_systematic        
phenyl(2-(phenylimino)-2H-chromen-3-yl)methanone
_symmetry_cell_setting           monoclinic
_symmetry_space_group_name_H-M   'P 21/c'
_symmetry_Int_Tables_number      14
_space_group_name_Hall           '-P 2ybc'
loop_
_symmetry_equiv_pos_site_id
_symmetry_equiv_pos_as_xyz
1 x,y,z
2 -x,1/2+y,1/2-z
3 -x,-y,-z
4 x,1/2-y,1/2+z
_cell_length_a                   18.476(3)
_cell_length_b                   10.9715(15)
_cell_length_c                   16.715(3)
_cell_angle_alpha                90
_cell_angle_beta                 105.311(2)
_cell_angle_gamma                90
_cell_volume                     3268.03
_exptl_crystal_colour            orange
_exptl_crystal_description       block
_cell_formula_units_Z            8
loop_
_atom_site_label
_atom_site_type_symbol
_atom_site_fract_x
_atom_site_fract_y
_atom_site_fract_z
O1 O 0.35289(6) 0.65626(11) 0.63781(7)
O2 O 0.55917(7) 0.72904(11) 0.81848(8)
N1 N 0.38275(7) 0.73168(13) 0.77172(8)
C1 C 0.40056(9) 0.66624(14) 0.71718(9)
C2 C 0.47051(8) 0.59706(14) 0.73582(10)
C3 C 0.48383(9) 0.51529(15) 0.68176(10)
H1 H 0.5269 0.4676 0.6965
C4 C 0.43195(9) 0.50056(14) 0.60102(10)
C5 C 0.44323(9) 0.41866(15) 0.54153(11)
H2 H 0.4846 0.3669 0.5543
C6 C 0.39335(10) 0.41420(16) 0.46402(11)
H3 H 0.4011 0.3596 0.4245
C7 C 0.33143(11) 0.49118(17) 0.44484(11)
H4 H 0.2984 0.4885 0.3922
C8 C 0.31835(10) 0.57164(16) 0.50298(11)
H5 H 0.2766 0.6225 0.4902
C9 C 0.36857(9) 0.57498(14) 0.58067(10)
C10 C 0.31646(8) 0.80383(14) 0.75239(9)
C11 C 0.31147(9) 0.90633(16) 0.70208(10)
H6 H 0.3491 0.9224 0.6759
C12 C 0.25086(10) 0.98438(16) 0.69084(11)
H7 H 0.2485 1.0535 0.6580
C13 C 0.19372(9) 0.96056(16) 0.72797(11)
H8 H 0.1530 1.0131 0.7202
C14 C 0.19789(9) 0.85750(16) 0.77687(10)
H9 H 0.1593 0.8402 0.8013
C15 C 0.25925(9) 0.77963(15) 0.78982(10)
H10 H 0.2620 0.7114 0.8235
C16 C 0.52891(8) 0.63004(15) 0.81458(10)
C17 C 0.54978(8) 0.53953(16) 0.88265(10)
C18 C 0.51341(9) 0.42781(17) 0.87868(11)
H11 H 0.4740 0.4089 0.8329
C19 C 0.53574(11) 0.3449(2) 0.94271(12)
H12 H 0.5116 0.2700 0.9394
C20 C 0.59345(12) 0.3723(2) 1.01134(12)
H13 H 0.6076 0.3166 1.0546
C21 C 0.63032(12) 0.4829(2) 1.01572(12)
H14 H 0.6697 0.5011 1.0617
C22 C 0.60876(10) 0.56669(17) 0.95179(11)
H15 H 0.6336 0.6410 0.9550
O3 O 0.14217(6) 0.90377(10) 0.36527(7)
O4 O -0.06093(7) 0.98879(11) 0.18085(8)
N2 N 0.11341(7) 0.98478(12) 0.23243(8)
C23 C 0.09449(8) 0.91906(14) 0.28647(9)
C24 C 0.02333(8) 0.85297(14) 0.26673(9)
C25 C 0.00798(9) 0.77127(14) 0.31957(10)
H16 H -0.0361 0.7261 0.3041
C26 C 0.05925(9) 0.75278(14) 0.40019(9)
C27 C 0.04649(10) 0.67009(15) 0.45889(10)
H17 H 0.0040 0.6209 0.4457
C28 C 0.09661(10) 0.66122(16) 0.53610(10)
H18 H 0.0881 0.6058 0.5747
C29 C 0.16002(10) 0.73533(17) 0.55618(10)
H19 H 0.1930 0.7304 0.6088
C30 C 0.17475(10) 0.81639(15) 0.49873(10)
H20 H 0.2175 0.8650 0.5120
C31 C 0.12438(9) 0.82309(14) 0.42134(10)
C32 C 0.18076(8) 1.05371(14) 0.25132(10)
C33 C 0.22563(10) 1.05145(16) 0.19664(11)
H21 H 0.2132 1.0000 0.1508
C34 C 0.28886(10) 1.12496(17) 0.20945(12)
H22 H 0.3191 1.1212 0.1730
C35 C 0.30679(10) 1.20378(16) 0.27632(12)
H23 H 0.3486 1.2542 0.2846
C36 C 0.26208(10) 1.20689(17) 0.33064(12)
H24 H 0.2741 1.2598 0.3757
C37 C 0.19958(10) 1.13236(16) 0.31910(11)
H25 H 0.1703 1.1349 0.3565
C38 C -0.03345(8) 0.88726(14) 0.18710(10)
C39 C -0.05576(8) 0.79475(15) 0.12016(9)
C40 C -0.11376(9) 0.82261(16) 0.05016(11)
H26 H -0.1376 0.8979 0.0460
C41 C -0.13568(11) 0.73797(19) -0.01295(11)
H27 H -0.1744 0.7564 -0.0596
C42 C -0.10020(11) 0.62578(18) -0.00701(11)
H28 H -0.1152 0.5691 -0.0496
C43 C -0.04252(10) 0.59781(16) 0.06202(11)
H29 H -0.0187 0.5225 0.0658
C44 C -0.02009(9) 0.68203(15) 0.12572(10)
H30 H 0.0187 0.6632 0.1721
loop_
_geom_bond_atom_site_label_1
_geom_bond_atom_site_label_2
_geom_bond_site_symmetry_1
_geom_bond_site_symmetry_2
O1 C1 1_555 1_555
O2 C16 1_555 1_555
N1 C1 1_555 1_555
C1 C2 1_555 1_555
C2 C3 1_555 1_555
C3 H1 1_555 1_555
C4 C3 1_555 1_555
C5 C4 1_555 1_555
H2 C5 1_555 1_555
C6 C5 1_555 1_555
H3 C6 1_555 1_555
C7 C6 1_555 1_555
H4 C7 1_555 1_555
C8 C7 1_555 1_555
H5 C8 1_555 1_555
C9 O1 1_555 1_555
C10 N1 1_555 1_555
C11 C10 1_555 1_555
H6 C11 1_555 1_555
C12 C11 1_555 1_555
H7 C12 1_555 1_555
C13 C12 1_555 1_555
H8 C13 1_555 1_555
C14 C13 1_555 1_555
H9 C14 1_555 1_555
C15 C10 1_555 1_555
H10 C15 1_555 1_555
C16 C2 1_555 1_555
C17 C16 1_555 1_555
C18 C17 1_555 1_555
H11 C18 1_555 1_555
C19 C18 1_555 1_555
H12 C19 1_555 1_555
C20 C19 1_555 1_555
H13 C20 1_555 1_555
C21 C20 1_555 1_555
H14 C21 1_555 1_555
C22 C17 1_555 1_555
H15 C22 1_555 1_555
O3 C23 1_555 1_555
O4 C38 1_555 1_555
N2 C23 1_555 1_555
C23 C24 1_555 1_555
C24 C25 1_555 1_555
C25 H16 1_555 1_555
C26 C25 1_555 1_555
C27 C26 1_555 1_555
H17 C27 1_555 1_555
C28 C27 1_555 1_555
H18 C28 1_555 1_555
C29 C28 1_555 1_555
H19 C29 1_555 1_555
C30 C29 1_555 1_555
H20 C30 1_555 1_555
C31 O3 1_555 1_555
C32 N2 1_555 1_555
C33 C32 1_555 1_555
H21 C33 1_555 1_555
C34 C33 1_555 1_555
H22 C34 1_555 1_555
C35 C34 1_555 1_555
H23 C35 1_555 1_555
C36 C35 1_555 1_555
H24 C36 1_555 1_555
C37 C32 1_555 1_555
H25 C37 1_555 1_555
C38 C24 1_555 1_555
C39 C38 1_555 1_555
C40 C39 1_555 1_555
H26 C40 1_555 1_555
C41 C40 1_555 1_555
H27 C41 1_555 1_555
C42 C41 1_555 1_555
H28 C42 1_555 1_555
C43 C42 1_555 1_555
H29 C43 1_555 1_555
C44 C39 1_555 1_555
H30 C44 1_555 1_555
C4 C9 1_555 1_555
C8 C9 1_555 1_555
C14 C15 1_555 1_555
C21 C22 1_555 1_555
C26 C31 1_555 1_555
C30 C31 1_555 1_555
C36 C37 1_555 1_555
C43 C44 1_555 1_555

#END
