
#######################################################################
#
#                 Cambridge Crystallographic Data Centre
#                                CCDC 
#
#######################################################################
#
# If this CIF has been generated from an entry in the Cambridge 
# Structural Database, then it will include bibliographic, chemical, 
# crystal, experimental, refinement or atomic coordinate data resulting 
# from the CCDC's data processing and validation procedures.
#
#######################################################################

data_USUZOZ
_chemical_formula_moiety         'C18 H27 N1 O4 S1,0.5(H2 O1)'
_chemical_name_systematic        
'methyl (2S,3S,4S)-1-((R)-t-butylsulfinyl)-4-(hydroxymethyl)-2-methyl-2-phenylpyrrolidine-3-carboxylate hemihydrate'
_symmetry_cell_setting           monoclinic
_symmetry_space_group_name_H-M   'C 2'
_symmetry_Int_Tables_number      5
_space_group_name_Hall           'C 2y'
loop_
_symmetry_equiv_pos_site_id
_symmetry_equiv_pos_as_xyz
1 x,y,z
2 -x,y,-z
3 1/2+x,1/2+y,z
4 1/2-x,1/2+y,-z
_cell_length_a                   24.5290(9)
_cell_length_b                   6.2304(2)
_cell_length_c                   12.3685(4)
_cell_angle_alpha                90
_cell_angle_beta                 92.552(2)
_cell_angle_gamma                90
_cell_volume                     1888.35
_exptl_crystal_colour            colorless
_exptl_crystal_description       plate
_cell_formula_units_Z            4
loop_
_atom_site_label
_atom_site_type_symbol
_atom_site_fract_x
_atom_site_fract_y
_atom_site_fract_z
N1 N 0.10242(14) 0.3134(5) 0.7917(3)
C1 C 0.16074(16) 0.2885(6) 0.7620(3)
C2 C 0.17816(17) 0.1100(7) 0.8440(3)
H1 H 0.1623 -0.0289 0.8170
C3 C 0.15024(19) 0.1702(7) 0.9481(3)
H2 H 0.1736 0.2755 0.9899
C4 C 0.0975(2) 0.2796(8) 0.9093(3)
H3 H 0.0657 0.1877 0.9232
H4 H 0.0931 0.4185 0.9468
S1 S 0.06786(4) 0.51089(16) 0.72942(7)
O1 O 0.06756(16) 0.7084(5) 0.7979(3)
C5 C -0.00305(17) 0.4103(7) 0.7258(4)
C6 C -0.0337(2) 0.5705(10) 0.6524(4)
H5 H -0.0707 0.5171 0.6354
H6 H -0.0144 0.5881 0.5853
H7 H -0.0357 0.7091 0.6894
C7 C -0.0273(2) 0.4157(12) 0.8374(5)
H8 H -0.0665 0.3849 0.8301
H9 H -0.0218 0.5582 0.8695
H10 H -0.0093 0.3075 0.8841
C8 C -0.0035(2) 0.1877(11) 0.6783(7)
H11 H -0.0410 0.1334 0.6731
H12 H 0.0191 0.0926 0.7249
H13 H 0.0112 0.1922 0.6059
C9 C 0.16253(14) 0.2105(7) 0.6443(3)
C10 C 0.13227(15) 0.0307(8) 0.6116(3)
H14 H 0.1100 -0.0392 0.6617
C11 C 0.13420(18) -0.0473(8) 0.5069(4)
H15 H 0.1133 -0.1698 0.4855
C12 C 0.16700(19) 0.0552(10) 0.4329(3)
H16 H 0.1679 0.0044 0.3606
C13 C 0.19755(19) 0.2278(9) 0.4650(4)
H17 H 0.2208 0.2937 0.4154
C14 C 0.19523(17) 0.3098(8) 0.5698(3)
H18 H 0.2160 0.4332 0.5903
C15 C 0.19337(17) 0.4945(7) 0.7839(4)
H19 H 0.1801 0.6073 0.7342
H20 H 0.2321 0.4674 0.7729
H21 H 0.1888 0.5408 0.8587
C16 C 0.23939(18) 0.0808(6) 0.8611(4)
O2 O 0.26317(14) 0.0847(6) 0.9481(3)
O3 O 0.26315(12) 0.0480(6) 0.7693(3)
C17 C 0.32195(18) 0.0245(12) 0.7782(4)
H22 H 0.3367 0.0326 0.7060
H23 H 0.3313 -0.1148 0.8109
H24 H 0.3376 0.1397 0.8236
C18 C 0.1414(2) -0.0271(8) 1.0181(4)
H25 H 0.1195 -0.1338 0.9756
H26 H 0.1771 -0.0929 1.0381
O4 O 0.1156(3) 0.0210(14) 1.1086(4)
H27 H 0.0823 -0.0092 1.0999
O5 O 0.0179(3) -0.1063(13) 0.9890(7)
H28? H 0.1731 -0.1233 1.0114
H29? H 0.1412 0.0203 1.0944
O6? O 0.0942(3) -0.1472(14) 0.9961(7)
H30? H 0.0949 -0.1987 0.9334
loop_
_geom_bond_atom_site_label_1
_geom_bond_atom_site_label_2
_geom_bond_site_symmetry_1
_geom_bond_site_symmetry_2
N1 C1 1_555 1_555
C1 C2 1_555 1_555
C2 H1 1_555 1_555
C3 C2 1_555 1_555
H2 C3 1_555 1_555
C4 N1 1_555 1_555
H3 C4 1_555 1_555
H4 C4 1_555 1_555
S1 N1 1_555 1_555
O1 S1 1_555 1_555
C5 S1 1_555 1_555
C6 C5 1_555 1_555
H5 C6 1_555 1_555
H6 C6 1_555 1_555
H7 C6 1_555 1_555
C7 C5 1_555 1_555
H8 C7 1_555 1_555
H9 C7 1_555 1_555
H10 C7 1_555 1_555
C8 C5 1_555 1_555
H11 C8 1_555 1_555
H12 C8 1_555 1_555
H13 C8 1_555 1_555
C9 C1 1_555 1_555
C10 C9 1_555 1_555
H14 C10 1_555 1_555
C11 C10 1_555 1_555
H15 C11 1_555 1_555
C12 C11 1_555 1_555
H16 C12 1_555 1_555
C13 C12 1_555 1_555
H17 C13 1_555 1_555
C14 C9 1_555 1_555
H18 C14 1_555 1_555
C15 C1 1_555 1_555
H19 C15 1_555 1_555
H20 C15 1_555 1_555
H21 C15 1_555 1_555
C16 C2 1_555 1_555
O2 C16 1_555 1_555
O3 C16 1_555 1_555
C17 O3 1_555 1_555
H22 C17 1_555 1_555
H23 C17 1_555 1_555
H24 C17 1_555 1_555
C18 C3 1_555 1_555
H25 C18 1_555 1_555
H26 C18 1_555 1_555
O4 C18 1_555 1_555
H27 O4 1_555 1_555
C3 C4 1_555 1_555
C13 C14 1_555 1_555

#END
