
#######################################################################
#
#                 Cambridge Crystallographic Data Centre
#                                CCDC 
#
#######################################################################
#
# If this CIF has been generated from an entry in the Cambridge 
# Structural Database, then it will include bibliographic, chemical, 
# crystal, experimental, refinement or atomic coordinate data resulting 
# from the CCDC's data processing and validation procedures.
#
#######################################################################

data_UTACIC
_chemical_formula_moiety         'C37 H28 N10 O6,2(H2 O1)'
_chemical_name_systematic        
'Benzyl (6-((6-((6-((6-(pyridin-2-ylcarbamoyl)pyridin-2-yl)carbamoyl)pyridin-2-yl)carbamoyl)pyridin-2-yl)carbamoyl)pyridin-2-yl)carbamate dihydrate'
_symmetry_cell_setting           monoclinic
_symmetry_space_group_name_H-M   'P 21/n'
_symmetry_Int_Tables_number      14
_space_group_name_Hall           '-P 2yn'
loop_
_symmetry_equiv_pos_site_id
_symmetry_equiv_pos_as_xyz
1 x,y,z
2 1/2-x,1/2+y,1/2-z
3 -x,-y,-z
4 1/2+x,1/2-y,1/2+z
_cell_length_a                   8.0823(7)
_cell_length_b                   16.6905(14)
_cell_length_c                   25.880(2)
_cell_angle_alpha                90
_cell_angle_beta                 97.306(2)
_cell_angle_gamma                90
_cell_volume                     3462.81
_exptl_crystal_colour            colorless
_exptl_crystal_description       block
_cell_formula_units_Z            4
loop_
_atom_site_label
_atom_site_type_symbol
_atom_site_fract_x
_atom_site_fract_y
_atom_site_fract_z
O1 O 1.20600(17) 0.24281(9) 0.16219(6)
O2 O 0.40671(18) 0.08128(9) 0.01287(5)
O3 O 0.04971(18) -0.07981(9) 0.24850(6)
O4 O 0.55953(17) 0.17819(8) 0.44592(5)
O5 O 0.90114(16) 0.42323(8) 0.23652(5)
O6 O 0.76199(19) 0.34440(9) 0.17451(5)
N1 N 1.00314(18) 0.14908(9) 0.29275(6)
N2 N 1.01705(19) 0.17934(10) 0.20732(6)
H1 H 0.923(3) 0.1531(14) 0.2013(9)
N3 N 0.82216(18) 0.14647(9) 0.12114(6)
N4 N 0.56944(19) 0.09302(9) 0.09182(6)
H2 H 0.566(2) 0.0882(11) 0.1233(8)
N5 N 0.32554(18) 0.03166(9) 0.14074(6)
N6 N 0.24841(19) 0.00117(9) 0.22012(6)
H3 H 0.341(3) 0.0268(14) 0.2328(9)
N7 N 0.36026(18) 0.04310(8) 0.31608(6)
N8 N 0.54157(18) 0.12774(9) 0.36301(6)
H4 H 0.565(3) 0.1401(13) 0.3316(9)
N9 N 0.68371(17) 0.25504(8) 0.32953(5)
N10 N 0.75403(18) 0.31118(9) 0.25568(5)
H5 H 0.686(3) 0.2749(13) 0.2380(8)
C1 C 1.0473(2) 0.16080(13) 0.34395(8)
H6 H 0.9954 0.1290 0.3678
C2 C 1.1640(3) 0.21665(13) 0.36368(9)
H7 H 1.1911 0.2238 0.4002
C3 C 1.2406(3) 0.26200(13) 0.32874(9)
H8 H 1.3215 0.3010 0.3413
C4 C 1.2000(2) 0.25084(12) 0.27573(9)
H9 H 1.2528 0.2809 0.2513
C5 C 1.0781(2) 0.19365(11) 0.25946(8)
C6 C 1.0754(2) 0.20590(11) 0.16341(8)
C7 C 0.9614(2) 0.18637(11) 0.11447(7)
C8 C 0.9993(2) 0.21065(12) 0.06622(8)
H10 H 1.0988 0.2395 0.0629
C9 C 0.8874(3) 0.19148(12) 0.02284(8)
H11 H 0.9107 0.2064 -0.0109
C10 C 0.7423(2) 0.15080(12) 0.02858(7)
H12 H 0.6645 0.1372 -0.0008
C11 C 0.7137(2) 0.13030(10) 0.07925(7)
C12 C 0.4291(2) 0.07224(10) 0.05990(7)
C13 C 0.2971(2) 0.03454(10) 0.08848(7)
C14 C 0.1532(2) 0.00460(11) 0.06006(8)
H13 H 0.1373 0.0072 0.0231
C15 C 0.0336(2) -0.02919(12) 0.08705(8)
H14 H -0.0660 -0.0502 0.0686
C16 C 0.0589(2) -0.03236(11) 0.14077(8)
H15 H -0.0222 -0.0551 0.1600
C17 C 0.2092(2) -0.00070(10) 0.16606(7)
C18 C 0.1701(2) -0.03603(11) 0.25709(8)
C19 C 0.2482(2) -0.01636(10) 0.31157(7)
C20 C 0.2010(3) -0.05759(11) 0.35395(8)
H16 H 0.1218 -0.0999 0.3494
C21 C 0.2733(3) -0.03473(11) 0.40303(8)
H17 H 0.2448 -0.0621 0.4329
C22 C 0.3872(2) 0.02776(11) 0.40907(7)
H18 H 0.4363 0.0447 0.4426
C23 C 0.4270(2) 0.06493(10) 0.36362(7)
C24 C 0.5882(2) 0.18228(11) 0.40081(7)
C25 C 0.6836(2) 0.25175(10) 0.38112(7)
C26 C 0.7642(2) 0.30719(10) 0.41544(7)
H19 H 0.7605 0.3035 0.4519
C27 C 0.8507(2) 0.36839(11) 0.39414(7)
H20 H 0.9082 0.4073 0.4164
C28 C 0.8540(2) 0.37322(10) 0.34115(7)
H21 H 0.9135 0.4146 0.3264
C29 C 0.7657(2) 0.31441(10) 0.30972(6)
C30 C 0.8135(2) 0.36536(11) 0.22409(7)
C31 C 0.7904(5) 0.4050(3) 0.13617(13)
H22 H 0.9085 0.4039 0.1297
H23 H 0.7656 0.4588 0.1493
C32 C 0.6776(4) 0.3875(2) 0.08613(8)
C33 C 0.6725(3) 0.44171(18) 0.04518(10)
H24 H 0.7412 0.4881 0.0485
C34 C 0.5668(4) 0.42807(19) -0.00068(9)
H25 H 0.5632 0.4651 -0.0287
C35 C 0.4662(3) 0.3602(2) -0.00558(10)
H26 H 0.3940 0.3509 -0.0369
C36 C 0.4714(4) 0.30604(17) 0.03537(14)
H27 H 0.4027 0.2597 0.0320
C37 C 0.5771(5) 0.31967(19) 0.08122(11)
H28 H 0.5806 0.2826 0.1092
O7 O 0.54179(17) 0.19913(9) 0.19739(5)
H29 H 0.559(3) 0.1554(18) 0.2188(11)
H30 H 0.428(4) 0.2062(18) 0.1902(11)
O8 O 0.6861(2) 0.08341(10) 0.26126(7)
H31 H 0.799(4) 0.0962(18) 0.2708(11)
H32 H 0.681(4) 0.030(2) 0.2572(13)
C38? C 0.8227(6) 0.3888(3) 0.13248(14)
C39? C 0.7052(5) 0.3676(2) 0.08414(10)
C40? C 0.7382(4) 0.4015(2) 0.03746(11)
C41? C 0.6328(4) 0.3862(2) -0.00822(10)
C42? C 0.4944(4) 0.3371(2) -0.00722(12)
C43? C 0.4614(4) 0.3032(2) 0.03946(16)
C44? C 0.5668(5) 0.3185(2) 0.08514(12)
H33? H 0.9384 0.3729 0.1285
H34? H 0.8204 0.4472 0.1393
H35? H 0.8328 0.4351 0.0368
H36? H 0.6554 0.4093 -0.0401
H37? H 0.4224 0.3266 -0.0384
H38? H 0.3668 0.2696 0.0401
H39? H 0.5443 0.2953 0.1170
loop_
_geom_bond_atom_site_label_1
_geom_bond_atom_site_label_2
_geom_bond_site_symmetry_1
_geom_bond_site_symmetry_2
O1 C6 1_555 1_555
O2 C12 1_555 1_555
O3 C18 1_555 1_555
O4 C24 1_555 1_555
O5 C30 1_555 1_555
O6 C30 1_555 1_555
N1 C1 1_555 1_555
N2 H1 1_555 1_555
N3 C7 1_555 1_555
N4 H2 1_555 1_555
N5 C13 1_555 1_555
N6 H3 1_555 1_555
N7 C19 1_555 1_555
N8 H4 1_555 1_555
N9 C25 1_555 1_555
N10 H5 1_555 1_555
C1 H6 1_555 1_555
C2 C1 1_555 1_555
H7 C2 1_555 1_555
C3 C2 1_555 1_555
H8 C3 1_555 1_555
C4 C3 1_555 1_555
H9 C4 1_555 1_555
C5 N1 1_555 1_555
C6 N2 1_555 1_555
C7 C6 1_555 1_555
C8 C7 1_555 1_555
H10 C8 1_555 1_555
C9 C8 1_555 1_555
H11 C9 1_555 1_555
C10 C9 1_555 1_555
H12 C10 1_555 1_555
C11 N3 1_555 1_555
C12 N4 1_555 1_555
C13 C12 1_555 1_555
C14 C13 1_555 1_555
H13 C14 1_555 1_555
C15 C14 1_555 1_555
H14 C15 1_555 1_555
C16 C15 1_555 1_555
H15 C16 1_555 1_555
C17 N5 1_555 1_555
C18 N6 1_555 1_555
C19 C18 1_555 1_555
C20 C19 1_555 1_555
H16 C20 1_555 1_555
C21 C20 1_555 1_555
H17 C21 1_555 1_555
C22 C21 1_555 1_555
H18 C22 1_555 1_555
C23 N7 1_555 1_555
C24 N8 1_555 1_555
C25 C24 1_555 1_555
C26 C25 1_555 1_555
H19 C26 1_555 1_555
C27 C26 1_555 1_555
H20 C27 1_555 1_555
C28 C27 1_555 1_555
H21 C28 1_555 1_555
C29 N9 1_555 1_555
C30 N10 1_555 1_555
C31 O6 1_555 1_555
H22 C31 1_555 1_555
H23 C31 1_555 1_555
C32 C31 1_555 1_555
C33 C32 1_555 1_555
H24 C33 1_555 1_555
C34 C33 1_555 1_555
H25 C34 1_555 1_555
C35 C34 1_555 1_555
H26 C35 1_555 1_555
C36 C35 1_555 1_555
H27 C36 1_555 1_555
C37 C32 1_555 1_555
H28 C37 1_555 1_555
O7 H29 1_555 1_555
H30 O7 1_555 1_555
O8 H31 1_555 1_555
H32 O8 1_555 1_555
N2 C5 1_555 1_555
N4 C11 1_555 1_555
N6 C17 1_555 1_555
N8 C23 1_555 1_555
N10 C29 1_555 1_555
C4 C5 1_555 1_555
C10 C11 1_555 1_555
C16 C17 1_555 1_555
C22 C23 1_555 1_555
C28 C29 1_555 1_555
C36 C37 1_555 1_555

#END
