
#######################################################################
#
#                 Cambridge Crystallographic Data Centre
#                                CCDC 
#
#######################################################################
#
# If this CIF has been generated from an entry in the Cambridge 
# Structural Database, then it will include bibliographic, chemical, 
# crystal, experimental, refinement or atomic coordinate data resulting 
# from the CCDC's data processing and validation procedures.
#
#######################################################################

data_UTACEY
_chemical_formula_moiety         'C33 H26 N8 O7,C1 H2 Cl2'
_chemical_name_systematic        
'Methyl 6-(((6-(((6-(((6-(((benzyloxy)carbonyl)amino)pyridin-2-yl)carbonyl)amino)pyridin-2-yl)carbonyl)amino)pyridin-2-yl)carbonyl)amino)pyridine-2-carboxylate dichloromethane solvate'
_symmetry_cell_setting           monoclinic
_symmetry_space_group_name_H-M   'P 21/n'
_symmetry_Int_Tables_number      14
_space_group_name_Hall           '-P 2yn'
loop_
_symmetry_equiv_pos_site_id
_symmetry_equiv_pos_as_xyz
1 x,y,z
2 1/2-x,1/2+y,1/2-z
3 -x,-y,-z
4 1/2+x,1/2-y,1/2+z
_cell_length_a                   14.2827(5)
_cell_length_b                   18.5948(8)
_cell_length_c                   25.6428(10)
_cell_angle_alpha                90
_cell_angle_beta                 101.1340(10)
_cell_angle_gamma                90
_cell_volume                     6682.13
_exptl_crystal_colour            colorless
_exptl_crystal_description       rod
_cell_formula_units_Z            8
loop_
_atom_site_label
_atom_site_type_symbol
_atom_site_fract_x
_atom_site_fract_y
_atom_site_fract_z
Cl1 Cl 0.27124(10) 0.32381(6) 0.02970(6)
Cl2 Cl 0.31393(9) 0.44374(6) -0.03201(6)
C67 C 0.3063(3) 0.41314(19) 0.03204(17)
H53 H 0.3686 0.4182 0.0557
H54 H 0.2601 0.4425 0.0463
Cl3 Cl 0.87952(6) 0.13655(5) 0.00525(3)
Cl4 Cl 0.69276(7) 0.11402(5) 0.03191(4)
C68 C 0.7810(2) 0.17694(15) 0.02558(12)
H55 H 0.8025 0.2010 0.0598
H56 H 0.7537 0.2135 -0.0005
O1 O 0.79297(15) 0.33362(10) 0.97436(9)
O2 O 0.78503(18) 0.42705(11) 0.91904(11)
O3 O 0.69426(15) 0.06673(11) 0.78951(8)
O4 O 0.89562(15) -0.18348(9) 1.01382(8)
O5 O 1.04201(17) 0.09571(11) 1.22657(7)
O6 O 1.05982(16) 0.41833(9) 1.05192(8)
O7 O 1.02668(14) 0.35370(8) 0.97648(7)
N1 N 0.76892(15) 0.23923(11) 0.89395(9)
N2 N 0.75847(16) 0.12075(12) 0.86833(10)
H1 H 0.7791(19) 0.1132(14) 0.8989(11)
N3 N 0.79604(14) -0.00819(10) 0.91436(8)
N4 N 0.86403(16) -0.06587(12) 0.99091(8)
H2 H 0.8741(17) -0.0248(14) 1.0036(10)
N5 N 0.95640(14) -0.02205(10) 1.08557(8)
N6 N 1.00380(15) 0.07636(11) 1.13703(8)
H3 H 0.9925(17) 0.1003(13) 1.1092(10)
N7 N 1.02785(14) 0.21501(10) 1.11812(8)
N8 N 1.02975(17) 0.29774(11) 1.05285(9)
H4 H 1.0269(17) 0.2630(13) 1.0342(10)
C1 C 0.8044(3) 0.38369(17) 1.01853(15)
H9 H 0.8571 0.4160 1.0168
H10 H 0.8175 0.3572 1.0517
H11 H 0.7462 0.4114 1.0165
C2 C 0.7843(2) 0.36330(15) 0.92643(15)
C3 C 0.77401(19) 0.30945(15) 0.88237(13)
C4 C 0.7692(2) 0.33531(17) 0.83169(15)
H12 H 0.7723 0.3849 0.8252
C5 C 0.7598(2) 0.28638(19) 0.79089(14)
H13 H 0.7566 0.3025 0.7559
C6 C 0.7550(2) 0.21429(17) 0.80083(12)
H14 H 0.7487 0.1803 0.7732
C7 C 0.75977(18) 0.19315(14) 0.85351(11)
C8 C 0.73114(18) 0.06308(14) 0.83649(11)
C9 C 0.74953(17) -0.00827(14) 0.86375(10)
C10 C 0.71993(19) -0.07047(15) 0.83595(11)
H15 H 0.6891 -0.0687 0.8001
C11 C 0.7370(2) -0.13500(15) 0.86224(12)
H16 H 0.7165 -0.1781 0.8445
C12 C 0.78359(19) -0.13691(14) 0.91422(11)
H17 H 0.7950 -0.1806 0.9328
C13 C 0.81351(17) -0.07152(13) 0.93859(10)
C14 C 0.90123(18) -0.11964(13) 1.02471(10)
C15 C 0.95053(17) -0.09334(13) 1.07840(10)
C16 C 0.9848(2) -0.14284(14) 1.11764(11)
H18 H 0.9811 -0.1925 1.1107
C17 C 1.0246(2) -0.11666(15) 1.16734(11)
H19 H 1.0473 -0.1488 1.1952
C18 C 1.03122(19) -0.04398(15) 1.17628(10)
H20 H 1.0579 -0.0255 1.2100
C19 C 0.99672(17) 0.00181(13) 1.13340(9)
C20 C 1.02719(19) 0.11815(14) 1.18137(10)
C21 C 1.03290(17) 0.19701(14) 1.16928(9)
C22 C 1.04402(18) 0.24599(15) 1.21020(10)
H21 H 1.0461 0.2313 1.2455
C23 C 1.05196(19) 0.31745(15) 1.19753(10)
H22 H 1.0601 0.3525 1.2245
C24 C 1.04808(19) 0.33754(14) 1.14570(10)
H23 H 1.0537 0.3861 1.1366
C25 C 1.03556(17) 0.28402(13) 1.10675(9)
C26 C 1.04129(19) 0.36188(13) 1.02966(10)
C27 C 1.0383(2) 0.41856(13) 0.94752(11)
H24 H 1.1011 0.4398 0.9610
H25 H 0.9893 0.4537 0.9520
C28 C 1.02906(19) 0.39964(13) 0.89002(11)
C29 C 0.9790(2) 0.44529(15) 0.85213(12)
H26 H 0.9498 0.4866 0.8628
C30 C 0.9716(3) 0.43084(18) 0.79877(13)
H27 H 0.9395 0.4632 0.7733
C31 C 1.0108(3) 0.36952(19) 0.78288(13)
H28 H 1.0040 0.3588 0.7465
C32 C 1.0603(3) 0.3236(2) 0.82053(15)
H29 H 1.0878 0.2815 0.8098
C33 C 1.0697(3) 0.33889(16) 0.87368(13)
H30 H 1.1043 0.3075 0.8991
O8 O 0.81487(18) 0.33783(18) 0.20195(11)
O9 O 0.80560(17) 0.28426(13) 0.12360(10)
O10 O 0.79987(18) -0.06292(17) 0.21864(9)
O11 O 0.54324(16) -0.16171(11) -0.05582(9)
O12 O 0.50504(16) 0.21240(11) -0.17351(7)
O13 O 0.58107(17) 0.40588(12) 0.09042(8)
O14 O 0.57889(14) 0.30099(11) 0.13484(7)
N9 N 0.79084(16) 0.15297(17) 0.17031(10)
N10 N 0.77193(18) 0.03125(17) 0.16119(11)
H5 H 0.756(2) 0.0407(15) 0.1312(12)
N11 N 0.69566(16) -0.06005(13) 0.08179(9)
N12 N 0.61557(17) -0.06963(13) -0.00416(9)
H6 H 0.6222(19) -0.0248(16) -0.0032(11)
N13 N 0.54751(14) 0.02562(11) -0.07850(8)
N14 N 0.53952(16) 0.14539(12) -0.09789(9)
H7 H 0.5565(17) 0.1483(12) -0.0652(10)
N15 N 0.55065(14) 0.26105(11) -0.03814(8)
N16 N 0.56618(17) 0.29750(13) 0.04777(9)
H8 H 0.558(2) 0.2552(16) 0.0540(11)
C34 C 0.8194(3) 0.4059(3) 0.1770(2)
H31 H 0.8768 0.4082 0.1620
H32 H 0.8208 0.4438 0.2031
H33 H 0.7639 0.4118 0.1489
C35 C 0.8079(2) 0.2803(2) 0.17066(15)
C36 C 0.8047(2) 0.2121(2) 0.20052(13)
C37 C 0.8172(3) 0.2111(3) 0.25540(16)
H34 H 0.8269 0.2538 0.2753
C38 C 0.8148(3) 0.1456(4) 0.27972(16)
H35 H 0.8223 0.1432 0.3169
C39 C 0.8016(3) 0.0841(3) 0.25055(13)
H36 H 0.8006 0.0389 0.2669
C40 C 0.7894(2) 0.0904(2) 0.19515(12)
C41 C 0.7734(2) -0.0400(2) 0.17364(13)
C42 C 0.7376(2) -0.08966(18) 0.12816(13)
C43 C 0.7453(2) -0.1628(2) 0.13624(17)
H37 H 0.7747 -0.1814 0.1694
C44 C 0.7093(3) -0.2078(2) 0.09487(19)
H38 H 0.7147 -0.2579 0.0993
C45 C 0.6651(2) -0.17922(17) 0.04690(15)
H39 H 0.6395 -0.2090 0.0181
C46 C 0.6596(2) -0.10480(15) 0.04248(12)
C47 C 0.5619(2) -0.09805(15) -0.04870(12)
C48 C 0.52629(18) -0.04332(15) -0.09133(11)
C49 C 0.4772(2) -0.06499(16) -0.14021(12)
H40 H 0.4620 -0.1136 -0.1474
C50 C 0.4510(2) -0.01233(17) -0.17845(11)
H41 H 0.4178 -0.0253 -0.2124
C51 C 0.47291(19) 0.05821(16) -0.16739(10)
H42 H 0.4569 0.0940 -0.1935
C52 C 0.52007(18) 0.07520(14) -0.11588(10)
C53 C 0.52652(18) 0.20807(15) -0.12539(10)
C54 C 0.53861(17) 0.27358(14) -0.09027(10)
C55 C 0.5337(2) 0.34172(15) -0.11216(11)
H43 H 0.5255 0.3486 -0.1491
C56 C 0.5413(2) 0.39920(16) -0.07761(13)
H44 H 0.5390 0.4464 -0.0909
C57 C 0.5522(2) 0.38791(15) -0.02392(12)
H45 H 0.5567 0.4268 -0.0002
C58 C 0.55640(18) 0.31736(14) -0.00550(10)
C59 C 0.57561(19) 0.34130(16) 0.09085(11)
C60 C 0.5732(2) 0.34124(18) 0.18275(11)
H46 H 0.6192 0.3809 0.1868
H47 H 0.5900 0.3097 0.2137
C61 C 0.47478(19) 0.37085(15) 0.18057(10)
C62 C 0.3982(2) 0.32515(18) 0.17357(15)
H48 H 0.4077 0.2754 0.1706
C63 C 0.3077(3) 0.3515(2) 0.17085(18)
H49 H 0.2557 0.3196 0.1663
C64 C 0.2925(2) 0.4234(2) 0.17474(14)
H50 H 0.2302 0.4412 0.1724
C65 C 0.3682(3) 0.46957(19) 0.18205(13)
H51 H 0.3582 0.5192 0.1850
C66 C 0.4587(2) 0.44344(16) 0.18499(11)
H52 H 0.5106 0.4755 0.1901
loop_
_geom_bond_atom_site_label_1
_geom_bond_atom_site_label_2
_geom_bond_site_symmetry_1
_geom_bond_site_symmetry_2
Cl1 C67 1_555 1_555
Cl2 C67 1_555 1_555
Cl3 C68 1_555 1_555
Cl4 C68 1_555 1_555
O1 C1 1_555 1_555
O2 C2 1_555 1_555
O3 C8 1_555 1_555
O4 C14 1_555 1_555
O5 C20 1_555 1_555
O6 C26 1_555 1_555
O7 C26 1_555 1_555
O8 C34 1_555 1_555
O9 C35 1_555 1_555
O10 C41 1_555 1_555
O11 C47 1_555 1_555
O12 C53 1_555 1_555
O13 C59 1_555 1_555
O14 C59 1_555 1_555
N1 C3 1_555 1_555
N2 H1 1_555 1_555
N3 C9 1_555 1_555
N4 H2 1_555 1_555
N5 C15 1_555 1_555
N6 H3 1_555 1_555
N7 C21 1_555 1_555
N8 H4 1_555 1_555
N9 C36 1_555 1_555
N10 H5 1_555 1_555
N11 C42 1_555 1_555
N12 H6 1_555 1_555
N13 C48 1_555 1_555
N14 H7 1_555 1_555
N15 C54 1_555 1_555
N16 H8 1_555 1_555
C1 H9 1_555 1_555
H10 C1 1_555 1_555
H11 C1 1_555 1_555
C2 O1 1_555 1_555
C3 C2 1_555 1_555
C4 C3 1_555 1_555
H12 C4 1_555 1_555
C5 C4 1_555 1_555
H13 C5 1_555 1_555
C6 C5 1_555 1_555
H14 C6 1_555 1_555
C7 N1 1_555 1_555
C8 N2 1_555 1_555
C9 C8 1_555 1_555
C10 C9 1_555 1_555
H15 C10 1_555 1_555
C11 C10 1_555 1_555
H16 C11 1_555 1_555
C12 C11 1_555 1_555
H17 C12 1_555 1_555
C13 N3 1_555 1_555
C14 N4 1_555 1_555
C15 C14 1_555 1_555
C16 C15 1_555 1_555
H18 C16 1_555 1_555
C17 C16 1_555 1_555
H19 C17 1_555 1_555
C18 C17 1_555 1_555
H20 C18 1_555 1_555
C19 N5 1_555 1_555
C20 N6 1_555 1_555
C21 C20 1_555 1_555
C22 C21 1_555 1_555
H21 C22 1_555 1_555
C23 C22 1_555 1_555
H22 C23 1_555 1_555
C24 C23 1_555 1_555
H23 C24 1_555 1_555
C25 N7 1_555 1_555
C26 N8 1_555 1_555
C27 O7 1_555 1_555
H24 C27 1_555 1_555
H25 C27 1_555 1_555
C28 C27 1_555 1_555
C29 C28 1_555 1_555
H26 C29 1_555 1_555
C30 C29 1_555 1_555
H27 C30 1_555 1_555
C31 C30 1_555 1_555
H28 C31 1_555 1_555
C32 C31 1_555 1_555
H29 C32 1_555 1_555
C33 C28 1_555 1_555
H30 C33 1_555 1_555
C34 H31 1_555 1_555
H32 C34 1_555 1_555
H33 C34 1_555 1_555
C35 O8 1_555 1_555
C36 C35 1_555 1_555
C37 C36 1_555 1_555
H34 C37 1_555 1_555
C38 C37 1_555 1_555
H35 C38 1_555 1_555
C39 C38 1_555 1_555
H36 C39 1_555 1_555
C40 N9 1_555 1_555
C41 N10 1_555 1_555
C42 C41 1_555 1_555
C43 C42 1_555 1_555
H37 C43 1_555 1_555
C44 C43 1_555 1_555
H38 C44 1_555 1_555
C45 C44 1_555 1_555
H39 C45 1_555 1_555
C46 N11 1_555 1_555
C47 N12 1_555 1_555
C48 C47 1_555 1_555
C49 C48 1_555 1_555
H40 C49 1_555 1_555
C50 C49 1_555 1_555
H41 C50 1_555 1_555
C51 C50 1_555 1_555
H42 C51 1_555 1_555
C52 N13 1_555 1_555
C53 N14 1_555 1_555
C54 C53 1_555 1_555
C55 C54 1_555 1_555
H43 C55 1_555 1_555
C56 C55 1_555 1_555
H44 C56 1_555 1_555
C57 C56 1_555 1_555
H45 C57 1_555 1_555
C58 N15 1_555 1_555
C59 N16 1_555 1_555
C60 O14 1_555 1_555
H46 C60 1_555 1_555
H47 C60 1_555 1_555
C61 C60 1_555 1_555
C62 C61 1_555 1_555
H48 C62 1_555 1_555
C63 C62 1_555 1_555
H49 C63 1_555 1_555
C64 C63 1_555 1_555
H50 C64 1_555 1_555
C65 C64 1_555 1_555
H51 C65 1_555 1_555
C66 C61 1_555 1_555
H52 C66 1_555 1_555
C67 H53 1_555 1_555
H54 C67 1_555 1_555
C68 H55 1_555 1_555
H56 C68 1_555 1_555
N2 C7 1_555 1_555
N4 C13 1_555 1_555
N6 C19 1_555 1_555
N8 C25 1_555 1_555
N10 C40 1_555 1_555
N12 C46 1_555 1_555
N14 C52 1_555 1_555
N16 C58 1_555 1_555
C6 C7 1_555 1_555
C12 C13 1_555 1_555
C18 C19 1_555 1_555
C24 C25 1_555 1_555
C32 C33 1_555 1_555
C39 C40 1_555 1_555
C45 C46 1_555 1_555
C51 C52 1_555 1_555
C57 C58 1_555 1_555
C65 C66 1_555 1_555

#END
