
#######################################################################
#
#                 Cambridge Crystallographic Data Centre
#                                CCDC 
#
#######################################################################
#
# If this CIF has been generated from an entry in the Cambridge 
# Structural Database, then it will include bibliographic, chemical, 
# crystal, experimental, refinement or atomic coordinate data resulting 
# from the CCDC's data processing and validation procedures.
#
#######################################################################

data_UTAGUS
_chemical_formula_moiety         'C27 H23 N1 O4'
_chemical_name_systematic        
'Ethyl 2-benzoyl-1-(4-methoxyphenyl)-5-phenyl-1H-pyrrole-3-carboxylate'
_symmetry_cell_setting           orthorhombic
_symmetry_space_group_name_H-M   'P c a 21'
_symmetry_Int_Tables_number      29
_space_group_name_Hall           'P 2c -2ac'
loop_
_symmetry_equiv_pos_site_id
_symmetry_equiv_pos_as_xyz
1 x,y,z
2 -x,-y,1/2+z
3 1/2+x,-y,z
4 1/2-x,y,1/2+z
_cell_length_a                   17.8980(9)
_cell_length_b                   8.2290(4)
_cell_length_c                   15.4709(6)
_cell_angle_alpha                90
_cell_angle_beta                 90
_cell_angle_gamma                90
_cell_volume                     2278.6
_exptl_crystal_colour            colorless
_exptl_crystal_description       block
_cell_formula_units_Z            4
loop_
_atom_site_label
_atom_site_type_symbol
_atom_site_fract_x
_atom_site_fract_y
_atom_site_fract_z
C1 C 0.7724(3) 0.3250(9) 0.5865(4)
H1 H 0.8011 0.2441 0.5566
H2 H 0.7916 0.3380 0.6441
H3 H 0.7758 0.4265 0.5562
C2 C 0.6939(3) 0.2737(6) 0.5907(3)
H4 H 0.6742 0.2592 0.5328
H5 H 0.6899 0.1711 0.6212
C3 C 0.5781(2) 0.3884(4) 0.63539(19)
C4 C 0.5406(2) 0.5201(4) 0.6848(2)
C5 C 0.57117(18) 0.6568(4) 0.7241(2)
C6 C 0.64924(19) 0.7164(4) 0.7311(2)
C7 C 0.6938(2) 0.7531(4) 0.6533(2)
C8 C 0.7706(2) 0.7702(5) 0.6595(3)
H6 H 0.7938 0.7568 0.7128
C9 C 0.8133(3) 0.8068(7) 0.5877(3)
H7 H 0.8649 0.8157 0.5922
C10 C 0.7786(3) 0.8301(8) 0.5093(3)
H8 H 0.8068 0.8568 0.4609
C11 C 0.7025(4) 0.8142(8) 0.5022(3)
H9 H 0.6798 0.8294 0.4488
C12 C 0.6591(3) 0.7759(5) 0.5734(3)
H10 H 0.6076 0.7656 0.5680
C13 C 0.52055(16) 0.8740(4) 0.8212(2)
C14 C 0.5339(2) 1.0252(4) 0.7855(2)
H11 H 0.5412 1.0348 0.7262
C15 C 0.5363(2) 1.1609(4) 0.8367(2)
H12 H 0.5449 1.2621 0.8119
C16 C 0.5258(2) 1.1481(4) 0.9259(2)
C17 C 0.5113(2) 0.9972(4) 0.9602(2)
H13 H 0.5031 0.9873 1.0193
C18 C 0.5086(2) 0.8623(4) 0.9098(2)
H14 H 0.4987 0.7616 0.9346
C19 C 0.5407(3) 1.4320(5) 0.9494(3)
H15 H 0.5417 1.5079 0.9965
H16 H 0.5008 1.4597 0.9107
H17 H 0.5874 1.4361 0.9191
C20 C 0.3476(2) 0.8505(5) 0.7886(3)
H18 H 0.3763 0.9323 0.7637
C21 C 0.2779(2) 0.8855(6) 0.8202(3)
H19 H 0.2597 0.9912 0.8171
C22 C 0.2346(3) 0.7654(7) 0.8566(4)
H20 H 0.1877 0.7903 0.8788
C23 C 0.2608(3) 0.6080(7) 0.8600(3)
H21 H 0.2309 0.5261 0.8828
C24 C 0.3306(2) 0.5721(5) 0.8301(3)
H22 H 0.3485 0.4662 0.8340
C25 C 0.3756(2) 0.6929(4) 0.7937(2)
C26 C 0.44813(18) 0.6453(4) 0.7565(2)
C27 C 0.4644(2) 0.5151(4) 0.7056(2)
H23 H 0.4306 0.4361 0.6876
N1 N 0.51375(15) 0.7324(3) 0.76881(18)
O1 O 0.5436(2) 0.2806(4) 0.6003(2)
O2 O 0.65172(16) 0.3989(3) 0.63598(18)
O3 O 0.67550(15) 0.7410(3) 0.80344(17)
O4 O 0.52930(19) 1.2744(3) 0.98177(18)
loop_
_geom_bond_atom_site_label_1
_geom_bond_atom_site_label_2
_geom_bond_site_symmetry_1
_geom_bond_site_symmetry_2
C1 H1 1_555 1_555
H2 C1 1_555 1_555
H3 C1 1_555 1_555
C2 C1 1_555 1_555
H4 C2 1_555 1_555
H5 C2 1_555 1_555
C3 C4 1_555 1_555
C4 C5 1_555 1_555
C5 C6 1_555 1_555
C6 C7 1_555 1_555
C7 C8 1_555 1_555
C8 H6 1_555 1_555
C9 C8 1_555 1_555
H7 C9 1_555 1_555
C10 C9 1_555 1_555
H8 C10 1_555 1_555
C11 C10 1_555 1_555
H9 C11 1_555 1_555
C12 C7 1_555 1_555
H10 C12 1_555 1_555
C13 C14 1_555 1_555
C14 H11 1_555 1_555
C15 C14 1_555 1_555
H12 C15 1_555 1_555
C16 C15 1_555 1_555
C17 C16 1_555 1_555
H13 C17 1_555 1_555
C18 C13 1_555 1_555
H14 C18 1_555 1_555
C19 H15 1_555 1_555
H16 C19 1_555 1_555
H17 C19 1_555 1_555
C20 H18 1_555 1_555
C21 C20 1_555 1_555
H19 C21 1_555 1_555
C22 C21 1_555 1_555
H20 C22 1_555 1_555
C23 C22 1_555 1_555
H21 C23 1_555 1_555
C24 C23 1_555 1_555
H22 C24 1_555 1_555
C25 C20 1_555 1_555
C26 C25 1_555 1_555
C27 C4 1_555 1_555
H23 C27 1_555 1_555
N1 C5 1_555 1_555
O1 C3 1_555 1_555
O2 C2 1_555 1_555
O3 C6 1_555 1_555
O4 C16 1_555 1_555
C3 O2 1_555 1_555
C11 C12 1_555 1_555
C13 N1 1_555 1_555
C17 C18 1_555 1_555
C19 O4 1_555 1_555
C24 C25 1_555 1_555
C26 C27 1_555 1_555
C26 N1 1_555 1_555

#END
