
#######################################################################
#
#                 Cambridge Crystallographic Data Centre
#                                CCDC 
#
#######################################################################
#
# If this CIF has been generated from an entry in the Cambridge 
# Structural Database, then it will include bibliographic, chemical, 
# crystal, experimental, refinement or atomic coordinate data resulting 
# from the CCDC's data processing and validation procedures.
#
#######################################################################

data_UTAHAZ
_chemical_formula_moiety         'C38 H27 N1 O2'
_chemical_name_systematic        
(1-(4-Methoxyphenyl)-4,5-diphenyl-1H-benzo[g]indol-2-yl)(phenyl)methanone
_symmetry_cell_setting           monoclinic
_symmetry_space_group_name_H-M   'P 21/c'
_symmetry_Int_Tables_number      14
_space_group_name_Hall           '-P 2ybc'
loop_
_symmetry_equiv_pos_site_id
_symmetry_equiv_pos_as_xyz
1 x,y,z
2 -x,1/2+y,1/2-z
3 -x,-y,-z
4 x,1/2-y,1/2+z
_cell_length_a                   12.5289(4)
_cell_length_b                   46.5485(11)
_cell_length_c                   10.4955(5)
_cell_angle_alpha                90
_cell_angle_beta                 113.316(5)
_cell_angle_gamma                90
_cell_volume                     5621.13
_exptl_crystal_colour            yellow
_exptl_crystal_description       needle
_cell_formula_units_Z            8
loop_
_atom_site_label
_atom_site_type_symbol
_atom_site_fract_x
_atom_site_fract_y
_atom_site_fract_z
O1 O 0.76374(16) 0.08191(4) 0.9154(3)
O2 O 1.15907(14) 0.05852(4) 0.7951(2)
N1 N 0.72883(14) 0.02523(3) 0.7875(2)
C1 C 0.3998(2) -0.08354(5) 0.5226(3)
H1 H 0.3966 -0.0700 0.4561
C2 C 0.3302(2) -0.10758(6) 0.4832(3)
H2 H 0.2807 -0.1100 0.3906
C3 C 0.3330(2) -0.12788(6) 0.5783(3)
H3 H 0.2845 -0.1438 0.5514
C4 C 0.4079(3) -0.12446(5) 0.7133(3)
H4 H 0.4117 -0.1384 0.7784
C5 C 0.4786(2) -0.10026(5) 0.7545(3)
H5 H 0.5293 -0.0982 0.8468
C6 C 0.47405(17) -0.07926(4) 0.6591(2)
C7 C 0.54626(17) -0.05247(4) 0.6981(2)
C8 C 0.50239(17) -0.02752(4) 0.7270(2)
C9 C 0.57270(17) -0.00219(4) 0.7563(2)
C10 C 0.68366(17) -0.00215(4) 0.7541(2)
C11 C 0.73195(16) -0.02766(4) 0.7208(2)
C12 C 0.66105(17) -0.05289(4) 0.6952(2)
C13 C 0.70539(18) -0.07842(5) 0.6626(3)
H6 H 0.6604 -0.0950 0.6448
C14 C 0.81241(19) -0.07961(5) 0.6564(3)
H7 H 0.8395 -0.0968 0.6353
C15 C 0.88023(19) -0.05505(5) 0.6818(3)
H8 H 0.9529 -0.0558 0.6774
C16 C 0.84126(18) -0.02973(4) 0.7130(2)
H9 H 0.8880 -0.0135 0.7296
C17 C 0.38253(17) -0.02464(4) 0.7242(2)
C18 C 0.3436(2) -0.04059(5) 0.8088(3)
H10 H 0.3924 -0.0541 0.8691
C19 C 0.2329(2) -0.03657(6) 0.8044(3)
H11 H 0.2076 -0.0476 0.8610
C20 C 0.1604(2) -0.01664(6) 0.7179(3)
H12 H 0.0862 -0.0140 0.7162
C21 C 0.1966(2) -0.00054(6) 0.6335(3)
H13 H 0.1473 0.0131 0.5746
C22 C 0.30683(19) -0.00459(5) 0.6359(3)
H14 H 0.3306 0.0063 0.5775
C23 C 0.55077(18) 0.02584(4) 0.7905(2)
H15 H 0.4835 0.0320 0.7996
C24 C 0.64560(18) 0.04246(4) 0.8081(2)
C25 C 0.6659(2) 0.07259(5) 0.8540(3)
C26 C 0.5628(2) 0.09128(5) 0.8297(3)
C27 C 0.4559(2) 0.08795(5) 0.7198(3)
H16 H 0.4452 0.0732 0.6562
C28 C 0.3657(3) 0.10631(7) 0.7042(3)
H17 H 0.2941 0.1038 0.6306
C29 C 0.3807(3) 0.12843(7) 0.7969(4)
H18 H 0.3192 0.1407 0.7861
C30 C 0.4852(3) 0.13226(6) 0.9040(3)
H19 H 0.4950 0.1473 0.9661
C31 C 0.5771(3) 0.11406(5) 0.9215(3)
H20 H 0.6486 0.1170 0.9946
C32 C 0.85179(19) 0.04409(5) 0.6740(2)
H21 H 0.7867 0.0451 0.5909
C33 C 0.9596(2) 0.05185(5) 0.6782(3)
H22 H 0.9668 0.0582 0.5979
C34 C 1.05661(19) 0.05027(5) 0.8010(3)
C35 C 1.04541(19) 0.04066(5) 0.9196(2)
H23 H 1.1106 0.0392 1.0024
C36 C 0.93681(18) 0.03321(5) 0.9149(2)
H24 H 0.9294 0.0271 0.9953
C37 C 0.84045(17) 0.03475(4) 0.7934(2)
C38 C 1.2630(2) 0.05504(9) 0.9154(4)
H25 H 1.3279 0.0615 0.8963
H26 H 1.2731 0.0351 0.9412
H27 H 1.2582 0.0661 0.9901
O3 O 0.34646(16) 0.17177(4) 1.0510(2)
O4 O 0.6827(2) 0.19810(7) 0.8439(3)
N2 N 0.29931(14) 0.23033(4) 0.9525(2)
C39 C 0.0009(2) 0.34735(5) 0.7782(3)
H28 H 0.0051 0.3385 0.7009
C40 C -0.0647(2) 0.37216(6) 0.7612(4)
H29 H -0.1049 0.3796 0.6728
C41 C -0.0704(3) 0.38564(6) 0.8737(5)
H30 H -0.1151 0.4021 0.8622
C42 C -0.0099(3) 0.37471(6) 1.0039(4)
H31 H -0.0122 0.3841 1.0809
C43 C 0.0547(2) 0.34974(5) 1.0214(3)
H32 H 0.0948 0.3425 1.1102
C44 C 0.06038(18) 0.33547(4) 0.9087(3)
C45 C 0.12748(17) 0.30828(4) 0.9252(2)
C46 C 0.08772(16) 0.28273(4) 0.9556(2)
C47 C 0.15395(17) 0.25713(4) 0.9642(2)
C48 C 0.25662(17) 0.25800(4) 0.9407(2)
C49 C 0.30223(18) 0.28425(4) 0.9119(2)
C50 C 0.23713(18) 0.30951(4) 0.9084(2)
C51 C 0.2851(2) 0.33620(5) 0.8958(3)
H33 H 0.2445 0.3529 0.8955
C52 C 0.3891(2) 0.33818(5) 0.8839(3)
H34 H 0.4202 0.3561 0.8792
C53 C 0.4488(2) 0.31339(5) 0.8789(3)
H35 H 0.5179 0.3148 0.8660
C54 C 0.4071(2) 0.28707(5) 0.8926(3)
H36 H 0.4484 0.2707 0.8891
C55 C -0.02063(17) 0.28075(4) 0.9827(2)
C56 C -0.12691(19) 0.29034(5) 0.8875(3)
H37 H -0.1323 0.2975 0.8024
C57 C -0.2249(2) 0.28941(6) 0.9169(3)
H38 H -0.2956 0.2959 0.8516
C58 C -0.2189(2) 0.27891(7) 1.0423(4)
H39 H -0.2848 0.2784 1.0623
C59 C -0.1138(2) 0.26912(6) 1.1379(3)
H40 H -0.1088 0.2621 1.2230
C60 C -0.0157(2) 0.26967(5) 1.1079(3)
H41 H 0.0543 0.2625 1.1722
C61 C 0.13411(18) 0.22803(4) 0.9869(2)
H42 H 0.0716 0.2210 1.0041
C62 C 0.22301(18) 0.21198(4) 0.9791(2)
C63 C 0.2471(2) 0.18089(5) 1.0028(3)
C64 C 0.1469(2) 0.16088(4) 0.9659(3)
C65 C 0.0422(2) 0.16628(5) 0.8592(3)
H43 H 0.0303 0.1836 0.8113
C66 C -0.0460(3) 0.14604(7) 0.8223(4)
H44 H -0.1164 0.1496 0.7485
C67 C -0.0293(3) 0.12072(7) 0.8948(4)
H45 H -0.0889 0.1073 0.8712
C68 C 0.0744(4) 0.11535(6) 1.0011(4)
H46 H 0.0852 0.0982 1.0504
C69 C 0.1632(3) 0.13486(5) 1.0364(3)
H47 H 0.2345 0.1307 1.1076
C70 C 0.39997(17) 0.22128(4) 0.9284(2)
C71 C 0.3872(2) 0.21282(6) 0.7978(3)
H48 H 0.3139 0.2125 0.7259
C72 C 0.4833(3) 0.20484(7) 0.7735(3)
H49 H 0.4743 0.1988 0.6854
C73 C 0.5918(2) 0.20578(7) 0.8776(3)
C74 C 0.6047(2) 0.21387(6) 1.0091(3)
H50 H 0.6781 0.2142 1.0809
C75 C 0.5074(2) 0.22157(5) 1.0343(3)
H51 H 0.5156 0.2269 1.1231
C76 C 0.7927(4) 0.19788(14) 0.9431(7)
H52 H 0.8453 0.1910 0.9038
H53 H 0.7961 0.1855 1.0177
H54 H 0.8144 0.2170 0.9780
loop_
_geom_bond_atom_site_label_1
_geom_bond_atom_site_label_2
_geom_bond_site_symmetry_1
_geom_bond_site_symmetry_2
O1 C25 1_555 1_555
O2 C34 1_555 1_555
O3 C63 1_555 1_555
O4 C73 1_555 1_555
N1 C10 1_555 1_555
N2 C48 1_555 1_555
C1 H1 1_555 1_555
C2 C1 1_555 1_555
H2 C2 1_555 1_555
C3 C2 1_555 1_555
H3 C3 1_555 1_555
C4 C3 1_555 1_555
H4 C4 1_555 1_555
C5 C4 1_555 1_555
H5 C5 1_555 1_555
C6 C1 1_555 1_555
C7 C6 1_555 1_555
C8 C7 1_555 1_555
C9 C8 1_555 1_555
C10 C9 1_555 1_555
C11 C10 1_555 1_555
C12 C7 1_555 1_555
C13 C12 1_555 1_555
H6 C13 1_555 1_555
C14 C13 1_555 1_555
H7 C14 1_555 1_555
C15 C14 1_555 1_555
H8 C15 1_555 1_555
C16 C11 1_555 1_555
H9 C16 1_555 1_555
C17 C8 1_555 1_555
C18 C17 1_555 1_555
H10 C18 1_555 1_555
C19 C18 1_555 1_555
H11 C19 1_555 1_555
C20 C19 1_555 1_555
H12 C20 1_555 1_555
C21 C20 1_555 1_555
H13 C21 1_555 1_555
C22 C17 1_555 1_555
H14 C22 1_555 1_555
C23 C9 1_555 1_555
H15 C23 1_555 1_555
C24 N1 1_555 1_555
C25 C24 1_555 1_555
C26 C25 1_555 1_555
C27 C26 1_555 1_555
H16 C27 1_555 1_555
C28 C27 1_555 1_555
H17 C28 1_555 1_555
C29 C28 1_555 1_555
H18 C29 1_555 1_555
C30 C29 1_555 1_555
H19 C30 1_555 1_555
C31 C26 1_555 1_555
H20 C31 1_555 1_555
C32 H21 1_555 1_555
C33 C32 1_555 1_555
H22 C33 1_555 1_555
C34 C33 1_555 1_555
C35 C34 1_555 1_555
H23 C35 1_555 1_555
C36 C35 1_555 1_555
H24 C36 1_555 1_555
C37 N1 1_555 1_555
C38 O2 1_555 1_555
H25 C38 1_555 1_555
H26 C38 1_555 1_555
H27 C38 1_555 1_555
C39 H28 1_555 1_555
C40 C39 1_555 1_555
H29 C40 1_555 1_555
C41 C40 1_555 1_555
H30 C41 1_555 1_555
C42 C41 1_555 1_555
H31 C42 1_555 1_555
C43 C42 1_555 1_555
H32 C43 1_555 1_555
C44 C39 1_555 1_555
C45 C44 1_555 1_555
C46 C45 1_555 1_555
C47 C46 1_555 1_555
C48 C47 1_555 1_555
C49 C48 1_555 1_555
C50 C45 1_555 1_555
C51 C50 1_555 1_555
H33 C51 1_555 1_555
C52 C51 1_555 1_555
H34 C52 1_555 1_555
C53 C52 1_555 1_555
H35 C53 1_555 1_555
C54 C49 1_555 1_555
H36 C54 1_555 1_555
C55 C46 1_555 1_555
C56 C55 1_555 1_555
H37 C56 1_555 1_555
C57 C56 1_555 1_555
H38 C57 1_555 1_555
C58 C57 1_555 1_555
H39 C58 1_555 1_555
C59 C58 1_555 1_555
H40 C59 1_555 1_555
C60 C55 1_555 1_555
H41 C60 1_555 1_555
C61 C47 1_555 1_555
H42 C61 1_555 1_555
C62 N2 1_555 1_555
C63 C62 1_555 1_555
C64 C63 1_555 1_555
C65 C64 1_555 1_555
H43 C65 1_555 1_555
C66 C65 1_555 1_555
H44 C66 1_555 1_555
C67 C66 1_555 1_555
H45 C67 1_555 1_555
C68 C67 1_555 1_555
H46 C68 1_555 1_555
C69 C64 1_555 1_555
H47 C69 1_555 1_555
C70 N2 1_555 1_555
C71 C70 1_555 1_555
H48 C71 1_555 1_555
C72 C71 1_555 1_555
H49 C72 1_555 1_555
C73 C72 1_555 1_555
C74 C73 1_555 1_555
H50 C74 1_555 1_555
C75 C70 1_555 1_555
H51 C75 1_555 1_555
C76 O4 1_555 1_555
H52 C76 1_555 1_555
H53 C76 1_555 1_555
H54 C76 1_555 1_555
C5 C6 1_555 1_555
C11 C12 1_555 1_555
C15 C16 1_555 1_555
C21 C22 1_555 1_555
C23 C24 1_555 1_555
C30 C31 1_555 1_555
C32 C37 1_555 1_555
C36 C37 1_555 1_555
C43 C44 1_555 1_555
C49 C50 1_555 1_555
C53 C54 1_555 1_555
C59 C60 1_555 1_555
C61 C62 1_555 1_555
C68 C69 1_555 1_555
C74 C75 1_555 1_555

#END
