
#######################################################################
#
#                 Cambridge Crystallographic Data Centre
#                                CCDC 
#
#######################################################################
#
# If this CIF has been generated from an entry in the Cambridge 
# Structural Database, then it will include bibliographic, chemical, 
# crystal, experimental, refinement or atomic coordinate data resulting 
# from the CCDC's data processing and validation procedures.
#
#######################################################################

data_UTAQEN
_chemical_formula_moiety         'C12 H13 N3 O1'
_chemical_name_systematic        
2-(pyridin-2-yl)-1,3-diazaspiro[4.4]non-1-en-4-one
_symmetry_cell_setting           triclinic
_symmetry_space_group_name_H-M   'P -1'
_symmetry_Int_Tables_number      2
_space_group_name_Hall           '-P 1'
loop_
_symmetry_equiv_pos_site_id
_symmetry_equiv_pos_as_xyz
1 x,y,z
2 -x,-y,-z
_cell_length_a                   5.3091(6)
_cell_length_b                   8.7790(8)
_cell_length_c                   11.5319(12)
_cell_angle_alpha                90.967(9)
_cell_angle_beta                 101.873(10)
_cell_angle_gamma                95.960(9)
_cell_volume                     522.74
_exptl_crystal_colour            colorless
_exptl_crystal_description       block
_cell_formula_units_Z            2
loop_
_atom_site_label
_atom_site_type_symbol
_atom_site_fract_x
_atom_site_fract_y
_atom_site_fract_z
O1 O 0.4025(2) 0.14449(13) 0.39348(9)
N1 N 0.6866(2) -0.03591(14) 0.38101(11)
H1 H 0.6932 -0.0793 0.4477
N2 N 0.7811(2) 0.00664(14) 0.20082(11)
N3 N 1.0188(3) -0.26481(15) 0.41352(12)
C1 C 0.8170(3) -0.07398(16) 0.29294(12)
C2 C 0.9859(3) -0.19819(16) 0.30869(13)
C3 C 0.6146(3) 0.12242(16) 0.22375(13)
C4 C 0.5477(3) 0.08222(17) 0.34284(13)
C5 C 0.3795(3) 0.12931(17) 0.12041(13)
H2 H 0.3553 0.0387 0.0684
H3 H 0.2230 0.1354 0.1505
C6 C 0.7681(3) 0.28268(17) 0.23058(13)
H4 H 0.7006 0.3550 0.2776
H5 H 0.9503 0.2785 0.2642
C7 C 1.1047(3) -0.23801(17) 0.21759(14)
H6 H 1.0782 -0.1878 0.1464
C8 C 0.4397(3) 0.27342(19) 0.05351(15)
H7 H 0.4060 0.2501 -0.0312
H8 H 0.3342 0.3525 0.0684
C9 C 0.7269(3) 0.32600(18) 0.10088(14)
H9 H 0.7643 0.4356 0.0942
H10 H 0.8347 0.2730 0.0588
C10 C 1.1767(3) -0.3752(2) 0.42840(15)
H11 H 1.2046 -0.4220 0.5010
C11 C 1.3006(3) -0.42418(19) 0.34288(16)
H12 H 1.4067 -0.5026 0.3573
C12 C 1.2645(3) -0.35414(19) 0.23550(15)
H13 H 1.3453 -0.3847 0.1760
loop_
_geom_bond_atom_site_label_1
_geom_bond_atom_site_label_2
_geom_bond_site_symmetry_1
_geom_bond_site_symmetry_2
O1 C4 1_555 1_555
N1 H1 1_555 1_555
N2 C1 1_555 1_555
N3 C2 1_555 1_555
C1 N1 1_555 1_555
C2 C1 1_555 1_555
C3 N2 1_555 1_555
C4 N1 1_555 1_555
C5 C3 1_555 1_555
H2 C5 1_555 1_555
H3 C5 1_555 1_555
C6 C3 1_555 1_555
H4 C6 1_555 1_555
H5 C6 1_555 1_555
C7 C2 1_555 1_555
H6 C7 1_555 1_555
C8 C5 1_555 1_555
H7 C8 1_555 1_555
H8 C8 1_555 1_555
C9 C6 1_555 1_555
H9 C9 1_555 1_555
H10 C9 1_555 1_555
C10 N3 1_555 1_555
H11 C10 1_555 1_555
C11 C10 1_555 1_555
H12 C11 1_555 1_555
C12 C7 1_555 1_555
H13 C12 1_555 1_555
C3 C4 1_555 1_555
C8 C9 1_555 1_555
C11 C12 1_555 1_555

#END
