
#######################################################################
#
#                 Cambridge Crystallographic Data Centre
#                                CCDC 
#
#######################################################################
#
# If this CIF has been generated from an entry in the Cambridge 
# Structural Database, then it will include bibliographic, chemical, 
# crystal, experimental, refinement or atomic coordinate data resulting 
# from the CCDC's data processing and validation procedures.
#
#######################################################################

data_UTASIT
_chemical_formula_moiety         'C15 H22 O5'
_chemical_name_systematic        
10a-hydroxy-2,3,6,7,8-pentamethyl-2,3,6,7,10,10a-hexahydro-9H-furo[2,3-e][1,4]benzodioxin-9-one
_symmetry_cell_setting           monoclinic
_symmetry_space_group_name_H-M   'P 21'
_symmetry_Int_Tables_number      4
_space_group_name_Hall           'P 2yb'
loop_
_symmetry_equiv_pos_site_id
_symmetry_equiv_pos_as_xyz
1 x,y,z
2 -x,1/2+y,-z
_cell_length_a                   8.7713(3)
_cell_length_b                   18.8399(7)
_cell_length_c                   9.0738(3)
_cell_angle_alpha                90
_cell_angle_beta                 102.8810(10)
_cell_angle_gamma                90
_cell_volume                     1461.72
_exptl_crystal_colour            colorless
_exptl_crystal_description       block
_cell_formula_units_Z            4
loop_
_atom_site_label
_atom_site_type_symbol
_atom_site_fract_x
_atom_site_fract_y
_atom_site_fract_z
O1 O 0.44680(14) 0.90547(7) -0.36674(14)
O2 O 0.55801(12) 0.98893(6) 0.14425(13)
O3 O 0.45058(13) 1.05869(6) -0.05366(13)
H1 H 0.4030 1.0844 -0.0030
O4 O 0.22291(13) 1.01373(6) 0.09042(13)
O5 O 0.30500(12) 0.89650(6) 0.08230(13)
C1 C 0.39912(19) 0.92636(9) -0.25857(19)
C2 C 0.51526(18) 0.94290(9) -0.11299(19)
H2 H 0.6069 0.9665 -0.1383
H3 H 0.5520 0.8975 -0.0623
C3 C 0.45499(17) 0.98961(8) -0.00120(18)
C4 C 0.56793(18) 0.92218(9) 0.22157(19)
H4 H 0.6122 0.8862 0.1617
C5 C 0.40580(18) 0.89806(9) 0.23322(18)
H5 H 0.3623 0.9320 0.2981
C6 C 0.40529(19) 0.82379(10) 0.2961(2)
H6 H 0.2973 0.8088 0.2913
H7 H 0.4640 0.8232 0.4015
H8 H 0.4542 0.7911 0.2363
C7 C 0.68074(19) 0.93160(10) 0.3726(2)
H9 H 0.7744 0.9565 0.3581
H10 H 0.7103 0.8850 0.4179
H11 H 0.6306 0.9595 0.4398
C8 C 0.22828(19) 0.93498(9) -0.2667(2)
C9 C 0.1225(2) 0.91961(11) -0.4190(2)
H12 H 0.0252 0.8980 -0.4046
H13 H 0.1751 0.8869 -0.4754
H14 H 0.0985 0.9640 -0.4758
C10 C 0.18119(18) 0.95534(8) -0.14302(19)
C11 C 0.02203(18) 0.97600(9) -0.12030(19)
H15 H -0.0277 0.9334 -0.0848
C12 C -0.0935(2) 1.00871(11) -0.2542(2)
H16 H -0.0381 1.0417 -0.3074
H17 H -0.1749 1.0344 -0.2174
H18 H -0.1418 0.9710 -0.3235
C13 C 0.06401(19) 1.02930(9) 0.0109(2)
H19 H 0.0607 1.0783 -0.0318
C14 C -0.0424(2) 1.02639(10) 0.1215(2)
H20 H -0.0372 0.9790 0.1668
H21 H -0.1501 1.0365 0.0681
H22 H -0.0085 1.0618 0.2012
C15 C 0.29194(18) 0.96382(8) 0.00955(19)
O6 O 0.31941(13) 0.18590(6) 0.04772(13)
O7 O 0.49695(13) 0.26970(6) 0.17536(14)
O8 O 0.16339(13) 0.30872(6) 0.09440(14)
O9 O 0.28616(14) 0.31318(7) 0.34152(14)
H23 H 0.3602 0.3381 0.3256
O10 O 0.11266(18) 0.12831(9) 0.45252(16)
C16 C 0.0485(2) 0.32495(10) -0.1661(2)
H24 H -0.0398 0.3487 -0.1370
H25 H 0.0118 0.3008 -0.2631
H26 H 0.1278 0.3602 -0.1756
C17 C 0.11896(19) 0.27109(9) -0.0463(2)
H27 H 0.0377 0.2350 -0.0380
C18 C 0.26077(19) 0.23342(9) -0.07785(19)
H28 H 0.3431 0.2694 -0.0837
C19 C 0.37376(19) 0.22429(9) 0.18639(19)
C20 C 0.4423(2) 0.17066(9) 0.3057(2)
C21 C 0.6147(2) 0.16576(10) 0.3067(2)
H29 H 0.6339 0.1213 0.2534
C22 C 0.7235(3) 0.16704(19) 0.4626(3)
H30 H 0.7100 0.2118 0.5132
H31 H 0.8321 0.1629 0.4525
H32 H 0.6986 0.1272 0.5226
C23 C 0.6972(2) 0.21226(11) 0.0686(2)
H33 H 0.6167 0.1840 0.0016
H34 H 0.7945 0.1849 0.0951
H35 H 0.7156 0.2561 0.0171
C24 C 0.6428(2) 0.23050(10) 0.2112(2)
H36 H 0.7239 0.2613 0.2756
C25 C 0.2276(2) 0.18974(10) -0.2210(2)
H37 H 0.3190 0.1604 -0.2246
H38 H 0.2054 0.2214 -0.3089
H39 H 0.1370 0.1591 -0.2226
C26 C 0.23715(19) 0.26697(10) 0.2216(2)
C27 C 0.1224(2) 0.21520(11) 0.2671(2)
H40 H 0.0476 0.2427 0.3116
H41 H 0.0619 0.1920 0.1744
C28 C 0.1931(2) 0.15806(11) 0.3776(2)
C29 C 0.3592(2) 0.13760(10) 0.3918(2)
C30 C 0.4178(3) 0.07930(12) 0.5029(3)
H42 H 0.5102 0.0573 0.4782
H43 H 0.3357 0.0435 0.4977
H44 H 0.4457 0.0991 0.6052
loop_
_geom_bond_atom_site_label_1
_geom_bond_atom_site_label_2
_geom_bond_site_symmetry_1
_geom_bond_site_symmetry_2
O1 C1 1_555 1_555
O2 C3 1_555 1_555
O3 H1 1_555 1_555
O4 C13 1_555 1_555
O5 C5 1_555 1_555
C1 C2 1_555 1_555
C2 H2 1_555 1_555
H3 C2 1_555 1_555
C3 O3 1_555 1_555
C4 O2 1_555 1_555
H4 C4 1_555 1_555
C5 C4 1_555 1_555
H5 C5 1_555 1_555
C6 C5 1_555 1_555
H6 C6 1_555 1_555
H7 C6 1_555 1_555
H8 C6 1_555 1_555
C7 C4 1_555 1_555
H9 C7 1_555 1_555
H10 C7 1_555 1_555
H11 C7 1_555 1_555
C8 C1 1_555 1_555
C9 C8 1_555 1_555
H12 C9 1_555 1_555
H13 C9 1_555 1_555
H14 C9 1_555 1_555
C10 C8 1_555 1_555
C11 C10 1_555 1_555
H15 C11 1_555 1_555
C12 C11 1_555 1_555
H16 C12 1_555 1_555
H17 C12 1_555 1_555
H18 C12 1_555 1_555
C13 C11 1_555 1_555
H19 C13 1_555 1_555
C14 C13 1_555 1_555
H20 C14 1_555 1_555
H21 C14 1_555 1_555
H22 C14 1_555 1_555
C15 O4 1_555 1_555
O6 C18 1_555 1_555
O7 C19 1_555 1_555
O8 C17 1_555 1_555
O9 H23 1_555 1_555
O10 C28 1_555 1_555
C16 H24 1_555 1_555
H25 C16 1_555 1_555
H26 C16 1_555 1_555
C17 C16 1_555 1_555
H27 C17 1_555 1_555
C18 C17 1_555 1_555
H28 C18 1_555 1_555
C19 O6 1_555 1_555
C20 C19 1_555 1_555
C21 C20 1_555 1_555
H29 C21 1_555 1_555
C22 C21 1_555 1_555
H30 C22 1_555 1_555
H31 C22 1_555 1_555
H32 C22 1_555 1_555
C23 H33 1_555 1_555
H34 C23 1_555 1_555
H35 C23 1_555 1_555
C24 O7 1_555 1_555
H36 C24 1_555 1_555
C25 C18 1_555 1_555
H37 C25 1_555 1_555
H38 C25 1_555 1_555
H39 C25 1_555 1_555
C26 O8 1_555 1_555
C27 C26 1_555 1_555
H40 C27 1_555 1_555
H41 C27 1_555 1_555
C28 C27 1_555 1_555
C29 C20 1_555 1_555
C30 C29 1_555 1_555
H42 C30 1_555 1_555
H43 C30 1_555 1_555
H44 C30 1_555 1_555
O5 C15 1_555 1_555
C2 C3 1_555 1_555
C3 C15 1_555 1_555
C10 C15 1_555 1_555
O9 C26 1_555 1_555
C19 C26 1_555 1_555
C21 C24 1_555 1_555
C23 C24 1_555 1_555
C28 C29 1_555 1_555

#END
