
#######################################################################
#
#                 Cambridge Crystallographic Data Centre
#                                CCDC 
#
#######################################################################
#
# If this CIF has been generated from an entry in the Cambridge 
# Structural Database, then it will include bibliographic, chemical, 
# crystal, experimental, refinement or atomic coordinate data resulting 
# from the CCDC's data processing and validation procedures.
#
#######################################################################

data_UTASUE
_chemical_formula_moiety         'C12 H12 N2 S2'
_chemical_name_systematic        4,4'-(Ethane-1,2-diyldisulfanediyl)dipyridine
_symmetry_cell_setting           monoclinic
_symmetry_space_group_name_H-M   'P 21/c'
_symmetry_Int_Tables_number      14
_space_group_name_Hall           '-P 2ybc'
loop_
_symmetry_equiv_pos_site_id
_symmetry_equiv_pos_as_xyz
1 x,y,z
2 -x,1/2+y,1/2-z
3 -x,-y,-z
4 x,1/2-y,1/2+z
_cell_length_a                   9.441(4)
_cell_length_b                   14.999(5)
_cell_length_c                   9.799(4)
_cell_angle_alpha                90
_cell_angle_beta                 118.147(4)
_cell_angle_gamma                90
_cell_volume                     1223.5
_exptl_crystal_colour            yellow
_exptl_crystal_description       prism
_cell_formula_units_Z            4
loop_
_atom_site_label
_atom_site_type_symbol
_atom_site_fract_x
_atom_site_fract_y
_atom_site_fract_z
N1 N -0.0067(3) 0.74236(13) 0.6136(2)
S1 S 0.00526(7) 1.02664(3) 0.78076(6)
C1 C 0.0652(2) 1.01976(12) 0.9848(2)
H1 H 0.1611 0.9833 1.0354
H2 H 0.0915 1.0790 1.0295
C2 C 0.0703(3) 0.76216(14) 0.7628(3)
H3 H 0.1223 0.7159 0.8316
C3 C 0.0794(3) 0.84547(13) 0.8235(2)
H4 H 0.1357 0.8546 0.9299
C4 C 0.0041(2) 0.91539(13) 0.7250(2)
C5 C -0.0767(3) 0.89643(14) 0.5679(2)
H5 H -0.1294 0.9414 0.4963
C6 C -0.0779(3) 0.81076(16) 0.5198(3)
H6 H -0.1323 0.7995 0.4139
N1B N 0.0067(3) 1.25764(13) 1.3864(2)
S1B S -0.00526(7) 0.97336(3) 1.21924(6)
C1B C -0.0652(2) 0.98024(12) 1.0152(2)
H1B H -0.1611 1.0167 0.9646
H2B H -0.0915 0.9210 0.9705
C2B C -0.0703(3) 1.23784(14) 1.2372(3)
H3B H -0.1223 1.2841 1.1684
C3B C -0.0794(3) 1.15453(13) 1.1765(2)
H4B H -0.1357 1.1454 1.0701
C4B C -0.0041(2) 1.08461(13) 1.2750(2)
C5B C 0.0767(3) 1.10357(14) 1.4321(2)
H5B H 0.1294 1.0586 1.5037
C6B C 0.0779(3) 1.18924(16) 1.4802(3)
H6B H 0.1323 1.2005 1.5861
N2 N 0.4893(3) 0.74712(13) 0.0978(2)
S2 S 0.52368(7) 1.02689(3) 0.29022(6)
C7 C 0.4435(3) 1.02227(12) 0.4240(2)
H7 H 0.4211 1.0824 0.4447
H8 H 0.3427 0.9898 0.3766
C8 C 0.4202(3) 0.76713(14) 0.1841(2)
H9 H 0.3636 0.7221 0.2026
C9 C 0.4254(3) 0.84890(12) 0.2482(2)
H10 H 0.3746 0.8581 0.3084
C10 C 0.5070(2) 0.91730(13) 0.2224(2)
C11 C 0.5794(3) 0.89832(15) 0.1313(2)
H11 H 0.6354 0.9422 0.1097
C12 C 0.5671(3) 0.81389(18) 0.0737(3)
H12 H 0.6169 0.8025 0.0133
N2B N 0.5107(3) 1.25288(13) 0.9022(2)
S2B S 0.47632(7) 0.97311(3) 0.70978(6)
C7B C 0.5565(3) 0.97773(12) 0.5760(2)
H7B H 0.5789 0.9176 0.5553
H8B H 0.6573 1.0102 0.6234
C8B C 0.5798(3) 1.23287(14) 0.8159(2)
H9B H 0.6364 1.2779 0.7974
C9B C 0.5746(3) 1.15110(12) 0.7518(2)
H10B H 0.6254 1.1419 0.6916
C10B C 0.4930(2) 1.08270(13) 0.7776(2)
C11B C 0.4206(3) 1.10168(15) 0.8687(2)
H11B H 0.3646 1.0578 0.8903
C12B C 0.4329(3) 1.18611(18) 0.9263(3)
H12B H 0.3831 1.1975 0.9867
loop_
_geom_bond_atom_site_label_1
_geom_bond_atom_site_label_2
_geom_bond_site_symmetry_1
_geom_bond_site_symmetry_2
N1 C2 1_555 1_555
S1 C1 1_555 1_555
C1 H1 1_555 1_555
H2 C1 1_555 1_555
C2 H3 1_555 1_555
C3 C2 1_555 1_555
H4 C3 1_555 1_555
C4 S1 1_555 1_555
C5 C4 1_555 1_555
H5 C5 1_555 1_555
C6 N1 1_555 1_555
H6 C6 1_555 1_555
N2 C8 1_555 1_555
S2 C7 1_555 1_555
C7 H7 1_555 1_555
H8 C7 1_555 1_555
C8 H9 1_555 1_555
C9 C8 1_555 1_555
H10 C9 1_555 1_555
C10 S2 1_555 1_555
C11 C10 1_555 1_555
H11 C11 1_555 1_555
C12 N2 1_555 1_555
H12 C12 1_555 1_555
N1B C2B 1_555 1_555
S1B C1B 1_555 1_555
C1B C1 1_555 1_555
H1B C1B 1_555 1_555
H2B C1B 1_555 1_555
C2B H3B 1_555 1_555
C3B C2B 1_555 1_555
H4B C3B 1_555 1_555
C4B S1B 1_555 1_555
C5B C4B 1_555 1_555
H5B C5B 1_555 1_555
C6B N1B 1_555 1_555
H6B C6B 1_555 1_555
N2B C8B 1_555 1_555
S2B C7B 1_555 1_555
C7B C7 1_555 1_555
H7B C7B 1_555 1_555
H8B C7B 1_555 1_555
C8B H9B 1_555 1_555
C9B C8B 1_555 1_555
H10B C9B 1_555 1_555
C10B S2B 1_555 1_555
C11B C10B 1_555 1_555
H11B C11B 1_555 1_555
C12B N2B 1_555 1_555
H12B C12B 1_555 1_555
C3 C4 1_555 1_555
C5 C6 1_555 1_555
C9 C10 1_555 1_555
C11 C12 1_555 1_555
C3B C4B 1_555 1_555
C5B C6B 1_555 1_555
C9B C10B 1_555 1_555
C11B C12B 1_555 1_555

#END
