
#######################################################################
#
#                 Cambridge Crystallographic Data Centre
#                                CCDC 
#
#######################################################################
#
# If this CIF has been generated from an entry in the Cambridge 
# Structural Database, then it will include bibliographic, chemical, 
# crystal, experimental, refinement or atomic coordinate data resulting 
# from the CCDC's data processing and validation procedures.
#
#######################################################################

data_UTAWAP
_chemical_formula_moiety         'C16 H14 O6'
_chemical_name_systematic        
'ethyl 7-methoxy-3-methyl-4-oxo-4H-furo[3,2-c]chromene-2-carboxylate'
_chemical_properties_biological  'antifungal activity'
_symmetry_cell_setting           triclinic
_symmetry_space_group_name_H-M   'P -1'
_symmetry_Int_Tables_number      2
_space_group_name_Hall           '-P 1'
loop_
_symmetry_equiv_pos_site_id
_symmetry_equiv_pos_as_xyz
1 x,y,z
2 -x,-y,-z
_cell_length_a                   8.658(3)
_cell_length_b                   9.001(3)
_cell_length_c                   9.907(3)
_cell_angle_alpha                77.444(5)
_cell_angle_beta                 75.406(5)
_cell_angle_gamma                76.385(5)
_cell_volume                     715.824
_exptl_crystal_colour            colorless
_exptl_crystal_description       block
_cell_formula_units_Z            2
loop_
_atom_site_label
_atom_site_type_symbol
_atom_site_fract_x
_atom_site_fract_y
_atom_site_fract_z
C1 C 0.0811(3) 0.8558(3) 0.1510(3)
H1 H 0.1814 0.8934 0.1207
H2 H -0.0081 0.9409 0.1401
H3 H 0.0823 0.7812 0.0945
C2 C 0.0621(2) 0.7821(2) 0.3007(2)
H4 H 0.0568 0.8575 0.3592
H5 H -0.0374 0.7410 0.3317
C3 C 0.2037(2) 0.5723(2) 0.44069(19)
C4 C 0.3468(2) 0.4464(2) 0.43498(17)
C5 C 0.4859(2) 0.41144(19) 0.33747(17)
C6 C 0.57440(19) 0.27192(19) 0.40411(17)
C7 C 0.48335(19) 0.23293(19) 0.53620(17)
C8 C 0.5297(2) 0.1008(2) 0.63508(17)
C9 C 0.6819(2) 0.0107(2) 0.58939(17)
C10 C 0.7481(2) -0.1207(2) 0.67418(18)
H6 H 0.8502 -0.1783 0.6422
C11 C 0.6571(2) -0.1635(2) 0.80829(19)
C12 C 0.5027(2) -0.0770(2) 0.85474(18)
H7 H 0.4419 -0.1090 0.9437
C13 C 0.4405(2) 0.0534(2) 0.77138(18)
H8 H 0.3390 0.1111 0.8045
C14 C 0.8636(3) -0.3801(3) 0.8657(2)
H9 H 0.8724 -0.4182 0.7803
H10 H 0.8799 -0.4659 0.9407
H11 H 0.9446 -0.3181 0.8512
C15 C 0.7294(2) 0.1757(2) 0.35623(17)
C16 C 0.5415(2) 0.4977(2) 0.19263(19)
H12 H 0.4700 0.5965 0.1792
H13 H 0.5401 0.4388 0.1231
H14 H 0.6500 0.5132 0.1827
O1 O 0.20174(15) 0.65791(16) 0.31293(14)
O2 O 0.10274(16) 0.59490(17) 0.54615(14)
O3 O 0.34363(13) 0.33714(13) 0.55868(12)
O4 O 0.82031(15) 0.19131(16) 0.24315(13)
O5 O 0.77585(13) 0.04819(14) 0.45610(12)
O6 O 0.70631(17) -0.28806(17) 0.90258(14)
loop_
_geom_bond_atom_site_label_1
_geom_bond_atom_site_label_2
_geom_bond_site_symmetry_1
_geom_bond_site_symmetry_2
C1 H1 1_555 1_555
H2 C1 1_555 1_555
H3 C1 1_555 1_555
C2 C1 1_555 1_555
H4 C2 1_555 1_555
H5 C2 1_555 1_555
C3 C4 1_555 1_555
C4 C5 1_555 1_555
C5 C6 1_555 1_555
C6 C7 1_555 1_555
C7 C8 1_555 1_555
C8 C9 1_555 1_555
C9 C10 1_555 1_555
C10 H6 1_555 1_555
C11 C10 1_555 1_555
C12 C11 1_555 1_555
H7 C12 1_555 1_555
C13 C8 1_555 1_555
H8 C13 1_555 1_555
C14 H9 1_555 1_555
H10 C14 1_555 1_555
H11 C14 1_555 1_555
C15 C6 1_555 1_555
C16 C5 1_555 1_555
H12 C16 1_555 1_555
H13 C16 1_555 1_555
H14 C16 1_555 1_555
O1 C2 1_555 1_555
O2 C3 1_555 1_555
O3 C4 1_555 1_555
O4 C15 1_555 1_555
O5 C9 1_555 1_555
O6 C11 1_555 1_555
C3 O1 1_555 1_555
C7 O3 1_555 1_555
C12 C13 1_555 1_555
C14 O6 1_555 1_555
C15 O5 1_555 1_555

#END
