
#######################################################################
#
#                 Cambridge Crystallographic Data Centre
#                                CCDC 
#
#######################################################################
#
# If this CIF has been generated from an entry in the Cambridge 
# Structural Database, then it will include bibliographic, chemical, 
# crystal, experimental, refinement or atomic coordinate data resulting 
# from the CCDC's data processing and validation procedures.
#
#######################################################################

data_UTEJAG
_chemical_formula_moiety         'C2 H2 N8 O2,2(C2 H4 N4)'
_chemical_name_systematic        
"1H,1'H-5,5'-bitetrazole-1,1'-diol bis(1H-1,2,3-triazol-1-amine)"
_symmetry_cell_setting           monoclinic
_symmetry_space_group_name_H-M   'C 2/c'
_symmetry_Int_Tables_number      15
_space_group_name_Hall           '-C 2yn'
loop_
_symmetry_equiv_pos_site_id
_symmetry_equiv_pos_as_xyz
1 x,y,z
2 -x,y,1/2-z
3 1/2+x,1/2+y,z
4 1/2-x,1/2+y,1/2-z
5 -x,-y,-z
6 x,-y,1/2+z
7 1/2-x,1/2-y,-z
8 1/2+x,1/2-y,1/2+z
_cell_length_a                   21.5319(19)
_cell_length_b                   3.7406(3)
_cell_length_c                   19.5090(18)
_cell_angle_alpha                90
_cell_angle_beta                 122.552(2)
_cell_angle_gamma                90
_cell_volume                     1324.45
_cell_formula_units_Z            4
loop_
_atom_site_label
_atom_site_type_symbol
_atom_site_fract_x
_atom_site_fract_y
_atom_site_fract_z
O1 O 0.61631(7) -0.0763(4) 0.49176(8)
H1 H 0.6380 -0.0481 0.4682
N1 N 0.54942(8) 0.0596(4) 0.44741(9)
N2 N 0.43782(9) 0.2290(5) 0.40149(10)
C1 C 0.49631(10) 0.0701(5) 0.46345(11)
N3 N 0.52435(9) 0.2136(5) 0.37514(10)
N4 N 0.45675(9) 0.3133(5) 0.34821(10)
O1D O 0.38369(7) 0.0763(4) 0.50824(8)
H1D H 0.3620 0.0481 0.5318
N1D N 0.45058(8) -0.0596(4) 0.55259(9)
N2D N 0.56218(9) -0.2290(5) 0.59851(10)
C1D C 0.50369(10) -0.0701(5) 0.53655(11)
N3D N 0.47565(9) -0.2136(5) 0.62486(10)
N4D N 0.54325(9) -0.3133(5) 0.65179(10)
N5 N 0.16931(9) 0.3763(5) 0.40044(10)
N6 N 0.24151(8) 0.4687(4) 0.36247(9)
N7 N 0.23450(9) 0.5142(5) 0.42490(9)
N8 N 0.30242(9) 0.6078(5) 0.36452(10)
H2 H 0.3259 0.7603 0.4058
H3 H 0.3326 0.4301 0.3711
C2 C 0.13637(12) 0.2449(6) 0.32468(13)
H4 H 0.0906 0.1335 0.2953
C3 C 0.18307(11) 0.3071(6) 0.29951(12)
H5 H 0.1761 0.2499 0.2494
loop_
_geom_bond_atom_site_label_1
_geom_bond_atom_site_label_2
_geom_bond_site_symmetry_1
_geom_bond_site_symmetry_2
O1 H1 1_555 1_555
N1 O1 1_555 1_555
N2 C1 1_555 1_555
C1 N1 1_555 1_555
N3 N1 1_555 1_555
N4 N2 1_555 1_555
N5 N7 1_555 1_555
N6 N7 1_555 1_555
N8 N6 1_555 1_555
H2 N8 1_555 1_555
H3 N8 1_555 1_555
C2 N5 1_555 1_555
H4 C2 1_555 1_555
C3 N6 1_555 1_555
H5 C3 1_555 1_555
O1D H1D 1_555 1_555
N1D O1D 1_555 1_555
N2D C1D 1_555 1_555
C1D C1 1_555 1_555
N3D N1D 1_555 1_555
N4D N2D 1_555 1_555
N3 N4 1_555 1_555
C2 C3 1_555 1_555
N1D C1D 1_555 1_555
N3D N4D 1_555 1_555

#END
