
#######################################################################
#
#                 Cambridge Crystallographic Data Centre
#                                CCDC 
#
#######################################################################
#
# If this CIF has been generated from an entry in the Cambridge 
# Structural Database, then it will include bibliographic, chemical, 
# crystal, experimental, refinement or atomic coordinate data resulting 
# from the CCDC's data processing and validation procedures.
#
#######################################################################

data_UTEPOA
_chemical_formula_moiety         'C32 H27 B1 Br2 F2 N2 O2'
_chemical_name_systematic        
2,8-dibromo-5,5-difluoro-10-mesityl-3,7-bis(4-methoxyphenyl)-5H-4\l^5^,5\l^5^-dipyrrolo[1,2-c:2',1'-f][1,3,2]diazaborinine
_symmetry_cell_setting           triclinic
_symmetry_space_group_name_H-M   'P -1'
_symmetry_Int_Tables_number      2
_space_group_name_Hall           '-P 1'
loop_
_symmetry_equiv_pos_site_id
_symmetry_equiv_pos_as_xyz
1 x,y,z
2 -x,-y,-z
_cell_length_a                   10.0689(9)
_cell_length_b                   11.1065(10)
_cell_length_c                   13.8179(13)
_cell_angle_alpha                87.3390(10)
_cell_angle_beta                 78.7590(10)
_cell_angle_gamma                80.7180(10)
_cell_volume                     1495.59
_exptl_crystal_colour            colorless
_exptl_crystal_description       block
_cell_formula_units_Z            2
loop_
_atom_site_label
_atom_site_type_symbol
_atom_site_fract_x
_atom_site_fract_y
_atom_site_fract_z
B1 B 0.7956(4) 0.5301(3) 0.9444(3)
Br1 Br 0.84227(5) 0.10121(3) 1.15998(3)
Br2 Br 0.90282(7) 0.71656(4) 0.56540(3)
C1 C 0.7980(3) 0.3392(3) 1.0629(2)
C2 C 0.8600(3) 0.2151(3) 1.0564(2)
C3 C 0.9256(4) 0.1918(3) 0.9612(2)
H1 H 0.9743 0.1177 0.9365
C4 C 0.9049(3) 0.3020(3) 0.9081(2)
C5 C 0.9505(3) 0.3275(3) 0.8092(2)
C6 C 0.9196(4) 0.4449(3) 0.7707(2)
C7 C 0.9473(4) 0.4876(3) 0.6729(3)
H2 H 0.9951 0.4429 0.6182
C8 C 0.8897(5) 0.6081(3) 0.6738(3)
C9 C 0.8263(4) 0.6405(3) 0.7719(2)
C10 C 0.7134(4) 0.4035(3) 1.1554(3)
C11 C 0.5843(4) 0.4555(3) 1.1585(3)
H3 H 0.5422 0.4511 1.1048
C12 C 0.5130(5) 0.5167(5) 1.2433(4)
H4 H 0.4213 0.5503 1.2475
C13 C 0.5783(6) 0.5280(5) 1.3218(4)
C14 C 0.7106(6) 0.4700(5) 1.3180(3)
H5 H 0.7541 0.4738 1.3711
C15 C 0.7789(4) 0.4055(4) 1.2337(3)
H6 H 0.8676 0.3643 1.2306
C16 C 0.5766(10) 0.6362(7) 1.4708(5)
H7 H 0.5998 0.5681 1.5129
H8 H 0.5186 0.7007 1.5098
H9 H 0.6588 0.6649 1.4374
C17 C 1.0323(4) 0.2287(3) 0.7423(2)
C18 C 0.9659(4) 0.1677(3) 0.6841(2)
C19 C 1.0462(5) 0.0757(4) 0.6229(3)
H10 H 1.0034 0.0326 0.5852
C20 C 1.1842(5) 0.0467(4) 0.6163(3)
C21 C 1.2459(4) 0.1088(3) 0.6745(3)
H11 H 1.3404 0.0906 0.6699
C22 C 1.1719(4) 0.1980(3) 0.7402(3)
C23 C 0.8148(5) 0.1966(5) 0.6863(4)
H12 H 0.7978 0.2551 0.6351
H13 H 0.7694 0.2298 0.7493
H14 H 0.7805 0.1234 0.6760
C24 C 1.2682(7) -0.0526(5) 0.5479(4)
H15 H 1.2197 -0.1208 0.5517
H16 H 1.3549 -0.0784 0.5676
H17 H 1.2832 -0.0214 0.4814
C25 C 1.2430(5) 0.2538(4) 0.8094(3)
H18 H 1.2039 0.3382 0.8189
H19 H 1.3389 0.2476 0.7816
H20 H 1.2313 0.2112 0.8718
C26 C 0.7509(4) 0.7642(3) 0.8056(2)
C27 C 0.7864(4) 0.8267(3) 0.8743(3)
H21 H 0.8586 0.7923 0.9047
C28 C 0.7163(4) 0.9433(3) 0.9010(3)
H22 H 0.7420 0.9864 0.9486
C29 C 0.6096(4) 0.9930(3) 0.8565(3)
C30 C 0.5720(5) 0.9269(4) 0.7865(4)
H23 H 0.4992 0.9603 0.7564
C31 C 0.6408(5) 0.8129(4) 0.7612(3)
H24 H 0.6143 0.7683 0.7149
C32 C 0.5642(5) 1.1810(4) 0.9444(4)
H25 H 0.5699 1.1364 1.0051
H26 H 0.4941 1.2511 0.9567
H27 H 0.6506 1.2070 0.9180
F1 F 0.6593(2) 0.5731(2) 0.96668(17)
F2 F 0.8691(3) 0.59262(18) 0.99203(16)
N1 N 0.8256(3) 0.3908(2) 0.97249(18)
N2 N 0.8464(3) 0.5403(2) 0.82979(19)
O1 O 0.5049(5) 0.5987(4) 1.3988(3)
O2 O 0.5314(3) 1.1047(3) 0.8754(3)
loop_
_geom_bond_atom_site_label_1
_geom_bond_atom_site_label_2
_geom_bond_site_symmetry_1
_geom_bond_site_symmetry_2
B1 F1 1_555 1_555
Br1 C2 1_555 1_555
Br2 C8 1_555 1_555
C1 C2 1_555 1_555
C2 C3 1_555 1_555
C3 H1 1_555 1_555
C4 C3 1_555 1_555
C5 C4 1_555 1_555
C6 C5 1_555 1_555
C7 C6 1_555 1_555
H2 C7 1_555 1_555
C8 C7 1_555 1_555
C9 C8 1_555 1_555
C10 C1 1_555 1_555
C11 C10 1_555 1_555
H3 C11 1_555 1_555
C12 C11 1_555 1_555
H4 C12 1_555 1_555
C13 C12 1_555 1_555
C14 C13 1_555 1_555
H5 C14 1_555 1_555
C15 C10 1_555 1_555
H6 C15 1_555 1_555
C16 H7 1_555 1_555
H8 C16 1_555 1_555
H9 C16 1_555 1_555
C17 C5 1_555 1_555
C18 C17 1_555 1_555
C19 C18 1_555 1_555
H10 C19 1_555 1_555
C20 C19 1_555 1_555
C21 C20 1_555 1_555
H11 C21 1_555 1_555
C22 C17 1_555 1_555
C23 C18 1_555 1_555
H12 C23 1_555 1_555
H13 C23 1_555 1_555
H14 C23 1_555 1_555
C24 C20 1_555 1_555
H15 C24 1_555 1_555
H16 C24 1_555 1_555
H17 C24 1_555 1_555
C25 C22 1_555 1_555
H18 C25 1_555 1_555
H19 C25 1_555 1_555
H20 C25 1_555 1_555
C26 C9 1_555 1_555
C27 C26 1_555 1_555
H21 C27 1_555 1_555
C28 C27 1_555 1_555
H22 C28 1_555 1_555
C29 C28 1_555 1_555
C30 C29 1_555 1_555
H23 C30 1_555 1_555
C31 C26 1_555 1_555
H24 C31 1_555 1_555
C32 H25 1_555 1_555
H26 C32 1_555 1_555
H27 C32 1_555 1_555
F2 B1 1_555 1_555
N1 B1 1_555 1_555
N2 B1 1_555 1_555
O1 C13 1_555 1_555
O2 C29 1_555 1_555
C1 N1 1_555 1_555
C4 N1 1_555 1_555
C6 N2 1_555 1_555
C9 N2 1_555 1_555
C14 C15 1_555 1_555
C16 O1 1_555 1_555
C21 C22 1_555 1_555
C30 C31 1_555 1_555
C32 O2 1_555 1_555

#END
