
#######################################################################
#
#                 Cambridge Crystallographic Data Centre
#                                CCDC 
#
#######################################################################
#
# If this CIF has been generated from an entry in the Cambridge 
# Structural Database, then it will include bibliographic, chemical, 
# crystal, experimental, refinement or atomic coordinate data resulting 
# from the CCDC's data processing and validation procedures.
#
#######################################################################

data_UTEPIU
_chemical_formula_moiety         'C23 H13 B1 Br2 F2 N2 S2'
_chemical_name_systematic        
2,8-dibromo-5,5-difluoro-10-phenyl-3,7-bis(2-thienyl)-5H-4\l^5^,5\l^5^-dipyrrolo[1,2-c:2',1'-f][1,3,2]diazaborinine
_symmetry_cell_setting           monoclinic
_symmetry_space_group_name_H-M   'P 21/c'
_symmetry_Int_Tables_number      14
_space_group_name_Hall           '-P 2ybc'
loop_
_symmetry_equiv_pos_site_id
_symmetry_equiv_pos_as_xyz
1 x,y,z
2 -x,1/2+y,1/2-z
3 -x,-y,-z
4 x,1/2-y,1/2+z
_cell_length_a                   10.6284(9)
_cell_length_b                   21.6227(18)
_cell_length_c                   9.5074(8)
_cell_angle_alpha                90
_cell_angle_beta                 94.6850(10)
_cell_angle_gamma                90
_cell_volume                     2177.64
_exptl_crystal_colour            colorless
_exptl_crystal_description       block
_cell_formula_units_Z            4
loop_
_atom_site_label
_atom_site_type_symbol
_atom_site_fract_x
_atom_site_fract_y
_atom_site_fract_z
C1 C 0.8557(6) 0.4839(2) 0.0579(6)
H1 H 0.9003 0.5200 0.0423
C2 C 0.8606(7) 0.4499(3) 0.1860(5)
H2 H 0.9088 0.4597 0.2690
C3 C 0.7788(6) 0.3982(2) 0.1650(5)
H3 H 0.7641 0.3682 0.2319
C4 C 0.7235(5) 0.4003(2) 0.0240(5)
S1 S 0.7710(4) 0.45325(18) -0.0422(4)
B1 B 0.7265(8) 0.2509(4) 0.0726(9)
Br1 Br 0.46369(10) 0.44832(5) -0.17939(12)
Br2 Br 0.73779(9) -0.00436(4) 0.06374(12)
C5 C 0.6256(8) 0.3530(4) -0.0321(9)
C6 C 0.5160(8) 0.3685(4) -0.1216(9)
C7 C 0.4479(8) 0.3155(4) -0.1505(10)
H4 H 0.3715 0.3123 -0.2050
C8 C 0.5146(7) 0.2677(4) -0.0831(9)
C9 C 0.4901(7) 0.2048(4) -0.0870(9)
C10 C 0.5787(7) 0.1622(4) -0.0285(9)
C11 C 0.5767(8) 0.0970(4) -0.0282(9)
H5 H 0.5107 0.0717 -0.0635
C12 C 0.6896(8) 0.0784(4) 0.0338(9)
C13 C 0.7622(8) 0.1302(4) 0.0764(8)
C14 C 0.8903(7) 0.1325(4) 0.1430(9)
C15 C 0.9386(10) 0.1683(5) 0.2518(11)
H6 H 0.8930 0.1978 0.2977
C16 C 1.0683(11) 0.1546(5) 0.2858(13)
H7 H 1.1161 0.1737 0.3598
C17 C 1.1152(10) 0.1130(5) 0.2045(13)
H8 H 1.1993 0.1006 0.2120
C18 C 0.3713(8) 0.1819(4) -0.1637(10)
C19 C 0.3754(10) 0.1441(5) -0.2825(11)
H9 H 0.4518 0.1299 -0.3112
C20 C 0.2621(12) 0.1287(6) -0.3561(14)
H10 H 0.2645 0.1057 -0.4386
C21 C 0.1504(11) 0.1446(7) -0.3155(16)
H11 H 0.0768 0.1323 -0.3677
C22 C 0.1441(10) 0.1802(7) -0.194(2)
H12 H 0.0661 0.1914 -0.1638
C23 C 0.2558(9) 0.1991(5) -0.1160(15)
H13 H 0.2526 0.2227 -0.0346
F1 F 0.8432(4) 0.2656(2) 0.0344(5)
F2 F 0.7179(5) 0.2594(2) 0.2158(5)
N1 N 0.6226(6) 0.2917(3) -0.0109(7)
N2 N 0.6931(6) 0.1813(3) 0.0387(7)
S2 S 1.0039(2) 0.08466(13) 0.0845(3)
loop_
_geom_bond_atom_site_label_1
_geom_bond_atom_site_label_2
_geom_bond_site_symmetry_1
_geom_bond_site_symmetry_2
C1 H1 1_555 1_555
C2 C1 1_555 1_555
H2 C2 1_555 1_555
C3 C2 1_555 1_555
H3 C3 1_555 1_555
C4 C3 1_555 1_555
S1 C1 1_555 1_555
B1 F1 1_555 1_555
Br1 C6 1_555 1_555
Br2 C12 1_555 1_555
C5 C4 1_555 1_555
C6 C5 1_555 1_555
C7 C6 1_555 1_555
H4 C7 1_555 1_555
C8 C7 1_555 1_555
C9 C8 1_555 1_555
C10 C9 1_555 1_555
C11 C10 1_555 1_555
H5 C11 1_555 1_555
C12 C11 1_555 1_555
C13 C12 1_555 1_555
C14 C13 1_555 1_555
C15 C14 1_555 1_555
H6 C15 1_555 1_555
C16 C15 1_555 1_555
H7 C16 1_555 1_555
C17 C16 1_555 1_555
H8 C17 1_555 1_555
C18 C9 1_555 1_555
C19 C18 1_555 1_555
H9 C19 1_555 1_555
C20 C19 1_555 1_555
H10 C20 1_555 1_555
C21 C20 1_555 1_555
H11 C21 1_555 1_555
C22 C21 1_555 1_555
H12 C22 1_555 1_555
C23 C18 1_555 1_555
H13 C23 1_555 1_555
F2 B1 1_555 1_555
N1 B1 1_555 1_555
N2 B1 1_555 1_555
S2 C14 1_555 1_555
C4 S1 1_555 1_555
C5 N1 1_555 1_555
C8 N1 1_555 1_555
C10 N2 1_555 1_555
C13 N2 1_555 1_555
C17 S2 1_555 1_555
C22 C23 1_555 1_555

#END
