
#######################################################################
#
#                 Cambridge Crystallographic Data Centre
#                                CCDC 
#
#######################################################################
#
# If this CIF has been generated from an entry in the Cambridge 
# Structural Database, then it will include bibliographic, chemical, 
# crystal, experimental, refinement or atomic coordinate data resulting 
# from the CCDC's data processing and validation procedures.
#
#######################################################################

data_UTEPUF
_chemical_formula_moiety         'C19 H20 N1 O1 S1 1+,Cl1 1-'
_chemical_name_systematic        
'(-)-(1R,2R)-N-Methyl (2-(1-naphthyloxy)-2-(thien-2-yl)cyclopropyl)methanaminium chloride'
_symmetry_cell_setting           monoclinic
_symmetry_space_group_name_H-M   'P 21'
_symmetry_Int_Tables_number      4
_space_group_name_Hall           'P 2yb'
loop_
_symmetry_equiv_pos_site_id
_symmetry_equiv_pos_as_xyz
1 x,y,z
2 -x,1/2+y,-z
_cell_length_a                   9.2343(11)
_cell_length_b                   6.7831(8)
_cell_length_c                   14.9383(18)
_cell_angle_alpha                90
_cell_angle_beta                 104.353(2)
_cell_angle_gamma                90
_cell_volume                     906.487
_cell_formula_units_Z            2
loop_
_atom_site_label
_atom_site_type_symbol
_atom_site_fract_x
_atom_site_fract_y
_atom_site_fract_z
S1 S 0.4602(1) 0.0298(1) 0.8293(1)
O1 O 0.8297(2) -0.0079(2) 0.7359(1)
N1 N 1.0325(2) 0.3102(3) 0.8842(1)
C1 C 0.4480(3) -0.1769(4) 0.8919(2)
C2 C 0.5677(3) -0.2890(5) 0.9021(2)
C3 C 0.6772(3) -0.2087(4) 0.8608(2)
C4 C 0.6341(2) -0.0344(3) 0.8177(1)
C5 C 0.7185(2) 0.0933(3) 0.7681(1)
C6 C 0.6505(3) 0.2718(4) 0.7134(2)
C7 C 0.7664(3) 0.2972(3) 0.8038(2)
C8 C 0.9174(3) 0.3731(4) 0.8019(2)
C9 C 1.1836(3) 0.3827(5) 0.8847(2)
C10 C 0.7858(2) -0.1366(3) 0.6633(1)
C11 C 0.6415(2) -0.1664(3) 0.6151(1)
C12 C 0.6096(3) -0.3048(4) 0.5421(2)
C13 C 0.7196(3) -0.4074(3) 0.5186(2)
C14 C 0.8713(3) -0.3814(3) 0.5680(1)
C15 C 0.9058(2) -0.2422(3) 0.6412(1)
C16 C 1.0572(2) -0.2159(3) 0.6900(2)
C17 C 1.1670(3) -0.3234(4) 0.6672(2)
C18 C 1.1334(3) -0.4617(4) 0.5948(2)
C19 C 0.9897(3) -0.4892(4) 0.5469(2)
H1 H 1.0340(20) 0.1840(40) 0.8873(14)
H2 H 1.0030(30) 0.3510(50) 0.9310(18)
H3 H 0.3670(30) -0.1970(40) 0.9148(18)
H4 H 0.5870(30) -0.4070(50) 0.9295(19)
H5 H 0.7570(30) -0.2520(40) 0.8655(18)
H6 H 0.5430(30) 0.3020(40) 0.7113(16)
H7 H 0.6810(30) 0.3000(40) 0.6600(20)
H8 H 0.7310(30) 0.3330(40) 0.8548(17)
H9 H 0.9160(20) 0.5130(40) 0.7992(13)
H10 H 0.9480(20) 0.3280(30) 0.7503(14)
H11 H 1.2140(30) 0.3360(50) 0.8281(19)
H12 H 1.1830(30) 0.5200(50) 0.8865(19)
H13 H 1.2470(30) 0.3350(40) 0.9410(18)
H14 H 0.5630(20) -0.1010(40) 0.6332(13)
H15 H 0.5170(30) -0.3210(40) 0.5111(19)
H16 H 0.6970(20) -0.4970(40) 0.4698(16)
H17 H 1.0780(20) -0.1200(40) 0.7387(15)
H18 H 1.2670(30) -0.3080(40) 0.6991(15)
H19 H 1.2090(30) -0.5400(40) 0.5842(16)
H20 H 0.9660(20) -0.5830(40) 0.5003(16)
Cl1 Cl 0.0959(1) -0.1222(1) 0.9446(1)
loop_
_geom_bond_atom_site_label_1
_geom_bond_atom_site_label_2
_geom_bond_site_symmetry_1
_geom_bond_site_symmetry_2
S1 C1 1_555 1_555
O1 C5 1_555 1_555
N1 C8 1_555 1_555
C1 C2 1_555 1_555
C2 C3 1_555 1_555
C3 C4 1_555 1_555
C4 S1 1_555 1_555
C5 C4 1_555 1_555
C6 C5 1_555 1_555
C7 C5 1_555 1_555
C8 C7 1_555 1_555
C9 N1 1_555 1_555
C10 O1 1_555 1_555
C11 C10 1_555 1_555
C12 C11 1_555 1_555
C13 C12 1_555 1_555
C14 C13 1_555 1_555
C15 C10 1_555 1_555
C16 C15 1_555 1_555
C17 C16 1_555 1_555
C18 C17 1_555 1_555
C19 C14 1_555 1_555
H1 N1 1_555 1_555
H2 N1 1_555 1_555
H3 C1 1_555 1_555
H4 C2 1_555 1_555
H5 C3 1_555 1_555
H6 C6 1_555 1_555
H7 C6 1_555 1_555
H8 C7 1_555 1_555
H9 C8 1_555 1_555
H10 C8 1_555 1_555
H11 C9 1_555 1_555
H12 C9 1_555 1_555
H13 C9 1_555 1_555
H14 C11 1_555 1_555
H15 C12 1_555 1_555
H16 C13 1_555 1_555
H17 C16 1_555 1_555
H18 C17 1_555 1_555
H19 C18 1_555 1_555
H20 C19 1_555 1_555
C6 C7 1_555 1_555
C14 C15 1_555 1_555
C18 C19 1_555 1_555

#END
