
#######################################################################
#
#                 Cambridge Crystallographic Data Centre
#                                CCDC 
#
#######################################################################
#
# If this CIF has been generated from an entry in the Cambridge 
# Structural Database, then it will include bibliographic, chemical, 
# crystal, experimental, refinement or atomic coordinate data resulting 
# from the CCDC's data processing and validation procedures.
#
#######################################################################

data_UTEPIT
_chemical_formula_moiety         'C19 H20 N1 O1 S1 1+,Cl1 1-,C1 H4 O1'
_chemical_name_systematic        
'(-)-(1S,2R)-N-Methyl(2-(1-naphthyloxy)-2-(2-thienyl)cyclopropyl)methanaminium chloride methanol solvate'
_symmetry_cell_setting           orthorhombic
_symmetry_space_group_name_H-M   'P 21 21 21'
_symmetry_Int_Tables_number      19
_space_group_name_Hall           'P 2ac 2ab'
loop_
_symmetry_equiv_pos_site_id
_symmetry_equiv_pos_as_xyz
1 x,y,z
2 1/2-x,-y,1/2+z
3 -x,1/2+y,1/2-z
4 1/2+x,1/2-y,-z
_cell_length_a                   6.9491(5)
_cell_length_b                   9.0000(7)
_cell_length_c                   31.877(2)
_cell_angle_alpha                90
_cell_angle_beta                 90
_cell_angle_gamma                90
_cell_volume                     1993.65
_cell_formula_units_Z            4
loop_
_atom_site_label
_atom_site_type_symbol
_atom_site_fract_x
_atom_site_fract_y
_atom_site_fract_z
Cl1 Cl 0.2333(1) 0.3401(1) 0.9595(1)
S1 S 0.5499(1) 1.0548(1) 0.8043(1)
O1 O 0.7897(2) 0.8972(2) 0.8682(1)
N1 N 0.7904(2) 1.3358(2) 0.9562(1)
C1 C 0.3272(5) 1.1273(3) 0.7947(1)
C2 C 0.2283(4) 1.1508(3) 0.8299(1)
C3 C 0.3303(3) 1.1082(2) 0.8660(1)
C4 C 0.5122(3) 1.0554(2) 0.8577(1)
C5 C 0.6659(3) 1.0031(2) 0.8864(1)
C6 C 0.6355(3) 0.9955(2) 0.9330(1)
C7 C 0.7755(3) 1.1072(2) 0.9148(1)
C8 C 0.7298(3) 1.2692(2) 0.9154(1)
C9 C 0.7323(4) 1.4924(3) 0.9613(1)
C10 C 0.7139(3) 0.7603(2) 0.8578(1)
C11 C 0.5387(3) 0.7077(2) 0.8719(1)
C12 C 0.4750(3) 0.5667(2) 0.8589(1)
C13 C 0.5827(4) 0.4813(2) 0.8329(1)
C14 C 0.7644(3) 0.5315(2) 0.8186(1)
C15 C 0.8836(4) 0.4450(3) 0.7919(1)
C16 C 1.0549(4) 0.4968(3) 0.7780(1)
C17 C 1.1193(4) 0.6386(3) 0.7896(1)
C18 C 1.0113(3) 0.7257(2) 0.8156(1)
C19 C 0.8314(3) 0.6747(2) 0.8308(1)
H1 H 0.7430(40) 1.2810(30) 0.9772(9)
H2 H 0.9210(40) 1.3250(30) 0.9580(8)
H4 H 0.2850(50) 1.1510(40) 0.7661(10)
H5 H 0.1090(50) 1.1900(40) 0.8340(10)
H6 H 0.2950(40) 1.1160(30) 0.8888(9)
H7 H 0.6880(40) 0.9220(30) 0.9458(7)
H8 H 0.5180(30) 1.0320(20) 0.9431(6)
H9 H 0.9010(40) 1.0770(30) 0.9189(8)
H10 H 0.8010(40) 1.3240(30) 0.8941(9)
H11 H 0.5900(30) 1.2870(20) 0.9134(6)
H12 H 0.5980(50) 1.4990(40) 0.9626(9)
H13 H 0.7940(50) 1.5320(30) 0.9858(9)
H14 H 0.7700(50) 1.5430(30) 0.9382(10)
H15 H 0.4650(40) 0.7670(30) 0.8899(7)
H16 H 0.3630(40) 0.5330(30) 0.8669(7)
H17 H 0.5400(40) 0.3820(30) 0.8251(8)
H18 H 0.8530(40) 0.3530(30) 0.7852(7)
H19 H 1.1280(40) 0.4390(30) 0.7597(8)
H20 H 1.2390(40) 0.6740(30) 0.7811(8)
H21 H 1.0530(40) 0.8200(30) 0.8227(7)
O2 O 0.2753(3) 0.7032(3) 0.9678(1)
C20 C 0.1272(4) 0.7691(3) 0.9451(1)
H3 H 0.2520(60) 0.6150(50) 0.9642(12)
H22 H 0.0260(30) 0.7860(40) 0.9678(7)
H23 H 0.0890(40) 0.7060(30) 0.9218(8)
H24 H 0.1700(40) 0.8690(20) 0.9371(8)
loop_
_geom_bond_atom_site_label_1
_geom_bond_atom_site_label_2
_geom_bond_site_symmetry_1
_geom_bond_site_symmetry_2
S1 C1 1_555 1_555
O1 C5 1_555 1_555
O2 C20 1_555 1_555
N1 C8 1_555 1_555
C1 C2 1_555 1_555
C2 C3 1_555 1_555
C3 C4 1_555 1_555
C4 S1 1_555 1_555
C5 C4 1_555 1_555
C6 C5 1_555 1_555
C7 C5 1_555 1_555
C8 C7 1_555 1_555
C9 N1 1_555 1_555
C10 O1 1_555 1_555
C11 C10 1_555 1_555
C12 C11 1_555 1_555
C13 C12 1_555 1_555
C14 C13 1_555 1_555
C15 C14 1_555 1_555
C16 C15 1_555 1_555
C17 C16 1_555 1_555
C18 C17 1_555 1_555
C19 C10 1_555 1_555
C20 H22 1_555 1_555
H1 N1 1_555 1_555
H2 N1 1_555 1_555
H3 O2 1_555 1_555
H4 C1 1_555 1_555
H5 C2 1_555 1_555
H6 C3 1_555 1_555
H7 C6 1_555 1_555
H8 C6 1_555 1_555
H9 C7 1_555 1_555
H10 C8 1_555 1_555
H11 C8 1_555 1_555
H12 C9 1_555 1_555
H13 C9 1_555 1_555
H14 C9 1_555 1_555
H15 C11 1_555 1_555
H16 C12 1_555 1_555
H17 C13 1_555 1_555
H18 C15 1_555 1_555
H19 C16 1_555 1_555
H20 C17 1_555 1_555
H21 C18 1_555 1_555
H23 C20 1_555 1_555
H24 C20 1_555 1_555
C6 C7 1_555 1_555
C14 C19 1_555 1_555
C18 C19 1_555 1_555

#END
