
#######################################################################
#
#                 Cambridge Crystallographic Data Centre
#                                CCDC 
#
#######################################################################
#
# If this CIF has been generated from an entry in the Cambridge 
# Structural Database, then it will include bibliographic, chemical, 
# crystal, experimental, refinement or atomic coordinate data resulting 
# from the CCDC's data processing and validation procedures.
#
#######################################################################

data_UTEPEP
_chemical_formula_moiety         'C19 H20 N1 O1 S1 1+,Cl1 1-,C1 H4 O1'
_chemical_name_systematic        
'(+)-(1R,2S)-N-Methyl(2-(1-naphthyloxy)-2-(2-thienyl)cyclopropyl)methanaminium chloride methanol solvate'
_symmetry_cell_setting           orthorhombic
_symmetry_space_group_name_H-M   'P 21 21 21'
_symmetry_Int_Tables_number      19
_space_group_name_Hall           'P 2ac 2ab'
loop_
_symmetry_equiv_pos_site_id
_symmetry_equiv_pos_as_xyz
1 x,y,z
2 1/2-x,-y,1/2+z
3 -x,1/2+y,1/2-z
4 1/2+x,1/2-y,-z
_cell_length_a                   6.9481(4)
_cell_length_b                   8.9988(5)
_cell_length_c                   31.8427(17)
_cell_angle_alpha                90
_cell_angle_beta                 90
_cell_angle_gamma                90
_cell_volume                     1990.95
_cell_formula_units_Z            4
loop_
_atom_site_label
_atom_site_type_symbol
_atom_site_fract_x
_atom_site_fract_y
_atom_site_fract_z
Cl1 Cl 0.2330(1) 0.8404(1) 0.0405(1)
S1 S 0.5496(1) 0.5547(1) 0.1957(1)
O1 O 0.7894(2) 0.3973(2) 0.1318(1)
N1 N 0.7901(2) 0.8358(2) 0.0438(1)
C1 C 0.3273(5) 0.6274(3) 0.2053(1)
C2 C 0.2278(4) 0.6503(3) 0.1702(1)
C3 C 0.3313(3) 0.6085(2) 0.1338(1)
C4 C 0.5115(3) 0.5554(2) 0.1423(1)
C5 C 0.6656(3) 0.5034(2) 0.1137(1)
C6 C 0.6355(3) 0.4958(2) 0.0668(1)
C7 C 0.7755(3) 0.6074(2) 0.0852(1)
C8 C 0.7299(3) 0.7692(2) 0.0846(1)
C9 C 0.7328(4) 0.9928(3) 0.0388(1)
C10 C 0.7133(3) 0.2603(2) 0.1421(1)
C11 C 0.5386(3) 0.2079(2) 0.1281(1)
C12 C 0.4751(3) 0.0665(2) 0.1411(1)
C13 C 0.5825(4) -0.0188(2) 0.1671(1)
C14 C 0.7642(3) 0.0311(2) 0.1815(1)
C15 C 0.8833(4) -0.0552(3) 0.2081(1)
C16 C 1.0543(4) -0.0032(3) 0.2221(1)
C17 C 1.1191(4) 0.1385(3) 0.2104(1)
C18 C 1.0108(3) 0.2259(2) 0.1844(1)
C19 C 0.8311(3) 0.1746(2) 0.1692(1)
H1 H 0.7420(40) 0.7830(30) 0.0221(9)
H2 H 0.9240(40) 0.8260(30) 0.0420(7)
H3 H 0.2830(40) 0.6490(30) 0.2340(10)
H4 H 0.1170(50) 0.6860(40) 0.1675(9)
H5 H 0.2940(40) 0.6180(30) 0.1087(9)
H6 H 0.6920(30) 0.4220(30) 0.0538(7)
H7 H 0.5200(30) 0.5290(20) 0.0573(6)
H8 H 0.9050(40) 0.5780(30) 0.0814(7)
H9 H 0.8010(4) 0.8280(30) 0.1060(8)
H10 H 0.5930(30) 0.7890(20) 0.0861(6)
H11 H 0.6000(50) 0.9990(30) 0.0352(9)
H12 H 0.7750(40) 1.0470(30) 0.0620(9)
H13 H 0.7940(40) 1.0290(30) 0.0146(8)
H14 H 0.4660(30) 0.2680(30) 0.1089(7)
H15 H 0.3640(40) 0.0330(30) 0.1330(7)
H16 H 0.5400(40) -0.1180(30) 0.1744(8)
H17 H 0.8520(30) -0.1490(30) 0.2146(7)
H18 H 1.1270(40) -0.0580(30) 0.2404(7)
H19 H 1.2400(40) 0.1710(30) 0.2196(8)
H20 H 1.0520(30) 0.3200(30) 0.1772(7)
O2 O 0.2751(3) 0.2031(3) 0.0323(1)
C20 C 0.1264(4) 0.2698(3) 0.0550(1)
H21 H 0.2560(50) 0.1120(40) 0.0353(11)
H22 H 0.0850(60) 0.2060(40) 0.0800(12)
H23 H 0.1730(50) 0.3720(40) 0.0635(10)
H24 H 0.0210(50) 0.2800(40) 0.0308(10)
loop_
_geom_bond_atom_site_label_1
_geom_bond_atom_site_label_2
_geom_bond_site_symmetry_1
_geom_bond_site_symmetry_2
S1 C1 1_555 1_555
O1 C5 1_555 1_555
N1 C8 1_555 1_555
C1 C2 1_555 1_555
C2 C3 1_555 1_555
C3 C4 1_555 1_555
C4 S1 1_555 1_555
C5 C4 1_555 1_555
C6 C5 1_555 1_555
C7 C5 1_555 1_555
C8 C7 1_555 1_555
C9 N1 1_555 1_555
C10 O1 1_555 1_555
C11 C10 1_555 1_555
C12 C11 1_555 1_555
C13 C12 1_555 1_555
C14 C13 1_555 1_555
C15 C14 1_555 1_555
C16 C15 1_555 1_555
C17 C16 1_555 1_555
C18 C17 1_555 1_555
C19 C10 1_555 1_555
O2 C20 1_555 1_555
C20 H22 1_555 1_555
H1 N1 1_555 1_555
H2 N1 1_555 1_555
H3 C1 1_555 1_555
H4 C2 1_555 1_555
H5 C3 1_555 1_555
H6 C6 1_555 1_555
H7 C6 1_555 1_555
H8 C7 1_555 1_555
H9 C8 1_555 1_555
H10 C8 1_555 1_555
H11 C9 1_555 1_555
H12 C9 1_555 1_555
H13 C9 1_555 1_555
H14 C11 1_555 1_555
H15 C12 1_555 1_555
H16 C13 1_555 1_555
H17 C15 1_555 1_555
H18 C16 1_555 1_555
H19 C17 1_555 1_555
H20 C18 1_555 1_555
H21 O2 1_555 1_555
H23 C20 1_555 1_555
H24 C20 1_555 1_555
C6 C7 1_555 1_555
C14 C19 1_555 1_555
C18 C19 1_555 1_555

#END
