
#######################################################################
#
#                 Cambridge Crystallographic Data Centre
#                                CCDC 
#
#######################################################################
#
# If this CIF has been generated from an entry in the Cambridge 
# Structural Database, then it will include bibliographic, chemical, 
# crystal, experimental, refinement or atomic coordinate data resulting 
# from the CCDC's data processing and validation procedures.
#
#######################################################################

data_UTEVIZ
_chemical_formula_moiety         'C72 H84 N12,C48 H48 N12,4(C1 H1 Cl3)'
_chemical_name_systematic        
'3,6,10,13,17,20,24,27,30,33,36,39-Dodecaaza-1,8,15,22(1,3,5)-tetrabenzenatricyclo[13.13.6.6^8,22^]tetracontaphane-2,6,9,13,16,20,23,27,29,33,35,39-dodecaene 3,5,9,11,15,17,21,23,26,28,31,33-dodecaaza-1,7,13,19(1,3,5)-tetrabenzena-4,10,16,22,27,32(1,3,5)-hexacyclohexano-bicyclo[17.11.5]tetratriacontaphane-2,5,8,11,14,17,20,23,25,28,30,33-dodecaene chloroform solvate'
_symmetry_cell_setting           rhombohedral
_symmetry_space_group_name_H-M   'R 3'
_symmetry_Int_Tables_number      146
_space_group_name_Hall           'R 3'
loop_
_symmetry_equiv_pos_site_id
_symmetry_equiv_pos_as_xyz
1 x,y,z
2 -y,x-y,z
3 -x+y,-x,z
4 1/3+x,2/3+y,2/3+z
5 1/3-y,2/3+x-y,2/3+z
6 1/3-x+y,2/3-x,2/3+z
7 2/3+x,1/3+y,1/3+z
8 2/3-y,1/3+x-y,1/3+z
9 2/3-x+y,1/3-x,1/3+z
_cell_length_a                   17.169(2)
_cell_length_b                   17.169(2)
_cell_length_c                   42.124(8)
_cell_angle_alpha                90
_cell_angle_beta                 90
_cell_angle_gamma                120
_cell_volume                     10753.5
_exptl_crystal_colour            colorless
_exptl_crystal_description       prism
_cell_formula_units_Z            3
loop_
_atom_site_label
_atom_site_type_symbol
_atom_site_fract_x
_atom_site_fract_y
_atom_site_fract_z
N5 N 1.0942(4) 0.7709(3) 0.91590(12)
N6 N 1.2436(3) 0.9551(3) 0.92514(11)
N7 N 0.8273(3) 0.6466(3) 0.79556(13)
N8 N 0.8992(3) 0.7525(3) 0.73584(12)
C25 C 1.1586(4) 0.7978(4) 0.94146(14)
C26 C 1.2475(4) 0.8747(4) 0.93006(15)
C27 C 1.2554(3) 0.9837(4) 0.89604(15)
C28 C 1.0233(4) 0.7788(4) 0.92179(14)
C29 C 0.9541(4) 0.7575(4) 0.89900(14)
C30 C 0.8793(4) 0.7630(3) 0.90715(13)
C31 C 0.8106(3) 0.7435(3) 0.88679(13)
C32 C 0.8141(4) 0.7175(3) 0.85642(14)
C33 C 0.8876(4) 0.7046(4) 0.84709(14)
C34 C 0.8891(4) 0.6703(4) 0.81469(15)
C35 C 0.8387(4) 0.6098(4) 0.76442(14)
C36 C 0.8261(4) 0.6549(4) 0.73808(15)
C37 C 0.8743(4) 0.8089(4) 0.73600(13)
C38 C 0.9402(4) 0.9063(3) 0.73403(13)
C39 C 0.9072(4) 0.9674(4) 0.73466(14)
C40 C 0.9560(4) 0.7247(4) 0.86832(15)
H29 H 1.16610 0.74650 0.94800
H30 H 1.13700 0.81700 0.96000
H31 H 1.29460 0.88650 0.94590
H32 H 1.26440 0.85730 0.90990
H33 H 1.26360 0.94950 0.88000
H34 H 1.01800 0.79970 0.94210
H35 H 0.87550 0.78140 0.92810
H36 H 0.76860 0.70820 0.84160
H37 H 0.94040 0.66670 0.80850
H38 H 0.89970 0.61730 0.76340
H39 H 0.79450 0.54470 0.76320
H40 H 0.76710 0.65150 0.74020
H41 H 0.82530 0.62360 0.71820
H42 H 0.81190 0.78940 0.73740
H43 H 0.84420 0.94490 0.73550
H44 H 1.00480 0.71660 0.86240
N5A N 1.2291(3) 1.3233(5) 0.91590(12)
N5B N 0.6767(5) 0.9058(4) 0.91590(12)
N6A N 1.0449(3) 1.2885(4) 0.92514(11)
N6B N 0.7115(4) 0.7564(3) 0.92514(11)
N7A N 1.3534(3) 1.1807(4) 0.79556(13)
N7B N 0.8193(4) 1.1727(3) 0.79556(13)
N8A N 1.2475(3) 1.1467(4) 0.73584(12)
N8B N 0.8533(4) 1.1008(3) 0.73584(12)
C25A C 1.2022(4) 1.3608(6) 0.94146(14)
C25B C 0.6392(6) 0.8414(4) 0.94146(14)
C26A C 1.1253(4) 1.3728(6) 0.93006(15)
C26B C 0.6272(6) 0.7525(4) 0.93006(15)
C27A C 1.0163(4) 1.2717(5) 0.89604(15)
C27B C 0.7283(5) 0.7446(3) 0.89604(15)
C28A C 1.2212(4) 1.2445(6) 0.92179(14)
C28B C 0.7555(6) 0.9767(4) 0.92179(14)
C29A C 1.2425(4) 1.1966(6) 0.89900(14)
C29B C 0.8034(6) 1.0459(4) 0.89900(14)
C30A C 1.2370(3) 1.1163(5) 0.90715(13)
C30B C 0.8837(5) 1.1207(4) 0.90715(13)
C31A C 1.2565(3) 1.0671(4) 0.88679(13)
C31B C 0.9329(4) 1.1894(3) 0.88679(13)
C32A C 1.2825(3) 1.0966(5) 0.85642(14)
C32B C 0.9034(5) 1.1859(4) 0.85642(14)
C33A C 1.2954(4) 1.1830(6) 0.84709(14)
C33B C 0.8170(6) 1.1124(4) 0.84709(14)
C34A C 1.3297(4) 1.2188(6) 0.81469(15)
C34B C 0.7812(6) 1.1109(4) 0.81469(15)
C35A C 1.3902(4) 1.2289(6) 0.76442(14)
C35B C 0.7711(6) 1.1613(4) 0.76442(14)
C36A C 1.3451(4) 1.1712(6) 0.73808(15)
C36B C 0.8288(6) 1.1739(4) 0.73808(15)
C37A C 1.1911(4) 1.0654(6) 0.73600(13)
C37B C 0.9346(6) 1.1257(4) 0.73600(13)
C38A C 1.0937(3) 1.0339(5) 0.73403(13)
C38B C 0.9661(5) 1.0598(4) 0.73403(13)
C39A C 1.0326(4) 0.9398(6) 0.73466(14)
C39B C 1.0602(6) 1.0928(4) 0.73466(14)
C40A C 1.2753(4) 1.2313(6) 0.86832(15)
C40B C 0.7687(6) 1.0440(4) 0.86832(15)
H29A H 1.25350 1.41960 0.94800
H29B H 0.58040 0.83390 0.94800
H30A H 1.18300 1.32000 0.96000
H30B H 0.68000 0.86300 0.96000
H31A H 1.11350 1.40810 0.94590
H31B H 0.59190 0.70540 0.94590
H32A H 1.14270 1.40710 0.90990
H32B H 0.59290 0.73560 0.90990
H33A H 1.05050 1.31410 0.88000
H33B H 0.68590 0.73640 0.88000
H34A H 1.20030 1.21830 0.94210
H34B H 0.78170 0.98200 0.94210
H35A H 1.21860 1.09410 0.92810
H35B H 0.90590 1.12450 0.92810
H36A H 1.29180 1.06040 0.84160
H36B H 0.93960 1.23140 0.84160
H37A H 1.33330 1.27370 0.80850
H37B H 0.72630 1.05960 0.80850
H38A H 1.38270 1.28240 0.76340
H38B H 0.71760 1.10030 0.76340
H39A H 1.45530 1.24980 0.76320
H39B H 0.75020 1.20550 0.76320
H40A H 1.34850 1.11560 0.74020
H40B H 0.88440 1.23290 0.74020
H41A H 1.37640 1.20170 0.71820
H41B H 0.79830 1.17470 0.71820
H42A H 1.21060 1.02250 0.73740
H42B H 0.97750 1.18810 0.73740
H43A H 1.05510 0.89930 0.73550
H43B H 1.10070 1.15580 0.73550
H44A H 1.28340 1.28820 0.86240
H44B H 0.71180 0.99520 0.86240
N1 N 0.6574(2) 0.7771(2) 0.68427(9)
N2 N 0.3042(2) 0.3840(2) 0.67795(9)
N3 N 0.5293(2) 0.5146(2) 0.80508(8)
N4 N 0.4830(2) 0.5667(2) 0.86383(9)
C1 C 0.6975(3) 0.8457(3) 0.66007(10)
C2 C 0.7047(3) 0.9320(3) 0.67203(10)
C3 C 0.7541(3) 1.0081(3) 0.64920(11)
C4 C 0.8475(3) 1.0219(3) 0.64151(11)
C5 C 0.8378(3) 0.9357(3) 0.62679(11)
C6 C 0.7887(3) 0.8585(3) 0.64955(11)
C7 C 0.5874(3) 0.7058(3) 0.67792(12)
C8 C 0.5455(3) 0.6344(3) 0.70046(12)
C9 C 0.4633(3) 0.5547(3) 0.69163(12)
C10 C 0.4200(3) 0.4830(3) 0.71304(12)
C11 C 0.3399(3) 0.4006(3) 0.70495(11)
C12 C 0.4572(3) 0.4921(3) 0.74317(12)
C13 C 0.5342(3) 0.5705(3) 0.75326(11)
C14 C 0.5691(3) 0.5760(3) 0.78557(12)
C15 C 0.5740(3) 0.5209(3) 0.83465(10)
C16 C 0.5058(3) 0.4985(3) 0.86246(10)
C17 C 0.3990(3) 0.5433(3) 0.86689(10)
C18 C 0.3647(3) 0.6060(3) 0.86699(13)
C19 C 0.4255(3) 0.6997(3) 0.86754(11)
C20 C 0.5499(3) 0.4964(3) 0.89388(11)
C21 C 0.5851(3) 0.4298(3) 0.89231(11)
C22 C 0.6551(3) 0.4582(3) 0.86566(11)
C23 C 0.6138(3) 0.4598(3) 0.83414(11)
C24 C 0.5741(3) 0.6377(3) 0.73175(11)
H1 H 0.65660 0.82530 0.64120
H2 H 0.73870 0.94830 0.69250
H3 H 0.76060 1.06400 0.65850
H4 H 0.71890 0.99530 0.62940
H5 H 0.88380 1.03680 0.66120
H6 H 0.87890 1.07250 0.62650
H7 H 0.80410 0.92240 0.60660
H8 H 0.89810 0.94400 0.62220
H9 H 0.82670 0.86910 0.66850
H10 H 0.77910 0.80250 0.63930
H11 H 0.56110 0.69860 0.65750
H12 H 0.43830 0.55060 0.67120
H13 H 0.31240 0.35600 0.72100
H14 H 0.42910 0.44290 0.75750
H15 H 0.62370 0.62790 0.79160
H16 H 0.62400 0.58420 0.83730
H17 H 0.45060 0.43900 0.85860
H18 H 0.35680 0.48100 0.86920
H19 H 0.48840 0.72170 0.86830
H20 H 0.50540 0.47860 0.91130
H21 H 0.60040 0.55730 0.89860
H22 H 0.61280 0.42930 0.91290
H23 H 0.53460 0.36840 0.88820
H24 H 0.70660 0.51870 0.87030
H25 H 0.67790 0.41550 0.86460
H26 H 0.56610 0.39790 0.82870
H27 H 0.66050 0.48040 0.81740
H28 H 0.62590 0.69160 0.73850
N1A N 0.2229(2) 0.8803(3) 0.68427(9)
N1B N 0.1197(3) 0.3426(2) 0.68427(9)
N2A N 0.6160(2) 0.9202(3) 0.67795(9)
N2B N 0.0798(3) 0.6958(2) 0.67795(9)
N3A N 0.4854(2) 1.0147(3) 0.80508(8)
N3B N -0.0147(3) 0.4707(2) 0.80508(8)
N4A N 0.4333(2) 0.9163(3) 0.86383(9)
N4B N 0.0837(3) 0.5170(2) 0.86383(9)
C1A C 0.1543(3) 0.8518(4) 0.66007(10)
C1B C 0.1482(4) 0.3025(3) 0.66007(10)
C2A C 0.0680(3) 0.7727(4) 0.67203(10)
C2B C 0.2273(4) 0.2953(3) 0.67203(10)
C3A C -0.0081(3) 0.7460(4) 0.64920(11)
C3B C 0.2540(4) 0.2459(3) 0.64920(11)
C4A C -0.0219(3) 0.8256(4) 0.64151(11)
C4B C 0.1744(4) 0.1525(3) 0.64151(11)
C5A C 0.0643(3) 0.9021(4) 0.62679(11)
C5B C 0.0979(4) 0.1622(3) 0.62679(11)
C6A C 0.1415(3) 0.9302(4) 0.64955(11)
C6B C 0.0698(4) 0.2113(3) 0.64955(11)
C7A C 0.2942(3) 0.8816(4) 0.67792(12)
C7B C 0.1184(4) 0.4126(3) 0.67792(12)
C8A C 0.3656(3) 0.9111(4) 0.70046(12)
C8B C 0.0889(4) 0.4545(3) 0.70046(12)
C9A C 0.4453(3) 0.9086(4) 0.69163(12)
C9B C 0.0914(4) 0.5367(3) 0.69163(12)
C10A C 0.5170(3) 0.9370(4) 0.71304(12)
C10B C 0.0630(4) 0.5800(3) 0.71304(12)
C11A C 0.5994(3) 0.9393(4) 0.70495(11)
C11B C 0.0607(4) 0.6601(3) 0.70495(11)
C12A C 0.5079(3) 0.9651(4) 0.74317(12)
C12B C 0.0349(4) 0.5428(3) 0.74317(12)
C13A C 0.4295(3) 0.9637(4) 0.75326(11)
C13B C 0.0363(4) 0.4658(3) 0.75326(11)
C14A C 0.4240(3) 0.9931(4) 0.78557(12)
C14B C 0.0069(4) 0.4309(3) 0.78557(12)
C15A C 0.4791(3) 1.0531(4) 0.83465(10)
C15B C -0.0531(4) 0.4260(3) 0.83465(10)
C16A C 0.5015(3) 1.0073(4) 0.86246(10)
C16B C -0.0073(4) 0.4942(3) 0.86246(10)
C17A C 0.4567(3) 0.8557(4) 0.86689(10)
C17B C 0.1443(4) 0.6010(3) 0.86689(10)
C18A C 0.3940(3) 0.7587(4) 0.86699(13)
C18B C 0.2413(4) 0.6353(3) 0.86699(13)
C19A C 0.3003(3) 0.7258(4) 0.86754(11)
C19B C 0.2742(4) 0.5745(3) 0.86754(11)
C20A C 0.5036(3) 1.0535(4) 0.89388(11)
C20B C -0.0535(4) 0.4501(3) 0.89388(11)
C21A C 0.5702(3) 1.1553(4) 0.89231(11)
C21B C -0.1553(4) 0.4149(3) 0.89231(11)
C22A C 0.5418(3) 1.1969(4) 0.86566(11)
C22B C -0.1969(4) 0.3449(3) 0.86566(11)
C23A C 0.5402(3) 1.1540(4) 0.83414(11)
C23B C -0.1540(4) 0.3862(3) 0.83414(11)
C24A C 0.3623(3) 0.9364(4) 0.73175(11)
C24B C 0.0636(4) 0.4259(3) 0.73175(11)
H1A H 0.17470 0.83130 0.64120
H1B H 0.16870 0.34340 0.64120
H2A H 0.05170 0.79040 0.69250
H2B H 0.20960 0.26130 0.69250
H3A H -0.06400 0.69660 0.65850
H3B H 0.30340 0.23940 0.65850
H4A H 0.00470 0.72360 0.62940
H4B H 0.27640 0.28110 0.62940
H5A H -0.03680 0.84700 0.66120
H5B H 0.15300 0.11620 0.66120
H6A H -0.07250 0.80640 0.62650
H6B H 0.19360 0.12110 0.62650
H7A H 0.07760 0.88170 0.60660
H7B H 0.11830 0.19590 0.60660
H8A H 0.05600 0.95410 0.62220
H8B H 0.04590 0.10190 0.62220
H9A H 0.13090 0.95760 0.66850
H9B H 0.04240 0.17330 0.66850
H10A H 0.19750 0.97660 0.63930
H10B H 0.02340 0.22090 0.63930
H11A H 0.30140 0.86250 0.65750
H11B H 0.13750 0.43890 0.65750
H12A H 0.44940 0.88770 0.67120
H12B H 0.11230 0.56170 0.67120
H13A H 0.64400 0.95640 0.72100
H13B H 0.04360 0.68760 0.72100
H14A H 0.55710 0.98620 0.75750
H14B H 0.01380 0.57090 0.75750
H15A H 0.37210 0.99580 0.79160
H15B H 0.00420 0.37630 0.79160
H16A H 0.41580 1.03980 0.83730
H16B H -0.03980 0.37600 0.83730
H17A H 0.56100 1.01160 0.85860
H17B H -0.01160 0.54940 0.85860
H18A H 0.51900 0.87580 0.86920
H18B H 0.12420 0.64320 0.86920
H19A H 0.27830 0.76670 0.86830
H19B H 0.23330 0.51160 0.86830
H20A H 0.52140 1.02680 0.91130
H20B H -0.02680 0.49460 0.91130
H21A H 0.44270 1.04310 0.89860
H21B H -0.04310 0.39960 0.89860
H22A H 0.57070 1.18350 0.91290
H22B H -0.18350 0.38720 0.91290
H23A H 0.63160 1.16620 0.88820
H23B H -0.16620 0.46540 0.88820
H24A H 0.48130 1.18790 0.87030
H24B H -0.18790 0.29340 0.87030
H25A H 0.58450 1.26240 0.86460
H25B H -0.26240 0.32210 0.86460
H26A H 0.60210 1.16820 0.82870
H26B H -0.16820 0.43390 0.82870
H27A H 0.51960 1.18010 0.81740
H27B H -0.18010 0.33950 0.81740
H28A H 0.30840 0.93430 0.73850
H28B H 0.06570 0.37410 0.73850
loop_
_geom_bond_atom_site_label_1
_geom_bond_atom_site_label_2
_geom_bond_site_symmetry_1
_geom_bond_site_symmetry_2
N1 C1 1_555 1_555
N2 C11 1_555 1_555
N3 C14 1_555 1_555
N4 C16 1_555 1_555
C1 C2 1_555 1_555
C2 C3 1_555 1_555
C3 C4 1_555 1_555
C4 C5 1_555 1_555
C5 C6 1_555 1_555
C6 C1 1_555 1_555
C7 N1 1_555 1_555
C8 C7 1_555 1_555
C9 C8 1_555 1_555
C10 C9 1_555 1_555
C11 C10 1_555 1_555
C12 C10 1_555 1_555
C13 C12 1_555 1_555
C14 C13 1_555 1_555
C15 N3 1_555 1_555
C16 C15 1_555 1_555
C17 N4 1_555 1_555
C18 C17 1_555 1_555
C19 C18 1_555 1_555
C20 C16 1_555 1_555
C21 C20 1_555 1_555
C22 C21 1_555 1_555
C23 C15 1_555 1_555
C24 C8 1_555 1_555
N5 C25 1_555 1_555
N6 C26 1_555 1_555
N7 C34 1_555 1_555
N8 C36 1_555 1_555
C25 C26 1_555 1_555
C26 H31 1_555 1_555
C27 N6 1_555 1_555
C28 N5 1_555 1_555
C29 C28 1_555 1_555
C30 C29 1_555 1_555
C31 C30 1_555 1_555
C32 C31 1_555 1_555
C33 C32 1_555 1_555
C34 C33 1_555 1_555
C35 N7 1_555 1_555
C36 C35 1_555 1_555
C37 N8 1_555 1_555
C38 C37 1_555 1_555
C39 C38 1_555 1_555
C40 C29 1_555 1_555
H1 C1 1_555 1_555
H2 C2 1_555 1_555
H3 C3 1_555 1_555
H4 C3 1_555 1_555
H5 C4 1_555 1_555
H6 C4 1_555 1_555
H7 C5 1_555 1_555
H8 C5 1_555 1_555
H9 C6 1_555 1_555
H10 C6 1_555 1_555
H11 C7 1_555 1_555
H12 C9 1_555 1_555
H13 C11 1_555 1_555
H14 C12 1_555 1_555
H15 C14 1_555 1_555
H16 C15 1_555 1_555
H17 C16 1_555 1_555
H18 C17 1_555 1_555
H19 C19 1_555 1_555
H20 C20 1_555 1_555
H21 C20 1_555 1_555
H22 C21 1_555 1_555
H23 C21 1_555 1_555
H24 C22 1_555 1_555
H25 C22 1_555 1_555
H26 C23 1_555 1_555
H27 C23 1_555 1_555
H28 C24 1_555 1_555
H29 C25 1_555 1_555
H30 C25 1_555 1_555
H32 C26 1_555 1_555
H33 C27 1_555 1_555
H34 C28 1_555 1_555
H35 C30 1_555 1_555
H36 C32 1_555 1_555
H37 C34 1_555 1_555
H38 C35 1_555 1_555
H39 C35 1_555 1_555
H40 C36 1_555 1_555
H41 C36 1_555 1_555
H42 C37 1_555 1_555
H43 C39 1_555 1_555
H44 C40 1_555 1_555
N1A C1A 1_555 1_555
N1B C1B 1_555 1_555
N2A C2 1_555 1_555
N2B C2A 1_555 1_555
N3A C14A 1_555 1_555
N3B C14B 1_555 1_555
N4A C16A 1_555 1_555
N4B C16B 1_555 1_555
C1A C2A 1_555 1_555
C1B C2B 1_555 1_555
C2A C3A 1_555 1_555
C2B N2 1_555 1_555
C3A C4A 1_555 1_555
C3B C2B 1_555 1_555
C4A C5A 1_555 1_555
C4B C3B 1_555 1_555
C5A C6A 1_555 1_555
C5B C4B 1_555 1_555
C6A C1A 1_555 1_555
C6B C1B 1_555 1_555
C7A N1A 1_555 1_555
C7B N1B 1_555 1_555
C8A C7A 1_555 1_555
C8B C7B 1_555 1_555
C9A C8A 1_555 1_555
C9B C8B 1_555 1_555
C10A C9A 1_555 1_555
C10B C9B 1_555 1_555
C11A N2A 1_555 1_555
C11B N2B 1_555 1_555
C12A C10A 1_555 1_555
C12B C10B 1_555 1_555
C13A C12A 1_555 1_555
C13B C12B 1_555 1_555
C14A C13A 1_555 1_555
C14B C13B 1_555 1_555
C15A N3A 1_555 1_555
C15B N3B 1_555 1_555
C16A C15A 1_555 1_555
C16B C15B 1_555 1_555
C17A N4A 1_555 1_555
C17B N4B 1_555 1_555
C18A C19 1_555 1_555
C18B C17B 1_555 1_555
C19A C18A 1_555 1_555
C19B C18 1_555 1_555
C20A C16A 1_555 1_555
C20B C16B 1_555 1_555
C21A C20A 1_555 1_555
C21B C20B 1_555 1_555
C22A C21A 1_555 1_555
C22B C21B 1_555 1_555
C23A C15A 1_555 1_555
C23B C15B 1_555 1_555
C24A C8A 1_555 1_555
C24B C8B 1_555 1_555
N5A C25A 1_555 1_555
N5B C25B 1_555 1_555
N6A C26A 1_555 1_555
N6B C26B 1_555 1_555
N7A C34A 1_555 1_555
N7B C34B 1_555 1_555
N8A C36A 1_555 1_555
N8B C36B 1_555 1_555
C25A C26A 1_555 1_555
C25B C26B 1_555 1_555
C26A H31A 1_555 1_555
C26B H31B 1_555 1_555
C27A N6A 1_555 1_555
C27B C31 1_555 1_555
C28A N5A 1_555 1_555
C28B N5B 1_555 1_555
C29A C28A 1_555 1_555
C29B C28B 1_555 1_555
C30A C29A 1_555 1_555
C30B C29B 1_555 1_555
C31A C27 1_555 1_555
C31B C27A 1_555 1_555
C32A C31A 1_555 1_555
C32B C31B 1_555 1_555
C33A C32A 1_555 1_555
C33B C32B 1_555 1_555
C34A C33A 1_555 1_555
C34B C33B 1_555 1_555
C35A N7A 1_555 1_555
C35B N7B 1_555 1_555
C36A C35A 1_555 1_555
C36B C35B 1_555 1_555
C37A N8A 1_555 1_555
C37B N8B 1_555 1_555
C38A C37A 1_555 1_555
C38B C39 1_555 1_555
C39A C38 1_555 1_555
C39B C38A 1_555 1_555
C40A C29A 1_555 1_555
C40B C29B 1_555 1_555
H1A C1A 1_555 1_555
H1B C1B 1_555 1_555
H2A C2A 1_555 1_555
H2B C2B 1_555 1_555
H3A C3A 1_555 1_555
H3B C3B 1_555 1_555
H4A C3A 1_555 1_555
H4B C3B 1_555 1_555
H5A C4A 1_555 1_555
H5B C4B 1_555 1_555
H6A C4A 1_555 1_555
H6B C4B 1_555 1_555
H7A C5A 1_555 1_555
H7B C5B 1_555 1_555
H8A C5A 1_555 1_555
H8B C5B 1_555 1_555
H9A C6A 1_555 1_555
H9B C6B 1_555 1_555
H10A C6A 1_555 1_555
H10B C6B 1_555 1_555
H11A C7A 1_555 1_555
H11B C7B 1_555 1_555
H12A C9A 1_555 1_555
H12B C9B 1_555 1_555
H13A C11A 1_555 1_555
H13B C11B 1_555 1_555
H14A C12A 1_555 1_555
H14B C12B 1_555 1_555
H15A C14A 1_555 1_555
H15B C14B 1_555 1_555
H16A C15A 1_555 1_555
H16B C15B 1_555 1_555
H17A C16A 1_555 1_555
H17B C16B 1_555 1_555
H18A C17A 1_555 1_555
H18B C17B 1_555 1_555
H19A C19A 1_555 1_555
H19B C19B 1_555 1_555
H20A C20A 1_555 1_555
H20B C20B 1_555 1_555
H21A C20A 1_555 1_555
H21B C20B 1_555 1_555
H22A C21A 1_555 1_555
H22B C21B 1_555 1_555
H23A C21A 1_555 1_555
H23B C21B 1_555 1_555
H24A C22A 1_555 1_555
H24B C22B 1_555 1_555
H25A C22A 1_555 1_555
H25B C22B 1_555 1_555
H26A C23A 1_555 1_555
H26B C23B 1_555 1_555
H27A C23A 1_555 1_555
H27B C23B 1_555 1_555
H28A C24A 1_555 1_555
H28B C24B 1_555 1_555
H29A C25A 1_555 1_555
H29B C25B 1_555 1_555
H30A C25A 1_555 1_555
H30B C25B 1_555 1_555
H32A C26A 1_555 1_555
H32B C26B 1_555 1_555
H33A C27A 1_555 1_555
H33B C27B 1_555 1_555
H34A C28A 1_555 1_555
H34B C28B 1_555 1_555
H35A C30A 1_555 1_555
H35B C30B 1_555 1_555
H36A C32A 1_555 1_555
H36B C32B 1_555 1_555
H37A C34A 1_555 1_555
H37B C34B 1_555 1_555
H38A C35A 1_555 1_555
H38B C35B 1_555 1_555
H39A C35A 1_555 1_555
H39B C35B 1_555 1_555
H40A C36A 1_555 1_555
H40B C36B 1_555 1_555
H41A C36A 1_555 1_555
H41B C36B 1_555 1_555
H42A C37A 1_555 1_555
H42B C37B 1_555 1_555
H43A C39A 1_555 1_555
H43B C39B 1_555 1_555
H44A C40A 1_555 1_555
H44B C40B 1_555 1_555
C13 C24 1_555 1_555
C22 C23 1_555 1_555
C33 C40 1_555 1_555
C5B C6B 1_555 1_555
C10A C11A 1_555 1_555
C10B C11B 1_555 1_555
C13A C24A 1_555 1_555
C13B C24B 1_555 1_555
C17A C18A 1_555 1_555
C18B C19A 1_555 1_555
C18B C19B 1_555 1_555
C22A C23A 1_555 1_555
C22B C23B 1_555 1_555
N6B C27B 1_555 1_555
C30A C31A 1_555 1_555
C30B C31B 1_555 1_555
C33A C40A 1_555 1_555
C33B C40B 1_555 1_555
C37B C38B 1_555 1_555
C38A C39A 1_555 1_555
C38B C39B 1_555 1_555

#END
