
#######################################################################
#
#                 Cambridge Crystallographic Data Centre
#                                CCDC 
#
#######################################################################
#
# If this CIF has been generated from an entry in the Cambridge 
# Structural Database, then it will include bibliographic, chemical, 
# crystal, experimental, refinement or atomic coordinate data resulting 
# from the CCDC's data processing and validation procedures.
#
#######################################################################

data_UTEVEV
_chemical_formula_moiety         'C72 H84 N12,C48 H48 N12,3.5(C1 H1 Cl3)'
_chemical_name_systematic        
'3,6,10,13,17,20,24,27,30,33,36,39-Dodecaaza-1,8,15,22(1,3,5)-tetrabenzenatricyclo[13.13.6.6^8,22^]tetracontaphane-2,6,9,13,16,20,23,27,29,33,35,39-dodecaene 3,5,9,11,15,17,21,23,26,28,31,33-dodecaaza-1,7,13,19(1,3,5)-tetrabenzena-4,10,16,22,27,32(1,3,5)-hexacyclohexano-bicyclo[17.11.5]tetratriacontaphane-2,5,8,11,14,17,20,23,25,28,30,33-dodecaene chloroform solvate'
_symmetry_cell_setting           cubic
_symmetry_space_group_name_H-M   'F 2 3'
_symmetry_Int_Tables_number      196
_space_group_name_Hall           'F 2 2 3'
loop_
_symmetry_equiv_pos_site_id
_symmetry_equiv_pos_as_xyz
1 x,y,z
2 -x,-y,z
3 x,-y,-z
4 -x,y,-z
5 z,x,y
6 -z,-x,y
7 z,-x,-y
8 -z,x,-y
9 y,z,x
10 y,-z,-x
11 -y,z,-x
12 -y,-z,x
13 x,1/2+y,1/2+z
14 -x,1/2-y,1/2+z
15 x,1/2-y,1/2-z
16 -x,1/2+y,1/2-z
17 z,1/2+x,1/2+y
18 -z,1/2-x,1/2+y
19 z,1/2-x,1/2-y
20 -z,1/2+x,1/2-y
21 y,1/2+z,1/2+x
22 y,1/2-z,1/2-x
23 -y,1/2+z,1/2-x
24 -y,1/2-z,1/2+x
25 1/2+x,y,1/2+z
26 1/2-x,-y,1/2+z
27 1/2+x,-y,1/2-z
28 1/2-x,y,1/2-z
29 1/2+z,x,1/2+y
30 1/2-z,-x,1/2+y
31 1/2+z,-x,1/2-y
32 1/2-z,x,1/2-y
33 1/2+y,z,1/2+x
34 1/2+y,-z,1/2-x
35 1/2-y,z,1/2-x
36 1/2-y,-z,1/2+x
37 1/2+x,1/2+y,z
38 1/2-x,1/2-y,z
39 1/2+x,1/2-y,-z
40 1/2-x,1/2+y,-z
41 1/2+z,1/2+x,y
42 1/2-z,1/2-x,y
43 1/2+z,1/2-x,-y
44 1/2-z,1/2+x,-y
45 1/2+y,1/2+z,x
46 1/2+y,1/2-z,-x
47 1/2-y,1/2+z,-x
48 1/2-y,1/2-z,x
_cell_length_a                   24.51(8)
_cell_length_b                   24.51(8)
_cell_length_c                   24.51(8)
_cell_angle_alpha                90
_cell_angle_beta                 90
_cell_angle_gamma                90
_cell_volume                     14724.1
_exptl_crystal_colour            colorless
_exptl_crystal_description       prism
_cell_formula_units_Z            4
loop_
_atom_site_label
_atom_site_type_symbol
_atom_site_fract_x
_atom_site_fract_y
_atom_site_fract_z
N2 N 0.0252(2) 0.2124(2) 0.2051(2)
C5 C -0.02143(19) 0.2214(2) 0.2409(3)
C6 C -0.07221(18) 0.2071(3) 0.2090(2)
C7 C -0.12251(17) 0.21986(12) 0.2429(4)
C8 C 0.0562(3) 0.1742(3) 0.2136(3)
C9 C 0.1034(3) 0.1600(4) 0.1812(3)
C10 C 0.1367(4) 0.1146(3) 0.1927(3)
H5 H -0.01860 0.19730 0.27280
H6 H -0.07180 0.16860 0.19960
H7 H -0.07310 0.22790 0.17530
H8 H -0.15520 0.21080 0.22250
H9 H -0.12220 0.19830 0.27610
H10 H 0.04880 0.15220 0.24360
H11 H 0.12870 0.09220 0.22230
N2D N 0.2051(2) 0.0252(2) 0.2124(2)
N2H N 0.2124(2) 0.2051(2) 0.0252(2)
N2N N 0.0252(2) 0.2876(2) 0.2949(2)
N2R N 0.2051(2) 0.4748(2) 0.2876(2)
N2U N 0.2124(2) 0.2949(2) 0.4748(2)
N2EA N 0.2949(2) 0.0252(2) 0.2876(2)
N2HA N 0.2876(2) 0.2051(2) 0.4748(2)
N2OA N 0.2949(2) 0.4748(2) 0.2124(2)
N2UA N 0.2876(2) 0.2949(2) 0.0252(2)
N2AA N 0.4748(2) 0.2124(2) 0.2949(2)
N2KA N 0.4748(2) 0.2876(2) 0.2051(2)
C5D C 0.2409(3) -0.02143(19) 0.2214(2)
C5H C 0.2214(2) 0.2409(3) -0.02143(19)
C5N C -0.02143(19) 0.2786(2) 0.2591(3)
C5R C 0.2409(3) 0.52143(19) 0.2786(2)
C5U C 0.2214(2) 0.2591(3) 0.52143(19)
C5EA C 0.2591(3) -0.02143(19) 0.2786(2)
C5HA C 0.2786(2) 0.2409(3) 0.52143(19)
C5OA C 0.2591(3) 0.52143(19) 0.2214(2)
C5UA C 0.2786(2) 0.2591(3) -0.02143(19)
C5AA C 0.52143(19) 0.2214(2) 0.2591(3)
C5KA C 0.52143(19) 0.2786(2) 0.2409(3)
C6D C 0.2090(2) -0.07221(18) 0.2071(3)
C6H C 0.2071(3) 0.2090(2) -0.07221(18)
C6N C -0.07221(18) 0.2929(3) 0.2910(2)
C6R C 0.2090(2) 0.57221(18) 0.2929(3)
C6U C 0.2071(3) 0.2910(2) 0.57221(18)
C6EA C 0.2910(2) -0.07221(18) 0.2929(3)
C6HA C 0.2929(3) 0.2090(2) 0.57221(18)
C6OA C 0.2910(2) 0.57221(18) 0.2071(3)
C6UA C 0.2929(3) 0.2910(2) -0.07221(18)
C6AA C 0.57221(18) 0.2071(3) 0.2910(2)
C6KA C 0.57221(18) 0.2929(3) 0.2090(2)
C7D C 0.2429(4) -0.12251(17) 0.21986(12)
C7H C 0.21986(12) 0.2429(4) -0.12251(17)
C7N C -0.12251(17) 0.28014(12) 0.2571(4)
C7R C 0.2429(4) 0.62251(17) 0.28014(12)
C7U C 0.21986(12) 0.2571(4) 0.62251(17)
C7EA C 0.2571(4) -0.12251(17) 0.28014(12)
C7HA C 0.28014(12) 0.2429(4) 0.62251(17)
C7OA C 0.2571(4) 0.62251(17) 0.21986(12)
C7UA C 0.28014(12) 0.2571(4) -0.12251(17)
C7AA C 0.62251(17) 0.21986(12) 0.2571(4)
C7KA C 0.62251(17) 0.28014(12) 0.2429(4)
C8D C 0.2136(3) 0.0562(3) 0.1742(3)
C8H C 0.1742(3) 0.2136(3) 0.0562(3)
C8N C 0.0562(3) 0.3258(3) 0.2864(3)
C8R C 0.2136(3) 0.4438(3) 0.3258(3)
C8U C 0.1742(3) 0.2864(3) 0.4438(3)
C8EA C 0.2864(3) 0.0562(3) 0.3258(3)
C8HA C 0.3258(3) 0.2136(3) 0.4438(3)
C8OA C 0.2864(3) 0.4438(3) 0.1742(3)
C8UA C 0.3258(3) 0.2864(3) 0.0562(3)
C8AA C 0.4438(3) 0.1742(3) 0.2864(3)
C8KA C 0.4438(3) 0.3258(3) 0.2136(3)
C9D C 0.1812(3) 0.1034(3) 0.1600(4)
C9H C 0.1600(4) 0.1812(3) 0.1034(3)
C9N C 0.1034(3) 0.3400(4) 0.3188(3)
C9R C 0.1812(3) 0.3966(3) 0.3400(4)
C9U C 0.1600(4) 0.3188(3) 0.3966(3)
C9EA C 0.3188(3) 0.1034(3) 0.3400(4)
C9HA C 0.3400(4) 0.1812(3) 0.3966(3)
C9OA C 0.3188(3) 0.3966(3) 0.1600(4)
C9UA C 0.3400(4) 0.3188(3) 0.1034(3)
C9AA C 0.3966(3) 0.1600(4) 0.3188(3)
C9KA C 0.3966(3) 0.3400(4) 0.1812(3)
C10D C 0.1927(3) 0.1367(4) 0.1146(3)
C10H C 0.1146(3) 0.1927(3) 0.1367(4)
C10N C 0.1367(4) 0.3854(3) 0.3073(3)
C10R C 0.1927(3) 0.3633(4) 0.3854(3)
C10U C 0.1146(3) 0.3073(3) 0.3633(4)
C10EA C 0.3073(3) 0.1367(4) 0.3854(3)
C10HA C 0.3854(3) 0.1927(3) 0.3633(4)
C10OA C 0.3073(3) 0.3633(4) 0.1146(3)
C10UA C 0.3854(3) 0.3073(3) 0.1367(4)
C10AA C 0.3633(4) 0.1146(3) 0.3073(3)
C10KA C 0.3633(4) 0.3854(3) 0.1927(3)
H5D H 0.27280 -0.01860 0.19730
H5H H 0.19730 0.27280 -0.01860
H5N H -0.01860 0.30270 0.22720
H5R H 0.27280 0.51860 0.30270
H5U H 0.19730 0.22720 0.51860
H5EA H 0.22720 -0.01860 0.30270
H5HA H 0.30270 0.27280 0.51860
H5OA H 0.22720 0.51860 0.19730
H5UA H 0.30270 0.22720 -0.01860
H5AA H 0.51860 0.19730 0.22720
H5KA H 0.51860 0.30270 0.27280
H6D H 0.19960 -0.07180 0.16860
H6H H 0.16860 0.19960 -0.07180
H6N H -0.07180 0.33140 0.30040
H6R H 0.19960 0.57180 0.33140
H6U H 0.16860 0.30040 0.57180
H6EA H 0.30040 -0.07180 0.33140
H6HA H 0.33140 0.19960 0.57180
H6OA H 0.30040 0.57180 0.16860
H6UA H 0.33140 0.30040 -0.07180
H6AA H 0.57180 0.16860 0.30040
H6KA H 0.57180 0.33140 0.19960
H7D H 0.17530 -0.07310 0.22790
H7H H 0.22790 0.17530 -0.07310
H7N H -0.07310 0.27210 0.32470
H7R H 0.17530 0.57310 0.27210
H7U H 0.22790 0.32470 0.57310
H7EA H 0.32470 -0.07310 0.27210
H7HA H 0.27210 0.17530 0.57310
H7OA H 0.32470 0.57310 0.22790
H7UA H 0.27210 0.32470 -0.07310
H7AA H 0.57310 0.22790 0.32470
H7KA H 0.57310 0.27210 0.17530
H8D H 0.22250 -0.15520 0.21080
H8H H 0.21080 0.22250 -0.15520
H8N H -0.15520 0.28920 0.27750
H8R H 0.22250 0.65520 0.28920
H8U H 0.21080 0.27750 0.65520
H8EA H 0.27750 -0.15520 0.28920
H8HA H 0.28920 0.22250 0.65520
H8OA H 0.27750 0.65520 0.21080
H8UA H 0.28920 0.27750 -0.15520
H8AA H 0.65520 0.21080 0.27750
H8KA H 0.65520 0.28920 0.22250
H9D H 0.27610 -0.12220 0.19830
H9H H 0.19830 0.27610 -0.12220
H9N H -0.12220 0.30170 0.22390
H9R H 0.27610 0.62220 0.30170
H9U H 0.19830 0.22390 0.62220
H9EA H 0.22390 -0.12220 0.30170
H9HA H 0.30170 0.27610 0.62220
H9OA H 0.22390 0.62220 0.19830
H9UA H 0.30170 0.22390 -0.12220
H9AA H 0.62220 0.19830 0.22390
H9KA H 0.62220 0.30170 0.27610
H10D H 0.24360 0.04880 0.15220
H10H H 0.15220 0.24360 0.04880
H10N H 0.04880 0.34780 0.25640
H10R H 0.24360 0.45120 0.34780
H10U H 0.15220 0.25640 0.45120
H10EA H 0.25640 0.04880 0.34780
H10HA H 0.34780 0.24360 0.45120
H10OA H 0.25640 0.45120 0.15220
H10UA H 0.34780 0.25640 0.04880
H10AA H 0.45120 0.15220 0.25640
H10KA H 0.45120 0.34780 0.24360
H11D H 0.22230 0.12870 0.09220
H11H H 0.09220 0.22230 0.12870
H11N H 0.12870 0.40780 0.27770
H11R H 0.22230 0.37130 0.40780
H11U H 0.09220 0.27770 0.37130
H11EA H 0.27770 0.12870 0.40780
H11HA H 0.40780 0.22230 0.37130
H11OA H 0.27770 0.37130 0.09220
H11UA H 0.40780 0.27770 0.12870
H11AA H 0.37130 0.09220 0.27770
H11KA H 0.37130 0.40780 0.22230
N1 N 0.54874(19) 0.22578(19) 0.0361(2)
C1 C 0.5119(3) 0.27088(19) 0.02900(17)
C2 C 0.5386(2) 0.1974(2) 0.0767(2)
C3 C 0.5731(3) 0.1493(2) 0.0904(3)
C4 C 0.6173(3) 0.1347(3) 0.0596(2)
H1 H 0.53110 0.30490 0.03540
H2 H 0.48250 0.26820 0.05530
H3 H 0.50910 0.20620 0.09890
H4 H 0.62610 0.15520 0.02890
N1C N 0.45126(19) 0.22578(19) -0.0361(2)
N1FA N 0.72578(19) 0.0361(2) 0.04874(19)
N1NA N 0.5361(2) 0.04874(19) 0.22578(19)
N1GA N 0.72578(19) -0.0361(2) -0.04874(19)
N1HA N 0.27422(19) 0.0361(2) -0.04874(19)
N1IA N 0.27422(19) -0.0361(2) 0.04874(19)
N1OA N 0.4639(2) -0.04874(19) 0.22578(19)
N1PA N 0.5361(2) -0.04874(19) -0.22578(19)
N1QA N 0.4639(2) 0.04874(19) -0.22578(19)
N1A N 0.45126(19) -0.22578(19) 0.0361(2)
N1B N 0.54874(19) -0.22578(19) -0.0361(2)
C1C C 0.4881(3) 0.27088(19) -0.02900(17)
C1FA C 0.77088(19) 0.02900(17) 0.0119(3)
C1NA C 0.52900(17) 0.0119(3) 0.27088(19)
C1GA C 0.77088(19) -0.02900(17) -0.0119(3)
C1HA C 0.22912(19) 0.02900(17) -0.0119(3)
C1IA C 0.22912(19) -0.02900(17) 0.0119(3)
C1OA C 0.47100(17) -0.0119(3) 0.27088(19)
C1PA C 0.52900(17) -0.0119(3) -0.27088(19)
C1QA C 0.47100(17) 0.0119(3) -0.27088(19)
C1A C 0.4881(3) -0.27088(19) 0.02900(17)
C1B C 0.5119(3) -0.27088(19) -0.02900(17)
C2C C 0.4614(2) 0.1974(2) -0.0767(2)
C2FA C 0.6974(2) 0.0767(2) 0.0386(2)
C2NA C 0.5767(2) 0.0386(2) 0.1974(2)
C2GA C 0.6974(2) -0.0767(2) -0.0386(2)
C2HA C 0.3026(2) 0.0767(2) -0.0386(2)
C2IA C 0.3026(2) -0.0767(2) 0.0386(2)
C2OA C 0.4233(2) -0.0386(2) 0.1974(2)
C2PA C 0.5767(2) -0.0386(2) -0.1974(2)
C2QA C 0.4233(2) 0.0386(2) -0.1974(2)
C2A C 0.4614(2) -0.1974(2) 0.0767(2)
C2B C 0.5386(2) -0.1974(2) -0.0767(2)
C3C C 0.4269(3) 0.1493(2) -0.0904(3)
C3FA C 0.6493(2) 0.0904(3) 0.0731(3)
C3NA C 0.5904(3) 0.0731(3) 0.1493(2)
C3GA C 0.6493(2) -0.0904(3) -0.0731(3)
C3HA C 0.3507(2) 0.0904(3) -0.0731(3)
C3IA C 0.3507(2) -0.0904(3) 0.0731(3)
C3OA C 0.4096(3) -0.0731(3) 0.1493(2)
C3PA C 0.5904(3) -0.0731(3) -0.1493(2)
C3QA C 0.4096(3) 0.0731(3) -0.1493(2)
C3A C 0.4269(3) -0.1493(2) 0.0904(3)
C3B C 0.5731(3) -0.1493(2) -0.0904(3)
C4C C 0.3827(3) 0.1347(3) -0.0596(2)
C4FA C 0.6347(3) 0.0596(2) 0.1173(3)
C4NA C 0.5596(2) 0.1173(3) 0.1347(3)
C4GA C 0.6347(3) -0.0596(2) -0.1173(3)
C4HA C 0.3653(3) 0.0596(2) -0.1173(3)
C4IA C 0.3653(3) -0.0596(2) 0.1173(3)
C4OA C 0.4404(2) -0.1173(3) 0.1347(3)
C4PA C 0.5596(2) -0.1173(3) -0.1347(3)
C4QA C 0.4404(2) 0.1173(3) -0.1347(3)
C4A C 0.3827(3) -0.1347(3) 0.0596(2)
C4B C 0.6173(3) -0.1347(3) -0.0596(2)
H1C H 0.46890 0.30490 -0.03540
H1FA H 0.80490 0.03540 0.03110
H1NA H 0.53540 0.03110 0.30490
H1GA H 0.80490 -0.03540 -0.03110
H1HA H 0.19510 0.03540 -0.03110
H1IA H 0.19510 -0.03540 0.03110
H1OA H 0.46460 -0.03110 0.30490
H1PA H 0.53540 -0.03110 -0.30490
H1QA H 0.46460 0.03110 -0.30490
H1A H 0.46890 -0.30490 0.03540
H1B H 0.53110 -0.30490 -0.03540
H2C H 0.51750 0.26820 -0.05530
H2FA H 0.76820 0.05530 -0.01750
H2NA H 0.55530 -0.01750 0.26820
H2GA H 0.76820 -0.05530 0.01750
H2HA H 0.23180 0.05530 0.01750
H2IA H 0.23180 -0.05530 -0.01750
H2OA H 0.44470 0.01750 0.26820
H2PA H 0.55530 0.01750 -0.26820
H2QA H 0.44470 -0.01750 -0.26820
H2A H 0.51750 -0.26820 0.05530
H2B H 0.48250 -0.26820 -0.05530
H3C H 0.49090 0.20620 -0.09890
H3FA H 0.70620 0.09890 0.00910
H3NA H 0.59890 0.00910 0.20620
H3GA H 0.70620 -0.09890 -0.00910
H3HA H 0.29380 0.09890 -0.00910
H3IA H 0.29380 -0.09890 0.00910
H3OA H 0.40110 -0.00910 0.20620
H3PA H 0.59890 -0.00910 -0.20620
H3QA H 0.40110 0.00910 -0.20620
H3A H 0.49090 -0.20620 0.09890
H3B H 0.50910 -0.20620 -0.09890
H4C H 0.37390 0.15520 -0.02890
H4FA H 0.65520 0.02890 0.12610
H4NA H 0.52890 0.12610 0.15520
H4GA H 0.65520 -0.02890 -0.12610
H4HA H 0.34480 0.02890 -0.12610
H4IA H 0.34480 -0.02890 0.12610
H4OA H 0.47110 -0.12610 0.15520
H4PA H 0.52890 -0.12610 -0.15520
H4QA H 0.47110 0.12610 -0.15520
H4A H 0.37390 -0.15520 0.02890
H4B H 0.62610 -0.15520 -0.02890
loop_
_geom_bond_atom_site_label_1
_geom_bond_atom_site_label_2
_geom_bond_site_symmetry_1
_geom_bond_site_symmetry_2
N1 C1 1_555 1_555
C1 H1 1_555 1_555
C2 N1 1_555 1_555
C3 C2 1_555 1_555
C4 C3 1_555 1_555
H2 C1 1_555 1_555
H3 C2 1_555 1_555
H4 C4 1_555 1_555
N2 C5 1_555 1_555
C5 C6 1_555 1_555
C6 C7 1_555 1_555
C7 H8 1_555 1_555
C8 N2 1_555 1_555
C9 C8 1_555 1_555
C10 C9 1_555 1_555
H5 C5 1_555 1_555
H6 C6 1_555 1_555
H7 C6 1_555 1_555
H9 C7 1_555 1_555
H10 C8 1_555 1_555
H11 C10 1_555 1_555
N1C C1C 1_555 1_555
N1FA C1FA 1_555 1_555
N1NA C1NA 1_555 1_555
N1GA C1GA 1_555 1_555
N1HA C1HA 1_555 1_555
N1IA C1IA 1_555 1_555
N1OA C1OA 1_555 1_555
N1PA C1PA 1_555 1_555
N1QA C1QA 1_555 1_555
N1A C1A 1_555 1_555
N1B C1B 1_555 1_555
C1C C1 1_555 1_555
C1FA C1GA 1_555 1_555
C1NA C1OA 1_555 1_555
C1GA H1GA 1_555 1_555
C1HA C1IA 1_555 1_555
C1IA H1IA 1_555 1_555
C1OA H1OA 1_555 1_555
C1PA C1QA 1_555 1_555
C1QA H1QA 1_555 1_555
C1A C1B 1_555 1_555
C1B H1B 1_555 1_555
C2C N1C 1_555 1_555
C2FA N1FA 1_555 1_555
C2NA N1NA 1_555 1_555
C2GA N1GA 1_555 1_555
C2HA N1HA 1_555 1_555
C2IA N1IA 1_555 1_555
C2OA N1OA 1_555 1_555
C2PA N1PA 1_555 1_555
C2QA N1QA 1_555 1_555
C2A N1A 1_555 1_555
C2B N1B 1_555 1_555
C3C C2C 1_555 1_555
C3FA C4 1_555 1_555
C3NA C2NA 1_555 1_555
C3GA C2GA 1_555 1_555
C3HA C2HA 1_555 1_555
C3IA C2IA 1_555 1_555
C3OA C2OA 1_555 1_555
C3PA C2PA 1_555 1_555
C3QA C2QA 1_555 1_555
C3A C2A 1_555 1_555
C3B C2B 1_555 1_555
C4C C3C 1_555 1_555
C4FA C3FA 1_555 1_555
C4NA C3 1_555 1_555
C4GA C3GA 1_555 1_555
C4HA C3HA 1_555 1_555
C4IA C3IA 1_555 1_555
C4OA C3OA 1_555 1_555
C4PA C3PA 1_555 1_555
C4QA C3C 1_555 1_555
C4A C3IA 1_555 1_555
C4B C3GA 1_555 1_555
H1C C1C 1_555 1_555
H1FA C1FA 1_555 1_555
H1NA C1NA 1_555 1_555
H1HA C1HA 1_555 1_555
H1PA C1PA 1_555 1_555
H1A C1A 1_555 1_555
H2C C1C 1_555 1_555
H2FA C1FA 1_555 1_555
H2NA C1NA 1_555 1_555
H2GA C1GA 1_555 1_555
H2HA C1HA 1_555 1_555
H2IA C1IA 1_555 1_555
H2OA C1OA 1_555 1_555
H2PA C1PA 1_555 1_555
H2QA C1QA 1_555 1_555
H2A C1A 1_555 1_555
H2B C1B 1_555 1_555
H3C C2C 1_555 1_555
H3FA C2FA 1_555 1_555
H3NA C2NA 1_555 1_555
H3GA C2GA 1_555 1_555
H3HA C2HA 1_555 1_555
H3IA C2IA 1_555 1_555
H3OA C2OA 1_555 1_555
H3PA C2PA 1_555 1_555
H3QA C2QA 1_555 1_555
H3A C2A 1_555 1_555
H3B C2B 1_555 1_555
H4C C4C 1_555 1_555
H4FA C4FA 1_555 1_555
H4NA C4NA 1_555 1_555
H4GA C4GA 1_555 1_555
H4HA C4HA 1_555 1_555
H4IA C4IA 1_555 1_555
H4OA C4OA 1_555 1_555
H4PA C4PA 1_555 1_555
H4QA C4QA 1_555 1_555
H4A C4A 1_555 1_555
H4B C4B 1_555 1_555
N2D C5D 1_555 1_555
N2H C5H 1_555 1_555
N2N C5N 1_555 1_555
N2R C5R 1_555 1_555
N2U C5U 1_555 1_555
N2EA C5EA 1_555 1_555
N2HA C5HA 1_555 1_555
N2OA C5OA 1_555 1_555
N2UA C5UA 1_555 1_555
N2AA C5AA 1_555 1_555
N2KA C5KA 1_555 1_555
C5D C5EA 1_555 1_555
C5H C5UA 1_555 1_555
C5N C5 1_555 1_555
C5R C5OA 1_555 1_555
C5U C5HA 1_555 1_555
C5EA C6EA 1_555 1_555
C5HA C6HA 1_555 1_555
C5OA C6OA 1_555 1_555
C5UA C6UA 1_555 1_555
C5AA C5KA 1_555 1_555
C5KA C6KA 1_555 1_555
C6D C5D 1_555 1_555
C6H C5H 1_555 1_555
C6N C5N 1_555 1_555
C6R C5R 1_555 1_555
C6U C5U 1_555 1_555
C6EA C7EA 1_555 1_555
C6HA C7HA 1_555 1_555
C6OA C7OA 1_555 1_555
C6UA C7UA 1_555 1_555
C6AA C5AA 1_555 1_555
C6KA C7KA 1_555 1_555
C7D C6D 1_555 1_555
C7H C6H 1_555 1_555
C7N C7 1_555 1_555
C7R C6R 1_555 1_555
C7U C6U 1_555 1_555
C7EA C7D 1_555 1_555
C7HA C7U 1_555 1_555
C7OA C7R 1_555 1_555
C7UA C7H 1_555 1_555
C7AA C6AA 1_555 1_555
C7KA C7AA 1_555 1_555
C8D N2D 1_555 1_555
C8H N2H 1_555 1_555
C8N N2N 1_555 1_555
C8R N2R 1_555 1_555
C8U N2U 1_555 1_555
C8EA N2EA 1_555 1_555
C8HA N2HA 1_555 1_555
C8OA N2OA 1_555 1_555
C8UA N2UA 1_555 1_555
C8AA N2AA 1_555 1_555
C8KA N2KA 1_555 1_555
C9D C10 1_555 1_555
C9H C8H 1_555 1_555
C9N C8N 1_555 1_555
C9R C8R 1_555 1_555
C9U C8U 1_555 1_555
C9EA C8EA 1_555 1_555
C9HA C8HA 1_555 1_555
C9OA C8OA 1_555 1_555
C9UA C8UA 1_555 1_555
C9AA C8AA 1_555 1_555
C9KA C8KA 1_555 1_555
C10D C9D 1_555 1_555
C10H C9 1_555 1_555
C10N C9N 1_555 1_555
C10R C9R 1_555 1_555
C10U C9N 1_555 1_555
C10EA C9EA 1_555 1_555
C10HA C9HA 1_555 1_555
C10OA C9OA 1_555 1_555
C10UA C9UA 1_555 1_555
C10AA C9EA 1_555 1_555
C10KA C9OA 1_555 1_555
H5D C5D 1_555 1_555
H5H C5H 1_555 1_555
H5N C5N 1_555 1_555
H5R C5R 1_555 1_555
H5U C5U 1_555 1_555
H5EA C5EA 1_555 1_555
H5HA C5HA 1_555 1_555
H5OA C5OA 1_555 1_555
H5UA C5UA 1_555 1_555
H5AA C5AA 1_555 1_555
H5KA C5KA 1_555 1_555
H6D C6D 1_555 1_555
H6H C6H 1_555 1_555
H6N C6N 1_555 1_555
H6R C6R 1_555 1_555
H6U C6U 1_555 1_555
H6EA C6EA 1_555 1_555
H6HA C6HA 1_555 1_555
H6OA C6OA 1_555 1_555
H6UA C6UA 1_555 1_555
H6AA C6AA 1_555 1_555
H6KA C6KA 1_555 1_555
H7D C6D 1_555 1_555
H7H C6H 1_555 1_555
H7N C6N 1_555 1_555
H7R C6R 1_555 1_555
H7U C6U 1_555 1_555
H7EA C6EA 1_555 1_555
H7HA C6HA 1_555 1_555
H7OA C6OA 1_555 1_555
H7UA C6UA 1_555 1_555
H7AA C6AA 1_555 1_555
H7KA C6KA 1_555 1_555
H8D C7D 1_555 1_555
H8H C7H 1_555 1_555
H8N C7N 1_555 1_555
H8R C7R 1_555 1_555
H8U C7U 1_555 1_555
H8EA C7EA 1_555 1_555
H8HA C7HA 1_555 1_555
H8OA C7OA 1_555 1_555
H8UA C7UA 1_555 1_555
H8AA C7AA 1_555 1_555
H8KA C7KA 1_555 1_555
H9D C7D 1_555 1_555
H9H C7H 1_555 1_555
H9N C7N 1_555 1_555
H9R C7R 1_555 1_555
H9U C7U 1_555 1_555
H9EA C7EA 1_555 1_555
H9HA C7HA 1_555 1_555
H9OA C7OA 1_555 1_555
H9UA C7UA 1_555 1_555
H9AA C7AA 1_555 1_555
H9KA C7KA 1_555 1_555
H10D C8D 1_555 1_555
H10H C8H 1_555 1_555
H10N C8N 1_555 1_555
H10R C8R 1_555 1_555
H10U C8U 1_555 1_555
H10EA C8EA 1_555 1_555
H10HA C8HA 1_555 1_555
H10OA C8OA 1_555 1_555
H10UA C8UA 1_555 1_555
H10AA C8AA 1_555 1_555
H10KA C8KA 1_555 1_555
H11D C10D 1_555 1_555
H11H C10H 1_555 1_555
H11N C10N 1_555 1_555
H11R C10R 1_555 1_555
H11U C10U 1_555 1_555
H11EA C10EA 1_555 1_555
H11HA C10HA 1_555 1_555
H11OA C10OA 1_555 1_555
H11UA C10UA 1_555 1_555
H11AA C10AA 1_555 1_555
H11KA C10KA 1_555 1_555
C2FA C3FA 1_555 1_555
C3NA C4FA 1_555 1_555
C3NA C4NA 1_555 1_555
C3HA C4C 1_555 1_555
C3OA C4IA 1_555 1_555
C3PA C4GA 1_555 1_555
C3QA C4HA 1_555 1_555
C3QA C4QA 1_555 1_555
C3A C4OA 1_555 1_555
C3A C4A 1_555 1_555
C3B C4PA 1_555 1_555
C3B C4B 1_555 1_555
C6N C7N 1_555 1_555
C8D C9D 1_555 1_555
C9H C10D 1_555 1_555
C9H C10H 1_555 1_555
C9R C10N 1_555 1_555
C9U C10R 1_555 1_555
C9U C10U 1_555 1_555
C9HA C10EA 1_555 1_555
C9UA C10OA 1_555 1_555
C9AA C10HA 1_555 1_555
C9AA C10AA 1_555 1_555
C9KA C10UA 1_555 1_555
C9KA C10KA 1_555 1_555

#END
