
#######################################################################
#
#                 Cambridge Crystallographic Data Centre
#                                CCDC 
#
#######################################################################
#
# If this CIF has been generated from an entry in the Cambridge 
# Structural Database, then it will include bibliographic, chemical, 
# crystal, experimental, refinement or atomic coordinate data resulting 
# from the CCDC's data processing and validation procedures.
#
#######################################################################

data_UTEXUO
_chemical_formula_moiety         'C19 H17 N2 S1 1+,I1 1-'
_chemical_name_systematic        
'1-methyl-2-((3-methyl-1,3-benzothiazol-2(3H)-ylidene)methyl)quinolinium iodide'
_symmetry_cell_setting           triclinic
_symmetry_space_group_name_H-M   'P -1'
_symmetry_Int_Tables_number      2
_space_group_name_Hall           '-P 1'
loop_
_symmetry_equiv_pos_site_id
_symmetry_equiv_pos_as_xyz
1 x,y,z
2 -x,-y,-z
_cell_length_a                   8.053(3)
_cell_length_b                   10.199(4)
_cell_length_c                   12.356(5)
_cell_angle_alpha                114.295(6)
_cell_angle_beta                 90.071(7)
_cell_angle_gamma                109.686(6)
_cell_volume                     859.255
_exptl_crystal_colour            brown
_exptl_crystal_description       block
_cell_formula_units_Z            2
loop_
_atom_site_label
_atom_site_type_symbol
_atom_site_fract_x
_atom_site_fract_y
_atom_site_fract_z
I1 I 0.67953(16) 0.43841(12) 0.29529(10)
S1 S 0.8165(4) -0.1572(4) 0.3189(3)
N1 N 0.9987(14) 0.0916(12) 0.3029(10)
N2 N 0.7131(13) 0.2350(13) 0.6507(9)
C1 C 1.0188(15) -0.0257(15) 0.2004(11)
C2 C 1.113(2) -0.012(2) 0.1074(13)
H1 H 1.1699 0.0842 0.1073
C3 C 1.118(2) -0.144(2) 0.0175(13)
H2 H 1.1894 -0.1353 -0.0403
C4 C 1.026(2) -0.2857(19) 0.0084(13)
H3 H 1.0322 -0.3725 -0.0557
C5 C 0.923(3) -0.303(2) 0.092(2)
H4 H 0.8523 -0.4018 0.0827
C6 C 0.9245(16) -0.1738(16) 0.1927(12)
C7 C 0.8920(15) 0.0449(14) 0.3762(12)
C8 C 0.8523(14) 0.1428(13) 0.4757(10)
H5 H 0.9000 0.2462 0.4900
C9 C 0.7504(14) 0.1139(14) 0.5617(10)
C10 C 0.6700(15) -0.0344(12) 0.5711(12)
H6 H 0.6870 -0.1178 0.5097
C11 C 0.5878(18) -0.0663(17) 0.6426(12)
H7 H 0.5437 -0.1670 0.6352
C12 C 0.5605(15) 0.0577(16) 0.7405(12)
C13 C 0.4722(17) 0.0378(17) 0.8338(13)
H8 H 0.4194 -0.0609 0.8295
C14 C 0.4634(18) 0.162(2) 0.9306(15)
H9 H 0.4071 0.1479 0.9928
C15 C 0.5366(19) 0.3077(18) 0.9372(13)
H10 H 0.5315 0.3910 1.0052
C16 C 0.6174(16) 0.3348(18) 0.8467(13)
H11 H 0.6636 0.4344 0.8521
C17 C 0.6288(15) 0.2093(16) 0.7459(11)
C18 C 1.082(3) 0.2530(18) 0.3303(17)
H12 H 1.1511 0.2636 0.2690
H13 H 1.1592 0.3073 0.4068
H14 H 0.9918 0.2958 0.3334
C19 C 0.756(2) 0.3779(18) 0.6463(15)
H15 H 0.7214 0.4467 0.7141
H16 H 0.6939 0.3626 0.5732
H17 H 0.8827 0.4222 0.6487
loop_
_geom_bond_atom_site_label_1
_geom_bond_atom_site_label_2
_geom_bond_site_symmetry_1
_geom_bond_site_symmetry_2
S1 C6 1_555 1_555
N1 C1 1_555 1_555
N2 C9 1_555 1_555
C1 C2 1_555 1_555
C2 H1 1_555 1_555
C3 C2 1_555 1_555
H2 C3 1_555 1_555
C4 C3 1_555 1_555
H3 C4 1_555 1_555
C5 C4 1_555 1_555
H4 C5 1_555 1_555
C6 C1 1_555 1_555
C7 S1 1_555 1_555
C8 C7 1_555 1_555
H5 C8 1_555 1_555
C9 C8 1_555 1_555
C10 C9 1_555 1_555
H6 C10 1_555 1_555
C11 C10 1_555 1_555
H7 C11 1_555 1_555
C12 C11 1_555 1_555
C13 C12 1_555 1_555
H8 C13 1_555 1_555
C14 C13 1_555 1_555
H9 C14 1_555 1_555
C15 C14 1_555 1_555
H10 C15 1_555 1_555
C16 C15 1_555 1_555
H11 C16 1_555 1_555
C17 N2 1_555 1_555
C18 N1 1_555 1_555
H12 C18 1_555 1_555
H13 C18 1_555 1_555
H14 C18 1_555 1_555
C19 N2 1_555 1_555
H15 C19 1_555 1_555
H16 C19 1_555 1_555
H17 C19 1_555 1_555
N1 C7 1_555 1_555
C5 C6 1_555 1_555
C12 C17 1_555 1_555
C16 C17 1_555 1_555

#END
