
#######################################################################
#
#                 Cambridge Crystallographic Data Centre
#                                CCDC 
#
#######################################################################
#
# If this CIF has been generated from an entry in the Cambridge 
# Structural Database, then it will include bibliographic, chemical, 
# crystal, experimental, refinement or atomic coordinate data resulting 
# from the CCDC's data processing and validation procedures.
#
#######################################################################

data_UTEXEY
_chemical_formula_moiety         'C26 H23 N2 S1 1+,I1 1-,C1 H2 Cl2'
_chemical_name_systematic        
'1-methyl-2-(1-(3-methyl-1,3-benzothiazol-2(3H)-ylidene)-2-phenylethyl)quinolinium iodide dichloromethane solvate'
_symmetry_cell_setting           triclinic
_symmetry_space_group_name_H-M   'P -1'
_symmetry_Int_Tables_number      2
_space_group_name_Hall           '-P 1'
loop_
_symmetry_equiv_pos_site_id
_symmetry_equiv_pos_as_xyz
1 x,y,z
2 -x,-y,-z
_cell_length_a                   10.1489(16)
_cell_length_b                   10.1904(16)
_cell_length_c                   14.839(2)
_cell_angle_alpha                88.909(3)
_cell_angle_beta                 73.752(3)
_cell_angle_gamma                66.213(2)
_cell_volume                     1340.5
_exptl_crystal_colour            colorless
_exptl_crystal_description       block
_cell_formula_units_Z            2
loop_
_atom_site_label
_atom_site_type_symbol
_atom_site_fract_x
_atom_site_fract_y
_atom_site_fract_z
I1 I 0.67734(6) 0.71874(6) 0.05899(4)
Cl1 Cl 0.8223(7) 0.5301(7) 0.3415(4)
Cl2 Cl 0.5195(7) 0.5826(15) 0.3573(6)
C1 C 0.674(2) 0.582(3) 0.2960(16)
H1 H 0.6544 0.6792 0.2787
H2 H 0.7075 0.5203 0.2380
S1 S 0.1583(3) 0.5412(3) 0.39532(15)
N1 N 0.3090(7) 0.4724(7) 0.2196(4)
N2 N 0.1326(7) 0.7351(7) 0.1101(4)
C2 C 0.2513(9) 0.3558(10) 0.3535(6)
C3 C 0.2570(11) 0.2367(12) 0.4005(7)
H3 H 0.2101 0.2474 0.4651
C4 C 0.3313(13) 0.1041(13) 0.3519(9)
H4 H 0.3322 0.0241 0.3834
C5 C 0.4078(12) 0.0840(12) 0.2541(9)
H5 H 0.4634 -0.0081 0.2221
C6 C 0.3979(10) 0.2063(11) 0.2067(7)
H6 H 0.4433 0.1962 0.1419
C7 C 0.3208(8) 0.3413(9) 0.2561(6)
C8 C 0.2181(9) 0.5936(10) 0.2815(5)
C9 C 0.1746(8) 0.7335(9) 0.2663(5)
C10 C 0.1808(9) 0.7860(8) 0.1734(6)
C11 C 0.2295(10) 0.8999(9) 0.1447(8)
H7 H 0.2568 0.9410 0.1878
C12 C 0.2371(10) 0.9450(11) 0.0678(8)
H8 H 0.2688 1.0190 0.0548
C13 C 0.1983(8) 0.8870(9) -0.0036(6)
C14 C 0.2103(11) 0.9370(11) -0.0937(7)
H9 H 0.2458 1.0082 -0.1087
C15 C 0.1702(12) 0.8815(11) -0.1578(7)
H10 H 0.1771 0.9144 -0.2171
C16 C 0.1181(13) 0.7738(11) -0.1342(7)
H11 H 0.0908 0.7361 -0.1790
C17 C 0.1056(11) 0.7211(10) -0.0472(6)
H12 H 0.0715 0.6487 -0.0335
C18 C 0.1454(9) 0.7798(8) 0.0195(5)
C19 C 0.0520(10) 0.6437(10) 0.1363(6)
H13 H 0.0276 0.6194 0.0827
H14 H -0.0393 0.6942 0.1865
H15 H 0.1142 0.5571 0.1570
C20 C 0.4193(8) 0.4739(10) 0.1306(5)
H16 H 0.4716 0.3789 0.0973
H17 H 0.4906 0.5037 0.1446
H18 H 0.3675 0.5400 0.0923
C21 C 0.1214(11) 0.8483(11) 0.3482(6)
H19 H 0.1379 0.8005 0.4038
H20 H 0.1834 0.9021 0.3335
C22 C -0.0429(10) 0.9542(9) 0.3722(5)
C23 C -0.1549(11) 0.9080(10) 0.3735(6)
H21 H -0.1282 0.8107 0.3585
C24 C -0.3027(13) 1.0023(13) 0.3963(7)
H22 H -0.3754 0.9692 0.3951
C25 C -0.3448(12) 1.1445(13) 0.4207(8)
H23 H -0.4462 1.2078 0.4373
C26 C -0.2363(14) 1.1959(12) 0.4208(8)
H24 H -0.2641 1.2931 0.4372
C27 C -0.0851(12) 1.0975(11) 0.3957(6)
H25 H -0.0116 1.1302 0.3951
loop_
_geom_bond_atom_site_label_1
_geom_bond_atom_site_label_2
_geom_bond_site_symmetry_1
_geom_bond_site_symmetry_2
Cl1 C1 1_555 1_555
Cl2 C1 1_555 1_555
C1 H1 1_555 1_555
H2 C1 1_555 1_555
S1 C2 1_555 1_555
N1 C7 1_555 1_555
N2 C10 1_555 1_555
C2 C3 1_555 1_555
C3 H3 1_555 1_555
C4 C3 1_555 1_555
H4 C4 1_555 1_555
C5 C4 1_555 1_555
H5 C5 1_555 1_555
C6 C5 1_555 1_555
H6 C6 1_555 1_555
C7 C2 1_555 1_555
C8 S1 1_555 1_555
C9 C8 1_555 1_555
C10 C9 1_555 1_555
C11 C10 1_555 1_555
H7 C11 1_555 1_555
C12 C11 1_555 1_555
H8 C12 1_555 1_555
C13 C12 1_555 1_555
C14 C13 1_555 1_555
H9 C14 1_555 1_555
C15 C14 1_555 1_555
H10 C15 1_555 1_555
C16 C15 1_555 1_555
H11 C16 1_555 1_555
C17 C16 1_555 1_555
H12 C17 1_555 1_555
C18 N2 1_555 1_555
C19 N2 1_555 1_555
H13 C19 1_555 1_555
H14 C19 1_555 1_555
H15 C19 1_555 1_555
C20 N1 1_555 1_555
H16 C20 1_555 1_555
H17 C20 1_555 1_555
H18 C20 1_555 1_555
C21 C9 1_555 1_555
H19 C21 1_555 1_555
H20 C21 1_555 1_555
C22 C21 1_555 1_555
C23 C22 1_555 1_555
H21 C23 1_555 1_555
C24 C23 1_555 1_555
H22 C24 1_555 1_555
C25 C24 1_555 1_555
H23 C25 1_555 1_555
C26 C25 1_555 1_555
H24 C26 1_555 1_555
C27 C22 1_555 1_555
H25 C27 1_555 1_555
N1 C8 1_555 1_555
C6 C7 1_555 1_555
C13 C18 1_555 1_555
C17 C18 1_555 1_555
C26 C27 1_555 1_555

#END
