
#######################################################################
#
#                 Cambridge Crystallographic Data Centre
#                                CCDC 
#
#######################################################################
#
# If this CIF has been generated from an entry in the Cambridge 
# Structural Database, then it will include bibliographic, chemical, 
# crystal, experimental, refinement or atomic coordinate data resulting 
# from the CCDC's data processing and validation procedures.
#
#######################################################################

data_UTEYAU
_chemical_formula_moiety         'C21 H21 N3 O1'
_chemical_name_systematic        
2-(2-(Benzyloxy)-4-(diethylamino)benzylidene)malononitrile
_symmetry_cell_setting           monoclinic
_symmetry_space_group_name_H-M   'P 21/c'
_symmetry_Int_Tables_number      14
_space_group_name_Hall           '-P 2ybc'
loop_
_symmetry_equiv_pos_site_id
_symmetry_equiv_pos_as_xyz
1 x,y,z
2 -x,1/2+y,1/2-z
3 -x,-y,-z
4 x,1/2-y,1/2+z
_cell_length_a                   12.797(3)
_cell_length_b                   17.007(3)
_cell_length_c                   8.2934(17)
_cell_angle_alpha                90
_cell_angle_beta                 97.80(3)
_cell_angle_gamma                90
_cell_volume                     1788.26
_exptl_crystal_colour            orange
_exptl_crystal_description       block
_chemical_melting_point          '160-161 deg.C'
_cell_formula_units_Z            4
_exptl_crystal_recrystallization_method ethanol
loop_
_atom_site_label
_atom_site_type_symbol
_atom_site_fract_x
_atom_site_fract_y
_atom_site_fract_z
O1 O 0.39738(10) 0.04622(8) 0.27587(17)
N1 N 0.77520(12) 0.01948(10) 0.3128(2)
N2 N 0.42744(16) -0.26084(13) -0.0971(3)
N3 N 0.12173(15) -0.17827(12) 0.0002(3)
C1 C 0.90477(17) -0.03123(15) 0.1391(3)
H1 H 0.9660 -0.0660 0.1415
H2 H 0.9246 0.0223 0.1117
H3 H 0.8479 -0.0500 0.0570
C2 C 0.86713(15) -0.03111(13) 0.3051(3)
H4 H 0.8490 -0.0856 0.3331
H5 H 0.9255 -0.0132 0.3876
C3 C 0.80698(19) 0.10248(15) 0.5616(3)
H6 H 0.8215 0.1568 0.5974
H7 H 0.8648 0.0684 0.6092
H8 H 0.7409 0.0848 0.5972
C4 C 0.79727(15) 0.09854(12) 0.3775(2)
H9 H 0.7400 0.1342 0.3306
H10 H 0.8638 0.1175 0.3426
C5 C 0.67564(14) -0.00758(12) 0.2681(2)
C6 C 0.58630(14) 0.03607(12) 0.2985(2)
H11 H 0.5953 0.0849 0.3542
C7 C 0.48641(14) 0.00798(12) 0.2477(2)
C8 C 0.46814(15) -0.06456(11) 0.1640(2)
C9 C 0.55868(15) -0.10775(12) 0.1403(2)
H12 H 0.5498 -0.1573 0.0871
C10 C 0.65839(15) -0.08154(12) 0.1902(3)
H13 H 0.7170 -0.1132 0.1726
C11 C 0.40564(15) 0.11715(11) 0.3683(2)
H14 H 0.4449 0.1572 0.3142
H15 H 0.4440 0.1073 0.4784
C12 C 0.29546(15) 0.14578(11) 0.3804(2)
C13 C 0.28264(17) 0.21187(13) 0.4735(3)
H16 H 0.3427 0.2368 0.5319
C14 C 0.18296(19) 0.24181(14) 0.4821(3)
H17 H 0.1751 0.2874 0.5455
C15 C 0.09511(18) 0.20597(14) 0.3992(3)
H18 H 0.0268 0.2269 0.4046
C16 C 0.10711(17) 0.13983(14) 0.3089(3)
H19 H 0.0467 0.1147 0.2520
C17 C 0.20637(15) 0.10938(12) 0.2998(2)
H20 H 0.2136 0.0632 0.2379
C18 C 0.36295(15) -0.08980(11) 0.1165(2)
H21 H 0.3110 -0.0550 0.1472
C19 C 0.32281(15) -0.15504(12) 0.0347(2)
C20 C 0.38225(16) -0.21391(13) -0.0353(3)
C21 C 0.21130(16) -0.16812(12) 0.0149(2)
loop_
_geom_bond_atom_site_label_1
_geom_bond_atom_site_label_2
_geom_bond_site_symmetry_1
_geom_bond_site_symmetry_2
O1 C7 1_555 1_555
N1 C2 1_555 1_555
N2 C20 1_555 1_555
N3 C21 1_555 1_555
C1 H1 1_555 1_555
H2 C1 1_555 1_555
H3 C1 1_555 1_555
C2 C1 1_555 1_555
H4 C2 1_555 1_555
H5 C2 1_555 1_555
C3 H6 1_555 1_555
H7 C3 1_555 1_555
H8 C3 1_555 1_555
C4 N1 1_555 1_555
H9 C4 1_555 1_555
H10 C4 1_555 1_555
C5 N1 1_555 1_555
C6 C5 1_555 1_555
H11 C6 1_555 1_555
C7 C6 1_555 1_555
C8 C7 1_555 1_555
C9 C8 1_555 1_555
H12 C9 1_555 1_555
C10 C5 1_555 1_555
H13 C10 1_555 1_555
C11 O1 1_555 1_555
H14 C11 1_555 1_555
H15 C11 1_555 1_555
C12 C11 1_555 1_555
C13 C12 1_555 1_555
H16 C13 1_555 1_555
C14 C13 1_555 1_555
H17 C14 1_555 1_555
C15 C14 1_555 1_555
H18 C15 1_555 1_555
C16 C15 1_555 1_555
H19 C16 1_555 1_555
C17 C12 1_555 1_555
H20 C17 1_555 1_555
C18 C8 1_555 1_555
H21 C18 1_555 1_555
C19 C18 1_555 1_555
C20 C19 1_555 1_555
C21 C19 1_555 1_555
C3 C4 1_555 1_555
C9 C10 1_555 1_555
C16 C17 1_555 1_555

#END
