
#######################################################################
#
#                 Cambridge Crystallographic Data Centre
#                                CCDC 
#
#######################################################################
#
# If this CIF has been generated from an entry in the Cambridge 
# Structural Database, then it will include bibliographic, chemical, 
# crystal, experimental, refinement or atomic coordinate data resulting 
# from the CCDC's data processing and validation procedures.
#
#######################################################################

data_UTIFIO
_chemical_formula_moiety         'C15 H13 N3 S1'
_chemical_name_systematic        
N-(2-methylphenyl)-3-phenyl-1,2,4-thiadiazol-5-amine
_symmetry_cell_setting           triclinic
_symmetry_space_group_name_H-M   'P -1'
_symmetry_Int_Tables_number      2
_space_group_name_Hall           '-P 1'
loop_
_symmetry_equiv_pos_site_id
_symmetry_equiv_pos_as_xyz
1 x,y,z
2 -x,-y,-z
_cell_length_a                   14.891(3)
_cell_length_b                   15.795(3)
_cell_length_c                   16.696(3)
_cell_angle_alpha                90.61(3)
_cell_angle_beta                 91.84(3)
_cell_angle_gamma                95.94(3)
_cell_volume                     3903.47
_exptl_crystal_colour            colorless
_exptl_crystal_description       block
_cell_formula_units_Z            12
loop_
_atom_site_label
_atom_site_type_symbol
_atom_site_fract_x
_atom_site_fract_y
_atom_site_fract_z
S1 S 0.01601(6) 0.29334(6) 0.12114(6)
N1 N 0.04143(19) 0.17712(18) 0.02146(17)
N2 N -0.0740(2) 0.24967(19) 0.06851(19)
N3 N 0.17322(19) 0.23083(19) 0.09293(18)
H1 H 0.2054 0.1936 0.0709
C1 C -0.0475(2) 0.1916(2) 0.0205(2)
C2 C 0.0858(2) 0.2283(2) 0.0748(2)
C3 C -0.1137(2) 0.1418(2) -0.0325(2)
C4 C -0.0927(2) 0.0670(2) -0.0690(2)
H2 H -0.0349 0.0480 -0.0593
C5 C -0.1544(3) 0.0204(2) -0.1187(2)
H3 H -0.1391 -0.0302 -0.1436
C6 C -0.2382(3) 0.0466(2) -0.1327(2)
H4 H -0.2810 0.0143 -0.1673
C7 C -0.2604(2) 0.1204(2) -0.0962(2)
H5 H -0.3187 0.1384 -0.1052
C8 C -0.1980(2) 0.1676(2) -0.0469(2)
H6 H -0.2134 0.2186 -0.0225
C9 C 0.2156(2) 0.2935(2) 0.1479(2)
C10 C 0.2387(2) 0.2702(2) 0.2255(2)
C11 C 0.2791(2) 0.3337(2) 0.2770(2)
H7 H 0.2957 0.3197 0.3303
C12 C 0.2955(2) 0.4162(2) 0.2525(2)
H8 H 0.3220 0.4589 0.2891
C13 C 0.2737(3) 0.4376(2) 0.1753(2)
H9 H 0.2864 0.4945 0.1580
C14 C 0.2331(3) 0.3757(2) 0.1229(2)
H10 H 0.2174 0.3902 0.0696
C15 C 0.2225(3) 0.1801(2) 0.2516(2)
H11 H 0.1577 0.1613 0.2474
H12 H 0.2441 0.1758 0.3074
H13 H 0.2551 0.1438 0.2173
S2 S 0.37122(6) 0.66472(6) 0.10701(6)
N4 N 0.38337(19) 0.54696(18) 0.00538(17)
N5 N 0.2780(2) 0.62917(18) 0.05548(18)
N6 N 0.5198(2) 0.5876(2) 0.07593(18)
H14 H 0.5504 0.5560 0.0453
C16 C 0.2970(2) 0.5687(2) 0.00675(19)
C17 C 0.4335(2) 0.5938(2) 0.0589(2)
C18 C 0.2247(2) 0.5215(2) -0.0423(2)
C19 C 0.2444(2) 0.4545(2) -0.0911(2)
H15 H 0.3050 0.4413 -0.0941
C20 C 0.1769(3) 0.4069(2) -0.1352(2)
H16 H 0.1912 0.3615 -0.1687
C21 C 0.0893(2) 0.4251(2) -0.1307(2)
H17 H 0.0423 0.3918 -0.1601
C22 C 0.0699(2) 0.4920(2) -0.0832(2)
H18 H 0.0093 0.5053 -0.0806
C23 C 0.1365(2) 0.5399(2) -0.0395(2)
H19 H 0.1218 0.5860 -0.0072
C24 C 0.5638(2) 0.6319(2) 0.1438(2)
C25 C 0.5756(2) 0.5877(2) 0.2143(2)
C26 C 0.6200(3) 0.6317(3) 0.2776(2)
H20 H 0.6293 0.6030 0.3264
C27 C 0.6511(3) 0.7155(3) 0.2722(3)
H21 H 0.6817 0.7443 0.3170
C28 C 0.6386(3) 0.7585(3) 0.2029(3)
H22 H 0.6600 0.8171 0.1994
C29 C 0.5945(3) 0.7160(2) 0.1380(2)
H23 H 0.5856 0.7452 0.0894
C30 C 0.5429(3) 0.4951(3) 0.2188(3)
H24 H 0.5792 0.4623 0.1845
H25 H 0.4794 0.4860 0.2006
H26 H 0.5488 0.4763 0.2743
S3 S 0.69401(7) 0.98734(6) 0.11286(6)
N7 N 0.71619(19) 0.87634(18) 0.00684(17)
N8 N 0.6032(2) 0.9474(2) 0.06045(19)
N9 N 0.84925(19) 0.92184(19) 0.08051(17)
H27 H 0.8829 0.8985 0.0458
C31 C 0.6278(2) 0.8912(2) 0.0089(2)
C32 C 0.7622(2) 0.9233(2) 0.0627(2)
C33 C 0.5589(2) 0.8405(2) -0.0411(2)
C34 C 0.5835(2) 0.7780(3) -0.0924(2)
H28 H 0.6455 0.7699 -0.0966
C35 C 0.5195(3) 0.7277(3) -0.1371(3)
H29 H 0.5376 0.6861 -0.1729
C36 C 0.4298(3) 0.7371(3) -0.1304(2)
H30 H 0.3854 0.7012 -0.1602
C37 C 0.4049(3) 0.7994(3) -0.0796(2)
H31 H 0.3427 0.8067 -0.0749
C38 C 0.4689(2) 0.8511(2) -0.0356(2)
H32 H 0.4507 0.8941 -0.0013
C39 C 0.8908(2) 0.9561(2) 0.1529(2)
C40 C 0.9217(2) 0.9003(2) 0.2092(2)
C41 C 0.9644(2) 0.9347(3) 0.2779(2)
H33 H 0.9863 0.8977 0.3168
C42 C 0.9766(3) 1.0211(3) 0.2921(3)
H34 H 1.0066 1.0432 0.3401
C43 C 0.9452(3) 1.0748(3) 0.2369(3)
H35 H 0.9530 1.1345 0.2467
C44 C 0.9020(3) 1.0426(2) 0.1666(2)
H36 H 0.8803 1.0801 0.1281
C45 C 0.9087(3) 0.8064(2) 0.1939(3)
H37 H 0.8450 0.7890 0.1796
H38 H 0.9261 0.7767 0.2423
H39 H 0.9463 0.7919 0.1497
S4 S 0.13602(7) 0.34667(6) 0.61679(6)
N10 N 0.11385(18) 0.46396(17) 0.51922(16)
N11 N 0.2252(2) 0.38385(19) 0.56600(18)
N12 N -0.01623(19) 0.42344(18) 0.58939(17)
H40 H -0.0473 0.4568 0.5600
C46 C 0.2009(2) 0.4442(2) 0.5197(2)
C47 C 0.0694(2) 0.4169(2) 0.5714(2)
C48 C 0.2688(2) 0.4941(2) 0.4725(2)
C49 C 0.2513(2) 0.5722(2) 0.4433(2)
H41 H 0.1935 0.5913 0.4499
C50 C 0.3165(3) 0.6227(3) 0.4048(2)
H42 H 0.3037 0.6763 0.3846
C51 C 0.4008(2) 0.5956(2) 0.3955(2)
H43 H 0.4462 0.6303 0.3690
C52 C 0.4183(2) 0.5172(2) 0.4252(2)
H44 H 0.4762 0.4982 0.4189
C53 C 0.3533(2) 0.4669(2) 0.4634(2)
H45 H 0.3660 0.4133 0.4836
C54 C -0.0599(2) 0.3798(2) 0.6531(2)
C55 C -0.0902(2) 0.4275(2) 0.7156(2)
C56 C -0.1357(2) 0.3838(2) 0.7760(2)
H46 H -0.1571 0.4150 0.8191
C57 C -0.1507(2) 0.2967(3) 0.7753(2)
H47 H -0.1826 0.2681 0.8172
C58 C -0.1193(3) 0.2510(3) 0.7135(3)
H48 H -0.1287 0.1906 0.7130
C59 C -0.0743(3) 0.2927(2) 0.6523(2)
H49 H -0.0531 0.2610 0.6095
C60 C -0.0723(3) 0.5222(2) 0.7181(3)
H50 H -0.0069 0.5386 0.7198
H51 H -0.0987 0.5446 0.7659
H52 H -0.0995 0.5457 0.6700
S5 S 0.20189(7) 0.98055(6) 0.38284(6)
N13 N 0.22708(18) 0.86460(17) 0.48111(16)
N14 N 0.1134(2) 0.9410(2) 0.43348(19)
N15 N 0.35651(19) 0.90816(18) 0.41088(17)
H53 H 0.3897 0.8783 0.4420
C61 C 0.1396(2) 0.8817(2) 0.4802(2)
C62 C 0.2705(2) 0.9122(2) 0.4290(2)
C63 C 0.0725(2) 0.8314(2) 0.52690(19)
C64 C 0.0930(2) 0.7562(2) 0.5620(2)
H54 H 0.1517 0.7385 0.5576
C65 C 0.0284(3) 0.7070(3) 0.6030(2)
H55 H 0.0429 0.6560 0.6277
C66 C -0.0569(2) 0.7317(3) 0.6083(2)
H56 H -0.1016 0.6977 0.6366
C67 C -0.0778(2) 0.8055(3) 0.5729(2)
H57 H -0.1370 0.8223 0.5764
C68 C -0.0137(2) 0.8551(2) 0.5324(2)
H58 H -0.0288 0.9060 0.5079
C69 C 0.3973(2) 0.9492(2) 0.3444(2)
C70 C 0.4333(2) 0.9000(2) 0.2864(2)
C71 C 0.4746(2) 0.9413(2) 0.2229(2)
H59 H 0.5004 0.9090 0.1830
C72 C 0.4794(2) 1.0284(3) 0.2162(2)
H60 H 0.5078 1.0556 0.1718
C73 C 0.4428(3) 1.0762(3) 0.2742(2)
H61 H 0.4457 1.1363 0.2697
C74 C 0.4024(2) 1.0363(2) 0.3384(2)
H62 H 0.3778 1.0691 0.3788
C75 C 0.4265(3) 0.8054(2) 0.2925(2)
H63 H 0.4551 0.7900 0.3432
H64 H 0.4573 0.7818 0.2477
H65 H 0.3628 0.7824 0.2906
S6 S 0.49603(6) 0.69745(6) 0.62412(6)
N16 N 0.46575(19) 0.80767(18) 0.52110(17)
N17 N 0.5835(2) 0.7397(2) 0.57404(18)
N18 N 0.33708(19) 0.75940(18) 0.59037(17)
H66 H 0.3046 0.7926 0.5621
C76 C 0.5549(2) 0.7951(2) 0.5246(2)
C77 C 0.4235(2) 0.7593(2) 0.5743(2)
C78 C 0.6190(2) 0.8454(2) 0.4748(2)
C79 C 0.5963(2) 0.9204(2) 0.4411(2)
H67 H 0.5385 0.9387 0.4498
C80 C 0.6565(3) 0.9686(3) 0.3952(2)
H68 H 0.6399 1.0193 0.3715
C81 C 0.7409(2) 0.9434(2) 0.3836(2)
H69 H 0.7825 0.9764 0.3515
C82 C 0.7645(2) 0.8704(2) 0.4187(2)
H70 H 0.8231 0.8536 0.4115
C83 C 0.7050(2) 0.8215(2) 0.4639(2)
H71 H 0.7224 0.7712 0.4878
C84 C 0.2939(2) 0.7091(2) 0.65043(19)
C85 C 0.2556(2) 0.7490(2) 0.7134(2)
C86 C 0.2092(2) 0.6983(2) 0.7685(2)
H72 H 0.1812 0.7244 0.8113
C87 C 0.2027(2) 0.6117(3) 0.7627(2)
H73 H 0.1699 0.5781 0.8010
C88 C 0.2435(3) 0.5727(2) 0.7014(2)
H74 H 0.2402 0.5123 0.6981
C89 C 0.2889(2) 0.6215(2) 0.6452(2)
H75 H 0.3169 0.5949 0.6026
C90 C 0.2645(3) 0.8439(2) 0.7206(3)
H76 H 0.3286 0.8656 0.7234
H77 H 0.2355 0.8608 0.7692
H78 H 0.2352 0.8675 0.6737
loop_
_geom_bond_atom_site_label_1
_geom_bond_atom_site_label_2
_geom_bond_site_symmetry_1
_geom_bond_site_symmetry_2
S1 N2 1_555 1_555
N1 C1 1_555 1_555
N2 C1 1_555 1_555
N3 H1 1_555 1_555
C1 C3 1_555 1_555
C2 S1 1_555 1_555
C3 C4 1_555 1_555
C4 H2 1_555 1_555
C5 C4 1_555 1_555
H3 C5 1_555 1_555
C6 C5 1_555 1_555
H4 C6 1_555 1_555
C7 C6 1_555 1_555
H5 C7 1_555 1_555
C8 C3 1_555 1_555
H6 C8 1_555 1_555
C9 N3 1_555 1_555
C10 C9 1_555 1_555
C11 C10 1_555 1_555
H7 C11 1_555 1_555
C12 C11 1_555 1_555
H8 C12 1_555 1_555
C13 C12 1_555 1_555
H9 C13 1_555 1_555
C14 C9 1_555 1_555
H10 C14 1_555 1_555
C15 C10 1_555 1_555
H11 C15 1_555 1_555
H12 C15 1_555 1_555
H13 C15 1_555 1_555
S2 N5 1_555 1_555
N4 C16 1_555 1_555
N5 C16 1_555 1_555
N6 H14 1_555 1_555
C16 C18 1_555 1_555
C17 S2 1_555 1_555
C18 C19 1_555 1_555
C19 H15 1_555 1_555
C20 C19 1_555 1_555
H16 C20 1_555 1_555
C21 C20 1_555 1_555
H17 C21 1_555 1_555
C22 C21 1_555 1_555
H18 C22 1_555 1_555
C23 C18 1_555 1_555
H19 C23 1_555 1_555
C24 N6 1_555 1_555
C25 C24 1_555 1_555
C26 C25 1_555 1_555
H20 C26 1_555 1_555
C27 C26 1_555 1_555
H21 C27 1_555 1_555
C28 C27 1_555 1_555
H22 C28 1_555 1_555
C29 C24 1_555 1_555
H23 C29 1_555 1_555
C30 C25 1_555 1_555
H24 C30 1_555 1_555
H25 C30 1_555 1_555
H26 C30 1_555 1_555
S3 N8 1_555 1_555
N7 C31 1_555 1_555
N8 C31 1_555 1_555
N9 H27 1_555 1_555
C31 C33 1_555 1_555
C32 S3 1_555 1_555
C33 C34 1_555 1_555
C34 H28 1_555 1_555
C35 C34 1_555 1_555
H29 C35 1_555 1_555
C36 C35 1_555 1_555
H30 C36 1_555 1_555
C37 C36 1_555 1_555
H31 C37 1_555 1_555
C38 C33 1_555 1_555
H32 C38 1_555 1_555
C39 N9 1_555 1_555
C40 C39 1_555 1_555
C41 C40 1_555 1_555
H33 C41 1_555 1_555
C42 C41 1_555 1_555
H34 C42 1_555 1_555
C43 C42 1_555 1_555
H35 C43 1_555 1_555
C44 C39 1_555 1_555
H36 C44 1_555 1_555
C45 C40 1_555 1_555
H37 C45 1_555 1_555
H38 C45 1_555 1_555
H39 C45 1_555 1_555
S4 N11 1_555 1_555
N10 C46 1_555 1_555
N11 C46 1_555 1_555
N12 H40 1_555 1_555
C46 C48 1_555 1_555
C47 S4 1_555 1_555
C48 C49 1_555 1_555
C49 H41 1_555 1_555
C50 C49 1_555 1_555
H42 C50 1_555 1_555
C51 C50 1_555 1_555
H43 C51 1_555 1_555
C52 C51 1_555 1_555
H44 C52 1_555 1_555
C53 C48 1_555 1_555
H45 C53 1_555 1_555
C54 N12 1_555 1_555
C55 C54 1_555 1_555
C56 C55 1_555 1_555
H46 C56 1_555 1_555
C57 C56 1_555 1_555
H47 C57 1_555 1_555
C58 C57 1_555 1_555
H48 C58 1_555 1_555
C59 C54 1_555 1_555
H49 C59 1_555 1_555
C60 C55 1_555 1_555
H50 C60 1_555 1_555
H51 C60 1_555 1_555
H52 C60 1_555 1_555
S5 N14 1_555 1_555
N13 C61 1_555 1_555
N14 C61 1_555 1_555
N15 H53 1_555 1_555
C61 C63 1_555 1_555
C62 S5 1_555 1_555
C63 C64 1_555 1_555
C64 H54 1_555 1_555
C65 C64 1_555 1_555
H55 C65 1_555 1_555
C66 C65 1_555 1_555
H56 C66 1_555 1_555
C67 C66 1_555 1_555
H57 C67 1_555 1_555
C68 C63 1_555 1_555
H58 C68 1_555 1_555
C69 N15 1_555 1_555
C70 C69 1_555 1_555
C71 C70 1_555 1_555
H59 C71 1_555 1_555
C72 C71 1_555 1_555
H60 C72 1_555 1_555
C73 C72 1_555 1_555
H61 C73 1_555 1_555
C74 C69 1_555 1_555
H62 C74 1_555 1_555
C75 C70 1_555 1_555
H63 C75 1_555 1_555
H64 C75 1_555 1_555
H65 C75 1_555 1_555
S6 N17 1_555 1_555
N16 C76 1_555 1_555
N17 C76 1_555 1_555
N18 H66 1_555 1_555
C76 C78 1_555 1_555
C77 S6 1_555 1_555
C78 C79 1_555 1_555
C79 H67 1_555 1_555
C80 C79 1_555 1_555
H68 C80 1_555 1_555
C81 C80 1_555 1_555
H69 C81 1_555 1_555
C82 C81 1_555 1_555
H70 C82 1_555 1_555
C83 C78 1_555 1_555
H71 C83 1_555 1_555
C84 N18 1_555 1_555
C85 C84 1_555 1_555
C86 C85 1_555 1_555
H72 C86 1_555 1_555
C87 C86 1_555 1_555
H73 C87 1_555 1_555
C88 C87 1_555 1_555
H74 C88 1_555 1_555
C89 C84 1_555 1_555
H75 C89 1_555 1_555
C90 C85 1_555 1_555
H76 C90 1_555 1_555
H77 C90 1_555 1_555
H78 C90 1_555 1_555
N1 C2 1_555 1_555
N3 C2 1_555 1_555
C7 C8 1_555 1_555
C13 C14 1_555 1_555
N4 C17 1_555 1_555
N6 C17 1_555 1_555
C22 C23 1_555 1_555
C28 C29 1_555 1_555
N7 C32 1_555 1_555
N9 C32 1_555 1_555
C37 C38 1_555 1_555
C43 C44 1_555 1_555
N10 C47 1_555 1_555
N12 C47 1_555 1_555
C52 C53 1_555 1_555
C58 C59 1_555 1_555
N13 C62 1_555 1_555
N15 C62 1_555 1_555
C67 C68 1_555 1_555
C73 C74 1_555 1_555
N16 C77 1_555 1_555
N18 C77 1_555 1_555
C82 C83 1_555 1_555
C88 C89 1_555 1_555

#END
