
#######################################################################
#
#                 Cambridge Crystallographic Data Centre
#                                CCDC 
#
#######################################################################
#
# If this CIF has been generated from an entry in the Cambridge 
# Structural Database, then it will include bibliographic, chemical, 
# crystal, experimental, refinement or atomic coordinate data resulting 
# from the CCDC's data processing and validation procedures.
#
#######################################################################

data_UTITIB
_chemical_formula_moiety         'C17 H13 Cl1 O3'
_chemical_name_systematic        
'(E)-Prop-2-yn-1-yl 3-chloro-3-(2-methoxy-1-naphthyl)acrylate'
_symmetry_cell_setting           triclinic
_symmetry_space_group_name_H-M   'P -1'
_symmetry_Int_Tables_number      2
_space_group_name_Hall           '-P 1'
loop_
_symmetry_equiv_pos_site_id
_symmetry_equiv_pos_as_xyz
1 x,y,z
2 -x,-y,-z
_cell_length_a                   8.2086(3)
_cell_length_b                   9.7144(4)
_cell_length_c                   18.5397(7)
_cell_angle_alpha                80.099(3)
_cell_angle_beta                 83.606(3)
_cell_angle_gamma                80.636(3)
_cell_volume                     1431.66
_exptl_crystal_colour            colorless
_exptl_crystal_description       prism
_chemical_melting_point          '76-77 deg.C'
_cell_formula_units_Z            4
loop_
_atom_site_label
_atom_site_type_symbol
_atom_site_fract_x
_atom_site_fract_y
_atom_site_fract_z
C1 C 0.25246(19) 0.36006(16) 0.75740(7)
H1 H 0.3246 0.3179 0.7209
C2 C 0.16317(16) 0.41221(13) 0.80247(6)
C3 C 0.04407(16) 0.46710(15) 0.85841(7)
H2 H -0.0044 0.5652 0.8397
H3 H -0.0469 0.4091 0.8697
C4 C 0.16071(14) 0.58922(11) 0.93604(6)
C5 C 0.25050(14) 0.56391(11) 1.00266(6)
H4 H 0.2692 0.4701 1.0284
C6 C 0.30699(13) 0.66428(11) 1.02896(6)
C7 C 0.30235(13) 0.81567(11) 0.99959(6)
C8 C 0.20507(14) 0.91332(11) 1.03829(6)
C9 C 0.20389(14) 1.05929(11) 1.01435(6)
H5 H 0.1363 1.1259 1.0410
C10 C 0.30011(15) 1.10431(11) 0.95291(6)
H6 H 0.2994 1.2028 0.9375
C11 C 0.40093(14) 1.00856(11) 0.91151(6)
C12 C 0.50003(16) 1.05459(13) 0.84707(7)
H7 H 0.4988 1.1530 0.8308
C13 C 0.59682(16) 0.96075(14) 0.80804(7)
H8 H 0.6622 0.9935 0.7649
C14 C 0.59975(16) 0.81491(14) 0.83186(7)
H9 H 0.6683 0.7494 0.8049
C15 C 0.50505(15) 0.76670(12) 0.89334(6)
H10 H 0.5081 0.6678 0.9084
C16 C 0.40231(13) 0.86137(11) 0.93512(6)
C17 C 0.01359(16) 0.95412(13) 1.14230(7)
H11 H 0.0855 1.0060 1.1629
H12 H -0.0497 0.9007 1.1824
H13 H -0.0630 1.0210 1.1116
O1 O 0.12416(13) 0.69909(9) 0.89713(5)
O2 O 0.12326(11) 0.46491(9) 0.92470(5)
O3 O 0.11282(11) 0.85882(8) 1.09856(4)
Cl1 Cl 0.40531(4) 0.61123(3) 1.110517(16)
C18 C -0.0393(2) -0.1584(2) 0.67662(10)
H14 H -0.1413 -0.1532 0.6559
C19 C 0.08679(18) -0.16489(15) 0.70217(8)
C20 C 0.24369(17) -0.17607(14) 0.73381(7)
H15 H 0.2333 -0.1074 0.7684
H16 H 0.2707 -0.2720 0.7618
C21 C 0.38746(15) -0.01159(12) 0.65219(6)
C22 C 0.53024(14) -0.00483(12) 0.59629(6)
H17 H 0.5826 -0.0901 0.5800
C23 C 0.58945(14) 0.11387(12) 0.56754(6)
C24 C 0.52836(14) 0.25927(11) 0.58131(6)
C25 C 0.38295(15) 0.32913(12) 0.55361(6)
C26 C 0.32450(16) 0.46953(13) 0.56389(7)
H18 H 0.2233 0.5164 0.5454
C27 C 0.41299(17) 0.53799(12) 0.60036(7)
H19 H 0.3731 0.6331 0.6063
C28 C 0.56282(16) 0.47111(12) 0.62961(6)
C29 C 0.65466(19) 0.54080(14) 0.66832(7)
H20 H 0.6153 0.6355 0.6753
C30 C 0.7990(2) 0.47394(16) 0.69581(8)
H21 H 0.8601 0.5226 0.7212
C31 C 0.85771(19) 0.33343(15) 0.68680(8)
H22 H 0.9583 0.2874 0.7063
C32 C 0.77132(16) 0.26220(13) 0.65025(7)
H23 H 0.8118 0.1667 0.6451
C33 C 0.62213(15) 0.32915(12) 0.61996(6)
C34 C 0.13554(17) 0.30723(18) 0.50272(9)
H24 H 0.0730 0.3236 0.5494
H25 H 0.0892 0.2368 0.4824
H26 H 0.1280 0.3959 0.4680
O4 O 0.29506(12) 0.08424(9) 0.67352(5)
O5 O 0.37618(11) -0.14891(8) 0.67754(5)
O6 O 0.30444(11) 0.25698(9) 0.51479(5)
Cl2 Cl 0.76156(4) 0.10046(3) 0.502808(17)
loop_
_geom_bond_atom_site_label_1
_geom_bond_atom_site_label_2
_geom_bond_site_symmetry_1
_geom_bond_site_symmetry_2
C1 H1 1_555 1_555
C2 C1 1_555 1_555
C3 C2 1_555 1_555
H2 C3 1_555 1_555
H3 C3 1_555 1_555
C4 C5 1_555 1_555
C5 H4 1_555 1_555
C6 C5 1_555 1_555
C7 C6 1_555 1_555
C8 C7 1_555 1_555
C9 C8 1_555 1_555
H5 C9 1_555 1_555
C10 C9 1_555 1_555
H6 C10 1_555 1_555
C11 C10 1_555 1_555
C12 C11 1_555 1_555
H7 C12 1_555 1_555
C13 C12 1_555 1_555
H8 C13 1_555 1_555
C14 C13 1_555 1_555
H9 C14 1_555 1_555
C15 C14 1_555 1_555
H10 C15 1_555 1_555
C16 C7 1_555 1_555
C17 H11 1_555 1_555
H12 C17 1_555 1_555
H13 C17 1_555 1_555
O1 C4 1_555 1_555
O2 C3 1_555 1_555
O3 C8 1_555 1_555
Cl1 C6 1_555 1_555
C18 H14 1_555 1_555
C19 C18 1_555 1_555
C20 C19 1_555 1_555
H15 C20 1_555 1_555
H16 C20 1_555 1_555
C21 C22 1_555 1_555
C22 H17 1_555 1_555
C23 C22 1_555 1_555
C24 C23 1_555 1_555
C25 C24 1_555 1_555
C26 C25 1_555 1_555
H18 C26 1_555 1_555
C27 C26 1_555 1_555
H19 C27 1_555 1_555
C28 C27 1_555 1_555
C29 C28 1_555 1_555
H20 C29 1_555 1_555
C30 C29 1_555 1_555
H21 C30 1_555 1_555
C31 C30 1_555 1_555
H22 C31 1_555 1_555
C32 C31 1_555 1_555
H23 C32 1_555 1_555
C33 C24 1_555 1_555
C34 H24 1_555 1_555
H25 C34 1_555 1_555
H26 C34 1_555 1_555
O4 C21 1_555 1_555
O5 C20 1_555 1_555
O6 C25 1_555 1_555
Cl2 C23 1_555 1_555
C4 O2 1_555 1_555
C11 C16 1_555 1_555
C15 C16 1_555 1_555
C17 O3 1_555 1_555
C21 O5 1_555 1_555
C28 C33 1_555 1_555
C32 C33 1_555 1_555
C34 O6 1_555 1_555

#END
