
#######################################################################
#
#                 Cambridge Crystallographic Data Centre
#                                CCDC 
#
#######################################################################
#
# If this CIF has been generated from an entry in the Cambridge 
# Structural Database, then it will include bibliographic, chemical, 
# crystal, experimental, refinement or atomic coordinate data resulting 
# from the CCDC's data processing and validation procedures.
#
#######################################################################

data_UTIWIE
_chemical_formula_moiety         'C13 H14 N2 O3'
_chemical_name_systematic        
'Ethyl 2-cyano-3-((4-methoxyphenyl)amino)acrylate'
_symmetry_cell_setting           triclinic
_symmetry_space_group_name_H-M   'P -1'
_symmetry_Int_Tables_number      2
_space_group_name_Hall           '-P 1'
loop_
_symmetry_equiv_pos_site_id
_symmetry_equiv_pos_as_xyz
1 x,y,z
2 -x,-y,-z
_cell_length_a                   4.4026(14)
_cell_length_b                   10.667(3)
_cell_length_c                   13.823(4)
_cell_angle_alpha                76.294(4)
_cell_angle_beta                 86.681(4)
_cell_angle_gamma                89.165(4)
_cell_volume                     629.62
_exptl_crystal_colour            colorless
_exptl_crystal_description       prism
_cell_formula_units_Z            2
loop_
_atom_site_label
_atom_site_type_symbol
_atom_site_fract_x
_atom_site_fract_y
_atom_site_fract_z
C1 C -0.1345(4) -0.06030(19) 0.80337(14)
C2 C -0.2303(5) -0.0715(2) 0.90071(15)
H1 H -0.1661 -0.0111 0.9338
C3 C -0.4197(5) -0.1700(2) 0.95107(15)
H2 H -0.4778 -0.1770 1.0179
C4 C -0.5229(4) -0.25845(19) 0.90210(15)
C5 C -0.4341(5) -0.2453(2) 0.80262(15)
H3 H -0.5069 -0.3031 0.7686
C6 C -0.2392(5) -0.1479(2) 0.75293(15)
H4 H -0.1786 -0.1411 0.6863
C7 C -0.7802(6) -0.3829(3) 1.04922(16)
H5 H -0.9124 -0.4562 1.0702
H6 H -0.8795 -0.3084 1.0641
H7 H -0.5957 -0.3994 1.0839
C8 C 0.2164(5) 0.06074(19) 0.67062(15)
H8 H 0.1833 0.0024 0.6319
C9 C 0.4181(5) 0.16045(19) 0.63194(15)
C10 C 0.4851(5) 0.2554(2) 0.68659(15)
C11 C 0.7475(7) 0.4483(2) 0.68695(19)
H9 H 0.5645 0.4813 0.7148
H10 H 0.8767 0.4115 0.7410
C12 C 0.9073(8) 0.5524(3) 0.6151(2)
H11 H 1.0811 0.5179 0.5850
H12 H 0.9729 0.6155 0.6486
H13 H 0.7729 0.5922 0.5644
C13 C 0.5668(5) 0.16478(19) 0.53726(17)
N1 N 0.0682(4) 0.04217(16) 0.75786(12)
H14 H 0.0969 0.0987 0.7916
N2 N 0.6885(5) 0.1655(2) 0.46152(16)
O1 O -0.7104(3) -0.35995(14) 0.94472(10)
O2 O 0.6688(4) 0.34977(14) 0.63474(11)
O3 O 0.3862(4) 0.25087(15) 0.77171(11)
loop_
_geom_bond_atom_site_label_1
_geom_bond_atom_site_label_2
_geom_bond_site_symmetry_1
_geom_bond_site_symmetry_2
C1 C2 1_555 1_555
C2 H1 1_555 1_555
C3 C2 1_555 1_555
H2 C3 1_555 1_555
C4 C3 1_555 1_555
C5 C4 1_555 1_555
H3 C5 1_555 1_555
C6 C1 1_555 1_555
H4 C6 1_555 1_555
C7 H5 1_555 1_555
H6 C7 1_555 1_555
H7 C7 1_555 1_555
C8 H8 1_555 1_555
C9 C8 1_555 1_555
C10 C9 1_555 1_555
C11 H9 1_555 1_555
H10 C11 1_555 1_555
C12 C11 1_555 1_555
H11 C12 1_555 1_555
H12 C12 1_555 1_555
H13 C12 1_555 1_555
C13 C9 1_555 1_555
N1 C1 1_555 1_555
H14 N1 1_555 1_555
N2 C13 1_555 1_555
O1 C4 1_555 1_555
O2 C10 1_555 1_555
O3 C10 1_555 1_555
C5 C6 1_555 1_555
C7 O1 1_555 1_555
C8 N1 1_555 1_555
C11 O2 1_555 1_555

#END
