
#######################################################################
#
#                 Cambridge Crystallographic Data Centre
#                                CCDC 
#
#######################################################################
#
# If this CIF has been generated from an entry in the Cambridge 
# Structural Database, then it will include bibliographic, chemical, 
# crystal, experimental, refinement or atomic coordinate data resulting 
# from the CCDC's data processing and validation procedures.
#
#######################################################################

data_UTOCUD
_chemical_formula_moiety         'C21 H22 N2 O4'
_chemical_name_systematic        
'ethyl 5-methyl-3-nitro-1,4-diphenyl-1,2,3,4-tetrahydropyridine-2-carboxylate'
_symmetry_cell_setting           triclinic
_symmetry_space_group_name_H-M   'P 1'
_symmetry_Int_Tables_number      1
_space_group_name_Hall           'P 1'
loop_
_symmetry_equiv_pos_site_id
_symmetry_equiv_pos_as_xyz
1 x,y,z
_cell_length_a                   9.1177(5)
_cell_length_b                   9.4662(5)
_cell_length_c                   13.0980(6)
_cell_angle_alpha                73.993(3)
_cell_angle_beta                 70.653(3)
_cell_angle_gamma                67.249(3)
_cell_volume                     969.395
_exptl_crystal_colour            'pale brown'
_exptl_crystal_description       prism
_cell_formula_units_Z            2
loop_
_atom_site_label
_atom_site_type_symbol
_atom_site_fract_x
_atom_site_fract_y
_atom_site_fract_z
C1 C 0.5956(3) 0.4342(3) 0.35531(17)
H1 H 0.7112 0.3662 0.3551
C2 C 0.5228(3) 0.3490(3) 0.31211(18)
H2 H 0.4002 0.3937 0.3350
C3 C 0.5725(3) 0.1759(3) 0.35798(19)
C4 C 0.4573(3) 0.1040(3) 0.4180(2)
H3 H 0.3440 0.1639 0.4336
C5 C 0.5050(4) -0.0556(3) 0.4561(2)
H4 H 0.4241 -0.1038 0.4969
C6 C 0.6686(4) -0.1436(3) 0.4349(2)
H5 H 0.7009 -0.2524 0.4612
C7 C 0.7859(4) -0.0734(3) 0.3754(2)
H6 H 0.8993 -0.1333 0.3615
C8 C 0.7374(3) 0.0851(3) 0.3362(2)
H7 H 0.8183 0.1325 0.2936
C9 C 0.5772(3) 0.3761(3) 0.18681(18)
C10 C 0.5220(4) 0.2947(3) 0.1303(2)
H8 H 0.4558 0.2345 0.1853
H9 H 0.6185 0.2246 0.0870
H10 H 0.4559 0.3718 0.0816
C11 C 0.6680(3) 0.4663(3) 0.13016(18)
H11 H 0.7084 0.4680 0.0532
C12 C 0.8398(3) 0.6165(3) 0.12183(18)
C13 C 0.9739(3) 0.5341(3) 0.0466(2)
H12 H 0.9746 0.4414 0.0314
C14 C 1.1060(4) 0.5892(5) -0.0055(2)
H13 H 1.1965 0.5341 -0.0571
C15 C 1.1077(4) 0.7227(5) 0.0168(3)
H14 H 1.1996 0.7581 -0.0181
C16 C 0.9749(4) 0.8041(4) 0.0900(3)
H15 H 0.9752 0.8966 0.1049
C17 C 0.8409(3) 0.7531(3) 0.1421(2)
H16 H 0.7496 0.8112 0.1918
C18 C 0.6049(3) 0.5913(3) 0.28311(18)
H17 H 0.6581 0.6370 0.3154
C19 C 0.4329(3) 0.7041(3) 0.27906(19)
C20 C 0.2746(4) 0.9226(4) 0.1796(3)
H18 H 0.2234 0.9824 0.2408
H19 H 0.2013 0.8666 0.1818
C21 C 0.2986(5) 1.0286(4) 0.0736(3)
H20 H 0.1919 1.1037 0.0645
H21 H 0.3493 0.9684 0.0136
H22 H 0.3704 1.0841 0.0724
N1 N 0.5077(2) 0.4571(2) 0.47305(15)
N2 N 0.7083(2) 0.5588(2) 0.17581(15)
O1 O 0.5526(3) 0.5325(2) 0.51200(14)
O2 O 0.4045(2) 0.3941(2) 0.52373(14)
O3 O 0.3113(2) 0.6968(2) 0.34944(16)
O4 O 0.4344(2) 0.8127(2) 0.19022(15)
C22 C 0.7250(3) 0.6516(3) 0.72883(18)
H23 H 0.6818 0.7256 0.6663
C23 C 0.8380(3) 0.7157(3) 0.75281(18)
H24 H 0.8694 0.6518 0.8218
C24 C 0.7564(3) 0.8839(3) 0.76925(19)
C25 C 0.6845(4) 1.0008(3) 0.6933(2)
H25 H 0.6854 0.9775 0.6270
C26 C 0.6107(4) 1.1527(3) 0.7138(3)
H26 H 0.5590 1.2320 0.6621
C27 C 0.6119(4) 1.1890(4) 0.8079(3)
H27 H 0.5590 1.2924 0.8223
C28 C 0.6898(5) 1.0754(4) 0.8806(3)
H28 H 0.6961 1.1009 0.9439
C29 C 0.7590(4) 0.9245(3) 0.8630(2)
H29 H 0.8096 0.8462 0.9157
C30 C 0.9925(3) 0.6944(3) 0.6595(2)
C31 C 1.1113(4) 0.7707(4) 0.6565(3)
H30 H 1.0659 0.8306 0.7166
H31 H 1.1294 0.8404 0.5861
H32 H 1.2160 0.6908 0.6648
C32 C 1.0276(3) 0.6070(3) 0.58475(19)
H33 H 1.1223 0.6052 0.5254
C33 C 0.9714(3) 0.4364(3) 0.50313(18)
C34 C 1.0364(3) 0.4993(3) 0.39526(19)
H34 H 1.0558 0.5954 0.3805
C35 C 1.0725(3) 0.4218(3) 0.3098(2)
H35 H 1.1164 0.4657 0.2368
C36 C 1.0459(3) 0.2824(4) 0.3291(2)
H36 H 1.0709 0.2303 0.2700
C37 C 0.9821(3) 0.2186(3) 0.4359(2)
H37 H 0.9639 0.1220 0.4496
C38 C 0.9447(3) 0.2937(3) 0.5227(2)
H38 H 0.9011 0.2487 0.5954
C39 C 0.8175(3) 0.4925(3) 0.69180(18)
H39 H 0.7371 0.4545 0.6800
C40 C 0.8992(3) 0.3740(3) 0.78065(19)
C41 C 1.1247(5) 0.1535(5) 0.8162(3)
H40 H 1.1746 0.2014 0.8482
H41 H 1.0481 0.1076 0.8765
C42 C 1.2514(5) 0.0346(4) 0.7562(4)
H42 H 1.3124 -0.0462 0.8062
H43 H 1.3269 0.0812 0.6972
H44 H 1.2006 -0.0115 0.7245
N3 N 0.5771(2) 0.6417(2) 0.82453(17)
N4 N 0.9334(2) 0.5175(2) 0.58816(15)
O5 O 0.4829(2) 0.5896(3) 0.80968(19)
O6 O 0.5559(2) 0.6897(2) 0.90689(14)
O7 O 0.8373(3) 0.3748(2) 0.87714(14)
O8 O 1.0363(2) 0.2708(2) 0.73847(15)
loop_
_geom_bond_atom_site_label_1
_geom_bond_atom_site_label_2
_geom_bond_site_symmetry_1
_geom_bond_site_symmetry_2
C1 H1 1_555 1_555
C2 C1 1_555 1_555
H2 C2 1_555 1_555
C3 C2 1_555 1_555
C4 C3 1_555 1_555
H3 C4 1_555 1_555
C5 C4 1_555 1_555
H4 C5 1_555 1_555
C6 C5 1_555 1_555
H5 C6 1_555 1_555
C7 C6 1_555 1_555
H6 C7 1_555 1_555
C8 C3 1_555 1_555
H7 C8 1_555 1_555
C9 C2 1_555 1_555
C10 C9 1_555 1_555
H8 C10 1_555 1_555
H9 C10 1_555 1_555
H10 C10 1_555 1_555
C11 C9 1_555 1_555
H11 C11 1_555 1_555
C12 C13 1_555 1_555
C13 H12 1_555 1_555
C14 C13 1_555 1_555
H13 C14 1_555 1_555
C15 C14 1_555 1_555
H14 C15 1_555 1_555
C16 C15 1_555 1_555
H15 C16 1_555 1_555
C17 C12 1_555 1_555
H16 C17 1_555 1_555
C18 C1 1_555 1_555
H17 C18 1_555 1_555
C19 C18 1_555 1_555
C20 H18 1_555 1_555
H19 C20 1_555 1_555
C21 C20 1_555 1_555
H20 C21 1_555 1_555
H21 C21 1_555 1_555
H22 C21 1_555 1_555
N1 C1 1_555 1_555
N2 C11 1_555 1_555
O1 N1 1_555 1_555
O2 N1 1_555 1_555
O3 C19 1_555 1_555
O4 C19 1_555 1_555
C22 H23 1_555 1_555
C23 C22 1_555 1_555
H24 C23 1_555 1_555
C24 C23 1_555 1_555
C25 C24 1_555 1_555
H25 C25 1_555 1_555
C26 C25 1_555 1_555
H26 C26 1_555 1_555
C27 C26 1_555 1_555
H27 C27 1_555 1_555
C28 C27 1_555 1_555
H28 C28 1_555 1_555
C29 C24 1_555 1_555
H29 C29 1_555 1_555
C30 C23 1_555 1_555
C31 C30 1_555 1_555
H30 C31 1_555 1_555
H31 C31 1_555 1_555
H32 C31 1_555 1_555
C32 C30 1_555 1_555
H33 C32 1_555 1_555
C33 C34 1_555 1_555
C34 H34 1_555 1_555
C35 C34 1_555 1_555
H35 C35 1_555 1_555
C36 C35 1_555 1_555
H36 C36 1_555 1_555
C37 C36 1_555 1_555
H37 C37 1_555 1_555
C38 C33 1_555 1_555
H38 C38 1_555 1_555
C39 C22 1_555 1_555
H39 C39 1_555 1_555
C40 C39 1_555 1_555
C41 H40 1_555 1_555
H41 C41 1_555 1_555
C42 C41 1_555 1_555
H42 C42 1_555 1_555
H43 C42 1_555 1_555
H44 C42 1_555 1_555
N3 C22 1_555 1_555
N4 C32 1_555 1_555
O5 N3 1_555 1_555
O6 N3 1_555 1_555
O7 C40 1_555 1_555
O8 C40 1_555 1_555
C7 C8 1_555 1_555
C12 N2 1_555 1_555
C16 C17 1_555 1_555
C18 N2 1_555 1_555
C20 O4 1_555 1_555
C28 C29 1_555 1_555
C33 N4 1_555 1_555
C37 C38 1_555 1_555
C39 N4 1_555 1_555
C41 O8 1_555 1_555

#END
