
#######################################################################
#
#                 Cambridge Crystallographic Data Centre
#                                CCDC 
#
#######################################################################
#
# If this CIF has been generated from an entry in the Cambridge 
# Structural Database, then it will include bibliographic, chemical, 
# crystal, experimental, refinement or atomic coordinate data resulting 
# from the CCDC's data processing and validation procedures.
#
#######################################################################

data_UTOHER
_chemical_formula_moiety         'C23 H22 O8'
_chemical_name_systematic        
3,5-Di-O-benzoyl-1,2-O-isopropylidene-\a-D-ribo-hexos-3-ulo-1,4:3,6-difuranose
_symmetry_cell_setting           orthorhombic
_symmetry_space_group_name_H-M   'P 21 21 21'
_symmetry_Int_Tables_number      19
_space_group_name_Hall           'P 2ac 2ab'
loop_
_symmetry_equiv_pos_site_id
_symmetry_equiv_pos_as_xyz
1 x,y,z
2 1/2-x,-y,1/2+z
3 1/2+x,1/2-y,-z
4 -x,1/2+y,1/2-z
_cell_length_a                   6.05837(10)
_cell_length_b                   8.33827(14)
_cell_length_c                   40.9992(7)
_cell_angle_alpha                90
_cell_angle_beta                 90
_cell_angle_gamma                90
_cell_volume                     2071.13
_exptl_crystal_colour            colorless
_exptl_crystal_description       prism
_cell_formula_units_Z            4
loop_
_atom_site_label
_atom_site_type_symbol
_atom_site_fract_x
_atom_site_fract_y
_atom_site_fract_z
O1 O 0.7379(3) 1.23548(17) 0.88731(3)
O2 O 0.8454(3) 1.07286(15) 0.84526(3)
O3 O 0.7285(2) 0.70109(16) 0.88507(3)
O4 O 0.4603(2) 1.04625(17) 0.88971(3)
O5 O 0.4346(2) 0.82295(17) 0.93608(3)
O6 O 0.1023(3) 0.9393(3) 0.94092(4)
O7 O 0.6458(2) 0.78758(16) 0.83253(3)
O8 O 1.0139(2) 0.75343(19) 0.82694(3)
C1 C 0.6881(4) 1.0796(2) 0.89615(4)
H1 H 0.7261 1.0586 0.9190
C2 C 0.8210(3) 0.9737(2) 0.87294(4)
H2 H 0.9629 0.9401 0.8822
C3 C 0.6676(3) 0.8329(2) 0.86608(4)
C4 C 0.4365(3) 0.8886(2) 0.87778(4)
H3 H 0.3302 0.8855 0.8598
C5 C 0.3748(4) 0.7633(2) 0.90435(4)
H4 H 0.2192 0.7316 0.9032
C6 C 0.5277(4) 0.6267(2) 0.89661(5)
H5 H 0.5562 0.5628 0.9159
H6 H 0.4647 0.5581 0.8799
C7 C 0.8226(4) 1.2368(2) 0.85457(4)
C8 C 0.6599(5) 1.3136(4) 0.83165(6)
H7 H 0.6363 1.4231 0.8380
H8 H 0.5225 1.2564 0.8325
H9 H 0.7170 1.3102 0.8098
C9 C 1.0429(4) 1.3199(3) 0.85511(7)
H10 H 1.1420 1.2623 0.8691
H11 H 1.0248 1.4273 0.8631
H12 H 1.1025 1.3232 0.8334
C10 C 0.8314(3) 0.7426(2) 0.81616(4)
C11 C 0.7740(3) 0.6775(2) 0.78333(4)
C12 C 0.9415(4) 0.6641(3) 0.76038(4)
H13 H 1.0828 0.7009 0.7652
C13 C 0.8968(4) 0.5954(3) 0.73032(5)
H14 H 1.0080 0.5875 0.7148
C14 C 0.6894(5) 0.5390(3) 0.72342(5)
H15 H 0.6609 0.4922 0.7033
C15 C 0.5228(4) 0.5511(3) 0.74619(6)
H16 H 0.3831 0.5112 0.7415
C16 C 0.5637(3) 0.6229(3) 0.77623(5)
H17 H 0.4507 0.6341 0.7914
C17 C 0.2826(3) 0.9126(3) 0.95157(4)
C18 C 0.3653(4) 0.9719(2) 0.98356(4)
C19 C 0.5728(5) 0.9336(3) 0.99530(5)
H18 H 0.6685 0.8707 0.9830
C20 C 0.6362(6) 0.9909(4) 1.02587(6)
H19 H 0.7746 0.9653 1.0342
C21 C 0.4942(7) 1.0852(4) 1.04379(6)
H20 H 0.5379 1.1235 1.0641
C22 C 0.2893(6) 1.1233(4) 1.03201(6)
H21 H 0.1942 1.1865 1.0443
C23 C 0.2242(5) 1.0674(3) 1.00179(5)
H22 H 0.0856 1.0939 0.9936
loop_
_geom_bond_atom_site_label_1
_geom_bond_atom_site_label_2
_geom_bond_site_symmetry_1
_geom_bond_site_symmetry_2
O1 C1 1_555 1_555
O2 C2 1_555 1_555
O3 C3 1_555 1_555
O4 C1 1_555 1_555
O5 C5 1_555 1_555
O6 C17 1_555 1_555
O7 C3 1_555 1_555
O8 C10 1_555 1_555
C1 H1 1_555 1_555
C2 C1 1_555 1_555
H2 C2 1_555 1_555
C3 C2 1_555 1_555
C4 O4 1_555 1_555
H3 C4 1_555 1_555
C5 C4 1_555 1_555
H4 C5 1_555 1_555
C6 O3 1_555 1_555
H5 C6 1_555 1_555
H6 C6 1_555 1_555
C7 O1 1_555 1_555
C8 C7 1_555 1_555
H7 C8 1_555 1_555
H8 C8 1_555 1_555
H9 C8 1_555 1_555
C9 C7 1_555 1_555
H10 C9 1_555 1_555
H11 C9 1_555 1_555
H12 C9 1_555 1_555
C10 O7 1_555 1_555
C11 C10 1_555 1_555
C12 C11 1_555 1_555
H13 C12 1_555 1_555
C13 C12 1_555 1_555
H14 C13 1_555 1_555
C14 C13 1_555 1_555
H15 C14 1_555 1_555
C15 C14 1_555 1_555
H16 C15 1_555 1_555
C16 C11 1_555 1_555
H17 C16 1_555 1_555
C17 O5 1_555 1_555
C18 C17 1_555 1_555
C19 C18 1_555 1_555
H18 C19 1_555 1_555
C20 C19 1_555 1_555
H19 C20 1_555 1_555
C21 C20 1_555 1_555
H20 C21 1_555 1_555
C22 C21 1_555 1_555
H21 C22 1_555 1_555
C23 C18 1_555 1_555
H22 C23 1_555 1_555
O2 C7 1_555 1_555
C3 C4 1_555 1_555
C5 C6 1_555 1_555
C15 C16 1_555 1_555
C22 C23 1_555 1_555

#END
