
#######################################################################
#
#                 Cambridge Crystallographic Data Centre
#                                CCDC 
#
#######################################################################
#
# If this CIF has been generated from an entry in the Cambridge 
# Structural Database, then it will include bibliographic, chemical, 
# crystal, experimental, refinement or atomic coordinate data resulting 
# from the CCDC's data processing and validation procedures.
#
#######################################################################

data_UTOKOE
_chemical_formula_moiety         'C28 H22 N2 O3 S1'
_chemical_name_systematic        
1-(2a-(4-Methylphenyl)-1-oxo-4-phenyl-2,2a,3,4-tetrahydro-1H-azeto[2,1-d][1,5]benzothiazepin-2-yl)-1H-pyrrole-2,5-dione
_symmetry_cell_setting           monoclinic
_symmetry_space_group_name_H-M   'P 21/n'
_symmetry_Int_Tables_number      14
_space_group_name_Hall           '-P 2yn'
loop_
_symmetry_equiv_pos_site_id
_symmetry_equiv_pos_as_xyz
1 x,y,z
2 1/2-x,1/2+y,1/2-z
3 -x,-y,-z
4 1/2+x,1/2-y,1/2+z
_cell_length_a                   12.284(3)
_cell_length_b                   16.720(4)
_cell_length_c                   12.352(3)
_cell_angle_alpha                90
_cell_angle_beta                 110.286(4)
_cell_angle_gamma                90
_cell_volume                     2379.6
_chemical_melting_point          '261-263 deg.C'
_cell_formula_units_Z            4
loop_
_atom_site_label
_atom_site_type_symbol
_atom_site_fract_x
_atom_site_fract_y
_atom_site_fract_z
S1 S 0.5163(1) 0.1038(1) -0.1941(1)
O1 O 0.7552(2) 0.3256(1) 0.0456(2)
O2 O 0.8985(2) 0.2482(1) 0.2777(2)
O3 O 1.0970(2) 0.1529(1) 0.0563(2)
N1 N 0.6954(1) 0.1913(1) 0.0184(1)
N2 N 0.9715(1) 0.2021(1) 0.1403(1)
C1 C 0.5794(2) 0.1856(1) 0.0163(2)
C2 C 0.5496(2) 0.2245(1) 0.1015(2)
C3 C 0.4384(2) 0.2193(2) 0.1032(2)
C4 C 0.3570(2) 0.1736(2) 0.0216(2)
C5 C 0.3854(2) 0.1351(2) -0.0631(2)
C6 C 0.4967(2) 0.1417(1) -0.0693(2)
C7 C 0.6491(2) 0.0434(1) -0.1495(2)
C8 C 0.6379(2) -0.0030(1) -0.2586(2)
C9 C 0.5577(2) -0.0653(1) -0.2927(2)
C10 C 0.5413(3) -0.1054(2) -0.3949(3)
C11 C 0.6023(3) -0.0837(2) -0.4644(2)
C12 C 0.6808(3) -0.0226(2) -0.4318(2)
C13 C 0.6984(2) 0.0176(2) -0.3298(2)
C14 C 0.7584(2) 0.0936(1) -0.1039(1)
C15 C 0.7832(2) 0.1298(1) 0.0160(2)
C16 C 0.8135(2) 0.0696(1) 0.1139(2)
C17 C 0.7750(2) 0.0766(2) 0.2051(2)
C18 C 0.8104(3) 0.0242(2) 0.2974(2)
C19 C 0.8866(2) -0.0372(2) 0.3024(2)
C20 C 0.9255(2) -0.0442(2) 0.2112(2)
C21 C 0.8891(2) 0.0074(1) 0.1181(2)
C22 C 0.9246(3) -0.0948(2) 0.4032(2)
C23 C 0.8705(2) 0.2023(1) 0.0370(2)
C24 C 0.7689(2) 0.2552(1) 0.0379(2)
C25 C 0.9783(2) 0.2246(2) 0.2511(2)
C26 C 1.1010(3) 0.2130(2) 0.3238(2)
C27 C 1.1587(2) 0.1855(2) 0.2610(3)
C28 C 1.0787(2) 0.1769(1) 0.1404(2)
loop_
_geom_bond_atom_site_label_1
_geom_bond_atom_site_label_2
_geom_bond_site_symmetry_1
_geom_bond_site_symmetry_2
S1 C6 1_555 1_555
O1 C24 1_555 1_555
O2 C25 1_555 1_555
O3 C28 1_555 1_555
N1 C1 1_555 1_555
N2 C23 1_555 1_555
C1 C2 1_555 1_555
C2 C3 1_555 1_555
C3 C4 1_555 1_555
C4 C5 1_555 1_555
C5 C6 1_555 1_555
C6 C1 1_555 1_555
C7 S1 1_555 1_555
C8 C7 1_555 1_555
C9 C8 1_555 1_555
C10 C9 1_555 1_555
C11 C10 1_555 1_555
C12 C11 1_555 1_555
C13 C8 1_555 1_555
C14 C7 1_555 1_555
C15 N1 1_555 1_555
C16 C15 1_555 1_555
C17 C16 1_555 1_555
C18 C17 1_555 1_555
C19 C18 1_555 1_555
C20 C19 1_555 1_555
C21 C16 1_555 1_555
C22 C19 1_555 1_555
C23 C15 1_555 1_555
C24 N1 1_555 1_555
C25 N2 1_555 1_555
C26 C25 1_555 1_555
C27 C26 1_555 1_555
C28 N2 1_555 1_555
C12 C13 1_555 1_555
C14 C15 1_555 1_555
C20 C21 1_555 1_555
C23 C24 1_555 1_555
C27 C28 1_555 1_555

#END
