
#######################################################################
#
#                 Cambridge Crystallographic Data Centre
#                                CCDC 
#
#######################################################################
#
# If this CIF has been generated from an entry in the Cambridge 
# Structural Database, then it will include bibliographic, chemical, 
# crystal, experimental, refinement or atomic coordinate data resulting 
# from the CCDC's data processing and validation procedures.
#
#######################################################################

data_UTOPIE
_chemical_formula_moiety         'C28 H18 O2 Si1'
_chemical_name_systematic        
11,11-diphenyl-11H-[1]benzofuro[2',3':4,5]silolo[3,2-b][1]benzofuran
_symmetry_cell_setting           monoclinic
_symmetry_space_group_name_H-M   'C 2/c'
_symmetry_Int_Tables_number      15
_space_group_name_Hall           '-C 2yn'
loop_
_symmetry_equiv_pos_site_id
_symmetry_equiv_pos_as_xyz
1 x,y,z
2 -x,y,1/2-z
3 1/2+x,1/2+y,z
4 1/2-x,1/2+y,1/2-z
5 -x,-y,-z
6 x,-y,1/2+z
7 1/2-x,1/2-y,-z
8 1/2+x,1/2-y,1/2+z
_cell_length_a                   17.040(4)
_cell_length_b                   17.408(5)
_cell_length_c                   7.608(2)
_cell_angle_alpha                90
_cell_angle_beta                 111.410(7)
_cell_angle_gamma                90
_cell_volume                     2101.04
_exptl_crystal_colour            colorless
_exptl_crystal_description       block
_cell_formula_units_Z            4
loop_
_atom_site_label
_atom_site_type_symbol
_atom_site_fract_x
_atom_site_fract_y
_atom_site_fract_z
Si1 Si 1.0 0.20736(10) 0.250
O1 O 0.95619(18) 0.41309(18) 0.3950(4)
C1 C 0.9772(3) 0.3505(2) 0.3123(6)
C2 C 0.9553(2) 0.2822(2) 0.3629(6)
C3 C 0.9150(3) 0.3013(3) 0.4954(6)
C4 C 0.9179(3) 0.3806(3) 0.5104(6)
C5 C 0.9186(3) 0.1469(2) 0.0764(6)
C6 C 0.7745(4) 0.1076(3) -0.0893(8)
C7 C 0.8874(3) 0.4231(3) 0.6256(7)
C8 C 0.8336(3) 0.1514(3) 0.0493(7)
C9 C 0.8508(3) 0.3804(4) 0.7263(8)
C10 C 0.9416(3) 0.0967(3) -0.0365(7)
C11 C 0.7993(4) 0.0591(4) -0.1983(9)
C12 C 0.8827(3) 0.0531(3) -0.1751(8)
C13 C 0.8766(3) 0.2606(3) 0.5992(7)
C14 C 0.8444(3) 0.3021(3) 0.7155(8)
H1 H 0.71644 0.11168 -0.1077
H2 H 0.8916 0.47747 0.63422
H3 H 0.81573 0.18478 0.12622
H4 H 0.8288 0.40657 0.80777
H5 H 0.99949 0.09177 -0.01872
H6 H 0.75853 0.02903 -0.29172
H7 H 0.89986 0.0195 -0.25278
H8 H 0.87223 0.20623 0.59151
H9 H 0.81775 0.27564 0.78772
O1A O 1.04381(18) 0.41309(18) 0.1050(4)
C1A C 1.0228(3) 0.3505(2) 0.1877(6)
C2A C 1.0447(2) 0.2822(2) 0.1371(6)
C3A C 1.0850(3) 0.3013(3) 0.0046(6)
C4A C 1.0821(3) 0.3806(3) -0.0104(6)
C5A C 1.0814(3) 0.1469(2) 0.4236(6)
C6A C 1.2255(4) 0.1076(3) 0.5893(8)
C7A C 1.1126(3) 0.4231(3) -0.1256(7)
C8A C 1.1664(3) 0.1514(3) 0.4507(7)
C9A C 1.1492(3) 0.3804(4) -0.2263(8)
C10A C 1.0584(3) 0.0967(3) 0.5365(7)
C11A C 1.2007(4) 0.0591(4) 0.6983(9)
C12A C 1.1173(3) 0.0531(3) 0.6751(8)
C13A C 1.1234(3) 0.2606(3) -0.0992(7)
C14A C 1.1556(3) 0.3021(3) -0.2155(8)
H1A H 1.28356 0.11168 0.6077
H2A H 1.1084 0.47747 -0.13422
H3A H 1.18427 0.18478 0.37378
H4A H 1.1712 0.40657 -0.30777
H5A H 1.00051 0.09177 0.51872
H6A H 1.24147 0.02903 0.79172
H7A H 1.10014 0.0195 0.75278
H8A H 1.12777 0.20623 -0.09151
H9A H 1.18225 0.27564 -0.28772
loop_
_geom_bond_atom_site_label_1
_geom_bond_atom_site_label_2
_geom_bond_site_symmetry_1
_geom_bond_site_symmetry_2
Si1 C2 1_555 1_555
O1 C1 1_555 1_555
C1 C2 1_555 1_555
C2 C3 1_555 1_555
C3 C4 1_555 1_555
C4 O1 1_555 1_555
C5 Si1 1_555 1_555
C6 C8 1_555 1_555
C7 C4 1_555 1_555
C8 C5 1_555 1_555
C9 C7 1_555 1_555
C10 C5 1_555 1_555
C11 C6 1_555 1_555
C12 C10 1_555 1_555
C13 C3 1_555 1_555
C14 C9 1_555 1_555
H1 C6 1_555 1_555
H2 C7 1_555 1_555
H3 C8 1_555 1_555
H4 C9 1_555 1_555
H5 C10 1_555 1_555
H6 C11 1_555 1_555
H7 C12 1_555 1_555
H8 C13 1_555 1_555
H9 C14 1_555 1_555
O1A C1A 1_555 1_555
C1A C1 1_555 1_555
C2A Si1 1_555 1_555
C3A C2A 1_555 1_555
C4A O1A 1_555 1_555
C5A Si1 1_555 1_555
C6A C8A 1_555 1_555
C7A C4A 1_555 1_555
C8A C5A 1_555 1_555
C9A C7A 1_555 1_555
C10A C5A 1_555 1_555
C11A C6A 1_555 1_555
C12A C10A 1_555 1_555
C13A C3A 1_555 1_555
C14A C9A 1_555 1_555
H1A C6A 1_555 1_555
H2A C7A 1_555 1_555
H3A C8A 1_555 1_555
H4A C9A 1_555 1_555
H5A C10A 1_555 1_555
H6A C11A 1_555 1_555
H7A C12A 1_555 1_555
H8A C13A 1_555 1_555
H9A C14A 1_555 1_555
C11 C12 1_555 1_555
C13 C14 1_555 1_555
C1A C2A 1_555 1_555
C3A C4A 1_555 1_555
C11A C12A 1_555 1_555
C13A C14A 1_555 1_555

#END
