
#######################################################################
#
#                 Cambridge Crystallographic Data Centre
#                                CCDC 
#
#######################################################################
#
# If this CIF has been generated from an entry in the Cambridge 
# Structural Database, then it will include bibliographic, chemical, 
# crystal, experimental, refinement or atomic coordinate data resulting 
# from the CCDC's data processing and validation procedures.
#
#######################################################################

data_UTORAX01
_chemical_formula_moiety         'C24 H24 N2 O4'
_chemical_name_systematic        
(E,E)-2,5-bis(2-(3,4-Dimethoxyphenyl)vinyl)pyrazine
_symmetry_cell_setting           monoclinic
_symmetry_space_group_name_H-M   'P 21/c'
_symmetry_Int_Tables_number      14
_space_group_name_Hall           '-P 2ybc'
loop_
_symmetry_equiv_pos_site_id
_symmetry_equiv_pos_as_xyz
1 x,y,z
2 -x,1/2+y,1/2-z
3 -x,-y,-z
4 x,1/2-y,1/2+z
_cell_length_a                   14.118(3)
_cell_length_b                   9.424(2)
_cell_length_c                   7.8733(18)
_cell_angle_alpha                90
_cell_angle_beta                 90.938(5)
_cell_angle_gamma                90
_cell_volume                     1047.39
_exptl_crystal_colour            orange
_exptl_crystal_description       prism
_chemical_melting_point          '487 K'
_cell_formula_units_Z            2
_exptl_crystal_recrystallization_method acetone
loop_
_atom_site_label
_atom_site_type_symbol
_atom_site_fract_x
_atom_site_fract_y
_atom_site_fract_z
C1 C 0.68513(15) 1.0330(2) 0.4425(3)
C2 C 0.76826(17) 0.9507(2) 0.4461(3)
H1 H 0.7815 0.8934 0.5397
C3 C 0.82994(17) 0.9535(3) 0.3138(3)
C4 C 0.81011(16) 1.0379(2) 0.1703(3)
C5 C 0.72873(16) 1.1168(2) 0.1648(3)
H2 H 0.7145 1.1715 0.0695
C6 C 0.66751(16) 1.1157(2) 0.3002(3)
H3 H 0.6133 1.1718 0.2955
C7 C 0.62051(16) 1.0397(3) 0.5843(3)
H4 H 0.5732 1.1082 0.5762
C8 C 0.62032(16) 0.9605(2) 0.7240(3)
H5 H 0.6634 0.8860 0.7315
C9 C 0.55693(15) 0.9827(2) 0.8663(3)
C10 C 0.44999(16) 1.1167(3) 1.0048(3)
H6 H 0.4133 1.1983 1.0120
C11 C 0.9371(3) 0.7946(5) 0.4481(4)
H7 H 0.9442 0.8529 0.5475
H8 H 0.9955 0.7460 0.4273
H9 H 0.8877 0.7264 0.4655
C12 C 0.8590(2) 1.1119(3) -0.1040(3)
H10 H 0.8016 1.0777 -0.1567
H11 H 0.9107 1.0991 -0.1802
H12 H 0.8523 1.2109 -0.0780
N1 N 0.50565(13) 1.1027(2) 0.8718(2)
O1 O 0.91343(14) 0.8804(2) 0.3074(2)
O2 O 0.87733(12) 1.03482(19) 0.04845(19)
C1B C 0.31487(15) 0.9670(2) 1.5575(3)
C2B C 0.23174(17) 1.0493(2) 1.5539(3)
H1B H 0.2185 1.1066 1.4603
C3B C 0.17006(17) 1.0465(3) 1.6862(3)
C4B C 0.18989(16) 0.9621(2) 1.8297(3)
C5B C 0.27127(16) 0.8832(2) 1.8352(3)
H2B H 0.2855 0.8285 1.9305
C6B C 0.33249(16) 0.8843(2) 1.6998(3)
H3B H 0.3867 0.8282 1.7045
C7B C 0.37949(16) 0.9603(3) 1.4157(3)
H4B H 0.4268 0.8918 1.4238
C8B C 0.37968(16) 1.0395(2) 1.2760(3)
H5B H 0.3366 1.1140 1.2685
C9B C 0.44307(15) 1.0173(2) 1.1337(3)
C10B C 0.55001(16) 0.8833(3) 0.9952(3)
H6B H 0.5867 0.8017 0.9880
C11B C 0.0629(3) 1.2054(5) 1.5519(4)
H7B H 0.0558 1.1471 1.4525
H8B H 0.0045 1.2540 1.5727
H9B H 0.1123 1.2736 1.5345
C12B C 0.1410(2) 0.8881(3) 2.1040(3)
H10B H 0.1984 0.9223 2.1567
H11B H 0.0893 0.9009 2.1802
H12B H 0.1477 0.7891 2.0780
N1B N 0.49435(13) 0.8973(2) 1.1282(2)
O1B O 0.08657(14) 1.1196(2) 1.6926(2)
O2B O 0.12267(12) 0.96518(19) 1.95155(19)
loop_
_geom_bond_atom_site_label_1
_geom_bond_atom_site_label_2
_geom_bond_site_symmetry_1
_geom_bond_site_symmetry_2
C1 C2 1_555 1_555
C2 H1 1_555 1_555
C3 C2 1_555 1_555
C4 C3 1_555 1_555
C5 C4 1_555 1_555
H2 C5 1_555 1_555
C6 C1 1_555 1_555
H3 C6 1_555 1_555
C7 C1 1_555 1_555
H4 C7 1_555 1_555
C8 C7 1_555 1_555
H5 C8 1_555 1_555
C9 C8 1_555 1_555
C10 H6 1_555 1_555
C11 H7 1_555 1_555
H8 C11 1_555 1_555
H9 C11 1_555 1_555
C12 H10 1_555 1_555
H11 C12 1_555 1_555
H12 C12 1_555 1_555
N1 C9 1_555 1_555
O1 C3 1_555 1_555
O2 C4 1_555 1_555
C1B C2B 1_555 1_555
C2B H1B 1_555 1_555
C3B C2B 1_555 1_555
C4B C3B 1_555 1_555
C5B C4B 1_555 1_555
H2B C5B 1_555 1_555
C6B C1B 1_555 1_555
H3B C6B 1_555 1_555
C7B C1B 1_555 1_555
H4B C7B 1_555 1_555
C8B C7B 1_555 1_555
H5B C8B 1_555 1_555
C9B C10 1_555 1_555
C10B C9 1_555 1_555
H6B C10B 1_555 1_555
C11B H7B 1_555 1_555
H8B C11B 1_555 1_555
H9B C11B 1_555 1_555
C12B H10B 1_555 1_555
H11B C12B 1_555 1_555
H12B C12B 1_555 1_555
N1B C9B 1_555 1_555
O1B C3B 1_555 1_555
O2B C4B 1_555 1_555
C5 C6 1_555 1_555
C10 N1 1_555 1_555
C11 O1 1_555 1_555
C12 O2 1_555 1_555
C5B C6B 1_555 1_555
C8B C9B 1_555 1_555
C10B N1B 1_555 1_555
C11B O1B 1_555 1_555
C12B O2B 1_555 1_555

#END
