
#######################################################################
#
#                 Cambridge Crystallographic Data Centre
#                                CCDC 
#
#######################################################################
#
# If this CIF has been generated from an entry in the Cambridge 
# Structural Database, then it will include bibliographic, chemical, 
# crystal, experimental, refinement or atomic coordinate data resulting 
# from the CCDC's data processing and validation procedures.
#
#######################################################################

data_UTORAX
_chemical_formula_moiety         'C24 H24 N2 O4'
_chemical_name_systematic        
(E,E)-2,5-bis(2-(3,4-Dimethoxyphenyl)vinyl)pyrazine
_symmetry_cell_setting           monoclinic
_symmetry_space_group_name_H-M   'P 21/c'
_symmetry_Int_Tables_number      14
_space_group_name_Hall           '-P 2ybc'
loop_
_symmetry_equiv_pos_site_id
_symmetry_equiv_pos_as_xyz
1 x,y,z
2 -x,1/2+y,1/2-z
3 -x,-y,-z
4 x,1/2-y,1/2+z
_cell_length_a                   13.0095(10)
_cell_length_b                   7.0463(6)
_cell_length_c                   12.2219(9)
_cell_angle_alpha                90
_cell_angle_beta                 115.814(1)
_cell_angle_gamma                90
_cell_volume                     1008.57
_exptl_crystal_colour            green
_exptl_crystal_description       plate
_chemical_melting_point          '502 K'
_cell_formula_units_Z            2
_exptl_crystal_recrystallization_method acetone
loop_
_atom_site_label
_atom_site_type_symbol
_atom_site_fract_x
_atom_site_fract_y
_atom_site_fract_z
C1 C 0.18894(10) 0.47336(16) 0.70588(11)
C2 C 0.30321(10) 0.53586(17) 0.75959(11)
H1 H 0.3384 0.5639 0.8422
C3 C 0.36363(10) 0.55604(17) 0.69150(11)
C4 C 0.30986(10) 0.51893(17) 0.56529(11)
C5 C 0.19903(10) 0.45172(18) 0.51288(11)
H2 H 0.1636 0.4235 0.4303
C6 C 0.14062(10) 0.42633(17) 0.58357(11)
H3 H 0.0671 0.3765 0.5479
C7 C 0.11882(10) 0.46041(18) 0.77209(12)
H4 H 0.0497 0.3966 0.7331
C8 C 0.14287(11) 0.52970(18) 0.88201(11)
H5 H 0.2124 0.5914 0.9237
C9 C 0.06667(10) 0.51456(17) 0.94097(11)
C10 C 0.10279(10) 0.57200(18) 1.06145(11)
H6 H 0.1758 0.6227 1.1021
C11 C 0.54274(12) 0.5909(2) 0.86381(13)
H7 H 0.5178 0.6814 0.9059
H8 H 0.6215 0.6136 0.8829
H9 H 0.5344 0.4649 0.8887
C12 C 0.33089(13) 0.4834(2) 0.38239(12)
H10 H 0.3140 0.3504 0.3798
H11 H 0.3863 0.5036 0.3514
H12 H 0.2623 0.5519 0.3335
N1 N -0.03881(9) 0.44158(15) 0.87843(10)
O1 O 0.47555(7) 0.60994(15) 0.73661(8)
O2 O 0.37558(8) 0.54895(14) 0.50490(8)
C1B C -0.18894(10) 0.52664(16) 1.29412(11)
C2B C -0.30321(10) 0.46414(17) 1.24041(11)
H1B H -0.3384 0.4361 1.1578
C3B C -0.36363(10) 0.44396(17) 1.30850(11)
C4B C -0.30986(10) 0.48107(17) 1.43471(11)
C5B C -0.19903(10) 0.54828(18) 1.48712(11)
H2B H -0.1636 0.5765 1.5697
C6B C -0.14062(10) 0.57367(17) 1.41643(11)
H3B H -0.0671 0.6235 1.4521
C7B C -0.11882(10) 0.53959(18) 1.22791(12)
H4B H -0.0497 0.6034 1.2669
C8B C -0.14287(11) 0.47030(18) 1.11799(11)
H5B H -0.2124 0.4086 1.0763
C9B C -0.06667(10) 0.48544(17) 1.05903(11)
C10B C -0.10279(10) 0.42800(18) 0.93855(11)
H6B H -0.1758 0.3773 0.8979
C11B C -0.54274(12) 0.4091(2) 1.13619(13)
H7B H -0.5178 0.3186 1.0941
H8B H -0.6215 0.3864 1.1171
H9B H -0.5344 0.5351 1.1113
C12B C -0.33089(13) 0.5166(2) 1.61761(12)
H10B H -0.3140 0.6496 1.6202
H11B H -0.3863 0.4964 1.6486
H12B H -0.2623 0.4481 1.6665
N1B N 0.03881(9) 0.55842(15) 1.12157(10)
O1B O -0.47555(7) 0.39006(15) 1.26339(8)
O2B O -0.37558(8) 0.45105(14) 1.49510(8)
loop_
_geom_bond_atom_site_label_1
_geom_bond_atom_site_label_2
_geom_bond_site_symmetry_1
_geom_bond_site_symmetry_2
C1 C2 1_555 1_555
C2 H1 1_555 1_555
C3 C2 1_555 1_555
C4 C3 1_555 1_555
C5 C4 1_555 1_555
H2 C5 1_555 1_555
C6 C1 1_555 1_555
H3 C6 1_555 1_555
C7 C1 1_555 1_555
H4 C7 1_555 1_555
C8 C7 1_555 1_555
H5 C8 1_555 1_555
C9 C8 1_555 1_555
C10 C9 1_555 1_555
H6 C10 1_555 1_555
C11 H7 1_555 1_555
H8 C11 1_555 1_555
H9 C11 1_555 1_555
C12 H10 1_555 1_555
H11 C12 1_555 1_555
H12 C12 1_555 1_555
N1 C9 1_555 1_555
O1 C3 1_555 1_555
O2 C4 1_555 1_555
C1B C2B 1_555 1_555
C2B H1B 1_555 1_555
C3B C2B 1_555 1_555
C4B C3B 1_555 1_555
C5B C4B 1_555 1_555
H2B C5B 1_555 1_555
C6B C1B 1_555 1_555
H3B C6B 1_555 1_555
C7B C1B 1_555 1_555
H4B C7B 1_555 1_555
C8B C7B 1_555 1_555
H5B C8B 1_555 1_555
C9B C8B 1_555 1_555
C10B N1 1_555 1_555
H6B C10B 1_555 1_555
C11B H7B 1_555 1_555
H8B C11B 1_555 1_555
H9B C11B 1_555 1_555
C12B H10B 1_555 1_555
H11B C12B 1_555 1_555
H12B C12B 1_555 1_555
N1B C10 1_555 1_555
O1B C3B 1_555 1_555
O2B C4B 1_555 1_555
C5 C6 1_555 1_555
C11 O1 1_555 1_555
C12 O2 1_555 1_555
C5B C6B 1_555 1_555
C9B C10B 1_555 1_555
C9B N1B 1_555 1_555
C11B O1B 1_555 1_555
C12B O2B 1_555 1_555

#END
