
#######################################################################
#
#                 Cambridge Crystallographic Data Centre
#                                CCDC 
#
#######################################################################
#
# If this CIF has been generated from an entry in the Cambridge 
# Structural Database, then it will include bibliographic, chemical, 
# crystal, experimental, refinement or atomic coordinate data resulting 
# from the CCDC's data processing and validation procedures.
#
#######################################################################

data_UTORIF
_chemical_formula_moiety         'C26 H28 N2 O6'
_chemical_name_systematic        
(E,E)-2,5-bis(2-(3,4,5-Trimethoxyphenyl)vinyl)pyrazine
_symmetry_cell_setting           monoclinic
_symmetry_space_group_name_H-M   'P 21/c'
_symmetry_Int_Tables_number      14
_space_group_name_Hall           '-P 2ybc'
loop_
_symmetry_equiv_pos_site_id
_symmetry_equiv_pos_as_xyz
1 x,y,z
2 -x,1/2+y,1/2-z
3 -x,-y,-z
4 x,1/2-y,1/2+z
_cell_length_a                   4.371(2)
_cell_length_b                   13.193(4)
_cell_length_c                   20.695(5)
_cell_angle_alpha                90
_cell_angle_beta                 98.52(3)
_cell_angle_gamma                90
_cell_volume                     1180.24
_exptl_crystal_colour            orange
_exptl_crystal_description       needle
_chemical_melting_point          '484 K'
_cell_formula_units_Z            2
_exptl_crystal_recrystallization_method chloroform
loop_
_atom_site_label
_atom_site_type_symbol
_atom_site_fract_x
_atom_site_fract_y
_atom_site_fract_z
C1 C -0.1190(8) 0.1561(2) 0.38011(15)
C2 C -0.0447(8) 0.1679(2) 0.31767(15)
H1 H 0.0281 0.2299 0.3050
C3 C -0.0786(8) 0.0876(2) 0.27425(14)
C4 C -0.1844(8) -0.0054(2) 0.29347(15)
C5 C -0.2570(8) -0.0175(2) 0.35490(16)
C6 C -0.2286(9) 0.0635(3) 0.39845(16)
H2 H -0.2833 0.0554 0.4399
C7 C -0.1038(9) 0.2405(3) 0.42614(15)
H3 H -0.1825 0.2291 0.4649
C8 C 0.0116(9) 0.3319(3) 0.41806(15)
H4 H 0.1037 0.3423 0.3809
C9 C 0.0062(9) 0.4170(2) 0.46236(15)
C10 C -0.1157(10) 0.4886(3) 0.55426(15)
H5 H -0.1958 0.4832 0.5933
C11 C 0.1005(11) 0.1844(3) 0.18979(17)
H6 H -0.0372 0.2394 0.1952
H7 H 0.1230 0.1783 0.1445
H8 H 0.2989 0.1973 0.2151
C12 C -0.5139(9) -0.0974(3) 0.2154(2)
H9 H -0.6555 -0.1084 0.2460
H10 H -0.5191 -0.1546 0.1866
H11 H -0.5726 -0.0374 0.1904
C13 C -0.4665(10) -0.1279(3) 0.42864(17)
H12 H -0.3032 -0.1143 0.4640
H13 H -0.5328 -0.1970 0.4311
H14 H -0.6375 -0.0834 0.4317
N1 N -0.1127(8) 0.4058(2) 0.51767(13)
O1 O -0.0228(6) 0.09283(16) 0.21128(10)
O2 O -0.2101(5) -0.08541(16) 0.24976(10)
O3 O -0.3590(7) -0.11198(18) 0.36919(12)
C1B C 0.1190(8) 0.8439(2) 0.61989(15)
C2B C 0.0447(8) 0.8321(2) 0.68233(15)
H1B H -0.0281 0.7701 0.6950
C3B C 0.0786(8) 0.9124(2) 0.72575(14)
C4B C 0.1844(8) 1.0054(2) 0.70653(15)
C5B C 0.2570(8) 1.0175(2) 0.64510(16)
C6B C 0.2286(9) 0.9365(3) 0.60155(16)
H2B H 0.2833 0.9446 0.5601
C7B C 0.1038(9) 0.7595(3) 0.57386(15)
H3B H 0.1825 0.7709 0.5351
C8B C -0.0116(9) 0.6681(3) 0.58194(15)
H4B H -0.1037 0.6577 0.6191
C9B C -0.0062(9) 0.5830(2) 0.53764(15)
C10B C 0.1157(10) 0.5114(3) 0.44574(15)
H5B H 0.1958 0.5168 0.4067
C11B C -0.1005(11) 0.8156(3) 0.81021(17)
H6B H 0.0372 0.7606 0.8048
H7B H -0.1230 0.8217 0.8555
H8B H -0.2989 0.8027 0.7849
C12B C 0.5139(9) 1.0974(3) 0.7846(2)
H9B H 0.6555 1.1084 0.7540
H10B H 0.5191 1.1546 0.8134
H11B H 0.5726 1.0374 0.8096
C13B C 0.4665(10) 1.1279(3) 0.57136(17)
H12B H 0.3032 1.1143 0.5360
H13B H 0.5328 1.1970 0.5689
H14B H 0.6375 1.0834 0.5683
N1B N 0.1127(8) 0.5942(2) 0.48233(13)
O1B O 0.0228(6) 0.90717(16) 0.78872(10)
O2B O 0.2101(5) 1.08541(16) 0.75024(10)
O3B O 0.3590(7) 1.11198(18) 0.63081(12)
loop_
_geom_bond_atom_site_label_1
_geom_bond_atom_site_label_2
_geom_bond_site_symmetry_1
_geom_bond_site_symmetry_2
C1 C2 1_555 1_555
C2 H1 1_555 1_555
C3 C2 1_555 1_555
C4 C3 1_555 1_555
C5 C4 1_555 1_555
C6 C1 1_555 1_555
H2 C6 1_555 1_555
C7 C1 1_555 1_555
H3 C7 1_555 1_555
C8 C7 1_555 1_555
H4 C8 1_555 1_555
C9 C8 1_555 1_555
C10 H5 1_555 1_555
C11 H6 1_555 1_555
H7 C11 1_555 1_555
H8 C11 1_555 1_555
C12 H9 1_555 1_555
H10 C12 1_555 1_555
H11 C12 1_555 1_555
C13 H12 1_555 1_555
H13 C13 1_555 1_555
H14 C13 1_555 1_555
N1 C9 1_555 1_555
O1 C3 1_555 1_555
O2 C4 1_555 1_555
O3 C5 1_555 1_555
C1B C2B 1_555 1_555
C2B H1B 1_555 1_555
C3B C2B 1_555 1_555
C4B C3B 1_555 1_555
C5B C4B 1_555 1_555
C6B C1B 1_555 1_555
H2B C6B 1_555 1_555
C7B C1B 1_555 1_555
H3B C7B 1_555 1_555
C8B C7B 1_555 1_555
H4B C8B 1_555 1_555
C9B C10 1_555 1_555
C10B C9 1_555 1_555
H5B C10B 1_555 1_555
C11B H6B 1_555 1_555
H7B C11B 1_555 1_555
H8B C11B 1_555 1_555
C12B H9B 1_555 1_555
H10B C12B 1_555 1_555
H11B C12B 1_555 1_555
C13B H12B 1_555 1_555
H13B C13B 1_555 1_555
H14B C13B 1_555 1_555
N1B C9B 1_555 1_555
O1B C3B 1_555 1_555
O2B C4B 1_555 1_555
O3B C5B 1_555 1_555
C5 C6 1_555 1_555
C10 N1 1_555 1_555
C11 O1 1_555 1_555
C12 O2 1_555 1_555
C13 O3 1_555 1_555
C5B C6B 1_555 1_555
C8B C9B 1_555 1_555
C10B N1B 1_555 1_555
C11B O1B 1_555 1_555
C12B O2B 1_555 1_555
C13B O3B 1_555 1_555

#END
