
#######################################################################
#
#                 Cambridge Crystallographic Data Centre
#                                CCDC 
#
#######################################################################
#
# If this CIF has been generated from an entry in the Cambridge 
# Structural Database, then it will include bibliographic, chemical, 
# crystal, experimental, refinement or atomic coordinate data resulting 
# from the CCDC's data processing and validation procedures.
#
#######################################################################

data_UTOWOQ
_chemical_name_common            
"Ethoxo-(meso-triphenylsubbacteriochlorinato-N,N',N'')-boron(iii) acetonitrile solvate"
_chemical_formula_moiety         'C35 H30 B1 N3 O1,0.5(C2 H3 N1)'
_chemical_name_systematic        
"Ethoxo-(5,10,15-triphenylsubbacteriochlorinato-N,N',N'')-boron(iii) acetonitrile solvate"
_symmetry_cell_setting           monoclinic
_symmetry_space_group_name_H-M   'P 21'
_symmetry_Int_Tables_number      4
_space_group_name_Hall           'P 2yb'
loop_
_symmetry_equiv_pos_site_id
_symmetry_equiv_pos_as_xyz
1 x,y,z
2 -x,1/2+y,-z
_cell_length_a                   12.251(4)
_cell_length_b                   18.924(6)
_cell_length_c                   13.226(5)
_cell_angle_alpha                90
_cell_angle_beta                 115.098(12)
_cell_angle_gamma                90
_cell_volume                     2776.78
_exptl_crystal_colour            orange
_exptl_crystal_description       prism
_cell_formula_units_Z            4
_chemical_properties_physical    'air-, oxygen- and photo-sensitive'
_exptl_crystal_recrystallization_method acetonitrile/heptane
loop_
_atom_site_label
_atom_site_type_symbol
_atom_site_fract_x
_atom_site_fract_y
_atom_site_fract_z
N1 N 0.6658(2) 0.15276(16) 0.4104(2)
N2 N 0.7863(2) 0.15913(17) 0.6074(2)
N3 N 0.5830(2) 0.19771(16) 0.5326(2)
C1 C 0.6031(3) 0.2274(2) 0.6351(3)
O1 O 0.6251(2) 0.06976(14) 0.5244(2)
C2 C 0.4743(3) 0.2096(2) 0.3352(3)
C3 C 0.4877(3) 0.2241(2) 0.4456(3)
C4 C 0.8100(3) 0.1879(2) 0.7093(3)
C5 C 0.7129(3) 0.2197(2) 0.7257(3)
C6 C 0.3698(3) 0.2342(2) 0.2354(3)
C7 C 0.7680(3) 0.1410(2) 0.3932(3)
C8 C 0.8879(3) 0.1467(2) 0.5926(3)
C9 C 0.7307(3) 0.2511(2) 0.8334(3)
C10 C 0.5703(3) 0.1771(2) 0.3214(3)
C11 C 0.3189(3) 0.1922(3) 0.1407(3)
H1 H 0.3498 0.1460 0.1426
C12 C 0.6660(4) 0.2660(3) 0.9812(3)
H2 H 0.6113 0.2547 1.0125
C13 C 0.5987(3) 0.1740(2) 0.2209(3)
H3 H 0.5910 0.2212 0.1862
H4 H 0.5448 0.1404 0.1643
C14 C 0.7629(4) 0.3105(2) 1.0377(3)
H5 H 0.7730 0.3311 1.1066
C15 C 0.4930(3) 0.2695(2) 0.6126(3)
H6 H 0.4428 0.2461 0.6450
H7 H 0.5146 0.3174 0.6452
C16 C 0.8271(3) 0.2967(2) 0.8912(3)
H8 H 0.8814 0.3085 0.8597
C17 C 0.4275(3) 0.2736(2) 0.4901(3)
H9 H 0.3420 0.2603 0.4658
H10 H 0.4310 0.3222 0.4638
C18 C 0.8782(3) 0.1344(3) 0.4837(3)
C19 C 0.2254(3) 0.2152(3) 0.0446(4)
H11 H 0.1922 0.1846 -0.0181
B1 B 0.6626(4) 0.1401(2) 0.5212(4)
C20 C 0.6497(4) 0.2383(2) 0.8799(4)
H12 H 0.5812 0.2095 0.8404
C21 C 0.3211(3) 0.3020(2) 0.2287(4)
H13 H 0.3528 0.3323 0.2919
C22 C 0.2273(3) 0.3255(3) 0.1313(4)
H14 H 0.1953 0.3716 0.1280
C23 C 0.9883(4) 0.1633(3) 0.6980(3)
H15 H 1.0714 0.1591 0.7145
C24 C 0.8443(4) 0.3249(3) 0.9938(3)
H16 H 0.9122 0.3540 1.0337
C25 C 0.9399(4) 0.1870(2) 0.7718(3)
H17 H 0.9840 0.1998 0.8479
C26 C 0.7309(3) 0.1480(3) 0.2708(3)
H18 H 0.7369 0.1019 0.2381
H19 H 0.7829 0.1826 0.2557
C27 C 0.1801(3) 0.2814(3) 0.0383(4)
H20 H 0.1166 0.2976 -0.0290
C61 C 0.6319(6) -0.0276(5) 0.6422(7)
H46 H 0.6125 -0.0413 0.7041
H47 H 0.7147 -0.0418 0.6589
H48 H 0.5761 -0.0509 0.5735
C65 C 0.6208(11) 0.0484(4) 0.6275(8)
H58 H 0.5435 0.0640 0.6272
H59 H 0.6870 0.0717 0.6910
C69 C 0.9956(3) 0.04771(19) 0.4190(4)
H66 H 0.9298 0.0156 0.3936
C70 C 0.9862(3) 0.1120(2) 0.4656(4)
C71 C 1.0825(4) 0.15900(19) 0.5028(3)
H67 H 1.0761 0.2029 0.5347
C72 C 1.1881(3) 0.1418(2) 0.4934(4)
H68 H 1.2539 0.1739 0.5189
C73 C 1.1974(3) 0.0775(2) 0.4468(4)
H69 H 1.2696 0.0657 0.4404
C74 C 1.1012(3) 0.03047(19) 0.4096(4)
H70 H 1.1076 -0.0134 0.3778
N4 N 0.8047(2) 0.49120(17) 0.1193(2)
N5 N 0.5986(2) 0.45505(16) 0.0461(2)
N6 N 0.6817(2) 0.49573(17) -0.0773(2)
O2 O 0.6436(2) 0.58158(15) 0.0363(2)
C28 C 0.7316(3) 0.4326(2) 0.2387(3)
C29 C 0.4859(3) 0.44185(19) -0.1513(3)
C30 C 0.6151(3) 0.4267(2) 0.1463(3)
C31 C 0.8259(3) 0.4614(2) 0.2210(3)
C32 C 0.4999(3) 0.4291(2) -0.0398(3)
C33 C 0.7801(3) 0.5022(2) -0.0973(3)
C34 C 0.5810(3) 0.47220(19) -0.1672(3)
C35 C 0.3295(3) 0.4576(2) -0.3453(3)
H21 H 0.3601 0.5038 -0.3453
C36 C 0.9044(3) 0.4996(2) 0.1021(3)
C37 C 0.6097(3) 0.4776(3) -0.2661(3)
H22 H 0.5879 0.4334 -0.3101
H23 H 0.5651 0.5173 -0.3148
C38 C 0.7484(3) 0.4014(2) 0.3475(3)
C39 C 0.3793(3) 0.4161(2) -0.2494(3)
C40 C 0.7418(3) 0.4901(3) -0.2196(3)
H24 H 0.7599 0.5320 -0.2547
H25 H 0.7836 0.4485 -0.2321
C41 C 0.7713(4) 0.3440(3) 0.5494(3)
H26 H 0.7798 0.3243 0.6183
C42 C 0.8958(3) 0.5107(3) -0.0074(3)
C43 C 0.8352(4) 0.3518(2) 0.4018(4)
H27 H 0.8863 0.3356 0.3690
C44 C 0.1861(4) 0.3666(3) -0.4401(4)
H28 H 0.1207 0.3491 -0.5049
C45 C 0.6678(4) 0.4200(3) 0.3928(3)
H29 H 0.6037 0.4520 0.3547
C46 C 1.0075(3) 0.4848(3) 0.2061(3)
H30 H 1.0594 0.5271 0.2328
H31 H 1.0559 0.4457 0.1964
C47 C 0.3295(3) 0.3502(2) -0.2508(4)
H32 H 0.3627 0.3209 -0.1865
C48 C 0.4415(3) 0.3835(2) 0.0107(3)
H33 H 0.3695 0.3572 -0.0275
C49 C 0.5126(3) 0.3857(2) 0.1283(3)
H34 H 0.4944 0.3638 0.1839
C50 C 0.2352(3) 0.4319(3) -0.4409(4)
H35 H 0.2045 0.4595 -0.5072
B2 B 0.6796(3) 0.5096(2) 0.0330(3)
C51 C 0.9562(3) 0.4642(3) 0.2875(3)
H36 H 0.9874 0.4176 0.3213
H37 H 0.9772 0.4997 0.3478
C52 C 0.2333(3) 0.3269(3) -0.3435(4)
H38 H 0.1981 0.2825 -0.3415
C53 C 0.8491(4) 0.3251(3) 0.5039(4)
H39 H 0.9132 0.2933 0.5431
C54 C 0.6837(4) 0.3904(3) 0.4958(3)
H40 H 0.6306 0.4038 0.5280
C55 C 1.0989(3) 0.5576(2) 0.0357(3)
H41 H 1.0866 0.5879 0.0872
C56 C 1.0107(3) 0.5089(2) -0.0259(3)
C57 C 1.0287(3) 0.46454(18) -0.1012(3)
H42 H 0.9684 0.4313 -0.1433
C58 C 1.1348(3) 0.4689(2) -0.1151(3)
H43 H 1.1471 0.4386 -0.1666
C59 C 1.2229(3) 0.5176(2) -0.0535(4)
H44 H 1.2955 0.5205 -0.0630
C60 C 1.2050(3) 0.5619(2) 0.0218(4)
H45 H 1.2652 0.5952 0.0639
C62 C 0.6409(9) 0.6816(6) 0.1452(11)
H49 H 0.6387 0.6952 0.2158
H50 H 0.5720 0.7026 0.0828
H51 H 0.7160 0.6984 0.1440
C67 C 0.6347(13) 0.6035(6) 0.1345(11)
H62 H 0.7011 0.5822 0.2002
H63 H 0.5575 0.5867 0.1329
C87 C 1.0405(6) 0.2437(4) 0.2472(6)
N7 N 1.0527(6) 0.2944(4) 0.2979(5)
C89 C 1.0282(7) 0.1788(4) 0.1876(6)
H81 H 1.1071 0.1644 0.1922
H82 H 0.9720 0.1856 0.1092
H83 H 0.9972 0.1421 0.2207
N8 N 0.9484(16) -0.1393(10) 0.1979(13)
C88 C 0.9551(11) -0.0885(9) 0.2416(11)
C90 C 0.9640(12) -0.0230(11) 0.3022(13)
H84 H 0.8855 0.0007 0.2719
H85 H 1.0240 0.0079 0.2940
H86 H 0.9887 -0.0335 0.3814
C63? C 0.6617(9) 0.6280(8) 0.2073(11)
H52? H 0.6174 0.6443 0.2496
H53? H 0.7100 0.6670 0.1990
H54? H 0.7150 0.5889 0.2472
C64? C 0.6541(11) 0.0174(9) 0.6962(12)
H55? H 0.6140 0.0051 0.7440
H56? H 0.7147 0.0540 0.7326
H57? H 0.6935 -0.0247 0.6837
C66? C 0.5750(9) 0.6035(5) 0.0952(8)
H60? H 0.5266 0.5636 0.1023
H61? H 0.5196 0.6423 0.0545
C68? C 0.5621(9) 0.0446(8) 0.5857(10)
H64? H 0.5062 0.0062 0.5441
H65? H 0.5146 0.0833 0.5979
C75? C 1.1240(8) 0.1840(5) 0.3761(7)
H71? H 1.1349 0.2137 0.3233
C76? C 1.0193(6) 0.1889(4) 0.3922(7)
H72? H 0.9586 0.2221 0.3505
C77? C 1.0033(6) 0.1453(5) 0.4695(8)
C78? C 1.0920(8) 0.0968(5) 0.5306(8)
H73? H 1.0811 0.0671 0.5835
C79? C 1.1967(7) 0.0919(5) 0.5145(9)
H74? H 1.2573 0.0587 0.5562
C80? C 1.2127(7) 0.1354(6) 0.4372(9)
H75? H 1.2842 0.1321 0.4262
C81? C 0.9935(6) 0.5405(4) -0.0271(8)
C82? C 1.0010(6) 0.6050(4) -0.0740(7)
H76? H 0.9340 0.6362 -0.1003
C83? C 1.1065(7) 0.6238(4) -0.0824(7)
H77? H 1.1116 0.6679 -0.1144
C84? C 1.2046(6) 0.5780(6) -0.0439(8)
H78? H 1.2767 0.5909 -0.0496
C85? C 1.1971(6) 0.5135(5) 0.0030(8)
H79? H 1.2641 0.4823 0.0293
C86? C 1.0915(8) 0.4947(4) 0.0114(8)
H80? H 1.0864 0.4506 0.0434
loop_
_geom_bond_atom_site_label_1
_geom_bond_atom_site_label_2
_geom_bond_site_symmetry_1
_geom_bond_site_symmetry_2
N1 C7 1_555 1_555
N2 C4 1_555 1_555
N3 C1 1_555 1_555
C1 C5 1_555 1_555
O1 B1 1_555 1_555
C2 C3 1_555 1_555
C3 N3 1_555 1_555
C4 C5 1_555 1_555
C5 C9 1_555 1_555
C6 C2 1_555 1_555
C7 C18 1_555 1_555
C8 N2 1_555 1_555
C9 C16 1_555 1_555
C10 N1 1_555 1_555
C11 C6 1_555 1_555
H1 C11 1_555 1_555
C12 H2 1_555 1_555
C13 C10 1_555 1_555
H3 C13 1_555 1_555
H4 C13 1_555 1_555
C14 C12 1_555 1_555
H5 C14 1_555 1_555
C15 C1 1_555 1_555
H6 C15 1_555 1_555
H7 C15 1_555 1_555
C16 H8 1_555 1_555
C17 C3 1_555 1_555
H9 C17 1_555 1_555
H10 C17 1_555 1_555
C18 C8 1_555 1_555
C19 C11 1_555 1_555
H11 C19 1_555 1_555
B1 N1 1_555 1_555
C20 C9 1_555 1_555
H12 C20 1_555 1_555
C21 C6 1_555 1_555
H13 C21 1_555 1_555
C22 C21 1_555 1_555
H14 C22 1_555 1_555
C23 C8 1_555 1_555
H15 C23 1_555 1_555
C24 C14 1_555 1_555
H16 C24 1_555 1_555
C25 C4 1_555 1_555
H17 C25 1_555 1_555
C26 C7 1_555 1_555
H18 C26 1_555 1_555
H19 C26 1_555 1_555
C27 C19 1_555 1_555
H20 C27 1_555 1_555
N4 C31 1_555 1_555
N5 C30 1_555 1_555
N6 C33 1_555 1_555
O2 B2 1_555 1_555
C28 C30 1_555 1_555
C29 C32 1_555 1_555
C30 C49 1_555 1_555
C31 C28 1_555 1_555
C32 N5 1_555 1_555
C33 C40 1_555 1_555
C34 N6 1_555 1_555
C35 H21 1_555 1_555
C36 N4 1_555 1_555
C37 C34 1_555 1_555
H22 C37 1_555 1_555
H23 C37 1_555 1_555
C38 C28 1_555 1_555
C39 C29 1_555 1_555
C40 C37 1_555 1_555
H24 C40 1_555 1_555
H25 C40 1_555 1_555
C41 H26 1_555 1_555
C42 C33 1_555 1_555
C43 C38 1_555 1_555
H27 C43 1_555 1_555
C44 H28 1_555 1_555
C45 C38 1_555 1_555
H29 C45 1_555 1_555
C46 C36 1_555 1_555
H30 C46 1_555 1_555
H31 C46 1_555 1_555
C47 C39 1_555 1_555
H32 C47 1_555 1_555
C48 C32 1_555 1_555
H33 C48 1_555 1_555
C49 C48 1_555 1_555
H34 C49 1_555 1_555
C50 C35 1_555 1_555
H35 C50 1_555 1_555
B2 N4 1_555 1_555
C51 C31 1_555 1_555
H36 C51 1_555 1_555
H37 C51 1_555 1_555
C52 C44 1_555 1_555
H38 C52 1_555 1_555
C53 C41 1_555 1_555
H39 C53 1_555 1_555
C54 C41 1_555 1_555
H40 C54 1_555 1_555
C55 H41 1_555 1_555
C56 C42 1_555 1_555
C57 C56 1_555 1_555
H42 C57 1_555 1_555
C58 C57 1_555 1_555
H43 C58 1_555 1_555
C59 C58 1_555 1_555
H44 C59 1_555 1_555
C60 C55 1_555 1_555
H45 C60 1_555 1_555
C61 H46 1_555 1_555
H47 C61 1_555 1_555
H48 C61 1_555 1_555
C62 H49 1_555 1_555
H50 C62 1_555 1_555
H51 C62 1_555 1_555
C65 O1 1_555 1_555
H58 C65 1_555 1_555
H59 C65 1_555 1_555
C67 O2 1_555 1_555
H62 C67 1_555 1_555
H63 C67 1_555 1_555
C69 H66 1_555 1_555
C70 C18 1_555 1_555
C71 C70 1_555 1_555
H67 C71 1_555 1_555
C72 C71 1_555 1_555
H68 C72 1_555 1_555
C73 C72 1_555 1_555
H69 C73 1_555 1_555
C74 C69 1_555 1_555
H70 C74 1_555 1_555
C87 N7 1_555 1_555
N8 C88 1_555 1_555
C88 C90 1_555 1_555
C89 C87 1_555 1_555
H81 C89 1_555 1_555
H82 C89 1_555 1_555
H83 C89 1_555 1_555
C90 H84 1_555 1_555
H85 C90 1_555 1_555
H86 C90 1_555 1_555
N2 B1 1_555 1_555
N3 B1 1_555 1_555
C2 C10 1_555 1_555
C12 C20 1_555 1_555
C13 C26 1_555 1_555
C15 C17 1_555 1_555
C16 C24 1_555 1_555
C22 C27 1_555 1_555
C23 C25 1_555 1_555
N5 B2 1_555 1_555
N6 B2 1_555 1_555
C29 C34 1_555 1_555
C35 C39 1_555 1_555
C36 C42 1_555 1_555
C43 C53 1_555 1_555
C44 C50 1_555 1_555
C45 C54 1_555 1_555
C46 C51 1_555 1_555
C47 C52 1_555 1_555
C55 C56 1_555 1_555
C59 C60 1_555 1_555
C61 C65 1_555 1_555
C62 C67 1_555 1_555
C69 C70 1_555 1_555
C73 C74 1_555 1_555

#END
