
#######################################################################
#
#                 Cambridge Crystallographic Data Centre
#                                CCDC 
#
#######################################################################
#
# If this CIF has been generated from an entry in the Cambridge 
# Structural Database, then it will include bibliographic, chemical, 
# crystal, experimental, refinement or atomic coordinate data resulting 
# from the CCDC's data processing and validation procedures.
#
#######################################################################

data_UTOXIL
_chemical_name_common            
trans-3-(2,2-Diphenylvinyl)-1-methyl-4-phenylazetidin-2-one
_chemical_formula_moiety         'C24 H21 N1 O1'
_chemical_name_systematic        
trans-1-Methyl-4-phenyl-3-(2,2-diphenylvinyl)azetidin-2-one
_symmetry_cell_setting           triclinic
_symmetry_space_group_name_H-M   'P -1'
_symmetry_Int_Tables_number      2
_space_group_name_Hall           '-P 1'
loop_
_symmetry_equiv_pos_site_id
_symmetry_equiv_pos_as_xyz
1 x,y,z
2 -x,-y,-z
_cell_length_a                   6.0402(12)
_cell_length_b                   8.9020(18)
_cell_length_c                   18.078(4)
_cell_angle_alpha                90.70(3)
_cell_angle_beta                 92.98(3)
_cell_angle_gamma                99.81(3)
_cell_volume                     956.324
_exptl_crystal_colour            colorless
_exptl_crystal_description       block
_chemical_melting_point          '134-135 deg.C'
_cell_formula_units_Z            2
loop_
_atom_site_label
_atom_site_type_symbol
_atom_site_fract_x
_atom_site_fract_y
_atom_site_fract_z
C1 C 1.0754(5) 0.8435(3) 0.12789(15)
C2 C 0.9451(4) 0.8198(3) 0.19908(13)
H1 H 0.9953 0.7438 0.2318
C3 C 0.7392(4) 0.7520(3) 0.14447(14)
H2 H 0.6255 0.8186 0.1422
C4 C 0.8553(6) 0.7695(4) 0.00538(15)
H3 H 0.7671 0.8438 -0.0115
H4 H 0.7757 0.6690 -0.0074
H5 H 0.9966 0.7860 -0.0178
C5 C 0.6337(4) 0.5890(3) 0.15176(13)
C6 C 0.4296(5) 0.5506(3) 0.18365(15)
H6 H 0.3572 0.6272 0.2009
C7 C 0.3316(5) 0.4001(4) 0.19032(17)
H7 H 0.1941 0.3772 0.2122
C8 C 0.4317(6) 0.2838(4) 0.16557(18)
H8 H 0.3638 0.1826 0.1699
C9 C 0.6333(6) 0.3202(4) 0.13439(18)
H9 H 0.7039 0.2426 0.1172
C10 C 0.7362(5) 0.4713(3) 0.12773(15)
H10 H 0.8753 0.4933 0.1069
C11 C 0.9319(4) 0.9657(3) 0.23741(14)
H11 H 0.8468 1.0294 0.2128
C12 C 1.0283(4) 1.0167(3) 0.30355(14)
C13 C 1.1733(4) 0.9292(3) 0.34908(14)
C14 C 1.3575(4) 0.8797(3) 0.32010(15)
H12 H 1.3871 0.8964 0.2706
C15 C 1.4981(5) 0.8053(3) 0.36446(17)
H13 H 1.6202 0.7715 0.3445
C16 C 1.4569(5) 0.7820(3) 0.43687(18)
H14 H 1.5533 0.7347 0.4667
C17 C 1.2726(5) 0.8282(3) 0.46646(15)
H15 H 1.2430 0.8104 0.5159
C18 C 1.1328(5) 0.9009(3) 0.42229(15)
H16 H 1.0084 0.9314 0.4423
C19 C 1.0007(4) 1.1672(3) 0.33424(13)
C20 C 1.1759(4) 1.2562(3) 0.37742(14)
H17 H 1.3053 1.2165 0.3901
C21 C 1.1599(5) 1.4018(3) 0.40151(16)
H18 H 1.2781 1.4589 0.4300
C22 C 0.9714(6) 1.4621(3) 0.38366(16)
H19 H 0.9624 1.5606 0.3995
C23 C 0.7948(5) 1.3778(3) 0.34241(16)
H20 H 0.6660 1.4188 0.3307
C24 C 0.8087(4) 1.2322(3) 0.31837(14)
H21 H 0.6875 1.1759 0.2909
N1 N 0.8952(4) 0.7842(2) 0.08478(12)
O1 O 1.2674(3) 0.9000(2) 0.11433(11)
loop_
_geom_bond_atom_site_label_1
_geom_bond_atom_site_label_2
_geom_bond_site_symmetry_1
_geom_bond_site_symmetry_2
C1 C2 1_555 1_555
C2 H1 1_555 1_555
C3 C2 1_555 1_555
H2 C3 1_555 1_555
C4 H3 1_555 1_555
H4 C4 1_555 1_555
H5 C4 1_555 1_555
C5 C3 1_555 1_555
C6 C5 1_555 1_555
H6 C6 1_555 1_555
C7 C6 1_555 1_555
H7 C7 1_555 1_555
C8 C7 1_555 1_555
H8 C8 1_555 1_555
C9 C8 1_555 1_555
H9 C9 1_555 1_555
C10 C5 1_555 1_555
H10 C10 1_555 1_555
C11 C2 1_555 1_555
H11 C11 1_555 1_555
C12 C11 1_555 1_555
C13 C12 1_555 1_555
C14 C13 1_555 1_555
H12 C14 1_555 1_555
C15 C14 1_555 1_555
H13 C15 1_555 1_555
C16 C15 1_555 1_555
H14 C16 1_555 1_555
C17 C16 1_555 1_555
H15 C17 1_555 1_555
C18 C13 1_555 1_555
H16 C18 1_555 1_555
C19 C12 1_555 1_555
C20 C19 1_555 1_555
H17 C20 1_555 1_555
C21 C20 1_555 1_555
H18 C21 1_555 1_555
C22 C21 1_555 1_555
H19 C22 1_555 1_555
C23 C22 1_555 1_555
H20 C23 1_555 1_555
C24 C19 1_555 1_555
H21 C24 1_555 1_555
N1 C1 1_555 1_555
O1 C1 1_555 1_555
C3 N1 1_555 1_555
C4 N1 1_555 1_555
C9 C10 1_555 1_555
C17 C18 1_555 1_555
C23 C24 1_555 1_555

#END
