
#######################################################################
#
#                 Cambridge Crystallographic Data Centre
#                                CCDC 
#
#######################################################################
#
# If this CIF has been generated from an entry in the Cambridge 
# Structural Database, then it will include bibliographic, chemical, 
# crystal, experimental, refinement or atomic coordinate data resulting 
# from the CCDC's data processing and validation procedures.
#
#######################################################################

data_UTOZOT
_chemical_formula_moiety         'C60 H48 B6,0.5(C6 H14)'
_chemical_name_systematic        
"Hexa-\mH-(biphenyl-2,2'-diylbis(boranediylbiphenyl-2',2-diyl))bis((2'-boranylbiphenyl-2-yl)borane) n-hexane solvate"
_symmetry_cell_setting           monoclinic
_symmetry_space_group_name_H-M   'P 21/c'
_symmetry_Int_Tables_number      14
_space_group_name_Hall           '-P 2ybc'
loop_
_symmetry_equiv_pos_site_id
_symmetry_equiv_pos_as_xyz
1 x,y,z
2 -x,1/2+y,1/2-z
3 -x,-y,-z
4 x,1/2-y,1/2+z
_cell_length_a                   21.413(2)
_cell_length_b                   15.0677(17)
_cell_length_c                   15.0115(16)
_cell_angle_alpha                90
_cell_angle_beta                 104.776(3)
_cell_angle_gamma                90
_cell_volume                     4683.21
_exptl_crystal_colour            yellow
_exptl_crystal_description       plate
_cell_formula_units_Z            4
loop_
_atom_site_label
_atom_site_type_symbol
_atom_site_fract_x
_atom_site_fract_y
_atom_site_fract_z
B1 B 0.7824(3) 0.5204(5) 0.0191(4)
H1 H 0.8243(19) 0.550(3) 0.011(3)
H2 H 0.7752 0.5228 0.0986
B2 B 0.7647(3) 0.4393(4) 0.1017(4)
H3 H 0.777(2) 0.432(3) 0.016(3)
B3 B 0.7507(2) 0.5389(3) 0.2957(3)
H4 H 0.7594(19) 0.449(3) 0.299(3)
B4 B 0.7504(2) 0.4589(3) 0.3839(3)
H5 H 0.7535(19) 0.541(3) 0.380(3)
B5 B 0.7583(3) 0.5563(3) 0.5842(4)
H6 H 0.7682 0.4707 0.5885
B6 B 0.7745(4) 0.4714(5) 0.6762(5)
H7 H 0.774(3) 0.550(4) 0.677(4)
H8 H 0.816(3) 0.437(4) 0.710(4)
C1 C 0.7218(3) 0.5545(4) -0.0504(4)
C2 C 0.6590(2) 0.5299(3) -0.0522(4)
C3 C 0.6076(3) 0.5688(4) -0.1188(4)
H9 H 0.5644 0.5529 -0.1203
C4 C 0.6188(3) 0.6295(4) -0.1822(4)
H10 H 0.5835 0.6547 -0.2265
C5 C 0.6814(3) 0.6535(4) -0.1813(4)
H11 H 0.6902 0.6942 -0.2249
C6 C 0.7297(3) 0.6159(3) -0.1148(4)
H12 H 0.7726 0.6336 -0.1127
C7 C 0.6916(2) 0.4173(3) 0.0847(3)
C8 C 0.6434(2) 0.4599(3) 0.0151(3)
C9 C 0.5789(2) 0.4378(3) 0.0067(3)
H13 H 0.5464 0.4659 -0.0396
C10 C 0.5609(2) 0.3767(3) 0.0634(3)
H14 H 0.5165 0.3633 0.0561
C11 C 0.6074(3) 0.3348(3) 0.1310(3)
H15 H 0.5957 0.2924 0.1706
C12 C 0.6720(2) 0.3559(3) 0.1399(3)
H16 H 0.7040 0.3267 0.1862
C13 C 0.8202(2) 0.3939(3) 0.1778(3)
C14 C 0.86733(19) 0.4411(3) 0.2445(3)
C15 C 0.9198(2) 0.3955(3) 0.3007(3)
H17 H 0.9518 0.4272 0.3446
C16 C 0.9253(2) 0.3041(3) 0.2926(3)
H18 H 0.9615 0.2740 0.3303
C17 C 0.8789(2) 0.2567(3) 0.2305(3)
H19 H 0.8820 0.1940 0.2266
C18 C 0.8277(2) 0.3020(3) 0.1739(3)
H20 H 0.7962 0.2691 0.1304
C19 C 0.81390(19) 0.5833(3) 0.2811(3)
C20 C 0.86532(19) 0.5396(3) 0.2576(3)
C21 C 0.9196(2) 0.5887(3) 0.2500(3)
H21 H 0.9545 0.5592 0.2344
C22 C 0.9226(2) 0.6790(3) 0.2650(3)
H22 H 0.9592 0.7113 0.2580
C23 C 0.8733(2) 0.7230(3) 0.2899(3)
H23 H 0.8762 0.7849 0.3021
C24 C 0.8197(2) 0.6754(3) 0.2969(3)
H24 H 0.7854 0.7060 0.3130
C25 C 0.68122(18) 0.5705(3) 0.2427(3)
C26 C 0.62424(18) 0.5366(2) 0.2611(3)
C27 C 0.56513(19) 0.5780(3) 0.2170(3)
H25 H 0.5265 0.5579 0.2304
C28 C 0.5617(2) 0.6461(3) 0.1556(3)
H26 H 0.5212 0.6731 0.1285
C29 C 0.6166(2) 0.6759(3) 0.1329(3)
H27 H 0.6141 0.7211 0.0881
C30 C 0.6751(2) 0.6383(3) 0.1768(3)
H28 H 0.7130 0.6592 0.1617
C31 C 0.68079(18) 0.4268(2) 0.3845(3)
C32 C 0.62388(18) 0.4614(2) 0.3242(3)
C33 C 0.56495(19) 0.4201(3) 0.3245(3)
H29 H 0.5266 0.4402 0.2823
C34 C 0.5608(2) 0.3520(3) 0.3837(3)
H30 H 0.5202 0.3252 0.3808
C35 C 0.6153(2) 0.3223(3) 0.4471(3)
H31 H 0.6123 0.2775 0.4904
C36 C 0.67478(19) 0.3594(3) 0.4466(3)
H32 H 0.7125 0.3384 0.4895
C37 C 0.81329(19) 0.4140(3) 0.4462(3)
C38 C 0.86415(18) 0.4600(3) 0.5082(3)
C39 C 0.91804(19) 0.4117(3) 0.5564(3)
H33 H 0.9522 0.4420 0.5980
C40 C 0.9230(2) 0.3209(3) 0.5452(3)
H34 H 0.9599 0.2897 0.5795
C41 C 0.8741(2) 0.2758(3) 0.4838(3)
H35 H 0.8774 0.2138 0.4747
C42 C 0.8204(2) 0.3226(3) 0.4358(3)
H36 H 0.7870 0.2913 0.3939
C43 C 0.8155(2) 0.6023(3) 0.5525(3)
C44 C 0.86424(18) 0.5574(3) 0.5227(3)
C45 C 0.9166(2) 0.6051(3) 0.5074(3)
H37 H 0.9496 0.5747 0.4881
C46 C 0.9208(2) 0.6962(3) 0.5201(3)
H38 H 0.9570 0.7274 0.5102
C47 C 0.8733(2) 0.7417(3) 0.5470(3)
H39 H 0.8758 0.8043 0.5546
C48 C 0.8212(2) 0.6946(3) 0.5629(3)
H40 H 0.7883 0.7263 0.5815
C49 C 0.6860(2) 0.5808(3) 0.5486(3)
C50 C 0.6380(2) 0.5402(3) 0.5837(3)
C51 C 0.5736(2) 0.5652(3) 0.5470(3)
H41 H 0.5408 0.5390 0.5707
C52 C 0.5566(2) 0.6266(3) 0.4777(3)
H42 H 0.5125 0.6417 0.4536
C53 C 0.6039(3) 0.6672(3) 0.4419(3)
H43 H 0.5928 0.7100 0.3939
C54 C 0.6677(2) 0.6423(3) 0.4797(3)
H44 H 0.7003 0.6694 0.4564
C55 C 0.7139(3) 0.4392(3) 0.7023(4)
C56 C 0.6527(2) 0.4699(3) 0.6609(4)
C57 C 0.6012(3) 0.4337(4) 0.6933(4)
H45 H 0.5583 0.4531 0.6663
C58 C 0.6117(3) 0.3712(4) 0.7630(5)
H46 H 0.5762 0.3480 0.7829
C59 C 0.6740(3) 0.3423(4) 0.8042(5)
H47 H 0.6826 0.3001 0.8528
C60 C 0.7215(3) 0.3774(3) 0.7712(4)
H48 H 0.7642 0.3574 0.7983
C61 C 0.0600(4) 0.4525(6) 0.1904(7)
H49 H 0.0520 0.4251 0.2456
H50 H 0.0587 0.5172 0.1958
H51 H 0.1027 0.4344 0.1841
C62 C 0.0091(3) 0.4229(5) 0.1071(5)
H52 H -0.0326 0.4409 0.1186
H53 H 0.0099 0.3573 0.1089
C63 C 0.0044(6) 0.4478(7) 0.0071(8)
H54 H -0.0328 0.4168 -0.0338
H55 H 0.0441 0.4286 -0.0098
C61B C -0.0600(4) 0.5475(6) -0.1904(7)
H49B H -0.0520 0.5749 -0.2456
H50B H -0.0587 0.4828 -0.1958
H51B H -0.1027 0.5656 -0.1841
C62B C -0.0091(3) 0.5771(5) -0.1071(5)
H52B H 0.0326 0.5591 -0.1186
H53B H -0.0099 0.6427 -0.1089
C63B C -0.0044(6) 0.5522(7) -0.0071(8)
H54B H 0.0328 0.5832 0.0338
H55B H -0.0441 0.5714 0.0098
C64? C -0.0184(9) 0.4912(13) -0.0474(13)
H56? H -0.0653 0.4718 -0.0453
H57? H -0.0040 0.4279 -0.0659
loop_
_geom_bond_atom_site_label_1
_geom_bond_atom_site_label_2
_geom_bond_site_symmetry_1
_geom_bond_site_symmetry_2
B1 H1 1_555 1_555
H2 B1 1_555 1_555
B2 H2 1_555 1_555
H3 B1 1_555 1_555
B3 H4 1_555 1_555
H4 B4 1_555 1_555
B4 H5 1_555 1_555
H5 B3 1_555 1_555
B5 H6 1_555 1_555
H6 B6 1_555 1_555
B6 H7 1_555 1_555
H7 B5 1_555 1_555
H8 B6 1_555 1_555
C1 B1 1_555 1_555
C2 C1 1_555 1_555
C3 C2 1_555 1_555
H9 C3 1_555 1_555
C4 C3 1_555 1_555
H10 C4 1_555 1_555
C5 C4 1_555 1_555
H11 C5 1_555 1_555
C6 C1 1_555 1_555
H12 C6 1_555 1_555
C7 B2 1_555 1_555
C8 C2 1_555 1_555
C9 C8 1_555 1_555
H13 C9 1_555 1_555
C10 C9 1_555 1_555
H14 C10 1_555 1_555
C11 C10 1_555 1_555
H15 C11 1_555 1_555
C12 C7 1_555 1_555
H16 C12 1_555 1_555
C13 B2 1_555 1_555
C14 C13 1_555 1_555
C15 C14 1_555 1_555
H17 C15 1_555 1_555
C16 C15 1_555 1_555
H18 C16 1_555 1_555
C17 C16 1_555 1_555
H19 C17 1_555 1_555
C18 C13 1_555 1_555
H20 C18 1_555 1_555
C19 B3 1_555 1_555
C20 C14 1_555 1_555
C21 C20 1_555 1_555
H21 C21 1_555 1_555
C22 C21 1_555 1_555
H22 C22 1_555 1_555
C23 C22 1_555 1_555
H23 C23 1_555 1_555
C24 C19 1_555 1_555
H24 C24 1_555 1_555
C25 B3 1_555 1_555
C26 C25 1_555 1_555
C27 C26 1_555 1_555
H25 C27 1_555 1_555
C28 C27 1_555 1_555
H26 C28 1_555 1_555
C29 C28 1_555 1_555
H27 C29 1_555 1_555
C30 C25 1_555 1_555
H28 C30 1_555 1_555
C31 B4 1_555 1_555
C32 C26 1_555 1_555
C33 C32 1_555 1_555
H29 C33 1_555 1_555
C34 C33 1_555 1_555
H30 C34 1_555 1_555
C35 C34 1_555 1_555
H31 C35 1_555 1_555
C36 C31 1_555 1_555
H32 C36 1_555 1_555
C37 B4 1_555 1_555
C38 C37 1_555 1_555
C39 C38 1_555 1_555
H33 C39 1_555 1_555
C40 C39 1_555 1_555
H34 C40 1_555 1_555
C41 C40 1_555 1_555
H35 C41 1_555 1_555
C42 C37 1_555 1_555
H36 C42 1_555 1_555
C43 B5 1_555 1_555
C44 C38 1_555 1_555
C45 C44 1_555 1_555
H37 C45 1_555 1_555
C46 C45 1_555 1_555
H38 C46 1_555 1_555
C47 C46 1_555 1_555
H39 C47 1_555 1_555
C48 C43 1_555 1_555
H40 C48 1_555 1_555
C49 B5 1_555 1_555
C50 C49 1_555 1_555
C51 C50 1_555 1_555
H41 C51 1_555 1_555
C52 C51 1_555 1_555
H42 C52 1_555 1_555
C53 C52 1_555 1_555
H43 C53 1_555 1_555
C54 C49 1_555 1_555
H44 C54 1_555 1_555
C55 B6 1_555 1_555
C56 C50 1_555 1_555
C57 C56 1_555 1_555
H45 C57 1_555 1_555
C58 C57 1_555 1_555
H46 C58 1_555 1_555
C59 C58 1_555 1_555
H47 C59 1_555 1_555
C60 C55 1_555 1_555
H48 C60 1_555 1_555
C61 H49 1_555 1_555
H50 C61 1_555 1_555
H51 C61 1_555 1_555
C62 C61 1_555 1_555
H52 C62 1_555 1_555
H53 C62 1_555 1_555
C63 C62 1_555 1_555
H54 C63 1_555 1_555
H55 C63 1_555 1_555
C61B H49B 1_555 1_555
H50B C61B 1_555 1_555
H51B C61B 1_555 1_555
C62B C61B 1_555 1_555
H52B C62B 1_555 1_555
H53B C62B 1_555 1_555
C63B C63 1_555 1_555
H54B C63B 1_555 1_555
H55B C63B 1_555 1_555
B2 H3 1_555 1_555
C5 C6 1_555 1_555
C7 C8 1_555 1_555
C11 C12 1_555 1_555
C17 C18 1_555 1_555
C19 C20 1_555 1_555
C23 C24 1_555 1_555
C29 C30 1_555 1_555
C31 C32 1_555 1_555
C35 C36 1_555 1_555
C41 C42 1_555 1_555
C43 C44 1_555 1_555
C47 C48 1_555 1_555
C53 C54 1_555 1_555
C55 C56 1_555 1_555
C59 C60 1_555 1_555
C62B C63B 1_555 1_555

#END
