
#######################################################################
#
#                 Cambridge Crystallographic Data Centre
#                                CCDC 
#
#######################################################################
#
# If this CIF has been generated from an entry in the Cambridge 
# Structural Database, then it will include bibliographic, chemical, 
# crystal, experimental, refinement or atomic coordinate data resulting 
# from the CCDC's data processing and validation procedures.
#
#######################################################################

data_UTOZUA
_chemical_formula_moiety         'C29 H26 N2 O6 S1'
_chemical_name_systematic        
"methyl 3'-methyl-2'-((2-methylphenyl)(((4-nitrophenyl)sulfonyl)amino)methyl)biphenyl-4-carboxylate"
_symmetry_cell_setting           orthorhombic
_symmetry_space_group_name_H-M   'P 21 21 21'
_symmetry_Int_Tables_number      19
_space_group_name_Hall           'P 2ac 2ab'
loop_
_symmetry_equiv_pos_site_id
_symmetry_equiv_pos_as_xyz
1 x,y,z
2 1/2-x,-y,1/2+z
3 -x,1/2+y,1/2-z
4 1/2+x,1/2-y,-z
_cell_length_a                   11.2027(15)
_cell_length_b                   15.303(2)
_cell_length_c                   15.308(2)
_cell_angle_alpha                90
_cell_angle_beta                 90
_cell_angle_gamma                90
_cell_volume                     2624.33
_cell_formula_units_Z            4
loop_
_atom_site_label
_atom_site_type_symbol
_atom_site_fract_x
_atom_site_fract_y
_atom_site_fract_z
S1 S -0.0211(1) 0.2520(1) 0.5904(1)
O1 O 0.6179(2) 0.3318(1) 0.8399(1)
O2 O 0.7015(2) 0.3321(1) 0.7067(1)
O3 O -0.1201(2) 0.1928(1) 0.5933(1)
O4 O 0.0987(1) 0.2205(1) 0.6025(1)
O5 O -0.1243(2) 0.3945(2) 0.1882(2)
O6 O 0.0653(2) 0.3720(1) 0.1808(1)
N1 N -0.0470(2) 0.3253(1) 0.6625(1)
N2 N -0.0284(2) 0.3759(2) 0.2219(2)
C1 C 0.7285(2) 0.2959(2) 0.8732(2)
C2 C 0.6168(2) 0.3474(2) 0.7539(2)
C3 C 0.5015(2) 0.3832(2) 0.7221(2)
C4 C 0.4839(2) 0.3896(2) 0.6326(2)
C5 C 0.3778(2) 0.4227(2) 0.5998(2)
C6 C 0.4126(2) 0.4120(2) 0.7788(2)
C7 C 0.3075(2) 0.4466(2) 0.7459(2)
C8 C 0.2882(2) 0.4517(2) 0.6563(2)
C9 C 0.1799(2) 0.4945(2) 0.6174(2)
C10 C 0.2020(2) 0.5638(2) 0.5602(2)
C11 C 0.1088(3) 0.6066(2) 0.5196(2)
C12 C -0.0066(2) 0.5800(2) 0.5359(2)
C13 C -0.0328(2) 0.5118(2) 0.5931(2)
C14 C 0.0619(2) 0.4676(2) 0.6344(2)
C15 C 0.0445(2) 0.3875(2) 0.6934(2)
C16 C 0.0194(2) 0.4058(2) 0.7898(2)
C17 C 0.0499(2) 0.3422(2) 0.8524(2)
C18 C 0.0212(2) 0.3573(2) 0.9397(2)
C19 C -0.0356(2) 0.4335(2) 0.9657(2)
C20 C -0.0628(2) 0.4968(2) 0.9043(2)
C21 C -0.0344(2) 0.4832(2) 0.8171(2)
C22 C 0.1137(2) 0.2586(2) 0.8278(2)
C23 C -0.1637(2) 0.4895(2) 0.6062(2)
C24 C -0.0227(2) 0.3016(2) 0.4850(2)
C25 C -0.1320(2) 0.3109(2) 0.4426(2)
C26 C -0.1343(2) 0.3388(2) 0.3563(2)
C27 C -0.0264(2) 0.3556(2) 0.3157(2)
C28 C 0.0825(2) 0.3496(2) 0.3578(2)
C29 C 0.0839(2) 0.3230(2) 0.4442(2)
H1 H -0.1192 0.3287 0.6848
H2 H 0.7206 0.2850 0.9360
H3 H 0.7935 0.3375 0.8630
H4 H 0.7462 0.2409 0.8431
H5 H 0.5449 0.3712 0.5936
H6 H 0.3659 0.4257 0.5384
H7 H 0.4240 0.4078 0.8402
H8 H 0.2480 0.4671 0.7851
H9 H 0.2818 0.5815 0.5492
H10 H 0.1240 0.6539 0.4810
H11 H -0.0704 0.6091 0.5072
H12 H 0.1219 0.3550 0.6918
H13 H 0.0410 0.3145 0.9823
H14 H -0.0519 0.5273 0.7754
H15 H 0.1315 0.2250 0.8808
H16 H 0.1884 0.2727 0.7976
H17 H 0.0627 0.2238 0.7892
H18 H -0.2130 0.5394 0.5886
H19 H -0.1781 0.4763 0.6680
H20 H -0.1843 0.4385 0.5706
H21 H 0.1546 0.3634 0.3282
H22 H 0.1572 0.3194 0.4752
H23 H -0.2043 0.2983 0.4725
H24 H -0.2077 0.3462 0.3261
H25 H -0.0556 0.4422 1.0254
H26 H -0.1009 0.5495 0.9218
loop_
_geom_bond_atom_site_label_1
_geom_bond_atom_site_label_2
_geom_bond_site_symmetry_1
_geom_bond_site_symmetry_2
S1 O3 1_555 1_555
O1 C1 1_555 1_555
O2 C2 1_555 1_555
O4 S1 1_555 1_555
O5 N2 1_555 1_555
O6 N2 1_555 1_555
N1 S1 1_555 1_555
N2 C27 1_555 1_555
C1 H2 1_555 1_555
C2 O1 1_555 1_555
C3 C2 1_555 1_555
C4 C3 1_555 1_555
C5 C4 1_555 1_555
C6 C3 1_555 1_555
C7 C6 1_555 1_555
C8 C5 1_555 1_555
C9 C8 1_555 1_555
C10 C9 1_555 1_555
C11 C10 1_555 1_555
C12 C11 1_555 1_555
C13 C12 1_555 1_555
C14 C9 1_555 1_555
C15 N1 1_555 1_555
C16 C15 1_555 1_555
C17 C16 1_555 1_555
C18 C17 1_555 1_555
C19 C18 1_555 1_555
C20 C19 1_555 1_555
C21 C16 1_555 1_555
C22 C17 1_555 1_555
C23 C13 1_555 1_555
C24 S1 1_555 1_555
C25 C24 1_555 1_555
C26 C25 1_555 1_555
C27 C26 1_555 1_555
C28 C27 1_555 1_555
C29 C24 1_555 1_555
H1 N1 1_555 1_555
H3 C1 1_555 1_555
H4 C1 1_555 1_555
H5 C4 1_555 1_555
H6 C5 1_555 1_555
H7 C6 1_555 1_555
H8 C7 1_555 1_555
H9 C10 1_555 1_555
H10 C11 1_555 1_555
H11 C12 1_555 1_555
H12 C15 1_555 1_555
H13 C18 1_555 1_555
H14 C21 1_555 1_555
H15 C22 1_555 1_555
H16 C22 1_555 1_555
H17 C22 1_555 1_555
H18 C23 1_555 1_555
H19 C23 1_555 1_555
H20 C23 1_555 1_555
H21 C28 1_555 1_555
H22 C29 1_555 1_555
H23 C25 1_555 1_555
H24 C26 1_555 1_555
H25 C19 1_555 1_555
H26 C20 1_555 1_555
C7 C8 1_555 1_555
C13 C14 1_555 1_555
C14 C15 1_555 1_555
C20 C21 1_555 1_555
C28 C29 1_555 1_555

#END
