
#######################################################################
#
#                 Cambridge Crystallographic Data Centre
#                                CCDC 
#
#######################################################################
#
# If this CIF has been generated from an entry in the Cambridge 
# Structural Database, then it will include bibliographic, chemical, 
# crystal, experimental, refinement or atomic coordinate data resulting 
# from the CCDC's data processing and validation procedures.
#
#######################################################################

data_UTUCAO
_chemical_formula_moiety         
'2(C42 H24 O18 S6 6-),11(C1 H6 N3 1+),2(N1 O3 1-),3(Na1 1+),3.5(C6 H6 O1)'
_chemical_name_systematic        
'undecakis(Guanidinium) bis(hexakis(4-sulfonatophenyl)benzene) tri-sodium dinitrate phenol clathrate'
_symmetry_cell_setting           cubic
_symmetry_space_group_name_H-M   'I -4 3 m'
_symmetry_Int_Tables_number      217
_space_group_name_Hall           'I -4 2 3'
loop_
_symmetry_equiv_pos_site_id
_symmetry_equiv_pos_as_xyz
1 x,y,z
2 -x,-y,z
3 -x,y,-z
4 x,-y,-z
5 z,x,y
6 z,-x,-y
7 -z,-x,y
8 -z,x,-y
9 y,z,x
10 -y,z,-x
11 y,-z,-x
12 -y,-z,x
13 y,x,z
14 -y,-x,z
15 y,-x,-z
16 -y,x,-z
17 x,z,y
18 -x,z,-y
19 -x,-z,y
20 x,-z,-y
21 z,y,x
22 z,-y,-x
23 -z,y,-x
24 -z,-y,x
25 1/2+x,1/2+y,1/2+z
26 1/2-x,1/2-y,1/2+z
27 1/2-x,1/2+y,1/2-z
28 1/2+x,1/2-y,1/2-z
29 1/2+z,1/2+x,1/2+y
30 1/2+z,1/2-x,1/2-y
31 1/2-z,1/2-x,1/2+y
32 1/2-z,1/2+x,1/2-y
33 1/2+y,1/2+z,1/2+x
34 1/2-y,1/2+z,1/2-x
35 1/2+y,1/2-z,1/2-x
36 1/2-y,1/2-z,1/2+x
37 1/2+y,1/2+x,1/2+z
38 1/2-y,1/2-x,1/2+z
39 1/2+y,1/2-x,1/2-z
40 1/2-y,1/2+x,1/2-z
41 1/2+x,1/2+z,1/2+y
42 1/2-x,1/2+z,1/2-y
43 1/2-x,1/2-z,1/2+y
44 1/2+x,1/2-z,1/2-y
45 1/2+z,1/2+y,1/2+x
46 1/2+z,1/2-y,1/2-x
47 1/2-z,1/2+y,1/2-x
48 1/2-z,1/2-y,1/2+x
_cell_length_a                   26.8609(16)
_cell_length_b                   26.8609(16)
_cell_length_c                   26.8609(16)
_cell_angle_alpha                90
_cell_angle_beta                 90
_cell_angle_gamma                90
_cell_volume                     19380.4
_exptl_crystal_colour            colorless
_exptl_crystal_description       block
_cell_formula_units_Z            4
loop_
_atom_site_label
_atom_site_type_symbol
_atom_site_fract_x
_atom_site_fract_y
_atom_site_fract_z
S1 S 0.8852(2) 0.3024(3) 0.5062(2)
O1 O 0.9268(5) 0.2756(5) 0.4838(5)
O2 O 0.8622(5) 0.2688(5) 0.5429(5)
O3 O 0.8934(5) 0.3520(6) 0.5219(5)
C1 C 0.7263(5) 0.3100(4) 0.3464(5)
C2 C 0.7649(6) 0.3077(6) 0.3867(5)
C3 C 0.7599(6) 0.3320(6) 0.4316(5)
H1 H 0.7299 0.3495 0.4382
C4 C 0.7967(6) 0.3323(6) 0.4676(6)
H2 H 0.7927 0.3510 0.4973
C5 C 0.8392(6) 0.3049(6) 0.4597(6)
C6 C 0.8452(6) 0.2811(5) 0.4147(6)
H3 H 0.8750 0.2632 0.4084
C7 C 0.8091(6) 0.2826(5) 0.3792(6)
H4 H 0.8145 0.2660 0.3485
S1P S 0.8852(2) 0.5062(2) 0.3024(3)
S1I S 0.6976(3) 0.5062(2) 0.1148(2)
S1V S 0.4938(2) 0.3024(3) 0.1148(2)
S1F S 0.4938(2) 0.1148(2) 0.3024(3)
S1M S 0.6976(3) 0.1148(2) 0.5062(2)
O1P O 0.9268(5) 0.4838(5) 0.2756(5)
O1I O 0.7244(5) 0.4838(5) 0.0732(5)
O1V O 0.5162(5) 0.2756(5) 0.0732(5)
O1F O 0.5162(5) 0.0732(5) 0.2756(5)
O1M O 0.7244(5) 0.0732(5) 0.4838(5)
O2P O 0.8622(5) 0.5429(5) 0.2688(5)
O2I O 0.7312(5) 0.5429(5) 0.1378(5)
O2V O 0.4571(5) 0.2688(5) 0.1378(5)
O2F O 0.4571(5) 0.1378(5) 0.2688(5)
O2M O 0.7312(5) 0.1378(5) 0.5429(5)
O3P O 0.8934(5) 0.5219(5) 0.3520(6)
O3I O 0.6480(6) 0.5219(5) 0.1066(5)
O3V O 0.4781(5) 0.3520(6) 0.1066(5)
O3F O 0.4781(5) 0.1066(5) 0.3520(6)
O3M O 0.6480(6) 0.1066(5) 0.5219(5)
C1M C 0.6900(4) 0.2737(5) 0.3464(5)
C1F C 0.6536(5) 0.2737(5) 0.3100(4)
C1V C 0.6536(5) 0.3100(4) 0.2737(5)
C1I C 0.6900(4) 0.3464(5) 0.2737(5)
C1P C 0.7263(5) 0.3464(5) 0.3100(4)
C2P C 0.7649(6) 0.3867(5) 0.3077(6)
C2I C 0.6923(6) 0.3867(5) 0.2351(6)
C2V C 0.6133(5) 0.3077(6) 0.2351(6)
C2F C 0.6133(5) 0.2351(6) 0.3077(6)
C2M C 0.6923(6) 0.2351(6) 0.3867(5)
C3P C 0.7599(6) 0.4316(5) 0.3320(6)
C3I C 0.6680(6) 0.4316(5) 0.2401(6)
C3V C 0.5684(5) 0.3320(6) 0.2401(6)
C3F C 0.5684(5) 0.2401(6) 0.3320(6)
C3M C 0.6680(6) 0.2401(6) 0.4316(5)
H1P H 0.7299 0.4382 0.3495
H1I H 0.6505 0.4382 0.2701
H1V H 0.5618 0.3495 0.2701
H1F H 0.5618 0.2701 0.3495
H1M H 0.6505 0.2701 0.4382
C4P C 0.7967(6) 0.4676(6) 0.3323(6)
C4I C 0.6677(6) 0.4676(6) 0.2033(6)
C4V C 0.5324(6) 0.3323(6) 0.2033(6)
C4F C 0.5324(6) 0.2033(6) 0.3323(6)
C4M C 0.6677(6) 0.2033(6) 0.4676(6)
H2P H 0.7927 0.4973 0.3510
H2I H 0.6490 0.4973 0.2073
H2V H 0.5027 0.3510 0.2073
H2F H 0.5027 0.2073 0.3510
H2M H 0.6490 0.2073 0.4973
C5P C 0.8392(6) 0.4597(6) 0.3049(6)
C5I C 0.6951(6) 0.4597(6) 0.1608(6)
C5V C 0.5403(6) 0.3049(6) 0.1608(6)
C5F C 0.5403(6) 0.1608(6) 0.3049(6)
C5M C 0.6951(6) 0.1608(6) 0.4597(6)
C6P C 0.8452(6) 0.4147(6) 0.2811(5)
C6I C 0.7189(5) 0.4147(6) 0.1548(6)
C6V C 0.5853(6) 0.2811(5) 0.1548(6)
C6F C 0.5853(6) 0.1548(6) 0.2811(5)
C6M C 0.7189(5) 0.1548(6) 0.4147(6)
H3P H 0.8750 0.4084 0.2632
H3I H 0.7368 0.4084 0.1250
H3V H 0.5916 0.2632 0.1250
H3F H 0.5916 0.1250 0.2632
H3M H 0.7368 0.1250 0.4084
C7P C 0.8091(6) 0.3792(6) 0.2826(5)
C7I C 0.7174(5) 0.3792(6) 0.1909(6)
C7V C 0.6208(6) 0.2826(5) 0.1909(6)
C7F C 0.6208(6) 0.1909(6) 0.2826(5)
C7M C 0.7174(5) 0.1909(6) 0.3792(6)
H4P H 0.8145 0.3485 0.2660
H4I H 0.7340 0.3485 0.1855
H4V H 0.6515 0.2660 0.1855
H4F H 0.6515 0.1855 0.2660
H4M H 0.7340 0.1855 0.3485
N1 N 0.7768(9) 0.2232(9) 0.2232(9)
O4 O 0.7536(4) 0.1895(5) 0.2464(4)
O4F O 0.7536(4) 0.2464(4) 0.1895(5)
O4I O 0.8105(5) 0.2464(4) 0.2464(4)
C8 C 0.8569(8) 0.3283(10) 0.1431(8)
N2 N 0.8751(4) 0.3111(6) 0.1852(6)
H5 H 0.9039 0.3221 0.1963
H6 H 0.8584 0.2886 0.2023
N3 N 0.8820(6) 0.3618(7) 0.1180(6)
H7 H 0.8707 0.3726 0.0892
H8 H 0.9102 0.3735 0.1299
N2V N 0.8148(6) 0.3111(6) 0.1249(4)
H5V H 0.8037 0.3221 0.0961
H6V H 0.7977 0.2886 0.1416
Na1 Na 1.0000 0.5000 0.2322(6)
Na1LA Na 1.0000 0.5000 0.2678(6)
loop_
_geom_bond_atom_site_label_1
_geom_bond_atom_site_label_2
_geom_bond_site_symmetry_1
_geom_bond_site_symmetry_2
Na1 Na1LA 1_555 1_555
S1 O1 1_555 1_555
O2 S1 1_555 1_555
O3 S1 1_555 1_555
C1 C2 1_555 1_555
C2 C3 1_555 1_555
C3 H1 1_555 1_555
C4 C3 1_555 1_555
H2 C4 1_555 1_555
C5 S1 1_555 1_555
C6 C5 1_555 1_555
H3 C6 1_555 1_555
C7 C2 1_555 1_555
H4 C7 1_555 1_555
N1 O4 1_555 1_555
C8 N2 1_555 1_555
N2 H5 1_555 1_555
H6 N2 1_555 1_555
N3 C8 1_555 1_555
H7 N3 1_555 1_555
H8 N3 1_555 1_555
S1P O1P 1_555 1_555
S1I O1I 1_555 1_555
S1V O1V 1_555 1_555
S1F O1F 1_555 1_555
S1M O1M 1_555 1_555
O2P S1P 1_555 1_555
O2I S1I 1_555 1_555
O2V S1V 1_555 1_555
O2F S1F 1_555 1_555
O2M S1M 1_555 1_555
O3P S1P 1_555 1_555
O3I S1I 1_555 1_555
O3V S1V 1_555 1_555
O3F S1F 1_555 1_555
O3M S1M 1_555 1_555
C1M C1 1_555 1_555
C1F C1M 1_555 1_555
C1V C1F 1_555 1_555
C1I C1V 1_555 1_555
C1P C1 1_555 1_555
C2P C1P 1_555 1_555
C2I C1I 1_555 1_555
C2V C1V 1_555 1_555
C2F C1F 1_555 1_555
C2M C1M 1_555 1_555
C3P C2P 1_555 1_555
C3I C2I 1_555 1_555
C3V C2V 1_555 1_555
C3F C2F 1_555 1_555
C3M C2M 1_555 1_555
H1P C3P 1_555 1_555
H1I C3I 1_555 1_555
H1V C3V 1_555 1_555
H1F C3F 1_555 1_555
H1M C3M 1_555 1_555
C4P C3P 1_555 1_555
C4I C3I 1_555 1_555
C4V C3V 1_555 1_555
C4F C3F 1_555 1_555
C4M C3M 1_555 1_555
H2P C4P 1_555 1_555
H2I C4I 1_555 1_555
H2V C4V 1_555 1_555
H2F C4F 1_555 1_555
H2M C4M 1_555 1_555
C5P S1P 1_555 1_555
C5I S1I 1_555 1_555
C5V S1V 1_555 1_555
C5F S1F 1_555 1_555
C5M S1M 1_555 1_555
C6P C5P 1_555 1_555
C6I C5I 1_555 1_555
C6V C5V 1_555 1_555
C6F C5F 1_555 1_555
C6M C5M 1_555 1_555
H3P C6P 1_555 1_555
H3I C6I 1_555 1_555
H3V C6V 1_555 1_555
H3F C6F 1_555 1_555
H3M C6M 1_555 1_555
C7P C2P 1_555 1_555
C7I C2I 1_555 1_555
C7V C2V 1_555 1_555
C7F C2F 1_555 1_555
C7M C2M 1_555 1_555
H4P C7P 1_555 1_555
H4I C7I 1_555 1_555
H4V C7V 1_555 1_555
H4F C7F 1_555 1_555
H4M C7M 1_555 1_555
O4F N1 1_555 1_555
O4I N1 1_555 1_555
N2V C8 1_555 1_555
H5V N2V 1_555 1_555
H6V N2V 1_555 1_555
C4 C5 1_555 1_555
C6 C7 1_555 1_555
C1I C1P 1_555 1_555
C4P C5P 1_555 1_555
C4I C5I 1_555 1_555
C4V C5V 1_555 1_555
C4F C5F 1_555 1_555
C4M C5M 1_555 1_555
C6P C7P 1_555 1_555
C6I C7I 1_555 1_555
C6V C7V 1_555 1_555
C6F C7F 1_555 1_555
C6M C7M 1_555 1_555

#END
