
#######################################################################
#
#                 Cambridge Crystallographic Data Centre
#                                CCDC 
#
#######################################################################
#
# If this CIF has been generated from an entry in the Cambridge 
# Structural Database, then it will include bibliographic, chemical, 
# crystal, experimental, refinement or atomic coordinate data resulting 
# from the CCDC's data processing and validation procedures.
#
#######################################################################

data_UTUJOK
_chemical_formula_moiety         'C17 H27 N2 O3 1+,N1 O3 1-'
_chemical_name_systematic        
'3-carbamoyl-1-(10-carboxydecyl)pyridinium nitrate'
_symmetry_cell_setting           triclinic
_symmetry_space_group_name_H-M   'P -1'
_symmetry_Int_Tables_number      2
_space_group_name_Hall           '-P 1'
loop_
_symmetry_equiv_pos_site_id
_symmetry_equiv_pos_as_xyz
1 x,y,z
2 -x,-y,-z
_cell_length_a                   5.3095(18)
_cell_length_b                   7.917(3)
_cell_length_c                   23.201(8)
_cell_angle_alpha                84.701(7)
_cell_angle_beta                 83.488(7)
_cell_angle_gamma                80.058(8)
_cell_volume                     951.776
_exptl_crystal_colour            colorless
_exptl_crystal_description       Lamellar
_cell_formula_units_Z            2
loop_
_atom_site_label
_atom_site_type_symbol
_atom_site_fract_x
_atom_site_fract_y
_atom_site_fract_z
O1 O 1.2819(5) 0.1950(4) 0.00811(11)
O2 O -0.0468(5) 0.1356(4) 0.77100(13)
O3 O -0.3248(5) 0.3649(4) 0.74569(12)
H1 H -0.4117 0.3323 0.7759
N1 N 0.5722(5) 0.2086(4) 0.14873(11)
N2 N 1.2558(6) -0.0507(5) 0.06216(14)
H2 H 1.4056 -0.1011 0.0466
H3 H 1.1658 -0.1074 0.0891
C1 C 0.7937(6) 0.1237(5) 0.12405(14)
H4 H 0.8682 0.0162 0.1416
C2 C 0.9135(6) 0.1914(5) 0.07360(13)
C3 C 0.7990(7) 0.3476(5) 0.04921(15)
H5 H 0.8771 0.3965 0.0142
C4 C 0.5739(7) 0.4326(5) 0.07508(15)
H6 H 0.4954 0.5399 0.0582
C5 C 0.4639(7) 0.3613(5) 0.12541(15)
H7 H 0.3094 0.4203 0.1440
C6 C 0.4503(7) 0.1362(5) 0.20427(14)
H8 H 0.4932 0.0092 0.2063
H9 H 0.2612 0.1680 0.2053
C7 C 0.5398(7) 0.2018(5) 0.25626(14)
H10 H 0.5256 0.3285 0.2508
H11 H 0.7227 0.1526 0.2593
C8 C 0.3812(8) 0.1536(6) 0.31182(15)
H12 H 0.4040 0.0267 0.3181
H13 H 0.1973 0.1961 0.3074
C9 C 0.4526(8) 0.2259(6) 0.36494(15)
H14 H 0.6322 0.1756 0.3714
H15 H 0.4442 0.3518 0.3573
C10 C 0.2793(9) 0.1903(6) 0.41968(15)
H16 H 0.0994 0.2369 0.4124
H17 H 0.2921 0.0642 0.4276
C11 C 0.3379(9) 0.2648(6) 0.47336(16)
H18 H 0.3288 0.3906 0.4655
H19 H 0.5158 0.2157 0.4816
C12 C 0.1557(9) 0.2299(7) 0.52669(16)
H20 H -0.0216 0.2795 0.5181
H21 H 0.1637 0.1040 0.5338
C13 C 0.2068(8) 0.3001(6) 0.58169(15)
H22 H 0.1921 0.4267 0.5754
H23 H 0.3851 0.2533 0.5902
C14 C 0.0243(8) 0.2565(6) 0.63368(15)
H24 H -0.1535 0.3045 0.6251
H25 H 0.0372 0.1299 0.6392
C15 C 0.0720(8) 0.3222(6) 0.68951(15)
H26 H 0.2531 0.2815 0.6971
H27 H 0.0438 0.4495 0.6856
C16 C -0.1016(7) 0.2623(6) 0.73978(16)
C17 C 1.1666(7) 0.1089(5) 0.04529(15)
O4 O 0.6273(5) 0.7357(4) 0.16078(11)
O5 O 0.8741(5) 0.5004(4) 0.18656(11)
O6 O 1.0032(5) 0.6687(4) 0.11470(11)
N3 N 0.8362(6) 0.6347(5) 0.15444(13)
loop_
_geom_bond_atom_site_label_1
_geom_bond_atom_site_label_2
_geom_bond_site_symmetry_1
_geom_bond_site_symmetry_2
O1 C17 1_555 1_555
O2 C16 1_555 1_555
O3 H1 1_555 1_555
N1 C1 1_555 1_555
N2 H2 1_555 1_555
H3 N2 1_555 1_555
C1 H4 1_555 1_555
C2 C1 1_555 1_555
C3 C2 1_555 1_555
H5 C3 1_555 1_555
C4 C3 1_555 1_555
H6 C4 1_555 1_555
C5 N1 1_555 1_555
H7 C5 1_555 1_555
C6 N1 1_555 1_555
H8 C6 1_555 1_555
H9 C6 1_555 1_555
C7 C6 1_555 1_555
H10 C7 1_555 1_555
H11 C7 1_555 1_555
C8 C7 1_555 1_555
H12 C8 1_555 1_555
H13 C8 1_555 1_555
C9 C8 1_555 1_555
H14 C9 1_555 1_555
H15 C9 1_555 1_555
C10 C9 1_555 1_555
H16 C10 1_555 1_555
H17 C10 1_555 1_555
C11 C10 1_555 1_555
H18 C11 1_555 1_555
H19 C11 1_555 1_555
C12 C11 1_555 1_555
H20 C12 1_555 1_555
H21 C12 1_555 1_555
C13 C12 1_555 1_555
H22 C13 1_555 1_555
H23 C13 1_555 1_555
C14 C13 1_555 1_555
H24 C14 1_555 1_555
H25 C14 1_555 1_555
C15 C14 1_555 1_555
H26 C15 1_555 1_555
H27 C15 1_555 1_555
C16 O3 1_555 1_555
C17 N2 1_555 1_555
O4 N3 1_555 1_555
O5 N3 1_555 1_555
O6 N3 1_555 1_555
C2 C17 1_555 1_555
C4 C5 1_555 1_555
C15 C16 1_555 1_555

#END
