
#######################################################################
#
#                 Cambridge Crystallographic Data Centre
#                                CCDC 
#
#######################################################################
#
# If this CIF has been generated from an entry in the Cambridge 
# Structural Database, then it will include bibliographic, chemical, 
# crystal, experimental, refinement or atomic coordinate data resulting 
# from the CCDC's data processing and validation procedures.
#
#######################################################################

data_UTUMED
_chemical_formula_moiety         'C58 H92 N8 O4 S8'
_chemical_name_systematic        
'(2,7-bis(2-ethylhexyl)-1,3,6,8-tetraoxo-1,2,3,6,7,8-hexahydrobenzo[lmn][3,8]phenanthroline-4,9-diyl)bis(nitrilodiethane-2,1-diyl) tetrakis(diethylcarbamodithioate)'
_symmetry_cell_setting           triclinic
_symmetry_space_group_name_H-M   'P -1'
_symmetry_Int_Tables_number      2
_space_group_name_Hall           '-P 1'
loop_
_symmetry_equiv_pos_site_id
_symmetry_equiv_pos_as_xyz
1 x,y,z
2 -x,-y,-z
_cell_length_a                   8.5800(3)
_cell_length_b                   13.5581(5)
_cell_length_c                   13.8786(5)
_cell_angle_alpha                85.002(3)
_cell_angle_beta                 87.556(3)
_cell_angle_gamma                85.019(3)
_cell_volume                     1601.26
_exptl_crystal_description       block
_cell_formula_units_Z            1
loop_
_atom_site_label
_atom_site_type_symbol
_atom_site_fract_x
_atom_site_fract_y
_atom_site_fract_z
S1 S 1.46875(6) 0.63657(4) 0.54465(4)
S2 S 1.19646(7) 0.69119(5) 0.41123(4)
S3 S 0.82194(7) 0.68814(4) 0.68529(4)
S4 S 0.63530(7) 0.51786(5) 0.76323(4)
O1 O 1.12274(19) 0.33375(12) 0.76433(12)
O2 O 0.82161(19) 0.22048(12) 1.02005(13)
N1 N 0.9633(2) 0.28047(14) 0.88858(14)
N2 N 1.1167(2) 0.54248(15) 0.72395(13)
N3 N 0.6304(3) 0.69277(17) 0.83682(16)
N4 N 1.4810(2) 0.75555(15) 0.38656(15)
C1 C 1.0463(3) 0.35499(17) 0.83705(16)
C2 C 1.0379(2) 0.45285(16) 0.87652(16)
C3 C 0.9903(2) 0.45785(16) 0.97521(16)
C4 C 0.9226(2) 0.37721(16) 1.02820(16)
C5 C 0.8956(3) 0.28708(17) 0.98093(16)
C6 C 0.8845(2) 0.37959(17) 1.12555(16)
H1 H 0.8409 0.3238 1.1593
C7 C 0.9520(3) 0.18777(17) 0.84233(18)
H2 H 0.9847 0.1990 0.7732
H3 H 0.8408 0.1731 0.8449
C8 C 1.0463(8) 0.0991(4) 0.8852(4)
H4 H 1.0046 0.0809 0.9522
C9 C 1.2165(6) 0.1199(4) 0.8890(4)
H5 H 1.2236 0.1813 0.9217
H6 H 1.2610 0.1306 0.8223
C10 C 1.314(2) 0.0316(14) 0.9447(7)
H7 H 1.4230 0.0468 0.9461
H8 H 1.2707 0.0216 1.0110
H9 H 1.3080 -0.0290 0.9117
C11 C 1.0403(6) 0.0101(3) 0.8227(3)
H10 H 1.0944 -0.0480 0.8594
H11 H 0.9288 -0.0033 0.8221
C12 C 1.1012(5) 0.0080(3) 0.7213(3)
H12 H 1.2165 0.0090 0.7200
H13 H 1.0581 0.0686 0.6831
C13 C 1.0591(5) -0.0839(3) 0.6736(3)
H14 H 1.0844 -0.1438 0.7180
H15 H 0.9449 -0.0784 0.6641
C14 C 1.1429(6) -0.0972(3) 0.5780(4)
H16 H 1.1208 -0.0376 0.5340
H17 H 1.1070 -0.1548 0.5502
H18 H 1.2559 -0.1079 0.5874
C15 C 1.0917(2) 0.53717(17) 0.82309(16)
C16 C 1.2245(3) 0.61005(17) 0.67602(16)
H19 H 1.2958 0.6297 0.7239
H20 H 1.1647 0.6708 0.6481
C17 C 1.3198(3) 0.56006(17) 0.59601(17)
H21 H 1.2494 0.5472 0.5446
H22 H 1.3696 0.4954 0.6227
C18 C 1.3819(3) 0.70038(18) 0.43948(17)
C19 C 1.6446(3) 0.7639(2) 0.41129(19)
H23 H 1.7095 0.7728 0.3509
H24 H 1.6852 0.7015 0.4476
C20 C 1.6591(4) 0.8499(2) 0.4715(2)
H25 H 1.6193 0.9118 0.4357
H26 H 1.7694 0.8536 0.4854
H27 H 1.5982 0.8401 0.5324
C21 C 1.4319(3) 0.8136(2) 0.29690(18)
H28 H 1.4919 0.8730 0.2863
H29 H 1.3195 0.8365 0.3034
C22 C 1.4585(4) 0.7518(2) 0.21006(19)
H30 H 1.5683 0.7250 0.2064
H31 H 1.4338 0.7938 0.1507
H32 H 1.3907 0.6969 0.2173
C23 C 1.0014(3) 0.50675(17) 0.66418(16)
H33 H 0.9346 0.4632 0.7057
H34 H 1.0569 0.4660 0.6155
C24 C 0.8962(3) 0.58987(18) 0.61156(17)
H35 H 0.8063 0.5603 0.5863
H36 H 0.9563 0.6192 0.5554
C25 C 0.6864(3) 0.63227(19) 0.76957(18)
C26 C 0.6723(4) 0.7948(2) 0.8395(2)
H37 H 0.7815 0.7993 0.8145
H38 H 0.6669 0.8123 0.9074
C27 C 0.5641(6) 0.8688(3) 0.7795(3)
H39 H 0.5733 0.8539 0.7116
H40 H 0.5936 0.9363 0.7849
H41 H 0.4557 0.8639 0.8035
C28 C 0.5172(3) 0.6587(2) 0.9136(2)
H42 H 0.4549 0.6088 0.8890
H43 H 0.4443 0.7157 0.9306
C29 C 0.6000(3) 0.6135(2) 1.0033(2)
H44 H 0.6704 0.5561 0.9869
H45 H 0.5224 0.5922 1.0529
H46 H 0.6609 0.6631 1.0282
S1A S 0.53125(6) 0.36343(4) 1.45535(4)
S2A S 0.80354(7) 0.30881(5) 1.58877(4)
S3A S 1.17806(7) 0.31186(4) 1.31471(4)
S4A S 1.36470(7) 0.48214(5) 1.23677(4)
O1A O 0.87726(19) 0.66625(12) 1.23567(12)
O2A O 1.17839(19) 0.77952(12) 0.97995(13)
N1A N 1.0367(2) 0.71953(14) 1.11142(14)
N2A N 0.8833(2) 0.45752(15) 1.27605(13)
N3A N 1.3696(3) 0.30723(17) 1.16318(16)
N4A N 0.5190(2) 0.24445(15) 1.61344(15)
C1A C 0.9537(3) 0.64501(17) 1.16295(16)
C2A C 0.9621(2) 0.54715(16) 1.12348(16)
C3A C 1.0097(2) 0.54215(16) 1.02479(16)
C4A C 1.0774(2) 0.62279(16) 0.97180(16)
C5A C 1.1044(3) 0.71292(17) 1.01907(16)
C6A C 1.1155(2) 0.62041(17) 0.87445(16)
H1A H 1.1591 0.6762 0.8407
C7A C 1.0480(3) 0.81223(17) 1.15767(18)
H2A H 1.0153 0.8010 1.2268
H3A H 1.1592 0.8269 1.1551
C8A C 0.9537(8) 0.9009(4) 1.1148(4)
H4A H 0.9954 0.9191 1.0478
C9A C 0.7835(6) 0.8801(4) 1.1110(4)
H5A H 0.7764 0.8187 1.0783
H6A H 0.7390 0.8694 1.1777
C10A C 0.686(2) 0.9684(14) 1.0553(7)
H7A H 0.5770 0.9532 1.0539
H8A H 0.7293 0.9784 0.9890
H9A H 0.6920 1.0290 1.0883
C11A C 0.9597(6) 0.9899(3) 1.1773(3)
H10A H 0.9056 1.0480 1.1406
H11A H 1.0712 1.0033 1.1779
C12A C 0.8988(5) 0.9920(3) 1.2787(3)
H12A H 0.7835 0.9910 1.2800
H13A H 0.9419 0.9314 1.3169
C13A C 0.9409(5) 1.0839(3) 1.3264(3)
H14A H 0.9156 1.1438 1.2820
H15A H 1.0551 1.0784 1.3359
C14A C 0.8571(6) 1.0972(3) 1.4220(4)
H16A H 0.8792 1.0376 1.4660
H17A H 0.8930 1.1548 1.4498
H18A H 0.7441 1.1079 1.4126
C15A C 0.9083(2) 0.46283(17) 1.17691(16)
C16A C 0.7755(3) 0.38995(17) 1.32398(16)
H19A H 0.7042 0.3703 1.2761
H20A H 0.8353 0.3292 1.3519
C17A C 0.6802(3) 0.43994(17) 1.40399(17)
H21A H 0.7506 0.4528 1.4554
H22A H 0.6304 0.5046 1.3773
C18A C 0.6181(3) 0.29962(18) 1.56052(17)
C19A C 0.3554(3) 0.2361(2) 1.58871(19)
H23A H 0.2905 0.2272 1.6491
H24A H 0.3148 0.2985 1.5524
C20A C 0.3409(4) 0.1501(2) 1.5285(2)
H25A H 0.3807 0.0882 1.5643
H26A H 0.2306 0.1464 1.5146
H27A H 0.4018 0.1599 1.4676
C21A C 0.5681(3) 0.1864(2) 1.70310(18)
H28A H 0.5081 0.1270 1.7137
H29A H 0.6805 0.1635 1.6966
C22A C 0.5415(4) 0.2482(2) 1.78994(19)
H30A H 0.4317 0.2750 1.7936
H31A H 0.5662 0.2062 1.8493
H32A H 0.6093 0.3031 1.7827
C23A C 0.9986(3) 0.49325(17) 1.33582(16)
H33A H 1.0654 0.5368 1.2943
H34A H 0.9431 0.5340 1.3845
C24A C 1.1038(3) 0.41013(18) 1.38844(17)
H35A H 1.1937 0.4397 1.4137
H36A H 1.0437 0.3808 1.4446
C25A C 1.3136(3) 0.36773(19) 1.23043(18)
C26A C 1.3277(4) 0.2052(2) 1.1605(2)
H37A H 1.2185 0.2007 1.1855
H38A H 1.3331 0.1877 1.0926
C27A C 1.4359(6) 0.1312(3) 1.2205(3)
H39A H 1.4267 0.1461 1.2884
H40A H 1.4064 0.0637 1.2151
H41A H 1.5443 0.1361 1.1965
C28A C 1.4828(3) 0.3413(2) 1.0864(2)
H42A H 1.5451 0.3912 1.1110
H43A H 1.5557 0.2843 1.0694
C29A C 1.4000(3) 0.3865(2) 0.9967(2)
H44A H 1.3296 0.4439 1.0131
H45A H 1.4776 0.4078 0.9471
H46A H 1.3391 0.3369 0.9718
C30? C 1.1113(8) 0.1160(5) 0.8525(5)
H47? H 1.2006 0.1382 0.8097
C31? C 1.1501(6) 0.0926(4) 0.9580(4)
H48? H 1.1537 0.1561 0.9878
H49? H 1.0640 0.0574 0.9912
C32? C 1.303(2) 0.0302(13) 0.9765(8)
H50? H 1.3175 0.0192 1.0464
H51? H 1.2999 -0.0339 0.9493
H52? H 1.3898 0.0650 0.9458
loop_
_geom_bond_atom_site_label_1
_geom_bond_atom_site_label_2
_geom_bond_site_symmetry_1
_geom_bond_site_symmetry_2
S1 C17 1_555 1_555
S2 C18 1_555 1_555
S3 C24 1_555 1_555
S4 C25 1_555 1_555
O1 C1 1_555 1_555
O2 C5 1_555 1_555
N1 C1 1_555 1_555
N2 C15 1_555 1_555
N3 C25 1_555 1_555
N4 C18 1_555 1_555
C1 C2 1_555 1_555
C2 C3 1_555 1_555
C3 C4 1_555 1_555
C4 C5 1_555 1_555
C5 N1 1_555 1_555
C6 C4 1_555 1_555
H1 C6 1_555 1_555
C7 N1 1_555 1_555
H2 C7 1_555 1_555
H3 C7 1_555 1_555
C8 C7 1_555 1_555
H4 C8 1_555 1_555
C9 C8 1_555 1_555
H5 C9 1_555 1_555
H6 C9 1_555 1_555
C10 C9 1_555 1_555
H7 C10 1_555 1_555
H8 C10 1_555 1_555
H9 C10 1_555 1_555
C11 C8 1_555 1_555
H10 C11 1_555 1_555
H11 C11 1_555 1_555
C12 C11 1_555 1_555
H12 C12 1_555 1_555
H13 C12 1_555 1_555
C13 C12 1_555 1_555
H14 C13 1_555 1_555
H15 C13 1_555 1_555
C14 C13 1_555 1_555
H16 C14 1_555 1_555
H17 C14 1_555 1_555
H18 C14 1_555 1_555
C15 C2 1_555 1_555
C16 N2 1_555 1_555
H19 C16 1_555 1_555
H20 C16 1_555 1_555
C17 C16 1_555 1_555
H21 C17 1_555 1_555
H22 C17 1_555 1_555
C18 S1 1_555 1_555
C19 N4 1_555 1_555
H23 C19 1_555 1_555
H24 C19 1_555 1_555
C20 C19 1_555 1_555
H25 C20 1_555 1_555
H26 C20 1_555 1_555
H27 C20 1_555 1_555
C21 N4 1_555 1_555
H28 C21 1_555 1_555
H29 C21 1_555 1_555
C22 C21 1_555 1_555
H30 C22 1_555 1_555
H31 C22 1_555 1_555
H32 C22 1_555 1_555
C23 N2 1_555 1_555
H33 C23 1_555 1_555
H34 C23 1_555 1_555
C24 C23 1_555 1_555
H35 C24 1_555 1_555
H36 C24 1_555 1_555
C25 S3 1_555 1_555
C26 N3 1_555 1_555
H37 C26 1_555 1_555
H38 C26 1_555 1_555
C27 C26 1_555 1_555
H39 C27 1_555 1_555
H40 C27 1_555 1_555
H41 C27 1_555 1_555
C28 N3 1_555 1_555
H42 C28 1_555 1_555
H43 C28 1_555 1_555
C29 C28 1_555 1_555
H44 C29 1_555 1_555
H45 C29 1_555 1_555
H46 C29 1_555 1_555
S1A C17A 1_555 1_555
S2A C18A 1_555 1_555
S3A C24A 1_555 1_555
S4A C25A 1_555 1_555
O1A C1A 1_555 1_555
O2A C5A 1_555 1_555
N1A C1A 1_555 1_555
N2A C15A 1_555 1_555
N3A C25A 1_555 1_555
N4A C18A 1_555 1_555
C1A C2A 1_555 1_555
C2A C3A 1_555 1_555
C3A C3 1_555 1_555
C4A C3A 1_555 1_555
C5A N1A 1_555 1_555
C6A C15 1_555 1_555
H1A C6A 1_555 1_555
C7A N1A 1_555 1_555
H2A C7A 1_555 1_555
H3A C7A 1_555 1_555
C8A C7A 1_555 1_555
H4A C8A 1_555 1_555
C9A C8A 1_555 1_555
H5A C9A 1_555 1_555
H6A C9A 1_555 1_555
C10A C9A 1_555 1_555
H7A C10A 1_555 1_555
H8A C10A 1_555 1_555
H9A C10A 1_555 1_555
C11A C8A 1_555 1_555
H10A C11A 1_555 1_555
H11A C11A 1_555 1_555
C12A C11A 1_555 1_555
H12A C12A 1_555 1_555
H13A C12A 1_555 1_555
C13A C12A 1_555 1_555
H14A C13A 1_555 1_555
H15A C13A 1_555 1_555
C14A C13A 1_555 1_555
H16A C14A 1_555 1_555
H17A C14A 1_555 1_555
H18A C14A 1_555 1_555
C15A C6 1_555 1_555
C16A N2A 1_555 1_555
H19A C16A 1_555 1_555
H20A C16A 1_555 1_555
C17A C16A 1_555 1_555
H21A C17A 1_555 1_555
H22A C17A 1_555 1_555
C18A S1A 1_555 1_555
C19A N4A 1_555 1_555
H23A C19A 1_555 1_555
H24A C19A 1_555 1_555
C20A C19A 1_555 1_555
H25A C20A 1_555 1_555
H26A C20A 1_555 1_555
H27A C20A 1_555 1_555
C21A N4A 1_555 1_555
H28A C21A 1_555 1_555
H29A C21A 1_555 1_555
C22A C21A 1_555 1_555
H30A C22A 1_555 1_555
H31A C22A 1_555 1_555
H32A C22A 1_555 1_555
C23A N2A 1_555 1_555
H33A C23A 1_555 1_555
H34A C23A 1_555 1_555
C24A C23A 1_555 1_555
H35A C24A 1_555 1_555
H36A C24A 1_555 1_555
C25A S3A 1_555 1_555
C26A N3A 1_555 1_555
H37A C26A 1_555 1_555
H38A C26A 1_555 1_555
C27A C26A 1_555 1_555
H39A C27A 1_555 1_555
H40A C27A 1_555 1_555
H41A C27A 1_555 1_555
C28A N3A 1_555 1_555
H42A C28A 1_555 1_555
H43A C28A 1_555 1_555
C29A C28A 1_555 1_555
H44A C29A 1_555 1_555
H45A C29A 1_555 1_555
H46A C29A 1_555 1_555
C2A C15A 1_555 1_555
C4A C5A 1_555 1_555
C4A C6A 1_555 1_555

#END
