
#######################################################################
#
#                 Cambridge Crystallographic Data Centre
#                                CCDC 
#
#######################################################################
#
# If this CIF has been generated from an entry in the Cambridge 
# Structural Database, then it will include bibliographic, chemical, 
# crystal, experimental, refinement or atomic coordinate data resulting 
# from the CCDC's data processing and validation procedures.
#
#######################################################################

data_UTUREI
_chemical_formula_moiety         'C19 H20 N1 O2 Se1 1+,C7 H7 O3 S1 1-'
_chemical_name_systematic        
'2-(2-(3,4-dimethoxyphenyl)vinyl)-3-ethyl-1,3-benzoselenazol-3-ium 4-methylbenzenesulfonate'
_symmetry_cell_setting           monoclinic
_symmetry_space_group_name_H-M   'P 21/n'
_symmetry_Int_Tables_number      14
_space_group_name_Hall           '-P 2yn'
loop_
_symmetry_equiv_pos_site_id
_symmetry_equiv_pos_as_xyz
1 x,y,z
2 1/2-x,1/2+y,1/2-z
3 -x,-y,-z
4 1/2+x,1/2-y,1/2+z
_cell_length_a                   7.5216(4)
_cell_length_b                   29.2202(16)
_cell_length_c                   11.1130(6)
_cell_angle_alpha                90
_cell_angle_beta                 93.721(5)
_cell_angle_gamma                90
_cell_volume                     2437.3
_exptl_crystal_colour            orange
_exptl_crystal_description       prism
_cell_formula_units_Z            4
loop_
_atom_site_label
_atom_site_type_symbol
_atom_site_fract_x
_atom_site_fract_y
_atom_site_fract_z
Se1 Se 0.35433(4) 0.091561(12) 0.50803(3)
O1 O 0.0999(3) -0.17548(8) 0.5641(2)
O2 O 0.1283(3) -0.17951(8) 0.7922(2)
N1 N 0.2539(3) 0.05523(9) 0.2922(2)
C1 C 0.2675(4) 0.04373(11) 0.4094(3)
C2 C 0.2258(4) -0.00047(12) 0.4548(3)
H1 H 0.1892 -0.0233 0.4005
C3 C 0.2375(4) -0.01025(12) 0.5736(3)
H2 H 0.2696 0.0138 0.6253
C4 C 0.2060(4) -0.05375(12) 0.6296(3)
C5 C 0.1607(4) -0.09348(12) 0.5628(3)
H3 H 0.1464 -0.0919 0.4791
C6 C 0.1374(4) -0.13463(12) 0.6196(3)
C7 C 0.1545(4) -0.13700(12) 0.7473(3)
C8 C 0.1933(4) -0.09808(12) 0.8137(3)
H4 H 0.2012 -0.0994 0.8975
C9 C 0.2206(4) -0.05689(12) 0.7552(3)
H5 H 0.2491 -0.0309 0.8007
C10 C 0.0781(6) -0.17490(14) 0.4361(3)
H6 H 0.0524 -0.2053 0.4070
H7 H 0.1858 -0.1641 0.4037
H8 H -0.0185 -0.1549 0.4110
C11 C 0.1422(5) -0.18495(13) 0.9203(3)
H9 H 0.1209 -0.2164 0.9402
H10 H 0.0556 -0.1659 0.9555
H11 H 0.2595 -0.1763 0.9512
C12 C 0.3726(4) 0.12530(11) 0.3660(3)
C13 C 0.3117(4) 0.09960(11) 0.2655(3)
C14 C 0.3126(4) 0.11796(12) 0.1497(3)
H12 H 0.2715 0.1012 0.0824
C15 C 0.3773(4) 0.16231(12) 0.1384(3)
H13 H 0.3795 0.1753 0.0622
C16 C 0.4387(4) 0.18747(12) 0.2385(3)
H14 H 0.4819 0.2169 0.2282
C17 C 0.4364(4) 0.16940(12) 0.3529(3)
H15 H 0.4768 0.1864 0.4199
C18 C 0.1918(4) 0.02333(11) 0.1950(3)
H16 H 0.1319 0.0405 0.1296
H17 H 0.1063 0.0022 0.2257
C19 C 0.3433(4) -0.00323(13) 0.1474(4)
H18 H 0.2982 -0.0235 0.0846
H19 H 0.4015 -0.0208 0.2115
H20 H 0.4272 0.0176 0.1156
S1 S 0.07497(11) 0.08527(3) 0.83335(8)
O3 O -0.0833(8) 0.1068(2) 0.8805(6)
O4 O 0.0470(7) 0.06974(19) 0.7084(5)
O5 O 0.1490(8) 0.0501(2) 0.9118(6)
C20 C 0.2354(4) 0.12994(11) 0.8264(3)
C21 C 0.4147(4) 0.11819(12) 0.8236(3)
H21 H 0.4492 0.0876 0.8281
C22 C 0.5414(4) 0.15224(13) 0.8142(3)
H22 H 0.6606 0.1441 0.8119
C23 C 0.4946(4) 0.19804(12) 0.8081(3)
C24 C 0.3144(4) 0.20947(12) 0.8130(3)
H23 H 0.2800 0.2400 0.8108
C25 C 0.1870(4) 0.17552(11) 0.8213(3)
H24 H 0.0676 0.1835 0.8234
C26 C 0.6326(4) 0.23484(13) 0.7987(4)
H25 H 0.7482 0.2211 0.7962
H26 H 0.6312 0.2547 0.8675
H27 H 0.6066 0.2523 0.7265
O6? O -0.0563(11) 0.1022(3) 0.9095(8)
O7? O 0.0016(11) 0.0759(3) 0.7126(7)
O8? O 0.1824(10) 0.0467(3) 0.8902(8)
O9? O -0.078(4) 0.1001(10) 0.740(3)
O10? O 0.022(4) 0.0868(10) 0.947(3)
O11? O 0.170(3) 0.0465(10) 0.797(3)
loop_
_geom_bond_atom_site_label_1
_geom_bond_atom_site_label_2
_geom_bond_site_symmetry_1
_geom_bond_site_symmetry_2
Se1 C1 1_555 1_555
O1 C6 1_555 1_555
O2 C7 1_555 1_555
N1 C1 1_555 1_555
C1 C2 1_555 1_555
C2 H1 1_555 1_555
C3 C2 1_555 1_555
H2 C3 1_555 1_555
C4 C3 1_555 1_555
C5 C4 1_555 1_555
H3 C5 1_555 1_555
C6 C5 1_555 1_555
C7 C6 1_555 1_555
C8 C7 1_555 1_555
H4 C8 1_555 1_555
C9 C4 1_555 1_555
H5 C9 1_555 1_555
C10 O1 1_555 1_555
H6 C10 1_555 1_555
H7 C10 1_555 1_555
H8 C10 1_555 1_555
C11 O2 1_555 1_555
H9 C11 1_555 1_555
H10 C11 1_555 1_555
H11 C11 1_555 1_555
C12 Se1 1_555 1_555
C13 N1 1_555 1_555
C14 C13 1_555 1_555
H12 C14 1_555 1_555
C15 C14 1_555 1_555
H13 C15 1_555 1_555
C16 C15 1_555 1_555
H14 C16 1_555 1_555
C17 C12 1_555 1_555
H15 C17 1_555 1_555
C18 N1 1_555 1_555
H16 C18 1_555 1_555
H17 C18 1_555 1_555
C19 C18 1_555 1_555
H18 C19 1_555 1_555
H19 C19 1_555 1_555
H20 C19 1_555 1_555
S1 O3 1_555 1_555
O4 S1 1_555 1_555
O5 S1 1_555 1_555
C20 S1 1_555 1_555
C21 C20 1_555 1_555
H21 C21 1_555 1_555
C22 C21 1_555 1_555
H22 C22 1_555 1_555
C23 C22 1_555 1_555
C24 C23 1_555 1_555
H23 C24 1_555 1_555
C25 C20 1_555 1_555
H24 C25 1_555 1_555
C26 C23 1_555 1_555
H25 C26 1_555 1_555
H26 C26 1_555 1_555
H27 C26 1_555 1_555
C8 C9 1_555 1_555
C12 C13 1_555 1_555
C16 C17 1_555 1_555
C24 C25 1_555 1_555

#END
