
#######################################################################
#
#                 Cambridge Crystallographic Data Centre
#                                CCDC 
#
#######################################################################
#
# If this CIF has been generated from an entry in the Cambridge 
# Structural Database, then it will include bibliographic, chemical, 
# crystal, experimental, refinement or atomic coordinate data resulting 
# from the CCDC's data processing and validation procedures.
#
#######################################################################

data_UTUXOY
_chemical_formula_moiety         'C20 H17 F3 N2 O1'
_chemical_name_systematic        
(R)-N-(2-(quinolin-2-yl)-1-(2-(trifluoromethyl)phenyl)ethyl)acetamide
_symmetry_cell_setting           monoclinic
_symmetry_space_group_name_H-M   'P 21'
_symmetry_Int_Tables_number      4
_space_group_name_Hall           'P 2yb'
loop_
_symmetry_equiv_pos_site_id
_symmetry_equiv_pos_as_xyz
1 x,y,z
2 -x,1/2+y,-z
_cell_length_a                   4.8676(2)
_cell_length_b                   10.9760(4)
_cell_length_c                   15.6653(5)
_cell_angle_alpha                90
_cell_angle_beta                 91.260(2)
_cell_angle_gamma                90
_cell_volume                     836.744
_exptl_crystal_colour            colorless
_exptl_crystal_description       plate
_cell_formula_units_Z            2
loop_
_atom_site_label
_atom_site_type_symbol
_atom_site_fract_x
_atom_site_fract_y
_atom_site_fract_z
F1 F 0.7518(2) 0.84172(11) 0.11418(8)
F2 F 0.4584(2) 0.83710(11) 0.21361(7)
F3 F 0.7842(2) 0.70559(11) 0.21164(8)
O1 O 0.7922(2) 0.30671(12) 0.21414(9)
N1 N 0.3546(3) 0.37596(14) 0.21449(9)
N2 N 0.6348(3) 0.59119(13) 0.40702(9)
C1 C 0.4294(4) 0.15919(18) 0.21454(13)
H1 H 0.5020 0.1140 0.1660
H2 H 0.2285 0.1621 0.2098
H3 H 0.4844 0.1184 0.2679
C2 C 0.5425(3) 0.28710(16) 0.21445(10)
C3 C 0.4210(3) 0.50522(17) 0.21615(10)
H4 H 0.6251 0.5136 0.2218
C4 C 0.3265(3) 0.56880(16) 0.13316(11)
C5 C 0.1380(4) 0.51031(19) 0.07873(11)
H5 H 0.0715 0.4322 0.0942
C6 C 0.0444(4) 0.56248(19) 0.00274(12)
H6 H -0.0863 0.5205 -0.0323
C7 C 0.1403(4) 0.67475(19) -0.02200(12)
H7 H 0.0791 0.7101 -0.0744
H8 H 0.185(6) 0.355(2) 0.2180(16)
C8 C 0.3277(4) 0.73550(18) 0.03072(12)
H9 H 0.3948 0.8130 0.0140
C9 C 0.4192(4) 0.68482(17) 0.10779(11)
C10 C 0.6047(4) 0.76477(18) 0.16171(12)
C11 C 0.2921(3) 0.56257(16) 0.29589(11)
H10 H 0.3041 0.6524 0.2920
H11 H 0.0952 0.5401 0.2975
C12 C 0.4348(3) 0.52055(16) 0.37722(10)
C13 C 0.3553(4) 0.41055(16) 0.41782(11)
H12 H 0.2126 0.3617 0.3936
C14 C 0.4856(4) 0.37591(17) 0.49169(11)
H13 H 0.4348 0.3026 0.5195
C15 C 0.6971(3) 0.45002(16) 0.52666(11)
C16 C 0.8385(4) 0.42297(17) 0.60468(11)
H14 H 0.7928 0.3516 0.6356
C17 C 1.0396(4) 0.49890(19) 0.63541(11)
H15 H 1.1332 0.4800 0.6876
C18 C 1.1096(4) 0.60548(18) 0.59015(12)
H16 H 1.2492 0.6579 0.6122
C19 C 0.9773(4) 0.63353(16) 0.51474(11)
H17 H 1.0270 0.7049 0.4845
C20 C 0.7666(3) 0.55674(16) 0.48141(11)
loop_
_geom_bond_atom_site_label_1
_geom_bond_atom_site_label_2
_geom_bond_site_symmetry_1
_geom_bond_site_symmetry_2
F1 C10 1_555 1_555
F2 C10 1_555 1_555
F3 C10 1_555 1_555
O1 C2 1_555 1_555
N1 C2 1_555 1_555
N2 C12 1_555 1_555
C1 H1 1_555 1_555
H2 C1 1_555 1_555
H3 C1 1_555 1_555
C2 C1 1_555 1_555
C3 N1 1_555 1_555
H4 C3 1_555 1_555
C4 C3 1_555 1_555
C5 C4 1_555 1_555
H5 C5 1_555 1_555
C6 C5 1_555 1_555
H6 C6 1_555 1_555
C7 C6 1_555 1_555
H7 C7 1_555 1_555
H8 N1 1_555 1_555
C8 C7 1_555 1_555
H9 C8 1_555 1_555
C9 C4 1_555 1_555
C10 C9 1_555 1_555
C11 C3 1_555 1_555
H10 C11 1_555 1_555
H11 C11 1_555 1_555
C12 C11 1_555 1_555
C13 C12 1_555 1_555
H12 C13 1_555 1_555
C14 C13 1_555 1_555
H13 C14 1_555 1_555
C15 C14 1_555 1_555
C16 C15 1_555 1_555
H14 C16 1_555 1_555
C17 C16 1_555 1_555
H15 C17 1_555 1_555
C18 C17 1_555 1_555
H16 C18 1_555 1_555
C19 C18 1_555 1_555
H17 C19 1_555 1_555
C20 N2 1_555 1_555
C8 C9 1_555 1_555
C15 C20 1_555 1_555
C19 C20 1_555 1_555

#END
