
#######################################################################
#
#                 Cambridge Crystallographic Data Centre
#                                CCDC 
#
#######################################################################
#
# If this CIF has been generated from an entry in the Cambridge 
# Structural Database, then it will include bibliographic, chemical, 
# crystal, experimental, refinement or atomic coordinate data resulting 
# from the CCDC's data processing and validation procedures.
#
#######################################################################

data_UTUXAK
_chemical_formula_moiety         'C19 H14 F7 N1 O3'
_chemical_name_systematic        
'methyl (R)-4-(4-oxo-4-((2,3,5,6-tetrafluoro-4-(trifluoromethyl)phenyl)amino)butan-2-yl)benzoate'
_symmetry_cell_setting           orthorhombic
_symmetry_space_group_name_H-M   'P 21 21 21'
_symmetry_Int_Tables_number      19
_space_group_name_Hall           'P 2ac 2ab'
loop_
_symmetry_equiv_pos_site_id
_symmetry_equiv_pos_as_xyz
1 x,y,z
2 1/2+x,1/2-y,-z
3 -x,1/2+y,1/2-z
4 1/2-x,-y,1/2+z
_cell_length_a                   4.81150(10)
_cell_length_b                   9.9103(2)
_cell_length_c                   37.8649(9)
_cell_angle_alpha                90
_cell_angle_beta                 90
_cell_angle_gamma                90
_cell_volume                     1805.53
_exptl_crystal_colour            colorless
_exptl_crystal_description       needle
_cell_formula_units_Z            4
loop_
_atom_site_label
_atom_site_type_symbol
_atom_site_fract_x
_atom_site_fract_y
_atom_site_fract_z
F1 F 0.3429(3) 0.37814(13) -0.06806(3)
F2 F 0.6601(3) 0.52925(14) -0.07333(3)
F3 F 0.7674(3) 0.32861(14) -0.05661(3)
F4 F 0.8876(3) 0.33339(12) 0.00900(3)
F5 F 0.7743(3) 0.41347(13) 0.07340(3)
F6 F 0.0655(2) 0.69688(12) 0.02989(3)
F7 F 0.1605(3) 0.60751(12) -0.03517(3)
O1 O 0.0480(4) 0.77449(19) 0.32131(4)
O2 O 0.7922(3) 0.66268(17) 0.10460(4)
O3 O -0.1071(6) 0.9786(2) 0.30663(5)
C1 C 0.5769(5) 0.4248(2) -0.05346(6)
C2 C 0.5292(4) 0.4680(2) -0.01576(5)
C3 C 0.6814(4) 0.4234(2) 0.01300(5)
C4 C 0.6274(5) 0.4671(2) 0.04700(5)
C5 C 0.4200(4) 0.5613(2) 0.05367(5)
N1 N 0.3546(4) 0.60929(18) 0.08751(5)
C6 C 0.5427(4) 0.6605(2) 0.11077(5)
C7 C 0.4151(5) 0.7106(2) 0.14483(6)
H1 H 0.3755 0.6320 0.1602
H2 H 0.2356 0.7546 0.1393
C8 C 0.5964(5) 0.8107(2) 0.16550(5)
H3 H 0.7808 0.7674 0.1699
C9 C 0.4552(4) 0.8341(2) 0.20105(6)
C10 C 0.2650(5) 0.9378(2) 0.20643(6)
H4 H 0.2284 1.0002 0.1880
C11 C 0.1283(5) 0.9512(2) 0.23846(6)
H5 H -0.0015 1.0223 0.2418
C12 C 0.1803(5) 0.8611(2) 0.26573(6)
C13 C 0.0250(5) 0.8798(2) 0.29943(6)
C14 C -0.1024(8) 0.7877(3) 0.35416(7)
H6 H -0.0440 0.8705 0.3662
H7 H -0.0630 0.7097 0.3693
H8 H -0.3023 0.7919 0.3493
C15 C 0.2681(4) 0.6059(2) 0.02483(6)
C16 C 0.3184(4) 0.5598(2) -0.00881(5)
C17 C 0.3710(5) 0.7573(2) 0.26076(6)
H9 H 0.4080 0.6954 0.2793
C18 C 0.5070(5) 0.7444(2) 0.22868(6)
H10 H 0.6373 0.6734 0.2254
C19 C 0.6448(5) 0.9401(2) 0.14463(6)
H11 H 0.4662 0.9756 0.1364
H12 H 0.7642 0.9208 0.1243
H13 H 0.7353 1.0071 0.1598
H14 H 0.191(6) 0.624(2) 0.0915(6)
loop_
_geom_bond_atom_site_label_1
_geom_bond_atom_site_label_2
_geom_bond_site_symmetry_1
_geom_bond_site_symmetry_2
F1 C1 1_555 1_555
F2 C1 1_555 1_555
F3 C1 1_555 1_555
F4 C3 1_555 1_555
F5 C4 1_555 1_555
F6 C15 1_555 1_555
F7 C16 1_555 1_555
O1 C13 1_555 1_555
O2 C6 1_555 1_555
O3 C13 1_555 1_555
C1 C2 1_555 1_555
C2 C3 1_555 1_555
C3 C4 1_555 1_555
C4 C5 1_555 1_555
C5 N1 1_555 1_555
N1 C6 1_555 1_555
C6 C7 1_555 1_555
C7 H1 1_555 1_555
H2 C7 1_555 1_555
C8 C7 1_555 1_555
H3 C8 1_555 1_555
C9 C8 1_555 1_555
C10 C9 1_555 1_555
H4 C10 1_555 1_555
C11 C10 1_555 1_555
H5 C11 1_555 1_555
C12 C11 1_555 1_555
C13 C12 1_555 1_555
C14 O1 1_555 1_555
H6 C14 1_555 1_555
H7 C14 1_555 1_555
H8 C14 1_555 1_555
C15 C5 1_555 1_555
C16 C2 1_555 1_555
C17 C12 1_555 1_555
H9 C17 1_555 1_555
C18 C9 1_555 1_555
H10 C18 1_555 1_555
C19 C8 1_555 1_555
H11 C19 1_555 1_555
H12 C19 1_555 1_555
H13 C19 1_555 1_555
H14 N1 1_555 1_555
C15 C16 1_555 1_555
C17 C18 1_555 1_555

#END
