
#######################################################################
#
#                 Cambridge Crystallographic Data Centre
#                                CCDC 
#
#######################################################################
#
# If this CIF has been generated from an entry in the Cambridge 
# Structural Database, then it will include bibliographic, chemical, 
# crystal, experimental, refinement or atomic coordinate data resulting 
# from the CCDC's data processing and validation procedures.
#
#######################################################################

data_UTUXEO
_chemical_formula_moiety         'C25 H18 F7 N1 O3,C1 H1 Cl3'
_chemical_name_systematic        
'methyl (S)-4-(3-oxo-3-((2,3,5,6-tetrafluoro-4-(trifluoromethyl)phenyl)amino)-1-(p-tolyl)propyl)benzoate chloroform solvate'
_symmetry_cell_setting           monoclinic
_symmetry_space_group_name_H-M   'P 21'
_symmetry_Int_Tables_number      4
_space_group_name_Hall           'P 2yb'
loop_
_symmetry_equiv_pos_site_id
_symmetry_equiv_pos_as_xyz
1 x,y,z
2 -x,1/2+y,-z
_cell_length_a                   14.2387(7)
_cell_length_b                   4.8055(2)
_cell_length_c                   19.7469(8)
_cell_angle_alpha                90
_cell_angle_beta                 100.492(3)
_cell_angle_gamma                90
_cell_volume                     1328.57
_exptl_crystal_colour            colorless
_exptl_crystal_description       needle
_cell_formula_units_Z            2
loop_
_atom_site_label
_atom_site_type_symbol
_atom_site_fract_x
_atom_site_fract_y
_atom_site_fract_z
Cl1 Cl 0.05686(14) 0.0611(4) 0.79735(9)
Cl2 Cl -0.11826(17) -0.2308(8) 0.80167(13)
Cl3 Cl -0.0054(2) -0.0196(7) 0.92686(10)
C1 C -0.0033(5) -0.1595(18) 0.8464(4)
H1 H 0.0325 -0.3393 0.8532
H2 H 0.359(7) 0.45(2) 0.775(5)
F1 F 0.4701(2) -0.1288(7) 0.87181(16)
F2 F 0.4350(3) -0.2616(7) 0.99354(16)
F3 F 0.2251(2) 0.5433(6) 0.84559(16)
F4 F 0.1921(3) 0.4264(8) 0.97017(19)
F5 F 0.2082(4) -0.0770(11) 1.0576(2)
F6 F 0.3000(5) 0.2601(11) 1.0945(2)
F7 F 0.3561(5) -0.1438(13) 1.0949(2)
O1 O 0.3396(2) -0.1557(7) 0.74705(17)
O2 O 0.3415(3) 0.4933(9) 0.30770(19)
O3 O 0.4629(3) 0.1894(9) 0.3274(2)
N1 N 0.3643(3) 0.2810(8) 0.7889(2)
C2 C 0.2933(6) 0.0274(15) 1.0589(3)
C3 C 0.3994(4) 0.0057(10) 0.8941(2)
C4 C 0.3818(4) -0.0613(10) 0.9593(3)
C5 C 0.3133(5) 0.0781(12) 0.9874(3)
C6 C 0.2616(4) 0.2837(12) 0.9471(3)
C7 C 0.2784(4) 0.3463(10) 0.8830(3)
C8 C 0.3482(3) 0.2097(10) 0.8546(2)
C9 C 0.3546(3) 0.0883(9) 0.7370(2)
C10 C 0.3654(3) 0.2004(9) 0.6675(2)
H3 H 0.4287 0.1466 0.6577
H4 H 0.3622 0.4062 0.6682
C11 C 0.2866(3) 0.0882(10) 0.6101(2)
H5 H 0.2871 -0.1189 0.6151
C12 C 0.3130(3) 0.1505(9) 0.5400(2)
C13 C 0.2691(3) 0.3592(11) 0.4973(2)
H6 H 0.2206 0.4686 0.5115
C14 C 0.2953(4) 0.4104(10) 0.4339(2)
H7 H 0.2651 0.5550 0.4051
C15 C 0.3657(3) 0.2494(10) 0.4129(2)
C16 C 0.4105(3) 0.0410(10) 0.4550(2)
H8 H 0.4590 -0.0684 0.4407
C17 C 0.3845(3) -0.0080(10) 0.5184(2)
H9 H 0.4156 -0.1507 0.5475
C18 C 0.3963(4) 0.3027(11) 0.3451(2)
C19 C 0.3674(5) 0.5682(17) 0.2432(3)
H10 H 0.3132 0.6596 0.2140
H11 H 0.3848 0.4003 0.2202
H12 H 0.4220 0.6959 0.2515
C20 C 0.1871(3) 0.1843(10) 0.6157(2)
C21 C 0.1078(3) 0.0507(10) 0.5757(2)
H13 H 0.1179 -0.0968 0.5458
C22 C 0.0156(4) 0.1305(10) 0.5791(3)
H14 H -0.0365 0.0375 0.5514
C23 C -0.0022(3) 0.3448(11) 0.6225(3)
C24 C 0.0758(4) 0.4776(11) 0.6618(3)
H15 H 0.0657 0.6252 0.6917
C25 C 0.1686(3) 0.3970(10) 0.6579(2)
H16 H 0.2207 0.4918 0.6852
C26 C -0.1024(4) 0.4276(13) 0.6284(3)
H17 H -0.1245 0.3111 0.6631
H18 H -0.1447 0.4022 0.5838
H19 H -0.1031 0.6234 0.6422
loop_
_geom_bond_atom_site_label_1
_geom_bond_atom_site_label_2
_geom_bond_site_symmetry_1
_geom_bond_site_symmetry_2
Cl1 C1 1_555 1_555
Cl2 C1 1_555 1_555
Cl3 C1 1_555 1_555
C1 H1 1_555 1_555
H2 N1 1_555 1_555
F1 C3 1_555 1_555
F2 C4 1_555 1_555
F3 C7 1_555 1_555
F4 C6 1_555 1_555
F5 C2 1_555 1_555
F6 C2 1_555 1_555
F7 C2 1_555 1_555
O1 C9 1_555 1_555
O2 C18 1_555 1_555
O3 C18 1_555 1_555
N1 C8 1_555 1_555
C2 C5 1_555 1_555
C3 C4 1_555 1_555
C4 C5 1_555 1_555
C5 C6 1_555 1_555
C6 C7 1_555 1_555
C7 C8 1_555 1_555
C8 C3 1_555 1_555
C9 N1 1_555 1_555
C10 C9 1_555 1_555
H3 C10 1_555 1_555
H4 C10 1_555 1_555
C11 C10 1_555 1_555
H5 C11 1_555 1_555
C12 C11 1_555 1_555
C13 C12 1_555 1_555
H6 C13 1_555 1_555
C14 C13 1_555 1_555
H7 C14 1_555 1_555
C15 C14 1_555 1_555
C16 C15 1_555 1_555
H8 C16 1_555 1_555
C17 C12 1_555 1_555
H9 C17 1_555 1_555
C18 C15 1_555 1_555
C19 O2 1_555 1_555
H10 C19 1_555 1_555
H11 C19 1_555 1_555
H12 C19 1_555 1_555
C20 C11 1_555 1_555
C21 C20 1_555 1_555
H13 C21 1_555 1_555
C22 C21 1_555 1_555
H14 C22 1_555 1_555
C23 C22 1_555 1_555
C24 C23 1_555 1_555
H15 C24 1_555 1_555
C25 C20 1_555 1_555
H16 C25 1_555 1_555
C26 C23 1_555 1_555
H17 C26 1_555 1_555
H18 C26 1_555 1_555
H19 C26 1_555 1_555
C16 C17 1_555 1_555
C24 C25 1_555 1_555

#END
