
#######################################################################
#
#                 Cambridge Crystallographic Data Centre
#                                CCDC 
#
#######################################################################
#
# If this CIF has been generated from an entry in the Cambridge 
# Structural Database, then it will include bibliographic, chemical, 
# crystal, experimental, refinement or atomic coordinate data resulting 
# from the CCDC's data processing and validation procedures.
#
#######################################################################

data_UTUXIS
_chemical_formula_moiety         'C16 H20 N2 O1'
_chemical_name_systematic        (S)-N-(1-(quinolin-2-yl)pentan-2-yl)acetamide
_symmetry_cell_setting           orthorhombic
_symmetry_space_group_name_H-M   'P 21 21 21'
_symmetry_Int_Tables_number      19
_space_group_name_Hall           'P 2ac 2ab'
loop_
_symmetry_equiv_pos_site_id
_symmetry_equiv_pos_as_xyz
1 x,y,z
2 1/2+x,1/2-y,-z
3 -x,1/2+y,1/2-z
4 1/2-x,-y,1/2+z
_cell_length_a                   4.91800(10)
_cell_length_b                   11.3922(3)
_cell_length_c                   24.8372(7)
_cell_angle_alpha                90
_cell_angle_beta                 90
_cell_angle_gamma                90
_cell_volume                     1391.55
_exptl_crystal_colour            'light yellow'
_exptl_crystal_description       needle
_cell_formula_units_Z            4
loop_
_atom_site_label
_atom_site_type_symbol
_atom_site_fract_x
_atom_site_fract_y
_atom_site_fract_z
O1 O 0.2503(2) 0.36965(10) 0.06994(6)
N1 N -0.1878(3) 0.42940(10) 0.07192(5)
H1 H -0.362(4) 0.4062(17) 0.0717(8)
N2 N 0.1046(3) 0.65327(10) 0.18916(5)
C1 C -0.0958(4) 0.22230(13) 0.06631(7)
H2 H -0.0331 0.1867 0.0326
H3 H -0.2950 0.2219 0.0673
H4 H -0.0251 0.1773 0.0969
C2 C 0.0054(3) 0.34698(13) 0.06968(6)
C3 C -0.1362(3) 0.55558(12) 0.07266(6)
H5 H 0.0646 0.5689 0.0711
C4 C -0.2671(3) 0.61306(12) 0.02332(5)
H6 H -0.4638 0.5946 0.0234
H7 H -0.2485 0.6993 0.0266
C5 C -0.1471(3) 0.57503(13) -0.03048(6)
H8 H -0.1693 0.4892 -0.0347
H9 H 0.0499 0.5929 -0.0310
C6 C -0.2857(3) 0.63761(14) -0.07725(6)
H10 H -0.2001 0.6138 -0.1112
H11 H -0.2674 0.7227 -0.0727
H12 H -0.4789 0.6166 -0.0780
C7 C -0.2472(3) 0.61077(12) 0.12477(6)
H13 H -0.2468 0.6972 0.1208
H14 H -0.4381 0.5855 0.1298
C8 C -0.0874(3) 0.57862(12) 0.17427(6)
C9 C -0.1446(3) 0.47365(13) 0.20295(6)
H15 H -0.2791 0.4208 0.1900
C10 C -0.0060(3) 0.44911(12) 0.24899(6)
H16 H -0.0440 0.3795 0.2686
C11 C 0.1951(3) 0.52830(12) 0.26730(6)
C12 C 0.3410(3) 0.51307(13) 0.31587(6)
H17 H 0.3058 0.4465 0.3378
C13 C 0.5321(3) 0.59313(13) 0.33157(6)
H18 H 0.6270 0.5824 0.3645
C14 C 0.5889(3) 0.69163(13) 0.29910(6)
H19 H 0.7233 0.7465 0.3101
C15 C 0.4516(3) 0.70874(12) 0.25181(6)
H20 H 0.4937 0.7747 0.2299
C16 C 0.2474(3) 0.62889(12) 0.23525(6)
loop_
_geom_bond_atom_site_label_1
_geom_bond_atom_site_label_2
_geom_bond_site_symmetry_1
_geom_bond_site_symmetry_2
O1 C2 1_555 1_555
N1 H1 1_555 1_555
N2 C8 1_555 1_555
C1 H2 1_555 1_555
H3 C1 1_555 1_555
H4 C1 1_555 1_555
C2 N1 1_555 1_555
C3 N1 1_555 1_555
H5 C3 1_555 1_555
C4 C3 1_555 1_555
H6 C4 1_555 1_555
H7 C4 1_555 1_555
C5 C4 1_555 1_555
H8 C5 1_555 1_555
H9 C5 1_555 1_555
C6 C5 1_555 1_555
H10 C6 1_555 1_555
H11 C6 1_555 1_555
H12 C6 1_555 1_555
C7 C3 1_555 1_555
H13 C7 1_555 1_555
H14 C7 1_555 1_555
C8 C7 1_555 1_555
C9 C8 1_555 1_555
H15 C9 1_555 1_555
C10 C9 1_555 1_555
H16 C10 1_555 1_555
C11 C10 1_555 1_555
C12 C11 1_555 1_555
H17 C12 1_555 1_555
C13 C12 1_555 1_555
H18 C13 1_555 1_555
C14 C13 1_555 1_555
H19 C14 1_555 1_555
C15 C14 1_555 1_555
H20 C15 1_555 1_555
C16 N2 1_555 1_555
C1 C2 1_555 1_555
C11 C16 1_555 1_555
C15 C16 1_555 1_555

#END
