
#######################################################################
#
#                 Cambridge Crystallographic Data Centre
#                                CCDC 
#
#######################################################################
#
# If this CIF has been generated from an entry in the Cambridge 
# Structural Database, then it will include bibliographic, chemical, 
# crystal, experimental, refinement or atomic coordinate data resulting 
# from the CCDC's data processing and validation procedures.
#
#######################################################################

data_UTUYIT
_chemical_formula_moiety         'C12 H17 N4 1+,F6 P1 1-'
_chemical_name_systematic        
'9-(pyridin-2-yl)-3,4,6,7,8,9-hexahydro-2H-pyrimido[1,2-a]pyrimidin-1-ium hexafluorophosphate'
_symmetry_cell_setting           monoclinic
_symmetry_space_group_name_H-M   'P 21/c'
_symmetry_Int_Tables_number      14
_space_group_name_Hall           '-P 2ybc'
loop_
_symmetry_equiv_pos_site_id
_symmetry_equiv_pos_as_xyz
1 x,y,z
2 -x,1/2+y,1/2-z
3 -x,-y,-z
4 x,1/2-y,1/2+z
_cell_length_a                   8.96475(11)
_cell_length_b                   11.16288(14)
_cell_length_c                   15.67910(16)
_cell_angle_alpha                90
_cell_angle_beta                 102.3080(11)
_cell_angle_gamma                90
_cell_volume                     1532.98
_exptl_crystal_colour            colorless
_exptl_crystal_description       plate
_cell_formula_units_Z            4
loop_
_atom_site_label
_atom_site_type_symbol
_atom_site_fract_x
_atom_site_fract_y
_atom_site_fract_z
P1 P 0.24636(5) 0.80102(5) 0.10357(3)
F1 F 0.1202(5) 0.8957(4) 0.0873(4)
F2 F 0.2763(6) 0.8074(5) 0.20305(19)
F3 F 0.1307(7) 0.6995(5) 0.1005(4)
F4 F 0.2241(4) 0.7834(3) -0.00034(17)
F5 F 0.3753(4) 0.8963(4) 0.0980(4)
F6 F 0.3836(6) 0.7059(5) 0.1140(3)
N1 N -0.04612(16) 0.43662(14) 0.10709(9)
H1 H -0.0225 0.3748 0.0800
N2 N 0.18876(17) 0.41881(14) 0.20372(9)
N3 N 0.00261(17) 0.54864(13) 0.23350(9)
N4 N 0.15937(16) 0.26672(13) 0.09769(9)
C1 C 0.04618(18) 0.46836(14) 0.18132(10)
C2 C -0.1858(8) 0.5012(6) 0.0691(4)
H2 H -0.2543 0.4502 0.0284
H3 H -0.1624 0.5715 0.0379
C3 C -0.2589(4) 0.5377(4) 0.1435(2)
H4 H -0.3479 0.5869 0.1214
H5 H -0.2921 0.4668 0.1701
C4 C -0.1473(2) 0.6064(2) 0.21049(16)
H6 H -0.1353 0.6861 0.1882
H7 H -0.1881 0.6148 0.2627
C5 C 0.1009(2) 0.5927(2) 0.31444(13)
H8 H 0.0395 0.6105 0.3568
H9 H 0.1515 0.6658 0.3028
C6 C 0.2163(5) 0.5004(4) 0.34996(19)
H10 H 0.1667 0.4304 0.3679
H11 H 0.2874 0.5316 0.4005
C7 C 0.3001(3) 0.4668(3) 0.2803(2)
H12 H 0.3511 0.5366 0.2631
H13 H 0.3767 0.4067 0.3023
C8 C 0.25144(18) 0.34358(16) 0.14737(10)
C9 C 0.4059(2) 0.3482(2) 0.14857(18)
H14 H 0.4690 0.4029 0.1839
C10 C 0.4639(3) 0.2701(3) 0.0964(2)
H15 H 0.5674 0.2720 0.0958
C11 C 0.3705(3) 0.1897(2) 0.04526(16)
H16 H 0.4087 0.1355 0.0102
C12 C 0.2186(2) 0.19151(17) 0.04736(12)
H17 H 0.1536 0.1379 0.0121
F7? F 0.1272(13) 0.9009(9) 0.0599(11)
F8? F 0.162(3) 0.8169(10) 0.1870(11)
F9? F 0.1236(12) 0.6985(7) 0.0768(7)
F10? F 0.308(3) 0.8010(14) 0.0289(14)
F11? F 0.3371(10) 0.9198(7) 0.1460(7)
F12? F 0.3378(16) 0.7094(14) 0.1521(14)
H18? H -0.0117 0.3947 0.0695
C13? C -0.2100(15) 0.4737(16) 0.0887(11)
H19? H -0.2530 0.4700 0.0265
H20? H -0.2682 0.4208 0.1184
C14? C -0.2158(9) 0.5961(9) 0.1203(5)
H21? H -0.1634 0.6487 0.0871
H22? H -0.3214 0.6218 0.1108
H23? H -0.2143 0.5704 0.2444
H24? H -0.1363 0.6905 0.2259
H25? H 0.0583 0.5690 0.3638
H26? H 0.1046 0.6795 0.3131
C15? C 0.2650(15) 0.5416(14) 0.3257(9)
H27? H 0.3190 0.5822 0.2867
H28? H 0.3211 0.5535 0.3852
C16? C 0.2520(15) 0.4143(12) 0.3054(6)
H29? H 0.1812 0.3747 0.3350
H30? H 0.3504 0.3745 0.3201
loop_
_geom_bond_atom_site_label_1
_geom_bond_atom_site_label_2
_geom_bond_site_symmetry_1
_geom_bond_site_symmetry_2
P1 F1 1_555 1_555
F2 P1 1_555 1_555
F3 P1 1_555 1_555
F4 P1 1_555 1_555
F5 P1 1_555 1_555
F6 P1 1_555 1_555
N1 H1 1_555 1_555
N2 C1 1_555 1_555
N3 C1 1_555 1_555
N4 C8 1_555 1_555
C1 N1 1_555 1_555
C2 N1 1_555 1_555
H2 C2 1_555 1_555
H3 C2 1_555 1_555
C3 C2 1_555 1_555
H4 C3 1_555 1_555
H5 C3 1_555 1_555
C4 N3 1_555 1_555
H6 C4 1_555 1_555
H7 C4 1_555 1_555
C5 N3 1_555 1_555
H8 C5 1_555 1_555
H9 C5 1_555 1_555
C6 C5 1_555 1_555
H10 C6 1_555 1_555
H11 C6 1_555 1_555
C7 N2 1_555 1_555
H12 C7 1_555 1_555
H13 C7 1_555 1_555
C8 N2 1_555 1_555
C9 C8 1_555 1_555
H14 C9 1_555 1_555
C10 C9 1_555 1_555
H15 C10 1_555 1_555
C11 C10 1_555 1_555
H16 C11 1_555 1_555
C12 N4 1_555 1_555
H17 C12 1_555 1_555
C3 C4 1_555 1_555
C6 C7 1_555 1_555
C11 C12 1_555 1_555

#END
