
#######################################################################
#
#                 Cambridge Crystallographic Data Centre
#                                CCDC 
#
#######################################################################
#
# If this CIF has been generated from an entry in the Cambridge 
# Structural Database, then it will include bibliographic, chemical, 
# crystal, experimental, refinement or atomic coordinate data resulting 
# from the CCDC's data processing and validation procedures.
#
#######################################################################

data_UTUYEP
_chemical_formula_moiety         'C24 H20 B1 1-,C12 H17 N4 1+'
_chemical_name_systematic        
'9-(pyridin-2-yl)-3,4,6,7,8,9-hexahydro-2H-pyrimido[1,2-a]pyrimidin-1-ium tetraphenylborate'
_symmetry_cell_setting           triclinic
_symmetry_space_group_name_H-M   'P -1'
_symmetry_Int_Tables_number      2
_space_group_name_Hall           '-P 1'
loop_
_symmetry_equiv_pos_site_id
_symmetry_equiv_pos_as_xyz
1 x,y,z
2 -x,-y,-z
_cell_length_a                   10.6291(3)
_cell_length_b                   11.8059(5)
_cell_length_c                   13.0252(5)
_cell_angle_alpha                69.939(4)
_cell_angle_beta                 76.544(3)
_cell_angle_gamma                69.975(3)
_cell_volume                     1430.14
_exptl_crystal_colour            colorless
_exptl_crystal_description       plate
_cell_formula_units_Z            2
loop_
_atom_site_label
_atom_site_type_symbol
_atom_site_fract_x
_atom_site_fract_y
_atom_site_fract_z
N1 N 0.35601(11) 0.16006(10) 0.00207(9)
N2 N 0.24782(10) 0.05669(9) 0.16763(9)
N3 N 0.27448(11) -0.00374(10) 0.01116(9)
H1 H 0.3213(19) -0.0028(17) -0.0525(17)
N4 N 0.42417(10) 0.10590(10) -0.16470(9)
C1 C 0.29274(11) 0.06957(11) 0.06119(10)
C2 C 0.38984(14) 0.22621(12) 0.06506(11)
H2 H 0.4158 0.2994 0.0151
H3 H 0.4652 0.1708 0.1049
C3 C 0.26800(15) 0.26643(12) 0.14511(12)
H4 H 0.1916 0.3199 0.1058
H5 H 0.2871 0.3133 0.1850
C4 C 0.23616(14) 0.14860(12) 0.22445(11)
H6 H 0.2978 0.1106 0.2795
H7 H 0.1451 0.1711 0.2621
C5 C 0.20046(13) -0.05252(12) 0.23982(11)
H8 H 0.1033 -0.0247 0.2592
H9 H 0.2414 -0.0862 0.3074
C6 C 0.23530(13) -0.15560(11) 0.18491(11)
H10 H 0.3310 -0.1997 0.1831
H11 H 0.1852 -0.2158 0.2259
C7 C 0.19872(14) -0.09539(12) 0.06872(11)
H12 H 0.2217 -0.1591 0.0308
H13 H 0.1025 -0.0538 0.0706
C8 C 0.38047(11) 0.19748(11) -0.11571(10)
C9 C 0.35863(13) 0.32459(12) -0.17398(11)
H14 H 0.3271 0.3862 -0.1374
C10 C 0.38514(13) 0.35661(12) -0.28791(11)
H15 H 0.3730 0.4405 -0.3290
C11 C 0.42995(12) 0.26270(12) -0.34036(11)
H16 H 0.4486 0.2820 -0.4168
C12 C 0.44598(13) 0.13977(12) -0.27554(11)
H17 H 0.4734 0.0769 -0.3104
C13 C 0.57658(12) 0.25818(11) 0.31238(10)
C14 C 0.51786(12) 0.16136(11) 0.37511(10)
H18 H 0.5720 0.0784 0.3882
C15 C 0.38146(13) 0.18480(12) 0.41855(10)
H19 H 0.3471 0.1180 0.4609
C16 C 0.29699(12) 0.30719(12) 0.39890(10)
H20 H 0.2059 0.3231 0.4271
C17 C 0.35107(12) 0.40577(11) 0.33623(10)
H21 H 0.2957 0.4884 0.3215
C18 C 0.48782(12) 0.38073(11) 0.29560(10)
H22 H 0.5221 0.4482 0.2555
C19 C 0.77468(12) 0.28977(11) 0.13693(10)
C20 C 0.67882(12) 0.36429(11) 0.06467(11)
H23 H 0.5879 0.3830 0.0934
C21 C 0.71391(14) 0.41163(12) -0.04851(11)
H24 H 0.6468 0.4608 -0.0933
C22 C 0.84856(14) 0.38567(12) -0.09467(11)
H25 H 0.8724 0.4181 -0.1699
C23 C 0.94694(13) 0.31044(13) -0.02634(11)
H26 H 1.0376 0.2915 -0.0559
C24 C 0.91001(13) 0.26334(12) 0.08628(11)
H27 H 0.9776 0.2121 0.1302
C25 C 0.79133(11) 0.30679(10) 0.33523(10)
C26 C 0.88423(12) 0.37702(11) 0.28808(11)
H28 H 0.9245 0.3817 0.2158
C27 C 0.91844(13) 0.44020(12) 0.34600(12)
H29 H 0.9810 0.4852 0.3120
C28 C 0.85998(13) 0.43637(12) 0.45358(12)
H30 H 0.8813 0.4798 0.4916
C29 C 0.76887(13) 0.36619(12) 0.50355(11)
H31 H 0.7293 0.3617 0.5759
C30 C 0.73688(12) 0.30280(11) 0.44539(10)
H32 H 0.6767 0.2555 0.4809
C31 C 0.81507(11) 0.08194(11) 0.30739(10)
C32 C 0.87244(11) 0.01404(11) 0.40562(10)
H33 H 0.8741 0.0577 0.4525
C33 C 0.92704(12) -0.11662(12) 0.43532(11)
H34 H 0.9643 -0.1583 0.5009
C34 C 0.92602(12) -0.18474(11) 0.36739(11)
H35 H 0.9623 -0.2718 0.3871
C35 C 0.86998(12) -0.12104(12) 0.26954(11)
H36 H 0.8683 -0.1653 0.2232
C36 C 0.81646(13) 0.00929(12) 0.24128(11)
H37 H 0.7798 0.0503 0.1753
B1 B 0.74035(13) 0.23438(12) 0.27124(11)
loop_
_geom_bond_atom_site_label_1
_geom_bond_atom_site_label_2
_geom_bond_site_symmetry_1
_geom_bond_site_symmetry_2
N1 C1 1_555 1_555
N2 C1 1_555 1_555
N3 H1 1_555 1_555
N4 C8 1_555 1_555
C1 N3 1_555 1_555
C2 N1 1_555 1_555
H2 C2 1_555 1_555
H3 C2 1_555 1_555
C3 C2 1_555 1_555
H4 C3 1_555 1_555
H5 C3 1_555 1_555
C4 N2 1_555 1_555
H6 C4 1_555 1_555
H7 C4 1_555 1_555
C5 N2 1_555 1_555
H8 C5 1_555 1_555
H9 C5 1_555 1_555
C6 C5 1_555 1_555
H10 C6 1_555 1_555
H11 C6 1_555 1_555
C7 N3 1_555 1_555
H12 C7 1_555 1_555
H13 C7 1_555 1_555
C8 N1 1_555 1_555
C9 C8 1_555 1_555
H14 C9 1_555 1_555
C10 C9 1_555 1_555
H15 C10 1_555 1_555
C11 C10 1_555 1_555
H16 C11 1_555 1_555
C12 N4 1_555 1_555
H17 C12 1_555 1_555
C13 C14 1_555 1_555
C14 H18 1_555 1_555
C15 C14 1_555 1_555
H19 C15 1_555 1_555
C16 C15 1_555 1_555
H20 C16 1_555 1_555
C17 C16 1_555 1_555
H21 C17 1_555 1_555
C18 C13 1_555 1_555
H22 C18 1_555 1_555
C19 C20 1_555 1_555
C20 H23 1_555 1_555
C21 C20 1_555 1_555
H24 C21 1_555 1_555
C22 C21 1_555 1_555
H25 C22 1_555 1_555
C23 C22 1_555 1_555
H26 C23 1_555 1_555
C24 C19 1_555 1_555
H27 C24 1_555 1_555
C25 C26 1_555 1_555
C26 H28 1_555 1_555
C27 C26 1_555 1_555
H29 C27 1_555 1_555
C28 C27 1_555 1_555
H30 C28 1_555 1_555
C29 C28 1_555 1_555
H31 C29 1_555 1_555
C30 C25 1_555 1_555
H32 C30 1_555 1_555
C31 C32 1_555 1_555
C32 H33 1_555 1_555
C33 C32 1_555 1_555
H34 C33 1_555 1_555
C34 C33 1_555 1_555
H35 C34 1_555 1_555
C35 C34 1_555 1_555
H36 C35 1_555 1_555
C36 C31 1_555 1_555
H37 C36 1_555 1_555
B1 C13 1_555 1_555
C3 C4 1_555 1_555
C6 C7 1_555 1_555
C11 C12 1_555 1_555
C17 C18 1_555 1_555
C19 B1 1_555 1_555
C23 C24 1_555 1_555
C25 B1 1_555 1_555
C29 C30 1_555 1_555
C31 B1 1_555 1_555
C35 C36 1_555 1_555

#END
