
#######################################################################
#
#                 Cambridge Crystallographic Data Centre
#                                CCDC 
#
#######################################################################
#
# If this CIF has been generated from an entry in the Cambridge 
# Structural Database, then it will include bibliographic, chemical, 
# crystal, experimental, refinement or atomic coordinate data resulting 
# from the CCDC's data processing and validation procedures.
#
#######################################################################

data_UTUYUF
_chemical_formula_moiety         'C19 H29 N7 2+,2(C24 H20 B1 1-)'
_chemical_name_systematic        
'9-(6-(3,4,7,8-tetrahydro-2H-pyrimido[1,2-a]pyrimidin-9-ium-1(6H)-yl)pyridin-2-yl)-3,4,6,7,8,9-hexahydro-2H-pyrimido[1,2-a]pyrimidin-1-ium bis(tetraphenylborate)'
_symmetry_cell_setting           triclinic
_symmetry_space_group_name_H-M   'P -1'
_symmetry_Int_Tables_number      2
_space_group_name_Hall           '-P 1'
loop_
_symmetry_equiv_pos_site_id
_symmetry_equiv_pos_as_xyz
1 x,y,z
2 -x,-y,-z
_cell_length_a                   14.8866(4)
_cell_length_b                   21.6382(5)
_cell_length_c                   26.3236(7)
_cell_angle_alpha                82.288(2)
_cell_angle_beta                 74.892(2)
_cell_angle_gamma                88.820(2)
_cell_volume                     8111.3
_exptl_crystal_colour            colorless
_cell_formula_units_Z            6
loop_
_atom_site_label
_atom_site_type_symbol
_atom_site_fract_x
_atom_site_fract_y
_atom_site_fract_z
N1 N -0.30571(14) 0.93187(10) 0.19214(8)
H1 H -0.358(2) 0.9180(14) 0.1783(12)
N2 N -0.21584(13) 0.88046(9) 0.12393(8)
N3 N -0.14615(14) 0.93232(9) 0.17730(8)
N4 N -0.49252(15) 0.97713(9) 0.12189(9)
H2 H -0.446(3) 0.9644(19) 0.0913(17)
N5 N -0.53768(13) 0.87208(8) 0.14049(8)
N6 N -0.61730(14) 0.94487(9) 0.19315(8)
N7 N -0.37670(13) 0.87363(8) 0.13065(7)
C1 C -0.22218(16) 0.91565(10) 0.16478(9)
C2 C -0.12274(16) 0.86466(11) 0.09169(10)
H3 H -0.1258 0.8611 0.0558
H4 H -0.1037 0.8248 0.1069
C3 C -0.05260(17) 0.91426(12) 0.09026(11)
H5 H 0.0087 0.9027 0.0706
H6 H -0.0688 0.9535 0.0726
C4 C -0.05172(17) 0.92121(13) 0.14613(12)
H7 H -0.0278 0.8836 0.1622
H8 H -0.0112 0.9559 0.1458
C5 C -0.15221(19) 0.96299(13) 0.22507(11)
H9 H -0.1465 1.0078 0.2151
H10 H -0.1012 0.9494 0.2403
C6 C -0.2431(2) 0.94733(16) 0.26569(11)
H11 H -0.2489 0.9711 0.2951
H12 H -0.2458 0.9033 0.2794
C7 C -0.3215(2) 0.96306(14) 0.23971(12)
H13 H -0.3805 0.9492 0.2642
H14 H -0.3237 1.0078 0.2301
C8 C -0.54818(15) 0.93250(10) 0.15253(9)
C9 C -0.61777(16) 0.82946(11) 0.16470(10)
H15 H -0.6013 0.7873 0.1574
H16 H -0.6696 0.8422 0.1500
C10 C -0.64469(19) 0.83156(11) 0.22384(11)
H17 H -0.5923 0.8198 0.2384
H18 H -0.6957 0.8025 0.2410
C11 C -0.67382(19) 0.89731(12) 0.23356(11)
H19 H -0.7387 0.9023 0.2335
H20 H -0.6680 0.9038 0.2683
C12 C -0.64003(19) 1.00971(11) 0.20340(11)
H21 H -0.6149 1.0189 0.2321
H22 H -0.7071 1.0139 0.2145
C13 C -0.6009(2) 1.05593(11) 0.15466(12)
H23 H -0.6074 1.0980 0.1639
H24 H -0.6347 1.0526 0.1282
C14 C -0.49887(19) 1.04233(11) 0.13233(11)
H25 H -0.4735 1.0700 0.0997
H26 H -0.4639 1.0486 0.1576
C15 C -0.29200(15) 0.84913(10) 0.11539(9)
C16 C -0.27805(16) 0.79377(10) 0.09273(9)
H27 H -0.2196 0.7758 0.0845
C17 C -0.35360(17) 0.76676(10) 0.08302(9)
H28 H -0.3461 0.7301 0.0676
C18 C -0.44070(16) 0.79328(10) 0.09578(9)
H29 H -0.4915 0.7764 0.0877
C19 C -0.44883(15) 0.84636(10) 0.12121(9)
N8 N -0.08508(14) 0.76243(9) 0.53172(8)
H30 H -0.026(2) 0.7524(14) 0.5215(12)
N9 N -0.10975(13) 0.71760(8) 0.46050(7)
N10 N -0.23171(13) 0.76553(8) 0.51745(8)
N11 N 0.15452(14) 0.81037(8) 0.46705(8)
H31 H 0.135(2) 0.8011(16) 0.4411(14)
N12 N 0.19791(13) 0.70555(8) 0.47538(8)
N13 N 0.22755(14) 0.77277(9) 0.53212(8)
N14 N 0.04533(12) 0.70813(8) 0.46656(7)
C20 C -0.14240(15) 0.74920(9) 0.50362(9)
C21 C -0.17198(16) 0.70617(10) 0.42682(9)
H32 H -0.2033 0.6661 0.4397
H33 H -0.1355 0.7052 0.3906
C22 C -0.24324(17) 0.75711(11) 0.42811(10)
H34 H -0.2124 0.7969 0.4128
H35 H -0.2857 0.7485 0.4074
C23 C -0.29617(16) 0.75969(12) 0.48474(10)
H36 H -0.3375 0.7951 0.4865
H37 H -0.3338 0.7221 0.4983
C24 C -0.27166(17) 0.79045(11) 0.56798(10)
H38 H -0.3354 0.7756 0.5826
H39 H -0.2723 0.8356 0.5614
C25 C -0.21584(18) 0.77046(12) 0.60762(10)
H40 H -0.2387 0.7909 0.6391
H41 H -0.2219 0.7257 0.6182
C26 C -0.11511(18) 0.78835(12) 0.58191(10)
H42 H -0.1081 0.8334 0.5754
H43 H -0.0769 0.7722 0.6053
C27 C 0.19183(15) 0.76359(10) 0.49235(9)
C28 C 0.26484(16) 0.66216(10) 0.49347(10)
H44 H 0.3280 0.6770 0.4767
H45 H 0.2580 0.6211 0.4839
C29 C 0.24537(18) 0.65869(11) 0.55297(10)
H46 H 0.2865 0.6290 0.5661
H47 H 0.1816 0.6449 0.5696
C30 C 0.2610(2) 0.72281(12) 0.56629(11)
H48 H 0.2288 0.7251 0.6031
H49 H 0.3269 0.7292 0.5622
C31 C 0.2318(2) 0.83554(12) 0.54806(12)
H50 H 0.1812 0.8392 0.5793
H51 H 0.2898 0.8403 0.5574
C32 C 0.2251(2) 0.88609(13) 0.50558(13)
H52 H 0.2824 0.8890 0.4775
H53 H 0.2162 0.9256 0.5197
C33 C 0.1427(2) 0.87300(10) 0.48293(11)
H54 H 0.0843 0.8752 0.5096
H55 H 0.1422 0.9037 0.4525
C34 C -0.02347(15) 0.68618(9) 0.44970(8)
C35 C -0.01319(16) 0.63389(10) 0.42293(9)
H56 H -0.0630 0.6173 0.4138
C36 C 0.07423(16) 0.60785(10) 0.41058(9)
H57 H 0.0837 0.5733 0.3924
C37 C 0.14765(15) 0.63235(10) 0.42488(9)
H58 H 0.2073 0.6164 0.4149
C38 C 0.12889(15) 0.68177(9) 0.45473(8)
N15 N 0.39718(13) 0.59524(9) 0.85500(7)
H65 H 0.348(2) 0.5814(14) 0.8412(12)
N16 N 0.49257(12) 0.54771(8) 0.78589(7)
N17 N 0.55615(13) 0.59588(8) 0.84398(7)
N18 N 0.21648(13) 0.63821(8) 0.79872(8)
H66 H 0.266(3) 0.6336(18) 0.7711(16)
N19 N 0.17191(13) 0.53486(8) 0.79960(8)
N20 N 0.07959(13) 0.59909(9) 0.85674(8)
N21 N 0.33237(12) 0.53778(8) 0.79127(7)
C40 C 0.48206(15) 0.58030(9) 0.82881(8)
C41 C 0.58705(15) 0.53602(10) 0.75329(9)
H67 H 0.5856 0.5359 0.7167
H68 H 0.6076 0.4954 0.7661
C42 C 0.65425(15) 0.58556(11) 0.75611(9)
H69 H 0.6370 0.6258 0.7406
H70 H 0.7166 0.5763 0.7364
C43 C 0.65172(16) 0.58721(11) 0.81342(10)
H71 H 0.6755 0.5485 0.8277
H72 H 0.6910 0.6212 0.8162
C44 C 0.54646(17) 0.62138(11) 0.89423(9)
H73 H 0.5526 0.6665 0.8872
H74 H 0.5957 0.6056 0.9101
C45 C 0.45304(18) 0.60344(13) 0.93248(10)
H75 H 0.4500 0.5588 0.9438
H76 H 0.4446 0.6246 0.9636
C46 C 0.37754(18) 0.62198(13) 0.90479(10)
H77 H 0.3176 0.6069 0.9274
H78 H 0.3754 0.6671 0.8976
C47 C 0.15659(15) 0.59141(10) 0.81911(9)
C48 C 0.09150(15) 0.49133(10) 0.81235(9)
H79 H 0.1118 0.4508 0.8023
H80 H 0.0466 0.5070 0.7930
C49 C 0.04781(16) 0.48585(10) 0.87138(10)
H81 H -0.0034 0.4559 0.8814
H82 H 0.0934 0.4715 0.8906
C50 C 0.01280(17) 0.54885(11) 0.88526(11)
H83 H -0.0461 0.5565 0.8763
H84 H 0.0020 0.5491 0.9232
C51 C 0.05602(19) 0.66103(12) 0.87411(14)
H85 H -0.0107 0.6662 0.8807
H86 H 0.0717 0.6617 0.9076
C52 C 0.1003(3) 0.71259(17) 0.83832(16)
H87 H 0.0917 0.7497 0.8559
H88 H 0.0729 0.7196 0.8084
C53 C 0.20841(19) 0.69950(11) 0.81781(11)
H89 H 0.2379 0.7316 0.7893
H90 H 0.2384 0.6992 0.8464
C54 C 0.41893(15) 0.51690(9) 0.77390(8)
C55 C 0.43730(16) 0.46639(10) 0.74528(9)
H91 H 0.4967 0.4501 0.7359
C56 C 0.36378(16) 0.44136(10) 0.73137(9)
H92 H 0.3740 0.4081 0.7117
C57 C 0.27541(16) 0.46509(10) 0.74632(9)
H93 H 0.2264 0.4499 0.7355
C58 C 0.26240(15) 0.51251(9) 0.77806(8)
C60 C 0.10166(16) 0.98867(9) 0.37315(9)
C61 C 0.19865(16) 0.99317(10) 0.35302(9)
H100 H 0.2251 0.9807 0.3200
C62 C 0.25704(17) 1.01541(10) 0.38010(10)
H101 H 0.3211 1.0171 0.3654
C63 C 0.21952(19) 1.03518(10) 0.42934(10)
H102 H 0.2581 1.0488 0.4484
C64 C 0.12426(18) 1.03427(10) 0.44942(10)
H103 H 0.0983 1.0490 0.4816
C65 C 0.06643(17) 1.01141(10) 0.42190(9)
H104 H 0.0024 1.0112 0.4364
C66 C 0.06673(15) 1.00137(10) 0.27981(9)
C67 C 0.09397(16) 0.97590(11) 0.23206(9)
H105 H 0.0922 0.9328 0.2333
C68 C 0.12373(18) 1.01252(12) 0.18263(10)
H106 H 0.1431 0.9936 0.1520
C69 C 0.1244(2) 1.07665(12) 0.17927(11)
H107 H 0.1428 1.1014 0.1465
C70 C 0.0972(2) 1.10344(12) 0.22569(12)
H108 H 0.0972 1.1466 0.2240
C71 C 0.06987(19) 1.06664(11) 0.27465(11)
H109 H 0.0530 1.0860 0.3052
C72 C -0.07271(16) 0.96577(10) 0.36908(9)
C73 C -0.11524(17) 0.92233(11) 0.41308(9)
H110 H -0.0799 0.8896 0.4237
C74 C -0.20750(17) 0.92593(11) 0.44148(10)
H111 H -0.2327 0.8958 0.4701
C75 C -0.26241(17) 0.97456(12) 0.42724(10)
H112 H -0.3240 0.9777 0.4464
C76 C -0.22352(17) 1.01829(11) 0.38395(10)
H113 H -0.2592 1.0511 0.3738
C77 C -0.13115(17) 1.01336(11) 0.35556(9)
H114 H -0.1071 1.0430 0.3263
C78 C 0.05932(16) 0.88547(10) 0.33408(8)
C79 C -0.00252(17) 0.84934(10) 0.31773(9)
H115 H -0.0561 0.8679 0.3113
C80 C 0.01260(18) 0.78689(11) 0.31061(10)
H116 H -0.0300 0.7651 0.2992
C81 C 0.09100(18) 0.75729(10) 0.32054(9)
H117 H 0.1012 0.7156 0.3161
C82 C 0.15378(17) 0.79081(10) 0.33717(9)
H118 H 0.2068 0.7717 0.3439
C83 C 0.13743(16) 0.85357(10) 0.34393(9)
H119 H 0.1802 0.8751 0.3554
B1 B 0.03742(17) 0.95984(11) 0.33931(10)
C84 C 0.53243(15) 0.79730(10) 0.70868(9)
C85 C 0.59715(16) 0.84676(11) 0.69416(9)
H120 H 0.5942 0.8766 0.6657
C86 C 0.66596(17) 0.85330(11) 0.72045(10)
H121 H 0.7070 0.8872 0.7096
C87 C 0.67331(17) 0.80940(11) 0.76258(10)
H122 H 0.7189 0.8135 0.7803
C88 C 0.61154(18) 0.75933(11) 0.77769(10)
H123 H 0.6162 0.7291 0.8055
C89 C 0.54241(16) 0.75372(10) 0.75162(9)
H124 H 0.5013 0.7199 0.7630
C90 C 0.46495(14) 0.83138(10) 0.62188(9)
C91 C 0.46266(17) 0.89709(11) 0.61719(10)
H125 H 0.4533 0.9162 0.6477
C92 C 0.47389(19) 0.93419(11) 0.56883(11)
H126 H 0.4737 0.9774 0.5672
C93 C 0.48549(19) 0.90708(12) 0.52256(10)
H127 H 0.4921 0.9319 0.4901
C94 C 0.48702(17) 0.84278(11) 0.52546(10)
H128 H 0.4942 0.8241 0.4949
C95 C 0.47778(15) 0.80600(10) 0.57451(9)
H129 H 0.4803 0.7629 0.5756
C96 C 0.43393(15) 0.71602(10) 0.67472(8)
C97 C 0.51305(16) 0.67994(10) 0.65698(9)
H130 H 0.5716 0.6967 0.6538
C98 C 0.50681(18) 0.61996(11) 0.64401(9)
H131 H 0.5609 0.5981 0.6318
C99 C 0.42130(18) 0.59276(10) 0.64906(9)
H132 H 0.4173 0.5529 0.6403
C100 C 0.34148(18) 0.62602(11) 0.66752(9)
H133 H 0.2832 0.6083 0.6716
C101 C 0.34892(16) 0.68642(10) 0.67998(9)
H134 H 0.2945 0.7078 0.6924
C102 C 0.35015(15) 0.81734(9) 0.71738(9)
C103 C 0.27060(16) 0.82456(10) 0.69765(9)
H135 H 0.2748 0.8148 0.6638
C104 C 0.18569(16) 0.84569(10) 0.72670(10)
H136 H 0.1344 0.8489 0.7125
C105 C 0.17864(16) 0.86188(10) 0.77683(10)
H137 H 0.1223 0.8753 0.7968
C106 C 0.25604(18) 0.85786(11) 0.79695(10)
H138 H 0.2522 0.8698 0.8301
C107 C 0.34040(16) 0.83578(10) 0.76736(9)
H139 H 0.3916 0.8334 0.7816
B2 B 0.44640(17) 0.79004(11) 0.68131(10)
C108 C -0.48528(15) 0.67387(10) 0.39615(9)
C109 C -0.48048(15) 0.69410(10) 0.44376(9)
H140 H -0.4651 0.7357 0.4431
C110 C -0.49754(16) 0.65532(11) 0.49201(10)
H141 H -0.4932 0.6711 0.5225
C111 C -0.52115(17) 0.59295(11) 0.49458(10)
H142 H -0.5331 0.5666 0.5266
C112 C -0.52652(18) 0.57080(11) 0.44820(11)
H143 H -0.5422 0.5292 0.4492
C113 C -0.50866(17) 0.61026(10) 0.40050(10)
H144 H -0.5123 0.5941 0.3701
C114 C -0.52156(16) 0.69731(9) 0.30002(9)
C115 C -0.61562(16) 0.67887(10) 0.32052(10)
H145 H -0.6428 0.6794 0.3565
C116 C -0.66983(17) 0.65987(10) 0.28933(10)
H146 H -0.7318 0.6482 0.3046
C117 C -0.63143(19) 0.65829(11) 0.23557(11)
H147 H -0.6670 0.6456 0.2145
C118 C -0.53928(19) 0.67593(11) 0.21389(10)
H148 H -0.5126 0.6749 0.1779
C119 C -0.48581(17) 0.69523(10) 0.24545(9)
H149 H -0.4241 0.7072 0.2297
C120 C -0.48757(16) 0.79237(10) 0.35052(9)
C121 C -0.42403(16) 0.83308(10) 0.36000(9)
H150 H -0.3632 0.8199 0.3570
C122 C -0.44716(17) 0.89253(10) 0.37376(10)
H151 H -0.4023 0.9178 0.3799
C123 C -0.53671(18) 0.91398(11) 0.37827(10)
H152 H -0.5527 0.9536 0.3873
C124 C -0.60206(18) 0.87517(12) 0.36910(12)
H153 H -0.6626 0.8888 0.3720
C125 C -0.57781(17) 0.81583(11) 0.35552(11)
H154 H -0.6231 0.7908 0.3495
C126 C -0.34843(16) 0.71729(10) 0.31071(9)
C127 C -0.30546(17) 0.76017(11) 0.26645(10)
H155 H -0.3413 0.7916 0.2543
C128 C -0.21175(17) 0.75780(11) 0.24004(10)
H156 H -0.1863 0.7872 0.2109
C129 C -0.15575(16) 0.71143(12) 0.25723(10)
H157 H -0.0933 0.7092 0.2394
C130 C -0.19491(16) 0.66874(11) 0.30138(10)
H158 H -0.1584 0.6378 0.3136
C131 C -0.28894(16) 0.67217(10) 0.32749(9)
H159 H -0.3135 0.6434 0.3573
B3 B -0.46051(17) 0.72028(11) 0.33891(10)
C132 C 0.26728(16) 0.95080(10) 0.01100(9)
C133 C 0.35332(17) 0.97996(11) 0.00503(10)
H160 H 0.4069 0.9563 -0.0024
C134 C 0.36249(18) 1.04301(11) 0.00976(11)
H161 H 0.4211 1.0603 0.0053
C135 C 0.28393(18) 1.07976(11) 0.02107(10)
H162 H 0.2894 1.1217 0.0243
C136 C 0.19776(17) 1.05299(11) 0.02737(10)
H163 H 0.1446 1.0770 0.0350
C137 C 0.19010(16) 0.99016(10) 0.02242(10)
H164 H 0.1311 0.9734 0.0269
C138 C 0.34966(15) 0.84641(9) -0.02688(9)
C139 C 0.42845(16) 0.83980(10) -0.00693(9)
H165 H 0.4247 0.8518 0.0262
C140 C 0.51244(16) 0.81602(10) -0.03456(9)
H166 H 0.5635 0.8135 -0.0202
C141 C 0.51943(17) 0.79620(10) -0.08350(10)
H167 H 0.5750 0.7806 -0.1023
C142 C 0.44218(17) 0.80011(11) -0.10381(10)
H168 H 0.4455 0.7863 -0.1362
C143 C 0.35904(16) 0.82474(10) -0.07573(10)
H169 H 0.3081 0.8268 -0.0901
C144 C 0.16855(16) 0.86842(10) -0.02145(9)
C145 C 0.15796(17) 0.91150(11) -0.06444(9)
H170 H 0.1986 0.9456 -0.0759
C146 C 0.08901(18) 0.90524(12) -0.09070(10)
H171 H 0.0842 0.9350 -0.1188
C147 C 0.02760(17) 0.85464(12) -0.07489(11)
H172 H -0.0182 0.8501 -0.0923
C148 C 0.03557(18) 0.81131(12) -0.03299(11)
H173 H -0.0050 0.7772 -0.0220
C149 C 0.10470(17) 0.81853(11) -0.00679(10)
H174 H 0.1083 0.7888 0.0216
C150 C 0.22519(15) 0.83577(10) 0.06702(9)
C151 C 0.24810(16) 0.77233(10) 0.07543(10)
H175 H 0.2814 0.7537 0.0465
C152 C 0.22309(18) 0.73646(11) 0.12504(11)
H176 H 0.2405 0.6949 0.1287
C153 C 0.17235(17) 0.76219(11) 0.16898(10)
H177 H 0.1554 0.7383 0.2022
C154 C 0.14724(16) 0.82439(11) 0.16250(10)
H178 H 0.1124 0.8423 0.1914
C155 C 0.17429(15) 0.85996(10) 0.11256(9)
H179 H 0.1578 0.9017 0.1094
B4 B 0.25321(17) 0.87588(11) 0.00711(10)
C156 C 0.19971(15) 0.37052(9) 0.94788(9)
C157 C 0.10703(16) 0.34940(10) 0.96683(9)
H180 H 0.0778 0.3494 1.0027
C158 C 0.05645(17) 0.32836(10) 0.93446(10)
H181 H -0.0050 0.3150 0.9488
C159 C 0.09820(18) 0.32748(10) 0.88087(10)
H182 H 0.0653 0.3132 0.8591
C160 C 0.18922(18) 0.34811(10) 0.86035(10)
H183 H 0.2180 0.3476 0.8245
C161 C 0.23824(16) 0.36978(10) 0.89325(9)
H184 H 0.2990 0.3843 0.8783
C162 C 0.22477(15) 0.34740(10) 1.04591(9)
C163 C 0.21717(18) 0.28267(11) 1.04674(10)
H185 H 0.2289 0.2667 1.0146
C164 C 0.1928(2) 0.24144(11) 1.09361(11)
H186 H 0.1897 0.1988 1.0924
C165 C 0.17308(18) 0.26398(12) 1.14224(10)
H187 H 0.1566 0.2367 1.1737
C166 C 0.17831(16) 0.32760(12) 1.14327(9)
H188 H 0.1642 0.3434 1.1756
C167 C 0.20486(15) 0.36795(10) 1.09575(9)
H189 H 0.2095 0.4104 1.0973
C168 C 0.22932(15) 0.46621(10) 0.99930(8)
C169 C 0.14954(16) 0.49645(10) 0.99015(9)
H190 H 0.1112 0.4759 0.9749
C170 C 0.12543(17) 0.55635(11) 1.00312(10)
H191 H 0.0719 0.5747 0.9964
C171 C 0.18087(17) 0.58829(11) 1.02591(10)
H192 H 0.1648 0.6279 1.0348
C172 C 0.26067(17) 0.56040(11) 1.03529(9)
H193 H 0.2986 0.5814 1.0506
C173 C 0.28409(16) 0.50084(10) 1.02182(9)
H194 H 0.3384 0.4833 1.0280
C174 C 0.36861(15) 0.39004(10) 0.96273(9)
C175 C 0.41380(16) 0.43338(10) 0.91954(9)
H195 H 0.3800 0.4667 0.9083
C176 C 0.50694(16) 0.42875(11) 0.89281(10)
H196 H 0.5339 0.4585 0.8642
C177 C 0.56009(16) 0.37981(11) 0.90862(10)
H197 H 0.6220 0.3759 0.8903
C178 C 0.51872(16) 0.33715(10) 0.95215(9)
H198 H 0.5534 0.3046 0.9637
C179 C 0.42529(15) 0.34264(10) 0.97891(9)
H199 H 0.3996 0.3139 1.0085
B5 B 0.25588(17) 0.39422(11) 0.98867(9)
C180 C -0.07207(15) 0.50325(10) 0.72187(9)
C181 C -0.12071(15) 0.52245(10) 0.77010(9)
H200 H -0.1360 0.5643 0.7707
C182 C -0.14728(16) 0.48161(11) 0.81741(9)
H201 H -0.1806 0.4962 0.8484
C183 C -0.12373(17) 0.41893(11) 0.81804(10)
H202 H -0.1401 0.3915 0.8494
C184 C -0.07535(18) 0.39819(11) 0.77092(10)
H203 H -0.0591 0.3565 0.7707
C185 C -0.05113(16) 0.43944(10) 0.72406(10)
H204 H -0.0198 0.4242 0.6929
C186 C -0.13428(14) 0.55023(9) 0.63802(8)
C187 C -0.20459(15) 0.50428(10) 0.65336(9)
H205 H -0.2046 0.4743 0.6822
C188 C -0.27468(15) 0.50137(10) 0.62725(9)
H206 H -0.3198 0.4699 0.6387
C189 C -0.27680(16) 0.54555(11) 0.58419(10)
H207 H -0.3225 0.5437 0.5662
C190 C -0.20936(17) 0.59271(11) 0.56848(10)
H208 H -0.2104 0.6230 0.5400
C191 C -0.14046(16) 0.59481(10) 0.59503(9)
H209 H -0.0965 0.6271 0.5839
C192 C -0.03162(15) 0.62219(10) 0.67927(8)
C193 C -0.10652(15) 0.66278(10) 0.69260(9)
H210 H -0.1648 0.6505 0.6905
C194 C -0.09736(16) 0.72076(10) 0.70888(9)
H211 H -0.1490 0.7459 0.7176
C195 C -0.01210(19) 0.74044(12) 0.71200(11)
H212 H -0.0055 0.7790 0.7226
C196 C 0.06413(18) 0.70200(13) 0.69911(12)
H213 H 0.1222 0.7148 0.7012
C197 C 0.05377(17) 0.64407(12) 0.68292(11)
H214 H 0.1058 0.6192 0.6743
C198 C 0.04987(15) 0.52876(9) 0.62544(9)
C199 C 0.06297(16) 0.52863(10) 0.57079(9)
H215 H 0.0147 0.5417 0.5557
C200 C 0.14612(17) 0.50956(10) 0.53793(10)
H216 H 0.1516 0.5098 0.5019
C201 C 0.21992(17) 0.49044(11) 0.55868(10)
H217 H 0.2751 0.4778 0.5369
C202 C 0.21010(16) 0.49043(11) 0.61248(10)
H218 H 0.2593 0.4781 0.6270
C203 C 0.12671(16) 0.50881(10) 0.64503(10)
H219 H 0.1217 0.5079 0.6811
B6 B -0.04655(17) 0.55138(11) 0.66558(10)
H59? H 0.2911 0.8559 0.5299
H60? H 0.2241 0.8325 0.5861
C39? C 0.1537(12) 0.8715(7) 0.5326(7)
H61? H 0.0962 0.8551 0.5572
H62? H 0.1602 0.9143 0.5384
H63? H 0.1883 0.9014 0.4582
H64? H 0.0812 0.8880 0.4821
H94? H 0.0198 0.6561 0.9109
H95? H 0.0192 0.6838 0.8526
C59? C 0.1436(5) 0.6960(3) 0.8684(3)
H96? H 0.1279 0.7381 0.8760
H97? H 0.1737 0.6766 0.8949
H98? H 0.2687 0.7129 0.8203
H99? H 0.1881 0.7300 0.7928
loop_
_geom_bond_atom_site_label_1
_geom_bond_atom_site_label_2
_geom_bond_site_symmetry_1
_geom_bond_site_symmetry_2
N1 H1 1_555 1_555
N2 C1 1_555 1_555
N3 C1 1_555 1_555
N4 H2 1_555 1_555
N5 C8 1_555 1_555
N6 C8 1_555 1_555
N7 C15 1_555 1_555
C1 N1 1_555 1_555
C2 N2 1_555 1_555
H3 C2 1_555 1_555
H4 C2 1_555 1_555
C3 C2 1_555 1_555
H5 C3 1_555 1_555
H6 C3 1_555 1_555
C4 N3 1_555 1_555
H7 C4 1_555 1_555
H8 C4 1_555 1_555
C5 N3 1_555 1_555
H9 C5 1_555 1_555
H10 C5 1_555 1_555
C6 C5 1_555 1_555
H11 C6 1_555 1_555
H12 C6 1_555 1_555
C7 N1 1_555 1_555
H13 C7 1_555 1_555
H14 C7 1_555 1_555
C8 N4 1_555 1_555
C9 N5 1_555 1_555
H15 C9 1_555 1_555
H16 C9 1_555 1_555
C10 C9 1_555 1_555
H17 C10 1_555 1_555
H18 C10 1_555 1_555
C11 N6 1_555 1_555
H19 C11 1_555 1_555
H20 C11 1_555 1_555
C12 N6 1_555 1_555
H21 C12 1_555 1_555
H22 C12 1_555 1_555
C13 C12 1_555 1_555
H23 C13 1_555 1_555
H24 C13 1_555 1_555
C14 N4 1_555 1_555
H25 C14 1_555 1_555
H26 C14 1_555 1_555
C15 N2 1_555 1_555
C16 C15 1_555 1_555
H27 C16 1_555 1_555
C17 C16 1_555 1_555
H28 C17 1_555 1_555
C18 C17 1_555 1_555
H29 C18 1_555 1_555
C19 N5 1_555 1_555
N8 H30 1_555 1_555
N9 C20 1_555 1_555
N10 C20 1_555 1_555
N11 H31 1_555 1_555
N12 C27 1_555 1_555
N13 C27 1_555 1_555
N14 C34 1_555 1_555
C20 N8 1_555 1_555
C21 N9 1_555 1_555
H32 C21 1_555 1_555
H33 C21 1_555 1_555
C22 C21 1_555 1_555
H34 C22 1_555 1_555
H35 C22 1_555 1_555
C23 N10 1_555 1_555
H36 C23 1_555 1_555
H37 C23 1_555 1_555
C24 N10 1_555 1_555
H38 C24 1_555 1_555
H39 C24 1_555 1_555
C25 C24 1_555 1_555
H40 C25 1_555 1_555
H41 C25 1_555 1_555
C26 N8 1_555 1_555
H42 C26 1_555 1_555
H43 C26 1_555 1_555
C27 N11 1_555 1_555
C28 N12 1_555 1_555
H44 C28 1_555 1_555
H45 C28 1_555 1_555
C29 C28 1_555 1_555
H46 C29 1_555 1_555
H47 C29 1_555 1_555
C30 N13 1_555 1_555
H48 C30 1_555 1_555
H49 C30 1_555 1_555
C31 N13 1_555 1_555
H50 C31 1_555 1_555
H51 C31 1_555 1_555
C32 C31 1_555 1_555
H52 C32 1_555 1_555
H53 C32 1_555 1_555
C33 N11 1_555 1_555
H54 C33 1_555 1_555
H55 C33 1_555 1_555
C34 N9 1_555 1_555
C35 C34 1_555 1_555
H56 C35 1_555 1_555
C36 C35 1_555 1_555
H57 C36 1_555 1_555
C37 C36 1_555 1_555
H58 C37 1_555 1_555
C38 N12 1_555 1_555
N15 H65 1_555 1_555
N16 C40 1_555 1_555
N17 C40 1_555 1_555
N18 H66 1_555 1_555
N19 C47 1_555 1_555
N20 C47 1_555 1_555
N21 C54 1_555 1_555
C40 N15 1_555 1_555
C41 N16 1_555 1_555
H67 C41 1_555 1_555
H68 C41 1_555 1_555
C42 C41 1_555 1_555
H69 C42 1_555 1_555
H70 C42 1_555 1_555
C43 N17 1_555 1_555
H71 C43 1_555 1_555
H72 C43 1_555 1_555
C44 N17 1_555 1_555
H73 C44 1_555 1_555
H74 C44 1_555 1_555
C45 C44 1_555 1_555
H75 C45 1_555 1_555
H76 C45 1_555 1_555
C46 N15 1_555 1_555
H77 C46 1_555 1_555
H78 C46 1_555 1_555
C47 N18 1_555 1_555
C48 N19 1_555 1_555
H79 C48 1_555 1_555
H80 C48 1_555 1_555
C49 C48 1_555 1_555
H81 C49 1_555 1_555
H82 C49 1_555 1_555
C50 N20 1_555 1_555
H83 C50 1_555 1_555
H84 C50 1_555 1_555
C51 N20 1_555 1_555
H85 C51 1_555 1_555
H86 C51 1_555 1_555
C52 C51 1_555 1_555
H87 C52 1_555 1_555
H88 C52 1_555 1_555
C53 N18 1_555 1_555
H89 C53 1_555 1_555
H90 C53 1_555 1_555
C54 N16 1_555 1_555
C55 C54 1_555 1_555
H91 C55 1_555 1_555
C56 C55 1_555 1_555
H92 C56 1_555 1_555
C57 C56 1_555 1_555
H93 C57 1_555 1_555
C58 N19 1_555 1_555
C60 C61 1_555 1_555
C61 H100 1_555 1_555
C62 C61 1_555 1_555
H101 C62 1_555 1_555
C63 C62 1_555 1_555
H102 C63 1_555 1_555
C64 C63 1_555 1_555
H103 C64 1_555 1_555
C65 C60 1_555 1_555
H104 C65 1_555 1_555
C66 C67 1_555 1_555
C67 H105 1_555 1_555
C68 C67 1_555 1_555
H106 C68 1_555 1_555
C69 C68 1_555 1_555
H107 C69 1_555 1_555
C70 C69 1_555 1_555
H108 C70 1_555 1_555
C71 C66 1_555 1_555
H109 C71 1_555 1_555
C72 C73 1_555 1_555
C73 H110 1_555 1_555
C74 C73 1_555 1_555
H111 C74 1_555 1_555
C75 C74 1_555 1_555
H112 C75 1_555 1_555
C76 C75 1_555 1_555
H113 C76 1_555 1_555
C77 C72 1_555 1_555
H114 C77 1_555 1_555
C78 C79 1_555 1_555
C79 H115 1_555 1_555
C80 C79 1_555 1_555
H116 C80 1_555 1_555
C81 C80 1_555 1_555
H117 C81 1_555 1_555
C82 C81 1_555 1_555
H118 C82 1_555 1_555
C83 C78 1_555 1_555
H119 C83 1_555 1_555
B1 C60 1_555 1_555
C84 C85 1_555 1_555
C85 H120 1_555 1_555
C86 C85 1_555 1_555
H121 C86 1_555 1_555
C87 C86 1_555 1_555
H122 C87 1_555 1_555
C88 C87 1_555 1_555
H123 C88 1_555 1_555
C89 C84 1_555 1_555
H124 C89 1_555 1_555
C90 C91 1_555 1_555
C91 H125 1_555 1_555
C92 C91 1_555 1_555
H126 C92 1_555 1_555
C93 C92 1_555 1_555
H127 C93 1_555 1_555
C94 C93 1_555 1_555
H128 C94 1_555 1_555
C95 C90 1_555 1_555
H129 C95 1_555 1_555
C96 C97 1_555 1_555
C97 H130 1_555 1_555
C98 C97 1_555 1_555
H131 C98 1_555 1_555
C99 C98 1_555 1_555
H132 C99 1_555 1_555
C100 C99 1_555 1_555
H133 C100 1_555 1_555
C101 C96 1_555 1_555
H134 C101 1_555 1_555
C102 C103 1_555 1_555
C103 H135 1_555 1_555
C104 C103 1_555 1_555
H136 C104 1_555 1_555
C105 C104 1_555 1_555
H137 C105 1_555 1_555
C106 C105 1_555 1_555
H138 C106 1_555 1_555
C107 C102 1_555 1_555
H139 C107 1_555 1_555
B2 C84 1_555 1_555
C108 C109 1_555 1_555
C109 H140 1_555 1_555
C110 C109 1_555 1_555
H141 C110 1_555 1_555
C111 C110 1_555 1_555
H142 C111 1_555 1_555
C112 C111 1_555 1_555
H143 C112 1_555 1_555
C113 C108 1_555 1_555
H144 C113 1_555 1_555
C114 C115 1_555 1_555
C115 H145 1_555 1_555
C116 C115 1_555 1_555
H146 C116 1_555 1_555
C117 C116 1_555 1_555
H147 C117 1_555 1_555
C118 C117 1_555 1_555
H148 C118 1_555 1_555
C119 C114 1_555 1_555
H149 C119 1_555 1_555
C120 C121 1_555 1_555
C121 H150 1_555 1_555
C122 C121 1_555 1_555
H151 C122 1_555 1_555
C123 C122 1_555 1_555
H152 C123 1_555 1_555
C124 C123 1_555 1_555
H153 C124 1_555 1_555
C125 C120 1_555 1_555
H154 C125 1_555 1_555
C126 C127 1_555 1_555
C127 H155 1_555 1_555
C128 C127 1_555 1_555
H156 C128 1_555 1_555
C129 C128 1_555 1_555
H157 C129 1_555 1_555
C130 C129 1_555 1_555
H158 C130 1_555 1_555
C131 C126 1_555 1_555
H159 C131 1_555 1_555
B3 C108 1_555 1_555
C132 C133 1_555 1_555
C133 H160 1_555 1_555
C134 C133 1_555 1_555
H161 C134 1_555 1_555
C135 C134 1_555 1_555
H162 C135 1_555 1_555
C136 C135 1_555 1_555
H163 C136 1_555 1_555
C137 C132 1_555 1_555
H164 C137 1_555 1_555
C138 C139 1_555 1_555
C139 H165 1_555 1_555
C140 C139 1_555 1_555
H166 C140 1_555 1_555
C141 C140 1_555 1_555
H167 C141 1_555 1_555
C142 C141 1_555 1_555
H168 C142 1_555 1_555
C143 C138 1_555 1_555
H169 C143 1_555 1_555
C144 C145 1_555 1_555
C145 H170 1_555 1_555
C146 C145 1_555 1_555
H171 C146 1_555 1_555
C147 C146 1_555 1_555
H172 C147 1_555 1_555
C148 C147 1_555 1_555
H173 C148 1_555 1_555
C149 C144 1_555 1_555
H174 C149 1_555 1_555
C150 C151 1_555 1_555
C151 H175 1_555 1_555
C152 C151 1_555 1_555
H176 C152 1_555 1_555
C153 C152 1_555 1_555
H177 C153 1_555 1_555
C154 C153 1_555 1_555
H178 C154 1_555 1_555
C155 C150 1_555 1_555
H179 C155 1_555 1_555
B4 C132 1_555 1_555
C156 C157 1_555 1_555
C157 H180 1_555 1_555
C158 C157 1_555 1_555
H181 C158 1_555 1_555
C159 C158 1_555 1_555
H182 C159 1_555 1_555
C160 C159 1_555 1_555
H183 C160 1_555 1_555
C161 C156 1_555 1_555
H184 C161 1_555 1_555
C162 C163 1_555 1_555
C163 H185 1_555 1_555
C164 C163 1_555 1_555
H186 C164 1_555 1_555
C165 C164 1_555 1_555
H187 C165 1_555 1_555
C166 C165 1_555 1_555
H188 C166 1_555 1_555
C167 C162 1_555 1_555
H189 C167 1_555 1_555
C168 C169 1_555 1_555
C169 H190 1_555 1_555
C170 C169 1_555 1_555
H191 C170 1_555 1_555
C171 C170 1_555 1_555
H192 C171 1_555 1_555
C172 C171 1_555 1_555
H193 C172 1_555 1_555
C173 C168 1_555 1_555
H194 C173 1_555 1_555
C174 C175 1_555 1_555
C175 H195 1_555 1_555
C176 C175 1_555 1_555
H196 C176 1_555 1_555
C177 C176 1_555 1_555
H197 C177 1_555 1_555
C178 C177 1_555 1_555
H198 C178 1_555 1_555
C179 C174 1_555 1_555
H199 C179 1_555 1_555
B5 C156 1_555 1_555
C180 C181 1_555 1_555
C181 H200 1_555 1_555
C182 C181 1_555 1_555
H201 C182 1_555 1_555
C183 C182 1_555 1_555
H202 C183 1_555 1_555
C184 C183 1_555 1_555
H203 C184 1_555 1_555
C185 C180 1_555 1_555
H204 C185 1_555 1_555
C186 C187 1_555 1_555
C187 H205 1_555 1_555
C188 C187 1_555 1_555
H206 C188 1_555 1_555
C189 C188 1_555 1_555
H207 C189 1_555 1_555
C190 C189 1_555 1_555
H208 C190 1_555 1_555
C191 C186 1_555 1_555
H209 C191 1_555 1_555
C192 C193 1_555 1_555
C193 H210 1_555 1_555
C194 C193 1_555 1_555
H211 C194 1_555 1_555
C195 C194 1_555 1_555
H212 C195 1_555 1_555
C196 C195 1_555 1_555
H213 C196 1_555 1_555
C197 C192 1_555 1_555
H214 C197 1_555 1_555
C198 C199 1_555 1_555
C199 H215 1_555 1_555
C200 C199 1_555 1_555
H216 C200 1_555 1_555
C201 C200 1_555 1_555
H217 C201 1_555 1_555
C202 C201 1_555 1_555
H218 C202 1_555 1_555
C203 C198 1_555 1_555
H219 C203 1_555 1_555
B6 C180 1_555 1_555
N7 C19 1_555 1_555
C3 C4 1_555 1_555
C6 C7 1_555 1_555
C10 C11 1_555 1_555
C13 C14 1_555 1_555
C18 C19 1_555 1_555
N14 C38 1_555 1_555
C22 C23 1_555 1_555
C25 C26 1_555 1_555
C29 C30 1_555 1_555
C32 C33 1_555 1_555
C37 C38 1_555 1_555
N21 C58 1_555 1_555
C42 C43 1_555 1_555
C45 C46 1_555 1_555
C49 C50 1_555 1_555
C52 C53 1_555 1_555
C57 C58 1_555 1_555
C64 C65 1_555 1_555
C66 B1 1_555 1_555
C70 C71 1_555 1_555
C72 B1 1_555 1_555
C76 C77 1_555 1_555
C78 B1 1_555 1_555
C82 C83 1_555 1_555
C88 C89 1_555 1_555
C90 B2 1_555 1_555
C94 C95 1_555 1_555
C96 B2 1_555 1_555
C100 C101 1_555 1_555
C102 B2 1_555 1_555
C106 C107 1_555 1_555
C112 C113 1_555 1_555
C114 B3 1_555 1_555
C118 C119 1_555 1_555
C120 B3 1_555 1_555
C124 C125 1_555 1_555
C126 B3 1_555 1_555
C130 C131 1_555 1_555
C136 C137 1_555 1_555
C138 B4 1_555 1_555
C142 C143 1_555 1_555
C144 B4 1_555 1_555
C148 C149 1_555 1_555
C150 B4 1_555 1_555
C154 C155 1_555 1_555
C160 C161 1_555 1_555
C162 B5 1_555 1_555
C166 C167 1_555 1_555
C168 B5 1_555 1_555
C172 C173 1_555 1_555
C174 B5 1_555 1_555
C178 C179 1_555 1_555
C184 C185 1_555 1_555
C186 B6 1_555 1_555
C190 C191 1_555 1_555
C192 B6 1_555 1_555
C196 C197 1_555 1_555
C198 B6 1_555 1_555
C202 C203 1_555 1_555

#END
