
#######################################################################
#
#                 Cambridge Crystallographic Data Centre
#                                CCDC 
#
#######################################################################
#
# If this CIF has been generated from an entry in the Cambridge 
# Structural Database, then it will include bibliographic, chemical, 
# crystal, experimental, refinement or atomic coordinate data resulting 
# from the CCDC's data processing and validation procedures.
#
#######################################################################

data_UTUZIU
_chemical_formula_moiety         'C32 H39 O3 P1'
_chemical_name_systematic        
3-((2-isopropyl-5-methylcyclohexyl)(phenyl)phosphoryl)-1-(4-methoxyphenyl)-3-phenylpropan-1-one
_symmetry_cell_setting           orthorhombic
_symmetry_space_group_name_H-M   'P 21 21 21'
_symmetry_Int_Tables_number      19
_space_group_name_Hall           'P 2ac 2ab'
loop_
_symmetry_equiv_pos_site_id
_symmetry_equiv_pos_as_xyz
1 x,y,z
2 1/2-x,-y,1/2+z
3 1/2+x,1/2-y,-z
4 -x,1/2+y,1/2-z
_cell_length_a                   5.9316(3)
_cell_length_b                   16.4646(10)
_cell_length_c                   29.5614(18)
_cell_angle_alpha                90
_cell_angle_beta                 90
_cell_angle_gamma                90
_cell_volume                     2887.01
_exptl_crystal_colour            colorless
_exptl_crystal_description       block
_chemical_melting_point          '189 deg.C'
_cell_formula_units_Z            4
loop_
_atom_site_label
_atom_site_type_symbol
_atom_site_fract_x
_atom_site_fract_y
_atom_site_fract_z
P1 P 0.36490(15) 0.49905(7) 0.64519(3)
O1 O 0.6045(4) 0.51267(15) 0.63159(8)
O2 O 0.2043(6) 0.2330(2) 0.65664(13)
O3 O 0.9902(8) 0.0030(3) 0.57847(19)
C1 C 0.0671(7) 0.5570(3) 0.71129(14)
H1 H -0.0397 0.5223 0.6988
C2 C 0.0123(8) 0.6027(3) 0.74919(15)
H2 H -0.1294 0.5976 0.7624
C3 C 0.1665(9) 0.6553(3) 0.76714(15)
H3 H 0.1298 0.6857 0.7926
C4 C 0.3754(9) 0.6634(3) 0.74767(14)
H4 H 0.4794 0.6998 0.7596
C5 C 0.4304(7) 0.6171(3) 0.71031(14)
H5 H 0.5722 0.6229 0.6973
C6 C 0.2800(6) 0.5626(2) 0.69186(12)
C7 C 0.5728(8) 0.4048(3) 0.73536(17)
H6 H 0.6841 0.4275 0.7172
C8 C 0.6159(9) 0.3932(3) 0.78053(18)
H7 H 0.7518 0.4106 0.7929
C9 C 0.4593(12) 0.3560(3) 0.80729(17)
H8 H 0.4907 0.3457 0.8376
C10 C 0.2569(10) 0.3342(3) 0.78936(18)
H9 H 0.1488 0.3096 0.8076
C11 C 0.2116(8) 0.3481(3) 0.74459(15)
H10 H 0.0718 0.3333 0.7330
C12 C 0.3686(7) 0.3838(2) 0.71625(14)
C13 C 0.3224(7) 0.3944(2) 0.66620(12)
H11 H 0.1643 0.3801 0.6609
C14 C 0.4689(7) 0.3353(2) 0.63851(14)
H12 H 0.4691 0.3524 0.6071
H13 H 0.6229 0.3379 0.6495
C15 C 0.3879(9) 0.2490(3) 0.64118(14)
C16 C 0.5413(9) 0.1828(3) 0.62475(15)
C17 C 0.4861(12) 0.1030(3) 0.63201(17)
H14 H 0.3519 0.0892 0.6463
C18 C 0.6412(14) 0.0406(3) 0.61693(18)
H15 H 0.6111 -0.0140 0.6222
C19 C 0.8243(13) 0.0628(5) 0.5957(2)
C20 C 0.8766(11) 0.1411(4) 0.5865(3)
H16 H 1.0037 0.1543 0.5696
C21 C 0.7381(9) 0.1998(3) 0.60260(19)
H17 H 0.7785 0.2538 0.5984
C22 C 0.9448(16) -0.0739(4) 0.5898(3)
H18 H 1.0043 -0.0849 0.6194
H19 H 1.0129 -0.1099 0.5682
H20 H 0.7845 -0.0820 0.5899
C23 C -0.1004(12) 0.3718(4) 0.50781(19)
H21 H -0.2219 0.3795 0.4868
H22 H -0.1361 0.3277 0.5278
H23 H 0.0353 0.3594 0.4915
C24 C -0.0657(10) 0.4503(4) 0.53568(18)
H24 H -0.2068 0.4630 0.5514
C25 C -0.0040(11) 0.5223(3) 0.50529(19)
H25 H 0.1325 0.5100 0.4886
H26 H -0.1241 0.5317 0.4836
C26 C 0.0315(10) 0.5975(3) 0.53318(18)
H27 H -0.1084 0.6113 0.5484
H28 H 0.0701 0.6423 0.5133
C27 C 0.2189(7) 0.5875(3) 0.56880(14)
H29 H 0.3554 0.5719 0.5523
C28 C 0.1579(6) 0.5149(2) 0.59971(12)
H30 H 0.0138 0.5279 0.6142
C29 C 0.1198(8) 0.4384(3) 0.57107(14)
H31 H 0.2593 0.4241 0.5559
H32 H 0.0788 0.3936 0.5908
C30 C 0.2743(8) 0.6676(3) 0.59357(15)
H33 H 0.3834 0.6547 0.6174
C31 C 0.0702(9) 0.7073(3) 0.61644(17)
H34 H 0.1198 0.7520 0.6348
H35 H -0.0049 0.6681 0.6351
H36 H -0.0322 0.7268 0.5937
C32 C 0.3886(9) 0.7294(3) 0.56125(17)
H37 H 0.5217 0.7054 0.5484
H38 H 0.4292 0.7773 0.5779
H39 H 0.2858 0.7436 0.5375
loop_
_geom_bond_atom_site_label_1
_geom_bond_atom_site_label_2
_geom_bond_site_symmetry_1
_geom_bond_site_symmetry_2
P1 O1 1_555 1_555
O2 C15 1_555 1_555
O3 C19 1_555 1_555
C1 H1 1_555 1_555
C2 C1 1_555 1_555
H2 C2 1_555 1_555
C3 C2 1_555 1_555
H3 C3 1_555 1_555
C4 C3 1_555 1_555
H4 C4 1_555 1_555
C5 C4 1_555 1_555
H5 C5 1_555 1_555
C6 P1 1_555 1_555
C7 H6 1_555 1_555
C8 C7 1_555 1_555
H7 C8 1_555 1_555
C9 C8 1_555 1_555
H8 C9 1_555 1_555
C10 C9 1_555 1_555
H9 C10 1_555 1_555
C11 C10 1_555 1_555
H10 C11 1_555 1_555
C12 C7 1_555 1_555
C13 P1 1_555 1_555
H11 C13 1_555 1_555
C14 C13 1_555 1_555
H12 C14 1_555 1_555
H13 C14 1_555 1_555
C15 C14 1_555 1_555
C16 C15 1_555 1_555
C17 C16 1_555 1_555
H14 C17 1_555 1_555
C18 C17 1_555 1_555
H15 C18 1_555 1_555
C19 C18 1_555 1_555
C20 C19 1_555 1_555
H16 C20 1_555 1_555
C21 C16 1_555 1_555
H17 C21 1_555 1_555
C22 O3 1_555 1_555
H18 C22 1_555 1_555
H19 C22 1_555 1_555
H20 C22 1_555 1_555
C23 H21 1_555 1_555
H22 C23 1_555 1_555
H23 C23 1_555 1_555
C24 C23 1_555 1_555
H24 C24 1_555 1_555
C25 C24 1_555 1_555
H25 C25 1_555 1_555
H26 C25 1_555 1_555
C26 C25 1_555 1_555
H27 C26 1_555 1_555
H28 C26 1_555 1_555
C27 C26 1_555 1_555
H29 C27 1_555 1_555
C28 P1 1_555 1_555
H30 C28 1_555 1_555
C29 C24 1_555 1_555
H31 C29 1_555 1_555
H32 C29 1_555 1_555
C30 C27 1_555 1_555
H33 C30 1_555 1_555
C31 C30 1_555 1_555
H34 C31 1_555 1_555
H35 C31 1_555 1_555
H36 C31 1_555 1_555
C32 C30 1_555 1_555
H37 C32 1_555 1_555
H38 C32 1_555 1_555
H39 C32 1_555 1_555
C1 C6 1_555 1_555
C5 C6 1_555 1_555
C11 C12 1_555 1_555
C12 C13 1_555 1_555
C20 C21 1_555 1_555
C27 C28 1_555 1_555
C28 C29 1_555 1_555

#END
