
#######################################################################
#
#                 Cambridge Crystallographic Data Centre
#                                CCDC 
#
#######################################################################
#
# If this CIF has been generated from an entry in the Cambridge 
# Structural Database, then it will include bibliographic, chemical, 
# crystal, experimental, refinement or atomic coordinate data resulting 
# from the CCDC's data processing and validation procedures.
#
#######################################################################

data_UVATOB
_chemical_formula_moiety         'C29 H31 N1 O10 S1'
_chemical_name_systematic        
'Dimethyl 3-((4-methylphenyl)sulfonyl)-2-phenyl-5-(3,4,5-trimethoxyphenyl)-1,3-oxazolidine-4,4-dicarboxylate'
_symmetry_cell_setting           triclinic
_symmetry_space_group_name_H-M   'P -1'
_symmetry_Int_Tables_number      2
_space_group_name_Hall           '-P 1'
loop_
_symmetry_equiv_pos_site_id
_symmetry_equiv_pos_as_xyz
1 x,y,z
2 -x,-y,-z
_cell_length_a                   11.3456(4)
_cell_length_b                   11.9555(5)
_cell_length_c                   12.1699(5)
_cell_angle_alpha                83.2260(10)
_cell_angle_beta                 64.7520(10)
_cell_angle_gamma                78.1390(10)
_cell_volume                     1460.32
_exptl_crystal_colour            colorless
_exptl_crystal_description       block
_cell_formula_units_Z            2
loop_
_atom_site_label
_atom_site_type_symbol
_atom_site_fract_x
_atom_site_fract_y
_atom_site_fract_z
S1 S 0.96902(4) 0.20619(3) 0.19968(3)
O1 O 1.32910(11) 0.19765(9) 0.14375(10)
O2 O 0.97947(12) 0.25340(10) 0.08297(10)
O3 O 0.91740(11) 0.10261(9) 0.24572(11)
O4 O 1.14251(12) 0.13675(10) 0.40559(10)
O5 O 1.16502(15) -0.05244(10) 0.39967(12)
O6 O 1.17191(12) 0.00192(10) 0.04905(10)
O7 O 1.13103(14) -0.12107(10) 0.20898(12)
O8 O 1.62490(12) 0.01114(10) 0.35767(11)
O9 O 1.68292(12) -0.21046(10) 0.31039(11)
O10 O 1.57609(13) -0.29766(10) 0.18816(12)
N1 N 1.11647(13) 0.18075(10) 0.19941(12)
C1 C 1.17464(18) 0.46304(15) 0.07744(19)
H1 H 1.1901 0.4461 -0.0024
C2 C 1.1459(2) 0.57570(16) 0.1106(2)
H2 H 1.1416 0.6359 0.0534
C3 C 1.1238(2) 0.60067(16) 0.2257(2)
H3 H 1.1060 0.6781 0.2475
C4 C 1.1271(2) 0.51327(16) 0.3101(2)
H4 H 1.1098 0.5306 0.3904
C5 C 1.15570(19) 0.40064(15) 0.27778(18)
H5 H 1.1582 0.3407 0.3358
C6 C 1.18074(16) 0.37486(13) 0.16102(16)
C7 C 1.21667(16) 0.25315(13) 0.12348(15)
H6 H 1.2349 0.2502 0.0358
C8 C 1.18099(15) 0.06577(12) 0.21950(14)
C9 C 1.33072(15) 0.07900(13) 0.14153(14)
H7 H 1.3561 0.0591 0.0559
C10 C 1.56595(16) -0.02176(14) 0.29331(15)
C11 C 1.47906(16) 0.05106(13) 0.25237(15)
H8 H 1.4557 0.1300 0.2697
C12 C 1.42722(15) 0.00633(13) 0.18593(14)
C13 C 1.45795(16) -0.10927(13) 0.16169(15)
H9 H 1.4216 -0.1382 0.1157
C14 C 1.54201(16) -0.18224(13) 0.20498(15)
C15 C 1.59832(16) -0.13822(14) 0.26875(15)
C16 C 0.83254(18) 0.42073(14) 0.26540(17)
H10 H 0.8632 0.4396 0.1809
C17 C 0.74742(19) 0.50090(16) 0.34999(19)
H11 H 0.7198 0.5753 0.3228
C18 C 0.70194(18) 0.47474(16) 0.47315(18)
C19 C 0.74404(19) 0.36564(16) 0.51090(17)
H12 H 0.7139 0.3469 0.5954
C20 C 0.82850(17) 0.28395(14) 0.42860(15)
H13 H 0.8560 0.2095 0.4557
C21 C 0.87237(15) 0.31249(13) 0.30577(15)
C22 C 0.6079(2) 0.5634(2) 0.5639(2)
H14 H 0.5895 0.6344 0.5205
H15 H 0.6483 0.5780 0.6166
H16 H 0.5251 0.5351 0.6135
C23 C 1.15855(15) 0.04062(13) 0.35305(14)
C24 C 1.1411(2) 0.12489(18) 0.52610(16)
H17 H 1.1287 0.2008 0.5563
H18 H 1.2252 0.0800 0.5224
H19 H 1.0683 0.0859 0.5811
C25 C 1.15431(16) -0.02975(13) 0.16338(15)
C26 C 1.1591(2) -0.08318(17) -0.01831(18)
H20 H 1.1734 -0.0527 -0.1005
H21 H 1.0702 -0.1026 0.0230
H22 H 1.2250 -0.1519 -0.0231
C27 C 1.58765(19) 0.12695(15) 0.39420(18)
H23 H 1.6371 0.1394 0.4396
H24 H 1.4926 0.1426 0.4461
H25 H 1.6076 0.1784 0.3221
C28 C 1.81904(18) -0.21017(19) 0.23115(18)
H26 H 1.8751 -0.2627 0.2646
H27 H 1.8383 -0.1327 0.2238
H28 H 1.8369 -0.2349 0.1508
C29 C 1.5057(2) -0.34651(15) 0.13787(18)
H29 H 1.5385 -0.4290 0.1300
H30 H 1.5193 -0.3109 0.0576
H31 H 1.4111 -0.3331 0.1916
loop_
_geom_bond_atom_site_label_1
_geom_bond_atom_site_label_2
_geom_bond_site_symmetry_1
_geom_bond_site_symmetry_2
S1 O2 1_555 1_555
O1 C7 1_555 1_555
O3 S1 1_555 1_555
O4 C23 1_555 1_555
O5 C23 1_555 1_555
O6 C25 1_555 1_555
O7 C25 1_555 1_555
O8 C10 1_555 1_555
O9 C15 1_555 1_555
O10 C14 1_555 1_555
N1 S1 1_555 1_555
C1 H1 1_555 1_555
C2 C1 1_555 1_555
H2 C2 1_555 1_555
C3 C2 1_555 1_555
H3 C3 1_555 1_555
C4 C3 1_555 1_555
H4 C4 1_555 1_555
C5 C4 1_555 1_555
H5 C5 1_555 1_555
C6 C1 1_555 1_555
C7 N1 1_555 1_555
H6 C7 1_555 1_555
C8 N1 1_555 1_555
C9 O1 1_555 1_555
H7 C9 1_555 1_555
C10 C11 1_555 1_555
C11 H8 1_555 1_555
C12 C9 1_555 1_555
C13 C12 1_555 1_555
H9 C13 1_555 1_555
C14 C13 1_555 1_555
C15 C10 1_555 1_555
C16 H10 1_555 1_555
C17 C16 1_555 1_555
H11 C17 1_555 1_555
C18 C17 1_555 1_555
C19 C18 1_555 1_555
H12 C19 1_555 1_555
C20 C19 1_555 1_555
H13 C20 1_555 1_555
C21 S1 1_555 1_555
C22 C18 1_555 1_555
H14 C22 1_555 1_555
H15 C22 1_555 1_555
H16 C22 1_555 1_555
C23 C8 1_555 1_555
C24 O4 1_555 1_555
H17 C24 1_555 1_555
H18 C24 1_555 1_555
H19 C24 1_555 1_555
C25 C8 1_555 1_555
C26 O6 1_555 1_555
H20 C26 1_555 1_555
H21 C26 1_555 1_555
H22 C26 1_555 1_555
C27 O8 1_555 1_555
H23 C27 1_555 1_555
H24 C27 1_555 1_555
H25 C27 1_555 1_555
C28 O9 1_555 1_555
H26 C28 1_555 1_555
H27 C28 1_555 1_555
H28 C28 1_555 1_555
C29 O10 1_555 1_555
H29 C29 1_555 1_555
H30 C29 1_555 1_555
H31 C29 1_555 1_555
C5 C6 1_555 1_555
C6 C7 1_555 1_555
C8 C9 1_555 1_555
C11 C12 1_555 1_555
C14 C15 1_555 1_555
C16 C21 1_555 1_555
C20 C21 1_555 1_555

#END
