
#######################################################################
#
#                 Cambridge Crystallographic Data Centre
#                                CCDC 
#
#######################################################################
#
# If this CIF has been generated from an entry in the Cambridge 
# Structural Database, then it will include bibliographic, chemical, 
# crystal, experimental, refinement or atomic coordinate data resulting 
# from the CCDC's data processing and validation procedures.
#
#######################################################################

data_UVAWOE
_chemical_formula_moiety         'C24 H23 O3 P1,H2 O1'
_chemical_name_systematic        
'Methyl 2-(diphenylphosphoryl)-1,2,3,4-tetrahydronaphthalene-1-carboxylate monohydrate'
_symmetry_cell_setting           triclinic
_symmetry_space_group_name_H-M   'P -1'
_symmetry_Int_Tables_number      2
_space_group_name_Hall           '-P 1'
loop_
_symmetry_equiv_pos_site_id
_symmetry_equiv_pos_as_xyz
1 x,y,z
2 -x,-y,-z
_cell_length_a                   8.735(3)
_cell_length_b                   11.975(4)
_cell_length_c                   12.478(5)
_cell_angle_alpha                61.480(5)
_cell_angle_beta                 69.536(3)
_cell_angle_gamma                80.201(7)
_cell_volume                     1074.45
_exptl_crystal_colour            colorless
_exptl_crystal_description       prism
_chemical_melting_point          '122-124 deg.C'
_cell_formula_units_Z            2
loop_
_atom_site_label
_atom_site_type_symbol
_atom_site_fract_x
_atom_site_fract_y
_atom_site_fract_z
P1 P 0.33678(6) 0.17065(4) 0.71457(5)
O1 O 0.21452(15) 0.08498(11) 0.83512(12)
O2 O 0.57274(16) 0.44307(13) 0.67307(15)
O3 O 0.49720(17) 0.31475(14) 0.88522(14)
C1 C 0.2894(2) 0.33667(16) 0.67739(17)
H1 H 0.3694 0.3912 0.5953
C2 C 0.1171(2) 0.36456(17) 0.66289(19)
H2 H 0.1116 0.3403 0.5996
H3 H 0.0365 0.3142 0.7451
C3 C 0.0774(2) 0.50512(18) 0.61988(19)
H4 H 0.1486 0.5543 0.5324
H5 H -0.0359 0.5203 0.6186
C4 C 0.1000(2) 0.55006(17) 0.70764(18)
C5 C 0.0158(3) 0.65857(19) 0.7146(2)
H6 H -0.0533 0.7026 0.6639
C6 C 0.0329(3) 0.7016(2) 0.7945(2)
H7 H -0.0241 0.7745 0.7977
C7 C 0.1325(3) 0.6384(2) 0.8689(2)
H8 H 0.1445 0.6676 0.9233
C8 C 0.2155(2) 0.5313(2) 0.8639(2)
H9 H 0.2829 0.4876 0.9162
C9 C 0.2018(2) 0.48618(17) 0.78297(18)
C10 C 0.2953(2) 0.36514(16) 0.78417(17)
H10 H 0.2466 0.2924 0.8681
C11 C 0.4711(2) 0.38000(18) 0.7713(2)
C12 C 0.6615(3) 0.3229(3) 0.8853(3)
H11 H 0.7394 0.2901 0.8295
H12 H 0.6679 0.2732 0.9718
H13 H 0.6868 0.4110 0.8545
C13 C 0.5405(2) 0.13303(16) 0.72793(17)
C14 C 0.5571(2) 0.03242(18) 0.84092(18)
H14 H 0.4642 -0.0119 0.9074
C15 C 0.7117(3) -0.0029(2) 0.8557(2)
H15 H 0.7229 -0.0706 0.9326
C16 C 0.8474(3) 0.0607(2) 0.7583(2)
H16 H 0.9514 0.0371 0.7689
C17 C 0.8319(2) 0.15871(19) 0.6453(2)
H17 H 0.9255 0.2013 0.5784
C18 C 0.6786(2) 0.19517(18) 0.62962(19)
H18 H 0.6686 0.2622 0.5520
C19 C 0.3399(2) 0.15383(18) 0.5784(2)
C20 C 0.4002(3) 0.2457(2) 0.4536(2)
H19 H 0.4427 0.3217 0.4363
C21 C 0.3980(3) 0.2254(2) 0.3527(2)
H20 H 0.4404 0.2869 0.2673
C22 C 0.3323(3) 0.1135(3) 0.3802(3)
H21 H 0.3279 0.1004 0.3128
C23 C 0.2747(3) 0.0231(3) 0.5025(3)
H22 H 0.2324 -0.0528 0.5193
C24 C 0.2776(2) 0.0413(2) 0.6023(2)
H23 H 0.2375 -0.0221 0.6871
O4 O 0.0497(2) 0.85001(14) 0.98963(15)
H24 H -0.020(3) 0.871(2) 1.043(2)
H25 H 0.109(3) 0.9182(19) 0.943(2)
loop_
_geom_bond_atom_site_label_1
_geom_bond_atom_site_label_2
_geom_bond_site_symmetry_1
_geom_bond_site_symmetry_2
P1 O1 1_555 1_555
O2 C11 1_555 1_555
O3 C11 1_555 1_555
C1 P1 1_555 1_555
H1 C1 1_555 1_555
C2 C1 1_555 1_555
H2 C2 1_555 1_555
H3 C2 1_555 1_555
C3 C2 1_555 1_555
H4 C3 1_555 1_555
H5 C3 1_555 1_555
C4 C3 1_555 1_555
C5 C4 1_555 1_555
H6 C5 1_555 1_555
C6 C5 1_555 1_555
H7 C6 1_555 1_555
C7 C6 1_555 1_555
H8 C7 1_555 1_555
C8 C7 1_555 1_555
H9 C8 1_555 1_555
C9 C4 1_555 1_555
C10 C1 1_555 1_555
H10 C10 1_555 1_555
C11 C10 1_555 1_555
C12 O3 1_555 1_555
H11 C12 1_555 1_555
H12 C12 1_555 1_555
H13 C12 1_555 1_555
C13 P1 1_555 1_555
C14 C13 1_555 1_555
H14 C14 1_555 1_555
C15 C14 1_555 1_555
H15 C15 1_555 1_555
C16 C15 1_555 1_555
H16 C16 1_555 1_555
C17 C16 1_555 1_555
H17 C17 1_555 1_555
C18 C13 1_555 1_555
H18 C18 1_555 1_555
C19 P1 1_555 1_555
C20 C19 1_555 1_555
H19 C20 1_555 1_555
C21 C20 1_555 1_555
H20 C21 1_555 1_555
C22 C21 1_555 1_555
H21 C22 1_555 1_555
C23 C22 1_555 1_555
H22 C23 1_555 1_555
C24 C19 1_555 1_555
H23 C24 1_555 1_555
O4 H24 1_555 1_555
H25 O4 1_555 1_555
C8 C9 1_555 1_555
C9 C10 1_555 1_555
C17 C18 1_555 1_555
C23 C24 1_555 1_555

#END
