
#######################################################################
#
#                 Cambridge Crystallographic Data Centre
#                                CCDC 
#
#######################################################################
#
# If this CIF has been generated from an entry in the Cambridge 
# Structural Database, then it will include bibliographic, chemical, 
# crystal, experimental, refinement or atomic coordinate data resulting 
# from the CCDC's data processing and validation procedures.
#
#######################################################################

data_UVEJAH
_chemical_formula_moiety         'C34 H44 O12'
_chemical_name_systematic        
'4,21-Diacetoxy-6-(3-furyl)-12,19-dihydroxy-5,11,15-trimethyl-3-oxo-9,17-dioxahexacyclo-[13.3.3.0^1,14^.0^2,11^.0^5,10^.0^8,10^]-henicos-16-yl butyrate'
_chemical_properties_biological  'insecticidal activity'
_symmetry_cell_setting           monoclinic
_symmetry_space_group_name_H-M   'P 21'
_symmetry_Int_Tables_number      4
_space_group_name_Hall           'P 2yb'
loop_
_symmetry_equiv_pos_site_id
_symmetry_equiv_pos_as_xyz
1 x,y,z
2 -x,1/2+y,-z
_cell_length_a                   13.067(7)
_cell_length_b                   7.902(4)
_cell_length_c                   16.136(8)
_cell_angle_alpha                90
_cell_angle_beta                 95.178(5)
_cell_angle_gamma                90
_cell_volume                     1659.33
_exptl_crystal_colour            colorless
_exptl_crystal_description       block
_chemical_melting_point          112-114deg.C
_cell_formula_units_Z            2
loop_
_atom_site_label
_atom_site_type_symbol
_atom_site_fract_x
_atom_site_fract_y
_atom_site_fract_z
C1 C 0.61250(18) 0.8778(3) 0.25740(16)
H1 H 0.5886 0.9656 0.2173
C2 C 0.5831(2) 0.7051(4) 0.21710(18)
H2 H 0.5886 0.6150 0.2581
H3 H 0.5137 0.7072 0.1901
C3 C 0.66069(19) 0.6830(4) 0.15453(17)
H4 H 0.6674 0.5749 0.1257
C4 C 0.75121(17) 0.7875(3) 0.17894(15)
C5 C 0.73390(17) 0.8755(3) 0.26174(14)
C6 C 0.78483(17) 1.0489(3) 0.25650(15)
H5 H 0.7411 1.1214 0.2189
C7 C 0.89370(19) 1.0414(3) 0.22577(15)
C8 C 0.93710(16) 0.8695(3) 0.21041(14)
H6 H 0.9316 0.8109 0.2633
C9 C 0.85997(16) 0.7691(3) 0.14810(14)
C10 C 0.89528(19) 0.5843(3) 0.14903(16)
H7 H 0.8514 0.5210 0.1074
C11 C 1.00619(19) 0.5672(3) 0.12956(16)
H8 H 1.0125 0.6082 0.0736
H9 H 1.0252 0.4485 0.1313
C12 C 1.08045(17) 0.6655(3) 0.19055(15)
H10 H 1.0735 0.6158 0.2454
C13 C 1.05438(17) 0.8569(3) 0.19873(15)
C14 C 1.11638(19) 0.9248(3) 0.27879(16)
H11 H 1.1067 1.0478 0.2796
C15 C 1.23220(19) 0.8921(4) 0.27997(17)
H12 H 1.2610 0.9732 0.2434
H13 H 1.2636 0.9125 0.3359
C16 C 1.26135(19) 0.7148(3) 0.25361(16)
H14 H 1.3343 0.7118 0.2438
C17 C 1.19529(18) 0.6475(3) 0.17569(15)
C18 C 0.56089(18) 0.9093(3) 0.33557(16)
C19 C 0.5401(2) 0.7939(4) 0.39885(19)
H15 H 0.5606 0.6812 0.4022
C20 C 0.4859(2) 0.8745(5) 0.4529(2)
H16 H 0.4631 0.8264 0.5005
C21 C 0.5151(2) 1.0535(4) 0.35585(19)
H17 H 0.5147 1.1525 0.3247
C22 C 0.77533(18) 0.7753(3) 0.33914(15)
H18 H 0.7620 0.6569 0.3301
H19 H 0.7418 0.8130 0.3864
H20 H 0.8480 0.7933 0.3493
C23 C 0.7429(3) 1.2663(4) 0.3527(2)
C24 C 0.7657(3) 1.3220(5) 0.4408(2)
H21 H 0.7292 1.4249 0.4497
H22 H 0.8381 1.3412 0.4519
H23 H 0.7443 1.2358 0.4774
C25 C 0.8544(2) 0.8346(4) 0.05833(15)
H24 H 0.9186 0.8135 0.0356
H25 H 0.8409 0.9541 0.0578
H26 H 0.8001 0.7773 0.0254
C26 C 1.08846(19) 0.9577(3) 0.12361(17)
H27 H 1.0437 0.9289 0.0744
H28 H 1.0806 1.0778 0.1340
C27 C 1.21185(18) 0.7515(3) 0.09826(16)
H29 H 1.1664 0.7085 0.0513
C28 C 1.3145(2) 0.4839(4) 0.34728(19)
C29 C 1.2766(3) 0.3740(6) 0.4137(3)
H30 H 1.3295 0.2952 0.4329
H31 H 1.2168 0.3131 0.3914
H32 H 1.2594 0.4432 0.4593
C30 C 1.3332(2) 0.7468(3) -0.00287(17)
C31 C 1.44194(19) 0.7018(4) -0.01441(17)
H33 H 1.4503 0.5807 -0.0066
H34 H 1.4863 0.7573 0.0288
C32 C 1.4778(2) 0.7480(4) -0.09735(17)
H35 H 1.4882 0.8694 -0.0995
H36 H 1.4248 0.7183 -0.1409
C33 C 1.5768(2) 0.6593(5) -0.1136(2)
H37 H 1.6290 0.6857 -0.0698
H38 H 1.5985 0.6967 -0.1658
H39 H 1.5657 0.5392 -0.1154
C34 C 1.2244(2) 0.4633(3) 0.15955(17)
H40 H 1.1962 0.4303 0.1050
H41 H 1.1975 0.3915 0.2003
H42 H 1.2979 0.4529 0.1632
O1 O 0.46897(17) 1.0362(3) 0.42839(14)
O2 O 0.67454(13) 0.8423(3) 0.11230(11)
O3 O 0.79952(14) 1.1297(2) 0.33815(12)
O4 O 0.6835(2) 1.3299(3) 0.30190(18)
O5 O 0.93983(14) 1.1728(2) 0.21682(14)
O6 O 0.88338(14) 0.5151(2) 0.22960(11)
H43 H 0.8822 0.4115 0.2268
O7 O 1.07656(13) 0.8582(3) 0.35223(11)
H44 H 1.1003 0.7634 0.3619
O8 O 1.19316(13) 0.9246(2) 0.10791(12)
O9 O 1.31588(12) 0.7352(2) 0.07928(11)
O10 O 1.26785(14) 0.7815(3) -0.05626(12)
O11 O 1.24293(14) 0.6033(2) 0.32261(11)
O12 O 1.39451(16) 0.4665(3) 0.31773(15)
loop_
_geom_bond_atom_site_label_1
_geom_bond_atom_site_label_2
_geom_bond_site_symmetry_1
_geom_bond_site_symmetry_2
C1 H1 1_555 1_555
C2 C1 1_555 1_555
H2 C2 1_555 1_555
H3 C2 1_555 1_555
C3 C2 1_555 1_555
H4 C3 1_555 1_555
C4 C3 1_555 1_555
C5 C1 1_555 1_555
C6 C5 1_555 1_555
H5 C6 1_555 1_555
C7 C6 1_555 1_555
C8 C7 1_555 1_555
H6 C8 1_555 1_555
C9 C4 1_555 1_555
C10 C9 1_555 1_555
H7 C10 1_555 1_555
C11 C10 1_555 1_555
H8 C11 1_555 1_555
H9 C11 1_555 1_555
C12 C11 1_555 1_555
H10 C12 1_555 1_555
C13 C8 1_555 1_555
C14 C13 1_555 1_555
H11 C14 1_555 1_555
C15 C14 1_555 1_555
H12 C15 1_555 1_555
H13 C15 1_555 1_555
C16 C15 1_555 1_555
H14 C16 1_555 1_555
C17 C12 1_555 1_555
C18 C1 1_555 1_555
C19 C18 1_555 1_555
H15 C19 1_555 1_555
C20 C19 1_555 1_555
H16 C20 1_555 1_555
C21 C18 1_555 1_555
H17 C21 1_555 1_555
C22 C5 1_555 1_555
H18 C22 1_555 1_555
H19 C22 1_555 1_555
H20 C22 1_555 1_555
C23 C24 1_555 1_555
C24 H21 1_555 1_555
H22 C24 1_555 1_555
H23 C24 1_555 1_555
C25 C9 1_555 1_555
H24 C25 1_555 1_555
H25 C25 1_555 1_555
H26 C25 1_555 1_555
C26 C13 1_555 1_555
H27 C26 1_555 1_555
H28 C26 1_555 1_555
C27 C17 1_555 1_555
H29 C27 1_555 1_555
C28 C29 1_555 1_555
C29 H30 1_555 1_555
H31 C29 1_555 1_555
H32 C29 1_555 1_555
C30 C31 1_555 1_555
C31 H33 1_555 1_555
H34 C31 1_555 1_555
C32 C31 1_555 1_555
H35 C32 1_555 1_555
H36 C32 1_555 1_555
C33 C32 1_555 1_555
H37 C33 1_555 1_555
H38 C33 1_555 1_555
H39 C33 1_555 1_555
C34 C17 1_555 1_555
H40 C34 1_555 1_555
H41 C34 1_555 1_555
H42 C34 1_555 1_555
O1 C20 1_555 1_555
O2 C3 1_555 1_555
O3 C6 1_555 1_555
O4 C23 1_555 1_555
O5 C7 1_555 1_555
O6 C10 1_555 1_555
H43 O6 1_555 1_555
O7 C14 1_555 1_555
H44 O7 1_555 1_555
O8 C26 1_555 1_555
O9 C27 1_555 1_555
O10 C30 1_555 1_555
O11 C16 1_555 1_555
O12 C28 1_555 1_555
C4 C5 1_555 1_555
C4 O2 1_555 1_555
C8 C9 1_555 1_555
C12 C13 1_555 1_555
C16 C17 1_555 1_555
C21 O1 1_555 1_555
C23 O3 1_555 1_555
C27 O8 1_555 1_555
C28 O11 1_555 1_555
C30 O9 1_555 1_555

#END
