
#######################################################################
#
#                 Cambridge Crystallographic Data Centre
#                                CCDC 
#
#######################################################################
#
# If this CIF has been generated from an entry in the Cambridge 
# Structural Database, then it will include bibliographic, chemical, 
# crystal, experimental, refinement or atomic coordinate data resulting 
# from the CCDC's data processing and validation procedures.
#
#######################################################################

data_UVEJUB
_chemical_compound_source        'twigs of Swietenia macrophylla'
_chemical_name_common            'Swietenitin N monohydrate'
_chemical_formula_moiety         'C39 H48 O15,H2 O1'
_chemical_name_systematic        
'19-Acetoxy-6-(3-furyl)-16-(2-methoxy-2-oxoethyl)-7,12,15,17-tetramethyl-4-oxo-20-(propionyloxy)-5,11,13,21-tetraoxaheptacyclo-[10.8.1.1^14,17^.0^1,10^.0^2,7^.0^10,15^.0^14,19^]-docos-18-yl 2,3-dimethyloxirane-2-carboxylate monohydrate'
_symmetry_cell_setting           orthorhombic
_symmetry_space_group_name_H-M   'P 21 21 21'
_symmetry_Int_Tables_number      19
_space_group_name_Hall           'P 2ac 2ab'
loop_
_symmetry_equiv_pos_site_id
_symmetry_equiv_pos_as_xyz
1 x,y,z
2 1/2-x,-y,1/2+z
3 -x,1/2+y,1/2-z
4 1/2+x,1/2-y,-z
_cell_length_a                   13.5869(9)
_cell_length_b                   16.5391(10)
_cell_length_c                   17.2334(11)
_cell_angle_alpha                90
_cell_angle_beta                 90
_cell_angle_gamma                90
_cell_volume                     3872.61
_exptl_crystal_colour            colorless
_exptl_crystal_description       prismatic
_chemical_melting_point          240-242deg.C
_cell_formula_units_Z            4
loop_
_atom_site_label
_atom_site_type_symbol
_atom_site_fract_x
_atom_site_fract_y
_atom_site_fract_z
O1 O 0.5334(3) 0.6195(3) -0.1127(2)
O2 O 0.4696(3) 0.7341(3) -0.1559(2)
O3 O 0.2398(2) 0.5723(2) 0.18372(19)
O4 O 0.2977(2) 0.44013(19) 0.17839(18)
O5 O 0.1935(2) 0.4796(2) 0.0879(2)
O6 O 0.5780(2) 0.60974(18) 0.09928(17)
O7 O 0.6761(3) 0.7014(2) 0.1574(2)
O8 O 0.7605(3) 0.6444(3) -0.0031(2)
O9 O 0.4158(2) 0.56378(19) 0.24763(17)
O10 O 0.5787(2) 0.5753(2) 0.27045(19)
O11 O 0.5006(2) 0.43807(18) 0.18641(18)
O12 O 0.6458(2) 0.4465(2) 0.1232(2)
O13 O 0.5513(3) 0.2333(2) 0.1797(2)
O14 O 0.5501(3) 0.2733(2) 0.0593(2)
O15 O 0.6535(5) 0.3265(6) -0.1803(3)
C1 C 0.3184(3) 0.6023(3) 0.1380(3)
C2 C 0.4235(3) 0.5700(3) 0.1641(3)
C3 C 0.4903(3) 0.6390(3) 0.1371(3)
H1 H 0.5085 0.6728 0.1816
C4 C 0.4246(3) 0.6873(3) 0.0818(3)
C5 C 0.3937(4) 0.6263(3) 0.0159(3)
H2 H 0.4463 0.5861 0.0110
C6 C 0.3781(4) 0.6637(3) -0.0634(3)
H3 H 0.3297 0.6320 -0.0913
H4 H 0.3514 0.7177 -0.0567
C7 C 0.4690(4) 0.6690(4) -0.1109(3)
C8 C 0.3552(3) 0.4420(3) 0.1076(3)
C9 C 0.2883(3) 0.4903(3) 0.0495(3)
C10 C 0.3030(3) 0.5834(3) 0.0519(3)
C11 C 0.2831(4) 0.4531(3) -0.0309(3)
H5 H 0.2655 0.4945 -0.0683
H6 H 0.2321 0.4120 -0.0318
C12 C 0.3822(4) 0.4149(3) -0.0542(3)
H7 H 0.4342 0.4547 -0.0488
H8 H 0.3796 0.3985 -0.1082
C13 C 0.4057(4) 0.3406(3) -0.0030(3)
C14 C 0.3611(4) 0.3533(3) 0.0795(3)
H9 H 0.2920 0.3374 0.0734
C15 C 0.4018(4) 0.2918(3) 0.1374(3)
H10 H 0.3938 0.3143 0.1890
H11 H 0.3607 0.2439 0.1346
C16 C 0.5058(4) 0.2653(3) 0.1296(4)
C17 C 0.5187(4) 0.3358(3) 0.0044(3)
H12 H 0.5426 0.3881 0.0233
C18 C 0.3620(4) 0.2648(3) -0.0388(3)
H13 H 0.3661 0.2211 -0.0023
H14 H 0.3981 0.2510 -0.0848
H15 H 0.2944 0.2744 -0.0519
C19 C 0.2052(4) 0.6233(3) 0.0226(3)
H16 H 0.1537 0.6134 0.0596
H17 H 0.1872 0.6005 -0.0266
H18 H 0.2147 0.6805 0.0170
C20 C 0.5728(4) 0.3161(4) -0.0698(3)
C21 C 0.6058(5) 0.3706(5) -0.1249(4)
H19 H 0.5972 0.4264 -0.1243
C22 C 0.6055(5) 0.2433(4) -0.0972(4)
H20 H 0.5932 0.1951 -0.0712
C23 C 0.6527(5) 0.2453(5) -0.1589(4)
H21 H 0.6813 0.2021 -0.1850
C24 C 0.4710(4) 0.7663(3) 0.0561(3)
H22 H 0.4872 0.7982 0.1008
H23 H 0.4254 0.7955 0.0241
H24 H 0.5298 0.7552 0.0270
C25 C 0.3356(4) 0.6923(3) 0.1368(3)
H25 H 0.3525 0.7139 0.1875
H26 H 0.2809 0.7221 0.1148
C26 C 0.4497(3) 0.4851(3) 0.1291(3)
H27 H 0.4911 0.4917 0.0829
C27 C 0.6656(4) 0.6447(3) 0.1142(3)
C28 C 0.7467(4) 0.6054(3) 0.0710(3)
C29 C 0.7266(4) 0.5621(4) 0.0005(3)
H28 H 0.6566 0.5546 -0.0112
C30 C 0.7936(5) 0.4970(5) -0.0304(5)
H29 H 0.7815 0.4896 -0.0849
H30 H 0.7810 0.4473 -0.0035
H31 H 0.8609 0.5126 -0.0227
C31 C 0.8364(4) 0.5929(4) 0.1199(4)
H32 H 0.8203 0.5588 0.1631
H33 H 0.8595 0.6442 0.1386
H34 H 0.8869 0.5678 0.0893
C32 C 0.2150(3) 0.4906(3) 0.1669(3)
C33 C 0.1310(4) 0.4668(4) 0.2180(4)
H35 H 0.0752 0.5005 0.2069
H36 H 0.1496 0.4734 0.2713
H37 H 0.1142 0.4113 0.2085
C34 C 0.4968(4) 0.5661(3) 0.2937(3)
C35 C 0.4676(4) 0.5546(4) 0.3750(3)
H38 H 0.4525 0.4987 0.3838
H39 H 0.4106 0.5870 0.3859
H40 H 0.5207 0.5707 0.4083
C36 C 0.6012(4) 0.4303(3) 0.1807(3)
C37 C 0.6413(4) 0.3953(3) 0.2534(3)
H41 H 0.6151 0.4250 0.2973
H42 H 0.6196 0.3396 0.2579
C38 C 0.7487(5) 0.3976(7) 0.2561(6)
H43 H 0.7747 0.3889 0.2050
H44 H 0.7722 0.3561 0.2904
H45 H 0.7698 0.4495 0.2749
C39 C 0.5525(5) 0.7440(5) -0.2065(4)
H46 H 0.6052 0.7695 -0.1786
H47 H 0.5341 0.7771 -0.2498
H48 H 0.5736 0.6920 -0.2248
O16 O 0.3357(7) 0.3820(5) 0.3327(4)
H49 H 0.289(17) 0.341(5) 0.338(14)
H50 H 0.318(12) 0.404(8) 0.287(5)
loop_
_geom_bond_atom_site_label_1
_geom_bond_atom_site_label_2
_geom_bond_site_symmetry_1
_geom_bond_site_symmetry_2
O1 C7 1_555 1_555
O2 C7 1_555 1_555
O3 C1 1_555 1_555
O4 C8 1_555 1_555
O5 C9 1_555 1_555
O6 C3 1_555 1_555
O7 C27 1_555 1_555
O8 C28 1_555 1_555
O9 C2 1_555 1_555
O10 C34 1_555 1_555
O11 C26 1_555 1_555
O12 C36 1_555 1_555
O13 C16 1_555 1_555
O14 C16 1_555 1_555
O15 C21 1_555 1_555
O16 H49 1_555 1_555
C1 C2 1_555 1_555
C2 C3 1_555 1_555
C3 H1 1_555 1_555
C4 C3 1_555 1_555
C5 C4 1_555 1_555
H2 C5 1_555 1_555
C6 C5 1_555 1_555
H3 C6 1_555 1_555
H4 C6 1_555 1_555
C7 C6 1_555 1_555
C8 C9 1_555 1_555
C9 C10 1_555 1_555
C10 C1 1_555 1_555
C11 C9 1_555 1_555
H5 C11 1_555 1_555
H6 C11 1_555 1_555
C12 C11 1_555 1_555
H7 C12 1_555 1_555
H8 C12 1_555 1_555
C13 C12 1_555 1_555
C14 C8 1_555 1_555
H9 C14 1_555 1_555
C15 C14 1_555 1_555
H10 C15 1_555 1_555
H11 C15 1_555 1_555
C16 C15 1_555 1_555
C17 O14 1_555 1_555
H12 C17 1_555 1_555
C18 C13 1_555 1_555
H13 C18 1_555 1_555
H14 C18 1_555 1_555
H15 C18 1_555 1_555
C19 C10 1_555 1_555
H16 C19 1_555 1_555
H17 C19 1_555 1_555
H18 C19 1_555 1_555
C20 C17 1_555 1_555
C21 C20 1_555 1_555
H19 C21 1_555 1_555
C22 C20 1_555 1_555
H20 C22 1_555 1_555
C23 O15 1_555 1_555
H21 C23 1_555 1_555
C24 C4 1_555 1_555
H22 C24 1_555 1_555
H23 C24 1_555 1_555
H24 C24 1_555 1_555
C25 C1 1_555 1_555
H25 C25 1_555 1_555
H26 C25 1_555 1_555
C26 C2 1_555 1_555
H27 C26 1_555 1_555
C27 O6 1_555 1_555
C28 C27 1_555 1_555
C29 O8 1_555 1_555
H28 C29 1_555 1_555
C30 C29 1_555 1_555
H29 C30 1_555 1_555
H30 C30 1_555 1_555
H31 C30 1_555 1_555
C31 C28 1_555 1_555
H32 C31 1_555 1_555
H33 C31 1_555 1_555
H34 C31 1_555 1_555
C32 O3 1_555 1_555
C33 C32 1_555 1_555
H35 C33 1_555 1_555
H36 C33 1_555 1_555
H37 C33 1_555 1_555
C34 O9 1_555 1_555
C35 C34 1_555 1_555
H38 C35 1_555 1_555
H39 C35 1_555 1_555
H40 C35 1_555 1_555
C36 O11 1_555 1_555
C37 C36 1_555 1_555
H41 C37 1_555 1_555
H42 C37 1_555 1_555
C38 C37 1_555 1_555
H43 C38 1_555 1_555
H44 C38 1_555 1_555
H45 C38 1_555 1_555
C39 O2 1_555 1_555
H46 C39 1_555 1_555
H47 C39 1_555 1_555
H48 C39 1_555 1_555
H50 O16 1_555 1_555
O4 C32 1_555 1_555
O5 C32 1_555 1_555
C4 C25 1_555 1_555
C5 C10 1_555 1_555
C8 C26 1_555 1_555
C13 C14 1_555 1_555
C13 C17 1_555 1_555
C22 C23 1_555 1_555
C28 C29 1_555 1_555

#END
