
#######################################################################
#
#                 Cambridge Crystallographic Data Centre
#                                CCDC 
#
#######################################################################
#
# If this CIF has been generated from an entry in the Cambridge 
# Structural Database, then it will include bibliographic, chemical, 
# crystal, experimental, refinement or atomic coordinate data resulting 
# from the CCDC's data processing and validation procedures.
#
#######################################################################

data_UVEKAI
_chemical_compound_source        
'mangrove actinomycetes Streptomyces sp(no.061316)'
_chemical_name_common            3-Hydroxy-2-(isobutyrylamino)benzamide
_chemical_formula_moiety         'C11 H14 N2 O3'
_chemical_name_systematic        3-Hydroxyl-2-N-iso-butyryl-anthranilamide
_chemical_properties_biological  'inhibiting in vitro Caspase-3 activity'
_symmetry_cell_setting           orthorhombic
_symmetry_space_group_name_H-M   'P 21 21 21'
_symmetry_Int_Tables_number      19
_space_group_name_Hall           'P 2ac 2ab'
loop_
_symmetry_equiv_pos_site_id
_symmetry_equiv_pos_as_xyz
1 x,y,z
2 1/2-x,-y,1/2+z
3 -x,1/2+y,1/2-z
4 1/2+x,1/2-y,-z
_cell_length_a                   7.155(2)
_cell_length_b                   7.546(8)
_cell_length_c                   20.457(8)
_cell_angle_alpha                90
_cell_angle_beta                 90
_cell_angle_gamma                90
_cell_volume                     1104.51
_exptl_crystal_colour            colorless
_exptl_crystal_description       needles
_cell_formula_units_Z            4
_chemical_properties_physical    heat-sensitive
_exptl_crystal_recrystallization_method methanol
loop_
_atom_site_label
_atom_site_type_symbol
_atom_site_fract_x
_atom_site_fract_y
_atom_site_fract_z
C1 C 0.4625(5) 0.6291(5) 0.13431(17)
C2 C 0.2785(5) 0.6826(5) 0.14576(16)
C3 C 0.1771(5) 0.6056(5) 0.19650(17)
C4 C 0.2600(6) 0.4811(5) 0.23616(18)
H1 H 0.1911 0.4296 0.2710
C5 C 0.4425(6) 0.4309(5) 0.2255(2)
H2 H 0.4990 0.3455 0.2533
C6 C 0.5446(5) 0.5038(5) 0.17446(17)
H3 H 0.6701 0.4679 0.1671
C7 C 0.5726(5) 0.7010(5) 0.07795(16)
C8 C 0.1443(5) 0.9712(5) 0.13364(17)
C9 C 0.0762(6) 1.1068(5) 0.08525(18)
H4 H 0.0258 1.0436 0.0461
C10 C -0.0783(7) 1.2179(7) 0.1147(2)
H5 H -0.1861 1.1422 0.1244
H6 H -0.1154 1.3102 0.0836
H7 H -0.0336 1.2731 0.1551
C11 C 0.2414(8) 1.2173(7) 0.0644(2)
H8 H 0.2882 1.2847 0.1019
H9 H 0.2029 1.2995 0.0298
H10 H 0.3405 1.1396 0.0479
N1 N 0.7561(4) 0.7224(5) 0.08746(14)
H11 H 0.8276 0.7589 0.0552
H12 H 0.8053 0.6999 0.1260
N2 N 0.1932(4) 0.8163(4) 0.10794(14)
H13 H 0.1718 0.7966 0.0662
O1 O -0.0042(3) 0.6530(4) 0.20465(12)
H14 H -0.0406 0.6212 0.2419
O2 O 0.4994(4) 0.7312(4) 0.02467(11)
O3 O 0.1620(4) 1.0011(4) 0.19225(12)
loop_
_geom_bond_atom_site_label_1
_geom_bond_atom_site_label_2
_geom_bond_site_symmetry_1
_geom_bond_site_symmetry_2
C1 C2 1_555 1_555
C2 C3 1_555 1_555
C3 C4 1_555 1_555
C4 H1 1_555 1_555
C5 C4 1_555 1_555
H2 C5 1_555 1_555
C6 C1 1_555 1_555
H3 C6 1_555 1_555
C7 C1 1_555 1_555
C8 C9 1_555 1_555
C9 H4 1_555 1_555
C10 C9 1_555 1_555
H5 C10 1_555 1_555
H6 C10 1_555 1_555
H7 C10 1_555 1_555
C11 C9 1_555 1_555
H8 C11 1_555 1_555
H9 C11 1_555 1_555
H10 C11 1_555 1_555
N1 C7 1_555 1_555
H11 N1 1_555 1_555
H12 N1 1_555 1_555
N2 C2 1_555 1_555
H13 N2 1_555 1_555
O1 C3 1_555 1_555
H14 O1 1_555 1_555
O2 C7 1_555 1_555
O3 C8 1_555 1_555
C5 C6 1_555 1_555
C8 N2 1_555 1_555

#END
