
#######################################################################
#
#                 Cambridge Crystallographic Data Centre
#                                CCDC 
#
#######################################################################
#
# If this CIF has been generated from an entry in the Cambridge 
# Structural Database, then it will include bibliographic, chemical, 
# crystal, experimental, refinement or atomic coordinate data resulting 
# from the CCDC's data processing and validation procedures.
#
#######################################################################

data_UVEQUI
_chemical_formula_moiety         'C44 H52 N2 O2 S2 Si2'
_chemical_name_systematic        
(5,11-bis((Triethylsilyl)ethynyl)thieno[2',3':6,7]anthra[2,3-b]thiene-2,8-diyl)bis(pyrrolidin-1-ylmethanone)
_symmetry_cell_setting           monoclinic
_symmetry_space_group_name_H-M   'P 21/c'
_symmetry_Int_Tables_number      14
_space_group_name_Hall           '-P 2ybc'
loop_
_symmetry_equiv_pos_site_id
_symmetry_equiv_pos_as_xyz
1 x,y,z
2 -x,1/2+y,1/2-z
3 -x,-y,-z
4 x,1/2-y,1/2+z
_cell_length_a                   10.6703(3)
_cell_length_b                   16.2068(4)
_cell_length_c                   12.0490(3)
_cell_angle_alpha                90
_cell_angle_beta                 106.683(1)
_cell_angle_gamma                90
_cell_volume                     1995.95
_exptl_crystal_colour            red
_exptl_crystal_description       block
_cell_formula_units_Z            2
loop_
_atom_site_label
_atom_site_type_symbol
_atom_site_fract_x
_atom_site_fract_y
_atom_site_fract_z
Si1 Si 0.72579(6) -0.03384(4) 0.11129(5)
O1 O -0.06008(17) 0.28818(11) 0.09092(14)
N1 N -0.17721(19) 0.26275(12) 0.21624(17)
C1 C 0.5473(2) -0.00309(13) 0.40195(19)
C2 C 0.4320(2) 0.04182(13) 0.39589(19)
C3 C 0.3622(2) 0.08289(14) 0.29314(19)
H1 H 0.3930 0.0809 0.2266
C4 C 0.2503(2) 0.12547(14) 0.28966(19)
S1 S 0.15107(6) 0.17926(4) 0.17050(6)
C5 C 0.0430(9) 0.2054(8) 0.2516(4)
C6 C 0.0837(4) 0.1779(3) 0.3617(4)
H2 H 0.0374 0.1888 0.4167
C7 C 0.2029(2) 0.13092(13) 0.3892(2)
C8 C 0.2686(2) 0.09168(14) 0.48962(19)
H3 H 0.2368 0.0953 0.5555
C9 C 0.3839(2) 0.04550(13) 0.49662(19)
C10 C 0.5963(2) -0.00695(13) 0.30308(19)
C11 C 0.6413(2) -0.01241(14) 0.22204(19)
C12 C 0.8877(2) -0.07871(14) 0.1908(2)
H4 H 0.8726 -0.1280 0.2338
H5 H 0.9321 -0.0973 0.1335
C13 C 0.9788(3) -0.02039(17) 0.2759(2)
H6 H 1.0017 0.0261 0.2335
H7 H 1.0585 -0.0500 0.3176
H8 H 0.9347 0.0003 0.3313
C14 C 0.6281(2) -0.11402(16) 0.0118(2)
H9 H 0.5465 -0.0886 -0.0370
H10 H 0.6787 -0.1337 -0.0403
C15 C 0.5930(3) -0.18796(16) 0.0759(2)
H11 H 0.6728 -0.2108 0.1292
H12 H 0.5502 -0.2303 0.0197
H13 H 0.5334 -0.1702 0.1198
C16 C 0.7406(3) 0.06445(15) 0.0334(2)
H14 H 0.6529 0.0799 -0.0170
H15 H 0.7702 0.1089 0.0914
C17 C 0.8345(2) 0.05943(15) -0.0403(2)
H16 H 0.9230 0.0481 0.0096
H17 H 0.8341 0.1120 -0.0806
H18 H 0.8070 0.0150 -0.0973
C18 C -0.0689(2) 0.25537(14) 0.18143(19)
C19 C -0.2880(2) 0.31133(16) 0.1440(2)
H19 H -0.3210 0.2875 0.0654
H20 H -0.2623 0.3694 0.1376
C20 C -0.3899(2) 0.30485(16) 0.2099(2)
H21 H -0.3775 0.3486 0.2694
H22 H -0.4797 0.3087 0.1567
C21 C -0.3641(2) 0.21984(16) 0.2655(2)
H23 H -0.4024 0.1759 0.2087
H24 H -0.4007 0.2153 0.3321
C22 C -0.2149(2) 0.21430(15) 0.3051(2)
H25 H -0.1785 0.2387 0.3831
H26 H -0.1850 0.1564 0.3063
Si1B Si 0.27421(6) 0.03384(4) 0.88871(5)
O1B O 1.06008(17) -0.28818(11) 0.90908(14)
N1B N 1.17721(19) -0.26275(12) 0.78376(17)
C1B C 0.4527(2) 0.00309(13) 0.59805(19)
C2B C 0.5680(2) -0.04182(13) 0.60411(19)
C3B C 0.6378(2) -0.08289(14) 0.70686(19)
H1B H 0.6070 -0.0809 0.7734
C4B C 0.7497(2) -0.12547(14) 0.71034(19)
S1B S 0.84893(6) -0.17926(4) 0.82950(6)
C5B C 0.9570(9) -0.2054(8) 0.7484(4)
C6B C 0.9163(4) -0.1779(3) 0.6383(4)
H2B H 0.9626 -0.1888 0.5833
C7B C 0.7971(2) -0.13092(13) 0.6108(2)
C8B C 0.7314(2) -0.09168(14) 0.51038(19)
H3B H 0.7632 -0.0953 0.4445
C9B C 0.6161(2) -0.04550(13) 0.50338(19)
C10B C 0.4037(2) 0.00695(13) 0.69692(19)
C11B C 0.3587(2) 0.01241(14) 0.77796(19)
C12B C 0.1123(2) 0.07871(14) 0.8092(2)
H4B H 0.1274 0.1280 0.7662
H5B H 0.0679 0.0973 0.8665
C13B C 0.0212(3) 0.02039(17) 0.7241(2)
H6B H -0.0017 -0.0261 0.7665
H7B H -0.0585 0.0500 0.6824
H8B H 0.0653 -0.0003 0.6687
C14B C 0.3719(2) 0.11402(16) 0.9882(2)
H9B H 0.4535 0.0886 1.0370
H10B H 0.3213 0.1337 1.0403
C15B C 0.4070(3) 0.18796(16) 0.9241(2)
H11B H 0.3272 0.2108 0.8708
H12B H 0.4498 0.2303 0.9803
H13B H 0.4666 0.1702 0.8802
C16B C 0.2594(3) -0.06445(15) 0.9666(2)
H14B H 0.3471 -0.0799 1.0170
H15B H 0.2298 -0.1089 0.9086
C17B C 0.1655(2) -0.05943(15) 1.0403(2)
H16B H 0.0770 -0.0481 0.9904
H17B H 0.1659 -0.1120 1.0806
H18B H 0.1930 -0.0150 1.0973
C18B C 1.0689(2) -0.25537(14) 0.81857(19)
C19B C 1.2880(2) -0.31133(16) 0.8560(2)
H19B H 1.3210 -0.2875 0.9346
H20B H 1.2623 -0.3694 0.8624
C20B C 1.3899(2) -0.30485(16) 0.7901(2)
H21B H 1.3775 -0.3486 0.7306
H22B H 1.4797 -0.3087 0.8433
C21B C 1.3641(2) -0.21984(16) 0.7345(2)
H23B H 1.4024 -0.1759 0.7913
H24B H 1.4007 -0.2153 0.6679
C22B C 1.2149(2) -0.21430(15) 0.6949(2)
H25B H 1.1785 -0.2387 0.6169
H26B H 1.1850 -0.1564 0.6937
C23? C 0.2503(2) 0.12547(14) 0.28966(19)
C24? C 0.147(2) 0.166(2) 0.2032(17)
C25? C 0.054(9) 0.204(8) 0.241(4)
C26? C 0.2029(2) 0.13092(13) 0.3892(2)
H27? H 0.1442 0.1652 0.1236
S2? S 0.0685(11) 0.1881(7) 0.3914(10)
loop_
_geom_bond_atom_site_label_1
_geom_bond_atom_site_label_2
_geom_bond_site_symmetry_1
_geom_bond_site_symmetry_2
Si1 C11 1_555 1_555
O1 C18 1_555 1_555
N1 C18 1_555 1_555
C1 C2 1_555 1_555
C2 C3 1_555 1_555
C3 H1 1_555 1_555
C4 C3 1_555 1_555
S1 C4 1_555 1_555
C5 S1 1_555 1_555
C6 C5 1_555 1_555
H2 C6 1_555 1_555
C7 C4 1_555 1_555
C8 C7 1_555 1_555
H3 C8 1_555 1_555
C9 C2 1_555 1_555
C10 C1 1_555 1_555
C11 C10 1_555 1_555
C12 Si1 1_555 1_555
H4 C12 1_555 1_555
H5 C12 1_555 1_555
C13 C12 1_555 1_555
H6 C13 1_555 1_555
H7 C13 1_555 1_555
H8 C13 1_555 1_555
C14 Si1 1_555 1_555
H9 C14 1_555 1_555
H10 C14 1_555 1_555
C15 C14 1_555 1_555
H11 C15 1_555 1_555
H12 C15 1_555 1_555
H13 C15 1_555 1_555
C16 Si1 1_555 1_555
H14 C16 1_555 1_555
H15 C16 1_555 1_555
C17 C16 1_555 1_555
H16 C17 1_555 1_555
H17 C17 1_555 1_555
H18 C17 1_555 1_555
C18 C5 1_555 1_555
C19 N1 1_555 1_555
H19 C19 1_555 1_555
H20 C19 1_555 1_555
C20 C19 1_555 1_555
H21 C20 1_555 1_555
H22 C20 1_555 1_555
C21 C20 1_555 1_555
H23 C21 1_555 1_555
H24 C21 1_555 1_555
C22 N1 1_555 1_555
H25 C22 1_555 1_555
H26 C22 1_555 1_555
Si1B C11B 1_555 1_555
O1B C18B 1_555 1_555
N1B C18B 1_555 1_555
C1B C9 1_555 1_555
C2B C1B 1_555 1_555
C3B C2B 1_555 1_555
H1B C3B 1_555 1_555
C4B C3B 1_555 1_555
S1B C4B 1_555 1_555
C5B S1B 1_555 1_555
C6B C5B 1_555 1_555
H2B C6B 1_555 1_555
C7B C4B 1_555 1_555
C8B C7B 1_555 1_555
H3B C8B 1_555 1_555
C9B C1 1_555 1_555
C10B C1B 1_555 1_555
C11B C10B 1_555 1_555
C12B Si1B 1_555 1_555
H4B C12B 1_555 1_555
H5B C12B 1_555 1_555
C13B C12B 1_555 1_555
H6B C13B 1_555 1_555
H7B C13B 1_555 1_555
H8B C13B 1_555 1_555
C14B Si1B 1_555 1_555
H9B C14B 1_555 1_555
H10B C14B 1_555 1_555
C15B C14B 1_555 1_555
H11B C15B 1_555 1_555
H12B C15B 1_555 1_555
H13B C15B 1_555 1_555
C16B Si1B 1_555 1_555
H14B C16B 1_555 1_555
H15B C16B 1_555 1_555
C17B C16B 1_555 1_555
H16B C17B 1_555 1_555
H17B C17B 1_555 1_555
H18B C17B 1_555 1_555
C18B C5B 1_555 1_555
C19B N1B 1_555 1_555
H19B C19B 1_555 1_555
H20B C19B 1_555 1_555
C20B C19B 1_555 1_555
H21B C20B 1_555 1_555
H22B C20B 1_555 1_555
C21B C20B 1_555 1_555
H23B C21B 1_555 1_555
H24B C21B 1_555 1_555
C22B N1B 1_555 1_555
H25B C22B 1_555 1_555
H26B C22B 1_555 1_555
C6 C7 1_555 1_555
C8 C9 1_555 1_555
C21 C22 1_555 1_555
C2B C9B 1_555 1_555
C6B C7B 1_555 1_555
C8B C9B 1_555 1_555
C21B C22B 1_555 1_555

#END
