
#######################################################################
#
#                 Cambridge Crystallographic Data Centre
#                                CCDC 
#
#######################################################################
#
# If this CIF has been generated from an entry in the Cambridge 
# Structural Database, then it will include bibliographic, chemical, 
# crystal, experimental, refinement or atomic coordinate data resulting 
# from the CCDC's data processing and validation procedures.
#
#######################################################################

data_UVERUK
_chemical_formula_moiety         'C18 H1 B1 F15 1-,C9 H11 Cl1 N1 1+'
_chemical_name_systematic        
'6-chloro-1-methyl-2,3-dihydro-1H-indolium hydrido(tris(pentafluorophenyl))borate'
_symmetry_cell_setting           monoclinic
_symmetry_space_group_name_H-M   'P 21/c'
_symmetry_Int_Tables_number      14
_space_group_name_Hall           '-P 2ybc'
loop_
_symmetry_equiv_pos_site_id
_symmetry_equiv_pos_as_xyz
1 x,y,z
2 -x,1/2+y,1/2-z
3 -x,-y,-z
4 x,1/2-y,1/2+z
_cell_length_a                   13.758(8)
_cell_length_b                   10.075(6)
_cell_length_c                   18.697(11)
_cell_angle_alpha                90
_cell_angle_beta                 92.654(8)
_cell_angle_gamma                90
_cell_volume                     2588.85
_exptl_crystal_colour            colorless
_exptl_crystal_description       plate
_cell_formula_units_Z            4
loop_
_atom_site_label
_atom_site_type_symbol
_atom_site_fract_x
_atom_site_fract_y
_atom_site_fract_z
Cl1 Cl 0.60811(13) 0.3859(3) 0.15009(11)
N1 N 0.2363(4) 0.4857(6) 0.1163(3)
H1 H 0.2399 0.5778 0.1178
C1 C 0.1618(5) 0.4493(9) 0.0581(4)
H2 H 0.1152 0.5230 0.0489
H3 H 0.1253 0.3689 0.0711
C2 C 0.2226(5) 0.4232(8) -0.0085(4)
H4 H 0.1990 0.3435 -0.0350
H5 H 0.2203 0.5004 -0.0414
C3 C 0.3238(5) 0.4021(8) 0.0237(4)
C4 C 0.4046(6) 0.3548(8) -0.0090(4)
H6 H 0.4008 0.3294 -0.0580
C5 C 0.4901(6) 0.3453(8) 0.0306(4)
H7 H 0.5460 0.3110 0.0091
C6 C 0.4970(5) 0.3850(8) 0.1021(4)
C7 C 0.4155(5) 0.4344(8) 0.1356(4)
H8 H 0.4181 0.4643 0.1839
C8 C 0.3316(5) 0.4362(7) 0.0932(4)
C9 C 0.2091(5) 0.4397(7) 0.1889(4)
H9 H 0.2093 0.3425 0.1903
H10 H 0.1441 0.4726 0.1987
H11 H 0.2563 0.4739 0.2252
B1 B 0.7688(5) 0.3600(9) 0.3857(4)
H12 H 0.788(3) 0.244(5) 0.393(2)
F1 F 0.6300(3) 0.5621(4) 0.4458(2)
F2 F 0.4374(3) 0.5642(5) 0.4206(2)
F3 F 0.3498(3) 0.3819(5) 0.3334(2)
F4 F 0.4600(3) 0.1962(5) 0.2688(2)
F5 F 0.6540(3) 0.1910(4) 0.2941(2)
F6 F 0.7386(3) 0.6066(4) 0.3042(2)
F7 F 0.8189(3) 0.6708(5) 0.1823(2)
F8 F 0.9490(3) 0.5041(5) 0.1226(2)
F9 F 0.9961(3) 0.2730(5) 0.1892(2)
F10 F 0.9180(3) 0.2084(4) 0.3124(2)
F11 F 0.7304(3) 0.2572(4) 0.5236(2)
F12 F 0.7920(3) 0.3520(5) 0.6518(2)
F13 F 0.9075(3) 0.5691(5) 0.6624(2)
F14 F 0.9584(3) 0.6945(4) 0.5403(2)
F15 F 0.8962(3) 0.6081(4) 0.4128(2)
C10 C 0.6507(4) 0.3725(7) 0.3733(4)
C11 C 0.5908(5) 0.4672(8) 0.4013(4)
C12 C 0.4916(5) 0.4722(8) 0.3898(4)
C13 C 0.4468(5) 0.3815(9) 0.3454(4)
C14 C 0.5032(5) 0.2856(9) 0.3135(4)
C15 C 0.6014(5) 0.2876(8) 0.3282(4)
C16 C 0.8228(4) 0.4040(8) 0.3150(3)
C17 C 0.8029(4) 0.5167(8) 0.2775(4)
C18 C 0.8439(5) 0.5553(8) 0.2145(4)
C19 C 0.9077(5) 0.4695(10) 0.1853(4)
C20 C 0.9333(5) 0.3550(9) 0.2186(4)
C21 C 0.8898(5) 0.3239(8) 0.2821(4)
C22 C 0.8092(4) 0.4290(7) 0.4616(4)
C23 C 0.7873(4) 0.3697(8) 0.5256(4)
C24 C 0.8173(5) 0.4146(9) 0.5918(4)
C25 C 0.8754(5) 0.5239(8) 0.5974(4)
C26 C 0.9005(5) 0.5868(8) 0.5361(4)
C27 C 0.8670(4) 0.5376(7) 0.4701(4)
loop_
_geom_bond_atom_site_label_1
_geom_bond_atom_site_label_2
_geom_bond_site_symmetry_1
_geom_bond_site_symmetry_2
Cl1 C6 1_555 1_555
N1 H1 1_555 1_555
C1 N1 1_555 1_555
H2 C1 1_555 1_555
H3 C1 1_555 1_555
C2 C1 1_555 1_555
H4 C2 1_555 1_555
H5 C2 1_555 1_555
C3 C2 1_555 1_555
C4 C3 1_555 1_555
H6 C4 1_555 1_555
C5 C4 1_555 1_555
H7 C5 1_555 1_555
C6 C5 1_555 1_555
C7 C6 1_555 1_555
H8 C7 1_555 1_555
C8 N1 1_555 1_555
C9 N1 1_555 1_555
H9 C9 1_555 1_555
H10 C9 1_555 1_555
H11 C9 1_555 1_555
B1 H12 1_555 1_555
F1 C11 1_555 1_555
F2 C12 1_555 1_555
F3 C13 1_555 1_555
F4 C14 1_555 1_555
F5 C15 1_555 1_555
F6 C17 1_555 1_555
F7 C18 1_555 1_555
F8 C19 1_555 1_555
F9 C20 1_555 1_555
F10 C21 1_555 1_555
F11 C23 1_555 1_555
F12 C24 1_555 1_555
F13 C25 1_555 1_555
F14 C26 1_555 1_555
F15 C27 1_555 1_555
C10 B1 1_555 1_555
C11 C10 1_555 1_555
C12 C11 1_555 1_555
C13 C12 1_555 1_555
C14 C13 1_555 1_555
C15 C10 1_555 1_555
C16 B1 1_555 1_555
C17 C16 1_555 1_555
C18 C17 1_555 1_555
C19 C18 1_555 1_555
C20 C19 1_555 1_555
C21 C16 1_555 1_555
C22 B1 1_555 1_555
C23 C22 1_555 1_555
C24 C23 1_555 1_555
C25 C24 1_555 1_555
C26 C25 1_555 1_555
C27 C22 1_555 1_555
C3 C8 1_555 1_555
C7 C8 1_555 1_555
C14 C15 1_555 1_555
C20 C21 1_555 1_555
C26 C27 1_555 1_555

#END
