
#######################################################################
#
#                 Cambridge Crystallographic Data Centre
#                                CCDC 
#
#######################################################################
#
# If this CIF has been generated from an entry in the Cambridge 
# Structural Database, then it will include bibliographic, chemical, 
# crystal, experimental, refinement or atomic coordinate data resulting 
# from the CCDC's data processing and validation procedures.
#
#######################################################################

data_UVERAP
_chemical_formula_moiety         'C44 H52 N2 O2 S2 Si2,C7 H8'
_chemical_name_systematic        
"(5,11-bis((Triethylsilyl)ethynyl)thieno[3',2':6,7]anthra[2,3-b]thiene-2,8-diyl)bis(pyrrolidin-1-ylmethanone) toluene solvate"
_symmetry_cell_setting           triclinic
_symmetry_space_group_name_H-M   'P -1'
_symmetry_Int_Tables_number      2
_space_group_name_Hall           '-P 1'
loop_
_symmetry_equiv_pos_site_id
_symmetry_equiv_pos_as_xyz
1 x,y,z
2 -x,-y,-z
_cell_length_a                   11.1843(3)
_cell_length_b                   14.8367(4)
_cell_length_c                   15.7732(4)
_cell_angle_alpha                63.054(1)
_cell_angle_beta                 77.064(1)
_cell_angle_gamma                89.140(1)
_cell_volume                     2262.72
_exptl_crystal_colour            red
_exptl_crystal_description       'subhedral rod'
_cell_formula_units_Z            2
loop_
_atom_site_label
_atom_site_type_symbol
_atom_site_fract_x
_atom_site_fract_y
_atom_site_fract_z
Si1 Si 0.22576(3) 0.01747(3) 0.67228(3)
Si2 Si 0.37113(3) 0.88774(3) 0.21176(3)
N1 N -0.27206(10) 0.60833(9) 0.70358(8)
N2 N 1.06098(10) 0.52179(9) 0.09518(8)
O1 O -0.29606(9) 0.43742(7) 0.78832(7)
O2 O 1.03468(9) 0.35374(7) 0.19827(7)
C1 C 0.36145(12) 0.34560(10) 0.51924(9)
C2 C 0.26740(12) 0.40474(10) 0.53661(9)
C3 C 0.15690(12) 0.35923(10) 0.61094(9)
H1 H 0.1445 0.2877 0.6508
C4 C 0.06843(12) 0.41937(10) 0.62468(9)
S1 S -0.07214(3) 0.38032(2) 0.71227(2)
C5 C -0.10961(12) 0.50664(10) 0.66965(9)
C6 C -0.02160(12) 0.57424(11) 0.59226(10)
H2 H -0.0284 0.6452 0.5597
C7 C 0.08292(12) 0.52713(10) 0.56483(9)
C8 C 0.18890(12) 0.57258(10) 0.49208(9)
H3 H 0.1985 0.6441 0.4519
C9 C 0.28358(12) 0.51351(10) 0.47679(9)
C10 C 0.39348(12) 0.55978(10) 0.40255(9)
C11 C 0.48980(12) 0.50109(10) 0.38913(9)
C12 C 0.60020(12) 0.54776(10) 0.31628(9)
H4 H 0.6122 0.6196 0.2787
C13 C 0.69039(12) 0.48965(10) 0.29954(9)
C14 C 0.80589(12) 0.52334(11) 0.22653(10)
H5 H 0.8322 0.5926 0.1812
C15 C 0.87328(12) 0.44532(10) 0.22947(9)
S2 S 0.80085(3) 0.32577(2) 0.32225(2)
C16 C 0.67408(12) 0.38175(10) 0.35829(10)
C17 C 0.57007(12) 0.33391(10) 0.43199(10)
H6 H 0.5623 0.2624 0.4719
C18 C 0.47399(12) 0.39232(10) 0.44815(9)
C19 C 0.33675(11) 0.23736(10) 0.57042(9)
C20 C 0.30390(12) 0.14720(10) 0.61160(10)
C21 C 0.33541(14) -0.07280(11) 0.65496(12)
H7 H 0.4157 -0.0572 0.6644
H8 H 0.3030 -0.1429 0.7057
C22 C 0.35566(15) -0.06783(12) 0.55381(13)
H9 H 0.2794 -0.0937 0.5479
H10 H 0.4218 -0.1094 0.5455
H11 H 0.3787 0.0028 0.5031
C23 C 0.09626(13) 0.02480(11) 0.61240(11)
H12 H 0.0429 0.0759 0.6197
H13 H 0.1314 0.0491 0.5414
C24 C 0.01623(14) -0.07564(12) 0.65339(13)
H14 H 0.0686 -0.1281 0.6501
H15 H -0.0443 -0.0666 0.6145
H16 H -0.0268 -0.0965 0.7218
C25 C 0.16387(14) -0.02056(12) 0.80534(11)
H17 H 0.1145 -0.0873 0.8365
H18 H 0.2342 -0.0297 0.8360
C26 C 0.08423(17) 0.05373(15) 0.82797(13)
H19 H 0.1343 0.1181 0.8037
H20 H 0.0512 0.0250 0.8990
H21 H 0.0160 0.0659 0.7958
C27 C 0.40307(11) 0.66633(10) 0.33888(9)
C28 C 0.40153(12) 0.75550(10) 0.28516(10)
C29 C 0.36089(13) 0.90939(11) 0.08726(10)
H22 H 0.3446 0.9808 0.0500
H23 H 0.4422 0.9007 0.0527
C30 C 0.26287(15) 0.84065(12) 0.08446(11)
H24 H 0.2797 0.7696 0.1184
H25 H 0.2648 0.8589 0.0161
H26 H 0.1813 0.8494 0.1171
C31 C 0.49979(14) 0.97551(11) 0.19986(11)
H27 H 0.5182 0.9516 0.2648
H28 H 0.5745 0.9716 0.1546
C32 C 0.47244(15) 1.08664(11) 0.16225(12)
H29 H 0.4514 1.1105 0.0989
H30 H 0.5454 1.1282 0.1542
H31 H 0.4031 1.0923 0.2095
C33 C 0.22192(13) 0.90323(12) 0.28404(11)
H32 H 0.1962 0.9711 0.2457
H33 H 0.1576 0.8516 0.2946
C34 C 0.23141(15) 0.89221(13) 0.38371(12)
H34 H 0.2595 0.8260 0.4211
H35 H 0.1503 0.8972 0.4201
H36 H 0.2905 0.9464 0.3736
C35 C -0.23211(12) 0.51594(10) 0.72450(9)
C36 C -0.39615(12) 0.61358(11) 0.75639(10)
H37 H -0.4018 0.5859 0.8274
H38 H -0.4596 0.5755 0.7470
C37 C -0.41146(13) 0.72669(11) 0.71021(11)
H39 H -0.4656 0.7447 0.7580
H40 H -0.4464 0.7475 0.6524
C38 C -0.28010(13) 0.77612(11) 0.68035(11)
H41 H -0.2556 0.7756 0.7371
H42 H -0.2717 0.8471 0.6280
C39 C -0.20267(13) 0.70972(10) 0.64320(10)
H43 H -0.1967 0.7334 0.5726
H44 H -0.1186 0.7093 0.6537
C40 C 0.99559(12) 0.43802(10) 0.17267(10)
C41 C 1.02795(13) 0.62692(11) 0.05237(10)
H45 H 1.0279 0.6571 0.0970
H46 H 0.9457 0.6298 0.0383
C42 C 1.12869(14) 0.68183(12) -0.04208(11)
H47 H 1.1050 0.6791 -0.0978
H48 H 1.1461 0.7538 -0.0581
C43 C 1.23944(14) 0.62295(12) -0.01843(12)
H49 H 1.2814 0.6449 0.0191
H50 H 1.2994 0.6321 -0.0790
C44 C 1.18316(13) 0.51279(12) 0.04328(11)
H51 H 1.1765 0.4807 0.0013
H52 H 1.2328 0.4725 0.0899
C45 C 0.64401(13) 0.69830(12) 0.01479(10)
C46 C 0.60993(14) 0.73254(12) 0.08440(11)
H53 H 0.5322 0.7079 0.1304
C47 C 0.68701(17) 0.80180(13) 0.08803(12)
H54 H 0.6629 0.8232 0.1372
C48 C 0.79961(17) 0.84015(13) 0.01994(14)
H55 H 0.8525 0.8883 0.0219
C49 C 0.83414(15) 0.80765(13) -0.05074(12)
H56 H 0.9108 0.8341 -0.0979
C50 C 0.75757(14) 0.73677(12) -0.05319(11)
H57 H 0.7825 0.7142 -0.1015
C51 C 0.55912(15) 0.62237(15) 0.01244(13)
H58 H 0.4817 0.6083 0.0621
H59 H 0.5982 0.5593 0.0263
H60 H 0.5421 0.6500 -0.0526
loop_
_geom_bond_atom_site_label_1
_geom_bond_atom_site_label_2
_geom_bond_site_symmetry_1
_geom_bond_site_symmetry_2
Si1 C20 1_555 1_555
Si2 C28 1_555 1_555
N1 C35 1_555 1_555
N2 C40 1_555 1_555
O1 C35 1_555 1_555
O2 C40 1_555 1_555
C1 C2 1_555 1_555
C2 C3 1_555 1_555
C3 H1 1_555 1_555
C4 C3 1_555 1_555
S1 C4 1_555 1_555
C5 S1 1_555 1_555
C6 C5 1_555 1_555
H2 C6 1_555 1_555
C7 C4 1_555 1_555
C8 C7 1_555 1_555
H3 C8 1_555 1_555
C9 C2 1_555 1_555
C10 C9 1_555 1_555
C11 C10 1_555 1_555
C12 C11 1_555 1_555
H4 C12 1_555 1_555
C13 C12 1_555 1_555
C14 C13 1_555 1_555
H5 C14 1_555 1_555
C15 C14 1_555 1_555
S2 C15 1_555 1_555
C16 C13 1_555 1_555
C17 C16 1_555 1_555
H6 C17 1_555 1_555
C18 C1 1_555 1_555
C19 C1 1_555 1_555
C20 C19 1_555 1_555
C21 Si1 1_555 1_555
H7 C21 1_555 1_555
H8 C21 1_555 1_555
C22 C21 1_555 1_555
H9 C22 1_555 1_555
H10 C22 1_555 1_555
H11 C22 1_555 1_555
C23 Si1 1_555 1_555
H12 C23 1_555 1_555
H13 C23 1_555 1_555
C24 C23 1_555 1_555
H14 C24 1_555 1_555
H15 C24 1_555 1_555
H16 C24 1_555 1_555
C25 Si1 1_555 1_555
H17 C25 1_555 1_555
H18 C25 1_555 1_555
C26 C25 1_555 1_555
H19 C26 1_555 1_555
H20 C26 1_555 1_555
H21 C26 1_555 1_555
C27 C10 1_555 1_555
C28 C27 1_555 1_555
C29 Si2 1_555 1_555
H22 C29 1_555 1_555
H23 C29 1_555 1_555
C30 C29 1_555 1_555
H24 C30 1_555 1_555
H25 C30 1_555 1_555
H26 C30 1_555 1_555
C31 Si2 1_555 1_555
H27 C31 1_555 1_555
H28 C31 1_555 1_555
C32 C31 1_555 1_555
H29 C32 1_555 1_555
H30 C32 1_555 1_555
H31 C32 1_555 1_555
C33 Si2 1_555 1_555
H32 C33 1_555 1_555
H33 C33 1_555 1_555
C34 C33 1_555 1_555
H34 C34 1_555 1_555
H35 C34 1_555 1_555
H36 C34 1_555 1_555
C35 C5 1_555 1_555
C36 N1 1_555 1_555
H37 C36 1_555 1_555
H38 C36 1_555 1_555
C37 C36 1_555 1_555
H39 C37 1_555 1_555
H40 C37 1_555 1_555
C38 C37 1_555 1_555
H41 C38 1_555 1_555
H42 C38 1_555 1_555
C39 N1 1_555 1_555
H43 C39 1_555 1_555
H44 C39 1_555 1_555
C40 C15 1_555 1_555
C41 N2 1_555 1_555
H45 C41 1_555 1_555
H46 C41 1_555 1_555
C42 C41 1_555 1_555
H47 C42 1_555 1_555
H48 C42 1_555 1_555
C43 C42 1_555 1_555
H49 C43 1_555 1_555
H50 C43 1_555 1_555
C44 N2 1_555 1_555
H51 C44 1_555 1_555
H52 C44 1_555 1_555
C45 C46 1_555 1_555
C46 H53 1_555 1_555
C47 C46 1_555 1_555
H54 C47 1_555 1_555
C48 C47 1_555 1_555
H55 C48 1_555 1_555
C49 C48 1_555 1_555
H56 C49 1_555 1_555
C50 C45 1_555 1_555
H57 C50 1_555 1_555
C51 C45 1_555 1_555
H58 C51 1_555 1_555
H59 C51 1_555 1_555
H60 C51 1_555 1_555
C6 C7 1_555 1_555
C8 C9 1_555 1_555
C11 C18 1_555 1_555
S2 C16 1_555 1_555
C17 C18 1_555 1_555
C38 C39 1_555 1_555
C43 C44 1_555 1_555
C49 C50 1_555 1_555

#END
