
#######################################################################
#
#                 Cambridge Crystallographic Data Centre
#                                CCDC 
#
#######################################################################
#
# If this CIF has been generated from an entry in the Cambridge 
# Structural Database, then it will include bibliographic, chemical, 
# crystal, experimental, refinement or atomic coordinate data resulting 
# from the CCDC's data processing and validation procedures.
#
#######################################################################

data_UVEROE
_chemical_formula_moiety         'C25 H19 N1'
_chemical_name_systematic        2,3-dihydro-1H-spiro[acridine-4,9'-fluorene]
_symmetry_cell_setting           monoclinic
_symmetry_space_group_name_H-M   'P 21/c'
_symmetry_Int_Tables_number      14
_space_group_name_Hall           '-P 2ybc'
loop_
_symmetry_equiv_pos_site_id
_symmetry_equiv_pos_as_xyz
1 x,y,z
2 -x,1/2+y,1/2-z
3 -x,-y,-z
4 x,1/2-y,1/2+z
_cell_length_a                   8.8599(6)
_cell_length_b                   12.0503(7)
_cell_length_c                   16.1798(11)
_cell_angle_alpha                90
_cell_angle_beta                 92.094(6)
_cell_angle_gamma                90
_cell_volume                     1726.27
_exptl_crystal_colour            yellow
_exptl_crystal_description       block
_cell_formula_units_Z            4
loop_
_atom_site_label
_atom_site_type_symbol
_atom_site_fract_x
_atom_site_fract_y
_atom_site_fract_z
N1 N 0.77923(14) 0.37622(10) 0.15265(8)
C1 C 0.65236(19) 0.22669(14) 0.08244(12)
H1 H 0.6696 0.2605 0.0320
C2 C 0.5807(2) 0.12646(15) 0.08424(14)
H2 H 0.5503 0.0920 0.0349
C3 C 0.5526(2) 0.07510(15) 0.15984(15)
H3 H 0.5046 0.0065 0.1603
C4 C 0.59474(19) 0.12461(14) 0.23216(13)
H4 H 0.5749 0.0898 0.2819
C5 C 0.66843(16) 0.22830(12) 0.23288(11)
C6 C 0.70033(17) 0.27921(12) 0.15655(10)
C7 C 0.82788(16) 0.42353(12) 0.22248(9)
C8 C 0.79717(17) 0.38072(13) 0.30235(9)
C9 C 0.71848(18) 0.28369(13) 0.30513(11)
H5 H 0.6974 0.2534 0.3563
C10 C 0.8507(2) 0.43924(15) 0.38050(10)
H6 H 0.8745 0.3843 0.4228
H7 H 0.7694 0.4851 0.4000
C11 C 0.9883(2) 0.51127(15) 0.36860(11)
H8 H 1.0093 0.5552 0.4179
H9 H 1.0755 0.4649 0.3592
C12 C 0.95861(19) 0.58693(14) 0.29514(10)
H10 H 1.0441 0.6364 0.2900
H11 H 0.8706 0.6322 0.3053
C13 C 0.93188(17) 0.52366(12) 0.21257(9)
C14 C 1.07963(17) 0.48397(12) 0.17588(9)
C15 C 1.17707(18) 0.40148(13) 0.20378(11)
H12 H 1.1560 0.3606 0.2507
C16 C 1.30700(19) 0.38038(14) 0.16079(11)
H13 H 1.3741 0.3259 0.1798
C17 C 1.33759(19) 0.43971(14) 0.08990(12)
H14 H 1.4261 0.4258 0.0625
C18 C 1.23819(19) 0.51901(13) 0.05974(11)
H15 H 1.2572 0.5568 0.0111
C19 C 1.10859(17) 0.54183(12) 0.10310(9)
C20 C 0.98296(17) 0.61832(12) 0.08550(9)
C21 C 0.87753(17) 0.60591(11) 0.14671(10)
C22 C 0.7477(2) 0.66963(13) 0.14500(11)
H16 H 0.6772 0.6617 0.1858
C23 C 0.7244(2) 0.74563(14) 0.08142(13)
H17 H 0.6376 0.7891 0.0797
C24 C 0.8287(2) 0.75756(14) 0.02064(13)
H18 H 0.8111 0.8089 -0.0215
C25 C 0.9584(2) 0.69444(13) 0.02155(11)
H19 H 1.0281 0.7025 -0.0196
loop_
_geom_bond_atom_site_label_1
_geom_bond_atom_site_label_2
_geom_bond_site_symmetry_1
_geom_bond_site_symmetry_2
N1 C6 1_555 1_555
C1 H1 1_555 1_555
C2 C1 1_555 1_555
H2 C2 1_555 1_555
C3 C2 1_555 1_555
H3 C3 1_555 1_555
C4 C3 1_555 1_555
H4 C4 1_555 1_555
C5 C4 1_555 1_555
C6 C1 1_555 1_555
C7 N1 1_555 1_555
C8 C7 1_555 1_555
C9 C5 1_555 1_555
H5 C9 1_555 1_555
C10 C8 1_555 1_555
H6 C10 1_555 1_555
H7 C10 1_555 1_555
C11 C10 1_555 1_555
H8 C11 1_555 1_555
H9 C11 1_555 1_555
C12 C11 1_555 1_555
H10 C12 1_555 1_555
H11 C12 1_555 1_555
C13 C7 1_555 1_555
C14 C13 1_555 1_555
C15 C14 1_555 1_555
H12 C15 1_555 1_555
C16 C15 1_555 1_555
H13 C16 1_555 1_555
C17 C16 1_555 1_555
H14 C17 1_555 1_555
C18 C17 1_555 1_555
H15 C18 1_555 1_555
C19 C14 1_555 1_555
C20 C19 1_555 1_555
C21 C13 1_555 1_555
C22 C21 1_555 1_555
H16 C22 1_555 1_555
C23 C22 1_555 1_555
H17 C23 1_555 1_555
C24 C23 1_555 1_555
H18 C24 1_555 1_555
C25 C20 1_555 1_555
H19 C25 1_555 1_555
C5 C6 1_555 1_555
C8 C9 1_555 1_555
C12 C13 1_555 1_555
C18 C19 1_555 1_555
C20 C21 1_555 1_555
C24 C25 1_555 1_555

#END
