
#######################################################################
#
#                 Cambridge Crystallographic Data Centre
#                                CCDC 
#
#######################################################################
#
# If this CIF has been generated from an entry in the Cambridge 
# Structural Database, then it will include bibliographic, chemical, 
# crystal, experimental, refinement or atomic coordinate data resulting 
# from the CCDC's data processing and validation procedures.
#
#######################################################################

data_UVESAQ
_chemical_formula_moiety         'C14 H15 F5 N4'
_chemical_name_systematic        
2-Cyano-1-hexyl-3-(pentafluorophenyl)guanidine
_symmetry_cell_setting           monoclinic
_symmetry_space_group_name_H-M   'P 21/c'
_symmetry_Int_Tables_number      14
_space_group_name_Hall           '-P 2ybc'
loop_
_symmetry_equiv_pos_site_id
_symmetry_equiv_pos_as_xyz
1 x,y,z
2 -x,1/2+y,1/2-z
3 -x,-y,-z
4 x,1/2-y,1/2+z
_cell_length_a                   13.6862(9)
_cell_length_b                   10.6669(7)
_cell_length_c                   11.3955(7)
_cell_angle_alpha                90
_cell_angle_beta                 109.570(4)
_cell_angle_gamma                90
_cell_volume                     1567.52
_exptl_crystal_colour            colorless
_exptl_crystal_description       block
_cell_formula_units_Z            4
loop_
_atom_site_label
_atom_site_type_symbol
_atom_site_fract_x
_atom_site_fract_y
_atom_site_fract_z
C1 C 0.83839(17) 0.3043(2) 0.2129(2)
C2 C 0.77434(19) 0.3478(2) 0.0982(2)
C3 C 0.68646(19) 0.2842(3) 0.0303(2)
C4 C 0.65789(19) 0.1768(3) 0.0783(2)
C5 C 0.71870(19) 0.1326(2) 0.1930(2)
C6 C 0.80810(18) 0.1957(2) 0.2584(2)
C7 C 1.01534(18) 0.3767(2) 0.2483(2)
C8 C 1.09338(17) 0.5164(2) 0.4033(2)
C9 C 1.10652(19) 0.3183(2) 0.1039(2)
H1 H 1.1373 0.4013 0.1177
H2 H 1.0824 0.3024 0.0150
C10 C 1.1884(2) 0.2226(3) 0.1684(3)
H3 H 1.1570 0.1400 0.1584
H4 H 1.2154 0.2412 0.2568
C11 C 1.2777(2) 0.2219(3) 0.1160(3)
H5 H 1.2500 0.2333 0.0264
H6 H 1.3236 0.2918 0.1509
C12 C 1.3402(6) 0.1000(8) 0.1450(8)
H7 H 1.2953 0.0311 0.1043
H8 H 1.3956 0.1050 0.1100
C13 C 1.3861(6) 0.0717(8) 0.2807(8)
H9 H 1.3316 0.0590 0.3162
H10 H 1.4292 0.1409 0.3238
C14 C 1.4545(3) -0.0531(3) 0.2953(4)
H11 H 1.4440 -0.1056 0.3584
H12 H 1.5265 -0.0309 0.3186
H13 H 1.4340 -0.0975 0.2175
N1 N 0.92923(15) 0.36918(17) 0.28270(17)
H14 H 0.9303 0.4058 0.3503
N2 N 1.01733(15) 0.31576(19) 0.14856(17)
H15 H 0.9639 0.2724 0.1075
N3 N 1.09806(15) 0.44291(19) 0.31344(17)
N4 N 1.09744(15) 0.58706(18) 0.48256(17)
F1 F 0.79875(12) 0.45498(14) 0.05319(13)
F2 F 0.62689(13) 0.32709(19) -0.08052(15)
F3 F 0.57055(12) 0.11653(18) 0.01461(16)
F4 F 0.69157(12) 0.02784(15) 0.23902(15)
F5 F 0.86805(12) 0.15070(13) 0.36911(12)
C15? C 1.3784(4) 0.1528(5) 0.1994(6)
C16? C 1.3556(4) 0.0131(5) 0.2157(7)
H16? H 1.303(5) 0.308(7) 0.108(6)
H17? H 1.254(5) 0.192(7) 0.024(6)
H18? H 1.4317 0.1592 0.1610
H19? H 1.4041 0.1929 0.2804
H20? H 1.3032 0.0065 0.2553
H21? H 1.3291 -0.0269 0.1347
loop_
_geom_bond_atom_site_label_1
_geom_bond_atom_site_label_2
_geom_bond_site_symmetry_1
_geom_bond_site_symmetry_2
C1 C2 1_555 1_555
C2 C3 1_555 1_555
C3 C4 1_555 1_555
C4 C5 1_555 1_555
C5 C6 1_555 1_555
C6 C1 1_555 1_555
C7 N1 1_555 1_555
C8 N3 1_555 1_555
C9 H1 1_555 1_555
H2 C9 1_555 1_555
C10 C9 1_555 1_555
H3 C10 1_555 1_555
H4 C10 1_555 1_555
C11 C10 1_555 1_555
H5 C11 1_555 1_555
H6 C11 1_555 1_555
C12 C11 1_555 1_555
H7 C12 1_555 1_555
H8 C12 1_555 1_555
C13 C12 1_555 1_555
H9 C13 1_555 1_555
H10 C13 1_555 1_555
C14 C13 1_555 1_555
H11 C14 1_555 1_555
H12 C14 1_555 1_555
H13 C14 1_555 1_555
N1 C1 1_555 1_555
H14 N1 1_555 1_555
N2 C7 1_555 1_555
H15 N2 1_555 1_555
N3 C7 1_555 1_555
N4 C8 1_555 1_555
F1 C2 1_555 1_555
F2 C3 1_555 1_555
F3 C4 1_555 1_555
F4 C5 1_555 1_555
F5 C6 1_555 1_555
C9 N2 1_555 1_555

#END
