
#######################################################################
#
#                 Cambridge Crystallographic Data Centre
#                                CCDC 
#
#######################################################################
#
# If this CIF has been generated from an entry in the Cambridge 
# Structural Database, then it will include bibliographic, chemical, 
# crystal, experimental, refinement or atomic coordinate data resulting 
# from the CCDC's data processing and validation procedures.
#
#######################################################################

data_UVIFOV
_chemical_formula_moiety         'C26 H23 F3 N2 O2 S1'
_chemical_name_systematic        
4-(trans-1-((4-Methylphenyl)sulfonyl)-2-(4-(trifluoromethyl)phenyl)piperidin-4-yl)benzonitrile
_symmetry_cell_setting           monoclinic
_symmetry_space_group_name_H-M   'C 2/c'
_symmetry_Int_Tables_number      15
_space_group_name_Hall           '-C 2yn'
loop_
_symmetry_equiv_pos_site_id
_symmetry_equiv_pos_as_xyz
1 x,y,z
2 -x,y,1/2-z
3 1/2+x,1/2+y,z
4 1/2-x,1/2+y,1/2-z
5 -x,-y,-z
6 x,-y,1/2+z
7 1/2-x,1/2-y,-z
8 1/2+x,1/2-y,1/2+z
_cell_length_a                   22.3664(8)
_cell_length_b                   14.5275(6)
_cell_length_c                   15.9004(5)
_cell_angle_alpha                90
_cell_angle_beta                 116.2098(18)
_cell_angle_gamma                90
_cell_volume                     4635.28
_exptl_crystal_colour            colorless
_exptl_crystal_description       block
_cell_formula_units_Z            8
loop_
_atom_site_label
_atom_site_type_symbol
_atom_site_fract_x
_atom_site_fract_y
_atom_site_fract_z
S1 S 0.37537(3) -0.05736(4) -0.09005(4)
F1 F 0.38896(13) 0.44285(11) 0.14129(16)
F2 F 0.44060(11) 0.39971(14) 0.28257(16)
F3 F 0.33665(9) 0.39279(12) 0.21314(15)
O1 O 0.42891(7) -0.00373(11) -0.09119(10)
O2 O 0.31553(7) -0.06907(11) -0.17494(10)
N1 N 0.35353(8) -0.00917(12) -0.01535(11)
N2 N 0.31203(11) -0.45902(16) 0.39534(15)
C1 C 0.40850(11) -0.16673(15) -0.04655(14)
C2 C 0.36749(11) -0.24336(16) -0.06836(15)
H1 H 0.3216 -0.2382 -0.1107
C3 C 0.39375(12) -0.32724(16) -0.02814(17)
H2 H 0.3658 -0.3800 -0.0446
C4 C 0.46036(12) -0.33584(17) 0.03601(18)
C5 C 0.50049(12) -0.25848(17) 0.05530(18)
H3 H 0.5463 -0.2635 0.0979
C6 C 0.47597(11) -0.17470(16) 0.01462(16)
H4 H 0.5046 -0.1229 0.0280
C7 C 0.48788(15) -0.42594(19) 0.0855(2)
H5 H 0.4940 -0.4221 0.1503
H6 H 0.5309 -0.4384 0.0853
H7 H 0.4566 -0.4758 0.0529
C8 C 0.28534(10) -0.02107(16) -0.02495(15)
H8 H 0.2545 -0.0320 -0.0917
H9 H 0.2713 0.0363 -0.0052
C9 C 0.28025(11) -0.10054(16) 0.03318(15)
H10 H 0.2896 -0.1590 0.0093
H11 H 0.2344 -0.1038 0.0274
C10 C 0.32984(10) -0.08856(15) 0.13667(14)
H12 H 0.3169 -0.0323 0.1610
C11 C 0.40031(11) -0.07372(15) 0.14557(15)
H13 H 0.4159 -0.1318 0.1292
H14 H 0.4307 -0.0593 0.2117
C12 C 0.40494(10) 0.00410(15) 0.08281(14)
H15 H 0.4495 -0.0013 0.0826
C13 C 0.39965(10) 0.10169(16) 0.11433(14)
C14 C 0.41296(15) 0.12287(18) 0.20577(17)
H16 H 0.4239 0.0747 0.2506
C15 C 0.41074(16) 0.21206(18) 0.23324(18)
H17 H 0.4201 0.2247 0.2965
C16 C 0.39507(12) 0.28320(16) 0.16990(17)
C17 C 0.38365(15) 0.26410(18) 0.07911(18)
H18 H 0.3740 0.3126 0.0349
C18 C 0.38635(14) 0.17392(17) 0.05238(16)
H19 H 0.3788 0.1616 -0.0102
C19 C 0.39071(14) 0.37871(18) 0.20037(19)
C20 C 0.32609(10) -0.17067(15) 0.19317(14)
C21 C 0.34758(12) -0.25750(16) 0.18092(16)
H20 H 0.3659 -0.2649 0.1376
C22 C 0.34283(12) -0.33312(16) 0.23054(16)
H21 H 0.3580 -0.3918 0.2218
C23 C 0.31551(11) -0.32228(15) 0.29345(15)
C24 C 0.29274(11) -0.23700(16) 0.30506(15)
H22 H 0.2733 -0.2299 0.3471
C25 C 0.29828(11) -0.16169(15) 0.25520(14)
H23 H 0.2828 -0.1032 0.2637
C26 C 0.31276(12) -0.39978(17) 0.34895(16)
loop_
_geom_bond_atom_site_label_1
_geom_bond_atom_site_label_2
_geom_bond_site_symmetry_1
_geom_bond_site_symmetry_2
S1 O1 1_555 1_555
F1 C19 1_555 1_555
F2 C19 1_555 1_555
F3 C19 1_555 1_555
O2 S1 1_555 1_555
N1 S1 1_555 1_555
N2 C26 1_555 1_555
C1 S1 1_555 1_555
C2 C1 1_555 1_555
H1 C2 1_555 1_555
C3 C2 1_555 1_555
H2 C3 1_555 1_555
C4 C3 1_555 1_555
C5 C4 1_555 1_555
H3 C5 1_555 1_555
C6 C1 1_555 1_555
H4 C6 1_555 1_555
C7 C4 1_555 1_555
H5 C7 1_555 1_555
H6 C7 1_555 1_555
H7 C7 1_555 1_555
C8 N1 1_555 1_555
H8 C8 1_555 1_555
H9 C8 1_555 1_555
C9 C8 1_555 1_555
H10 C9 1_555 1_555
H11 C9 1_555 1_555
C10 C9 1_555 1_555
H12 C10 1_555 1_555
C11 C10 1_555 1_555
H13 C11 1_555 1_555
H14 C11 1_555 1_555
C12 N1 1_555 1_555
H15 C12 1_555 1_555
C13 C12 1_555 1_555
C14 C13 1_555 1_555
H16 C14 1_555 1_555
C15 C14 1_555 1_555
H17 C15 1_555 1_555
C16 C15 1_555 1_555
C17 C16 1_555 1_555
H18 C17 1_555 1_555
C18 C13 1_555 1_555
H19 C18 1_555 1_555
C19 C16 1_555 1_555
C20 C10 1_555 1_555
C21 C20 1_555 1_555
H20 C21 1_555 1_555
C22 C21 1_555 1_555
H21 C22 1_555 1_555
C23 C22 1_555 1_555
C24 C23 1_555 1_555
H22 C24 1_555 1_555
C25 C20 1_555 1_555
H23 C25 1_555 1_555
C26 C23 1_555 1_555
C5 C6 1_555 1_555
C11 C12 1_555 1_555
C17 C18 1_555 1_555
C24 C25 1_555 1_555

#END
