
#######################################################################
#
#                 Cambridge Crystallographic Data Centre
#                                CCDC 
#
#######################################################################
#
# If this CIF has been generated from an entry in the Cambridge 
# Structural Database, then it will include bibliographic, chemical, 
# crystal, experimental, refinement or atomic coordinate data resulting 
# from the CCDC's data processing and validation procedures.
#
#######################################################################

data_UVIGEM
_chemical_formula_moiety         'C20 H22 F3 N1 O2 S1'
_chemical_name_systematic        
trans-2-Methyl-1-((4-methylphenyl)sulfonyl)-5-(4-(trifluoromethyl)phenyl)piperidine
_symmetry_cell_setting           monoclinic
_symmetry_space_group_name_H-M   'P 21/n'
_symmetry_Int_Tables_number      14
_space_group_name_Hall           '-P 2yn'
loop_
_symmetry_equiv_pos_site_id
_symmetry_equiv_pos_as_xyz
1 x,y,z
2 1/2-x,1/2+y,1/2-z
3 -x,-y,-z
4 1/2+x,1/2-y,1/2+z
_cell_length_a                   10.1552(5)
_cell_length_b                   11.7039(5)
_cell_length_c                   16.2918(8)
_cell_angle_alpha                90
_cell_angle_beta                 98.366(4)
_cell_angle_gamma                90
_cell_volume                     1915.76
_exptl_crystal_colour            colorless
_exptl_crystal_description       block
_cell_formula_units_Z            4
loop_
_atom_site_label
_atom_site_type_symbol
_atom_site_fract_x
_atom_site_fract_y
_atom_site_fract_z
S1 S 0.40133(5) 0.07834(4) 0.82101(2)
F1 F -0.1063(2) 0.4200(3) 1.0449(3)
F2 F -0.2478(6) 0.4237(3) 0.93471(14)
F3 F -0.2866(3) 0.32601(15) 1.0377(2)
O1 O 0.42670(13) 0.14950(9) 0.75344(7)
O2 O 0.41519(13) 0.12489(10) 0.90296(7)
N1 N 0.24869(14) 0.03267(11) 0.79892(8)
C1 C 0.51029(17) -0.04012(14) 0.82537(10)
C2 C 0.53844(18) -0.10260(14) 0.89817(10)
H1 H 0.4994 -0.0824 0.9450
C3 C 0.62412(18) -0.19470(14) 0.90155(10)
H2 H 0.6426 -0.2369 0.9510
C4 C 0.68372(18) -0.22632(14) 0.83304(11)
C5 C 0.65234(17) -0.16338(14) 0.76052(10)
H3 H 0.6898 -0.1843 0.7132
C6 C 0.56732(17) -0.07070(14) 0.75629(10)
H4 H 0.5483 -0.0286 0.7068
C7 C 0.7800(2) -0.32409(16) 0.83645(12)
H5 H 0.7706 -0.3615 0.7828
H6 H 0.7614 -0.3784 0.8783
H7 H 0.8701 -0.2955 0.8505
C8 C 0.19903(18) -0.04406(15) 0.85999(10)
H8 H 0.2395 -0.0223 0.9161
H9 H 0.2258 -0.1228 0.8502
C9 C 0.04784(18) -0.03833(14) 0.85392(11)
H10 H 0.0208 -0.1049 0.8851
C10 C -0.01604(19) -0.05500(15) 0.76314(11)
H11 H 0.0005 -0.1331 0.7455
H12 H -0.1125 -0.0442 0.7586
C11 C 0.04049(19) 0.02906(16) 0.70692(10)
H13 H 0.0203 0.1070 0.7232
H14 H -0.0025 0.0173 0.6497
C12 C 0.19070(18) 0.01615(15) 0.71069(10)
H15 H 0.2225 0.0792 0.6781
C13 C 0.2288(2) -0.09639(16) 0.67314(11)
H16 H 0.3230 -0.0958 0.6687
H17 H 0.1778 -0.1057 0.6184
H18 H 0.2097 -0.1592 0.7084
C14 C -0.00778(18) 0.06707(14) 0.89158(9)
C15 C 0.06554(19) 0.16445(15) 0.91658(10)
H19 H 0.1560 0.1677 0.9103
C16 C 0.0075(2) 0.25688(15) 0.95062(10)
H20 H 0.0589 0.3218 0.9674
C17 C -0.1257(2) 0.25413(15) 0.96009(10)
C18 C -0.20120(19) 0.15800(15) 0.93521(10)
H21 H -0.2920 0.1555 0.9408
C19 C -0.14158(19) 0.06581(15) 0.90204(10)
H22 H -0.1928 0.0005 0.8861
C20 C -0.1894(2) 0.35391(18) 0.99403(12)
F4? F -0.156(2) 0.4500(10) 0.9584(13)
F5? F -0.3192(9) 0.3479(15) 0.9862(15)
F6? F -0.1312(19) 0.3654(16) 1.0720(6)
F7? F -0.1126(16) 0.4459(11) 0.9990(16)
F8? F -0.2952(18) 0.391(2) 0.9439(14)
F9? F -0.214(2) 0.3292(14) 1.0691(8)
loop_
_geom_bond_atom_site_label_1
_geom_bond_atom_site_label_2
_geom_bond_site_symmetry_1
_geom_bond_site_symmetry_2
S1 O1 1_555 1_555
F1 C20 1_555 1_555
F2 C20 1_555 1_555
F3 C20 1_555 1_555
O2 S1 1_555 1_555
N1 S1 1_555 1_555
C1 S1 1_555 1_555
C2 C1 1_555 1_555
H1 C2 1_555 1_555
C3 C2 1_555 1_555
H2 C3 1_555 1_555
C4 C3 1_555 1_555
C5 C4 1_555 1_555
H3 C5 1_555 1_555
C6 C1 1_555 1_555
H4 C6 1_555 1_555
C7 C4 1_555 1_555
H5 C7 1_555 1_555
H6 C7 1_555 1_555
H7 C7 1_555 1_555
C8 N1 1_555 1_555
H8 C8 1_555 1_555
H9 C8 1_555 1_555
C9 C8 1_555 1_555
H10 C9 1_555 1_555
C10 C9 1_555 1_555
H11 C10 1_555 1_555
H12 C10 1_555 1_555
C11 C10 1_555 1_555
H13 C11 1_555 1_555
H14 C11 1_555 1_555
C12 N1 1_555 1_555
H15 C12 1_555 1_555
C13 C12 1_555 1_555
H16 C13 1_555 1_555
H17 C13 1_555 1_555
H18 C13 1_555 1_555
C14 C9 1_555 1_555
C15 C14 1_555 1_555
H19 C15 1_555 1_555
C16 C15 1_555 1_555
H20 C16 1_555 1_555
C17 C16 1_555 1_555
C18 C17 1_555 1_555
H21 C18 1_555 1_555
C19 C14 1_555 1_555
H22 C19 1_555 1_555
C20 C17 1_555 1_555
C5 C6 1_555 1_555
C11 C12 1_555 1_555
C18 C19 1_555 1_555

#END
