
#######################################################################
#
#                 Cambridge Crystallographic Data Centre
#                                CCDC 
#
#######################################################################
#
# If this CIF has been generated from an entry in the Cambridge 
# Structural Database, then it will include bibliographic, chemical, 
# crystal, experimental, refinement or atomic coordinate data resulting 
# from the CCDC's data processing and validation procedures.
#
#######################################################################

data_UVILAO
_chemical_name_common            
1,4-diamino-3,6-dinitropyrazolo[4,3-c]pyrazole
_chemical_formula_moiety         'C4 H4 N8 O4'
_chemical_name_systematic        
3,6-dinitropyrazolo[4,3-c]pyrazole-1,4-diamine
_symmetry_cell_setting           orthorhombic
_symmetry_space_group_name_H-M   'P b c a'
_symmetry_Int_Tables_number      61
_space_group_name_Hall           '-P 2ac 2ab'
loop_
_symmetry_equiv_pos_site_id
_symmetry_equiv_pos_as_xyz
1 x,y,z
2 1/2-x,-y,1/2+z
3 -x,1/2+y,1/2-z
4 1/2+x,1/2-y,-z
5 -x,-y,-z
6 1/2+x,y,1/2-z
7 x,1/2-y,1/2+z
8 1/2-x,1/2+y,z
_cell_length_a                   9.082(2)
_cell_length_b                   5.4849(13)
_cell_length_c                   16.575(4)
_cell_angle_alpha                90
_cell_angle_beta                 90
_cell_angle_gamma                90
_cell_volume                     825.665
_exptl_crystal_colour            brown
_exptl_crystal_description       block
_cell_formula_units_Z            4
loop_
_atom_site_label
_atom_site_type_symbol
_atom_site_fract_x
_atom_site_fract_y
_atom_site_fract_z
N1 N 0.91365(13) 0.3274(2) 0.36017(7)
N2 N 0.86091(12) 0.31381(19) 0.50191(6)
N3 N 0.89811(12) 0.17243(19) 0.56434(6)
N4 N 0.83558(16) 0.2219(2) 0.63958(7)
O1 O 0.84216(13) 0.5134(2) 0.35175(7)
O2 O 0.97739(14) 0.2221(2) 0.30522(6)
C1 C 0.92890(14) 0.2206(2) 0.43810(7)
C2 C 0.98851(13) -0.0134(2) 0.54078(8)
H1 H 0.779(2) 0.093(4) 0.6510(11)
H2 H 0.904(2) 0.221(3) 0.6739(12)
N1D N 1.08635(13) -0.3274(2) 0.63983(7)
N2D N 1.13909(12) -0.31381(19) 0.49809(6)
N3D N 1.10189(12) -0.17243(19) 0.43566(6)
N4D N 1.16442(16) -0.2219(2) 0.36042(7)
O1D O 1.15784(13) -0.5134(2) 0.64825(7)
O2D O 1.02261(14) -0.2221(2) 0.69478(6)
C1D C 1.07110(14) -0.2206(2) 0.56190(7)
C2D C 1.01149(13) 0.0134(2) 0.45922(8)
H1D H 1.221(2) -0.093(4) 0.3490(11)
H2D H 1.096(2) -0.221(3) 0.3261(12)
loop_
_geom_bond_atom_site_label_1
_geom_bond_atom_site_label_2
_geom_bond_site_symmetry_1
_geom_bond_site_symmetry_2
N1 O1 1_555 1_555
N2 N3 1_555 1_555
N3 N4 1_555 1_555
N4 H1 1_555 1_555
O2 N1 1_555 1_555
C1 N1 1_555 1_555
C2 N3 1_555 1_555
H2 N4 1_555 1_555
N1D O1D 1_555 1_555
N2D N3D 1_555 1_555
N3D N4D 1_555 1_555
N4D H1D 1_555 1_555
O2D N1D 1_555 1_555
C1D C2 1_555 1_555
C2D C1 1_555 1_555
H2D N4D 1_555 1_555
N2 C1 1_555 1_555
C2 C2D 1_555 1_555
N1D C1D 1_555 1_555
N2D C1D 1_555 1_555
N3D C2D 1_555 1_555

#END
