
#######################################################################
#
#                 Cambridge Crystallographic Data Centre
#                                CCDC 
#
#######################################################################
#
# If this CIF has been generated from an entry in the Cambridge 
# Structural Database, then it will include bibliographic, chemical, 
# crystal, experimental, refinement or atomic coordinate data resulting 
# from the CCDC's data processing and validation procedures.
#
#######################################################################

data_UVIQOG
_chemical_formula_moiety         'C7 H24 B11 O2 1-,C14 H19 N2 1+'
_chemical_name_systematic        
'8-(Dimethylamino)-N,N-dimethylnaphthalen-1-aminium 7,8-(\m~2~-1-(dimethoxyboranyl)butane-1,4-diyl)-di\mH-7-carba-nido-undecaborane'
_symmetry_cell_setting           triclinic
_symmetry_space_group_name_H-M   'P -1'
_symmetry_Int_Tables_number      2
_space_group_name_Hall           '-P 1'
loop_
_symmetry_equiv_pos_site_id
_symmetry_equiv_pos_as_xyz
1 x,y,z
2 -x,-y,-z
_cell_length_a                   8.4249(4)
_cell_length_b                   10.9067(6)
_cell_length_c                   15.1728(8)
_cell_angle_alpha                85.3560(10)
_cell_angle_beta                 86.9400(10)
_cell_angle_gamma                83.3410(10)
_cell_volume                     1378.88
_exptl_crystal_colour            colorless
_exptl_crystal_description       block
_cell_formula_units_Z            2
loop_
_atom_site_label
_atom_site_type_symbol
_atom_site_fract_x
_atom_site_fract_y
_atom_site_fract_z
O1 O 0.10888(15) 0.55696(12) 0.09030(9)
O2 O 0.34879(16) 0.58696(13) 0.14757(10)
B1 B -0.1712(2) 0.64374(19) 0.38622(14)
H1 H -0.2363 0.5634 0.4120
B2 B -0.2729(2) 0.78466(19) 0.34378(14)
H2 H -0.4064 0.7985 0.3409
B3 B -0.1534(2) 0.69118(19) 0.27254(14)
H3 H -0.2063 0.6413 0.2215
B4 B 0.0185(2) 0.62320(18) 0.32624(13)
H4 H 0.0774 0.5302 0.3091
B5 B 0.0029(3) 0.67557(19) 0.43560(14)
H5 H 0.0507 0.6147 0.4934
B6 B -0.1776(3) 0.7791(2) 0.44543(14)
H6 H -0.2509 0.7913 0.5085
B7 B 0.0293(2) 0.76062(18) 0.25115(13)
B8 B 0.1405(2) 0.73399(19) 0.35734(14)
H7 H 0.2706 0.7473 0.3514
B9 B 0.0134(3) 0.8356(2) 0.43557(14)
H8 H 0.0772 0.9011 0.4702
B10 B -0.1544(3) 0.90549(19) 0.36480(15)
H9 H -0.1620 1.0090 0.3587
B11 B 0.1956(2) 0.6336(2) 0.13100(13)
C1 C -0.1463(2) 0.84554(16) 0.26733(12)
C2 C -0.2205(2) 0.92288(18) 0.18803(13)
H10 H -0.3088 0.8811 0.1678
H11 H -0.2670 1.0046 0.2072
C3 C -0.1015(3) 0.94250(18) 0.11090(14)
H12 H -0.0243 0.9976 0.1275
H13 H -0.1593 0.9842 0.0597
C4 C -0.0106(2) 0.82155(18) 0.08392(12)
H14 H 0.0461 0.8366 0.0259
H15 H -0.0878 0.7615 0.0769
C5 C 0.1123(2) 0.76476(17) 0.15237(12)
H16 H 0.1979 0.8213 0.1511
C6 C 0.1831(3) 0.43950(19) 0.06521(15)
H17 H 0.1051 0.3969 0.0372
H18 H 0.2216 0.3892 0.1179
H19 H 0.2735 0.4519 0.0233
C7 C 0.4643(2) 0.6573(2) 0.17918(16)
H20 H 0.5660 0.6046 0.1862
H21 H 0.4258 0.6877 0.2364
H22 H 0.4802 0.7277 0.1366
H42 H 0.122(3) 0.821(2) 0.3011(14)
H43 H -0.001(3) 0.919(2) 0.3772(15)
N1 N 0.31164(18) 0.16168(14) 0.30953(10)
N2 N 0.49714(17) 0.30934(13) 0.36974(10)
C8 C 0.5292(2) 0.24590(15) 0.21504(11)
C9 C 0.3951(2) 0.17641(16) 0.22334(12)
C10 C 0.3479(2) 0.12320(19) 0.15170(14)
H23 H 0.2580 0.0775 0.1580
C11 C 0.4304(3) 0.1353(2) 0.06894(14)
H24 H 0.3952 0.0987 0.0198
C12 C 0.5594(3) 0.19857(19) 0.05917(13)
H25 H 0.6148 0.2051 0.0031
C13 C 0.6137(2) 0.25537(17) 0.13068(12)
C14 C 0.7488(2) 0.32173(18) 0.11996(13)
H26 H 0.8036 0.3280 0.0637
C15 C 0.8021(2) 0.37689(19) 0.18835(14)
H27 H 0.8942 0.4199 0.1800
C16 C 0.7199(2) 0.36979(18) 0.27125(13)
H28 H 0.7564 0.4086 0.3190
C17 C 0.5881(2) 0.30763(16) 0.28387(11)
C18 C 0.1387(2) 0.2012(2) 0.30668(16)
H29 H 0.1214 0.2859 0.2793
H30 H 0.0909 0.1985 0.3670
H31 H 0.0888 0.1455 0.2718
C19 C 0.3446(3) 0.03392(18) 0.35028(15)
H32 H 0.4604 0.0106 0.3509
H33 H 0.2962 -0.0231 0.3159
H34 H 0.2989 0.0297 0.4111
C20 C 0.5958(2) 0.26260(19) 0.44674(13)
H35 H 0.6498 0.1801 0.4367
H36 H 0.5266 0.2579 0.5006
H37 H 0.6759 0.3191 0.4535
C21 C 0.4117(2) 0.43505(17) 0.38211(13)
H38 H 0.3478 0.4628 0.3306
H39 H 0.4900 0.4933 0.3882
H40 H 0.3413 0.4315 0.4356
H41 H 0.414(3) 0.254(2) 0.3636(15)
loop_
_geom_bond_atom_site_label_1
_geom_bond_atom_site_label_2
_geom_bond_site_symmetry_1
_geom_bond_site_symmetry_2
O1 B11 1_555 1_555
O2 B11 1_555 1_555
N1 C9 1_555 1_555
N2 C17 1_555 1_555
B1 H1 1_555 1_555
B2 B1 1_555 1_555
H2 B2 1_555 1_555
B3 B1 1_555 1_555
H3 B3 1_555 1_555
B4 B1 1_555 1_555
H4 B4 1_555 1_555
B5 B1 1_555 1_555
H5 B5 1_555 1_555
B6 B1 1_555 1_555
H6 B6 1_555 1_555
B7 B3 1_555 1_555
B8 B4 1_555 1_555
H7 B8 1_555 1_555
B9 B5 1_555 1_555
H8 B9 1_555 1_555
B10 B2 1_555 1_555
H9 B10 1_555 1_555
B11 C5 1_555 1_555
C1 B2 1_555 1_555
C2 C1 1_555 1_555
H10 C2 1_555 1_555
H11 C2 1_555 1_555
C3 C2 1_555 1_555
H12 C3 1_555 1_555
H13 C3 1_555 1_555
C4 C3 1_555 1_555
H14 C4 1_555 1_555
H15 C4 1_555 1_555
C5 B7 1_555 1_555
H16 C5 1_555 1_555
C6 O1 1_555 1_555
H17 C6 1_555 1_555
H18 C6 1_555 1_555
H19 C6 1_555 1_555
C7 O2 1_555 1_555
H20 C7 1_555 1_555
H21 C7 1_555 1_555
H22 C7 1_555 1_555
C8 C9 1_555 1_555
C9 C10 1_555 1_555
C10 H23 1_555 1_555
C11 C10 1_555 1_555
H24 C11 1_555 1_555
C12 C11 1_555 1_555
H25 C12 1_555 1_555
C13 C8 1_555 1_555
C14 C13 1_555 1_555
H26 C14 1_555 1_555
C15 C14 1_555 1_555
H27 C15 1_555 1_555
C16 C15 1_555 1_555
H28 C16 1_555 1_555
C17 C8 1_555 1_555
C18 N1 1_555 1_555
H29 C18 1_555 1_555
H30 C18 1_555 1_555
H31 C18 1_555 1_555
C19 N1 1_555 1_555
H32 C19 1_555 1_555
H33 C19 1_555 1_555
H34 C19 1_555 1_555
C20 N2 1_555 1_555
H35 C20 1_555 1_555
H36 C20 1_555 1_555
H37 C20 1_555 1_555
C21 N2 1_555 1_555
H38 C21 1_555 1_555
H39 C21 1_555 1_555
H40 C21 1_555 1_555
H41 N2 1_555 1_555
H42 B7 1_555 1_555
H43 B9 1_555 1_555
B2 B3 1_555 1_555
B2 B6 1_555 1_555
B3 B4 1_555 1_555
B3 C1 1_555 1_555
B4 B5 1_555 1_555
B4 B7 1_555 1_555
B5 B6 1_555 1_555
B5 B8 1_555 1_555
B6 B9 1_555 1_555
B6 B10 1_555 1_555
B7 B8 1_555 1_555
B7 C1 1_555 1_555
B8 B9 1_555 1_555
B8 H42 1_555 1_555
B9 B10 1_555 1_555
B10 C1 1_555 1_555
B10 H43 1_555 1_555
C4 C5 1_555 1_555
C12 C13 1_555 1_555
C16 C17 1_555 1_555

#END
