
#######################################################################
#
#                 Cambridge Crystallographic Data Centre
#                                CCDC 
#
#######################################################################
#
# If this CIF has been generated from an entry in the Cambridge 
# Structural Database, then it will include bibliographic, chemical, 
# crystal, experimental, refinement or atomic coordinate data resulting 
# from the CCDC's data processing and validation procedures.
#
#######################################################################

data_UVIQUM
_chemical_formula_moiety         'C6 H20 B11 O1 1-,C14 H19 N2 1+'
_chemical_name_systematic        
'8-(Dimethylamino)-N,N-dimethylnaphthalen-1-aminium nido-(\m~2~-7,8,10-(1-(methoxyboranyl)butane-1,4-diyl))-7-carba-undecaborane'
_symmetry_cell_setting           monoclinic
_symmetry_space_group_name_H-M   'P 21/c'
_symmetry_Int_Tables_number      14
_space_group_name_Hall           '-P 2ybc'
loop_
_symmetry_equiv_pos_site_id
_symmetry_equiv_pos_as_xyz
1 x,y,z
2 -x,1/2+y,1/2-z
3 -x,-y,-z
4 x,1/2-y,1/2+z
_cell_length_a                   15.5726(6)
_cell_length_b                   9.8303(4)
_cell_length_c                   18.0313(7)
_cell_angle_alpha                90
_cell_angle_beta                 104.0970(10)
_cell_angle_gamma                90
_cell_volume                     2677.16
_exptl_crystal_colour            colorless
_exptl_crystal_description       block
_cell_formula_units_Z            4
loop_
_atom_site_label
_atom_site_type_symbol
_atom_site_fract_x
_atom_site_fract_y
_atom_site_fract_z
O1 O 0.1481(2) 0.2736(3) 0.13808(15)
B1 B 0.3711(3) 0.4361(4) 0.3908(2)
H20 H 0.4288 0.4750 0.4357
B2 B 0.2939(3) 0.5521(5) 0.3398(2)
H21 H 0.3020 0.6645 0.3489
B3 B 0.2634(3) 0.4353(5) 0.4057(2)
H22 H 0.2479 0.4710 0.4600
B4 B 0.3203(3) 0.2765(5) 0.4011(2)
H23 H 0.3437 0.2096 0.4523
B5 B 0.3830(3) 0.2963(4) 0.3332(2)
H24 H 0.4492 0.2467 0.3398
B6 B 0.3594(3) 0.4588(4) 0.2904(2)
H25 H 0.4087 0.5132 0.2652
B7 B 0.2017(3) 0.2908(6) 0.3578(3)
H26 H 0.1486 0.2417 0.3807
B8 B 0.2835(3) 0.2002(5) 0.3116(2)
H27 H 0.2608 0.0975 0.2878
B9 B 0.3054(3) 0.3151(4) 0.2417(2)
H28 H 0.3235 0.2765 0.1891
B10 B 0.2447(3) 0.4733(5) 0.2502(2)
H29 H 0.2103 0.5437 0.2035
B11 B 0.1888(3) 0.2901(5) 0.2143(3)
C15 C 0.1994(3) 0.4672(5) 0.3228(2)
C16 C 0.1101(3) 0.5349(7) 0.3157(3)
H30 H 0.0917 0.5255 0.3643
H31 H 0.1141 0.6330 0.3047
C17 C 0.0430(3) 0.4671(7) 0.2516(3)
H32 H 0.0575 0.4871 0.2022
H33 H -0.0167 0.5039 0.2495
C18 C 0.0433(3) 0.3115(7) 0.2643(3)
H34 H 0.0012 0.2687 0.2204
H35 H 0.0223 0.2922 0.3108
C19 C 0.1357(3) 0.2463(5) 0.2731(2)
H36 H 0.1291 0.1450 0.2714
C20 C 0.1846(3) 0.3119(5) 0.0751(2)
H37 H 0.1424 0.2893 0.0268
H38 H 0.2401 0.2624 0.0785
H39 H 0.1962 0.4099 0.0771
N1 N 0.37159(17) 0.6671(3) 0.04785(14)
N2 N 0.35304(17) 0.8675(3) 0.13614(14)
H1 H 0.3783 0.7999 0.1122
C1 C 0.2761(2) 0.6695(3) 0.01440(17)
C2 C 0.2379(2) 0.5840(4) -0.04402(19)
H2 H 0.2740 0.5234 -0.0641
C3 C 0.1457(3) 0.5848(4) -0.0748(2)
H3 H 0.1201 0.5250 -0.1156
C4 C 0.0931(2) 0.6702(4) -0.0466(2)
H4 H 0.0309 0.6690 -0.0674
C5 C 0.1299(2) 0.7613(4) 0.0137(2)
C6 C 0.0751(2) 0.8529(4) 0.0423(2)
H5 H 0.0129 0.8513 0.0215
C7 C 0.1100(3) 0.9426(4) 0.0985(3)
H6 H 0.0723 1.0035 0.1167
C8 C 0.2018(2) 0.9457(4) 0.1302(2)
H7 H 0.2260 1.0086 0.1698
C9 C 0.2566(2) 0.8589(3) 0.10429(18)
C10 C 0.2236(2) 0.7630(3) 0.04518(17)
C11 C 0.4242(2) 0.6925(4) -0.0090(2)
H8 H 0.4050 0.7780 -0.0359
H9 H 0.4154 0.6175 -0.0459
H10 H 0.4871 0.6989 0.0172
C12 C 0.3989(2) 0.5377(3) 0.08941(18)
H11 H 0.3638 0.5232 0.1270
H12 H 0.4618 0.5424 0.1157
H13 H 0.3892 0.4620 0.0529
C13 C 0.3804(3) 0.8387(4) 0.21953(19)
H14 H 0.3560 0.7508 0.2300
H15 H 0.3580 0.9105 0.2475
H16 H 0.4451 0.8358 0.2361
C14 C 0.3899(2) 0.9990(3) 0.1172(2)
H17 H 0.3712 1.0146 0.0619
H18 H 0.4547 0.9960 0.1331
H19 H 0.3681 1.0732 0.1441
loop_
_geom_bond_atom_site_label_1
_geom_bond_atom_site_label_2
_geom_bond_site_symmetry_1
_geom_bond_site_symmetry_2
O1 B11 1_555 1_555
N1 C1 1_555 1_555
N2 H1 1_555 1_555
C1 C2 1_555 1_555
C2 H2 1_555 1_555
C3 C2 1_555 1_555
H3 C3 1_555 1_555
C4 C3 1_555 1_555
H4 C4 1_555 1_555
C5 C4 1_555 1_555
C6 C5 1_555 1_555
H5 C6 1_555 1_555
C7 C6 1_555 1_555
H6 C7 1_555 1_555
C8 C7 1_555 1_555
H7 C8 1_555 1_555
C9 N2 1_555 1_555
C10 C1 1_555 1_555
C11 N1 1_555 1_555
H8 C11 1_555 1_555
H9 C11 1_555 1_555
H10 C11 1_555 1_555
C12 N1 1_555 1_555
H11 C12 1_555 1_555
H12 C12 1_555 1_555
H13 C12 1_555 1_555
C13 N2 1_555 1_555
H14 C13 1_555 1_555
H15 C13 1_555 1_555
H16 C13 1_555 1_555
C14 N2 1_555 1_555
H17 C14 1_555 1_555
H18 C14 1_555 1_555
H19 C14 1_555 1_555
B1 H20 1_555 1_555
B2 B1 1_555 1_555
H21 B2 1_555 1_555
B3 B1 1_555 1_555
H22 B3 1_555 1_555
B4 B1 1_555 1_555
H23 B4 1_555 1_555
B5 B1 1_555 1_555
H24 B5 1_555 1_555
B6 B1 1_555 1_555
H25 B6 1_555 1_555
B7 B3 1_555 1_555
H26 B7 1_555 1_555
B8 B4 1_555 1_555
H27 B8 1_555 1_555
B9 B5 1_555 1_555
H28 B9 1_555 1_555
B10 B2 1_555 1_555
H29 B10 1_555 1_555
B11 B9 1_555 1_555
C15 B2 1_555 1_555
C16 C15 1_555 1_555
H30 C16 1_555 1_555
H31 C16 1_555 1_555
C17 C16 1_555 1_555
H32 C17 1_555 1_555
H33 C17 1_555 1_555
C18 C17 1_555 1_555
H34 C18 1_555 1_555
H35 C18 1_555 1_555
C19 B7 1_555 1_555
H36 C19 1_555 1_555
C20 O1 1_555 1_555
H37 C20 1_555 1_555
H38 C20 1_555 1_555
H39 C20 1_555 1_555
C5 C10 1_555 1_555
C8 C9 1_555 1_555
C9 C10 1_555 1_555
B2 B3 1_555 1_555
B2 B6 1_555 1_555
B3 B4 1_555 1_555
B3 C15 1_555 1_555
B4 B5 1_555 1_555
B4 B7 1_555 1_555
B5 B6 1_555 1_555
B5 B8 1_555 1_555
B6 B9 1_555 1_555
B6 B10 1_555 1_555
B7 B8 1_555 1_555
B7 C15 1_555 1_555
B8 B9 1_555 1_555
B9 B10 1_555 1_555
B10 B11 1_555 1_555
B10 C15 1_555 1_555
B11 C19 1_555 1_555
C18 C19 1_555 1_555

#END
