
#######################################################################
#
#                 Cambridge Crystallographic Data Centre
#                                CCDC 
#
#######################################################################
#
# If this CIF has been generated from an entry in the Cambridge 
# Structural Database, then it will include bibliographic, chemical, 
# crystal, experimental, refinement or atomic coordinate data resulting 
# from the CCDC's data processing and validation procedures.
#
#######################################################################

data_UVIREX
_chemical_formula_moiety         'C15 H23 B11 N2'
_chemical_name_systematic        
4-([1,3,2]diazaborolo[1,5-a:3,4-a']dipyridin-6-yl)-(\m~2~-propane-1,3-diyl)-1,2-dicarbadodecaborane
_symmetry_cell_setting           orthorhombic
_symmetry_space_group_name_H-M   'P n a 21'
_symmetry_Int_Tables_number      33
_space_group_name_Hall           'P 2c -2n'
loop_
_symmetry_equiv_pos_site_id
_symmetry_equiv_pos_as_xyz
1 x,y,z
2 -x,-y,1/2+z
3 1/2+x,1/2-y,z
4 1/2-x,1/2+y,1/2+z
_cell_length_a                   24.3055(18)
_cell_length_b                   16.5785(11)
_cell_length_c                   14.2903(10)
_cell_angle_alpha                90
_cell_angle_beta                 90
_cell_angle_gamma                90
_cell_volume                     5758.26
_exptl_crystal_colour            red
_exptl_crystal_description       block
_cell_formula_units_Z            12
loop_
_atom_site_label
_atom_site_type_symbol
_atom_site_fract_x
_atom_site_fract_y
_atom_site_fract_z
N1 N 0.13793(19) 0.1077(3) 0.4694(4)
N2 N 0.14115(19) 0.1268(3) 0.3134(4)
C1 C 0.0029(3) 0.0013(4) 0.3818(5)
C2 C -0.0225(2) -0.0867(4) 0.4108(5)
C3 C -0.0298(2) 0.0627(4) 0.4356(5)
H1 H -0.0069 0.0870 0.4854
H2 H -0.0425 0.1062 0.3933
C4 C -0.0781(3) 0.0197(4) 0.4775(7)
H3 H -0.1116 0.0319 0.4408
H4 H -0.0840 0.0388 0.5423
C5 C -0.0682(3) -0.0719(4) 0.4780(5)
H5 H -0.0578 -0.0905 0.5414
H6 H -0.1018 -0.1011 0.4582
C6 C 0.1289(3) 0.0858(4) 0.5622(5)
H7 H 0.1029 0.0446 0.5760
C7 C 0.1567(3) 0.1227(5) 0.6347(5)
H8 H 0.1500 0.1063 0.6973
C8 C 0.1963(3) 0.1863(5) 0.6157(5)
H9 H 0.2169 0.2099 0.6652
C9 C 0.2032(3) 0.2117(4) 0.5259(5)
H10 H 0.2267 0.2561 0.5130
C10 C 0.1753(2) 0.1718(4) 0.4508(5)
C11 C 0.1770(3) 0.1830(4) 0.3557(5)
C12 C 0.2088(3) 0.2363(4) 0.2997(5)
H11 H 0.2327 0.2741 0.3289
C13 C 0.2055(3) 0.2339(4) 0.2064(6)
H12 H 0.2277 0.2680 0.1687
C14 C 0.1673(3) 0.1783(4) 0.1646(5)
H13 H 0.1632 0.1778 0.0985
C15 C 0.1377(3) 0.1278(4) 0.2158(5)
H14 H 0.1135 0.0913 0.1853
B1 B 0.0421(3) -0.0608(4) 0.4517(5)
H15 H 0.0521 -0.0489 0.5269
B2 B 0.0729(3) -0.0014(4) 0.3637(5)
B3 B 0.0242(3) 0.0033(4) 0.2704(5)
H16 H 0.0227 0.0579 0.2244
B4 B -0.0361(3) -0.0487(4) 0.3004(6)
H17 H -0.0774 -0.0286 0.2745
B5 B 0.0276(3) -0.1592(4) 0.4119(6)
H18 H 0.0279 -0.2126 0.4598
B6 B 0.0895(3) -0.1079(4) 0.3791(6)
H19 H 0.1310 -0.1279 0.4040
B7 B 0.0778(3) -0.0680(4) 0.2650(5)
H20 H 0.1124 -0.0614 0.2138
B8 B 0.0112(3) -0.0965(4) 0.2274(6)
H21 H 0.0019 -0.1092 0.1521
B9 B -0.0213(3) -0.1518(4) 0.3190(6)
H22 H -0.0529 -0.1998 0.3064
B10 B 0.0508(3) -0.1645(4) 0.2946(6)
H23 H 0.0674 -0.2217 0.2638
B11 B 0.1154(3) 0.0775(4) 0.3838(5)
N3 N 0.3064(2) 0.3929(3) 0.2953(4)
N4 N 0.3055(2) 0.3702(3) 0.4497(4)
C16 C 0.1696(3) 0.4955(4) 0.3762(6)
C17 C 0.1443(3) 0.5849(5) 0.3546(6)
C18 C 0.1374(3) 0.4358(4) 0.3155(6)
H24 H 0.1621 0.4108 0.2686
H25 H 0.1216 0.3925 0.3549
C19 C 0.0919(3) 0.4822(5) 0.2670(7)
H26 H 0.0560 0.4669 0.2944
H27 H 0.0913 0.4678 0.1997
C20 C 0.1001(3) 0.5735(5) 0.2770(6)
H28 H 0.0652 0.5999 0.2952
H29 H 0.1129 0.5971 0.2172
C21 C 0.2996(3) 0.4183(4) 0.2004(5)
H30 H 0.2755 0.4616 0.1857
C22 C 0.3277(3) 0.3805(4) 0.1319(5)
H31 H 0.3211 0.3961 0.0689
C23 C 0.3658(3) 0.3201(5) 0.1488(6)
H32 H 0.3871 0.2988 0.0989
C24 C 0.3727(3) 0.2907(4) 0.2401(6)
H33 H 0.3970 0.2471 0.2525
C25 C 0.3424(2) 0.3279(4) 0.3141(5)
C26 C 0.3422(2) 0.3148(4) 0.4094(5)
C27 C 0.3727(3) 0.2587(4) 0.4639(6)
H34 H 0.3970 0.2213 0.4350
C28 C 0.3664(3) 0.2598(4) 0.5566(6)
H35 H 0.3871 0.2239 0.5945
C29 C 0.3282(3) 0.3154(4) 0.5998(5)
H36 H 0.3229 0.3138 0.6657
C30 C 0.2999(3) 0.3698(4) 0.5476(5)
H37 H 0.2763 0.4077 0.5773
B12 B 0.2087(3) 0.5605(5) 0.3133(5)
H38 H 0.2194 0.5516 0.2378
B13 B 0.2385(3) 0.5000(4) 0.4019(6)
B14 B 0.1861(3) 0.4889(4) 0.4894(6)
H39 H 0.1832 0.4322 0.5317
B15 B 0.1269(4) 0.5432(5) 0.4546(7)
H40 H 0.0843 0.5227 0.4728
B16 B 0.1946(3) 0.6584(5) 0.3594(6)
H41 H 0.1974 0.7135 0.3142
B17 B 0.2546(3) 0.6050(4) 0.3966(6)
H42 H 0.2971 0.6261 0.3784
B18 B 0.2396(3) 0.5601(4) 0.5055(5)
H43 H 0.2723 0.5516 0.5598
B19 B 0.1698(4) 0.5856(4) 0.5357(6)
H44 H 0.1560 0.5930 0.6100
B20 B 0.1444(3) 0.6480(4) 0.4456(6)
H45 H 0.1142 0.6979 0.4577
B21 B 0.2119(3) 0.6578(4) 0.4782(6)
H46 H 0.2265 0.7136 0.5147
B22 B 0.2817(3) 0.4213(4) 0.3800(6)
N5 N 0.4689(2) 0.1192(3) 0.3065(4)
N6 N 0.4808(2) 0.1123(3) 0.4626(4)
C31 C 0.3394(3) 0.0021(4) 0.3800(5)
C32 C 0.3130(3) -0.0841(5) 0.3475(7)
C33 C 0.3100(3) 0.0692(4) 0.3305(5)
H47 H 0.3337 0.0932 0.2816
H48 H 0.2991 0.1119 0.3752
C34 C 0.2582(3) 0.0291(6) 0.2859(8)
H49 H 0.2509 0.0529 0.2236
H50 H 0.2256 0.0384 0.3260
C35 C 0.2692(3) -0.0634(5) 0.2761(7)
H51 H 0.2352 -0.0944 0.2886
H52 H 0.2822 -0.0763 0.2122
C36 C 0.4566(3) 0.1091(4) 0.2106(5)
H53 H 0.4330 0.0670 0.1904
C37 C 0.4790(3) 0.1601(5) 0.1487(6)
H54 H 0.4692 0.1541 0.0847
C38 C 0.5158(3) 0.2214(5) 0.1723(7)
H55 H 0.5311 0.2552 0.1253
C39 C 0.5293(3) 0.2319(4) 0.2649(7)
H56 H 0.5543 0.2732 0.2825
C40 C 0.5056(3) 0.1805(4) 0.3353(6)
C41 C 0.5127(3) 0.1759(4) 0.4295(6)
C42 C 0.5456(3) 0.2245(5) 0.4905(8)
H57 H 0.5658 0.2693 0.4673
C43 C 0.4817(3) 0.0942(5) 0.5588(5)
H58 H 0.4610 0.0505 0.5834
B23 B 0.3795(3) -0.0576(5) 0.3013(7)
H59 H 0.3904 -0.0419 0.2273
B24 B 0.4087(3) -0.0069(4) 0.3969(6)
B25 B 0.3593(3) -0.0031(5) 0.4923(7)
H60 H 0.3588 0.0486 0.5428
B26 B 0.2982(4) -0.0540(6) 0.4515(8)
H61 H 0.2558 -0.0356 0.4735
B27 B 0.3619(4) -0.1583(5) 0.3366(10)
H62 H 0.3614 -0.2081 0.2836
B28 B 0.4233(3) -0.1118(5) 0.3754(6)
H63 H 0.4648 -0.1324 0.3511
B29 B 0.4112(3) -0.0783(5) 0.4925(6)
H64 H 0.4452 -0.0769 0.5453
B30 B 0.3424(4) -0.1032(5) 0.5266(9)
H65 H 0.3306 -0.1168 0.6007
B31 B 0.3140(4) -0.1546(6) 0.4302(10)
H66 H 0.2832 -0.2042 0.4396
B32 B 0.3829(4) -0.1714(5) 0.4527(7)
H67 H 0.3979 -0.2312 0.4785
B33 B 0.4514(3) 0.0727(4) 0.3872(5)
C44 C 0.5468(4) 0.2049(7) 0.5803(8)
H68 H 0.5707 0.2339 0.6209
C45 C 0.5144(4) 0.1431(7) 0.6175(7)
H69 H 0.5144 0.1339 0.6831
loop_
_geom_bond_atom_site_label_1
_geom_bond_atom_site_label_2
_geom_bond_site_symmetry_1
_geom_bond_site_symmetry_2
N1 C6 1_555 1_555
N2 C11 1_555 1_555
C1 C2 1_555 1_555
C2 C5 1_555 1_555
C3 C1 1_555 1_555
H1 C3 1_555 1_555
H2 C3 1_555 1_555
C4 C3 1_555 1_555
H3 C4 1_555 1_555
H4 C4 1_555 1_555
C5 C4 1_555 1_555
H5 C5 1_555 1_555
H6 C5 1_555 1_555
C6 H7 1_555 1_555
C7 C6 1_555 1_555
H8 C7 1_555 1_555
C8 C7 1_555 1_555
H9 C8 1_555 1_555
C9 C8 1_555 1_555
H10 C9 1_555 1_555
C10 N1 1_555 1_555
C11 C10 1_555 1_555
C12 C11 1_555 1_555
H11 C12 1_555 1_555
C13 C12 1_555 1_555
H12 C13 1_555 1_555
C14 C13 1_555 1_555
H13 C14 1_555 1_555
C15 N2 1_555 1_555
H14 C15 1_555 1_555
B1 C1 1_555 1_555
H15 B1 1_555 1_555
B2 C1 1_555 1_555
B3 C1 1_555 1_555
H16 B3 1_555 1_555
B4 C1 1_555 1_555
H17 B4 1_555 1_555
B5 C2 1_555 1_555
H18 B5 1_555 1_555
B6 B1 1_555 1_555
H19 B6 1_555 1_555
B7 B2 1_555 1_555
H20 B7 1_555 1_555
B8 B3 1_555 1_555
H21 B8 1_555 1_555
B9 C2 1_555 1_555
H22 B9 1_555 1_555
B10 B5 1_555 1_555
H23 B10 1_555 1_555
B11 N1 1_555 1_555
N3 C21 1_555 1_555
N4 C26 1_555 1_555
C16 C17 1_555 1_555
C17 C20 1_555 1_555
C18 C16 1_555 1_555
H24 C18 1_555 1_555
H25 C18 1_555 1_555
C19 C18 1_555 1_555
H26 C19 1_555 1_555
H27 C19 1_555 1_555
C20 C19 1_555 1_555
H28 C20 1_555 1_555
H29 C20 1_555 1_555
C21 H30 1_555 1_555
C22 C21 1_555 1_555
H31 C22 1_555 1_555
C23 C22 1_555 1_555
H32 C23 1_555 1_555
C24 C23 1_555 1_555
H33 C24 1_555 1_555
C25 N3 1_555 1_555
C26 C25 1_555 1_555
C27 C26 1_555 1_555
H34 C27 1_555 1_555
C28 C27 1_555 1_555
H35 C28 1_555 1_555
C29 C28 1_555 1_555
H36 C29 1_555 1_555
C30 N4 1_555 1_555
H37 C30 1_555 1_555
B12 C16 1_555 1_555
H38 B12 1_555 1_555
B13 C16 1_555 1_555
B14 C16 1_555 1_555
H39 B14 1_555 1_555
B15 C16 1_555 1_555
H40 B15 1_555 1_555
B16 C17 1_555 1_555
H41 B16 1_555 1_555
B17 B12 1_555 1_555
H42 B17 1_555 1_555
B18 B13 1_555 1_555
H43 B18 1_555 1_555
B19 B14 1_555 1_555
H44 B19 1_555 1_555
B20 C17 1_555 1_555
H45 B20 1_555 1_555
B21 B16 1_555 1_555
H46 B21 1_555 1_555
B22 N3 1_555 1_555
N5 C36 1_555 1_555
N6 C41 1_555 1_555
C31 C32 1_555 1_555
C32 C35 1_555 1_555
C33 C31 1_555 1_555
H47 C33 1_555 1_555
H48 C33 1_555 1_555
C34 C33 1_555 1_555
H49 C34 1_555 1_555
H50 C34 1_555 1_555
C35 C34 1_555 1_555
H51 C35 1_555 1_555
H52 C35 1_555 1_555
C36 H53 1_555 1_555
C37 C36 1_555 1_555
H54 C37 1_555 1_555
C38 C37 1_555 1_555
H55 C38 1_555 1_555
C39 C38 1_555 1_555
H56 C39 1_555 1_555
C40 N5 1_555 1_555
C41 C40 1_555 1_555
C42 C41 1_555 1_555
H57 C42 1_555 1_555
C43 N6 1_555 1_555
H58 C43 1_555 1_555
B23 C31 1_555 1_555
H59 B23 1_555 1_555
B24 C31 1_555 1_555
B25 C31 1_555 1_555
H60 B25 1_555 1_555
B26 C31 1_555 1_555
H61 B26 1_555 1_555
B27 C32 1_555 1_555
H62 B27 1_555 1_555
B28 B23 1_555 1_555
H63 B28 1_555 1_555
B29 B24 1_555 1_555
H64 B29 1_555 1_555
B30 B25 1_555 1_555
H65 B30 1_555 1_555
B31 C32 1_555 1_555
H66 B31 1_555 1_555
B32 B27 1_555 1_555
H67 B32 1_555 1_555
B33 N5 1_555 1_555
C44 C42 1_555 1_555
H68 C44 1_555 1_555
C45 C43 1_555 1_555
H69 C45 1_555 1_555
N2 B11 1_555 1_555
C2 B1 1_555 1_555
C2 B4 1_555 1_555
C9 C10 1_555 1_555
C14 C15 1_555 1_555
B1 B2 1_555 1_555
B1 B5 1_555 1_555
B2 B3 1_555 1_555
B2 B6 1_555 1_555
B2 B11 1_555 1_555
B3 B4 1_555 1_555
B3 B7 1_555 1_555
B4 B8 1_555 1_555
B4 B9 1_555 1_555
B5 B6 1_555 1_555
B5 B9 1_555 1_555
B6 B7 1_555 1_555
B6 B10 1_555 1_555
B7 B8 1_555 1_555
B7 B10 1_555 1_555
B8 B9 1_555 1_555
B8 B10 1_555 1_555
B9 B10 1_555 1_555
N4 B22 1_555 1_555
C17 B12 1_555 1_555
C17 B15 1_555 1_555
C24 C25 1_555 1_555
C29 C30 1_555 1_555
B12 B13 1_555 1_555
B12 B16 1_555 1_555
B13 B14 1_555 1_555
B13 B17 1_555 1_555
B13 B22 1_555 1_555
B14 B15 1_555 1_555
B14 B18 1_555 1_555
B15 B19 1_555 1_555
B15 B20 1_555 1_555
B16 B17 1_555 1_555
B16 B20 1_555 1_555
B17 B18 1_555 1_555
B17 B21 1_555 1_555
B18 B19 1_555 1_555
B18 B21 1_555 1_555
B19 B20 1_555 1_555
B19 B21 1_555 1_555
B20 B21 1_555 1_555
N6 B33 1_555 1_555
C32 B23 1_555 1_555
C32 B26 1_555 1_555
C39 C40 1_555 1_555
B23 B24 1_555 1_555
B23 B27 1_555 1_555
B24 B25 1_555 1_555
B24 B28 1_555 1_555
B24 B33 1_555 1_555
B25 B26 1_555 1_555
B25 B29 1_555 1_555
B26 B30 1_555 1_555
B26 B31 1_555 1_555
B27 B28 1_555 1_555
B27 B31 1_555 1_555
B28 B29 1_555 1_555
B28 B32 1_555 1_555
B29 B30 1_555 1_555
B29 B32 1_555 1_555
B30 B31 1_555 1_555
B30 B32 1_555 1_555
B31 B32 1_555 1_555
C44 C45 1_555 1_555

#END
