
#######################################################################
#
#                 Cambridge Crystallographic Data Centre
#                                CCDC 
#
#######################################################################
#
# If this CIF has been generated from an entry in the Cambridge 
# Structural Database, then it will include bibliographic, chemical, 
# crystal, experimental, refinement or atomic coordinate data resulting 
# from the CCDC's data processing and validation procedures.
#
#######################################################################

data_UVISUO
_chemical_formula_moiety         'C17 H14 N2 O2'
_chemical_name_systematic        
N-((1-Methyl-2-oxo-1,2-dihydro-3H-indol-3-ylidene)methyl)benzamide
_symmetry_cell_setting           monoclinic
_symmetry_space_group_name_H-M   'P 21/n'
_symmetry_Int_Tables_number      14
_space_group_name_Hall           '-P 2yn'
loop_
_symmetry_equiv_pos_site_id
_symmetry_equiv_pos_as_xyz
1 x,y,z
2 1/2-x,1/2+y,1/2-z
3 -x,-y,-z
4 1/2+x,1/2-y,1/2+z
_cell_length_a                   6.5014(8)
_cell_length_b                   10.8725(13)
_cell_length_c                   19.629(2)
_cell_angle_alpha                90
_cell_angle_beta                 95.648(2)
_cell_angle_gamma                90
_cell_volume                     1380.77
_exptl_crystal_colour            yellow
_exptl_crystal_description       prismatic
_cell_formula_units_Z            4
loop_
_atom_site_label
_atom_site_type_symbol
_atom_site_fract_x
_atom_site_fract_y
_atom_site_fract_z
O1 O 0.72528(19) 0.61245(11) 0.15258(6)
O2 O 0.3757(2) 1.01251(12) 0.09588(7)
N1 N 1.0141(2) 0.58545(12) 0.09458(6)
N2 N 0.5286(2) 0.82952(13) 0.11677(6)
C1 C 0.8396(3) 0.64599(14) 0.10971(7)
C2 C 0.8195(2) 0.75622(13) 0.06587(7)
C3 C 0.9905(2) 0.75158(13) 0.02328(7)
C4 C 1.1048(2) 0.64654(14) 0.04255(7)
C5 C 1.2805(2) 0.61488(16) 0.01226(8)
H1 H 1.3557 0.5446 0.0254
C6 C 1.3401(3) 0.69150(17) -0.03828(8)
H2 H 1.4570 0.6720 -0.0598
C7 C 1.2301(3) 0.79632(17) -0.05759(8)
H3 H 1.2747 0.8468 -0.0915
C8 C 1.0532(3) 0.82743(15) -0.02698(8)
H4 H 0.9787 0.8980 -0.0402
C9 C 0.6723(2) 0.84137(14) 0.07075(7)
H5 H 0.6678 0.9098 0.0423
C10 C 0.3837(2) 0.91631(15) 0.12715(8)
C11 C 0.2366(2) 0.88549(15) 0.17850(7)
C12 C 0.0795(3) 0.96923(18) 0.18645(8)
H6 H 0.0715 1.0415 0.1609
C13 C -0.0646(3) 0.9462(2) 0.23182(8)
H7 H -0.1697 1.0027 0.2366
C14 C -0.0534(3) 0.8405(2) 0.26979(9)
H8 H -0.1513 0.8249 0.3002
C15 C 0.1017(3) 0.75784(19) 0.26302(9)
H9 H 0.1099 0.6865 0.2893
C16 C 0.2467(3) 0.77962(17) 0.21729(9)
H10 H 0.3512 0.7227 0.2127
C17 C 1.0943(3) 0.47574(16) 0.12954(9)
H11 H 1.0083 0.4543 0.1648
H12 H 1.2326 0.4908 0.1497
H13 H 1.0952 0.4093 0.0974
H14 H 0.542(2) 0.7617(15) 0.1410(7)
loop_
_geom_bond_atom_site_label_1
_geom_bond_atom_site_label_2
_geom_bond_site_symmetry_1
_geom_bond_site_symmetry_2
O1 C1 1_555 1_555
O2 C10 1_555 1_555
N1 C1 1_555 1_555
N2 C9 1_555 1_555
C1 C2 1_555 1_555
C2 C3 1_555 1_555
C3 C4 1_555 1_555
C4 N1 1_555 1_555
C5 C4 1_555 1_555
H1 C5 1_555 1_555
C6 C5 1_555 1_555
H2 C6 1_555 1_555
C7 C6 1_555 1_555
H3 C7 1_555 1_555
C8 C3 1_555 1_555
H4 C8 1_555 1_555
C9 C2 1_555 1_555
H5 C9 1_555 1_555
C10 N2 1_555 1_555
C11 C10 1_555 1_555
C12 C11 1_555 1_555
H6 C12 1_555 1_555
C13 C12 1_555 1_555
H7 C13 1_555 1_555
C14 C13 1_555 1_555
H8 C14 1_555 1_555
C15 C14 1_555 1_555
H9 C15 1_555 1_555
C16 C11 1_555 1_555
H10 C16 1_555 1_555
C17 N1 1_555 1_555
H11 C17 1_555 1_555
H12 C17 1_555 1_555
H13 C17 1_555 1_555
H14 N2 1_555 1_555
C7 C8 1_555 1_555
C15 C16 1_555 1_555

#END
