
#######################################################################
#
#                 Cambridge Crystallographic Data Centre
#                                CCDC 
#
#######################################################################
#
# If this CIF has been generated from an entry in the Cambridge 
# Structural Database, then it will include bibliographic, chemical, 
# crystal, experimental, refinement or atomic coordinate data resulting 
# from the CCDC's data processing and validation procedures.
#
#######################################################################

data_UVIYAB
_chemical_formula_moiety         'C27 H22 O3'
_chemical_name_systematic        9,9-bis(4-methoxyphenyl)-9H-xanthene
_symmetry_cell_setting           monoclinic
_symmetry_space_group_name_H-M   'C 2/c'
_symmetry_Int_Tables_number      15
_space_group_name_Hall           '-C 2yn'
loop_
_symmetry_equiv_pos_site_id
_symmetry_equiv_pos_as_xyz
1 x,y,z
2 -x,y,1/2-z
3 1/2+x,1/2+y,z
4 1/2-x,1/2+y,1/2-z
5 -x,-y,-z
6 x,-y,1/2+z
7 1/2-x,1/2-y,-z
8 1/2+x,1/2-y,1/2+z
_cell_length_a                   15.5095(11)
_cell_length_b                   14.4666(10)
_cell_length_c                   18.4758(15)
_cell_angle_alpha                90
_cell_angle_beta                 99.080(7)
_cell_angle_gamma                90
_cell_volume                     4093.46
_exptl_crystal_colour            colorless
_exptl_crystal_description       block
_cell_formula_units_Z            8
loop_
_atom_site_label
_atom_site_type_symbol
_atom_site_fract_x
_atom_site_fract_y
_atom_site_fract_z
O1 O 0.60969(11) 0.17993(10) 0.78208(9)
O2 O 1.04386(11) 0.14194(12) 0.92698(10)
O3 O 0.85276(13) 0.57111(12) 0.55452(9)
C1 C 0.63658(13) 0.16086(14) 0.71605(12)
C2 C 0.59573(15) 0.08761(15) 0.67616(14)
H1 H 0.5530 0.0537 0.6944
C3 C 0.61881(15) 0.06546(15) 0.60957(14)
H2 H 0.5916 0.0164 0.5825
C4 C 0.68238(16) 0.11591(15) 0.58275(13)
H3 H 0.6984 0.1008 0.5378
C5 C 0.72213(14) 0.18904(14) 0.62326(12)
H4 H 0.7646 0.2230 0.6047
C6 C 0.70044(12) 0.21316(13) 0.69069(11)
C7 C 0.74725(12) 0.28977(12) 0.73896(11)
C8 C 0.68235(12) 0.32775(13) 0.78587(11)
C9 C 0.61898(13) 0.27011(14) 0.80670(11)
C10 C 0.56241(15) 0.29916(17) 0.85293(13)
H5 H 0.5208 0.2588 0.8661
C11 C 0.56819(15) 0.38760(17) 0.87903(14)
H6 H 0.5308 0.4073 0.9106
C12 C 0.62912(15) 0.44794(15) 0.85897(13)
H7 H 0.6323 0.5084 0.8763
C13 C 0.68528(14) 0.41809(14) 0.81307(12)
H8 H 0.7262 0.4591 0.7998
C14 C 0.82650(12) 0.24832(13) 0.79076(11)
C15 C 0.86693(14) 0.29880(14) 0.84991(12)
H9 H 0.8446 0.3566 0.8590
C16 C 0.93940(14) 0.26658(15) 0.89609(13)
H10 H 0.9653 0.3026 0.9352
C17 C 0.97320(14) 0.18101(15) 0.88406(13)
C18 C 0.93315(16) 0.12935(16) 0.82588(14)
H11 H 0.9550 0.0711 0.8174
C19 C 0.86116(15) 0.16257(15) 0.77994(13)
H12 H 0.8354 0.1264 0.7408
C20 C 1.08966(16) 0.19576(19) 0.98406(14)
H13 H 1.1088 0.2521 0.9642
H14 H 1.1394 0.1619 1.0078
H15 H 1.0520 0.2099 1.0191
C21 C 0.77678(13) 0.36571(13) 0.69002(11)
C22 C 0.71509(14) 0.42432(15) 0.65157(12)
H16 H 0.6567 0.4171 0.6565
C23 C 0.73771(16) 0.49322(15) 0.60610(13)
H17 H 0.6950 0.5320 0.5815
C24 C 0.82361(16) 0.50399(15) 0.59753(12)
C25 C 0.88572(16) 0.44489(16) 0.63324(13)
H18 H 0.9436 0.4507 0.6264
C26 C 0.86281(14) 0.37679(14) 0.67931(12)
H19 H 0.9057 0.3379 0.7034
C27 C 0.7929(2) 0.64259(18) 0.52740(16)
H20 H 0.7473 0.6173 0.4917
H21 H 0.8232 0.6899 0.5050
H22 H 0.7681 0.6687 0.5672
loop_
_geom_bond_atom_site_label_1
_geom_bond_atom_site_label_2
_geom_bond_site_symmetry_1
_geom_bond_site_symmetry_2
O1 C1 1_555 1_555
O2 C17 1_555 1_555
O3 C24 1_555 1_555
C1 C2 1_555 1_555
C2 H1 1_555 1_555
C3 C2 1_555 1_555
H2 C3 1_555 1_555
C4 C3 1_555 1_555
H3 C4 1_555 1_555
C5 C4 1_555 1_555
H4 C5 1_555 1_555
C6 C1 1_555 1_555
C7 C6 1_555 1_555
C8 C7 1_555 1_555
C9 O1 1_555 1_555
C10 C9 1_555 1_555
H5 C10 1_555 1_555
C11 C10 1_555 1_555
H6 C11 1_555 1_555
C12 C11 1_555 1_555
H7 C12 1_555 1_555
C13 C8 1_555 1_555
H8 C13 1_555 1_555
C14 C7 1_555 1_555
C15 C14 1_555 1_555
H9 C15 1_555 1_555
C16 C15 1_555 1_555
H10 C16 1_555 1_555
C17 C16 1_555 1_555
C18 C17 1_555 1_555
H11 C18 1_555 1_555
C19 C14 1_555 1_555
H12 C19 1_555 1_555
C20 O2 1_555 1_555
H13 C20 1_555 1_555
H14 C20 1_555 1_555
H15 C20 1_555 1_555
C21 C7 1_555 1_555
C22 C21 1_555 1_555
H16 C22 1_555 1_555
C23 C22 1_555 1_555
H17 C23 1_555 1_555
C24 C23 1_555 1_555
C25 C24 1_555 1_555
H18 C25 1_555 1_555
C26 C21 1_555 1_555
H19 C26 1_555 1_555
C27 O3 1_555 1_555
H20 C27 1_555 1_555
H21 C27 1_555 1_555
H22 C27 1_555 1_555
C5 C6 1_555 1_555
C8 C9 1_555 1_555
C12 C13 1_555 1_555
C18 C19 1_555 1_555
C25 C26 1_555 1_555

#END
