
#######################################################################
#
#                 Cambridge Crystallographic Data Centre
#                                CCDC 
#
#######################################################################
#
# If this CIF has been generated from an entry in the Cambridge 
# Structural Database, then it will include bibliographic, chemical, 
# crystal, experimental, refinement or atomic coordinate data resulting 
# from the CCDC's data processing and validation procedures.
#
#######################################################################

data_UVIZEG
_chemical_formula_moiety         'C4 H2 N6 O4,2(H2 O1)'
_chemical_name_systematic        
'3,6-dinitro-1,4-dihydropyrazolo[4,3-c]pyrazole dihydrate'
_symmetry_cell_setting           triclinic
_symmetry_space_group_name_H-M   'P -1'
_symmetry_Int_Tables_number      2
_space_group_name_Hall           '-P 1'
loop_
_symmetry_equiv_pos_site_id
_symmetry_equiv_pos_as_xyz
1 x,y,z
2 -x,-y,-z
_cell_length_a                   5.0574(14)
_cell_length_b                   9.395(3)
_cell_length_c                   9.872(3)
_cell_angle_alpha                100.110(4)
_cell_angle_beta                 97.281(4)
_cell_angle_gamma                100.102(4)
_cell_volume                     448.574
_exptl_crystal_colour            yellow
_exptl_crystal_description       block
_cell_formula_units_Z            2
loop_
_atom_site_label
_atom_site_type_symbol
_atom_site_fract_x
_atom_site_fract_y
_atom_site_fract_z
O1 O 0.3566(4) 0.13907(19) 0.8617(2)
H1 H 0.265(6) 0.069(3) 0.882(3)
H2 H 0.452(5) 0.109(3) 0.807(3)
N1 N 0.2729(4) 0.52399(19) 0.85306(19)
O2 O 0.0633(4) 0.85727(18) 0.9378(2)
N2 N 0.1935(4) 0.40338(18) 0.90548(19)
H3 H 0.2465 0.3214 0.8842
N3 N 0.1847(4) 0.7691(2) 0.8781(2)
O3 O 0.3314(4) 0.79712(19) 0.7933(2)
C1 C 0.0181(4) 0.4284(2) 0.9965(2)
C2 C 0.1468(4) 0.6260(2) 0.9115(2)
N1A N -0.2729(4) 0.47601(19) 1.14694(19)
O2A O -0.0633(4) 0.14273(18) 1.0622(2)
N2A N -0.1935(4) 0.59662(18) 1.09452(19)
H3A H -0.2465 0.6786 1.1158
N3A N -0.1847(4) 0.2309(2) 1.1219(2)
O3A O -0.3314(4) 0.20288(19) 1.2067(2)
C1A C -0.0181(4) 0.5716(2) 1.0035(2)
C2A C -0.1468(4) 0.3740(2) 1.0885(2)
O4 O 0.0894(4) 0.63616(17) 0.45435(19)
O5 O 0.3764(4) 0.69475(18) 0.3192(2)
N4 N 0.2777(4) 0.97173(19) 0.35581(19)
N5 N 0.2130(4) 0.72430(19) 0.39503(19)
N6 N 0.1869(4) 1.09570(18) 0.40087(19)
H4 H 0.2329 1.1781 0.3751
C3 C 0.1581(4) 0.8707(2) 0.4195(2)
C4 C 0.0125(4) 1.0724(2) 0.4927(2)
O4A O -0.0894(4) 1.36384(17) 0.54565(19)
O5A O -0.3764(4) 1.30525(18) 0.6808(2)
N4A N -0.2777(4) 1.02827(19) 0.64419(19)
N5A N -0.2130(4) 1.27570(19) 0.60497(19)
N6A N -0.1869(4) 0.90430(18) 0.59913(19)
H4A H -0.2329 0.8219 0.6249
C3A C -0.1581(4) 1.1293(2) 0.5805(2)
C4A C -0.0125(4) 0.9276(2) 0.5073(2)
O6 O 0.3246(5) 0.3675(2) 0.3444(2)
H5 H 0.276(6) 0.440(3) 0.386(3)
H6 H 0.452(5) 0.405(3) 0.309(3)
loop_
_geom_bond_atom_site_label_1
_geom_bond_atom_site_label_2
_geom_bond_site_symmetry_1
_geom_bond_site_symmetry_2
O1 H1 1_555 1_555
H2 O1 1_555 1_555
N1 N2 1_555 1_555
O2 N3 1_555 1_555
N2 H3 1_555 1_555
N3 O3 1_555 1_555
C1 N2 1_555 1_555
C2 N1 1_555 1_555
O4 N5 1_555 1_555
O5 N5 1_555 1_555
N4 N6 1_555 1_555
N5 C3 1_555 1_555
N6 H4 1_555 1_555
C3 N4 1_555 1_555
C4 N6 1_555 1_555
O6 H5 1_555 1_555
H6 O6 1_555 1_555
N1A N2A 1_555 1_555
O2A N3A 1_555 1_555
N2A H3A 1_555 1_555
N3A O3A 1_555 1_555
C1A C1 1_555 1_555
C2A C1 1_555 1_555
O4A N5A 1_555 1_555
O5A N5A 1_555 1_555
N4A N6A 1_555 1_555
N5A C3A 1_555 1_555
N6A H4A 1_555 1_555
C3A C4 1_555 1_555
C4A C3 1_555 1_555
N3 C2 1_555 1_555
C2 C1A 1_555 1_555
C4 C4A 1_555 1_555
N1A C2A 1_555 1_555
N2A C1A 1_555 1_555
N3A C2A 1_555 1_555
N4A C3A 1_555 1_555
N6A C4A 1_555 1_555

#END
