
#######################################################################
#
#                 Cambridge Crystallographic Data Centre
#                                CCDC 
#
#######################################################################
#
# If this CIF has been generated from an entry in the Cambridge 
# Structural Database, then it will include bibliographic, chemical, 
# crystal, experimental, refinement or atomic coordinate data resulting 
# from the CCDC's data processing and validation procedures.
#
#######################################################################

data_UVOJIZ
_chemical_name_common            
'4-(2-Amino-6-chloropyrimidin-4-yl)-2-methylbut-3-yn-2-ol monohydrate'
_chemical_formula_moiety         'C9 H10 Cl1 N3 O1,H2 O1'
_chemical_name_systematic        
'3-(2-amino-6-chloropyrimidin-4-yl)-1,1-dimethylprop-2-yn-1-ol monohydrate'
_symmetry_cell_setting           monoclinic
_symmetry_space_group_name_H-M   'P 2/n'
_symmetry_Int_Tables_number      13
_space_group_name_Hall           '-P 2yac'
loop_
_symmetry_equiv_pos_site_id
_symmetry_equiv_pos_as_xyz
1 x,y,z
2 1/2-x,y,1/2-z
3 -x,-y,-z
4 1/2+x,-y,1/2+z
_cell_length_a                   6.0021(15)
_cell_length_b                   11.003(3)
_cell_length_c                   16.960(4)
_cell_angle_alpha                90
_cell_angle_beta                 92.566(4)
_cell_angle_gamma                90
_cell_volume                     1118.93
_exptl_crystal_colour            colorless
_exptl_crystal_description       block
_cell_formula_units_Z            4
loop_
_atom_site_label
_atom_site_type_symbol
_atom_site_fract_x
_atom_site_fract_y
_atom_site_fract_z
C1 C 1.2361(4) 0.1139(2) 0.55133(14)
C2 C 1.0747(4) 0.1294(2) 0.42912(14)
C3 C 0.9068(4) 0.2030(2) 0.45481(14)
H1 H 0.7906 0.2331 0.4203
C4 C 0.9200(4) 0.2299(2) 0.53445(14)
C5 C 0.7662(4) 0.3131(2) 0.56846(14)
C6 C 0.6515(4) 0.3880(2) 0.59771(14)
C7 C 0.5210(4) 0.4801(2) 0.63971(13)
C8 C 0.6238(5) 0.6055(2) 0.62907(17)
H2 H 0.5459 0.6649 0.6608
H3 H 0.6098 0.6288 0.5733
H4 H 0.7819 0.6032 0.6462
C9 C 0.2774(4) 0.4778(2) 0.61274(15)
H5 H 0.2158 0.3968 0.6219
H6 H 0.2630 0.4970 0.5563
H7 H 0.1955 0.5382 0.6425
Cl1 Cl 1.07907(13) 0.09441(6) 0.32955(4)
N1 N 1.2382(3) 0.08482(18) 0.47357(11)
N2 N 1.0805(3) 0.18474(18) 0.58374(11)
N3 N 1.3968(4) 0.0691(2) 0.59888(12)
H8 H 1.5041 0.0264 0.5793
H9 H 1.4138 0.0959 0.6475
O1 O 0.5352(3) 0.45132(16) 0.72198(9)
H11 H 0.5136 0.3760 0.7289
O2 O 0.5163(3) 0.20125(16) 0.74861(9)
H10 H 0.4736 0.1941 0.7956
H12 H 0.6550 0.1901 0.7443
H13? H 0.4733 0.2733 0.7395
loop_
_geom_bond_atom_site_label_1
_geom_bond_atom_site_label_2
_geom_bond_site_symmetry_1
_geom_bond_site_symmetry_2
C1 N1 1_555 1_555
C2 C3 1_555 1_555
C3 H1 1_555 1_555
C4 C3 1_555 1_555
C5 C4 1_555 1_555
C6 C5 1_555 1_555
C7 C6 1_555 1_555
C8 C7 1_555 1_555
H2 C8 1_555 1_555
H3 C8 1_555 1_555
H4 C8 1_555 1_555
C9 C7 1_555 1_555
H5 C9 1_555 1_555
H6 C9 1_555 1_555
H7 C9 1_555 1_555
Cl1 C2 1_555 1_555
N1 C2 1_555 1_555
N2 C1 1_555 1_555
N3 C1 1_555 1_555
H8 N3 1_555 1_555
H9 N3 1_555 1_555
O1 C7 1_555 1_555
O2 H10 1_555 1_555
H11 O1 1_555 1_555
H12 O2 1_555 1_555
C4 N2 1_555 1_555

#END
