
#######################################################################
#
#                 Cambridge Crystallographic Data Centre
#                                CCDC 
#
#######################################################################
#
# If this CIF has been generated from an entry in the Cambridge 
# Structural Database, then it will include bibliographic, chemical, 
# crystal, experimental, refinement or atomic coordinate data resulting 
# from the CCDC's data processing and validation procedures.
#
#######################################################################

data_UVOLIB
_chemical_name_common            
N-(bis((2-chlorobenzyl)amino)phosphoryl)-2,6-difluorobenzamide
_chemical_formula_moiety         'C21 H18 Cl2 F2 N3 O2 P1'
_chemical_name_systematic        
"N,N'-bis(2-chlorobenzyl)-N''-(2,6-difluorobenzoyl)phosphoric triamide"
_symmetry_cell_setting           monoclinic
_symmetry_space_group_name_H-M   'P 21/c'
_symmetry_Int_Tables_number      14
_space_group_name_Hall           '-P 2ybc'
loop_
_symmetry_equiv_pos_site_id
_symmetry_equiv_pos_as_xyz
1 x,y,z
2 -x,1/2+y,1/2-z
3 -x,-y,-z
4 x,1/2-y,1/2+z
_cell_length_a                   19.643(3)
_cell_length_b                   4.9874(6)
_cell_length_c                   21.482(3)
_cell_angle_alpha                90
_cell_angle_beta                 102.056(2)
_cell_angle_gamma                90
_cell_volume                     2058.12
_exptl_crystal_colour            colorless
_exptl_crystal_description       block
_cell_formula_units_Z            4
loop_
_atom_site_label
_atom_site_type_symbol
_atom_site_fract_x
_atom_site_fract_y
_atom_site_fract_z
Cl1 Cl 0.56322(4) 0.82496(15) 0.57320(3)
Cl2 Cl -0.01375(4) 0.77969(15) 0.44276(3)
P1 P 0.27115(4) 0.74413(14) 0.50981(3)
F1 F 0.15953(8) 0.9940(3) 0.65322(7)
F2 F 0.32417(9) 0.3325(4) 0.73647(8)
O1 O 0.25395(10) 0.3553(4) 0.60992(9)
O2 O 0.27054(10) 1.0164(4) 0.48287(9)
N1 N 0.26151(12) 0.7935(5) 0.58611(10)
H1 H 0.2581(16) 0.949(4) 0.6011(13)
N2 N 0.34085(12) 0.5706(5) 0.51076(11)
H2 H 0.3346(16) 0.411(4) 0.4998(14)
N3 N 0.20998(12) 0.5420(5) 0.47405(11)
H3 H 0.2201(16) 0.383(4) 0.4815(14)
C1 C 0.19795(15) 0.8613(6) 0.70344(13)
C2 C 0.18783(15) 0.9231(6) 0.76331(14)
H4 H 0.1558 1.0587 0.7692
C3 C 0.22578(16) 0.7818(6) 0.81506(13)
H5 H 0.2205 0.8238 0.8569
C4 C 0.27096(16) 0.5812(7) 0.80576(13)
H6 H 0.2963 0.4823 0.8408
C5 C 0.27869(15) 0.5265(6) 0.74460(13)
C6 C 0.24330(14) 0.6648(6) 0.69125(12)
C7 C 0.25292(14) 0.5913(6) 0.62590(12)
C8 C 0.41113(14) 0.6730(6) 0.53326(12)
H7 H 0.4082 0.8641 0.5449
H8 H 0.4362 0.6641 0.4979
C9 C 0.45316(15) 0.5247(6) 0.58983(12)
C10 C 0.52358(15) 0.5791(6) 0.61148(13)
C11 C 0.56409(16) 0.4456(6) 0.66265(13)
H9 H 0.6120 0.4879 0.6764
C12 C 0.53366(17) 0.2495(6) 0.69349(13)
H10 H 0.5609 0.1542 0.7282
C13 C 0.46341(16) 0.1924(6) 0.67365(13)
H11 H 0.4424 0.0599 0.6953
C14 C 0.42361(15) 0.3286(6) 0.62220(13)
H12 H 0.3755 0.2875 0.6089
C15 C 0.13673(14) 0.6099(6) 0.47053(12)
H13 H 0.1306 0.8062 0.4654
H14 H 0.1234 0.5578 0.5108
C16 C 0.08956(14) 0.4695(6) 0.41556(12)
C17 C 0.01876(15) 0.5362(6) 0.39907(13)
C18 C -0.02593(15) 0.4159(6) 0.34858(13)
H15 H -0.0734 0.4693 0.3377
C19 C -0.00137(16) 0.2176(6) 0.31399(13)
H16 H -0.0319 0.1332 0.2794
C20 C 0.06798(15) 0.1425(6) 0.32998(13)
H17 H 0.0849 0.0052 0.3066
C21 C 0.11285(15) 0.2674(6) 0.38021(12)
H18 H 0.1603 0.2142 0.3907
loop_
_geom_bond_atom_site_label_1
_geom_bond_atom_site_label_2
_geom_bond_site_symmetry_1
_geom_bond_site_symmetry_2
Cl1 C10 1_555 1_555
Cl2 C17 1_555 1_555
P1 O2 1_555 1_555
F1 C1 1_555 1_555
F2 C5 1_555 1_555
O1 C7 1_555 1_555
N1 P1 1_555 1_555
H1 N1 1_555 1_555
N2 P1 1_555 1_555
H2 N2 1_555 1_555
N3 P1 1_555 1_555
H3 N3 1_555 1_555
C1 C2 1_555 1_555
C2 H4 1_555 1_555
C3 C2 1_555 1_555
H5 C3 1_555 1_555
C4 C3 1_555 1_555
H6 C4 1_555 1_555
C5 C4 1_555 1_555
C6 C1 1_555 1_555
C7 N1 1_555 1_555
C8 N2 1_555 1_555
H7 C8 1_555 1_555
H8 C8 1_555 1_555
C9 C8 1_555 1_555
C10 C9 1_555 1_555
C11 C10 1_555 1_555
H9 C11 1_555 1_555
C12 C11 1_555 1_555
H10 C12 1_555 1_555
C13 C12 1_555 1_555
H11 C13 1_555 1_555
C14 C9 1_555 1_555
H12 C14 1_555 1_555
C15 N3 1_555 1_555
H13 C15 1_555 1_555
H14 C15 1_555 1_555
C16 C15 1_555 1_555
C17 C16 1_555 1_555
C18 C17 1_555 1_555
H15 C18 1_555 1_555
C19 C18 1_555 1_555
H16 C19 1_555 1_555
C20 C19 1_555 1_555
H17 C20 1_555 1_555
C21 C16 1_555 1_555
H18 C21 1_555 1_555
C5 C6 1_555 1_555
C6 C7 1_555 1_555
C13 C14 1_555 1_555
C20 C21 1_555 1_555

#END
