
#######################################################################
#
#                 Cambridge Crystallographic Data Centre
#                                CCDC 
#
#######################################################################
#
# If this CIF has been generated from an entry in the Cambridge 
# Structural Database, then it will include bibliographic, chemical, 
# crystal, experimental, refinement or atomic coordinate data resulting 
# from the CCDC's data processing and validation procedures.
#
#######################################################################

data_UVOLUN
_chemical_name_common            
N-(bis((4-methylphenyl)amino)phosphoryl)-2-chloro-2,2-difluoroacetamide
_chemical_formula_moiety         'C16 H17 Cl1 F2 N3 O2 P1'
_chemical_name_systematic        
"N-(2-chloro-2,2-difluoroacetyl)-N',N''-bis(4-methylphenyl)phosphoric triamide"
_symmetry_cell_setting           monoclinic
_symmetry_space_group_name_H-M   'C 2/c'
_symmetry_Int_Tables_number      15
_space_group_name_Hall           '-C 2yn'
loop_
_symmetry_equiv_pos_site_id
_symmetry_equiv_pos_as_xyz
1 x,y,z
2 -x,y,1/2-z
3 1/2+x,1/2+y,z
4 1/2-x,1/2+y,1/2-z
5 -x,-y,-z
6 x,-y,1/2+z
7 1/2-x,1/2-y,-z
8 1/2+x,1/2-y,1/2+z
_cell_length_a                   21.164(5)
_cell_length_b                   5.0011(12)
_cell_length_c                   33.635(8)
_cell_angle_alpha                90
_cell_angle_beta                 95.149(5)
_cell_angle_gamma                90
_cell_volume                     3545.67
_exptl_crystal_colour            colorless
_exptl_crystal_description       plate
_cell_formula_units_Z            8
loop_
_atom_site_label
_atom_site_type_symbol
_atom_site_fract_x
_atom_site_fract_y
_atom_site_fract_z
Cl1 Cl 1.07693(9) 0.1339(5) 0.50628(5)
P1 P 1.11556(7) 0.1608(3) 0.64991(4)
F1 F 1.17528(16) 0.4191(6) 0.51375(9)
F2 F 1.1879(2) 0.0143(7) 0.53346(11)
O1 O 1.13291(19) 0.5481(7) 0.58314(11)
O2 O 1.11008(17) -0.1113(6) 0.66623(10)
N1 N 1.1313(2) 0.1096(8) 0.60159(13)
H1 H 1.128(3) -0.047(6) 0.5915(15)
N2 N 1.1705(2) 0.3488(9) 0.67132(14)
H2 H 1.155(2) 0.498(7) 0.6769(16)
N3 N 1.0536(2) 0.3520(8) 0.64951(13)
H3 H 1.057(3) 0.517(4) 0.6529(15)
C1 C 1.1362(3) 0.3080(11) 0.57531(16)
C2 C 1.1476(3) 0.2237(11) 0.53266(16)
C3 C 1.2329(2) 0.2702(10) 0.68457(15)
C4 C 1.2661(3) 0.4174(12) 0.71479(16)
H4 H 1.2468 0.5632 0.7258
C5 C 1.3272(3) 0.3502(14) 0.72854(18)
H5 H 1.3489 0.4564 0.7479
C6 C 1.3573(3) 0.1284(14) 0.71425(18)
C7 C 1.3234(3) -0.0177(13) 0.68427(18)
H6 H 1.3424 -0.1670 0.6739
C8 C 1.2631(3) 0.0502(11) 0.66942(17)
H7 H 1.2423 -0.0513 0.6491
C9 C 1.4224(3) 0.0471(16) 0.7311(2)
H8 H 1.4515 0.1916 0.7282
H9 H 1.4358 -0.1070 0.7171
H10 H 1.4216 0.0045 0.7589
C10 C 0.9932(2) 0.2677(10) 0.63021(16)
C11 C 0.9670(3) 0.4022(11) 0.59698(17)
H11 H 0.9888 0.5430 0.5864
C12 C 0.9081(3) 0.3269(14) 0.57938(17)
H12 H 0.8901 0.4218 0.5574
C13 C 0.8753(3) 0.1132(13) 0.59379(18)
C14 C 0.9029(3) -0.0193(12) 0.62645(19)
H13 H 0.8816 -0.1633 0.6365
C15 C 0.9619(3) 0.0533(12) 0.64529(17)
H14 H 0.9796 -0.0404 0.6674
C16 C 0.8104(3) 0.0371(15) 0.5755(2)
H15 H 0.8099 -0.1495 0.5687
H16 H 0.8002 0.1411 0.5518
H17 H 0.7797 0.0709 0.5942
loop_
_geom_bond_atom_site_label_1
_geom_bond_atom_site_label_2
_geom_bond_site_symmetry_1
_geom_bond_site_symmetry_2
Cl1 C2 1_555 1_555
P1 O2 1_555 1_555
F1 C2 1_555 1_555
F2 C2 1_555 1_555
O1 C1 1_555 1_555
N1 P1 1_555 1_555
H1 N1 1_555 1_555
N2 P1 1_555 1_555
H2 N2 1_555 1_555
N3 P1 1_555 1_555
H3 N3 1_555 1_555
C1 N1 1_555 1_555
C2 C1 1_555 1_555
C3 N2 1_555 1_555
C4 C3 1_555 1_555
H4 C4 1_555 1_555
C5 C4 1_555 1_555
H5 C5 1_555 1_555
C6 C5 1_555 1_555
C7 C6 1_555 1_555
H6 C7 1_555 1_555
C8 C3 1_555 1_555
H7 C8 1_555 1_555
C9 C6 1_555 1_555
H8 C9 1_555 1_555
H9 C9 1_555 1_555
H10 C9 1_555 1_555
C10 N3 1_555 1_555
C11 C10 1_555 1_555
H11 C11 1_555 1_555
C12 C11 1_555 1_555
H12 C12 1_555 1_555
C13 C12 1_555 1_555
C14 C13 1_555 1_555
H13 C14 1_555 1_555
C15 C10 1_555 1_555
H14 C15 1_555 1_555
C16 C13 1_555 1_555
H15 C16 1_555 1_555
H16 C16 1_555 1_555
H17 C16 1_555 1_555
C7 C8 1_555 1_555
C14 C15 1_555 1_555

#END
