
#######################################################################
#
#                 Cambridge Crystallographic Data Centre
#                                CCDC 
#
#######################################################################
#
# If this CIF has been generated from an entry in the Cambridge 
# Structural Database, then it will include bibliographic, chemical, 
# crystal, experimental, refinement or atomic coordinate data resulting 
# from the CCDC's data processing and validation procedures.
#
#######################################################################

data_UVOLOH
_chemical_name_common            
N-(bis((4-methoxybenzyl)amino)phosphoryl)-2,6-difluorobenzamide
_chemical_formula_moiety         'C23 H24 F2 N3 O4 P1'
_chemical_name_systematic        
"N-(2,6-difluorobenzoyl)-N',N''-bis(4-methoxybenzyl)phosphoric triamide"
_symmetry_cell_setting           monoclinic
_symmetry_space_group_name_H-M   'P 21/n'
_symmetry_Int_Tables_number      14
_space_group_name_Hall           '-P 2yn'
loop_
_symmetry_equiv_pos_site_id
_symmetry_equiv_pos_as_xyz
1 x,y,z
2 1/2-x,1/2+y,1/2-z
3 -x,-y,-z
4 1/2+x,1/2-y,1/2+z
_cell_length_a                   4.8252(6)
_cell_length_b                   10.3456(12)
_cell_length_c                   45.068(5)
_cell_angle_alpha                90
_cell_angle_beta                 90.530(2)
_cell_angle_gamma                90
_cell_volume                     2249.68
_exptl_crystal_colour            colorless
_exptl_crystal_description       block
_cell_formula_units_Z            4
loop_
_atom_site_label
_atom_site_type_symbol
_atom_site_fract_x
_atom_site_fract_y
_atom_site_fract_z
P1 P 0.52732(8) 0.59705(4) 0.636114(9)
F1 F 0.8051(2) 0.28742(10) 0.58288(2)
F2 F 0.3388(2) 0.11618(10) 0.66522(3)
O1 O 0.1869(2) 0.34953(11) 0.63342(3)
O2 O 0.7990(2) 0.66351(11) 0.63678(3)
O3 O -0.2604(3) 0.85524(15) 0.49307(3)
O4 O -0.3356(3) 0.88688(13) 0.76831(3)
N1 N 0.6175(3) 0.43798(13) 0.63298(3)
H1 H 0.787(3) 0.4217(18) 0.6320(4)
N2 N 0.3179(3) 0.62877(13) 0.60858(3)
H2 H 0.153(3) 0.6385(19) 0.6132(4)
N3 N 0.3392(3) 0.62370(14) 0.66491(3)
H3 H 0.168(3) 0.6222(18) 0.6620(4)
C1 C 0.7468(4) 0.18689(16) 0.60109(4)
C2 C 0.8624(4) 0.06833(17) 0.59493(4)
H4 H 0.9829 0.0577 0.5786
C3 C 0.7987(4) -0.03528(17) 0.61318(5)
H5 H 0.8774 -0.1177 0.6094
C4 C 0.6221(4) -0.01976(17) 0.63685(5)
H6 H 0.5796 -0.0906 0.6494
C5 C 0.5089(4) 0.10008(17) 0.64185(4)
C6 C 0.5667(3) 0.20797(15) 0.62449(4)
C7 C 0.4380(3) 0.33775(15) 0.63064(4)
C8 C 0.3647(4) 0.57684(19) 0.57880(4)
H7 H 0.3137 0.4842 0.5784
H8 H 0.5638 0.5841 0.5739
C9 C 0.1949(4) 0.64924(18) 0.55601(4)
C10 C 0.0055(4) 0.58474(18) 0.53816(4)
H9 H -0.0180 0.4942 0.5406
C11 C -0.1517(4) 0.64953(19) 0.51673(4)
H10 H -0.2800 0.6035 0.5046
C12 C -0.1193(4) 0.78076(19) 0.51333(4)
C13 C 0.0704(4) 0.84769(19) 0.53114(4)
H11 H 0.0933 0.9383 0.5288
C14 C 0.2247(4) 0.78212(19) 0.55220(4)
H12 H 0.3532 0.8283 0.5643
C15 C -0.4459(5) 0.7911(2) 0.47313(5)
H13 H -0.5379 0.8551 0.4604
H14 H -0.5853 0.7438 0.4845
H15 H -0.3418 0.7303 0.4608
C16 C 0.4485(4) 0.6366(2) 0.69512(4)
H16 H 0.6223 0.6874 0.6948
H17 H 0.4916 0.5499 0.7032
C17 C 0.2409(3) 0.70291(17) 0.71476(4)
C18 C 0.1213(4) 0.82083(17) 0.70690(4)
H18 H 0.1721 0.8614 0.6888
C19 C -0.0710(4) 0.87936(17) 0.72517(4)
H19 H -0.1527 0.9593 0.7195
C20 C -0.1448(4) 0.82127(17) 0.75181(4)
C21 C -0.0263(4) 0.70515(18) 0.75996(4)
H20 H -0.0741 0.6655 0.7782
C22 C 0.1636(4) 0.64649(18) 0.74125(4)
H21 H 0.2422 0.5657 0.7468
C23 C -0.4128(4) 0.8321(2) 0.79597(4)
H22 H -0.5467 0.8888 0.8057
H23 H -0.2479 0.8226 0.8087
H24 H -0.4968 0.7470 0.7926
loop_
_geom_bond_atom_site_label_1
_geom_bond_atom_site_label_2
_geom_bond_site_symmetry_1
_geom_bond_site_symmetry_2
P1 O2 1_555 1_555
F1 C1 1_555 1_555
F2 C5 1_555 1_555
O1 C7 1_555 1_555
O3 C12 1_555 1_555
O4 C20 1_555 1_555
N1 P1 1_555 1_555
H1 N1 1_555 1_555
N2 P1 1_555 1_555
H2 N2 1_555 1_555
N3 P1 1_555 1_555
H3 N3 1_555 1_555
C1 C2 1_555 1_555
C2 H4 1_555 1_555
C3 C2 1_555 1_555
H5 C3 1_555 1_555
C4 C3 1_555 1_555
H6 C4 1_555 1_555
C5 C4 1_555 1_555
C6 C1 1_555 1_555
C7 N1 1_555 1_555
C8 N2 1_555 1_555
H7 C8 1_555 1_555
H8 C8 1_555 1_555
C9 C8 1_555 1_555
C10 C9 1_555 1_555
H9 C10 1_555 1_555
C11 C10 1_555 1_555
H10 C11 1_555 1_555
C12 C11 1_555 1_555
C13 C12 1_555 1_555
H11 C13 1_555 1_555
C14 C9 1_555 1_555
H12 C14 1_555 1_555
C15 O3 1_555 1_555
H13 C15 1_555 1_555
H14 C15 1_555 1_555
H15 C15 1_555 1_555
C16 N3 1_555 1_555
H16 C16 1_555 1_555
H17 C16 1_555 1_555
C17 C16 1_555 1_555
C18 C17 1_555 1_555
H18 C18 1_555 1_555
C19 C18 1_555 1_555
H19 C19 1_555 1_555
C20 C19 1_555 1_555
C21 C20 1_555 1_555
H20 C21 1_555 1_555
C22 C17 1_555 1_555
H21 C22 1_555 1_555
C23 O4 1_555 1_555
H22 C23 1_555 1_555
H23 C23 1_555 1_555
H24 C23 1_555 1_555
C5 C6 1_555 1_555
C6 C7 1_555 1_555
C13 C14 1_555 1_555
C21 C22 1_555 1_555

#END
