
#######################################################################
#
#                 Cambridge Crystallographic Data Centre
#                                CCDC 
#
#######################################################################
#
# If this CIF has been generated from an entry in the Cambridge 
# Structural Database, then it will include bibliographic, chemical, 
# crystal, experimental, refinement or atomic coordinate data resulting 
# from the CCDC's data processing and validation procedures.
#
#######################################################################

data_UVOMUP
_chemical_formula_moiety         'C31 H31 I1 N2 O5 S2'
_chemical_name_systematic        
N-(2-iodo-3-((4-methoxybenzyl)((4-methylphenyl)sulfonyl)amino)prop-2-en-1-yl)-4-methyl-N-phenylbenzenesulfonamide
_symmetry_cell_setting           monoclinic
_symmetry_space_group_name_H-M   'P 21/n'
_symmetry_Int_Tables_number      14
_space_group_name_Hall           '-P 2yn'
loop_
_symmetry_equiv_pos_site_id
_symmetry_equiv_pos_as_xyz
1 x,y,z
2 1/2-x,1/2+y,1/2-z
3 -x,-y,-z
4 1/2+x,1/2-y,1/2+z
_cell_length_a                   13.8518(3)
_cell_length_b                   12.8437(3)
_cell_length_c                   18.4339(5)
_cell_angle_alpha                90
_cell_angle_beta                 107.150(3)
_cell_angle_gamma                90
_cell_volume                     3133.72
_exptl_crystal_colour            colorless
_cell_formula_units_Z            4
loop_
_atom_site_label
_atom_site_type_symbol
_atom_site_fract_x
_atom_site_fract_y
_atom_site_fract_z
I1 I 0.42891(2) 0.79079(2) 0.19593(2)
S1 S 0.31833(6) 0.49898(8) 0.16433(6)
S2 S 0.75153(8) 0.82379(8) 0.16920(5)
O1 O 0.3139(3) 0.5634(3) 0.10131(18)
O2 O 0.8164(3) 0.8934(3) 0.22107(18)
O3 O 0.6854(3) 0.8621(3) 0.09981(18)
N1 N 0.4152(2) 0.5396(2) 0.23559(16)
O4 O 0.2340(2) 0.4934(3) 0.1937(3)
O5 O 0.6579(3) 0.6630(3) 0.57989(18)
N2 N 0.6802(3) 0.7667(3) 0.21545(18)
C1 C 0.5030(2) 0.5691(3) 0.21618(17)
H1 H 0.5499 0.5171 0.2168
C2 C 0.5242(3) 0.6627(3) 0.19746(18)
C3 C 0.3486(3) 0.3714(3) 0.1424(2)
C4 C 0.4971(3) 0.5313(3) 0.3739(2)
C5 C 0.7221(3) 0.7510(4) 0.2958(2)
C6 C 0.8244(3) 0.7235(3) 0.1472(2)
C7 C 0.9294(3) 0.5524(4) 0.1154(2)
C8 C 0.6031(3) 0.6246(4) 0.5098(2)
C9 C 0.7529(3) 0.6546(4) 0.3262(3)
H2 H 0.7477 0.5972 0.2945
C10 C 0.7966(3) 0.6799(4) 0.0749(2)
H3 H 0.7428 0.7075 0.0368
C11 C 0.5263(4) 0.6777(4) 0.4593(3)
H4 H 0.5088 0.7444 0.4704
C12 C 0.9060(3) 0.6824(4) 0.2031(2)
H5 H 0.9259 0.7115 0.2515
C13 C 0.4179(3) 0.3578(4) 0.1034(2)
H6 H 0.4481 0.4152 0.0883
C14 C 0.8487(4) 0.5969(4) 0.0603(2)
H7 H 0.8296 0.5686 0.0117
C15 C 0.6146(3) 0.6844(4) 0.1713(2)
H8 H 0.6537 0.6209 0.1749
H9 H 0.5921 0.7050 0.1183
C16 C 0.5766(3) 0.4796(4) 0.4259(2)
H10 H 0.5945 0.4129 0.4149
C17 C 0.9568(3) 0.5985(4) 0.1863(2)
H11 H 1.0116 0.5716 0.2239
C18 C 0.4429(4) 0.2582(4) 0.0867(3)
H12 H 0.4905 0.2493 0.0607
C19 C 0.3982(4) 0.1717(4) 0.1079(3)
C20 C 0.6288(3) 0.5263(4) 0.4931(2)
H13 H 0.6816 0.4912 0.5274
C21 C 0.4748(4) 0.6295(4) 0.3908(2)
H14 H 0.4238 0.6659 0.3558
C22 C 0.4370(3) 0.4734(3) 0.3043(2)
H15 H 0.4745 0.4124 0.2972
H16 H 0.3739 0.4500 0.3115
C23 C 0.7298(4) 0.8369(4) 0.3432(2)
H17 H 0.7087 0.9023 0.3230
C24 C 0.3034(4) 0.2859(4) 0.1646(3)
H18 H 0.2562 0.2949 0.1910
C25 C 0.3291(5) 0.1869(4) 0.1470(3)
H19 H 0.2989 0.1295 0.1621
C26 C 0.6309(5) 0.7605(5) 0.6015(3)
H20 H 0.6384 0.8123 0.5660
H21 H 0.6738 0.7775 0.6513
H22 H 0.5618 0.7587 0.6021
C27 C 0.7918(4) 0.6433(5) 0.4041(3)
H23 H 0.8123 0.5780 0.4248
C28 C 0.9837(4) 0.4595(5) 0.0986(3)
H24 H 0.9550 0.4397 0.0465
H25 H 0.9774 0.4029 0.1309
H26 H 1.0539 0.4761 0.1077
C29 C 0.8001(4) 0.7280(6) 0.4511(3)
H27 H 0.8264 0.7202 0.5034
C30 C 0.7694(4) 0.8236(6) 0.4206(3)
H28 H 0.7753 0.8808 0.4525
C31 C 0.4258(6) 0.0636(5) 0.0872(4)
H29 H 0.4084 0.0575 0.0329
H30 H 0.3894 0.0124 0.1066
H31 H 0.4971 0.0527 0.1089
loop_
_geom_bond_atom_site_label_1
_geom_bond_atom_site_label_2
_geom_bond_site_symmetry_1
_geom_bond_site_symmetry_2
I1 C2 1_555 1_555
S1 O1 1_555 1_555
S2 O2 1_555 1_555
O3 S2 1_555 1_555
N1 S1 1_555 1_555
O4 S1 1_555 1_555
O5 C8 1_555 1_555
N2 S2 1_555 1_555
C1 N1 1_555 1_555
H1 C1 1_555 1_555
C2 C1 1_555 1_555
C3 S1 1_555 1_555
C4 C16 1_555 1_555
C5 N2 1_555 1_555
C6 S2 1_555 1_555
C7 C14 1_555 1_555
C8 C11 1_555 1_555
C9 C5 1_555 1_555
H2 C9 1_555 1_555
C10 C6 1_555 1_555
H3 C10 1_555 1_555
C11 H4 1_555 1_555
C12 C6 1_555 1_555
H5 C12 1_555 1_555
C13 C3 1_555 1_555
H6 C13 1_555 1_555
C14 C10 1_555 1_555
H7 C14 1_555 1_555
C15 N2 1_555 1_555
H8 C15 1_555 1_555
H9 C15 1_555 1_555
C16 H10 1_555 1_555
C17 C7 1_555 1_555
H11 C17 1_555 1_555
C18 C13 1_555 1_555
H12 C18 1_555 1_555
C19 C18 1_555 1_555
C20 C8 1_555 1_555
H13 C20 1_555 1_555
C21 C4 1_555 1_555
H14 C21 1_555 1_555
C22 N1 1_555 1_555
H15 C22 1_555 1_555
H16 C22 1_555 1_555
C23 C5 1_555 1_555
H17 C23 1_555 1_555
C24 C3 1_555 1_555
H18 C24 1_555 1_555
C25 C19 1_555 1_555
H19 C25 1_555 1_555
C26 O5 1_555 1_555
H20 C26 1_555 1_555
H21 C26 1_555 1_555
H22 C26 1_555 1_555
C27 C9 1_555 1_555
H23 C27 1_555 1_555
C28 C7 1_555 1_555
H24 C28 1_555 1_555
H25 C28 1_555 1_555
H26 C28 1_555 1_555
C29 C27 1_555 1_555
H27 C29 1_555 1_555
C30 C23 1_555 1_555
H28 C30 1_555 1_555
C31 C19 1_555 1_555
H29 C31 1_555 1_555
H30 C31 1_555 1_555
H31 C31 1_555 1_555
C2 C15 1_555 1_555
C4 C22 1_555 1_555
C11 C21 1_555 1_555
C12 C17 1_555 1_555
C16 C20 1_555 1_555
C24 C25 1_555 1_555
C29 C30 1_555 1_555

#END
