
#######################################################################
#
#                 Cambridge Crystallographic Data Centre
#                                CCDC 
#
#######################################################################
#
# If this CIF has been generated from an entry in the Cambridge 
# Structural Database, then it will include bibliographic, chemical, 
# crystal, experimental, refinement or atomic coordinate data resulting 
# from the CCDC's data processing and validation procedures.
#
#######################################################################

data_UVONAV
_chemical_formula_moiety         'C56 H48 S4,4(C60),2(C7 H8)'
_chemical_name_systematic        
"2,9,12,19-tetrabutyldibenzo[3,4:9,10]tristhieno [2',3':7,8;3'',2'':11,12;3''',2''':5,6]coroneno[1,2-b]thiophene tetrakis(C60fullerene) bis(toluene) clathrate"
_symmetry_cell_setting           monoclinic
_symmetry_space_group_name_H-M   'P 21/c'
_symmetry_Int_Tables_number      14
_space_group_name_Hall           '-P 2ybc'
loop_
_symmetry_equiv_pos_site_id
_symmetry_equiv_pos_as_xyz
1 x,y,z
2 -x,1/2+y,1/2-z
3 -x,-y,-z
4 x,1/2-y,1/2+z
_cell_length_a                   22.514(5)
_cell_length_b                   19.373(4)
_cell_length_c                   19.548(4)
_cell_angle_alpha                90
_cell_angle_beta                 108.901(3)
_cell_angle_gamma                90
_cell_volume                     8066.4
_exptl_crystal_colour            purple
_exptl_crystal_description       plate
_cell_formula_units_Z            2
loop_
_atom_site_label
_atom_site_type_symbol
_atom_site_fract_x
_atom_site_fract_y
_atom_site_fract_z
C1 C 0.6857(2) 1.1754(3) -0.28329(10)
C2 C 0.6300(2) 1.2036(3) -0.27086(14)
C3 C 0.59844(16) 1.1474(3) -0.24684(18)
C4 C 0.6347(2) 1.0845(3) -0.24445(19)
C5 C 0.6886(2) 1.1018(3) -0.26697(15)
C6 C 0.6224(2) 1.2651(3) -0.2369(2)
C7 C 0.6776(2) 1.3095(2) -0.2190(2)
C8 C 0.6842(2) 1.34301(14) -0.1501(3)
C9 C 0.6331(2) 1.31927(18) -0.1255(3)
C10 C 0.59493(16) 1.2711(2) -0.1792(3)
C11 C 0.7332(2) 1.2253(3) -0.26260(15)
C12 C 0.7356(3) 1.2912(2) -0.2258(2)
C13 C 0.7988(2) 1.2999(2) -0.1749(3)
C14 C 0.8355(2) 1.2392(3) -0.1802(2)
C15 C 0.7949(2) 1.1932(3) -0.2344(2)
C16 C 0.8040(2) 1.1225(3) -0.2197(2)
C17 C 0.84950(18) 1.0980(2) -0.1525(3)
C18 C 0.8235(2) 1.0368(2) -0.1293(3)
C19 C 0.7619(2) 1.02350(18) -0.1822(3)
C20 C 0.7499(2) 1.0765(2) -0.2380(2)
C21 C 0.87842(15) 1.2203(3) -0.1133(3)
C22 C 0.88593(13) 1.1459(3) -0.1029(3)
C23 C 0.89348(10) 1.1309(3) -0.0274(3)
C24 C 0.89065(11) 1.1960(3) 0.0088(2)
C25 C 0.88134(14) 1.2513(2) -0.0443(3)
C26 C 0.7285(3) 1.0555(2) 0.0467(2)
C27 C 0.7276(2) 1.1217(3) 0.08178(15)
C28 C 0.6651(2) 1.1513(3) 0.0508(2)
C29 C 0.6273(2) 1.1033(3) -0.0033(3)
C30 C 0.6665(2) 1.0441(2) -0.0058(3)
C31 C 0.7777(2) 1.1686(3) 0.10202(10)
C32 C 0.8336(2) 1.1414(3) 0.08922(14)
C33 C 0.86391(16) 1.1981(3) 0.06426(18)
C34 C 0.8268(2) 1.2603(2) 0.06164(18)
C35 C 0.7735(2) 1.2420(3) 0.08497(15)
C36 C 0.7092(2) 1.00051(14) -0.1655(3)
C37 C 0.6463(2) 1.0295(2) -0.1953(3)
C38 C 0.62042(19) 1.0371(2) -0.1363(3)
C39 C 0.6673(2) 1.01270(15) -0.0701(3)
C40 C 0.7222(3) 0.99010(10) -0.0882(3)
C41 C 0.84215(19) 1.30600(19) -0.0397(3)
C42 C 0.8011(2) 1.33085(15) -0.1094(3)
C43 C 0.7434(3) 1.35601(10) -0.0995(3)
C44 C 0.7488(2) 1.34672(13) -0.0237(3)
C45 C 0.8098(2) 1.31581(19) 0.0133(2)
C46 C 0.56986(10) 1.2141(3) -0.1540(3)
C47 C 0.57222(11) 1.1492(3) -0.1909(2)
C48 C 0.58081(14) 1.0934(3) -0.1386(3)
C49 C 0.58378(15) 1.1237(3) -0.0693(3)
C50 C 0.57701(13) 1.1983(3) -0.0788(3)
C51 C 0.61212(18) 1.2489(3) -0.0317(3)
C52 C 0.6573(2) 1.2218(3) 0.0344(2)
C53 C 0.7121(2) 1.2668(2) 0.0544(2)
C54 C 0.7008(2) 1.32182(18) 0.0008(3)
C55 C 0.6390(2) 1.3107(2) -0.0524(3)
C56 C 0.8390(2) 1.0809(2) 0.0525(2)
C57 C 0.7843(2) 1.0358(2) 0.0350(2)
C58 C 0.7791(2) 1.00032(13) -0.0325(3)
C59 C 0.8306(2) 1.02345(18) -0.0567(3)
C60 C 0.86767(16) 1.0732(2) -0.0041(3)
C61 C 0.24401(19) 1.2648(3) -0.18844(16)
C62 C 0.19571(14) 1.2926(3) -0.16134(19)
C63 C 0.18995(15) 1.2465(3) -0.1049(3)
C64 C 0.2347(2) 1.1903(2) -0.0970(3)
C65 C 0.2681(2) 1.2016(2) -0.1487(2)
C66 C 0.18476(14) 1.3608(3) -0.14483(19)
C67 C 0.2243(2) 1.4107(3) -0.16563(18)
C68 C 0.2411(2) 1.4648(2) -0.1109(2)
C69 C 0.2120(2) 1.4483(2) -0.0562(3)
C70 C 0.17721(13) 1.3840(3) -0.0772(2)
C71 C 0.2768(2) 1.3203(3) -0.20504(10)
C72 C 0.2737(2) 1.3940(3) -0.19143(15)
C73 C 0.3373(3) 1.4216(3) -0.1707(2)
C74 C 0.3798(2) 1.3650(3) -0.17156(19)
C75 C 0.3424(2) 1.3024(3) -0.19276(13)
C76 C 0.3704(2) 1.2416(3) -0.15826(19)
C77 C 0.43185(19) 1.2428(3) -0.1026(2)
C78 C 0.4315(2) 1.1921(2) -0.0476(3)
C79 C 0.3698(3) 1.15957(16) -0.0693(3)
C80 C 0.3320(2) 1.1902(2) -0.1377(2)
C81 C 0.4378(2) 1.3712(3) -0.1168(3)
C82 C 0.46420(16) 1.3055(3) -0.0847(2)
C83 C 0.49500(11) 1.3165(3) -0.0075(3)
C84 C 0.48766(14) 1.3890(3) 0.0081(3)
C85 C 0.4523(2) 1.4228(3) -0.0595(3)
C86 C 0.3994(2) 1.2628(3) 0.16326(14)
C87 C 0.3930(2) 1.3361(3) 0.17645(10)
C88 C 0.3266(2) 1.3506(3) 0.16267(13)
C89 C 0.2919(2) 1.2864(3) 0.14097(18)
C90 C 0.3369(3) 1.2321(3) 0.1413(2)
C91 C 0.42848(19) 1.3887(3) 0.15933(17)
C92 C 0.47662(14) 1.3618(3) 0.1315(2)
C93 C 0.48101(15) 1.4079(3) 0.0744(3)
C94 C 0.4356(2) 1.4634(2) 0.0670(3)
C95 C 0.4031(2) 1.4515(2) 0.1195(2)
C96 C 0.3370(3) 1.14112(10) -0.0222(3)
C97 C 0.2708(3) 1.15560(15) -0.0344(3)
C98 C 0.2645(3) 1.1807(2) 0.0332(3)
C99 C 0.3269(3) 1.18180(19) 0.0873(3)
C100 C 0.3716(3) 1.15731(15) 0.0530(3)
C101 C 0.4090(3) 1.4736(2) -0.0563(3)
C102 C 0.3503(3) 1.4721(2) -0.1166(3)
C103 C 0.3004(3) 1.49618(15) -0.0902(3)
C104 C 0.3282(3) 1.51257(10) -0.0136(3)
C105 C 0.3953(3) 1.49861(15) 0.0073(3)
C106 C 0.17722(11) 1.3378(3) -0.0220(2)
C107 C 0.18388(13) 1.2653(3) -0.0382(3)
C108 C 0.2186(2) 1.2308(3) 0.0291(3)
C109 C 0.2333(2) 1.2819(3) 0.0869(2)
C110 C 0.20779(16) 1.3480(3) 0.0553(2)
C111 C 0.2377(2) 1.4123(3) 0.0703(2)
C112 C 0.2993(2) 1.4107(3) 0.12590(19)
C113 C 0.3389(2) 1.4619(2) 0.1071(2)
C114 C 0.3018(3) 1.49510(16) 0.0399(3)
C115 C 0.2393(2) 1.4645(2) 0.0172(3)
C116 C 0.48486(13) 1.2935(3) 0.1127(2)
C117 C 0.4460(2) 1.2432(3) 0.13400(18)
C118 C 0.4311(2) 1.1877(2) 0.0807(2)
C119 C 0.4608(2) 1.2038(2) 0.0265(3)
C120 C 0.49400(12) 1.2691(3) 0.0462(2)
C121 C 0.4527(4) 0.5628(5) 0.3303(6)
H1 H 0.4955 0.5508 0.3606
H2 H 0.4417 0.6085 0.3442
H3 H 0.4505 0.5635 0.2794
C122 C 0.4069(3) 0.5094(4) 0.3409(5)
H4 H 0.4109 0.5074 0.3928
H5 H 0.4182 0.4634 0.3267
C123 C 0.3388(3) 0.5252(4) 0.2970(4)
H6 H 0.3346 0.5276 0.2451
H7 H 0.3271 0.5708 0.3116
C124 C 0.2271(3) 0.4746(4) 0.2594(4)
C125 C 0.0484(3) 0.8803(3) 0.3448(4)
H8 H 0.0512 0.8521 0.3880
H9 H 0.0056 0.9002 0.3267
C126 C -0.0785(3) 0.8003(4) -0.0787(4)
H10 H -0.0758 0.8491 -0.0737
C127 C 0.2937(3) 0.4700(4) 0.3082(4)
H11 H 0.3103 0.4240 0.3016
H12 H 0.2940 0.4728 0.3588
C128 C 0.1229(3) 0.5203(3) 0.1802(3)
C129 C -0.1118(3) 0.7722(3) -0.1448(4)
H13 H -0.1326 0.8015 -0.1842
C130 C 0.0959(4) 0.9387(4) 0.3666(4)
H14 H 0.0878 0.9664 0.4045
H15 H 0.0922 0.9678 0.3245
H16 H 0.1384 0.9193 0.3848
C131 C -0.0204(3) 0.6406(3) 0.0306(3)
C132 C -0.1337(3) 0.5489(3) -0.1651(3)
C133 C 0.0583(3) 0.8342(3) 0.2871(4)
H17 H 0.1014 0.8150 0.3047
H18 H 0.0544 0.8621 0.2435
C134 C 0.0112(3) 0.7750(3) 0.2669(4)
H19 H 0.0136 0.7495 0.3116
H20 H -0.0315 0.7949 0.2477
C135 C -0.1148(3) 0.7027(3) -0.1537(3)
H21 H -0.1358 0.6844 -0.2004
C136 C -0.0453(3) 0.5413(3) -0.0532(3)
C137 C -0.0539(3) 0.6849(3) -0.0269(3)
C138 C 0.0710(3) 0.5584(3) 0.1356(3)
C139 C -0.0506(3) 0.7615(3) -0.0226(3)
H22 H -0.0278 0.7829 0.0219
C140 C -0.1941(3) 0.5729(3) -0.2122(3)
H23 H -0.2091 0.6183 -0.2099
C141 C 0.0192(3) 0.7243(3) 0.2127(3)
C142 C 0.0359(3) 0.5297(3) 0.0679(3)
C143 C -0.0141(3) 0.7250(3) 0.1398(3)
H24 H -0.0443 0.7586 0.1156
C144 C 0.0510(3) 0.6230(3) 0.1542(3)
C145 C -0.0893(3) 0.5832(3) -0.1055(3)
C146 C -0.0094(3) 0.5714(3) 0.0157(3)
C147 C 0.0057(3) 0.6629(3) 0.1044(3)
C148 C -0.0876(3) 0.6565(3) -0.0960(3)
S1 S 0.18495(9) 0.55279(9) 0.25093(9)
S2 S 0.07438(9) 0.65923(9) 0.23965(9)
C121B C -0.4527(4) 0.4372(5) -0.3303(6)
H1B H -0.4955 0.4492 -0.3606
H2B H -0.4417 0.3915 -0.3442
H3B H -0.4505 0.4365 -0.2794
C122B C -0.4069(3) 0.4906(4) -0.3409(5)
H4B H -0.4109 0.4926 -0.3928
H5B H -0.4182 0.5366 -0.3267
C123B C -0.3388(3) 0.4748(4) -0.2970(4)
H6B H -0.3346 0.4724 -0.2451
H7B H -0.3271 0.4292 -0.3116
C124B C -0.2271(3) 0.5254(4) -0.2594(4)
C125B C -0.0484(3) 0.1197(3) -0.3448(4)
H8B H -0.0512 0.1479 -0.3880
H9B H -0.0056 0.0998 -0.3267
C126B C 0.0785(3) 0.1997(4) 0.0787(4)
H10B H 0.0758 0.1509 0.0737
C127B C -0.2937(3) 0.5300(4) -0.3082(4)
H11B H -0.3103 0.5760 -0.3016
H12B H -0.2940 0.5272 -0.3588
C128B C -0.1229(3) 0.4797(3) -0.1802(3)
C129B C 0.1118(3) 0.2278(3) 0.1448(4)
H13B H 0.1326 0.1985 0.1842
C130B C -0.0959(4) 0.0613(4) -0.3666(4)
H14B H -0.0878 0.0336 -0.4045
H15B H -0.0922 0.0322 -0.3245
H16B H -0.1384 0.0807 -0.3848
C131B C 0.0204(3) 0.3594(3) -0.0306(3)
C132B C 0.1337(3) 0.4511(3) 0.1651(3)
C133B C -0.0583(3) 0.1658(3) -0.2871(4)
H17B H -0.1014 0.1850 -0.3047
H18B H -0.0544 0.1379 -0.2435
C134B C -0.0112(3) 0.2250(3) -0.2669(4)
H19B H -0.0136 0.2505 -0.3116
H20B H 0.0315 0.2051 -0.2477
C135B C 0.1148(3) 0.2973(3) 0.1537(3)
H21B H 0.1358 0.3156 0.2004
C136B C 0.0453(3) 0.4587(3) 0.0532(3)
C137B C 0.0539(3) 0.3151(3) 0.0269(3)
C138B C -0.0710(3) 0.4416(3) -0.1356(3)
C139B C 0.0506(3) 0.2385(3) 0.0226(3)
H22B H 0.0278 0.2171 -0.0219
C140B C 0.1941(3) 0.4271(3) 0.2122(3)
H23B H 0.2091 0.3817 0.2099
C141B C -0.0192(3) 0.2757(3) -0.2127(3)
C142B C -0.0359(3) 0.4703(3) -0.0679(3)
C143B C 0.0141(3) 0.2750(3) -0.1398(3)
H24B H 0.0443 0.2414 -0.1156
C144B C -0.0510(3) 0.3770(3) -0.1542(3)
C145B C 0.0893(3) 0.4168(3) 0.1055(3)
C146B C 0.0094(3) 0.4286(3) -0.0157(3)
C147B C -0.0057(3) 0.3371(3) -0.1044(3)
C148B C 0.0876(3) 0.3435(3) 0.0960(3)
S1B S -0.18495(9) 0.44721(9) -0.25093(9)
S2B S -0.07438(9) 0.34077(9) -0.23965(9)
C149 C 0.0785(4) 1.0895(4) -0.0965(5)
H25 H 0.1066 1.1246 -0.0715
C150 C -0.0076(4) 1.0116(4) -0.1052(5)
H26 H -0.0379 0.9937 -0.0857
C151 C -0.0480(4) 0.9306(4) -0.2081(5)
H27 H -0.0768 0.9196 -0.1812
H28 H -0.0239 0.8893 -0.2113
H29 H -0.0722 0.9461 -0.2569
C152 C 0.0334(4) 1.0633(4) -0.0686(4)
H30 H 0.0307 1.0808 -0.0244
C153 C 0.0412(4) 1.0126(4) -0.1974(4)
H31 H 0.0442 0.9950 -0.2415
C154 C 0.0815(4) 1.0632(4) -0.1613(5)
H32 H 0.1120 1.0807 -0.1809
C155 C -0.0043(4) 0.9865(4) -0.1700(4)
loop_
_geom_bond_atom_site_label_1
_geom_bond_atom_site_label_2
_geom_bond_site_symmetry_1
_geom_bond_site_symmetry_2
C1 C2 1_555 1_555
C2 C3 1_555 1_555
C3 C4 1_555 1_555
C4 C5 1_555 1_555
C5 C1 1_555 1_555
C6 C2 1_555 1_555
C7 C6 1_555 1_555
C8 C7 1_555 1_555
C9 C8 1_555 1_555
C10 C6 1_555 1_555
C11 C1 1_555 1_555
C12 C7 1_555 1_555
C13 C12 1_555 1_555
C14 C13 1_555 1_555
C15 C11 1_555 1_555
C16 C15 1_555 1_555
C17 C16 1_555 1_555
C18 C17 1_555 1_555
C19 C18 1_555 1_555
C20 C5 1_555 1_555
C21 C14 1_555 1_555
C22 C17 1_555 1_555
C23 C22 1_555 1_555
C24 C23 1_555 1_555
C25 C21 1_555 1_555
C26 C27 1_555 1_555
C27 C28 1_555 1_555
C28 C29 1_555 1_555
C29 C30 1_555 1_555
C30 C26 1_555 1_555
C31 C27 1_555 1_555
C32 C31 1_555 1_555
C33 C24 1_555 1_555
C34 C33 1_555 1_555
C35 C31 1_555 1_555
C36 C19 1_555 1_555
C37 C4 1_555 1_555
C38 C37 1_555 1_555
C39 C30 1_555 1_555
C40 C36 1_555 1_555
C41 C25 1_555 1_555
C42 C13 1_555 1_555
C43 C8 1_555 1_555
C44 C43 1_555 1_555
C45 C34 1_555 1_555
C46 C10 1_555 1_555
C47 C3 1_555 1_555
C48 C38 1_555 1_555
C49 C29 1_555 1_555
C50 C46 1_555 1_555
C51 C50 1_555 1_555
C52 C28 1_555 1_555
C53 C35 1_555 1_555
C54 C44 1_555 1_555
C55 C9 1_555 1_555
C56 C32 1_555 1_555
C57 C26 1_555 1_555
C58 C40 1_555 1_555
C59 C18 1_555 1_555
C60 C23 1_555 1_555
C61 C62 1_555 1_555
C62 C63 1_555 1_555
C63 C64 1_555 1_555
C64 C65 1_555 1_555
C65 C61 1_555 1_555
C66 C62 1_555 1_555
C67 C66 1_555 1_555
C68 C67 1_555 1_555
C69 C68 1_555 1_555
C70 C66 1_555 1_555
C71 C61 1_555 1_555
C72 C67 1_555 1_555
C73 C72 1_555 1_555
C74 C73 1_555 1_555
C75 C71 1_555 1_555
C76 C75 1_555 1_555
C77 C76 1_555 1_555
C78 C77 1_555 1_555
C79 C78 1_555 1_555
C80 C65 1_555 1_555
C81 C74 1_555 1_555
C82 C77 1_555 1_555
C83 C82 1_555 1_555
C84 C83 1_555 1_555
C85 C81 1_555 1_555
C86 C87 1_555 1_555
C87 C88 1_555 1_555
C88 C89 1_555 1_555
C89 C90 1_555 1_555
C90 C86 1_555 1_555
C91 C87 1_555 1_555
C92 C91 1_555 1_555
C93 C84 1_555 1_555
C94 C93 1_555 1_555
C95 C91 1_555 1_555
C96 C79 1_555 1_555
C97 C64 1_555 1_555
C98 C97 1_555 1_555
C99 C90 1_555 1_555
C100 C96 1_555 1_555
C101 C85 1_555 1_555
C102 C73 1_555 1_555
C103 C68 1_555 1_555
C104 C103 1_555 1_555
C105 C94 1_555 1_555
C106 C70 1_555 1_555
C107 C63 1_555 1_555
C108 C98 1_555 1_555
C109 C89 1_555 1_555
C110 C106 1_555 1_555
C111 C110 1_555 1_555
C112 C88 1_555 1_555
C113 C95 1_555 1_555
C114 C104 1_555 1_555
C115 C69 1_555 1_555
C116 C92 1_555 1_555
C117 C86 1_555 1_555
C118 C100 1_555 1_555
C119 C78 1_555 1_555
C120 C83 1_555 1_555
C121 H1 1_555 1_555
H2 C121 1_555 1_555
H3 C121 1_555 1_555
C122 C121 1_555 1_555
H4 C122 1_555 1_555
H5 C122 1_555 1_555
C123 C122 1_555 1_555
H6 C123 1_555 1_555
H7 C123 1_555 1_555
C124 C127 1_555 1_555
C125 H8 1_555 1_555
H9 C125 1_555 1_555
C126 H10 1_555 1_555
C127 C123 1_555 1_555
H11 C127 1_555 1_555
H12 C127 1_555 1_555
C128 C138 1_555 1_555
C129 C126 1_555 1_555
H13 C129 1_555 1_555
C130 C125 1_555 1_555
H14 C130 1_555 1_555
H15 C130 1_555 1_555
H16 C130 1_555 1_555
C131 C137 1_555 1_555
C132 C140 1_555 1_555
C133 C125 1_555 1_555
H17 C133 1_555 1_555
H18 C133 1_555 1_555
C134 C133 1_555 1_555
H19 C134 1_555 1_555
H20 C134 1_555 1_555
C135 C129 1_555 1_555
H21 C135 1_555 1_555
C136 C145 1_555 1_555
C137 C139 1_555 1_555
C138 C142 1_555 1_555
C139 C126 1_555 1_555
H22 C139 1_555 1_555
C140 H23 1_555 1_555
C141 C134 1_555 1_555
C142 C146 1_555 1_555
C143 C141 1_555 1_555
H24 C143 1_555 1_555
C144 C138 1_555 1_555
C145 C132 1_555 1_555
C146 C131 1_555 1_555
C147 C131 1_555 1_555
C148 C135 1_555 1_555
C149 H25 1_555 1_555
C150 H26 1_555 1_555
C151 H27 1_555 1_555
H28 C151 1_555 1_555
H29 C151 1_555 1_555
C152 C149 1_555 1_555
H30 C152 1_555 1_555
C153 H31 1_555 1_555
C154 C149 1_555 1_555
H32 C154 1_555 1_555
C155 C150 1_555 1_555
S1 C124 1_555 1_555
S2 C141 1_555 1_555
C121B H1B 1_555 1_555
H2B C121B 1_555 1_555
H3B C121B 1_555 1_555
C122B C121B 1_555 1_555
H4B C122B 1_555 1_555
H5B C122B 1_555 1_555
C123B C122B 1_555 1_555
H6B C123B 1_555 1_555
H7B C123B 1_555 1_555
C124B C140 1_555 1_555
C125B H8B 1_555 1_555
H9B C125B 1_555 1_555
C126B H10B 1_555 1_555
C127B C123B 1_555 1_555
H11B C127B 1_555 1_555
H12B C127B 1_555 1_555
C128B C132 1_555 1_555
C129B C126B 1_555 1_555
H13B C129B 1_555 1_555
C130B C125B 1_555 1_555
H14B C130B 1_555 1_555
H15B C130B 1_555 1_555
H16B C130B 1_555 1_555
C131B C137B 1_555 1_555
C132B C128 1_555 1_555
C133B C125B 1_555 1_555
H17B C133B 1_555 1_555
H18B C133B 1_555 1_555
C134B C133B 1_555 1_555
H19B C134B 1_555 1_555
H20B C134B 1_555 1_555
C135B C129B 1_555 1_555
H21B C135B 1_555 1_555
C136B C142 1_555 1_555
C137B C139B 1_555 1_555
C138B C128B 1_555 1_555
C139B C126B 1_555 1_555
H22B C139B 1_555 1_555
C140B C124 1_555 1_555
H23B C140B 1_555 1_555
C141B C134B 1_555 1_555
C142B C136 1_555 1_555
C143B C141B 1_555 1_555
H24B C143B 1_555 1_555
C144B C138B 1_555 1_555
C145B C132B 1_555 1_555
C146B C131B 1_555 1_555
C147B C131B 1_555 1_555
C148B C135B 1_555 1_555
S1B C124B 1_555 1_555
S2B C141B 1_555 1_555
C9 C10 1_555 1_555
C11 C12 1_555 1_555
C14 C15 1_555 1_555
C16 C20 1_555 1_555
C19 C20 1_555 1_555
C21 C22 1_555 1_555
C24 C25 1_555 1_555
C32 C33 1_555 1_555
C34 C35 1_555 1_555
C36 C37 1_555 1_555
C38 C39 1_555 1_555
C39 C40 1_555 1_555
C41 C42 1_555 1_555
C41 C45 1_555 1_555
C42 C43 1_555 1_555
C44 C45 1_555 1_555
C46 C47 1_555 1_555
C47 C48 1_555 1_555
C48 C49 1_555 1_555
C49 C50 1_555 1_555
C51 C52 1_555 1_555
C51 C55 1_555 1_555
C52 C53 1_555 1_555
C53 C54 1_555 1_555
C54 C55 1_555 1_555
C56 C57 1_555 1_555
C56 C60 1_555 1_555
C57 C58 1_555 1_555
C58 C59 1_555 1_555
C59 C60 1_555 1_555
C69 C70 1_555 1_555
C71 C72 1_555 1_555
C74 C75 1_555 1_555
C76 C80 1_555 1_555
C79 C80 1_555 1_555
C81 C82 1_555 1_555
C84 C85 1_555 1_555
C92 C93 1_555 1_555
C94 C95 1_555 1_555
C96 C97 1_555 1_555
C98 C99 1_555 1_555
C99 C100 1_555 1_555
C101 C102 1_555 1_555
C101 C105 1_555 1_555
C102 C103 1_555 1_555
C104 C105 1_555 1_555
C106 C107 1_555 1_555
C107 C108 1_555 1_555
C108 C109 1_555 1_555
C109 C110 1_555 1_555
C111 C112 1_555 1_555
C111 C115 1_555 1_555
C112 C113 1_555 1_555
C113 C114 1_555 1_555
C114 C115 1_555 1_555
C116 C117 1_555 1_555
C116 C120 1_555 1_555
C117 C118 1_555 1_555
C118 C119 1_555 1_555
C119 C120 1_555 1_555
C128 S1 1_555 1_555
C136 C146 1_555 1_555
C137 C148 1_555 1_555
C143 C147 1_555 1_555
C144 C147 1_555 1_555
C144 S2 1_555 1_555
C145 C148 1_555 1_555
C150 C152 1_555 1_555
C151 C155 1_555 1_555
C153 C154 1_555 1_555
C153 C155 1_555 1_555
C124B C127B 1_555 1_555
C128B S1B 1_555 1_555
C132B C140B 1_555 1_555
C136B C145B 1_555 1_555
C136B C146B 1_555 1_555
C137B C148B 1_555 1_555
C138B C142B 1_555 1_555
C142B C146B 1_555 1_555
C143B C147B 1_555 1_555
C144B C147B 1_555 1_555
C144B S2B 1_555 1_555
C145B C148B 1_555 1_555

#END
