
#######################################################################
#
#                 Cambridge Crystallographic Data Centre
#                                CCDC 
#
#######################################################################
#
# If this CIF has been generated from an entry in the Cambridge 
# Structural Database, then it will include bibliographic, chemical, 
# crystal, experimental, refinement or atomic coordinate data resulting 
# from the CCDC's data processing and validation procedures.
#
#######################################################################

data_UVOYUA
_chemical_formula_moiety         'C20 H21 Cl1 N2 O3'
_chemical_name_systematic        
'(4S,5S)-Ethyl 2-(4-chlorophenyl)-3,3-dicyano-4-hydroxy-5-isopropylcyclohex-1-ene-1-carboxylate'
_symmetry_cell_setting           monoclinic
_symmetry_space_group_name_H-M   'P 21'
_symmetry_Int_Tables_number      4
_space_group_name_Hall           'P 2yb'
loop_
_symmetry_equiv_pos_site_id
_symmetry_equiv_pos_as_xyz
1 x,y,z
2 -x,1/2+y,-z
_cell_length_a                   9.287(10)
_cell_length_b                   8.203(8)
_cell_length_c                   12.942(13)
_cell_angle_alpha                90
_cell_angle_beta                 94.293(12)
_cell_angle_gamma                90
_cell_volume                     983.172
_exptl_crystal_colour            colorless
_exptl_crystal_description       block
_cell_formula_units_Z            2
loop_
_atom_site_label
_atom_site_type_symbol
_atom_site_fract_x
_atom_site_fract_y
_atom_site_fract_z
C1 C 0.8860(8) -0.0680(9) 0.7075(5)
H1 H 0.8505 -0.0912 0.6400
C2 C 1.0135(7) -0.1384(10) 0.7475(6)
H2 H 1.0630 -0.2106 0.7075
C3 C 1.0669(7) -0.1009(10) 0.8467(5)
C4 C 0.9940(8) -0.0023(12) 0.9058(6)
H3 H 1.0296 0.0182 0.9737
C5 C 0.8657(7) 0.0702(10) 0.8678(5)
H4 H 0.8168 0.1406 0.9093
C6 C 0.8114(6) 0.0364(8) 0.7675(5)
C7 C 0.6689(7) 0.1029(8) 0.7253(4)
C8 C 0.6679(6) 0.2700(7) 0.6717(4)
C9 C 0.5141(6) 0.3440(7) 0.6592(4)
H5 H 0.4844 0.3765 0.7273
C10 C 0.4064(6) 0.2205(7) 0.6105(4)
H6 H 0.4440 0.1855 0.5453
C11 C 0.4026(6) 0.0696(7) 0.6787(4)
H7 H 0.3384 0.0902 0.7331
H8 H 0.3626 -0.0203 0.6372
C12 C 0.5475(6) 0.0200(7) 0.7277(4)
C13 C 0.2567(6) 0.2943(9) 0.5824(4)
H9 H 0.2710 0.3851 0.5350
C14 C 0.1844(8) 0.3638(12) 0.6722(6)
H10 H 0.1602 0.2771 0.7176
H11 H 0.0980 0.4199 0.6472
H12 H 0.2487 0.4387 0.7092
C15 C 0.1575(7) 0.1734(9) 0.5231(5)
H13 H 0.2032 0.1342 0.4639
H14 H 0.0684 0.2263 0.5007
H15 H 0.1382 0.0834 0.5675
C16 C 0.5487(6) -0.1431(9) 0.7809(5)
C17 C 0.5985(8) -0.2820(10) 0.9379(5)
H16 H 0.5103 -0.3454 0.9291
H17 H 0.6764 -0.3459 0.9126
C18 C 0.6302(14) -0.2434(15) 1.0455(7)
H18 H 0.7175 -0.1806 1.0535
H19 H 0.6421 -0.3424 1.0847
H20 H 0.5521 -0.1813 1.0701
C19 C 0.7576(8) 0.3829(9) 0.7343(5)
C20 C 0.7268(6) 0.2497(8) 0.5691(5)
Cl1 Cl 1.2237(2) -0.1934(4) 0.89617(17)
N1 N 0.7683(6) 0.2352(8) 0.4879(4)
N2 N 0.8278(7) 0.4727(9) 0.7840(5)
O1 O 0.5201(6) -0.2688(6) 0.7364(3)
O2 O 0.5820(4) -0.1312(5) 0.8806(3)
O3 O 0.5198(6) 0.4821(6) 0.5958(3)
H21 H 0.5310 0.5637 0.6321
loop_
_geom_bond_atom_site_label_1
_geom_bond_atom_site_label_2
_geom_bond_site_symmetry_1
_geom_bond_site_symmetry_2
C1 H1 1_555 1_555
C2 C1 1_555 1_555
H2 C2 1_555 1_555
C3 C2 1_555 1_555
C4 C3 1_555 1_555
H3 C4 1_555 1_555
C5 C4 1_555 1_555
H4 C5 1_555 1_555
C6 C1 1_555 1_555
C7 C6 1_555 1_555
C8 C7 1_555 1_555
C9 C8 1_555 1_555
H5 C9 1_555 1_555
C10 C9 1_555 1_555
H6 C10 1_555 1_555
C11 C10 1_555 1_555
H7 C11 1_555 1_555
H8 C11 1_555 1_555
C12 C7 1_555 1_555
C13 C10 1_555 1_555
H9 C13 1_555 1_555
C14 C13 1_555 1_555
H10 C14 1_555 1_555
H11 C14 1_555 1_555
H12 C14 1_555 1_555
C15 C13 1_555 1_555
H13 C15 1_555 1_555
H14 C15 1_555 1_555
H15 C15 1_555 1_555
C16 C12 1_555 1_555
C17 H16 1_555 1_555
H17 C17 1_555 1_555
C18 C17 1_555 1_555
H18 C18 1_555 1_555
H19 C18 1_555 1_555
H20 C18 1_555 1_555
C19 C8 1_555 1_555
C20 C8 1_555 1_555
Cl1 C3 1_555 1_555
N1 C20 1_555 1_555
N2 C19 1_555 1_555
O1 C16 1_555 1_555
O2 C16 1_555 1_555
O3 C9 1_555 1_555
H21 O3 1_555 1_555
C5 C6 1_555 1_555
C11 C12 1_555 1_555
C17 O2 1_555 1_555

#END
