
#######################################################################
#
#                 Cambridge Crystallographic Data Centre
#                                CCDC 
#
#######################################################################
#
# If this CIF has been generated from an entry in the Cambridge 
# Structural Database, then it will include bibliographic, chemical, 
# crystal, experimental, refinement or atomic coordinate data resulting 
# from the CCDC's data processing and validation procedures.
#
#######################################################################

data_UVUBIX
_chemical_formula_moiety         'C22 H24 O2 S2'
_chemical_name_systematic        
(4S,5R)-(+)-cis-5-Ethyl-4-(methylsulfanyl)-5-phenyl-2-(1-phenylpropylidene)-1,3-oxathian-6-one
_symmetry_cell_setting           orthorhombic
_symmetry_space_group_name_H-M   'P 21 21 21'
_symmetry_Int_Tables_number      19
_space_group_name_Hall           'P 2ac 2ab'
loop_
_symmetry_equiv_pos_site_id
_symmetry_equiv_pos_as_xyz
1 x,y,z
2 1/2-x,-y,1/2+z
3 -x,1/2+y,1/2-z
4 1/2+x,1/2-y,-z
_cell_length_a                   7.3273(14)
_cell_length_b                   13.832(3)
_cell_length_c                   19.424(4)
_cell_angle_alpha                90
_cell_angle_beta                 90
_cell_angle_gamma                90
_cell_volume                     1968.65
_exptl_crystal_colour            colorless
_exptl_crystal_description       block
_cell_formula_units_Z            4
loop_
_atom_site_label
_atom_site_type_symbol
_atom_site_fract_x
_atom_site_fract_y
_atom_site_fract_z
S1 S 0.00359(6) 0.21971(3) 0.90483(2)
S2 S 0.13619(6) 0.41132(3) 0.85448(2)
O1 O 0.28881(15) 0.10750(8) 0.93803(6)
O2 O 0.57360(16) 0.15568(9) 0.93516(6)
C1 C 0.3647(2) 0.24425(11) 0.86073(8)
C2 C 0.2042(2) 0.29831(11) 0.89586(8)
H1 H 0.2453 0.3151 0.9435
C3 C 0.1177(2) 0.10750(12) 0.90477(8)
C4 C 0.4222(2) 0.16669(11) 0.91310(8)
C5 C 0.3198(2) 0.19487(11) 0.79188(8)
C6 C 0.4315(2) 0.11930(12) 0.76978(8)
H2 H 0.5262 0.0966 0.7990
C7 C 0.4066(2) 0.07683(12) 0.70589(9)
H3 H 0.4848 0.0260 0.6914
C8 C 0.2674(3) 0.10868(13) 0.66315(9)
H4 H 0.2490 0.0793 0.6195
C9 C 0.1557(3) 0.18330(13) 0.68442(9)
H5 H 0.0607 0.2055 0.6551
C10 C 0.1812(2) 0.22613(13) 0.74843(9)
H6 H 0.1031 0.2772 0.7626
C11 C 0.5307(2) 0.31142(12) 0.84754(8)
H7 H 0.6347 0.2708 0.8327
H8 H 0.5001 0.3549 0.8087
C12 C 0.5933(2) 0.37339(12) 0.90783(9)
H9 H 0.7102 0.4040 0.8965
H10 H 0.6082 0.3326 0.9487
H11 H 0.5019 0.4235 0.9171
C13 C 0.1161(3) 0.48968(12) 0.92822(10)
H12 H 0.0963 0.5563 0.9127
H13 H 0.2285 0.4865 0.9555
H14 H 0.0127 0.4689 0.9566
C14 C 0.0550(2) 0.02425(12) 0.87981(8)
C15 C 0.1581(2) -0.06756(11) 0.89067(8)
C16 C 0.2210(3) -0.12112(13) 0.83507(10)
H15 H 0.1997 -0.0987 0.7895
C17 C 0.3145(3) -0.20711(14) 0.84537(11)
H16 H 0.3582 -0.2426 0.8069
C18 C 0.3445(3) -0.24127(14) 0.91086(11)
H17 H 0.4085 -0.3002 0.9177
C19 C 0.2811(3) -0.18929(15) 0.96662(11)
H18 H 0.3002 -0.2128 1.0120
C20 C 0.1896(3) -0.10290(14) 0.95646(10)
H19 H 0.1476 -0.0672 0.9951
C21 C -0.1206(2) 0.01700(13) 0.83987(9)
H20 H -0.0929 -0.0054 0.7926
H21 H -0.1758 0.0822 0.8364
C22 C -0.2590(3) -0.05158(14) 0.87213(13)
H22 H -0.3661 -0.0567 0.8421
H23 H -0.2962 -0.0266 0.9172
H24 H -0.2037 -0.1156 0.8778
loop_
_geom_bond_atom_site_label_1
_geom_bond_atom_site_label_2
_geom_bond_site_symmetry_1
_geom_bond_site_symmetry_2
S1 C2 1_555 1_555
S2 C2 1_555 1_555
O1 C3 1_555 1_555
O2 C4 1_555 1_555
C1 C2 1_555 1_555
C2 H1 1_555 1_555
C3 S1 1_555 1_555
C4 O1 1_555 1_555
C5 C1 1_555 1_555
C6 C5 1_555 1_555
H2 C6 1_555 1_555
C7 C6 1_555 1_555
H3 C7 1_555 1_555
C8 C7 1_555 1_555
H4 C8 1_555 1_555
C9 C8 1_555 1_555
H5 C9 1_555 1_555
C10 C5 1_555 1_555
H6 C10 1_555 1_555
C11 C1 1_555 1_555
H7 C11 1_555 1_555
H8 C11 1_555 1_555
C12 C11 1_555 1_555
H9 C12 1_555 1_555
H10 C12 1_555 1_555
H11 C12 1_555 1_555
C13 S2 1_555 1_555
H12 C13 1_555 1_555
H13 C13 1_555 1_555
H14 C13 1_555 1_555
C14 C3 1_555 1_555
C15 C14 1_555 1_555
C16 C15 1_555 1_555
H15 C16 1_555 1_555
C17 C16 1_555 1_555
H16 C17 1_555 1_555
C18 C17 1_555 1_555
H17 C18 1_555 1_555
C19 C18 1_555 1_555
H18 C19 1_555 1_555
C20 C15 1_555 1_555
H19 C20 1_555 1_555
C21 C14 1_555 1_555
H20 C21 1_555 1_555
H21 C21 1_555 1_555
C22 C21 1_555 1_555
H22 C22 1_555 1_555
H23 C22 1_555 1_555
H24 C22 1_555 1_555
C1 C4 1_555 1_555
C9 C10 1_555 1_555
C19 C20 1_555 1_555

#END
