
#######################################################################
#
#                 Cambridge Crystallographic Data Centre
#                                CCDC 
#
#######################################################################
#
# If this CIF has been generated from an entry in the Cambridge 
# Structural Database, then it will include bibliographic, chemical, 
# crystal, experimental, refinement or atomic coordinate data resulting 
# from the CCDC's data processing and validation procedures.
#
#######################################################################

data_UVUKUS
_chemical_formula_moiety         'C54 H18 F36'
_chemical_name_systematic        
1,2,3,8,8a-pentakis(3,5-bis(trifluoromethyl)phenyl)-5,7-bis(trifluoromethyl)-8,8a-dihydrocyclopenta[a]indene
_symmetry_cell_setting           monoclinic
_symmetry_space_group_name_H-M   'P 21/n'
_symmetry_Int_Tables_number      14
_space_group_name_Hall           '-P 2yn'
loop_
_symmetry_equiv_pos_site_id
_symmetry_equiv_pos_as_xyz
1 x,y,z
2 1/2-x,1/2+y,1/2-z
3 -x,-y,-z
4 1/2+x,1/2-y,1/2+z
_cell_length_a                   13.5723(5)
_cell_length_b                   25.0822(8)
_cell_length_c                   15.7767(4)
_cell_angle_alpha                90
_cell_angle_beta                 104.9710(10)
_cell_angle_gamma                90
_cell_volume                     5188.45
_exptl_crystal_colour            colorless
_cell_formula_units_Z            4
_exptl_crystal_recrystallization_method dichloromethane/methanol
loop_
_atom_site_label
_atom_site_type_symbol
_atom_site_fract_x
_atom_site_fract_y
_atom_site_fract_z
F1 F -0.15787(15) 0.98908(8) -0.01905(11)
F2 F 0.43142(15) 0.91978(8) 0.69353(11)
F3 F -0.26890(12) 0.94853(10) 0.03093(11)
F4 F 0.42355(16) 0.83596(8) 0.71789(12)
F5 F 0.35765(16) 0.89133(8) 0.79042(10)
F6 F -0.00380(17) 0.85150(9) 0.70083(12)
F7 F -0.06966(13) 0.82710(7) 0.56866(11)
F8 F -0.06556(17) 0.90974(7) 0.60102(17)
F9 F -0.26088(15) 0.73937(8) 0.26427(18)
F10 F -0.25023(15) 0.82454(9) 0.2678(2)
F11 F 0.53274(18) 0.77396(8) 0.31442(15)
F12 F 0.39400(17) 0.75045(7) 0.2240(2)
F13 F 0.52554(15) 0.77023(7) 0.17762(14)
F14 F 0.60277(14) 0.98212(8) 0.19191(15)
F15 F 0.46307(13) 1.01715(7) 0.12220(12)
F16 F 0.5286(2) 0.95369(8) 0.06430(15)
F17 F -0.01469(18) 0.69665(8) 0.05125(18)
F18 F -0.13591(14) 0.74601(8) 0.06867(12)
F19 F -0.1099(2) 0.73878(12) -0.05880(13)
F20 F 0.1833(2) 0.84058(8) -0.11880(13)
F21 F 0.23940(16) 0.90721(10) -0.03674(12)
F22 F 0.09154(16) 0.90951(8) -0.12351(13)
F23 F 0.13286(12) 1.09360(6) 0.19309(10)
F24 F 0.25024(16) 1.15032(6) 0.24985(11)
F25 F 0.28359(13) 1.08334(7) 0.17650(10)
F26 F 0.4290(2) 1.04834(9) 0.61958(11)
F27 F 0.37387(17) 1.12503(11) 0.57174(16)
F28 F 0.50560(13) 1.09353(8) 0.54349(11)
F29 F -0.22718(12) 0.99576(8) 0.34113(11)
F30 F -0.14875(16) 0.92309(7) 0.38428(12)
F31 F -0.07982(13) 0.99796(8) 0.42963(10)
F32 F -0.14217(16) 0.90619(8) 0.00783(12)
F33 F -0.2533(2) 0.78040(15) 0.3828(2)
C1 C -0.17057(19) 0.95165(11) 0.03753(16)
C2 C -0.10798(18) 0.96320(9) 0.12920(15)
C3 C -0.00357(17) 0.97069(9) 0.14210(15)
H1 H 0.0250 0.9704 0.0931
C4 C 0.05922(17) 0.97862(9) 0.22580(15)
C5 C 0.17413(16) 0.97808(9) 0.23643(14)
H2 H 0.1902 0.9888 0.1804
C6 C 0.21592(17) 0.92008(9) 0.26464(14)
C7 C 0.23634(16) 0.92505(9) 0.36331(14)
C8 C 0.18720(17) 0.88589(9) 0.39528(14)
C9 C 0.18378(18) 0.87980(9) 0.48762(15)
C10 C 0.27420(19) 0.88162(9) 0.55414(15)
H3 H 0.3377 0.8851 0.5397
C11 C 0.2716(2) 0.87830(10) 0.64191(16)
C12 C 0.3710(2) 0.88130(12) 0.71121(17)
C13 C -0.15195(18) 0.96448(9) 0.19932(15)
H4 H -0.2232 0.9591 0.1906
C14 C -0.08898(18) 0.97383(9) 0.28298(15)
C15 C 0.01570(17) 0.98097(9) 0.29673(15)
H5 H 0.0573 0.9874 0.3542
C16 C 0.23651(16) 1.01110(9) 0.31298(14)
C17 C 0.27053(17) 0.97930(9) 0.38839(14)
C18 C 0.09146(19) 0.87374(9) 0.51003(15)
H6 H 0.0293 0.8724 0.4653
C19 C 0.0900(2) 0.86962(9) 0.59766(16)
C20 C 0.1801(2) 0.87197(10) 0.66401(16)
H7 H 0.1788 0.8693 0.7238
C21 C -0.0115(2) 0.86427(11) 0.61808(18)
C22 C 0.12773(17) 0.85397(9) 0.32025(14)
C23 C 0.06278(18) 0.80989(9) 0.33682(15)
C24 C -0.04307(19) 0.81472(9) 0.31174(17)
H8 H -0.0740 0.8445 0.2779
C25 C -0.1033(2) 0.77592(11) 0.3364(2)
C26 C -0.0597(3) 0.73216(11) 0.38580(19)
H9 H -0.1013 0.7059 0.4028
C27 C 0.0447(3) 0.72733(10) 0.40976(18)
C28 C 0.1070(2) 0.76595(10) 0.38610(16)
H10 H 0.1791 0.7622 0.4036
C29 C -0.2171(3) 0.78040(13) 0.3108(3)
C30 C 0.14173(17) 0.87320(9) 0.24318(14)
C31 C 0.31603(17) 0.90739(9) 0.24013(14)
C32 C 0.35306(18) 0.85538(9) 0.25170(15)
H11 H 0.3197 0.8297 0.2788
C33 C 0.43800(19) 0.84083(10) 0.22414(17)
C34 C 0.4721(2) 0.78390(11) 0.2339(2)
C35 C 0.49040(18) 0.87791(10) 0.18685(16)
H12 H 0.5489 0.8678 0.1681
C36 C 0.45504(18) 0.93004(10) 0.17774(15)
C37 C 0.36896(17) 0.94497(9) 0.20426(14)
H13 H 0.3462 0.9809 0.1979
C38 C 0.5110(2) 0.97069(11) 0.13786(18)
C39 C 0.10633(17) 0.85158(9) 0.15318(14)
C40 C 0.14192(18) 0.87428(9) 0.08564(14)
H14 H 0.1865 0.9041 0.0981
C41 C 0.11344(19) 0.85417(10) 0.00065(15)
C42 C 0.0451(2) 0.81207(11) -0.02094(16)
H15 H 0.0240 0.7990 -0.0793
C43 C 0.0086(2) 0.78973(11) 0.04537(17)
C44 C 0.03970(19) 0.80818(10) 0.13135(16)
H16 H 0.0154 0.7911 0.1758
C45 C -0.0629(3) 0.74314(13) 0.0263(2)
C46 C 0.1572(2) 0.87789(11) -0.06898(16)
C47 C 0.32616(18) 1.00143(10) 0.46711(15)
H17 H 0.3477 0.9802 0.5184
C48 C 0.34937(18) 1.05553(10) 0.46878(15)
C49 C 0.31823(19) 1.08719(10) 0.39416(16)
H18 H 0.3360 1.1239 0.3967
C50 C 0.26141(17) 1.06529(9) 0.31614(15)
C51 C 0.2314(2) 1.09852(10) 0.23374(16)
C52 C 0.4135(2) 1.08055(11) 0.55163(17)
C53 C -0.13595(18) 0.97280(10) 0.35950(16)
C54 C 0.1076(8) 0.6786(4) 0.4631(9)
F34 F 0.1226(11) 0.6873(5) 0.5492(6)
F35 F 0.1976(4) 0.66980(14) 0.4504(3)
F36 F 0.0597(4) 0.63332(16) 0.4357(4)
C55? C 0.0763(11) 0.6818(6) 0.4618(12)
F37? F 0.1449(15) 0.6954(7) 0.5336(8)
F38? F 0.1090(6) 0.6459(2) 0.4158(4)
F39? F 0.0098(5) 0.6534(2) 0.4906(5)
loop_
_geom_bond_atom_site_label_1
_geom_bond_atom_site_label_2
_geom_bond_site_symmetry_1
_geom_bond_site_symmetry_2
F1 C1 1_555 1_555
F2 C12 1_555 1_555
F3 C1 1_555 1_555
F4 C12 1_555 1_555
F5 C12 1_555 1_555
F6 C21 1_555 1_555
F7 C21 1_555 1_555
F8 C21 1_555 1_555
F9 C29 1_555 1_555
F10 C29 1_555 1_555
F11 C34 1_555 1_555
F12 C34 1_555 1_555
F13 C34 1_555 1_555
F14 C38 1_555 1_555
F15 C38 1_555 1_555
F16 C38 1_555 1_555
F17 C45 1_555 1_555
F18 C45 1_555 1_555
F19 C45 1_555 1_555
F20 C46 1_555 1_555
F21 C46 1_555 1_555
F22 C46 1_555 1_555
F23 C51 1_555 1_555
F24 C51 1_555 1_555
F25 C51 1_555 1_555
F26 C52 1_555 1_555
F27 C52 1_555 1_555
F28 C52 1_555 1_555
F29 C53 1_555 1_555
F30 C53 1_555 1_555
F31 C53 1_555 1_555
F32 C1 1_555 1_555
F33 C29 1_555 1_555
C1 C2 1_555 1_555
C2 C3 1_555 1_555
C3 H1 1_555 1_555
C4 C3 1_555 1_555
C5 C4 1_555 1_555
H2 C5 1_555 1_555
C6 C5 1_555 1_555
C7 C6 1_555 1_555
C8 C7 1_555 1_555
C9 C8 1_555 1_555
C10 C9 1_555 1_555
H3 C10 1_555 1_555
C11 C10 1_555 1_555
C12 C11 1_555 1_555
C13 C2 1_555 1_555
H4 C13 1_555 1_555
C14 C13 1_555 1_555
C15 C4 1_555 1_555
H5 C15 1_555 1_555
C16 C5 1_555 1_555
C17 C7 1_555 1_555
C18 C9 1_555 1_555
H6 C18 1_555 1_555
C19 C18 1_555 1_555
C20 C11 1_555 1_555
H7 C20 1_555 1_555
C21 C19 1_555 1_555
C22 C8 1_555 1_555
C23 C22 1_555 1_555
C24 C23 1_555 1_555
H8 C24 1_555 1_555
C25 C24 1_555 1_555
C26 C25 1_555 1_555
H9 C26 1_555 1_555
C27 C26 1_555 1_555
C28 C23 1_555 1_555
H10 C28 1_555 1_555
C29 C25 1_555 1_555
C30 C6 1_555 1_555
C31 C6 1_555 1_555
C32 C31 1_555 1_555
H11 C32 1_555 1_555
C33 C32 1_555 1_555
C34 C33 1_555 1_555
C35 C33 1_555 1_555
H12 C35 1_555 1_555
C36 C35 1_555 1_555
C37 C31 1_555 1_555
H13 C37 1_555 1_555
C38 C36 1_555 1_555
C39 C30 1_555 1_555
C40 C39 1_555 1_555
H14 C40 1_555 1_555
C41 C40 1_555 1_555
C42 C41 1_555 1_555
H15 C42 1_555 1_555
C43 C42 1_555 1_555
C44 C39 1_555 1_555
H16 C44 1_555 1_555
C45 C43 1_555 1_555
C46 C41 1_555 1_555
C47 C17 1_555 1_555
H17 C47 1_555 1_555
C48 C47 1_555 1_555
C49 C48 1_555 1_555
H18 C49 1_555 1_555
C50 C16 1_555 1_555
C51 C50 1_555 1_555
C52 C48 1_555 1_555
C53 C14 1_555 1_555
C54 C27 1_555 1_555
F34 C54 1_555 1_555
F35 C54 1_555 1_555
F36 C54 1_555 1_555
C14 C15 1_555 1_555
C16 C17 1_555 1_555
C19 C20 1_555 1_555
C22 C30 1_555 1_555
C27 C28 1_555 1_555
C36 C37 1_555 1_555
C43 C44 1_555 1_555
C49 C50 1_555 1_555

#END
