
#######################################################################
#
#                 Cambridge Crystallographic Data Centre
#                                CCDC 
#
#######################################################################
#
# If this CIF has been generated from an entry in the Cambridge 
# Structural Database, then it will include bibliographic, chemical, 
# crystal, experimental, refinement or atomic coordinate data resulting 
# from the CCDC's data processing and validation procedures.
#
#######################################################################

data_UVULUU
_chemical_formula_moiety         'C21 H22 N2 O4'
_chemical_name_systematic        
3-(hydroxymethyl)-4-(4-(2-methoxyphenyl)piperazin-1-yl)-2H-chromen-2-one
_chemical_properties_biological  'tested as potential BRAFV600E inhibitor'
_symmetry_cell_setting           monoclinic
_symmetry_space_group_name_H-M   'C 2/c'
_symmetry_Int_Tables_number      15
_space_group_name_Hall           '-C 2yn'
loop_
_symmetry_equiv_pos_site_id
_symmetry_equiv_pos_as_xyz
1 x,y,z
2 -x,y,1/2-z
3 1/2+x,1/2+y,z
4 1/2-x,1/2+y,1/2-z
5 -x,-y,-z
6 x,-y,1/2+z
7 1/2-x,1/2-y,-z
8 1/2+x,1/2-y,1/2+z
_cell_length_a                   27.691(3)
_cell_length_b                   9.9434(9)
_cell_length_c                   14.4652(16)
_cell_angle_alpha                90
_cell_angle_beta                 112.787(3)
_cell_angle_gamma                90
_cell_volume                     3672.03
_exptl_crystal_description       stick
_cell_formula_units_Z            8
loop_
_atom_site_label
_atom_site_type_symbol
_atom_site_fract_x
_atom_site_fract_y
_atom_site_fract_z
C1 C 0.18247(5) 0.34177(14) 0.41176(11)
C2 C 0.06532(6) 0.70537(14) 0.53945(11)
C3 C 0.17905(6) 0.55717(15) 0.49728(12)
H1 H 0.1761 0.6207 0.4445
H2 H 0.2159 0.5456 0.5387
C4 C 0.16952(5) 0.19921(14) 0.41323(11)
C5 C 0.09952(6) 0.43979(16) 0.39447(12)
H3 H 0.0851 0.3517 0.3701
H4 H 0.0933 0.4975 0.3369
C6 C 0.14098(6) 0.14748(16) 0.46674(13)
H5 H 0.1303 0.2047 0.5060
C7 C 0.18763(6) 0.10764(15) 0.36197(12)
C8 C 0.21797(6) 0.37799(15) 0.37174(11)
C9 C 0.23283(6) 0.52012(17) 0.35671(13)
H6 H 0.2474 0.5662 0.4207
H7 H 0.2591 0.5187 0.3279
C10 C 0.01596(6) 0.75447(15) 0.47522(11)
C11 C 0.07258(6) 0.49722(16) 0.45778(13)
H8 H 0.0355 0.5071 0.4177
H9 H 0.0766 0.4364 0.5127
C12 C 0.23955(6) 0.27657(16) 0.32650(12)
C13 C 0.14431(6) -0.07383(17) 0.40368(14)
H10 H 0.1344 -0.1638 0.3982
C14 C 0.15080(6) 0.61150(16) 0.56029(12)
H11 H 0.1548 0.5495 0.6145
H12 H 0.1659 0.6972 0.5893
C15 C -0.01358(6) 0.83111(16) 0.51324(12)
H13 H -0.0464 0.8617 0.4707
C16 C 0.12861(6) 0.01264(17) 0.46187(14)
H14 H 0.1096 -0.0204 0.4978
C17 C 0.05355(7) 0.8190(2) 0.67728(13)
H15 H 0.0666 0.8423 0.7448
C18 C 0.08301(6) 0.73913(17) 0.63999(12)
H16 H 0.1154 0.7076 0.6837
C19 C 0.17436(6) -0.02737(16) 0.35421(13)
H17 H 0.1856 -0.0854 0.3162
C20 C 0.00533(7) 0.86293(18) 0.61426(13)
H18 H -0.0149 0.9145 0.6393
C21 C -0.04964(7) 0.7632(2) 0.30819(14)
H19 H -0.0757 0.7216 0.3271
H20 H -0.0546 0.7358 0.2415
H21 H -0.0528 0.8592 0.3102
O1 O 0.00088(4) 0.72342(13) 0.37587(8)
O2 O 0.22108(4) 0.14748(11) 0.31769(9)
O3 O 0.18717(5) 0.58910(13) 0.29113(10)
H22 H 0.1958 0.6489 0.2615
O4 O 0.27161(5) 0.29665(13) 0.28999(10)
N1 N 0.09525(4) 0.62892(12) 0.49778(9)
N2 N 0.15648(5) 0.42808(12) 0.45301(9)
loop_
_geom_bond_atom_site_label_1
_geom_bond_atom_site_label_2
_geom_bond_site_symmetry_1
_geom_bond_site_symmetry_2
C1 C4 1_555 1_555
C2 C10 1_555 1_555
C3 H1 1_555 1_555
H2 C3 1_555 1_555
C4 C6 1_555 1_555
C5 H3 1_555 1_555
H4 C5 1_555 1_555
C6 H5 1_555 1_555
C7 C4 1_555 1_555
C8 C1 1_555 1_555
C9 C8 1_555 1_555
H6 C9 1_555 1_555
H7 C9 1_555 1_555
C10 C15 1_555 1_555
C11 C5 1_555 1_555
H8 C11 1_555 1_555
H9 C11 1_555 1_555
C12 C8 1_555 1_555
C13 H10 1_555 1_555
C14 C3 1_555 1_555
H11 C14 1_555 1_555
H12 C14 1_555 1_555
C15 H13 1_555 1_555
C16 C6 1_555 1_555
H14 C16 1_555 1_555
C17 H15 1_555 1_555
C18 C2 1_555 1_555
H16 C18 1_555 1_555
C19 C7 1_555 1_555
H17 C19 1_555 1_555
C20 C15 1_555 1_555
H18 C20 1_555 1_555
C21 H19 1_555 1_555
H20 C21 1_555 1_555
H21 C21 1_555 1_555
O1 C10 1_555 1_555
O2 C7 1_555 1_555
O3 C9 1_555 1_555
H22 O3 1_555 1_555
O4 C12 1_555 1_555
N1 C2 1_555 1_555
N2 C1 1_555 1_555
C3 N2 1_555 1_555
C5 N2 1_555 1_555
C11 N1 1_555 1_555
C12 O2 1_555 1_555
C13 C16 1_555 1_555
C13 C19 1_555 1_555
C14 N1 1_555 1_555
C17 C18 1_555 1_555
C17 C20 1_555 1_555
C21 O1 1_555 1_555

#END
