
#######################################################################
#
#                 Cambridge Crystallographic Data Centre
#                                CCDC 
#
#######################################################################
#
# If this CIF has been generated from an entry in the Cambridge 
# Structural Database, then it will include bibliographic, chemical, 
# crystal, experimental, refinement or atomic coordinate data resulting 
# from the CCDC's data processing and validation procedures.
#
#######################################################################

data_UVUREJ
_chemical_formula_moiety         'C22 H17 Br1 O6'
_chemical_name_systematic        
'(4S)-Ethyl 4-(2-bromophenyl)-2-hydroxy-5,10-dioxo-3,4,5,10-tetrahydro-2H-benzo[g]chromene-2-carboxylate'
_symmetry_cell_setting           triclinic
_symmetry_space_group_name_H-M   'P 1'
_symmetry_Int_Tables_number      1
_space_group_name_Hall           'P 1'
loop_
_symmetry_equiv_pos_site_id
_symmetry_equiv_pos_as_xyz
1 x,y,z
_cell_length_a                   7.9684(10)
_cell_length_b                   10.9755(14)
_cell_length_c                   12.0108(15)
_cell_angle_alpha                72.528(2)
_cell_angle_beta                 72.231(2)
_cell_angle_gamma                83.350(2)
_cell_volume                     953.83
_exptl_crystal_colour            yellow
_exptl_crystal_description       block
_cell_formula_units_Z            2
loop_
_atom_site_label
_atom_site_type_symbol
_atom_site_fract_x
_atom_site_fract_y
_atom_site_fract_z
Br1 Br 0.14105(3) 0.32633(2) 0.43454(2)
O1 O 0.8020(2) 0.24785(18) 0.07491(16)
O2 O 0.8805(3) 0.3022(2) 0.21993(18)
H1 H 0.9801 0.2825 0.1788
O3 O 0.2141(2) 0.2639(2) 0.05751(18)
O4 O 0.9087(2) 0.2392(2) -0.15141(18)
O5 O 0.8002(3) 0.01296(19) 0.22764(19)
O6 O 0.6813(2) 0.08592(17) 0.39150(16)
C1 C 0.7510(3) 0.2418(3) 0.2023(2)
C2 C 0.5770(4) 0.3139(3) 0.2378(3)
H3 H 0.5941 0.4062 0.1964
H4 H 0.5417 0.3025 0.3267
C3 C 0.4275(3) 0.2687(2) 0.2043(2)
H5 H 0.3387 0.3409 0.1994
C4 C 0.4989(3) 0.2537(2) 0.0771(2)
C5 C 0.6742(3) 0.2492(2) 0.0232(2)
C6 C 0.7506(3) 0.2493(2) -0.1083(3)
C7 C 0.6243(3) 0.2614(2) -0.1789(2)
C8 C 0.4419(3) 0.2631(2) -0.1222(2)
C9 C 0.3738(3) 0.2594(2) 0.0082(2)
C10 C 0.6876(4) 0.2707(3) -0.3030(2)
H6 H 0.8109 0.2704 -0.3413
C11 C 0.5706(4) 0.2802(3) -0.3704(3)
H7 H 0.6135 0.2867 -0.4549
C12 C 0.3892(4) 0.2802(3) -0.3133(3)
H8 H 0.3090 0.2858 -0.3592
C13 C 0.3255(4) 0.2721(3) -0.1906(2)
H9 H 0.2020 0.2727 -0.1528
C14 C 0.3287(3) 0.1530(3) 0.2981(2)
C15 C 0.1976(3) 0.1644(3) 0.4032(2)
C16 C 0.1049(4) 0.0598(3) 0.4865(3)
H10 H 0.0167 0.0703 0.5571
C17 C 0.1403(4) -0.0595(3) 0.4672(3)
H11 H 0.0776 -0.1314 0.5246
C18 C 0.2687(4) -0.0732(3) 0.3629(3)
H12 H 0.2931 -0.1547 0.3481
C19 C 0.3604(4) 0.0315(3) 0.2809(3)
H13 H 0.4481 0.0204 0.2103
C20 C 0.7478(3) 0.0982(3) 0.2725(2)
C21 C 0.6623(4) -0.0446(3) 0.4709(3)
H14 H 0.7791 -0.0839 0.4756
H15 H 0.6048 -0.0972 0.4397
C22 C 0.5507(5) -0.0359(3) 0.5937(3)
H16 H 0.6073 0.0189 0.6221
H17 H 0.5374 -0.1215 0.6513
H18 H 0.4344 0.0007 0.5881
Br2 Br 0.16069(3) 0.59137(2) 1.15685(2)
O7 O -0.0376(2) 0.56179(18) 0.73552(17)
O8 O -0.2782(2) 0.50904(18) 0.90038(18)
H2 H -0.3520 0.5410 0.8617
O9 O 0.5145(3) 0.63773(19) 0.76509(19)
O10 O 0.1116(3) 0.5773(2) 0.50472(19)
O11 O -0.1496(3) 0.80064(19) 0.72322(18)
O12 O -0.2852(3) 0.75314(19) 0.92414(18)
C23 C -0.1305(3) 0.5836(3) 0.8529(2)
C24 C -0.0184(3) 0.5415(3) 0.9394(2)
H19 H 0.0007 0.4477 0.9578
H20 H -0.0832 0.5614 1.0168
C25 C 0.1603(3) 0.6046(2) 0.8902(2)
H21 H 0.2405 0.5473 0.9345
C26 C 0.2341(4) 0.6080(2) 0.7583(2)
C27 C 0.1344(3) 0.5865(2) 0.6930(2)
C28 C 0.2086(3) 0.5862(3) 0.5621(2)
C29 C 0.4016(4) 0.5985(3) 0.5088(3)
C30 C 0.5067(4) 0.6166(3) 0.5765(3)
C31 C 0.4245(4) 0.6226(3) 0.7035(3)
C32 C 0.4798(4) 0.5908(3) 0.3907(3)
H22 H 0.4095 0.5796 0.3434
C33 C 0.6616(4) 0.5997(3) 0.3421(3)
H23 H 0.7151 0.5941 0.2614
C34 C 0.7654(4) 0.6163(3) 0.4090(3)
H24 H 0.8894 0.6224 0.3744
C35 C 0.6886(4) 0.6241(3) 0.5277(3)
H25 H 0.7598 0.6344 0.5747
C36 C 0.1525(3) 0.7338(3) 0.9150(2)
C37 C 0.1403(4) 0.7421(3) 1.0306(2)
C38 C 0.1132(4) 0.8571(3) 1.0603(3)
H26 H 0.1013 0.8587 1.1410
C39 C 0.1036(4) 0.9699(3) 0.9701(3)
H27 H 0.0828 1.0493 0.9890
C40 C 0.1244(4) 0.9658(3) 0.8528(3)
H28 H 0.1226 1.0429 0.7902
C41 C 0.1477(3) 0.8499(3) 0.8262(3)
H29 H 0.1609 0.8490 0.7452
C42 C -0.1870(3) 0.7272(3) 0.8230(3)
C43 C -0.3627(4) 0.8817(3) 0.9095(3)
H30 H -0.4632 0.8901 0.8753
H31 H -0.2741 0.9454 0.8537
C44 C -0.4235(5) 0.9028(3) 1.0321(3)
H32 H -0.5036 0.8351 1.0881
H33 H -0.4855 0.9859 1.0271
H34 H -0.3216 0.9014 1.0620
loop_
_geom_bond_atom_site_label_1
_geom_bond_atom_site_label_2
_geom_bond_site_symmetry_1
_geom_bond_site_symmetry_2
Br1 C15 1_555 1_555
Br2 C37 1_555 1_555
O1 C1 1_555 1_555
O2 H1 1_555 1_555
O3 C9 1_555 1_555
O4 C6 1_555 1_555
O5 C20 1_555 1_555
O6 C20 1_555 1_555
O7 C23 1_555 1_555
O8 H2 1_555 1_555
O9 C31 1_555 1_555
O10 C28 1_555 1_555
O11 C42 1_555 1_555
O12 C42 1_555 1_555
C1 O2 1_555 1_555
C2 C1 1_555 1_555
H3 C2 1_555 1_555
H4 C2 1_555 1_555
C3 C2 1_555 1_555
H5 C3 1_555 1_555
C4 C3 1_555 1_555
C5 O1 1_555 1_555
C6 C5 1_555 1_555
C7 C6 1_555 1_555
C8 C7 1_555 1_555
C9 C4 1_555 1_555
C10 C7 1_555 1_555
H6 C10 1_555 1_555
C11 C10 1_555 1_555
H7 C11 1_555 1_555
C12 C11 1_555 1_555
H8 C12 1_555 1_555
C13 C8 1_555 1_555
H9 C13 1_555 1_555
C14 C3 1_555 1_555
C15 C14 1_555 1_555
C16 C15 1_555 1_555
H10 C16 1_555 1_555
C17 C16 1_555 1_555
H11 C17 1_555 1_555
C18 C17 1_555 1_555
H12 C18 1_555 1_555
C19 C14 1_555 1_555
H13 C19 1_555 1_555
C20 C1 1_555 1_555
C21 O6 1_555 1_555
H14 C21 1_555 1_555
H15 C21 1_555 1_555
C22 C21 1_555 1_555
H16 C22 1_555 1_555
H17 C22 1_555 1_555
H18 C22 1_555 1_555
C23 O8 1_555 1_555
C24 C23 1_555 1_555
H19 C24 1_555 1_555
H20 C24 1_555 1_555
C25 C24 1_555 1_555
H21 C25 1_555 1_555
C26 C25 1_555 1_555
C27 O7 1_555 1_555
C28 C27 1_555 1_555
C29 C28 1_555 1_555
C30 C29 1_555 1_555
C31 C26 1_555 1_555
C32 C29 1_555 1_555
H22 C32 1_555 1_555
C33 C32 1_555 1_555
H23 C33 1_555 1_555
C34 C33 1_555 1_555
H24 C34 1_555 1_555
C35 C30 1_555 1_555
H25 C35 1_555 1_555
C36 C25 1_555 1_555
C37 C36 1_555 1_555
C38 C37 1_555 1_555
H26 C38 1_555 1_555
C39 C38 1_555 1_555
H27 C39 1_555 1_555
C40 C39 1_555 1_555
H28 C40 1_555 1_555
C41 C36 1_555 1_555
H29 C41 1_555 1_555
C42 C23 1_555 1_555
C43 O12 1_555 1_555
H30 C43 1_555 1_555
H31 C43 1_555 1_555
C44 C43 1_555 1_555
H32 C44 1_555 1_555
H33 C44 1_555 1_555
H34 C44 1_555 1_555
C4 C5 1_555 1_555
C8 C9 1_555 1_555
C12 C13 1_555 1_555
C18 C19 1_555 1_555
C26 C27 1_555 1_555
C30 C31 1_555 1_555
C34 C35 1_555 1_555
C40 C41 1_555 1_555

#END
