
#######################################################################
#
#                 Cambridge Crystallographic Data Centre
#                                CCDC 
#
#######################################################################
#
# If this CIF has been generated from an entry in the Cambridge 
# Structural Database, then it will include bibliographic, chemical, 
# crystal, experimental, refinement or atomic coordinate data resulting 
# from the CCDC's data processing and validation procedures.
#
#######################################################################

data_UVUVIS
_chemical_compound_source        
'purified from the zeistic culture of Talaromyces wortmannii LGT-4'
_chemical_name_common            'Wortmannine B'
_chemical_formula_moiety         'C21 H25 N1 O8'
_chemical_name_systematic        
3,7-dihydroxy-6-(methoxymethyl)-6a,8a-dimethyl-3,3a,6,6a,7,8,8a,10,11,11a-decahydro-1H-as-indaceno[2',3':4,5]pyrano[3,4-c]pyrrole-1,4,9,12(2H)-tetrone
_symmetry_cell_setting           orthorhombic
_symmetry_space_group_name_H-M   'P 21 21 21'
_symmetry_Int_Tables_number      19
_space_group_name_Hall           'P 2ac 2ab'
loop_
_symmetry_equiv_pos_site_id
_symmetry_equiv_pos_as_xyz
1 x,y,z
2 1/2-x,-y,1/2+z
3 1/2+x,1/2-y,-z
4 -x,1/2+y,1/2-z
_cell_length_a                   16.4823(6)
_cell_length_b                   15.2272(5)
_cell_length_c                   9.1338(3)
_cell_angle_alpha                90
_cell_angle_beta                 90
_cell_angle_gamma                90
_cell_volume                     2292.39
_cell_formula_units_Z            4
loop_
_atom_site_label
_atom_site_type_symbol
_atom_site_fract_x
_atom_site_fract_y
_atom_site_fract_z
O1 O -0.23429(15) -0.32155(15) 0.1109(3)
O2 O -0.30553(19) -0.33689(15) 0.4515(3)
H1 H -0.2885 -0.3624 0.5243
O3 O -0.18489(15) -0.15487(18) 0.0395(3)
O4 O -0.14532(16) -0.31907(18) 0.2888(3)
O5 O -0.27190(13) -0.02337(14) 0.2338(3)
O6 O -0.45287(14) -0.12956(19) 0.3404(3)
O7 O -0.53450(15) 0.10399(16) -0.2621(3)
O8 O -0.41019(14) -0.22415(13) -0.2272(2)
H2 H -0.4286 -0.2738 -0.2161
N1 N -0.35491(17) -0.19573(19) 0.4774(3)
H3 H -0.3754 -0.1854 0.5623
C1 C -0.2052(2) -0.2864(2) 0.2356(4)
C2 C -0.25027(18) -0.2138(2) 0.3113(3)
H4 H -0.2118 -0.1664 0.3321
C3 C -0.2834(2) -0.2481(2) 0.4580(4)
H5 H -0.2446 -0.2378 0.5373
C4 C -0.38720(19) -0.1642(2) 0.3544(3)
C5 C -0.32330(16) -0.17437(19) 0.2321(3)
C6 C -0.35537(18) -0.22445(19) 0.0949(3)
C7 C -0.2826(2) -0.2666(2) 0.0130(4)
H6 H -0.3057 -0.3059 -0.0611
C8 C -0.2245(2) -0.2066(3) -0.0661(4)
H7 H -0.1852 -0.2409 -0.1207
H8 H -0.2538 -0.1695 -0.1342
C9 C -0.1282(2) -0.0952(3) -0.0155(5)
H9 H -0.1532 -0.0594 -0.0893
H10 H -0.0834 -0.1267 -0.0576
H11 H -0.1089 -0.0585 0.0625
C10 C -0.31385(16) -0.07917(19) 0.1766(3)
C11 C -0.36983(16) -0.07045(18) 0.0525(3)
C12 C -0.39148(16) -0.15025(18) 0.0045(3)
C13 C -0.4166(2) -0.2973(2) 0.1312(4)
H12 H -0.3921 -0.3387 0.1970
H13 H -0.4323 -0.3268 0.0427
H14 H -0.4636 -0.2720 0.1766
C14 C -0.44736(18) -0.16568(19) -0.1242(3)
H15 H -0.4977 -0.1924 -0.0885
C15 C -0.46824(19) -0.07992(19) -0.2044(3)
H16 H -0.4250 -0.0651 -0.2720
H17 H -0.5177 -0.0877 -0.2604
C16 C -0.47935(17) -0.00615(19) -0.0954(3)
C17 C -0.39879(17) 0.01202(19) -0.0177(4)
H18 H -0.3592 0.0273 -0.0936
C18 C -0.4155(2) 0.0959(2) 0.0706(4)
H19 H -0.3655 0.1258 0.0965
H20 H -0.4461 0.0835 0.1588
C19 C -0.4659(2) 0.1499(2) -0.0402(4)
H21 H -0.5099 0.1801 0.0093
H22 H -0.4321 0.1931 -0.0886
C20 C -0.49875(18) 0.0858(2) -0.1487(4)
C21 C -0.55009(18) -0.0280(2) 0.0137(4)
H23 H -0.5961 -0.0492 -0.0402
H24 H -0.5649 0.0240 0.0665
H25 H -0.5325 -0.0723 0.0814
loop_
_geom_bond_atom_site_label_1
_geom_bond_atom_site_label_2
_geom_bond_site_symmetry_1
_geom_bond_site_symmetry_2
O1 C1 1_555 1_555
O2 H1 1_555 1_555
O3 C8 1_555 1_555
O4 C1 1_555 1_555
O5 C10 1_555 1_555
O6 C4 1_555 1_555
O7 C20 1_555 1_555
O8 H2 1_555 1_555
N1 H3 1_555 1_555
C1 C2 1_555 1_555
C2 H4 1_555 1_555
C3 O2 1_555 1_555
H5 C3 1_555 1_555
C4 N1 1_555 1_555
C5 C2 1_555 1_555
C6 C5 1_555 1_555
C7 O1 1_555 1_555
H6 C7 1_555 1_555
C8 C7 1_555 1_555
H7 C8 1_555 1_555
H8 C8 1_555 1_555
C9 O3 1_555 1_555
H9 C9 1_555 1_555
H10 C9 1_555 1_555
H11 C9 1_555 1_555
C10 C5 1_555 1_555
C11 C10 1_555 1_555
C12 C6 1_555 1_555
C13 C6 1_555 1_555
H12 C13 1_555 1_555
H13 C13 1_555 1_555
H14 C13 1_555 1_555
C14 O8 1_555 1_555
H15 C14 1_555 1_555
C15 C14 1_555 1_555
H16 C15 1_555 1_555
H17 C15 1_555 1_555
C16 C15 1_555 1_555
C17 C11 1_555 1_555
H18 C17 1_555 1_555
C18 C17 1_555 1_555
H19 C18 1_555 1_555
H20 C18 1_555 1_555
C19 C18 1_555 1_555
H21 C19 1_555 1_555
H22 C19 1_555 1_555
C20 C16 1_555 1_555
C21 C16 1_555 1_555
H23 C21 1_555 1_555
H24 C21 1_555 1_555
H25 C21 1_555 1_555
N1 C3 1_555 1_555
C2 C3 1_555 1_555
C4 C5 1_555 1_555
C6 C7 1_555 1_555
C11 C12 1_555 1_555
C12 C14 1_555 1_555
C16 C17 1_555 1_555
C19 C20 1_555 1_555

#END
