
#######################################################################
#
#                 Cambridge Crystallographic Data Centre
#                                CCDC 
#
#######################################################################
#
# If this CIF has been generated from an entry in the Cambridge 
# Structural Database, then it will include bibliographic, chemical, 
# crystal, experimental, refinement or atomic coordinate data resulting 
# from the CCDC's data processing and validation procedures.
#
#######################################################################

data_UWADUS
_chemical_formula_moiety         'C11 H8 F9 N3 O3'
_chemical_name_systematic        
'Methyl 7-oxo-1,3,5-tris(trifluoromethyl)-2,4,9-triazabicyclo[3.3.1]non-2-ene-6-carboxylate'
_symmetry_cell_setting           monoclinic
_symmetry_space_group_name_H-M   'P 21/c'
_symmetry_Int_Tables_number      14
_space_group_name_Hall           '-P 2ybc'
loop_
_symmetry_equiv_pos_site_id
_symmetry_equiv_pos_as_xyz
1 x,y,z
2 -x,1/2+y,1/2-z
3 -x,-y,-z
4 x,1/2-y,1/2+z
_cell_length_a                   20.5341(7)
_cell_length_b                   8.39476(18)
_cell_length_c                   17.3957(6)
_cell_angle_alpha                90
_cell_angle_beta                 103.639(3)
_cell_angle_gamma                90
_cell_volume                     2914.09
_exptl_crystal_colour            colorless
_exptl_crystal_description       plate
_cell_formula_units_Z            8
loop_
_atom_site_label
_atom_site_type_symbol
_atom_site_fract_x
_atom_site_fract_y
_atom_site_fract_z
H1 H 0.9287(8) 0.6081(19) 0.7866(9)
H3 H 0.8373(9) 0.567(2) 0.9187(11)
C12 C 0.84387(7) 0.63476(16) 0.80920(8)
C13 C 0.91445(7) 0.70661(16) 0.93529(9)
C14 C 0.93205(7) 0.82322(16) 0.82183(8)
C15 C 0.88482(7) 0.96492(17) 0.79869(9)
H11 H 0.9034 1.0584 0.8312
H12 H 0.8814 0.9922 0.7425
C16 C 0.81601(8) 0.92774(17) 0.81049(9)
C17 C 0.78863(7) 0.76202(17) 0.78301(9)
H13 H 0.7763 0.7630 0.7239
C18 C 0.82097(8) 0.47372(18) 0.77094(9)
C19 C 0.93025(6) 0.68566(15) 1.02418(9)
C20 C 0.99709(8) 0.85123(17) 0.79652(9)
C21 C 0.72502(7) 0.73147(17) 0.81064(9)
C22 C 0.60695(8) 0.7400(3) 0.77005(12)
H14 H 0.6023 0.6303 0.7873
H15 H 0.5717 0.7625 0.7226
H16 H 0.6029 0.8139 0.8123
F7 F 0.80040(5) 0.48670(11) 0.69285(6)
F8 F 0.77045(5) 0.41326(11) 0.79714(6)
F9 F 0.87035(5) 0.36750(10) 0.78614(6)
F10 F 1.03821(4) 0.72625(10) 0.81379(6)
F11 F 1.02980(5) 0.97824(10) 0.83139(5)
F12 F 0.98649(5) 0.87527(11) 0.71840(5)
N4 N 0.90087(6) 0.68265(15) 0.77924(7)
N5 N 0.86364(6) 0.61473(14) 0.89458(7)
N6 N 0.95007(6) 0.80634(13) 0.90782(7)
O4 O 0.72309(5) 0.68904(13) 0.87587(7)
O5 O 0.67208(5) 0.75957(16) 0.75226(7)
O6 O 0.78302(6) 1.02156(13) 0.83710(7)
F16 F 0.8842(3) 0.7579(11) 1.0527(4)
F17 F 0.9334(5) 0.5375(4) 1.0488(5)
F18 F 0.9867(3) 0.7553(11) 1.0589(6)
H2 H 0.6780(8) 0.5519(19) -0.0397(10)
H4 H 0.5577(10) 0.313(2) -0.0025(12)
C1 C 0.64883(7) 0.33426(17) -0.01136(9)
C2 C 0.63186(8) 0.59198(18) 0.04350(9)
C3 C 0.60515(8) 0.36503(18) 0.10331(9)
C4 C 0.66951(8) 0.3044(2) 0.15908(10)
H5 H 0.6788 0.3669 0.2087
H6 H 0.6639 0.1914 0.1725
C5 C 0.72739(8) 0.31996(18) 0.12010(9)
C6 C 0.71450(7) 0.25579(17) 0.03572(9)
H7 H 0.7074 0.1381 0.0371
C7 C 0.62837(8) 0.27469(18) -0.09694(10)
C8 C 0.63935(7) 0.7708(2) 0.03969(8)
C9 C 0.54538(9) 0.3217(2) 0.13669(11)
C10 C 0.77582(7) 0.28683(17) 0.00405(9)
C11 C 0.87936(8) 0.1813(2) -0.00581(11)
H8 H 0.8710 0.2156 -0.0611
H9 H 0.9033 0.0794 0.0005
H10 H 0.9066 0.2616 0.0282
F1 F 0.56526(5) 0.31378(13) -0.13065(6)
F2 F 0.66560(5) 0.33701(12) -0.14184(6)
F3 F 0.63329(6) 0.11862(11) -0.10084(6)
F4 F 0.54956(5) 0.38743(14) 0.20724(6)
F5 F 0.48822(5) 0.37299(14) 0.08928(7)
F6 F 0.53927(5) 0.16581(13) 0.14503(7)
N1 N 0.59623(7) 0.28591(15) 0.02685(8)
N2 N 0.65403(6) 0.50799(14) -0.01198(7)
N3 N 0.60640(7) 0.53842(15) 0.09855(8)
O1 O 0.78654(5) 0.41029(13) -0.02529(7)
O2 O 0.81592(5) 0.16248(12) 0.01640(7)
O3 O 0.77982(6) 0.38015(15) 0.15201(7)
F13 F 0.5884(4) 0.8374(11) 0.0616(7)
F14 F 0.6346(7) 0.8138(15) -0.0343(3)
F15 F 0.6959(3) 0.8210(12) 0.0867(5)
F19? F 0.8767(3) 0.6879(15) 1.0529(6)
F20? F 0.9579(6) 0.5448(6) 1.0408(6)
F21? F 0.9730(4) 0.7903(12) 1.0629(8)
F22? F 0.6091(6) 0.8557(12) 0.0848(6)
F23? F 0.6237(9) 0.8354(18) -0.0314(4)
F24? F 0.70363(19) 0.8080(14) 0.0620(7)
loop_
_geom_bond_atom_site_label_1
_geom_bond_atom_site_label_2
_geom_bond_site_symmetry_1
_geom_bond_site_symmetry_2
H1 N4 1_555 1_555
H2 N2 1_555 1_555
H3 N5 1_555 1_555
H4 N1 1_555 1_555
C1 C6 1_555 1_555
C2 C8 1_555 1_555
C3 C4 1_555 1_555
C4 H5 1_555 1_555
H6 C4 1_555 1_555
C5 C4 1_555 1_555
C6 C5 1_555 1_555
H7 C6 1_555 1_555
C7 C1 1_555 1_555
C8 F13 1_555 1_555
C9 C3 1_555 1_555
C10 C6 1_555 1_555
C11 H8 1_555 1_555
H9 C11 1_555 1_555
H10 C11 1_555 1_555
C12 C17 1_555 1_555
C13 C19 1_555 1_555
C14 C15 1_555 1_555
C15 H11 1_555 1_555
H12 C15 1_555 1_555
C16 C15 1_555 1_555
C17 C16 1_555 1_555
H13 C17 1_555 1_555
C18 C12 1_555 1_555
C19 F16 1_555 1_555
C20 C14 1_555 1_555
C21 C17 1_555 1_555
C22 H14 1_555 1_555
H15 C22 1_555 1_555
H16 C22 1_555 1_555
F1 C7 1_555 1_555
F2 C7 1_555 1_555
F3 C7 1_555 1_555
F4 C9 1_555 1_555
F5 C9 1_555 1_555
F6 C9 1_555 1_555
F7 C18 1_555 1_555
F8 C18 1_555 1_555
F9 C18 1_555 1_555
F10 C20 1_555 1_555
F11 C20 1_555 1_555
F12 C20 1_555 1_555
N1 C1 1_555 1_555
N2 C1 1_555 1_555
N3 C2 1_555 1_555
N4 C12 1_555 1_555
N5 C12 1_555 1_555
N6 C13 1_555 1_555
O1 C10 1_555 1_555
O2 C10 1_555 1_555
O3 C5 1_555 1_555
O4 C21 1_555 1_555
O5 C21 1_555 1_555
O6 C16 1_555 1_555
F14 C8 1_555 1_555
F15 C8 1_555 1_555
F17 C19 1_555 1_555
F18 C19 1_555 1_555
C2 N2 1_555 1_555
C3 N1 1_555 1_555
C3 N3 1_555 1_555
C11 O2 1_555 1_555
C13 N5 1_555 1_555
C14 N4 1_555 1_555
C14 N6 1_555 1_555
C22 O5 1_555 1_555

#END
