
#######################################################################
#
#                 Cambridge Crystallographic Data Centre
#                                CCDC 
#
#######################################################################
#
# If this CIF has been generated from an entry in the Cambridge 
# Structural Database, then it will include bibliographic, chemical, 
# crystal, experimental, refinement or atomic coordinate data resulting 
# from the CCDC's data processing and validation procedures.
#
#######################################################################

data_UWAFII
_chemical_formula_moiety         'C11 H9 F9 N2 O5'
_chemical_name_systematic        
'Methyl 6,6,6-trifluoro-3-oxo-5,5-bis((trifluoroacetyl)amino)hexanoate'
_symmetry_cell_setting           orthorhombic
_symmetry_space_group_name_H-M   'F d d 2'
_symmetry_Int_Tables_number      43
_space_group_name_Hall           'F 2 -2d'
loop_
_symmetry_equiv_pos_site_id
_symmetry_equiv_pos_as_xyz
1 x,y,z
2 -x,-y,z
3 1/4+x,1/4-y,1/4+z
4 1/4-x,1/4+y,1/4+z
5 x,1/2+y,1/2+z
6 -x,1/2-y,1/2+z
7 1/4+x,3/4-y,3/4+z
8 1/4-x,3/4+y,3/4+z
9 1/2+x,y,1/2+z
10 1/2-x,-y,1/2+z
11 3/4+x,1/4-y,3/4+z
12 3/4-x,1/4+y,3/4+z
13 1/2+x,1/2+y,z
14 1/2-x,1/2-y,z
15 3/4+x,3/4-y,1/4+z
16 3/4-x,3/4+y,1/4+z
_cell_length_a                   14.206(3)
_cell_length_b                   33.868(7)
_cell_length_c                   13.014(3)
_cell_angle_alpha                90
_cell_angle_beta                 90
_cell_angle_gamma                90
_cell_volume                     6261.41
_exptl_crystal_colour            colorless
_exptl_crystal_description       prism
_cell_formula_units_Z            16
loop_
_atom_site_label
_atom_site_type_symbol
_atom_site_fract_x
_atom_site_fract_y
_atom_site_fract_z
C1 C 0.66964(12) 0.45069(5) 0.62282(13)
C2 C 0.88815(15) 0.45124(7) 0.36327(14)
C3 C 0.83820(12) 0.42973(5) 0.45224(13)
C4 C 0.77686(11) 0.44396(4) 0.62817(11)
C5 C 0.84096(14) 0.50801(5) 0.69157(14)
C6 C 0.87574(15) 0.52986(5) 0.78744(17)
C7 C 0.79475(11) 0.40129(4) 0.66209(12)
H1 H 0.7665 0.3975 0.7309
H2 H 0.7615 0.3834 0.6140
C8 C 0.89696(12) 0.38893(5) 0.66697(11)
C9 C 0.91383(13) 0.35125(5) 0.72629(15)
H3 H 0.8961 0.3553 0.7991
H4 H 0.8737 0.3300 0.6980
C10 C 1.01516(12) 0.33910(5) 0.72005(13)
C11 C 1.16428(16) 0.34238(7) 0.79621(18)
H5 H 1.1727 0.3137 0.7987
H6 H 1.1953 0.3544 0.8557
H7 H 1.1922 0.3527 0.7328
F1 F 0.64957(8) 0.48819(3) 0.60045(9)
F2 F 0.63077(7) 0.42820(3) 0.55070(8)
F3 F 0.62802(7) 0.44241(3) 0.71158(8)
F4 F 0.97847(10) 0.45139(6) 0.37885(15)
F5 F 0.86072(11) 0.48786(4) 0.35118(11)
F6 F 0.87351(18) 0.43257(6) 0.27629(12)
F7 F 0.86544(11) 0.50935(4) 0.87321(9)
F8 F 0.96514(10) 0.53909(4) 0.77948(11)
F9 F 0.82845(12) 0.56268(4) 0.80020(13)
N1 N 0.81626(10) 0.45442(4) 0.52856(10)
N2 N 0.81457(9) 0.47047(4) 0.70679(11)
O1 O 0.82667(11) 0.39486(4) 0.44660(10)
O2 O 0.84038(12) 0.52612(4) 0.61132(11)
O3 O 0.95992(8) 0.40662(4) 0.62687(10)
O4 O 1.04779(10) 0.32086(4) 0.64945(10)
O5 O 1.06472(10) 0.35164(4) 0.79831(9)
H8 H 0.8268(13) 0.4784(6) 0.5189(14)
H9 H 0.8135(13) 0.4609(5) 0.7697(16)
loop_
_geom_bond_atom_site_label_1
_geom_bond_atom_site_label_2
_geom_bond_site_symmetry_1
_geom_bond_site_symmetry_2
C1 C4 1_555 1_555
C2 C3 1_555 1_555
C3 N1 1_555 1_555
C4 C7 1_555 1_555
C5 C6 1_555 1_555
C6 F7 1_555 1_555
C7 H1 1_555 1_555
H2 C7 1_555 1_555
C8 C7 1_555 1_555
C9 C8 1_555 1_555
H3 C9 1_555 1_555
H4 C9 1_555 1_555
C10 C9 1_555 1_555
C11 H5 1_555 1_555
H6 C11 1_555 1_555
H7 C11 1_555 1_555
F1 C1 1_555 1_555
F2 C1 1_555 1_555
F3 C1 1_555 1_555
F4 C2 1_555 1_555
F5 C2 1_555 1_555
F6 C2 1_555 1_555
F8 C6 1_555 1_555
F9 C6 1_555 1_555
N1 C4 1_555 1_555
N2 C4 1_555 1_555
O1 C3 1_555 1_555
O2 C5 1_555 1_555
O3 C8 1_555 1_555
O4 C10 1_555 1_555
O5 C10 1_555 1_555
H8 N1 1_555 1_555
H9 N2 1_555 1_555
C5 N2 1_555 1_555
C11 O5 1_555 1_555

#END
