
#######################################################################
#
#                 Cambridge Crystallographic Data Centre
#                                CCDC 
#
#######################################################################
#
# If this CIF has been generated from an entry in the Cambridge 
# Structural Database, then it will include bibliographic, chemical, 
# crystal, experimental, refinement or atomic coordinate data resulting 
# from the CCDC's data processing and validation procedures.
#
#######################################################################

data_UWAFAA
_chemical_formula_moiety         'C14 H13 Cl1 F9 N3 O3'
_chemical_name_systematic        
'Methyl 8-(3-chloropropyl)-7-oxo-1,3,5-tris(trifluoromethyl)-2,4,9-triazabicyclo[3.3.1]non-2-ene-6-carboxylate'
_symmetry_cell_setting           monoclinic
_symmetry_space_group_name_H-M   'P 21/n'
_symmetry_Int_Tables_number      14
_space_group_name_Hall           '-P 2yn'
loop_
_symmetry_equiv_pos_site_id
_symmetry_equiv_pos_as_xyz
1 x,y,z
2 1/2-x,1/2+y,1/2-z
3 -x,-y,-z
4 1/2+x,1/2-y,1/2+z
_cell_length_a                   10.2723(3)
_cell_length_b                   10.5001(4)
_cell_length_c                   17.7270(5)
_cell_angle_alpha                90
_cell_angle_beta                 101.059(2)
_cell_angle_gamma                90
_cell_volume                     1876.53
_exptl_crystal_colour            colorless
_exptl_crystal_description       prism
_cell_formula_units_Z            4
loop_
_atom_site_label
_atom_site_type_symbol
_atom_site_fract_x
_atom_site_fract_y
_atom_site_fract_z
C1 C 0.94784(17) 0.25310(16) 0.24823(10)
C2 C 0.8142(2) 0.30988(19) 0.12488(11)
C3 C 1.03260(18) 0.36824(16) 0.15230(10)
C4 C 1.04358(17) 0.49534(16) 0.19716(10)
H1 H 1.1390 0.5061 0.2218
C5 C 0.96517(17) 0.48967(17) 0.26192(11)
C6 C 0.96588(17) 0.36439(17) 0.30551(10)
H2 H 1.0550 0.3551 0.3396
C7 C 0.9608(2) 0.12451(18) 0.29064(12)
C8 C 0.6792(2) 0.30241(18) 0.07200(12)
C9 C 1.1439(2) 0.3576(2) 0.10568(12)
C10 C 0.86296(18) 0.36907(18) 0.35657(11)
C11 C 0.8341(3) 0.3931(4) 0.48384(15)
H3 H 0.7640 0.4565 0.4684
H4 H 0.8855 0.4151 0.5346
H5 H 0.7941 0.3088 0.4860
C12 C 1.0043(2) 0.61325(17) 0.14620(12)
H6 H 1.0035 0.5901 0.0920
H7 H 0.9132 0.6392 0.1502
C13 C 1.0965(2) 0.72500(18) 0.16773(13)
H8 H 1.0894 0.7562 0.2195
H9 H 1.1893 0.6978 0.1693
C14 C 1.0611(2) 0.82988(19) 0.11009(13)
H10 H 0.9702 0.8600 0.1112
H11 H 1.0616 0.7960 0.0580
Cl1 Cl 1.17400(6) 0.96235(5) 0.12828(4)
F1 F 0.96790(17) 0.02865(12) 0.24317(9)
F2 F 0.85813(13) 0.10257(13) 0.32403(9)
F3 F 1.06858(14) 0.12075(13) 0.34484(8)
F4 F 1.13656(15) 0.44374(14) 0.05088(8)
F5 F 1.13831(18) 0.24431(13) 0.07133(9)
F6 F 1.26319(13) 0.36847(16) 0.15025(9)
N1 N 1.05537(15) 0.26101(14) 0.20654(9)
N2 N 0.82034(16) 0.25656(16) 0.19529(10)
N3 N 0.90736(17) 0.36188(15) 0.09798(9)
O1 O 0.74647(14) 0.35357(19) 0.33468(10)
O2 O 0.92085(15) 0.39149(18) 0.42830(8)
O3 O 0.90921(17) 0.58158(15) 0.28073(10)
H12 H 1.058(2) 0.192(2) 0.1805(13)
H13 H 0.757(3) 0.231(3) 0.2102(15)
F7 F 0.6547(6) 0.4000(5) 0.0229(3)
F8 F 0.6615(6) 0.1882(4) 0.0387(4)
F9 F 0.5826(3) 0.3109(5) 0.1132(2)
F10? F 0.6856(10) 0.3364(13) 0.0003(3)
F11? F 0.6882(7) 0.2417(9) 0.0068(3)
F12? F 0.6480(13) 0.1784(4) 0.0684(7)
F13? F 0.5794(6) 0.2571(9) 0.1022(4)
F14? F 0.5830(8) 0.3540(11) 0.1031(6)
F15? F 0.6441(11) 0.4206(4) 0.0477(5)
loop_
_geom_bond_atom_site_label_1
_geom_bond_atom_site_label_2
_geom_bond_site_symmetry_1
_geom_bond_site_symmetry_2
C1 C6 1_555 1_555
C2 C8 1_555 1_555
C3 C4 1_555 1_555
C4 H1 1_555 1_555
C5 C4 1_555 1_555
C6 C5 1_555 1_555
H2 C6 1_555 1_555
C7 C1 1_555 1_555
C8 F7 1_555 1_555
C9 C3 1_555 1_555
C10 C6 1_555 1_555
C11 H3 1_555 1_555
H4 C11 1_555 1_555
H5 C11 1_555 1_555
C12 C4 1_555 1_555
H6 C12 1_555 1_555
H7 C12 1_555 1_555
C13 C12 1_555 1_555
H8 C13 1_555 1_555
H9 C13 1_555 1_555
C14 C13 1_555 1_555
H10 C14 1_555 1_555
H11 C14 1_555 1_555
Cl1 C14 1_555 1_555
F1 C7 1_555 1_555
F2 C7 1_555 1_555
F3 C7 1_555 1_555
F4 C9 1_555 1_555
F5 C9 1_555 1_555
F6 C9 1_555 1_555
N1 C1 1_555 1_555
N2 C1 1_555 1_555
N3 C2 1_555 1_555
O1 C10 1_555 1_555
O2 C10 1_555 1_555
O3 C5 1_555 1_555
H12 N1 1_555 1_555
H13 N2 1_555 1_555
F8 C8 1_555 1_555
F9 C8 1_555 1_555
C2 N2 1_555 1_555
C3 N1 1_555 1_555
C3 N3 1_555 1_555
C11 O2 1_555 1_555

#END
