
#######################################################################
#
#                 Cambridge Crystallographic Data Centre
#                                CCDC 
#
#######################################################################
#
# If this CIF has been generated from an entry in the Cambridge 
# Structural Database, then it will include bibliographic, chemical, 
# crystal, experimental, refinement or atomic coordinate data resulting 
# from the CCDC's data processing and validation procedures.
#
#######################################################################

data_UWAHUX
_chemical_formula_moiety         'C20 H22 Cl1 N1 O5 Si1'
_chemical_name_systematic        
1-chloro-5-((3-(trimethoxysilyl)propyl)amino)-9,10-anthraquinone
_symmetry_cell_setting           monoclinic
_symmetry_space_group_name_H-M   'P 21/c'
_symmetry_Int_Tables_number      14
_space_group_name_Hall           '-P 2ybc'
loop_
_symmetry_equiv_pos_site_id
_symmetry_equiv_pos_as_xyz
1 x,y,z
2 -x,1/2+y,1/2-z
3 -x,-y,-z
4 x,1/2-y,1/2+z
_cell_length_a                   7.145(5)
_cell_length_b                   35.461(16)
_cell_length_c                   10.506(7)
_cell_angle_alpha                90
_cell_angle_beta                 133.00(11)
_cell_angle_gamma                90
_cell_volume                     1946.79
_exptl_crystal_colour            brown
_exptl_crystal_description       plate
_cell_formula_units_Z            4
loop_
_atom_site_label
_atom_site_type_symbol
_atom_site_fract_x
_atom_site_fract_y
_atom_site_fract_z
Cl1 Cl 0.7661(7) 0.63646(11) 0.6511(5)
Si1 Si 0.3363(8) 0.30406(12) -0.0164(5)
O1 O 1.0456(19) 0.5683(3) 0.7991(11)
O2 O 0.3955(17) 0.4830(3) 0.2178(12)
O3 O 0.3548(18) 0.2585(3) -0.0081(12)
O4 O 0.356(2) 0.3220(3) -0.1488(13)
O5 O 0.057(2) 0.3136(3) -0.0900(15)
N1 N 0.7012(19) 0.4242(3) 0.3800(13)
H1 H 0.5682 0.4341 0.2795
C1 C 0.593(2) 0.6047(4) 0.4794(16)
C2 C 0.374(3) 0.6195(4) 0.3157(19)
H2 H 0.3278 0.6453 0.3037
C3 C 0.233(3) 0.5957(4) 0.1758(18)
H3 H 0.0907 0.6057 0.0646
C4 C 0.286(2) 0.5580(4) 0.1893(16)
H4 H 0.1766 0.5422 0.0900
C5 C 0.501(2) 0.5429(4) 0.3479(15)
C6 C 0.549(2) 0.5023(4) 0.3537(16)
C7 C 0.782(2) 0.4857(4) 0.5137(15)
C8 C 0.849(2) 0.4473(4) 0.5269(15)
C9 C 1.071(3) 0.4320(4) 0.6868(18)
H5 H 1.1170 0.4063 0.6954
C10 C 1.220(2) 0.4555(4) 0.8305(16)
H6 H 1.3681 0.4452 0.9385
C11 C 1.166(3) 0.4930(4) 0.8258(17)
H7 H 1.2734 0.5079 0.9283
C12 C 0.947(2) 0.5089(4) 0.6665(15)
C13 C 0.898(2) 0.5491(4) 0.6657(15)
C14 C 0.659(2) 0.5664(4) 0.4974(15)
C15 C 0.754(3) 0.3856(4) 0.3844(16)
H8 H 0.7403 0.3717 0.4595
H9 H 0.9310 0.3826 0.4341
C16 C 0.563(3) 0.3691(4) 0.1986(19)
H10 H 0.3867 0.3755 0.1437
H11 H 0.5933 0.3809 0.1285
C17 C 0.587(3) 0.3264(4) 0.1968(17)
H12 H 0.5829 0.3151 0.2812
H13 H 0.7555 0.3204 0.2370
C18 C 0.573(3) 0.2387(5) 0.038(2)
H14 H 0.5504 0.2114 0.0378
H15 H 0.7308 0.2466 0.1539
H16 H 0.5853 0.2447 -0.0475
C19 C 0.202(3) 0.3087(5) -0.323(2)
H17 H 0.2422 0.3232 -0.3817
H18 H 0.0211 0.3119 -0.3861
H19 H 0.2387 0.2820 -0.3215
C20 C -0.040(3) 0.2974(5) -0.018(2)
H20 H -0.2132 0.3067 -0.0829
H21 H 0.0720 0.3045 0.1043
H22 H -0.0434 0.2699 -0.0280
loop_
_geom_bond_atom_site_label_1
_geom_bond_atom_site_label_2
_geom_bond_site_symmetry_1
_geom_bond_site_symmetry_2
Cl1 C1 1_555 1_555
Si1 O3 1_555 1_555
O1 C13 1_555 1_555
O2 C6 1_555 1_555
O3 C18 1_555 1_555
O4 Si1 1_555 1_555
O5 Si1 1_555 1_555
N1 H1 1_555 1_555
C1 C2 1_555 1_555
C2 H2 1_555 1_555
C3 C2 1_555 1_555
H3 C3 1_555 1_555
C4 C3 1_555 1_555
H4 C4 1_555 1_555
C5 C4 1_555 1_555
C6 C5 1_555 1_555
C7 C6 1_555 1_555
C8 N1 1_555 1_555
C9 C8 1_555 1_555
H5 C9 1_555 1_555
C10 C9 1_555 1_555
H6 C10 1_555 1_555
C11 C10 1_555 1_555
H7 C11 1_555 1_555
C12 C7 1_555 1_555
C13 C12 1_555 1_555
C14 C1 1_555 1_555
C15 N1 1_555 1_555
H8 C15 1_555 1_555
H9 C15 1_555 1_555
C16 C15 1_555 1_555
H10 C16 1_555 1_555
H11 C16 1_555 1_555
C17 Si1 1_555 1_555
H12 C17 1_555 1_555
H13 C17 1_555 1_555
C18 H14 1_555 1_555
H15 C18 1_555 1_555
H16 C18 1_555 1_555
C19 O4 1_555 1_555
H17 C19 1_555 1_555
H18 C19 1_555 1_555
H19 C19 1_555 1_555
C20 O5 1_555 1_555
H20 C20 1_555 1_555
H21 C20 1_555 1_555
H22 C20 1_555 1_555
C5 C14 1_555 1_555
C7 C8 1_555 1_555
C11 C12 1_555 1_555
C13 C14 1_555 1_555
C16 C17 1_555 1_555

#END
