
#######################################################################
#
#                 Cambridge Crystallographic Data Centre
#                                CCDC 
#
#######################################################################
#
# If this CIF has been generated from an entry in the Cambridge 
# Structural Database, then it will include bibliographic, chemical, 
# crystal, experimental, refinement or atomic coordinate data resulting 
# from the CCDC's data processing and validation procedures.
#
#######################################################################

data_UWAKIO
_chemical_formula_moiety         'C19 H19 Cl1 O2'
_chemical_name_systematic        
4-(but-2-en-2-yl)-2-(2-(4-chlorophenyl)prop-2-en-1-yl)-2-methylcyclopent-4-ene-1,3-dione
_symmetry_cell_setting           triclinic
_symmetry_space_group_name_H-M   'P 1'
_symmetry_Int_Tables_number      1
_space_group_name_Hall           'P 1'
loop_
_symmetry_equiv_pos_site_id
_symmetry_equiv_pos_as_xyz
1 x,y,z
_cell_length_a                   6.5621(3)
_cell_length_b                   7.2190(4)
_cell_length_c                   9.5728(6)
_cell_angle_alpha                71.194(5)
_cell_angle_beta                 76.177(5)
_cell_angle_gamma                72.883(5)
_cell_volume                     405.024
_exptl_crystal_colour            colorless
_exptl_crystal_description       block
_cell_formula_units_Z            1
loop_
_atom_site_label
_atom_site_type_symbol
_atom_site_fract_x
_atom_site_fract_y
_atom_site_fract_z
Cl1 Cl 1.02621(12) 0.88401(11) 0.54181(10)
O1 O 0.8608(3) 0.1191(3) 0.9347(2)
O2 O 0.1644(3) 0.1449(3) 1.2102(2)
C1 C 0.8636(5) 0.7824(4) 0.7042(3)
C2 C 0.6451(5) 0.8211(4) 0.7054(3)
H1 H 0.5839 0.9026 0.6186
C3 C 0.5150(5) 0.7399(4) 0.8348(3)
H2 H 0.3637 0.7694 0.8364
C4 C 0.6017(4) 0.6155(4) 0.9630(3)
C5 C 0.8239(4) 0.5794(4) 0.9577(3)
H3 H 0.8872 0.4960 1.0432
C6 C 0.9542(5) 0.6633(4) 0.8296(3)
H4 H 1.1049 0.6390 0.8281
C7 C 0.4617(4) 0.5262(4) 1.1003(3)
C8 C 0.2627(5) 0.6300(5) 1.1416(4)
C9 C 0.5503(4) 0.3140(4) 1.1910(3)
H5 H 0.4664 0.2939 1.2932
H6 H 0.7015 0.3017 1.1994
C10 C 0.5464(4) 0.1424(4) 1.1282(3)
C11 C 0.6382(5) -0.0621(4) 1.2319(3)
H7 H 0.7868 -0.0698 1.2400
H8 H 0.6374 -0.1699 1.1909
H9 H 0.5494 -0.0775 1.3311
C12 C 0.3155(4) 0.1609(4) 1.1096(3)
C13 C 0.3086(4) 0.2102(4) 0.9493(3)
H10 H 0.1827 0.2268 0.9098
C14 C 0.5017(4) 0.2292(3) 0.8646(3)
C15 C 0.6665(4) 0.1637(3) 0.9681(3)
C16 C 0.5454(4) 0.3002(4) 0.7013(3)
C17 C 0.3621(5) 0.3288(5) 0.6209(3)
H11 H 0.3049 0.2077 0.6578
H12 H 0.4150 0.3523 0.5133
H13 H 0.2474 0.4449 0.6391
C18 C 0.7342(5) 0.3474(4) 0.6332(3)
H14 H 0.8378 0.3215 0.6957
C19 C 0.8004(6) 0.4366(5) 0.4693(3)
H15 H 0.6759 0.4747 0.4177
H16 H 0.9155 0.3371 0.4283
H17 H 0.8532 0.5562 0.4548
H18 H 0.176(6) 0.570(6) 1.229(4)
H19 H 0.195(6) 0.774(6) 1.086(4)
loop_
_geom_bond_atom_site_label_1
_geom_bond_atom_site_label_2
_geom_bond_site_symmetry_1
_geom_bond_site_symmetry_2
Cl1 C1 1_555 1_555
O1 C15 1_555 1_555
O2 C12 1_555 1_555
C1 C2 1_555 1_555
C2 H1 1_555 1_555
C3 C2 1_555 1_555
H2 C3 1_555 1_555
C4 C3 1_555 1_555
C5 C4 1_555 1_555
H3 C5 1_555 1_555
C6 C1 1_555 1_555
H4 C6 1_555 1_555
C7 C4 1_555 1_555
C8 C7 1_555 1_555
C9 C7 1_555 1_555
H5 C9 1_555 1_555
H6 C9 1_555 1_555
C10 C9 1_555 1_555
C11 C10 1_555 1_555
H7 C11 1_555 1_555
H8 C11 1_555 1_555
H9 C11 1_555 1_555
C12 C10 1_555 1_555
C13 C12 1_555 1_555
H10 C13 1_555 1_555
C14 C13 1_555 1_555
C15 C10 1_555 1_555
C16 C14 1_555 1_555
C17 C16 1_555 1_555
H11 C17 1_555 1_555
H12 C17 1_555 1_555
H13 C17 1_555 1_555
C18 C16 1_555 1_555
H14 C18 1_555 1_555
C19 C18 1_555 1_555
H15 C19 1_555 1_555
H16 C19 1_555 1_555
H17 C19 1_555 1_555
H18 C8 1_555 1_555
H19 C8 1_555 1_555
C5 C6 1_555 1_555
C14 C15 1_555 1_555

#END
