
#######################################################################
#
#                 Cambridge Crystallographic Data Centre
#                                CCDC 
#
#######################################################################
#
# If this CIF has been generated from an entry in the Cambridge 
# Structural Database, then it will include bibliographic, chemical, 
# crystal, experimental, refinement or atomic coordinate data resulting 
# from the CCDC's data processing and validation procedures.
#
#######################################################################

data_UWANOX
_chemical_formula_moiety         'C23 H18 Br1 N1 O7,0.25(C6 H14)'
_chemical_name_systematic        
"ethyl 8'-bromo-2'-hydroxy-1-methyl-2,10'-dioxo-1,2,2',3'-tetrahydro-10'H-spiro[indole-3,4'-pyrano[3,2-b]chromene]-2'-carboxylate n-hexane solvate"
_symmetry_cell_setting           monoclinic
_symmetry_space_group_name_H-M   'P 21/c'
_symmetry_Int_Tables_number      14
_space_group_name_Hall           '-P 2ybc'
loop_
_symmetry_equiv_pos_site_id
_symmetry_equiv_pos_as_xyz
1 x,y,z
2 -x,1/2+y,1/2-z
3 -x,-y,-z
4 x,1/2-y,1/2+z
_cell_length_a                   12.7894(8)
_cell_length_b                   17.4413(12)
_cell_length_c                   10.9644(7)
_cell_angle_alpha                90
_cell_angle_beta                 96.421(6)
_cell_angle_gamma                90
_cell_volume                     2430.42
_exptl_crystal_colour            colorless
_exptl_crystal_description       prism
_cell_formula_units_Z            4
loop_
_atom_site_label
_atom_site_type_symbol
_atom_site_fract_x
_atom_site_fract_y
_atom_site_fract_z
Br1 Br 0.06594(5) 0.73673(5) 0.68724(7)
O1 O 0.3136(3) 0.92144(18) 1.0067(3)
O2 O 0.4908(2) 0.72839(15) 0.9827(2)
O3 O 0.5046(3) 0.91342(17) 1.1384(3)
O4 O 0.6776(3) 0.93249(17) 1.0981(3)
H1 H 0.6548 0.9721 1.0646
O5 O 0.6581(4) 1.0337(2) 1.2717(3)
O6 O 0.5864(5) 0.9515(3) 1.3902(4)
O7 O 0.5412(3) 0.6798(2) 1.2688(3)
N1 N 0.6816(4) 0.6416(2) 1.1700(4)
C1 C 0.3939(3) 0.7335(2) 0.9163(3)
C2 C 0.3637(4) 0.6714(3) 0.8397(4)
H2 H 0.4087 0.6299 0.8345
C3 C 0.2667(4) 0.6727(3) 0.7725(4)
H3 H 0.2455 0.6323 0.7203
C4 C 0.1996(4) 0.7354(3) 0.7829(4)
C5 C 0.2290(4) 0.7964(3) 0.8578(4)
H4 H 0.1830 0.8372 0.8641
C6 C 0.3290(3) 0.7968(2) 0.9251(4)
C7 C 0.3669(3) 0.8626(2) 0.9992(4)
C8 C 0.4709(3) 0.8532(2) 1.0649(3)
C9 C 0.5256(3) 0.7878(2) 1.0570(3)
C10 C 0.6269(3) 0.7696(2) 1.1344(4)
C11 C 0.6468(4) 0.8317(2) 1.2335(4)
H5 H 0.6080 0.8190 1.3018
H6 H 0.7211 0.8322 1.2636
C12 C 0.6144(4) 0.9115(2) 1.1868(4)
C13 C 0.6100(4) 0.6925(3) 1.2007(4)
C14 C 0.7185(3) 0.7502(3) 1.0629(4)
C15 C 0.7708(4) 0.7930(3) 0.9853(5)
H7 H 0.7503 0.8431 0.9655
C16 C 0.8563(4) 0.7595(4) 0.9360(5)
H8 H 0.8941 0.7878 0.8840
C17 C 0.8847(4) 0.6845(4) 0.9644(6)
H9 H 0.9418 0.6634 0.9308
C18 C 0.8315(5) 0.6406(4) 1.0403(6)
H10 H 0.8508 0.5900 1.0577
C19 C 0.7473(4) 0.6744(3) 1.0906(5)
C20 C 0.6855(6) 0.5618(3) 1.2129(7)
H11 H 0.6661 0.5282 1.1447
H12 H 0.6374 0.5552 1.2732
H13 H 0.7556 0.5499 1.2486
C21 C 0.6171(4) 0.9674(3) 1.2958(4)
C22 C 0.6680(5) 1.0917(3) 1.3692(5)
H14 H 0.6202 1.0801 1.4294
H15 H 0.6505 1.1419 1.3348
C23 C 0.7784(6) 1.0911(4) 1.4282(6)
H16 H 0.8255 1.0968 1.3666
H17 H 0.7924 1.0434 1.4707
H18 H 0.7885 1.1328 1.4856
C24 C 0.9914(19) 0.4857(14) 1.4645(19)
C25 C 1.0345(18) 0.5084(13) 1.3499(19)
C26 C 1.0160(19) 0.4733(12) 1.227(2)
C24B C 1.0086(19) 0.5143(14) 1.5355(19)
C25B C 0.9655(18) 0.4916(13) 1.6501(19)
C26B C 0.9840(19) 0.5267(12) 1.773(2)
loop_
_geom_bond_atom_site_label_1
_geom_bond_atom_site_label_2
_geom_bond_site_symmetry_1
_geom_bond_site_symmetry_2
Br1 C4 1_555 1_555
O1 C7 1_555 1_555
O2 C1 1_555 1_555
O3 C8 1_555 1_555
O4 H1 1_555 1_555
O5 C21 1_555 1_555
O6 C21 1_555 1_555
O7 C13 1_555 1_555
N1 C13 1_555 1_555
C1 C2 1_555 1_555
C2 H2 1_555 1_555
C3 C2 1_555 1_555
H3 C3 1_555 1_555
C4 C3 1_555 1_555
C5 C4 1_555 1_555
H4 C5 1_555 1_555
C6 C1 1_555 1_555
C7 C6 1_555 1_555
C8 C7 1_555 1_555
C9 O2 1_555 1_555
C10 C9 1_555 1_555
C11 C10 1_555 1_555
H5 C11 1_555 1_555
H6 C11 1_555 1_555
C12 O3 1_555 1_555
C13 C10 1_555 1_555
C14 C10 1_555 1_555
C15 C14 1_555 1_555
H7 C15 1_555 1_555
C16 C15 1_555 1_555
H8 C16 1_555 1_555
C17 C16 1_555 1_555
H9 C17 1_555 1_555
C18 C17 1_555 1_555
H10 C18 1_555 1_555
C19 N1 1_555 1_555
C20 N1 1_555 1_555
H11 C20 1_555 1_555
H12 C20 1_555 1_555
H13 C20 1_555 1_555
C21 C12 1_555 1_555
C22 O5 1_555 1_555
H14 C22 1_555 1_555
H15 C22 1_555 1_555
C23 C22 1_555 1_555
H16 C23 1_555 1_555
H17 C23 1_555 1_555
H18 C23 1_555 1_555
C24 C25 1_555 1_555
C25 C26 1_555 1_555
C24B C24 1_555 1_555
C25B C24B 1_555 1_555
C26B C25B 1_555 1_555
O4 C12 1_555 1_555
C5 C6 1_555 1_555
C8 C9 1_555 1_555
C11 C12 1_555 1_555
C14 C19 1_555 1_555
C18 C19 1_555 1_555

#END
