
#######################################################################
#
#                 Cambridge Crystallographic Data Centre
#                                CCDC 
#
#######################################################################
#
# If this CIF has been generated from an entry in the Cambridge 
# Structural Database, then it will include bibliographic, chemical, 
# crystal, experimental, refinement or atomic coordinate data resulting 
# from the CCDC's data processing and validation procedures.
#
#######################################################################

data_UWAPEO
_chemical_formula_moiety         'C16 H20 N10 O12,2(C3 H6 O1)'
_chemical_name_systematic        
"1,1',1'',1'''-(4-Nitro-10-(2,2,2-trinitroethyl)-2,4,6,8,10,12-hexaazatetracyclo[5.5.0.0^3,11^.0^5,9^]dodecane-2,6,8,12-tetrayl)tetraethanone acetone solvate"
_symmetry_cell_setting           monoclinic
_symmetry_space_group_name_H-M   'P 21/n'
_symmetry_Int_Tables_number      14
_space_group_name_Hall           '-P 2yn'
loop_
_symmetry_equiv_pos_site_id
_symmetry_equiv_pos_as_xyz
1 x,y,z
2 1/2-x,1/2+y,1/2-z
3 -x,-y,-z
4 1/2+x,1/2-y,1/2+z
_cell_length_a                   12.4121(15)
_cell_length_b                   16.309(2)
_cell_length_c                   14.4991(17)
_cell_angle_alpha                90
_cell_angle_beta                 90.096(2)
_cell_angle_gamma                90
_cell_volume                     2935.03
_exptl_crystal_colour            colorless
_exptl_crystal_description       block
_cell_formula_units_Z            4
loop_
_atom_site_label
_atom_site_type_symbol
_atom_site_fract_x
_atom_site_fract_y
_atom_site_fract_z
O1 O 0.84836(9) 0.63515(7) 0.47402(9)
O2 O 0.56229(9) 0.41647(8) 0.63754(9)
O3 O 1.01338(9) 0.50198(8) 0.37067(8)
O4 O 0.78805(10) 0.20147(8) 0.54275(9)
O5 O 0.54986(10) 0.45121(9) 0.23532(9)
O6 O 0.65935(11) 0.36018(9) 0.17904(9)
O7 O 0.38764(9) 0.37476(7) 0.44389(9)
O8 O 0.38610(10) 0.32312(8) 0.30517(9)
O9 O 0.57483(10) 0.20284(9) 0.30017(9)
O10 O 0.42143(11) 0.14307(8) 0.32451(9)
O11 O 0.43935(11) 0.14930(9) 0.53227(10)
O12 O 0.29971(10) 0.21652(9) 0.48193(12)
N1 N 0.75903(10) 0.52254(8) 0.42645(9)
N2 N 0.69676(10) 0.43756(8) 0.53670(9)
N3 N 0.88429(10) 0.40561(9) 0.36573(9)
N4 N 0.82279(10) 0.32267(8) 0.47556(9)
N5 N 0.71215(10) 0.43449(9) 0.30079(9)
N6 N 0.63379(10) 0.33628(8) 0.42229(9)
N7 N 0.63437(11) 0.41285(9) 0.23490(10)
N8 N 0.40898(10) 0.32219(9) 0.38669(10)
N9 N 0.49187(11) 0.19284(8) 0.34219(10)
N10 N 0.39526(12) 0.20145(9) 0.48598(10)
C1 C 0.79731(12) 0.47268(10) 0.50274(11)
H1 H 0.8337 0.5068 0.5509
C2 C 0.87414(12) 0.40202(10) 0.46578(11)
H2 H 0.9461 0.4034 0.4968
C3 C 0.67088(12) 0.48026(10) 0.38100(11)
H3 H 0.6135 0.5198 0.3619
C4 C 0.62803(12) 0.42011(10) 0.45672(11)
H4 H 0.5516 0.4340 0.4718
C5 C 0.78969(12) 0.36902(10) 0.32359(11)
H5 H 0.8095 0.3369 0.2674
C6 C 0.74441(12) 0.31149(10) 0.40089(11)
H6 H 0.7454 0.2533 0.3793
C7 C 0.78522(12) 0.60435(10) 0.41944(12)
C8 C 0.73265(14) 0.65041(11) 0.34196(12)
H7 H 0.7628 0.7059 0.3387
H8 H 0.6549 0.6537 0.3529
H9 H 0.7460 0.6218 0.2837
C9 C 0.65463(13) 0.44085(10) 0.62358(11)
C10 C 0.72518(14) 0.47345(11) 0.69939(12)
H10 H 0.6911 0.4629 0.7592
H11 H 0.7350 0.5326 0.6913
H12 H 0.7954 0.4461 0.6972
C11 C 0.95324(12) 0.45951(10) 0.32380(11)
C12 C 0.95110(14) 0.46241(11) 0.22083(12)
H13 H 0.8876 0.4932 0.2003
H14 H 0.9478 0.4065 0.1963
H15 H 1.0165 0.4895 0.1983
C13 C 0.84300(13) 0.26385(10) 0.54033(12)
C14 C 0.93451(14) 0.27899(12) 0.60585(12)
H16 H 0.9402 0.2330 0.6491
H17 H 0.9213 0.3298 0.6401
H18 H 1.0018 0.2840 0.5711
C15 C 0.57269(13) 0.27606(10) 0.47570(11)
H19 H 0.5523 0.3002 0.5358
H20 H 0.6185 0.2275 0.4878
C16 C 0.47120(12) 0.24939(10) 0.42406(11)
O13 O 0.46814(13) 0.24030(9) 0.72136(14)
C17 C 0.64705(19) 0.23552(18) 0.7747(2)
H21 H 0.6602 0.1983 0.8266
H22 H 0.6956 0.2828 0.7793
H23 H 0.6603 0.2066 0.7166
C18 C 0.53347(16) 0.26423(13) 0.77724(16)
C19 C 0.5028(2) 0.32511(17) 0.8492(2)
H24 H 0.5280 0.3797 0.8308
H25 H 0.5360 0.3099 0.9081
H26 H 0.4243 0.3258 0.8559
O14 O 0.7286(3) 0.07137(15) 0.39261(14)
C20 C 0.66915(19) 0.03040(15) 0.54041(19)
H27 H 0.6841 0.0693 0.5903
H28 H 0.6734 -0.0257 0.5644
H29 H 0.5968 0.0404 0.5158
C21 C 0.7497(2) 0.04124(14) 0.46589(15)
C22 C 0.8610(3) 0.01236(19) 0.4883(2)
H30 H 0.9087 0.0233 0.4360
H31 H 0.8596 -0.0467 0.5009
H32 H 0.8876 0.0415 0.5429
loop_
_geom_bond_atom_site_label_1
_geom_bond_atom_site_label_2
_geom_bond_site_symmetry_1
_geom_bond_site_symmetry_2
O1 C7 1_555 1_555
O2 C9 1_555 1_555
O3 C11 1_555 1_555
O4 C13 1_555 1_555
O5 N7 1_555 1_555
O6 N7 1_555 1_555
O7 N8 1_555 1_555
O8 N8 1_555 1_555
O9 N9 1_555 1_555
O10 N9 1_555 1_555
O11 N10 1_555 1_555
O12 N10 1_555 1_555
O13 C18 1_555 1_555
O14 C21 1_555 1_555
N1 C1 1_555 1_555
N2 C1 1_555 1_555
N3 C2 1_555 1_555
N4 C2 1_555 1_555
N5 N7 1_555 1_555
N6 C4 1_555 1_555
N8 C16 1_555 1_555
N9 C16 1_555 1_555
N10 C16 1_555 1_555
C1 H1 1_555 1_555
C2 C1 1_555 1_555
H2 C2 1_555 1_555
C3 N1 1_555 1_555
H3 C3 1_555 1_555
C4 N2 1_555 1_555
H4 C4 1_555 1_555
C5 N3 1_555 1_555
H5 C5 1_555 1_555
C6 N4 1_555 1_555
H6 C6 1_555 1_555
C7 N1 1_555 1_555
C8 C7 1_555 1_555
H7 C8 1_555 1_555
H8 C8 1_555 1_555
H9 C8 1_555 1_555
C9 N2 1_555 1_555
C10 C9 1_555 1_555
H10 C10 1_555 1_555
H11 C10 1_555 1_555
H12 C10 1_555 1_555
C11 N3 1_555 1_555
C12 C11 1_555 1_555
H13 C12 1_555 1_555
H14 C12 1_555 1_555
H15 C12 1_555 1_555
C13 N4 1_555 1_555
C14 C13 1_555 1_555
H16 C14 1_555 1_555
H17 C14 1_555 1_555
H18 C14 1_555 1_555
C15 N6 1_555 1_555
H19 C15 1_555 1_555
H20 C15 1_555 1_555
C16 C15 1_555 1_555
C17 H21 1_555 1_555
H22 C17 1_555 1_555
H23 C17 1_555 1_555
C18 C17 1_555 1_555
C19 C18 1_555 1_555
H24 C19 1_555 1_555
H25 C19 1_555 1_555
H26 C19 1_555 1_555
C20 H27 1_555 1_555
H28 C20 1_555 1_555
H29 C20 1_555 1_555
C21 C20 1_555 1_555
C22 C21 1_555 1_555
H30 C22 1_555 1_555
H31 C22 1_555 1_555
H32 C22 1_555 1_555
N5 C3 1_555 1_555
N5 C5 1_555 1_555
N6 C6 1_555 1_555
C3 C4 1_555 1_555
C5 C6 1_555 1_555

#END
