
#######################################################################
#
#                 Cambridge Crystallographic Data Centre
#                                CCDC 
#
#######################################################################
#
# If this CIF has been generated from an entry in the Cambridge 
# Structural Database, then it will include bibliographic, chemical, 
# crystal, experimental, refinement or atomic coordinate data resulting 
# from the CCDC's data processing and validation procedures.
#
#######################################################################

data_UWAROB
_chemical_formula_moiety         'C84 H76 Si2,1.5(C4 H8 O1)'
_chemical_name_systematic        
'((3-(diphenylmethylene)penta-1,4-diyne-1,5-diyl)bis(pentacene-13,6-diylethyne-2,1-diyl))bis(triisopropylsilane) tetrahydrofuran solvate'
_symmetry_cell_setting           monoclinic
_symmetry_space_group_name_H-M   'I 2/a'
_symmetry_Int_Tables_number      15
_space_group_name_Hall           '-I 2ya'
loop_
_symmetry_equiv_pos_site_id
_symmetry_equiv_pos_as_xyz
1 x,y,z
2 1/2-x,y,-z
3 1/2+x,1/2+y,1/2+z
4 -x,1/2+y,1/2-z
5 -x,-y,-z
6 1/2+x,-y,z
7 1/2-x,1/2-y,1/2-z
8 x,1/2-y,1/2+z
_cell_length_a                   30.224(5)
_cell_length_b                   15.151(2)
_cell_length_c                   31.687(5)
_cell_angle_alpha                90
_cell_angle_beta                 96.672(2)
_cell_angle_gamma                90
_cell_volume                     14412
_exptl_crystal_colour            green
_exptl_crystal_description       prism
_cell_formula_units_Z            8
loop_
_atom_site_label
_atom_site_type_symbol
_atom_site_fract_x
_atom_site_fract_y
_atom_site_fract_z
Si1 Si 0.46999(4) 0.24042(8) 0.71254(3)
Si2 Si 0.29289(4) 0.01503(7) 0.12514(3)
C1 C 0.44015(12) 0.3514(2) 0.58210(9)
C2 C 0.41093(12) 0.3017(2) 0.55357(9)
C3 C 0.39400(15) 0.2206(3) 0.56472(11)
H1 H 0.4038 0.1968 0.5919
C4 C 0.36382(15) 0.1737(3) 0.53804(12)
C5 C 0.3460(2) 0.0917(3) 0.54956(15)
H2 H 0.3558 0.0669 0.5766
C6 C 0.3155(2) 0.0485(4) 0.52318(16)
H3 H 0.3035 -0.0057 0.5318
C7 C 0.30118(19) 0.0835(3) 0.48234(14)
H4 H 0.2801 0.0518 0.4635
C8 C 0.31688(15) 0.1605(3) 0.47000(12)
H5 H 0.3063 0.1832 0.4427
C9 C 0.34896(13) 0.2090(3) 0.49666(11)
C10 C 0.36610(12) 0.2883(2) 0.48499(10)
H6 H 0.3568 0.3109 0.4574
C11 C 0.39651(11) 0.3368(2) 0.51205(9)
C12 C 0.41294(11) 0.4197(2) 0.50062(9)
C13 C 0.44262(10) 0.4693(2) 0.52916(9)
C14 C 0.45906(11) 0.5506(2) 0.51894(9)
H7 H 0.4511 0.5730 0.4911
C15 C 0.48665(11) 0.6007(2) 0.54745(10)
C16 C 0.50358(12) 0.6840(2) 0.53728(12)
H8 H 0.4969 0.7066 0.5093
C17 C 0.52920(13) 0.7324(3) 0.56683(13)
H9 H 0.5397 0.7888 0.5595
C18 C 0.54028(14) 0.6992(3) 0.60823(13)
H10 H 0.5579 0.7339 0.6287
C19 C 0.52636(13) 0.6198(3) 0.61909(11)
H11 H 0.5348 0.5984 0.6471
C20 C 0.49905(11) 0.5663(2) 0.58967(10)
C21 C 0.48440(11) 0.4848(2) 0.59972(9)
H12 H 0.4937 0.4616 0.6272
C22 C 0.45617(11) 0.4337(2) 0.57113(9)
C23 C 0.45172(12) 0.3174(2) 0.62405(10)
C24 C 0.45984(12) 0.2881(3) 0.65916(11)
C25 C 0.41939(13) 0.1747(3) 0.72088(11)
H13 H 0.3961 0.2189 0.7262
C26 C 0.39920(17) 0.1200(4) 0.68361(16)
H14 H 0.3947 0.1571 0.6581
H15 H 0.4193 0.0712 0.6788
H16 H 0.3705 0.0963 0.6897
C27 C 0.42670(16) 0.1188(3) 0.76093(15)
H17 H 0.4398 0.1554 0.7847
H18 H 0.3981 0.0951 0.7674
H19 H 0.4469 0.0700 0.7565
C28 C 0.52307(19) 0.1795(5) 0.71326(16)
H20 H 0.5439 0.2228 0.7023
C29 C 0.5193(2) 0.1057(5) 0.6806(2)
H21 H 0.5040 0.1277 0.6537
H22 H 0.5491 0.0850 0.6762
H23 H 0.5022 0.0567 0.6908
C30 C 0.54613(19) 0.1524(5) 0.7560(2)
H24 H 0.5474 0.2029 0.7755
H25 H 0.5295 0.1042 0.7675
H26 H 0.5764 0.1325 0.7529
C31 C 0.4733(5) 0.3421(7) 0.7469(3)
H27 H 0.5041 0.3662 0.7476
C32 C 0.4415(5) 0.4152(9) 0.7327(4)
H28 H 0.4445 0.4303 0.7031
H29 H 0.4110 0.3959 0.7350
H30 H 0.4484 0.4671 0.7507
C33 C 0.4644(5) 0.3271(9) 0.7927(3)
H31 H 0.4838 0.2798 0.8053
H32 H 0.4706 0.3816 0.8090
H33 H 0.4332 0.3104 0.7933
C34 C 0.39875(11) 0.4539(2) 0.45957(9)
C35 C 0.38632(11) 0.4831(2) 0.42548(9)
C36 C 0.37249(11) 0.5161(2) 0.38354(9)
C37 C 0.37816(11) 0.6024(2) 0.37382(9)
C38 C 0.39421(12) 0.6681(2) 0.40695(10)
C39 C 0.37256(14) 0.6807(3) 0.44200(11)
H34 H 0.3473 0.6458 0.4461
C40 C 0.38764(17) 0.7448(3) 0.47150(13)
H35 H 0.3725 0.7540 0.4958
C41 C 0.42399(18) 0.7945(3) 0.46587(14)
H36 H 0.4340 0.8384 0.4862
C42 C 0.44607(16) 0.7818(2) 0.43128(13)
H37 H 0.4718 0.8158 0.4277
C43 C 0.43091(13) 0.7191(2) 0.40159(11)
H38 H 0.4459 0.7109 0.3771
C44 C 0.36895(12) 0.6359(2) 0.32983(9)
C45 C 0.38405(15) 0.5928(2) 0.29632(11)
H39 H 0.4008 0.5399 0.3012
C46 C 0.37508(18) 0.6257(3) 0.25537(11)
H40 H 0.3857 0.5951 0.2324
C47 C 0.35127(17) 0.7010(3) 0.24793(12)
H41 H 0.3451 0.7227 0.2197
C48 C 0.33641(14) 0.7451(3) 0.28019(12)
H42 H 0.3196 0.7978 0.2747
C49 C 0.34552(12) 0.7140(2) 0.32175(10)
H43 H 0.3356 0.7463 0.3446
C50 C 0.35344(11) 0.4524(2) 0.35378(9)
C51 C 0.33781(11) 0.3971(2) 0.32946(9)
C52 C 0.32335(10) 0.3329(2) 0.29808(9)
C53 C 0.33171(10) 0.2429(2) 0.30654(9)
C54 C 0.35000(11) 0.2124(2) 0.34674(9)
H44 H 0.3560 0.2537 0.3692
C55 C 0.35942(11) 0.1246(2) 0.35460(10)
C56 C 0.37843(13) 0.0929(2) 0.39525(11)
H45 H 0.3857 0.1337 0.4178
C57 C 0.38607(14) 0.0071(2) 0.40209(13)
H46 H 0.3983 -0.0122 0.4295
C58 C 0.37647(14) -0.0548(3) 0.36968(13)
H47 H 0.3821 -0.1155 0.3753
C59 C 0.35924(12) -0.0291(2) 0.33049(12)
H48 H 0.3534 -0.0719 0.3086
C60 C 0.34972(11) 0.0615(2) 0.32158(10)
C61 C 0.33197(11) 0.0903(2) 0.28172(10)
H49 H 0.3260 0.0482 0.2596
C62 C 0.32251(11) 0.1788(2) 0.27299(9)
C63 C 0.30541(11) 0.2082(2) 0.23188(9)
C64 C 0.29550(10) 0.2974(2) 0.22390(9)
C65 C 0.27838(11) 0.3279(2) 0.18316(9)
H50 H 0.2729 0.2863 0.1607
C66 C 0.26938(11) 0.4147(2) 0.17484(9)
C67 C 0.25256(12) 0.4463(3) 0.13346(10)
H51 H 0.2479 0.4057 0.1105
C68 C 0.24332(14) 0.5314(3) 0.12638(11)
H52 H 0.2321 0.5504 0.0986
C69 C 0.24995(13) 0.5937(3) 0.15962(11)
H53 H 0.2433 0.6542 0.1540
C70 C 0.26561(12) 0.5682(2) 0.19940(11)
H54 H 0.2694 0.6107 0.2216
C71 C 0.27647(11) 0.4785(2) 0.20843(10)
C72 C 0.29387(11) 0.4498(2) 0.24852(9)
H55 H 0.2990 0.4918 0.2708
C73 C 0.30407(10) 0.3615(2) 0.25718(9)
C74 C 0.29990(12) 0.1456(2) 0.19812(10)
C75 C 0.29669(12) 0.0936(2) 0.16904(10)
C76 C 0.25881(12) -0.0803(2) 0.14116(10)
H56 H 0.2280 -0.0568 0.1417
C77 C 0.27344(15) -0.1145(3) 0.18613(12)
H57 H 0.2760 -0.0648 0.2061
H58 H 0.2513 -0.1564 0.1943
H59 H 0.3024 -0.1440 0.1868
C78 C 0.25448(16) -0.1563(3) 0.10933(15)
H60 H 0.2451 -0.1332 0.0808
H61 H 0.2833 -0.1860 0.1096
H62 H 0.2322 -0.1985 0.1172
C79 C 0.35085(19) -0.0113(4) 0.11652(17)
H63 H 0.3652 0.0463 0.1111
C80 C 0.3781(2) -0.0506(5) 0.1539(2)
H64 H 0.3756 -0.0140 0.1790
H65 H 0.3673 -0.1103 0.1589
H66 H 0.4093 -0.0535 0.1485
C81 C 0.3546(2) -0.0687(4) 0.0768(2)
H67 H 0.3366 -0.0425 0.0523
H68 H 0.3858 -0.0715 0.0714
H69 H 0.3438 -0.1284 0.0817
C82 C 0.2748(4) 0.0672(9) 0.0723(3)
H70 H 0.2815 0.0288 0.0482
C83 C 0.2944(12) 0.1584(13) 0.0696(6)
H71 H 0.3267 0.1538 0.0697
H72 H 0.2814 0.1870 0.0432
H73 H 0.2876 0.1935 0.0940
C84 C 0.2256(4) 0.0831(8) 0.0718(3)
H74 H 0.2103 0.0264 0.0735
H75 H 0.2203 0.1198 0.0962
H76 H 0.2142 0.1133 0.0455
C85? C 0.4806(4) 0.3236(8) 0.7556(4)
H77? H 0.4944 0.2942 0.7822
C86? C 0.5114(3) 0.3934(6) 0.7426(3)
H78? H 0.5396 0.3662 0.7371
H79? H 0.4977 0.4226 0.7168
H80? H 0.5171 0.4369 0.7655
C87? C 0.4379(4) 0.3675(7) 0.7638(4)
H81? H 0.4172 0.3229 0.7724
H82? H 0.4440 0.4112 0.7865
H83? H 0.4246 0.3969 0.7379
C88? C 0.2552(5) 0.0773(7) 0.0824(3)
H84? H 0.2320 0.1051 0.0982
C89? C 0.2790(11) 0.1547(13) 0.0651(7)
H85? H 0.2960 0.1863 0.0887
H86? H 0.2994 0.1333 0.0455
H87? H 0.2572 0.1948 0.0501
C90? C 0.2288(3) 0.0278(7) 0.0466(3)
H88? H 0.2135 -0.0222 0.0582
H89? H 0.2068 0.0673 0.0315
H90? H 0.2490 0.0059 0.0269
loop_
_geom_bond_atom_site_label_1
_geom_bond_atom_site_label_2
_geom_bond_site_symmetry_1
_geom_bond_site_symmetry_2
Si1 C24 1_555 1_555
Si2 C75 1_555 1_555
C1 C2 1_555 1_555
C2 C3 1_555 1_555
C3 H1 1_555 1_555
C4 C3 1_555 1_555
C5 C4 1_555 1_555
H2 C5 1_555 1_555
C6 C5 1_555 1_555
H3 C6 1_555 1_555
C7 C6 1_555 1_555
H4 C7 1_555 1_555
C8 C7 1_555 1_555
H5 C8 1_555 1_555
C9 C4 1_555 1_555
C10 C9 1_555 1_555
H6 C10 1_555 1_555
C11 C2 1_555 1_555
C12 C11 1_555 1_555
C13 C12 1_555 1_555
C14 C13 1_555 1_555
H7 C14 1_555 1_555
C15 C14 1_555 1_555
C16 C15 1_555 1_555
H8 C16 1_555 1_555
C17 C16 1_555 1_555
H9 C17 1_555 1_555
C18 C17 1_555 1_555
H10 C18 1_555 1_555
C19 C18 1_555 1_555
H11 C19 1_555 1_555
C20 C15 1_555 1_555
C21 C20 1_555 1_555
H12 C21 1_555 1_555
C22 C1 1_555 1_555
C23 C1 1_555 1_555
C24 C23 1_555 1_555
C25 Si1 1_555 1_555
H13 C25 1_555 1_555
C26 C25 1_555 1_555
H14 C26 1_555 1_555
H15 C26 1_555 1_555
H16 C26 1_555 1_555
C27 C25 1_555 1_555
H17 C27 1_555 1_555
H18 C27 1_555 1_555
H19 C27 1_555 1_555
C28 Si1 1_555 1_555
H20 C28 1_555 1_555
C29 C28 1_555 1_555
H21 C29 1_555 1_555
H22 C29 1_555 1_555
H23 C29 1_555 1_555
C30 C28 1_555 1_555
H24 C30 1_555 1_555
H25 C30 1_555 1_555
H26 C30 1_555 1_555
C31 Si1 1_555 1_555
H27 C31 1_555 1_555
C32 C31 1_555 1_555
H28 C32 1_555 1_555
H29 C32 1_555 1_555
H30 C32 1_555 1_555
C33 C31 1_555 1_555
H31 C33 1_555 1_555
H32 C33 1_555 1_555
H33 C33 1_555 1_555
C34 C12 1_555 1_555
C35 C34 1_555 1_555
C36 C35 1_555 1_555
C37 C36 1_555 1_555
C38 C37 1_555 1_555
C39 C38 1_555 1_555
H34 C39 1_555 1_555
C40 C39 1_555 1_555
H35 C40 1_555 1_555
C41 C40 1_555 1_555
H36 C41 1_555 1_555
C42 C41 1_555 1_555
H37 C42 1_555 1_555
C43 C38 1_555 1_555
H38 C43 1_555 1_555
C44 C37 1_555 1_555
C45 C44 1_555 1_555
H39 C45 1_555 1_555
C46 C45 1_555 1_555
H40 C46 1_555 1_555
C47 C46 1_555 1_555
H41 C47 1_555 1_555
C48 C47 1_555 1_555
H42 C48 1_555 1_555
C49 C44 1_555 1_555
H43 C49 1_555 1_555
C50 C36 1_555 1_555
C51 C50 1_555 1_555
C52 C51 1_555 1_555
C53 C52 1_555 1_555
C54 C53 1_555 1_555
H44 C54 1_555 1_555
C55 C54 1_555 1_555
C56 C55 1_555 1_555
H45 C56 1_555 1_555
C57 C56 1_555 1_555
H46 C57 1_555 1_555
C58 C57 1_555 1_555
H47 C58 1_555 1_555
C59 C58 1_555 1_555
H48 C59 1_555 1_555
C60 C55 1_555 1_555
C61 C60 1_555 1_555
H49 C61 1_555 1_555
C62 C53 1_555 1_555
C63 C62 1_555 1_555
C64 C63 1_555 1_555
C65 C64 1_555 1_555
H50 C65 1_555 1_555
C66 C65 1_555 1_555
C67 C66 1_555 1_555
H51 C67 1_555 1_555
C68 C67 1_555 1_555
H52 C68 1_555 1_555
C69 C68 1_555 1_555
H53 C69 1_555 1_555
C70 C69 1_555 1_555
H54 C70 1_555 1_555
C71 C66 1_555 1_555
C72 C71 1_555 1_555
H55 C72 1_555 1_555
C73 C52 1_555 1_555
C74 C63 1_555 1_555
C75 C74 1_555 1_555
C76 Si2 1_555 1_555
H56 C76 1_555 1_555
C77 C76 1_555 1_555
H57 C77 1_555 1_555
H58 C77 1_555 1_555
H59 C77 1_555 1_555
C78 C76 1_555 1_555
H60 C78 1_555 1_555
H61 C78 1_555 1_555
H62 C78 1_555 1_555
C79 Si2 1_555 1_555
H63 C79 1_555 1_555
C80 C79 1_555 1_555
H64 C80 1_555 1_555
H65 C80 1_555 1_555
H66 C80 1_555 1_555
C81 C79 1_555 1_555
H67 C81 1_555 1_555
H68 C81 1_555 1_555
H69 C81 1_555 1_555
C82 Si2 1_555 1_555
H70 C82 1_555 1_555
C83 C82 1_555 1_555
H71 C83 1_555 1_555
H72 C83 1_555 1_555
H73 C83 1_555 1_555
C84 C82 1_555 1_555
H74 C84 1_555 1_555
H75 C84 1_555 1_555
H76 C84 1_555 1_555
C8 C9 1_555 1_555
C10 C11 1_555 1_555
C13 C22 1_555 1_555
C19 C20 1_555 1_555
C21 C22 1_555 1_555
C42 C43 1_555 1_555
C48 C49 1_555 1_555
C59 C60 1_555 1_555
C61 C62 1_555 1_555
C64 C73 1_555 1_555
C70 C71 1_555 1_555
C72 C73 1_555 1_555

#END
