
#######################################################################
#
#                 Cambridge Crystallographic Data Centre
#                                CCDC 
#
#######################################################################
#
# If this CIF has been generated from an entry in the Cambridge 
# Structural Database, then it will include bibliographic, chemical, 
# crystal, experimental, refinement or atomic coordinate data resulting 
# from the CCDC's data processing and validation procedures.
#
#######################################################################

data_UWATOC
_chemical_formula_moiety         'C13 H12 Br1 N1 O5'
_chemical_name_systematic        
'Ethyl (6-bromo-3-nitro-2H-chromen-2-yl)acetate'
_symmetry_cell_setting           monoclinic
_symmetry_space_group_name_H-M   'P 21'
_symmetry_Int_Tables_number      4
_space_group_name_Hall           'P 2yb'
loop_
_symmetry_equiv_pos_site_id
_symmetry_equiv_pos_as_xyz
1 x,y,z
2 -x,1/2+y,-z
_cell_length_a                   6.4557(8)
_cell_length_b                   5.7920(7)
_cell_length_c                   18.914(2)
_cell_angle_alpha                90
_cell_angle_beta                 92.572(2)
_cell_angle_gamma                90
_cell_volume                     706.509
_exptl_crystal_colour            yellow
_exptl_crystal_description       plate
_cell_formula_units_Z            2
loop_
_atom_site_label
_atom_site_type_symbol
_atom_site_fract_x
_atom_site_fract_y
_atom_site_fract_z
Br1 Br 0.80353(8) 0.46258(15) 0.01916(3)
C1 C 0.6360(8) 0.6328(9) 0.0811(3)
C2 C 0.4599(8) 0.5345(8) 0.1039(3)
H1 H 0.4202 0.3880 0.0883
C3 C 0.3383(8) 0.6558(8) 0.1512(3)
C4 C 0.3997(9) 0.8778(9) 0.1713(3)
C5 C 0.5813(8) 0.9728(13) 0.1481(3)
H2 H 0.6226 1.1195 0.1629
C6 C 0.7015(9) 0.8482(10) 0.1026(3)
H3 H 0.8244 0.9095 0.0869
C7 C 0.1535(8) 0.5639(9) 0.1807(3)
H4 H 0.0971 0.4255 0.1640
C8 C 0.0658(7) 0.6768(9) 0.2314(3)
C9 C 0.1492(8) 0.9024(8) 0.2607(3)
H5 H 0.0319 1.0035 0.2702
C10 C 0.2802(9) 0.8701(10) 0.3296(3)
H6 H 0.2026 0.7814 0.3630
H7 H 0.4054 0.7852 0.3201
C11 C 0.3368(9) 1.1020(11) 0.3613(3)
C12 C 0.5857(12) 1.2996(14) 0.4328(4)
H8 H 0.5869 1.4242 0.3986
H9 H 0.4951 1.3429 0.4701
C13 C 0.7949(12) 1.258(2) 0.4622(5)
H10 H 0.7912 1.1388 0.4975
H11 H 0.8494 1.3969 0.4833
H12 H 0.8820 1.2091 0.4251
N1 N -0.1160(8) 0.5859(11) 0.2644(3)
O1 O 0.2742(6) 1.0130(5) 0.2101(2)
O2 O -0.1882(7) 0.4025(8) 0.2428(3)
O3 O -0.1871(7) 0.6974(10) 0.3116(3)
O4 O 0.2364(7) 1.2755(8) 0.3545(3)
O5 O 0.5123(7) 1.0872(8) 0.3988(2)
loop_
_geom_bond_atom_site_label_1
_geom_bond_atom_site_label_2
_geom_bond_site_symmetry_1
_geom_bond_site_symmetry_2
Br1 C1 1_555 1_555
C1 C2 1_555 1_555
C2 H1 1_555 1_555
C3 C2 1_555 1_555
C4 C3 1_555 1_555
C5 C4 1_555 1_555
H2 C5 1_555 1_555
C6 C1 1_555 1_555
H3 C6 1_555 1_555
C7 C3 1_555 1_555
H4 C7 1_555 1_555
C8 C7 1_555 1_555
C9 C8 1_555 1_555
H5 C9 1_555 1_555
C10 C9 1_555 1_555
H6 C10 1_555 1_555
H7 C10 1_555 1_555
C11 C10 1_555 1_555
C12 H8 1_555 1_555
H9 C12 1_555 1_555
C13 C12 1_555 1_555
H10 C13 1_555 1_555
H11 C13 1_555 1_555
H12 C13 1_555 1_555
N1 C8 1_555 1_555
O1 C4 1_555 1_555
O2 N1 1_555 1_555
O3 N1 1_555 1_555
O4 C11 1_555 1_555
O5 C11 1_555 1_555
C5 C6 1_555 1_555
C9 O1 1_555 1_555
C12 O5 1_555 1_555

#END
