
#######################################################################
#
#                 Cambridge Crystallographic Data Centre
#                                CCDC 
#
#######################################################################
#
# If this CIF has been generated from an entry in the Cambridge 
# Structural Database, then it will include bibliographic, chemical, 
# crystal, experimental, refinement or atomic coordinate data resulting 
# from the CCDC's data processing and validation procedures.
#
#######################################################################

data_UWETOG
_chemical_formula_moiety         'C12 H4 N4'
_chemical_name_systematic        2-(4-Cyanophenyl)ethene-1,1,2-tricarbonitrile
_symmetry_cell_setting           orthorhombic
_symmetry_space_group_name_H-M   'P b c a'
_symmetry_Int_Tables_number      61
_space_group_name_Hall           '-P 2ac 2ab'
loop_
_symmetry_equiv_pos_site_id
_symmetry_equiv_pos_as_xyz
1 x,y,z
2 1/2-x,-y,1/2+z
3 1/2+x,1/2-y,-z
4 -x,1/2+y,1/2-z
5 -x,-y,-z
6 1/2+x,y,1/2-z
7 1/2-x,1/2+y,z
8 x,1/2-y,1/2+z
_cell_length_a                   11.0590(4)
_cell_length_b                   7.6196(2)
_cell_length_c                   23.2240(8)
_cell_angle_alpha                90
_cell_angle_beta                 90
_cell_angle_gamma                90
_cell_volume                     1956.97
_exptl_crystal_colour            colorless
_exptl_crystal_description       cube
_cell_formula_units_Z            8
loop_
_atom_site_label
_atom_site_type_symbol
_atom_site_fract_x
_atom_site_fract_y
_atom_site_fract_z
N1 N 0.41555(15) 0.1034(2) 0.55743(7)
N2 N 1.00563(14) 0.5024(2) 0.74159(6)
N3 N 1.11758(13) 0.0308(2) 0.54472(7)
N4 N 1.29445(17) 0.3178(3) 0.67982(8)
C1 C 0.86142(14) 0.2647(2) 0.63061(7)
C2 C 0.84145(16) 0.1995(2) 0.57490(7)
C3 C 0.72591(15) 0.1669(2) 0.55578(7)
C4 C 0.62782(14) 0.2007(2) 0.59176(7)
C5 C 0.64568(16) 0.2731(2) 0.64611(7)
C6 C 0.76174(16) 0.3036(2) 0.66533(7)
C7 C 0.50831(16) 0.1524(2) 0.57235(8)
C8 C 0.99498(14) 0.4083(2) 0.70334(7)
C9 C 1.09099(15) 0.2314(2) 0.63299(7)
C10 C 0.98411(15) 0.2952(2) 0.65341(7)
C11 C 1.10263(14) 0.1183(2) 0.58414(7)
C12 C 1.20363(17) 0.2795(3) 0.65975(7)
H1 H 0.9057(17) 0.179(2) 0.5485(8)
H2 H 0.7752(16) 0.357(3) 0.7018(9)
H3 H 0.5747(19) 0.298(3) 0.6692(9)
H4 H 0.7129(15) 0.121(3) 0.5196(9)
loop_
_geom_bond_atom_site_label_1
_geom_bond_atom_site_label_2
_geom_bond_site_symmetry_1
_geom_bond_site_symmetry_2
N1 C7 1_555 1_555
N2 C8 1_555 1_555
N3 C11 1_555 1_555
N4 C12 1_555 1_555
C1 C2 1_555 1_555
C2 C3 1_555 1_555
C3 C4 1_555 1_555
C4 C5 1_555 1_555
C5 C6 1_555 1_555
C6 C1 1_555 1_555
C7 C4 1_555 1_555
C8 C10 1_555 1_555
C9 C10 1_555 1_555
C10 C1 1_555 1_555
C11 C9 1_555 1_555
C12 C9 1_555 1_555
H1 C2 1_555 1_555
H2 C6 1_555 1_555
H3 C5 1_555 1_555
H4 C3 1_555 1_555

#END
