
#######################################################################
#
#                 Cambridge Crystallographic Data Centre
#                                CCDC 
#
#######################################################################
#
# If this CIF has been generated from an entry in the Cambridge 
# Structural Database, then it will include bibliographic, chemical, 
# crystal, experimental, refinement or atomic coordinate data resulting 
# from the CCDC's data processing and validation procedures.
#
#######################################################################

data_UWETEW
_chemical_formula_moiety         'C11 H5 F3 N2'
_chemical_name_systematic        (4-(Trifluoromethyl)benzylidene)malononitrile
_symmetry_cell_setting           orthorhombic
_symmetry_space_group_name_H-M   'P n m a'
_symmetry_Int_Tables_number      62
_space_group_name_Hall           '-P 2ac 2n'
loop_
_symmetry_equiv_pos_site_id
_symmetry_equiv_pos_as_xyz
1 x,y,z
2 1/2-x,-y,1/2+z
3 1/2+x,1/2-y,1/2-z
4 -x,1/2+y,-z
5 -x,-y,-z
6 1/2+x,y,1/2-z
7 1/2-x,1/2+y,1/2+z
8 x,1/2-y,z
_cell_length_a                   13.3762(13)
_cell_length_b                   6.6148(6)
_cell_length_c                   10.6438(9)
_cell_angle_alpha                90
_cell_angle_beta                 90
_cell_angle_gamma                90
_cell_volume                     941.773
_exptl_crystal_colour            colorless
_exptl_crystal_description       plate
_cell_formula_units_Z            4
loop_
_atom_site_label
_atom_site_type_symbol
_atom_site_fract_x
_atom_site_fract_y
_atom_site_fract_z
F1 F 0.77884(13) 0.2500 -0.28415(16)
F2 F 0.64976(9) 0.0876(2) -0.34900(10)
N1 N 0.7442(2) 0.2500 0.3758(3)
N2 N 0.44714(18) 0.2500 0.5327(2)
C1 C 0.5580(2) 0.2500 0.0909(3)
C2 C 0.6610(2) 0.2500 0.0702(3)
C3 C 0.6993(2) 0.2500 -0.0498(3)
C4 C 0.6361(2) 0.2500 -0.1521(3)
C5 C 0.5334(2) 0.2500 -0.1351(3)
C6 C 0.4946(2) 0.2500 -0.0151(3)
C7 C 0.6606(2) 0.2500 0.3540(3)
C8 C 0.4935(2) 0.2500 0.4415(3)
C9 C 0.5539(2) 0.2500 0.3294(3)
C10 C 0.5112(2) 0.2500 0.2145(3)
C11 C 0.6794(2) 0.2500 -0.2826(3)
H1 H 0.709(3) 0.2500 0.138(4)
H2 H 0.768(3) 0.2500 -0.060(3)
H3 H 0.488(3) 0.2500 -0.206(3)
H4 H 0.421(3) 0.2500 0.001(3)
H5 H 0.439(2) 0.2500 0.213(3)
F2G F 0.64976(9) 0.4124(2) -0.34900(10)
loop_
_geom_bond_atom_site_label_1
_geom_bond_atom_site_label_2
_geom_bond_site_symmetry_1
_geom_bond_site_symmetry_2
F1 C11 1_555 1_555
F2 C11 1_555 1_555
N1 C7 1_555 1_555
N2 C8 1_555 1_555
C1 C2 1_555 1_555
C2 C3 1_555 1_555
C3 C4 1_555 1_555
C4 C5 1_555 1_555
C5 C6 1_555 1_555
C6 C1 1_555 1_555
C7 C9 1_555 1_555
C8 C9 1_555 1_555
C9 C10 1_555 1_555
C10 C1 1_555 1_555
C11 C4 1_555 1_555
H1 C2 1_555 1_555
H2 C3 1_555 1_555
H3 C5 1_555 1_555
H4 C6 1_555 1_555
H5 C10 1_555 1_555
F2G C11 1_555 1_555

#END
