
#######################################################################
#
#                 Cambridge Crystallographic Data Centre
#                                CCDC 
#
#######################################################################
#
# If this CIF has been generated from an entry in the Cambridge 
# Structural Database, then it will include bibliographic, chemical, 
# crystal, experimental, refinement or atomic coordinate data resulting 
# from the CCDC's data processing and validation procedures.
#
#######################################################################

data_UWETIA
_chemical_formula_moiety         'C11 F5 N3'
_chemical_name_systematic        
2-(Pentafluorophenyl)ethene-1,1,2-tricarbonitrile
_symmetry_cell_setting           orthorhombic
_symmetry_space_group_name_H-M   'P 21 21 21'
_symmetry_Int_Tables_number      19
_space_group_name_Hall           'P 2ac 2ab'
loop_
_symmetry_equiv_pos_site_id
_symmetry_equiv_pos_as_xyz
1 x,y,z
2 1/2-x,-y,1/2+z
3 1/2+x,1/2-y,-z
4 -x,1/2+y,1/2-z
_cell_length_a                   6.44460(10)
_cell_length_b                   7.4644(2)
_cell_length_c                   21.1168(5)
_cell_angle_alpha                90
_cell_angle_beta                 90
_cell_angle_gamma                90
_cell_volume                     1015.83
_exptl_crystal_colour            colorless
_exptl_crystal_description       cube
_cell_formula_units_Z            4
loop_
_atom_site_label
_atom_site_type_symbol
_atom_site_fract_x
_atom_site_fract_y
_atom_site_fract_z
F1 F 0.41325(17) 0.49768(13) 0.68229(5)
F2 F 0.68382(18) 0.23362(15) 0.70942(5)
F3 F 0.59191(18) -0.11061(15) 0.67956(5)
F4 F 0.22967(19) -0.18942(13) 0.61947(5)
F5 F -0.04776(17) 0.07059(15) 0.59605(5)
N1 N 0.0680(3) 0.2834(2) 0.47052(7)
N2 N -0.3189(3) 0.7216(2) 0.54258(9)
N3 N -0.0847(3) 0.6304(3) 0.72102(7)
C1 C 0.1754(3) 0.2930(2) 0.63791(7)
C2 C 0.1333(3) 0.1145(2) 0.62264(7)
C3 C 0.2732(3) -0.0205(2) 0.63606(7)
C4 C 0.4575(3) 0.0193(2) 0.66597(8)
C5 C 0.5031(2) 0.1945(2) 0.68187(8)
C6 C 0.3633(3) 0.3276(2) 0.66760(8)
C7 C 0.0266(3) 0.4396(2) 0.62467(7)
C8 C -0.0504(3) 0.4730(2) 0.56617(7)
C9 C 0.0161(2) 0.3684(2) 0.51276(7)
C10 C -0.1997(3) 0.6123(3) 0.55431(8)
C11 C -0.0371(3) 0.5487(2) 0.67763(8)
loop_
_geom_bond_atom_site_label_1
_geom_bond_atom_site_label_2
_geom_bond_site_symmetry_1
_geom_bond_site_symmetry_2
F1 C6 1_555 1_555
F2 C5 1_555 1_555
F3 C4 1_555 1_555
F4 C3 1_555 1_555
F5 C2 1_555 1_555
N1 C9 1_555 1_555
N2 C10 1_555 1_555
N3 C11 1_555 1_555
C1 C2 1_555 1_555
C2 C3 1_555 1_555
C3 C4 1_555 1_555
C4 C5 1_555 1_555
C5 C6 1_555 1_555
C6 C1 1_555 1_555
C7 C1 1_555 1_555
C8 C7 1_555 1_555
C9 C8 1_555 1_555
C10 C8 1_555 1_555
C11 C7 1_555 1_555

#END
