
#######################################################################
#
#                 Cambridge Crystallographic Data Centre
#                                CCDC 
#
#######################################################################
#
# If this CIF has been generated from an entry in the Cambridge 
# Structural Database, then it will include bibliographic, chemical, 
# crystal, experimental, refinement or atomic coordinate data resulting 
# from the CCDC's data processing and validation procedures.
#
#######################################################################

data_UWEWOJ
_chemical_formula_moiety         'C68 H74 N8'
_chemical_name_systematic        
2,2'-(1,4-Phenylenebis(1-(4-cyanophenyl)-3-(4-(dihexylamino)phenyl)prop-1-en-2-yl-3-ylidene))dimalononitrile
_symmetry_cell_setting           triclinic
_symmetry_space_group_name_H-M   'P -1'
_symmetry_Int_Tables_number      2
_space_group_name_Hall           '-P 1'
loop_
_symmetry_equiv_pos_site_id
_symmetry_equiv_pos_as_xyz
1 x,y,z
2 -x,-y,-z
_cell_length_a                   10.8650(8)
_cell_length_b                   11.4737(6)
_cell_length_c                   13.1850(10)
_cell_angle_alpha                111.005(2)
_cell_angle_beta                 92.055(3)
_cell_angle_gamma                108.345(5)
_cell_volume                     1435.81
_exptl_crystal_colour            colorless
_exptl_crystal_description       cube
_cell_formula_units_Z            1
loop_
_atom_site_label
_atom_site_type_symbol
_atom_site_fract_x
_atom_site_fract_y
_atom_site_fract_z
N1 N 0.3873(3) 0.6583(4) 1.2737(3)
N2 N 0.6899(3) 0.0467(3) 1.1142(3)
N3 N 0.8552(3) -0.1864(3) 0.8755(3)
N4 N 1.1834(3) 0.1277(3) 0.5861(2)
C1 C 0.9805(3) 0.5917(3) 0.9611(2)
C2 C 0.8838(3) 0.4680(3) 0.9333(3)
C3 C 0.9007(3) 0.3760(3) 0.9724(2)
C4 C 0.7955(3) 0.2439(3) 0.9445(3)
C5 C 0.6700(3) 0.2267(3) 0.9592(3)
C6 C 0.6140(3) 0.3267(3) 1.0202(3)
C7 C 0.4778(3) 0.2970(3) 0.9991(3)
C8 C 0.4181(3) 0.3815(3) 1.0616(3)
C9 C 0.4937(3) 0.4991(3) 1.1471(3)
C10 C 0.6297(3) 0.5326(4) 1.1695(3)
C11 C 0.6870(3) 0.4464(4) 1.1062(3)
C12 C 0.4341(3) 0.5875(4) 1.2173(3)
C13 C 0.8396(3) 0.1282(3) 0.9005(3)
C14 C 0.8048(3) 0.0320(3) 0.9441(3)
C15 C 0.7392(4) 0.0443(3) 1.0383(3)
C16 C 0.8341(3) -0.0888(4) 0.9032(3)
C17 C 0.9263(3) 0.1249(3) 0.8187(3)
C18 C 1.0336(3) 0.0829(3) 0.8220(3)
C19 C 1.1202(3) 0.0862(3) 0.7479(3)
C20 C 1.1011(3) 0.1298(3) 0.6625(3)
C21 C 0.9944(3) 0.1747(3) 0.6609(3)
C22 C 0.9116(3) 0.1749(3) 0.7376(3)
C23 C 1.3067(3) 0.1045(4) 0.6038(3)
C24 C 1.2936(3) -0.0416(4) 0.5667(3)
C25 C 1.4127(4) -0.0552(4) 0.6188(3)
C26 C 1.3996(4) -0.1972(5) 0.5949(4)
C27 C 1.5161(7) -0.1925(8) 0.6754(8)
C28 C 1.5009(7) -0.3306(7) 0.6692(7)
C29 C 1.1631(3) 0.1686(3) 0.4959(3)
C30 C 1.2277(4) 0.3176(4) 0.5262(3)
C31 C 1.2078(4) 0.3645(5) 0.4353(3)
C32 C 1.0706(5) 0.3466(4) 0.4004(3)
C33 C 1.0655(5) 0.4393(5) 0.3382(4)
C34 C 0.9284(5) 0.4135(5) 0.2979(4)
H1 H 0.9658 0.6565 0.9343
H2 H 0.8017 0.4450 0.8849
H3 H 0.6076 0.1350 0.9243
H4 H 0.4237 0.2141 0.9384
H5 H 0.3227 0.3583 1.0456
H6 H 0.6836 0.6164 1.2295
H7 H 0.7825 0.4703 1.1222
H8 H 1.0479 0.0499 0.8789
H9 H 1.1955 0.0581 0.7544
H10 H 0.9789 0.2067 0.6037
H11 H 0.8410 0.2105 0.7356
H12 H 1.3473 0.1545 0.6905
H13 H 1.3760 0.1499 0.5603
H14 H 1.2059 -0.0952 0.5898
H15 H 1.2840 -0.0851 0.4781
H16 H 1.4985 -0.0094 0.5889
H17 H 1.4281 -0.0015 0.7069
H18 H 1.4076 -0.2468 0.5099
H19 H 1.3054 -0.2506 0.6096
H20 H 1.6093 -0.1496 0.6530
H21 H 1.5159 -0.1296 0.7590
H22 H 1.4051 -0.3759 0.6864
H23 H 1.5762 -0.3237 0.7290
H24 H 1.5105 -0.3907 0.5875
H25 H 1.0588 0.1399 0.4701
H26 H 1.2020 0.1160 0.4268
H27 H 1.1896 0.3695 0.5962
H28 H 1.3320 0.3455 0.5515
H29 H 1.2665 0.4690 0.4629
H30 H 1.2440 0.3112 0.3646
H31 H 1.0230 0.3702 0.4718
H32 H 1.0182 0.2438 0.3467
H33 H 1.1119 0.5425 0.3934
H34 H 1.1184 0.4202 0.2698
H35 H 0.8832 0.3108 0.2412
H36 H 0.9249 0.4783 0.2561
H37 H 0.8759 0.4324 0.3666
N1A N 1.6127(3) 0.3417(4) 0.7263(3)
N2A N 1.3101(3) 0.9533(3) 0.8858(3)
N3A N 1.1448(3) 1.1864(3) 1.1245(3)
N4A N 0.8166(3) 0.8723(3) 1.4139(2)
C1A C 1.0195(3) 0.4083(3) 1.0389(2)
C2A C 1.1162(3) 0.5320(3) 1.0667(3)
C3A C 1.0993(3) 0.6240(3) 1.0276(2)
C4A C 1.2045(3) 0.7561(3) 1.0555(3)
C5A C 1.3300(3) 0.7733(3) 1.0408(3)
C6A C 1.3860(3) 0.6733(3) 0.9798(3)
C7A C 1.5222(3) 0.7030(3) 1.0009(3)
C8A C 1.5819(3) 0.6185(3) 0.9384(3)
C9A C 1.5063(3) 0.5009(3) 0.8529(3)
C10A C 1.3703(3) 0.4674(4) 0.8305(3)
C11A C 1.3130(3) 0.5536(4) 0.8938(3)
C12A C 1.5659(3) 0.4125(4) 0.7827(3)
C13A C 1.1604(3) 0.8718(3) 1.0995(3)
C14A C 1.1952(3) 0.9680(3) 1.0559(3)
C15A C 1.2608(4) 0.9557(3) 0.9617(3)
C16A C 1.1659(3) 1.0888(4) 1.0968(3)
C17A C 1.0737(3) 0.8751(3) 1.1813(3)
C18A C 0.9664(3) 0.9171(3) 1.1780(3)
C19A C 0.8798(3) 0.9138(3) 1.2521(3)
C20A C 0.8989(3) 0.8702(3) 1.3375(3)
C21A C 1.0056(3) 0.8253(3) 1.3391(3)
C22A C 1.0884(3) 0.8251(3) 1.2624(3)
C23A C 0.6933(3) 0.8955(4) 1.3962(3)
C24A C 0.7064(3) 1.0416(4) 1.4333(3)
C25A C 0.5873(4) 1.0552(4) 1.3812(3)
C26A C 0.6004(4) 1.1972(5) 1.4051(4)
C27A C 0.4839(7) 1.1925(8) 1.3246(8)
C28A C 0.4991(7) 1.3306(7) 1.3308(7)
C29A C 0.8369(3) 0.8314(3) 1.5041(3)
C30A C 0.7723(4) 0.6824(4) 1.4738(3)
C31A C 0.7922(4) 0.6355(5) 1.5647(3)
C32A C 0.9294(5) 0.6534(4) 1.5996(3)
C33A C 0.9345(5) 0.5607(5) 1.6618(4)
C34A C 1.0716(5) 0.5865(5) 1.7021(4)
H1A H 1.0342 0.3435 1.0657
H2A H 1.1983 0.5550 1.1151
H3A H 1.3924 0.8650 1.0757
H4A H 1.5763 0.7859 1.0616
H5A H 1.6773 0.6417 0.9544
H6A H 1.3164 0.3836 0.7705
H7A H 1.2175 0.5297 0.8778
H8A H 0.9521 0.9501 1.1211
H9A H 0.8045 0.9419 1.2456
H10A H 1.0211 0.7933 1.3963
H11A H 1.1590 0.7895 1.2644
H12A H 0.6527 0.8455 1.3095
H13A H 0.6240 0.8501 1.4397
H14A H 0.7941 1.0952 1.4102
H15A H 0.7160 1.0851 1.5219
H16A H 0.5015 1.0094 1.4111
H17A H 0.5719 1.0015 1.2931
H18A H 0.5924 1.2468 1.4901
H19A H 0.6946 1.2506 1.3904
H20A H 0.3907 1.1496 1.3470
H21A H 0.4841 1.1296 1.2410
H22A H 0.5949 1.3759 1.3136
H23A H 0.4238 1.3237 1.2710
H24A H 0.4895 1.3907 1.4125
H25A H 0.9412 0.8601 1.5299
H26A H 0.7980 0.8840 1.5732
H27A H 0.8104 0.6305 1.4038
H28A H 0.6680 0.6545 1.4485
H29A H 0.7335 0.5310 1.5371
H30A H 0.7560 0.6888 1.6354
H31A H 0.9770 0.6298 1.5282
H32A H 0.9818 0.7562 1.6533
H33A H 0.8881 0.4575 1.6066
H34A H 0.8816 0.5798 1.7302
H35A H 1.1168 0.6892 1.7588
H36A H 1.0751 0.5217 1.7439
H37A H 1.1241 0.5676 1.6334
C35? C 1.4942(14) -0.2553(17) 0.6162(13)
C36? C 1.5017(12) -0.2221(15) 0.7392(11)
H38? H 1.5886 -0.2105 0.5967
H39? H 1.4593 -0.3618 0.5698
H40? H 1.5568 -0.1172 0.7841
H41? H 1.5501 -0.2802 0.7621
H42? H 1.4035 -0.2452 0.7589
loop_
_geom_bond_atom_site_label_1
_geom_bond_atom_site_label_2
_geom_bond_site_symmetry_1
_geom_bond_site_symmetry_2
N1 C12 1_555 1_555
N2 C15 1_555 1_555
N3 C16 1_555 1_555
N4 C20 1_555 1_555
C1 C2 1_555 1_555
C2 C3 1_555 1_555
C3 C4 1_555 1_555
C4 C5 1_555 1_555
C5 C6 1_555 1_555
C6 C7 1_555 1_555
C7 C8 1_555 1_555
C8 C9 1_555 1_555
C9 C10 1_555 1_555
C10 C11 1_555 1_555
C11 C6 1_555 1_555
C12 C9 1_555 1_555
C13 C4 1_555 1_555
C14 C13 1_555 1_555
C15 C14 1_555 1_555
C16 C14 1_555 1_555
C17 C13 1_555 1_555
C18 C17 1_555 1_555
C19 C18 1_555 1_555
C20 C19 1_555 1_555
C21 C20 1_555 1_555
C22 C17 1_555 1_555
C23 N4 1_555 1_555
C24 C23 1_555 1_555
C25 C24 1_555 1_555
C26 C25 1_555 1_555
C27 C26 1_555 1_555
C28 C27 1_555 1_555
C29 N4 1_555 1_555
C30 C29 1_555 1_555
C31 C30 1_555 1_555
C32 C31 1_555 1_555
C33 C32 1_555 1_555
C34 C33 1_555 1_555
H1 C1 1_555 1_555
H2 C2 1_555 1_555
H3 C5 1_555 1_555
H4 C7 1_555 1_555
H5 C8 1_555 1_555
H6 C10 1_555 1_555
H7 C11 1_555 1_555
H8 C18 1_555 1_555
H9 C19 1_555 1_555
H10 C21 1_555 1_555
H11 C22 1_555 1_555
H12 C23 1_555 1_555
H13 C23 1_555 1_555
H14 C24 1_555 1_555
H15 C24 1_555 1_555
H16 C25 1_555 1_555
H17 C25 1_555 1_555
H18 C26 1_555 1_555
H19 C26 1_555 1_555
H20 C27 1_555 1_555
H21 C27 1_555 1_555
H22 C28 1_555 1_555
H23 C28 1_555 1_555
H24 C28 1_555 1_555
H25 C29 1_555 1_555
H26 C29 1_555 1_555
H27 C30 1_555 1_555
H28 C30 1_555 1_555
H29 C31 1_555 1_555
H30 C31 1_555 1_555
H31 C32 1_555 1_555
H32 C32 1_555 1_555
H33 C33 1_555 1_555
H34 C33 1_555 1_555
H35 C34 1_555 1_555
H36 C34 1_555 1_555
H37 C34 1_555 1_555
N1A C12A 1_555 1_555
N2A C15A 1_555 1_555
N3A C16A 1_555 1_555
N4A C20A 1_555 1_555
C1A C3 1_555 1_555
C2A C1A 1_555 1_555
C3A C1 1_555 1_555
C4A C3A 1_555 1_555
C5A C4A 1_555 1_555
C6A C5A 1_555 1_555
C7A C6A 1_555 1_555
C8A C7A 1_555 1_555
C9A C8A 1_555 1_555
C10A C9A 1_555 1_555
C11A C6A 1_555 1_555
C12A C9A 1_555 1_555
C13A C4A 1_555 1_555
C14A C13A 1_555 1_555
C15A C14A 1_555 1_555
C16A C14A 1_555 1_555
C17A C13A 1_555 1_555
C18A C17A 1_555 1_555
C19A C18A 1_555 1_555
C20A C19A 1_555 1_555
C21A C20A 1_555 1_555
C22A C17A 1_555 1_555
C23A N4A 1_555 1_555
C24A C23A 1_555 1_555
C25A C24A 1_555 1_555
C26A C25A 1_555 1_555
C27A C26A 1_555 1_555
C28A C27A 1_555 1_555
C29A N4A 1_555 1_555
C30A C29A 1_555 1_555
C31A C30A 1_555 1_555
C32A C31A 1_555 1_555
C33A C32A 1_555 1_555
C34A C33A 1_555 1_555
H1A C1A 1_555 1_555
H2A C2A 1_555 1_555
H3A C5A 1_555 1_555
H4A C7A 1_555 1_555
H5A C8A 1_555 1_555
H6A C10A 1_555 1_555
H7A C11A 1_555 1_555
H8A C18A 1_555 1_555
H9A C19A 1_555 1_555
H10A C21A 1_555 1_555
H11A C22A 1_555 1_555
H12A C23A 1_555 1_555
H13A C23A 1_555 1_555
H14A C24A 1_555 1_555
H15A C24A 1_555 1_555
H16A C25A 1_555 1_555
H17A C25A 1_555 1_555
H18A C26A 1_555 1_555
H19A C26A 1_555 1_555
H20A C27A 1_555 1_555
H21A C27A 1_555 1_555
H22A C28A 1_555 1_555
H23A C28A 1_555 1_555
H24A C28A 1_555 1_555
H25A C29A 1_555 1_555
H26A C29A 1_555 1_555
H27A C30A 1_555 1_555
H28A C30A 1_555 1_555
H29A C31A 1_555 1_555
H30A C31A 1_555 1_555
H31A C32A 1_555 1_555
H32A C32A 1_555 1_555
H33A C33A 1_555 1_555
H34A C33A 1_555 1_555
H35A C34A 1_555 1_555
H36A C34A 1_555 1_555
H37A C34A 1_555 1_555
C21 C22 1_555 1_555
C2A C3A 1_555 1_555
C10A C11A 1_555 1_555
C21A C22A 1_555 1_555

#END
