
#######################################################################
#
#                 Cambridge Crystallographic Data Centre
#                                CCDC 
#
#######################################################################
#
# If this CIF has been generated from an entry in the Cambridge 
# Structural Database, then it will include bibliographic, chemical, 
# crystal, experimental, refinement or atomic coordinate data resulting 
# from the CCDC's data processing and validation procedures.
#
#######################################################################

data_UWEWID
_chemical_formula_moiety         'C28 H19 N5,C4 H8 O1'
_chemical_name_systematic        
'4-(4-Cyanophenyl)-2-(4-(dimethylamino)phenyl)-3-phenylbuta-1,3-diene-1,1,4-tricarbonitrile tetrahydrofuran solvate'
_symmetry_cell_setting           monoclinic
_symmetry_space_group_name_H-M   'P 21/n'
_symmetry_Int_Tables_number      14
_space_group_name_Hall           '-P 2yn'
loop_
_symmetry_equiv_pos_site_id
_symmetry_equiv_pos_as_xyz
1 x,y,z
2 1/2-x,1/2+y,1/2-z
3 -x,-y,-z
4 1/2+x,1/2-y,1/2+z
_cell_length_a                   12.2364(5)
_cell_length_b                   11.4908(5)
_cell_length_c                   18.8308(9)
_cell_angle_alpha                90
_cell_angle_beta                 94.870(2)
_cell_angle_gamma                90
_cell_volume                     2638.17
_exptl_crystal_colour            red
_exptl_crystal_description       plate
_cell_formula_units_Z            4
loop_
_atom_site_label
_atom_site_type_symbol
_atom_site_fract_x
_atom_site_fract_y
_atom_site_fract_z
N1 N 0.3674(2) 0.1645(3) 0.30134(18)
N2 N 0.6291(2) -0.0814(3) 0.29837(18)
N3 N 0.7662(2) 0.2485(3) 0.34233(17)
N4 N 1.3055(2) -0.0904(3) 0.21914(18)
N5 N 0.4112(2) 0.5842(3) 0.07063(15)
C1 C 0.5418(2) 0.1048(3) 0.24233(17)
C2 C 0.5906(2) 0.1702(3) 0.19288(16)
C3 C 0.7020(3) 0.1321(3) 0.17438(17)
C4 C 0.7899(2) 0.1449(3) 0.22213(16)
C5 C 0.4429(3) 0.1382(3) 0.27304(18)
C6 C 0.5910(3) 0.0011(3) 0.27268(19)
C7 C 0.7757(2) 0.2028(3) 0.28856(19)
C8 C 0.9030(2) 0.0990(3) 0.21570(16)
C9 C 0.9949(2) 0.1620(3) 0.24298(16)
C10 C 1.0989(3) 0.1157(3) 0.24304(17)
C11 C 1.1127(2) 0.0044(3) 0.21544(16)
C12 C 1.0221(3) -0.0589(3) 0.18667(17)
C13 C 0.9179(2) -0.0112(3) 0.18720(17)
C14 C 1.2194(3) -0.0480(3) 0.21779(18)
C15 C 0.7063(2) 0.0865(3) 0.10068(17)
C16 C 0.7798(3) 0.1316(3) 0.05537(19)
C17 C 0.7790(3) 0.0912(4) -0.0141(2)
C18 C 0.7059(4) 0.0043(4) -0.0378(2)
C19 C 0.6348(3) -0.0416(4) 0.0063(2)
C20 C 0.6334(3) -0.0005(3) 0.07573(18)
C21 C 0.5424(2) 0.2713(3) 0.15685(16)
C22 C 0.6105(3) 0.3616(3) 0.13656(17)
C23 C 0.5689(3) 0.4650(3) 0.10866(17)
C24 C 0.4540(3) 0.4828(3) 0.09705(16)
C25 C 0.3851(3) 0.3877(3) 0.11284(17)
C26 C 0.4281(3) 0.2874(3) 0.14287(17)
C27 C 0.4802(3) 0.6841(3) 0.0569(2)
C28 C 0.2931(3) 0.6009(4) 0.0567(3)
H1 H 0.9860 0.2384 0.2623
H2 H 1.1614 0.1599 0.2618
H3 H 1.0323 -0.1346 0.1667
H4 H 0.8556 -0.0547 0.1675
H5 H 0.8305 0.1910 0.0724
H6 H 0.8293 0.1226 -0.0456
H7 H 0.7046 -0.0234 -0.0859
H8 H 0.5862 -0.1033 -0.0104
H9 H 0.5818 -0.0311 0.1066
H10 H 0.6887 0.3517 0.1414
H11 H 0.6178 0.5263 0.0972
H12 H 0.3072 0.3937 0.1025
H13 H 0.3786 0.2268 0.1545
H14 H 0.4347 0.7468 0.0381
H15 H 0.5310 0.6629 0.0230
H16 H 0.5199 0.7083 0.1006
H17 H 0.2781 0.6775 0.0380
H18 H 0.2583 0.5913 0.1002
H19 H 0.2650 0.5439 0.0226
O1 O 1.0601(6) 0.3318(7) 0.0848(4)
C29 C 1.0935(5) 0.2165(5) 0.0610(3)
C30 C 1.0922(7) 0.2216(9) -0.0169(3)
C31 C 1.0973(15) 0.3626(15) -0.0261(8)
C32 C 1.1074(5) 0.4063(5) 0.0414(3)
H20 H 1.1665 0.2020 0.0820
H21 H 1.0446 0.1586 0.0769
H22 H 1.1631 0.2001 -0.0309
H23 H 1.0385 0.1667 -0.0362
H24 H 1.1609 0.3853 -0.0522
H25 H 1.0294 0.3918 -0.0526
H26 H 1.1860 0.4162 0.0577
H27 H 1.0713 0.4833 0.0424
C33? C 1.0601(6) 0.3318(7) 0.0848(4)
C34? C 0.979(2) 0.357(2) 0.0320(12)
H28? H 1.0312 0.3283 0.1323
H29? H 1.1212 0.3884 0.0859
H30? H 0.9594 0.4406 0.0360
H31? H 0.9131 0.3111 0.0404
O2? O 1.0059(14) 0.3366(15) -0.0369(8)
loop_
_geom_bond_atom_site_label_1
_geom_bond_atom_site_label_2
_geom_bond_site_symmetry_1
_geom_bond_site_symmetry_2
N1 C5 1_555 1_555
N2 C6 1_555 1_555
N3 C7 1_555 1_555
N4 C14 1_555 1_555
N5 C24 1_555 1_555
O1 C29 1_555 1_555
C1 C2 1_555 1_555
C2 C3 1_555 1_555
C3 C4 1_555 1_555
C4 C7 1_555 1_555
C5 C1 1_555 1_555
C6 C1 1_555 1_555
C8 C4 1_555 1_555
C9 C8 1_555 1_555
C10 C9 1_555 1_555
C11 C10 1_555 1_555
C12 C11 1_555 1_555
C13 C8 1_555 1_555
C14 C11 1_555 1_555
C15 C3 1_555 1_555
C16 C15 1_555 1_555
C17 C16 1_555 1_555
C18 C17 1_555 1_555
C19 C18 1_555 1_555
C20 C15 1_555 1_555
C21 C2 1_555 1_555
C22 C21 1_555 1_555
C23 C22 1_555 1_555
C24 C23 1_555 1_555
C25 C24 1_555 1_555
C26 C21 1_555 1_555
C27 N5 1_555 1_555
C28 N5 1_555 1_555
C29 C30 1_555 1_555
C30 C31 1_555 1_555
C31 C32 1_555 1_555
C32 O1 1_555 1_555
H1 C9 1_555 1_555
H2 C10 1_555 1_555
H3 C12 1_555 1_555
H4 C13 1_555 1_555
H5 C16 1_555 1_555
H6 C17 1_555 1_555
H7 C18 1_555 1_555
H8 C19 1_555 1_555
H9 C20 1_555 1_555
H10 C22 1_555 1_555
H11 C23 1_555 1_555
H12 C25 1_555 1_555
H13 C26 1_555 1_555
H14 C27 1_555 1_555
H15 C27 1_555 1_555
H16 C27 1_555 1_555
H17 C28 1_555 1_555
H18 C28 1_555 1_555
H19 C28 1_555 1_555
H20 C29 1_555 1_555
H21 C29 1_555 1_555
H22 C30 1_555 1_555
H23 C30 1_555 1_555
H24 C31 1_555 1_555
H25 C31 1_555 1_555
H26 C32 1_555 1_555
H27 C32 1_555 1_555
C12 C13 1_555 1_555
C19 C20 1_555 1_555
C25 C26 1_555 1_555

#END
