
#######################################################################
#
#                 Cambridge Crystallographic Data Centre
#                                CCDC 
#
#######################################################################
#
# If this CIF has been generated from an entry in the Cambridge 
# Structural Database, then it will include bibliographic, chemical, 
# crystal, experimental, refinement or atomic coordinate data resulting 
# from the CCDC's data processing and validation procedures.
#
#######################################################################

data_UWILUJ
_chemical_formula_moiety         'C22 H19 N3 O2 S2'
_chemical_name_systematic        
N-(((4-methylphenyl)sulfonyl)methyl)-N',3-diphenyl-1,3-thiazetidine-2,4-diimine
_symmetry_cell_setting           triclinic
_symmetry_space_group_name_H-M   'P -1'
_symmetry_Int_Tables_number      2
_space_group_name_Hall           '-P 1'
loop_
_symmetry_equiv_pos_site_id
_symmetry_equiv_pos_as_xyz
1 x,y,z
2 -x,-y,-z
_cell_length_a                   9.232(3)
_cell_length_b                   9.352(3)
_cell_length_c                   11.851(4)
_cell_angle_alpha                93.163(6)
_cell_angle_beta                 92.777(7)
_cell_angle_gamma                93.457(6)
_cell_volume                     1018.39
_exptl_crystal_colour            colorless
_exptl_crystal_description       block
_cell_formula_units_Z            2
loop_
_atom_site_label
_atom_site_type_symbol
_atom_site_fract_x
_atom_site_fract_y
_atom_site_fract_z
S1 S 0.68514(6) 0.15618(5) 0.31612(4)
S2 S 0.89998(5) 0.13592(5) 0.67853(4)
O1 O 0.74956(16) 0.09728(15) 0.69377(12)
O2 O 1.00688(18) 0.03507(15) 0.70389(12)
N1 N 0.52104(17) 0.36282(16) 0.21006(12)
N2 N 0.66890(17) 0.39838(15) 0.38295(12)
N3 N 0.84161(17) 0.29778(16) 0.50740(12)
C1 C 0.4612(2) 0.26325(19) 0.12202(14)
C2 C 0.3769(2) 0.1420(2) 0.14598(16)
H1 H 0.3659 0.1194 0.2207
C3 C 0.3090(2) 0.0544(2) 0.05835(18)
H2 H 0.2516 -0.0263 0.0746
C4 C 0.3259(3) 0.0861(2) -0.05250(17)
H3 H 0.2789 0.0282 -0.1111
C5 C 0.4129(3) 0.2042(2) -0.07586(17)
H4 H 0.4270 0.2239 -0.1507
C6 C 0.4801(2) 0.2944(2) 0.01069(16)
H5 H 0.5372 0.3750 -0.0060
C7 C 0.6013(2) 0.32116(18) 0.28793(14)
C8 C 0.7522(2) 0.29108(18) 0.42407(14)
C9 C 0.65828(19) 0.54275(18) 0.42477(14)
C10 C 0.5644(2) 0.62942(19) 0.36968(16)
H6 H 0.5088 0.5936 0.3057
C11 C 0.5541(2) 0.7700(2) 0.41078(17)
H7 H 0.4919 0.8284 0.3734
C12 C 0.6349(2) 0.8246(2) 0.50636(17)
H8 H 0.6272 0.9189 0.5334
C13 C 0.7274(2) 0.7369(2) 0.56122(16)
H9 H 0.7815 0.7728 0.6259
C14 C 0.7406(2) 0.5963(2) 0.52112(16)
H10 H 0.8037 0.5384 0.5582
C15 C 0.9178(2) 0.1733(2) 0.53290(15)
H11 H 1.0197 0.1897 0.5182
H12 H 0.8783 0.0916 0.4847
C16 C 0.9456(2) 0.30162(19) 0.75317(14)
C17 C 0.8367(2) 0.3913(2) 0.78016(17)
H13 H 0.7398 0.3626 0.7618
C18 C 0.8735(2) 0.5242(2) 0.83473(18)
H14 H 0.8005 0.5844 0.8531
C19 C 1.0175(2) 0.5690(2) 0.86242(16)
C20 C 1.1238(2) 0.4764(2) 0.83605(17)
H15 H 1.2205 0.5042 0.8558
C21 C 1.0895(2) 0.3433(2) 0.78094(16)
H16 H 1.1624 0.2828 0.7629
C22 C 1.0557(3) 0.7153(2) 0.9202(2)
H17 H 1.0468 0.7874 0.8661
H18 H 1.1538 0.7193 0.9516
H19 H 0.9907 0.7323 0.9797
loop_
_geom_bond_atom_site_label_1
_geom_bond_atom_site_label_2
_geom_bond_site_symmetry_1
_geom_bond_site_symmetry_2
S1 C7 1_555 1_555
S2 O1 1_555 1_555
O2 S2 1_555 1_555
N1 C1 1_555 1_555
N2 C7 1_555 1_555
N3 C8 1_555 1_555
C1 C2 1_555 1_555
C2 H1 1_555 1_555
C3 C2 1_555 1_555
H2 C3 1_555 1_555
C4 C3 1_555 1_555
H3 C4 1_555 1_555
C5 C4 1_555 1_555
H4 C5 1_555 1_555
C6 C1 1_555 1_555
H5 C6 1_555 1_555
C7 N1 1_555 1_555
C8 S1 1_555 1_555
C9 N2 1_555 1_555
C10 C9 1_555 1_555
H6 C10 1_555 1_555
C11 C10 1_555 1_555
H7 C11 1_555 1_555
C12 C11 1_555 1_555
H8 C12 1_555 1_555
C13 C12 1_555 1_555
H9 C13 1_555 1_555
C14 C9 1_555 1_555
H10 C14 1_555 1_555
C15 S2 1_555 1_555
H11 C15 1_555 1_555
H12 C15 1_555 1_555
C16 S2 1_555 1_555
C17 C16 1_555 1_555
H13 C17 1_555 1_555
C18 C17 1_555 1_555
H14 C18 1_555 1_555
C19 C18 1_555 1_555
C20 C19 1_555 1_555
H15 C20 1_555 1_555
C21 C16 1_555 1_555
H16 C21 1_555 1_555
C22 C19 1_555 1_555
H17 C22 1_555 1_555
H18 C22 1_555 1_555
H19 C22 1_555 1_555
N2 C8 1_555 1_555
N3 C15 1_555 1_555
C5 C6 1_555 1_555
C13 C14 1_555 1_555
C20 C21 1_555 1_555

#END
