
#######################################################################
#
#                 Cambridge Crystallographic Data Centre
#                                CCDC 
#
#######################################################################
#
# If this CIF has been generated from an entry in the Cambridge 
# Structural Database, then it will include bibliographic, chemical, 
# crystal, experimental, refinement or atomic coordinate data resulting 
# from the CCDC's data processing and validation procedures.
#
#######################################################################

data_UWIMOE
_chemical_formula_moiety         'C48 H48 N32 O16,4(C3 H7 N1 O1),4(H2 O1)'
_chemical_name_systematic        
'cucurbit[8]uril N,N-dimethylformamide solvate tetrahydrate'
_symmetry_cell_setting           rhombohedral
_symmetry_space_group_name_H-M   'R -3'
_symmetry_Int_Tables_number      148
_space_group_name_Hall           '-R 3'
loop_
_symmetry_equiv_pos_site_id
_symmetry_equiv_pos_as_xyz
1 x,y,z
2 -y,x-y,z
3 -x+y,-x,z
4 2/3+x,1/3+y,1/3+z
5 2/3-y,1/3+x-y,1/3+z
6 2/3-x+y,1/3-x,1/3+z
7 1/3+x,2/3+y,2/3+z
8 1/3-y,2/3+x-y,2/3+z
9 1/3-x+y,2/3-x,2/3+z
10 -x,-y,-z
11 y,-x+y,-z
12 x-y,x,-z
13 1/3-x,2/3-y,2/3-z
14 1/3+y,2/3-x+y,2/3-z
15 1/3+x-y,2/3+x,2/3-z
16 2/3-x,1/3-y,1/3-z
17 2/3+y,1/3-x+y,1/3-z
18 2/3+x-y,1/3+x,1/3-z
_cell_length_a                   38.668(6)
_cell_length_b                   38.668(6)
_cell_length_c                   13.497(3)
_cell_angle_alpha                90
_cell_angle_beta                 90
_cell_angle_gamma                120
_cell_volume                     17477.2
_exptl_crystal_colour            colorless
_exptl_crystal_description       block
_cell_formula_units_Z            9
loop_
_atom_site_label
_atom_site_type_symbol
_atom_site_fract_x
_atom_site_fract_y
_atom_site_fract_z
O1 O 0.49477(8) -0.01505(8) 0.3907(2)
O2 O 0.64575(8) 0.04196(8) 0.14854(19)
O3 O 0.49983(7) 0.09236(7) 0.33735(19)
O4 O 0.65656(7) 0.14854(8) 0.10226(18)
O5 O 0.46081(7) 0.13271(8) 0.15835(18)
O6 O 0.60494(7) 0.17224(8) -0.08879(19)
O7 O 0.40139(9) 0.07222(9) -0.0456(2)
O8 O 0.54857(8) 0.12624(9) -0.3131(2)
N1 N 0.54774(10) -0.02579(9) 0.3708(2)
N2 N 0.60540(10) -0.00391(10) 0.2638(2)
N3 N 0.55986(8) 0.03631(8) 0.3773(2)
N4 N 0.62102(8) 0.05913(8) 0.28311(19)
N5 N 0.56223(7) 0.09858(7) 0.33963(19)
N6 N 0.62602(7) 0.12349(7) 0.25209(18)
N7 N 0.55514(7) 0.14714(7) 0.2732(2)
N8 N 0.61715(8) 0.16974(8) 0.1810(2)
N9 N 0.52888(8) 0.17513(9) 0.1561(2)
N10 N 0.58712(8) 0.19078(9) 0.0565(2)
N11 N 0.49343(9) 0.16750(9) 0.0201(2)
N12 N 0.55198(8) 0.18413(8) -0.0791(2)
N13 N 0.45401(9) 0.12750(9) -0.1169(2)
N14 N 0.51265(9) 0.14815(9) -0.2210(2)
N15 N 0.42181(9) 0.07145(9) -0.2062(2)
N16 N 0.47973(9) 0.09343(9) -0.3110(2)
C1 C 0.52982(11) -0.00320(10) 0.3803(3)
C2 C 0.58941(11) -0.00325(11) 0.3621(3)
H1 H 0.6028 -0.0104 0.4151
C3 C 0.59919(10) 0.04012(11) 0.3722(3)
H2 H 0.6153 0.0530 0.4330
C4 C 0.62560(10) 0.03294(11) 0.2229(3)
C5 C 0.55335(11) 0.06822(10) 0.4138(3)
H3 H 0.5252 0.0566 0.4348
H4 H 0.5704 0.0807 0.4725
C6 C 0.64689(10) 0.10140(11) 0.2751(3)
H5 H 0.6668 0.1068 0.2225
H6 H 0.6615 0.1116 0.3383
C7 C 0.53585(10) 0.11065(10) 0.3179(3)
C8 C 0.60350(9) 0.13099(9) 0.3265(2)
H7 H 0.6182 0.1399 0.3909
C9 C 0.59842(9) 0.16442(10) 0.2763(2)
H8 H 0.6115 0.1896 0.3159
C10 C 0.63519(9) 0.14726(10) 0.1719(2)
C11 C 0.53683(10) 0.17095(10) 0.2574(3)
H9 H 0.5114 0.1589 0.2946
H10 H 0.5544 0.1979 0.2853
C12 C 0.62274(10) 0.20075(11) 0.1129(3)
H11 H 0.6446 0.2058 0.0666
H12 H 0.6309 0.2257 0.1505
C13 C 0.49111(10) 0.15553(11) 0.1161(3)
C14 C 0.55846(10) 0.20179(10) 0.0875(2)
H13 H 0.5720 0.2299 0.1126
C15 C 0.53443(10) 0.19749(10) -0.0081(3)
H14 H 0.5365 0.2234 -0.0279
C16 C 0.58340(10) 0.18119(10) -0.0434(3)
C17 C 0.45921(12) 0.15575(13) -0.0410(3)
H15 H 0.4614 0.1799 -0.0727
H16 H 0.4351 0.1439 0.0015
C18 C 0.54619(11) 0.18464(11) -0.1866(2)
H17 H 0.5420 0.2072 -0.2032
H18 H 0.5706 0.1889 -0.2212
C19 C 0.42330(12) 0.08840(12) -0.1152(3)
C20 C 0.47177(10) 0.13943(11) -0.2146(2)
H19 H 0.4686 0.1617 -0.2419
C21 C 0.44787(11) 0.10043(10) -0.2766(3)
H20 H 0.4329 0.1039 -0.3327
C22 C 0.51611(11) 0.12279(11) -0.2841(3)
C23 C 0.38636(12) 0.03542(11) -0.2371(3)
H21 H 0.3745 0.0415 -0.2947
H22 H 0.3666 0.0260 -0.1826
C24 C 0.47383(13) 0.06781(12) -0.3957(3)
H23 H 0.4589 0.0730 -0.4476
H24 H 0.5002 0.0746 -0.4234
O1I O 0.50523(8) 0.01505(8) -0.3907(2)
O2I O 0.35425(8) -0.04196(8) -0.14854(19)
O3I O 0.50017(7) -0.09236(7) -0.33735(19)
O4I O 0.34344(7) -0.14854(8) -0.10226(18)
O5I O 0.53919(7) -0.13271(8) -0.15835(18)
O6I O 0.39506(7) -0.17224(8) 0.08879(19)
O7I O 0.59861(9) -0.07222(9) 0.0456(2)
O8I O 0.45143(8) -0.12624(9) 0.3131(2)
N1I N 0.45226(10) 0.02579(9) -0.3708(2)
N2I N 0.39460(10) 0.00391(10) -0.2638(2)
N3I N 0.44014(8) -0.03631(8) -0.3773(2)
N4I N 0.37898(8) -0.05913(8) -0.28311(19)
N5I N 0.43777(7) -0.09858(7) -0.33963(19)
N6I N 0.37398(7) -0.12349(7) -0.25209(18)
N7I N 0.44486(7) -0.14714(7) -0.2732(2)
N8I N 0.38285(8) -0.16974(8) -0.1810(2)
N9I N 0.47112(8) -0.17513(9) -0.1561(2)
N10I N 0.41288(8) -0.19078(9) -0.0565(2)
N11I N 0.50657(9) -0.16750(9) -0.0201(2)
N12I N 0.44802(8) -0.18413(8) 0.0791(2)
N13I N 0.54599(9) -0.12750(9) 0.1169(2)
N14I N 0.48735(9) -0.14815(9) 0.2210(2)
N15I N 0.57819(9) -0.07145(9) 0.2062(2)
N16I N 0.52027(9) -0.09343(9) 0.3110(2)
C1I C 0.47018(11) 0.00320(10) -0.3803(3)
C2I C 0.41059(11) 0.00325(11) -0.3621(3)
H1I H 0.3972 0.0104 -0.4151
C3I C 0.40081(10) -0.04012(11) -0.3722(3)
H2I H 0.3847 -0.0530 -0.4330
C4I C 0.37440(10) -0.03294(11) -0.2229(3)
C5I C 0.44665(11) -0.06822(10) -0.4138(3)
H3I H 0.4748 -0.0566 -0.4348
H4I H 0.4296 -0.0807 -0.4725
C6I C 0.35311(10) -0.10140(11) -0.2751(3)
H5I H 0.3332 -0.1068 -0.2225
H6I H 0.3385 -0.1116 -0.3383
C7I C 0.46415(10) -0.11065(10) -0.3179(3)
C8I C 0.39650(9) -0.13099(9) -0.3265(2)
H7I H 0.3818 -0.1399 -0.3909
C9I C 0.40158(9) -0.16442(10) -0.2763(2)
H8I H 0.3885 -0.1896 -0.3159
C10I C 0.36481(9) -0.14726(10) -0.1719(2)
C11I C 0.46317(10) -0.17095(10) -0.2574(3)
H9I H 0.4886 -0.1589 -0.2946
H10I H 0.4456 -0.1979 -0.2853
C12I C 0.37726(10) -0.20075(11) -0.1129(3)
H11I H 0.3554 -0.2058 -0.0666
H12I H 0.3691 -0.2257 -0.1505
C13I C 0.50889(10) -0.15553(11) -0.1161(3)
C14I C 0.44154(10) -0.20179(10) -0.0875(2)
H13I H 0.4280 -0.2299 -0.1126
C15I C 0.46557(10) -0.19749(10) 0.0081(3)
H14I H 0.4635 -0.2234 0.0279
C16I C 0.41660(10) -0.18119(10) 0.0434(3)
C17I C 0.54079(12) -0.15575(13) 0.0410(3)
H15I H 0.5386 -0.1799 0.0727
H16I H 0.5649 -0.1439 -0.0015
C18I C 0.45381(11) -0.18464(11) 0.1866(2)
H17I H 0.4580 -0.2072 0.2032
H18I H 0.4294 -0.1889 0.2212
C19I C 0.57670(12) -0.08840(12) 0.1152(3)
C20I C 0.52823(10) -0.13943(11) 0.2146(2)
H19I H 0.5314 -0.1617 0.2419
C21I C 0.55213(11) -0.10043(10) 0.2766(3)
H20I H 0.5671 -0.1039 0.3327
C22I C 0.48389(11) -0.12279(11) 0.2841(3)
C23I C 0.61364(12) -0.03542(11) 0.2371(3)
H21I H 0.6255 -0.0415 0.2947
H22I H 0.6334 -0.0260 0.1826
C24I C 0.52617(13) -0.06781(12) 0.3957(3)
H23I H 0.5411 -0.0730 0.4476
H24I H 0.4998 -0.0746 0.4234
loop_
_geom_bond_atom_site_label_1
_geom_bond_atom_site_label_2
_geom_bond_site_symmetry_1
_geom_bond_site_symmetry_2
O1 C1 1_555 1_555
O2 C4 1_555 1_555
O3 C7 1_555 1_555
O4 C10 1_555 1_555
O5 C13 1_555 1_555
O6 C16 1_555 1_555
O7 C19 1_555 1_555
O8 C22 1_555 1_555
N1 C1 1_555 1_555
N2 C2 1_555 1_555
N3 C1 1_555 1_555
N4 C3 1_555 1_555
N5 C5 1_555 1_555
N6 C6 1_555 1_555
N7 C7 1_555 1_555
N8 C9 1_555 1_555
N9 C11 1_555 1_555
N10 C12 1_555 1_555
N11 C13 1_555 1_555
N12 C15 1_555 1_555
N13 C17 1_555 1_555
N14 C18 1_555 1_555
N15 C19 1_555 1_555
N16 C21 1_555 1_555
C2 N1 1_555 1_555
H1 C2 1_555 1_555
C3 N3 1_555 1_555
H2 C3 1_555 1_555
C4 N2 1_555 1_555
C5 N3 1_555 1_555
H3 C5 1_555 1_555
H4 C5 1_555 1_555
C6 N4 1_555 1_555
H5 C6 1_555 1_555
H6 C6 1_555 1_555
C7 N5 1_555 1_555
C8 N5 1_555 1_555
H7 C8 1_555 1_555
C9 N7 1_555 1_555
H8 C9 1_555 1_555
C10 N6 1_555 1_555
C11 N7 1_555 1_555
H9 C11 1_555 1_555
H10 C11 1_555 1_555
C12 N8 1_555 1_555
H11 C12 1_555 1_555
H12 C12 1_555 1_555
C13 N9 1_555 1_555
C14 N9 1_555 1_555
H13 C14 1_555 1_555
C15 N11 1_555 1_555
H14 C15 1_555 1_555
C16 N10 1_555 1_555
C17 N11 1_555 1_555
H15 C17 1_555 1_555
H16 C17 1_555 1_555
C18 N12 1_555 1_555
H17 C18 1_555 1_555
H18 C18 1_555 1_555
C19 N13 1_555 1_555
C20 N13 1_555 1_555
H19 C20 1_555 1_555
C21 N15 1_555 1_555
H20 C21 1_555 1_555
C22 N14 1_555 1_555
C23 N15 1_555 1_555
H21 C23 1_555 1_555
H22 C23 1_555 1_555
C24 N16 1_555 1_555
H23 C24 1_555 1_555
H24 C24 1_555 1_555
O1I C1I 1_555 1_555
O2I C4I 1_555 1_555
O3I C7I 1_555 1_555
O4I C10I 1_555 1_555
O5I C13I 1_555 1_555
O6I C16I 1_555 1_555
O7I C19I 1_555 1_555
O8I C22I 1_555 1_555
N1I C24 1_555 1_555
N2I C23 1_555 1_555
N3I C1I 1_555 1_555
N4I C3I 1_555 1_555
N5I C5I 1_555 1_555
N6I C6I 1_555 1_555
N7I C7I 1_555 1_555
N8I C9I 1_555 1_555
N9I C11I 1_555 1_555
N10I C12I 1_555 1_555
N11I C13I 1_555 1_555
N12I C15I 1_555 1_555
N13I C17I 1_555 1_555
N14I C18I 1_555 1_555
N15I C19I 1_555 1_555
N16I C21I 1_555 1_555
C1I N1I 1_555 1_555
C2I N1I 1_555 1_555
H1I C2I 1_555 1_555
C3I N3I 1_555 1_555
H2I C3I 1_555 1_555
C4I N2I 1_555 1_555
C5I N3I 1_555 1_555
H3I C5I 1_555 1_555
H4I C5I 1_555 1_555
C6I N4I 1_555 1_555
H5I C6I 1_555 1_555
H6I C6I 1_555 1_555
C7I N5I 1_555 1_555
C8I N5I 1_555 1_555
H7I C8I 1_555 1_555
C9I N7I 1_555 1_555
H8I C9I 1_555 1_555
C10I N6I 1_555 1_555
C11I N7I 1_555 1_555
H9I C11I 1_555 1_555
H10I C11I 1_555 1_555
C12I N8I 1_555 1_555
H11I C12I 1_555 1_555
H12I C12I 1_555 1_555
C13I N9I 1_555 1_555
C14I N9I 1_555 1_555
H13I C14I 1_555 1_555
C15I N11I 1_555 1_555
H14I C15I 1_555 1_555
C16I N10I 1_555 1_555
C17I N11I 1_555 1_555
H15I C17I 1_555 1_555
H16I C17I 1_555 1_555
C18I N12I 1_555 1_555
H17I C18I 1_555 1_555
H18I C18I 1_555 1_555
C19I N13I 1_555 1_555
C20I N13I 1_555 1_555
H19I C20I 1_555 1_555
C21I N15I 1_555 1_555
H20I C21I 1_555 1_555
C22I N14I 1_555 1_555
C23I N2 1_555 1_555
H21I C23I 1_555 1_555
H22I C23I 1_555 1_555
C24I N1 1_555 1_555
H23I C24I 1_555 1_555
H24I C24I 1_555 1_555
N4 C4 1_555 1_555
N6 C8 1_555 1_555
N8 C10 1_555 1_555
N10 C14 1_555 1_555
N12 C16 1_555 1_555
N14 C20 1_555 1_555
N16 C22 1_555 1_555
C2 C3 1_555 1_555
C8 C9 1_555 1_555
C14 C15 1_555 1_555
C20 C21 1_555 1_555
N2I C2I 1_555 1_555
N4I C4I 1_555 1_555
N6I C8I 1_555 1_555
N8I C10I 1_555 1_555
N10I C14I 1_555 1_555
N12I C16I 1_555 1_555
N14I C20I 1_555 1_555
N15I C23I 1_555 1_555
N16I C22I 1_555 1_555
N16I C24I 1_555 1_555
C2I C3I 1_555 1_555
C8I C9I 1_555 1_555
C14I C15I 1_555 1_555
C20I C21I 1_555 1_555

#END
