
#######################################################################
#
#                 Cambridge Crystallographic Data Centre
#                                CCDC 
#
#######################################################################
#
# If this CIF has been generated from an entry in the Cambridge 
# Structural Database, then it will include bibliographic, chemical, 
# crystal, experimental, refinement or atomic coordinate data resulting 
# from the CCDC's data processing and validation procedures.
#
#######################################################################

data_UWIZOR
_chemical_formula_moiety         'C60 H36 B1 Cl1 N6 S6'
_chemical_name_systematic        
chloro(5,8,14,17,23,26-hexakis(phenylsulfanyl)-2,11,20,28,29,30-hexaazaheptacyclo[19.6.1.1^3,10^.1^12,19^.0^4,9^.0^13,18^.0^22,27^]triaconta-1(28),2,4,6,8,10,12,14,16,18,20,22,24,26-tetradecaenato)boron
_symmetry_cell_setting           rhombohedral
_symmetry_space_group_name_H-M   'R -3'
_symmetry_Int_Tables_number      148
_space_group_name_Hall           '-R 3'
loop_
_symmetry_equiv_pos_site_id
_symmetry_equiv_pos_as_xyz
1 x,y,z
2 1/3+x,2/3+y,2/3+z
3 2/3+x,1/3+y,1/3+z
4 -y,x-y,z
5 1/3-y,2/3+x-y,2/3+z
6 2/3-y,1/3+x-y,1/3+z
7 -x+y,-x,z
8 1/3-x+y,2/3-x,2/3+z
9 2/3-x+y,1/3-x,1/3+z
10 -x,-y,-z
11 2/3-x,1/3-y,1/3-z
12 1/3-x,2/3-y,2/3-z
13 y,-x+y,-z
14 2/3+y,1/3-x+y,1/3-z
15 1/3+y,2/3-x+y,2/3-z
16 x-y,x,-z
17 2/3+x-y,1/3+x,1/3-z
18 1/3+x-y,2/3+x,2/3-z
_cell_length_a                   21.6424(7)
_cell_length_b                   21.6424(7)
_cell_length_c                   19.4859(13)
_cell_angle_alpha                90
_cell_angle_beta                 90
_cell_angle_gamma                120
_cell_volume                     7904.27
_exptl_crystal_colour            blue
_exptl_crystal_description       block
_cell_formula_units_Z            6
loop_
_atom_site_label
_atom_site_type_symbol
_atom_site_fract_x
_atom_site_fract_y
_atom_site_fract_z
Cl1 Cl 0.6667 0.3333 0.41018(13)
B1 B 0.6667 0.3333 0.5043(6)
N1 N 0.7347(2) 0.3477(2) 0.5345(2)
C1 C 0.7867(3) 0.4140(3) 0.5530(3)
N2 N 0.7744(2) 0.4698(2) 0.5579(2)
C2 C 0.7481(3) 0.2947(3) 0.5524(3)
C3 C 0.8226(3) 0.3308(3) 0.5719(3)
C4 C 0.8474(3) 0.4061(3) 0.5740(3)
C5 C 0.9174(2) 0.4551(3) 0.5928(3)
S1 S 0.94373(7) 0.54668(7) 0.59137(8)
C6 C 1.0278(3) 0.5871(3) 0.6336(3)
C7 C 1.0329(3) 0.5849(3) 0.7040(4)
C8 C 1.0996(3) 0.6229(3) 0.7357(3)
C9 C 1.1592(3) 0.6626(3) 0.6967(4)
C10 C 1.1540(3) 0.6642(3) 0.6252(5)
C11 C 1.0900(3) 0.6275(3) 0.5948(4)
C12 C 0.9622(3) 0.4285(3) 0.6070(3)
C13 C 0.9394(3) 0.3557(3) 0.6037(3)
C14 C 0.8699(3) 0.3053(3) 0.5851(3)
S2 S 0.83861(8) 0.21351(7) 0.57610(10)
C15 C 0.9174(3) 0.2123(3) 0.5504(4)
C16 C 0.9483(4) 0.2332(4) 0.4849(4)
C17 C 1.0040(5) 0.2252(5) 0.4670(5)
C18 C 1.0316(4) 0.1971(5) 0.5140(5)
C19 C 1.0047(4) 0.1778(4) 0.5801(5)
C20 C 0.9471(4) 0.1866(4) 0.5980(4)
H1 H 0.9904 0.5565 0.7305
H2 H 1.1037 0.6221 0.7824
H3 H 1.2036 0.6886 0.7182
H4 H 1.1947 0.6911 0.5989
H5 H 1.0863 0.6284 0.5473
H6 H 1.0101 0.4606 0.6184
H7 H 0.9726 0.3402 0.6120
H8 H 0.9285 0.2516 0.4536
H9 H 1.0246 0.2382 0.4234
H10 H 1.0704 0.1906 0.5018
H11 H 1.0245 0.1579 0.6110
H12 H 0.9270 0.1745 0.6428
N1C N 0.6523(2) 0.3870(3) 0.5345(2)
C1C C 0.5860(3) 0.3727(4) 0.5530(3)
N2C N 0.5302(2) 0.3046(3) 0.5579(2)
C2C C 0.7053(3) 0.4534(4) 0.5524(3)
C3C C 0.6692(3) 0.4918(4) 0.5719(3)
C4C C 0.5939(3) 0.4413(4) 0.5740(3)
C5C C 0.5449(3) 0.4623(4) 0.5928(3)
S1C S 0.45332(7) 0.39705(10) 0.59137(8)
C6C C 0.4129(3) 0.4407(4) 0.6336(3)
C7C C 0.4151(3) 0.4480(4) 0.7040(4)
C8C C 0.3771(3) 0.4767(4) 0.7357(3)
C9C C 0.3374(3) 0.4966(4) 0.6967(4)
C10C C 0.3358(3) 0.4898(4) 0.6252(5)
C11C C 0.3725(3) 0.4625(4) 0.5948(4)
C12C C 0.5715(3) 0.5337(4) 0.6070(3)
C13C C 0.6443(3) 0.5837(4) 0.6037(3)
C14C C 0.6947(3) 0.5646(4) 0.5851(3)
S2C S 0.78649(7) 0.62510(11) 0.57610(10)
C15C C 0.7877(3) 0.7051(4) 0.5504(4)
C16C C 0.7668(4) 0.7151(6) 0.4849(4)
C17C C 0.7748(5) 0.7788(7) 0.4670(5)
C18C C 0.8029(5) 0.8345(6) 0.5140(5)
C19C C 0.8222(4) 0.8269(6) 0.5801(5)
C20C C 0.8134(4) 0.7605(6) 0.5980(4)
H1C H 0.4435 0.4339 0.7305
H2C H 0.3779 0.4816 0.7824
H3C H 0.3114 0.5150 0.7182
H4C H 0.3089 0.5036 0.5989
H5C H 0.3716 0.4579 0.5473
H6C H 0.5394 0.5495 0.6184
H7C H 0.6598 0.6324 0.6120
H8C H 0.7484 0.6769 0.4536
H9C H 0.7618 0.7864 0.4234
H10C H 0.8094 0.8798 0.5018
H11C H 0.8421 0.8666 0.6110
H12C H 0.8255 0.7525 0.6428
N1F N 0.6130(3) 0.2653(2) 0.5345(2)
C1F C 0.6273(4) 0.2133(3) 0.5530(3)
N2F N 0.6954(3) 0.2256(2) 0.5579(2)
C2F C 0.5466(4) 0.2519(3) 0.5524(3)
C3F C 0.5082(4) 0.1774(3) 0.5719(3)
C4F C 0.5587(4) 0.1526(3) 0.5740(3)
C5F C 0.5377(4) 0.0826(2) 0.5928(3)
S1F S 0.60295(10) 0.05627(7) 0.59137(8)
C6F C 0.5593(4) -0.0278(3) 0.6336(3)
C7F C 0.5520(4) -0.0329(3) 0.7040(4)
C8F C 0.5233(4) -0.0996(3) 0.7357(3)
C9F C 0.5034(4) -0.1592(3) 0.6967(4)
C10F C 0.5102(4) -0.1540(3) 0.6252(5)
C11F C 0.5375(4) -0.0900(3) 0.5948(4)
C12F C 0.4663(4) 0.0378(3) 0.6070(3)
C13F C 0.4163(4) 0.0606(3) 0.6037(3)
C14F C 0.4354(4) 0.1301(3) 0.5851(3)
S2F S 0.37490(11) 0.16139(8) 0.57610(10)
C15F C 0.2949(4) 0.0826(3) 0.5504(4)
C16F C 0.2849(6) 0.0517(4) 0.4849(4)
C17F C 0.2212(7) -0.0040(5) 0.4670(5)
C18F C 0.1655(6) -0.0316(4) 0.5140(5)
C19F C 0.1731(6) -0.0047(4) 0.5801(5)
C20F C 0.2395(6) 0.0529(4) 0.5980(4)
H1F H 0.5661 0.0096 0.7305
H2F H 0.5184 -0.1037 0.7824
H3F H 0.4850 -0.2036 0.7182
H4F H 0.4964 -0.1947 0.5989
H5F H 0.5421 -0.0863 0.5473
H6F H 0.4505 -0.0101 0.6184
H7F H 0.3676 0.0274 0.6120
H8F H 0.3231 0.0715 0.4536
H9F H 0.2136 -0.0246 0.4234
H10F H 0.1202 -0.0704 0.5018
H11F H 0.1334 -0.0245 0.6110
H12F H 0.2475 0.0730 0.6428
loop_
_geom_bond_atom_site_label_1
_geom_bond_atom_site_label_2
_geom_bond_site_symmetry_1
_geom_bond_site_symmetry_2
Cl1 B1 1_555 1_555
B1 N1 1_555 1_555
N1 C1 1_555 1_555
C1 N2 1_555 1_555
N2 C2C 1_555 1_555
C2 N1 1_555 1_555
C3 C2 1_555 1_555
C4 C1 1_555 1_555
C5 C4 1_555 1_555
S1 C5 1_555 1_555
C6 S1 1_555 1_555
C7 C6 1_555 1_555
C8 C7 1_555 1_555
C9 C8 1_555 1_555
C10 C9 1_555 1_555
C11 C6 1_555 1_555
C12 C5 1_555 1_555
C13 C12 1_555 1_555
C14 C3 1_555 1_555
S2 C14 1_555 1_555
C15 S2 1_555 1_555
C16 C15 1_555 1_555
C17 C16 1_555 1_555
C18 C17 1_555 1_555
C19 C18 1_555 1_555
C20 C15 1_555 1_555
H1 C7 1_555 1_555
H2 C8 1_555 1_555
H3 C9 1_555 1_555
H4 C10 1_555 1_555
H5 C11 1_555 1_555
H6 C12 1_555 1_555
H7 C13 1_555 1_555
H8 C16 1_555 1_555
H9 C17 1_555 1_555
H10 C18 1_555 1_555
H11 C19 1_555 1_555
H12 C20 1_555 1_555
N1C B1 1_555 1_555
C1C N1C 1_555 1_555
N2C C1C 1_555 1_555
C2C N1C 1_555 1_555
C3C C2C 1_555 1_555
C4C C1C 1_555 1_555
C5C C4C 1_555 1_555
S1C C5C 1_555 1_555
C6C S1C 1_555 1_555
C7C C6C 1_555 1_555
C8C C7C 1_555 1_555
C9C C8C 1_555 1_555
C10C C9C 1_555 1_555
C11C C6C 1_555 1_555
C12C C5C 1_555 1_555
C13C C12C 1_555 1_555
C14C C3C 1_555 1_555
S2C C14C 1_555 1_555
C15C S2C 1_555 1_555
C16C C15C 1_555 1_555
C17C C16C 1_555 1_555
C18C C17C 1_555 1_555
C19C C18C 1_555 1_555
C20C C15C 1_555 1_555
H1C C7C 1_555 1_555
H2C C8C 1_555 1_555
H3C C9C 1_555 1_555
H4C C10C 1_555 1_555
H5C C11C 1_555 1_555
H6C C12C 1_555 1_555
H7C C13C 1_555 1_555
H8C C16C 1_555 1_555
H9C C17C 1_555 1_555
H10C C18C 1_555 1_555
H11C C19C 1_555 1_555
H12C C20C 1_555 1_555
N1F B1 1_555 1_555
C1F N1F 1_555 1_555
N2F C2 1_555 1_555
C2F N2C 1_555 1_555
C3F C2F 1_555 1_555
C4F C1F 1_555 1_555
C5F C4F 1_555 1_555
S1F C5F 1_555 1_555
C6F S1F 1_555 1_555
C7F C6F 1_555 1_555
C8F C7F 1_555 1_555
C9F C8F 1_555 1_555
C10F C9F 1_555 1_555
C11F C6F 1_555 1_555
C12F C5F 1_555 1_555
C13F C12F 1_555 1_555
C14F C3F 1_555 1_555
S2F C14F 1_555 1_555
C15F S2F 1_555 1_555
C16F C15F 1_555 1_555
C17F C16F 1_555 1_555
C18F C17F 1_555 1_555
C19F C18F 1_555 1_555
C20F C15F 1_555 1_555
H1F C7F 1_555 1_555
H2F C8F 1_555 1_555
H3F C9F 1_555 1_555
H4F C10F 1_555 1_555
H5F C11F 1_555 1_555
H6F C12F 1_555 1_555
H7F C13F 1_555 1_555
H8F C16F 1_555 1_555
H9F C17F 1_555 1_555
H10F C18F 1_555 1_555
H11F C19F 1_555 1_555
H12F C20F 1_555 1_555
C3 C4 1_555 1_555
C10 C11 1_555 1_555
C13 C14 1_555 1_555
C19 C20 1_555 1_555
C3C C4C 1_555 1_555
C10C C11C 1_555 1_555
C13C C14C 1_555 1_555
C19C C20C 1_555 1_555
N1F C2F 1_555 1_555
C1F N2F 1_555 1_555
C3F C4F 1_555 1_555
C10F C11F 1_555 1_555
C13F C14F 1_555 1_555
C19F C20F 1_555 1_555

#END
