
#######################################################################
#
#                 Cambridge Crystallographic Data Centre
#                                CCDC 
#
#######################################################################
#
# If this CIF has been generated from an entry in the Cambridge 
# Structural Database, then it will include bibliographic, chemical, 
# crystal, experimental, refinement or atomic coordinate data resulting 
# from the CCDC's data processing and validation procedures.
#
#######################################################################

data_UWOFES
_chemical_formula_moiety         'C90 H48 B6 Cl12 N12 O12,C18 H12'
_chemical_name_systematic        
"N,N'-tris(B,B'-bis(5,6-dichloro-1,3,2-benzodioxaborole)-1,4-phenylene)-bis(2,4,6-tri(4-pyridyl)-1,3,5-triazine) triphenylene clathrate"
_symmetry_cell_setting           rhombohedral
_symmetry_space_group_name_H-M   'R -3 c'
_symmetry_Int_Tables_number      167
_space_group_name_Hall           '-R 3 2"c'
loop_
_symmetry_equiv_pos_site_id
_symmetry_equiv_pos_as_xyz
1 x,y,z
2 -y,x-y,z
3 -x+y,-x,z
4 y,x,1/2-z
5 x-y,-y,1/2-z
6 -x,-x+y,1/2-z
7 2/3+x,1/3+y,1/3+z
8 2/3-y,1/3+x-y,1/3+z
9 2/3-x+y,1/3-x,1/3+z
10 2/3+y,1/3+x,5/6-z
11 2/3+x-y,1/3-y,5/6-z
12 2/3-x,1/3-x+y,5/6-z
13 1/3+x,2/3+y,2/3+z
14 1/3-y,2/3+x-y,2/3+z
15 1/3-x+y,2/3-x,2/3+z
16 1/3+y,2/3+x,1/6-z
17 1/3+x-y,2/3-y,1/6-z
18 1/3-x,2/3-x+y,1/6-z
19 -x,-y,-z
20 y,-x+y,-z
21 x-y,x,-z
22 -y,-x,1/2+z
23 -x+y,y,1/2+z
24 x,x-y,1/2+z
25 1/3-x,2/3-y,2/3-z
26 1/3+y,2/3-x+y,2/3-z
27 1/3+x-y,2/3+x,2/3-z
28 1/3-y,2/3-x,1/6+z
29 1/3-x+y,2/3+y,1/6+z
30 1/3+x,2/3+x-y,1/6+z
31 2/3-x,1/3-y,1/3-z
32 2/3+y,1/3-x+y,1/3-z
33 2/3+x-y,1/3+x,1/3-z
34 2/3-y,1/3-x,5/6+z
35 2/3-x+y,1/3+y,5/6+z
36 2/3+x,1/3+x-y,5/6+z
_cell_length_a                   13.5162(6)
_cell_length_b                   13.5162(6)
_cell_length_c                   93.155(5)
_cell_angle_alpha                90
_cell_angle_beta                 90
_cell_angle_gamma                120
_cell_volume                     14738.3
_exptl_crystal_colour            yellow
_exptl_crystal_description       plate
_cell_formula_units_Z            6
loop_
_atom_site_label
_atom_site_type_symbol
_atom_site_fract_x
_atom_site_fract_y
_atom_site_fract_z
B1 B 0.8563(5) 0.2092(5) 0.94862(6)
C1 C 0.8752(4) 0.2183(4) 0.93194(5)
C2 C 0.9298(4) 0.1677(4) 0.92495(6)
H1 H 0.9648 0.1364 0.9304
C3 C 0.8289(4) 0.2673(4) 0.92321(7)
H2 H 0.7932 0.3038 0.9274
C4 C 0.9366(4) 0.2536(4) 0.97059(6)
C5 C 0.8649(4) 0.3007(4) 0.96925(6)
C6 C 0.8405(4) 0.3488(4) 0.98064(6)
H3 H 0.7944 0.3814 0.9796
C7 C 0.8877(5) 0.3469(5) 0.99387(6)
C8 C 0.9614(5) 0.3025(5) 0.99522(6)
C9 C 0.9865(4) 0.2573(5) 0.98345(6)
H4 H 1.0368 0.2295 0.9843
O1 O 0.9441(2) 0.2080(3) 0.95774(4)
O2 O 0.8287(3) 0.2911(2) 0.95533(4)
Cl1 Cl 0.85306(14) 0.40123(15) 1.008610(17)
Cl2 Cl 1.01989(15) 0.30265(19) 1.011515(17)
N1 N 0.3325(3) -0.2326(3) 0.95458(4)
C10 C 0.4285(4) -0.2374(4) 0.95456(4)
C11 C 0.5369(4) -0.1267(4) 0.95386(4)
C12 C 0.6429(4) -0.1204(4) 0.95386(5)
H5 H 0.6479 -0.1863 0.9547
C13 C 0.7396(4) -0.0157(4) 0.95261(5)
H6 H 0.8101 -0.0121 0.9525
N2 N 0.7367(3) 0.0815(3) 0.95159(4)
C14 C 0.6360(4) 0.0757(4) 0.95169(5)
H7 H 0.6334 0.1429 0.9509
C15 C 0.5360(4) -0.0255(4) 0.95286(5)
H8 H 0.4669 -0.0261 0.9530
B1A B -0.2092(5) -0.3529(7) 0.94862(6)
B1B B 0.3529(7) -0.8563(5) 0.94862(6)
B1I B 0.8759(5) 0.1896(5) 0.88471(6)
B1J B 0.3138(7) -0.8759(5) 0.88471(6)
B1K B -0.1896(5) -0.3138(7) 0.88471(6)
C1A C -0.2183(4) -0.3431(6) 0.93194(5)
C1B C 0.3431(6) -0.8752(4) 0.93194(5)
C1I C 0.8850(4) 0.2085(4) 0.90139(5)
C1J C 0.3236(6) -0.8850(4) 0.90139(5)
C1K C -0.2085(4) -0.3236(6) 0.90139(5)
C2A C -0.1677(4) -0.2379(6) 0.92495(6)
C2B C 0.2379(6) -0.9298(4) 0.92495(6)
C2I C 0.8344(4) 0.2631(4) 0.90838(6)
C2J C 0.4288(6) -0.8344(4) 0.90838(6)
C2K C -0.2631(4) -0.4288(6) 0.90838(6)
H1A H -0.1364 -0.1716 0.9304
H1B H 0.1716 -0.9648 0.9304
H1I H 0.8031 0.2981 0.9029
H1J H 0.4951 -0.8031 0.9029
H1K H -0.2981 -0.4951 0.9029
C3A C -0.2673(4) -0.4384(6) 0.92321(7)
C3B C 0.4384(6) -0.8289(4) 0.92321(7)
C3I C 0.9340(4) 0.1622(4) 0.91012(7)
C3J C 0.2283(6) -0.9340(4) 0.91012(7)
C3K C -0.1622(4) -0.2283(6) 0.91012(7)
H2A H -0.3038 -0.5106 0.9274
H2B H 0.5106 -0.7932 0.9274
H2I H 0.9705 0.1265 0.9059
H2J H 0.1561 -0.9705 0.9059
H2K H -0.1265 -0.1561 0.9059
C4A C -0.2536(4) -0.3170(6) 0.97059(6)
C4B C 0.3170(6) -0.9366(4) 0.97059(6)
C4I C 0.9203(4) 0.2699(4) 0.86274(6)
C4J C 0.3497(6) -0.9203(4) 0.86274(6)
C4K C -0.2699(4) -0.3497(6) 0.86274(6)
C5A C -0.3007(4) -0.4358(6) 0.96925(6)
C5B C 0.4358(6) -0.8649(4) 0.96925(6)
C5I C 0.9674(4) 0.1982(4) 0.86408(6)
C5J C 0.2309(6) -0.9674(4) 0.86408(6)
C5K C -0.1982(4) -0.2309(6) 0.86408(6)
C6A C -0.3488(4) -0.5083(6) 0.98064(6)
C6B C 0.5083(6) -0.8405(4) 0.98064(6)
C6I C 1.0155(4) 0.1738(4) 0.85269(6)
C6J C 0.1584(6) -1.0155(4) 0.85269(6)
C6K C -0.1738(4) -0.1584(6) 0.85269(6)
H3A H -0.3814 -0.5870 0.9796
H3B H 0.5870 -0.7944 0.9796
H3I H 1.0481 0.1277 0.8537
H3J H 0.0797 -1.0481 0.8537
H3K H -0.1277 -0.0797 0.8537
C7A C -0.3469(5) -0.4592(7) 0.99387(6)
C7B C 0.4592(7) -0.8877(5) 0.99387(6)
C7I C 1.0136(5) 0.2210(5) 0.83946(6)
C7J C 0.2075(7) -1.0136(5) 0.83946(6)
C7K C -0.2210(5) -0.2075(7) 0.83946(6)
C8A C -0.3025(5) -0.3411(7) 0.99522(6)
C8B C 0.3411(7) -0.9614(5) 0.99522(6)
C8I C 0.9692(5) 0.2947(5) 0.83811(6)
C8J C 0.3256(7) -0.9692(5) 0.83811(6)
C8K C -0.2947(5) -0.3256(7) 0.83811(6)
C9A C -0.2573(5) -0.2708(6) 0.98345(6)
C9B C 0.2708(6) -0.9865(4) 0.98345(6)
C9I C 0.9240(5) 0.3198(4) 0.84988(6)
C9J C 0.3959(6) -0.9240(5) 0.84988(6)
C9K C -0.3198(4) -0.3959(6) 0.84988(6)
H4A H -0.2295 -0.1927 0.9843
H4B H 0.1927 -1.0368 0.9843
H4I H 0.8962 0.3701 0.8490
H4J H 0.4740 -0.8962 0.8490
H4K H -0.3701 -0.4740 0.8490
O1A O -0.2080(3) -0.2639(4) 0.95774(4)
O1B O 0.2639(4) -0.9441(2) 0.95774(4)
O1I O 0.8747(3) 0.2774(2) 0.87559(4)
O1J O 0.4028(4) -0.8747(3) 0.87559(4)
O1K O -0.2774(2) -0.4028(4) 0.87559(4)
O2A O -0.2911(2) -0.4624(4) 0.95533(4)
O2B O 0.4624(4) -0.8287(3) 0.95533(4)
O2I O 0.9578(2) 0.1620(3) 0.87800(4)
O2J O 0.2043(4) -0.9578(2) 0.87800(4)
O2K O -0.1620(3) -0.2043(4) 0.87800(4)
Cl1A Cl -0.40123(15) -0.54817(21) 1.008610(17)
Cl1B Cl 0.54817(21) -0.85306(14) 1.008610(17)
Cl1I Cl 1.06790(15) 0.18639(14) 0.824723(17)
Cl1J Cl 0.11850(21) -1.06790(15) 0.824723(17)
Cl1K Cl -0.18639(14) -0.11850(21) 0.824723(17)
Cl2A Cl -0.30265(19) -0.28276(24) 1.011515(17)
Cl2B Cl 0.28276(24) -1.01989(15) 1.011515(17)
Cl2I Cl 0.96932(19) 0.35322(15) 0.821818(17)
Cl2J Cl 0.38391(24) -0.96932(19) 0.821818(17)
Cl2K Cl -0.35322(15) -0.38391(24) 0.821818(17)
N1A N 0.2326(3) -0.4349(4) 0.95458(4)
N1B N 0.4349(4) -0.3325(3) 0.95458(4)
N1I N 0.4341(3) -0.3342(3) 0.87875(4)
N1J N 0.2318(4) -0.4341(3) 0.87875(4)
N1K N 0.3342(3) -0.2318(4) 0.87875(4)
C10A C 0.2374(4) -0.3341(6) 0.95456(4)
C10B C 0.3341(6) -0.4285(4) 0.95456(4)
C10I C 0.4293(4) -0.2382(4) 0.87877(4)
C10J C 0.3326(6) -0.4293(4) 0.87877(4)
C10K C 0.2382(4) -0.3326(6) 0.87877(4)
C11A C 0.1267(4) -0.3364(6) 0.95386(4)
C11B C 0.3364(6) -0.5369(4) 0.95386(4)
C11I C 0.5400(4) -0.1298(4) 0.87947(4)
C11J C 0.3303(6) -0.5400(4) 0.87947(4)
C11K C 0.1298(4) -0.3303(6) 0.87947(4)
C12A C 0.1204(4) -0.2367(6) 0.95386(5)
C12B C 0.2367(6) -0.6429(4) 0.95386(5)
C12I C 0.5463(4) -0.0238(4) 0.87947(5)
C12J C 0.4300(6) -0.5463(4) 0.87947(5)
C12K C 0.0238(4) -0.4300(6) 0.87947(5)
H5A H 0.1863 -0.1658 0.9547
H5B H 0.1658 -0.6479 0.9547
H5I H 0.4804 -0.0188 0.8786
H5J H 0.5009 -0.4804 0.8786
H5K H 0.0188 -0.5009 0.8786
C13A C 0.0157(4) -0.2447(6) 0.95261(5)
C13B C 0.2447(6) -0.7396(4) 0.95261(5)
C13I C 0.6510(4) 0.0729(4) 0.88072(5)
C13J C 0.4220(6) -0.6510(4) 0.88072(5)
C13K C -0.0729(4) -0.4220(6) 0.88072(5)
H6A H 0.0121 -0.1778 0.9525
H6B H 0.1778 -0.8101 0.9525
H6I H 0.6546 0.1434 0.8808
H6J H 0.4889 -0.6546 0.8808
H6K H -0.1434 -0.4889 0.8808
N2A N -0.0815(3) -0.3448(4) 0.95159(4)
N2B N 0.3448(4) -0.7367(3) 0.95159(4)
N2I N 0.7482(3) 0.0700(3) 0.88174(4)
N2J N 0.3219(4) -0.7482(3) 0.88174(4)
N2K N -0.0700(3) -0.3219(4) 0.88174(4)
C14A C -0.0757(4) -0.4397(6) 0.95169(5)
C14B C 0.4397(6) -0.6360(4) 0.95169(5)
C14I C 0.7424(4) -0.0307(4) 0.88164(5)
C14J C 0.2270(6) -0.7424(4) 0.88164(5)
C14K C 0.0307(4) -0.2270(6) 0.88164(5)
H7A H -0.1429 -0.5095 0.9509
H7B H 0.5095 -0.6334 0.9509
H7I H 0.8096 -0.0333 0.8824
H7J H 0.1572 -0.8096 0.8824
H7K H 0.0333 -0.1572 0.8824
C15A C 0.0255(4) -0.4385(6) 0.95286(5)
C15B C 0.4385(6) -0.5360(4) 0.95286(5)
C15I C 0.6412(4) -0.1307(4) 0.88047(5)
C15J C 0.2282(6) -0.6412(4) 0.88047(5)
C15K C 0.1307(4) -0.2282(6) 0.88047(5)
H8A H 0.0261 -0.5070 0.9530
H8B H 0.5070 -0.4669 0.9530
H8I H 0.6406 -0.1998 0.8803
H8J H 0.1597 -0.6406 0.8803
H8K H 0.1998 -0.1597 0.8803
C16 C 0.5750(6) 0.9649(5) 0.91666(9)
H9 H 0.6155 1.0444 0.9167
C17 C 0.4564(6) 0.9079(5) 0.91658(6)
H10 H 0.4178 0.9487 0.9165
C18 C 0.3954(4) 0.7881(4) 0.91667(5)
C16I C 0.6316(5) 0.9083(6) 0.91667(9)
C16K C 0.0917(6) 0.7232(8) 0.91667(9)
C16A C 0.0351(5) 0.6101(8) 0.91666(9)
C16B C 0.3899(8) 0.4250(6) 0.91666(9)
C16J C 0.2768(8) 0.3684(5) 0.91667(9)
H9I H 0.7111 0.9488 0.9166
H9K H 0.0512 0.7622 0.9166
H9A H -0.0444 0.5711 0.9167
H9B H 0.4289 0.3845 0.9167
H9J H 0.2378 0.2889 0.9166
C17I C 0.5746(5) 0.7897(6) 0.91675(6)
C17K C 0.2103(6) 0.7848(8) 0.91675(6)
C17A C 0.0921(5) 0.5485(8) 0.91658(6)
C17B C 0.4515(8) 0.5436(6) 0.91658(6)
C17J C 0.2152(8) 0.4254(5) 0.91675(6)
H10I H 0.6154 0.7511 0.9168
H10K H 0.2489 0.8642 0.9168
H10A H 0.0513 0.4691 0.9165
H10B H 0.5309 0.5822 0.9165
H10J H 0.1358 0.3846 0.9168
C18I C 0.4548(4) 0.7287(4) 0.91666(5)
C18K C 0.2713(4) 0.7260(6) 0.91666(5)
C18A C 0.2119(4) 0.6073(6) 0.91667(5)
C18B C 0.3927(6) 0.6046(4) 0.91667(5)
C18J C 0.2740(6) 0.5452(4) 0.91666(5)
loop_
_geom_bond_atom_site_label_1
_geom_bond_atom_site_label_2
_geom_bond_site_symmetry_1
_geom_bond_site_symmetry_2
B1 C1 1_555 1_555
C1 C2 1_555 1_555
C2 H1 1_555 1_555
C3 C1 1_555 1_555
H2 C3 1_555 1_555
C4 C5 1_555 1_555
C5 C6 1_555 1_555
C6 H3 1_555 1_555
C7 C6 1_555 1_555
C8 C7 1_555 1_555
C9 C4 1_555 1_555
H4 C9 1_555 1_555
O1 B1 1_555 1_555
O2 B1 1_555 1_555
Cl1 C7 1_555 1_555
Cl2 C8 1_555 1_555
N1 C10 1_555 1_555
C10 C11 1_555 1_555
C11 C12 1_555 1_555
C12 H5 1_555 1_555
C13 C12 1_555 1_555
H6 C13 1_555 1_555
N2 B1 1_555 1_555
C14 N2 1_555 1_555
H7 C14 1_555 1_555
C15 C11 1_555 1_555
H8 C15 1_555 1_555
C16 H9 1_555 1_555
C17 C16 1_555 1_555
H10 C17 1_555 1_555
C18 C17 1_555 1_555
B1A C1A 1_555 1_555
B1B C1B 1_555 1_555
B1I C1I 1_555 1_555
B1J C1J 1_555 1_555
B1K C1K 1_555 1_555
C1A C2A 1_555 1_555
C1B C2B 1_555 1_555
C1I C2I 1_555 1_555
C1J C2J 1_555 1_555
C1K C2K 1_555 1_555
C2A H1A 1_555 1_555
C2B H1B 1_555 1_555
C2I C3 1_555 1_555
C2J H1J 1_555 1_555
C2K H1K 1_555 1_555
H1I C2I 1_555 1_555
C3A C1A 1_555 1_555
C3B C1B 1_555 1_555
C3I C2 1_555 1_555
C3J C1J 1_555 1_555
C3K C1K 1_555 1_555
H2A C3A 1_555 1_555
H2B C3B 1_555 1_555
H2I C3I 1_555 1_555
H2J C3J 1_555 1_555
H2K C3K 1_555 1_555
C4A C5A 1_555 1_555
C4B C5B 1_555 1_555
C4I C5I 1_555 1_555
C4J C5J 1_555 1_555
C4K C5K 1_555 1_555
C5A C6A 1_555 1_555
C5B C6B 1_555 1_555
C5I C6I 1_555 1_555
C5J C6J 1_555 1_555
C5K C6K 1_555 1_555
C6A H3A 1_555 1_555
C6B H3B 1_555 1_555
C6I H3I 1_555 1_555
C6J H3J 1_555 1_555
C6K H3K 1_555 1_555
C7A C6A 1_555 1_555
C7B C6B 1_555 1_555
C7I C6I 1_555 1_555
C7J C6J 1_555 1_555
C7K C6K 1_555 1_555
C8A C7A 1_555 1_555
C8B C7B 1_555 1_555
C8I C7I 1_555 1_555
C8J C7J 1_555 1_555
C8K C7K 1_555 1_555
C9A C4A 1_555 1_555
C9B C4B 1_555 1_555
C9I C4I 1_555 1_555
C9J C4J 1_555 1_555
C9K C4K 1_555 1_555
H4A C9A 1_555 1_555
H4B C9B 1_555 1_555
H4I C9I 1_555 1_555
H4J C9J 1_555 1_555
H4K C9K 1_555 1_555
O1A B1A 1_555 1_555
O1B B1B 1_555 1_555
O1I B1I 1_555 1_555
O1J B1J 1_555 1_555
O1K B1K 1_555 1_555
O2A B1A 1_555 1_555
O2B B1B 1_555 1_555
O2I B1I 1_555 1_555
O2J B1J 1_555 1_555
O2K B1K 1_555 1_555
Cl1A C7A 1_555 1_555
Cl1B C7B 1_555 1_555
Cl1I C7I 1_555 1_555
Cl1J C7J 1_555 1_555
Cl1K C7K 1_555 1_555
Cl2A C8A 1_555 1_555
Cl2B C8B 1_555 1_555
Cl2I C8I 1_555 1_555
Cl2J C8J 1_555 1_555
Cl2K C8K 1_555 1_555
N1A C10A 1_555 1_555
N1B C10 1_555 1_555
N1I C10I 1_555 1_555
N1J C10J 1_555 1_555
N1K C10I 1_555 1_555
C10A N1 1_555 1_555
C10B N1A 1_555 1_555
C10I C11I 1_555 1_555
C10J N1I 1_555 1_555
C10K N1J 1_555 1_555
C11A C10A 1_555 1_555
C11B C10B 1_555 1_555
C11I C12I 1_555 1_555
C11J C10J 1_555 1_555
C11K C10K 1_555 1_555
C12A C11A 1_555 1_555
C12B C11B 1_555 1_555
C12I H5I 1_555 1_555
C12J C11J 1_555 1_555
C12K C11K 1_555 1_555
H5A C12A 1_555 1_555
H5B C12B 1_555 1_555
H5J C12J 1_555 1_555
H5K C12K 1_555 1_555
C13A C12A 1_555 1_555
C13B C12B 1_555 1_555
C13I C12I 1_555 1_555
C13J C12J 1_555 1_555
C13K C12K 1_555 1_555
H6A C13A 1_555 1_555
H6B C13B 1_555 1_555
H6I C13I 1_555 1_555
H6J C13J 1_555 1_555
H6K C13K 1_555 1_555
N2A B1A 1_555 1_555
N2B B1B 1_555 1_555
N2I B1I 1_555 1_555
N2J B1J 1_555 1_555
N2K B1K 1_555 1_555
C14A N2A 1_555 1_555
C14B N2B 1_555 1_555
C14I N2I 1_555 1_555
C14J N2J 1_555 1_555
C14K N2K 1_555 1_555
H7A C14A 1_555 1_555
H7B C14B 1_555 1_555
H7I C14I 1_555 1_555
H7J C14J 1_555 1_555
H7K C14K 1_555 1_555
C15A C11A 1_555 1_555
C15B C11B 1_555 1_555
C15I C11I 1_555 1_555
C15J C11J 1_555 1_555
C15K C11K 1_555 1_555
H8A C15A 1_555 1_555
H8B C15B 1_555 1_555
H8I C15I 1_555 1_555
H8J C15J 1_555 1_555
H8K C15K 1_555 1_555
C16I C16 1_555 1_555
C16K C16A 1_555 1_555
C16A H9A 1_555 1_555
C16B C16J 1_555 1_555
C16J H9J 1_555 1_555
H9I C16I 1_555 1_555
H9K C16K 1_555 1_555
H9B C16B 1_555 1_555
C17I C16I 1_555 1_555
C17K C16K 1_555 1_555
C17A C16A 1_555 1_555
C17B C16B 1_555 1_555
C17J C16J 1_555 1_555
H10I C17I 1_555 1_555
H10K C17K 1_555 1_555
H10A C17A 1_555 1_555
H10B C17B 1_555 1_555
H10J C17J 1_555 1_555
C18I C18 1_555 1_555
C18K C18 1_555 1_555
C18A C17A 1_555 1_555
C18B C17B 1_555 1_555
C18J C17J 1_555 1_555
C4 O1 1_555 1_555
C5 O2 1_555 1_555
C8 C9 1_555 1_555
C13 N2 1_555 1_555
C14 C15 1_555 1_555
C1I C3I 1_555 1_555
C2A C3K 1_555 1_555
C2B C3J 1_555 1_555
C2J C3B 1_555 1_555
C2K C3A 1_555 1_555
C4A O1A 1_555 1_555
C4B O1B 1_555 1_555
C4I O1I 1_555 1_555
C4J O1J 1_555 1_555
C4K O1K 1_555 1_555
C5A O2A 1_555 1_555
C5B O2B 1_555 1_555
C5I O2I 1_555 1_555
C5J O2J 1_555 1_555
C5K O2K 1_555 1_555
C8A C9A 1_555 1_555
C8B C9B 1_555 1_555
C8I C9I 1_555 1_555
C8J C9J 1_555 1_555
C8K C9K 1_555 1_555
N1B C10B 1_555 1_555
N1K C10K 1_555 1_555
C13A N2A 1_555 1_555
C13B N2B 1_555 1_555
C13I N2I 1_555 1_555
C13J N2J 1_555 1_555
C13K N2K 1_555 1_555
C14A C15A 1_555 1_555
C14B C15B 1_555 1_555
C14I C15I 1_555 1_555
C14J C15J 1_555 1_555
C14K C15K 1_555 1_555
C17I C18I 1_555 1_555
C17K C18K 1_555 1_555
C18I C18B 1_555 1_555
C18K C18A 1_555 1_555
C18A C18J 1_555 1_555
C18B C18J 1_555 1_555

#END
