
#######################################################################
#
#                 Cambridge Crystallographic Data Centre
#                                CCDC 
#
#######################################################################
#
# If this CIF has been generated from an entry in the Cambridge 
# Structural Database, then it will include bibliographic, chemical, 
# crystal, experimental, refinement or atomic coordinate data resulting 
# from the CCDC's data processing and validation procedures.
#
#######################################################################

data_UWUFEY
_chemical_formula_moiety         'C66 H80 N4 O6 S4,2(C2 H6 O1)'
_chemical_name_systematic        
'5,11,17,23-Tetra-t-butyl-26,28-bis(2-(4-(((methylsulfanyl)carbonothioyl)carbonohydrazonoyl)phenoxy)ethoxy)-25,27-dihydroxycalix(4)arene ethanol solvate'
_symmetry_cell_setting           triclinic
_symmetry_space_group_name_H-M   'P -1'
_symmetry_Int_Tables_number      2
_space_group_name_Hall           '-P 1'
loop_
_symmetry_equiv_pos_site_id
_symmetry_equiv_pos_as_xyz
1 x,y,z
2 -x,-y,-z
_cell_length_a                   12.0340(18)
_cell_length_b                   18.550(3)
_cell_length_c                   18.946(3)
_cell_angle_alpha                119.31
_cell_angle_beta                 101.920(2)
_cell_angle_gamma                90.00
_cell_volume                     3582.95
_exptl_crystal_colour            yellow
_exptl_crystal_description       block
_cell_formula_units_Z            2
loop_
_atom_site_label
_atom_site_type_symbol
_atom_site_fract_x
_atom_site_fract_y
_atom_site_fract_z
S1 S -0.5830(4) 0.0220(3) -0.1013(3)
S2 S 1.0836(4) 0.6232(3) 1.1008(3)
S3 S 0.9405(4) 0.7437(3) 1.0702(3)
S4 S -0.4408(4) 0.1737(3) -0.0703(3)
O1 O 0.3136(7) 0.5090(5) 0.3772(5)
O2 O 0.1867(7) 0.6321(5) 0.6233(5)
O3 O 0.3015(7) 0.6171(5) 0.7638(6)
O4 O 0.3883(8) 0.6189(5) 0.5685(6)
H1 H 0.3635 0.6168 0.6047
O5 O 0.1975(8) 0.3534(6) 0.2364(6)
O6 O 0.1115(7) 0.5504(6) 0.4308(5)
H2 H 0.1538 0.5250 0.4002
C1 C 0.2481(10) 0.5908(8) 0.3145(8)
C2 C 0.4347(11) 0.6303(8) 0.4106(8)
C3 C 0.3346(10) 0.5754(8) 0.3657(8)
C4 C 0.4573(10) 0.7634(8) 0.6814(8)
C5 C 0.0435(10) 0.5824(8) 0.3198(8)
C6 C 0.2520(10) 0.7759(8) 0.6850(8)
C7 C 0.4602(11) 0.6913(8) 0.6035(8)
C8 C -0.0328(11) 0.6243(8) 0.2912(9)
H3 H -0.0301 0.6213 0.2411
C9 C 0.0394(11) 0.5881(8) 0.3960(9)
C10 C 0.0626(10) 0.7203(8) 0.5895(8)
C11 C 0.1645(11) 0.7096(8) 0.6333(8)
C12 C 0.1009(12) 0.3001(8) 0.2069(8)
C13 C 0.4471(11) 0.7006(8) 0.4041(9)
H4 H 0.5146 0.7367 0.4331
C14 C -0.1130(10) 0.6721(8) 0.4084(9)
H5 H -0.1673 0.7007 0.4368
N1 N 0.8866(10) 0.5851(9) 0.9953(8)
H6 H 0.8943 0.5338 0.9799
C15 C -0.0290(10) 0.6487(8) 0.5267(8)
H7 H -0.0101 0.5984 0.5280
H8 H -0.1020 0.6611 0.5414
C16 C 0.3999(11) 0.5939(9) 0.7933(8)
C17 C 0.6123(10) 0.7649(8) 0.5921(9)
H9 H 0.6659 0.7656 0.5634
C18 C 0.5300(10) 0.6205(8) 0.4717(8)
H10 H 0.5128 0.5687 0.4704
H11 H 0.6021 0.6191 0.4560
C19 C 0.3673(10) 0.7642(8) 0.7271(8)
H12 H 0.3898 0.8091 0.7845
H13 H 0.3610 0.7121 0.7272
N2 N -0.3870(12) 0.0906(9) 0.0056(8)
H14 H -0.3954 0.0552 0.0216
C20 C 0.5329(11) 0.8333(8) 0.7093(9)
H15 H 0.5307 0.8804 0.7595
N3 N 0.7883(11) 0.6066(9) 0.9603(8)
C21 C 0.3609(12) 0.7199(9) 0.3552(10)
C22 C 0.5389(11) 0.6930(8) 0.5582(8)
C23 C 0.0786(11) 0.2450(8) 0.2323(9)
H16 H 0.1324 0.2418 0.2734
C24 C 0.3671(10) 0.4343(7) 0.3332(9)
H17 H 0.4368 0.4343 0.3696
H18 H 0.3864 0.4325 0.2852
C25 C -0.0262(12) 0.1937(9) 0.1958(10)
H19 H -0.0420 0.1572 0.2138
C26 C 0.1327(10) 0.5371(8) 0.2741(8)
H20 H 0.1092 0.5236 0.2164
H21 H 0.1395 0.4855 0.2750
C27 C 0.2361(12) 0.8519(8) 0.6895(9)
H22 H 0.2934 0.8961 0.7240
C28 C 0.4791(12) 0.6585(10) 0.8550(9)
H23 H 0.4631 0.7130 0.8729
C29 C 0.4204(12) 0.5121(9) 0.7665(9)
H24 H 0.3665 0.4681 0.7251
C30 C -0.0384(10) 0.6346(8) 0.4408(8)
C31 C 0.2650(12) 0.6613(9) 0.3095(9)
H25 H 0.2091 0.6702 0.2736
C32 C 0.0191(13) 0.3032(10) 0.1445(9)
H26 H 0.0339 0.3404 0.1270
C33 C 0.1398(12) 0.8654(9) 0.6454(9)
C34 C 0.2175(11) 0.5540(8) 0.6940(9)
H27 H 0.1802 0.5201 0.7104
H28 H 0.2531 0.5181 0.6493
C35 C 0.1324(11) 0.5998(9) 0.6662(9)
H29 H 0.0638 0.5624 0.6289
H30 H 0.1113 0.6452 0.7139
C36 C 0.2844(11) 0.3607(8) 0.3061(9)
H31 H 0.3227 0.3108 0.2890
H32 H 0.2503 0.3687 0.3512
N4 N -0.2867(11) 0.1472(8) 0.0403(9)
C37 C -0.1100(11) 0.6689(8) 0.3319(10)
C38 C 0.6110(11) 0.8369(8) 0.6672(9)
C39 C -0.1064(12) 0.1963(9) 0.1332(9)
C40 C 0.5253(12) 0.4976(10) 0.8039(10)
H33 H 0.5406 0.4430 0.7861
C41 C 0.6069(12) 0.5624(10) 0.8665(10)
C42 C -0.1845(13) 0.7180(10) 0.3002(10)
C43 C 0.1307(13) 0.9498(9) 0.6494(10)
C44 C -0.4689(13) 0.0931(9) -0.0528(10)
C45 C 0.9692(14) 0.6457(10) 1.0536(10)
C46 C -0.2136(13) 0.1411(10) 0.0956(10)
H34 H -0.2281 0.1025 0.1114
C47 C 0.3690(13) 0.8012(10) 0.3508(11)
C48 C 0.5808(13) 0.6444(10) 0.8908(10)
H35 H 0.6338 0.6893 0.9317
C49 C 0.6843(12) 0.9181(8) 0.6998(10)
C50 C -0.0816(13) 0.2527(10) 0.1089(10)
H36 H -0.1347 0.2560 0.0676
C51 C 0.7130(13) 0.5448(12) 0.9035(11)
H37 H 0.7272 0.4901 0.8870
C52 C 0.4693(17) 0.8639(11) 0.4146(13)
H38 H 0.4575 0.8841 0.4695
H39 H 0.4757 0.9096 0.4047
H40 H 0.5383 0.8377 0.4101
C53 C 0.0321(17) 0.9493(11) 0.5860(13)
H41 H 0.0485 0.9204 0.5319
H42 H 0.0207 1.0056 0.6000
H43 H -0.0358 0.9217 0.5854
C54 C 0.3806(17) 0.7776(13) 0.2622(13)
H44 H 0.3792 0.8263 0.2567
H45 H 0.3181 0.7368 0.2215
H46 H 0.4515 0.7550 0.2537
C55 C 0.1185(16) 1.0147(10) 0.7360(13)
H47 H 0.1165 1.0682 0.7399
H48 H 0.1824 1.0170 0.7772
H49 H 0.0489 0.9997 0.7454
C56 C -0.252(3) 0.6603(19) 0.2102(18)
H50 H -0.2746 0.6071 0.2031
H51 H -0.2053 0.6534 0.1725
H52 H -0.3193 0.6844 0.1985
C57 C -0.5716(17) 0.1656(13) -0.1415(13)
H53 H -0.5816 0.1133 -0.1923
H54 H -0.5680 0.2103 -0.1531
H55 H -0.6349 0.1689 -0.1168
C58 C 0.2583(16) 0.8403(11) 0.3634(14)
H56 H 0.2473 0.8530 0.4169
H57 H 0.1952 0.8020 0.3206
H58 H 0.2626 0.8905 0.3607
C59 C 1.0702(16) 0.8056(12) 1.1410(13)
H59 H 1.0872 0.7956 1.1870
H60 H 1.0617 0.8634 1.1612
H61 H 1.1314 0.7911 1.1129
C60 C 0.2404(16) 0.9761(11) 0.6358(14)
H62 H 0.2476 0.9375 0.5805
H63 H 0.3047 0.9765 0.6757
H64 H 0.2381 1.0308 0.6427
C61 C 0.760(3) 0.9434(19) 0.782(3)
H65 H 0.8336 0.9662 0.7848
H66 H 0.7680 0.8959 0.7889
H67 H 0.7275 0.9847 0.8245
C62 C 0.617(2) 0.9840(14) 0.712(3)
H68 H 0.6663 1.0357 0.7405
H69 H 0.5656 0.9861 0.7455
H70 H 0.5744 0.9750 0.6594
C63 C 0.760(3) 0.9135(19) 0.6455(19)
H71 H 0.7143 0.9016 0.5923
H72 H 0.8078 0.8701 0.6382
H73 H 0.8070 0.9657 0.6710
C64 C -0.262(3) 0.763(2) 0.352(2)
H74 H -0.2329 0.7735 0.4072
H75 H -0.3359 0.7304 0.3289
H76 H -0.2700 0.8150 0.3526
C65 C -0.114(2) 0.772(2) 0.287(3)
H77 H -0.1621 0.7948 0.2572
H78 H -0.0613 0.7407 0.2549
H79 H -0.0721 0.8168 0.3397
C66 C 0.0535(11) 0.7982(8) 0.5968(8)
H80 H -0.0133 0.8062 0.5680
O7 O 0.3175(10) 0.1528(8) 0.1022(6)
H81 H 0.2991 0.1489 0.1396
C67 C 0.1058(13) 0.0720(9) -0.0210(14)
H82 H 0.1115 0.0477 -0.0778
H83 H 0.0351 0.0958 -0.0153
H84 H 0.1080 0.0297 -0.0055
C68 C 0.213(3) 0.145(3) 0.040(3)
H85 H 0.2421 0.1555 0.0015
H86 H 0.1756 0.1930 0.0705
O8 O 0.3938(14) 0.5930(12) 1.0231(13)
H87 H 0.4146 0.6358 1.0683
C69 C 0.279(3) 0.610(2) 0.961(2)
H88 H 0.2445 0.6548 0.9999
H89 H 0.3140 0.6323 0.9330
C70 C 0.1843(10) 0.5510(8) 0.8980(8)
H90 H 0.2103 0.4978 0.8677
H91 H 0.1526 0.5704 0.8604
H92 H 0.1267 0.5457 0.9240
loop_
_geom_bond_atom_site_label_1
_geom_bond_atom_site_label_2
_geom_bond_site_symmetry_1
_geom_bond_site_symmetry_2
S1 C44 1_555 1_555
S2 C45 1_555 1_555
S3 C45 1_555 1_555
S4 C44 1_555 1_555
O1 C3 1_555 1_555
O2 C11 1_555 1_555
O3 C16 1_555 1_555
O4 H1 1_555 1_555
O5 C12 1_555 1_555
O6 H2 1_555 1_555
C1 C3 1_555 1_555
C2 C3 1_555 1_555
C4 C7 1_555 1_555
C5 C8 1_555 1_555
C6 C11 1_555 1_555
C7 O4 1_555 1_555
C8 H3 1_555 1_555
C9 O6 1_555 1_555
C10 C11 1_555 1_555
C12 C23 1_555 1_555
C13 C2 1_555 1_555
H4 C13 1_555 1_555
C14 H5 1_555 1_555
N1 H6 1_555 1_555
C15 C10 1_555 1_555
H7 C15 1_555 1_555
H8 C15 1_555 1_555
C16 C28 1_555 1_555
C17 H9 1_555 1_555
C18 C2 1_555 1_555
H10 C18 1_555 1_555
H11 C18 1_555 1_555
C19 C4 1_555 1_555
H12 C19 1_555 1_555
H13 C19 1_555 1_555
N2 H14 1_555 1_555
C20 C4 1_555 1_555
H15 C20 1_555 1_555
N3 N1 1_555 1_555
C21 C13 1_555 1_555
C22 C7 1_555 1_555
C23 H16 1_555 1_555
C24 O1 1_555 1_555
H17 C24 1_555 1_555
H18 C24 1_555 1_555
C25 C23 1_555 1_555
H19 C25 1_555 1_555
C26 C1 1_555 1_555
H20 C26 1_555 1_555
H21 C26 1_555 1_555
C27 C6 1_555 1_555
H22 C27 1_555 1_555
C28 H23 1_555 1_555
C29 C16 1_555 1_555
H24 C29 1_555 1_555
C30 C9 1_555 1_555
C31 C1 1_555 1_555
H25 C31 1_555 1_555
C32 C12 1_555 1_555
H26 C32 1_555 1_555
C33 C27 1_555 1_555
C34 O3 1_555 1_555
H27 C34 1_555 1_555
H28 C34 1_555 1_555
C35 O2 1_555 1_555
H29 C35 1_555 1_555
H30 C35 1_555 1_555
C36 O5 1_555 1_555
H31 C36 1_555 1_555
H32 C36 1_555 1_555
N4 N2 1_555 1_555
C37 C8 1_555 1_555
C38 C17 1_555 1_555
C39 C25 1_555 1_555
C40 C29 1_555 1_555
H33 C40 1_555 1_555
C41 C40 1_555 1_555
C42 C37 1_555 1_555
C43 C33 1_555 1_555
C44 N2 1_555 1_555
C45 N1 1_555 1_555
C46 N4 1_555 1_555
H34 C46 1_555 1_555
C47 C21 1_555 1_555
C48 C28 1_555 1_555
H35 C48 1_555 1_555
C49 C38 1_555 1_555
C50 C32 1_555 1_555
H36 C50 1_555 1_555
C51 N3 1_555 1_555
H37 C51 1_555 1_555
C52 C47 1_555 1_555
H38 C52 1_555 1_555
H39 C52 1_555 1_555
H40 C52 1_555 1_555
C53 C43 1_555 1_555
H41 C53 1_555 1_555
H42 C53 1_555 1_555
H43 C53 1_555 1_555
C54 C47 1_555 1_555
H44 C54 1_555 1_555
H45 C54 1_555 1_555
H46 C54 1_555 1_555
C55 C43 1_555 1_555
H47 C55 1_555 1_555
H48 C55 1_555 1_555
H49 C55 1_555 1_555
C56 C42 1_555 1_555
H50 C56 1_555 1_555
H51 C56 1_555 1_555
H52 C56 1_555 1_555
C57 S4 1_555 1_555
H53 C57 1_555 1_555
H54 C57 1_555 1_555
H55 C57 1_555 1_555
C58 C47 1_555 1_555
H56 C58 1_555 1_555
H57 C58 1_555 1_555
H58 C58 1_555 1_555
C59 S3 1_555 1_555
H59 C59 1_555 1_555
H60 C59 1_555 1_555
H61 C59 1_555 1_555
C60 C43 1_555 1_555
H62 C60 1_555 1_555
H63 C60 1_555 1_555
H64 C60 1_555 1_555
C61 C49 1_555 1_555
H65 C61 1_555 1_555
H66 C61 1_555 1_555
H67 C61 1_555 1_555
C62 C49 1_555 1_555
H68 C62 1_555 1_555
H69 C62 1_555 1_555
H70 C62 1_555 1_555
C63 C49 1_555 1_555
H71 C63 1_555 1_555
H72 C63 1_555 1_555
H73 C63 1_555 1_555
C64 C42 1_555 1_555
H74 C64 1_555 1_555
H75 C64 1_555 1_555
H76 C64 1_555 1_555
C65 C42 1_555 1_555
H77 C65 1_555 1_555
H78 C65 1_555 1_555
H79 C65 1_555 1_555
C66 C10 1_555 1_555
H80 C66 1_555 1_555
O7 H81 1_555 1_555
C67 H82 1_555 1_555
H83 C67 1_555 1_555
H84 C67 1_555 1_555
C68 O7 1_555 1_555
H85 C68 1_555 1_555
H86 C68 1_555 1_555
O8 H87 1_555 1_555
C69 O8 1_555 1_555
H88 C69 1_555 1_555
H89 C69 1_555 1_555
C70 C69 1_555 1_555
H90 C70 1_555 1_555
H91 C70 1_555 1_555
H92 C70 1_555 1_555
C5 C9 1_555 1_555
C5 C26 1_555 1_555
C6 C19 1_555 1_555
C14 C30 1_555 1_555
C14 C37 1_555 1_555
C15 C30 1_555 1_555
C17 C22 1_555 1_555
C18 C22 1_555 1_555
C20 C38 1_555 1_555
C21 C31 1_555 1_555
C24 C36 1_555 1_555
C33 C66 1_555 1_555
C34 C35 1_555 1_555
C39 C46 1_555 1_555
C39 C50 1_555 1_555
C41 C48 1_555 1_555
C41 C51 1_555 1_555
C67 C68 1_555 1_555

#END
