
#######################################################################
#
#                 Cambridge Crystallographic Data Centre
#                                CCDC 
#
#######################################################################
#
# If this CIF has been generated from an entry in the Cambridge 
# Structural Database, then it will include bibliographic, chemical, 
# crystal, experimental, refinement or atomic coordinate data resulting 
# from the CCDC's data processing and validation procedures.
#
#######################################################################

data_UWUHOL
_chemical_formula_moiety         'C22 H16 N4 O4'
_chemical_name_systematic        
(4-methoxyphenyl)(2-(2-nitrophenyl)-5-phenyl-2H-1,2,3-triazol-4-yl)methanone
_symmetry_cell_setting           triclinic
_symmetry_space_group_name_H-M   'P -1'
_symmetry_Int_Tables_number      2
_space_group_name_Hall           '-P 1'
loop_
_symmetry_equiv_pos_site_id
_symmetry_equiv_pos_as_xyz
1 x,y,z
2 -x,-y,-z
_cell_length_a                   8.1753(4)
_cell_length_b                   8.4886(4)
_cell_length_c                   14.5040(6)
_cell_angle_alpha                98.9576(13)
_cell_angle_beta                 101.6764(14)
_cell_angle_gamma                98.6971(14)
_cell_volume                     956.154
_exptl_crystal_description       block
_cell_formula_units_Z            2
loop_
_atom_site_label
_atom_site_type_symbol
_atom_site_fract_x
_atom_site_fract_y
_atom_site_fract_z
C1 C 0.3187(2) 0.79894(18) 0.18589(12)
O1 O 0.26419(17) 0.89128(14) 0.13596(9)
O2 O 0.81032(17) 1.03529(16) 0.52958(9)
O3 O 0.34036(18) 0.36549(16) 0.35068(10)
O4 O 0.1289(2) 0.40254(19) 0.41345(11)
N1 N 0.17165(16) 0.37550(15) 0.05827(9)
N2 N 0.14961(16) 0.38100(14) 0.14733(9)
N3 N 0.20092(16) 0.52567(15) 0.20531(9)
N4 N 0.1897(2) 0.34264(17) 0.34951(10)
C2 C 0.44157(19) 0.85775(17) 0.27868(11)
C3 C 0.24276(18) 0.52711(17) 0.05788(11)
C4 C 0.26071(19) 0.62067(18) 0.14965(11)
C5 C 0.5988(2) 1.0875(2) 0.40054(13)
H1 H 0.6213 1.1986 0.4250
C6 C 0.4781(2) 1.02292(19) 0.31677(12)
H2 H 0.4195 1.0918 0.2848
C7 C 0.28814(19) 0.56898(18) -0.02957(11)
C8 C 0.5282(2) 0.75622(19) 0.32909(12)
H3 H 0.5034 0.6447 0.3060
C9 C 0.2047(2) 0.4734(2) -0.11759(12)
H4 H 0.1220 0.3832 -0.1207
C10 C 0.6493(2) 0.8194(2) 0.41228(13)
H5 H 0.7070 0.7507 0.4450
C11 C 0.4135(2) 0.7014(2) -0.02633(13)
H6 H 0.4721 0.7656 0.0325
C12 C 0.4515(2) 0.7381(2) -0.11003(15)
H7 H 0.5350 0.8273 -0.1074
C13 C 0.3665(3) 0.6432(2) -0.19698(15)
H8 H 0.3920 0.6684 -0.2532
C14 C 0.2436(3) 0.5111(2) -0.20088(14)
H9 H 0.1863 0.4467 -0.2599
C15 C 0.6861(2) 0.9853(2) 0.44787(12)
C16 C 0.06063(19) 0.24391(17) 0.17333(11)
C17 C 0.0715(2) 0.22815(18) 0.26809(11)
C18 C -0.0469(2) 0.12581(19) 0.10151(12)
H10 H -0.0572 0.1356 0.0377
C19 C -0.0253(2) 0.0985(2) 0.29072(13)
H11 H -0.0200 0.0909 0.3545
C20 C -0.1392(2) -0.0067(2) 0.12411(14)
H12 H -0.2084 -0.0879 0.0753
C21 C -0.1298(2) -0.0197(2) 0.21817(14)
H13 H -0.1942 -0.1084 0.2328
C22 C 0.8592(3) 1.2054(3) 0.56754(16)
H14 H 0.8995 1.2598 0.5209
H15 H 0.9481 1.2238 0.6247
H16 H 0.7629 1.2470 0.5826
loop_
_geom_bond_atom_site_label_1
_geom_bond_atom_site_label_2
_geom_bond_site_symmetry_1
_geom_bond_site_symmetry_2
C1 O1 1_555 1_555
O2 C15 1_555 1_555
O3 N4 1_555 1_555
O4 N4 1_555 1_555
N1 N2 1_555 1_555
N2 N3 1_555 1_555
N3 C4 1_555 1_555
N4 C17 1_555 1_555
C2 C1 1_555 1_555
C3 N1 1_555 1_555
C4 C1 1_555 1_555
C5 H1 1_555 1_555
C6 C2 1_555 1_555
H2 C6 1_555 1_555
C7 C3 1_555 1_555
C8 C2 1_555 1_555
H3 C8 1_555 1_555
C9 C7 1_555 1_555
H4 C9 1_555 1_555
C10 C8 1_555 1_555
H5 C10 1_555 1_555
C11 C7 1_555 1_555
H6 C11 1_555 1_555
C12 C11 1_555 1_555
H7 C12 1_555 1_555
C13 C12 1_555 1_555
H8 C13 1_555 1_555
C14 C9 1_555 1_555
H9 C14 1_555 1_555
C15 C5 1_555 1_555
C16 N2 1_555 1_555
C17 C16 1_555 1_555
C18 C16 1_555 1_555
H10 C18 1_555 1_555
C19 C17 1_555 1_555
H11 C19 1_555 1_555
C20 C18 1_555 1_555
H12 C20 1_555 1_555
C21 C19 1_555 1_555
H13 C21 1_555 1_555
C22 O2 1_555 1_555
H14 C22 1_555 1_555
H15 C22 1_555 1_555
H16 C22 1_555 1_555
C3 C4 1_555 1_555
C5 C6 1_555 1_555
C10 C15 1_555 1_555
C13 C14 1_555 1_555
C20 C21 1_555 1_555

#END
