
#######################################################################
#
#                 Cambridge Crystallographic Data Centre
#                                CCDC 
#
#######################################################################
#
# If this CIF has been generated from an entry in the Cambridge 
# Structural Database, then it will include bibliographic, chemical, 
# crystal, experimental, refinement or atomic coordinate data resulting 
# from the CCDC's data processing and validation procedures.
#
#######################################################################

data_UWUJUS01
_chemical_formula_moiety         'C12 H13 N2 1+,C6 H1 Cl2 O4 1-'
_chemical_name_systematic        
'5-methyl-2-(5-methylpyridin-2-yl)pyridin-1-ium 2,5-dichloro-4-hydroxy-3,6-dioxocyclohexa-1,4-dien-1-olate'
_symmetry_cell_setting           triclinic
_symmetry_space_group_name_H-M   'P -1'
_symmetry_Int_Tables_number      2
_space_group_name_Hall           '-P 1'
loop_
_symmetry_equiv_pos_site_id
_symmetry_equiv_pos_as_xyz
1 x,y,z
2 -x,-y,-z
_cell_length_a                   4.7833(11)
_cell_length_b                   11.8595(19)
_cell_length_c                   16.042(3)
_cell_angle_alpha                110.813(9)
_cell_angle_beta                 96.147(18)
_cell_angle_gamma                92.058(18)
_cell_volume                     843.067
_exptl_crystal_colour            'reddish brown'
_exptl_crystal_description       plate
_cell_formula_units_Z            2
loop_
_atom_site_label
_atom_site_type_symbol
_atom_site_fract_x
_atom_site_fract_y
_atom_site_fract_z
Cl1 Cl 0.39029(12) 0.44925(4) 0.09264(3)
Cl2 Cl -0.37858(12) 0.55622(4) 0.40548(3)
O1 O -0.2366(3) 0.71300(11) 0.30277(9)
O2 O 0.2411(3) 0.29206(10) 0.19526(9)
O3 O 0.0890(3) 0.66819(11) 0.17036(9)
O4 O -0.0755(3) 0.33931(11) 0.32894(9)
C1 C 0.0548(4) 0.58750(12) 0.20479(10)
C2 C -0.0429(4) 0.42078(12) 0.29219(10)
C3 C 0.1384(4) 0.39128(12) 0.21750(10)
C4 C -0.1300(4) 0.61544(12) 0.27943(10)
C5 C 0.1795(4) 0.47912(13) 0.17771(10)
C6 C -0.1704(4) 0.52661(13) 0.32009(11)
H1 H 0.048(6) 0.260(2) 0.3034(18)
N1 N 0.1951(3) 1.14011(11) 0.31508(9)
N2 N -0.1975(3) 0.85470(11) 0.18063(9)
C7 C -0.1212(4) 0.97502(12) 0.21420(9)
C8 C 0.1233(4) 1.01997(12) 0.28476(9)
C9 C 0.5745(4) 1.11912(14) 0.41836(10)
C10 C -0.5760(4) 0.87613(13) 0.07908(10)
C11 C -0.2772(4) 1.04923(13) 0.18037(11)
C12 C 0.4136(4) 1.18600(13) 0.37886(10)
C13 C 0.2763(4) 0.94536(13) 0.31932(10)
C14 C -0.4160(4) 0.80753(14) 0.11667(10)
C15 C 0.5025(4) 0.99584(14) 0.38591(11)
C16 C -0.5028(5) 0.99954(16) 0.11367(11)
C17 C -0.8119(5) 0.8172(2) 0.00400(13)
C18 C 0.8113(5) 1.1797(2) 0.49289(13)
H2 H -0.221(4) 1.1359(19) 0.2059(13)
H3 H -0.613(5) 1.053(2) 0.0945(14)
H4 H -0.457(5) 0.721(2) 0.0996(14)
H5 H 0.458(5) 1.272(2) 0.3951(14)
H6 H 0.613(4) 0.9428(19) 0.4065(14)
H7 H 0.221(4) 0.858(2) 0.2958(13)
H8 H -0.964(7) 0.873(3) 0.003(2)
H9 H -0.895(6) 0.753(2) 0.0135(19)
H10 H -0.062(7) 0.771(2) 0.194(2)
H11 H 0.958(7) 1.125(3) 0.496(2)
H12 H 0.738(6) 1.209(2) 0.551(2)
H13 H 0.890(6) 1.245(3) 0.482(2)
H14 H -0.739(6) 0.788(2) -0.055(2)
loop_
_geom_bond_atom_site_label_1
_geom_bond_atom_site_label_2
_geom_bond_site_symmetry_1
_geom_bond_site_symmetry_2
Cl1 C5 1_555 1_555
Cl2 C6 1_555 1_555
O1 C4 1_555 1_555
O2 C3 1_555 1_555
O3 C1 1_555 1_555
O4 C2 1_555 1_555
C1 C4 1_555 1_555
C2 C3 1_555 1_555
C3 C5 1_555 1_555
C4 C6 1_555 1_555
C5 C1 1_555 1_555
C6 C2 1_555 1_555
H1 O4 1_555 1_555
N1 C8 1_555 1_555
N2 C7 1_555 1_555
C7 C8 1_555 1_555
C8 C13 1_555 1_555
C9 C12 1_555 1_555
C10 C14 1_555 1_555
C11 C7 1_555 1_555
C12 N1 1_555 1_555
C13 C15 1_555 1_555
C14 N2 1_555 1_555
C15 C9 1_555 1_555
C16 C10 1_555 1_555
C17 C10 1_555 1_555
C18 C9 1_555 1_555
H2 C11 1_555 1_555
H3 C16 1_555 1_555
H4 C14 1_555 1_555
H5 C12 1_555 1_555
H6 C15 1_555 1_555
H7 C13 1_555 1_555
H8 C17 1_555 1_555
H9 C17 1_555 1_555
H10 N2 1_555 1_555
H11 C18 1_555 1_555
H12 C18 1_555 1_555
H13 C18 1_555 1_555
H14 C17 1_555 1_555
C11 C16 1_555 1_555

#END
