
#######################################################################
#
#                 Cambridge Crystallographic Data Centre
#                                CCDC 
#
#######################################################################
#
# If this CIF has been generated from an entry in the Cambridge 
# Structural Database, then it will include bibliographic, chemical, 
# crystal, experimental, refinement or atomic coordinate data resulting 
# from the CCDC's data processing and validation procedures.
#
#######################################################################

data_UWUJED
_chemical_formula_moiety         'C17 H12 N2 O3'
_chemical_name_systematic        
(4S,5S)-5-nitro-2,4-diphenyl-4,5-dihydrofuran-3-carbonitrile
_symmetry_cell_setting           hexagonal
_symmetry_space_group_name_H-M   'P 65'
_symmetry_Int_Tables_number      170
_space_group_name_Hall           'P 65'
loop_
_symmetry_equiv_pos_site_id
_symmetry_equiv_pos_as_xyz
1 x,y,z
2 -y,x-y,2/3+z
3 -x+y,-x,1/3+z
4 -x,-y,1/2+z
5 y,-x+y,1/6+z
6 x-y,x,5/6+z
_cell_length_a                   9.21666(15)
_cell_length_b                   9.21666(15)
_cell_length_c                   30.7049(5)
_cell_angle_alpha                90
_cell_angle_beta                 90
_cell_angle_gamma                120
_cell_volume                     2258.84
_exptl_crystal_colour            yellow
_exptl_crystal_description       block
_cell_formula_units_Z            6
loop_
_atom_site_label
_atom_site_type_symbol
_atom_site_fract_x
_atom_site_fract_y
_atom_site_fract_z
O1 O 0.5003(3) 0.8565(3) 0.51685(8)
O2 O 0.3831(5) 0.9690(6) 0.57606(14)
O3 O 0.5914(6) 1.0358(5) 0.61905(9)
N1 N 0.7486(5) 1.3702(5) 0.43943(13)
N2 N 0.5180(5) 0.9867(4) 0.58475(10)
C1 C 0.2767(5) 0.7097(7) 0.4512(2)
H1 H 0.2788 0.6482 0.4750
C2 C 0.1629(8) 0.6316(12) 0.4183(3)
H2 H 0.0891 0.5168 0.4200
C3 C 0.1551(9) 0.7142(16) 0.3844(3)
H3 H 0.0761 0.6586 0.3627
C4 C 0.2648(11) 0.8839(14) 0.3813(2)
H4 H 0.2617 0.9429 0.3571
C5 C 0.3794(8) 0.9666(9) 0.41400(18)
H5 H 0.4509 1.0818 0.4123
C6 C 0.3881(4) 0.8796(5) 0.44893(13)
C7 C 0.5127(4) 0.9601(4) 0.48312(10)
C8 C 0.6447(4) 1.1144(4) 0.48854(9)
C9 C 0.7411(4) 1.1199(4) 0.52892(10)
H6 H 0.7575 1.2128 0.5477
C10 C 0.6117(4) 0.9516(4) 0.54933(10)
H7 H 0.6672 0.8935 0.5614
C11 C 0.7003(4) 1.2546(4) 0.46061(12)
C12 C 0.9076(4) 1.1318(4) 0.51930(10)
C13 C 0.9198(13) 1.0089(11) 0.5015(6)
H8 H 0.8241 0.9102 0.4933
C14 C 1.0795(18) 1.0287(14) 0.4948(8)
H9 H 1.0849 0.9370 0.4843
C15 C 1.2142(7) 1.1597(10) 0.5020(2)
H10 H 1.326(17) 1.139(16) 0.501(4)
C16 C 1.2080(10) 1.3036(14) 0.5183(3)
H11 H 1.3056 1.4061 0.5221
C17 C 1.0531(8) 1.2848(11) 0.5280(3)
H12 H 1.0454 1.3730 0.5403
C18? C 0.9388(17) 1.075(2) 0.4794(3)
H13? H 0.8574 1.0328 0.4577
C19? C 1.091(2) 1.082(3) 0.4728(4)
H14? H 1.1068 1.0328 0.4483
H15? H 1.3254 1.2003 0.4941
C20? C 1.1711(18) 1.179(3) 0.5452(8)
H16? H 1.2411 1.1942 0.5687
C21? C 1.0205(18) 1.172(2) 0.5502(6)
H17? H 0.9961 1.1988 0.5774
loop_
_geom_bond_atom_site_label_1
_geom_bond_atom_site_label_2
_geom_bond_site_symmetry_1
_geom_bond_site_symmetry_2
O1 C7 1_555 1_555
O2 N2 1_555 1_555
O3 N2 1_555 1_555
N1 C11 1_555 1_555
N2 C10 1_555 1_555
C1 H1 1_555 1_555
C2 C1 1_555 1_555
H2 C2 1_555 1_555
C3 C2 1_555 1_555
H3 C3 1_555 1_555
C4 C3 1_555 1_555
H4 C4 1_555 1_555
C5 C4 1_555 1_555
H5 C5 1_555 1_555
C6 C1 1_555 1_555
C7 C6 1_555 1_555
C8 C7 1_555 1_555
C9 C8 1_555 1_555
H6 C9 1_555 1_555
C10 O1 1_555 1_555
H7 C10 1_555 1_555
C11 C8 1_555 1_555
C12 C9 1_555 1_555
C13 C12 1_555 1_555
H8 C13 1_555 1_555
C14 C13 1_555 1_555
H9 C14 1_555 1_555
C15 C14 1_555 1_555
H10 C15 1_555 1_555
C16 C15 1_555 1_555
H11 C16 1_555 1_555
C17 C12 1_555 1_555
H12 C17 1_555 1_555
C5 C6 1_555 1_555
C9 C10 1_555 1_555
C16 C17 1_555 1_555

#END
