
#######################################################################
#
#                 Cambridge Crystallographic Data Centre
#                                CCDC 
#
#######################################################################
#
# If this CIF has been generated from an entry in the Cambridge 
# Structural Database, then it will include bibliographic, chemical, 
# crystal, experimental, refinement or atomic coordinate data resulting 
# from the CCDC's data processing and validation procedures.
#
#######################################################################

data_UWUJUS02
_chemical_formula_moiety         'C12 H13 N2 1+,C6 H1 Cl2 O4 1-'
_chemical_name_systematic        
'5-methyl-2-(5-methylpyridin-2-yl)pyridin-1-ium 2,5-dichloro-4-hydroxy-3,6-dioxocyclohexa-1,4-dien-1-olate'
_symmetry_cell_setting           triclinic
_symmetry_space_group_name_H-M   'P -1'
_symmetry_Int_Tables_number      2
_space_group_name_Hall           '-P 1'
loop_
_symmetry_equiv_pos_site_id
_symmetry_equiv_pos_as_xyz
1 x,y,z
2 -x,-y,-z
_cell_length_a                   4.7449(8)
_cell_length_b                   11.861(1)
_cell_length_c                   15.915(1)
_cell_angle_alpha                111.132(4)
_cell_angle_beta                 95.19(1)
_cell_angle_gamma                92.333(8)
_cell_volume                     829.431
_exptl_crystal_colour            violet
_exptl_crystal_description       plate
_cell_formula_units_Z            2
loop_
_atom_site_label
_atom_site_type_symbol
_atom_site_fract_x
_atom_site_fract_y
_atom_site_fract_z
Cl1 Cl 1.4064(2) 0.45388(8) 0.59161(6)
Cl2 Cl 0.6129(2) 0.55437(8) 0.90733(6)
O1 O 1.0939(6) 0.6728(2) 0.6721(2)
O2 O 1.2488(6) 0.2936(2) 0.6933(2)
O3 O 0.9282(6) 0.3388(2) 0.8285(2)
O4 O 0.7589(6) 0.7136(2) 0.8054(2)
C1 C 1.0611(8) 0.5909(3) 0.7050(2)
C2 C 1.1864(9) 0.4829(3) 0.6781(2)
C3 C 1.1464(9) 0.3928(3) 0.7157(2)
C4 C 0.9568(8) 0.4221(3) 0.7921(2)
C5 C 0.8276(9) 0.5254(3) 0.8202(2)
C6 C 0.8665(9) 0.6173(3) 0.7814(2)
H1 H 0.9315 0.2591 0.8134
N1 N 1.1915(7) 1.1399(2) 0.8153(2)
N2 N 0.8039(7) 0.8526(2) 0.6783(2)
C7 C 1.1234(8) 1.0191(3) 0.7851(2)
C8 C 1.2761(9) 0.9445(3) 0.8193(2)
C9 C 1.5016(9) 0.9958(3) 0.8866(2)
C10 C 1.5720(9) 1.1202(3) 0.9194(2)
C11 C 1.4107(9) 1.1867(3) 0.8799(2)
C12 C 0.8782(8) 0.9732(3) 0.7134(2)
C13 C 0.5844(9) 0.8036(3) 0.6132(2)
C14 C 0.4242(9) 0.8729(3) 0.5769(2)
C15 C 0.4948(9) 0.9973(3) 0.6127(2)
C16 C 0.7207(9) 1.0475(3) 0.6804(2)
C17 C 1.808(1) 1.1815(4) 0.9943(3)
C18 C 0.191(1) 0.8134(4) 0.5011(3)
H2 H 1.225(7) 0.862(3) 0.797(2)
H3 H 1.613(9) 0.945(3) 0.908(3)
H4 H 1.451(8) 1.270(3) 0.895(2)
H5 H 0.9192 0.7930 0.6968
H6 H 0.551(8) 0.719(3) 0.597(2)
H7 H 0.389(8) 1.051(3) 0.594(2)
H8 H 1.906(9) 1.249(4) 0.986(3)
H9 H 1.96(1) 1.128(5) 1.002(3)
H10 H 1.737(9) 1.207(4) 1.047(3)
H11 H 0.27(1) 0.785(4) 0.444(3)
H12 H 0.04(1) 0.861(4) 0.496(3)
H13 H 0.094(9) 0.744(4) 0.508(3)
H14 H 0.771(8) 1.127(3) 0.702(2)
loop_
_geom_bond_atom_site_label_1
_geom_bond_atom_site_label_2
_geom_bond_site_symmetry_1
_geom_bond_site_symmetry_2
Cl1 C2 1_555 1_555
Cl2 C5 1_555 1_555
O1 C1 1_555 1_555
O2 C3 1_555 1_555
O3 C4 1_555 1_555
O4 C6 1_555 1_555
C1 C2 1_555 1_555
C2 C3 1_555 1_555
C3 C4 1_555 1_555
C4 C5 1_555 1_555
C5 C6 1_555 1_555
C6 C1 1_555 1_555
H1 O3 1_555 1_555
N1 C7 1_555 1_555
N2 C12 1_555 1_555
C7 C8 1_555 1_555
C8 C9 1_555 1_555
C9 C10 1_555 1_555
C10 C11 1_555 1_555
C11 N1 1_555 1_555
C12 C7 1_555 1_555
C13 N2 1_555 1_555
C14 C13 1_555 1_555
C15 C14 1_555 1_555
C16 C12 1_555 1_555
C17 C10 1_555 1_555
C18 C14 1_555 1_555
H2 C8 1_555 1_555
H3 C9 1_555 1_555
H4 C11 1_555 1_555
H5 N2 1_555 1_555
H6 C13 1_555 1_555
H7 C15 1_555 1_555
H8 C17 1_555 1_555
H9 C17 1_555 1_555
H10 C17 1_555 1_555
H11 C18 1_555 1_555
H12 C18 1_555 1_555
H13 C18 1_555 1_555
H14 C16 1_555 1_555
C15 C16 1_555 1_555

#END
