
#######################################################################
#
#                 Cambridge Crystallographic Data Centre
#                                CCDC 
#
#######################################################################
#
# If this CIF has been generated from an entry in the Cambridge 
# Structural Database, then it will include bibliographic, chemical, 
# crystal, experimental, refinement or atomic coordinate data resulting 
# from the CCDC's data processing and validation procedures.
#
#######################################################################

data_UWUMIK02
_chemical_formula_moiety         'C24 H23 N2 O3 P1'
_chemical_name_systematic        
'ethyl 3-cyano-2-((diphenylphosphoryl)amino)-2-phenylpropanoate'
_symmetry_cell_setting           orthorhombic
_symmetry_space_group_name_H-M   'P 21 21 21'
_symmetry_Int_Tables_number      19
_space_group_name_Hall           'P 2ac 2ab'
loop_
_symmetry_equiv_pos_site_id
_symmetry_equiv_pos_as_xyz
1 x,y,z
2 1/2-x,-y,1/2+z
3 1/2+x,1/2-y,-z
4 -x,1/2+y,1/2-z
_cell_length_a                   10.03760(18)
_cell_length_b                   11.6437(2)
_cell_length_c                   18.2329(3)
_cell_angle_alpha                90
_cell_angle_beta                 90
_cell_angle_gamma                90
_cell_volume                     2130.97
_exptl_crystal_colour            colorless
_exptl_crystal_description       needle
_cell_formula_units_Z            4
loop_
_atom_site_label
_atom_site_type_symbol
_atom_site_fract_x
_atom_site_fract_y
_atom_site_fract_z
P1 P 0.68632(17) 0.27523(13) 0.48739(8)
O1 O 0.6545(5) 0.5809(4) 0.5794(3)
O2 O 0.4536(5) 0.5107(4) 0.5479(3)
O3 O 0.8297(4) 0.2773(4) 0.5070(2)
N1 N 0.5847(5) 0.2943(4) 0.5584(3)
H1 H 0.5186 0.2452 0.5632
N2 N 0.7825(6) 0.1998(5) 0.7221(3)
C1 C 0.7493(7) 0.4614(5) 0.3997(3)
H2 H 0.8371 0.4535 0.4185
C2 C 0.4934(6) 0.3660(5) 0.6748(3)
C3 C 0.6509(7) 0.3838(5) 0.4201(3)
C4 C 0.5738(7) 0.5047(5) 0.5786(3)
C5 C 0.4428(7) 0.2572(6) 0.6897(3)
H3 H 0.4663 0.1939 0.6595
C6 C 0.6284(6) 0.1384(5) 0.4534(4)
C7 C 0.5535(7) -0.0774(6) 0.4057(4)
H4 H 0.5256 -0.1510 0.3892
C8 C 0.4556(7) 0.4571(6) 0.7201(4)
H5 H 0.4867 0.5325 0.7098
C9 C 0.7365(7) 0.3869(5) 0.6477(3)
H6 H 0.8034 0.3960 0.6083
H7 H 0.7447 0.4534 0.6813
C10 C 0.6011(7) 0.0518(6) 0.5038(4)
H8 H 0.6084 0.0669 0.5548
C11 C 0.5952(7) 0.3853(5) 0.6138(3)
C12 C 0.7633(7) 0.2806(6) 0.6884(3)
C13 C 0.7192(7) 0.5511(6) 0.3517(4)
H9 H 0.7868 0.6032 0.3368
C14 C 0.5635(8) -0.0560(6) 0.4801(4)
H10 H 0.5446 -0.1149 0.5146
C15 C 0.5219(7) 0.3977(6) 0.3931(3)
H11 H 0.4539 0.3456 0.4074
C16 C 0.5832(8) 0.0061(6) 0.3556(4)
H12 H 0.5782 -0.0105 0.3047
C17 C 0.5918(8) 0.5637(6) 0.3260(4)
H13 H 0.5712 0.6261 0.2943
C18 C 0.4924(7) 0.4865(6) 0.3456(3)
H14 H 0.4049 0.4947 0.3265
C19 C 0.3734(7) 0.4385(6) 0.7797(4)
H15 H 0.3506 0.5009 0.8109
C20 C 0.3577(7) 0.2412(6) 0.7492(4)
H16 H 0.3223 0.1670 0.7585
C21 C 0.6209(7) 0.1156(6) 0.3790(4)
H17 H 0.6412 0.1738 0.3443
C22 C 0.3744(8) 0.7064(6) 0.5695(4)
H18 H 0.3523 0.7787 0.5448
H19 H 0.2954 0.6772 0.5950
H20 H 0.4459 0.7197 0.6051
C23 C 0.4199(8) 0.6195(6) 0.5134(4)
H21 H 0.3481 0.6070 0.4770
H22 H 0.4988 0.6496 0.4871
C24 C 0.3241(8) 0.3307(6) 0.7945(4)
H23 H 0.2675 0.3183 0.8355
loop_
_geom_bond_atom_site_label_1
_geom_bond_atom_site_label_2
_geom_bond_site_symmetry_1
_geom_bond_site_symmetry_2
P1 O3 1_555 1_555
O1 C4 1_555 1_555
O2 C4 1_555 1_555
N1 P1 1_555 1_555
H1 N1 1_555 1_555
N2 C12 1_555 1_555
C1 H2 1_555 1_555
C2 C5 1_555 1_555
C3 P1 1_555 1_555
C4 C11 1_555 1_555
C5 H3 1_555 1_555
C6 P1 1_555 1_555
C7 H4 1_555 1_555
C8 C2 1_555 1_555
H5 C8 1_555 1_555
C9 H6 1_555 1_555
H7 C9 1_555 1_555
C10 C6 1_555 1_555
H8 C10 1_555 1_555
C11 N1 1_555 1_555
C12 C9 1_555 1_555
C13 C1 1_555 1_555
H9 C13 1_555 1_555
C14 C7 1_555 1_555
H10 C14 1_555 1_555
C15 C3 1_555 1_555
H11 C15 1_555 1_555
C16 C7 1_555 1_555
H12 C16 1_555 1_555
C17 C13 1_555 1_555
H13 C17 1_555 1_555
C18 C15 1_555 1_555
H14 C18 1_555 1_555
C19 C8 1_555 1_555
H15 C19 1_555 1_555
C20 C5 1_555 1_555
H16 C20 1_555 1_555
C21 C6 1_555 1_555
H17 C21 1_555 1_555
C22 H18 1_555 1_555
H19 C22 1_555 1_555
H20 C22 1_555 1_555
C23 O2 1_555 1_555
H21 C23 1_555 1_555
H22 C23 1_555 1_555
C24 C19 1_555 1_555
H23 C24 1_555 1_555
C1 C3 1_555 1_555
C2 C11 1_555 1_555
C9 C11 1_555 1_555
C10 C14 1_555 1_555
C16 C21 1_555 1_555
C17 C18 1_555 1_555
C20 C24 1_555 1_555
C22 C23 1_555 1_555

#END
