
#######################################################################
#
#                 Cambridge Crystallographic Data Centre
#                                CCDC 
#
#######################################################################
#
# If this CIF has been generated from an entry in the Cambridge 
# Structural Database, then it will include bibliographic, chemical, 
# crystal, experimental, refinement or atomic coordinate data resulting 
# from the CCDC's data processing and validation procedures.
#
#######################################################################

data_UWUNOR
_chemical_formula_moiety         'C36 H36 Br2 N4 O4,C1 D1 Cl3'
_chemical_name_systematic        
'5,6-bis(5-bromo-2-hydroxyphenyl)-3,8-diphenyltetradecahydro-1,4,7,10-benzotetraazacyclododecine-2,9-dione deuterochloroform solvate'
_symmetry_cell_setting           tetragonal
_symmetry_space_group_name_H-M   'P 43'
_symmetry_Int_Tables_number      78
_space_group_name_Hall           'P 4cw'
loop_
_symmetry_equiv_pos_site_id
_symmetry_equiv_pos_as_xyz
1 x,y,z
2 -x,-y,1/2+z
3 -y,x,3/4+z
4 y,-x,1/4+z
_cell_length_a                   13.811(3)
_cell_length_b                   13.811(3)
_cell_length_c                   20.076(4)
_cell_angle_alpha                90
_cell_angle_beta                 90
_cell_angle_gamma                90
_cell_volume                     3829.37
_cell_formula_units_Z            4
loop_
_atom_site_label
_atom_site_type_symbol
_atom_site_fract_x
_atom_site_fract_y
_atom_site_fract_z
Br1 Br 1.15355(3) 0.27548(3) 0.18549(2)
Br2 Br 0.99672(3) 0.03349(3) 0.26242(2)
C1 C 0.4546(3) 0.5242(3) 0.21078(17)
H1 H 0.4737 0.5462 0.1652
C2 C 0.3441(3) 0.5265(3) 0.21556(18)
H2 H 0.3236 0.4971 0.2583
H3 H 0.3161 0.4876 0.1789
C3 C 0.3057(3) 0.6303(3) 0.21139(19)
H4 H 0.2343 0.6299 0.2157
H5 H 0.3224 0.6585 0.1676
C4 C 0.3499(3) 0.6918(3) 0.26712(18)
H6 H 0.3240 0.7586 0.2647
H7 H 0.3322 0.6642 0.3110
C5 C 0.4594(3) 0.6939(3) 0.25994(19)
H8 H 0.4875 0.7331 0.2964
H9 H 0.4767 0.7250 0.2171
C6 C 0.5022(2) 0.5921(3) 0.26215(17)
H10 H 0.4917 0.5647 0.3077
C7 C 0.6729(3) 0.5459(3) 0.28278(16)
C8 C 0.7783(2) 0.5602(3) 0.25944(17)
H11 H 0.7784 0.5880 0.2134
C9 C 0.8263(3) 0.6305(3) 0.30657(18)
C10 C 0.8325(4) 0.7273(3) 0.2904(2)
H12 H 0.8098 0.7487 0.2482
C11 C 0.8711(5) 0.7937(4) 0.3345(3)
H13 H 0.8738 0.8603 0.3227
C12 C 0.9057(4) 0.7637(4) 0.3954(2)
H14 H 0.9325 0.8095 0.4256
C13 C 0.9013(3) 0.6673(3) 0.4126(2)
H15 H 0.9255 0.6464 0.4545
C14 C 0.8614(3) 0.6001(3) 0.36839(18)
H16 H 0.8582 0.5337 0.3804
C15 C 0.7870(3) 0.3981(3) 0.20900(16)
H17 H 0.7405 0.4346 0.1802
C16 C 0.8644(3) 0.3553(3) 0.16406(16)
C17 C 0.9571(3) 0.3377(3) 0.18866(18)
H18 H 0.9720 0.3543 0.2334
C18 C 1.0280(3) 0.2961(3) 0.14891(18)
C19 C 1.0076(3) 0.2693(3) 0.08369(18)
H19 H 1.0561 0.2406 0.0566
C20 C 0.9158(3) 0.2853(3) 0.05903(18)
H20 H 0.9012 0.2666 0.0146
C21 C 0.8437(3) 0.3281(3) 0.09790(17)
C22 C 0.7291(3) 0.3156(3) 0.24505(16)
H21 H 0.6802 0.3470 0.2747
C23 C 0.7968(3) 0.2563(3) 0.28893(17)
C24 C 0.8521(3) 0.1809(3) 0.26232(19)
H22 H 0.8437 0.1628 0.2170
C25 C 0.9187(3) 0.1326(3) 0.3010(2)
C26 C 0.9333(3) 0.1574(3) 0.3674(2)
H23 H 0.9798 0.1241 0.3937
C27 C 0.8785(3) 0.2316(3) 0.39429(19)
H24 H 0.8875 0.2487 0.4397
C28 C 0.8108(3) 0.2815(3) 0.35662(17)
C29 C 0.5704(2) 0.2724(3) 0.19879(16)
H25 H 0.5474 0.2604 0.2453
C30 C 0.5162(3) 0.2061(3) 0.15052(17)
C31 C 0.5598(3) 0.1685(3) 0.09370(17)
H26 H 0.6263 0.1807 0.0848
C32 C 0.5048(3) 0.1127(3) 0.04989(18)
H27 H 0.5342 0.0868 0.0110
C33 C 0.4081(3) 0.0947(3) 0.06234(19)
H28 H 0.3713 0.0566 0.0321
C34 C 0.3647(3) 0.1325(3) 0.11913(19)
H29 H 0.2983 0.1202 0.1281
C35 C 0.4189(3) 0.1881(3) 0.16243(18)
H30 H 0.3891 0.2145 0.2010
C36 C 0.5489(2) 0.3774(3) 0.17902(17)
N1 N 0.6068(2) 0.5967(2) 0.24941(14)
H31 H 0.624(3) 0.629(3) 0.213(2)
N2 N 0.8258(2) 0.4659(2) 0.25867(15)
H32 H 0.876(3) 0.475(3) 0.253(2)
N3 N 0.6760(2) 0.2574(2) 0.19517(15)
H33 H 0.688(3) 0.202(3) 0.201(2)
N4 N 0.4895(2) 0.4251(2) 0.22016(15)
H34 H 0.471(3) 0.399(3) 0.255(2)
O1 O 0.65402(18) 0.49189(19) 0.33017(11)
O2 O 0.75605(19) 0.3433(2) 0.06801(12)
H35 H 0.7119 0.3399 0.0967
O3 O 0.7580(2) 0.3510(2) 0.38871(12)
H36 H 0.7363 0.3907 0.3607
O4 O 0.58279(18) 0.41219(18) 0.12696(11)
C37 C 0.5465(3) 1.0071(3) 0.32287(19)
D1 D 0.4766 1.0240 0.3287
Cl1 Cl 0.56557(12) 0.98157(11) 0.23861(6)
Cl2 Cl 0.61542(11) 1.10780(9) 0.34660(6)
Cl3 Cl 0.57111(15) 0.90809(11) 0.37258(7)
loop_
_geom_bond_atom_site_label_1
_geom_bond_atom_site_label_2
_geom_bond_site_symmetry_1
_geom_bond_site_symmetry_2
Br1 C18 1_555 1_555
Br2 C25 1_555 1_555
C1 H1 1_555 1_555
C2 C1 1_555 1_555
H2 C2 1_555 1_555
H3 C2 1_555 1_555
C3 C2 1_555 1_555
H4 C3 1_555 1_555
H5 C3 1_555 1_555
C4 C3 1_555 1_555
H6 C4 1_555 1_555
H7 C4 1_555 1_555
C5 C4 1_555 1_555
H8 C5 1_555 1_555
H9 C5 1_555 1_555
C6 C1 1_555 1_555
H10 C6 1_555 1_555
C7 C8 1_555 1_555
C8 H11 1_555 1_555
C9 C8 1_555 1_555
C10 C9 1_555 1_555
H12 C10 1_555 1_555
C11 C10 1_555 1_555
H13 C11 1_555 1_555
C12 C11 1_555 1_555
H14 C12 1_555 1_555
C13 C12 1_555 1_555
H15 C13 1_555 1_555
C14 C9 1_555 1_555
H16 C14 1_555 1_555
C15 H17 1_555 1_555
C16 C15 1_555 1_555
C17 C16 1_555 1_555
H18 C17 1_555 1_555
C18 C17 1_555 1_555
C19 C18 1_555 1_555
H19 C19 1_555 1_555
C20 C19 1_555 1_555
H20 C20 1_555 1_555
C21 C16 1_555 1_555
C22 C15 1_555 1_555
H21 C22 1_555 1_555
C23 C22 1_555 1_555
C24 C23 1_555 1_555
H22 C24 1_555 1_555
C25 C24 1_555 1_555
C26 C25 1_555 1_555
H23 C26 1_555 1_555
C27 C26 1_555 1_555
H24 C27 1_555 1_555
C28 C23 1_555 1_555
C29 H25 1_555 1_555
C30 C29 1_555 1_555
C31 C30 1_555 1_555
H26 C31 1_555 1_555
C32 C31 1_555 1_555
H27 C32 1_555 1_555
C33 C32 1_555 1_555
H28 C33 1_555 1_555
C34 C33 1_555 1_555
H29 C34 1_555 1_555
C35 C30 1_555 1_555
H30 C35 1_555 1_555
C36 C29 1_555 1_555
N1 C6 1_555 1_555
H31 N1 1_555 1_555
N2 C8 1_555 1_555
H32 N2 1_555 1_555
N3 C22 1_555 1_555
H33 N3 1_555 1_555
N4 C1 1_555 1_555
H34 N4 1_555 1_555
O1 C7 1_555 1_555
O2 C21 1_555 1_555
H35 O2 1_555 1_555
O3 C28 1_555 1_555
H36 O3 1_555 1_555
O4 C36 1_555 1_555
C37 D1 1_555 1_555
Cl1 C37 1_555 1_555
Cl2 C37 1_555 1_555
Cl3 C37 1_555 1_555
C5 C6 1_555 1_555
C7 N1 1_555 1_555
C13 C14 1_555 1_555
C15 N2 1_555 1_555
C20 C21 1_555 1_555
C27 C28 1_555 1_555
C29 N3 1_555 1_555
C34 C35 1_555 1_555
C36 N4 1_555 1_555

#END
