
#######################################################################
#
#                 Cambridge Crystallographic Data Centre
#                                CCDC 
#
#######################################################################
#
# If this CIF has been generated from an entry in the Cambridge 
# Structural Database, then it will include bibliographic, chemical, 
# crystal, experimental, refinement or atomic coordinate data resulting 
# from the CCDC's data processing and validation procedures.
#
#######################################################################

data_UWUNEH
_chemical_formula_moiety         'C36 H38 N4 O4,2(C3 H6 O1)'
_chemical_name_systematic        
'5,6-bis(2-hydroxyphenyl)-3,8-diphenyltetradecahydro-1,4,7,10-benzotetraazacyclododecine-2,9-dione acetone solvate'
_symmetry_cell_setting           monoclinic
_symmetry_space_group_name_H-M   'P 21'
_symmetry_Int_Tables_number      4
_space_group_name_Hall           'P 2yb'
loop_
_symmetry_equiv_pos_site_id
_symmetry_equiv_pos_as_xyz
1 x,y,z
2 -x,1/2+y,-z
_cell_length_a                   9.0188(8)
_cell_length_b                   21.1444(19)
_cell_length_c                   10.7833(9)
_cell_angle_alpha                90
_cell_angle_beta                 111.097(2)
_cell_angle_gamma                90
_cell_volume                     1918.51
_cell_formula_units_Z            2
loop_
_atom_site_label
_atom_site_type_symbol
_atom_site_fract_x
_atom_site_fract_y
_atom_site_fract_z
C1 C 0.0496(3) 0.48280(13) 0.3025(3)
H1 H -0.0277 0.5179 0.2940
C2 C -0.0204(4) 0.42190(14) 0.3344(3)
H2 H 0.0512 0.3861 0.3362
H3 H -0.1244 0.4135 0.2634
C3 C -0.0428(4) 0.42582(15) 0.4683(3)
H4 H -0.1207 0.4594 0.4648
H5 H -0.0850 0.3852 0.4870
C4 C 0.1154(4) 0.44040(14) 0.5787(3)
H6 H 0.0989 0.4445 0.6643
H7 H 0.1903 0.4050 0.5868
C5 C 0.1868(4) 0.50142(14) 0.5498(3)
H8 H 0.2918 0.5085 0.6204
H9 H 0.1171 0.5374 0.5514
C6 C 0.2065(3) 0.49939(13) 0.4149(3)
H10 H 0.2867 0.4662 0.4181
C7 C 0.3786(3) 0.56536(13) 0.3353(3)
C8 C 0.4103(3) 0.63278(13) 0.2975(3)
H11 H 0.3223 0.6608 0.3006
C9 C 0.5661(3) 0.65962(13) 0.3902(3)
C10 C 0.7046(3) 0.62400(14) 0.4348(3)
H12 H 0.7020 0.5807 0.4105
C11 C 0.8461(4) 0.65109(16) 0.5143(3)
H13 H 0.9404 0.6264 0.5431
C12 C 0.8527(4) 0.71377(16) 0.5526(3)
H14 H 0.9504 0.7320 0.6079
C13 C 0.7156(4) 0.74940(15) 0.5097(3)
H15 H 0.7188 0.7925 0.5354
C14 C 0.5732(4) 0.72274(13) 0.4290(3)
H16 H 0.4794 0.7477 0.3999
C15 C 0.2406(3) 0.61805(12) 0.0674(3)
H17 H 0.1816 0.5991 0.1212
C16 C 0.1557(3) 0.67880(13) 0.0065(3)
C17 C 0.2358(3) 0.73143(13) -0.0183(3)
C18 C 0.1487(4) 0.78314(13) -0.0878(3)
H18 H 0.2026 0.8183 -0.1069
C19 C -0.0147(4) 0.78365(14) -0.1291(3)
H19 H -0.0725 0.8189 -0.1770
C20 C -0.0954(3) 0.73306(14) -0.1011(3)
H20 H -0.2079 0.7337 -0.1282
C21 C -0.0092(3) 0.68150(13) -0.0331(3)
H21 H -0.0641 0.6470 -0.0128
C22 C 0.2412(3) 0.56822(12) -0.0388(2)
H22 H 0.3047 0.5313 0.0102
C23 C 0.3247(3) 0.59382(12) -0.1278(3)
C24 C 0.4862(3) 0.58161(13) -0.1000(3)
C25 C 0.5627(3) 0.60621(14) -0.1802(3)
H23 H 0.6721 0.5974 -0.1607
C26 C 0.4799(4) 0.64360(14) -0.2890(3)
H24 H 0.5323 0.6600 -0.3443
C27 C 0.3209(3) 0.65696(14) -0.3167(3)
H25 H 0.2641 0.6830 -0.3903
C28 C 0.2454(3) 0.63204(13) -0.2363(3)
H26 H 0.1363 0.6414 -0.2558
C29 C 0.0242(3) 0.49115(12) -0.0618(3)
H27 H 0.1079 0.4576 -0.0379
C30 C -0.1274(3) 0.46286(12) -0.1626(3)
C31 C -0.2008(3) 0.48697(14) -0.2886(3)
H28 H -0.1560 0.5225 -0.3163
C32 C -0.3403(4) 0.45968(15) -0.3761(3)
H29 H -0.3905 0.4769 -0.4626
C33 C -0.4050(4) 0.40809(14) -0.3371(3)
H30 H -0.4997 0.3894 -0.3965
C34 C -0.3314(4) 0.38344(16) -0.2110(3)
H31 H -0.3751 0.3474 -0.1841
C35 C -0.1950(4) 0.41082(15) -0.1244(3)
H32 H -0.1464 0.3940 -0.0374
C36 C -0.0125(3) 0.50680(12) 0.0647(3)
N1 N 0.2646(3) 0.56005(11) 0.3873(2)
H33 H 0.2230 0.5948 0.4056
N2 N 0.4055(3) 0.63080(11) 0.1594(2)
H34 H 0.468(4) 0.5995(15) 0.154(3)
N3 N 0.0821(3) 0.54446(11) -0.1178(2)
H35 H 0.010(4) 0.5743(14) -0.139(3)
N4 N 0.0746(3) 0.47662(10) 0.1762(2)
H36 H 0.1514 0.4516 0.1735
O1 O 0.4516(2) 0.52026(9) 0.31378(19)
O2 O 0.3971(2) 0.73501(9) 0.02299(19)
H37 H 0.4372 0.7017 0.0637
O3 O 0.5648(2) 0.54577(10) 0.01005(19)
H38 H 0.6619 0.5444 0.0215
O4 O -0.1175(2) 0.54529(9) 0.05935(18)
C37 C 0.5598(5) 0.3278(2) 0.2825(5)
H39 H 0.5772 0.2897 0.2378
H40 H 0.5278 0.3157 0.3569
H41 H 0.6584 0.3525 0.3159
C38 C 0.4323(4) 0.36678(16) 0.1865(5)
C39 C 0.4576(6) 0.3872(3) 0.0640(6)
H42 H 0.5353 0.4217 0.0853
H43 H 0.3567 0.4019 -0.0015
H44 H 0.4975 0.3515 0.0272
O5 O 0.3128(3) 0.37998(11) 0.2084(4)
C40 C 0.8065(4) 0.69855(19) 0.1914(3)
H45 H 0.7387 0.7100 0.2414
H46 H 0.8025 0.6527 0.1776
H47 H 0.7685 0.7201 0.1051
C41 C 0.9723(4) 0.71801(16) 0.2673(3)
C42 C 1.0120(6) 0.78619(19) 0.2615(5)
H48 H 1.0123 0.7962 0.1729
H49 H 1.1173 0.7948 0.3282
H50 H 0.9325 0.8123 0.2797
O6 O 1.0730(3) 0.68053(13) 0.3312(2)
loop_
_geom_bond_atom_site_label_1
_geom_bond_atom_site_label_2
_geom_bond_site_symmetry_1
_geom_bond_site_symmetry_2
C1 H1 1_555 1_555
C2 C1 1_555 1_555
H2 C2 1_555 1_555
H3 C2 1_555 1_555
C3 C2 1_555 1_555
H4 C3 1_555 1_555
H5 C3 1_555 1_555
C4 C3 1_555 1_555
H6 C4 1_555 1_555
H7 C4 1_555 1_555
C5 C4 1_555 1_555
H8 C5 1_555 1_555
H9 C5 1_555 1_555
C6 C1 1_555 1_555
H10 C6 1_555 1_555
C7 C8 1_555 1_555
C8 H11 1_555 1_555
C9 C8 1_555 1_555
C10 C9 1_555 1_555
H12 C10 1_555 1_555
C11 C10 1_555 1_555
H13 C11 1_555 1_555
C12 C11 1_555 1_555
H14 C12 1_555 1_555
C13 C12 1_555 1_555
H15 C13 1_555 1_555
C14 C9 1_555 1_555
H16 C14 1_555 1_555
C15 H17 1_555 1_555
C16 C15 1_555 1_555
C17 C16 1_555 1_555
C18 C17 1_555 1_555
H18 C18 1_555 1_555
C19 C18 1_555 1_555
H19 C19 1_555 1_555
C20 C19 1_555 1_555
H20 C20 1_555 1_555
C21 C16 1_555 1_555
H21 C21 1_555 1_555
C22 C15 1_555 1_555
H22 C22 1_555 1_555
C23 C22 1_555 1_555
C24 C23 1_555 1_555
C25 C24 1_555 1_555
H23 C25 1_555 1_555
C26 C25 1_555 1_555
H24 C26 1_555 1_555
C27 C26 1_555 1_555
H25 C27 1_555 1_555
C28 C23 1_555 1_555
H26 C28 1_555 1_555
C29 H27 1_555 1_555
C30 C29 1_555 1_555
C31 C30 1_555 1_555
H28 C31 1_555 1_555
C32 C31 1_555 1_555
H29 C32 1_555 1_555
C33 C32 1_555 1_555
H30 C33 1_555 1_555
C34 C33 1_555 1_555
H31 C34 1_555 1_555
C35 C30 1_555 1_555
H32 C35 1_555 1_555
C36 C29 1_555 1_555
N1 C6 1_555 1_555
H33 N1 1_555 1_555
N2 C8 1_555 1_555
H34 N2 1_555 1_555
N3 C22 1_555 1_555
H35 N3 1_555 1_555
N4 C1 1_555 1_555
H36 N4 1_555 1_555
O1 C7 1_555 1_555
O2 C17 1_555 1_555
H37 O2 1_555 1_555
O3 C24 1_555 1_555
H38 O3 1_555 1_555
O4 C36 1_555 1_555
C37 H39 1_555 1_555
H40 C37 1_555 1_555
H41 C37 1_555 1_555
C38 C37 1_555 1_555
C39 C38 1_555 1_555
H42 C39 1_555 1_555
H43 C39 1_555 1_555
H44 C39 1_555 1_555
O5 C38 1_555 1_555
C40 H45 1_555 1_555
H46 C40 1_555 1_555
H47 C40 1_555 1_555
C41 C40 1_555 1_555
C42 C41 1_555 1_555
H48 C42 1_555 1_555
H49 C42 1_555 1_555
H50 C42 1_555 1_555
O6 C41 1_555 1_555
C5 C6 1_555 1_555
C7 N1 1_555 1_555
C13 C14 1_555 1_555
C15 N2 1_555 1_555
C20 C21 1_555 1_555
C27 C28 1_555 1_555
C29 N3 1_555 1_555
C34 C35 1_555 1_555
C36 N4 1_555 1_555

#END
