
#######################################################################
#
#                 Cambridge Crystallographic Data Centre
#                                CCDC 
#
#######################################################################
#
# If this CIF has been generated from an entry in the Cambridge 
# Structural Database, then it will include bibliographic, chemical, 
# crystal, experimental, refinement or atomic coordinate data resulting 
# from the CCDC's data processing and validation procedures.
#
#######################################################################

data_UWURUB
_chemical_formula_moiety         'C14 H13 N3 O3,1.5(H2 O1)'
_chemical_name_systematic        
"N'-(1-(2,4-dihydroxyphenyl)ethylidene)isonicotinohydrazide sesquihydrate"
_symmetry_cell_setting           monoclinic
_symmetry_space_group_name_H-M   'C 2/c'
_symmetry_Int_Tables_number      15
_space_group_name_Hall           '-C 2yn'
loop_
_symmetry_equiv_pos_site_id
_symmetry_equiv_pos_as_xyz
1 x,y,z
2 -x,y,1/2-z
3 1/2+x,1/2+y,z
4 1/2-x,1/2+y,1/2-z
5 -x,-y,-z
6 x,-y,1/2+z
7 1/2-x,1/2-y,-z
8 1/2+x,1/2-y,1/2+z
_cell_length_a                   20.102(2)
_cell_length_b                   7.5891(8)
_cell_length_c                   19.530(2)
_cell_angle_alpha                90
_cell_angle_beta                 111.481(12)
_cell_angle_gamma                90
_cell_volume                     2772.47
_exptl_crystal_colour            yellow
_exptl_crystal_description       sheet
_cell_formula_units_Z            8
loop_
_atom_site_label
_atom_site_type_symbol
_atom_site_fract_x
_atom_site_fract_y
_atom_site_fract_z
O1 O 0.42409(6) 0.30611(17) 0.39878(6)
H1 H 0.4195(11) 0.264(3) 0.4362(12)
O2 O 0.60398(6) 0.51772(16) 0.32013(6)
H2 H 0.6493(12) 0.513(3) 0.3306(12)
O3 O 0.32307(6) 0.09534(17) 0.49528(6)
N1 N 0.45898(7) 0.19005(17) 0.52929(7)
N2 N 0.43434(7) 0.12655(18) 0.58196(7)
H3 H 0.4625 0.1131 0.6270
N3 N 0.28662(8) -0.0499(2) 0.73086(8)
C1 C 0.36402(8) 0.0864(2) 0.55978(8)
C2 C 0.51559(8) 0.4097(2) 0.36196(8)
H4 H 0.4813 0.4332 0.3158
C3 C 0.54626(8) 0.2989(2) 0.48718(8)
C4 C 0.35147(9) -0.1027(2) 0.73433(9)
H5 H 0.3789 -0.1703 0.7744
C5 C 0.33842(8) 0.0335(2) 0.61996(8)
C6 C 0.63865(8) 0.4106(2) 0.44464(9)
H6 H 0.6866 0.4350 0.4542
C7 C 0.37974(8) -0.0620(2) 0.68149(8)
H7 H 0.4257 -0.0980 0.6871
C8 C 0.27008(9) 0.0820(2) 0.61435(9)
H8 H 0.2401 0.1420 0.5731
C9 C 0.49499(8) 0.3374(2) 0.41675(8)
C10 C 0.61784(8) 0.3379(2) 0.49857(8)
H9 H 0.6527 0.3138 0.5443
C11 C 0.58693(8) 0.4467(2) 0.37585(8)
C12 C 0.52617(8) 0.2244(2) 0.54644(8)
C13 C 0.58202(10) 0.1931(3) 0.62085(10)
H10 H 0.5992(12) 0.301(3) 0.6445(12)
H11 H 0.5657(12) 0.125(3) 0.6521(12)
H12 H 0.6220(12) 0.131(3) 0.6167(12)
C14 C 0.24727(9) 0.0398(2) 0.67100(9)
H13 H 0.2019 0.0761 0.6672
O4 O 0.5000 0.7788(2) 0.2500
H14 H 0.5354 0.7096 0.2586
H14A H 0.4646 0.7096 0.2414
O5 O 0.75884(6) 0.00930(19) 0.65128(7)
H15 H 0.7439 -0.0200 0.6851
H16 H 0.7306 -0.0310 0.6103
H17? H 0.4616 0.7242 0.2260
loop_
_geom_bond_atom_site_label_1
_geom_bond_atom_site_label_2
_geom_bond_site_symmetry_1
_geom_bond_site_symmetry_2
O1 H1 1_555 1_555
O2 H2 1_555 1_555
O3 C1 1_555 1_555
N1 N2 1_555 1_555
N2 H3 1_555 1_555
N3 C4 1_555 1_555
C1 N2 1_555 1_555
C2 H4 1_555 1_555
C3 C9 1_555 1_555
C4 H5 1_555 1_555
C5 C1 1_555 1_555
C6 H6 1_555 1_555
C7 C4 1_555 1_555
H7 C7 1_555 1_555
C8 C5 1_555 1_555
H8 C8 1_555 1_555
C9 O1 1_555 1_555
C10 C3 1_555 1_555
H9 C10 1_555 1_555
C11 O2 1_555 1_555
C12 N1 1_555 1_555
C13 C12 1_555 1_555
H10 C13 1_555 1_555
H11 C13 1_555 1_555
H12 C13 1_555 1_555
C14 N3 1_555 1_555
H13 C14 1_555 1_555
O4 H14 1_555 1_555
O5 H15 1_555 1_555
H16 O5 1_555 1_555
H14A O4 1_555 1_555
C2 C9 1_555 1_555
C2 C11 1_555 1_555
C3 C12 1_555 1_555
C5 C7 1_555 1_555
C6 C10 1_555 1_555
C6 C11 1_555 1_555
C8 C14 1_555 1_555

#END
