
#######################################################################
#
#                 Cambridge Crystallographic Data Centre
#                                CCDC 
#
#######################################################################
#
# If this CIF has been generated from an entry in the Cambridge 
# Structural Database, then it will include bibliographic, chemical, 
# crystal, experimental, refinement or atomic coordinate data resulting 
# from the CCDC's data processing and validation procedures.
#
#######################################################################

data_UWUTIR
_chemical_formula_moiety         'C16 H13 Br1 O2'
_chemical_name_systematic        '2-bromo-1,2-diphenylvinyl acetate'
_symmetry_cell_setting           triclinic
_symmetry_space_group_name_H-M   'P -1'
_symmetry_Int_Tables_number      2
_space_group_name_Hall           '-P 1'
loop_
_symmetry_equiv_pos_site_id
_symmetry_equiv_pos_as_xyz
1 x,y,z
2 -x,-y,-z
_cell_length_a                   8.1329(3)
_cell_length_b                   8.9362(3)
_cell_length_c                   10.0140(4)
_cell_angle_alpha                87.2920(10)
_cell_angle_beta                 74.4010(10)
_cell_angle_gamma                89.8160(10)
_cell_volume                     700.166
_exptl_crystal_colour            colorless
_cell_formula_units_Z            2
loop_
_atom_site_label
_atom_site_type_symbol
_atom_site_fract_x
_atom_site_fract_y
_atom_site_fract_z
Br1 Br 0.70550(3) -0.11694(2) 0.56224(2)
O1 O 0.38685(14) 0.05677(13) 0.90809(12)
O2 O 0.15195(19) 0.10745(18) 0.83851(17)
C1 C 0.1958(2) -0.4573(2) 0.8386(2)
H1 H 0.1401 -0.5521 0.8487
C2 C 0.2513(3) -0.4043(2) 0.9455(2)
H2 H 0.2329 -0.4627 1.0300
C3 C 0.3339(2) -0.2668(2) 0.93181(18)
H3 H 0.3711 -0.2312 1.0068
C4 C 0.3621(2) -0.18109(18) 0.80813(17)
C5 C 0.4492(2) -0.03389(18) 0.79458(17)
C6 C 0.5871(2) 0.01644(19) 0.69769(17)
C7 C 0.6658(2) 0.16762(19) 0.68605(17)
C8 C 0.5666(2) 0.2948(2) 0.68887(19)
H4 H 0.4478 0.2849 0.6978
C9 C 0.6399(3) 0.4364(2) 0.6787(2)
H5 H 0.5708 0.5228 0.6820
C10 C 0.8122(3) 0.4522(2) 0.6639(2)
H6 H 0.8624 0.5492 0.6562
C11 C 0.2216(2) -0.3716(2) 0.7162(2)
H7 H 0.1824 -0.4072 0.6422
C12 C 0.3040(2) -0.2346(2) 0.70086(18)
H8 H 0.3212 -0.1764 0.6163
C13 C 0.2259(2) 0.1113(2) 0.9258(2)
C14 C 0.1639(3) 0.1759(3) 1.0650(2)
H9 H 0.0684 0.2430 1.0653
H10 H 0.2568 0.2322 1.0852
H11 H 0.1259 0.0947 1.1359
C15 C 0.9116(2) 0.3267(2) 0.6603(2)
H12 H 1.0305 0.3375 0.6508
C16 C 0.8398(2) 0.1849(2) 0.67061(19)
H13 H 0.9098 0.0990 0.6671
loop_
_geom_bond_atom_site_label_1
_geom_bond_atom_site_label_2
_geom_bond_site_symmetry_1
_geom_bond_site_symmetry_2
Br1 C6 1_555 1_555
O1 C5 1_555 1_555
O2 C13 1_555 1_555
C1 H1 1_555 1_555
C2 C1 1_555 1_555
H2 C2 1_555 1_555
C3 C2 1_555 1_555
H3 C3 1_555 1_555
C4 C3 1_555 1_555
C5 C4 1_555 1_555
C6 C5 1_555 1_555
C7 C6 1_555 1_555
C8 C7 1_555 1_555
H4 C8 1_555 1_555
C9 C8 1_555 1_555
H5 C9 1_555 1_555
C10 C9 1_555 1_555
H6 C10 1_555 1_555
C11 C1 1_555 1_555
H7 C11 1_555 1_555
C12 C4 1_555 1_555
H8 C12 1_555 1_555
C13 O1 1_555 1_555
C14 C13 1_555 1_555
H9 C14 1_555 1_555
H10 C14 1_555 1_555
H11 C14 1_555 1_555
C15 C10 1_555 1_555
H12 C15 1_555 1_555
C16 C7 1_555 1_555
H13 C16 1_555 1_555
C11 C12 1_555 1_555
C15 C16 1_555 1_555

#END
