
#######################################################################
#
#                 Cambridge Crystallographic Data Centre
#                                CCDC 
#
#######################################################################
#
# If this CIF has been generated from an entry in the Cambridge 
# Structural Database, then it will include bibliographic, chemical, 
# crystal, experimental, refinement or atomic coordinate data resulting 
# from the CCDC's data processing and validation procedures.
#
#######################################################################

data_UWUTEM
_chemical_formula_moiety         'C10 H9 Br1 N2 O4'
_chemical_name_systematic        
6-Bromo-3-hydroxy-3-(1-nitroethyl)-1,3-dihydro-2H-indol-2-one
_symmetry_cell_setting           orthorhombic
_symmetry_space_group_name_H-M   'P 21 21 21'
_symmetry_Int_Tables_number      19
_space_group_name_Hall           'P 2ac 2ab'
loop_
_symmetry_equiv_pos_site_id
_symmetry_equiv_pos_as_xyz
1 x,y,z
2 1/2-x,-y,1/2+z
3 -x,1/2+y,1/2-z
4 1/2+x,1/2-y,-z
_cell_length_a                   6.7957(12)
_cell_length_b                   8.5361(15)
_cell_length_c                   19.388(3)
_cell_angle_alpha                90
_cell_angle_beta                 90
_cell_angle_gamma                90
_cell_volume                     1124.67
_exptl_crystal_colour            yellow
_exptl_crystal_description       prismatic
_cell_formula_units_Z            4
loop_
_atom_site_label
_atom_site_type_symbol
_atom_site_fract_x
_atom_site_fract_y
_atom_site_fract_z
Br1 Br 0.28273(8) -0.02327(6) 0.88443(3)
N1 N 0.5064(6) 0.5556(5) 0.9523(2)
N2 N 1.0416(7) 0.5703(6) 0.8060(2)
O1 O 0.7001(5) 0.7710(3) 0.97244(15)
O2 O 0.9978(4) 0.5199(5) 0.94682(17)
O3 O 1.2036(6) 0.6248(6) 0.8179(3)
O4 O 1.0133(6) 0.4605(6) 0.7679(2)
C1 C 0.6722(7) 0.6402(5) 0.9489(2)
C2 C 0.8251(6) 0.5446(5) 0.9079(2)
C3 C 0.7200(6) 0.3918(5) 0.8970(2)
C4 C 0.5297(7) 0.4054(5) 0.9234(2)
C5 C 0.3958(7) 0.2860(5) 0.9213(2)
H1 H 0.2693 0.2967 0.9389
C6 C 0.4602(7) 0.1479(5) 0.8912(3)
C7 C 0.6466(8) 0.1286(6) 0.8658(3)
H2 H 0.6841 0.0335 0.8465
C8 C 0.7787(7) 0.2514(5) 0.8691(2)
H3 H 0.9062 0.2391 0.8525
C9 C 0.8687(6) 0.6401(6) 0.8425(2)
H4 H 0.9070 0.7456 0.8573
C10 C 0.6975(8) 0.6580(6) 0.7935(2)
H5 H 0.7368 0.7207 0.7548
H6 H 0.5901 0.7080 0.8169
H7 H 0.6567 0.5565 0.7776
H8 H 0.412(5) 0.586(6) 0.975(2)
H9 H 1.034(7) 0.600(4) 0.964(2)
loop_
_geom_bond_atom_site_label_1
_geom_bond_atom_site_label_2
_geom_bond_site_symmetry_1
_geom_bond_site_symmetry_2
Br1 C6 1_555 1_555
N1 C1 1_555 1_555
N2 O3 1_555 1_555
O1 C1 1_555 1_555
O2 C2 1_555 1_555
O4 N2 1_555 1_555
C1 C2 1_555 1_555
C2 C3 1_555 1_555
C3 C4 1_555 1_555
C4 N1 1_555 1_555
C5 C4 1_555 1_555
H1 C5 1_555 1_555
C6 C5 1_555 1_555
C7 C6 1_555 1_555
H2 C7 1_555 1_555
C8 C3 1_555 1_555
H3 C8 1_555 1_555
C9 N2 1_555 1_555
H4 C9 1_555 1_555
C10 C9 1_555 1_555
H5 C10 1_555 1_555
H6 C10 1_555 1_555
H7 C10 1_555 1_555
H8 N1 1_555 1_555
H9 O2 1_555 1_555
C2 C9 1_555 1_555
C7 C8 1_555 1_555

#END
