
#######################################################################
#
#                 Cambridge Crystallographic Data Centre
#                                CCDC 
#
#######################################################################
#
# If this CIF has been generated from an entry in the Cambridge 
# Structural Database, then it will include bibliographic, chemical, 
# crystal, experimental, refinement or atomic coordinate data resulting 
# from the CCDC's data processing and validation procedures.
#
#######################################################################

data_UWUTOX
_chemical_formula_moiety         'C24 H22 Cl1 F3 N2 O5'
_chemical_name_systematic        
'ethyl 6-(4-chlorophenyl)-8-hydroxy-4-methyl-1-oxo-10-phenyl-8-(trifluoromethyl)-2-oxa-3,7-diazaspiro[4.5]dec-3-ene-9-carboxylate'
_symmetry_cell_setting           monoclinic
_symmetry_space_group_name_H-M   'P 21/n'
_symmetry_Int_Tables_number      14
_space_group_name_Hall           '-P 2yn'
loop_
_symmetry_equiv_pos_site_id
_symmetry_equiv_pos_as_xyz
1 x,y,z
2 1/2-x,1/2+y,1/2-z
3 -x,-y,-z
4 1/2+x,1/2-y,1/2+z
_cell_length_a                   8.7819(3)
_cell_length_b                   27.2845(9)
_cell_length_c                   10.3978(4)
_cell_angle_alpha                90
_cell_angle_beta                 107.5040(10)
_cell_angle_gamma                90
_cell_volume                     2376.05
_exptl_crystal_colour            colorless
_exptl_crystal_description       block
_cell_formula_units_Z            4
loop_
_atom_site_label
_atom_site_type_symbol
_atom_site_fract_x
_atom_site_fract_y
_atom_site_fract_z
Cl1 Cl 0.74133(14) 0.04114(4) 0.88313(10)
F1 F 0.2754(3) -0.01369(7) 1.4760(2)
F2 F 0.1812(3) 0.03197(8) 1.6016(2)
F3 F 0.0776(2) 0.03351(7) 1.3879(2)
O1 O 0.4680(2) 0.06592(9) 1.5900(2)
H1 H 0.4601 0.0836 1.6514
O2 O 0.0663(3) 0.13990(10) 1.5953(2)
O3 O 0.3247(3) 0.13403(10) 1.7129(2)
O4 O 0.1280(3) 0.13097(9) 1.1600(2)
O5 O 0.2706(4) 0.19000(11) 1.1063(3)
N1 N 0.3722(3) 0.06458(8) 1.3555(2)
H2 H 0.3359 0.0407 1.3009
N2 N 0.4230(5) 0.21259(12) 1.1639(4)
C1 C 0.7070(3) 0.08449(11) 1.2370(3)
H3 H 0.7764 0.0926 1.3210
C2 C 0.7688(4) 0.07076(12) 1.1356(3)
H4 H 0.8786 0.0695 1.1507
C3 C 0.6652(4) 0.05888(11) 1.0115(3)
C4 C 0.5034(4) 0.06009(11) 0.9882(3)
H5 H 0.4351 0.0518 0.9038
C5 C 0.4417(4) 0.07376(11) 1.0912(3)
H6 H 0.3318 0.0744 1.0757
C6 C 0.5428(3) 0.08654(10) 1.2170(3)
C7 C 0.4813(3) 0.10151(10) 1.3317(3)
H7 H 0.5730 0.1035 1.4133
C8 C 0.3946(3) 0.15204(10) 1.3127(3)
C9 C 0.2482(4) 0.15407(12) 1.1884(3)
C10 C 0.4931(4) 0.19222(12) 1.2768(4)
C11 C 0.6555(5) 0.20765(16) 1.3578(6)
H8 H 0.6917 0.2336 1.3120
H9 H 0.7272 0.1803 1.3694
H10 H 0.6528 0.2190 1.4445
C12 C 0.3505(3) 0.16385(10) 1.4436(3)
H11 H 0.4507 0.1643 1.5177
C13 C 0.2480(3) 0.12194(10) 1.4737(3)
H12 H 0.1453 0.1213 1.4026
C14 C 0.2182(4) 0.13272(12) 1.6074(3)
C15 C 0.0282(6) 0.1489(3) 1.7230(5)
H13 H 0.0859 0.1258 1.7912
H14 H 0.0610 0.1817 1.7551
C16 C -0.1397(9) 0.1434(5) 1.7005(9)
H15 H -0.1646 0.1501 1.7825
H16 H -0.1709 0.1104 1.6720
H17 H -0.1964 0.1659 1.6317
C17 C 0.3311(3) 0.07152(11) 1.4771(3)
C18 C 0.2144(4) 0.03061(11) 1.4846(4)
C19 C 0.2738(3) 0.21378(10) 1.4415(3)
C20 C 0.3631(4) 0.25232(11) 1.5118(3)
H18 H 0.4693 0.2471 1.5609
C21 C 0.2982(4) 0.29836(12) 1.5106(4)
H19 H 0.3609 0.3239 1.5577
C22 C 0.1414(4) 0.30660(12) 1.4403(4)
H20 H 0.0969 0.3375 1.4403
C23 C 0.0507(4) 0.26907(11) 1.3703(3)
H21 H -0.0556 0.2746 1.3218
C24 C 0.1156(3) 0.22297(11) 1.3709(3)
H22 H 0.0523 0.1977 1.3231
loop_
_geom_bond_atom_site_label_1
_geom_bond_atom_site_label_2
_geom_bond_site_symmetry_1
_geom_bond_site_symmetry_2
Cl1 C3 1_555 1_555
F1 C18 1_555 1_555
F2 C18 1_555 1_555
F3 C18 1_555 1_555
O1 H1 1_555 1_555
O2 C14 1_555 1_555
O3 C14 1_555 1_555
O4 C9 1_555 1_555
O5 N2 1_555 1_555
N1 H2 1_555 1_555
N2 C10 1_555 1_555
C1 H3 1_555 1_555
C2 C1 1_555 1_555
H4 C2 1_555 1_555
C3 C2 1_555 1_555
C4 C3 1_555 1_555
H5 C4 1_555 1_555
C5 C4 1_555 1_555
H6 C5 1_555 1_555
C6 C1 1_555 1_555
C7 N1 1_555 1_555
H7 C7 1_555 1_555
C8 C7 1_555 1_555
C9 O5 1_555 1_555
C10 C8 1_555 1_555
C11 C10 1_555 1_555
H8 C11 1_555 1_555
H9 C11 1_555 1_555
H10 C11 1_555 1_555
C12 C8 1_555 1_555
H11 C12 1_555 1_555
C13 C12 1_555 1_555
H12 C13 1_555 1_555
C14 C13 1_555 1_555
C15 O2 1_555 1_555
H13 C15 1_555 1_555
H14 C15 1_555 1_555
C16 C15 1_555 1_555
H15 C16 1_555 1_555
H16 C16 1_555 1_555
H17 C16 1_555 1_555
C17 O1 1_555 1_555
C18 C17 1_555 1_555
C19 C12 1_555 1_555
C20 C19 1_555 1_555
H18 C20 1_555 1_555
C21 C20 1_555 1_555
H19 C21 1_555 1_555
C22 C21 1_555 1_555
H20 C22 1_555 1_555
C23 C22 1_555 1_555
H21 C23 1_555 1_555
C24 C19 1_555 1_555
H22 C24 1_555 1_555
N1 C17 1_555 1_555
C5 C6 1_555 1_555
C6 C7 1_555 1_555
C8 C9 1_555 1_555
C13 C17 1_555 1_555
C23 C24 1_555 1_555

#END
