
#######################################################################
#
#                 Cambridge Crystallographic Data Centre
#                                CCDC 
#
#######################################################################
#
# If this CIF has been generated from an entry in the Cambridge 
# Structural Database, then it will include bibliographic, chemical, 
# crystal, experimental, refinement or atomic coordinate data resulting 
# from the CCDC's data processing and validation procedures.
#
#######################################################################

data_UWUVIT
_chemical_formula_moiety         'C31 H33 Br1 N2 O2'
_chemical_name_systematic        
N-((2-bromophenyl)(3,4-dihydroisoquinolin-2(1H)-yl)acetyl)-N-cyclohexyl-4-methylbenzamide
_symmetry_cell_setting           monoclinic
_symmetry_space_group_name_H-M   'P 21/c'
_symmetry_Int_Tables_number      14
_space_group_name_Hall           '-P 2ybc'
loop_
_symmetry_equiv_pos_site_id
_symmetry_equiv_pos_as_xyz
1 x,y,z
2 -x,1/2+y,1/2-z
3 -x,-y,-z
4 x,1/2-y,1/2+z
_cell_length_a                   9.828(2)
_cell_length_b                   11.569(2)
_cell_length_c                   23.774(5)
_cell_angle_alpha                90
_cell_angle_beta                 100.19(3)
_cell_angle_gamma                90
_cell_volume                     2660.47
_exptl_crystal_colour            colorless
_exptl_crystal_description       block
_cell_formula_units_Z            4
_exptl_crystal_recrystallization_method 'ethyl acetate/petroleum ether'
loop_
_atom_site_label
_atom_site_type_symbol
_atom_site_fract_x
_atom_site_fract_y
_atom_site_fract_z
Br1 Br 0.29382(5) 0.04920(3) 0.485785(17)
O1 O 0.3516(3) 0.4678(2) 0.29547(11)
N1 N 0.2149(3) 0.2794(2) 0.36037(12)
O2 O 0.3079(3) 0.4687(2) 0.47935(11)
N2 N 0.3734(3) 0.4744(2) 0.39272(12)
C1 C 0.2599(4) 0.2983(3) 0.42174(14)
H1 H 0.3387 0.2465 0.4336
C2 C 0.2306(5) 0.0438(3) 0.25506(18)
H2 H 0.2819 -0.0112 0.2783
C3 C 0.4127(4) 0.5981(3) 0.40125(16)
H3 H 0.4293 0.6125 0.4425
C4 C 0.3969(4) 0.4204(3) 0.34022(15)
C5 C 0.3149(4) 0.4215(3) 0.43431(15)
C6 C 0.0593(5) 0.1378(4) 0.52296(16)
H4 H 0.0631 0.0677 0.5424
C7 C 0.4963(4) 0.3238(3) 0.34454(15)
C8 C 0.1539(4) 0.2682(3) 0.45930(15)
C9 C 0.1558(5) 0.1638(3) 0.48867(16)
C10 C 0.5887(4) 0.2974(3) 0.39444(16)
H5 H 0.5867 0.3391 0.4277
C11 C 0.5034(4) 0.2611(3) 0.29517(16)
H6 H 0.4436 0.2789 0.2614
C12 C 0.5463(4) 0.6270(3) 0.38011(17)
H7 H 0.6201 0.5771 0.3987
H8 H 0.5343 0.6140 0.3392
C13 C -0.0432(5) 0.2183(4) 0.52776(18)
H9 H -0.1091 0.2017 0.5503
C14 C 0.1847(4) 0.1418(3) 0.27984(15)
C15 C 0.3344(4) 0.8034(3) 0.38819(19)
H10 H 0.2604 0.8534 0.3698
H11 H 0.3463 0.8159 0.4291
C16 C 0.2954(4) 0.6775(3) 0.37471(18)
H12 H 0.2125 0.6585 0.3897
H13 H 0.2761 0.6663 0.3336
C17 C 0.2019(5) 0.0260(4) 0.19666(17)
H14 H 0.2327 -0.0403 0.1807
C18 C 0.1268(4) 0.1083(4) 0.16258(17)
H15 H 0.1074 0.0977 0.1232
C19 C 0.0500(4) 0.3461(3) 0.46608(17)
H16 H 0.0464 0.4170 0.4474
C20 C 0.2197(4) 0.1580(3) 0.34389(15)
H17 H 0.1549 0.1143 0.3619
H18 H 0.3116 0.1277 0.3577
C21 C 0.4679(4) 0.8342(3) 0.36732(19)
H19 H 0.4939 0.9131 0.3781
H20 H 0.4535 0.8289 0.3260
C22 C 0.5980(4) 0.1731(3) 0.29569(16)
H21 H 0.6004 0.1313 0.2624
C23 C 0.0811(4) 0.3313(3) 0.33546(16)
H22 H 0.0764 0.4094 0.3498
H23 H 0.0069 0.2868 0.3470
C24 C 0.0801(4) 0.2060(4) 0.18615(17)
H24 H 0.0289 0.2605 0.1626
C25 C 0.6830(4) 0.2096(3) 0.39424(17)
H25 H 0.7438 0.1923 0.4278
C26 C 0.7943(6) 0.0509(4) 0.3454(2)
H26 H 0.7836 0.0173 0.3079
H27 H 0.7801 -0.0074 0.3725
H28 H 0.8858 0.0822 0.3557
C27 C -0.0479(5) 0.3218(4) 0.49957(18)
H29 H -0.1165 0.3754 0.5029
C28 C 0.1093(4) 0.2241(3) 0.24559(16)
C29 C 0.5841(5) 0.7521(3) 0.3933(2)
H30 H 0.6671 0.7708 0.3784
H31 H 0.6040 0.7629 0.4344
C30 C 0.0622(5) 0.3337(4) 0.27070(17)
H32 H -0.0347 0.3463 0.2552
H33 H 0.1138 0.3984 0.2592
C31 C 0.6897(4) 0.1460(3) 0.34532(18)
loop_
_geom_bond_atom_site_label_1
_geom_bond_atom_site_label_2
_geom_bond_site_symmetry_1
_geom_bond_site_symmetry_2
Br1 C9 1_555 1_555
O1 C4 1_555 1_555
N1 C1 1_555 1_555
O2 C5 1_555 1_555
N2 C3 1_555 1_555
C1 H1 1_555 1_555
C2 H2 1_555 1_555
C3 H3 1_555 1_555
C4 N2 1_555 1_555
C5 N2 1_555 1_555
C6 H4 1_555 1_555
C7 C4 1_555 1_555
C8 C1 1_555 1_555
C9 C6 1_555 1_555
C10 C7 1_555 1_555
H5 C10 1_555 1_555
C11 C7 1_555 1_555
H6 C11 1_555 1_555
C12 C3 1_555 1_555
H7 C12 1_555 1_555
H8 C12 1_555 1_555
C13 C6 1_555 1_555
H9 C13 1_555 1_555
C14 C2 1_555 1_555
C15 H10 1_555 1_555
H11 C15 1_555 1_555
C16 C3 1_555 1_555
H12 C16 1_555 1_555
H13 C16 1_555 1_555
C17 C2 1_555 1_555
H14 C17 1_555 1_555
C18 C17 1_555 1_555
H15 C18 1_555 1_555
C19 C8 1_555 1_555
H16 C19 1_555 1_555
C20 N1 1_555 1_555
H17 C20 1_555 1_555
H18 C20 1_555 1_555
C21 C15 1_555 1_555
H19 C21 1_555 1_555
H20 C21 1_555 1_555
C22 C11 1_555 1_555
H21 C22 1_555 1_555
C23 N1 1_555 1_555
H22 C23 1_555 1_555
H23 C23 1_555 1_555
C24 C18 1_555 1_555
H24 C24 1_555 1_555
C25 C10 1_555 1_555
H25 C25 1_555 1_555
C26 H26 1_555 1_555
H27 C26 1_555 1_555
H28 C26 1_555 1_555
C27 C13 1_555 1_555
H29 C27 1_555 1_555
C28 C14 1_555 1_555
C29 C12 1_555 1_555
H30 C29 1_555 1_555
H31 C29 1_555 1_555
C30 C23 1_555 1_555
H32 C30 1_555 1_555
H33 C30 1_555 1_555
C31 C22 1_555 1_555
C1 C5 1_555 1_555
C8 C9 1_555 1_555
C14 C20 1_555 1_555
C15 C16 1_555 1_555
C19 C27 1_555 1_555
C21 C29 1_555 1_555
C24 C28 1_555 1_555
C25 C31 1_555 1_555
C26 C31 1_555 1_555
C28 C30 1_555 1_555

#END
