
#######################################################################
#
#                 Cambridge Crystallographic Data Centre
#                                CCDC 
#
#######################################################################
#
# If this CIF has been generated from an entry in the Cambridge 
# Structural Database, then it will include bibliographic, chemical, 
# crystal, experimental, refinement or atomic coordinate data resulting 
# from the CCDC's data processing and validation procedures.
#
#######################################################################

data_UWUVIS
_chemical_formula_moiety         'C92 H86 N4 S4'
_chemical_name_systematic        
5,10,15,20-tetrakis(4-((5-hexyl-2-thienyl)ethynyl)phenyl)porphyrin
_symmetry_cell_setting           triclinic
_symmetry_space_group_name_H-M   'P -1'
_symmetry_Int_Tables_number      2
_space_group_name_Hall           '-P 1'
loop_
_symmetry_equiv_pos_site_id
_symmetry_equiv_pos_as_xyz
1 x,y,z
2 -x,-y,-z
_cell_length_a                   9.1290(18)
_cell_length_b                   20.121(4)
_cell_length_c                   21.611(4)
_cell_angle_alpha                86.12(3)
_cell_angle_beta                 82.87(3)
_cell_angle_gamma                87.06(3)
_cell_volume                     3926.19
_exptl_crystal_colour            red
_exptl_crystal_description       plate
_cell_formula_units_Z            2
loop_
_atom_site_label
_atom_site_type_symbol
_atom_site_fract_x
_atom_site_fract_y
_atom_site_fract_z
N1 N 0.5458(6) 0.6816(3) 0.9589(2)
H1 H 0.5686 0.6460 0.9393
N2 N 0.6715(6) 0.5515(3) 0.9913(2)
N3 N 0.7195(6) 0.5213(3) 0.8598(2)
H2 H 0.6695 0.5511 0.8812
N4 N 0.5708(7) 0.6485(3) 0.8300(2)
S1 S 0.0802(3) 1.16060(11) 0.71151(10)
S2 S 0.6487(4) 0.80092(17) 1.45664(11)
S3 S 1.3107(3) 0.06142(11) 1.08334(11)
S4 S 0.7909(3) 0.41384(12) 0.34770(9)
C1 C 0.4607(8) 0.7524(4) 0.8718(3)
C2 C 0.4928(8) 0.7399(4) 0.9329(3)
C3 C 0.4766(8) 0.7865(4) 0.9809(3)
H3 H 0.4453 0.8311 0.9764
C4 C 0.5145(8) 0.7545(4) 1.0337(3)
H4 H 0.5128 0.7731 1.0721
C5 C 0.5578(8) 0.6872(4) 1.0207(3)
C6 C 0.5948(8) 0.6379(4) 1.0640(3)
C7 C 0.6405(8) 0.5736(4) 1.0501(3)
C8 C 0.6750(8) 0.5193(4) 1.0947(3)
H5 H 0.6624 0.5207 1.1380
C9 C 0.7281(8) 0.4668(4) 1.0623(3)
H6 H 0.7571 0.4250 1.0789
C10 C 0.7317(8) 0.4875(4) 0.9973(3)
C11 C 0.7939(8) 0.4491(3) 0.9476(3)
C12 C 0.7948(8) 0.4670(4) 0.8839(3)
C13 C 0.8691(8) 0.4315(3) 0.8331(3)
H7 H 0.9310 0.3936 0.8361
C14 C 0.8321(8) 0.4635(3) 0.7805(3)
H8 H 0.8633 0.4508 0.7402
C15 C 0.7371(8) 0.5203(4) 0.7960(3)
C16 C 0.6695(8) 0.5658(4) 0.7551(3)
C17 C 0.5898(9) 0.6241(4) 0.7717(3)
C18 C 0.5181(9) 0.6699(4) 0.7291(3)
H9 H 0.5140 0.6646 0.6869
C19 C 0.4599(9) 0.7205(4) 0.7608(3)
H10 H 0.4055 0.7570 0.7455
C20 C 0.4970(9) 0.7083(4) 0.8239(3)
C21 C 0.3884(10) 0.8188(4) 0.8551(3)
C22 C 0.4529(9) 0.8631(4) 0.8093(3)
H11 H 0.5451 0.8521 0.7882
C23 C 0.3822(11) 0.9237(4) 0.7943(3)
H12 H 0.4276 0.9522 0.7627
C24 C 0.2436(11) 0.9433(4) 0.8255(4)
C25 C 0.1801(10) 0.8996(4) 0.8707(4)
H13 H 0.0883 0.9109 0.8920
C26 C 0.2503(10) 0.8379(4) 0.8859(3)
H14 H 0.2040 0.8092 0.9170
C27 C 0.1778(10) 1.0060(4) 0.8096(3)
C28 C 0.1224(10) 1.0576(5) 0.7984(4)
C29 C 0.0564(10) 1.1222(4) 0.7844(4)
C30 C -0.0296(12) 1.1615(5) 0.8229(4)
H15 H -0.0558 1.1494 0.8650
C31 C -0.0784(13) 1.2243(5) 0.7939(5)
H16 H -0.1354 1.2572 0.8150
C32 C -0.0318(12) 1.2290(4) 0.7338(5)
C33 C -0.0473(16) 1.2903(4) 0.6880(6)
H17 H -0.1212 1.3215 0.7071
H18 H 0.0460 1.3122 0.6808
C34 C -0.0915(19) 1.2729(6) 0.6250(6)
H19 H -0.1789 1.2467 0.6327
H20 H -0.0126 1.2454 0.6042
C35 C -0.124(2) 1.3337(6) 0.5808(8)
H21 H -0.0832 1.3737 0.5934
H22 H -0.2288 1.3414 0.5790
C36 C -0.043(2) 1.3120(12) 0.5181(11)
H23 H -0.0295 1.3490 0.4870
H24 H 0.0510 1.2887 0.5226
C37 C -0.161(3) 1.2649(12) 0.5040(8)
H25 H -0.2569 1.2871 0.5014
H26 H -0.1693 1.2256 0.5325
C38 C -0.076(3) 1.2511(9) 0.4398(12)
H27 H -0.0070 1.2855 0.4274
H28 H -0.1442 1.2506 0.4095
H29 H -0.0232 1.2087 0.4424
C39 C 0.5935(9) 0.6559(3) 1.1294(3)
C40 C 0.6939(9) 0.6956(4) 1.1470(3)
H30 H 0.7656 0.7129 1.1167
C41 C 0.6948(10) 0.7117(4) 1.2091(4)
H31 H 0.7675 0.7384 1.2191
C42 C 0.5893(10) 0.6882(4) 1.2552(3)
C43 C 0.4859(10) 0.6491(4) 1.2375(3)
H32 H 0.4114 0.6331 1.2672
C44 C 0.4900(9) 0.6329(4) 1.1764(4)
H33 H 0.4193 0.6050 1.1665
C45 C 0.5899(9) 0.7030(4) 1.3189(4)
C46 C 0.5958(10) 0.7130(4) 1.3725(4)
C47 C 0.6013(11) 0.7259(5) 1.4352(4)
C48 C 0.5676(15) 0.6835(5) 1.4862(5)
H34 H 0.5366 0.6404 1.4846
C49 C 0.586(2) 0.7130(7) 1.5406(6)
H35 H 0.5673 0.6901 1.5794
C50 C 0.6286(16) 0.7736(6) 1.5356(4)
C51 C 0.6624(15) 0.8247(8) 1.5813(5)
H36 H 0.7086 0.8018 1.6153
H37 H 0.7312 0.8561 1.5598
C52 C 0.5201(19) 0.8625(8) 1.6079(6)
H38 H 0.4540 0.8277 1.6245
H39 H 0.5472 0.8829 1.6440
C53 C 0.4199(18) 0.9159(10) 1.5778(7)
H40 H 0.3992 0.9002 1.5385
H41 H 0.4758 0.9558 1.5680
C54 C 0.271(2) 0.9361(9) 1.6151(6)
H42 H 0.2839 0.9541 1.6545
H43 H 0.2044 0.8998 1.6221
C55 C 0.224(2) 0.9902(12) 1.5669(9)
H44 H 0.2889 1.0272 1.5609
H45 H 0.2143 0.9724 1.5270
C56 C 0.073(2) 1.0088(15) 1.6031(12)
H46 H 0.0068 0.9732 1.6023
H47 H 0.0320 1.0489 1.5840
H48 H 0.0851 1.0158 1.6456
C57 C 0.8719(9) 0.3834(4) 0.9642(3)
C58 C 0.9906(9) 0.3792(4) 0.9976(3)
H49 H 1.0231 0.4180 1.0112
C59 C 1.0632(8) 0.3197(4) 1.0116(3)
H50 H 1.1448 0.3186 1.0335
C60 C 1.0128(10) 0.2607(4) 0.9924(3)
C61 C 0.8905(10) 0.2650(4) 0.9602(3)
H51 H 0.8551 0.2262 0.9477
C62 C 0.8198(9) 0.3252(4) 0.9460(3)
H52 H 0.7376 0.3268 0.9244
C63 C 1.0838(10) 0.1977(5) 1.0039(3)
C64 C 1.1402(10) 0.1440(5) 1.0123(4)
C65 C 1.2041(9) 0.0779(4) 1.0229(3)
C66 C 1.1909(13) 0.0227(5) 0.9933(5)
H53 H 1.1388 0.0213 0.9591
C67 C 1.2640(14) -0.0320(5) 1.0195(5)
H54 H 1.2636 -0.0743 1.0046
C68 C 1.3344(11) -0.0199(4) 1.0671(4)
C69 C 1.4283(11) -0.0676(4) 1.1065(5)
H55 H 1.5304 -0.0549 1.0989
H56 H 1.4244 -0.1125 1.0933
C70 C 1.3763(12) -0.0672(5) 1.1770(5)
H57 H 1.2715 -0.0753 1.1833
H58 H 1.3877 -0.0227 1.1900
C71 C 1.4537(13) -0.1173(5) 1.2207(6)
H59 H 1.5586 -0.1093 1.2149
H60 H 1.4420 -0.1619 1.2083
C72 C 1.3965(19) -0.1142(8) 1.2906(6)
H61 H 1.2960 -0.1290 1.2955
H62 H 1.4538 -0.1480 1.3124
C73 C 1.392(4) -0.0513(10) 1.3277(11)
H63 H 1.3319 -0.0143 1.3122
H64 H 1.4888 -0.0373 1.3346
C74 C 1.314(2) -0.0942(8) 1.3824(10)
H65 H 1.2100 -0.0932 1.3791
H66 H 1.3298 -0.0767 1.4212
H67 H 1.3532 -0.1393 1.3810
C75 C 0.6909(10) 0.5502(4) 0.6874(3)
C76 C 0.8059(12) 0.5740(5) 0.6476(4)
H68 H 0.8738 0.6001 0.6623
C77 C 0.8226(12) 0.5597(6) 0.5850(4)
H69 H 0.9010 0.5769 0.5580
C78 C 0.7259(11) 0.5209(4) 0.5625(3)
C79 C 0.6127(10) 0.4972(4) 0.6020(4)
H70 H 0.5446 0.4714 0.5871
C80 C 0.5958(10) 0.5105(4) 0.6642(4)
H71 H 0.5184 0.4922 0.6910
C81 C 0.7440(9) 0.5071(4) 0.4970(4)
C82 C 0.7576(10) 0.4998(4) 0.4409(4)
C83 C 0.7771(9) 0.4919(4) 0.3768(3)
C84 C 0.7874(9) 0.5398(5) 0.3298(4)
H72 H 0.7818 0.5851 0.3362
C85 C 0.8075(9) 0.5143(5) 0.2702(4)
H73 H 0.8151 0.5413 0.2334
C86 C 0.8149(9) 0.4462(5) 0.2714(3)
C87 C 0.8463(12) 0.3998(5) 0.2171(3)
H74 H 0.8912 0.4246 0.1802
H75 H 0.7540 0.3834 0.2076
C88 C 0.9501(13) 0.3403(5) 0.2338(4)
H76 H 1.0413 0.3566 0.2445
H77 H 0.9039 0.3147 0.2700
C89 C 0.9849(16) 0.2951(7) 0.1788(5)
H78 H 1.0258 0.3209 0.1418
H79 H 0.8951 0.2758 0.1699
C90 C 1.0971(16) 0.2393(8) 0.1963(8)
H80 H 1.1356 0.2153 0.1599
H81 H 1.1789 0.2579 0.2130
C91 C 1.0127(16) 0.1925(8) 0.2460(7)
H82 H 0.9198 0.1820 0.2323
H83 H 0.9910 0.2144 0.2849
C92 C 1.1067(15) 0.1279(7) 0.2564(6)
H84 H 1.1164 0.1033 0.2194
H85 H 1.0594 0.1013 0.2910
H86 H 1.2028 0.1389 0.2652
loop_
_geom_bond_atom_site_label_1
_geom_bond_atom_site_label_2
_geom_bond_site_symmetry_1
_geom_bond_site_symmetry_2
N1 H1 1_555 1_555
N2 C7 1_555 1_555
N3 H2 1_555 1_555
N4 C17 1_555 1_555
S1 C29 1_555 1_555
S2 C47 1_555 1_555
S3 C65 1_555 1_555
S4 C83 1_555 1_555
C1 C2 1_555 1_555
C2 N1 1_555 1_555
C3 C2 1_555 1_555
H3 C3 1_555 1_555
C4 C3 1_555 1_555
H4 C4 1_555 1_555
C5 N1 1_555 1_555
C6 C5 1_555 1_555
C7 C6 1_555 1_555
C8 C7 1_555 1_555
H5 C8 1_555 1_555
C9 C8 1_555 1_555
H6 C9 1_555 1_555
C10 N2 1_555 1_555
C11 C10 1_555 1_555
C12 N3 1_555 1_555
C13 C12 1_555 1_555
H7 C13 1_555 1_555
C14 C13 1_555 1_555
H8 C14 1_555 1_555
C15 N3 1_555 1_555
C16 C15 1_555 1_555
C17 C16 1_555 1_555
C18 C17 1_555 1_555
H9 C18 1_555 1_555
C19 C18 1_555 1_555
H10 C19 1_555 1_555
C20 N4 1_555 1_555
C21 C1 1_555 1_555
C22 C21 1_555 1_555
H11 C22 1_555 1_555
C23 C22 1_555 1_555
H12 C23 1_555 1_555
C24 C23 1_555 1_555
C25 C24 1_555 1_555
H13 C25 1_555 1_555
C26 C21 1_555 1_555
H14 C26 1_555 1_555
C27 C24 1_555 1_555
C28 C27 1_555 1_555
C29 C28 1_555 1_555
C30 C29 1_555 1_555
H15 C30 1_555 1_555
C31 C30 1_555 1_555
H16 C31 1_555 1_555
C32 S1 1_555 1_555
C33 C32 1_555 1_555
H17 C33 1_555 1_555
H18 C33 1_555 1_555
C34 C33 1_555 1_555
H19 C34 1_555 1_555
H20 C34 1_555 1_555
C35 C34 1_555 1_555
H21 C35 1_555 1_555
H22 C35 1_555 1_555
C36 C35 1_555 1_555
H23 C36 1_555 1_555
H24 C36 1_555 1_555
C37 C36 1_555 1_555
H25 C37 1_555 1_555
H26 C37 1_555 1_555
C38 C37 1_555 1_555
H27 C38 1_555 1_555
H28 C38 1_555 1_555
H29 C38 1_555 1_555
C39 C6 1_555 1_555
C40 C39 1_555 1_555
H30 C40 1_555 1_555
C41 C40 1_555 1_555
H31 C41 1_555 1_555
C42 C41 1_555 1_555
C43 C42 1_555 1_555
H32 C43 1_555 1_555
C44 C39 1_555 1_555
H33 C44 1_555 1_555
C45 C42 1_555 1_555
C46 C45 1_555 1_555
C47 C46 1_555 1_555
C48 C47 1_555 1_555
H34 C48 1_555 1_555
C49 C48 1_555 1_555
H35 C49 1_555 1_555
C50 S2 1_555 1_555
C51 C50 1_555 1_555
H36 C51 1_555 1_555
H37 C51 1_555 1_555
C52 C51 1_555 1_555
H38 C52 1_555 1_555
H39 C52 1_555 1_555
C53 C52 1_555 1_555
H40 C53 1_555 1_555
H41 C53 1_555 1_555
C54 C53 1_555 1_555
H42 C54 1_555 1_555
H43 C54 1_555 1_555
C55 C54 1_555 1_555
H44 C55 1_555 1_555
H45 C55 1_555 1_555
C56 C55 1_555 1_555
H46 C56 1_555 1_555
H47 C56 1_555 1_555
H48 C56 1_555 1_555
C57 C11 1_555 1_555
C58 C57 1_555 1_555
H49 C58 1_555 1_555
C59 C58 1_555 1_555
H50 C59 1_555 1_555
C60 C59 1_555 1_555
C61 C60 1_555 1_555
H51 C61 1_555 1_555
C62 C57 1_555 1_555
H52 C62 1_555 1_555
C63 C60 1_555 1_555
C64 C63 1_555 1_555
C65 C64 1_555 1_555
C66 C65 1_555 1_555
H53 C66 1_555 1_555
C67 C66 1_555 1_555
H54 C67 1_555 1_555
C68 S3 1_555 1_555
C69 C68 1_555 1_555
H55 C69 1_555 1_555
H56 C69 1_555 1_555
C70 C69 1_555 1_555
H57 C70 1_555 1_555
H58 C70 1_555 1_555
C71 C70 1_555 1_555
H59 C71 1_555 1_555
H60 C71 1_555 1_555
C72 C71 1_555 1_555
H61 C72 1_555 1_555
H62 C72 1_555 1_555
C73 C72 1_555 1_555
H63 C73 1_555 1_555
H64 C73 1_555 1_555
C74 C73 1_555 1_555
H65 C74 1_555 1_555
H66 C74 1_555 1_555
H67 C74 1_555 1_555
C75 C16 1_555 1_555
C76 C75 1_555 1_555
H68 C76 1_555 1_555
C77 C76 1_555 1_555
H69 C77 1_555 1_555
C78 C77 1_555 1_555
C79 C78 1_555 1_555
H70 C79 1_555 1_555
C80 C75 1_555 1_555
H71 C80 1_555 1_555
C81 C78 1_555 1_555
C82 C81 1_555 1_555
C83 C82 1_555 1_555
C84 C83 1_555 1_555
H72 C84 1_555 1_555
C85 C84 1_555 1_555
H73 C85 1_555 1_555
C86 S4 1_555 1_555
C87 C86 1_555 1_555
H74 C87 1_555 1_555
H75 C87 1_555 1_555
C88 C87 1_555 1_555
H76 C88 1_555 1_555
H77 C88 1_555 1_555
C89 C88 1_555 1_555
H78 C89 1_555 1_555
H79 C89 1_555 1_555
C90 C89 1_555 1_555
H80 C90 1_555 1_555
H81 C90 1_555 1_555
C91 C90 1_555 1_555
H82 C91 1_555 1_555
H83 C91 1_555 1_555
C92 C91 1_555 1_555
H84 C92 1_555 1_555
H85 C92 1_555 1_555
H86 C92 1_555 1_555
C1 C20 1_555 1_555
C4 C5 1_555 1_555
C9 C10 1_555 1_555
C11 C12 1_555 1_555
C14 C15 1_555 1_555
C19 C20 1_555 1_555
C25 C26 1_555 1_555
C31 C32 1_555 1_555
C43 C44 1_555 1_555
C49 C50 1_555 1_555
C61 C62 1_555 1_555
C67 C68 1_555 1_555
C79 C80 1_555 1_555
C85 C86 1_555 1_555

#END
