
#######################################################################
#
#                 Cambridge Crystallographic Data Centre
#                                CCDC 
#
#######################################################################
#
# If this CIF has been generated from an entry in the Cambridge 
# Structural Database, then it will include bibliographic, chemical, 
# crystal, experimental, refinement or atomic coordinate data resulting 
# from the CCDC's data processing and validation procedures.
#
#######################################################################

data_UWUZOC
_chemical_formula_moiety         'C22 H25 N1 O5 Se1,0.25(C1 H4 O1),0.25(H2 O1)'
_chemical_name_systematic        
'(R)-t-Butyl 3-methyl-2-oxo-3-(2-(phenylselenonyl)ethyl)indoline-1-carboxylate methanol solvate hydrate'
_symmetry_cell_setting           monoclinic
_symmetry_space_group_name_H-M   'P 21'
_symmetry_Int_Tables_number      4
_space_group_name_Hall           'P 2yb'
loop_
_symmetry_equiv_pos_site_id
_symmetry_equiv_pos_as_xyz
1 x,y,z
2 -x,1/2+y,-z
_cell_length_a                   16.835(3)
_cell_length_b                   13.587(3)
_cell_length_c                   19.790(4)
_cell_angle_alpha                90
_cell_angle_beta                 101.80(3)
_cell_angle_gamma                90
_cell_volume                     4431.05
_exptl_crystal_colour            colorless
_exptl_crystal_description       block
_cell_formula_units_Z            8
loop_
_atom_site_label
_atom_site_type_symbol
_atom_site_fract_x
_atom_site_fract_y
_atom_site_fract_z
Se1 Se 0.88862(4) -0.99155(5) 0.78377(3)
O1 O 0.9239(3) -1.0279(3) 0.8616(2)
O2 O 0.8604(3) -1.0778(4) 0.7273(3)
O3 O 0.6406(3) -0.8140(4) 0.6910(3)
O4 O 0.5279(3) -0.8860(4) 0.5847(3)
O5 O 0.4332(3) -0.9754(5) 0.6221(3)
N1 N 0.5449(3) -0.9350(4) 0.6972(3)
C1 C 0.9677(4) -0.9125(5) 0.7520(3)
C2 C 1.0389(4) -0.8855(5) 0.7973(4)
H1 H 1.0495 -0.9060 0.8441
C3 C 1.0931(4) -0.8286(5) 0.7720(4)
H2 H 1.1430 -0.8109 0.8014
C4 C 1.0761(5) -0.7962(6) 0.7038(4)
H3 H 1.1130 -0.7536 0.6877
C5 C 1.0061(5) -0.8257(6) 0.6597(4)
H4 H 0.9961 -0.8066 0.6125
C6 C 0.9504(4) -0.8832(5) 0.6838(4)
H5 H 0.9011 -0.9022 0.6541
C7 C 0.7968(4) -0.9039(5) 0.7825(4)
H6 H 0.8123 -0.8498 0.8161
H7 H 0.7789 -0.8749 0.7360
C8 C 0.7292(4) -0.9640(5) 0.8014(3)
H8 H 0.7478 -0.9896 0.8489
H9 H 0.7187 -1.0214 0.7700
C9 C 0.6478(4) -0.9074(5) 0.7980(3)
C10 C 0.6593(4) -0.8168(5) 0.8435(4)
H10 H 0.6071 -0.7831 0.8399
H11 H 0.6981 -0.7723 0.8284
H12 H 0.6802 -0.8363 0.8915
C11 C 0.6140(4) -0.8777(5) 0.7225(4)
C12 C 0.5862(4) -0.9796(5) 0.8114(3)
C13 C 0.5831(4) -1.0302(5) 0.8717(4)
H13 H 0.6205 -1.0159 0.9134
C14 C 0.5238(5) -1.1022(6) 0.8696(4)
H14 H 0.5218 -1.1385 0.9103
C15 C 0.4688(5) -1.1215(6) 0.8106(4)
H15 H 0.4287 -1.1707 0.8108
C16 C 0.4702(4) -1.0700(5) 0.7492(4)
H16 H 0.4317 -1.0838 0.7081
C17 C 0.5285(4) -0.9994(5) 0.7502(3)
C18 C 0.5016(4) -0.9288(5) 0.6288(4)
C19 C 0.3759(4) -0.9809(8) 0.5532(4)
C20 C 0.3092(6) -1.0441(13) 0.5709(6)
H17 H 0.3304 -1.1100 0.5841
H18 H 0.2645 -1.0490 0.5306
H19 H 0.2894 -1.0144 0.6094
C21 C 0.4187(6) -1.0316(8) 0.5017(5)
H20 H 0.4343 -1.0985 0.5177
H21 H 0.4673 -0.9942 0.4979
H22 H 0.3819 -1.0347 0.4565
C22 C 0.3478(6) -0.8784(9) 0.5301(5)
H23 H 0.3202 -0.8487 0.5641
H24 H 0.3102 -0.8819 0.4852
H25 H 0.3948 -0.8381 0.5258
Se2 Se 1.11451(4) -0.49820(5) 0.73866(3)
O6 O 1.1410(3) -0.5852(3) 0.7949(3)
O7 O 1.0782(3) -0.5330(4) 0.6606(3)
O8 O 1.3898(3) -0.3573(4) 0.8122(3)
O9 O 1.5740(3) -0.5646(5) 0.8261(3)
O10 O 1.5247(4) -0.4429(5) 0.8785(3)
N2 N 1.4652(3) -0.4803(4) 0.7701(3)
C23 C 1.0342(4) -0.4200(5) 0.7694(3)
C24 C 1.0436(5) -0.4006(5) 0.8397(4)
H26 H 1.0907 -0.4220 0.8714
C25 C 0.9844(5) -0.3506(6) 0.8617(4)
H27 H 0.9899 -0.3359 0.9094
C26 C 0.9163(6) -0.3209(7) 0.8157(5)
H28 H 0.8744 -0.2881 0.8324
C27 C 0.9070(5) -0.3375(6) 0.7457(5)
H29 H 0.8604 -0.3136 0.7146
C28 C 0.9661(4) -0.3892(5) 0.7213(4)
H30 H 0.9605 -0.4032 0.6735
C29 C 1.2092(4) -0.4148(5) 0.7387(4)
H31 H 1.1925 -0.3516 0.7152
H32 H 1.2379 -0.4008 0.7866
C30 C 1.2633(4) -0.4715(5) 0.7006(3)
H33 H 1.2328 -0.4845 0.6531
H34 H 1.2759 -0.5360 0.7237
C31 C 1.3447(4) -0.4201(5) 0.6960(3)
C32 C 1.3289(5) -0.3183(5) 0.6629(4)
H35 H 1.2933 -0.3247 0.6173
H36 H 1.3805 -0.2886 0.6580
H37 H 1.3028 -0.2762 0.6922
C33 C 1.3997(4) -0.4116(5) 0.7672(4)
C34 C 1.5047(4) -0.6013(5) 0.6852(4)
H38 H 1.5505 -0.6268 0.7166
C35 C 1.4838(5) -0.6364(6) 0.6187(4)
H39 H 1.5150 -0.6878 0.6045
C36 C 1.4173(5) -0.5978(7) 0.5716(4)
H40 H 1.4045 -0.6213 0.5254
C37 C 1.3709(4) -0.5256(6) 0.5930(4)
H41 H 1.3251 -0.4999 0.5619
C38 C 1.3904(3) -0.4908(5) 0.6590(3)
C39 C 1.4568(4) -0.5272(5) 0.7052(4)
C40 C 1.5271(4) -0.5000(6) 0.8276(3)
C41 C 1.5850(6) -0.4526(8) 0.9458(4)
C42 C 1.6685(7) -0.4431(10) 0.9359(6)
H42 H 1.6814 -0.4987 0.9085
H43 H 1.7058 -0.4427 0.9810
H44 H 1.6742 -0.3814 0.9116
C43 C 1.5690(9) -0.5499(12) 0.9759(6)
H45 H 1.5129 -0.5520 0.9824
H46 H 1.6062 -0.5588 1.0205
H47 H 1.5775 -0.6028 0.9444
C44 C 1.5584(11) -0.3701(14) 0.9858(7)
H48 H 1.5024 -0.3816 0.9909
H49 H 1.5612 -0.3080 0.9612
H50 H 1.5941 -0.3666 1.0315
Se3 Se 1.09217(4) -1.16760(6) 0.64892(4)
O11 O 1.0913(4) -1.2852(4) 0.6340(3)
O12 O 1.1519(4) -1.1070(6) 0.6121(3)
O13 O 0.8185(3) -1.2774(3) 0.5838(3)
O14 O 0.6572(3) -1.0808(3) 0.6466(3)
O15 O 0.6991(3) -1.2387(3) 0.6447(3)
N3 N 0.7567(3) -1.1242(4) 0.5886(3)
C45 C 1.1258(4) -1.1453(5) 0.7471(4)
C46 C 1.0710(5) -1.1524(6) 0.7896(4)
H51 H 1.0153 -1.1648 0.7713
C47 C 1.0990(5) -1.1412(6) 0.8594(4)
H52 H 1.0625 -1.1455 0.8901
C48 C 1.1797(5) -1.1240(5) 0.8848(4)
H53 H 1.1987 -1.1161 0.9331
C49 C 1.2340(5) -1.1178(6) 0.8409(4)
H54 H 1.2901 -1.1073 0.8594
C50 C 1.2073(4) -1.1267(5) 0.7716(4)
H55 H 1.2435 -1.1203 0.7409
C51 C 0.9831(4) -1.1226(6) 0.6185(4)
H56 H 0.9489 -1.1471 0.6501
H57 H 0.9818 -1.0497 0.6190
C52 C 0.9501(4) -1.1594(6) 0.5464(3)
H58 H 0.9589 -1.2313 0.5450
H59 H 0.9805 -1.1280 0.5143
C53 C 0.8589(4) -1.1374(5) 0.5219(3)
C54 C 0.8297(4) -1.1774(6) 0.4473(3)
H60 H 0.8603 -1.1453 0.4163
H61 H 0.7717 -1.1635 0.4317
H62 H 0.8387 -1.2487 0.4469
C55 C 0.8109(4) -1.1919(5) 0.5682(3)
C56 C 0.7726(4) -1.0276(5) 0.5664(3)
C57 C 0.8341(4) -1.0336(5) 0.5277(3)
C58 C 0.8580(4) -0.9490(5) 0.4982(4)
H63 H 0.8976 -0.9522 0.4703
C59 C 0.8237(5) -0.8603(5) 0.5099(4)
H64 H 0.8416 -0.8015 0.4916
C60 C 0.7640(5) -0.8559(6) 0.5476(4)
H65 H 0.7406 -0.7939 0.5544
C61 C 0.7367(4) -0.9394(5) 0.5759(3)
H66 H 0.6945 -0.9358 0.6012
C62 C 0.6997(4) -1.1437(5) 0.6298(3)
C63 C 0.6392(5) -1.2786(6) 0.6828(4)
C64 C 0.6541(5) -1.2372(6) 0.7544(4)
H67 H 0.7098 -1.2522 0.7781
H68 H 0.6159 -1.2666 0.7799
H69 H 0.6464 -1.1657 0.7521
C65 C 0.6631(6) -1.3868(6) 0.6874(5)
H70 H 0.7184 -1.3936 0.7146
H71 H 0.6608 -1.4128 0.6408
H72 H 0.6255 -1.4237 0.7097
C66 C 0.5549(5) -1.2621(7) 0.6430(5)
H73 H 0.5489 -1.2917 0.5971
H74 H 0.5443 -1.1912 0.6383
H75 H 0.5161 -1.2924 0.6676
Se4 Se 0.92902(4) -0.68067(5) 0.90477(4)
O16 O 0.8820(3) -0.6307(5) 0.9591(3)
O17 O 0.9292(3) -0.7999(4) 0.9057(3)
O18 O 1.2082(3) -0.7945(3) 0.9327(3)
O19 O 1.3508(3) -0.6006(3) 0.8448(3)
O20 O 1.3028(3) -0.7551(3) 0.8469(2)
N4 N 1.2678(3) -0.6425(4) 0.9185(3)
C67 C 0.8772(4) -0.6428(6) 0.8141(4)
C68 C 0.9172(5) -0.6502(6) 0.7600(4)
H76 H 0.9732 -0.6666 0.7680
C69 C 0.8730(7) -0.6329(6) 0.6926(5)
H77 H 0.8997 -0.6377 0.6548
C70 C 0.7941(8) -0.6099(7) 0.6811(7)
H78 H 0.7649 -0.5994 0.6352
C71 C 0.7559(6) -0.6017(7) 0.7346(7)
H79 H 0.6999 -0.5852 0.7255
C72 C 0.7960(5) -0.6165(6) 0.8027(6)
H80 H 0.7687 -0.6090 0.8399
C73 C 1.0406(4) -0.6340(6) 0.9199(4)
H81 H 1.0662 -0.6562 0.8817
H82 H 1.0416 -0.5611 0.9210
C74 C 1.0863(4) -0.6737(6) 0.9867(3)
H83 H 1.0775 -0.7457 0.9881
H84 H 1.0651 -0.6436 1.0250
C75 C 1.1783(4) -0.6528(5) 0.9971(3)
C76 C 1.2195(4) -0.6879(5) 1.0705(3)
H85 H 1.2780 -0.6755 1.0781
H86 H 1.2099 -0.7586 1.0748
H87 H 1.1966 -0.6519 1.1049
C77 C 1.2176(4) -0.7095(5) 0.9453(3)
C78 C 1.2910(4) -0.4573(5) 0.9268(3)
H88 H 1.3311 -0.4563 0.8993
C79 C 1.2651(4) -0.3718(5) 0.9527(4)
H89 H 1.2876 -0.3108 0.9425
C80 C 1.2066(4) -0.3721(5) 0.9938(3)
H90 H 1.1887 -0.3118 1.0098
C81 C 1.1750(4) -0.4603(5) 1.0108(4)
H91 H 1.1355 -0.4614 1.0389
C82 C 1.2021(4) -0.5482(5) 0.9861(3)
C83 C 1.2563(4) -0.5455(5) 0.9423(3)
C84 C 1.3126(4) -0.6623(5) 0.8663(3)
C85 C 1.3458(4) -0.7937(5) 0.7932(4)
C86 C 1.3192(5) -0.9003(5) 0.7891(5)
H92 H 1.3388 -0.9322 0.8338
H93 H 1.3417 -0.9341 0.7535
H94 H 1.2598 -0.9037 0.7774
C87 C 1.4358(5) -0.7854(6) 0.8179(5)
H95 H 1.4516 -0.7158 0.8203
H96 H 1.4634 -0.8199 0.7858
H97 H 1.4514 -0.8150 0.8639
C88 C 1.3173(5) -0.7422(6) 0.7256(4)
H98 H 1.3356 -0.6737 0.7296
H99 H 1.2579 -0.7441 0.7134
H100 H 1.3397 -0.7754 0.6897
O21 O 0.9530(6) -0.4410(6) 1.0078(4)
H101 H 0.9508 -0.5027 1.0090
H102 H 0.9975 -0.4276 0.9970
O22 O 1.0893(7) -0.9750(10) 0.4709(7)
H103 H 1.0846 -0.9487 0.5083
C89 C 1.1119(8) -1.0806(9) 0.4696(6)
H104 H 1.1600 -1.0873 0.4493
H105 H 1.0667 -1.1175 0.4418
H106 H 1.1237 -1.1065 0.5168
loop_
_geom_bond_atom_site_label_1
_geom_bond_atom_site_label_2
_geom_bond_site_symmetry_1
_geom_bond_site_symmetry_2
Se1 O1 1_555 1_555
Se2 O6 1_555 1_555
Se3 O11 1_555 1_555
Se4 O16 1_555 1_555
O2 Se1 1_555 1_555
O3 C11 1_555 1_555
O4 C18 1_555 1_555
O5 C18 1_555 1_555
O7 Se2 1_555 1_555
O8 C33 1_555 1_555
O9 C40 1_555 1_555
O10 C40 1_555 1_555
O12 Se3 1_555 1_555
O13 C55 1_555 1_555
O14 C62 1_555 1_555
O15 C62 1_555 1_555
O17 Se4 1_555 1_555
O18 C77 1_555 1_555
O19 C84 1_555 1_555
O20 C84 1_555 1_555
N1 C11 1_555 1_555
N2 C33 1_555 1_555
N3 C55 1_555 1_555
N4 C77 1_555 1_555
C1 Se1 1_555 1_555
C2 C1 1_555 1_555
H1 C2 1_555 1_555
C3 C2 1_555 1_555
H2 C3 1_555 1_555
C4 C3 1_555 1_555
H3 C4 1_555 1_555
C5 C4 1_555 1_555
H4 C5 1_555 1_555
C6 C1 1_555 1_555
H5 C6 1_555 1_555
C7 Se1 1_555 1_555
H6 C7 1_555 1_555
H7 C7 1_555 1_555
C8 C7 1_555 1_555
H8 C8 1_555 1_555
H9 C8 1_555 1_555
C9 C8 1_555 1_555
C10 C9 1_555 1_555
H10 C10 1_555 1_555
H11 C10 1_555 1_555
H12 C10 1_555 1_555
C11 C9 1_555 1_555
C12 C9 1_555 1_555
C13 C12 1_555 1_555
H13 C13 1_555 1_555
C14 C13 1_555 1_555
H14 C14 1_555 1_555
C15 C14 1_555 1_555
H15 C15 1_555 1_555
C16 C15 1_555 1_555
H16 C16 1_555 1_555
C17 N1 1_555 1_555
C18 N1 1_555 1_555
C19 O5 1_555 1_555
C20 C19 1_555 1_555
H17 C20 1_555 1_555
H18 C20 1_555 1_555
H19 C20 1_555 1_555
C21 C19 1_555 1_555
H20 C21 1_555 1_555
H21 C21 1_555 1_555
H22 C21 1_555 1_555
C22 C19 1_555 1_555
H23 C22 1_555 1_555
H24 C22 1_555 1_555
H25 C22 1_555 1_555
C23 Se2 1_555 1_555
C24 C23 1_555 1_555
H26 C24 1_555 1_555
C25 C24 1_555 1_555
H27 C25 1_555 1_555
C26 C25 1_555 1_555
H28 C26 1_555 1_555
C27 C26 1_555 1_555
H29 C27 1_555 1_555
C28 C23 1_555 1_555
H30 C28 1_555 1_555
C29 Se2 1_555 1_555
H31 C29 1_555 1_555
H32 C29 1_555 1_555
C30 C29 1_555 1_555
H33 C30 1_555 1_555
H34 C30 1_555 1_555
C31 C30 1_555 1_555
C32 C31 1_555 1_555
H35 C32 1_555 1_555
H36 C32 1_555 1_555
H37 C32 1_555 1_555
C33 C31 1_555 1_555
C34 H38 1_555 1_555
C35 C34 1_555 1_555
H39 C35 1_555 1_555
C36 C35 1_555 1_555
H40 C36 1_555 1_555
C37 C36 1_555 1_555
H41 C37 1_555 1_555
C38 C31 1_555 1_555
C39 N2 1_555 1_555
C40 N2 1_555 1_555
C41 O10 1_555 1_555
C42 C41 1_555 1_555
H42 C42 1_555 1_555
H43 C42 1_555 1_555
H44 C42 1_555 1_555
C43 C41 1_555 1_555
H45 C43 1_555 1_555
H46 C43 1_555 1_555
H47 C43 1_555 1_555
C44 C41 1_555 1_555
H48 C44 1_555 1_555
H49 C44 1_555 1_555
H50 C44 1_555 1_555
C45 Se3 1_555 1_555
C46 C45 1_555 1_555
H51 C46 1_555 1_555
C47 C46 1_555 1_555
H52 C47 1_555 1_555
C48 C47 1_555 1_555
H53 C48 1_555 1_555
C49 C48 1_555 1_555
H54 C49 1_555 1_555
C50 C45 1_555 1_555
H55 C50 1_555 1_555
C51 Se3 1_555 1_555
H56 C51 1_555 1_555
H57 C51 1_555 1_555
C52 C51 1_555 1_555
H58 C52 1_555 1_555
H59 C52 1_555 1_555
C53 C52 1_555 1_555
C54 C53 1_555 1_555
H60 C54 1_555 1_555
H61 C54 1_555 1_555
H62 C54 1_555 1_555
C55 C53 1_555 1_555
C56 N3 1_555 1_555
C57 C53 1_555 1_555
C58 C57 1_555 1_555
H63 C58 1_555 1_555
C59 C58 1_555 1_555
H64 C59 1_555 1_555
C60 C59 1_555 1_555
H65 C60 1_555 1_555
C61 C56 1_555 1_555
H66 C61 1_555 1_555
C62 N3 1_555 1_555
C63 O15 1_555 1_555
C64 C63 1_555 1_555
H67 C64 1_555 1_555
H68 C64 1_555 1_555
H69 C64 1_555 1_555
C65 C63 1_555 1_555
H70 C65 1_555 1_555
H71 C65 1_555 1_555
H72 C65 1_555 1_555
C66 C63 1_555 1_555
H73 C66 1_555 1_555
H74 C66 1_555 1_555
H75 C66 1_555 1_555
C67 Se4 1_555 1_555
C68 C67 1_555 1_555
H76 C68 1_555 1_555
C69 C68 1_555 1_555
H77 C69 1_555 1_555
C70 C69 1_555 1_555
H78 C70 1_555 1_555
C71 C70 1_555 1_555
H79 C71 1_555 1_555
C72 C67 1_555 1_555
H80 C72 1_555 1_555
C73 Se4 1_555 1_555
H81 C73 1_555 1_555
H82 C73 1_555 1_555
C74 C73 1_555 1_555
H83 C74 1_555 1_555
H84 C74 1_555 1_555
C75 C74 1_555 1_555
C76 C75 1_555 1_555
H85 C76 1_555 1_555
H86 C76 1_555 1_555
H87 C76 1_555 1_555
C77 C75 1_555 1_555
C78 H88 1_555 1_555
C79 C78 1_555 1_555
H89 C79 1_555 1_555
C80 C79 1_555 1_555
H90 C80 1_555 1_555
C81 C80 1_555 1_555
H91 C81 1_555 1_555
C82 C75 1_555 1_555
C83 N4 1_555 1_555
C84 N4 1_555 1_555
C85 O20 1_555 1_555
C86 C85 1_555 1_555
H92 C86 1_555 1_555
H93 C86 1_555 1_555
H94 C86 1_555 1_555
C87 C85 1_555 1_555
H95 C87 1_555 1_555
H96 C87 1_555 1_555
H97 C87 1_555 1_555
C88 C85 1_555 1_555
H98 C88 1_555 1_555
H99 C88 1_555 1_555
H100 C88 1_555 1_555
O21 H101 1_555 1_555
H102 O21 1_555 1_555
O22 H103 1_555 1_555
C89 O22 1_555 1_555
H104 C89 1_555 1_555
H105 C89 1_555 1_555
H106 C89 1_555 1_555
C5 C6 1_555 1_555
C12 C17 1_555 1_555
C16 C17 1_555 1_555
C27 C28 1_555 1_555
C34 C39 1_555 1_555
C37 C38 1_555 1_555
C38 C39 1_555 1_555
C49 C50 1_555 1_555
C56 C57 1_555 1_555
C60 C61 1_555 1_555
C71 C72 1_555 1_555
C78 C83 1_555 1_555
C81 C82 1_555 1_555
C82 C83 1_555 1_555

#END
