
#######################################################################
#
#                 Cambridge Crystallographic Data Centre
#                                CCDC 
#
#######################################################################
#
# If this CIF has been generated from an entry in the Cambridge 
# Structural Database, then it will include bibliographic, chemical, 
# crystal, experimental, refinement or atomic coordinate data resulting 
# from the CCDC's data processing and validation procedures.
#
#######################################################################

data_UWUZET
_chemical_formula_moiety         'C16 H15 N3 O5'
_chemical_name_systematic        
1,3-dimethyl-5-(nitromethyl)-7-phenyl-1,5-dihydro-2H-pyrano[2,3-d]pyrimidine-2,4(3H)-dione
_symmetry_cell_setting           monoclinic
_symmetry_space_group_name_H-M   'P 21'
_symmetry_Int_Tables_number      4
_space_group_name_Hall           'P 2yb'
loop_
_symmetry_equiv_pos_site_id
_symmetry_equiv_pos_as_xyz
1 x,y,z
2 -x,1/2+y,-z
_cell_length_a                   9.39709(12)
_cell_length_b                   13.14900(13)
_cell_length_c                   12.39423(13)
_cell_angle_alpha                90
_cell_angle_beta                 109.6655(13)
_cell_angle_gamma                90
_cell_volume                     1442.14
_exptl_crystal_colour            colorless
_exptl_crystal_description       block
_cell_formula_units_Z            4
loop_
_atom_site_label
_atom_site_type_symbol
_atom_site_fract_x
_atom_site_fract_y
_atom_site_fract_z
O1 O 0.22011(16) 0.74819(13) -0.16543(11)
O2 O -0.03836(17) 0.71892(13) 0.08604(13)
O3 O 0.47184(16) 0.72833(12) 0.23491(11)
O4 O 0.4080(2) 0.50084(17) -0.0427(2)
O5 O 0.6194(2) 0.52509(16) 0.09158(15)
N1 N 0.08877(19) 0.73496(14) -0.04012(14)
N2 N 0.21879(19) 0.72202(14) 0.15839(13)
N3 N 0.5220(2) 0.55046(15) 0.00253(17)
C1 C 0.8826(2) 0.76781(18) 0.35197(18)
H1 H 0.9080 0.7796 0.2867
C2 C 0.9946(2) 0.76906(19) 0.45896(19)
H2 H 1.0943 0.7822 0.4652
C3 C 0.9577(2) 0.75059(18) 0.55703(18)
H3 H 1.0327 0.7506 0.6287
C4 C 0.8095(2) 0.73233(18) 0.54737(17)
H4 H 0.7849 0.7202 0.6129
C5 C 0.6958(2) 0.73192(18) 0.44009(18)
H5 H 0.5960 0.7202 0.4346
C6 C 0.7320(2) 0.74905(16) 0.34117(17)
C7 C 0.6154(2) 0.74511(16) 0.22640(17)
C8 C 0.6352(2) 0.75356(18) 0.12577(17)
H6 H 0.7316 0.7686 0.1252
C9 C 0.5112(2) 0.74036(17) 0.01280(16)
H7 H 0.5104 0.8011 -0.0332
C10 C 0.3608(2) 0.73505(16) 0.03084(17)
C11 C 0.2233(2) 0.73978(16) -0.06595(17)
C12 C 0.0821(2) 0.72479(16) 0.06896(17)
C13 C 0.3523(2) 0.72841(16) 0.13737(16)
C14 C 0.2155(2) 0.72022(18) 0.27571(17)
H8 H 0.2202 0.7886 0.3040
H9 H 0.3005 0.6823 0.3238
H10 H 0.1236 0.6886 0.2763
C15 C -0.0572(2) 0.74286(18) -0.13306(17)
H11 H -0.1121 0.6804 -0.1386
H12 H -0.0404 0.7555 -0.2041
H13 H -0.1145 0.7978 -0.1173
C16 C 0.5419(3) 0.64781(18) -0.05300(18)
H14 H 0.4730 0.6493 -0.1314
H15 H 0.6442 0.6516 -0.0547
O6 O 0.24254(17) 0.47731(12) 0.20035(12)
O7 O -0.00504(16) 0.50771(12) 0.45838(13)
O8 O 0.50337(16) 0.48827(12) 0.60005(12)
O9 O 0.41782(19) 0.23110(15) 0.29085(15)
O10 O 0.6138(2) 0.25399(14) 0.44184(14)
N4 N 0.11714(19) 0.48612(14) 0.32920(15)
N5 N 0.25219(19) 0.50179(14) 0.52567(14)
N6 N 0.5275(2) 0.28117(15) 0.34788(15)
C17 C 0.9172(2) 0.49442(18) 0.71528(18)
H16 H 0.9443 0.5023 0.6502
C18 C 1.0287(2) 0.49073(18) 0.82296(19)
H17 H 1.1299 0.4956 0.8292
C19 C 0.9898(2) 0.47981(17) 0.92138(17)
H18 H 1.0645 0.4768 0.9931
C20 C 0.8385(2) 0.47357(16) 0.91101(17)
H19 H 0.8117 0.4673 0.9764
C21 C 0.7264(2) 0.47656(16) 0.80380(18)
H20 H 0.6253 0.4720 0.7980
C22 C 0.7647(2) 0.48633(16) 0.70487(17)
C23 C 0.6475(2) 0.48376(16) 0.59003(17)
C24 C 0.6664(2) 0.47620(16) 0.48878(17)
H21 H 0.7647 0.4741 0.4876
C25 C 0.5393(2) 0.47082(17) 0.37611(17)
H22 H 0.5458 0.5328 0.3341
C26 C 0.3896(2) 0.47560(16) 0.39625(17)
C27 C 0.2496(2) 0.47948(16) 0.30113(18)
C28 C 0.1129(2) 0.49851(15) 0.43892(17)
C29 C 0.3836(2) 0.48744(16) 0.50337(17)
C30 C 0.2553(2) 0.52666(19) 0.64217(18)
H23 H 0.2579 0.4650 0.6842
H24 H 0.1664 0.5647 0.6380
H25 H 0.3435 0.5665 0.6803
C31 C -0.0298(2) 0.48989(18) 0.23658(18)
H26 H -0.0142 0.4965 0.1642
H27 H -0.0865 0.5472 0.2480
H28 H -0.0849 0.4285 0.2370
C32 C 0.5553(2) 0.38090(17) 0.30118(18)
H29 H 0.4839 0.3894 0.2242
H30 H 0.6563 0.3812 0.2965
loop_
_geom_bond_atom_site_label_1
_geom_bond_atom_site_label_2
_geom_bond_site_symmetry_1
_geom_bond_site_symmetry_2
O1 C11 1_555 1_555
O2 C12 1_555 1_555
O3 C7 1_555 1_555
O4 N3 1_555 1_555
O5 N3 1_555 1_555
N1 C11 1_555 1_555
N2 C12 1_555 1_555
N3 C16 1_555 1_555
C1 H1 1_555 1_555
C2 C1 1_555 1_555
H2 C2 1_555 1_555
C3 C2 1_555 1_555
H3 C3 1_555 1_555
C4 C3 1_555 1_555
H4 C4 1_555 1_555
C5 C4 1_555 1_555
H5 C5 1_555 1_555
C6 C1 1_555 1_555
C7 C6 1_555 1_555
C8 C7 1_555 1_555
H6 C8 1_555 1_555
C9 C8 1_555 1_555
H7 C9 1_555 1_555
C10 C9 1_555 1_555
C11 C10 1_555 1_555
C12 N1 1_555 1_555
C13 O3 1_555 1_555
C14 N2 1_555 1_555
H8 C14 1_555 1_555
H9 C14 1_555 1_555
H10 C14 1_555 1_555
C15 N1 1_555 1_555
H11 C15 1_555 1_555
H12 C15 1_555 1_555
H13 C15 1_555 1_555
C16 C9 1_555 1_555
H14 C16 1_555 1_555
H15 C16 1_555 1_555
O6 C27 1_555 1_555
O7 C28 1_555 1_555
O8 C23 1_555 1_555
O9 N6 1_555 1_555
O10 N6 1_555 1_555
N4 C27 1_555 1_555
N5 C28 1_555 1_555
N6 C32 1_555 1_555
C17 H16 1_555 1_555
C18 C17 1_555 1_555
H17 C18 1_555 1_555
C19 C18 1_555 1_555
H18 C19 1_555 1_555
C20 C19 1_555 1_555
H19 C20 1_555 1_555
C21 C20 1_555 1_555
H20 C21 1_555 1_555
C22 C17 1_555 1_555
C23 C22 1_555 1_555
C24 C23 1_555 1_555
H21 C24 1_555 1_555
C25 C24 1_555 1_555
H22 C25 1_555 1_555
C26 C25 1_555 1_555
C27 C26 1_555 1_555
C28 N4 1_555 1_555
C29 O8 1_555 1_555
C30 N5 1_555 1_555
H23 C30 1_555 1_555
H24 C30 1_555 1_555
H25 C30 1_555 1_555
C31 N4 1_555 1_555
H26 C31 1_555 1_555
H27 C31 1_555 1_555
H28 C31 1_555 1_555
C32 C25 1_555 1_555
H29 C32 1_555 1_555
H30 C32 1_555 1_555
N2 C13 1_555 1_555
C5 C6 1_555 1_555
C10 C13 1_555 1_555
N5 C29 1_555 1_555
C21 C22 1_555 1_555
C26 C29 1_555 1_555

#END
