
#######################################################################
#
#                 Cambridge Crystallographic Data Centre
#                                CCDC 
#
#######################################################################
#
# If this CIF has been generated from an entry in the Cambridge 
# Structural Database, then it will include bibliographic, chemical, 
# crystal, experimental, refinement or atomic coordinate data resulting 
# from the CCDC's data processing and validation procedures.
#
#######################################################################

data_UXAFUW
_chemical_formula_moiety         'C22 H22 N2 O6'
_chemical_name_systematic        
3a-hydroxy-7a-methyl-4,6-dinitro-5,7-diphenyloctahydro-1H-inden-1-one
_symmetry_cell_setting           orthorhombic
_symmetry_space_group_name_H-M   'P 21 21 21'
_symmetry_Int_Tables_number      19
_space_group_name_Hall           'P 2ac 2ab'
loop_
_symmetry_equiv_pos_site_id
_symmetry_equiv_pos_as_xyz
1 x,y,z
2 1/2-x,-y,1/2+z
3 -x,1/2+y,1/2-z
4 1/2+x,1/2-y,-z
_cell_length_a                   6.60530(10)
_cell_length_b                   16.3208(3)
_cell_length_c                   18.4301(3)
_cell_angle_alpha                90
_cell_angle_beta                 90
_cell_angle_gamma                90
_cell_volume                     1986.83
_exptl_crystal_colour            colorless
_exptl_crystal_description       needle
_cell_formula_units_Z            4
loop_
_atom_site_label
_atom_site_type_symbol
_atom_site_fract_x
_atom_site_fract_y
_atom_site_fract_z
O1 O 0.3977(2) 0.92750(10) 0.19721(8)
O2 O 1.07391(19) 1.01133(8) 0.25854(6)
H1 H 1.1456 0.9839 0.2298
O3 O 0.5496(2) 1.01506(10) 0.07269(8)
O4 O 0.6566(3) 0.95843(11) -0.02609(8)
O5 O 0.9086(3) 1.21323(9) 0.20039(10)
O6 O 1.1908(3) 1.15456(10) 0.16947(9)
N1 N 0.6780(3) 0.97837(10) 0.03728(8)
N2 N 1.0082(3) 1.15467(10) 0.17769(9)
C1 C 0.5431(3) 0.96581(12) 0.21782(9)
C2 C 0.5302(3) 1.04331(14) 0.26302(12)
H2 H 0.4432 1.0344 0.3060
H3 H 0.4729 1.0888 0.2340
C3 C 0.7458(3) 1.06310(12) 0.28615(10)
H4 H 0.7747 1.0402 0.3348
H5 H 0.7678 1.1231 0.2875
C4 C 0.8809(3) 1.02293(11) 0.22836(9)
C5 C 0.7663(3) 0.94134(11) 0.21001(9)
C6 C 0.8473(3) 0.90060(10) 0.13973(9)
H6 H 0.9900 0.8866 0.1529
C7 C 0.8745(3) 0.95766(11) 0.07408(9)
H7 H 0.9595 0.9277 0.0379
C8 C 0.9871(3) 1.03757(10) 0.09293(9)
H8 H 1.1281 1.0219 0.1070
C9 C 0.8907(3) 1.07802(11) 0.15933(9)
H9 H 0.7495 1.0944 0.1463
C10 C 0.7970(3) 0.87945(12) 0.27260(10)
H10 H 0.7557 0.9047 0.3185
H11 H 0.9402 0.8639 0.2753
H12 H 0.7147 0.8305 0.2636
C11 C 0.7581(3) 0.81735(11) 0.11920(9)
C12 C 0.5654(3) 0.80692(12) 0.08994(10)
H13 H 0.4817 0.8534 0.0818
C13 C 0.4942(4) 0.72922(13) 0.07248(11)
H14 H 0.3629 0.7228 0.0522
C14 C 0.6149(4) 0.66103(12) 0.08465(11)
H15 H 0.5652 0.6079 0.0736
C15 C 0.8066(4) 0.67031(13) 0.11274(11)
H16 H 0.8896 0.6236 0.1207
C16 C 0.8786(3) 0.74811(11) 0.12943(10)
H17 H 1.0119 0.7542 0.1481
C17 C 1.0041(3) 1.09324(12) 0.02673(10)
C18 C 1.1571(3) 1.07854(15) -0.02315(11)
H18 H 1.2501 1.0351 -0.0150
C19 C 1.1755(4) 1.12702(18) -0.08505(12)
H19 H 1.2806 1.1164 -0.1190
C20 C 1.0410(4) 1.19048(16) -0.09715(12)
H20 H 1.0540 1.2238 -0.1392
C21 C 0.8890(5) 1.20519(14) -0.04829(13)
H21 H 0.7965 1.2487 -0.0566
C22 C 0.8695(4) 1.15675(13) 0.01332(12)
H22 H 0.7629 1.1672 0.0466
loop_
_geom_bond_atom_site_label_1
_geom_bond_atom_site_label_2
_geom_bond_site_symmetry_1
_geom_bond_site_symmetry_2
O1 C1 1_555 1_555
O2 H1 1_555 1_555
O3 N1 1_555 1_555
O4 N1 1_555 1_555
O5 N2 1_555 1_555
O6 N2 1_555 1_555
N1 C7 1_555 1_555
N2 C9 1_555 1_555
C1 C2 1_555 1_555
C2 H2 1_555 1_555
H3 C2 1_555 1_555
C3 C2 1_555 1_555
H4 C3 1_555 1_555
H5 C3 1_555 1_555
C4 O2 1_555 1_555
C5 C1 1_555 1_555
C6 C5 1_555 1_555
H6 C6 1_555 1_555
C7 C6 1_555 1_555
H7 C7 1_555 1_555
C8 C7 1_555 1_555
H8 C8 1_555 1_555
C9 C4 1_555 1_555
H9 C9 1_555 1_555
C10 C5 1_555 1_555
H10 C10 1_555 1_555
H11 C10 1_555 1_555
H12 C10 1_555 1_555
C11 C6 1_555 1_555
C12 C11 1_555 1_555
H13 C12 1_555 1_555
C13 C12 1_555 1_555
H14 C13 1_555 1_555
C14 C13 1_555 1_555
H15 C14 1_555 1_555
C15 C14 1_555 1_555
H16 C15 1_555 1_555
C16 C11 1_555 1_555
H17 C16 1_555 1_555
C17 C8 1_555 1_555
C18 C17 1_555 1_555
H18 C18 1_555 1_555
C19 C18 1_555 1_555
H19 C19 1_555 1_555
C20 C19 1_555 1_555
H20 C20 1_555 1_555
C21 C20 1_555 1_555
H21 C21 1_555 1_555
C22 C17 1_555 1_555
H22 C22 1_555 1_555
C3 C4 1_555 1_555
C4 C5 1_555 1_555
C8 C9 1_555 1_555
C15 C16 1_555 1_555
C21 C22 1_555 1_555

#END
