
#######################################################################
#
#                 Cambridge Crystallographic Data Centre
#                                CCDC 
#
#######################################################################
#
# If this CIF has been generated from an entry in the Cambridge 
# Structural Database, then it will include bibliographic, chemical, 
# crystal, experimental, refinement or atomic coordinate data resulting 
# from the CCDC's data processing and validation procedures.
#
#######################################################################

data_UXAFIK01
_chemical_formula_moiety         'C22 H20 N4 O10'
_chemical_name_systematic        
3a-hydroxy-7a-methyl-4,6-dinitro-5,7-bis(2-nitrophenyl)octahydro-1H-inden-1-one
_symmetry_cell_setting           orthorhombic
_symmetry_space_group_name_H-M   'P 21 21 21'
_symmetry_Int_Tables_number      19
_space_group_name_Hall           'P 2ac 2ab'
loop_
_symmetry_equiv_pos_site_id
_symmetry_equiv_pos_as_xyz
1 x,y,z
2 1/2-x,-y,1/2+z
3 -x,1/2+y,1/2-z
4 1/2+x,1/2-y,-z
_cell_length_a                   9.3839(2)
_cell_length_b                   11.6090(2)
_cell_length_c                   19.7514(4)
_cell_angle_alpha                90
_cell_angle_beta                 90
_cell_angle_gamma                90
_cell_volume                     2151.67
_exptl_crystal_colour            colorless
_exptl_crystal_description       block
_cell_formula_units_Z            4
loop_
_atom_site_label
_atom_site_type_symbol
_atom_site_fract_x
_atom_site_fract_y
_atom_site_fract_z
O1 O 1.18730(15) 0.84551(12) 0.08226(7)
O2 O 0.95526(13) 1.19361(10) 0.01313(7)
H1 H 0.9966 1.2455 0.0353
O3 O 0.72972(17) 0.73110(11) 0.06303(7)
O4 O 0.60840(14) 0.85899(12) 0.00801(7)
O5 O 0.88844(15) 1.15158(11) -0.12811(7)
O6 O 1.10273(16) 1.09336(14) -0.14797(7)
O7 O 0.91931(18) 0.84491(15) 0.23075(8)
O8 O 0.7276(2) 0.74215(14) 0.22317(9)
O9 O 0.59525(16) 1.10423(13) -0.07538(9)
O10 O 0.42979(17) 1.0148(2) -0.12695(10)
N1 N 0.72001(17) 0.81882(12) 0.02883(7)
N2 N 0.99389(17) 1.09505(13) -0.11409(7)
N3 N 0.7962(2) 0.82995(14) 0.21286(8)
N4 N 0.55397(16) 1.02577(15) -0.11107(8)
C1 C 1.17282(19) 0.94341(16) 0.06322(8)
C2 C 1.28043(19) 1.01284(16) 0.02360(10)
H2 H 1.3123 0.9699 -0.0170
H3 H 1.3646 1.0307 0.0519
C3 C 1.20303(19) 1.12341(15) 0.00314(9)
H4 H 1.2263 1.1448 -0.0441
H5 H 1.2299 1.1879 0.0334
C4 C 1.04307(18) 1.09491(13) 0.01027(8)
C5 C 1.03724(18) 1.01547(14) 0.07429(8)
C6 C 0.90725(18) 0.93488(14) 0.08461(8)
H6 H 0.9430 0.8686 0.1121
C7 C 0.85829(18) 0.88234(14) 0.01563(8)
H7 H 0.9313 0.8246 0.0012
C8 C 0.84202(17) 0.97135(14) -0.04136(8)
H8 H 0.7749 1.0334 -0.0267
C9 C 0.99164(18) 1.02216(14) -0.05059(8)
H9 H 1.0600 0.9570 -0.0569
C10 C 1.0650(2) 1.08615(17) 0.13921(9)
H10 H 1.0608 1.0352 0.1787
H11 H 0.9922 1.1463 0.1435
H12 H 1.1594 1.1218 0.1366
C11 C 0.78121(18) 0.98365(14) 0.12367(8)
C12 C 0.7226(2) 0.92697(15) 0.17970(8)
C13 C 0.5952(2) 0.95852(17) 0.20980(9)
H13 H 0.5590 0.9163 0.2472
C14 C 0.5215(2) 1.05218(17) 0.18470(10)
H14 H 0.4334 1.0746 0.2044
C15 C 0.5771(2) 1.11281(17) 0.13072(10)
H15 H 0.5276 1.1781 0.1137
C16 C 0.7044(2) 1.07946(15) 0.10110(9)
H16 H 0.7407 1.1231 0.0643
C17 C 0.78868(18) 0.91768(13) -0.10716(8)
C18 C 0.65608(19) 0.93931(15) -0.13713(9)
C19 C 0.6105(2) 0.88120(16) -0.19475(9)
H17 H 0.5183 0.8954 -0.2127
C20 C 0.6999(2) 0.80287(16) -0.22570(9)
H18 H 0.6698 0.7633 -0.2653
C21 C 0.8327(2) 0.78239(15) -0.19891(9)
H19 H 0.8955 0.7301 -0.2208
C22 C 0.87556(19) 0.83781(14) -0.14005(9)
H20 H 0.9667 0.8208 -0.1216
loop_
_geom_bond_atom_site_label_1
_geom_bond_atom_site_label_2
_geom_bond_site_symmetry_1
_geom_bond_site_symmetry_2
O1 C1 1_555 1_555
O2 H1 1_555 1_555
O3 N1 1_555 1_555
O4 N1 1_555 1_555
O5 N2 1_555 1_555
O6 N2 1_555 1_555
O7 N3 1_555 1_555
O8 N3 1_555 1_555
O9 N4 1_555 1_555
O10 N4 1_555 1_555
N1 C7 1_555 1_555
N2 C9 1_555 1_555
N3 C12 1_555 1_555
N4 C18 1_555 1_555
C1 C2 1_555 1_555
C2 H2 1_555 1_555
H3 C2 1_555 1_555
C3 C2 1_555 1_555
H4 C3 1_555 1_555
H5 C3 1_555 1_555
C4 O2 1_555 1_555
C5 C1 1_555 1_555
C6 C5 1_555 1_555
H6 C6 1_555 1_555
C7 C6 1_555 1_555
H7 C7 1_555 1_555
C8 C7 1_555 1_555
H8 C8 1_555 1_555
C9 C4 1_555 1_555
H9 C9 1_555 1_555
C10 C5 1_555 1_555
H10 C10 1_555 1_555
H11 C10 1_555 1_555
H12 C10 1_555 1_555
C11 C6 1_555 1_555
C12 C11 1_555 1_555
C13 C12 1_555 1_555
H13 C13 1_555 1_555
C14 C13 1_555 1_555
H14 C14 1_555 1_555
C15 C14 1_555 1_555
H15 C15 1_555 1_555
C16 C11 1_555 1_555
H16 C16 1_555 1_555
C17 C8 1_555 1_555
C18 C17 1_555 1_555
C19 C18 1_555 1_555
H17 C19 1_555 1_555
C20 C19 1_555 1_555
H18 C20 1_555 1_555
C21 C20 1_555 1_555
H19 C21 1_555 1_555
C22 C17 1_555 1_555
H20 C22 1_555 1_555
C3 C4 1_555 1_555
C4 C5 1_555 1_555
C8 C9 1_555 1_555
C15 C16 1_555 1_555
C21 C22 1_555 1_555

#END
