
#######################################################################
#
#                 Cambridge Crystallographic Data Centre
#                                CCDC 
#
#######################################################################
#
# If this CIF has been generated from an entry in the Cambridge 
# Structural Database, then it will include bibliographic, chemical, 
# crystal, experimental, refinement or atomic coordinate data resulting 
# from the CCDC's data processing and validation procedures.
#
#######################################################################

data_UXAFIK
_chemical_formula_moiety         'C22 H20 N4 O10'
_chemical_name_systematic        
3a-hydroxy-7a-methyl-4,6-dinitro-5,7-bis(2-nitrophenyl)octahydro-1H-inden-1-one
_symmetry_cell_setting           orthorhombic
_symmetry_space_group_name_H-M   'P 21 21 21'
_symmetry_Int_Tables_number      19
_space_group_name_Hall           'P 2ac 2ab'
loop_
_symmetry_equiv_pos_site_id
_symmetry_equiv_pos_as_xyz
1 x,y,z
2 1/2-x,-y,1/2+z
3 -x,1/2+y,1/2-z
4 1/2+x,1/2-y,-z
_cell_length_a                   9.38810(10)
_cell_length_b                   11.6070(2)
_cell_length_c                   19.7468(3)
_cell_angle_alpha                90
_cell_angle_beta                 90
_cell_angle_gamma                90
_cell_volume                     2151.76
_exptl_crystal_colour            colorless
_exptl_crystal_description       block
_cell_formula_units_Z            4
loop_
_atom_site_label
_atom_site_type_symbol
_atom_site_fract_x
_atom_site_fract_y
_atom_site_fract_z
O1 O 1.18722(16) 0.84539(12) 0.08221(7)
O2 O 0.95549(14) 1.19360(10) 0.01314(7)
H1 H 0.9958 1.2447 0.0364
O3 O 0.72978(17) 0.73118(11) 0.06300(7)
O4 O 0.60844(14) 0.85899(12) 0.00805(7)
O5 O 0.88868(16) 1.15156(12) -0.12819(7)
O6 O 1.10297(17) 1.09329(15) -0.14797(7)
O7 O 0.91928(18) 0.84498(16) 0.23079(8)
O8 O 0.7279(2) 0.74210(15) 0.22314(10)
O9 O 0.59537(17) 1.10430(13) -0.07540(9)
O10 O 0.42971(17) 1.0150(2) -0.12704(10)
N1 N 0.72005(17) 0.81873(12) 0.02893(7)
N2 N 0.99397(17) 1.09503(13) -0.11412(8)
N3 N 0.7961(2) 0.82992(14) 0.21285(8)
N4 N 0.55406(17) 1.02569(15) -0.11110(8)
C1 C 1.1731(2) 0.94325(16) 0.06322(9)
C2 C 1.28032(19) 1.01290(17) 0.02348(10)
H2 H 1.3121 0.9700 -0.0171
H3 H 1.3646 1.0308 0.0517
C3 C 1.20315(19) 1.12329(15) 0.00308(9)
H4 H 1.2265 1.1447 -0.0442
H5 H 1.2300 1.1877 0.0333
C4 C 1.04311(18) 1.09487(14) 0.01020(9)
C5 C 1.03724(18) 1.01553(14) 0.07425(8)
C6 C 0.90720(18) 0.93484(14) 0.08460(8)
H6 H 0.9430 0.8685 0.1121
C7 C 0.85849(18) 0.88226(14) 0.01558(9)
H7 H 0.9315 0.8245 0.0011
C8 C 0.84213(17) 0.97141(14) -0.04138(8)
H8 H 0.7750 1.0334 -0.0267
C9 C 0.99168(18) 1.02221(14) -0.05066(8)
H9 H 1.0599 0.9570 -0.0570
C10 C 1.0650(2) 1.08614(17) 0.13924(9)
H10 H 1.0601 1.0352 0.1788
H11 H 0.9927 1.1467 0.1434
H12 H 1.1597 1.1213 0.1368
C11 C 0.78110(18) 0.98360(14) 0.12371(8)
C12 C 0.7225(2) 0.92692(16) 0.17972(9)
C13 C 0.5948(2) 0.95853(17) 0.20984(10)
H13 H 0.5584 0.9163 0.2472
C14 C 0.5216(2) 1.05215(18) 0.18469(11)
H14 H 0.4335 1.0747 0.2044
C15 C 0.5773(2) 1.11285(17) 0.13065(11)
H15 H 0.5278 1.1781 0.1136
C16 C 0.7046(2) 1.07950(15) 0.10109(9)
H16 H 0.7411 1.1232 0.0643
C17 C 0.78878(18) 0.91759(14) -0.10723(8)
C18 C 0.65604(19) 0.93925(15) -0.13718(9)
C19 C 0.6107(2) 0.88114(17) -0.19476(10)
H17 H 0.5185 0.8953 -0.2128
C20 C 0.6998(2) 0.80281(17) -0.22570(9)
H18 H 0.6697 0.7632 -0.2653
C21 C 0.8328(2) 0.78240(16) -0.19887(9)
H19 H 0.8956 0.7301 -0.2208
C22 C 0.87560(19) 0.83778(15) -0.14010(9)
H20 H 0.9667 0.8209 -0.1217
loop_
_geom_bond_atom_site_label_1
_geom_bond_atom_site_label_2
_geom_bond_site_symmetry_1
_geom_bond_site_symmetry_2
O1 C1 1_555 1_555
O2 H1 1_555 1_555
O3 N1 1_555 1_555
O4 N1 1_555 1_555
O5 N2 1_555 1_555
O6 N2 1_555 1_555
O7 N3 1_555 1_555
O8 N3 1_555 1_555
O9 N4 1_555 1_555
O10 N4 1_555 1_555
N1 C7 1_555 1_555
N2 C9 1_555 1_555
N3 C12 1_555 1_555
N4 C18 1_555 1_555
C1 C2 1_555 1_555
C2 H2 1_555 1_555
H3 C2 1_555 1_555
C3 C2 1_555 1_555
H4 C3 1_555 1_555
H5 C3 1_555 1_555
C4 O2 1_555 1_555
C5 C1 1_555 1_555
C6 C5 1_555 1_555
H6 C6 1_555 1_555
C7 C6 1_555 1_555
H7 C7 1_555 1_555
C8 C7 1_555 1_555
H8 C8 1_555 1_555
C9 C4 1_555 1_555
H9 C9 1_555 1_555
C10 C5 1_555 1_555
H10 C10 1_555 1_555
H11 C10 1_555 1_555
H12 C10 1_555 1_555
C11 C6 1_555 1_555
C12 C11 1_555 1_555
C13 C12 1_555 1_555
H13 C13 1_555 1_555
C14 C13 1_555 1_555
H14 C14 1_555 1_555
C15 C14 1_555 1_555
H15 C15 1_555 1_555
C16 C11 1_555 1_555
H16 C16 1_555 1_555
C17 C8 1_555 1_555
C18 C17 1_555 1_555
C19 C18 1_555 1_555
H17 C19 1_555 1_555
C20 C19 1_555 1_555
H18 C20 1_555 1_555
C21 C20 1_555 1_555
H19 C21 1_555 1_555
C22 C17 1_555 1_555
H20 C22 1_555 1_555
C3 C4 1_555 1_555
C4 C5 1_555 1_555
C8 C9 1_555 1_555
C15 C16 1_555 1_555
C21 C22 1_555 1_555

#END
