
#######################################################################
#
#                 Cambridge Crystallographic Data Centre
#                                CCDC 
#
#######################################################################
#
# If this CIF has been generated from an entry in the Cambridge 
# Structural Database, then it will include bibliographic, chemical, 
# crystal, experimental, refinement or atomic coordinate data resulting 
# from the CCDC's data processing and validation procedures.
#
#######################################################################

data_UXAFOQ
_chemical_formula_moiety         'C22 H20 Br2 N2 O6,C3 H6 O1'
_chemical_name_systematic        
'5,7-bis(4-bromophenyl)-3a-hydroxy-7a-methyl-4,6-dinitrooctahydro-1H-inden-1-one acetone solvate'
_symmetry_cell_setting           triclinic
_symmetry_space_group_name_H-M   'P -1'
_symmetry_Int_Tables_number      2
_space_group_name_Hall           '-P 1'
loop_
_symmetry_equiv_pos_site_id
_symmetry_equiv_pos_as_xyz
1 x,y,z
2 -x,-y,-z
_cell_length_a                   10.4202(7)
_cell_length_b                   12.1455(8)
_cell_length_c                   12.5464(8)
_cell_angle_alpha                61.4060(13)
_cell_angle_beta                 71.1351(14)
_cell_angle_gamma                78.7175(14)
_cell_volume                     1317.7
_exptl_crystal_colour            colorless
_exptl_crystal_description       block
_cell_formula_units_Z            2
loop_
_atom_site_label
_atom_site_type_symbol
_atom_site_fract_x
_atom_site_fract_y
_atom_site_fract_z
Br1 Br 0.34945(4) 0.93549(3) 0.48687(4)
Br2 Br -0.26477(3) 0.82003(3) -0.09738(3)
O1 O 0.6020(2) 0.4930(2) 0.06930(19)
O2 O 0.2445(2) 0.40735(18) 0.44616(17)
H1 H 0.2195 0.3347 0.4993
O3 O 0.3682(2) 0.8647(2) -0.0433(2)
O4 O 0.1908(2) 0.85971(19) 0.1070(2)
O5 O -0.0123(2) 0.4371(2) 0.3911(2)
O6 O 0.0594(2) 0.3053(2) 0.3129(2)
N1 N 0.2834(2) 0.8091(2) 0.0556(2)
N2 N 0.0717(3) 0.3975(2) 0.3233(2)
C1 C 0.5150(3) 0.4383(3) 0.1644(3)
C2 C 0.4731(3) 0.3071(3) 0.2119(3)
H2 H 0.5512 0.2458 0.2272
H3 H 0.4380 0.3022 0.1500
C3 C 0.3626(3) 0.2805(3) 0.3342(3)
H4 H 0.4006 0.2309 0.4076
H5 H 0.2903 0.2330 0.3417
C4 C 0.3061(3) 0.4095(3) 0.3274(2)
C5 C 0.4328(3) 0.4912(3) 0.2572(2)
C6 C 0.4121(2) 0.6344(2) 0.1891(2)
H6 H 0.4988 0.6643 0.1220
C7 C 0.3026(3) 0.6684(2) 0.1180(2)
H7 H 0.3388 0.6402 0.0504
C8 C 0.1685(3) 0.6062(2) 0.2009(2)
H8 H 0.1358 0.6250 0.2751
C9 C 0.2023(3) 0.4655(2) 0.2465(2)
H9 H 0.2400 0.4491 0.1710
C10 C 0.5243(3) 0.4541(3) 0.3459(3)
H10 H 0.4735 0.4691 0.4189
H11 H 0.6046 0.5048 0.3006
H12 H 0.5528 0.3650 0.3744
C11 C 0.3904(3) 0.7058(2) 0.2662(2)
C12 C 0.4657(3) 0.8101(3) 0.2152(3)
H13 H 0.5271 0.8348 0.1337
C13 C 0.4540(3) 0.8797(3) 0.2794(3)
H14 H 0.5077 0.9500 0.2436
C14 C 0.3632(3) 0.8444(3) 0.3955(3)
C15 C 0.2834(3) 0.7434(3) 0.4487(3)
H15 H 0.2198 0.7213 0.5288
C16 C 0.2974(3) 0.6745(2) 0.3835(2)
H16 H 0.2426 0.6048 0.4195
C17 C 0.0601(3) 0.6515(3) 0.1296(2)
C18 C -0.0571(3) 0.7137(3) 0.1690(3)
H17 H -0.0709 0.7235 0.2427
C19 C -0.1544(3) 0.7616(4) 0.1030(3)
H18 H -0.2340 0.8053 0.1302
C20 C -0.1351(3) 0.7457(3) -0.0024(3)
C21 C -0.0218(3) 0.6807(3) -0.0417(3)
H19 H -0.0106 0.6681 -0.1133
C22 C 0.0756(3) 0.6341(3) 0.0245(3)
H20 H 0.1543 0.5895 -0.0024
O7 O 0.2013(9) 0.1590(6) 0.6283(6)
C23 C 0.1206(16) 0.0770(18) 0.6824(17)
C24 C 0.0018(13) 0.0781(13) 0.6382(14)
H21 H -0.0484 0.0021 0.6974
H22 H -0.0584 0.1522 0.6339
H23 H 0.0348 0.0808 0.5544
C25 C 0.117(2) -0.025(2) 0.797(2)
H24 H 0.0419 -0.0771 0.8198
H25 H 0.2027 -0.0750 0.7921
H26 H 0.1025 0.0032 0.8613
O8? O 0.1288(13) 0.1822(9) 0.6027(10)
C26? C 0.086(3) 0.081(3) 0.666(3)
C27? C 0.003(2) 0.028(2) 0.625(2)
H27? H -0.0228 -0.0566 0.6907
H28? H -0.0792 0.0820 0.6109
H29? H 0.0565 0.0239 0.5468
C28? C 0.147(4) -0.011(4) 0.793(4)
H30? H 0.1060 -0.0924 0.8398
H31? H 0.2462 -0.0231 0.7653
H32? H 0.1258 0.0302 0.8484
loop_
_geom_bond_atom_site_label_1
_geom_bond_atom_site_label_2
_geom_bond_site_symmetry_1
_geom_bond_site_symmetry_2
Br1 C14 1_555 1_555
Br2 C20 1_555 1_555
O1 C1 1_555 1_555
O2 H1 1_555 1_555
O3 N1 1_555 1_555
O4 N1 1_555 1_555
O5 N2 1_555 1_555
O6 N2 1_555 1_555
N1 C7 1_555 1_555
N2 C9 1_555 1_555
C1 C2 1_555 1_555
C2 H2 1_555 1_555
H3 C2 1_555 1_555
C3 C2 1_555 1_555
H4 C3 1_555 1_555
H5 C3 1_555 1_555
C4 O2 1_555 1_555
C5 C1 1_555 1_555
C6 C5 1_555 1_555
H6 C6 1_555 1_555
C7 C6 1_555 1_555
H7 C7 1_555 1_555
C8 C7 1_555 1_555
H8 C8 1_555 1_555
C9 C4 1_555 1_555
H9 C9 1_555 1_555
C10 C5 1_555 1_555
H10 C10 1_555 1_555
H11 C10 1_555 1_555
H12 C10 1_555 1_555
C11 C6 1_555 1_555
C12 C11 1_555 1_555
H13 C12 1_555 1_555
C13 C12 1_555 1_555
H14 C13 1_555 1_555
C14 C13 1_555 1_555
C15 C14 1_555 1_555
H15 C15 1_555 1_555
C16 C11 1_555 1_555
H16 C16 1_555 1_555
C17 C8 1_555 1_555
C18 C17 1_555 1_555
H17 C18 1_555 1_555
C19 C18 1_555 1_555
H18 C19 1_555 1_555
C20 C19 1_555 1_555
C21 C20 1_555 1_555
H19 C21 1_555 1_555
C22 C17 1_555 1_555
H20 C22 1_555 1_555
O7 C23 1_555 1_555
C23 C24 1_555 1_555
C24 H21 1_555 1_555
H22 C24 1_555 1_555
H23 C24 1_555 1_555
C25 C23 1_555 1_555
H24 C25 1_555 1_555
H25 C25 1_555 1_555
H26 C25 1_555 1_555
C3 C4 1_555 1_555
C4 C5 1_555 1_555
C8 C9 1_555 1_555
C15 C16 1_555 1_555
C21 C22 1_555 1_555

#END
