
#######################################################################
#
#                 Cambridge Crystallographic Data Centre
#                                CCDC 
#
#######################################################################
#
# If this CIF has been generated from an entry in the Cambridge 
# Structural Database, then it will include bibliographic, chemical, 
# crystal, experimental, refinement or atomic coordinate data resulting 
# from the CCDC's data processing and validation procedures.
#
#######################################################################

data_UXAFIK02
_chemical_formula_moiety         'C22 H20 N4 O10'
_chemical_name_systematic        
3a-hydroxy-7a-methyl-4,6-dinitro-5,7-bis(2-nitrophenyl)octahydro-1H-inden-1-one
_symmetry_cell_setting           orthorhombic
_symmetry_space_group_name_H-M   'P 21 21 21'
_symmetry_Int_Tables_number      19
_space_group_name_Hall           'P 2ac 2ab'
loop_
_symmetry_equiv_pos_site_id
_symmetry_equiv_pos_as_xyz
1 x,y,z
2 1/2-x,-y,1/2+z
3 -x,1/2+y,1/2-z
4 1/2+x,1/2-y,-z
_cell_length_a                   9.3887(2)
_cell_length_b                   11.6113(3)
_cell_length_c                   19.7433(5)
_cell_angle_alpha                90
_cell_angle_beta                 90
_cell_angle_gamma                90
_cell_volume                     2152.32
_exptl_crystal_colour            colorless
_exptl_crystal_description       block
_cell_formula_units_Z            4
loop_
_atom_site_label
_atom_site_type_symbol
_atom_site_fract_x
_atom_site_fract_y
_atom_site_fract_z
O1 O 0.68729(15) 0.65448(12) 0.91768(7)
O2 O 0.45526(13) 0.30639(10) 0.98683(7)
H1 H 0.4962 0.2548 0.9643
O3 O 0.22974(17) 0.76877(11) 0.93703(7)
O4 O 0.10838(14) 0.64100(12) 0.99190(8)
O5 O 0.38832(16) 0.34847(12) 1.12809(8)
O6 O 0.60266(17) 0.40665(15) 1.14790(8)
O7 O 0.41918(18) 0.65517(16) 0.76928(8)
O8 O 0.2277(2) 0.75795(14) 0.77685(10)
O9 O 0.09513(17) 0.39583(13) 1.07535(9)
O10 O -0.07032(18) 0.4849(2) 1.12700(11)
N1 N 0.21995(17) 0.68133(12) 0.97116(7)
N2 N 0.49391(17) 0.40495(13) 1.11404(8)
N3 N 0.2961(2) 0.66993(14) 0.78724(8)
N4 N 0.05403(17) 0.47416(15) 1.11100(8)
C1 C 0.67306(19) 0.55672(16) 0.93681(9)
C2 C 0.78040(18) 0.48735(17) 0.97651(10)
H2 H 0.8120 0.5303 1.0172
H3 H 0.8647 0.4696 0.9483
C3 C 0.70307(19) 0.37650(15) 0.99685(10)
H4 H 0.7263 0.3550 1.0441
H5 H 0.7299 0.3122 0.9665
C4 C 0.54305(18) 0.40508(13) 0.98970(9)
C5 C 0.53722(18) 0.48440(14) 0.92575(9)
C6 C 0.40718(18) 0.56520(14) 0.91539(8)
H6 H 0.4429 0.6315 0.8879
C7 C 0.35831(17) 0.61749(14) 0.98438(9)
H7 H 0.4313 0.6751 0.9989
C8 C 0.34188(17) 0.52884(14) 1.04128(9)
H8 H 0.2747 0.4669 1.0266
C9 C 0.49170(18) 0.47768(14) 1.05057(9)
H9 H 0.5601 0.5428 1.0569
C10 C 0.5650(2) 0.41390(17) 0.86080(9)
H10 H 0.5605 0.4649 0.8213
H11 H 0.4925 0.3536 0.8565
H12 H 0.6596 0.3785 0.8633
C11 C 0.28115(18) 0.51633(14) 0.87632(9)
C12 C 0.22249(19) 0.57329(15) 0.82030(9)
C13 C 0.0950(2) 0.54164(17) 0.79012(10)
H13 H 0.0588 0.5838 0.7527
C14 C 0.0215(2) 0.44800(17) 0.81524(11)
H14 H -0.0667 0.4257 0.7956
C15 C 0.0770(2) 0.38707(17) 0.86919(11)
H15 H 0.0277 0.3217 0.8861
C16 C 0.2044(2) 0.42060(14) 0.89888(9)
H16 H 0.2407 0.3770 0.9358
C17 C 0.28870(18) 0.58231(13) 1.10709(9)
C18 C 0.15600(18) 0.56069(15) 1.13716(9)
C19 C 0.1106(2) 0.61879(17) 1.19469(10)
H17 H 0.0184 0.6046 1.2127
C20 C 0.1998(2) 0.69728(16) 1.22571(9)
H18 H 0.1697 0.7369 1.2653
C21 C 0.3327(2) 0.71773(15) 1.19884(10)
H19 H 0.3953 0.7702 1.2207
C22 C 0.37562(19) 0.66218(14) 1.14001(9)
H20 H 0.4668 0.6790 1.1216
loop_
_geom_bond_atom_site_label_1
_geom_bond_atom_site_label_2
_geom_bond_site_symmetry_1
_geom_bond_site_symmetry_2
O1 C1 1_555 1_555
O2 H1 1_555 1_555
O3 N1 1_555 1_555
O4 N1 1_555 1_555
O5 N2 1_555 1_555
O6 N2 1_555 1_555
O7 N3 1_555 1_555
O8 N3 1_555 1_555
O9 N4 1_555 1_555
O10 N4 1_555 1_555
N1 C7 1_555 1_555
N2 C9 1_555 1_555
N3 C12 1_555 1_555
N4 C18 1_555 1_555
C1 C2 1_555 1_555
C2 H2 1_555 1_555
H3 C2 1_555 1_555
C3 C2 1_555 1_555
H4 C3 1_555 1_555
H5 C3 1_555 1_555
C4 O2 1_555 1_555
C5 C1 1_555 1_555
C6 C5 1_555 1_555
H6 C6 1_555 1_555
C7 C6 1_555 1_555
H7 C7 1_555 1_555
C8 C7 1_555 1_555
H8 C8 1_555 1_555
C9 C4 1_555 1_555
H9 C9 1_555 1_555
C10 C5 1_555 1_555
H10 C10 1_555 1_555
H11 C10 1_555 1_555
H12 C10 1_555 1_555
C11 C6 1_555 1_555
C12 C11 1_555 1_555
C13 C12 1_555 1_555
H13 C13 1_555 1_555
C14 C13 1_555 1_555
H14 C14 1_555 1_555
C15 C14 1_555 1_555
H15 C15 1_555 1_555
C16 C11 1_555 1_555
H16 C16 1_555 1_555
C17 C8 1_555 1_555
C18 C17 1_555 1_555
C19 C18 1_555 1_555
H17 C19 1_555 1_555
C20 C19 1_555 1_555
H18 C20 1_555 1_555
C21 C20 1_555 1_555
H19 C21 1_555 1_555
C22 C17 1_555 1_555
H20 C22 1_555 1_555
C3 C4 1_555 1_555
C4 C5 1_555 1_555
C8 C9 1_555 1_555
C15 C16 1_555 1_555
C21 C22 1_555 1_555

#END
