
#######################################################################
#
#                 Cambridge Crystallographic Data Centre
#                                CCDC 
#
#######################################################################
#
# If this CIF has been generated from an entry in the Cambridge 
# Structural Database, then it will include bibliographic, chemical, 
# crystal, experimental, refinement or atomic coordinate data resulting 
# from the CCDC's data processing and validation procedures.
#
#######################################################################

data_UXASOC
_chemical_formula_moiety         'C23 H23 N1 O1'
_chemical_name_systematic        
Diphenyl((2S)-l-((S)-1-phenylethyl)aziridin-2-yl)methanol
_symmetry_cell_setting           monoclinic
_symmetry_space_group_name_H-M   'C 2'
_symmetry_Int_Tables_number      5
_space_group_name_Hall           'C 2y'
loop_
_symmetry_equiv_pos_site_id
_symmetry_equiv_pos_as_xyz
1 x,y,z
2 -x,y,-z
3 1/2+x,1/2+y,z
4 1/2-x,1/2+y,-z
_cell_length_a                   27.495(6)
_cell_length_b                   5.9263(12)
_cell_length_c                   25.415(5)
_cell_angle_alpha                90
_cell_angle_beta                 113.02(3)
_cell_angle_gamma                90
_cell_volume                     3811.44
_exptl_crystal_colour            colorless
_exptl_crystal_description       prismatic
_chemical_melting_point          '127.0-127.7 deg.C'
_cell_formula_units_Z            8
loop_
_atom_site_label
_atom_site_type_symbol
_atom_site_fract_x
_atom_site_fract_y
_atom_site_fract_z
O1 O 0.67343(18) 1.1607(6) 0.53075(17)
N1 N 0.62330(13) 0.8196(7) 0.46178(14)
C1 C 0.56029(19) 0.8722(10) 0.3439(2)
H1 H 0.5803 0.9915 0.3653
C3 C 0.5356(2) 0.8934(12) 0.2845(2)
H3 H 0.5393 1.0258 0.2667
C5 C 0.5059(2) 0.7179(13) 0.2522(2)
H5 H 0.4896 0.7305 0.2127
C7 C 0.5004(2) 0.5257(13) 0.2789(3)
H7 H 0.4798 0.4080 0.2573
C9 C 0.52539(19) 0.5031(10) 0.3381(2)
H9 H 0.5218 0.3695 0.3555
C11 C 0.55553(15) 0.6779(9) 0.37146(18)
C13 C 0.58149(17) 0.6507(10) 0.43666(18)
H11 H 0.5972 0.5000 0.4455
C15 C 0.5412(2) 0.6760(16) 0.4636(2)
H13 H 0.5585 0.6583 0.5042
H14 H 0.5144 0.5627 0.4485
H15 H 0.5254 0.8229 0.4550
C17 C 0.67679(16) 0.7532(11) 0.46678(18)
H19 H 0.6997 0.8703 0.4628
H20 H 0.6808 0.6068 0.4519
C19 C 0.66396(16) 0.7584(8) 0.51858(17)
H23 H 0.6595 0.6113 0.5337
C21 C 0.68028(16) 0.9535(8) 0.56160(18)
C23 C 0.64509(16) 0.9488(10) 0.59651(19)
C25 C 0.6123(2) 1.1246(13) 0.5950(3)
H25 H 0.6110 1.2515 0.5730
C27 C 0.5808(3) 1.113(2) 0.6265(5)
H27 H 0.5589 1.2344 0.6253
C29 C 0.5810(3) 0.935(2) 0.6582(3)
H29 H 0.5586 0.9298 0.6777
C31 C 0.6142(2) 0.7580(19) 0.6620(2)
H31 H 0.6157 0.6345 0.6852
C33 C 0.6461(2) 0.7670(13) 0.6302(2)
H33 H 0.6685 0.6466 0.6322
C35 C 0.73825(16) 0.9409(8) 0.60222(17)
C37 C 0.7614(2) 1.1237(10) 0.6375(2)
H35 H 0.7412 1.2505 0.6368
C39 C 0.8143(2) 1.1180(14) 0.6739(2)
H37 H 0.8295 1.2418 0.6970
C41 C 0.8442(2) 0.9336(15) 0.6761(2)
H39 H 0.8798 0.9314 0.7003
C43 C 0.8222(2) 0.7538(15) 0.6430(3)
H41 H 0.8425 0.6261 0.6452
C45 C 0.76902(19) 0.7565(11) 0.6054(2)
H43 H 0.7546 0.6318 0.5823
H46 H 0.645(2) 1.148(12) 0.506(3)
O2 O 0.90042(16) 1.1189(6) 1.04460(17)
N2 N 0.86623(16) 0.7685(8) 0.97619(16)
C2 C 0.8084(2) 0.4571(13) 0.8470(2)
H2 H 0.8247 0.3198 0.8610
C4 C 0.7868(3) 0.495(2) 0.7881(3)
H4 H 0.7880 0.3810 0.7635
C6 C 0.7644(3) 0.693(2) 0.7663(3)
H6 H 0.7514 0.7181 0.7271
C8 C 0.7608(2) 0.8569(16) 0.8020(3)
H8 H 0.7447 0.9936 0.7869
C10 C 0.7811(2) 0.8221(12) 0.8615(2)
H10 H 0.7777 0.9345 0.8854
C12 C 0.80603(17) 0.6207(10) 0.88468(19)
C14 C 0.82995(19) 0.5835(10) 0.9489(2)
H12 H 0.8501 0.4424 0.9568
C16 C 0.7884(3) 0.5664(17) 0.9744(3)
H16 H 0.8054 0.5430 1.0149
H17 H 0.7653 0.4419 0.9573
H18 H 0.7682 0.7036 0.9670
C18 C 0.9196(2) 0.7524(14) 0.9771(2)
H21 H 0.9365 0.8906 0.9726
H22 H 0.9284 0.6193 0.9604
C20 C 0.91060(18) 0.7231(9) 1.03082(19)
H24 H 0.9134 0.5689 1.0456
C22 C 0.92162(19) 0.9147(8) 1.0749(2)
C24 C 0.89569(17) 0.8647(9) 1.1176(2)
C26 C 0.8678(2) 1.0335(11) 1.1317(3)
H26 H 0.8638 1.1750 1.1147
C28 C 0.8457(2) 0.9871(15) 1.1723(3)
H28 H 0.8263 1.0994 1.1809
C30 C 0.8515(3) 0.7862(16) 1.1989(3)
H30 H 0.8374 0.7617 1.2263
C32 C 0.8786(3) 0.6183(14) 1.1846(3)
H32 H 0.8825 0.4773 1.2018
C34 C 0.9003(2) 0.6591(11) 1.1446(2)
H34 H 0.9186 0.5436 1.1356
C36 C 0.98178(18) 0.9477(9) 1.10566(18)
C38 C 1.0137(2) 0.7795(11) 1.1389(2)
H36 H 0.9987 0.6436 1.1432
C40 C 1.0681(2) 0.8098(12) 1.1663(2)
H38 H 1.0890 0.6928 1.1878
C42 C 1.0909(2) 1.0086(13) 1.1620(2)
H40 H 1.1271 1.0302 1.1812
C44 C 1.0597(2) 1.1763(12) 1.1287(3)
H42 H 1.0749 1.3126 1.1252
C46 C 1.0054(2) 1.1462(11) 1.1000(2)
H44 H 0.9849 1.2608 1.0768
H45 H 0.874(2) 1.080(10) 1.012(2)
loop_
_geom_bond_atom_site_label_1
_geom_bond_atom_site_label_2
_geom_bond_site_symmetry_1
_geom_bond_site_symmetry_2
O1 C21 1_555 1_555
O2 C22 1_555 1_555
N1 C13 1_555 1_555
N2 C14 1_555 1_555
C1 H1 1_555 1_555
C2 H2 1_555 1_555
C3 C1 1_555 1_555
H3 C3 1_555 1_555
C4 C2 1_555 1_555
H4 C4 1_555 1_555
C5 C3 1_555 1_555
H5 C5 1_555 1_555
C6 C4 1_555 1_555
H6 C6 1_555 1_555
C7 C5 1_555 1_555
H7 C7 1_555 1_555
C8 C6 1_555 1_555
H8 C8 1_555 1_555
C9 C7 1_555 1_555
H9 C9 1_555 1_555
C10 C8 1_555 1_555
H10 C10 1_555 1_555
C11 C1 1_555 1_555
C12 C2 1_555 1_555
C13 C11 1_555 1_555
H11 C13 1_555 1_555
C14 C12 1_555 1_555
H12 C14 1_555 1_555
C15 C13 1_555 1_555
H13 C15 1_555 1_555
H14 C15 1_555 1_555
H15 C15 1_555 1_555
C16 C14 1_555 1_555
H16 C16 1_555 1_555
H17 C16 1_555 1_555
H18 C16 1_555 1_555
C17 N1 1_555 1_555
H19 C17 1_555 1_555
H20 C17 1_555 1_555
C18 N2 1_555 1_555
H21 C18 1_555 1_555
H22 C18 1_555 1_555
C19 N1 1_555 1_555
H23 C19 1_555 1_555
C20 N2 1_555 1_555
H24 C20 1_555 1_555
C21 C19 1_555 1_555
C22 C20 1_555 1_555
C23 C21 1_555 1_555
C24 C22 1_555 1_555
C25 C23 1_555 1_555
H25 C25 1_555 1_555
C26 C24 1_555 1_555
H26 C26 1_555 1_555
C27 C25 1_555 1_555
H27 C27 1_555 1_555
C28 C26 1_555 1_555
H28 C28 1_555 1_555
C29 C27 1_555 1_555
H29 C29 1_555 1_555
C30 C28 1_555 1_555
H30 C30 1_555 1_555
C31 C29 1_555 1_555
H31 C31 1_555 1_555
C32 C30 1_555 1_555
H32 C32 1_555 1_555
C33 C23 1_555 1_555
H33 C33 1_555 1_555
C34 C24 1_555 1_555
H34 C34 1_555 1_555
C35 C21 1_555 1_555
C36 C22 1_555 1_555
C37 C35 1_555 1_555
H35 C37 1_555 1_555
C38 C36 1_555 1_555
H36 C38 1_555 1_555
C39 C37 1_555 1_555
H37 C39 1_555 1_555
C40 C38 1_555 1_555
H38 C40 1_555 1_555
C41 C39 1_555 1_555
H39 C41 1_555 1_555
C42 C40 1_555 1_555
H40 C42 1_555 1_555
C43 C41 1_555 1_555
H41 C43 1_555 1_555
C44 C42 1_555 1_555
H42 C44 1_555 1_555
C45 C35 1_555 1_555
H43 C45 1_555 1_555
C46 C36 1_555 1_555
H44 C46 1_555 1_555
H45 O2 1_555 1_555
H46 O1 1_555 1_555
C9 C11 1_555 1_555
C10 C12 1_555 1_555
C17 C19 1_555 1_555
C18 C20 1_555 1_555
C31 C33 1_555 1_555
C32 C34 1_555 1_555
C43 C45 1_555 1_555
C44 C46 1_555 1_555

#END
