
#######################################################################
#
#                 Cambridge Crystallographic Data Centre
#                                CCDC 
#
#######################################################################
#
# If this CIF has been generated from an entry in the Cambridge 
# Structural Database, then it will include bibliographic, chemical, 
# crystal, experimental, refinement or atomic coordinate data resulting 
# from the CCDC's data processing and validation procedures.
#
#######################################################################

data_UXEGIP
_chemical_formula_moiety         'C20 H28 O5'
_chemical_name_systematic        1,7,11-trihydroxy-7,20-epoxykaur-16-en-15-one
_symmetry_cell_setting           orthorhombic
_symmetry_space_group_name_H-M   'P 21 21 21'
_symmetry_Int_Tables_number      19
_space_group_name_Hall           'P 2ac 2ab'
loop_
_symmetry_equiv_pos_site_id
_symmetry_equiv_pos_as_xyz
1 x,y,z
2 1/2-x,-y,1/2+z
3 1/2+x,1/2-y,-z
4 -x,1/2+y,1/2-z
_cell_length_a                   8.435(3)
_cell_length_b                   11.693(4)
_cell_length_c                   18.015(6)
_cell_angle_alpha                90
_cell_angle_beta                 90
_cell_angle_gamma                90
_cell_volume                     1776.83
_exptl_crystal_colour            colorless
_exptl_crystal_description       Block
_cell_formula_units_Z            4
loop_
_atom_site_label
_atom_site_type_symbol
_atom_site_fract_x
_atom_site_fract_y
_atom_site_fract_z
C1 C 0.4760(2) 0.21962(15) 0.15953(9)
H1 H 0.4284 0.2579 0.2025
C2 C 0.5434(3) 0.10713(16) 0.18852(12)
H2 H 0.4575 0.0588 0.2057
H3 H 0.5976 0.0675 0.1486
C3 C 0.6587(3) 0.12818(18) 0.25184(12)
H4 H 0.6988 0.0552 0.2693
H5 H 0.6022 0.1639 0.2926
C4 C 0.7999(2) 0.20480(17) 0.22987(10)
C5 C 0.73291(19) 0.31570(15) 0.19289(9)
H6 H 0.6792 0.3572 0.2329
C6 C 0.8665(2) 0.39707(15) 0.16577(10)
H7 H 0.8679 0.4655 0.1962
H8 H 0.9684 0.3595 0.1706
C7 C 0.8386(2) 0.42921(15) 0.08551(9)
C8 C 0.68389(19) 0.49575(15) 0.07533(9)
C9 C 0.54333(19) 0.42629(14) 0.11262(9)
H9 H 0.5194 0.4631 0.1602
C10 C 0.60503(19) 0.30204(14) 0.12999(8)
C11 C 0.39293(19) 0.43636(16) 0.06320(10)
H10 H 0.4029 0.3820 0.0221
C12 C 0.3638(2) 0.55516(18) 0.03074(11)
H11 H 0.3147 0.6026 0.0684
H12 H 0.2897 0.5484 -0.0102
C13 C 0.5161(2) 0.61593(19) 0.00247(12)
H13 H 0.4972 0.6586 -0.0435
C14 C 0.6476(2) 0.52561(18) -0.00674(10)
H14 H 0.7398 0.5571 -0.0316
H15 H 0.6101 0.4594 -0.0340
C15 C 0.6832(2) 0.61524(15) 0.11156(11)
C16 C 0.5842(2) 0.69078(17) 0.06279(13)
C17 C 0.5685(3) 0.8019(2) 0.07546(18)
H16 H 0.6198 0.8354 0.1157
H17 H 0.5062 0.8464 0.0441
C18 C 0.8865(3) 0.2409(2) 0.30108(12)
H18 H 0.9750 0.2888 0.2885
H19 H 0.9238 0.1741 0.3267
H20 H 0.8150 0.2824 0.3326
C19 C 0.9167(3) 0.1351(2) 0.18151(13)
H21 H 1.0047 0.1826 0.1677
H22 H 0.8634 0.1090 0.1376
H23 H 0.9545 0.0705 0.2092
C20 C 0.6833(2) 0.25907(15) 0.05853(9)
H24 H 0.7091 0.1786 0.0637
H25 H 0.6098 0.2671 0.0175
O1 O 0.34746(16) 0.19698(11) 0.10901(7)
H26 H 0.380(3) 0.1717(18) 0.0701(9)
O2 O 0.82653(14) 0.32331(11) 0.04285(6)
O3 O 0.96206(14) 0.49034(12) 0.05328(8)
H27 H 1.044(2) 0.4642(18) 0.0743(11)
O4 O 0.74277(18) 0.64298(13) 0.17051(9)
O5 O 0.25090(14) 0.40915(12) 0.10400(7)
H28 H 0.253(3) 0.3358(14) 0.1093(12)
loop_
_geom_bond_atom_site_label_1
_geom_bond_atom_site_label_2
_geom_bond_site_symmetry_1
_geom_bond_site_symmetry_2
C1 H1 1_555 1_555
C2 C1 1_555 1_555
H2 C2 1_555 1_555
H3 C2 1_555 1_555
C3 C2 1_555 1_555
H4 C3 1_555 1_555
H5 C3 1_555 1_555
C4 C3 1_555 1_555
C5 C4 1_555 1_555
H6 C5 1_555 1_555
C6 C5 1_555 1_555
H7 C6 1_555 1_555
H8 C6 1_555 1_555
C7 C6 1_555 1_555
C8 C7 1_555 1_555
C9 C8 1_555 1_555
H9 C9 1_555 1_555
C10 C1 1_555 1_555
C11 C9 1_555 1_555
H10 C11 1_555 1_555
C12 C11 1_555 1_555
H11 C12 1_555 1_555
H12 C12 1_555 1_555
C13 C12 1_555 1_555
H13 C13 1_555 1_555
C14 C8 1_555 1_555
H14 C14 1_555 1_555
H15 C14 1_555 1_555
C15 C8 1_555 1_555
C16 C13 1_555 1_555
C17 C16 1_555 1_555
H16 C17 1_555 1_555
H17 C17 1_555 1_555
C18 C4 1_555 1_555
H18 C18 1_555 1_555
H19 C18 1_555 1_555
H20 C18 1_555 1_555
C19 C4 1_555 1_555
H21 C19 1_555 1_555
H22 C19 1_555 1_555
H23 C19 1_555 1_555
C20 C10 1_555 1_555
H24 C20 1_555 1_555
H25 C20 1_555 1_555
O1 C1 1_555 1_555
H26 O1 1_555 1_555
O2 C7 1_555 1_555
O3 C7 1_555 1_555
H27 O3 1_555 1_555
O4 C15 1_555 1_555
O5 C11 1_555 1_555
H28 O5 1_555 1_555
C5 C10 1_555 1_555
C9 C10 1_555 1_555
C13 C14 1_555 1_555
C15 C16 1_555 1_555
C20 O2 1_555 1_555

#END
