
#######################################################################
#
#                 Cambridge Crystallographic Data Centre
#                                CCDC 
#
#######################################################################
#
# If this CIF has been generated from an entry in the Cambridge 
# Structural Database, then it will include bibliographic, chemical, 
# crystal, experimental, refinement or atomic coordinate data resulting 
# from the CCDC's data processing and validation procedures.
#
#######################################################################

data_UXEGOV
_chemical_formula_moiety         '1.5(C22 H16 N2),C16 H10 O8'
_chemical_name_systematic        
"biphenyl-2,3',5,5'-tetracarboxylic acid sesquikis(4-(4'-(pyridin-4-yl)biphenyl-4-yl)pyridine)"
_symmetry_cell_setting           triclinic
_symmetry_space_group_name_H-M   'P -1'
_symmetry_Int_Tables_number      2
_space_group_name_Hall           '-P 1'
loop_
_symmetry_equiv_pos_site_id
_symmetry_equiv_pos_as_xyz
1 x,y,z
2 -x,-y,-z
_cell_length_a                   10.0660(3)
_cell_length_b                   14.0604(2)
_cell_length_c                   14.8204(3)
_cell_angle_alpha                106.6970(10)
_cell_angle_beta                 100.3080(10)
_cell_angle_gamma                102.3780(10)
_cell_volume                     1896.46
_exptl_crystal_colour            colorless
_exptl_crystal_description       block
_cell_formula_units_Z            2
loop_
_atom_site_label
_atom_site_type_symbol
_atom_site_fract_x
_atom_site_fract_y
_atom_site_fract_z
N1 N -0.1544(2) 0.55501(14) 0.45806(15)
C1 C -0.1371(3) 0.58239(18) 0.38164(19)
H1 H -0.2054 0.5484 0.3229
C2 C -0.0231(3) 0.65867(18) 0.38486(18)
H2 H -0.0156 0.6750 0.3291
C3 C 0.0801(2) 0.71095(16) 0.47069(17)
C4 C 0.0625(3) 0.68117(18) 0.54964(18)
H3 H 0.1299 0.7130 0.6090
C5 C -0.0551(3) 0.60406(19) 0.54065(19)
H4 H -0.0651 0.5857 0.5951
C6 C 0.2032(2) 0.79627(17) 0.47941(17)
C7 C 0.1944(3) 0.8588(2) 0.4231(2)
H5 H 0.1097 0.8473 0.3787
C8 C 0.3092(3) 0.9383(2) 0.4315(2)
H6 H 0.2998 0.9796 0.3931
C9 C 0.4377(2) 0.95772(17) 0.49591(18)
C10 C 0.4435(3) 0.8970(2) 0.5534(2)
H7 H 0.5271 0.9093 0.5992
C11 C 0.3285(3) 0.8180(2) 0.5452(2)
H8 H 0.3368 0.7786 0.5856
N1A N 1.1544(2) 1.44499(14) 0.54194(15)
C1A C 1.1371(3) 1.41761(18) 0.61836(19)
H1A H 1.2054 1.4516 0.6771
C2A C 1.0231(3) 1.34133(18) 0.61514(18)
H2A H 1.0156 1.3250 0.6709
C3A C 0.9199(2) 1.28905(16) 0.52931(17)
C4A C 0.9375(3) 1.31883(18) 0.45036(18)
H3A H 0.8701 1.2870 0.3910
C5A C 1.0551(3) 1.39594(19) 0.45935(19)
H4A H 1.0651 1.4143 0.4049
C6A C 0.7968(2) 1.20373(17) 0.52059(17)
C7A C 0.8056(3) 1.1412(2) 0.5769(2)
H5A H 0.8903 1.1527 0.6213
C8A C 0.6908(3) 1.0617(2) 0.5685(2)
H6A H 0.7002 1.0204 0.6069
C9A C 0.5623(2) 1.04228(17) 0.50409(18)
C10A C 0.5565(3) 1.1030(2) 0.4466(2)
H7A H 0.4729 1.0907 0.4008
C11A C 0.6715(3) 1.1820(2) 0.4548(2)
H8A H 0.6632 1.2214 0.4144
N2 N 0.5419(3) -0.35307(15) 0.81241(16)
N3 N 1.1957(2) 0.78858(15) 0.87780(15)
C12 C 0.4691(3) -0.2980(2) 0.7771(2)
H9 H 0.3743 -0.3286 0.7452
C13 C 0.5287(3) -0.19703(19) 0.7861(2)
H10 H 0.4733 -0.1606 0.7614
C14 C 0.6685(3) -0.14945(17) 0.83065(18)
C15 C 0.7451(3) -0.20759(19) 0.8653(2)
H11 H 0.8409 -0.1794 0.8952
C16 C 0.6777(3) -0.3091(2) 0.8553(2)
H12 H 0.7301 -0.3475 0.8796
C17 C 0.7346(3) -0.04031(17) 0.83990(19)
C18 C 0.6530(3) 0.0250(2) 0.8319(2)
H13 H 0.5564 0.0012 0.8232
C19 C 0.7108(3) 0.12488(19) 0.8364(2)
H14 H 0.6519 0.1666 0.8300
C20 C 0.8534(3) 0.16479(17) 0.85015(19)
C21 C 0.9349(3) 0.09916(19) 0.8582(2)
H15 H 1.0315 0.1229 0.8670
C22 C 0.8772(3) -0.00097(19) 0.8535(2)
H16 H 0.9359 -0.0429 0.8597
C23 C 0.9140(2) 0.27272(17) 0.85569(18)
C24 C 0.8320(3) 0.3276(2) 0.8208(2)
H17 H 0.7364 0.2956 0.7926
C25 C 0.8866(3) 0.42807(19) 0.8262(2)
H18 H 0.8274 0.4625 0.8020
C26 C 1.0276(2) 0.47864(16) 0.86682(16)
C27 C 1.1113(3) 0.42484(18) 0.9027(2)
H19 H 1.2068 0.4569 0.9312
C28 C 1.0549(3) 0.32425(18) 0.8968(2)
H20 H 1.1139 0.2899 0.9214
C29 C 1.0866(2) 0.58658(16) 0.87064(16)
C30 C 1.0161(3) 0.62962(18) 0.81102(18)
H21 H 0.9299 0.5907 0.7672
C31 C 1.0731(3) 0.72971(18) 0.81633(19)
H22 H 1.0241 0.7571 0.7755
C32 C 1.2654(3) 0.74826(19) 0.9352(2)
H23 H 1.3519 0.7888 0.9778
C33 C 1.2141(3) 0.64879(18) 0.93364(19)
H24 H 1.2654 0.6234 0.9752
O1 O 0.7053(2) 1.02345(13) 0.10838(14)
H25 H 0.7379 1.0852 0.1180
O2 O 0.81167(19) 1.07067(12) 0.26409(12)
O3 O 0.95542(18) 0.89691(13) 0.59638(12)
H26 H 1.0260 0.9132 0.6412
O4 O 0.86150(18) 0.80228(14) 0.67909(12)
O5 O 0.38032(18) 0.57369(14) 0.53487(12)
H27 H 0.3060 0.5348 0.5335
O6 O 0.28597(19) 0.52353(15) 0.37514(13)
O7 O 0.59059(18) 0.53694(12) 0.19795(13)
H28 H 0.5474 0.4772 0.1891
O8 O 0.40075(19) 0.52835(12) 0.09083(14)
C34 C 0.3792(3) 0.57623(18) 0.44692(18)
C35 C 0.5056(2) 0.65300(16) 0.44409(16)
C36 C 0.5069(2) 0.67453(16) 0.35878(16)
H29 H 0.4297 0.6407 0.3051
C37 C 0.6203(2) 0.74539(15) 0.35106(15)
C38 C 0.7327(2) 0.79693(15) 0.43328(15)
H30 H 0.8089 0.8459 0.4304
C39 C 0.7329(2) 0.77633(16) 0.51947(15)
C40 C 0.6194(2) 0.70358(17) 0.52485(16)
H31 H 0.6198 0.6890 0.5822
C41 C 0.6237(2) 0.76698(15) 0.25862(15)
C42 C 0.5734(2) 0.68967(15) 0.16612(15)
C43 C 0.5771(2) 0.71622(16) 0.08342(16)
H32 H 0.5429 0.6647 0.0225
C44 C 0.6303(2) 0.81707(16) 0.08926(16)
H33 H 0.6319 0.8332 0.0328
C45 C 0.6817(2) 0.89461(15) 0.17988(16)
C46 C 0.6778(2) 0.86887(16) 0.26306(16)
H34 H 0.7123 0.9210 0.3236
C47 C 0.7392(2) 1.00521(16) 0.18783(17)
C48 C 0.5131(2) 0.57666(16) 0.14883(16)
C49 C 0.8548(2) 0.82592(17) 0.60677(16)
loop_
_geom_bond_atom_site_label_1
_geom_bond_atom_site_label_2
_geom_bond_site_symmetry_1
_geom_bond_site_symmetry_2
N1 C1 1_555 1_555
C1 H1 1_555 1_555
C2 C1 1_555 1_555
H2 C2 1_555 1_555
C3 C2 1_555 1_555
C4 C3 1_555 1_555
H3 C4 1_555 1_555
C5 N1 1_555 1_555
H4 C5 1_555 1_555
C6 C3 1_555 1_555
C7 C6 1_555 1_555
H5 C7 1_555 1_555
C8 C7 1_555 1_555
H6 C8 1_555 1_555
C9 C8 1_555 1_555
C10 C9 1_555 1_555
H7 C10 1_555 1_555
C11 C6 1_555 1_555
H8 C11 1_555 1_555
N2 C12 1_555 1_555
N3 C31 1_555 1_555
C12 H9 1_555 1_555
C13 C12 1_555 1_555
H10 C13 1_555 1_555
C14 C13 1_555 1_555
C15 C14 1_555 1_555
H11 C15 1_555 1_555
C16 N2 1_555 1_555
H12 C16 1_555 1_555
C17 C14 1_555 1_555
C18 C17 1_555 1_555
H13 C18 1_555 1_555
C19 C18 1_555 1_555
H14 C19 1_555 1_555
C20 C19 1_555 1_555
C21 C20 1_555 1_555
H15 C21 1_555 1_555
C22 C17 1_555 1_555
H16 C22 1_555 1_555
C23 C20 1_555 1_555
C24 C23 1_555 1_555
H17 C24 1_555 1_555
C25 C24 1_555 1_555
H18 C25 1_555 1_555
C26 C25 1_555 1_555
C27 C26 1_555 1_555
H19 C27 1_555 1_555
C28 C23 1_555 1_555
H20 C28 1_555 1_555
C29 C26 1_555 1_555
C30 C29 1_555 1_555
H21 C30 1_555 1_555
C31 C30 1_555 1_555
H22 C31 1_555 1_555
C32 N3 1_555 1_555
H23 C32 1_555 1_555
C33 C29 1_555 1_555
H24 C33 1_555 1_555
O1 H25 1_555 1_555
O2 C47 1_555 1_555
O3 H26 1_555 1_555
O4 C49 1_555 1_555
O5 H27 1_555 1_555
O6 C34 1_555 1_555
O7 H28 1_555 1_555
O8 C48 1_555 1_555
C34 O5 1_555 1_555
C35 C34 1_555 1_555
C36 C35 1_555 1_555
H29 C36 1_555 1_555
C37 C36 1_555 1_555
C38 C37 1_555 1_555
H30 C38 1_555 1_555
C39 C38 1_555 1_555
C40 C35 1_555 1_555
H31 C40 1_555 1_555
C41 C37 1_555 1_555
C42 C41 1_555 1_555
C43 C42 1_555 1_555
H32 C43 1_555 1_555
C44 C43 1_555 1_555
H33 C44 1_555 1_555
C45 C44 1_555 1_555
C46 C41 1_555 1_555
H34 C46 1_555 1_555
C47 O1 1_555 1_555
C48 O7 1_555 1_555
C49 O3 1_555 1_555
N1A C1A 1_555 1_555
C1A H1A 1_555 1_555
C2A C1A 1_555 1_555
H2A C2A 1_555 1_555
C3A C2A 1_555 1_555
C4A C3A 1_555 1_555
H3A C4A 1_555 1_555
C5A N1A 1_555 1_555
H4A C5A 1_555 1_555
C6A C3A 1_555 1_555
C7A C6A 1_555 1_555
H5A C7A 1_555 1_555
C8A C7A 1_555 1_555
H6A C8A 1_555 1_555
C9A C9 1_555 1_555
C10A C9A 1_555 1_555
H7A C10A 1_555 1_555
C11A C6A 1_555 1_555
H8A C11A 1_555 1_555
C4 C5 1_555 1_555
C10 C11 1_555 1_555
C15 C16 1_555 1_555
C21 C22 1_555 1_555
C27 C28 1_555 1_555
C32 C33 1_555 1_555
C39 C40 1_555 1_555
C39 C49 1_555 1_555
C42 C48 1_555 1_555
C45 C46 1_555 1_555
C45 C47 1_555 1_555
C4A C5A 1_555 1_555
C8A C9A 1_555 1_555
C10A C11A 1_555 1_555

#END
