
#######################################################################
#
#                 Cambridge Crystallographic Data Centre
#                                CCDC 
#
#######################################################################
#
# If this CIF has been generated from an entry in the Cambridge 
# Structural Database, then it will include bibliographic, chemical, 
# crystal, experimental, refinement or atomic coordinate data resulting 
# from the CCDC's data processing and validation procedures.
#
#######################################################################

data_UXEGEL
_chemical_formula_moiety         'C22 H32 O6'
_chemical_name_systematic        
'7,14,15-trihydroxy-7,20-epoxykaur-16-en-1-yl acetate'
_symmetry_cell_setting           monoclinic
_symmetry_space_group_name_H-M   'P 21'
_symmetry_Int_Tables_number      4
_space_group_name_Hall           'P 2yb'
loop_
_symmetry_equiv_pos_site_id
_symmetry_equiv_pos_as_xyz
1 x,y,z
2 -x,1/2+y,-z
_cell_length_a                   9.111(3)
_cell_length_b                   9.535(3)
_cell_length_c                   11.331(4)
_cell_angle_alpha                90
_cell_angle_beta                 92.703(4)
_cell_angle_gamma                90
_cell_volume                     983.267
_exptl_crystal_colour            colorless
_exptl_crystal_description       block
_cell_formula_units_Z            2
loop_
_atom_site_label
_atom_site_type_symbol
_atom_site_fract_x
_atom_site_fract_y
_atom_site_fract_z
C1 C 0.0659(3) 0.3120(3) 0.8142(2)
H1 H 0.0087 0.2256 0.8030
C2 C -0.0251(3) 0.4354(3) 0.7667(3)
H2 H -0.1206 0.4334 0.8010
H3 H 0.0231 0.5221 0.7908
C3 C -0.0457(3) 0.4327(3) 0.6328(3)
H4 H -0.1025 0.5140 0.6069
H5 H -0.1009 0.3495 0.6092
C4 C 0.1008(3) 0.4327(3) 0.5721(2)
C5 C 0.1905(3) 0.3051(3) 0.6215(2)
H6 H 0.1333 0.2220 0.5974
C6 C 0.3408(3) 0.2883(3) 0.5645(2)
H7 H 0.3387 0.2064 0.5137
H8 H 0.3599 0.3699 0.5164
C7 C 0.4613(3) 0.2727(3) 0.6596(2)
C8 C 0.4414(2) 0.1399(3) 0.7331(2)
C9 C 0.2831(2) 0.1454(3) 0.7841(2)
H9 H 0.2223 0.0773 0.7392
C10 C 0.2148(2) 0.2936(3) 0.7585(2)
C11 C 0.2859(3) 0.0991(3) 0.9149(2)
H10 H 0.3195 0.1772 0.9639
H11 H 0.1864 0.0769 0.9355
C12 C 0.3841(3) -0.0277(3) 0.9433(2)
H12 H 0.3299 -0.1127 0.9234
H13 H 0.4085 -0.0294 1.0276
C13 C 0.5281(3) -0.0261(3) 0.8757(2)
H14 H 0.6109 -0.0642 0.9239
C14 C 0.5580(2) 0.1232(3) 0.8360(2)
H15 H 0.5422 0.1908 0.8994
C15 C 0.4648(3) 0.0020(3) 0.6638(2)
H16 H 0.5487 0.0142 0.6137
C16 C 0.5058(3) -0.1043(3) 0.7601(3)
C17 C 0.5163(4) -0.2409(4) 0.7440(3)
H17 H 0.5397 -0.2994 0.8078
H18 H 0.5003 -0.2788 0.6688
C18 C 0.1783(3) 0.5746(3) 0.5868(3)
H19 H 0.2699 0.5718 0.5484
H20 H 0.1964 0.5939 0.6693
H21 H 0.1171 0.6468 0.5518
C19 C 0.0709(3) 0.4086(4) 0.4383(2)
H22 H 0.1622 0.4084 0.3995
H23 H 0.0092 0.4823 0.4064
H24 H 0.0225 0.3200 0.4259
C20 C 0.3298(3) 0.4011(3) 0.8036(2)
H25 H 0.2884 0.4947 0.7976
H26 H 0.3560 0.3828 0.8861
C21 C -0.0038(3) 0.2864(3) 1.0157(2)
C22 C 0.0358(3) 0.3284(4) 1.1395(2)
H27 H 0.1242 0.3832 1.1413
H28 H 0.0511 0.2461 1.1872
H29 H -0.0425 0.3831 1.1698
O1 O -0.1087(2) 0.2153(3) 0.98603(18)
O2 O 0.09252(18) 0.3371(2) 0.94103(15)
O3 O 0.45935(18) 0.3935(2) 0.73580(17)
O4 O 0.59570(19) 0.2786(2) 0.60429(16)
H30 H 0.6682 0.2594 0.6654
O5 O 0.3398(2) -0.0362(2) 0.59125(18)
H31 H 0.3695 -0.1055 0.5334
O6 O 0.70327(18) 0.1371(2) 0.79137(15)
H32 H 0.7621 0.1658 0.8583
loop_
_geom_bond_atom_site_label_1
_geom_bond_atom_site_label_2
_geom_bond_site_symmetry_1
_geom_bond_site_symmetry_2
C1 H1 1_555 1_555
C2 C1 1_555 1_555
H2 C2 1_555 1_555
H3 C2 1_555 1_555
C3 C2 1_555 1_555
H4 C3 1_555 1_555
H5 C3 1_555 1_555
C4 C3 1_555 1_555
C5 C4 1_555 1_555
H6 C5 1_555 1_555
C6 C5 1_555 1_555
H7 C6 1_555 1_555
H8 C6 1_555 1_555
C7 C6 1_555 1_555
C8 C7 1_555 1_555
C9 C8 1_555 1_555
H9 C9 1_555 1_555
C10 C1 1_555 1_555
C11 C9 1_555 1_555
H10 C11 1_555 1_555
H11 C11 1_555 1_555
C12 C11 1_555 1_555
H12 C12 1_555 1_555
H13 C12 1_555 1_555
C13 C12 1_555 1_555
H14 C13 1_555 1_555
C14 C8 1_555 1_555
H15 C14 1_555 1_555
C15 C8 1_555 1_555
H16 C15 1_555 1_555
C16 C13 1_555 1_555
C17 C16 1_555 1_555
H17 C17 1_555 1_555
H18 C17 1_555 1_555
C18 C4 1_555 1_555
H19 C18 1_555 1_555
H20 C18 1_555 1_555
H21 C18 1_555 1_555
C19 C4 1_555 1_555
H22 C19 1_555 1_555
H23 C19 1_555 1_555
H24 C19 1_555 1_555
C20 C10 1_555 1_555
H25 C20 1_555 1_555
H26 C20 1_555 1_555
C21 C22 1_555 1_555
C22 H27 1_555 1_555
H28 C22 1_555 1_555
H29 C22 1_555 1_555
O1 C21 1_555 1_555
O2 C1 1_555 1_555
O3 C7 1_555 1_555
O4 C7 1_555 1_555
H30 O4 1_555 1_555
O5 C15 1_555 1_555
H31 O5 1_555 1_555
O6 C14 1_555 1_555
H32 O6 1_555 1_555
C5 C10 1_555 1_555
C9 C10 1_555 1_555
C13 C14 1_555 1_555
C15 C16 1_555 1_555
C20 O3 1_555 1_555
C21 O2 1_555 1_555

#END
