
#######################################################################
#
#                 Cambridge Crystallographic Data Centre
#                                CCDC 
#
#######################################################################
#
# If this CIF has been generated from an entry in the Cambridge 
# Structural Database, then it will include bibliographic, chemical, 
# crystal, experimental, refinement or atomic coordinate data resulting 
# from the CCDC's data processing and validation procedures.
#
#######################################################################

data_UXEQUL
_chemical_formula_moiety         'C23 H10 F5 N3'
_chemical_name_systematic        
4'-((pentafluorophenyl)ethynyl)-2,2':6',2''-terpyridine
_symmetry_cell_setting           triclinic
_symmetry_space_group_name_H-M   'P -1'
_symmetry_Int_Tables_number      2
_space_group_name_Hall           '-P 1'
loop_
_symmetry_equiv_pos_site_id
_symmetry_equiv_pos_as_xyz
1 x,y,z
2 -x,-y,-z
_cell_length_a                   6.5270(13)
_cell_length_b                   7.9030(16)
_cell_length_c                   18.016(4)
_cell_angle_alpha                95.78(3)
_cell_angle_beta                 95.32(3)
_cell_angle_gamma                94.15(3)
_cell_volume                     917.473
_exptl_crystal_colour            colorless
_exptl_crystal_description       needle
_cell_formula_units_Z            2
loop_
_atom_site_label
_atom_site_type_symbol
_atom_site_fract_x
_atom_site_fract_y
_atom_site_fract_z
N1 N 0.6285(2) 1.17439(18) 0.57198(8)
N2 N 0.67576(16) 1.42249(15) 0.75176(7)
N3 N 0.55302(17) 1.62562(16) 0.92689(7)
F1 F -0.22827(14) 0.82162(13) 0.64470(6)
F2 F -0.60663(15) 0.65806(12) 0.64432(6)
F3 F -0.82807(12) 0.71612(12) 0.76283(6)
F4 F -0.67008(13) 0.93906(12) 0.88321(5)
F5 F -0.29180(13) 1.10107(11) 0.88483(5)
C1 C 0.8983(2) 1.38623(18) 0.62502(9)
H1 H 0.9506 1.4708 0.6648
C2 C 1.0081(2) 1.35132(19) 0.56312(9)
H2 H 1.1374 1.4122 0.5600
C3 C 0.9272(2) 1.2282(2) 0.50678(10)
H3 H 1.0001 1.2017 0.4644
C4 C 0.7363(3) 1.1428(2) 0.51287(11)
H4 H 0.6799 1.0586 0.4735
C5 C 0.70870(19) 1.29279(17) 0.62662(8)
C6 C 0.58846(18) 1.31835(17) 0.69307(8)
C7 C 0.39405(19) 1.22904(18) 0.69152(9)
H5 H 0.3355 1.1566 0.6483
C8 C 0.28937(18) 1.25040(17) 0.75582(8)
C9 C 0.37697(18) 1.36170(17) 0.81677(8)
H6 H 0.3062 1.3814 0.8602
C10 C 0.57231(19) 1.44444(17) 0.81286(8)
C11 C 0.67605(19) 1.55734(17) 0.87798(8)
C12 C 0.6437(2) 1.7280(2) 0.98601(9)
H7 H 0.5579 1.7789 1.0203
C13 C 0.8566(2) 1.7649(2) 1.00063(9)
H8 H 0.9141 1.8380 1.0438
C14 C 0.9822(2) 1.6918(2) 0.95027(9)
H9 H 1.1280 1.7133 0.9585
C15 C 0.89152(19) 1.58730(19) 0.88800(8)
H10 H 0.9740 1.5366 0.8525
C16 C 0.09750(19) 1.15175(18) 0.75912(9)
C17 C -0.05759(19) 1.06424(18) 0.76290(9)
C18 C -0.25026(18) 0.96717(17) 0.76411(8)
C19 C -0.3333(2) 0.85263(18) 0.70427(9)
C20 C -0.5283(2) 0.76783(18) 0.70274(9)
C21 C -0.64052(19) 0.79738(17) 0.76403(9)
C22 C -0.56094(19) 0.90838(17) 0.82469(9)
C23 C -0.36577(19) 0.99201(17) 0.82557(8)
loop_
_geom_bond_atom_site_label_1
_geom_bond_atom_site_label_2
_geom_bond_site_symmetry_1
_geom_bond_site_symmetry_2
N1 C4 1_555 1_555
N2 C6 1_555 1_555
N3 C11 1_555 1_555
F1 C19 1_555 1_555
F2 C20 1_555 1_555
F3 C21 1_555 1_555
F4 C22 1_555 1_555
F5 C23 1_555 1_555
C1 H1 1_555 1_555
C2 C1 1_555 1_555
H2 C2 1_555 1_555
C3 C2 1_555 1_555
H3 C3 1_555 1_555
C4 C3 1_555 1_555
H4 C4 1_555 1_555
C5 N1 1_555 1_555
C6 C5 1_555 1_555
C7 C6 1_555 1_555
H5 C7 1_555 1_555
C8 C7 1_555 1_555
C9 C8 1_555 1_555
H6 C9 1_555 1_555
C10 N2 1_555 1_555
C11 C10 1_555 1_555
C12 N3 1_555 1_555
H7 C12 1_555 1_555
C13 C12 1_555 1_555
H8 C13 1_555 1_555
C14 C13 1_555 1_555
H9 C14 1_555 1_555
C15 C11 1_555 1_555
H10 C15 1_555 1_555
C16 C8 1_555 1_555
C17 C16 1_555 1_555
C18 C17 1_555 1_555
C19 C18 1_555 1_555
C20 C19 1_555 1_555
C21 C20 1_555 1_555
C22 C21 1_555 1_555
C23 C18 1_555 1_555
C1 C5 1_555 1_555
C9 C10 1_555 1_555
C14 C15 1_555 1_555
C22 C23 1_555 1_555

#END
