
#######################################################################
#
#                 Cambridge Crystallographic Data Centre
#                                CCDC 
#
#######################################################################
#
# If this CIF has been generated from an entry in the Cambridge 
# Structural Database, then it will include bibliographic, chemical, 
# crystal, experimental, refinement or atomic coordinate data resulting 
# from the CCDC's data processing and validation procedures.
#
#######################################################################

data_UXEROF
_chemical_formula_moiety         'C16 H15 Br1 O4'
_chemical_name_systematic        
6-Bromo-2-((4-methoxyphenoxy)methyl)-2,3-dihydro-1,4-benzodioxine
_symmetry_cell_setting           orthorhombic
_symmetry_space_group_name_H-M   'P b c a'
_symmetry_Int_Tables_number      61
_space_group_name_Hall           '-P 2ac 2ab'
loop_
_symmetry_equiv_pos_site_id
_symmetry_equiv_pos_as_xyz
1 x,y,z
2 1/2-x,-y,1/2+z
3 -x,1/2+y,1/2-z
4 1/2+x,1/2-y,-z
5 -x,-y,-z
6 1/2+x,y,1/2-z
7 x,1/2-y,1/2+z
8 1/2-x,1/2+y,z
_cell_length_a                   10.9224(6)
_cell_length_b                   7.7301(4)
_cell_length_c                   34.5866(18)
_cell_angle_alpha                90
_cell_angle_beta                 90
_cell_angle_gamma                90
_cell_volume                     2920.19
_exptl_crystal_colour            white
_exptl_crystal_description       block
_cell_formula_units_Z            8
loop_
_atom_site_label
_atom_site_type_symbol
_atom_site_fract_x
_atom_site_fract_y
_atom_site_fract_z
Br1 Br 0.07042(5) 0.21686(8) 0.445707(15)
C1 C 0.0617(4) 0.1996(6) 0.32598(15)
C2 C 0.0065(4) 0.1810(6) 0.26054(14)
H1 H -0.0421 0.2400 0.2411
H2 H -0.0150 0.0593 0.2600
C3 C 0.1406(4) 0.2019(6) 0.25134(14)
H3 H 0.1632 0.3242 0.2536
C4 C 0.1755(4) 0.1367(6) 0.21191(13)
H4 H 0.2629 0.1494 0.2077
H5 H 0.1540 0.0155 0.2092
C5 C 0.1192(4) 0.1185(6) 0.06784(14)
C6 C 0.0305(4) 0.2658(6) 0.12232(15)
H6 H -0.0289 0.3393 0.1323
C7 C 0.1737(4) 0.1259(6) 0.31646(14)
C8 C 0.1169(4) 0.1939(6) 0.14674(14)
C9 C 0.2053(4) 0.0855(6) 0.13178(14)
H7 H 0.2640 0.0378 0.1481
C10 C 0.2225(4) 0.0988(6) 0.38373(14)
H8 H 0.2752 0.0623 0.4032
C11 C 0.2534(4) 0.0757(6) 0.34550(14)
H9 H 0.3283 0.0260 0.3391
C12 C 0.0316(5) 0.2298(6) 0.08366(16)
H10 H -0.0268 0.2800 0.0676
C13 C 0.2073(4) 0.0471(6) 0.09270(14)
H11 H 0.2673 -0.0262 0.0829
C14 C 0.1974(5) -0.0314(7) 0.01301(15)
H12 H 0.2794 0.0112 0.0159
H13 H 0.1797 -0.0480 -0.0139
H14 H 0.1894 -0.1396 0.0264
C15 C 0.0311(4) 0.2269(6) 0.36440(15)
H15 H -0.0431 0.2782 0.3709
C16 C 0.1120(5) 0.1770(6) 0.39292(14)
O1 O -0.0202(3) 0.2514(4) 0.29797(10)
O2 O 0.2113(3) 0.1018(4) 0.27860(9)
O3 O 0.1134(3) 0.0909(4) 0.02888(9)
O4 O 0.1083(3) 0.2398(4) 0.18506(10)
loop_
_geom_bond_atom_site_label_1
_geom_bond_atom_site_label_2
_geom_bond_site_symmetry_1
_geom_bond_site_symmetry_2
Br1 C16 1_555 1_555
C1 C7 1_555 1_555
C2 H1 1_555 1_555
H2 C2 1_555 1_555
C3 C2 1_555 1_555
H3 C3 1_555 1_555
C4 C3 1_555 1_555
H4 C4 1_555 1_555
H5 C4 1_555 1_555
C5 C12 1_555 1_555
C6 H6 1_555 1_555
C7 C11 1_555 1_555
C8 C6 1_555 1_555
C9 C8 1_555 1_555
H7 C9 1_555 1_555
C10 H8 1_555 1_555
C11 C10 1_555 1_555
H9 C11 1_555 1_555
C12 C6 1_555 1_555
H10 C12 1_555 1_555
C13 C5 1_555 1_555
H11 C13 1_555 1_555
C14 H12 1_555 1_555
H13 C14 1_555 1_555
H14 C14 1_555 1_555
C15 C1 1_555 1_555
H15 C15 1_555 1_555
C16 C10 1_555 1_555
O1 C1 1_555 1_555
O2 C3 1_555 1_555
O3 C5 1_555 1_555
O4 C4 1_555 1_555
C2 O1 1_555 1_555
C7 O2 1_555 1_555
C8 O4 1_555 1_555
C9 C13 1_555 1_555
C14 O3 1_555 1_555
C15 C16 1_555 1_555

#END
