
#######################################################################
#
#                 Cambridge Crystallographic Data Centre
#                                CCDC 
#
#######################################################################
#
# If this CIF has been generated from an entry in the Cambridge 
# Structural Database, then it will include bibliographic, chemical, 
# crystal, experimental, refinement or atomic coordinate data resulting 
# from the CCDC's data processing and validation procedures.
#
#######################################################################

data_UXERIZ
_chemical_formula_moiety         'C22 H19 N1 O3 S1'
_chemical_name_systematic        
10-((4-Methylphenyl)sulfonyl)-4b,10,10a,11-tetrahydrobenzo[b]indeno[2,1-e][1,4]oxazine
_symmetry_cell_setting           monoclinic
_symmetry_space_group_name_H-M   'P 21/n'
_symmetry_Int_Tables_number      14
_space_group_name_Hall           '-P 2yn'
loop_
_symmetry_equiv_pos_site_id
_symmetry_equiv_pos_as_xyz
1 x,y,z
2 1/2-x,1/2+y,1/2-z
3 -x,-y,-z
4 1/2+x,1/2-y,1/2+z
_cell_length_a                   11.0635(7)
_cell_length_b                   14.2914(9)
_cell_length_c                   12.9073(9)
_cell_angle_alpha                90
_cell_angle_beta                 114.868(2)
_cell_angle_gamma                90
_cell_volume                     1851.58
_exptl_crystal_description       block
_cell_formula_units_Z            4
loop_
_atom_site_label
_atom_site_type_symbol
_atom_site_fract_x
_atom_site_fract_y
_atom_site_fract_z
S1 S 0.76457(8) 0.24155(6) 0.37339(9)
C1 C 0.4895(3) 0.1688(2) 0.4710(3)
C2 C 0.4927(3) 0.4824(2) 0.1872(3)
C3 C 0.5747(3) 0.1125(2) 0.3070(3)
H1 H 0.5198 0.1593 0.2516
C4 C 0.5105(3) 0.4064(2) 0.1287(3)
H2 H 0.4654 0.4047 0.0495
C5 C 0.6197(3) 0.1910(2) 0.4885(3)
C6 C 0.4849(3) 0.0570(2) 0.3424(3)
H3 H 0.5393 0.0158 0.4055
C7 C 0.5930(3) 0.3335(2) 0.1844(3)
H4 H 0.6039 0.2832 0.1433
C8 C 0.4103(3) -0.0017(2) 0.2392(3)
C9 C 0.6596(3) 0.3352(2) 0.3021(3)
C10 C 0.4923(3) -0.0148(2) 0.1841(3)
C11 C 0.4388(3) 0.1948(2) 0.5475(3)
H5 H 0.3519 0.1786 0.5335
C12 C 0.6197(4) 0.0410(3) 0.2417(3)
H6 H 0.6453 0.0710 0.1865
H7 H 0.6926 0.0026 0.2929
C13 C 0.5608(4) 0.4826(3) 0.3049(3)
H8 H 0.5505 0.5331 0.3459
C14 C 0.4027(4) 0.5615(3) 0.1241(3)
H9 H 0.4024 0.6080 0.1777
H10 H 0.3139 0.5382 0.0822
H11 H 0.4342 0.5889 0.0721
C15 C 0.2873(4) -0.0434(3) 0.2011(3)
H12 H 0.2335 -0.0340 0.2394
C16 C 0.6432(3) 0.4101(3) 0.3631(3)
H13 H 0.6874 0.4114 0.4424
C17 C 0.3269(5) -0.1145(3) 0.0521(3)
H14 H 0.2988 -0.1536 -0.0113
C18 C 0.4507(4) -0.0730(3) 0.0903(3)
H15 H 0.5054 -0.0842 0.0533
C19 C 0.5153(4) 0.2446(3) 0.6444(3)
H16 H 0.4800 0.2646 0.6945
C20 C 0.2444(4) -0.0995(3) 0.1051(3)
H17 H 0.1604 -0.1269 0.0769
C21 C 0.6972(4) 0.2372(3) 0.5899(3)
H18 H 0.7859 0.2503 0.6071
C22 C 0.6451(4) 0.2638(3) 0.6652(4)
H19 H 0.6989 0.2956 0.7316
O1 O 0.40633(19) 0.11513(15) 0.37936(18)
O2 O 0.8650(2) 0.27598(18) 0.4774(2)
O3 O 0.8023(2) 0.19400(17) 0.2942(2)
N1 N 0.6728(2) 0.16383(18) 0.4068(2)
loop_
_geom_bond_atom_site_label_1
_geom_bond_atom_site_label_2
_geom_bond_site_symmetry_1
_geom_bond_site_symmetry_2
S1 C9 1_555 1_555
C1 C5 1_555 1_555
C2 C4 1_555 1_555
C3 H1 1_555 1_555
C4 H2 1_555 1_555
C5 C21 1_555 1_555
C6 C3 1_555 1_555
H3 C6 1_555 1_555
C7 C4 1_555 1_555
H4 C7 1_555 1_555
C8 C6 1_555 1_555
C9 C7 1_555 1_555
C10 C8 1_555 1_555
C11 C1 1_555 1_555
H5 C11 1_555 1_555
C12 C3 1_555 1_555
H6 C12 1_555 1_555
H7 C12 1_555 1_555
C13 C2 1_555 1_555
H8 C13 1_555 1_555
C14 C2 1_555 1_555
H9 C14 1_555 1_555
H10 C14 1_555 1_555
H11 C14 1_555 1_555
C15 C8 1_555 1_555
H12 C15 1_555 1_555
C16 C9 1_555 1_555
H13 C16 1_555 1_555
C17 H14 1_555 1_555
C18 C10 1_555 1_555
H15 C18 1_555 1_555
C19 C11 1_555 1_555
H16 C19 1_555 1_555
C20 C15 1_555 1_555
H17 C20 1_555 1_555
C21 H18 1_555 1_555
C22 C19 1_555 1_555
H19 C22 1_555 1_555
O1 C1 1_555 1_555
O2 S1 1_555 1_555
O3 S1 1_555 1_555
N1 S1 1_555 1_555
C3 N1 1_555 1_555
C5 N1 1_555 1_555
C6 O1 1_555 1_555
C10 C12 1_555 1_555
C13 C16 1_555 1_555
C17 C18 1_555 1_555
C17 C20 1_555 1_555
C21 C22 1_555 1_555

#END
