
#######################################################################
#
#                 Cambridge Crystallographic Data Centre
#                                CCDC 
#
#######################################################################
#
# If this CIF has been generated from an entry in the Cambridge 
# Structural Database, then it will include bibliographic, chemical, 
# crystal, experimental, refinement or atomic coordinate data resulting 
# from the CCDC's data processing and validation procedures.
#
#######################################################################

data_UXESAS
_chemical_formula_moiety         'C21 H19 N1 O3 S1'
_chemical_name_systematic        
4-((4-Methylphenyl)sulfonyl)-2-phenyl-3,4-dihydro-2H-1,4-benzoxazine
_symmetry_cell_setting           monoclinic
_symmetry_space_group_name_H-M   'P 21/c'
_symmetry_Int_Tables_number      14
_space_group_name_Hall           '-P 2ybc'
loop_
_symmetry_equiv_pos_site_id
_symmetry_equiv_pos_as_xyz
1 x,y,z
2 -x,1/2+y,1/2-z
3 -x,-y,-z
4 x,1/2-y,1/2+z
_cell_length_a                   14.248(2)
_cell_length_b                   13.968(2)
_cell_length_c                   9.2058(14)
_cell_angle_alpha                90
_cell_angle_beta                 100.089(4)
_cell_angle_gamma                90
_cell_volume                     1803.77
_exptl_crystal_colour            white
_exptl_crystal_description       block
_cell_formula_units_Z            4
loop_
_atom_site_label
_atom_site_type_symbol
_atom_site_fract_x
_atom_site_fract_y
_atom_site_fract_z
S1 S 0.79339(7) 0.49347(5) 0.24831(9)
O1 O 0.7411(2) 0.47877(17) 0.1038(2)
N1 N 0.7115(2) 0.51277(16) 0.3542(3)
O2 O 0.8616(2) 0.56943(16) 0.2761(3)
O3 O 0.66093(16) 0.41889(14) 0.6074(2)
C1 C 0.7323(2) 0.5420(2) 0.7613(3)
H1 H 0.7129 0.5103 0.8399
C2 C 0.6347(2) 0.4411(2) 0.3434(3)
H2 H 0.6286 0.4080 0.2496
H3 H 0.5747 0.4730 0.3474
C3 C 0.5820(2) 0.2921(2) 0.4664(3)
C4 C 0.8498(2) 0.3853(2) 0.3087(3)
C5 C 0.6563(2) 0.3684(2) 0.4701(3)
C6 C 0.7117(2) 0.5030(2) 0.6198(3)
C7 C 0.5973(3) 0.2017(2) 0.4115(4)
H4 H 0.6533 0.1896 0.3758
C8 C 0.9292(2) 0.2122(2) 0.4175(4)
C9 C 0.7395(2) 0.5502(2) 0.5012(3)
C10 C 0.9594(2) 0.2978(3) 0.4853(4)
H5 H 1.0072 0.2971 0.5682
C11 C 0.8573(2) 0.2149(2) 0.2931(4)
H6 H 0.8357 0.1580 0.2466
C12 C 0.7875(3) 0.6378(2) 0.5270(4)
H7 H 0.8052 0.6710 0.4485
C13 C 0.8180(2) 0.3003(2) 0.2383(4)
H8 H 0.7706 0.3012 0.1549
C14 C 0.8088(3) 0.6755(2) 0.6680(4)
H9 H 0.8414 0.7333 0.6842
C15 C 0.9204(2) 0.3841(2) 0.4331(4)
H10 H 0.9412 0.4409 0.4809
C16 C 0.7813(3) 0.6270(2) 0.7851(4)
H11 H 0.7961 0.6520 0.8800
C17 C 0.9713(3) 0.1169(3) 0.4749(5)
H12 H 0.9417 0.0662 0.4127
H13 H 0.9602 0.1071 0.5738
H14 H 1.0386 0.1169 0.4747
C18 C 0.4999(3) 0.3057(3) 0.5227(6)
H15 H 0.4887 0.3646 0.5638
C19 C 0.4490(3) 0.1456(3) 0.4607(5)
H16 H 0.4037 0.0973 0.4562
C20 C 0.4333(3) 0.2330(3) 0.5194(7)
H17 H 0.3778 0.2436 0.5571
C21 C 0.5310(3) 0.1299(3) 0.4091(5)
H18 H 0.5426 0.0701 0.3717
loop_
_geom_bond_atom_site_label_1
_geom_bond_atom_site_label_2
_geom_bond_site_symmetry_1
_geom_bond_site_symmetry_2
S1 O1 1_555 1_555
N1 S1 1_555 1_555
O2 S1 1_555 1_555
O3 C5 1_555 1_555
C1 H1 1_555 1_555
C2 N1 1_555 1_555
H2 C2 1_555 1_555
H3 C2 1_555 1_555
C3 C5 1_555 1_555
C4 S1 1_555 1_555
C5 C2 1_555 1_555
C6 O3 1_555 1_555
C7 C3 1_555 1_555
H4 C7 1_555 1_555
C8 C10 1_555 1_555
C9 N1 1_555 1_555
C10 H5 1_555 1_555
C11 C8 1_555 1_555
H6 C11 1_555 1_555
C12 C9 1_555 1_555
H7 C12 1_555 1_555
C13 C4 1_555 1_555
H8 C13 1_555 1_555
C14 C12 1_555 1_555
H9 C14 1_555 1_555
C15 C4 1_555 1_555
H10 C15 1_555 1_555
C16 C1 1_555 1_555
H11 C16 1_555 1_555
C17 C8 1_555 1_555
H12 C17 1_555 1_555
H13 C17 1_555 1_555
H14 C17 1_555 1_555
C18 C3 1_555 1_555
H15 C18 1_555 1_555
C19 H16 1_555 1_555
C20 C18 1_555 1_555
H17 C20 1_555 1_555
C21 C7 1_555 1_555
H18 C21 1_555 1_555
C1 C6 1_555 1_555
C6 C9 1_555 1_555
C10 C15 1_555 1_555
C11 C13 1_555 1_555
C14 C16 1_555 1_555
C19 C20 1_555 1_555
C19 C21 1_555 1_555

#END
