
#######################################################################
#
#                 Cambridge Crystallographic Data Centre
#                                CCDC 
#
#######################################################################
#
# If this CIF has been generated from an entry in the Cambridge 
# Structural Database, then it will include bibliographic, chemical, 
# crystal, experimental, refinement or atomic coordinate data resulting 
# from the CCDC's data processing and validation procedures.
#
#######################################################################

data_UXESEW
_chemical_formula_moiety         'C18 H19 N1 O3 S1'
_chemical_name_systematic        
9-((4-Methylphenyl)sulfonyl)-1,2,3,3a,9,9a-hexahydrobenzo[b]cyclopenta[e][1,4]oxazine
_symmetry_cell_setting           monoclinic
_symmetry_space_group_name_H-M   'P 21/c'
_symmetry_Int_Tables_number      14
_space_group_name_Hall           '-P 2ybc'
loop_
_symmetry_equiv_pos_site_id
_symmetry_equiv_pos_as_xyz
1 x,y,z
2 -x,1/2+y,1/2-z
3 -x,-y,-z
4 x,1/2-y,1/2+z
_cell_length_a                   10.7629(10)
_cell_length_b                   9.5687(9)
_cell_length_c                   16.1405(15)
_cell_angle_alpha                90
_cell_angle_beta                 104.848(2)
_cell_angle_gamma                90
_cell_volume                     1606.76
_exptl_crystal_colour            white
_exptl_crystal_description       block
_cell_formula_units_Z            4
loop_
_atom_site_label
_atom_site_type_symbol
_atom_site_fract_x
_atom_site_fract_y
_atom_site_fract_z
S1 S 0.71514(5) 0.70415(6) 0.07910(3)
C1 C 0.8468(2) 0.4672(2) 0.07275(14)
C2 C 0.9667(2) 0.6673(3) 0.14846(15)
H1 H 0.9547 0.6479 0.2055
C3 C 1.0804(2) 0.5885(3) 0.13796(17)
H2 H 1.0889 0.6006 0.0794
C4 C 0.9569(2) 0.3869(2) 0.10793(15)
C5 C 0.7398(3) 0.3964(3) 0.0258(2)
H3 H 0.6668 0.4468 -0.0013
C6 C 0.9532(3) 0.2421(3) 0.09842(19)
H4 H 1.0259 0.1893 0.1228
C7 C 1.1931(2) 0.6571(4) 0.2003(2)
H5 H 1.2727 0.6406 0.1842
H6 H 1.2020 0.6238 0.2583
C8 C 1.0114(3) 0.8175(3) 0.1461(2)
H7 H 0.9659 0.8789 0.1760
H8 H 0.9980 0.8498 0.0875
C9 C 1.1554(3) 0.8123(3) 0.1916(2)
H9 H 1.2049 0.8614 0.1583
H10 H 1.1713 0.8557 0.2477
C10 C 0.7385(3) 0.2529(3) 0.0182(2)
H11 H 0.6639 0.2081 -0.0119
C11 C 0.8433(4) 0.1771(3) 0.0534(2)
H12 H 0.8414 0.0804 0.0473
O1 O 1.06979(18) 0.4430(2) 0.15510(13)
N1 N 0.85112(16) 0.61805(19) 0.08263(11)
O2 O 0.74926(16) 0.84854(17) 0.09054(12)
O3 O 0.62185(16) 0.6636(2) 0.00309(10)
C12 C 0.7093(2) 0.7158(2) 0.24582(15)
H13 H 0.7701 0.7865 0.2511
C13 C 0.66187(18) 0.6489(2) 0.16772(13)
C14 C 0.57323(19) 0.5413(2) 0.15946(14)
H14 H 0.5432 0.4953 0.1074
C15 C 0.6653(2) 0.6761(2) 0.31568(15)
H15 H 0.6974 0.7204 0.3681
C16 C 0.5739(2) 0.5710(2) 0.30886(15)
C17 C 0.5302(2) 0.5038(2) 0.23059(15)
H16 H 0.4706 0.4318 0.2256
C18 C 0.5216(3) 0.5332(3) 0.38367(17)
H17 H 0.5623 0.5897 0.4322
H18 H 0.5384 0.4363 0.3976
H19 H 0.4305 0.5494 0.3691
loop_
_geom_bond_atom_site_label_1
_geom_bond_atom_site_label_2
_geom_bond_site_symmetry_1
_geom_bond_site_symmetry_2
S1 N1 1_555 1_555
C1 C4 1_555 1_555
C2 H1 1_555 1_555
C3 C2 1_555 1_555
H2 C3 1_555 1_555
C4 C6 1_555 1_555
C5 C1 1_555 1_555
H3 C5 1_555 1_555
C6 H4 1_555 1_555
C7 C3 1_555 1_555
H5 C7 1_555 1_555
H6 C7 1_555 1_555
C8 C2 1_555 1_555
H7 C8 1_555 1_555
H8 C8 1_555 1_555
C9 C7 1_555 1_555
H9 C9 1_555 1_555
H10 C9 1_555 1_555
C10 C5 1_555 1_555
H11 C10 1_555 1_555
C11 C6 1_555 1_555
H12 C11 1_555 1_555
O1 C3 1_555 1_555
N1 C1 1_555 1_555
O2 S1 1_555 1_555
O3 S1 1_555 1_555
C12 H13 1_555 1_555
C13 S1 1_555 1_555
C14 C13 1_555 1_555
H14 C14 1_555 1_555
C15 C12 1_555 1_555
H15 C15 1_555 1_555
C16 C15 1_555 1_555
C17 C14 1_555 1_555
H16 C17 1_555 1_555
C18 C16 1_555 1_555
H17 C18 1_555 1_555
H18 C18 1_555 1_555
H19 C18 1_555 1_555
C2 N1 1_555 1_555
C4 O1 1_555 1_555
C8 C9 1_555 1_555
C10 C11 1_555 1_555
C12 C13 1_555 1_555
C16 C17 1_555 1_555

#END
