
#######################################################################
#
#                 Cambridge Crystallographic Data Centre
#                                CCDC 
#
#######################################################################
#
# If this CIF has been generated from an entry in the Cambridge 
# Structural Database, then it will include bibliographic, chemical, 
# crystal, experimental, refinement or atomic coordinate data resulting 
# from the CCDC's data processing and validation procedures.
#
#######################################################################

data_UXEXUS
_chemical_formula_moiety         'C14 H6 F2 N2 S3'
_chemical_name_systematic        
5,6-difluoro-4,7-bis(2-thienyl)-1,2,3-benzothiadiazole
_symmetry_cell_setting           monoclinic
_symmetry_space_group_name_H-M   'P 21/c'
_symmetry_Int_Tables_number      14
_space_group_name_Hall           '-P 2ybc'
loop_
_symmetry_equiv_pos_site_id
_symmetry_equiv_pos_as_xyz
1 x,y,z
2 -x,1/2+y,1/2-z
3 -x,-y,-z
4 x,1/2-y,1/2+z
_cell_length_a                   15.100(4)
_cell_length_b                   4.9091(14)
_cell_length_c                   18.053(5)
_cell_angle_alpha                90
_cell_angle_beta                 106.044(5)
_cell_angle_gamma                90
_cell_volume                     1286.1
_cell_formula_units_Z            4
loop_
_atom_site_label
_atom_site_type_symbol
_atom_site_fract_x
_atom_site_fract_y
_atom_site_fract_z
S1 S 0.31822(11) 0.0320(3) 0.67622(6)
S2 S 0.21531(15) 1.0628(5) 0.29988(11)
F1 F 0.41470(12) 0.3164(4) 0.46623(10)
F2 F 0.33555(12) 0.6823(4) 0.37157(10)
C1 C 0.4042(2) -0.1958(7) 0.70544(18)
H1 H 0.4109 -0.3112 0.7489
C2 C 0.4627(2) -0.1978(7) 0.66092(17)
H2 H 0.5152 -0.3124 0.6692
C3 C 0.4357(6) -0.009(2) 0.6011(5)
H3 H 0.4692 0.0165 0.5641
C4 C 0.3571(2) 0.1376(6) 0.59922(15)
C5 C 0.31013(19) 0.3474(6) 0.54470(15)
C6 C 0.3393(2) 0.4303(7) 0.48187(16)
C7 C 0.2958(2) 0.6271(7) 0.42929(15)
C8 C 0.21774(19) 0.7683(6) 0.43293(15)
C9 C 0.18579(19) 0.6861(6) 0.49638(15)
C10 C 0.2301(2) 0.4851(6) 0.54915(15)
C11 C 0.1728(2) 0.9787(6) 0.37698(15)
C12 C 0.0996(7) 1.126(2) 0.3761(6)
H4 H 0.0674 1.1066 0.4142
C13 C 0.0708(2) 1.3243(7) 0.31154(18)
H5 H 0.0192 1.4433 0.3011
C14 C 0.1325(2) 1.3006(7) 0.27128(18)
H6 H 0.1297 1.4138 0.2280
S3 S 0.1667(7) 0.469(2) 0.6109(6)
N1 N 0.1046(17) 0.826(6) 0.5069(13)
N2 N 0.0929(10) 0.713(3) 0.5702(9)
S4? S 0.09473(12) 0.7887(4) 0.52452(11)
N3? N 0.1913(6) 0.425(2) 0.6081(6)
N4? N 0.1184(4) 0.5727(12) 0.6016(2)
S5? S 0.4521(11) 0.005(4) 0.5897(9)
H7? H 0.2711 0.1144 0.6703
C15? C 0.325(3) 0.053(10) 0.658(2)
S6? S 0.0709(3) 1.1348(10) 0.3838(2)
C16? C 0.1937(8) 1.103(3) 0.3162(7)
H8? H 0.2491 1.0571 0.3038
H9? H 0.0246 1.4604 0.2966
H10? H 0.1350 1.3906 0.2253
loop_
_geom_bond_atom_site_label_1
_geom_bond_atom_site_label_2
_geom_bond_site_symmetry_1
_geom_bond_site_symmetry_2
S1 C1 1_555 1_555
S2 C11 1_555 1_555
F1 C6 1_555 1_555
F2 C7 1_555 1_555
C1 H1 1_555 1_555
C2 C1 1_555 1_555
H2 C2 1_555 1_555
C3 C2 1_555 1_555
H3 C3 1_555 1_555
C4 S1 1_555 1_555
C5 C4 1_555 1_555
C6 C5 1_555 1_555
C7 C6 1_555 1_555
C8 C7 1_555 1_555
C9 C8 1_555 1_555
C10 C5 1_555 1_555
C11 C8 1_555 1_555
C12 C11 1_555 1_555
H4 C12 1_555 1_555
C13 C12 1_555 1_555
H5 C13 1_555 1_555
C14 S2 1_555 1_555
H6 C14 1_555 1_555
S3 C10 1_555 1_555
N1 C9 1_555 1_555
N2 S3 1_555 1_555
C3 C4 1_555 1_555
C9 C10 1_555 1_555
C13 C14 1_555 1_555
N1 N2 1_555 1_555

#END
