
#######################################################################
#
#                 Cambridge Crystallographic Data Centre
#                                CCDC 
#
#######################################################################
#
# If this CIF has been generated from an entry in the Cambridge 
# Structural Database, then it will include bibliographic, chemical, 
# crystal, experimental, refinement or atomic coordinate data resulting 
# from the CCDC's data processing and validation procedures.
#
#######################################################################

data_UXEYED
_chemical_formula_moiety         'C14 H8 N2 S3'
_chemical_name_systematic        4,7-bis(2-thienyl)-1,2,3-benzothiadiazole
_symmetry_cell_setting           orthorhombic
_symmetry_space_group_name_H-M   'P b c a'
_symmetry_Int_Tables_number      61
_space_group_name_Hall           '-P 2ac 2ab'
loop_
_symmetry_equiv_pos_site_id
_symmetry_equiv_pos_as_xyz
1 x,y,z
2 1/2-x,-y,1/2+z
3 -x,1/2+y,1/2-z
4 1/2+x,1/2-y,-z
5 -x,-y,-z
6 1/2+x,y,1/2-z
7 x,1/2-y,1/2+z
8 1/2-x,1/2+y,z
_cell_length_a                   12.5629(8)
_cell_length_b                   9.7688(7)
_cell_length_c                   20.2461(13)
_cell_angle_alpha                90
_cell_angle_beta                 90
_cell_angle_gamma                90
_cell_volume                     2484.69
_cell_formula_units_Z            8
loop_
_atom_site_label
_atom_site_type_symbol
_atom_site_fract_x
_atom_site_fract_y
_atom_site_fract_z
S1 S 0.312612 0.652436 0.503754
S2 S 0.335715 0.103609 0.226563
S3 S 0.436508 0.4728 0.407328
N1 N 0.487261 0.358478 0.351621
N2 N 0.41589 0.287201 0.324135
C1 C 0.242214 0.756273 0.549708
H1 H 0.275778 0.8162 0.580235
C2 C 0.135528 0.754739 0.543212
H2 H 0.091662 0.81115 0.570045
C3 C 0.115923 0.652294 0.495592
H3 H 0.045362 0.627293 0.483796
C4 C 0.204597 0.588308 0.466118
C5 C 0.212105 0.481695 0.41505
C6 C 0.309258 0.432559 0.389887
C7 C 0.313232 0.329394 0.341099
C8 C 0.22021 0.271511 0.313971
C9 C 0.125145 0.321818 0.339283
H4 H 0.060024 0.28608 0.322804
C10 C 0.121642 0.422689 0.387917
H5 H 0.054031 0.452502 0.403237
C11 C 0.221093 0.165229 0.262364
C12 C 0.132563 0.09906 0.23558
H6 H 0.061189 0.118157 0.248046
C13 C 0.161319 0.000664 0.187915
H7 H 0.111066 -0.054161 0.164902
C14 C 0.268105 -0.007945 0.178167
H8 H 0.300879 -0.069109 0.147881
S4? S 0.084458 0.654234 0.488498
S5? S 0.444121 0.304299 0.323764
C15? C 0.279977 0.658416 0.504663
H9? H 0.353939 0.640215 0.500384
H10? H 0.283212 0.811798 0.578636
H11? H 0.084917 0.810098 0.565619
N3? N 0.486814 0.423713 0.377688
N4? N 0.408802 0.487161 0.407517
loop_
_geom_bond_atom_site_label_1
_geom_bond_atom_site_label_2
_geom_bond_site_symmetry_1
_geom_bond_site_symmetry_2
S1 C1 1_555 1_555
S2 C11 1_555 1_555
S3 N1 1_555 1_555
N1 N2 1_555 1_555
N2 C7 1_555 1_555
C1 H1 1_555 1_555
C2 C1 1_555 1_555
H2 C2 1_555 1_555
C3 C2 1_555 1_555
H3 C3 1_555 1_555
C4 S1 1_555 1_555
C5 C4 1_555 1_555
C6 S3 1_555 1_555
C7 C6 1_555 1_555
C8 C7 1_555 1_555
C9 C8 1_555 1_555
H4 C9 1_555 1_555
C10 C5 1_555 1_555
H5 C10 1_555 1_555
C11 C8 1_555 1_555
C12 C11 1_555 1_555
H6 C12 1_555 1_555
C13 C12 1_555 1_555
H7 C13 1_555 1_555
C14 S2 1_555 1_555
H8 C14 1_555 1_555
C3 C4 1_555 1_555
C5 C6 1_555 1_555
C9 C10 1_555 1_555
C13 C14 1_555 1_555

#END
