
#######################################################################
#
#                 Cambridge Crystallographic Data Centre
#                                CCDC 
#
#######################################################################
#
# If this CIF has been generated from an entry in the Cambridge 
# Structural Database, then it will include bibliographic, chemical, 
# crystal, experimental, refinement or atomic coordinate data resulting 
# from the CCDC's data processing and validation procedures.
#
#######################################################################

data_UXEYAZ
_chemical_formula_moiety         'C14 H7 F1 N2 S3'
_chemical_name_systematic        
6-fluoro-4,7-bis(2-thienyl)-1,2,3-benzothiadiazole
_symmetry_cell_setting           monoclinic
_symmetry_space_group_name_H-M   'P 21/c'
_symmetry_Int_Tables_number      14
_space_group_name_Hall           '-P 2ybc'
loop_
_symmetry_equiv_pos_site_id
_symmetry_equiv_pos_as_xyz
1 x,y,z
2 -x,1/2+y,1/2-z
3 -x,-y,-z
4 x,1/2-y,1/2+z
_cell_length_a                   16.106(2)
_cell_length_b                   3.8034(5)
_cell_length_c                   20.339(3)
_cell_angle_alpha                90
_cell_angle_beta                 91.275(13)
_cell_angle_gamma                90
_cell_volume                     1245.61
_cell_formula_units_Z            4
loop_
_atom_site_label
_atom_site_type_symbol
_atom_site_fract_x
_atom_site_fract_y
_atom_site_fract_z
S1 S 0.78053 0.098896 0.305785
S2 S 0.677111 0.864241 0.67518
S3 S 0.90723 0.2389 0.530728
F1 F 0.658992 0.467059 0.370852
N1 N 0.883336 0.361893 0.609043
N2 N 0.810838 0.487568 0.612912
C1 C 0.867511 -0.014043 0.274361
H1 H 0.869909 -0.100782 0.230643
C2 C 0.937982 0.019472 0.312964
H2 H 0.992489 -0.045681 0.300844
C3 C 0.914583 0.175046 0.376982
H3 H 0.952681 0.234963 0.411512
C4 C 0.826102 0.222001 0.379239
C5 C 0.779864 0.355431 0.435021
C6 C 0.812705 0.369748 0.49973
C7 C 0.767066 0.504666 0.553106
C8 C 0.684809 0.629703 0.545571
C9 C 0.65278 0.6104 0.481364
H4 H 0.597861 0.691376 0.472524
C10 C 0.698251 0.477514 0.430243
C11 C 0.63726 0.769864 0.599186
C12 C 0.542461 0.847847 0.596367
H5 H 0.505091 0.809402 0.560287
C13 C 0.592265 1.00347 0.700832
H6 H 0.596015 1.077 0.745438
C14 C 0.521866 0.999358 0.663771
H7 H 0.470193 1.07864 0.679841
S4? S 0.531928 0.847245 0.588782
C15? C 0.661947 0.878548 0.662499
H8? H 0.717724 0.87171 0.678651
S5? S 0.932718 0.167933 0.385067
C16? C 0.801939 0.122275 0.318192
H9? H 0.745574 0.138166 0.303725
H10? H 0.468774 1.0769 0.677143
H11? H 0.590339 1.09451 0.744267
H12? H 0.990236 -0.047179 0.296137
H13? H 0.861923 -0.10185 0.23076
loop_
_geom_bond_atom_site_label_1
_geom_bond_atom_site_label_2
_geom_bond_site_symmetry_1
_geom_bond_site_symmetry_2
S1 C1 1_555 1_555
S2 C11 1_555 1_555
S3 N1 1_555 1_555
F1 C10 1_555 1_555
N1 N2 1_555 1_555
N2 C7 1_555 1_555
C1 H1 1_555 1_555
C2 C1 1_555 1_555
H2 C2 1_555 1_555
C3 C2 1_555 1_555
H3 C3 1_555 1_555
C4 S1 1_555 1_555
C5 C4 1_555 1_555
C6 S3 1_555 1_555
C7 C6 1_555 1_555
C8 C7 1_555 1_555
C9 C8 1_555 1_555
H4 C9 1_555 1_555
C10 C5 1_555 1_555
C11 C8 1_555 1_555
C12 C11 1_555 1_555
H5 C12 1_555 1_555
C13 S2 1_555 1_555
H6 C13 1_555 1_555
C14 C12 1_555 1_555
H7 C14 1_555 1_555
C3 C4 1_555 1_555
C5 C6 1_555 1_555
C9 C10 1_555 1_555
C13 C14 1_555 1_555

#END
