
#######################################################################
#
#                 Cambridge Crystallographic Data Centre
#                                CCDC 
#
#######################################################################
#
# If this CIF has been generated from an entry in the Cambridge 
# Structural Database, then it will include bibliographic, chemical, 
# crystal, experimental, refinement or atomic coordinate data resulting 
# from the CCDC's data processing and validation procedures.
#
#######################################################################

data_UXEZUT
_chemical_formula_moiety         'C38 H38 N6 O2'
_chemical_name_systematic        
2,3-bis((4-(diethylamino)-2-phenoxybenzylidene)amino)but-2-enedinitrile
_symmetry_cell_setting           monoclinic
_symmetry_space_group_name_H-M   'P 21/c'
_symmetry_Int_Tables_number      14
_space_group_name_Hall           '-P 2ybc'
loop_
_symmetry_equiv_pos_site_id
_symmetry_equiv_pos_as_xyz
1 x,y,z
2 -x,1/2+y,1/2-z
3 -x,-y,-z
4 x,1/2-y,1/2+z
_cell_length_a                   9.05098(16)
_cell_length_b                   18.4036(3)
_cell_length_c                   10.30599(19)
_cell_angle_alpha                90
_cell_angle_beta                 95.8851(7)
_cell_angle_gamma                90
_cell_volume                     1707.63
_exptl_crystal_colour            purple
_exptl_crystal_description       block
_cell_formula_units_Z            2
loop_
_atom_site_label
_atom_site_type_symbol
_atom_site_fract_x
_atom_site_fract_y
_atom_site_fract_z
O1 O 0.46612(15) 0.07864(7) 0.18561(15)
N1 N 0.8984(2) 0.15252(9) -0.0420(2)
N2 N 0.83329(16) -0.02079(8) 0.07767(15)
N3 N 0.2888(2) -0.14525(9) 0.35970(19)
C1 C 0.9175(2) 0.09281(10) -0.01880(19)
C2 C 0.93679(19) 0.01657(9) 0.01567(18)
C3 C 0.71294(19) 0.01051(10) 0.10647(18)
C4 C 0.60464(19) -0.02856(10) 0.17031(18)
C5 C 0.6182(2) -0.10344(10) 0.19500(19)
C6 C 0.5160(2) -0.14211(10) 0.2544(2)
C7 C 0.3894(2) -0.10762(11) 0.29611(19)
C8 C 0.3726(2) -0.03248(10) 0.27148(19)
C9 C 0.47743(19) 0.00516(10) 0.21174(18)
C10 C 0.3631(2) 0.12036(10) 0.2438(2)
C11 C 0.2582(2) 0.15669(12) 0.1628(2)
C12 C 0.1613(2) 0.20243(13) 0.2157(2)
C13 C 0.1684(2) 0.21236(12) 0.3489(2)
C14 C 0.2723(2) 0.17597(14) 0.4279(2)
C15 C 0.3719(2) 0.12969(13) 0.3764(2)
C16 C 0.1518(2) -0.11177(14) 0.3953(3)
C17 C 0.1713(4) -0.0744(2) 0.5253(3)
C18 C 0.3126(2) -0.22215(13) 0.3928(2)
C19 C 0.2710(3) -0.27174(14) 0.2826(2)
H1 H 0.6958 0.0600 0.0837
H2 H 0.7021 -0.1282 0.1684
H3 H 0.5298 -0.1927 0.2694
H4 H 0.2870 -0.0079 0.2951
H5 H 0.2528 0.1495 0.0712
H6 H 0.0883 0.2277 0.1602
H7 H 0.1000 0.2442 0.3838
H8 H 0.2758 0.1827 0.5196
H9 H 0.4465 0.1049 0.4311
H10 H 0.1201 -0.0761 0.3319
H11 H 0.0769 -0.1478 0.3975
H12 H 0.1524 -0.1084 0.5910
H13 H 0.1077 -0.0336 0.5296
H14 H 0.2719 -0.0590 0.5387
H15 H 0.4155 -0.2291 0.4181
H16 H 0.2577 -0.2345 0.4635
H17 H 0.1698 -0.2850 0.2847
H18 H 0.3308 -0.3143 0.2868
H19 H 0.2823 -0.2464 0.2039
O1B O 1.53388(15) -0.07864(7) -0.18561(15)
N1B N 1.1016(2) -0.15252(9) 0.0420(2)
N2B N 1.16671(16) 0.02079(8) -0.07767(15)
N3B N 1.7112(2) 0.14525(9) -0.35970(19)
C1B C 1.0825(2) -0.09281(10) 0.01880(19)
C2B C 1.06321(19) -0.01657(9) -0.01567(18)
C3B C 1.28706(19) -0.01051(10) -0.10647(18)
C4B C 1.39536(19) 0.02856(10) -0.17031(18)
C5B C 1.3818(2) 0.10344(10) -0.19500(19)
C6B C 1.4840(2) 0.14211(10) -0.2544(2)
C7B C 1.6106(2) 0.10762(11) -0.29611(19)
C8B C 1.6274(2) 0.03248(10) -0.27148(19)
C9B C 1.52257(19) -0.00516(10) -0.21174(18)
C10B C 1.6369(2) -0.12036(10) -0.2438(2)
C11B C 1.7418(2) -0.15669(12) -0.1628(2)
C12B C 1.8387(2) -0.20243(13) -0.2157(2)
C13B C 1.8316(2) -0.21236(12) -0.3489(2)
C14B C 1.7277(2) -0.17597(14) -0.4279(2)
C15B C 1.6281(2) -0.12969(13) -0.3764(2)
C16B C 1.8482(2) 0.11177(14) -0.3953(3)
C17B C 1.8287(4) 0.0744(2) -0.5253(3)
C18B C 1.6874(2) 0.22215(13) -0.3928(2)
C19B C 1.7290(3) 0.27174(14) -0.2826(2)
H1B H 1.3042 -0.0600 -0.0837
H2B H 1.2979 0.1282 -0.1684
H3B H 1.4702 0.1927 -0.2694
H4B H 1.7130 0.0079 -0.2951
H5B H 1.7472 -0.1495 -0.0712
H6B H 1.9117 -0.2277 -0.1602
H7B H 1.9000 -0.2442 -0.3838
H8B H 1.7242 -0.1827 -0.5196
H9B H 1.5535 -0.1049 -0.4311
H10B H 1.8799 0.0761 -0.3319
H11B H 1.9231 0.1478 -0.3975
H12B H 1.8476 0.1084 -0.5910
H13B H 1.8923 0.0336 -0.5296
H14B H 1.7281 0.0590 -0.5387
H15B H 1.5845 0.2291 -0.4181
H16B H 1.7423 0.2345 -0.4635
H17B H 1.8302 0.2850 -0.2847
H18B H 1.6692 0.3143 -0.2868
H19B H 1.7177 0.2464 -0.2039
loop_
_geom_bond_atom_site_label_1
_geom_bond_atom_site_label_2
_geom_bond_site_symmetry_1
_geom_bond_site_symmetry_2
O1 C9 1_555 1_555
N1 C1 1_555 1_555
N2 C2 1_555 1_555
N3 C7 1_555 1_555
C1 C2 1_555 1_555
C2 C2B 1_555 1_555
C3 N2 1_555 1_555
C4 C3 1_555 1_555
C5 C4 1_555 1_555
C6 C5 1_555 1_555
C7 C6 1_555 1_555
C8 C7 1_555 1_555
C9 C4 1_555 1_555
C10 O1 1_555 1_555
C11 C10 1_555 1_555
C12 C11 1_555 1_555
C13 C12 1_555 1_555
C14 C13 1_555 1_555
C15 C10 1_555 1_555
C16 N3 1_555 1_555
C17 C16 1_555 1_555
C18 N3 1_555 1_555
C19 C18 1_555 1_555
H1 C3 1_555 1_555
H2 C5 1_555 1_555
H3 C6 1_555 1_555
H4 C8 1_555 1_555
H5 C11 1_555 1_555
H6 C12 1_555 1_555
H7 C13 1_555 1_555
H8 C14 1_555 1_555
H9 C15 1_555 1_555
H10 C16 1_555 1_555
H11 C16 1_555 1_555
H12 C17 1_555 1_555
H13 C17 1_555 1_555
H14 C17 1_555 1_555
H15 C18 1_555 1_555
H16 C18 1_555 1_555
H17 C19 1_555 1_555
H18 C19 1_555 1_555
H19 C19 1_555 1_555
O1B C9B 1_555 1_555
N1B C1B 1_555 1_555
N2B C2B 1_555 1_555
N3B C7B 1_555 1_555
C1B C2B 1_555 1_555
C3B N2B 1_555 1_555
C4B C3B 1_555 1_555
C5B C4B 1_555 1_555
C6B C5B 1_555 1_555
C7B C6B 1_555 1_555
C8B C7B 1_555 1_555
C9B C4B 1_555 1_555
C10B O1B 1_555 1_555
C11B C10B 1_555 1_555
C12B C11B 1_555 1_555
C13B C12B 1_555 1_555
C14B C13B 1_555 1_555
C15B C10B 1_555 1_555
C16B N3B 1_555 1_555
C17B C16B 1_555 1_555
C18B N3B 1_555 1_555
C19B C18B 1_555 1_555
H1B C3B 1_555 1_555
H2B C5B 1_555 1_555
H3B C6B 1_555 1_555
H4B C8B 1_555 1_555
H5B C11B 1_555 1_555
H6B C12B 1_555 1_555
H7B C13B 1_555 1_555
H8B C14B 1_555 1_555
H9B C15B 1_555 1_555
H10B C16B 1_555 1_555
H11B C16B 1_555 1_555
H12B C17B 1_555 1_555
H13B C17B 1_555 1_555
H14B C17B 1_555 1_555
H15B C18B 1_555 1_555
H16B C18B 1_555 1_555
H17B C19B 1_555 1_555
H18B C19B 1_555 1_555
H19B C19B 1_555 1_555
C8 C9 1_555 1_555
C14 C15 1_555 1_555
C8B C9B 1_555 1_555
C14B C15B 1_555 1_555

#END
