
#######################################################################
#
#                 Cambridge Crystallographic Data Centre
#                                CCDC 
#
#######################################################################
#
# If this CIF has been generated from an entry in the Cambridge 
# Structural Database, then it will include bibliographic, chemical, 
# crystal, experimental, refinement or atomic coordinate data resulting 
# from the CCDC's data processing and validation procedures.
#
#######################################################################

data_UXIBAF
_chemical_formula_moiety         'C30 H38 N6 O2'
_chemical_name_systematic        
2,3-bis((4-(diethylamino)-2-ethoxybenzylidene)amino)but-2-enedinitrile
_symmetry_cell_setting           triclinic
_symmetry_space_group_name_H-M   'P -1'
_symmetry_Int_Tables_number      2
_space_group_name_Hall           '-P 1'
loop_
_symmetry_equiv_pos_site_id
_symmetry_equiv_pos_as_xyz
1 x,y,z
2 -x,-y,-z
_cell_length_a                   10.17467(18)
_cell_length_b                   10.78264(19)
_cell_length_c                   14.7446(3)
_cell_angle_alpha                108.4307(7)
_cell_angle_beta                 93.4310(7)
_cell_angle_gamma                105.4191(7)
_cell_volume                     1460.99
_exptl_crystal_colour            purple
_exptl_crystal_description       block
_cell_formula_units_Z            2
loop_
_atom_site_label
_atom_site_type_symbol
_atom_site_fract_x
_atom_site_fract_y
_atom_site_fract_z
O1 O 0.18111(16) 0.95029(16) 0.57553(11)
O2 O 0.73346(18) 0.62574(17) -0.04558(11)
N1 N 0.3875(2) 0.6047(2) 0.38279(16)
N2 N 0.41342(18) 0.92183(19) 0.35977(12)
N3 N 0.1757(2) 1.4025(2) 0.59306(15)
N4 N 0.5836(2) 0.9976(2) 0.17789(19)
N5 N 0.56460(19) 0.6814(2) 0.20139(13)
N6 N 0.7579(2) 0.1813(2) -0.05683(16)
C1 C 0.4216(2) 0.6936(2) 0.35450(16)
C2 C 0.4558(2) 0.8079(2) 0.32072(15)
C3 C 0.3426(2) 0.9318(2) 0.43038(14)
C4 C 0.2942(2) 1.0482(2) 0.46884(15)
C5 C 0.3267(2) 1.1582(2) 0.43463(16)
C6 C 0.2884(2) 1.2739(2) 0.47269(16)
C7 C 0.2116(2) 1.2864(2) 0.55107(16)
C8 C 0.1737(2) 1.1746(2) 0.58390(16)
C9 C 0.2140(2) 1.0594(2) 0.54468(15)
C10 C 0.0926(2) 0.9509(2) 0.64695(16)
C11 C 0.0682(3) 0.8173(2) 0.6636(2)
C12 C 0.2135(2) 1.5200(2) 0.5616(2)
C13 C 0.3505(3) 1.6229(3) 0.6157(2)
C14 C 0.1092(2) 1.4221(2) 0.68023(18)
C15 C -0.0423(3) 1.3663(3) 0.6559(2)
C16 C 0.5565(2) 0.9104(2) 0.20842(17)
C17 C 0.5263(2) 0.7977(2) 0.24329(15)
C18 C 0.6188(2) 0.6647(2) 0.12249(15)
C19 C 0.6567(2) 0.5431(2) 0.07763(15)
C20 C 0.6335(2) 0.4369(2) 0.11511(16)
C21 C 0.6667(2) 0.3181(2) 0.07381(17)
C22 C 0.7281(2) 0.2997(2) -0.01138(17)
C23 C 0.7528(2) 0.4064(2) -0.04999(16)
C24 C 0.7158(2) 0.5232(2) -0.00784(16)
C25 C 0.7686(3) 0.6012(2) -0.13994(19)
C26 C 0.7543(4) 0.7127(3) -0.1738(2)
C27 C 0.8170(3) 0.1575(3) -0.1470(2)
C28 C 0.9675(3) 0.2163(4) -0.1293(3)
C29 C 0.7278(3) 0.0678(3) -0.0194(2)
C30 C 0.8408(4) 0.0785(5) 0.0536(3)
H1 H 0.3224 0.8604 0.4568
H2 H 0.3770 1.1513 0.3820
H3 H 0.3139 1.3467 0.4479
H4 H 0.1189 1.1789 0.6341
H5 H 0.1350 1.0246 0.7055
H6 H 0.0075 0.9600 0.6244
H7 H -0.0103 0.7515 0.6201
H8 H 0.0531 0.8283 0.7283
H9 H 0.1471 0.7867 0.6524
H10 H 0.2200 1.4891 0.4946
H11 H 0.1449 1.5657 0.5718
H12 H 0.3359 1.6880 0.6718
H13 H 0.3955 1.6690 0.5757
H14 H 0.4063 1.5744 0.6344
H15 H 0.1414 1.3765 0.7184
H16 H 0.1328 1.5172 0.7165
H17 H -0.0798 1.4352 0.6489
H18 H -0.0805 1.3350 0.7048
H19 H -0.0641 1.2918 0.5963
H20 H 0.6339 0.7344 0.0944
H21 H 0.5935 0.4480 0.1726
H22 H 0.6499 0.2485 0.1020
H23 H 0.7959 0.3974 -0.1061
H24 H 0.8615 0.5995 -0.1394
H25 H 0.7087 0.5158 -0.1824
H26 H 0.6622 0.6886 -0.2053
H27 H 0.8166 0.7283 -0.2173
H28 H 0.7724 0.7937 -0.1189
H29 H 0.7942 0.0619 -0.1815
H30 H 0.7790 0.1997 -0.1850
H31 H 0.9912 0.3089 -0.1266
H32 H 1.0084 0.1659 -0.1785
H33 H 1.0005 0.2131 -0.0686
H34 H 0.6471 0.0665 0.0101
H35 H 0.7120 -0.0161 -0.0715
H36 H 0.9030 0.0341 0.0220
H37 H 0.8059 0.0382 0.0994
H38 H 0.8878 0.1731 0.0860
loop_
_geom_bond_atom_site_label_1
_geom_bond_atom_site_label_2
_geom_bond_site_symmetry_1
_geom_bond_site_symmetry_2
O1 C9 1_555 1_555
O2 C24 1_555 1_555
N1 C1 1_555 1_555
N2 C2 1_555 1_555
N3 C7 1_555 1_555
N4 C16 1_555 1_555
N5 C17 1_555 1_555
N6 C22 1_555 1_555
C1 C2 1_555 1_555
C2 C17 1_555 1_555
C3 N2 1_555 1_555
C4 C3 1_555 1_555
C5 C4 1_555 1_555
C6 C5 1_555 1_555
C7 C6 1_555 1_555
C8 C7 1_555 1_555
C9 C4 1_555 1_555
C10 O1 1_555 1_555
C11 C10 1_555 1_555
C12 N3 1_555 1_555
C13 C12 1_555 1_555
C14 N3 1_555 1_555
C15 C14 1_555 1_555
C16 C17 1_555 1_555
C18 N5 1_555 1_555
C19 C18 1_555 1_555
C20 C19 1_555 1_555
C21 C20 1_555 1_555
C22 C21 1_555 1_555
C23 C22 1_555 1_555
C24 C19 1_555 1_555
C25 O2 1_555 1_555
C26 C25 1_555 1_555
C27 N6 1_555 1_555
C28 C27 1_555 1_555
C29 N6 1_555 1_555
C30 C29 1_555 1_555
H1 C3 1_555 1_555
H2 C5 1_555 1_555
H3 C6 1_555 1_555
H4 C8 1_555 1_555
H5 C10 1_555 1_555
H6 C10 1_555 1_555
H7 C11 1_555 1_555
H8 C11 1_555 1_555
H9 C11 1_555 1_555
H10 C12 1_555 1_555
H11 C12 1_555 1_555
H12 C13 1_555 1_555
H13 C13 1_555 1_555
H14 C13 1_555 1_555
H15 C14 1_555 1_555
H16 C14 1_555 1_555
H17 C15 1_555 1_555
H18 C15 1_555 1_555
H19 C15 1_555 1_555
H20 C18 1_555 1_555
H21 C20 1_555 1_555
H22 C21 1_555 1_555
H23 C23 1_555 1_555
H24 C25 1_555 1_555
H25 C25 1_555 1_555
H26 C26 1_555 1_555
H27 C26 1_555 1_555
H28 C26 1_555 1_555
H29 C27 1_555 1_555
H30 C27 1_555 1_555
H31 C28 1_555 1_555
H32 C28 1_555 1_555
H33 C28 1_555 1_555
H34 C29 1_555 1_555
H35 C29 1_555 1_555
H36 C30 1_555 1_555
H37 C30 1_555 1_555
H38 C30 1_555 1_555
C8 C9 1_555 1_555
C23 C24 1_555 1_555

#END
