
#######################################################################
#
#                 Cambridge Crystallographic Data Centre
#                                CCDC 
#
#######################################################################
#
# If this CIF has been generated from an entry in the Cambridge 
# Structural Database, then it will include bibliographic, chemical, 
# crystal, experimental, refinement or atomic coordinate data resulting 
# from the CCDC's data processing and validation procedures.
#
#######################################################################

data_UXIBOT
_chemical_formula_moiety         'C40 H58 N6 O2'
_chemical_name_systematic        
2,3-bis((4-(diethylamino)-2-(heptyloxy)benzylidene)amino)but-2-enedinitrile
_symmetry_cell_setting           triclinic
_symmetry_space_group_name_H-M   'P -1'
_symmetry_Int_Tables_number      2
_space_group_name_Hall           '-P 1'
loop_
_symmetry_equiv_pos_site_id
_symmetry_equiv_pos_as_xyz
1 x,y,z
2 -x,-y,-z
_cell_length_a                   8.1103(5)
_cell_length_b                   9.1024(6)
_cell_length_c                   14.0291(10)
_cell_angle_alpha                80.067(3)
_cell_angle_beta                 88.748(4)
_cell_angle_gamma                78.422(3)
_cell_volume                     999.303
_exptl_crystal_colour            purple
_cell_formula_units_Z            1
loop_
_atom_site_label
_atom_site_type_symbol
_atom_site_fract_x
_atom_site_fract_y
_atom_site_fract_z
O1 O 0.0313(4) 0.2880(3) 0.4196(3)
N1 N -0.4100(6) 0.1126(5) 0.2960(4)
N2 N -0.3276(4) 0.0746(4) 0.5419(3)
N3 N 0.2838(5) 0.2944(4) 0.7254(4)
C1 C -0.4274(6) 0.0749(5) 0.3761(5)
C2 C -0.4373(5) 0.0357(4) 0.4818(4)
C3 C -0.2052(5) 0.1397(4) 0.5056(3)
C4 C -0.0866(5) 0.1849(4) 0.5611(4)
C5 C -0.0877(5) 0.1578(5) 0.6628(4)
C6 C 0.0307(6) 0.1941(5) 0.7168(3)
C7 C 0.1607(6) 0.2603(5) 0.6734(4)
C8 C 0.1612(5) 0.2948(5) 0.5712(4)
C9 C 0.0405(5) 0.2573(4) 0.5183(4)
C10 C 0.1566(5) 0.3594(5) 0.3675(4)
C11 C 0.1187(7) 0.3762(6) 0.2606(4)
C12 C 0.1171(9) 0.2382(7) 0.2272(5)
C13 C 0.0734(12) 0.2463(9) 0.1197(6)
C14 C -0.1014(12) 0.2788(11) 0.0949(7)
C15 C -0.1496(14) 0.2714(12) -0.0031(8)
C16 C -0.3159(13) 0.3289(12) -0.0235(8)
C17 C 0.2823(6) 0.2723(6) 0.8314(4)
C18 C 0.3707(7) 0.1160(7) 0.8792(4)
C19 C 0.4358(6) 0.3398(6) 0.6803(4)
C20 C 0.4122(6) 0.5077(6) 0.6505(4)
H1 H -0.1954 0.1577 0.4386
H2 H -0.1723 0.1134 0.6943
H3 H 0.0248 0.1746 0.7840
H4 H 0.2433 0.3428 0.5399
H5 H 0.2678 0.2975 0.3829
H6 H 0.1534 0.4585 0.3850
H7 H 0.0098 0.4431 0.2464
H8 H 0.2021 0.4252 0.2245
H9 H 0.0373 0.1879 0.2659
H10 H 0.2275 0.1733 0.2403
H11 H 0.1252 0.3238 0.0815
H12 H 0.1241 0.1497 0.1011
H13 H -0.1485 0.3803 0.1073
H14 H -0.1548 0.2086 0.1389
H15 H -0.0829 0.3276 -0.0484
H16 H -0.1236 0.1661 -0.0124
H17 H -0.3402 0.4359 -0.0213
H18 H -0.3829 0.2780 0.0233
H19 H -0.3419 0.3133 -0.0870
H20 H 0.1664 0.2897 0.8526
H21 H 0.3358 0.3476 0.8526
H22 H 0.4862 0.0984 0.8595
H23 H 0.3164 0.0408 0.8602
H24 H 0.3660 0.1090 0.9482
H25 H 0.4636 0.2914 0.6240
H26 H 0.5295 0.3047 0.7259
H27 H 0.3907 0.5557 0.7065
H28 H 0.3184 0.5431 0.6062
H29 H 0.5121 0.5326 0.6194
O1A O -1.0313(4) -0.2880(3) 0.5804(3)
N1A N -0.5900(6) -0.1126(5) 0.7040(4)
N2A N -0.6724(4) -0.0746(4) 0.4581(3)
N3A N -1.2838(5) -0.2944(4) 0.2746(4)
C1A C -0.5726(6) -0.0749(5) 0.6239(5)
C2A C -0.5627(5) -0.0357(4) 0.5182(4)
C3A C -0.7948(5) -0.1397(4) 0.4944(3)
C4A C -0.9134(5) -0.1849(4) 0.4389(4)
C5A C -0.9123(5) -0.1578(5) 0.3372(4)
C6A C -1.0307(6) -0.1941(5) 0.2832(3)
C7A C -1.1607(6) -0.2603(5) 0.3266(4)
C8A C -1.1612(5) -0.2948(5) 0.4288(4)
C9A C -1.0405(5) -0.2573(4) 0.4817(4)
C10A C -1.1566(5) -0.3594(5) 0.6325(4)
C11A C -1.1187(7) -0.3762(6) 0.7394(4)
C12A C -1.1171(9) -0.2382(7) 0.7728(5)
C13A C -1.0734(12) -0.2463(9) 0.8803(6)
C14A C -0.8986(12) -0.2788(11) 0.9051(7)
C15A C -0.8504(14) -0.2714(12) 1.0031(8)
C16A C -0.6841(13) -0.3289(12) 1.0235(8)
C17A C -1.2823(6) -0.2723(6) 0.1686(4)
C18A C -1.3707(7) -0.1160(7) 0.1208(4)
C19A C -1.4358(6) -0.3398(6) 0.3197(4)
C20A C -1.4122(6) -0.5077(6) 0.3495(4)
H1A H -0.8046 -0.1577 0.5614
H2A H -0.8277 -0.1134 0.3057
H3A H -1.0248 -0.1746 0.2160
H4A H -1.2433 -0.3428 0.4601
H5A H -1.2678 -0.2975 0.6171
H6A H -1.1534 -0.4585 0.6150
H7A H -1.0098 -0.4431 0.7536
H8A H -1.2021 -0.4252 0.7755
H9A H -1.0373 -0.1879 0.7341
H10A H -1.2275 -0.1733 0.7597
H11A H -1.1252 -0.3238 0.9185
H12A H -1.1241 -0.1497 0.8989
H13A H -0.8515 -0.3803 0.8927
H14A H -0.8452 -0.2086 0.8611
H15A H -0.9171 -0.3276 1.0484
H16A H -0.8764 -0.1661 1.0124
H17A H -0.6598 -0.4359 1.0213
H18A H -0.6171 -0.2780 0.9767
H19A H -0.6581 -0.3133 1.0870
H20A H -1.1664 -0.2897 0.1474
H21A H -1.3358 -0.3476 0.1474
H22A H -1.4862 -0.0984 0.1405
H23A H -1.3164 -0.0408 0.1398
H24A H -1.3660 -0.1090 0.0518
H25A H -1.4636 -0.2914 0.3760
H26A H -1.5295 -0.3047 0.2741
H27A H -1.3907 -0.5557 0.2935
H28A H -1.3184 -0.5431 0.3938
H29A H -1.5121 -0.5326 0.3806
loop_
_geom_bond_atom_site_label_1
_geom_bond_atom_site_label_2
_geom_bond_site_symmetry_1
_geom_bond_site_symmetry_2
O1 C9 1_555 1_555
N1 C1 1_555 1_555
N2 C2 1_555 1_555
N3 C7 1_555 1_555
C1 C2 1_555 1_555
C2 C2A 1_555 1_555
C3 N2 1_555 1_555
C4 C3 1_555 1_555
C5 C4 1_555 1_555
C6 C5 1_555 1_555
C7 C6 1_555 1_555
C8 C7 1_555 1_555
C9 C4 1_555 1_555
C10 O1 1_555 1_555
C11 C10 1_555 1_555
C12 C11 1_555 1_555
C13 C12 1_555 1_555
C14 C13 1_555 1_555
C15 C14 1_555 1_555
C16 C15 1_555 1_555
C17 N3 1_555 1_555
C18 C17 1_555 1_555
C19 N3 1_555 1_555
C20 C19 1_555 1_555
H1 C3 1_555 1_555
H2 C5 1_555 1_555
H3 C6 1_555 1_555
H4 C8 1_555 1_555
H5 C10 1_555 1_555
H6 C10 1_555 1_555
H7 C11 1_555 1_555
H8 C11 1_555 1_555
H9 C12 1_555 1_555
H10 C12 1_555 1_555
H11 C13 1_555 1_555
H12 C13 1_555 1_555
H13 C14 1_555 1_555
H14 C14 1_555 1_555
H15 C15 1_555 1_555
H16 C15 1_555 1_555
H17 C16 1_555 1_555
H18 C16 1_555 1_555
H19 C16 1_555 1_555
H20 C17 1_555 1_555
H21 C17 1_555 1_555
H22 C18 1_555 1_555
H23 C18 1_555 1_555
H24 C18 1_555 1_555
H25 C19 1_555 1_555
H26 C19 1_555 1_555
H27 C20 1_555 1_555
H28 C20 1_555 1_555
H29 C20 1_555 1_555
O1A C9A 1_555 1_555
N1A C1A 1_555 1_555
N2A C2A 1_555 1_555
N3A C7A 1_555 1_555
C1A C2A 1_555 1_555
C3A N2A 1_555 1_555
C4A C3A 1_555 1_555
C5A C4A 1_555 1_555
C6A C5A 1_555 1_555
C7A C6A 1_555 1_555
C8A C7A 1_555 1_555
C9A C4A 1_555 1_555
C10A O1A 1_555 1_555
C11A C10A 1_555 1_555
C12A C11A 1_555 1_555
C13A C12A 1_555 1_555
C14A C13A 1_555 1_555
C15A C14A 1_555 1_555
C16A C15A 1_555 1_555
C17A N3A 1_555 1_555
C18A C17A 1_555 1_555
C19A N3A 1_555 1_555
C20A C19A 1_555 1_555
H1A C3A 1_555 1_555
H2A C5A 1_555 1_555
H3A C6A 1_555 1_555
H4A C8A 1_555 1_555
H5A C10A 1_555 1_555
H6A C10A 1_555 1_555
H7A C11A 1_555 1_555
H8A C11A 1_555 1_555
H9A C12A 1_555 1_555
H10A C12A 1_555 1_555
H11A C13A 1_555 1_555
H12A C13A 1_555 1_555
H13A C14A 1_555 1_555
H14A C14A 1_555 1_555
H15A C15A 1_555 1_555
H16A C15A 1_555 1_555
H17A C16A 1_555 1_555
H18A C16A 1_555 1_555
H19A C16A 1_555 1_555
H20A C17A 1_555 1_555
H21A C17A 1_555 1_555
H22A C18A 1_555 1_555
H23A C18A 1_555 1_555
H24A C18A 1_555 1_555
H25A C19A 1_555 1_555
H26A C19A 1_555 1_555
H27A C20A 1_555 1_555
H28A C20A 1_555 1_555
H29A C20A 1_555 1_555
C8 C9 1_555 1_555
C8A C9A 1_555 1_555

#END
