
#######################################################################
#
#                 Cambridge Crystallographic Data Centre
#                                CCDC 
#
#######################################################################
#
# If this CIF has been generated from an entry in the Cambridge 
# Structural Database, then it will include bibliographic, chemical, 
# crystal, experimental, refinement or atomic coordinate data resulting 
# from the CCDC's data processing and validation procedures.
#
#######################################################################

data_UXIBEJ
_chemical_formula_moiety         'C32 H42 N6 O2'
_chemical_name_systematic        
2,3-bis((4-(diethylamino)-2-propoxybenzylidene)amino)but-2-enedinitrile
_symmetry_cell_setting           triclinic
_symmetry_space_group_name_H-M   'P -1'
_symmetry_Int_Tables_number      2
_space_group_name_Hall           '-P 1'
loop_
_symmetry_equiv_pos_site_id
_symmetry_equiv_pos_as_xyz
1 x,y,z
2 -x,-y,-z
_cell_length_a                   8.2371(4)
_cell_length_b                   8.8466(4)
_cell_length_c                   11.2530(5)
_cell_angle_alpha                89.726(3)
_cell_angle_beta                 70.2419(19)
_cell_angle_gamma                83.791(3)
_cell_volume                     766.765
_exptl_crystal_colour            purple
_exptl_crystal_description       block
_cell_formula_units_Z            1
loop_
_atom_site_label
_atom_site_type_symbol
_atom_site_fract_x
_atom_site_fract_y
_atom_site_fract_z
O1 O 0.8417(4) 0.5122(4) -0.1259(3)
N1 N 0.7179(8) 0.0429(6) -0.2683(6)
N2 N 0.5455(6) 0.1860(5) 0.0422(4)
N3 N 0.7254(6) 0.7821(5) 0.2715(4)
C1 C 0.6367(9) 0.0439(6) -0.1633(8)
C2 C 0.5438(7) 0.0597(6) -0.0289(6)
C3 C 0.6366(7) 0.2960(6) -0.0121(5)
C4 C 0.6517(6) 0.4221(5) 0.0600(5)
C5 C 0.5601(7) 0.4428(6) 0.1881(5)
C6 C 0.5776(7) 0.5625(6) 0.2578(5)
C7 C 0.6954(7) 0.6682(6) 0.2028(5)
C8 C 0.7855(6) 0.6492(5) 0.0726(5)
C9 C 0.7619(7) 0.5321(6) 0.0019(5)
C10 C 0.9405(7) 0.6298(6) -0.1948(5)
C11 C 0.9933(8) 0.5863(6) -0.3327(5)
C12 C 1.1073(8) 0.6999(7) -0.4138(5)
C13 C 0.6068(8) 0.8265(6) 0.3981(5)
C14 C 0.6552(9) 0.7532(7) 0.5034(6)
C15 C 0.8793(8) 0.8671(7) 0.2235(6)
C16 C 0.8399(9) 1.0094(7) 0.1632(6)
H1 H 0.6923 0.2914 -0.0992
H2 H 0.4842 0.3731 0.2281
H3 H 0.5104 0.5743 0.3429
H4 H 0.8635 0.7175 0.0328
H5 H 1.0422 0.6364 -0.1709
H6 H 0.8701 0.7277 -0.1768
H7 H 0.8905 0.5838 -0.3560
H8 H 1.0568 0.4853 -0.3483
H9 H 1.2097 0.7015 -0.3913
H10 H 1.0437 0.7995 -0.3995
H11 H 1.1401 0.6700 -0.5014
H12 H 0.4921 0.8021 0.4048
H13 H 0.5996 0.9360 0.4091
H14 H 0.7755 0.7131 0.4726
H15 H 0.5853 0.6721 0.5350
H16 H 0.6358 0.8275 0.5701
H17 H 0.9174 0.8918 0.2930
H18 H 0.9733 0.8032 0.1624
H19 H 0.7393 1.0680 0.2206
H20 H 0.8179 0.9846 0.0875
H21 H 0.9371 1.0675 0.1426
O1A O 0.1583(4) -0.5122(4) 0.1259(3)
N1A N 0.2821(8) -0.0429(6) 0.2683(6)
N2A N 0.4545(6) -0.1860(5) -0.0422(4)
N3A N 0.2746(6) -0.7821(5) -0.2715(4)
C1A C 0.3633(9) -0.0439(6) 0.1633(8)
C2A C 0.4562(7) -0.0597(6) 0.0289(6)
C3A C 0.3634(7) -0.2960(6) 0.0121(5)
C4A C 0.3483(6) -0.4221(5) -0.0600(5)
C5A C 0.4399(7) -0.4428(6) -0.1881(5)
C6A C 0.4224(7) -0.5625(6) -0.2578(5)
C7A C 0.3046(7) -0.6682(6) -0.2028(5)
C8A C 0.2145(6) -0.6492(5) -0.0726(5)
C9A C 0.2381(7) -0.5321(6) -0.0019(5)
C10A C 0.0595(7) -0.6298(6) 0.1948(5)
C11A C 0.0067(8) -0.5863(6) 0.3327(5)
C12A C -0.1073(8) -0.6999(7) 0.4138(5)
C13A C 0.3932(8) -0.8265(6) -0.3981(5)
C14A C 0.3448(9) -0.7532(7) -0.5034(6)
C15A C 0.1207(8) -0.8671(7) -0.2235(6)
C16A C 0.1601(9) -1.0094(7) -0.1632(6)
H1A H 0.3077 -0.2914 0.0992
H2A H 0.5158 -0.3731 -0.2281
H3A H 0.4896 -0.5743 -0.3429
H4A H 0.1365 -0.7175 -0.0328
H5A H -0.0422 -0.6364 0.1709
H6A H 0.1299 -0.7277 0.1768
H7A H 0.1095 -0.5838 0.3560
H8A H -0.0568 -0.4853 0.3483
H9A H -0.2097 -0.7015 0.3913
H10A H -0.0437 -0.7995 0.3995
H11A H -0.1401 -0.6700 0.5014
H12A H 0.5079 -0.8021 -0.4048
H13A H 0.4004 -0.9360 -0.4091
H14A H 0.2245 -0.7131 -0.4726
H15A H 0.4147 -0.6721 -0.5350
H16A H 0.3642 -0.8275 -0.5701
H17A H 0.0826 -0.8918 -0.2930
H18A H 0.0267 -0.8032 -0.1624
H19A H 0.2607 -1.0680 -0.2206
H20A H 0.1821 -0.9846 -0.0875
H21A H 0.0629 -1.0675 -0.1426
loop_
_geom_bond_atom_site_label_1
_geom_bond_atom_site_label_2
_geom_bond_site_symmetry_1
_geom_bond_site_symmetry_2
O1 C9 1_555 1_555
N1 C1 1_555 1_555
N2 C2 1_555 1_555
N3 C7 1_555 1_555
C1 C2 1_555 1_555
C2 C2A 1_555 1_555
C3 N2 1_555 1_555
C4 C3 1_555 1_555
C5 C4 1_555 1_555
C6 C5 1_555 1_555
C7 C6 1_555 1_555
C8 C7 1_555 1_555
C9 C4 1_555 1_555
C10 O1 1_555 1_555
C11 C10 1_555 1_555
C12 C11 1_555 1_555
C13 N3 1_555 1_555
C14 C13 1_555 1_555
C15 N3 1_555 1_555
C16 C15 1_555 1_555
H1 C3 1_555 1_555
H2 C5 1_555 1_555
H3 C6 1_555 1_555
H4 C8 1_555 1_555
H5 C10 1_555 1_555
H6 C10 1_555 1_555
H7 C11 1_555 1_555
H8 C11 1_555 1_555
H9 C12 1_555 1_555
H10 C12 1_555 1_555
H11 C12 1_555 1_555
H12 C13 1_555 1_555
H13 C13 1_555 1_555
H14 C14 1_555 1_555
H15 C14 1_555 1_555
H16 C14 1_555 1_555
H17 C15 1_555 1_555
H18 C15 1_555 1_555
H19 C16 1_555 1_555
H20 C16 1_555 1_555
H21 C16 1_555 1_555
O1A C9A 1_555 1_555
N1A C1A 1_555 1_555
N2A C2A 1_555 1_555
N3A C7A 1_555 1_555
C1A C2A 1_555 1_555
C3A N2A 1_555 1_555
C4A C3A 1_555 1_555
C5A C4A 1_555 1_555
C6A C5A 1_555 1_555
C7A C6A 1_555 1_555
C8A C7A 1_555 1_555
C9A C4A 1_555 1_555
C10A O1A 1_555 1_555
C11A C10A 1_555 1_555
C12A C11A 1_555 1_555
C13A N3A 1_555 1_555
C14A C13A 1_555 1_555
C15A N3A 1_555 1_555
C16A C15A 1_555 1_555
H1A C3A 1_555 1_555
H2A C5A 1_555 1_555
H3A C6A 1_555 1_555
H4A C8A 1_555 1_555
H5A C10A 1_555 1_555
H6A C10A 1_555 1_555
H7A C11A 1_555 1_555
H8A C11A 1_555 1_555
H9A C12A 1_555 1_555
H10A C12A 1_555 1_555
H11A C12A 1_555 1_555
H12A C13A 1_555 1_555
H13A C13A 1_555 1_555
H14A C14A 1_555 1_555
H15A C14A 1_555 1_555
H16A C14A 1_555 1_555
H17A C15A 1_555 1_555
H18A C15A 1_555 1_555
H19A C16A 1_555 1_555
H20A C16A 1_555 1_555
H21A C16A 1_555 1_555
C8 C9 1_555 1_555
C8A C9A 1_555 1_555

#END
