
#######################################################################
#
#                 Cambridge Crystallographic Data Centre
#                                CCDC 
#
#######################################################################
#
# If this CIF has been generated from an entry in the Cambridge 
# Structural Database, then it will include bibliographic, chemical, 
# crystal, experimental, refinement or atomic coordinate data resulting 
# from the CCDC's data processing and validation procedures.
#
#######################################################################

data_UXIBUZ
_chemical_formula_moiety         'C42 H62 N6 O2'
_chemical_name_systematic        
2,3-bis((4-(diethylamino)-2-(octyloxy)benzylidene)amino)but-2-enedinitrile
_symmetry_cell_setting           triclinic
_symmetry_space_group_name_H-M   'P -1'
_symmetry_Int_Tables_number      2
_space_group_name_Hall           '-P 1'
loop_
_symmetry_equiv_pos_site_id
_symmetry_equiv_pos_as_xyz
1 x,y,z
2 -x,-y,-z
_cell_length_a                   8.0410(9)
_cell_length_b                   9.1576(11)
_cell_length_c                   14.7496(18)
_cell_angle_alpha                80.917(6)
_cell_angle_beta                 83.981(6)
_cell_angle_gamma                78.266(5)
_cell_volume                     1047.1
_exptl_crystal_colour            red
_cell_formula_units_Z            1
loop_
_atom_site_label
_atom_site_type_symbol
_atom_site_fract_x
_atom_site_fract_y
_atom_site_fract_z
O1 O 0.0439(4) 0.2874(4) 0.4231(3)
N1 N -0.3800(6) 0.1054(6) 0.3068(4)
N2 N -0.3324(5) 0.0760(4) 0.5397(3)
N3 N 0.2549(6) 0.3024(5) 0.7145(4)
C1 C -0.4060(6) 0.0669(6) 0.3829(5)
C2 C -0.4338(5) 0.0348(5) 0.4821(4)
C3 C -0.2059(6) 0.1403(5) 0.5039(4)
C4 C -0.0947(6) 0.1874(5) 0.5573(4)
C5 C -0.1081(6) 0.1633(5) 0.6524(4)
C6 C 0.0008(6) 0.2005(5) 0.7071(4)
C7 C 0.1379(6) 0.2683(5) 0.6642(4)
C8 C 0.1524(6) 0.2981(5) 0.5678(4)
C9 C 0.0389(6) 0.2594(5) 0.5162(4)
C10 C 0.1772(6) 0.3562(5) 0.3731(4)
C11 C 0.1520(7) 0.3704(7) 0.2727(4)
C12 C 0.1689(8) 0.2221(7) 0.2393(5)
C13 C 0.1388(13) 0.2290(10) 0.1387(6)
C14 C -0.0407(18) 0.2738(12) 0.1224(7)
C15 C -0.1072(15) 0.2567(12) 0.0433(10)
C16 C -0.282(2) 0.3151(13) 0.0288(8)
C17 C -0.3378(16) 0.2954(14) -0.0494(10)
C18 C 0.2390(7) 0.2838(7) 0.8144(5)
C19 C 0.3201(9) 0.1303(8) 0.8585(5)
C20 C 0.4130(7) 0.3498(7) 0.6701(4)
C21 C 0.3893(8) 0.5142(7) 0.6433(4)
H1 H -0.1873 0.1562 0.4401
H2 H -0.1972 0.1186 0.6816
H3 H -0.0152 0.1815 0.7709
H4 H 0.2399 0.3446 0.5383
H5 H 0.2874 0.2946 0.3863
H6 H 0.1723 0.4548 0.3906
H7 H 0.0396 0.4293 0.2613
H8 H 0.2350 0.4246 0.2377
H9 H 0.0890 0.1669 0.2764
H10 H 0.2826 0.1651 0.2495
H11 H 0.2012 0.3004 0.1016
H12 H 0.1823 0.1308 0.1197
H13 H -0.1018 0.2210 0.1732
H14 H -0.0722 0.3800 0.1286
H15 H -0.0873 0.1495 0.0399
H16 H -0.0404 0.3014 -0.0083
H17 H -0.3499 0.2698 0.0795
H18 H -0.3031 0.4224 0.0319
H19 H -0.3148 0.1900 -0.0549
H20 H -0.2806 0.3488 -0.1006
H21 H -0.4582 0.3333 -0.0491
H22 H 0.1191 0.3029 0.8352
H23 H 0.2909 0.3585 0.8349
H24 H 0.4398 0.1121 0.8403
H25 H 0.2688 0.0556 0.8391
H26 H 0.3035 0.1250 0.9243
H27 H 0.5023 0.3177 0.7124
H28 H 0.4492 0.3005 0.6159
H29 H 0.3147 0.5443 0.5942
H30 H 0.4975 0.5417 0.6230
H31 H 0.3402 0.5637 0.6952
O1A O -1.0439(4) -0.2874(4) 0.5769(3)
N1A N -0.6200(6) -0.1054(6) 0.6932(4)
N2A N -0.6676(5) -0.0760(4) 0.4603(3)
N3A N -1.2549(6) -0.3024(5) 0.2855(4)
C1A C -0.5940(6) -0.0669(6) 0.6171(5)
C2A C -0.5662(5) -0.0348(5) 0.5179(4)
C3A C -0.7941(6) -0.1403(5) 0.4961(4)
C4A C -0.9053(6) -0.1874(5) 0.4427(4)
C5A C -0.8919(6) -0.1633(5) 0.3476(4)
C6A C -1.0008(6) -0.2005(5) 0.2929(4)
C7A C -1.1379(6) -0.2683(5) 0.3358(4)
C8A C -1.1524(6) -0.2981(5) 0.4322(4)
C9A C -1.0389(6) -0.2594(5) 0.4838(4)
C10A C -1.1772(6) -0.3562(5) 0.6269(4)
C11A C -1.1520(7) -0.3704(7) 0.7273(4)
C12A C -1.1689(8) -0.2221(7) 0.7607(5)
C13A C -1.1388(13) -0.2290(10) 0.8613(6)
C14A C -0.9593(18) -0.2738(12) 0.8776(7)
C15A C -0.8928(15) -0.2567(12) 0.9567(10)
C16A C -0.718(2) -0.3151(13) 0.9712(8)
C17A C -0.6622(16) -0.2954(14) 1.0494(10)
C18A C -1.2390(7) -0.2838(7) 0.1856(5)
C19A C -1.3201(9) -0.1303(8) 0.1415(5)
C20A C -1.4130(7) -0.3498(7) 0.3299(4)
C21A C -1.3893(8) -0.5142(7) 0.3567(4)
H1A H -0.8127 -0.1562 0.5599
H2A H -0.8028 -0.1186 0.3184
H3A H -0.9848 -0.1815 0.2291
H4A H -1.2399 -0.3446 0.4617
H5A H -1.2874 -0.2946 0.6137
H6A H -1.1723 -0.4548 0.6094
H7A H -1.0396 -0.4293 0.7387
H8A H -1.2350 -0.4246 0.7623
H9A H -1.0890 -0.1669 0.7236
H10A H -1.2826 -0.1651 0.7505
H11A H -1.2012 -0.3004 0.8984
H12A H -1.1823 -0.1308 0.8803
H13A H -0.8982 -0.2210 0.8268
H14A H -0.9278 -0.3800 0.8714
H15A H -0.9127 -0.1495 0.9601
H16A H -0.9596 -0.3014 1.0083
H17A H -0.6501 -0.2698 0.9205
H18A H -0.6969 -0.4224 0.9681
H19A H -0.6852 -0.1900 1.0549
H20A H -0.7194 -0.3488 1.1006
H21A H -0.5418 -0.3333 1.0491
H22A H -1.1191 -0.3029 0.1648
H23A H -1.2909 -0.3585 0.1651
H24A H -1.4398 -0.1121 0.1597
H25A H -1.2688 -0.0556 0.1609
H26A H -1.3035 -0.1250 0.0757
H27A H -1.5023 -0.3177 0.2876
H28A H -1.4492 -0.3005 0.3841
H29A H -1.3147 -0.5443 0.4058
H30A H -1.4975 -0.5417 0.3770
H31A H -1.3402 -0.5637 0.3048
loop_
_geom_bond_atom_site_label_1
_geom_bond_atom_site_label_2
_geom_bond_site_symmetry_1
_geom_bond_site_symmetry_2
O1 C9 1_555 1_555
N1 C1 1_555 1_555
N2 C2 1_555 1_555
N3 C7 1_555 1_555
C1 C2 1_555 1_555
C2 C2A 1_555 1_555
C3 N2 1_555 1_555
C4 C3 1_555 1_555
C5 C4 1_555 1_555
C6 C5 1_555 1_555
C7 C6 1_555 1_555
C8 C7 1_555 1_555
C9 C4 1_555 1_555
C10 O1 1_555 1_555
C11 C10 1_555 1_555
C12 C11 1_555 1_555
C13 C12 1_555 1_555
C14 C13 1_555 1_555
C15 C14 1_555 1_555
C16 C15 1_555 1_555
C17 C16 1_555 1_555
C18 N3 1_555 1_555
C19 C18 1_555 1_555
C20 N3 1_555 1_555
C21 C20 1_555 1_555
H1 C3 1_555 1_555
H2 C5 1_555 1_555
H3 C6 1_555 1_555
H4 C8 1_555 1_555
H5 C10 1_555 1_555
H6 C10 1_555 1_555
H7 C11 1_555 1_555
H8 C11 1_555 1_555
H9 C12 1_555 1_555
H10 C12 1_555 1_555
H11 C13 1_555 1_555
H12 C13 1_555 1_555
H13 C14 1_555 1_555
H14 C14 1_555 1_555
H15 C15 1_555 1_555
H16 C15 1_555 1_555
H17 C16 1_555 1_555
H18 C16 1_555 1_555
H19 C17 1_555 1_555
H20 C17 1_555 1_555
H21 C17 1_555 1_555
H22 C18 1_555 1_555
H23 C18 1_555 1_555
H24 C19 1_555 1_555
H25 C19 1_555 1_555
H26 C19 1_555 1_555
H27 C20 1_555 1_555
H28 C20 1_555 1_555
H29 C21 1_555 1_555
H30 C21 1_555 1_555
H31 C21 1_555 1_555
O1A C9A 1_555 1_555
N1A C1A 1_555 1_555
N2A C2A 1_555 1_555
N3A C7A 1_555 1_555
C1A C2A 1_555 1_555
C3A N2A 1_555 1_555
C4A C3A 1_555 1_555
C5A C4A 1_555 1_555
C6A C5A 1_555 1_555
C7A C6A 1_555 1_555
C8A C7A 1_555 1_555
C9A C4A 1_555 1_555
C10A O1A 1_555 1_555
C11A C10A 1_555 1_555
C12A C11A 1_555 1_555
C13A C12A 1_555 1_555
C14A C13A 1_555 1_555
C15A C14A 1_555 1_555
C16A C15A 1_555 1_555
C17A C16A 1_555 1_555
C18A N3A 1_555 1_555
C19A C18A 1_555 1_555
C20A N3A 1_555 1_555
C21A C20A 1_555 1_555
H1A C3A 1_555 1_555
H2A C5A 1_555 1_555
H3A C6A 1_555 1_555
H4A C8A 1_555 1_555
H5A C10A 1_555 1_555
H6A C10A 1_555 1_555
H7A C11A 1_555 1_555
H8A C11A 1_555 1_555
H9A C12A 1_555 1_555
H10A C12A 1_555 1_555
H11A C13A 1_555 1_555
H12A C13A 1_555 1_555
H13A C14A 1_555 1_555
H14A C14A 1_555 1_555
H15A C15A 1_555 1_555
H16A C15A 1_555 1_555
H17A C16A 1_555 1_555
H18A C16A 1_555 1_555
H19A C17A 1_555 1_555
H20A C17A 1_555 1_555
H21A C17A 1_555 1_555
H22A C18A 1_555 1_555
H23A C18A 1_555 1_555
H24A C19A 1_555 1_555
H25A C19A 1_555 1_555
H26A C19A 1_555 1_555
H27A C20A 1_555 1_555
H28A C20A 1_555 1_555
H29A C21A 1_555 1_555
H30A C21A 1_555 1_555
H31A C21A 1_555 1_555
C8 C9 1_555 1_555
C8A C9A 1_555 1_555

#END
