
#######################################################################
#
#                 Cambridge Crystallographic Data Centre
#                                CCDC 
#
#######################################################################
#
# If this CIF has been generated from an entry in the Cambridge 
# Structural Database, then it will include bibliographic, chemical, 
# crystal, experimental, refinement or atomic coordinate data resulting 
# from the CCDC's data processing and validation procedures.
#
#######################################################################

data_UXIMOF02
_chemical_compound_source        'roots of Salvia miltiorrhiza Bge.'
_chemical_name_common            'miltiolactone A'
_chemical_formula_moiety         'C19 H22 O4'
_chemical_name_systematic        
'2-((6,6-dimethyl-2-oxo-6,7,8,8a-tetrahydro-2H-naphtho[1,8-bc]furan-3-yl)methylene)-3-methylbutanoic acid'
_symmetry_cell_setting           triclinic
_symmetry_space_group_name_H-M   'P -1'
_symmetry_Int_Tables_number      2
_space_group_name_Hall           '-P 1'
loop_
_symmetry_equiv_pos_site_id
_symmetry_equiv_pos_as_xyz
1 x,y,z
2 -x,-y,-z
_cell_length_a                   8.424(5)
_cell_length_b                   9.093(7)
_cell_length_c                   12.323(7)
_cell_angle_alpha                71.63(2)
_cell_angle_beta                 89.35(2)
_cell_angle_gamma                74.44(3)
_cell_volume                     860.231
_exptl_crystal_colour            white
_exptl_crystal_description       prism
_chemical_melting_point          '146 deg.C'
_cell_formula_units_Z            2
loop_
_atom_site_label
_atom_site_type_symbol
_atom_site_fract_x
_atom_site_fract_y
_atom_site_fract_z
C1 C 0.22222(19) 0.3226(2) 0.41357(13)
H1 H 0.1892 0.2655 0.3661
C2 C 0.1860(3) 0.4979(2) 0.34466(17)
H2 H 0.2169 0.5579 0.3896
H3 H 0.0694 0.5436 0.3194
C3 C 0.2906(3) 0.5028(2) 0.24175(16)
H4 H 0.2636 0.6134 0.1907
H5 H 0.2582 0.4392 0.2004
C4 C 0.4817(2) 0.44044(19) 0.26902(13)
C5 C 0.5614(3) 0.3942(3) 0.16858(14)
H6 H 0.6794 0.3578 0.1842
H7 H 0.5326 0.4865 0.1002
H8 H 0.5225 0.3093 0.1579
C6 C 0.5461(4) 0.5731(2) 0.2877(2)
H9 H 0.4892 0.6082 0.3470
H10 H 0.5271 0.6626 0.2178
H11 H 0.6624 0.5319 0.3102
C7 C 0.52592(18) 0.29810(17) 0.37971(11)
C8 C 0.68591(18) 0.21619(18) 0.42972(12)
H12 H 0.7750 0.2330 0.3870
C9 C 0.71633(17) 0.11039(18) 0.54128(12)
H13 H 0.8252 0.0547 0.5694
C10 C 0.58980(16) 0.08376(16) 0.61352(11)
C11 C 0.42996(16) 0.15972(16) 0.55976(11)
C12 C 0.40217(17) 0.25512(17) 0.44612(11)
C13 C 0.26673(17) 0.17853(19) 0.60639(13)
C14 C 0.61198(16) -0.00752(17) 0.73633(11)
H14 H 0.5179 -0.0323 0.7680
C15 C 0.74533(16) -0.06058(17) 0.80970(11)
C16 C 0.91191(16) -0.04576(19) 0.77325(12)
C17 C 0.7375(2) -0.1357(2) 0.93781(13)
H15 H 0.6329 -0.1642 0.9488
C18 C 0.7336(3) -0.0131(3) 0.99805(16)
H16 H 0.8369 0.0135 0.9922
H17 H 0.7161 -0.0577 1.0774
H18 H 0.6453 0.0826 0.9626
C19 C 0.8759(3) -0.2898(3) 0.99128(19)
H19 H 0.8722 -0.3669 0.9538
H20 H 0.8621 -0.3338 1.0714
H21 H 0.9806 -0.2661 0.9824
O1 O 0.14945(13) 0.28110(15) 0.52293(9)
O2 O 0.23090(12) 0.12081(16) 0.70271(9)
O3 O 1.00921(14) -0.14788(16) 0.74525(12)
O4 O 0.93862(13) 0.08915(15) 0.77567(11)
H22 H 1.0291 0.0941 0.7522
loop_
_geom_bond_atom_site_label_1
_geom_bond_atom_site_label_2
_geom_bond_site_symmetry_1
_geom_bond_site_symmetry_2
C1 H1 1_555 1_555
C2 C1 1_555 1_555
H2 C2 1_555 1_555
H3 C2 1_555 1_555
C3 C2 1_555 1_555
H4 C3 1_555 1_555
H5 C3 1_555 1_555
C4 C3 1_555 1_555
C5 C4 1_555 1_555
H6 C5 1_555 1_555
H7 C5 1_555 1_555
H8 C5 1_555 1_555
C6 C4 1_555 1_555
H9 C6 1_555 1_555
H10 C6 1_555 1_555
H11 C6 1_555 1_555
C7 C4 1_555 1_555
C8 C7 1_555 1_555
H12 C8 1_555 1_555
C9 C8 1_555 1_555
H13 C9 1_555 1_555
C10 C9 1_555 1_555
C11 C10 1_555 1_555
C12 C1 1_555 1_555
C13 C11 1_555 1_555
C14 C10 1_555 1_555
H14 C14 1_555 1_555
C15 C14 1_555 1_555
C16 C15 1_555 1_555
C17 C15 1_555 1_555
H15 C17 1_555 1_555
C18 C17 1_555 1_555
H16 C18 1_555 1_555
H17 C18 1_555 1_555
H18 C18 1_555 1_555
C19 C17 1_555 1_555
H19 C19 1_555 1_555
H20 C19 1_555 1_555
H21 C19 1_555 1_555
O1 C1 1_555 1_555
O2 C13 1_555 1_555
O3 C16 1_555 1_555
O4 C16 1_555 1_555
H22 O4 1_555 1_555
C7 C12 1_555 1_555
C11 C12 1_555 1_555
C13 O1 1_555 1_555

#END
