
#######################################################################
#
#                 Cambridge Crystallographic Data Centre
#                                CCDC 
#
#######################################################################
#
# If this CIF has been generated from an entry in the Cambridge 
# Structural Database, then it will include bibliographic, chemical, 
# crystal, experimental, refinement or atomic coordinate data resulting 
# from the CCDC's data processing and validation procedures.
#
#######################################################################

data_UXINIZ
_chemical_formula_moiety         'C9 H4 Br1 N3 S2'
_chemical_name_systematic        
7-Bromo-4-(2-thienyl)[1,2,5]thiadiazolo[3,4-c]pyridine
_symmetry_cell_setting           monoclinic
_symmetry_space_group_name_H-M   'P 21/c'
_symmetry_Int_Tables_number      14
_space_group_name_Hall           '-P 2ybc'
loop_
_symmetry_equiv_pos_site_id
_symmetry_equiv_pos_as_xyz
1 x,y,z
2 -x,1/2+y,1/2-z
3 -x,-y,-z
4 x,1/2-y,1/2+z
_cell_length_a                   4.6471(8)
_cell_length_b                   20.920(3)
_cell_length_c                   10.6360(18)
_cell_angle_alpha                90
_cell_angle_beta                 92.743(3)
_cell_angle_gamma                90
_cell_volume                     1032.82
_exptl_crystal_colour            brown
_exptl_crystal_description       needle
_cell_formula_units_Z            4
loop_
_atom_site_label
_atom_site_type_symbol
_atom_site_fract_x
_atom_site_fract_y
_atom_site_fract_z
Br1 Br 0.33541(11) 0.39750(2) 0.78754(5)
C1 C 0.5072(9) 0.4786(2) 0.7864(4)
C2 C 0.7139(10) 0.4968(2) 0.8748(4)
H1 H 0.7679 0.4677 0.9376
C3 C 0.7786(9) 0.5994(2) 0.7904(4)
C4 C 0.5663(9) 0.5842(2) 0.6923(4)
C5 C 0.4273(9) 0.5239(2) 0.6919(3)
C6 C 0.9303(9) 0.6603(2) 0.7992(4)
C7 C 1.2518(13) 0.7451(3) 0.8772(5)
H2 H 1.3827 0.7717 0.9204
C8 C 1.1167(12) 0.7611(3) 0.7660(5)
H3 H 1.1502 0.7997 0.7257
C9 C 0.9185(9) 0.7144(2) 0.7150(4)
H4 H 0.8036 0.7183 0.6414
N1 N 0.8459(8) 0.55484(17) 0.8768(3)
N2 N 0.4730(8) 0.62220(18) 0.5954(3)
N3 N 0.2258(8) 0.51594(18) 0.5970(3)
S1 S 0.2289(3) 0.58159(6) 0.51711(10)
S2 S 1.1591(3) 0.67182(7) 0.92983(13)
loop_
_geom_bond_atom_site_label_1
_geom_bond_atom_site_label_2
_geom_bond_site_symmetry_1
_geom_bond_site_symmetry_2
Br1 C1 1_555 1_555
C1 C2 1_555 1_555
C2 H1 1_555 1_555
C3 C4 1_555 1_555
C4 C5 1_555 1_555
C5 C1 1_555 1_555
C6 C3 1_555 1_555
C7 H2 1_555 1_555
C8 C7 1_555 1_555
H3 C8 1_555 1_555
C9 C6 1_555 1_555
H4 C9 1_555 1_555
N1 C2 1_555 1_555
N2 C4 1_555 1_555
N3 C5 1_555 1_555
S1 N2 1_555 1_555
S2 C6 1_555 1_555
C3 N1 1_555 1_555
C7 S2 1_555 1_555
C8 C9 1_555 1_555
N3 S1 1_555 1_555

#END
