
#######################################################################
#
#                 Cambridge Crystallographic Data Centre
#                                CCDC 
#
#######################################################################
#
# If this CIF has been generated from an entry in the Cambridge 
# Structural Database, then it will include bibliographic, chemical, 
# crystal, experimental, refinement or atomic coordinate data resulting 
# from the CCDC's data processing and validation procedures.
#
#######################################################################

data_UXIPAT
_chemical_formula_moiety         'C30 H53 Mg1 N3 O2 Si2'
_chemical_name_systematic        
(2-t-butyl-6-(((2-(dimethylamino)ethyl)(2-(methoxy)benzyl)amino)methyl)-4-methylphenolato)-(1,1,1-trimethyl-N-(trimethylsilyl)silanaminato)-magnesium
_symmetry_cell_setting           orthorhombic
_symmetry_space_group_name_H-M   'P 21 21 21'
_symmetry_Int_Tables_number      19
_space_group_name_Hall           'P 2ac 2ab'
loop_
_symmetry_equiv_pos_site_id
_symmetry_equiv_pos_as_xyz
1 x,y,z
2 1/2-x,-y,1/2+z
3 -x,1/2+y,1/2-z
4 1/2+x,1/2-y,-z
_cell_length_a                   13.032(4)
_cell_length_b                   14.817(5)
_cell_length_c                   17.543(6)
_cell_angle_alpha                90
_cell_angle_beta                 90
_cell_angle_gamma                90
_cell_volume                     3387.47
_exptl_crystal_colour            colorless
_exptl_crystal_description       prism
_cell_formula_units_Z            4
loop_
_atom_site_label
_atom_site_type_symbol
_atom_site_fract_x
_atom_site_fract_y
_atom_site_fract_z
Mg1 Mg 0.58422(9) 0.95233(7) 0.94342(5)
Si1 Si 0.63688(10) 1.10413(7) 1.07386(6)
Si2 Si 0.60286(10) 1.16502(7) 0.91538(6)
N1 N 0.5450(2) 0.85502(18) 0.84784(14)
N2 N 0.7441(2) 0.9155(2) 0.89858(16)
N3 N 0.6095(2) 1.08123(14) 0.98101(13)
O1 O 0.55084(17) 0.86182(13) 1.01824(10)
O2 O 0.41741(17) 0.98160(14) 0.92042(13)
C1 C 0.5497(3) 0.7722(2) 1.01279(19)
C2 C 0.5795(3) 0.7164(2) 1.0751(2)
C3 C 0.5805(3) 0.6234(2) 1.0633(2)
H1 H 0.5995 0.5865 1.1038
C4 C 0.5548(3) 0.5828(2) 0.9950(2)
C5 C 0.5211(3) 0.6370(2) 0.9377(2)
H2 H 0.4998 0.6108 0.8922
C6 C 0.5173(3) 0.7301(2) 0.94503(18)
C7 C 0.4733(3) 0.7857(2) 0.88089(18)
H3 H 0.4520 0.7453 0.8404
H4 H 0.4125 0.8164 0.8994
C8 C 0.4962(3) 0.8953(2) 0.77919(17)
H5 H 0.4799 0.8463 0.7446
H6 H 0.5474 0.9325 0.7542
C9 C 0.4005(3) 0.9519(2) 0.7882(2)
C10 C 0.3473(3) 0.9685(3) 0.7206(2)
H7 H 0.3686 0.9400 0.6761
C11 C 0.2648(4) 1.0255(3) 0.7179(3)
H8 H 0.2324 1.0367 0.6716
C12 C 0.2300(4) 1.0660(3) 0.7826(3)
H9 H 0.1723 1.1029 0.7810
C13 C 0.2804(3) 1.0519(3) 0.8498(2)
H10 H 0.2582 1.0810 0.8938
C14 C 0.3651(3) 0.9942(2) 0.8530(2)
C15 C 0.6403(3) 0.8098(2) 0.82265(19)
H11 H 0.6306 0.7853 0.7719
H12 H 0.6559 0.7602 0.8568
C16 C 0.7294(3) 0.8763(3) 0.8221(2)
H13 H 0.7916 0.8456 0.8064
H14 H 0.7156 0.9241 0.7858
C17 C 0.6009(3) 0.7552(2) 1.15423(19)
C18 C 0.5040(3) 0.8026(2) 1.18356(17)
H15 H 0.4799 0.8444 1.1458
H16 H 0.5197 0.8345 1.2297
H17 H 0.4518 0.7585 1.1935
C19 C 0.6905(3) 0.8226(2) 1.15085(19)
H18 H 0.7516 0.7918 1.1347
H19 H 0.7013 0.8482 1.2005
H20 H 0.6745 0.8697 1.1153
C20 C 0.6295(3) 0.6829(2) 1.21250(18)
H21 H 0.5733 0.6416 1.2185
H22 H 0.6443 0.7110 1.2606
H23 H 0.6889 0.6506 1.1951
C21 C 0.5582(3) 0.4798(2) 0.9871(2)
H24 H 0.5103 0.4610 0.9486
H25 H 0.5403 0.4524 1.0349
H26 H 0.6261 0.4613 0.9728
C22 C 0.3613(3) 0.9934(3) 0.99010(18)
H27 H 0.3482 1.0564 0.9981
H28 H 0.4008 0.9701 1.0319
H29 H 0.2973 0.9615 0.9869
C23 C 0.8186(3) 0.9901(3) 0.8908(2)
H30 H 0.8248 1.0211 0.9386
H31 H 0.7951 1.0315 0.8525
H32 H 0.8842 0.9662 0.8763
C24 C 0.7883(3) 0.8490(3) 0.95146(19)
H33 H 0.7410 0.8000 0.9583
H34 H 0.8013 0.8772 0.9997
H35 H 0.8515 0.8263 0.9309
C25 C 0.7703(3) 1.0674(3) 1.1009(2)
H36 H 0.7785 1.0044 1.0900
H37 H 0.7809 1.0777 1.1543
H38 H 0.8196 1.1015 1.0721
C26 C 0.6287(4) 1.2269(2) 1.1018(2)
H39 H 0.6775 1.2611 1.0727
H40 H 0.6437 1.2331 1.1551
H41 H 0.5608 1.2490 1.0918
C27 C 0.5471(3) 1.0474(2) 1.14093(18)
H42 H 0.4808 1.0755 1.1377
H43 H 0.5728 1.0528 1.1920
H44 H 0.5413 0.9848 1.1277
C28 C 0.5927(3) 1.1199(2) 0.81534(16)
H45 H 0.6413 1.0719 0.8085
H46 H 0.6070 1.1674 0.7797
H47 H 0.5246 1.0973 0.8068
C29 C 0.4858(3) 1.2397(2) 0.9259(2)
H48 H 0.4250 1.2044 0.9182
H49 H 0.4885 1.2872 0.8887
H50 H 0.4847 1.2654 0.9761
C30 C 0.7184(3) 1.2412(2) 0.9129(2)
H51 H 0.7163 1.2817 0.9556
H52 H 0.7181 1.2754 0.8664
H53 H 0.7797 1.2055 0.9154
loop_
_geom_bond_atom_site_label_1
_geom_bond_atom_site_label_2
_geom_bond_site_symmetry_1
_geom_bond_site_symmetry_2
Mg1 N1 1_555 1_555
Si1 N3 1_555 1_555
Si2 N3 1_555 1_555
N1 C7 1_555 1_555
N2 Mg1 1_555 1_555
N3 Mg1 1_555 1_555
O1 Mg1 1_555 1_555
O2 Mg1 1_555 1_555
C1 O1 1_555 1_555
C2 C1 1_555 1_555
C3 C2 1_555 1_555
H1 C3 1_555 1_555
C4 C3 1_555 1_555
C5 C4 1_555 1_555
H2 C5 1_555 1_555
C6 C1 1_555 1_555
C7 C6 1_555 1_555
H3 C7 1_555 1_555
H4 C7 1_555 1_555
C8 N1 1_555 1_555
H5 C8 1_555 1_555
H6 C8 1_555 1_555
C9 C8 1_555 1_555
C10 C9 1_555 1_555
H7 C10 1_555 1_555
C11 C10 1_555 1_555
H8 C11 1_555 1_555
C12 C11 1_555 1_555
H9 C12 1_555 1_555
C13 C12 1_555 1_555
H10 C13 1_555 1_555
C14 O2 1_555 1_555
C15 N1 1_555 1_555
H11 C15 1_555 1_555
H12 C15 1_555 1_555
C16 N2 1_555 1_555
H13 C16 1_555 1_555
H14 C16 1_555 1_555
C17 C2 1_555 1_555
C18 C17 1_555 1_555
H15 C18 1_555 1_555
H16 C18 1_555 1_555
H17 C18 1_555 1_555
C19 C17 1_555 1_555
H18 C19 1_555 1_555
H19 C19 1_555 1_555
H20 C19 1_555 1_555
C20 C17 1_555 1_555
H21 C20 1_555 1_555
H22 C20 1_555 1_555
H23 C20 1_555 1_555
C21 C4 1_555 1_555
H24 C21 1_555 1_555
H25 C21 1_555 1_555
H26 C21 1_555 1_555
C22 O2 1_555 1_555
H27 C22 1_555 1_555
H28 C22 1_555 1_555
H29 C22 1_555 1_555
C23 N2 1_555 1_555
H30 C23 1_555 1_555
H31 C23 1_555 1_555
H32 C23 1_555 1_555
C24 N2 1_555 1_555
H33 C24 1_555 1_555
H34 C24 1_555 1_555
H35 C24 1_555 1_555
C25 Si1 1_555 1_555
H36 C25 1_555 1_555
H37 C25 1_555 1_555
H38 C25 1_555 1_555
C26 Si1 1_555 1_555
H39 C26 1_555 1_555
H40 C26 1_555 1_555
H41 C26 1_555 1_555
C27 Si1 1_555 1_555
H42 C27 1_555 1_555
H43 C27 1_555 1_555
H44 C27 1_555 1_555
C28 Si2 1_555 1_555
H45 C28 1_555 1_555
H46 C28 1_555 1_555
H47 C28 1_555 1_555
C29 Si2 1_555 1_555
H48 C29 1_555 1_555
H49 C29 1_555 1_555
H50 C29 1_555 1_555
C30 Si2 1_555 1_555
H51 C30 1_555 1_555
H52 C30 1_555 1_555
H53 C30 1_555 1_555
C5 C6 1_555 1_555
C9 C14 1_555 1_555
C13 C14 1_555 1_555
C15 C16 1_555 1_555

#END
