
#######################################################################
#
#                 Cambridge Crystallographic Data Centre
#                                CCDC 
#
#######################################################################
#
# If this CIF has been generated from an entry in the Cambridge 
# Structural Database, then it will include bibliographic, chemical, 
# crystal, experimental, refinement or atomic coordinate data resulting 
# from the CCDC's data processing and validation procedures.
#
#######################################################################

data_UXISIE
_chemical_formula_moiety         'C21 H26 O2 S1'
_chemical_name_systematic        
3-((Phenylsulfanyl)methyl)-15-oxatetracyclo[8.4.1.0^1,10^.0^3,8^]pentadecan-4-one
_symmetry_cell_setting           monoclinic
_symmetry_space_group_name_H-M   'P 21/c'
_symmetry_Int_Tables_number      14
_space_group_name_Hall           '-P 2ybc'
loop_
_symmetry_equiv_pos_site_id
_symmetry_equiv_pos_as_xyz
1 x,y,z
2 -x,1/2+y,1/2-z
3 -x,-y,-z
4 x,1/2-y,1/2+z
_cell_length_a                   13.182(3)
_cell_length_b                   19.464(5)
_cell_length_c                   14.135(4)
_cell_angle_alpha                90
_cell_angle_beta                 91.468(4)
_cell_angle_gamma                90
_cell_volume                     3625.49
_exptl_crystal_colour            colorless
_exptl_crystal_description       block
_cell_formula_units_Z            8
loop_
_atom_site_label
_atom_site_type_symbol
_atom_site_fract_x
_atom_site_fract_y
_atom_site_fract_z
S1 S 0.47752(3) 0.35929(2) 0.56015(3)
O1 O 0.65102(8) 0.25672(6) 0.68103(8)
O2 O 0.37891(9) 0.27482(7) 0.90933(8)
C1 C 0.57007(12) 0.23359(8) 0.65314(11)
C2 C 0.56345(13) 0.17709(9) 0.58046(12)
H1 H 0.6324 0.1646 0.5603
H2 H 0.5240 0.1931 0.5241
C3 C 0.51174(14) 0.11431(9) 0.62300(13)
H3 H 0.5036 0.0781 0.5742
H4 H 0.5546 0.0957 0.6755
C4 C 0.40838(13) 0.13401(9) 0.65978(12)
H5 H 0.3772 0.0933 0.6894
H6 H 0.3638 0.1484 0.6060
C5 C 0.41543(12) 0.19221(8) 0.73207(11)
H7 H 0.4566 0.1749 0.7875
C6 C 0.31129(12) 0.21082(9) 0.76774(12)
H8 H 0.2649 0.2180 0.7124
H9 H 0.2851 0.1713 0.8039
C7 C 0.30799(12) 0.27342(10) 0.82916(11)
C8 C 0.20239(14) 0.29611(12) 0.85351(13)
H10 H 0.1706 0.2600 0.8923
H11 H 0.1612 0.3010 0.7943
C9 C 0.20048(17) 0.36344(14) 0.90707(16)
H12 H 0.1296 0.3798 0.9110
H13 H 0.2276 0.3564 0.9723
C10 C 0.26300(19) 0.41634(13) 0.85808(16)
H14 H 0.2558 0.4609 0.8909
H15 H 0.2365 0.4220 0.7924
C11 C 0.37586(16) 0.39748(10) 0.85565(14)
H16 H 0.4092 0.4269 0.8085
H17 H 0.4078 0.4073 0.9183
C12 C 0.39377(13) 0.32285(9) 0.83104(11)
C13 C 0.48909(12) 0.30686(9) 0.77682(11)
H18 H 0.5405 0.2866 0.8209
H19 H 0.5172 0.3503 0.7521
C14 C 0.47003(11) 0.25724(8) 0.69418(10)
C15 C 0.40398(11) 0.29298(8) 0.61676(10)
H20 H 0.3434 0.3136 0.6455
H21 H 0.3807 0.2588 0.5691
C16 C 0.38784(12) 0.40051(8) 0.48506(11)
C17 C 0.28366(12) 0.38903(8) 0.48510(11)
H22 H 0.2560 0.3557 0.5262
C18 C 0.22055(13) 0.42667(9) 0.42475(12)
H23 H 0.1495 0.4186 0.4247
C19 C 0.25882(13) 0.47565(9) 0.36463(12)
H24 H 0.2146 0.5012 0.3239
C20 C 0.36252(13) 0.48690(9) 0.36460(12)
H25 H 0.3897 0.5205 0.3236
C21 C 0.42661(12) 0.44965(8) 0.42376(11)
H26 H 0.4977 0.4575 0.4228
S2 S 0.03569(3) 0.63284(2) 0.27443(3)
O3 O 0.11497(9) 0.67282(7) 0.65412(8)
O4 O -0.12796(8) 0.72907(7) 0.40600(9)
C22 C -0.04301(12) 0.75094(9) 0.39413(11)
C23 C -0.02414(12) 0.81594(9) 0.34031(13)
H27 H -0.0898 0.8379 0.3233
H28 H 0.0106 0.8049 0.2809
C24 C 0.04122(13) 0.86604(9) 0.39910(14)
H29 H 0.0586 0.9062 0.3596
H30 H 0.0020 0.8828 0.4533
C25 C 0.13826(12) 0.83201(8) 0.43581(12)
H31 H 0.1769 0.8649 0.4762
H32 H 0.1809 0.8197 0.3817
C26 C 0.11574(11) 0.76733(8) 0.49299(11)
H33 H 0.0748 0.7820 0.5480
C27 C 0.21268(12) 0.73428(8) 0.53335(12)
H34 H 0.2588 0.7249 0.4807
H35 H 0.2471 0.7675 0.5764
C28 C 0.19574(12) 0.66860(9) 0.58642(11)
C29 C 0.29035(13) 0.63274(10) 0.62497(12)
H36 H 0.3046 0.6490 0.6903
H37 H 0.3486 0.6460 0.5861
C30 C 0.28210(14) 0.55439(10) 0.62599(14)
H38 H 0.2938 0.5366 0.5616
H39 H 0.3358 0.5355 0.6688
C31 C 0.17949(15) 0.52974(11) 0.65828(15)
H40 H 0.1672 0.5475 0.7226
H41 H 0.1790 0.4789 0.6611
C32 C 0.09574(13) 0.55426(10) 0.59084(14)
H42 H 0.1003 0.5287 0.5306
H43 H 0.0293 0.5434 0.6183
C33 C 0.10012(12) 0.63020(9) 0.57022(11)
C34 C 0.01791(12) 0.65663(9) 0.50272(12)
H44 H -0.0391 0.6738 0.5403
H45 H -0.0078 0.6177 0.4640
C35 C 0.05093(11) 0.71399(8) 0.43598(11)
C36 C 0.11402(11) 0.68431(8) 0.35448(11)
H46 H 0.1697 0.6556 0.3813
H47 H 0.1448 0.7225 0.3189
C37 C 0.12615(12) 0.59439(8) 0.20136(11)
C38 C 0.22748(12) 0.61425(8) 0.19729(11)
H48 H 0.2518 0.6521 0.2338
C39 C 0.29254(13) 0.57837(8) 0.13954(11)
H49 H 0.3616 0.5920 0.1369
C40 C 0.25892(14) 0.52331(9) 0.08600(13)
H50 H 0.3046 0.4988 0.0476
C41 C 0.15822(15) 0.50412(9) 0.08869(14)
H51 H 0.1342 0.4667 0.0512
C42 C 0.09197(13) 0.53931(9) 0.14593(13)
H52 H 0.0228 0.5258 0.1474
loop_
_geom_bond_atom_site_label_1
_geom_bond_atom_site_label_2
_geom_bond_site_symmetry_1
_geom_bond_site_symmetry_2
S1 C15 1_555 1_555
O1 C1 1_555 1_555
O2 C7 1_555 1_555
C1 C2 1_555 1_555
C2 H1 1_555 1_555
H2 C2 1_555 1_555
C3 C2 1_555 1_555
H3 C3 1_555 1_555
H4 C3 1_555 1_555
C4 C3 1_555 1_555
H5 C4 1_555 1_555
H6 C4 1_555 1_555
C5 C4 1_555 1_555
H7 C5 1_555 1_555
C6 C5 1_555 1_555
H8 C6 1_555 1_555
H9 C6 1_555 1_555
C7 C6 1_555 1_555
C8 C7 1_555 1_555
H10 C8 1_555 1_555
H11 C8 1_555 1_555
C9 C8 1_555 1_555
H12 C9 1_555 1_555
H13 C9 1_555 1_555
C10 C9 1_555 1_555
H14 C10 1_555 1_555
H15 C10 1_555 1_555
C11 C10 1_555 1_555
H16 C11 1_555 1_555
H17 C11 1_555 1_555
C12 O2 1_555 1_555
C13 C12 1_555 1_555
H18 C13 1_555 1_555
H19 C13 1_555 1_555
C14 C1 1_555 1_555
C15 C14 1_555 1_555
H20 C15 1_555 1_555
H21 C15 1_555 1_555
C16 S1 1_555 1_555
C17 C16 1_555 1_555
H22 C17 1_555 1_555
C18 C17 1_555 1_555
H23 C18 1_555 1_555
C19 C18 1_555 1_555
H24 C19 1_555 1_555
C20 C19 1_555 1_555
H25 C20 1_555 1_555
C21 C16 1_555 1_555
H26 C21 1_555 1_555
S2 C36 1_555 1_555
O3 C28 1_555 1_555
O4 C22 1_555 1_555
C22 C23 1_555 1_555
C23 H27 1_555 1_555
H28 C23 1_555 1_555
C24 C23 1_555 1_555
H29 C24 1_555 1_555
H30 C24 1_555 1_555
C25 C24 1_555 1_555
H31 C25 1_555 1_555
H32 C25 1_555 1_555
C26 C25 1_555 1_555
H33 C26 1_555 1_555
C27 C26 1_555 1_555
H34 C27 1_555 1_555
H35 C27 1_555 1_555
C28 C27 1_555 1_555
C29 C28 1_555 1_555
H36 C29 1_555 1_555
H37 C29 1_555 1_555
C30 C29 1_555 1_555
H38 C30 1_555 1_555
H39 C30 1_555 1_555
C31 C30 1_555 1_555
H40 C31 1_555 1_555
H41 C31 1_555 1_555
C32 C31 1_555 1_555
H42 C32 1_555 1_555
H43 C32 1_555 1_555
C33 O3 1_555 1_555
C34 C33 1_555 1_555
H44 C34 1_555 1_555
H45 C34 1_555 1_555
C35 C22 1_555 1_555
C36 C35 1_555 1_555
H46 C36 1_555 1_555
H47 C36 1_555 1_555
C37 S2 1_555 1_555
C38 C37 1_555 1_555
H48 C38 1_555 1_555
C39 C38 1_555 1_555
H49 C39 1_555 1_555
C40 C39 1_555 1_555
H50 C40 1_555 1_555
C41 C40 1_555 1_555
H51 C41 1_555 1_555
C42 C37 1_555 1_555
H52 C42 1_555 1_555
C5 C14 1_555 1_555
C7 C12 1_555 1_555
C11 C12 1_555 1_555
C13 C14 1_555 1_555
C20 C21 1_555 1_555
C26 C35 1_555 1_555
C28 C33 1_555 1_555
C32 C33 1_555 1_555
C34 C35 1_555 1_555
C41 C42 1_555 1_555

#END
