
#######################################################################
#
#                 Cambridge Crystallographic Data Centre
#                                CCDC 
#
#######################################################################
#
# If this CIF has been generated from an entry in the Cambridge 
# Structural Database, then it will include bibliographic, chemical, 
# crystal, experimental, refinement or atomic coordinate data resulting 
# from the CCDC's data processing and validation procedures.
#
#######################################################################

data_UXISEA
_chemical_formula_moiety         'C21 H28 O2 S1'
_chemical_name_systematic        
1a,5,5,7a-Tetramethyl-2a-((phenylsulfanyl)methyl)octahydronaphtho[2,3-b]oxiren-3(1aH)-one
_symmetry_cell_setting           orthorhombic
_symmetry_space_group_name_H-M   'P 21 21 21'
_symmetry_Int_Tables_number      19
_space_group_name_Hall           'P 2ac 2ab'
loop_
_symmetry_equiv_pos_site_id
_symmetry_equiv_pos_as_xyz
1 x,y,z
2 1/2-x,-y,1/2+z
3 -x,1/2+y,1/2-z
4 1/2+x,1/2-y,-z
_cell_length_a                   5.9163(11)
_cell_length_b                   11.863(2)
_cell_length_c                   26.721(5)
_cell_angle_alpha                90
_cell_angle_beta                 90
_cell_angle_gamma                90
_cell_volume                     1875.42
_exptl_crystal_colour            colorless
_exptl_crystal_description       needle
_cell_formula_units_Z            4
loop_
_atom_site_label
_atom_site_type_symbol
_atom_site_fract_x
_atom_site_fract_y
_atom_site_fract_z
S1 S 0.78715(9) 0.38032(4) 0.130632(17)
O1 O 0.3993(2) 0.81119(10) 0.12812(5)
O2 O 0.3330(2) 0.46187(11) 0.21941(5)
C1 C 0.6380(3) 0.78764(14) 0.11923(6)
C2 C 0.4637(3) 0.70279(15) 0.10613(6)
C3 C 0.4208(3) 0.60285(14) 0.14035(6)
H1 H 0.3961 0.5351 0.1194
H2 H 0.2798 0.6169 0.1593
C4 C 0.6103(3) 0.57757(13) 0.17764(6)
C5 C 0.5258(3) 0.49782(14) 0.21866(6)
C6 C 0.6902(3) 0.47611(14) 0.26074(6)
H3 H 0.8291 0.4409 0.2472
H4 H 0.6220 0.4232 0.2851
C7 C 0.7518(3) 0.58810(13) 0.28758(6)
C8 C 0.8386(3) 0.67238(13) 0.24825(6)
H5 H 0.8649 0.7460 0.2647
H6 H 0.9857 0.6453 0.2353
C9 C 0.6776(3) 0.68987(13) 0.20408(6)
H7 H 0.5358 0.7237 0.2178
C10 C 0.7751(3) 0.77401(13) 0.16657(6)
H8 H 0.7880 0.8484 0.1831
H9 H 0.9295 0.7495 0.1574
C11 C 0.7486(4) 0.86238(16) 0.08083(7)
H10 H 0.6515 0.8676 0.0512
H11 H 0.8951 0.8304 0.0713
H12 H 0.7710 0.9378 0.0950
C12 C 0.3800(3) 0.68696(16) 0.05318(7)
H13 H 0.3939 0.7582 0.0349
H14 H 0.2211 0.6636 0.0538
H15 H 0.4706 0.6289 0.0365
C13 C 0.9355(3) 0.56433(16) 0.32610(7)
H16 H 1.0678 0.5320 0.3093
H17 H 0.8784 0.5109 0.3511
H18 H 0.9786 0.6348 0.3427
C14 C 0.5436(3) 0.63537(18) 0.31468(7)
H19 H 0.4919 0.5810 0.3398
H20 H 0.4225 0.6488 0.2904
H21 H 0.5834 0.7065 0.3311
C15 C 0.8185(3) 0.52591(14) 0.15104(6)
H22 H 0.9492 0.5303 0.1741
H23 H 0.8545 0.5728 0.1214
C16 C 0.6835(3) 0.39341(13) 0.06836(6)
C17 C 0.8136(3) 0.44281(15) 0.03106(7)
H24 H 0.9564 0.4746 0.0391
C18 C 0.7359(4) 0.44592(16) -0.01796(7)
H25 H 0.8242 0.4809 -0.0433
C19 C 0.5297(4) 0.39803(16) -0.02991(7)
H26 H 0.4779 0.3990 -0.0636
C20 C 0.3988(4) 0.34872(16) 0.00693(7)
H27 H 0.2572 0.3159 -0.0014
C21 C 0.4750(3) 0.34734(15) 0.05613(7)
H28 H 0.3839 0.3147 0.0815
loop_
_geom_bond_atom_site_label_1
_geom_bond_atom_site_label_2
_geom_bond_site_symmetry_1
_geom_bond_site_symmetry_2
S1 C15 1_555 1_555
O1 C1 1_555 1_555
O2 C5 1_555 1_555
C1 C2 1_555 1_555
C2 O1 1_555 1_555
C3 C2 1_555 1_555
H1 C3 1_555 1_555
H2 C3 1_555 1_555
C4 C3 1_555 1_555
C5 C4 1_555 1_555
C6 C5 1_555 1_555
H3 C6 1_555 1_555
H4 C6 1_555 1_555
C7 C6 1_555 1_555
C8 C7 1_555 1_555
H5 C8 1_555 1_555
H6 C8 1_555 1_555
C9 C4 1_555 1_555
H7 C9 1_555 1_555
C10 C1 1_555 1_555
H8 C10 1_555 1_555
H9 C10 1_555 1_555
C11 C1 1_555 1_555
H10 C11 1_555 1_555
H11 C11 1_555 1_555
H12 C11 1_555 1_555
C12 C2 1_555 1_555
H13 C12 1_555 1_555
H14 C12 1_555 1_555
H15 C12 1_555 1_555
C13 C7 1_555 1_555
H16 C13 1_555 1_555
H17 C13 1_555 1_555
H18 C13 1_555 1_555
C14 C7 1_555 1_555
H19 C14 1_555 1_555
H20 C14 1_555 1_555
H21 C14 1_555 1_555
C15 C4 1_555 1_555
H22 C15 1_555 1_555
H23 C15 1_555 1_555
C16 S1 1_555 1_555
C17 C16 1_555 1_555
H24 C17 1_555 1_555
C18 C17 1_555 1_555
H25 C18 1_555 1_555
C19 C18 1_555 1_555
H26 C19 1_555 1_555
C20 C19 1_555 1_555
H27 C20 1_555 1_555
C21 C16 1_555 1_555
H28 C21 1_555 1_555
C8 C9 1_555 1_555
C9 C10 1_555 1_555
C20 C21 1_555 1_555

#END
