
#######################################################################
#
#                 Cambridge Crystallographic Data Centre
#                                CCDC 
#
#######################################################################
#
# If this CIF has been generated from an entry in the Cambridge 
# Structural Database, then it will include bibliographic, chemical, 
# crystal, experimental, refinement or atomic coordinate data resulting 
# from the CCDC's data processing and validation procedures.
#
#######################################################################

data_UXOJUO
_chemical_formula_moiety         'C18 H21 N1 O4'
_chemical_name_systematic        
5-(1-(1H-indol-3-yl)-2-methylpropyl)-2,2-dimethyl-1,3-dioxane-4,6-dione
_symmetry_cell_setting           monoclinic
_symmetry_space_group_name_H-M   'P 21/c'
_symmetry_Int_Tables_number      14
_space_group_name_Hall           '-P 2ybc'
loop_
_symmetry_equiv_pos_site_id
_symmetry_equiv_pos_as_xyz
1 x,y,z
2 -x,1/2+y,1/2-z
3 -x,-y,-z
4 x,1/2-y,1/2+z
_cell_length_a                   12.0134(17)
_cell_length_b                   9.5521(14)
_cell_length_c                   14.931(2)
_cell_angle_alpha                90
_cell_angle_beta                 96.271(3)
_cell_angle_gamma                90
_cell_volume                     1703.13
_cell_formula_units_Z            4
loop_
_atom_site_label
_atom_site_type_symbol
_atom_site_fract_x
_atom_site_fract_y
_atom_site_fract_z
O1 O 0.59776(19) 0.3683(3) 1.0326(2)
O2 O 0.77685(19) 0.4059(3) 1.11424(18)
O3 O 0.9150(2) 0.2625(3) 1.10935(18)
O4 O 0.5593(2) 0.1835(3) 0.9501(2)
N1 N 0.9216(2) 0.5063(3) 0.84692(19)
C1 C 0.6728(3) 0.4689(3) 1.0762(2)
C2 C 0.6297(3) 0.2493(4) 0.9952(2)
C3 C 0.7484(3) 0.2014(3) 1.0161(2)
H1 H 0.7441 0.1101 1.0454
C4 C 0.8203(3) 0.2912(3) 1.0817(2)
C5 C 0.6165(3) 0.5220(4) 1.1543(3)
H2 H 0.5476 0.5676 1.1323
H3 H 0.6648 0.5875 1.1882
H4 H 0.6009 0.4449 1.1923
C6 C 0.6979(3) 0.5814(4) 1.0112(3)
H5 H 0.7325 0.5404 0.9624
H6 H 0.7477 0.6489 1.0416
H7 H 0.6295 0.6267 0.9879
C7 C 0.8030(4) 0.1728(4) 0.9273(3)
C8 C 0.8780(5) 0.0580(6) 0.9250(4)
C9 C 0.8173(5) -0.0829(4) 0.9518(4)
H8 H 0.7958 -0.0739 1.0116
H9 H 0.8678 -0.1604 0.9497
H10 H 0.7518 -0.0987 0.9101
C10 C 0.9081(4) 0.0284(5) 0.8287(3)
H11 H 0.9465 0.1078 0.8074
H12 H 0.8408 0.0114 0.7894
H13 H 0.9557 -0.0525 0.8297
C11 C 0.8314(3) 0.3091(3) 0.8829(2)
C12 C 0.9259(3) 0.3878(4) 0.9002(2)
H14 H 0.9858 0.3646 0.9424
C13 C 0.7619(3) 0.3814(3) 0.8126(2)
C14 C 0.8210(3) 0.5034(4) 0.7924(2)
C15 C 0.7772(3) 0.5994(4) 0.7271(2)
H15 H 0.8171 0.6790 0.7144
C16 C 0.6739(4) 0.5726(4) 0.6824(3)
H16 H 0.6432 0.6353 0.6389
C17 C 0.6132(3) 0.4526(4) 0.7009(2)
H17 H 0.5434 0.4367 0.6692
C18 C 0.6554(3) 0.3579(4) 0.7653(2)
H18 H 0.6141 0.2792 0.7775
C19? C 0.7950(8) 0.0505(10) 0.8818(6)
loop_
_geom_bond_atom_site_label_1
_geom_bond_atom_site_label_2
_geom_bond_site_symmetry_1
_geom_bond_site_symmetry_2
O1 C1 1_555 1_555
O2 C1 1_555 1_555
O3 C4 1_555 1_555
O4 C2 1_555 1_555
N1 C12 1_555 1_555
C1 C5 1_555 1_555
C2 O1 1_555 1_555
C3 C2 1_555 1_555
H1 C3 1_555 1_555
C4 O2 1_555 1_555
C5 H2 1_555 1_555
H3 C5 1_555 1_555
H4 C5 1_555 1_555
C6 C1 1_555 1_555
H5 C6 1_555 1_555
H6 C6 1_555 1_555
H7 C6 1_555 1_555
C7 C3 1_555 1_555
C8 C7 1_555 1_555
C9 C8 1_555 1_555
H8 C9 1_555 1_555
H9 C9 1_555 1_555
H10 C9 1_555 1_555
C10 C8 1_555 1_555
H11 C10 1_555 1_555
H12 C10 1_555 1_555
H13 C10 1_555 1_555
C11 C7 1_555 1_555
C12 C11 1_555 1_555
H14 C12 1_555 1_555
C13 C11 1_555 1_555
C14 N1 1_555 1_555
C15 C14 1_555 1_555
H15 C15 1_555 1_555
C16 C15 1_555 1_555
H16 C16 1_555 1_555
C17 C16 1_555 1_555
H17 C17 1_555 1_555
C18 C13 1_555 1_555
H18 C18 1_555 1_555
C3 C4 1_555 1_555
C13 C14 1_555 1_555
C17 C18 1_555 1_555

#END
