
#######################################################################
#
#                 Cambridge Crystallographic Data Centre
#                                CCDC 
#
#######################################################################
#
# If this CIF has been generated from an entry in the Cambridge 
# Structural Database, then it will include bibliographic, chemical, 
# crystal, experimental, refinement or atomic coordinate data resulting 
# from the CCDC's data processing and validation procedures.
#
#######################################################################

data_UXOKOJ
_chemical_formula_moiety         'C13 H15 Br1 O4'
_chemical_name_systematic        
'2-(4-bromophenyl)-5-ethyl-1,3-dioxane-5-carboxylic acid'
_symmetry_cell_setting           monoclinic
_symmetry_space_group_name_H-M   'P 21/n'
_symmetry_Int_Tables_number      14
_space_group_name_Hall           '-P 2yn'
loop_
_symmetry_equiv_pos_site_id
_symmetry_equiv_pos_as_xyz
1 x,y,z
2 1/2-x,1/2+y,1/2-z
3 -x,-y,-z
4 1/2+x,1/2-y,1/2+z
_cell_length_a                   12.872(4)
_cell_length_b                   8.311(2)
_cell_length_c                   24.598(7)
_cell_angle_alpha                90
_cell_angle_beta                 92.556(3)
_cell_angle_gamma                90
_cell_volume                     2628.86
_exptl_crystal_colour            colorless
_exptl_crystal_description       block
_cell_formula_units_Z            8
loop_
_atom_site_label
_atom_site_type_symbol
_atom_site_fract_x
_atom_site_fract_y
_atom_site_fract_z
Br1 Br 1.61659(3) 0.37502(5) 0.133099(13)
C1 C 0.93542(17) 0.3361(3) 0.17355(9)
C2 C 1.4856(2) 0.3238(3) 0.16068(10)
C3 C 0.96966(19) 0.2004(3) 0.21137(9)
C4 C 1.4800(2) 0.2256(3) 0.20544(11)
H1 H 1.5403(2) 0.1880(3) 0.22342(11)
C5 C 1.0400(2) 0.2626(3) 0.25812(9)
H2 H 1.0067(2) 0.3533(3) 0.27507(9)
H3 H 1.0495(2) 0.1786(3) 0.28529(9)
C6 C 1.03131(19) 0.0744(3) 0.18103(11)
H4 H 1.04116(19) -0.0202(3) 0.20375(11)
H5 H 0.99216(19) 0.0426(3) 0.14817(11)
C7 C 0.8704(2) 0.1210(3) 0.23209(11)
H6 H 0.8293(2) 0.0809(3) 0.20095(11)
H7 H 0.8908(2) 0.0289(3) 0.25435(11)
C8 C 1.3832(2) 0.1833(3) 0.22332(10)
H8 H 1.3787(2) 0.1164(3) 0.25341(10)
C9 C 1.18926(19) 0.1839(3) 0.21395(10)
H9 H 1.19792(19) 0.0926(3) 0.23896(10)
C10 C 1.2934(2) 0.2393(3) 0.19706(10)
C11 C 1.3019(2) 0.3434(4) 0.15336(11)
H10 H 1.2420(2) 0.3853(4) 0.13617(11)
C12 C 1.3970(2) 0.3851(4) 0.13524(11)
H11 H 1.4017(2) 0.4547(4) 0.10584(11)
C13 C 0.8023(2) 0.2287(5) 0.26484(14)
H12 H 0.8404(7) 0.264(2) 0.2972(5)
H13 H 0.7815(16) 0.3207(15) 0.2434(4)
H14 H 0.7417(10) 0.1702(10) 0.2748(8)
O1 O 1.13900(13) 0.3113(2) 0.24020(7)
O2 O 0.94367(15) 0.4784(2) 0.18635(7)
O3 O 1.13047(13) 0.1355(2) 0.16701(7)
O4 O 0.89221(15) 0.2891(2) 0.12772(7)
H15 H 0.870(2) 0.3674(4) 0.1107(6)
Br2 Br 0.13350(2) 0.72644(5) 0.103814(16)
C14 C 0.5835(2) 0.8453(3) 0.03997(10)
H16 H 0.5815(2) 0.9342(3) 0.01378(10)
C15 C 0.83030(18) 0.6693(3) 0.07657(9)
C16 C 0.7990(2) 0.8034(3) 0.03775(10)
C17 C 0.4365(2) 0.8849(3) 0.10218(11)
H17 H 0.4797(2) 0.9511(3) 0.12369(11)
C18 C 0.7218(2) 0.7436(3) -0.00645(10)
H18 H 0.7133(2) 0.8250(3) -0.03454(10)
H19 H 0.7492(2) 0.6474(3) -0.02297(10)
C19 C 0.7465(2) 0.9393(3) 0.06847(11)
H20 H 0.7900(2) 0.9693(3) 0.10005(11)
H21 H 0.7388(2) 1.0328(3) 0.04503(11)
C20 C 0.8981(2) 0.8668(3) 0.01230(12)
H22 H 0.8798(2) 0.9603(3) -0.00970(12)
H23 H 0.9462(2) 0.9020(3) 0.04137(12)
C21 C 0.4088(2) 0.7184(3) 0.02404(10)
H24 H 0.4334(2) 0.6698(3) -0.00690(10)
C22 C 0.4749(2) 0.8125(3) 0.05655(10)
C23 C 0.3356(2) 0.8607(4) 0.11619(12)
H25 H 0.3109(2) 0.9083(4) 0.14731(12)
C24 C 0.3065(2) 0.6960(3) 0.03709(11)
H26 H 0.2618(2) 0.6349(3) 0.01466(11)
C25 C 0.2716(2) 0.7653(3) 0.08369(11)
C26 C 0.9531(3) 0.7475(5) -0.02261(14)
H27 H 0.9665(18) 0.6505(12) -0.0023(4)
H28 H 0.9102(9) 0.724(2) -0.0545(5)
H29 H 1.0178(10) 0.7927(13) -0.0332(9)
O5 O 0.87465(16) 0.7165(2) 0.12221(7)
H30 H 0.895(2) 0.6378(3) 0.1399(6)
O6 O 0.62330(14) 0.7084(2) 0.01460(7)
O7 O 0.81976(15) 0.5263(2) 0.06459(7)
O8 O 0.64706(13) 0.8905(2) 0.08546(7)
loop_
_geom_bond_atom_site_label_1
_geom_bond_atom_site_label_2
_geom_bond_site_symmetry_1
_geom_bond_site_symmetry_2
Br1 C2 1_555 1_555
C1 C3 1_555 1_555
C2 C4 1_555 1_555
C3 C5 1_555 1_555
C4 H1 1_555 1_555
C5 H2 1_555 1_555
H3 C5 1_555 1_555
C6 C3 1_555 1_555
H4 C6 1_555 1_555
H5 C6 1_555 1_555
C7 C3 1_555 1_555
H6 C7 1_555 1_555
H7 C7 1_555 1_555
C8 C4 1_555 1_555
H8 C8 1_555 1_555
C9 H9 1_555 1_555
C10 C8 1_555 1_555
C11 C10 1_555 1_555
H10 C11 1_555 1_555
C12 C2 1_555 1_555
H11 C12 1_555 1_555
C13 C7 1_555 1_555
H12 C13 1_555 1_555
H13 C13 1_555 1_555
H14 C13 1_555 1_555
O1 C5 1_555 1_555
O2 C1 1_555 1_555
O3 C6 1_555 1_555
O4 C1 1_555 1_555
H15 O4 1_555 1_555
Br2 C25 1_555 1_555
C14 H16 1_555 1_555
C15 C16 1_555 1_555
C16 C18 1_555 1_555
C17 H17 1_555 1_555
C18 H18 1_555 1_555
H19 C18 1_555 1_555
C19 C16 1_555 1_555
H20 C19 1_555 1_555
H21 C19 1_555 1_555
C20 C16 1_555 1_555
H22 C20 1_555 1_555
H23 C20 1_555 1_555
C21 H24 1_555 1_555
C22 C14 1_555 1_555
C23 C17 1_555 1_555
H25 C23 1_555 1_555
C24 C21 1_555 1_555
H26 C24 1_555 1_555
C25 C23 1_555 1_555
C26 C20 1_555 1_555
H27 C26 1_555 1_555
H28 C26 1_555 1_555
H29 C26 1_555 1_555
O5 C15 1_555 1_555
H30 O5 1_555 1_555
O6 C14 1_555 1_555
O7 C15 1_555 1_555
O8 C14 1_555 1_555
C9 C10 1_555 1_555
C9 O1 1_555 1_555
C9 O3 1_555 1_555
C11 C12 1_555 1_555
C17 C22 1_555 1_555
C18 O6 1_555 1_555
C19 O8 1_555 1_555
C21 C22 1_555 1_555
C24 C25 1_555 1_555

#END
