
#######################################################################
#
#                 Cambridge Crystallographic Data Centre
#                                CCDC 
#
#######################################################################
#
# If this CIF has been generated from an entry in the Cambridge 
# Structural Database, then it will include bibliographic, chemical, 
# crystal, experimental, refinement or atomic coordinate data resulting 
# from the CCDC's data processing and validation procedures.
#
#######################################################################

data_UXOKEY
_chemical_formula_moiety         'C20 H11 N3 O1'
_chemical_name_systematic        
2-(Furo[3,4-b]quinolin-3(1H)-ylidenemethyl)isophthalonitrile
_symmetry_cell_setting           triclinic
_symmetry_space_group_name_H-M   'P -1'
_symmetry_Int_Tables_number      2
_space_group_name_Hall           '-P 1'
loop_
_symmetry_equiv_pos_site_id
_symmetry_equiv_pos_as_xyz
1 x,y,z
2 -x,-y,-z
_cell_length_a                   7.2595(8)
_cell_length_b                   7.5518(9)
_cell_length_c                   14.5477(17)
_cell_angle_alpha                85.156(2)
_cell_angle_beta                 77.993(2)
_cell_angle_gamma                76.251(2)
_cell_volume                     757.223
_exptl_crystal_colour            colorless
_exptl_crystal_description       prismatic
_cell_formula_units_Z            2
loop_
_atom_site_label
_atom_site_type_symbol
_atom_site_fract_x
_atom_site_fract_y
_atom_site_fract_z
O1 O -0.07286(16) 0.65949(17) 0.25058(8)
N1 N 0.23442(19) 0.65339(16) 0.41217(9)
N2 N 0.0833(3) 0.9739(2) 0.09944(12)
N3 N 0.5021(3) 0.0744(3) 0.18355(13)
C1 C 0.1826(3) 0.71168(19) 0.50200(11)
C2 C 0.3306(3) 0.7013(2) 0.55360(13)
H1 H 0.4588 0.6557 0.5257
C3 C 0.2872(4) 0.7569(3) 0.64290(14)
H2 H 0.3864 0.7503 0.6754
C4 C 0.0966(4) 0.8240(3) 0.68725(13)
H3 H 0.0691 0.8589 0.7493
C5 C -0.0493(3) 0.8385(2) 0.63977(12)
H4 H -0.1760 0.8864 0.6693
C6 C -0.0115(3) 0.7821(2) 0.54629(11)
C7 C -0.1585(3) 0.7961(2) 0.49415(12)
H5 H -0.2874 0.8437 0.5204
C8 C -0.1066(2) 0.7384(2) 0.40486(11)
C9 C -0.2172(2) 0.7360(2) 0.32986(12)
H6 H -0.3110 0.6610 0.3496
H7 H -0.2844 0.8584 0.3142
C10 C 0.1073(2) 0.6182(2) 0.27157(11)
C11 C 0.0904(2) 0.66820(18) 0.36797(10)
C12 C 0.2635(2) 0.5430(2) 0.21011(11)
H8 H 0.3811 0.5127 0.2301
C13 C 0.2638(2) 0.5045(2) 0.11317(11)
C14 C 0.1907(2) 0.6406(2) 0.05040(11)
C15 C 0.1885(2) 0.6026(3) -0.04116(11)
H9 H 0.1373 0.6952 -0.0812
C16 C 0.2617(2) 0.4289(3) -0.07261(12)
H10 H 0.2589 0.4035 -0.1337
C17 C 0.3389(2) 0.2931(3) -0.01390(12)
H11 H 0.3898 0.1757 -0.0355
C18 C 0.3417(2) 0.3294(2) 0.07798(11)
C19 C 0.1271(3) 0.8258(3) 0.07890(12)
C20 C 0.4286(3) 0.1870(2) 0.13761(13)
loop_
_geom_bond_atom_site_label_1
_geom_bond_atom_site_label_2
_geom_bond_site_symmetry_1
_geom_bond_site_symmetry_2
O1 C9 1_555 1_555
N1 C1 1_555 1_555
N2 C19 1_555 1_555
N3 C20 1_555 1_555
C1 C2 1_555 1_555
C2 H1 1_555 1_555
C3 C2 1_555 1_555
H2 C3 1_555 1_555
C4 C3 1_555 1_555
H3 C4 1_555 1_555
C5 C4 1_555 1_555
H4 C5 1_555 1_555
C6 C1 1_555 1_555
C7 C6 1_555 1_555
H5 C7 1_555 1_555
C8 C7 1_555 1_555
C9 C8 1_555 1_555
H6 C9 1_555 1_555
H7 C9 1_555 1_555
C10 O1 1_555 1_555
C11 N1 1_555 1_555
C12 C10 1_555 1_555
H8 C12 1_555 1_555
C13 C12 1_555 1_555
C14 C13 1_555 1_555
C15 C14 1_555 1_555
H9 C15 1_555 1_555
C16 C15 1_555 1_555
H10 C16 1_555 1_555
C17 C16 1_555 1_555
H11 C17 1_555 1_555
C18 C13 1_555 1_555
C19 C14 1_555 1_555
C20 C18 1_555 1_555
C5 C6 1_555 1_555
C8 C11 1_555 1_555
C10 C11 1_555 1_555
C17 C18 1_555 1_555

#END
