
#######################################################################
#
#                 Cambridge Crystallographic Data Centre
#                                CCDC 
#
#######################################################################
#
# If this CIF has been generated from an entry in the Cambridge 
# Structural Database, then it will include bibliographic, chemical, 
# crystal, experimental, refinement or atomic coordinate data resulting 
# from the CCDC's data processing and validation procedures.
#
#######################################################################

data_UXOLOK
_chemical_formula_moiety         'C12 H15 Cl1 O3'
_chemical_name_systematic        
'(2-(2-chlorophenyl)-5-methyl- 1,3-dioxan-5-yl)methanol'
_symmetry_cell_setting           monoclinic
_symmetry_space_group_name_H-M   'P 21/c'
_symmetry_Int_Tables_number      14
_space_group_name_Hall           '-P 2ybc'
loop_
_symmetry_equiv_pos_site_id
_symmetry_equiv_pos_as_xyz
1 x,y,z
2 -x,1/2+y,1/2-z
3 -x,-y,-z
4 x,1/2-y,1/2+z
_cell_length_a                   10.0231(14)
_cell_length_b                   10.7318(16)
_cell_length_c                   11.2419(17)
_cell_angle_alpha                90
_cell_angle_beta                 106.637(7)
_cell_angle_gamma                90
_cell_volume                     1158.62
_exptl_crystal_colour            colorless
_exptl_crystal_description       block
_cell_formula_units_Z            4
loop_
_atom_site_label
_atom_site_type_symbol
_atom_site_fract_x
_atom_site_fract_y
_atom_site_fract_z
Cl1 Cl 0.04575(7) 0.01475(6) 0.28544(8)
O1 O 0.32246(16) -0.14102(12) 0.25111(16)
O2 O 0.23843(16) -0.19771(13) 0.04365(16)
C1 C 0.2081(2) -0.13461(17) 0.1417(2)
H1 H 0.1251 -0.1710 0.1576
C2 C 0.1828(2) 0.00109(19) 0.1086(2)
C3 C 0.1111(2) 0.07519(18) 0.1700(2)
C4 C 0.3740(2) -0.35153(17) 0.1898(2)
C5 C 0.1407(3) 0.2519(2) 0.0520(3)
H2 H 0.1264 0.3360 0.0324
C6 C 0.2569(2) -0.32810(19) 0.0708(2)
H3 H 0.2783 -0.3703 0.0022
H4 H 0.1708 -0.3627 0.0796
C7 C 0.3466(3) -0.26883(19) 0.2908(2)
H5 H 0.2660 -0.3001 0.3128
H6 H 0.4260 -0.2728 0.3643
C8 C 0.5147(3) -0.3190(2) 0.1711(3)
C9 C 0.0897(3) 0.20150(19) 0.1426(3)
H7 H 0.0418 0.2508 0.1848
C10 C 0.2326(3) 0.0545(2) 0.0179(3)
H8 H 0.2803 0.0056 -0.0248
C11 C 0.2125(3) 0.1800(2) -0.0103(3)
H9 H 0.2472 0.2154 -0.0708
C12 C 0.3707(3) -0.4873(2) 0.2279(3)
H10 H 0.2832 -0.5048 0.2433
H11 H 0.4451 -0.5026 0.3020
H12 H 0.3816 -0.5402 0.1625
O3 O 0.5531(3) -0.3938(2) 0.0839(3)
H13 H 0.4854 -0.4048 0.0235
H14 H 0.592(3) -0.325(2) 0.254(3)
H15 H 0.513(3) -0.228(2) 0.142(3)
loop_
_geom_bond_atom_site_label_1
_geom_bond_atom_site_label_2
_geom_bond_site_symmetry_1
_geom_bond_site_symmetry_2
Cl1 C3 1_555 1_555
O1 C1 1_555 1_555
O2 C1 1_555 1_555
C1 H1 1_555 1_555
C2 C1 1_555 1_555
C3 C2 1_555 1_555
C4 C6 1_555 1_555
C5 H2 1_555 1_555
C6 O2 1_555 1_555
H3 C6 1_555 1_555
H4 C6 1_555 1_555
C7 O1 1_555 1_555
H5 C7 1_555 1_555
H6 C7 1_555 1_555
C8 C4 1_555 1_555
C9 C3 1_555 1_555
H7 C9 1_555 1_555
C10 C2 1_555 1_555
H8 C10 1_555 1_555
C11 C5 1_555 1_555
H9 C11 1_555 1_555
C12 C4 1_555 1_555
H10 C12 1_555 1_555
H11 C12 1_555 1_555
H12 C12 1_555 1_555
O3 C8 1_555 1_555
H13 O3 1_555 1_555
H14 C8 1_555 1_555
H15 C8 1_555 1_555
C4 C7 1_555 1_555
C5 C9 1_555 1_555
C10 C11 1_555 1_555

#END
