
#######################################################################
#
#                 Cambridge Crystallographic Data Centre
#                                CCDC 
#
#######################################################################
#
# If this CIF has been generated from an entry in the Cambridge 
# Structural Database, then it will include bibliographic, chemical, 
# crystal, experimental, refinement or atomic coordinate data resulting 
# from the CCDC's data processing and validation procedures.
#
#######################################################################

data_UXUGUQ
_chemical_formula_moiety         'C21 H30 N2 O6'
_chemical_name_systematic        
't-Butyl (4-(4-benzyl-2-oxo-1,3-oxazolidin-3-yl)-2-hydroxy-3-methyl-4-oxobutyl)methylcarbamate'
_symmetry_cell_setting           orthorhombic
_symmetry_space_group_name_H-M   'P 21 21 21'
_symmetry_Int_Tables_number      19
_space_group_name_Hall           'P 2ac 2ab'
loop_
_symmetry_equiv_pos_site_id
_symmetry_equiv_pos_as_xyz
1 x,y,z
2 1/2-x,-y,1/2+z
3 -x,1/2+y,1/2-z
4 1/2+x,1/2-y,-z
_cell_length_a                   10.6343(2)
_cell_length_b                   10.6971(2)
_cell_length_c                   18.9211(3)
_cell_angle_alpha                90
_cell_angle_beta                 90
_cell_angle_gamma                90
_cell_volume                     2152.39
_exptl_crystal_colour            colorless
_exptl_crystal_description       block
_cell_formula_units_Z            4
loop_
_atom_site_label
_atom_site_type_symbol
_atom_site_fract_x
_atom_site_fract_y
_atom_site_fract_z
O1 O 0.06593(8) 0.21393(7) 0.27305(4)
O2 O 0.25855(8) 0.25432(8) 0.23206(5)
O3 O 0.25225(8) -0.13669(8) 0.20656(5)
O4 O 0.62270(8) -0.01881(8) 0.23103(5)
H1 H 0.6732(14) -0.0786(14) 0.2392(8)
O5 O 0.29157(7) 0.05585(8) 0.36974(4)
O6 O 0.43529(8) 0.16259(8) 0.43606(4)
N1 N 0.17279(9) 0.05360(9) 0.22813(5)
N2 N 0.49904(9) 0.00465(10) 0.36790(5)
C1 C 0.17534(10) 0.18018(11) 0.24375(6)
C2 C -0.01004(12) 0.10355(11) 0.28635(6)
H2 H -0.0994 0.1196 0.2749
H3 H -0.0037 0.0777 0.3365
C3 C 0.04461(11) 0.00352(11) 0.23770(6)
H4 H 0.0483 -0.0785 0.2630
C4 C 0.27403(11) -0.02702(11) 0.21619(6)
C5 C 0.40623(10) 0.02716(11) 0.21319(6)
H5 H 0.4102 0.1044 0.2428
C6 C 0.43424(12) 0.06075(12) 0.13581(6)
H6 H 0.4292 -0.0148 0.1066
H7 H 0.5189 0.0964 0.1323
H8 H 0.3725 0.1220 0.1191
C7 C 0.49987(11) -0.06983(11) 0.24178(6)
H9 H 0.4918 -0.1484 0.2135
C8 C 0.47826(12) -0.10048(11) 0.31991(6)
H10 H 0.3908 -0.1304 0.3259
H11 H 0.5352 -0.1696 0.3336
C9 C 0.62661(13) 0.02900(16) 0.39359(8)
H12 H 0.6568 0.1085 0.3742
H13 H 0.6825 -0.0388 0.3785
H14 H 0.6259 0.0336 0.4453
C10 C 0.39928(11) 0.07304(11) 0.38965(6)
C11 C 0.33921(11) 0.23825(11) 0.47282(6)
C12 C 0.41829(11) 0.32118(12) 0.52057(6)
H15 H 0.4717 0.2689 0.5507
H16 H 0.3629 0.3722 0.5503
H17 H 0.4712 0.3759 0.4916
C13 C 0.25514(12) 0.15377(12) 0.51691(7)
H18 H 0.2102 0.0957 0.4858
H19 H 0.1943 0.2048 0.5430
H20 H 0.3068 0.1063 0.5504
C14 C 0.26589(12) 0.31726(11) 0.42045(6)
H21 H 0.3247 0.3625 0.3899
H22 H 0.2133 0.3772 0.4462
H23 H 0.2123 0.2630 0.3915
C15 C -0.02439(11) -0.01218(11) 0.16681(6)
H24 H 0.0204 -0.0757 0.1383
H25 H -0.1101 -0.0442 0.1762
C16 C -0.03471(11) 0.10683(11) 0.12395(6)
C17 C -0.14208(12) 0.18074(13) 0.12754(7)
H26 H -0.2114 0.1544 0.1555
C18 C -0.14886(15) 0.29282(14) 0.09052(8)
H27 H -0.2223 0.3430 0.0937
C19 C -0.04943(16) 0.33135(14) 0.04924(8)
H28 H -0.0543 0.4081 0.0242
C20 C 0.05712(15) 0.25856(14) 0.04430(8)
H29 H 0.1255 0.2848 0.0156
C21 C 0.06432(13) 0.14664(12) 0.08148(7)
H30 H 0.1379 0.0967 0.0778
loop_
_geom_bond_atom_site_label_1
_geom_bond_atom_site_label_2
_geom_bond_site_symmetry_1
_geom_bond_site_symmetry_2
O1 C1 1_555 1_555
O2 C1 1_555 1_555
O3 C4 1_555 1_555
O4 H1 1_555 1_555
O5 C10 1_555 1_555
O6 C10 1_555 1_555
N1 C1 1_555 1_555
N2 C8 1_555 1_555
C2 O1 1_555 1_555
H2 C2 1_555 1_555
H3 C2 1_555 1_555
C3 N1 1_555 1_555
H4 C3 1_555 1_555
C4 N1 1_555 1_555
C5 C4 1_555 1_555
H5 C5 1_555 1_555
C6 C5 1_555 1_555
H6 C6 1_555 1_555
H7 C6 1_555 1_555
H8 C6 1_555 1_555
C7 O4 1_555 1_555
H9 C7 1_555 1_555
C8 C7 1_555 1_555
H10 C8 1_555 1_555
H11 C8 1_555 1_555
C9 N2 1_555 1_555
H12 C9 1_555 1_555
H13 C9 1_555 1_555
H14 C9 1_555 1_555
C10 N2 1_555 1_555
C11 O6 1_555 1_555
C12 C11 1_555 1_555
H15 C12 1_555 1_555
H16 C12 1_555 1_555
H17 C12 1_555 1_555
C13 C11 1_555 1_555
H18 C13 1_555 1_555
H19 C13 1_555 1_555
H20 C13 1_555 1_555
C14 C11 1_555 1_555
H21 C14 1_555 1_555
H22 C14 1_555 1_555
H23 C14 1_555 1_555
C15 C3 1_555 1_555
H24 C15 1_555 1_555
H25 C15 1_555 1_555
C16 C15 1_555 1_555
C17 C16 1_555 1_555
H26 C17 1_555 1_555
C18 C17 1_555 1_555
H27 C18 1_555 1_555
C19 C18 1_555 1_555
H28 C19 1_555 1_555
C20 C19 1_555 1_555
H29 C20 1_555 1_555
C21 C16 1_555 1_555
H30 C21 1_555 1_555
C2 C3 1_555 1_555
C5 C7 1_555 1_555
C20 C21 1_555 1_555

#END
