
#######################################################################
#
#                 Cambridge Crystallographic Data Centre
#                                CCDC 
#
#######################################################################
#
# If this CIF has been generated from an entry in the Cambridge 
# Structural Database, then it will include bibliographic, chemical, 
# crystal, experimental, refinement or atomic coordinate data resulting 
# from the CCDC's data processing and validation procedures.
#
#######################################################################

data_UXUGAX
_chemical_name_common            
2,4-dibromo-6-(((4-(N-ethoxyethanimidoyl)phenyl)imino)methyl)phenol
_chemical_formula_moiety         'C17 H16 Br2 N2 O2'
_chemical_name_systematic        
'(E)-1-(4-(((E)-3,5-dibromo-2-hydroxybenzylidene)amino)phenyl)ethan-1-one O-ethyl oxime'
_symmetry_cell_setting           monoclinic
_symmetry_space_group_name_H-M   'P 21/c'
_symmetry_Int_Tables_number      14
_space_group_name_Hall           '-P 2ybc'
loop_
_symmetry_equiv_pos_site_id
_symmetry_equiv_pos_as_xyz
1 x,y,z
2 -x,1/2+y,1/2-z
3 -x,-y,-z
4 x,1/2-y,1/2+z
_cell_length_a                   9.2648(14)
_cell_length_b                   13.3034(16)
_cell_length_c                   14.510(2)
_cell_angle_alpha                90
_cell_angle_beta                 105.261(15)
_cell_angle_gamma                90
_cell_volume                     1725.34
_exptl_crystal_colour            'light yellow'
_exptl_crystal_description       needle
_cell_formula_units_Z            4
loop_
_atom_site_label
_atom_site_type_symbol
_atom_site_fract_x
_atom_site_fract_y
_atom_site_fract_z
Br1 Br -0.33148(8) 0.21991(5) 0.18487(5)
Br2 Br -0.32495(9) -0.18112(6) 0.05760(5)
O1 O -0.0578(5) 0.1511(3) 0.3310(3)
H1 H 0.0023 0.1291 0.3787
O2 O 0.7705(5) 0.0538(4) 0.8879(3)
N1 N 0.1322(6) 0.0244(4) 0.4254(3)
N2 N 0.6465(6) 0.0636(4) 0.8092(4)
C1 C -0.1135(6) 0.0756(4) 0.2723(4)
C2 C -0.2412(6) 0.0903(4) 0.1978(4)
C3 C -0.3047(6) 0.0150(5) 0.1355(4)
H2 H -0.3919 0.0265 0.0875
C4 C -0.2360(7) -0.0781(5) 0.1457(4)
C5 C -0.1111(7) -0.0974(4) 0.2185(4)
H3 H -0.0680 -0.1610 0.2250
C6 C -0.0488(7) -0.0215(4) 0.2827(4)
C7 C 0.0785(7) -0.0429(4) 0.3629(4)
H4 H 0.1217 -0.1065 0.3690
C8 C 0.2528(6) 0.0073(4) 0.5065(4)
C9 C 0.3393(7) -0.0787(5) 0.5242(4)
H5 H 0.3184 -0.1317 0.4809
C10 C 0.4572(7) -0.0871(5) 0.6061(4)
H6 H 0.5138 -0.1458 0.6167
C11 C 0.4921(6) -0.0098(4) 0.6721(4)
C12 C 0.4012(6) 0.0761(4) 0.6547(4)
H7 H 0.4196 0.1281 0.6991
C13 C 0.2855(6) 0.0850(4) 0.5734(4)
H8 H 0.2283 0.1434 0.5629
C14 C 0.6200(6) -0.0177(5) 0.7578(4)
C15 C 0.7124(7) -0.1105(5) 0.7812(5)
H9 H 0.8037 -0.0953 0.8285
H10 H 0.7353 -0.1353 0.7245
H11 H 0.6578 -0.1607 0.8056
C16 C 0.7922(9) 0.1468(6) 0.9376(5)
H12 H 0.7118 0.1581 0.9678
H13 H 0.7922 0.2014 0.8934
C17 C 0.9398(7) 0.1431(6) 1.0121(5)
H14 H 1.0197 0.1412 0.9813
H15 H 0.9437 0.0840 1.0506
H16 H 0.9501 0.2017 1.0518
loop_
_geom_bond_atom_site_label_1
_geom_bond_atom_site_label_2
_geom_bond_site_symmetry_1
_geom_bond_site_symmetry_2
Br1 C2 1_555 1_555
Br2 C4 1_555 1_555
O1 H1 1_555 1_555
O2 N2 1_555 1_555
N1 C7 1_555 1_555
N2 C14 1_555 1_555
C1 O1 1_555 1_555
C2 C1 1_555 1_555
C3 C2 1_555 1_555
H2 C3 1_555 1_555
C4 C3 1_555 1_555
C5 C4 1_555 1_555
H3 C5 1_555 1_555
C6 C1 1_555 1_555
C7 C6 1_555 1_555
H4 C7 1_555 1_555
C8 N1 1_555 1_555
C9 C8 1_555 1_555
H5 C9 1_555 1_555
C10 C9 1_555 1_555
H6 C10 1_555 1_555
C11 C10 1_555 1_555
C12 C11 1_555 1_555
H7 C12 1_555 1_555
C13 C8 1_555 1_555
H8 C13 1_555 1_555
C14 C11 1_555 1_555
C15 C14 1_555 1_555
H9 C15 1_555 1_555
H10 C15 1_555 1_555
H11 C15 1_555 1_555
C16 O2 1_555 1_555
H12 C16 1_555 1_555
H13 C16 1_555 1_555
C17 C16 1_555 1_555
H14 C17 1_555 1_555
H15 C17 1_555 1_555
H16 C17 1_555 1_555
C5 C6 1_555 1_555
C12 C13 1_555 1_555

#END
