
#######################################################################
#
#                 Cambridge Crystallographic Data Centre
#                                CCDC 
#
#######################################################################
#
# If this CIF has been generated from an entry in the Cambridge 
# Structural Database, then it will include bibliographic, chemical, 
# crystal, experimental, refinement or atomic coordinate data resulting 
# from the CCDC's data processing and validation procedures.
#
#######################################################################

data_UXUHAX
_chemical_formula_moiety         'C11 H21 N1 O5,H2 O1'
_chemical_name_systematic        
'4-((t-Butoxycarbonyl)(methyl)amino)-3-hydroxy-2-methylbutanoic acid monohydrate'
_symmetry_cell_setting           orthorhombic
_symmetry_space_group_name_H-M   'P 21 21 21'
_symmetry_Int_Tables_number      19
_space_group_name_Hall           'P 2ac 2ab'
loop_
_symmetry_equiv_pos_site_id
_symmetry_equiv_pos_as_xyz
1 x,y,z
2 1/2-x,-y,1/2+z
3 -x,1/2+y,1/2-z
4 1/2+x,1/2-y,-z
_cell_length_a                   8.4346(9)
_cell_length_b                   8.7625(9)
_cell_length_c                   19.9199(19)
_cell_angle_alpha                90
_cell_angle_beta                 90
_cell_angle_gamma                90
_cell_volume                     1472.24
_exptl_crystal_colour            colorless
_exptl_crystal_description       block
_cell_formula_units_Z            4
loop_
_atom_site_label
_atom_site_type_symbol
_atom_site_fract_x
_atom_site_fract_y
_atom_site_fract_z
O1 O 0.94477(10) 0.75424(12) 0.97147(4)
O2 O 1.01312(10) 0.74132(11) 0.86393(4)
H1 H 1.1045(16) 0.7355(18) 0.8822(7)
O3 O 0.53108(9) 0.64202(10) 0.82474(4)
H2 H 0.5233(17) 0.6660(17) 0.7839(6)
O4 O 0.46111(10) 0.20062(9) 0.80458(4)
O5 O 0.44978(9) 0.32268(9) 0.90466(4)
N1 N 0.66420(11) 0.35093(11) 0.83948(5)
C1 C 0.90856(13) 0.75392(13) 0.91237(5)
C2 C 0.73987(14) 0.76946(13) 0.88723(5)
H3 H 0.6673 0.7724 0.9269
C3 C 0.72115(17) 0.91901(14) 0.84815(7)
H4 H 0.7526 1.0049 0.8767
H5 H 0.6102 0.9314 0.8346
H6 H 0.7887 0.9164 0.8081
C4 C 0.69371(13) 0.63228(13) 0.84309(5)
H7 H 0.7603 0.6325 0.8016
C5 C 0.71634(13) 0.48099(13) 0.88000(5)
H8 H 0.8298 0.4682 0.8914
H9 H 0.6553 0.4831 0.9224
C6 C 0.74863(14) 0.32393(14) 0.77633(6)
H10 H 0.7453 0.2149 0.7655
H11 H 0.8592 0.3566 0.7810
H12 H 0.6979 0.3822 0.7402
C7 C 0.51943(13) 0.28709(12) 0.84628(5)
C8 C 0.29275(14) 0.25919(13) 0.92231(5)
C9 C 0.30199(16) 0.08642(14) 0.92849(6)
H13 H 0.3214 0.0417 0.8842
H14 H 0.2017 0.0473 0.9464
H15 H 0.3888 0.0589 0.9589
C10 C 0.26262(15) 0.33217(14) 0.99052(6)
H16 H 0.3471 0.3026 1.0217
H17 H 0.1602 0.2974 1.0080
H18 H 0.2612 0.4435 0.9857
C11 C 0.16822(15) 0.31029(15) 0.87176(6)
H19 H 0.1732 0.4214 0.8665
H20 H 0.0627 0.2810 0.8878
H21 H 0.1886 0.2613 0.8284
O6 O 0.79060(10) 0.79654(11) 1.09147(4)
H22 H 0.8236(19) 0.7782(18) 1.0521(7)
H23 H 0.8676(17) 0.8141(19) 1.1178(7)
loop_
_geom_bond_atom_site_label_1
_geom_bond_atom_site_label_2
_geom_bond_site_symmetry_1
_geom_bond_site_symmetry_2
O1 C1 1_555 1_555
O2 H1 1_555 1_555
O3 H2 1_555 1_555
O4 C7 1_555 1_555
O5 C7 1_555 1_555
N1 C5 1_555 1_555
C1 O2 1_555 1_555
C2 C1 1_555 1_555
H3 C2 1_555 1_555
C3 C2 1_555 1_555
H4 C3 1_555 1_555
H5 C3 1_555 1_555
H6 C3 1_555 1_555
C4 O3 1_555 1_555
H7 C4 1_555 1_555
C5 C4 1_555 1_555
H8 C5 1_555 1_555
H9 C5 1_555 1_555
C6 N1 1_555 1_555
H10 C6 1_555 1_555
H11 C6 1_555 1_555
H12 C6 1_555 1_555
C7 N1 1_555 1_555
C8 O5 1_555 1_555
C9 C8 1_555 1_555
H13 C9 1_555 1_555
H14 C9 1_555 1_555
H15 C9 1_555 1_555
C10 C8 1_555 1_555
H16 C10 1_555 1_555
H17 C10 1_555 1_555
H18 C10 1_555 1_555
C11 C8 1_555 1_555
H19 C11 1_555 1_555
H20 C11 1_555 1_555
H21 C11 1_555 1_555
O6 H22 1_555 1_555
H23 O6 1_555 1_555
C2 C4 1_555 1_555

#END
