
#######################################################################
#
#                 Cambridge Crystallographic Data Centre
#                                CCDC 
#
#######################################################################
#
# If this CIF has been generated from an entry in the Cambridge 
# Structural Database, then it will include bibliographic, chemical, 
# crystal, experimental, refinement or atomic coordinate data resulting 
# from the CCDC's data processing and validation procedures.
#
#######################################################################

data_UXUJUU
_chemical_formula_moiety         'C16 H11 F3 N2 O2'
_chemical_name_systematic        
2-amino-5-oxo-4-(3,4,5-trifluorophenyl)-5,6,7,8-tetrahydro-4H-chromene-3-carbonitrile
_symmetry_cell_setting           triclinic
_symmetry_space_group_name_H-M   'P -1'
_symmetry_Int_Tables_number      2
_space_group_name_Hall           '-P 1'
loop_
_symmetry_equiv_pos_site_id
_symmetry_equiv_pos_as_xyz
1 x,y,z
2 -x,-y,-z
_cell_length_a                   8.3288(5)
_cell_length_b                   8.6385(8)
_cell_length_c                   11.6004(8)
_cell_angle_alpha                111.488(7)
_cell_angle_beta                 94.705(6)
_cell_angle_gamma                99.107(6)
_cell_volume                     757.873
_exptl_crystal_colour            colorless
_exptl_crystal_description       block
_cell_formula_units_Z            2
loop_
_atom_site_label
_atom_site_type_symbol
_atom_site_fract_x
_atom_site_fract_y
_atom_site_fract_z
O1 O 0.48780(16) 0.40895(17) 0.31360(14)
O2 O 1.05477(18) 0.4175(2) 0.35629(16)
C1 C 0.8135(2) 0.6104(2) 0.35036(17)
H1 H 0.9062 0.6643 0.4190
C2 C 0.6647(2) 0.6809(2) 0.39365(17)
C3 C 0.7764(2) 0.4226(2) 0.32121(18)
C4 C 0.6822(2) 0.8582(3) 0.45636(19)
C5 C 0.6230(2) 0.3340(2) 0.29954(19)
C6 C 0.8612(2) 0.6444(2) 0.23621(18)
N1 N 0.3722(2) 0.6309(2) 0.39549(18)
H2 H 0.3707 0.7371 0.4315
H3 H 0.2824 0.5562 0.3760
C7 C 0.9140(3) 0.3369(3) 0.3229(2)
C8 C 0.5133(2) 0.5822(2) 0.37001(18)
N2 N 0.6974(2) 1.0025(2) 0.5071(2)
C9 C 0.5738(3) 0.1470(3) 0.2577(2)
H4 H 0.4765 0.1055 0.1944
H5 H 0.5470 0.1181 0.3281
C10 C 1.0141(3) 0.7360(3) 0.2405(2)
H6 H 1.0909 0.7771 0.3131
F1 F 0.9825(3) 0.7442(3) -0.06930(17)
C11 C 0.7503(3) 0.5854(3) 0.1275(2)
H7 H 0.6462 0.5234 0.1229
C12 C 0.8746(3) 0.1492(3) 0.2888(3)
H8 H 0.8718 0.1273 0.3649
H9 H 0.9618 0.1001 0.2477
F2 F 0.6855(3) 0.5624(3) -0.08032(16)
C13 C 1.0526(3) 0.7662(3) 0.1370(3)
F3 F 1.2013(2) 0.8560(3) 0.1397(2)
C14 C 0.7129(3) 0.0627(3) 0.2038(3)
H10 H 0.6888 -0.0559 0.1927
H11 H 0.7210 0.0676 0.1222
C15 C 0.9440(4) 0.7100(3) 0.0303(3)
C16 C 0.7936(3) 0.6183(4) 0.0261(2)
loop_
_geom_bond_atom_site_label_1
_geom_bond_atom_site_label_2
_geom_bond_site_symmetry_1
_geom_bond_site_symmetry_2
O1 C5 1_555 1_555
O2 C7 1_555 1_555
C1 H1 1_555 1_555
C2 C1 1_555 1_555
C3 C1 1_555 1_555
C4 C2 1_555 1_555
C5 C3 1_555 1_555
C6 C1 1_555 1_555
N1 H2 1_555 1_555
H3 N1 1_555 1_555
C7 C3 1_555 1_555
C8 O1 1_555 1_555
N2 C4 1_555 1_555
C9 C5 1_555 1_555
H4 C9 1_555 1_555
H5 C9 1_555 1_555
C10 C6 1_555 1_555
H6 C10 1_555 1_555
F1 C15 1_555 1_555
C11 C6 1_555 1_555
H7 C11 1_555 1_555
C12 C7 1_555 1_555
H8 C12 1_555 1_555
H9 C12 1_555 1_555
F2 C16 1_555 1_555
C13 C10 1_555 1_555
F3 C13 1_555 1_555
C14 C9 1_555 1_555
H10 C14 1_555 1_555
H11 C14 1_555 1_555
C15 C13 1_555 1_555
C16 C11 1_555 1_555
C2 C8 1_555 1_555
N1 C8 1_555 1_555
C12 C14 1_555 1_555
C15 C16 1_555 1_555

#END
