
#######################################################################
#
#                 Cambridge Crystallographic Data Centre
#                                CCDC 
#
#######################################################################
#
# If this CIF has been generated from an entry in the Cambridge 
# Structural Database, then it will include bibliographic, chemical, 
# crystal, experimental, refinement or atomic coordinate data resulting 
# from the CCDC's data processing and validation procedures.
#
#######################################################################

data_UXUPIO
_chemical_formula_moiety         'C12 H13 Br1 O4'
_chemical_name_systematic        
'2-(2-bromophenyl)-5-methyl-1,3-dioxane-5-carboxylic acid'
_symmetry_cell_setting           monoclinic
_symmetry_space_group_name_H-M   'P 21/c'
_symmetry_Int_Tables_number      14
_space_group_name_Hall           '-P 2ybc'
loop_
_symmetry_equiv_pos_site_id
_symmetry_equiv_pos_as_xyz
1 x,y,z
2 -x,1/2+y,1/2-z
3 -x,-y,-z
4 x,1/2-y,1/2+z
_cell_length_a                   9.599(2)
_cell_length_b                   14.399(3)
_cell_length_c                   9.2361(19)
_cell_angle_alpha                90
_cell_angle_beta                 100.182(2)
_cell_angle_gamma                90
_cell_volume                     1256.47
_exptl_crystal_colour            colorless
_exptl_crystal_description       block
_cell_formula_units_Z            4
loop_
_atom_site_label
_atom_site_type_symbol
_atom_site_fract_x
_atom_site_fract_y
_atom_site_fract_z
Br1 Br 0.16305(3) 0.45753(2) 0.14203(3)
O1 O 0.4150(2) -0.00406(12) 0.31994(18)
O2 O 0.19316(15) 0.14517(10) 0.15840(14)
O3 O 0.5480(2) 0.10718(12) 0.43947(18)
O4 O 0.33107(14) 0.26320(9) 0.27958(14)
C1 C 0.4709(2) 0.07564(14) 0.3265(2)
C2 C 0.4494(2) 0.13302(14) 0.1856(2)
C3 C 0.3065(2) 0.11100(14) 0.0905(2)
H1 H 0.3013 0.1394 -0.0055
H2 H 0.2970 0.0444 0.0769
C4 C 0.2065(2) 0.24154(14) 0.1783(2)
H3 H 0.2102 0.2713 0.0837
C5 C 0.0825(2) 0.27914(15) 0.2393(2)
C6 C 0.0504(2) 0.37325(16) 0.2318(3)
C7 C -0.0619(3) 0.4089(2) 0.2878(4)
H4 H -0.0825 0.4720 0.2805
C8 C -0.1429(3) 0.3499(2) 0.3547(4)
H5 H -0.2187 0.3736 0.3933
C9 C 0.4529(2) 0.23655(14) 0.2203(2)
H6 H 0.5377 0.2509 0.2905
H7 H 0.4558 0.2716 0.1312
C10 C -0.0017(2) 0.22111(17) 0.3076(3)
H8 H 0.0176 0.1578 0.3143
C11 C -0.1140(3) 0.2564(2) 0.3658(3)
H9 H -0.1695 0.2173 0.4120
C12 C 0.5711(3) 0.11010(18) 0.1032(2)
H10 H 0.6570 0.1379 0.1535
H11 H 0.5492 0.1341 0.0048
H12 H 0.5829 0.0440 0.0998
H13 H 0.563(7) 0.070(5) 0.500(7)
loop_
_geom_bond_atom_site_label_1
_geom_bond_atom_site_label_2
_geom_bond_site_symmetry_1
_geom_bond_site_symmetry_2
Br1 C6 1_555 1_555
O1 C1 1_555 1_555
O2 C3 1_555 1_555
O3 C1 1_555 1_555
O4 C4 1_555 1_555
C1 C2 1_555 1_555
C2 C3 1_555 1_555
C3 H1 1_555 1_555
H2 C3 1_555 1_555
C4 O2 1_555 1_555
H3 C4 1_555 1_555
C5 C4 1_555 1_555
C6 C5 1_555 1_555
C7 C6 1_555 1_555
H4 C7 1_555 1_555
C8 C7 1_555 1_555
H5 C8 1_555 1_555
C9 O4 1_555 1_555
H6 C9 1_555 1_555
H7 C9 1_555 1_555
C10 C5 1_555 1_555
H8 C10 1_555 1_555
C11 C8 1_555 1_555
H9 C11 1_555 1_555
C12 C2 1_555 1_555
H10 C12 1_555 1_555
H11 C12 1_555 1_555
H12 C12 1_555 1_555
H13 O3 1_555 1_555
C2 C9 1_555 1_555
C10 C11 1_555 1_555

#END
