
#######################################################################
#
#                 Cambridge Crystallographic Data Centre
#                                CCDC 
#
#######################################################################
#
# If this CIF has been generated from an entry in the Cambridge 
# Structural Database, then it will include bibliographic, chemical, 
# crystal, experimental, refinement or atomic coordinate data resulting 
# from the CCDC's data processing and validation procedures.
#
#######################################################################

data_UXUTUE
_chemical_formula_moiety         'C22 H19 N1 O2'
_chemical_name_systematic        
(4-(dimethylamino)-1,3-phenylene)bis(phenylmethanone)
_symmetry_cell_setting           monoclinic
_symmetry_space_group_name_H-M   'P 21/c'
_symmetry_Int_Tables_number      14
_space_group_name_Hall           '-P 2ybc'
loop_
_symmetry_equiv_pos_site_id
_symmetry_equiv_pos_as_xyz
1 x,y,z
2 -x,1/2+y,1/2-z
3 -x,-y,-z
4 x,1/2-y,1/2+z
_cell_length_a                   12.7728(19)
_cell_length_b                   7.9765(12)
_cell_length_c                   20.451(3)
_cell_angle_alpha                90
_cell_angle_beta                 123.946(7)
_cell_angle_gamma                90
_cell_volume                     1728.47
_exptl_crystal_colour            colorless
_exptl_crystal_description       block
_cell_formula_units_Z            4
loop_
_atom_site_label
_atom_site_type_symbol
_atom_site_fract_x
_atom_site_fract_y
_atom_site_fract_z
O1 O 0.33289(11) 0.8899(2) 0.07217(7)
O2 O 0.24768(10) 0.76442(13) 0.36947(7)
N1 N 0.52798(11) 0.83648(16) 0.43202(7)
C1 C 0.27577(11) 0.67266(16) 0.33420(7)
C2 C 0.46157(11) 0.84040(17) 0.35182(8)
C3 C 0.34993(11) 0.74243(16) 0.30369(7)
C4 C 0.43824(12) 0.94241(19) 0.23249(9)
H1 H 0.4671 1.0113 0.2091
C5 C 0.23266(10) 0.49418(16) 0.31823(7)
C6 C 0.33100(12) 0.84220(17) 0.18439(8)
C7 C 0.27137(13) 0.8450(2) 0.09814(9)
C8 C 0.29031(11) 0.74308(16) 0.22229(8)
H2 H 0.2203 0.6745 0.1918
C9 C 0.50114(11) 0.94120(19) 0.31270(9)
H3 H 0.5721 1.0087 0.3424
C10 C 0.13796(12) 0.44626(19) 0.32860(9)
H4 H 0.0999 0.5257 0.3421
C11 C 0.13673(13) 0.7931(2) 0.04205(8)
C12 C 0.25130(13) 0.2083(2) 0.28954(9)
H5 H 0.2895 0.1280 0.2765
C13 C 0.28844(12) 0.37398(18) 0.29823(8)
H6 H 0.3511 0.4049 0.2906
C14 C 0.15772(14) 0.16143(19) 0.30015(9)
H7 H 0.1334 0.0497 0.2947
C15 C 0.10063(14) 0.2803(2) 0.31871(10)
H8 H 0.0363 0.2489 0.3247
C16 C 0.04414(13) 0.8227(2) 0.05660(9)
H9 H 0.0661 0.8700 0.1042
C17 C -0.08077(15) 0.7820(2) 0.00031(11)
H10 H -0.1428 0.8035 0.0097
C18 C 0.10247(16) 0.7236(2) -0.02963(10)
H11 H 0.1633 0.7065 -0.0405
C19 C -0.11231(17) 0.7095(3) -0.06947(11)
H12 H -0.1957 0.6800 -0.1068
C20 C 0.62596(14) 0.9609(2) 0.47885(10)
H13 H 0.7030 0.9269 0.4849
H14 H 0.6394 0.9703 0.5298
H15 H 0.5999 1.0675 0.4527
C21 C -0.02127(19) 0.6801(3) -0.08460(10)
H16 H -0.0435 0.6309 -0.1319
C22 C 0.52899(14) 0.6914(2) 0.47520(9)
H17 H 0.4728 0.7104 0.4917
H18 H 0.6130 0.6735 0.5207
H19 H 0.5018 0.5943 0.4418
loop_
_geom_bond_atom_site_label_1
_geom_bond_atom_site_label_2
_geom_bond_site_symmetry_1
_geom_bond_site_symmetry_2
O1 C7 1_555 1_555
O2 C1 1_555 1_555
N1 C2 1_555 1_555
C1 C3 1_555 1_555
C2 C3 1_555 1_555
C3 C8 1_555 1_555
C4 H1 1_555 1_555
C5 C1 1_555 1_555
C6 C4 1_555 1_555
C7 C6 1_555 1_555
C8 C6 1_555 1_555
H2 C8 1_555 1_555
C9 C2 1_555 1_555
H3 C9 1_555 1_555
C10 C5 1_555 1_555
H4 C10 1_555 1_555
C11 C7 1_555 1_555
C12 H5 1_555 1_555
C13 C5 1_555 1_555
H6 C13 1_555 1_555
C14 C12 1_555 1_555
H7 C14 1_555 1_555
C15 C10 1_555 1_555
H8 C15 1_555 1_555
C16 C11 1_555 1_555
H9 C16 1_555 1_555
C17 C16 1_555 1_555
H10 C17 1_555 1_555
C18 C11 1_555 1_555
H11 C18 1_555 1_555
C19 C17 1_555 1_555
H12 C19 1_555 1_555
C20 N1 1_555 1_555
H13 C20 1_555 1_555
H14 C20 1_555 1_555
H15 C20 1_555 1_555
C21 C18 1_555 1_555
H16 C21 1_555 1_555
C22 N1 1_555 1_555
H17 C22 1_555 1_555
H18 C22 1_555 1_555
H19 C22 1_555 1_555
C4 C9 1_555 1_555
C12 C13 1_555 1_555
C14 C15 1_555 1_555
C19 C21 1_555 1_555

#END
