
#######################################################################
#
#                 Cambridge Crystallographic Data Centre
#                                CCDC 
#
#######################################################################
#
# If this CIF has been generated from an entry in the Cambridge 
# Structural Database, then it will include bibliographic, chemical, 
# crystal, experimental, refinement or atomic coordinate data resulting 
# from the CCDC's data processing and validation procedures.
#
#######################################################################

data_UXUZAQ
_chemical_formula_moiety         'C30 H31 N1'
_chemical_name_systematic        
4-(2-phenylpropan-2-yl)-N-(4-(2-phenylpropan-2-yl)phenyl)aniline
_symmetry_cell_setting           triclinic
_symmetry_space_group_name_H-M   'P -1'
_symmetry_Int_Tables_number      2
_space_group_name_Hall           '-P 1'
loop_
_symmetry_equiv_pos_site_id
_symmetry_equiv_pos_as_xyz
1 x,y,z
2 -x,-y,-z
_cell_length_a                   8.9828(11)
_cell_length_b                   10.1648(12)
_cell_length_c                   13.2961(15)
_cell_angle_alpha                81.273(2)
_cell_angle_beta                 72.201(2)
_cell_angle_gamma                82.271(2)
_cell_volume                     1137.53
_exptl_crystal_colour            colorless
_exptl_crystal_description       block
_cell_formula_units_Z            2
loop_
_atom_site_label
_atom_site_type_symbol
_atom_site_fract_x
_atom_site_fract_y
_atom_site_fract_z
N1 N -0.02202(15) 0.52472(15) 0.85041(10)
H1 H -0.0804 0.5275 0.9167
C1 C -0.09032(17) 0.58811(15) 0.77161(11)
C2 C -0.02276(17) 0.57890(15) 0.66328(11)
H2 H 0.0779 0.5318 0.6391
C3 C -0.10131(16) 0.63782(14) 0.59070(11)
H3 H -0.0523 0.6310 0.5172
C4 C -0.25029(16) 0.70699(14) 0.62178(11)
C5 C -0.31513(17) 0.71736(15) 0.73014(11)
H4 H -0.4154 0.7650 0.7544
C6 C -0.23691(17) 0.65986(16) 0.80324(11)
H5 H -0.2841 0.6695 0.8764
C7 C -0.33631(16) 0.76263(14) 0.53845(11)
C8 C -0.3770(2) 0.64531(16) 0.49517(12)
H6 H -0.4491 0.5926 0.5529
H7 H -0.2808 0.5887 0.4655
H8 H -0.4273 0.6795 0.4393
C9 C -0.49217(18) 0.84261(17) 0.58743(13)
H9 H -0.5447 0.8749 0.5325
H10 H -0.4721 0.9190 0.6168
H11 H -0.5595 0.7852 0.6443
C10 C -0.23257(16) 0.85411(15) 0.44951(11)
C11 C -0.18857(18) 0.83317(18) 0.34285(12)
H12 H -0.2203 0.7578 0.3231
C12 C -0.0989(2) 0.9212(2) 0.26507(15)
H13 H -0.0685 0.9048 0.1928
C13 C -0.0536(2) 1.0318(2) 0.29149(17)
H14 H 0.0061 1.0927 0.2376
C14 C -0.0951(2) 1.05411(19) 0.39662(17)
H15 H -0.0638 1.1303 0.4155
C15 C -0.18276(18) 0.96507(16) 0.47500(14)
H16 H -0.2091 0.9803 0.5474
C16 C 0.12822(17) 0.45765(15) 0.83559(11)
C17 C 0.14964(18) 0.34163(16) 0.90302(11)
H17 H 0.0617 0.3083 0.9567
C18 C 0.29696(17) 0.27505(15) 0.89243(11)
H18 H 0.3084 0.1972 0.9400
C19 C 0.42988(17) 0.31867(15) 0.81384(11)
C20 C 0.40750(17) 0.43668(15) 0.75032(11)
H19 H 0.4959 0.4715 0.6981
C21 C 0.26045(17) 0.50566(15) 0.76041(11)
H20 H 0.2501 0.5864 0.7155
C22 C 0.58984(17) 0.23665(15) 0.79899(11)
C23 C 0.71882(18) 0.30094(18) 0.70700(12)
H21 H 0.7285 0.3908 0.7211
H22 H 0.6912 0.3069 0.6405
H23 H 0.8190 0.2461 0.7007
C24 C 0.5743(2) 0.09871(17) 0.77111(14)
H24 H 0.6779 0.0480 0.7529
H25 H 0.5319 0.1102 0.7103
H26 H 0.5033 0.0500 0.8324
C25 C 0.64063(16) 0.22708(15) 0.89993(11)
C26 C 0.62758(18) 0.34173(16) 0.94852(12)
H27 H 0.5821 0.4234 0.9204
C27 C 0.67918(18) 0.33979(18) 1.03673(12)
H28 H 0.6687 0.4195 1.0685
C28 C 0.74578(19) 0.22257(19) 1.07873(12)
H29 H 0.7812 0.2208 1.1394
C29 C 0.7603(2) 0.10810(19) 1.03151(14)
H30 H 0.8068 0.0270 1.0596
C30 C 0.7077(2) 0.10961(16) 0.94322(13)
H31 H 0.7177 0.0294 0.9122
loop_
_geom_bond_atom_site_label_1
_geom_bond_atom_site_label_2
_geom_bond_site_symmetry_1
_geom_bond_site_symmetry_2
N1 H1 1_555 1_555
C1 N1 1_555 1_555
C2 C1 1_555 1_555
H2 C2 1_555 1_555
C3 C2 1_555 1_555
H3 C3 1_555 1_555
C4 C3 1_555 1_555
C5 C4 1_555 1_555
H4 C5 1_555 1_555
C6 C1 1_555 1_555
H5 C6 1_555 1_555
C7 C4 1_555 1_555
C8 C7 1_555 1_555
H6 C8 1_555 1_555
H7 C8 1_555 1_555
H8 C8 1_555 1_555
C9 C7 1_555 1_555
H9 C9 1_555 1_555
H10 C9 1_555 1_555
H11 C9 1_555 1_555
C10 C7 1_555 1_555
C11 C10 1_555 1_555
H12 C11 1_555 1_555
C12 C11 1_555 1_555
H13 C12 1_555 1_555
C13 C12 1_555 1_555
H14 C13 1_555 1_555
C14 C13 1_555 1_555
H15 C14 1_555 1_555
C15 C10 1_555 1_555
H16 C15 1_555 1_555
C16 N1 1_555 1_555
C17 C16 1_555 1_555
H17 C17 1_555 1_555
C18 C17 1_555 1_555
H18 C18 1_555 1_555
C19 C18 1_555 1_555
C20 C19 1_555 1_555
H19 C20 1_555 1_555
C21 C16 1_555 1_555
H20 C21 1_555 1_555
C22 C19 1_555 1_555
C23 C22 1_555 1_555
H21 C23 1_555 1_555
H22 C23 1_555 1_555
H23 C23 1_555 1_555
C24 C22 1_555 1_555
H24 C24 1_555 1_555
H25 C24 1_555 1_555
H26 C24 1_555 1_555
C25 C22 1_555 1_555
C26 C25 1_555 1_555
H27 C26 1_555 1_555
C27 C26 1_555 1_555
H28 C27 1_555 1_555
C28 C27 1_555 1_555
H29 C28 1_555 1_555
C29 C28 1_555 1_555
H30 C29 1_555 1_555
C30 C25 1_555 1_555
H31 C30 1_555 1_555
C5 C6 1_555 1_555
C14 C15 1_555 1_555
C20 C21 1_555 1_555
C29 C30 1_555 1_555

#END
