
#######################################################################
#
#                 Cambridge Crystallographic Data Centre
#                                CCDC 
#
#######################################################################
#
# If this CIF has been generated from an entry in the Cambridge 
# Structural Database, then it will include bibliographic, chemical, 
# crystal, experimental, refinement or atomic coordinate data resulting 
# from the CCDC's data processing and validation procedures.
#
#######################################################################

data_UYABEC
_chemical_formula_moiety         'C36 H24 O2'
_chemical_name_systematic        
1,2,3,3-Tetraphenylcyclopenta[b]chromen-9(3H)-one
_symmetry_cell_setting           monoclinic
_symmetry_space_group_name_H-M   'P 21/n'
_symmetry_Int_Tables_number      14
_space_group_name_Hall           '-P 2yn'
loop_
_symmetry_equiv_pos_site_id
_symmetry_equiv_pos_as_xyz
1 x,y,z
2 1/2-x,1/2+y,1/2-z
3 -x,-y,-z
4 1/2+x,1/2-y,1/2+z
_cell_length_a                   12.4946(8)
_cell_length_b                   9.7428(7)
_cell_length_c                   21.0397(15)
_cell_angle_alpha                90
_cell_angle_beta                 92.355(2)
_cell_angle_gamma                90
_cell_volume                     2559.05
_exptl_crystal_colour            colorless
_exptl_crystal_description       block
_cell_formula_units_Z            4
loop_
_atom_site_label
_atom_site_type_symbol
_atom_site_fract_x
_atom_site_fract_y
_atom_site_fract_z
O1 O 0.78274(9) 0.51077(13) 0.15568(6)
O2 O 0.88875(10) 0.76733(14) 0.01516(6)
C1 C 0.71048(13) 0.57611(18) 0.11417(8)
C2 C 0.60311(14) 0.5463(2) 0.12210(9)
H1 H 0.5827 0.4877 0.1550
C3 C 0.52722(15) 0.6036(2) 0.08112(10)
H2 H 0.4543 0.5842 0.0858
C4 C 0.55824(16) 0.6905(2) 0.03265(11)
H3 H 0.5061 0.7287 0.0045
C5 C 0.66423(15) 0.7206(2) 0.02566(9)
H4 H 0.6840 0.7800 -0.0071
C6 C 0.74369(13) 0.66380(18) 0.06678(8)
C7 C 0.85897(13) 0.69256(18) 0.05779(8)
C8 C 0.92841(13) 0.61945(17) 0.10334(8)
C9 C 0.88741(13) 0.53508(18) 0.14660(8)
C10 C 0.97162(13) 0.45380(18) 0.18404(8)
C11 C 1.07275(13) 0.50921(18) 0.15264(8)
C12 C 1.04682(13) 0.60556(18) 0.10890(8)
C13 C 0.94723(13) 0.30076(18) 0.17104(8)
C14 C 0.97290(14) 0.2432(2) 0.11304(8)
H5 H 1.0088 0.2963 0.0833
C15 C 0.94608(15) 0.1088(2) 0.09890(9)
H6 H 0.9646 0.0704 0.0599
C16 C 0.89208(15) 0.0306(2) 0.14206(10)
H7 H 0.8739 -0.0609 0.1324
C17 C 0.86508(15) 0.0871(2) 0.19917(10)
H8 H 0.8279 0.0342 0.2284
C18 C 0.89231(14) 0.22155(19) 0.21382(9)
H9 H 0.8735 0.2594 0.2529
C19 C 0.97689(13) 0.48802(19) 0.25532(8)
C20 C 0.91535(15) 0.5904(2) 0.28102(9)
H10 H 0.8695 0.6432 0.2542
C21 C 0.92070(18) 0.6159(2) 0.34597(10)
H11 H 0.8779 0.6850 0.3630
C22 C 0.98842(19) 0.5403(3) 0.38536(10)
H12 H 0.9916 0.5573 0.4294
C23 C 1.05181(17) 0.4394(2) 0.36037(9)
H13 H 1.0988 0.3885 0.3873
C24 C 1.04607(15) 0.4131(2) 0.29565(9)
H14 H 1.0892 0.3441 0.2788
C25 C 1.18366(13) 0.46924(19) 0.17405(8)
C26 C 1.24426(16) 0.5570(2) 0.21243(11)
H15 H 1.2158 0.6426 0.2236
C27 C 1.34647(17) 0.5212(3) 0.23485(12)
H16 H 1.3860 0.5816 0.2616
C28 C 1.38978(15) 0.3982(2) 0.21802(11)
H17 H 1.4586 0.3732 0.2336
C29 C 1.33230(17) 0.3120(3) 0.17842(12)
H18 H 1.3627 0.2286 0.1658
C30 C 1.22912(16) 0.3467(2) 0.15669(11)
H19 H 1.1901 0.2859 0.1299
C31 C 1.12268(13) 0.68929(18) 0.07284(8)
C32 C 1.12392(15) 0.8305(2) 0.07922(9)
H20 H 1.0767 0.8730 0.1067
C33 C 1.19393(16) 0.9103(2) 0.04559(10)
H21 H 1.1941 1.0062 0.0504
C34 C 1.26320(15) 0.8489(2) 0.00515(9)
H22 H 1.3099 0.9029 -0.0183
C35 C 1.26390(15) 0.7086(2) -0.00094(9)
H23 H 1.3120 0.6667 -0.0281
C36 C 1.19431(14) 0.6283(2) 0.03265(9)
H24 H 1.1955 0.5323 0.0282
loop_
_geom_bond_atom_site_label_1
_geom_bond_atom_site_label_2
_geom_bond_site_symmetry_1
_geom_bond_site_symmetry_2
O1 C1 1_555 1_555
O2 C7 1_555 1_555
C1 C2 1_555 1_555
C2 H1 1_555 1_555
C3 C2 1_555 1_555
H2 C3 1_555 1_555
C4 C3 1_555 1_555
H3 C4 1_555 1_555
C5 C4 1_555 1_555
H4 C5 1_555 1_555
C6 C1 1_555 1_555
C7 C6 1_555 1_555
C8 C7 1_555 1_555
C9 O1 1_555 1_555
C10 C9 1_555 1_555
C11 C10 1_555 1_555
C12 C8 1_555 1_555
C13 C10 1_555 1_555
C14 C13 1_555 1_555
H5 C14 1_555 1_555
C15 C14 1_555 1_555
H6 C15 1_555 1_555
C16 C15 1_555 1_555
H7 C16 1_555 1_555
C17 C16 1_555 1_555
H8 C17 1_555 1_555
C18 C13 1_555 1_555
H9 C18 1_555 1_555
C19 C10 1_555 1_555
C20 C19 1_555 1_555
H10 C20 1_555 1_555
C21 C20 1_555 1_555
H11 C21 1_555 1_555
C22 C21 1_555 1_555
H12 C22 1_555 1_555
C23 C22 1_555 1_555
H13 C23 1_555 1_555
C24 C19 1_555 1_555
H14 C24 1_555 1_555
C25 C11 1_555 1_555
C26 C25 1_555 1_555
H15 C26 1_555 1_555
C27 C26 1_555 1_555
H16 C27 1_555 1_555
C28 C27 1_555 1_555
H17 C28 1_555 1_555
C29 C28 1_555 1_555
H18 C29 1_555 1_555
C30 C25 1_555 1_555
H19 C30 1_555 1_555
C31 C12 1_555 1_555
C32 C31 1_555 1_555
H20 C32 1_555 1_555
C33 C32 1_555 1_555
H21 C33 1_555 1_555
C34 C33 1_555 1_555
H22 C34 1_555 1_555
C35 C34 1_555 1_555
H23 C35 1_555 1_555
C36 C31 1_555 1_555
H24 C36 1_555 1_555
C5 C6 1_555 1_555
C8 C9 1_555 1_555
C11 C12 1_555 1_555
C17 C18 1_555 1_555
C23 C24 1_555 1_555
C29 C30 1_555 1_555
C35 C36 1_555 1_555

#END
