
#######################################################################
#
#                 Cambridge Crystallographic Data Centre
#                                CCDC 
#
#######################################################################
#
# If this CIF has been generated from an entry in the Cambridge 
# Structural Database, then it will include bibliographic, chemical, 
# crystal, experimental, refinement or atomic coordinate data resulting 
# from the CCDC's data processing and validation procedures.
#
#######################################################################

data_UYAHIN
_chemical_formula_moiety         'C15 H15 N3 O2'
_chemical_name_systematic        
't-butyl pyrazolo[1,5-c]quinazoline-1-carboxylate'
_symmetry_cell_setting           orthorhombic
_symmetry_space_group_name_H-M   'P n m a'
_symmetry_Int_Tables_number      62
_space_group_name_Hall           '-P 2ac 2n'
loop_
_symmetry_equiv_pos_site_id
_symmetry_equiv_pos_as_xyz
1 x,y,z
2 1/2-x,-y,1/2+z
3 1/2+x,1/2-y,1/2-z
4 -x,1/2+y,-z
5 -x,-y,-z
6 1/2+x,y,1/2-z
7 1/2-x,1/2+y,1/2+z
8 x,1/2-y,z
_cell_length_a                   26.012(3)
_cell_length_b                   6.7475(8)
_cell_length_c                   16.0490(18)
_cell_angle_alpha                90
_cell_angle_beta                 90
_cell_angle_gamma                90
_cell_volume                     2816.86
_exptl_crystal_colour            colorless
_exptl_crystal_description       block
_cell_formula_units_Z            8
loop_
_atom_site_label
_atom_site_type_symbol
_atom_site_fract_x
_atom_site_fract_y
_atom_site_fract_z
O1 O 0.12125(7) 0.2500 0.71345(11)
O2 O 0.04709(7) 0.2500 0.63975(11)
N1 N 0.04518(9) 0.2500 0.93010(14)
N2 N -0.00348(8) 0.2500 0.89859(12)
N3 N -0.09201(10) 0.2500 0.92027(17)
C1 C 0.14644(9) 0.0632(3) 0.58925(14)
H1 H 0.1523 -0.0508 0.6237
H2 H 0.1697 0.0610 0.5429
H3 H 0.1117 0.0613 0.5691
C2 C 0.20809(12) 0.2500 0.6799(2)
H4 H 0.2119 0.1340 0.7138
H5 H 0.2339 0.2500 0.6372
C3 C 0.15522(10) 0.2500 0.63982(17)
C4 C 0.06949(9) 0.2500 0.70509(15)
C5 C 0.07408(10) 0.2500 0.86338(16)
H6 H 0.1098 0.2500 0.8654
C6 C 0.04614(9) 0.2500 0.78831(14)
C7 C -0.00541(9) 0.2500 0.81320(15)
C8 C -0.05599(9) 0.2500 0.77725(16)
C9 C -0.06600(10) 0.2500 0.69194(18)
H7 H -0.0389 0.2500 0.6541
C10 C -0.11619(11) 0.2500 0.6636(2)
H8 H -0.1228 0.2500 0.6066
C11 C -0.15680(12) 0.2500 0.7196(3)
H9 H -0.1904 0.2500 0.6999
C12 C -0.14788(11) 0.2500 0.8029(3)
H10 H -0.1755 0.2500 0.8397
C13 C -0.09796(10) 0.2500 0.8340(2)
C14 C -0.04630(12) 0.2500 0.94853(18)
H11 H -0.0417 0.2500 1.0060
C1G C 0.14644(9) 0.4368(3) 0.58925(14)
H1G H 0.1523 0.5508 0.6237
H2G H 0.1697 0.4390 0.5429
H3G H 0.1117 0.4387 0.5691
H4G H 0.2119 0.3660 0.7138
O3 O 0.26418(7) 0.2500 0.31860(11)
O4 O 0.19650(7) 0.2500 0.40531(12)
N4 N 0.16953(10) 0.2500 0.11853(14)
N5 N 0.12437(9) 0.2500 0.16148(13)
N6 N 0.03463(10) 0.2500 0.16178(15)
C15 C 0.29846(9) 0.0633(4) 0.43707(15)
H12 H 0.2668 0.0661 0.4678
H13 H 0.3268 0.0548 0.4752
H14 H 0.2987 -0.0498 0.4008
C16 C 0.35324(11) 0.2500 0.3365(2)
H15 H 0.3819 0.2500 0.3742
H16 H 0.3547 0.1341 0.3020
C17 C 0.30322(10) 0.2500 0.38589(17)
C18 C 0.21359(10) 0.2500 0.33582(15)
C19 C 0.20469(12) 0.2500 0.17771(16)
H17 H 0.2398 0.2500 0.1671
C20 C 0.18356(9) 0.2500 0.25880(15)
C21 C 0.13036(10) 0.2500 0.24678(14)
C22 C 0.08312(10) 0.2500 0.29391(15)
C23 C 0.08070(11) 0.2500 0.38145(16)
H18 H 0.1109 0.2500 0.4124
C24 C 0.03414(11) 0.2500 0.4215(2)
H19 H 0.0331 0.2500 0.4794
C25 C -0.01132(12) 0.2500 0.3768(2)
H20 H -0.0427 0.2500 0.4047
C26 C -0.01025(11) 0.2500 0.2923(2)
H21 H -0.0410 0.2500 0.2629
C27 C 0.03660(10) 0.2500 0.24855(17)
C28 C 0.07741(13) 0.2500 0.12260(18)
H22 H 0.0767 0.2500 0.0647
C15G C 0.29846(9) 0.4367(4) 0.43707(15)
H12G H 0.2668 0.4339 0.4678
H13G H 0.3268 0.4452 0.4752
H14G H 0.2987 0.5498 0.4008
H16G H 0.3547 0.3659 0.3020
loop_
_geom_bond_atom_site_label_1
_geom_bond_atom_site_label_2
_geom_bond_site_symmetry_1
_geom_bond_site_symmetry_2
O1 C3 1_555 1_555
O2 C4 1_555 1_555
N1 N2 1_555 1_555
N2 C7 1_555 1_555
N3 C13 1_555 1_555
C1 H1 1_555 1_555
H2 C1 1_555 1_555
H3 C1 1_555 1_555
C2 H4 1_555 1_555
H5 C2 1_555 1_555
C3 C1 1_555 1_555
C4 O1 1_555 1_555
C5 N1 1_555 1_555
H6 C5 1_555 1_555
C6 C4 1_555 1_555
C7 C6 1_555 1_555
C8 C7 1_555 1_555
C9 C8 1_555 1_555
H7 C9 1_555 1_555
C10 C9 1_555 1_555
H8 C10 1_555 1_555
C11 C10 1_555 1_555
H9 C11 1_555 1_555
C12 C11 1_555 1_555
H10 C12 1_555 1_555
C13 C8 1_555 1_555
C14 N2 1_555 1_555
H11 C14 1_555 1_555
O3 C17 1_555 1_555
O4 C18 1_555 1_555
N4 N5 1_555 1_555
N5 C21 1_555 1_555
N6 C27 1_555 1_555
C15 H12 1_555 1_555
H13 C15 1_555 1_555
H14 C15 1_555 1_555
C16 H15 1_555 1_555
H16 C16 1_555 1_555
C17 C15 1_555 1_555
C18 O3 1_555 1_555
C19 N4 1_555 1_555
H17 C19 1_555 1_555
C20 C18 1_555 1_555
C21 C20 1_555 1_555
C22 C21 1_555 1_555
C23 C22 1_555 1_555
H18 C23 1_555 1_555
C24 C23 1_555 1_555
H19 C24 1_555 1_555
C25 C24 1_555 1_555
H20 C25 1_555 1_555
C26 C25 1_555 1_555
H21 C26 1_555 1_555
C27 C22 1_555 1_555
C28 N5 1_555 1_555
H22 C28 1_555 1_555
C1G C3 1_555 1_555
H1G C1G 1_555 1_555
H2G C1G 1_555 1_555
H3G C1G 1_555 1_555
H4G C2 1_555 1_555
C15G C17 1_555 1_555
H12G C15G 1_555 1_555
H13G C15G 1_555 1_555
H14G C15G 1_555 1_555
H16G C16 1_555 1_555
N3 C14 1_555 1_555
C2 C3 1_555 1_555
C5 C6 1_555 1_555
C12 C13 1_555 1_555
N6 C28 1_555 1_555
C16 C17 1_555 1_555
C19 C20 1_555 1_555
C26 C27 1_555 1_555

#END
