
#######################################################################
#
#                 Cambridge Crystallographic Data Centre
#                                CCDC 
#
#######################################################################
#
# If this CIF has been generated from an entry in the Cambridge 
# Structural Database, then it will include bibliographic, chemical, 
# crystal, experimental, refinement or atomic coordinate data resulting 
# from the CCDC's data processing and validation procedures.
#
#######################################################################

data_UYAKEL
_chemical_formula_moiety         'C16 H15 N1 O3'
_chemical_name_systematic        
3-(3,4-Dihydroxyphenyl)-N-(4-methylphenyl)acrylamide
_symmetry_cell_setting           triclinic
_symmetry_space_group_name_H-M   'P -1'
_symmetry_Int_Tables_number      2
_space_group_name_Hall           '-P 1'
loop_
_symmetry_equiv_pos_site_id
_symmetry_equiv_pos_as_xyz
1 x,y,z
2 -x,-y,-z
_cell_length_a                   9.4460(19)
_cell_length_b                   10.701(2)
_cell_length_c                   13.812(3)
_cell_angle_alpha                78.63(3)
_cell_angle_beta                 76.87(3)
_cell_angle_gamma                89.42(3)
_cell_volume                     1332.08
_cell_formula_units_Z            4
loop_
_atom_site_label
_atom_site_type_symbol
_atom_site_fract_x
_atom_site_fract_y
_atom_site_fract_z
O1 O 0.63040(15) 0.14137(13) 0.56102(9)
O2 O 0.37298(14) 0.42527(12) 1.03178(9)
H1 H 0.4367 0.4736 0.9924
O3 O 0.24159(15) 0.20893(12) 1.16920(9)
H2 H 0.2362 0.2834 1.1758
N1 N 0.69300(17) -0.05737(14) 0.62753(11)
H3 H 0.6820 -0.1136 0.6828
C1 C 1.0604(3) -0.1810(3) 0.27013(19)
H4 H 1.0047 -0.1896 0.2215
H5 H 1.1093 -0.2587 0.2866
H6 H 1.1309 -0.1119 0.2419
C2 C 0.9597(2) -0.15407(19) 0.36547(16)
C3 C 0.8279(3) -0.09899(19) 0.36214(15)
H7 H 0.7987 -0.0825 0.3010
C4 C 0.7374(2) -0.06746(18) 0.44761(14)
H8 H 0.6486 -0.0310 0.4436
C5 C 0.7801(2) -0.09060(16) 0.53843(13)
C6 C 0.9097(2) -0.15017(19) 0.54384(16)
H9 H 0.9375 -0.1692 0.6054
C7 C 0.9976(2) -0.1813(2) 0.45814(17)
H10 H 1.0842 -0.2216 0.4629
C8 C 0.62577(19) 0.05402(17) 0.63397(13)
C9 C 0.5480(2) 0.06077(19) 0.73855(13)
H11 H 0.5214 -0.0152 0.7854
C10 C 0.51423(19) 0.16972(18) 0.76889(13)
H12 H 0.5393 0.2447 0.7207
C11 C 0.44055(18) 0.18168(17) 0.87223(13)
C12 C 0.3690(2) 0.07762(18) 0.94275(14)
H13 H 0.3654 -0.0008 0.9239
C13 C 0.3034(2) 0.08923(18) 1.04024(14)
H14 H 0.2567 0.0183 1.0864
C14 C 0.30574(18) 0.20451(17) 1.07048(12)
C15 C 0.37372(17) 0.31000(16) 1.00053(12)
C16 C 0.44093(18) 0.29844(16) 0.90260(12)
H15 H 0.4870 0.3696 0.8565
O4 O 0.60749(13) 0.54199(13) 0.66711(9)
O5 O 1.19497(11) 0.42934(13) 0.23682(7)
H16 H 1.2384 0.4496 0.2768
O6 O 1.07740(10) 0.49520(13) 0.07696(7)
H17 H 1.0236 0.4951 0.0380
N2 N 0.45924(15) 0.69220(14) 0.60845(10)
H18 H 0.4393 0.7345 0.5537
C17 C 0.0915(2) 0.8146(2) 0.96753(15)
H19 H 0.1348 0.7899 1.0246
H20 H -0.0015 0.7710 0.9813
H21 H 0.0790 0.9050 0.9556
C18 C 0.1894(2) 0.77960(17) 0.87467(14)
C19 C 0.1498(2) 0.80110(18) 0.78202(14)
H22 H 0.0606 0.8365 0.7776
C20 C 0.23915(19) 0.77129(18) 0.69643(13)
H23 H 0.2099 0.7874 0.6354
C21 C 0.37206(18) 0.71760(15) 0.70070(12)
C22 C 0.41380(19) 0.69426(18) 0.79242(13)
H24 H 0.5025 0.6578 0.7969
C23 C 0.3225(2) 0.72562(19) 0.87761(13)
H25 H 0.3517 0.7098 0.9387
C24 C 0.56847(17) 0.61115(16) 0.59520(12)
C25 C 0.63832(18) 0.60945(16) 0.48842(12)
H26 H 0.6010 0.6582 0.4370
C26 C 0.75309(18) 0.53996(17) 0.46416(12)
H27 H 0.7853 0.4912 0.5180
C27 C 0.83499(18) 0.53116(16) 0.36220(12)
C28 C 0.77960(18) 0.56851(18) 0.27619(13)
H28 H 0.6876 0.6022 0.2825
C29 C 0.85898(19) 0.55636(18) 0.18153(13)
H29 H 0.8193 0.5803 0.1251
C30 C 0.99642(18) 0.50907(16) 0.17019(12)
C31 C 1.05604(18) 0.47476(16) 0.25453(13)
C32 C 0.97478(18) 0.48286(17) 0.34964(12)
H30 H 1.0135 0.4558 0.4061
loop_
_geom_bond_atom_site_label_1
_geom_bond_atom_site_label_2
_geom_bond_site_symmetry_1
_geom_bond_site_symmetry_2
O1 C8 1_555 1_555
O2 H1 1_555 1_555
O3 H2 1_555 1_555
N1 H3 1_555 1_555
C1 H4 1_555 1_555
H5 C1 1_555 1_555
H6 C1 1_555 1_555
C2 C1 1_555 1_555
C3 C2 1_555 1_555
H7 C3 1_555 1_555
C4 C3 1_555 1_555
H8 C4 1_555 1_555
C5 N1 1_555 1_555
C6 C5 1_555 1_555
H9 C6 1_555 1_555
C7 C2 1_555 1_555
H10 C7 1_555 1_555
C8 N1 1_555 1_555
C9 C8 1_555 1_555
H11 C9 1_555 1_555
C10 C9 1_555 1_555
H12 C10 1_555 1_555
C11 C10 1_555 1_555
C12 C11 1_555 1_555
H13 C12 1_555 1_555
C13 C12 1_555 1_555
H14 C13 1_555 1_555
C14 O3 1_555 1_555
C15 O2 1_555 1_555
C16 C11 1_555 1_555
H15 C16 1_555 1_555
O4 C24 1_555 1_555
O5 H16 1_555 1_555
O6 H17 1_555 1_555
N2 H18 1_555 1_555
C17 H19 1_555 1_555
H20 C17 1_555 1_555
H21 C17 1_555 1_555
C18 C17 1_555 1_555
C19 C18 1_555 1_555
H22 C19 1_555 1_555
C20 C19 1_555 1_555
H23 C20 1_555 1_555
C21 N2 1_555 1_555
C22 C21 1_555 1_555
H24 C22 1_555 1_555
C23 C18 1_555 1_555
H25 C23 1_555 1_555
C24 N2 1_555 1_555
C25 C24 1_555 1_555
H26 C25 1_555 1_555
C26 C25 1_555 1_555
H27 C26 1_555 1_555
C27 C26 1_555 1_555
C28 C27 1_555 1_555
H28 C28 1_555 1_555
C29 C28 1_555 1_555
H29 C29 1_555 1_555
C30 O6 1_555 1_555
C31 O5 1_555 1_555
C32 C27 1_555 1_555
H30 C32 1_555 1_555
C4 C5 1_555 1_555
C6 C7 1_555 1_555
C13 C14 1_555 1_555
C14 C15 1_555 1_555
C15 C16 1_555 1_555
C20 C21 1_555 1_555
C22 C23 1_555 1_555
C29 C30 1_555 1_555
C30 C31 1_555 1_555
C31 C32 1_555 1_555

#END
