
#######################################################################
#
#                 Cambridge Crystallographic Data Centre
#                                CCDC 
#
#######################################################################
#
# If this CIF has been generated from an entry in the Cambridge 
# Structural Database, then it will include bibliographic, chemical, 
# crystal, experimental, refinement or atomic coordinate data resulting 
# from the CCDC's data processing and validation procedures.
#
#######################################################################

data_UYAQIV
_chemical_formula_moiety         'C26 H24 Mg1 N10 O2,2(H2 O1)'
_chemical_name_systematic        
'Diaqua-bis(3-methyl-2-(3-(pyridin-4-yl)-1H-1,2,4-triazol-5-yl)pyridinato)-magnesium dihydrate'
_symmetry_cell_setting           monoclinic
_symmetry_space_group_name_H-M   'P 21/c'
_symmetry_Int_Tables_number      14
_space_group_name_Hall           '-P 2ybc'
loop_
_symmetry_equiv_pos_site_id
_symmetry_equiv_pos_as_xyz
1 x,y,z
2 -x,1/2+y,1/2-z
3 -x,-y,-z
4 x,1/2-y,1/2+z
_cell_length_a                   7.9467(5)
_cell_length_b                   11.6001(8)
_cell_length_c                   29.750(2)
_cell_angle_alpha                90
_cell_angle_beta                 92.9390(10)
_cell_angle_gamma                90
_cell_volume                     2738.82
_exptl_crystal_colour            colorless
_exptl_crystal_description       needle
_cell_formula_units_Z            4
loop_
_atom_site_label
_atom_site_type_symbol
_atom_site_fract_x
_atom_site_fract_y
_atom_site_fract_z
Mg1 Mg 0.41953(12) 0.75806(9) 0.10955(3)
N1 N 0.5512(3) 0.8410(2) 0.05266(8)
N2 N 0.2497(3) 0.7448(2) 0.05202(8)
N3 N 0.0939(3) 0.6979(2) 0.04269(8)
N4 N 0.2039(3) 0.7461(2) -0.02303(8)
N5 N -0.3470(4) 0.5535(3) -0.07659(11)
N6 N 0.2835(3) 0.9127(2) 0.13533(8)
N7 N 0.5905(3) 0.8394(2) 0.15654(8)
N8 N 0.7493(3) 0.8146(2) 0.17364(8)
N9 N 0.6497(3) 0.9666(2) 0.21156(8)
N10 N 1.2454(4) 0.9023(3) 0.28505(10)
C1 C 0.7040(4) 0.8890(3) 0.05627(11)
H1 H 0.7569 0.8984 0.0854
C2 C 0.7880(4) 0.9254(3) 0.01956(12)
H2 H 0.8958 0.9606 0.0233
C3 C 0.7126(4) 0.9096(3) -0.02272(12)
H3 H 0.7691 0.9343 -0.0484
C4 C 0.5550(4) 0.8583(3) -0.02831(11)
C5 C 0.4776(4) 0.8262(3) 0.01087(10)
C6 C 0.3102(4) 0.7724(3) 0.01206(10)
C7 C 0.0732(4) 0.7004(3) -0.00230(11)
C8 C -0.0740(4) 0.6515(3) -0.02714(11)
C9 C -0.0941(5) 0.6641(3) -0.07369(11)
H4 H -0.0141 0.7066 -0.0896
C10 C -0.2302(5) 0.6146(3) -0.09633(12)
H5 H -0.2417 0.6246 -0.1280
C11 C -0.3206(5) 0.5362(4) -0.03229(14)
H6 H -0.3959 0.4866 -0.0178
C12 C -0.1904(5) 0.5860(4) -0.00623(12)
H7 H -0.1821 0.5749 0.0254
C13 C 0.4759(4) 0.8394(3) -0.07495(11)
H8 H 0.3657 0.8026 -0.0727
H9 H 0.5490 0.7896 -0.0921
H10 H 0.4618 0.9138 -0.0903
C14 C 0.1274(4) 0.9442(3) 0.12134(10)
H11 H 0.0681 0.8983 0.0993
C15 C 0.0494(4) 1.0403(3) 0.13748(11)
H12 H -0.0622 1.0597 0.1272
C16 C 0.1369(4) 1.1084(3) 0.16912(11)
H13 H 0.0855 1.1759 0.1803
C17 C 0.2989(4) 1.0788(3) 0.18455(10)
C18 C 0.3671(4) 0.9774(3) 0.16732(10)
C19 C 0.5363(4) 0.9302(3) 0.17950(10)
C20 C 0.7784(4) 0.8923(3) 0.20639(10)
C21 C 0.9379(4) 0.8957(3) 0.23388(10)
C22 C 0.9697(4) 0.9791(3) 0.26653(12)
H14 H 0.8874 1.0360 0.2721
C23 C 1.1226(4) 0.9785(4) 0.29084(13)
H15 H 1.1415 1.0362 0.3132
C24 C 1.2130(4) 0.8228(3) 0.25334(12)
H16 H 1.2983 0.7677 0.2481
C25 C 1.0639(4) 0.8150(3) 0.22758(11)
H17 H 1.0477 0.7555 0.2059
C26 C 0.3934(4) 1.1564(3) 0.21766(12)
H18 H 0.5048 1.1235 0.2253
H19 H 0.3304 1.1633 0.2450
H20 H 0.4064 1.2328 0.2042
O1 O 0.2781(3) 0.65809(19) 0.15110(7)
H21 H 0.3326 0.6005 0.1619
H22 H 0.1738 0.6433 0.1466
O2 O 0.5675(3) 0.61515(19) 0.10187(7)
H23 H 0.6745 0.6145 0.1045
H24 H 0.5144 0.5521 0.0977
O3 O -0.0741(3) 0.6480(2) 0.12052(7)
H25 H -0.0340 0.6683 0.0958
H26 H -0.1060 0.7088 0.1335
O4 O 0.4165(3) 0.4729(2) 0.19377(7)
H27 H 0.5207 0.4574 0.1926
H28 H 0.3992 0.4996 0.2198
loop_
_geom_bond_atom_site_label_1
_geom_bond_atom_site_label_2
_geom_bond_site_symmetry_1
_geom_bond_site_symmetry_2
Mg1 N1 1_555 1_555
N1 C1 1_555 1_555
N2 Mg1 1_555 1_555
N3 N2 1_555 1_555
N4 C6 1_555 1_555
N5 C10 1_555 1_555
N6 Mg1 1_555 1_555
N7 Mg1 1_555 1_555
N8 N7 1_555 1_555
N9 C19 1_555 1_555
N10 C23 1_555 1_555
C1 H1 1_555 1_555
C2 C1 1_555 1_555
H2 C2 1_555 1_555
C3 C2 1_555 1_555
H3 C3 1_555 1_555
C4 C3 1_555 1_555
C5 N1 1_555 1_555
C6 N2 1_555 1_555
C7 N3 1_555 1_555
C8 C7 1_555 1_555
C9 C8 1_555 1_555
H4 C9 1_555 1_555
C10 C9 1_555 1_555
H5 C10 1_555 1_555
C11 N5 1_555 1_555
H6 C11 1_555 1_555
C12 C8 1_555 1_555
H7 C12 1_555 1_555
C13 C4 1_555 1_555
H8 C13 1_555 1_555
H9 C13 1_555 1_555
H10 C13 1_555 1_555
C14 N6 1_555 1_555
H11 C14 1_555 1_555
C15 C14 1_555 1_555
H12 C15 1_555 1_555
C16 C15 1_555 1_555
H13 C16 1_555 1_555
C17 C16 1_555 1_555
C18 N6 1_555 1_555
C19 N7 1_555 1_555
C20 N8 1_555 1_555
C21 C20 1_555 1_555
C22 C21 1_555 1_555
H14 C22 1_555 1_555
C23 C22 1_555 1_555
H15 C23 1_555 1_555
C24 N10 1_555 1_555
H16 C24 1_555 1_555
C25 C21 1_555 1_555
H17 C25 1_555 1_555
C26 C17 1_555 1_555
H18 C26 1_555 1_555
H19 C26 1_555 1_555
H20 C26 1_555 1_555
O1 Mg1 1_555 1_555
H21 O1 1_555 1_555
H22 O1 1_555 1_555
O2 Mg1 1_555 1_555
H23 O2 1_555 1_555
H24 O2 1_555 1_555
O3 H25 1_555 1_555
H26 O3 1_555 1_555
O4 H27 1_555 1_555
H28 O4 1_555 1_555
N4 C7 1_555 1_555
N9 C20 1_555 1_555
C4 C5 1_555 1_555
C5 C6 1_555 1_555
C11 C12 1_555 1_555
C17 C18 1_555 1_555
C18 C19 1_555 1_555
C24 C25 1_555 1_555

#END
