
#######################################################################
#
#                 Cambridge Crystallographic Data Centre
#                                CCDC 
#
#######################################################################
#
# If this CIF has been generated from an entry in the Cambridge 
# Structural Database, then it will include bibliographic, chemical, 
# crystal, experimental, refinement or atomic coordinate data resulting 
# from the CCDC's data processing and validation procedures.
#
#######################################################################

data_UYAQIW
_chemical_formula_moiety         'C28 H25 F3 N2 O2'
_chemical_name_systematic        
5-methoxy-1-methyl-3-(2,2,2-trifluoro-1-(5-methoxy-1-methyl-1H-indol-3-yl)-1-phenylethyl)-1H-indole
_symmetry_cell_setting           triclinic
_symmetry_space_group_name_H-M   'P -1'
_symmetry_Int_Tables_number      2
_space_group_name_Hall           '-P 1'
loop_
_symmetry_equiv_pos_site_id
_symmetry_equiv_pos_as_xyz
1 x,y,z
2 -x,-y,-z
_cell_length_a                   10.0940(3)
_cell_length_b                   10.1679(3)
_cell_length_c                   12.6813(3)
_cell_angle_alpha                81.8483(13)
_cell_angle_beta                 72.4104(12)
_cell_angle_gamma                71.5178(11)
_cell_volume                     1175.17
_exptl_crystal_colour            brown
_exptl_crystal_description       Block
_cell_formula_units_Z            2
loop_
_atom_site_label
_atom_site_type_symbol
_atom_site_fract_x
_atom_site_fract_y
_atom_site_fract_z
C1 C 0.1422(3) 0.8043(3) 0.4900(3)
H1 H 0.1459 0.895 0.4699
C2 C 0.0325(4) 0.7800(4) 0.5790(3)
H2 H -0.0373 0.854 0.6179
C3 C 0.0265(4) 0.6462(4) 0.6104(3)
H3 H -0.048 0.6292 0.6697
C4 C 0.1317(4) 0.5386(4) 0.5530(3)
H4 H 0.128 0.4479 0.5729
C5 C 0.2447(4) 0.5644(3) 0.4646(2)
H5 H 0.319 0.4902 0.4295
C6 C 0.2474(3) 0.6960(3) 0.4294(2)
C7 C 0.3742(3) 0.7238(2) 0.3340(2)
C8 C 0.4560(3) 0.5972(2) 0.2642(2)
C9 C 0.4022(3) 0.5281(2) 0.2016(2)
C10 C 0.2664(3) 0.5469(3) 0.1837(2)
H6 H 0.1859 0.6185 0.2158
C11 C 0.2552(3) 0.4568(3) 0.1174(2)
C12 C 0.3753(4) 0.3489(3) 0.0686(3)
H7 H 0.3648 0.2904 0.0236
C13 C 0.5073(4) 0.3279(3) 0.0856(2)
H8 H 0.5867 0.2557 0.053
C14 C 0.5206(3) 0.4168(3) 0.1529(2)
C15 C 0.5983(3) 0.5245(3) 0.2525(2)
H9 H 0.6592 0.5456 0.2856
C16 C 0.0066(4) 0.5808(4) 0.1300(3)
H10 H -0.024 0.577 0.2095
H11 H -0.0713 0.5793 0.1022
H12 H 0.0329 0.6648 0.1033
C17 C 0.7815(3) 0.3149(3) 0.1575(3)
H13 H 0.7745 0.2261 0.1919
H14 H 0.8478 0.3434 0.1833
H15 H 0.8163 0.3082 0.0786
C18 C 0.3133(3) 0.8470(3) 0.2579(2)
C19 C 0.4759(3) 0.7644(2) 0.3835(2)
C20 C 0.5986(3) 0.8166(2) 0.3288(2)
C21 C 0.6682(3) 0.8482(3) 0.2191(2)
H16 H 0.6383 0.8319 0.1609
C22 C 0.7823(3) 0.9040(3) 0.1989(3)
C23 C 0.8318(3) 0.9251(3) 0.2842(3)
H17 H 0.9099 0.9614 0.2678
C24 C 0.7676(3) 0.8934(3) 0.3918(3)
H18 H 0.8011 0.9076 0.4487
C25 C 0.6506(3) 0.8394(3) 0.4144(2)
C26 C 0.4631(3) 0.7584(3) 0.4943(2)
H19 H 0.3923 0.7283 0.5491
C27 C 0.5828(4) 0.8135(3) 0.6223(3)
H20 H 0.5053 0.7892 0.6789
H21 H 0.5793 0.9071 0.6302
H22 H 0.6743 0.7516 0.6294
C28 C 0.8159(5) 0.9262(5) 0.0018(3)
H23 H 0.8326 0.8295 -0.0069
H24 H 0.8713 0.965 -0.0636
H25 H 0.7145 0.974 0.0128
F1 F 0.19054(19) 0.84337(18) 0.23988(17)
F2 F 0.4044(2) 0.85101(19) 0.15578(14)
F3 F 0.2830(2) 0.97155(16) 0.29649(16)
N1 N 0.6390(2) 0.4165(2) 0.1859(2)
N2 N 0.5672(3) 0.8020(2) 0.51405(19)
O1 O 0.1279(3) 0.4652(2) 0.0931(2)
O2 O 0.8589(3) 0.9410(3) 0.0941(2)
loop_
_geom_bond_atom_site_label_1
_geom_bond_atom_site_label_2
_geom_bond_site_symmetry_1
_geom_bond_site_symmetry_2
C1 H1 1_555 1_555
C2 C1 1_555 1_555
H2 C2 1_555 1_555
C3 C2 1_555 1_555
H3 C3 1_555 1_555
C4 C3 1_555 1_555
H4 C4 1_555 1_555
C5 C4 1_555 1_555
H5 C5 1_555 1_555
C6 C1 1_555 1_555
C7 C6 1_555 1_555
C8 C7 1_555 1_555
C9 C8 1_555 1_555
C10 C9 1_555 1_555
H6 C10 1_555 1_555
C11 C10 1_555 1_555
C12 C11 1_555 1_555
H7 C12 1_555 1_555
C13 C12 1_555 1_555
H8 C13 1_555 1_555
C14 C9 1_555 1_555
C15 C8 1_555 1_555
H9 C15 1_555 1_555
C16 H10 1_555 1_555
H11 C16 1_555 1_555
H12 C16 1_555 1_555
C17 H13 1_555 1_555
H14 C17 1_555 1_555
H15 C17 1_555 1_555
C18 C7 1_555 1_555
C19 C7 1_555 1_555
C20 C19 1_555 1_555
C21 C20 1_555 1_555
H16 C21 1_555 1_555
C22 C21 1_555 1_555
C23 C22 1_555 1_555
H17 C23 1_555 1_555
C24 C23 1_555 1_555
H18 C24 1_555 1_555
C25 C20 1_555 1_555
C26 C19 1_555 1_555
H19 C26 1_555 1_555
C27 H20 1_555 1_555
H21 C27 1_555 1_555
H22 C27 1_555 1_555
C28 H23 1_555 1_555
H24 C28 1_555 1_555
H25 C28 1_555 1_555
F1 C18 1_555 1_555
F2 C18 1_555 1_555
F3 C18 1_555 1_555
N1 C14 1_555 1_555
N2 C25 1_555 1_555
O1 C11 1_555 1_555
O2 C22 1_555 1_555
C5 C6 1_555 1_555
C13 C14 1_555 1_555
C15 N1 1_555 1_555
C16 O1 1_555 1_555
C17 N1 1_555 1_555
C24 C25 1_555 1_555
C26 N2 1_555 1_555
C27 N2 1_555 1_555
C28 O2 1_555 1_555

#END
