
#######################################################################
#
#                 Cambridge Crystallographic Data Centre
#                                CCDC 
#
#######################################################################
#
# If this CIF has been generated from an entry in the Cambridge 
# Structural Database, then it will include bibliographic, chemical, 
# crystal, experimental, refinement or atomic coordinate data resulting 
# from the CCDC's data processing and validation procedures.
#
#######################################################################

data_UYAWAT
_chemical_formula_moiety         'C72 H68 B2 N4,0.5(C7 H8)'
_chemical_name_systematic        
"3,3'-(2,2'-Bipyridine-4,4'-diyldiethene-2,1-diyl)bis(6,6-dimesityl-6H-5\l^5^,6\l^5^-pyrido[1,2-b][2,1]benzazaborole) toluene solvate"
_symmetry_cell_setting           monoclinic
_symmetry_space_group_name_H-M   'C 2/c'
_symmetry_Int_Tables_number      15
_space_group_name_Hall           '-C 2yn'
loop_
_symmetry_equiv_pos_site_id
_symmetry_equiv_pos_as_xyz
1 x,y,z
2 -x,y,1/2-z
3 1/2+x,1/2+y,z
4 1/2-x,1/2+y,1/2-z
5 -x,-y,-z
6 x,-y,1/2+z
7 1/2-x,1/2-y,-z
8 1/2+x,1/2-y,1/2+z
_cell_length_a                   22.857(6)
_cell_length_b                   10.653(3)
_cell_length_c                   28.098(7)
_cell_angle_alpha                90
_cell_angle_beta                 104.121(5)
_cell_angle_gamma                90
_cell_volume                     6635
_exptl_crystal_colour            colorless
_exptl_crystal_description       thin
_cell_formula_units_Z            4
loop_
_atom_site_label
_atom_site_type_symbol
_atom_site_fract_x
_atom_site_fract_y
_atom_site_fract_z
B1 B 1.24672(19) -0.1067(4) 0.87171(15)
N1 N 1.21413(13) -0.1568(3) 0.81633(10)
N2 N 1.03357(14) 0.1480(3) 0.52301(11)
C1 C 1.25541(16) -0.2445(3) 0.89727(13)
C2 C 1.28325(17) -0.2863(4) 0.94424(13)
H1 H 1.2991 -0.2266 0.9692
C3 C 1.28836(18) -0.4124(4) 0.95535(15)
H2 H 1.3068 -0.4379 0.9880
C4 C 1.26731(19) -0.5019(4) 0.92016(15)
H3 H 1.2710 -0.5884 0.9286
C5 C 1.24101(18) -0.4664(4) 0.87305(15)
H4 H 1.2267 -0.5274 0.8483
C6 C 1.23564(17) -0.3378(3) 0.86223(14)
C7 C 1.20861(16) -0.2826(3) 0.81462(13)
C8 C 1.17885(17) -0.3405(3) 0.77072(14)
H5 H 1.1750 -0.4293 0.7693
C9 C 1.15520(17) -0.2699(4) 0.72975(13)
H6 H 1.1358 -0.3100 0.6999
C10 C 1.15953(16) -0.1386(3) 0.73180(13)
C11 C 1.18917(15) -0.0883(3) 0.77653(13)
H7 H 1.1920 0.0005 0.7792
C12 C 1.13585(16) -0.0566(3) 0.69062(13)
H8 H 1.1419 0.0310 0.6962
C13 C 1.10654(16) -0.0917(4) 0.64580(14)
H9 H 1.1004 -0.1792 0.6401
C14 C 1.08276(16) -0.0071(3) 0.60414(13)
C15 C 1.04541(16) -0.0542(3) 0.56093(13)
H10 H 1.0369 -0.1416 0.5580
C16 C 1.02087(15) 0.0244(3) 0.52261(12)
C17 C 1.09453(18) 0.1219(4) 0.60511(14)
H11 H 1.1191 0.1601 0.6336
C18 C 1.06989(18) 0.1928(4) 0.56393(14)
H12 H 1.0795 0.2797 0.5649
C19 C 1.31565(17) -0.0531(3) 0.87885(14)
C20 C 1.34252(17) 0.0107(3) 0.92319(15)
C21 C 1.40145(18) 0.0579(4) 0.93221(17)
H13 H 1.4176 0.1016 0.9620
C22 C 1.43605(18) 0.0430(4) 0.89959(19)
C23 C 1.41280(18) -0.0242(3) 0.85661(16)
H14 H 1.4371 -0.0377 0.8340
C24 C 1.35379(17) -0.0722(3) 0.84636(14)
C25 C 1.33472(18) -0.1464(3) 0.79912(14)
H15 H 1.3697 -0.1591 0.7852
H16 H 1.3034 -0.1000 0.7756
H17 H 1.3187 -0.2280 0.8059
C26 C 1.31012(19) 0.0351(4) 0.96301(14)
H18 H 1.3383 0.0242 0.9952
H19 H 1.2766 -0.0241 0.9597
H20 H 1.2945 0.1211 0.9600
C27 C 1.5007(2) 0.0945(4) 0.9096(2)
H21 H 1.5136 0.1218 0.9439
H22 H 1.5018 0.1660 0.8879
H23 H 1.5278 0.0286 0.9035
C28 C 1.19805(16) -0.0037(3) 0.88298(12)
C29 C 1.20160(16) 0.1248(3) 0.87102(14)
C30 C 1.16179(18) 0.2122(4) 0.88370(15)
H24 H 1.1656 0.2981 0.8759
C31 C 1.11776(19) 0.1792(4) 0.90675(16)
C32 C 1.11151(17) 0.0523(4) 0.91546(14)
H25 H 1.0804 0.0262 0.9303
C33 C 1.14935(17) -0.0385(4) 0.90316(13)
C34 C 1.24608(17) 0.1789(3) 0.84405(14)
H26 H 1.2256 0.2416 0.8202
H27 H 1.2616 0.1113 0.8268
H28 H 1.2797 0.2185 0.8677
C35 C 1.13490(19) -0.1741(3) 0.91309(16)
H29 H 1.0980 -0.1768 0.9249
H30 H 1.1684 -0.2099 0.9380
H31 H 1.1291 -0.2229 0.8827
C36 C 1.0770(2) 0.2775(4) 0.9207(2)
H32 H 1.0947 0.3609 0.9194
H33 H 1.0729 0.2612 0.9540
H34 H 1.0372 0.2740 0.8976
B1D B 0.75328(19) 0.1067(4) 0.12829(15)
N1D N 0.78587(13) 0.1568(3) 0.18367(10)
N2D N 0.96643(14) -0.1480(3) 0.47699(11)
C1D C 0.74459(16) 0.2445(3) 0.10273(13)
C2D C 0.71675(17) 0.2863(4) 0.05576(13)
H1D H 0.7009 0.2266 0.0308
C3D C 0.71164(18) 0.4124(4) 0.04465(15)
H2D H 0.6932 0.4379 0.0120
C4D C 0.73269(19) 0.5019(4) 0.07984(15)
H3D H 0.7290 0.5884 0.0714
C5D C 0.75899(18) 0.4664(4) 0.12695(15)
H4D H 0.7733 0.5274 0.1517
C6D C 0.76436(17) 0.3378(3) 0.13777(14)
C7D C 0.79139(16) 0.2826(3) 0.18538(13)
C8D C 0.82115(17) 0.3405(3) 0.22928(14)
H5D H 0.8250 0.4293 0.2307
C9D C 0.84480(17) 0.2699(4) 0.27025(13)
H6D H 0.8642 0.3100 0.3001
C10D C 0.84047(16) 0.1386(3) 0.26820(13)
C11D C 0.81083(15) 0.0883(3) 0.22347(13)
H7D H 0.8080 -0.0005 0.2208
C12D C 0.86415(16) 0.0566(3) 0.30938(13)
H8D H 0.8581 -0.0310 0.3038
C13D C 0.89346(16) 0.0917(4) 0.35420(14)
H9D H 0.8996 0.1792 0.3599
C14D C 0.91724(16) 0.0071(3) 0.39586(13)
C15D C 0.95459(16) 0.0542(3) 0.43907(13)
H10D H 0.9631 0.1416 0.4420
C16D C 0.97913(15) -0.0244(3) 0.47739(12)
C17D C 0.90547(18) -0.1219(4) 0.39489(14)
H11D H 0.8809 -0.1601 0.3664
C18D C 0.93011(18) -0.1928(4) 0.43607(14)
H12D H 0.9205 -0.2797 0.4351
C19D C 0.68435(17) 0.0531(3) 0.12115(14)
C20D C 0.65748(17) -0.0107(3) 0.07681(15)
C21D C 0.59855(18) -0.0579(4) 0.06779(17)
H13D H 0.5824 -0.1016 0.0380
C22D C 0.56395(18) -0.0430(4) 0.10041(19)
C23D C 0.58720(18) 0.0242(3) 0.14339(16)
H14D H 0.5629 0.0377 0.1660
C24D C 0.64621(17) 0.0722(3) 0.15364(14)
C25D C 0.66528(18) 0.1464(3) 0.20088(14)
H15D H 0.6303 0.1591 0.2148
H16D H 0.6966 0.1000 0.2244
H17D H 0.6813 0.2280 0.1941
C26D C 0.68988(19) -0.0351(4) 0.03699(14)
H18D H 0.6617 -0.0242 0.0048
H19D H 0.7234 0.0241 0.0403
H20D H 0.7055 -0.1211 0.0400
C27D C 0.4993(2) -0.0945(4) 0.0904(2)
H21D H 0.4864 -0.1218 0.0561
H22D H 0.4982 -0.1660 0.1121
H23D H 0.4722 -0.0286 0.0965
C28D C 0.80195(16) 0.0037(3) 0.11702(12)
C29D C 0.79840(16) -0.1248(3) 0.12898(14)
C30D C 0.83821(18) -0.2122(4) 0.11630(15)
H24D H 0.8344 -0.2981 0.1241
C31D C 0.88224(19) -0.1792(4) 0.09325(16)
C32D C 0.88849(17) -0.0523(4) 0.08454(14)
H25D H 0.9196 -0.0262 0.0697
C33D C 0.85065(17) 0.0385(4) 0.09684(13)
C34D C 0.75392(17) -0.1789(3) 0.15595(14)
H26D H 0.7744 -0.2416 0.1798
H27D H 0.7384 -0.1113 0.1732
H28D H 0.7203 -0.2185 0.1323
C35D C 0.86510(19) 0.1741(3) 0.08691(16)
H29D H 0.9020 0.1768 0.0751
H30D H 0.8316 0.2099 0.0620
H31D H 0.8709 0.2229 0.1173
C36D C 0.9230(2) -0.2775(4) 0.0793(2)
H32D H 0.9053 -0.3609 0.0806
H33D H 0.9271 -0.2612 0.0460
H34D H 0.9628 -0.2740 0.1024
loop_
_geom_bond_atom_site_label_1
_geom_bond_atom_site_label_2
_geom_bond_site_symmetry_1
_geom_bond_site_symmetry_2
B1 N1 1_555 1_555
N1 C7 1_555 1_555
N2 C16 1_555 1_555
C1 B1 1_555 1_555
C2 C1 1_555 1_555
H1 C2 1_555 1_555
C3 C2 1_555 1_555
H2 C3 1_555 1_555
C4 C3 1_555 1_555
H3 C4 1_555 1_555
C5 C4 1_555 1_555
H4 C5 1_555 1_555
C6 C1 1_555 1_555
C7 C6 1_555 1_555
C8 C7 1_555 1_555
H5 C8 1_555 1_555
C9 C8 1_555 1_555
H6 C9 1_555 1_555
C10 C9 1_555 1_555
C11 N1 1_555 1_555
H7 C11 1_555 1_555
C12 C10 1_555 1_555
H8 C12 1_555 1_555
C13 C12 1_555 1_555
H9 C13 1_555 1_555
C14 C13 1_555 1_555
C15 C14 1_555 1_555
H10 C15 1_555 1_555
C16 C15 1_555 1_555
C17 C14 1_555 1_555
H11 C17 1_555 1_555
C18 N2 1_555 1_555
H12 C18 1_555 1_555
C19 B1 1_555 1_555
C20 C19 1_555 1_555
C21 C20 1_555 1_555
H13 C21 1_555 1_555
C22 C21 1_555 1_555
C23 C22 1_555 1_555
H14 C23 1_555 1_555
C24 C19 1_555 1_555
C25 C24 1_555 1_555
H15 C25 1_555 1_555
H16 C25 1_555 1_555
H17 C25 1_555 1_555
C26 C20 1_555 1_555
H18 C26 1_555 1_555
H19 C26 1_555 1_555
H20 C26 1_555 1_555
C27 C22 1_555 1_555
H21 C27 1_555 1_555
H22 C27 1_555 1_555
H23 C27 1_555 1_555
C28 B1 1_555 1_555
C29 C28 1_555 1_555
C30 C29 1_555 1_555
H24 C30 1_555 1_555
C31 C30 1_555 1_555
C32 C31 1_555 1_555
H25 C32 1_555 1_555
C33 C28 1_555 1_555
C34 C29 1_555 1_555
H26 C34 1_555 1_555
H27 C34 1_555 1_555
H28 C34 1_555 1_555
C35 C33 1_555 1_555
H29 C35 1_555 1_555
H30 C35 1_555 1_555
H31 C35 1_555 1_555
C36 C31 1_555 1_555
H32 C36 1_555 1_555
H33 C36 1_555 1_555
H34 C36 1_555 1_555
B1D N1D 1_555 1_555
N1D C7D 1_555 1_555
N2D C16D 1_555 1_555
C1D B1D 1_555 1_555
C2D C1D 1_555 1_555
H1D C2D 1_555 1_555
C3D C2D 1_555 1_555
H2D C3D 1_555 1_555
C4D C3D 1_555 1_555
H3D C4D 1_555 1_555
C5D C4D 1_555 1_555
H4D C5D 1_555 1_555
C6D C1D 1_555 1_555
C7D C6D 1_555 1_555
C8D C7D 1_555 1_555
H5D C8D 1_555 1_555
C9D C8D 1_555 1_555
H6D C9D 1_555 1_555
C10D C9D 1_555 1_555
C11D N1D 1_555 1_555
H7D C11D 1_555 1_555
C12D C10D 1_555 1_555
H8D C12D 1_555 1_555
C13D C12D 1_555 1_555
H9D C13D 1_555 1_555
C14D C13D 1_555 1_555
C15D C14D 1_555 1_555
H10D C15D 1_555 1_555
C16D C16 1_555 1_555
C17D C14D 1_555 1_555
H11D C17D 1_555 1_555
C18D N2D 1_555 1_555
H12D C18D 1_555 1_555
C19D B1D 1_555 1_555
C20D C19D 1_555 1_555
C21D C20D 1_555 1_555
H13D C21D 1_555 1_555
C22D C21D 1_555 1_555
C23D C22D 1_555 1_555
H14D C23D 1_555 1_555
C24D C19D 1_555 1_555
C25D C24D 1_555 1_555
H15D C25D 1_555 1_555
H16D C25D 1_555 1_555
H17D C25D 1_555 1_555
C26D C20D 1_555 1_555
H18D C26D 1_555 1_555
H19D C26D 1_555 1_555
H20D C26D 1_555 1_555
C27D C22D 1_555 1_555
H21D C27D 1_555 1_555
H22D C27D 1_555 1_555
H23D C27D 1_555 1_555
C28D B1D 1_555 1_555
C29D C28D 1_555 1_555
C30D C29D 1_555 1_555
H24D C30D 1_555 1_555
C31D C30D 1_555 1_555
C32D C31D 1_555 1_555
H25D C32D 1_555 1_555
C33D C28D 1_555 1_555
C34D C29D 1_555 1_555
H26D C34D 1_555 1_555
H27D C34D 1_555 1_555
H28D C34D 1_555 1_555
C35D C33D 1_555 1_555
H29D C35D 1_555 1_555
H30D C35D 1_555 1_555
H31D C35D 1_555 1_555
C36D C31D 1_555 1_555
H32D C36D 1_555 1_555
H33D C36D 1_555 1_555
H34D C36D 1_555 1_555
C5 C6 1_555 1_555
C10 C11 1_555 1_555
C17 C18 1_555 1_555
C23 C24 1_555 1_555
C32 C33 1_555 1_555
C5D C6D 1_555 1_555
C10D C11D 1_555 1_555
C15D C16D 1_555 1_555
C17D C18D 1_555 1_555
C23D C24D 1_555 1_555
C32D C33D 1_555 1_555

#END
