
#######################################################################
#
#                 Cambridge Crystallographic Data Centre
#                                CCDC 
#
#######################################################################
#
# If this CIF has been generated from an entry in the Cambridge 
# Structural Database, then it will include bibliographic, chemical, 
# crystal, experimental, refinement or atomic coordinate data resulting 
# from the CCDC's data processing and validation procedures.
#
#######################################################################

data_UYEDOT
_chemical_formula_moiety         'C20 H15 Cl1 N3 1+,C5 H12 O1,F6 P1 1-'
_chemical_name_systematic        
'2-(2-(biphenyl-4-yl)vinyl)-6-chloro-2H-[1,2,3]triazolo[1,5-a]pyridin-8-ium hexafluorophosphate 2-methoxy-2-methylpropane'
_symmetry_cell_setting           monoclinic
_symmetry_space_group_name_H-M   'P 21/c'
_symmetry_Int_Tables_number      14
_space_group_name_Hall           '-P 2ybc'
loop_
_symmetry_equiv_pos_site_id
_symmetry_equiv_pos_as_xyz
1 x,y,z
2 -x,1/2+y,1/2-z
3 -x,-y,-z
4 x,1/2-y,1/2+z
_cell_length_a                   8.4756(5)
_cell_length_b                   19.5370(11)
_cell_length_c                   15.8118(9)
_cell_angle_alpha                90
_cell_angle_beta                 99.919(2)
_cell_angle_gamma                90
_cell_volume                     2579.1
_exptl_crystal_colour            yellow
_exptl_crystal_description       plate
_cell_formula_units_Z            4
loop_
_atom_site_label
_atom_site_type_symbol
_atom_site_fract_x
_atom_site_fract_y
_atom_site_fract_z
C1 C 0.9203(6) 0.2306(3) 0.5169(3)
H1 H 0.9062 0.1856 0.5372
C2 C 1.0461(6) 0.2473(3) 0.4789(3)
C3 C 1.0697(6) 0.3141(3) 0.4483(3)
H2 H 1.1609 0.3239 0.4229
C4 C 0.9626(6) 0.3635(3) 0.4555(3)
H3 H 0.9764 0.4083 0.4345
C5 C 0.8291(6) 0.3482(3) 0.4947(3)
C6 C 0.6986(6) 0.3818(3) 0.5161(3)
H4 H 0.6704 0.4284 0.5051
C7 C 0.4772(6) 0.3467(3) 0.5902(3)
H5 H 0.4288 0.3907 0.5858
C8 C 0.4112(6) 0.2970(3) 0.6286(3)
H6 H 0.4634 0.2538 0.6322
C9 C 0.2660(6) 0.3018(3) 0.6660(3)
C10 C 0.1761(6) 0.3621(3) 0.6665(3)
H7 H 0.2105 0.4026 0.6419
C11 C 0.0385(6) 0.3632(3) 0.7020(3)
H8 H -0.0208 0.4046 0.7013
C12 C -0.0146(6) 0.3049(3) 0.7388(3)
C13 C 0.0748(6) 0.2447(3) 0.7383(3)
H9 H 0.0401 0.2042 0.7629
C14 C 0.2115(6) 0.2430(2) 0.7030(3)
H10 H 0.2701 0.2015 0.7036
C15 C -0.1608(6) 0.3062(3) 0.7793(3)
C16 C -0.2083(8) 0.3659(4) 0.8152(4)
H11 H -0.1492 0.4068 0.812
C17 C -0.3403(9) 0.3666(5) 0.8555(5)
H12 H -0.3695 0.4078 0.8806
C18 C -0.4279(9) 0.3100(6) 0.8597(5)
H13 H -0.5197 0.3117 0.8866
C19 C -0.3857(8) 0.2494(5) 0.8250(4)
H14 H -0.4473 0.2092 0.8285
C20 C -0.2497(6) 0.2474(4) 0.7843(3)
H15 H -0.2195 0.2058 0.7604
Cl1 Cl 1.18494(17) 0.18494(8) 0.46865(10)
N1 N 0.8146(5) 0.2822(2) 0.5242(2)
N2 N 0.6866(5) 0.2732(2) 0.5613(2)
N3 N 0.6200(5) 0.3359(2) 0.5552(2)
C21 C 1.0127(12) 0.4437(5) 0.1199(8)
H16 H 1.0077 0.4809 0.078
H17 H 1.0967 0.4113 0.1113
H18 H 1.0372 0.4627 0.1781
C22 C 0.7399(11) 0.4475(4) 0.1341(6)
C23 C 0.7216(14) 0.5165(5) 0.0944(9)
H19 H 0.8007 0.5476 0.1265
H20 H 0.6135 0.5338 0.0959
H21 H 0.7384 0.5136 0.0347
C24 C 0.5926(10) 0.4025(4) 0.1053(5)
H22 H 0.5757 0.397 0.0427
H23 H 0.4982 0.4241 0.1219
H24 H 0.6097 0.3575 0.1327
C25 C 0.7674(15) 0.4565(5) 0.2300(6)
H25 H 0.7356 0.4147 0.2569
H26 H 0.7034 0.4951 0.2447
H27 H 0.8811 0.4656 0.2509
O1 O 0.8574(8) 0.4082(3) 0.1086(4)
P1 P 0.3329(4) 0.44940(14) 0.3507(2)
F1 F 0.3633(8) 0.4401(4) 0.2580(4)
F2 F 0.2632(8) 0.5209(3) 0.3257(4)
F3 F 0.1620(7) 0.4209(4) 0.3208(4)
F4 F 0.2913(9) 0.4577(3) 0.4454(4)
F5 F 0.3861(7) 0.3778(2) 0.3782(4)
F6 F 0.4886(7) 0.4859(3) 0.3869(4)
P2? P 0.3522(18) 0.4671(7) 0.3485(10)
F7? F 0.1771(18) 0.4751(9) 0.3557(12)
F8? F 0.390(3) 0.4629(11) 0.4474(10)
F9? F 0.363(3) 0.5440(7) 0.3533(14)
F10? F 0.335(3) 0.3907(8) 0.3319(15)
F11? F 0.316(3) 0.4734(12) 0.2506(10)
F12? F 0.5298(19) 0.4575(11) 0.3605(16)
loop_
_geom_bond_atom_site_label_1
_geom_bond_atom_site_label_2
_geom_bond_site_symmetry_1
_geom_bond_site_symmetry_2
C1 H1 1_555 1_555
C2 C1 1_555 1_555
C3 C2 1_555 1_555
H2 C3 1_555 1_555
C4 C3 1_555 1_555
H3 C4 1_555 1_555
C5 C4 1_555 1_555
C6 C5 1_555 1_555
H4 C6 1_555 1_555
C7 H5 1_555 1_555
C8 C7 1_555 1_555
H6 C8 1_555 1_555
C9 C8 1_555 1_555
C10 C9 1_555 1_555
H7 C10 1_555 1_555
C11 C10 1_555 1_555
H8 C11 1_555 1_555
C12 C11 1_555 1_555
C13 C12 1_555 1_555
H9 C13 1_555 1_555
C14 C9 1_555 1_555
H10 C14 1_555 1_555
C15 C12 1_555 1_555
C16 C15 1_555 1_555
H11 C16 1_555 1_555
C17 C16 1_555 1_555
H12 C17 1_555 1_555
C18 C17 1_555 1_555
H13 C18 1_555 1_555
C19 C18 1_555 1_555
H14 C19 1_555 1_555
C20 C15 1_555 1_555
H15 C20 1_555 1_555
Cl1 C2 1_555 1_555
N1 C1 1_555 1_555
N2 N1 1_555 1_555
N3 C6 1_555 1_555
C21 H16 1_555 1_555
H17 C21 1_555 1_555
H18 C21 1_555 1_555
C22 C23 1_555 1_555
C23 H19 1_555 1_555
H20 C23 1_555 1_555
H21 C23 1_555 1_555
C24 C22 1_555 1_555
H22 C24 1_555 1_555
H23 C24 1_555 1_555
H24 C24 1_555 1_555
C25 C22 1_555 1_555
H25 C25 1_555 1_555
H26 C25 1_555 1_555
H27 C25 1_555 1_555
O1 C21 1_555 1_555
P1 F1 1_555 1_555
F2 P1 1_555 1_555
F3 P1 1_555 1_555
F4 P1 1_555 1_555
F5 P1 1_555 1_555
F6 P1 1_555 1_555
C5 N1 1_555 1_555
C7 N3 1_555 1_555
C13 C14 1_555 1_555
C19 C20 1_555 1_555
N2 N3 1_555 1_555
C22 O1 1_555 1_555

#END
