
#######################################################################
#
#                 Cambridge Crystallographic Data Centre
#                                CCDC 
#
#######################################################################
#
# If this CIF has been generated from an entry in the Cambridge 
# Structural Database, then it will include bibliographic, chemical, 
# crystal, experimental, refinement or atomic coordinate data resulting 
# from the CCDC's data processing and validation procedures.
#
#######################################################################

data_UYEFOV
_chemical_formula_moiety         'C25 H24 Cl1 N1 O9 S1'
_chemical_name_systematic        
'dimethyl (6-chloro-8a-(methoxycarbonyl)-2-((4-methylphenyl)sulfonyl)-1-oxo-1,2,3,3a,8,8a-hexahydroindeno[1,2-c]pyrrol-8-yl)malonate'
_symmetry_cell_setting           monoclinic
_symmetry_space_group_name_H-M   'P 21/c'
_symmetry_Int_Tables_number      14
_space_group_name_Hall           '-P 2ybc'
loop_
_symmetry_equiv_pos_site_id
_symmetry_equiv_pos_as_xyz
1 x,y,z
2 -x,1/2+y,1/2-z
3 -x,-y,-z
4 x,1/2-y,1/2+z
_cell_length_a                   11.5585(8)
_cell_length_b                   9.8271(6)
_cell_length_c                   22.0416(15)
_cell_angle_alpha                90
_cell_angle_beta                 96.9700(10)
_cell_angle_gamma                90
_cell_volume                     2485.13
_exptl_crystal_colour            colorless
_exptl_crystal_description       BLOCK
_cell_formula_units_Z            4
loop_
_atom_site_label
_atom_site_type_symbol
_atom_site_fract_x
_atom_site_fract_y
_atom_site_fract_z
S1 S 1.01378(4) 0.50845(5) 0.12495(2)
Cl1 Cl 0.64491(5) -0.05062(5) 0.02690(3)
N1 N 0.87299(13) 0.55011(15) 0.11418(7)
O1 O 1.05855(11) 0.55704(14) 0.07125(6)
O2 O 1.06174(11) 0.55581(14) 0.18379(6)
O3 O 0.82190(11) 0.45640(13) 0.20351(6)
O4 O 0.72309(12) 0.74501(14) 0.18532(6)
O5 O 0.54795(12) 0.74506(14) 0.12823(6)
O6 O 0.48929(12) 0.55536(15) 0.22873(6)
O7 O 0.32990(12) 0.61715(15) 0.16619(6)
O8 O 0.30970(13) 0.32880(16) 0.07192(6)
O9 O 0.39741(12) 0.25918(14) 0.16296(6)
C1 C 0.9865(2) -0.1040(2) 0.12548(12)
H1 H 1.0261 -0.1387 0.1631
H2 H 1.0219 -0.1404 0.0918
H3 H 0.9060 -0.1305 0.1218
C2 C 0.99505(18) 0.0489(2) 0.12515(10)
C3 C 0.9817(2) 0.1222(2) 0.07052(10)
H4 H 0.9662 0.0746 0.0329
C4 C 0.99045(18) 0.2621(2) 0.06984(9)
H5 H 0.9824 0.3107 0.0323
C5 C 1.01133(15) 0.33039(19) 0.12531(8)
C6 C 1.02213(16) 0.2605(2) 0.18060(9)
H6 H 1.0341 0.3085 0.2182
C7 C 1.01517(17) 0.1197(2) 0.17987(9)
H7 H 1.0243 0.0710 0.2174
C8 C 0.81371(15) 0.60083(19) 0.05492(8)
H8 H 0.8480 0.5606 0.0200
H9 H 0.8177 0.7013 0.0524
C9 C 0.68827(15) 0.55200(19) 0.05669(8)
H10 H 0.6298 0.6118 0.0324
C10 C 0.67241(15) 0.54910(19) 0.12560(8)
C11 C 0.79607(15) 0.51185(18) 0.15504(8)
C12 C 0.67221(15) 0.40355(19) 0.04001(8)
C13 C 0.70822(15) 0.3372(2) -0.01019(8)
H11 H 0.7406 0.3870 -0.0410
C14 C 0.69604(17) 0.1972(2) -0.01448(9)
H12 H 0.7192 0.1499 -0.0486
C15 C 0.64988(16) 0.1265(2) 0.03137(9)
C16 C 0.61059(16) 0.1915(2) 0.08114(9)
H13 H 0.5774 0.1416 0.1116
C17 C 0.62170(15) 0.33222(19) 0.08453(8)
C18 C 0.59027(15) 0.42751(18) 0.13460(8)
H14 H 0.6113 0.3854 0.1758
C19 C 0.63813(16) 0.68904(19) 0.14668(8)
C20 C 0.6998(2) 0.8823(2) 0.20475(11)
H15 H 0.6977 0.9430 0.1705
H16 H 0.7603 0.9102 0.2360
H17 H 0.6261 0.8846 0.2206
C21 C 0.45996(15) 0.46821(19) 0.12554(8)
H18 H 0.4462 0.5268 0.0883
C22 C 0.43016(16) 0.5509(2) 0.17989(9)
C23 C 0.30094(19) 0.7138(2) 0.21171(11)
H19 H 0.2922 0.6666 0.2490
H20 H 0.2293 0.7589 0.1971
H21 H 0.3622 0.7798 0.2191
C24 C 0.37975(16) 0.3455(2) 0.11610(8)
C25 C 0.32648(19) 0.1366(2) 0.15753(10)
H22 H 0.2462 0.1608 0.1467
H23 H 0.3350 0.0890 0.1959
H24 H 0.3514 0.0789 0.1264
loop_
_geom_bond_atom_site_label_1
_geom_bond_atom_site_label_2
_geom_bond_site_symmetry_1
_geom_bond_site_symmetry_2
S1 N1 1_555 1_555
Cl1 C15 1_555 1_555
N1 C8 1_555 1_555
O1 S1 1_555 1_555
O2 S1 1_555 1_555
O3 C11 1_555 1_555
O4 C19 1_555 1_555
O5 C19 1_555 1_555
O6 C22 1_555 1_555
O7 C22 1_555 1_555
O8 C24 1_555 1_555
O9 C24 1_555 1_555
C1 H1 1_555 1_555
H2 C1 1_555 1_555
H3 C1 1_555 1_555
C2 C1 1_555 1_555
C3 C2 1_555 1_555
H4 C3 1_555 1_555
C4 C3 1_555 1_555
H5 C4 1_555 1_555
C5 S1 1_555 1_555
C6 C5 1_555 1_555
H6 C6 1_555 1_555
C7 C2 1_555 1_555
H7 C7 1_555 1_555
C8 H8 1_555 1_555
H9 C8 1_555 1_555
C9 C8 1_555 1_555
H10 C9 1_555 1_555
C10 C9 1_555 1_555
C11 N1 1_555 1_555
C12 C9 1_555 1_555
C13 C12 1_555 1_555
H11 C13 1_555 1_555
C14 C13 1_555 1_555
H12 C14 1_555 1_555
C15 C14 1_555 1_555
C16 C15 1_555 1_555
H13 C16 1_555 1_555
C17 C12 1_555 1_555
C18 C10 1_555 1_555
H14 C18 1_555 1_555
C19 C10 1_555 1_555
C20 O4 1_555 1_555
H15 C20 1_555 1_555
H16 C20 1_555 1_555
H17 C20 1_555 1_555
C21 C18 1_555 1_555
H18 C21 1_555 1_555
C22 C21 1_555 1_555
C23 O7 1_555 1_555
H19 C23 1_555 1_555
H20 C23 1_555 1_555
H21 C23 1_555 1_555
C24 C21 1_555 1_555
C25 O9 1_555 1_555
H22 C25 1_555 1_555
H23 C25 1_555 1_555
H24 C25 1_555 1_555
C4 C5 1_555 1_555
C6 C7 1_555 1_555
C10 C11 1_555 1_555
C16 C17 1_555 1_555
C17 C18 1_555 1_555

#END
