
#######################################################################
#
#                 Cambridge Crystallographic Data Centre
#                                CCDC 
#
#######################################################################
#
# If this CIF has been generated from an entry in the Cambridge 
# Structural Database, then it will include bibliographic, chemical, 
# crystal, experimental, refinement or atomic coordinate data resulting 
# from the CCDC's data processing and validation procedures.
#
#######################################################################

data_UYEFIP
_chemical_formula_moiety         'C25 H25 N1 O9 S1'
_chemical_name_systematic        
'dimethyl (8a-(methoxycarbonyl)-2-((4-methylphenyl)sulfonyl)-1-oxo-1,2,3,3a,8,8a-hexahydroindeno[1,2-c]pyrrol-8-yl)malonate'
_symmetry_cell_setting           monoclinic
_symmetry_space_group_name_H-M   'P 21/n'
_symmetry_Int_Tables_number      14
_space_group_name_Hall           '-P 2yn'
loop_
_symmetry_equiv_pos_site_id
_symmetry_equiv_pos_as_xyz
1 x,y,z
2 1/2-x,1/2+y,1/2-z
3 -x,-y,-z
4 1/2+x,1/2-y,1/2+z
_cell_length_a                   11.4204(7)
_cell_length_b                   8.8868(6)
_cell_length_c                   23.9585(15)
_cell_angle_alpha                90
_cell_angle_beta                 91.0290(10)
_cell_angle_gamma                90
_cell_volume                     2431.18
_exptl_crystal_colour            colorless
_exptl_crystal_description       BLOCK
_cell_formula_units_Z            4
loop_
_atom_site_label
_atom_site_type_symbol
_atom_site_fract_x
_atom_site_fract_y
_atom_site_fract_z
S1 S 1.19252(3) 0.49935(4) 0.18583(2)
O1 O 1.16972(9) 0.63727(11) 0.15709(4)
O2 O 1.30839(8) 0.43790(12) 0.18770(4)
O3 O 0.93629(8) 0.49830(10) 0.15396(4)
O4 O 0.89784(10) 0.20149(12) 0.22240(4)
O5 O 0.82194(9) 0.03684(11) 0.16030(4)
O6 O 0.69310(9) 0.49692(12) -0.01471(4)
O7 O 0.66734(10) 0.24941(13) -0.00182(5)
O8 O 0.67572(8) 0.56087(11) 0.10645(4)
O9 O 0.70111(8) 0.33662(11) 0.14784(4)
N1 N 1.11077(9) 0.36708(12) 0.15477(5)
C1 C 1.00450(15) 0.5211(2) 0.41952(7)
H1 H 1.0304 0.6107 0.4384
H2 H 1.0316 0.4344 0.4398
H3 H 0.9205 0.5201 0.4173
C2 C 1.05318(12) 0.51804(16) 0.36141(6)
C3 C 1.01240(12) 0.61828(17) 0.32065(6)
H4 H 0.9544 0.6901 0.3300
C4 C 1.05454(12) 0.61540(16) 0.26695(6)
H5 H 1.0258 0.6841 0.2396
C5 C 1.13971(11) 0.51025(14) 0.25374(5)
C6 C 1.18367(11) 0.41077(14) 0.29367(5)
H6 H 1.2428 0.3405 0.2843
C7 C 1.14029(12) 0.41514(15) 0.34738(6)
H7 H 1.1701 0.3475 0.3749
C8 C 1.15024(12) 0.20999(15) 0.15001(6)
H8 H 1.1540 0.1601 0.1869
H9 H 1.2279 0.2037 0.1325
C9 C 1.05450(11) 0.14087(14) 0.11250(5)
H10 H 1.0437 0.0316 0.1210
C10 C 0.94153(11) 0.23232(13) 0.12565(5)
C11 C 0.99059(11) 0.38409(14) 0.14614(5)
C12 C 1.06805(11) 0.16592(14) 0.05079(5)
C13 C 1.16545(13) 0.13366(15) 0.01884(6)
H11 H 1.2338 0.0908 0.0355
C14 C 1.16064(13) 0.16541(15) -0.03783(6)
H12 H 1.2266 0.1446 -0.0602
C15 C 1.06049(13) 0.22723(15) -0.06221(6)
H13 H 1.0589 0.2492 -0.1010
C16 C 0.96251(12) 0.25741(15) -0.03047(6)
H14 H 0.8938 0.2987 -0.0474
C17 C 0.96671(11) 0.22600(13) 0.02657(5)
C18 C 0.87114(11) 0.24462(14) 0.06956(5)
H15 H 0.8177 0.1558 0.0666
C19 C 0.79743(11) 0.38750(14) 0.06072(5)
H16 H 0.8504 0.4746 0.0534
C20 C 0.88202(12) 0.15990(14) 0.17500(5)
C21 C 0.77418(17) -0.0481(2) 0.20640(7)
H17 H 0.8368 -0.0800 0.2309
H18 H 0.7332 -0.1347 0.1922
H19 H 0.7210 0.0143 0.2266
C22 C 0.71285(11) 0.36684(16) 0.01113(5)
C23 C 0.60723(15) 0.4907(2) -0.05976(6)
H20 H 0.6363 0.4287 -0.0893
H21 H 0.5928 0.5904 -0.0737
H22 H 0.5357 0.4487 -0.0462
C24 C 0.72118(11) 0.42325(14) 0.11064(5)
C25 C 0.60301(14) 0.60499(17) 0.15261(6)
H23 H 0.5429 0.5310 0.1578
H24 H 0.5676 0.7007 0.1446
H25 H 0.6503 0.6125 0.1860
loop_
_geom_bond_atom_site_label_1
_geom_bond_atom_site_label_2
_geom_bond_site_symmetry_1
_geom_bond_site_symmetry_2
S1 O1 1_555 1_555
O2 S1 1_555 1_555
O3 C11 1_555 1_555
O4 C20 1_555 1_555
O5 C20 1_555 1_555
O6 C22 1_555 1_555
O7 C22 1_555 1_555
O8 C24 1_555 1_555
O9 C24 1_555 1_555
N1 S1 1_555 1_555
C1 H1 1_555 1_555
H2 C1 1_555 1_555
H3 C1 1_555 1_555
C2 C1 1_555 1_555
C3 C2 1_555 1_555
H4 C3 1_555 1_555
C4 C3 1_555 1_555
H5 C4 1_555 1_555
C5 S1 1_555 1_555
C6 C5 1_555 1_555
H6 C6 1_555 1_555
C7 C2 1_555 1_555
H7 C7 1_555 1_555
C8 N1 1_555 1_555
H8 C8 1_555 1_555
H9 C8 1_555 1_555
C9 C8 1_555 1_555
H10 C9 1_555 1_555
C10 C9 1_555 1_555
C11 N1 1_555 1_555
C12 C9 1_555 1_555
C13 C12 1_555 1_555
H11 C13 1_555 1_555
C14 C13 1_555 1_555
H12 C14 1_555 1_555
C15 C14 1_555 1_555
H13 C15 1_555 1_555
C16 C15 1_555 1_555
H14 C16 1_555 1_555
C17 C12 1_555 1_555
C18 C10 1_555 1_555
H15 C18 1_555 1_555
C19 C18 1_555 1_555
H16 C19 1_555 1_555
C20 C10 1_555 1_555
C21 O5 1_555 1_555
H17 C21 1_555 1_555
H18 C21 1_555 1_555
H19 C21 1_555 1_555
C22 C19 1_555 1_555
C23 O6 1_555 1_555
H20 C23 1_555 1_555
H21 C23 1_555 1_555
H22 C23 1_555 1_555
C24 C19 1_555 1_555
C25 O8 1_555 1_555
H23 C25 1_555 1_555
H24 C25 1_555 1_555
H25 C25 1_555 1_555
C4 C5 1_555 1_555
C6 C7 1_555 1_555
C10 C11 1_555 1_555
C16 C17 1_555 1_555
C17 C18 1_555 1_555

#END
