
#######################################################################
#
#                 Cambridge Crystallographic Data Centre
#                                CCDC 
#
#######################################################################
#
# If this CIF has been generated from an entry in the Cambridge 
# Structural Database, then it will include bibliographic, chemical, 
# crystal, experimental, refinement or atomic coordinate data resulting 
# from the CCDC's data processing and validation procedures.
#
#######################################################################

data_UYEGEM
_chemical_formula_moiety         'C23 H23 N1 O2'
_chemical_name_systematic        
5,6a,8,8-tetramethyl-10-phenyl-7,8-dihydrophenanthridine-6,9(5H,6aH)-dione
_symmetry_cell_setting           monoclinic
_symmetry_space_group_name_H-M   'P 21/c'
_symmetry_Int_Tables_number      14
_space_group_name_Hall           '-P 2ybc'
loop_
_symmetry_equiv_pos_site_id
_symmetry_equiv_pos_as_xyz
1 x,y,z
2 -x,1/2+y,1/2-z
3 -x,-y,-z
4 x,1/2-y,1/2+z
_cell_length_a                   10.9689(7)
_cell_length_b                   11.2631(8)
_cell_length_c                   15.5168(10)
_cell_angle_alpha                90
_cell_angle_beta                 104.2180(10)
_cell_angle_gamma                90
_cell_volume                     1858.28
_exptl_crystal_colour            colorless
_cell_formula_units_Z            4
_exptl_crystal_recrystallization_method 'Hexane/ethyl acetate'
loop_
_atom_site_label
_atom_site_type_symbol
_atom_site_fract_x
_atom_site_fract_y
_atom_site_fract_z
N1 N 0.37828(12) 0.81881(12) 0.84189(9)
C1 C 0.32484(14) 0.79013(13) 0.91011(10)
O1 O 0.36674(11) 0.71084(10) 0.96256(8)
O2 O 0.16343(14) 1.14194(11) 1.07190(9)
C2 C 0.20516(13) 0.85846(12) 0.91375(10)
C3 C 0.17687(14) 0.84766(13) 1.00499(10)
H1 H 0.0865 0.8512 0.9972
H2 H 0.2047 0.7701 1.0293
C4 C 0.23750(14) 0.94191(14) 1.07277(10)
C5 C 0.19666(14) 1.06155(14) 1.03081(11)
C6 C 0.20674(13) 1.07960(13) 0.93735(10)
C7 C 0.21749(13) 0.98619(13) 0.88567(10)
C8 C 0.24597(14) 0.99347(13) 0.79747(10)
C9 C 0.19554(17) 1.07747(15) 0.73295(11)
H3 H 0.1426 1.1359 0.7455
C10 C 0.2226(2) 1.07588(17) 0.65040(12)
H4 H 0.1878 1.1325 0.6078
C11 C 0.3015(2) 0.98955(19) 0.63188(13)
H5 H 0.3201 0.9883 0.5765
C12 C 0.35311(18) 0.90518(17) 0.69440(12)
H6 H 0.4065 0.8477 0.6811
C13 C 0.32578(14) 0.90546(14) 0.77746(11)
C14 C 0.48645(17) 0.74755(17) 0.83269(13)
H7 H 0.5157 0.7759 0.7830
H8 H 0.4616 0.6659 0.8232
H9 H 0.5528 0.7542 0.8859
C15 C 0.09687(15) 0.79600(15) 0.84517(12)
H10 H 0.0893 0.7154 0.8633
H11 H 0.1151 0.7967 0.7877
H12 H 0.0194 0.8373 0.8421
C16 C 0.1926(2) 0.92748(17) 1.15800(12)
H13 H 0.2186 0.8514 1.1840
H14 H 0.1025 0.9329 1.1442
H15 H 0.2285 0.9891 1.1992
C17 C 0.38159(15) 0.93726(16) 1.09541(12)
H16 H 0.4098 0.8620 1.1221
H17 H 0.4152 0.9999 1.1363
H18 H 0.4100 0.9469 1.0420
C18 C 0.21618(14) 1.20715(13) 0.91326(10)
C19 C 0.11167(16) 1.28025(15) 0.89480(13)
H19 H 0.0328 1.2484 0.8928
C20 C 0.1231(2) 1.39967(16) 0.87938(14)
H20 H 0.0518 1.4475 0.8663
C21 C 0.2386(2) 1.44834(16) 0.88319(13)
H21 H 0.2460 1.5290 0.8727
C22 C 0.3427(2) 1.37758(17) 0.90252(14)
H22 H 0.4215 1.4104 0.9056
C23 C 0.33202(16) 1.25783(16) 0.91754(12)
H23 H 0.4038 1.2106 0.9307
loop_
_geom_bond_atom_site_label_1
_geom_bond_atom_site_label_2
_geom_bond_site_symmetry_1
_geom_bond_site_symmetry_2
N1 C1 1_555 1_555
C1 O1 1_555 1_555
O2 C5 1_555 1_555
C2 C1 1_555 1_555
C3 C2 1_555 1_555
H1 C3 1_555 1_555
H2 C3 1_555 1_555
C4 C3 1_555 1_555
C5 C4 1_555 1_555
C6 C5 1_555 1_555
C7 C2 1_555 1_555
C8 C7 1_555 1_555
C9 C8 1_555 1_555
H3 C9 1_555 1_555
C10 C9 1_555 1_555
H4 C10 1_555 1_555
C11 C10 1_555 1_555
H5 C11 1_555 1_555
C12 C11 1_555 1_555
H6 C12 1_555 1_555
C13 N1 1_555 1_555
C14 N1 1_555 1_555
H7 C14 1_555 1_555
H8 C14 1_555 1_555
H9 C14 1_555 1_555
C15 C2 1_555 1_555
H10 C15 1_555 1_555
H11 C15 1_555 1_555
H12 C15 1_555 1_555
C16 C4 1_555 1_555
H13 C16 1_555 1_555
H14 C16 1_555 1_555
H15 C16 1_555 1_555
C17 C4 1_555 1_555
H16 C17 1_555 1_555
H17 C17 1_555 1_555
H18 C17 1_555 1_555
C18 C6 1_555 1_555
C19 C18 1_555 1_555
H19 C19 1_555 1_555
C20 C19 1_555 1_555
H20 C20 1_555 1_555
C21 C20 1_555 1_555
H21 C21 1_555 1_555
C22 C21 1_555 1_555
H22 C22 1_555 1_555
C23 C18 1_555 1_555
H23 C23 1_555 1_555
C6 C7 1_555 1_555
C8 C13 1_555 1_555
C12 C13 1_555 1_555
C22 C23 1_555 1_555

#END
