
#######################################################################
#
#                 Cambridge Crystallographic Data Centre
#                                CCDC 
#
#######################################################################
#
# If this CIF has been generated from an entry in the Cambridge 
# Structural Database, then it will include bibliographic, chemical, 
# crystal, experimental, refinement or atomic coordinate data resulting 
# from the CCDC's data processing and validation procedures.
#
#######################################################################

data_UYEHOW
_chemical_formula_moiety         
'C26 H12 Cl4 N6 O2 2-,2(C2 H6 O1 S1),2(C16 H36 N1 1+)'
_chemical_name_systematic        
'6,14,22,30-Tetrachloro-10,26-dioxo-2,9,11,18,25,27-hexaazaheptacyclo[26.4.0.0^3,8^.0^4,32^.0^12,17^.0^16,20^.0^19,24^]dotriaconta-1(32),3,5,7,12,14,16,19,21,23,28,30-dodecaene-9,25-diide bis(tetra-n-butylammonium) dimethyl sulfoxide solvate'
_symmetry_cell_setting           monoclinic
_symmetry_space_group_name_H-M   'P 21/n'
_symmetry_Int_Tables_number      14
_space_group_name_Hall           '-P 2yn'
loop_
_symmetry_equiv_pos_site_id
_symmetry_equiv_pos_as_xyz
1 x,y,z
2 1/2-x,1/2+y,1/2-z
3 -x,-y,-z
4 1/2+x,1/2-y,1/2+z
_cell_length_a                   15.850(3)
_cell_length_b                   16.963(3)
_cell_length_c                   24.837(5)
_cell_angle_alpha                90
_cell_angle_beta                 95.736(4)
_cell_angle_gamma                90
_cell_volume                     6644.33
_exptl_crystal_colour            yellow
_exptl_crystal_description       stick
_cell_formula_units_Z            4
_chemical_properties_physical    'Heat- and oxygen-sensitive'
_exptl_crystal_recrystallization_method 'dimethyl sulfoxide/acetonitrile'
_exptl_crystal_preparation       Luminescent
loop_
_atom_site_label
_atom_site_type_symbol
_atom_site_fract_x
_atom_site_fract_y
_atom_site_fract_z
Cl1 Cl 0.35967(11) 0.48139(12) 0.22045(8)
Cl2 Cl 0.87444(13) 0.43290(12) 0.53691(7)
Cl3 Cl 0.64929(15) 0.43918(15) -0.04765(7)
Cl4 Cl 1.14906(12) 0.48957(14) 0.26326(8)
O1 O 0.5506(3) 0.3032(3) 0.34425(16)
O2 O 0.9620(3) 0.2992(3) 0.14535(17)
N1 N 0.8195(3) 0.3610(2) 0.30541(17)
H1 H 0.7791 0.3391 0.2850
N2 N 0.6850(3) 0.3148(3) 0.38113(19)
H2 H 0.6755 0.2769 0.4028
N3 N 0.6471(3) 0.3556(2) 0.29221(18)
N4 N 0.6918(3) 0.3550(2) 0.18211(17)
H3 H 0.7318 0.3322 0.2023
N5 N 0.8259(4) 0.3069(3) 0.1091(2)
H4 H 0.8326 0.2654 0.0902
N6 N 0.8644(3) 0.3570(3) 0.19499(18)
C1 C 0.8943(4) 0.3895(3) 0.2904(2)
C2 C 0.9212(4) 0.3878(3) 0.2377(2)
C3 C 0.9984(4) 0.4190(4) 0.2308(2)
H5 H 1.0171 0.4201 0.1965
C4 C 1.0495(4) 0.4494(4) 0.2748(3)
C5 C 1.0256(4) 0.4523(3) 0.3256(3)
H6 H 1.0608 0.4740 0.3540
C6 C 0.9456(4) 0.4212(3) 0.3339(2)
C7 C 0.9001(4) 0.4134(3) 0.3794(2)
C8 C 0.9166(4) 0.4318(3) 0.4341(2)
H7 H 0.9670 0.4560 0.4476
C9 C 0.8560(4) 0.4129(3) 0.4672(2)
C10 C 0.7804(4) 0.3760(3) 0.4485(2)
H8 H 0.7412 0.3648 0.4729
C11 C 0.7617(4) 0.3557(3) 0.3953(2)
C12 C 0.8226(4) 0.3746(3) 0.3591(2)
C13 C 0.6226(5) 0.3247(3) 0.3387(3)
C14 C 0.5889(4) 0.3818(3) 0.2493(2)
C15 C 0.5092(4) 0.4127(3) 0.2549(3)
H9 H 0.4884 0.4127 0.2886
C16 C 0.4599(4) 0.4437(3) 0.2100(3)
C17 C 0.4860(4) 0.4480(3) 0.1604(3)
H10 H 0.4522 0.4705 0.1316
C18 C 0.5673(4) 0.4169(3) 0.1535(2)
C19 C 0.6175(4) 0.3832(3) 0.1971(2)
C20 C 0.6145(4) 0.4102(3) 0.1082(2)
C21 C 0.6895(4) 0.3707(3) 0.1287(2)
C22 C 0.7519(4) 0.3510(3) 0.0933(2)
C23 C 0.7367(5) 0.3737(4) 0.0394(3)
H11 H 0.7763 0.3623 0.0153
C24 C 0.6629(5) 0.4131(4) 0.0217(3)
C25 C 0.6011(4) 0.4321(4) 0.0541(3)
H12 H 0.5521 0.4586 0.0405
C26 C 0.8890(5) 0.3209(3) 0.1507(3)
N7 N 0.7369(4) 0.6134(3) 0.2456(2)
C27 C 0.6669(5) 0.6689(4) 0.2261(3)
H13 H 0.6888 0.7073 0.2021
H14 H 0.6491 0.6972 0.2569
C28 C 0.5898(6) 0.6289(5) 0.1964(4)
H15 H 0.5661 0.5914 0.2202
H16 H 0.6066 0.6004 0.1653
C29 C 0.5230(8) 0.6905(7) 0.1776(5)
H17 H 0.5496 0.7396 0.1685
H18 H 0.4874 0.6720 0.1461
C30 C 0.4794(9) 0.7001(7) 0.2177(6)
H19 H 0.5086 0.6766 0.2494
H20 H 0.4250 0.6756 0.2099
H21 H 0.4719 0.7555 0.2238
C31 C 0.7093(5) 0.5574(4) 0.2877(3)
H22 H 0.6628 0.5257 0.2713
H23 H 0.7560 0.5221 0.2987
C32 C 0.6820(7) 0.5963(5) 0.3366(4)
H24 H 0.7289 0.6269 0.3539
H25 H 0.6359 0.6324 0.3258
C33 C 0.6537(8) 0.5391(6) 0.3761(4)
H26 H 0.6070 0.5090 0.3582
H27 H 0.6999 0.5024 0.3855
C34 C 0.6268(9) 0.5703(6) 0.4260(5)
H28 H 0.6668 0.6091 0.4406
H29 H 0.6238 0.5283 0.4516
H30 H 0.5719 0.5942 0.4187
C35 C 0.8122(5) 0.6648(4) 0.2669(3)
H31 H 0.8244 0.7016 0.2389
H32 H 0.7965 0.6953 0.2974
C36 C 0.8923(6) 0.6185(5) 0.2847(5)
H33 H 0.8801 0.5799 0.3117
H34 H 0.9105 0.5903 0.2539
C37 C 0.9630(11) 0.6718(8) 0.3081(8)
H35 H 1.0177 0.6463 0.3075
H36 H 0.9632 0.7208 0.2881
C38 C 0.9450(13) 0.6849(10) 0.3602(9)
H37 H 0.9154 0.6403 0.3728
H38 H 0.9102 0.7311 0.3613
H39 H 0.9969 0.6927 0.3830
C39 C 0.7633(5) 0.5632(4) 0.1995(3)
H40 H 0.8102 0.5298 0.2133
H41 H 0.7164 0.5292 0.1867
C40 C 0.7896(7) 0.6096(6) 0.1522(4)
H42 H 0.8339 0.6467 0.1648
H43 H 0.7416 0.6394 0.1357
C41 C 0.8218(12) 0.5549(7) 0.1107(5)
H44 H 0.8682 0.5249 0.1291
H45 H 0.7767 0.5176 0.1003
C42 C 0.8459(15) 0.5797(12) 0.0701(9)
H46 H 0.8652 0.6330 0.0757
H47 H 0.8002 0.5784 0.0416
H48 H 0.8918 0.5477 0.0601
N8 N 0.2686(3) 0.7753(4) 0.3679(2)
C43 C 0.1862(4) 0.7985(4) 0.3885(3)
H49 H 0.1715 0.8509 0.3751
H50 H 0.1425 0.7628 0.3730
C44 C 0.1840(4) 0.7987(4) 0.4485(3)
H51 H 0.2017 0.7472 0.4624
H52 H 0.2249 0.8369 0.4641
C45 C 0.0995(5) 0.8174(5) 0.4669(4)
H53 H 0.0801 0.8668 0.4504
H54 H 0.0599 0.7769 0.4533
C46 C 0.0954(5) 0.8241(5) 0.5256(3)
H55 H 0.0995 0.7726 0.5416
H56 H 0.0425 0.8479 0.5324
H57 H 0.1415 0.8562 0.5411
C47 C 0.3415(5) 0.8231(5) 0.3933(3)
H58 H 0.3507 0.8095 0.4314
H59 H 0.3920 0.8082 0.3767
C48 C 0.3311(6) 0.9095(6) 0.3887(4)
H60 H 0.2789 0.9249 0.4032
H61 H 0.3266 0.9244 0.3508
C49 C 0.4067(7) 0.9538(7) 0.4195(5)
H62 H 0.4143 0.9340 0.4563
H63 H 0.4576 0.9412 0.4026
C50 C 0.3990(10) 1.0342(9) 0.4215(7)
H64 H 0.4481 1.0582 0.4087
H65 H 0.3943 1.0503 0.4581
H66 H 0.3492 1.0503 0.3990
C51 C 0.2620(6) 0.7875(5) 0.3068(3)
H67 H 0.2512 0.8431 0.2999
H68 H 0.3171 0.7759 0.2949
C52 C 0.2000(8) 0.7437(7) 0.2730(4)
H69 H 0.1437 0.7573 0.2821
H70 H 0.2085 0.6878 0.2796
C53 C 0.1667(13) 0.7188(11) 0.1775(6)
H71 H 0.1163 0.6984 0.1909
H72 H 0.2022 0.6758 0.1686
H73 H 0.1515 0.7500 0.1457
C54 C 0.2064(12) 0.7612(10) 0.2134(5)
H74 H 0.1879 0.8151 0.2068
H75 H 0.2660 0.7591 0.2076
C55 C 0.2861(5) 0.6887(5) 0.3815(3)
H76 H 0.2962 0.6845 0.4206
H77 H 0.2346 0.6595 0.3707
C56 C 0.3563(7) 0.6479(7) 0.3584(4)
H78 H 0.4072 0.6795 0.3658
H79 H 0.3434 0.6458 0.3195
C57 C 0.3758(11) 0.5645(8) 0.3788(8)
H80 H 0.4217 0.5455 0.3592
H81 H 0.3988 0.5696 0.4163
C58 C 0.3245(12) 0.5121(13) 0.3775(8)
H82 H 0.3017 0.5087 0.4118
H83 H 0.3513 0.4631 0.3700
H84 H 0.2795 0.5226 0.3496
S1 S 1.02181(18) 0.20532(16) 0.99763(10)
C61 C 0.9810(6) 0.1286(5) 0.9564(4)
H91 H 0.9870 0.1410 0.9193
H92 H 0.9221 0.1214 0.9610
H93 H 1.0114 0.0809 0.9662
C62 C 0.9807(8) 0.2700(6) 0.9579(4)
H94 H 1.0154 0.2775 0.9288
H95 H 0.9765 0.3187 0.9772
H96 H 0.9251 0.2532 0.9436
O4 O 1.1128(3) 0.2199(3) 0.98776(18)
C59 C 0.6295(11) 0.1749(12) 1.0153(9)
H85 H 0.6157 0.1205 1.0206
H86 H 0.5785 0.2038 1.0044
H87 H 0.6562 0.1964 1.0484
O3 O 0.7790(5) 0.2013(5) 0.9821(4)
C60 C 0.6414(18) 0.1824(17) 0.9179(12)
H88 H 0.6433 0.2331 0.9008
H89 H 0.5848 0.1721 0.9265
H90 H 0.6581 0.1425 0.8937
S2 S 0.6974(5) 0.1819(6) 0.9658(3)
loop_
_geom_bond_atom_site_label_1
_geom_bond_atom_site_label_2
_geom_bond_site_symmetry_1
_geom_bond_site_symmetry_2
Cl1 C16 1_555 1_555
Cl2 C9 1_555 1_555
Cl3 C24 1_555 1_555
Cl4 C4 1_555 1_555
O1 C13 1_555 1_555
O2 C26 1_555 1_555
N1 H1 1_555 1_555
N2 H2 1_555 1_555
N3 C13 1_555 1_555
N4 H3 1_555 1_555
N5 H4 1_555 1_555
N6 C2 1_555 1_555
C1 N1 1_555 1_555
C2 C1 1_555 1_555
C3 C2 1_555 1_555
H5 C3 1_555 1_555
C4 C3 1_555 1_555
C5 C4 1_555 1_555
H6 C5 1_555 1_555
C6 C1 1_555 1_555
C7 C6 1_555 1_555
C8 C7 1_555 1_555
H7 C8 1_555 1_555
C9 C8 1_555 1_555
C10 C9 1_555 1_555
H8 C10 1_555 1_555
C11 N2 1_555 1_555
C12 N1 1_555 1_555
C13 N2 1_555 1_555
C14 N3 1_555 1_555
C15 C14 1_555 1_555
H9 C15 1_555 1_555
C16 C15 1_555 1_555
C17 C16 1_555 1_555
H10 C17 1_555 1_555
C18 C17 1_555 1_555
C19 N4 1_555 1_555
C20 C18 1_555 1_555
C21 N4 1_555 1_555
C22 N5 1_555 1_555
C23 C22 1_555 1_555
H11 C23 1_555 1_555
C24 C23 1_555 1_555
C25 C20 1_555 1_555
H12 C25 1_555 1_555
C26 N5 1_555 1_555
N7 C27 1_555 1_555
C27 H13 1_555 1_555
H14 C27 1_555 1_555
C28 C27 1_555 1_555
H15 C28 1_555 1_555
H16 C28 1_555 1_555
C29 C28 1_555 1_555
H17 C29 1_555 1_555
H18 C29 1_555 1_555
C30 C29 1_555 1_555
H19 C30 1_555 1_555
H20 C30 1_555 1_555
H21 C30 1_555 1_555
C31 N7 1_555 1_555
H22 C31 1_555 1_555
H23 C31 1_555 1_555
C32 C31 1_555 1_555
H24 C32 1_555 1_555
H25 C32 1_555 1_555
C33 C32 1_555 1_555
H26 C33 1_555 1_555
H27 C33 1_555 1_555
C34 C33 1_555 1_555
H28 C34 1_555 1_555
H29 C34 1_555 1_555
H30 C34 1_555 1_555
C35 N7 1_555 1_555
H31 C35 1_555 1_555
H32 C35 1_555 1_555
C36 C35 1_555 1_555
H33 C36 1_555 1_555
H34 C36 1_555 1_555
C37 C36 1_555 1_555
H35 C37 1_555 1_555
H36 C37 1_555 1_555
C38 C37 1_555 1_555
H37 C38 1_555 1_555
H38 C38 1_555 1_555
H39 C38 1_555 1_555
C39 N7 1_555 1_555
H40 C39 1_555 1_555
H41 C39 1_555 1_555
C40 C39 1_555 1_555
H42 C40 1_555 1_555
H43 C40 1_555 1_555
C41 C40 1_555 1_555
H44 C41 1_555 1_555
H45 C41 1_555 1_555
C42 C41 1_555 1_555
H46 C42 1_555 1_555
H47 C42 1_555 1_555
H48 C42 1_555 1_555
N8 C43 1_555 1_555
C43 H49 1_555 1_555
H50 C43 1_555 1_555
C44 C43 1_555 1_555
H51 C44 1_555 1_555
H52 C44 1_555 1_555
C45 C44 1_555 1_555
H53 C45 1_555 1_555
H54 C45 1_555 1_555
C46 C45 1_555 1_555
H55 C46 1_555 1_555
H56 C46 1_555 1_555
H57 C46 1_555 1_555
C47 N8 1_555 1_555
H58 C47 1_555 1_555
H59 C47 1_555 1_555
C48 C47 1_555 1_555
H60 C48 1_555 1_555
H61 C48 1_555 1_555
C49 C48 1_555 1_555
H62 C49 1_555 1_555
H63 C49 1_555 1_555
C50 C49 1_555 1_555
H64 C50 1_555 1_555
H65 C50 1_555 1_555
H66 C50 1_555 1_555
C51 N8 1_555 1_555
H67 C51 1_555 1_555
H68 C51 1_555 1_555
C52 C51 1_555 1_555
H69 C52 1_555 1_555
H70 C52 1_555 1_555
C53 H71 1_555 1_555
H72 C53 1_555 1_555
H73 C53 1_555 1_555
C54 C52 1_555 1_555
H74 C54 1_555 1_555
H75 C54 1_555 1_555
C55 N8 1_555 1_555
H76 C55 1_555 1_555
H77 C55 1_555 1_555
C56 C55 1_555 1_555
H78 C56 1_555 1_555
H79 C56 1_555 1_555
C57 C56 1_555 1_555
H80 C57 1_555 1_555
H81 C57 1_555 1_555
C58 C57 1_555 1_555
H82 C58 1_555 1_555
H83 C58 1_555 1_555
H84 C58 1_555 1_555
S1 C61 1_555 1_555
C59 H85 1_555 1_555
H86 C59 1_555 1_555
H87 C59 1_555 1_555
O3 S2 1_555 1_555
C60 H88 1_555 1_555
H89 C60 1_555 1_555
H90 C60 1_555 1_555
S2 C59 1_555 1_555
C61 H91 1_555 1_555
H92 C61 1_555 1_555
H93 C61 1_555 1_555
C62 S1 1_555 1_555
H94 C62 1_555 1_555
H95 C62 1_555 1_555
H96 C62 1_555 1_555
O4 S1 1_555 1_555
N6 C26 1_555 1_555
C5 C6 1_555 1_555
C7 C12 1_555 1_555
C10 C11 1_555 1_555
C11 C12 1_555 1_555
C14 C19 1_555 1_555
C18 C19 1_555 1_555
C20 C21 1_555 1_555
C21 C22 1_555 1_555
C24 C25 1_555 1_555
C53 C54 1_555 1_555
C60 S2 1_555 1_555

#END
