
#######################################################################
#
#                 Cambridge Crystallographic Data Centre
#                                CCDC 
#
#######################################################################
#
# If this CIF has been generated from an entry in the Cambridge 
# Structural Database, then it will include bibliographic, chemical, 
# crystal, experimental, refinement or atomic coordinate data resulting 
# from the CCDC's data processing and validation procedures.
#
#######################################################################

data_UYEHIQ
_chemical_formula_moiety         'C56 Cl12,C7 H8'
_chemical_name_systematic        'dodecachloroC56fullerene toluene solvate'
_symmetry_cell_setting           triclinic
_symmetry_space_group_name_H-M   'P -1'
_symmetry_Int_Tables_number      2
_space_group_name_Hall           '-P 1'
loop_
_symmetry_equiv_pos_site_id
_symmetry_equiv_pos_as_xyz
1 x,y,z
2 -x,-y,-z
_cell_length_a                   11.1464(10)
_cell_length_b                   12.9379(14)
_cell_length_c                   16.7216(13)
_cell_angle_alpha                68.497(9)
_cell_angle_beta                 78.893(7)
_cell_angle_gamma                70.374(9)
_cell_volume                     2106.6
_cell_formula_units_Z            2
loop_
_atom_site_label
_atom_site_type_symbol
_atom_site_fract_x
_atom_site_fract_y
_atom_site_fract_z
Cl1 Cl 0.39872(7) 0.12775(6) 0.47528(4)
Cl2 Cl -0.22003(7) 0.92874(6) 0.28107(5)
Cl3 Cl -0.07120(7) 0.82635(6) 0.44732(5)
Cl4 Cl 0.46019(7) 0.87128(6) -0.01710(5)
Cl5 Cl 0.18224(7) 0.83349(7) -0.09019(4)
Cl6 Cl -0.20090(7) 0.89068(6) 0.06635(5)
Cl7 Cl 0.66006(7) 0.16425(6) 0.39016(5)
Cl8 Cl 0.24107(7) 0.62888(7) 0.53670(4)
Cl9 Cl 0.32977(7) 0.31189(6) 0.56071(4)
Cl10 Cl 0.73660(6) 0.60738(6) 0.06422(4)
Cl11 Cl 0.80934(6) 0.36583(6) 0.21028(5)
Cl12 Cl -0.04242(7) 0.73364(7) -0.04330(4)
C1 C 0.1954(3) 0.4490(2) 0.42145(16)
C2 C 0.2419(3) 0.7404(2) 0.35914(17)
C3 C 0.5089(3) 0.3053(2) 0.25649(17)
C4 C 0.0124(2) 0.4842(2) 0.25791(17)
C5 C 0.1486(3) 0.8256(2) 0.07664(17)
C6 C 0.1195(3) 0.3896(2) 0.25063(17)
C7 C 0.1298(3) 0.8078(2) 0.32439(18)
C8 C 0.0088(3) 0.7747(2) 0.36013(18)
C9 C 0.1217(3) 0.4170(2) 0.38134(16)
C10 C -0.0282(3) 0.6118(2) 0.34307(16)
C11 C 0.3315(3) 0.3690(2) 0.44418(17)
C12 C 0.0424(3) 0.6431(2) 0.38735(16)
C13 C 0.6431(3) 0.4432(2) 0.20836(18)
C14 C 0.5015(3) 0.5695(2) 0.09247(17)
C15 C 0.3123(3) 0.2876(2) 0.32829(17)
C16 C 0.2429(3) 0.8572(2) 0.18001(18)
C17 C 0.4934(3) 0.4549(2) 0.11709(17)
C18 C 0.1604(3) 0.5064(2) 0.10072(16)
C19 C 0.5626(3) 0.3812(2) 0.19095(17)
C20 C 0.2530(3) 0.8384(2) 0.10083(17)
C21 C 0.3619(3) 0.7981(2) 0.21819(18)
C22 C 0.1839(3) 0.3392(2) 0.32928(16)
C23 C 0.0133(2) 0.5003(2) 0.33865(16)
C24 C 0.1574(3) 0.5676(2) 0.42033(16)
C25 C 0.1926(3) 0.3993(2) 0.17136(17)
C26 C -0.0848(2) 0.7100(2) 0.27206(17)
C27 C 0.3816(3) 0.4392(2) 0.10413(16)
C28 C 0.3879(3) 0.2964(2) 0.24852(17)
C29 C 0.4509(3) 0.6286(2) 0.33783(17)
C30 C 0.2562(3) 0.6210(2) 0.42884(17)
C31 C -0.0253(2) 0.5830(2) 0.18583(17)
C32 C 0.3896(3) 0.5541(2) 0.40436(16)
C33 C 0.0303(3) 0.8429(2) 0.12596(17)
C34 C 0.1630(3) 0.7515(2) 0.02253(16)
C35 C 0.0504(3) 0.5923(2) 0.10634(17)
C36 C 0.2809(3) 0.5363(2) 0.06349(16)
C37 C 0.4539(3) 0.7498(2) 0.15911(18)
C38 C 0.0196(3) 0.8623(2) 0.20345(18)
C39 C -0.0717(3) 0.8196(2) 0.27849(18)
C40 C 0.5226(3) 0.2829(2) 0.35114(17)
C41 C 0.3976(3) 0.6654(2) 0.06260(16)
C42 C -0.0562(3) 0.7875(2) 0.10893(17)
C43 C 0.4245(3) 0.4396(2) 0.40994(16)
C44 C 0.3604(3) 0.7400(2) 0.30655(18)
C45 C 0.5879(3) 0.4666(2) 0.29201(17)
C46 C 0.5493(3) 0.6500(2) 0.18938(17)
C47 C 0.3890(3) 0.2684(2) 0.40038(17)
C48 C 0.5466(3) 0.5861(2) 0.28002(17)
C49 C 0.5271(3) 0.3942(2) 0.35679(17)
C50 C 0.1282(3) 0.8647(2) 0.23263(18)
C51 C 0.6077(3) 0.5692(2) 0.13796(17)
C52 C 0.3902(3) 0.7782(2) 0.07657(17)
C53 C -0.0804(2) 0.6960(2) 0.19442(17)
C54 C 0.3285(3) 0.3551(2) 0.17108(17)
C55 C 0.0312(3) 0.7158(3) 0.04832(17)
C56 C 0.2860(3) 0.6493(2) 0.04346(16)
C57 C 0.2201(3) 0.0965(3) 0.2357(2)
H1 H 0.2433 0.1238 0.1756
C58 C 0.3161(4) 0.0294(3) 0.2935(3)
C59 C 0.0586(4) 0.0812(3) 0.3542(3)
H2 H -0.0289 0.0999 0.3750
C60 C 0.0944(4) 0.1224(3) 0.2652(3)
H3 H 0.0307 0.1683 0.2257
C61 C 0.2814(4) -0.0111(3) 0.3779(2)
H4 H 0.3449 -0.0576 0.4175
C62 C 0.1488(5) 0.0156(4) 0.4087(3)
H5 H 0.1252 -0.0138 0.4686
C63 C 0.4530(4) 0.0039(4) 0.2607(4)
H6 H 0.5062 -0.0434 0.3092
H7 H 0.4748 0.0769 0.2313
H8 H 0.4681 -0.0387 0.2201
loop_
_geom_bond_atom_site_label_1
_geom_bond_atom_site_label_2
_geom_bond_site_symmetry_1
_geom_bond_site_symmetry_2
Cl1 C47 1_555 1_555
Cl2 C39 1_555 1_555
Cl3 C8 1_555 1_555
Cl4 C52 1_555 1_555
Cl5 C34 1_555 1_555
Cl6 C42 1_555 1_555
Cl7 C40 1_555 1_555
Cl8 C30 1_555 1_555
Cl9 C11 1_555 1_555
Cl10 C51 1_555 1_555
Cl11 C13 1_555 1_555
Cl12 C55 1_555 1_555
C1 C9 1_555 1_555
C2 C7 1_555 1_555
C3 C19 1_555 1_555
C4 C6 1_555 1_555
C5 C20 1_555 1_555
C6 C22 1_555 1_555
C7 C8 1_555 1_555
C8 C12 1_555 1_555
C9 C22 1_555 1_555
C10 C12 1_555 1_555
C11 C1 1_555 1_555
C12 C24 1_555 1_555
C13 C19 1_555 1_555
C14 C17 1_555 1_555
C15 C22 1_555 1_555
C16 C20 1_555 1_555
C17 C19 1_555 1_555
C18 C25 1_555 1_555
C20 C52 1_555 1_555
C21 C16 1_555 1_555
C23 C4 1_555 1_555
C24 C1 1_555 1_555
C25 C6 1_555 1_555
C26 C10 1_555 1_555
C27 C17 1_555 1_555
C28 C3 1_555 1_555
C29 C32 1_555 1_555
C30 C2 1_555 1_555
C31 C4 1_555 1_555
C32 C30 1_555 1_555
C33 C5 1_555 1_555
C34 C5 1_555 1_555
C35 C18 1_555 1_555
C36 C18 1_555 1_555
C37 C21 1_555 1_555
C38 C33 1_555 1_555
C39 C8 1_555 1_555
C40 C3 1_555 1_555
C41 C14 1_555 1_555
C42 C33 1_555 1_555
C43 C11 1_555 1_555
C44 C2 1_555 1_555
C45 C13 1_555 1_555
C46 C37 1_555 1_555
C47 C11 1_555 1_555
C48 C29 1_555 1_555
C49 C40 1_555 1_555
C50 C7 1_555 1_555
C51 C13 1_555 1_555
C52 C37 1_555 1_555
C53 C26 1_555 1_555
C54 C25 1_555 1_555
C55 C34 1_555 1_555
C56 C34 1_555 1_555
C57 H1 1_555 1_555
C58 C57 1_555 1_555
C59 H2 1_555 1_555
C60 C57 1_555 1_555
H3 C60 1_555 1_555
C61 C58 1_555 1_555
H4 C61 1_555 1_555
C62 C59 1_555 1_555
H5 C62 1_555 1_555
C63 C58 1_555 1_555
H6 C63 1_555 1_555
H7 C63 1_555 1_555
H8 C63 1_555 1_555
C9 C23 1_555 1_555
C10 C23 1_555 1_555
C14 C51 1_555 1_555
C15 C28 1_555 1_555
C15 C47 1_555 1_555
C16 C50 1_555 1_555
C21 C44 1_555 1_555
C24 C30 1_555 1_555
C26 C39 1_555 1_555
C27 C36 1_555 1_555
C27 C54 1_555 1_555
C28 C54 1_555 1_555
C29 C44 1_555 1_555
C31 C35 1_555 1_555
C31 C53 1_555 1_555
C32 C43 1_555 1_555
C35 C55 1_555 1_555
C36 C56 1_555 1_555
C38 C39 1_555 1_555
C38 C50 1_555 1_555
C40 C47 1_555 1_555
C41 C52 1_555 1_555
C41 C56 1_555 1_555
C42 C53 1_555 1_555
C42 C55 1_555 1_555
C43 C49 1_555 1_555
C45 C48 1_555 1_555
C45 C49 1_555 1_555
C46 C48 1_555 1_555
C46 C51 1_555 1_555
C59 C60 1_555 1_555
C61 C62 1_555 1_555

#END
