
#######################################################################
#
#                 Cambridge Crystallographic Data Centre
#                                CCDC 
#
#######################################################################
#
# If this CIF has been generated from an entry in the Cambridge 
# Structural Database, then it will include bibliographic, chemical, 
# crystal, experimental, refinement or atomic coordinate data resulting 
# from the CCDC's data processing and validation procedures.
#
#######################################################################

data_UYEXIH02
_chemical_formula_moiety         'C25 H38 N6 O7 S2,2(H2 O1)'
_chemical_name_systematic        
'12-acetamido-6,9-dimethyl-1-(((4-methylphenyl)sulfonyl)imino)-5,8,11-trioxo-1-thia-4,7,10-triazacycloheptadecane-3-carboxamide dihydrate'
_symmetry_cell_setting           monoclinic
_symmetry_space_group_name_H-M   'P 21/c'
_symmetry_Int_Tables_number      14
_space_group_name_Hall           '-P 2ybc'
loop_
_symmetry_equiv_pos_site_id
_symmetry_equiv_pos_as_xyz
1 x,y,z
2 -x,1/2+y,1/2-z
3 -x,-y,-z
4 x,1/2-y,1/2+z
_cell_length_a                   16.529(4)
_cell_length_b                   9.1486(18)
_cell_length_c                   21.563(5)
_cell_angle_alpha                90
_cell_angle_beta                 110.685(8)
_cell_angle_gamma                90
_cell_volume                     3050.5
_exptl_crystal_colour            colorless
_exptl_crystal_description       prism
_cell_formula_units_Z            4
loop_
_atom_site_label
_atom_site_type_symbol
_atom_site_fract_x
_atom_site_fract_y
_atom_site_fract_z
S1 S 0.14660(7) 0.72249(15) 0.10239(5)
S2 S 0.27832(8) 0.87836(15) 0.18761(6)
O1 O 0.3901(2) 0.3840(5) 0.06700(18)
O2 O 0.1859(2) 0.6112(4) -0.14621(17)
O3 O 0.3164(2) 0.9060(4) 0.13745(17)
O4 O 0.1490(2) 0.4784(4) -0.00039(16)
O5 O 0.2942(2) 0.9517(4) -0.03862(17)
O6 O 0.0581(2) 1.0689(4) -0.06459(17)
O7 O 0.2916(2) 0.9868(4) 0.23843(17)
N1 N 0.2130(3) 0.7749(5) -0.01521(19)
N2 N 0.0870(3) 0.8903(5) -0.1279(2)
N3 N 0.2980(3) 0.5563(5) -0.0518(2)
N4 N 0.2156(3) 0.3010(5) -0.03823(19)
N5 N 0.1754(3) 0.8583(5) 0.1552(2)
N6 N 0.3061(3) 0.2056(5) 0.0873(2)
C1 C 0.0952(3) 0.9565(6) -0.0700(2)
C2 C 0.2250(3) 0.5226(6) -0.1019(2)
C3 C 0.3367(3) 0.7018(6) -0.0457(3)
C4 C 0.3223(3) 0.7114(6) 0.2251(2)
C5 C 0.3065(3) 0.6661(7) 0.2812(2)
C6 C 0.1952(3) 0.3663(6) 0.0102(2)
C7 C 0.1669(3) 0.2274(6) 0.1031(3)
C8 C 0.1398(3) 0.4266(6) 0.1761(2)
C9 C 0.3378(3) 0.5298(6) 0.3102(2)
C10 C 0.0905(3) 0.8047(6) 0.0224(2)
C11 C 0.1886(3) 0.3684(6) -0.1044(2)
C12 C 0.2794(3) 0.8195(7) -0.0328(2)
C13 C 0.0533(3) 0.6521(7) 0.1179(3)
C14 C 0.2347(3) 0.3045(6) 0.0803(2)
C15 C 0.4527(4) 0.1450(7) 0.0988(3)
C16 C 0.1527(3) 0.8785(6) -0.0062(2)
C17 C 0.3698(3) 0.6219(7) 0.1978(3)
C18 C 0.1010(3) 0.3285(6) 0.1150(2)
C19 C 0.0805(3) 0.5533(6) 0.1793(2)
C20 C 0.4251(3) 0.7035(7) 0.0104(2)
C21 C 0.4012(3) 0.4892(7) 0.2264(3)
C22 C 0.3818(3) 0.2550(7) 0.0829(3)
C23 C 0.3855(3) 0.4430(7) 0.2834(3)
C24 C 0.4220(4) 0.2982(7) 0.3147(3)
C25 C 0.2164(4) 0.2710(7) -0.1502(3)
H1 H 0.251(2) 0.201(3) -0.031(3)
H2 H 0.3454 0.7255 -0.0882
H3 H 0.2745 0.7269 0.2999
H4 H 0.1357 0.1546 0.0691
H5 H 0.1976 0.1736 0.1446
H6 H 0.1952 0.4673 0.1759
H7 H 0.1525 0.3661 0.2165
H8 H 0.3263 0.4977 0.3482
H9 H 0.0572 0.7284 -0.0088
H10 H 0.0489 0.8782 0.0269
H11 H 0.1240 0.3748 -0.1221
H12 H 0.0185 0.7347 0.1245
H13 H 0.0168 0.5958 0.0788
H14 H 0.2582 0.3887 0.1109
H15 H 0.4323 0.0516 0.1099
H16 H 0.4703 0.1319 0.0602
H17 H 0.5022 0.1791 0.1366
H18 H 0.1862 0.9545 0.0260
H19 H 0.375(3) 0.649(5) 0.154(2)
H20 H 0.0541 0.2689 0.1206
H21 H 0.0751 0.3911 0.0754
H22 H 0.0279 0.5126 0.1848
H23 H 0.1107 0.6134 0.2190
H24 H 0.4504 0.8015 0.0140
H25 H 0.4181 0.6777 0.0522
H26 H 0.4634 0.6325 0.0006
H27 H 0.437(3) 0.420(5) 0.210(2)
H28 H 0.4537 0.2521 0.2891
H29 H 0.4613 0.3144 0.3603
H30 H 0.3746 0.2341 0.3149
H31 H 0.206(3) 0.6612(18) -0.009(3)
H32 H 0.1985 0.3154 -0.1944
H33 H 0.2794 0.2599 -0.1326
H34 H 0.1891 0.1748 -0.1533
H35 H 0.331(3) 0.483(6) -0.016(2)
H36 H 0.120(2) 0.800(3) -0.131(2)
H37 H 0.047(3) 0.928(7) -0.1718(19)
H38 H 0.302(5) 0.098(3) 0.097(2)
O8 O 0.4233(11) 0.9696(20) 0.3740(9)
O9 O 0.0654(3) 0.9749(5) 0.22664(19)
loop_
_geom_bond_atom_site_label_1
_geom_bond_atom_site_label_2
_geom_bond_site_symmetry_1
_geom_bond_site_symmetry_2
S1 N5 1_555 1_555
S2 O3 1_555 1_555
O1 C22 1_555 1_555
O2 C2 1_555 1_555
O4 C6 1_555 1_555
O5 C12 1_555 1_555
O6 C1 1_555 1_555
O7 S2 1_555 1_555
N1 C12 1_555 1_555
N2 C1 1_555 1_555
N3 C2 1_555 1_555
N4 C6 1_555 1_555
N5 S2 1_555 1_555
N6 C14 1_555 1_555
C1 C16 1_555 1_555
C2 C11 1_555 1_555
C3 N3 1_555 1_555
C4 S2 1_555 1_555
C5 C4 1_555 1_555
C6 C14 1_555 1_555
C7 C14 1_555 1_555
C8 C18 1_555 1_555
C9 C5 1_555 1_555
C10 S1 1_555 1_555
C11 N4 1_555 1_555
C12 C3 1_555 1_555
C13 S1 1_555 1_555
C14 H14 1_555 1_555
C15 C22 1_555 1_555
C16 N1 1_555 1_555
C17 C4 1_555 1_555
C18 C7 1_555 1_555
C19 C8 1_555 1_555
C20 C3 1_555 1_555
C21 C17 1_555 1_555
C22 N6 1_555 1_555
C23 C9 1_555 1_555
C24 C23 1_555 1_555
C25 C11 1_555 1_555
H1 N4 1_555 1_555
H2 C3 1_555 1_555
H3 C5 1_555 1_555
H4 C7 1_555 1_555
H5 C7 1_555 1_555
H6 C8 1_555 1_555
H7 C8 1_555 1_555
H8 C9 1_555 1_555
H9 C10 1_555 1_555
H10 C10 1_555 1_555
H11 C11 1_555 1_555
H12 C13 1_555 1_555
H13 C13 1_555 1_555
H15 C15 1_555 1_555
H16 C15 1_555 1_555
H17 C15 1_555 1_555
H18 C16 1_555 1_555
H19 C17 1_555 1_555
H20 C18 1_555 1_555
H21 C18 1_555 1_555
H22 C19 1_555 1_555
H23 C19 1_555 1_555
H24 C20 1_555 1_555
H25 C20 1_555 1_555
H26 C20 1_555 1_555
H27 C21 1_555 1_555
H28 C24 1_555 1_555
H29 C24 1_555 1_555
H30 C24 1_555 1_555
H31 N1 1_555 1_555
H32 C25 1_555 1_555
H33 C25 1_555 1_555
H34 C25 1_555 1_555
H35 N3 1_555 1_555
H36 N2 1_555 1_555
H37 N2 1_555 1_555
H38 N6 1_555 1_555
C10 C16 1_555 1_555
C13 C19 1_555 1_555
C21 C23 1_555 1_555

#END
