
#######################################################################
#
#                 Cambridge Crystallographic Data Centre
#                                CCDC 
#
#######################################################################
#
# If this CIF has been generated from an entry in the Cambridge 
# Structural Database, then it will include bibliographic, chemical, 
# crystal, experimental, refinement or atomic coordinate data resulting 
# from the CCDC's data processing and validation procedures.
#
#######################################################################

data_UYILUK
_chemical_formula_moiety         'C28 H29 N1 O4 S1'
_chemical_name_systematic        
5-(2,2-bis(4-methoxyphenyl)vinyl)-1-((4-methylphenyl)sulfonyl)-1,2,3,4-tetrahydropyridine
_symmetry_cell_setting           monoclinic
_symmetry_space_group_name_H-M   'P 21/n'
_symmetry_Int_Tables_number      14
_space_group_name_Hall           '-P 2yn'
loop_
_symmetry_equiv_pos_site_id
_symmetry_equiv_pos_as_xyz
1 x,y,z
2 1/2-x,1/2+y,1/2-z
3 -x,-y,-z
4 1/2+x,1/2-y,1/2+z
_cell_length_a                   14.3704(11)
_cell_length_b                   10.2927(8)
_cell_length_c                   16.1666(13)
_cell_angle_alpha                90
_cell_angle_beta                 94.7140(10)
_cell_angle_gamma                90
_cell_volume                     2383.12
_exptl_crystal_colour            colorless
_cell_formula_units_Z            4
loop_
_atom_site_label
_atom_site_type_symbol
_atom_site_fract_x
_atom_site_fract_y
_atom_site_fract_z
S1 S 0.13224(3) 0.86215(4) 1.12296(2)
O1 O 0.16732(8) 0.86212(11) 1.20832(7)
O2 O 0.60158(7) 1.16273(11) 0.71380(7)
O3 O 0.04055(7) 0.91110(11) 1.09916(7)
O4 O -0.05033(8) 1.18296(11) 0.51131(7)
N1 N 0.20533(8) 0.95139(12) 1.07283(7)
C1 C 0.17753(10) 0.98075(14) 0.98899(9)
H1 H 0.1128 0.9772 0.9718
C2 C 0.23667(10) 1.01354(14) 0.93176(9)
C3 C 0.34042(11) 1.02158(16) 0.95603(10)
H2 H 0.3664 1.0992 0.9300
H3 H 0.3716 0.9439 0.9351
C4 C 0.30593(10) 0.92744(16) 1.09370(10)
H4 H 0.3229 0.8395 1.0751
H5 H 0.3207 0.9330 1.1545
C5 C 0.36039(11) 1.02983(17) 1.05002(10)
H6 H 0.4281 1.0174 1.0647
H7 H 0.3431 1.1172 1.0693
C6 C 0.19172(10) 1.04650(14) 0.85044(9)
H8 H 0.1261 1.0334 0.8466
C7 C 0.11279(11) 1.14051(15) 0.55886(9)
H9 H 0.1315 1.1368 0.5039
C8 C -0.00477(10) 1.17656(15) 0.65386(9)
H10 H -0.0673 1.1976 0.6638
C9 C 0.17770(11) 1.11938(15) 0.62631(9)
H11 H 0.2406 1.1012 0.6163
C10 C 0.32303(10) 1.11050(15) 0.76306(9)
C11 C 0.50924(11) 1.15218(16) 0.72821(9)
C12 C 0.06048(10) 1.15562(14) 0.71990(9)
H12 H 0.0420 1.1627 0.7748
C13 C 0.15356(10) 1.12403(14) 0.70818(9)
C14 C 0.02049(11) 1.16704(14) 0.57251(9)
C15 C 0.48017(11) 1.02939(15) 0.75183(9)
H13 H 0.5235 0.9595 0.7564
C16 C 0.44533(10) 1.25391(15) 0.72032(9)
H14 H 0.4643 1.3375 0.7034
C17 C 0.35333(10) 1.23191(15) 0.73742(9)
H15 H 0.3098 1.3015 0.7315
C18 C 0.63197(12) 1.28489(18) 0.68356(11)
H16 H 0.5977 1.3040 0.6300
H17 H 0.6990 1.2809 0.6766
H18 H 0.6200 1.3534 0.7234
C19 C 0.38824(11) 1.00904(15) 0.76872(9)
H19 H 0.3691 0.9248 0.7844
C20 C -0.02651(12) 1.17692(17) 0.42727(10)
H20 H 0.0144 1.2500 0.4163
H21 H -0.0835 1.1816 0.3897
H22 H 0.0059 1.0950 0.4182
C21 C 0.22315(10) 1.09183(14) 0.77904(9)
C22 C 0.14153(10) 0.70406(15) 1.08292(9)
C23 C 0.21976(12) 0.49919(17) 1.08353(12)
H23 H 0.2638 0.4400 1.1093
C24 C 0.10545(12) 0.55243(17) 0.97288(10)
H24 H 0.0703 0.5295 0.9227
C25 C 0.17079(12) 0.46510(16) 1.00912(11)
C26 C 0.20574(12) 0.61777(16) 1.12100(11)
H25 H 0.2396 0.6397 1.1720
C27 C 0.09084(11) 0.67198(16) 1.00873(10)
H26 H 0.0468 0.7313 0.9830
C28 C 0.18820(15) 0.33748(19) 0.96686(14)
H27 H 0.2417 0.2937 0.9962
H28 H 0.2014 0.3538 0.9093
H29 H 0.1327 0.2822 0.9677
loop_
_geom_bond_atom_site_label_1
_geom_bond_atom_site_label_2
_geom_bond_site_symmetry_1
_geom_bond_site_symmetry_2
S1 O1 1_555 1_555
O2 C11 1_555 1_555
O3 S1 1_555 1_555
O4 C14 1_555 1_555
N1 S1 1_555 1_555
C1 N1 1_555 1_555
H1 C1 1_555 1_555
C2 C1 1_555 1_555
C3 C2 1_555 1_555
H2 C3 1_555 1_555
H3 C3 1_555 1_555
C4 N1 1_555 1_555
H4 C4 1_555 1_555
H5 C4 1_555 1_555
C5 C3 1_555 1_555
H6 C5 1_555 1_555
H7 C5 1_555 1_555
C6 C2 1_555 1_555
H8 C6 1_555 1_555
C7 H9 1_555 1_555
C8 H10 1_555 1_555
C9 C7 1_555 1_555
H11 C9 1_555 1_555
C10 C17 1_555 1_555
C11 C15 1_555 1_555
C12 C8 1_555 1_555
H12 C12 1_555 1_555
C13 C9 1_555 1_555
C14 C7 1_555 1_555
C15 H13 1_555 1_555
C16 C11 1_555 1_555
H14 C16 1_555 1_555
C17 C16 1_555 1_555
H15 C17 1_555 1_555
C18 O2 1_555 1_555
H16 C18 1_555 1_555
H17 C18 1_555 1_555
H18 C18 1_555 1_555
C19 C10 1_555 1_555
H19 C19 1_555 1_555
C20 O4 1_555 1_555
H20 C20 1_555 1_555
H21 C20 1_555 1_555
H22 C20 1_555 1_555
C21 C6 1_555 1_555
C22 S1 1_555 1_555
C23 H23 1_555 1_555
C24 H24 1_555 1_555
C25 C23 1_555 1_555
C26 C22 1_555 1_555
H25 C26 1_555 1_555
C27 C22 1_555 1_555
H26 C27 1_555 1_555
C28 C25 1_555 1_555
H27 C28 1_555 1_555
H28 C28 1_555 1_555
H29 C28 1_555 1_555
C4 C5 1_555 1_555
C8 C14 1_555 1_555
C10 C21 1_555 1_555
C12 C13 1_555 1_555
C13 C21 1_555 1_555
C15 C19 1_555 1_555
C23 C26 1_555 1_555
C24 C25 1_555 1_555
C24 C27 1_555 1_555

#END
