
#######################################################################
#
#                 Cambridge Crystallographic Data Centre
#                                CCDC 
#
#######################################################################
#
# If this CIF has been generated from an entry in the Cambridge 
# Structural Database, then it will include bibliographic, chemical, 
# crystal, experimental, refinement or atomic coordinate data resulting 
# from the CCDC's data processing and validation procedures.
#
#######################################################################

data_UYILIY
_chemical_formula_moiety         'C19 H13 F3 N2 O1'
_chemical_name_systematic        
2-Cyano-6,6,6-trifluoro-3,5-diphenylhexa-2,4-dienamide
_symmetry_cell_setting           triclinic
_symmetry_space_group_name_H-M   'P -1'
_symmetry_Int_Tables_number      2
_space_group_name_Hall           '-P 1'
loop_
_symmetry_equiv_pos_site_id
_symmetry_equiv_pos_as_xyz
1 x,y,z
2 -x,-y,-z
_cell_length_a                   8.0668(7)
_cell_length_b                   9.4451(8)
_cell_length_c                   11.9944(11)
_cell_angle_alpha                97.030(2)
_cell_angle_beta                 98.461(2)
_cell_angle_gamma                112.9330(10)
_cell_volume                     816.12
_exptl_crystal_colour            colorless
_exptl_crystal_description       prismatic
_cell_formula_units_Z            2
loop_
_atom_site_label
_atom_site_type_symbol
_atom_site_fract_x
_atom_site_fract_y
_atom_site_fract_z
F1 F 0.0542(2) 0.8566(2) 0.54210(17)
F2 F 0.2929(3) 0.8714(2) 0.48708(14)
F3 F 0.3173(3) 1.02996(18) 0.63125(17)
N1 N 0.2230(3) 0.2363(2) 0.82490(17)
O1 O 0.29014(17) 0.49403(17) 0.52348(11)
N2 N 0.4803(2) 0.4329(2) 0.64285(15)
H1 H 0.5549 0.4436 0.5970
H2 H 0.5033 0.4068 0.7076
C1 C 0.3306(2) 0.4567(2) 0.61393(14)
C2 C 0.2065(2) 0.4344(2) 0.69928(14)
C3 C 0.2106(2) 0.3236(2) 0.77033(15)
C4 C 0.0999(2) 0.51269(19) 0.71090(14)
C5 C 0.1054(2) 0.6393(2) 0.64811(15)
H3 H -0.0032 0.6239 0.5989
C6 C 0.2503(2) 0.7726(2) 0.65517(15)
C7 C 0.2265(3) 0.8829(2) 0.58125(18)
C8 C -0.0378(2) 0.4760(2) 0.78483(14)
C9 C -0.1542(2) 0.3231(2) 0.78527(16)
H4 H -0.1458 0.2404 0.7393
C10 C -0.2828(3) 0.2928(3) 0.85371(19)
H5 H -0.3615 0.1897 0.8530
C11 C -0.2951(3) 0.4134(3) 0.92261(18)
H6 H -0.3803 0.3923 0.9696
C12 C -0.1815(3) 0.5655(3) 0.92224(18)
H7 H -0.1892 0.6475 0.9694
C13 C -0.0561(3) 0.5970(2) 0.85211(17)
H8 H 0.0171 0.7004 0.8499
C14 C 0.4374(3) 0.8210(2) 0.72579(16)
C15 C 0.5891(3) 0.8551(3) 0.6748(2)
H9 H 0.5731 0.8452 0.5954
C16 C 0.7631(3) 0.9037(3) 0.7416(3)
H10 H 0.8640 0.9266 0.7071
C17 C 0.7884(3) 0.9184(3) 0.8583(3)
H11 H 0.9062 0.9522 0.9030
C18 C 0.6395(4) 0.8832(3) 0.9095(2)
H12 H 0.6565 0.8912 0.9888
C19 C 0.4651(3) 0.8358(2) 0.84376(18)
H13 H 0.3652 0.8137 0.8792
loop_
_geom_bond_atom_site_label_1
_geom_bond_atom_site_label_2
_geom_bond_site_symmetry_1
_geom_bond_site_symmetry_2
F1 C7 1_555 1_555
F2 C7 1_555 1_555
F3 C7 1_555 1_555
N1 C3 1_555 1_555
O1 C1 1_555 1_555
N2 H1 1_555 1_555
H2 N2 1_555 1_555
C1 N2 1_555 1_555
C2 C1 1_555 1_555
C3 C2 1_555 1_555
C4 C2 1_555 1_555
C5 C4 1_555 1_555
H3 C5 1_555 1_555
C6 C5 1_555 1_555
C7 C6 1_555 1_555
C8 C4 1_555 1_555
C9 C8 1_555 1_555
H4 C9 1_555 1_555
C10 C9 1_555 1_555
H5 C10 1_555 1_555
C11 C10 1_555 1_555
H6 C11 1_555 1_555
C12 C11 1_555 1_555
H7 C12 1_555 1_555
C13 C8 1_555 1_555
H8 C13 1_555 1_555
C14 C6 1_555 1_555
C15 C14 1_555 1_555
H9 C15 1_555 1_555
C16 C15 1_555 1_555
H10 C16 1_555 1_555
C17 C16 1_555 1_555
H11 C17 1_555 1_555
C18 C17 1_555 1_555
H12 C18 1_555 1_555
C19 C14 1_555 1_555
H13 C19 1_555 1_555
C12 C13 1_555 1_555
C18 C19 1_555 1_555

#END
