
#######################################################################
#
#                 Cambridge Crystallographic Data Centre
#                                CCDC 
#
#######################################################################
#
# If this CIF has been generated from an entry in the Cambridge 
# Structural Database, then it will include bibliographic, chemical, 
# crystal, experimental, refinement or atomic coordinate data resulting 
# from the CCDC's data processing and validation procedures.
#
#######################################################################

data_UYIMUL
_chemical_formula_moiety         'C15 H17 N3 O1'
_chemical_name_systematic        
1-(5-Methyl-1-(4-phenylbut-1-en-2-yl)-1H-1,2,3-triazol-4-yl)ethanone
_symmetry_cell_setting           monoclinic
_symmetry_space_group_name_H-M   'P 21/c'
_symmetry_Int_Tables_number      14
_space_group_name_Hall           '-P 2ybc'
loop_
_symmetry_equiv_pos_site_id
_symmetry_equiv_pos_as_xyz
1 x,y,z
2 -x,1/2+y,1/2-z
3 -x,-y,-z
4 x,1/2-y,1/2+z
_cell_length_a                   11.6311(2)
_cell_length_b                   17.4004(4)
_cell_length_c                   6.94310(10)
_cell_angle_alpha                90
_cell_angle_beta                 103.0690(10)
_cell_angle_gamma                90
_cell_volume                     1368.79
_exptl_crystal_colour            colorless
_exptl_crystal_description       prism
_cell_formula_units_Z            4
loop_
_atom_site_label
_atom_site_type_symbol
_atom_site_fract_x
_atom_site_fract_y
_atom_site_fract_z
C1 C 0.49223(11) 0.35395(7) 1.13821(18)
H1 H 0.4820 0.4090 1.1592
H2 H 0.5134 0.3462 1.0108
H3 H 0.5552 0.3338 1.2446
C2 C 0.37917(9) 0.31252(6) 1.13836(13)
C3 C 0.37931(8) 0.22823(5) 1.12860(13)
C4 C 0.28851(8) 0.17736(5) 1.13538(13)
C5 C 0.16470(9) 0.18890(6) 1.15167(16)
H4 H 0.1155 0.1470 1.0833
H5 H 0.1355 0.2381 1.0910
H6 H 0.1613 0.1892 1.2914
C6 C 0.28294(10) 0.03325(6) 1.11983(15)
C7 C 0.25227(14) 0.01007(7) 1.28308(18)
H7 H 0.2664 0.0423 1.3965
H8 H 0.2162 -0.0387 1.2866
C8 C 0.26445(10) -0.00677(6) 0.92329(16)
H9 H 0.3418 -0.0244 0.9030
H10 H 0.2317 0.0305 0.8172
C9 C 0.18185(13) -0.07534(7) 0.90573(18)
H11 H 0.2187 -0.1150 1.0023
H12 H 0.1075 -0.0589 0.9403
C10 C 0.15319(10) -0.11033(6) 0.70136(16)
C11 C 0.04257(10) -0.09985(7) 0.57474(19)
H13 H -0.0141 -0.0678 0.6142
C12 C 0.01468(10) -0.13599(7) 0.39101(18)
H14 H -0.0609 -0.1287 0.3060
C13 C 0.09670(10) -0.18244(7) 0.33220(17)
H15 H 0.0772 -0.2082 0.2084
C14 C 0.20746(10) -0.19122(6) 0.45514(17)
H16 H 0.2647 -0.2223 0.4142
C15 C 0.23561(9) -0.15513(6) 0.63686(17)
H17 H 0.3124 -0.1611 0.7187
N1 N 0.47623(8) 0.18723(5) 1.10936(13)
N2 N 0.45139(8) 0.11413(5) 1.10438(14)
N3 N 0.33739(8) 0.10774(5) 1.12236(12)
O1 O 0.28875(7) 0.34705(4) 1.14606(12)
loop_
_geom_bond_atom_site_label_1
_geom_bond_atom_site_label_2
_geom_bond_site_symmetry_1
_geom_bond_site_symmetry_2
C1 H1 1_555 1_555
H2 C1 1_555 1_555
H3 C1 1_555 1_555
C2 C1 1_555 1_555
C3 C2 1_555 1_555
C4 C3 1_555 1_555
C5 C4 1_555 1_555
H4 C5 1_555 1_555
H5 C5 1_555 1_555
H6 C5 1_555 1_555
C6 C7 1_555 1_555
C7 H7 1_555 1_555
H8 C7 1_555 1_555
C8 C6 1_555 1_555
H9 C8 1_555 1_555
H10 C8 1_555 1_555
C9 C8 1_555 1_555
H11 C9 1_555 1_555
H12 C9 1_555 1_555
C10 C9 1_555 1_555
C11 C10 1_555 1_555
H13 C11 1_555 1_555
C12 C11 1_555 1_555
H14 C12 1_555 1_555
C13 C12 1_555 1_555
H15 C13 1_555 1_555
C14 C13 1_555 1_555
H16 C14 1_555 1_555
C15 C10 1_555 1_555
H17 C15 1_555 1_555
N1 C3 1_555 1_555
N2 N1 1_555 1_555
N3 C4 1_555 1_555
O1 C2 1_555 1_555
C6 N3 1_555 1_555
C14 C15 1_555 1_555
N2 N3 1_555 1_555

#END
