
#######################################################################
#
#                 Cambridge Crystallographic Data Centre
#                                CCDC 
#
#######################################################################
#
# If this CIF has been generated from an entry in the Cambridge 
# Structural Database, then it will include bibliographic, chemical, 
# crystal, experimental, refinement or atomic coordinate data resulting 
# from the CCDC's data processing and validation procedures.
#
#######################################################################

data_UYIMAR
_chemical_formula_moiety         'C13 H14 Br1 N1 O4 S1'
_chemical_name_systematic        
3a-Bromo-7-(phenylsulfonyl)hexahydrofuro[2,3-b]pyridin-2(3H)-one
_symmetry_cell_setting           orthorhombic
_symmetry_space_group_name_H-M   'P n a 21'
_symmetry_Int_Tables_number      33
_space_group_name_Hall           'P 2c -2n'
loop_
_symmetry_equiv_pos_site_id
_symmetry_equiv_pos_as_xyz
1 x,y,z
2 -x,-y,1/2+z
3 1/2-x,1/2+y,1/2+z
4 1/2+x,1/2-y,z
_cell_length_a                   19.7744(9)
_cell_length_b                   11.3857(5)
_cell_length_c                   6.5135(2)
_cell_angle_alpha                90
_cell_angle_beta                 90
_cell_angle_gamma                90
_cell_volume                     1466.48
_exptl_crystal_colour            colorless
_exptl_crystal_description       acicular
_cell_formula_units_Z            4
loop_
_atom_site_label
_atom_site_type_symbol
_atom_site_fract_x
_atom_site_fract_y
_atom_site_fract_z
Br1 Br 0.38878(3) 0.65278(6) 0.46084(11)
S1 S 0.62527(9) 0.67291(15) 0.5725(2)
O1 O 0.4731(3) 1.0685(3) 0.6794(7)
O2 O 0.52513(19) 0.8964(3) 0.6517(6)
O3 O 0.6174(2) 0.6719(4) 0.3549(7)
O4 O 0.6544(2) 0.5736(3) 0.6741(7)
N1 N 0.5496(2) 0.6919(4) 0.6710(8)
C1 C 0.4705(3) 0.9661(5) 0.6445(9)
C2 C 0.5073(3) 0.7782(4) 0.5778(8)
H1 H 0.5123 0.7749 0.4283
C3 C 0.6736(3) 0.7975(5) 0.6381(10)
C4 C 0.7004(3) 0.8085(6) 0.8328(11)
H2 H 0.6946 0.7491 0.9293
C5 C 0.7357(4) 0.9088(8) 0.8818(13)
H3 H 0.7545 0.9174 1.0118
C6 C 0.7430(4) 0.9947(8) 0.7411(18)
H4 H 0.7666 1.0624 0.7764
C7 C 0.6811(3) 0.8851(5) 0.4940(14)
H5 H 0.6625 0.8772 0.3636
C8 C 0.7166(4) 0.9849(7) 0.5469(15)
H6 H 0.7226 1.0449 0.4518
C9 C 0.5401(4) 0.6715(5) 0.8963(10)
H7 H 0.5512 0.7419 0.9731
H8 H 0.5691 0.6082 0.9430
C10 C 0.4665(4) 0.6394(5) 0.9267(11)
H9 H 0.4584 0.6218 1.0703
H10 H 0.4559 0.5697 0.8471
C11 C 0.4214(4) 0.7397(5) 0.8597(10)
H11 H 0.4309 0.8081 0.9439
H12 H 0.3745 0.7180 0.8810
C12 C 0.4321(3) 0.7710(5) 0.6346(10)
C13 C 0.4097(3) 0.8943(5) 0.5827(11)
H13 H 0.4002 0.9024 0.4373
H14 H 0.3700 0.9167 0.6607
loop_
_geom_bond_atom_site_label_1
_geom_bond_atom_site_label_2
_geom_bond_site_symmetry_1
_geom_bond_site_symmetry_2
Br1 C12 1_555 1_555
S1 O3 1_555 1_555
O1 C1 1_555 1_555
O2 C1 1_555 1_555
O4 S1 1_555 1_555
N1 S1 1_555 1_555
C1 C13 1_555 1_555
C2 O2 1_555 1_555
H1 C2 1_555 1_555
C3 S1 1_555 1_555
C4 C3 1_555 1_555
H2 C4 1_555 1_555
C5 C4 1_555 1_555
H3 C5 1_555 1_555
C6 C5 1_555 1_555
H4 C6 1_555 1_555
C7 C3 1_555 1_555
H5 C7 1_555 1_555
C8 C6 1_555 1_555
H6 C8 1_555 1_555
C9 N1 1_555 1_555
H7 C9 1_555 1_555
H8 C9 1_555 1_555
C10 C9 1_555 1_555
H9 C10 1_555 1_555
H10 C10 1_555 1_555
C11 C10 1_555 1_555
H11 C11 1_555 1_555
H12 C11 1_555 1_555
C12 C2 1_555 1_555
C13 C12 1_555 1_555
H13 C13 1_555 1_555
H14 C13 1_555 1_555
N1 C2 1_555 1_555
C7 C8 1_555 1_555
C11 C12 1_555 1_555

#END
