
#######################################################################
#
#                 Cambridge Crystallographic Data Centre
#                                CCDC 
#
#######################################################################
#
# If this CIF has been generated from an entry in the Cambridge 
# Structural Database, then it will include bibliographic, chemical, 
# crystal, experimental, refinement or atomic coordinate data resulting 
# from the CCDC's data processing and validation procedures.
#
#######################################################################

data_UYIVEF
_chemical_formula_moiety         'C14 H4 N4 O2 S2'
_chemical_name_systematic        
5H,11H-[1,2,5]thiadiazolo[3',4':6,7]anthra[2,3-c][1,2,5]thiadiazole-5,11-dione
_symmetry_cell_setting           monoclinic
_symmetry_space_group_name_H-M   'C 2/m'
_symmetry_Int_Tables_number      12
_space_group_name_Hall           '-C 2y'
loop_
_symmetry_equiv_pos_site_id
_symmetry_equiv_pos_as_xyz
1 x,y,z
2 -x,y,-z
3 1/2+x,1/2+y,z
4 1/2-x,1/2+y,-z
5 -x,-y,-z
6 x,-y,z
7 1/2-x,1/2-y,-z
8 1/2+x,1/2-y,z
_cell_length_a                   10.3036(19)
_cell_length_b                   15.727(2)
_cell_length_c                   3.8043(8)
_cell_angle_alpha                90
_cell_angle_beta                 96.172(16)
_cell_angle_gamma                90
_cell_volume                     612.893
_exptl_crystal_colour            'light brown'
_exptl_crystal_description       needle
_cell_formula_units_Z            2
loop_
_atom_site_label
_atom_site_type_symbol
_atom_site_fract_x
_atom_site_fract_y
_atom_site_fract_z
S1 S 0.5000 0.87757(17) 0.5000
N1 N 0.6081(4) 0.8132(3) 0.6823(14)
C1 C 0.5618(5) 0.7337(4) 0.6037(18)
C2 C 0.6237(5) 0.6560(4) 0.7074(18)
H1 H 0.7049 0.6556 0.8457
C3 C 0.5631(5) 0.5815(4) 0.6027(16)
C4 C 0.6291(7) 0.5000 0.712(3)
O1 O 0.7368(6) 0.5000 0.887(2)
N1A N 0.3919(4) 0.8132(3) 0.3177(14)
C1A C 0.4382(5) 0.7337(4) 0.3963(18)
C2A C 0.3763(5) 0.6560(4) 0.2926(18)
H1A H 0.2951 0.6556 0.1543
C3A C 0.4369(5) 0.5815(4) 0.3973(16)
C4A C 0.3709(7) 0.5000 0.288(3)
O1A O 0.2632(6) 0.5000 0.113(2)
S1D S 0.5000 0.12243(17) 0.5000
N1D N 0.3919(4) 0.1868(3) 0.3177(14)
C1D C 0.4382(5) 0.2663(4) 0.3963(18)
C2D C 0.3763(5) 0.3440(4) 0.2926(18)
H1D H 0.2951 0.3444 0.1543
C3D C 0.4369(5) 0.4185(4) 0.3973(16)
N1E N 0.6081(4) 0.1868(3) 0.6823(14)
C1E C 0.5618(5) 0.2663(4) 0.6037(18)
C2E C 0.6237(5) 0.3440(4) 0.7074(18)
H1E H 0.7049 0.3444 0.8457
C3E C 0.5631(5) 0.4185(4) 0.6027(16)
loop_
_geom_bond_atom_site_label_1
_geom_bond_atom_site_label_2
_geom_bond_site_symmetry_1
_geom_bond_site_symmetry_2
S1 N1 1_555 1_555
N1 C1 1_555 1_555
C1 C2 1_555 1_555
C2 H1 1_555 1_555
C3 C2 1_555 1_555
C4 C3 1_555 1_555
O1 C4 1_555 1_555
N1A S1 1_555 1_555
C1A C1 1_555 1_555
C2A C1A 1_555 1_555
H1A C2A 1_555 1_555
C3A C3 1_555 1_555
C4A C3A 1_555 1_555
O1A C4A 1_555 1_555
S1D N1D 1_555 1_555
N1D C1D 1_555 1_555
C1D C2D 1_555 1_555
C2D H1D 1_555 1_555
C3D C4A 1_555 1_555
N1E S1D 1_555 1_555
C1E C1D 1_555 1_555
C2E C1E 1_555 1_555
H1E C2E 1_555 1_555
C3E C4 1_555 1_555
N1A C1A 1_555 1_555
C2A C3A 1_555 1_555
C2D C3D 1_555 1_555
C3D C3E 1_555 1_555
N1E C1E 1_555 1_555
C2E C3E 1_555 1_555

#END
