
#######################################################################
#
#                 Cambridge Crystallographic Data Centre
#                                CCDC 
#
#######################################################################
#
# If this CIF has been generated from an entry in the Cambridge 
# Structural Database, then it will include bibliographic, chemical, 
# crystal, experimental, refinement or atomic coordinate data resulting 
# from the CCDC's data processing and validation procedures.
#
#######################################################################

data_UYOBUH
_chemical_formula_moiety         'C64 H72 N2 O6'
_chemical_name_systematic        
N,N'-((2,5-bis(2-methylbutoxy)-1,4-phenylene)bis(ethene-2,1-diyl-4,1-phenylene))bis(4-ethoxy-N-(4-ethoxyphenyl)aniline)
_symmetry_cell_setting           triclinic
_symmetry_space_group_name_H-M   'P -1'
_symmetry_Int_Tables_number      2
_space_group_name_Hall           '-P 1'
loop_
_symmetry_equiv_pos_site_id
_symmetry_equiv_pos_as_xyz
1 x,y,z
2 -x,-y,-z
_cell_length_a                   9.3861(17)
_cell_length_b                   12.845(3)
_cell_length_c                   13.207(3)
_cell_angle_alpha                67.292(3)
_cell_angle_beta                 73.673(3)
_cell_angle_gamma                83.186(3)
_cell_volume                     1409.54
_cell_formula_units_Z            1
loop_
_atom_site_label
_atom_site_type_symbol
_atom_site_fract_x
_atom_site_fract_y
_atom_site_fract_z
C1 C -0.7235(5) 0.2976(4) 0.0648(4)
H1 H -0.6712 0.2399 0.0390
H2 H -0.7591 0.3544 0.0045
H3 H -0.8061 0.2649 0.1285
C2 C -0.6201(4) 0.3504(3) 0.1003(4)
H4 H -0.5434 0.3923 0.0345
H5 H -0.6747 0.4020 0.1355
C3 C -0.4418(4) 0.2891(3) 0.2102(3)
C4 C -0.4161(4) 0.3967(3) 0.2017(3)
H6 H -0.4780 0.4565 0.1729
C5 C -0.2978(4) 0.4146(3) 0.2364(3)
H7 H -0.2819 0.4866 0.2316
C6 C -0.2037(4) 0.3278(3) 0.2776(3)
C7 C -0.2332(4) 0.2207(3) 0.2873(3)
H8 H -0.1719 0.1606 0.3165
C8 C -0.3512(4) 0.2015(3) 0.2547(3)
H9 H -0.3696 0.1287 0.2629
C9 C -0.0193(5) -0.0861(4) 0.9078(3)
H10 H -0.0012 -0.1551 0.8939
H11 H -0.0894 -0.0991 0.9800
H12 H 0.0721 -0.0598 0.9081
C10 C -0.0799(5) -0.0001(3) 0.8174(3)
H13 H -0.1737 -0.0252 0.8181
H14 H -0.0974 0.0702 0.8305
C11 C -0.0102(4) 0.0976(3) 0.6157(3)
C12 C -0.1379(4) 0.1622(3) 0.6161(3)
H15 H -0.2107 0.1510 0.6836
C13 C -0.1575(4) 0.2435(3) 0.5159(3)
H16 H -0.2438 0.2874 0.5170
C14 C -0.0541(4) 0.2611(3) 0.4155(3)
C15 C 0.0725(4) 0.1948(3) 0.4153(3)
H17 H 0.1446 0.2051 0.3476
C16 C 0.0927(4) 0.1126(3) 0.5159(3)
H18 H 0.1778 0.0674 0.5148
C17 C 0.0101(4) 0.4402(3) 0.2541(3)
C18 C 0.0216(4) 0.5037(3) 0.1414(3)
H19 H -0.0304 0.4825 0.1022
C19 C 0.1091(4) 0.5987(3) 0.0853(3)
H20 H 0.1144 0.6399 0.0089
C20 C 0.1894(4) 0.6342(2) 0.1397(3)
C21 C 0.1771(4) 0.5691(3) 0.2530(3)
H21 H 0.2297 0.5899 0.2921
C22 C 0.0898(4) 0.4745(3) 0.3099(3)
H22 H 0.0840 0.4332 0.3863
C23 C 0.2750(4) 0.7391(3) 0.0778(3)
H23 H 0.2687 0.7788 0.0036
C24 C 0.3598(4) 0.7841(3) 0.1149(3)
H24 H 0.3745 0.7419 0.1864
C25 C 0.4320(4) 0.8925(3) 0.0550(3)
C26 C 0.4134(4) 0.9665(3) -0.0485(3)
H25 H 0.3556 0.9445 -0.0835
C27 C 0.5228(4) 0.9276(3) 0.1028(3)
C28 C 0.642(3) 0.874(3) 0.258(3)
H26 H 0.6047 0.9362 0.2834
H27 H 0.7369 0.8962 0.2027
C29 C 0.661(8) 0.774(8) 0.354(8)
H28 H 0.7581 0.7877 0.3606
C30 C 0.681(2) 0.6610(11) 0.3555(13)
H29 H 0.7642 0.6624 0.2918
H30 H 0.5938 0.6438 0.3395
C31 C 0.7071(19) 0.5617(12) 0.4581(15)
H31 H 0.7598 0.5866 0.4972
H32 H 0.7646 0.5048 0.4337
H33 H 0.6133 0.5311 0.5083
C32 C 0.5589(13) 0.8093(11) 0.4436(12)
H34 H 0.4622 0.8244 0.4296
H35 H 0.5958 0.8764 0.4426
H36 H 0.5526 0.7502 0.5165
N1 N -0.0804(3) 0.3443(2) 0.3125(2)
O1 O -0.5556(3) 0.2621(2) 0.1784(2)
O2 O 0.0230(3) 0.01724(19) 0.7106(2)
O3 O 0.5407(4) 0.8529(2) 0.2065(3)
C1A C 1.7235(5) 1.7024(4) -0.0648(4)
H1A H 1.6712 1.7601 -0.0390
H2A H 1.7591 1.6456 -0.0045
H3A H 1.8061 1.7351 -0.1285
C2A C 1.6201(4) 1.6496(3) -0.1003(4)
H4A H 1.5434 1.6077 -0.0345
H5A H 1.6747 1.5980 -0.1355
C3A C 1.4418(4) 1.7109(3) -0.2102(3)
C4A C 1.4161(4) 1.6033(3) -0.2017(3)
H6A H 1.4780 1.5435 -0.1729
C5A C 1.2978(4) 1.5854(3) -0.2364(3)
H7A H 1.2819 1.5134 -0.2316
C6A C 1.2037(4) 1.6722(3) -0.2776(3)
C7A C 1.2332(4) 1.7793(3) -0.2873(3)
H8A H 1.1719 1.8394 -0.3165
C8A C 1.3512(4) 1.7985(3) -0.2547(3)
H9A H 1.3696 1.8713 -0.2629
C9A C 1.0193(5) 2.0861(4) -0.9078(3)
H10A H 1.0012 2.1551 -0.8939
H11A H 1.0894 2.0991 -0.9800
H12A H 0.9279 2.0598 -0.9081
C10A C 1.0799(5) 2.0001(3) -0.8174(3)
H13A H 1.1737 2.0252 -0.8181
H14A H 1.0974 1.9298 -0.8305
C11A C 1.0102(4) 1.9024(3) -0.6157(3)
C12A C 1.1379(4) 1.8378(3) -0.6161(3)
H15A H 1.2107 1.8490 -0.6836
C13A C 1.1575(4) 1.7565(3) -0.5159(3)
H16A H 1.2438 1.7126 -0.5170
C14A C 1.0541(4) 1.7389(3) -0.4155(3)
C15A C 0.9275(4) 1.8052(3) -0.4153(3)
H17A H 0.8554 1.7949 -0.3476
C16A C 0.9073(4) 1.8874(3) -0.5159(3)
H18A H 0.8222 1.9326 -0.5148
C17A C 0.9899(4) 1.5598(3) -0.2541(3)
C18A C 0.9784(4) 1.4963(3) -0.1414(3)
H19A H 1.0304 1.5175 -0.1022
C19A C 0.8909(4) 1.4013(3) -0.0853(3)
H20A H 0.8856 1.3601 -0.0089
C20A C 0.8106(4) 1.3658(2) -0.1397(3)
C21A C 0.8229(4) 1.4309(3) -0.2530(3)
H21A H 0.7703 1.4101 -0.2921
C22A C 0.9102(4) 1.5255(3) -0.3099(3)
H22A H 0.9160 1.5668 -0.3863
C23A C 0.7250(4) 1.2609(3) -0.0778(3)
H23A H 0.7313 1.2212 -0.0036
C24A C 0.6402(4) 1.2159(3) -0.1149(3)
H24A H 0.6255 1.2581 -0.1864
C25A C 0.5680(4) 1.1075(3) -0.0550(3)
C26A C 0.5866(4) 1.0335(3) 0.0485(3)
H25A H 0.6444 1.0555 0.0835
C27A C 0.4772(4) 1.0724(3) -0.1028(3)
C28A C 0.358(3) 1.126(3) -0.258(3)
H26A H 0.3953 1.0638 -0.2834
H27A H 0.2631 1.1038 -0.2027
C29A C 0.339(8) 1.226(8) -0.354(8)
H28A H 0.2419 1.2123 -0.3606
C30A C 0.319(2) 1.3390(11) -0.3555(13)
H29A H 0.2358 1.3376 -0.2918
H30A H 0.4062 1.3562 -0.3395
C31A C 0.2929(19) 1.4383(12) -0.4581(15)
H31A H 0.2402 1.4134 -0.4972
H32A H 0.2354 1.4952 -0.4337
H33A H 0.3867 1.4689 -0.5083
C32A C 0.4411(13) 1.1907(11) -0.4436(12)
H34A H 0.5378 1.1756 -0.4296
H35A H 0.4042 1.1236 -0.4426
H36A H 0.4474 1.2498 -0.5165
N1A N 1.0804(3) 1.6557(2) -0.3125(2)
O1A O 1.5556(3) 1.7379(2) -0.1784(2)
O2A O 0.9770(3) 1.98276(19) -0.7106(2)
O3A O 0.4593(4) 1.1471(2) -0.2065(3)
C33? C 0.688(7) 0.850(5) 0.225(5)
H37? H 0.7075 0.9244 0.2213
H38? H 0.7613 0.8358 0.1635
C34? C 0.707(16) 0.764(16) 0.335(16)
H39? H 0.7600 0.7941 0.3723
C35? C 0.579(3) 0.693(3) 0.418(2)
H40? H 0.5311 0.6639 0.3783
H41? H 0.5074 0.7383 0.4521
C36? C 0.629(3) 0.594(3) 0.511(2)
H42? H 0.5731 0.5286 0.5294
H43? H 0.6121 0.6128 0.5773
H44? H 0.7326 0.5795 0.4851
C37? C 0.812(3) 0.7098(18) 0.258(2)
H45? H 0.7578 0.6806 0.2225
H46? H 0.8687 0.6501 0.2994
H47? H 0.8769 0.7682 0.2002
loop_
_geom_bond_atom_site_label_1
_geom_bond_atom_site_label_2
_geom_bond_site_symmetry_1
_geom_bond_site_symmetry_2
C1 H1 1_555 1_555
H2 C1 1_555 1_555
H3 C1 1_555 1_555
C2 C1 1_555 1_555
H4 C2 1_555 1_555
H5 C2 1_555 1_555
C3 C4 1_555 1_555
C4 H6 1_555 1_555
C5 C4 1_555 1_555
H7 C5 1_555 1_555
C6 C5 1_555 1_555
C7 C6 1_555 1_555
H8 C7 1_555 1_555
C8 C3 1_555 1_555
H9 C8 1_555 1_555
C9 H10 1_555 1_555
H11 C9 1_555 1_555
H12 C9 1_555 1_555
C10 C9 1_555 1_555
H13 C10 1_555 1_555
H14 C10 1_555 1_555
C11 C12 1_555 1_555
C12 H15 1_555 1_555
C13 C12 1_555 1_555
H16 C13 1_555 1_555
C14 C13 1_555 1_555
C15 C14 1_555 1_555
H17 C15 1_555 1_555
C16 C11 1_555 1_555
H18 C16 1_555 1_555
C17 C18 1_555 1_555
C18 H19 1_555 1_555
C19 C18 1_555 1_555
H20 C19 1_555 1_555
C20 C19 1_555 1_555
C21 C20 1_555 1_555
H21 C21 1_555 1_555
C22 C17 1_555 1_555
H22 C22 1_555 1_555
C23 C20 1_555 1_555
H23 C23 1_555 1_555
C24 C23 1_555 1_555
H24 C24 1_555 1_555
C25 C24 1_555 1_555
C26 C25 1_555 1_555
H25 C26 1_555 1_555
C27 C25 1_555 1_555
C28 H26 1_555 1_555
H27 C28 1_555 1_555
C29 C28 1_555 1_555
H28 C29 1_555 1_555
C30 C29 1_555 1_555
H29 C30 1_555 1_555
H30 C30 1_555 1_555
C31 C30 1_555 1_555
H31 C31 1_555 1_555
H32 C31 1_555 1_555
H33 C31 1_555 1_555
C32 C29 1_555 1_555
H34 C32 1_555 1_555
H35 C32 1_555 1_555
H36 C32 1_555 1_555
N1 C6 1_555 1_555
O1 C2 1_555 1_555
O2 C10 1_555 1_555
O3 C27 1_555 1_555
C1A H1A 1_555 1_555
H2A C1A 1_555 1_555
H3A C1A 1_555 1_555
C2A C1A 1_555 1_555
H4A C2A 1_555 1_555
H5A C2A 1_555 1_555
C3A C4A 1_555 1_555
C4A H6A 1_555 1_555
C5A C4A 1_555 1_555
H7A C5A 1_555 1_555
C6A C5A 1_555 1_555
C7A C6A 1_555 1_555
H8A C7A 1_555 1_555
C8A C3A 1_555 1_555
H9A C8A 1_555 1_555
C9A H10A 1_555 1_555
H11A C9A 1_555 1_555
H12A C9A 1_555 1_555
C10A C9A 1_555 1_555
H13A C10A 1_555 1_555
H14A C10A 1_555 1_555
C11A C12A 1_555 1_555
C12A H15A 1_555 1_555
C13A C12A 1_555 1_555
H16A C13A 1_555 1_555
C14A C13A 1_555 1_555
C15A C14A 1_555 1_555
H17A C15A 1_555 1_555
C16A C11A 1_555 1_555
H18A C16A 1_555 1_555
C17A C18A 1_555 1_555
C18A H19A 1_555 1_555
C19A C18A 1_555 1_555
H20A C19A 1_555 1_555
C20A C19A 1_555 1_555
C21A C20A 1_555 1_555
H21A C21A 1_555 1_555
C22A C17A 1_555 1_555
H22A C22A 1_555 1_555
C23A C20A 1_555 1_555
H23A C23A 1_555 1_555
C24A C23A 1_555 1_555
H24A C24A 1_555 1_555
C25A C24A 1_555 1_555
C26A C27 1_555 1_555
H25A C26A 1_555 1_555
C27A C26 1_555 1_555
C28A H26A 1_555 1_555
H27A C28A 1_555 1_555
C29A C28A 1_555 1_555
H28A C29A 1_555 1_555
C30A C29A 1_555 1_555
H29A C30A 1_555 1_555
H30A C30A 1_555 1_555
C31A C30A 1_555 1_555
H31A C31A 1_555 1_555
H32A C31A 1_555 1_555
H33A C31A 1_555 1_555
C32A C29A 1_555 1_555
H34A C32A 1_555 1_555
H35A C32A 1_555 1_555
H36A C32A 1_555 1_555
N1A C6A 1_555 1_555
O1A C2A 1_555 1_555
O2A C10A 1_555 1_555
O3A C27A 1_555 1_555
C3 O1 1_555 1_555
C7 C8 1_555 1_555
C11 O2 1_555 1_555
C14 N1 1_555 1_555
C15 C16 1_555 1_555
C17 N1 1_555 1_555
C21 C22 1_555 1_555
C28 O3 1_555 1_555
C3A O1A 1_555 1_555
C7A C8A 1_555 1_555
C11A O2A 1_555 1_555
C14A N1A 1_555 1_555
C15A C16A 1_555 1_555
C17A N1A 1_555 1_555
C21A C22A 1_555 1_555
C25A C26A 1_555 1_555
C25A C27A 1_555 1_555
C28A O3A 1_555 1_555

#END
