
#######################################################################
#
#                 Cambridge Crystallographic Data Centre
#                                CCDC 
#
#######################################################################
#
# If this CIF has been generated from an entry in the Cambridge 
# Structural Database, then it will include bibliographic, chemical, 
# crystal, experimental, refinement or atomic coordinate data resulting 
# from the CCDC's data processing and validation procedures.
#
#######################################################################

data_UYOCUI
_chemical_formula_moiety         'C36 H40 O8 S1'
_chemical_name_systematic        
"diethyl 2,2'-{[1-(4,5-dimethoxy-9H-thioxanthen-9-ylidene)-2,7-dimethyl-2,3-dihydro-1H-indene-5,6-diyl]bis(oxy)}dipropanoate"
_symmetry_cell_setting           monoclinic
_symmetry_space_group_name_H-M   'P 21'
_symmetry_Int_Tables_number      4
_space_group_name_Hall           'P 2yb'
loop_
_symmetry_equiv_pos_site_id
_symmetry_equiv_pos_as_xyz
1 x,y,z
2 -x,1/2+y,-z
_cell_length_a                   8.4338(2)
_cell_length_b                   40.6995(11)
_cell_length_c                   19.9343(5)
_cell_angle_alpha                90
_cell_angle_beta                 93.540(2)
_cell_angle_gamma                90
_cell_volume                     6829.42
_cell_formula_units_Z            8
_exptl_crystal_recrystallization_method Ethanol/Dichloromethane
loop_
_atom_site_label
_atom_site_type_symbol
_atom_site_fract_x
_atom_site_fract_y
_atom_site_fract_z
C1 C 0.7777(6) 0.58078(12) 0.6171(3)
C2 C 0.6689(6) 0.56458(13) 0.6546(3)
C3 C 0.7179(6) 0.55132(14) 0.7168(3)
H1 H 0.6440 0.5398 0.7421
C4 C 0.8740(6) 0.55480(15) 0.7422(3)
H2 H 0.9071 0.5457 0.7847
C5 C 0.9831(6) 0.57197(14) 0.7042(3)
H3 H 1.0901 0.5744 0.7212
C6 C 0.9349(6) 0.58522(13) 0.6424(2)
C7 C 1.0460(5) 0.60278(13) 0.6009(3)
C8 C 1.0458(6) 0.58981(13) 0.5309(3)
C9 C 1.1808(7) 0.57840(14) 0.4996(3)
H4 H 1.2819 0.5786 0.5234
C10 C 1.1659(8) 0.56674(15) 0.4336(3)
H5 H 1.2575 0.5593 0.4127
C11 C 1.0195(8) 0.56597(15) 0.3984(3)
H6 H 1.0114 0.5590 0.3528
C12 C 0.8850(7) 0.57539(14) 0.4295(3)
C13 C 0.8951(7) 0.58721(13) 0.4964(3)
C14 C 0.4036(7) 0.54503(19) 0.6631(4)
H7 H 0.4367 0.5220 0.6685
H8 H 0.2994 0.5460 0.6385
H9 H 0.3968 0.5551 0.7074
C15 C 0.7109(9) 0.56170(19) 0.3334(3)
H10 H 0.7738 0.5746 0.3032
H11 H 0.5983 0.5629 0.3181
H12 H 0.7460 0.5388 0.3332
C16 C 1.1390(6) 0.62859(14) 0.6227(3)
C17 C 1.2758(6) 0.64297(14) 0.5859(3)
H13 H 1.3271 0.6257 0.5589
C18 C 1.3886(7) 0.65419(16) 0.6456(3)
H14 H 1.4599 0.6361 0.6614
H15 H 1.4539 0.6732 0.6328
C19 C 1.2770(6) 0.66379(13) 0.6990(3)
C20 C 1.1314(6) 0.64901(13) 0.6854(3)
C21 C 1.0005(6) 0.65900(13) 0.7215(3)
C22 C 1.0308(6) 0.68086(13) 0.7739(3)
C23 C 1.1859(6) 0.69273(13) 0.7920(3)
C24 C 1.3077(6) 0.68481(13) 0.7525(3)
H16 H 1.4110 0.6936 0.7618
C25 C 1.2207(9) 0.67151(18) 0.5418(3)
H17 H 1.1459 0.6636 0.5058
H18 H 1.3125 0.6816 0.5221
H19 H 1.1679 0.6878 0.5689
C26 C 0.8297(6) 0.64901(16) 0.7046(3)
H20 H 0.8103 0.6274 0.7240
H21 H 0.8099 0.6480 0.6557
H22 H 0.7584 0.6652 0.7232
C27 C 0.8732(7) 0.72619(15) 0.8066(3)
H23 H 0.9735 0.7390 0.8034
C28 C 0.7941(9) 0.7348(2) 0.8712(4)
H24 H 0.7290 0.7162 0.8846
H25 H 0.7266 0.7542 0.8636
H26 H 0.8760 0.7395 0.9070
C29 C 0.7646(7) 0.73170(15) 0.7461(3)
C30 C 0.774(3) 0.7505(6) 0.6322(10)
H27 H 0.8305 0.7683 0.6097
H28 H 0.6645 0.7582 0.6387
C31 C 0.766(2) 0.7207(7) 0.5875(11)
H29 H 0.8582 0.7067 0.5983
H30 H 0.7654 0.7277 0.5404
H31 H 0.6683 0.7084 0.5946
C32 C 1.3306(6) 0.73223(14) 0.8623(3)
H32 H 1.4309 0.7204 0.8532
C33 C 1.3317(7) 0.74152(16) 0.9356(3)
H33 H 1.2372 0.7547 0.9433
H34 H 1.4273 0.7544 0.9480
H35 H 1.3312 0.7216 0.9631
C34 C 1.3148(7) 0.76287(15) 0.8195(3)
C35 C 1.4473(10) 0.8131(2) 0.7939(5)
H36 H 1.3576 0.8273 0.8053
H37 H 1.4432 0.8098 0.7446
C36 C 1.609(2) 0.8282(4) 0.8198(12)
H38 H 1.6960 0.8147 0.8045
H39 H 1.6150 0.8288 0.8691
H40 H 1.6179 0.8505 0.8022
O1 O 0.5170(4) 0.56238(10) 0.62638(19)
O2 O 0.7321(5) 0.57466(11) 0.40045(19)
O3 O 0.9075(4) 0.69113(10) 0.81118(19)
O4 O 0.6222(5) 0.72908(16) 0.7423(3)
O5 O 0.849(2) 0.7444(3) 0.6936(11)
O6 O 1.1981(4) 0.71127(9) 0.84914(19)
O7 O 1.1999(7) 0.76999(15) 0.7843(3)
O8 O 1.4432(5) 0.78166(11) 0.8291(3)
S1 S 0.71853(15) 0.59601(3) 0.53582(6)
C37 C 0.7788(6) 0.07771(13) 0.0420(3)
C38 C 0.8992(6) 0.09358(13) 0.0804(3)
C39 C 0.8671(7) 0.10609(14) 0.1444(3)
H41 H 0.9471 0.1173 0.1711
C40 C 0.7174(7) 0.10164(16) 0.1675(3)
H42 H 0.6958 0.1096 0.2108
C41 C 0.5983(7) 0.08588(14) 0.1290(3)
H43 H 0.4954 0.0837 0.1454
C42 C 0.6290(6) 0.07310(12) 0.0661(3)
C43 C 0.5038(6) 0.05710(13) 0.0239(3)
C44 C 0.4871(7) 0.07153(12) -0.0460(3)
C45 C 0.3468(7) 0.08408(13) -0.0770(3)
H44 H 0.2511 0.0835 -0.0543
C46 C 0.3478(8) 0.09734(16) -0.1410(3)
H45 H 0.2517 0.1057 -0.1618
C47 C 0.4834(8) 0.09874(14) -0.1750(3)
H46 H 0.4803 0.1073 -0.2194
C48 C 0.6264(7) 0.08757(13) -0.1443(3)
C49 C 0.6262(6) 0.07448(12) -0.0794(3)
C50 C 1.1681(8) 0.1138(2) 0.0904(4)
H47 H 1.1383 0.1369 0.0944
H48 H 1.2663 0.1121 0.0668
H49 H 1.1849 0.1042 0.1354
C51 C 0.7726(9) 0.10257(17) -0.2384(3)
H50 H 0.7090 0.0887 -0.2699
H51 H 0.8824 0.1033 -0.2518
H52 H 0.7283 0.1248 -0.2389
C52 C 0.4134(6) 0.03169(13) 0.0443(3)
C53 C 0.2621(6) 0.01844(14) 0.0074(3)
H53 H 0.2097 0.0357 -0.0219
C54 C 0.1598(6) 0.00982(15) 0.0666(3)
H54 H 0.0994 0.0291 0.0812
H55 H 0.0849 -0.0083 0.0548
C55 C 0.2837(6) -0.00055(13) 0.1199(3)
C56 C 0.4327(6) 0.01152(13) 0.1069(3)
C57 C 0.5695(6) 0.00010(13) 0.1436(3)
C58 C 0.5464(6) -0.02261(14) 0.1955(3)
C59 C 0.3929(6) -0.03284(13) 0.2108(3)
C60 C 0.2608(6) -0.02220(14) 0.1722(3)
H56 H 0.1573 -0.0295 0.1813
C61 C 0.3008(7) -0.01203(18) -0.0336(3)
H57 H 0.3597 -0.0054 -0.0723
H58 H 0.2019 -0.0229 -0.0494
H59 H 0.3657 -0.0272 -0.0053
C62 C 0.7347(6) 0.00836(15) 0.1287(3)
H60 H 0.7663 0.0289 0.1513
H61 H 0.7412 0.0109 0.0801
H62 H 0.8061 -0.0093 0.1449
C63 C 0.6985(6) -0.06821(14) 0.2377(3)
H63 H 0.5963 -0.0794 0.2234
C64 C 0.7464(9) -0.0776(2) 0.3112(4)
H64 H 0.8359 -0.0640 0.3280
H65 H 0.7776 -0.1008 0.3133
H66 H 0.6560 -0.0741 0.3390
C65 C 0.8262(7) -0.07885(17) 0.1919(3)
C66 C 0.9388(19) -0.1196(4) 0.1265(11)
H67 H 0.9712 -0.0990 0.1047
H68 H 1.0350 -0.1296 0.1490
C67 C 0.889(3) -0.1364(6) 0.0882(18)
H69 H 0.7780 -0.1411 0.0967
H70 H 0.9500 -0.1569 0.0898
H71 H 0.8940 -0.1263 0.0438
C68 C 0.2456(6) -0.06776(14) 0.2809(3)
H72 H 0.1711 -0.0693 0.2401
C69 C 0.1743(8) -0.04591(16) 0.3328(4)
H73 H 0.2574 -0.0393 0.3667
H74 H 0.0912 -0.0580 0.3547
H75 H 0.1282 -0.0263 0.3107
C70 C 0.2788(7) -0.10167(14) 0.3091(3)
C71 C 0.1508(11) -0.15040(17) 0.3453(6)
H76 H 0.1889 -0.1656 0.3111
H77 H 0.2268 -0.1511 0.3852
C72 C -0.0061(15) -0.1602(3) 0.3639(7)
H78 H -0.0047 -0.1835 0.3761
H79 H -0.0832 -0.1567 0.3257
H80 H -0.0362 -0.1471 0.4023
O9 O 1.0430(4) 0.09629(10) 0.0533(2)
O10 O 0.7698(5) 0.08920(10) -0.17216(19)
O11 O 0.6767(4) -0.03359(9) 0.23441(19)
O12 O 0.9231(5) -0.06132(13) 0.1684(3)
O13 O 0.8155(5) -0.11106(13) 0.1816(4)
O14 O 0.3918(4) -0.05455(11) 0.26332(19)
O15 O 0.4037(5) -0.11344(11) 0.3233(2)
O16 O 0.1401(5) -0.11666(11) 0.3180(3)
S2 S 0.81548(15) 0.06399(3) -0.03990(6)
C73 C 0.1004(7) 0.48610(13) 0.3183(3)
C74 C 0.0911(7) 0.50287(14) 0.2570(3)
C75 C 0.2320(8) 0.51400(15) 0.2292(3)
H81 H 0.2279 0.5249 0.1870
C76 C 0.3760(7) 0.50867(14) 0.2648(3)
H82 H 0.4712 0.5165 0.2472
C77 C 0.3833(6) 0.49240(14) 0.3248(3)
H83 H 0.4833 0.4892 0.3485
C78 C 0.2443(7) 0.48031(13) 0.3521(3)
C79 C 0.2506(6) 0.46255(13) 0.4173(3)
C80 C 0.1353(6) 0.47644(13) 0.4636(3)
C81 C 0.1749(6) 0.48777(14) 0.5283(3)
H84 H 0.2822 0.4865 0.5457
C82 C 0.0610(7) 0.50092(15) 0.5680(3)
H85 H 0.0905 0.5082 0.6122
C83 C -0.0962(6) 0.50341(14) 0.5431(3)
H86 H -0.1746 0.5121 0.5704
C84 C -0.1373(6) 0.49329(13) 0.4787(3)
C85 C -0.0239(6) 0.48063(13) 0.4383(3)
C86 C -0.0737(9) 0.52742(19) 0.1690(3)
H87 H -0.0237 0.5488 0.1781
H88 H -0.1869 0.5305 0.1565
H89 H -0.0227 0.5166 0.1320
C87 C -0.4091(6) 0.50925(16) 0.4884(3)
H90 H -0.4187 0.4960 0.5290
H91 H -0.5113 0.5096 0.4621
H92 H -0.3788 0.5317 0.5011
C88 C 0.3476(7) 0.43676(14) 0.4324(3)
C89 C 0.3693(8) 0.42146(15) 0.5037(3)
H93 H 0.3459 0.4381 0.5387
C90 C 0.5424(8) 0.41246(16) 0.5090(3)
H94 H 0.5610 0.3926 0.5370
H95 H 0.6076 0.4307 0.5287
C91 C 0.5809(7) 0.40607(15) 0.4370(3)
C92 C 0.4583(7) 0.41939(13) 0.3941(3)
C93 C 0.4632(7) 0.41304(14) 0.3229(3)
C94 C 0.5950(7) 0.39699(14) 0.3016(3)
C95 C 0.7151(7) 0.38433(14) 0.3449(3)
C96 C 0.7066(8) 0.38885(16) 0.4150(3)
H96 H 0.7861 0.3801 0.4458
C97 C 0.2588(8) 0.39160(19) 0.5080(4)
H97 H 0.2778 0.3763 0.4714
H98 H 0.1479 0.3989 0.5041
H99 H 0.2802 0.3805 0.5513
C98 C 0.3244(8) 0.41934(15) 0.2732(3)
H100 H 0.3392 0.4405 0.2508
H101 H 0.2260 0.4199 0.2969
H102 H 0.3179 0.4017 0.2396
C99 C 0.7300(8) 0.41108(18) 0.2057(3)
H103 H 0.8265 0.4109 0.2374
C100 C 0.7648(10) 0.3929(2) 0.1410(4)
C101 C 0.6751(10) 0.44530(19) 0.1944(4)
H104 H 0.5755 0.4452 0.1664
H105 H 0.7559 0.4577 0.1717
H106 H 0.6577 0.4556 0.2378
C102 C 0.9595(14) 0.3653(4) 0.0830(6)
H107 H 0.8971 0.3739 0.0431
H108 H 1.0733 0.3693 0.0765
C103 C 0.935(2) 0.3328(5) 0.0878(8)
H109 H 1.0089 0.3235 0.1225
H110 H 0.9514 0.3223 0.0445
H111 H 0.8253 0.3288 0.0998
C104 C 0.9665(8) 0.3550(2) 0.3540(4)
H112 H 1.0170 0.3732 0.3814
C105 C 1.0777(11) 0.3431(3) 0.3053(6)
H113 H 1.0419 0.3218 0.2877
H114 H 1.1840 0.3409 0.3277
H115 H 1.0815 0.3589 0.2682
C106 C 0.9227(14) 0.3268(2) 0.4003(5)
C107 C 0.810(2) 0.2800(4) 0.4190(11)
H116 H 0.9223 0.2729 0.4262
H117 H 0.7673 0.2839 0.4634
C108 C 0.722(3) 0.2559(6) 0.3841(15)
H118 H 0.6431 0.2663 0.3527
H119 H 0.6666 0.2423 0.4161
H120 H 0.7924 0.2420 0.3591
O17 O -0.0561(5) 0.50744(11) 0.2277(2)
O18 O -0.2901(4) 0.49527(10) 0.4487(2)
O19 O 0.6055(5) 0.39138(11) 0.2328(2)
O20 O 0.6698(7) 0.3898(2) 0.0933(3)
O21 O 0.9139(8) 0.38306(18) 0.1434(3)
O22 O 0.8325(6) 0.36724(11) 0.3153(2)
O23 O 0.9986(14) 0.3190(3) 0.4496(4)
O24 O 0.7997(12) 0.31061(18) 0.3776(3)
S3 S -0.07720(15) 0.47255(4) 0.35218(7)
C109? C 0.735(3) 0.7346(8) 0.6211(14)
H121? H 0.6295 0.7245 0.6248
H122? H 0.7208 0.7582 0.6107
C110? C 0.817(3) 0.7189(10) 0.5698(13)
H123? H 0.9312 0.7195 0.5815
H124? H 0.7938 0.7304 0.5272
H125? H 0.7812 0.6961 0.5654
C111? C 1.573(3) 0.8175(5) 0.7536(14)
H126? H 1.6508 0.7998 0.7622
H127? H 1.6234 0.8387 0.7638
H128? H 1.5341 0.8170 0.7063
O25? O 0.840(3) 0.7301(4) 0.6885(14)
C112? C 0.9314(18) -0.1321(4) 0.1597(11)
H129? H 1.0173 -0.1179 0.1443
H130? H 0.9763 -0.1437 0.2002
C113? C 0.905(3) -0.1557(7) 0.1109(17)
H131? H 0.8530 -0.1748 0.1302
H132? H 1.0060 -0.1625 0.0937
H133? H 0.8355 -0.1467 0.0740
C114? C 0.089(3) -0.1528(6) 0.4012(14)
H134? H 0.1377 -0.1367 0.4326
H135? H 0.1076 -0.1750 0.4193
H136? H -0.0252 -0.1487 0.3952
C115? C 1.089(7) 0.3391(14) 0.103(3)
H137? H 1.0379 0.3194 0.1204
H138? H 1.1627 0.3482 0.1385
H139? H 1.1472 0.3334 0.0640
C116? C 0.681(4) 0.2856(7) 0.4104(17)
H140? H 0.7231 0.2806 0.4568
H141? H 0.5771 0.2966 0.4136
C117? C 0.662(4) 0.2628(10) 0.383(2)
H142? H 0.6053 0.2672 0.3400
H143? H 0.5999 0.2478 0.4098
H144? H 0.7654 0.2527 0.3759
C118? C 0.5972(6) 0.67717(13) 1.2454(3)
C119? C 0.6044(7) 0.66168(15) 1.3072(3)
C120? C 0.7502(8) 0.65093(14) 1.3366(3)
H145? H 0.7570 0.6410 1.3798
C121? C 0.8823(8) 0.65509(15) 1.3013(3)
H146? H 0.9815 0.6474 1.3203
C122? C 0.8777(7) 0.66999(14) 1.2389(3)
H147? H 0.9711 0.6718 1.2148
C123? C 0.7336(6) 0.68224(13) 1.2120(3)
C124? C 0.7205(6) 0.69915(13) 1.1458(3)
C125? C 0.5915(6) 0.68541(12) 1.0997(3)
C126? C 0.6150(6) 0.67321(14) 1.0346(3)
H148? H 0.7178 0.6739 1.0176
C127? C 0.4885(7) 0.66028(14) 0.9953(3)
H149? H 0.5061 0.6522 0.9517
C128? C 0.3381(6) 0.65892(14) 1.0182(3)
H150? H 0.2519 0.6509 0.9899
C129? C 0.3133(6) 0.66936(13) 1.0834(3)
C130? C 0.4402(6) 0.68195(13) 1.1240(3)
C131? C 0.4630(11) 0.6428(2) 1.4007(3)
H151? H 0.4949 0.6198 1.3962
H152? H 0.3574 0.6438 1.4186
H153? H 0.5397 0.6542 1.4316
C132? C 0.0445(6) 0.65214(16) 1.0744(3)
H154? H 0.0228 0.6638 1.0318
H155? H -0.0509 0.6523 1.1000
H156? H 0.0744 0.6294 1.0652
C133? C 0.8138(6) 0.72453(14) 1.1286(3)
C134? C 0.8131(6) 0.74005(15) 1.0586(3)
H157? H 0.7754 0.7237 1.0237
C135? C 0.9912(7) 0.74754(17) 1.0521(3)
H158? H 1.0458 0.7288 1.0320
H159? H 1.0056 0.7674 1.0243
C136? C 1.0523(6) 0.75316(13) 1.1241(3)
C137? C 0.9447(6) 0.74150(13) 1.1679(3)
C138? C 0.9687(6) 0.74823(13) 1.2377(3)
C139? C 1.1144(7) 0.76302(13) 1.2585(3)
C140? C 1.2222(6) 0.77379(14) 1.2138(3)
C141? C 1.1927(7) 0.76906(14) 1.1464(3)
H160? H 1.2660 0.7764 1.1153
C142? C 0.7128(8) 0.76996(18) 1.0533(3)
H161? H 0.6141 0.7661 1.0756
H162? H 0.6878 0.7751 1.0058
H163? H 0.7703 0.7884 1.0750
C143? C 0.8425(7) 0.74392(14) 1.2877(3)
H164? H 0.8724 0.7258 1.3184
H165? H 0.7405 0.7389 1.2637
H166? H 0.8328 0.7642 1.3136
C144? C 1.4625(7) 0.80451(15) 1.2016(3)
H167? H 1.5060 0.7877 1.1712
C145? C 1.5947(7) 0.81851(17) 1.2466(4)
H168? H 1.5503 0.8329 1.2801
H169? H 1.6664 0.8312 1.2197
H170? H 1.6538 0.8006 1.2695
C146? C 1.3832(7) 0.83186(16) 1.1600(3)
C147? C 1.3918(11) 0.8631(2) 1.0599(4)
H171? H 1.2744 0.8616 1.0566
H172? H 1.4293 0.8600 1.0143
C148? C 1.4397(13) 0.8963(2) 1.0849(5)
H173? H 1.3993 0.8999 1.1293
H174? H 1.3955 0.9130 1.0536
H175? H 1.5559 0.8980 1.0880
O26? O 0.4586(5) 0.65840(12) 1.3367(2)
O27? O 0.1700(4) 0.66782(10) 1.1118(2)
O28? O 1.1443(5) 0.76930(10) 1.32672(19)
O29? O 1.3537(5) 0.78932(11) 1.2438(2)
O30? O 1.2704(6) 0.84749(13) 1.1776(3)
O31? O 1.4559(5) 0.83684(12) 1.1037(2)
S4? S 0.40937(15) 0.69076(4) 1.20951(7)
C149? C 1.2567(18) 0.7464(2) 1.3565(5)
loop_
_geom_bond_atom_site_label_1
_geom_bond_atom_site_label_2
_geom_bond_site_symmetry_1
_geom_bond_site_symmetry_2
C1 C2 1_555 1_555
C2 C3 1_555 1_555
C3 H1 1_555 1_555
C4 C3 1_555 1_555
H2 C4 1_555 1_555
C5 C4 1_555 1_555
H3 C5 1_555 1_555
C6 C1 1_555 1_555
C7 C6 1_555 1_555
C8 C7 1_555 1_555
C9 C8 1_555 1_555
H4 C9 1_555 1_555
C10 C9 1_555 1_555
H5 C10 1_555 1_555
C11 C10 1_555 1_555
H6 C11 1_555 1_555
C12 C11 1_555 1_555
C13 C8 1_555 1_555
C14 H7 1_555 1_555
H8 C14 1_555 1_555
H9 C14 1_555 1_555
C15 H10 1_555 1_555
H11 C15 1_555 1_555
H12 C15 1_555 1_555
C16 C7 1_555 1_555
C17 C16 1_555 1_555
H13 C17 1_555 1_555
C18 C17 1_555 1_555
H14 C18 1_555 1_555
H15 C18 1_555 1_555
C19 C18 1_555 1_555
C20 C16 1_555 1_555
C21 C20 1_555 1_555
C22 C21 1_555 1_555
C23 C22 1_555 1_555
C24 C19 1_555 1_555
H16 C24 1_555 1_555
C25 C17 1_555 1_555
H17 C25 1_555 1_555
H18 C25 1_555 1_555
H19 C25 1_555 1_555
C26 C21 1_555 1_555
H20 C26 1_555 1_555
H21 C26 1_555 1_555
H22 C26 1_555 1_555
C27 H23 1_555 1_555
C28 C27 1_555 1_555
H24 C28 1_555 1_555
H25 C28 1_555 1_555
H26 C28 1_555 1_555
C29 C27 1_555 1_555
C30 H27 1_555 1_555
H28 C30 1_555 1_555
C31 C30 1_555 1_555
H29 C31 1_555 1_555
H30 C31 1_555 1_555
H31 C31 1_555 1_555
C32 H32 1_555 1_555
C33 C32 1_555 1_555
H33 C33 1_555 1_555
H34 C33 1_555 1_555
H35 C33 1_555 1_555
C34 C32 1_555 1_555
C35 H36 1_555 1_555
H37 C35 1_555 1_555
C36 C35 1_555 1_555
H38 C36 1_555 1_555
H39 C36 1_555 1_555
H40 C36 1_555 1_555
O1 C2 1_555 1_555
O2 C12 1_555 1_555
O3 C22 1_555 1_555
O4 C29 1_555 1_555
O5 C29 1_555 1_555
O6 C23 1_555 1_555
O7 C34 1_555 1_555
O8 C34 1_555 1_555
S1 C1 1_555 1_555
C37 C38 1_555 1_555
C38 C39 1_555 1_555
C39 H41 1_555 1_555
C40 C39 1_555 1_555
H42 C40 1_555 1_555
C41 C40 1_555 1_555
H43 C41 1_555 1_555
C42 C37 1_555 1_555
C43 C42 1_555 1_555
C44 C43 1_555 1_555
C45 C44 1_555 1_555
H44 C45 1_555 1_555
C46 C45 1_555 1_555
H45 C46 1_555 1_555
C47 C46 1_555 1_555
H46 C47 1_555 1_555
C48 C47 1_555 1_555
C49 C44 1_555 1_555
C50 H47 1_555 1_555
H48 C50 1_555 1_555
H49 C50 1_555 1_555
C51 H50 1_555 1_555
H51 C51 1_555 1_555
H52 C51 1_555 1_555
C52 C43 1_555 1_555
C53 C52 1_555 1_555
H53 C53 1_555 1_555
C54 C53 1_555 1_555
H54 C54 1_555 1_555
H55 C54 1_555 1_555
C55 C54 1_555 1_555
C56 C52 1_555 1_555
C57 C56 1_555 1_555
C58 C57 1_555 1_555
C59 C58 1_555 1_555
C60 C55 1_555 1_555
H56 C60 1_555 1_555
C61 C53 1_555 1_555
H57 C61 1_555 1_555
H58 C61 1_555 1_555
H59 C61 1_555 1_555
C62 C57 1_555 1_555
H60 C62 1_555 1_555
H61 C62 1_555 1_555
H62 C62 1_555 1_555
C63 H63 1_555 1_555
C64 C63 1_555 1_555
H64 C64 1_555 1_555
H65 C64 1_555 1_555
H66 C64 1_555 1_555
C65 C63 1_555 1_555
C66 H67 1_555 1_555
H68 C66 1_555 1_555
C67 C66 1_555 1_555
H69 C67 1_555 1_555
H70 C67 1_555 1_555
H71 C67 1_555 1_555
C68 H72 1_555 1_555
C69 C68 1_555 1_555
H73 C69 1_555 1_555
H74 C69 1_555 1_555
H75 C69 1_555 1_555
C70 C68 1_555 1_555
C71 H76 1_555 1_555
H77 C71 1_555 1_555
C72 C71 1_555 1_555
H78 C72 1_555 1_555
H79 C72 1_555 1_555
H80 C72 1_555 1_555
O9 C38 1_555 1_555
O10 C48 1_555 1_555
O11 C58 1_555 1_555
O12 C65 1_555 1_555
O13 C65 1_555 1_555
O14 C59 1_555 1_555
O15 C70 1_555 1_555
O16 C70 1_555 1_555
S2 C37 1_555 1_555
C73 C74 1_555 1_555
C74 C75 1_555 1_555
C75 H81 1_555 1_555
C76 C75 1_555 1_555
H82 C76 1_555 1_555
C77 C76 1_555 1_555
H83 C77 1_555 1_555
C78 C73 1_555 1_555
C79 C78 1_555 1_555
C80 C79 1_555 1_555
C81 C80 1_555 1_555
H84 C81 1_555 1_555
C82 C81 1_555 1_555
H85 C82 1_555 1_555
C83 C82 1_555 1_555
H86 C83 1_555 1_555
C84 C83 1_555 1_555
C85 C80 1_555 1_555
C86 H87 1_555 1_555
H88 C86 1_555 1_555
H89 C86 1_555 1_555
C87 H90 1_555 1_555
H91 C87 1_555 1_555
H92 C87 1_555 1_555
C88 C79 1_555 1_555
C89 C88 1_555 1_555
H93 C89 1_555 1_555
C90 C89 1_555 1_555
H94 C90 1_555 1_555
H95 C90 1_555 1_555
C91 C90 1_555 1_555
C92 C88 1_555 1_555
C93 C92 1_555 1_555
C94 C93 1_555 1_555
C95 C94 1_555 1_555
C96 C91 1_555 1_555
H96 C96 1_555 1_555
C97 C89 1_555 1_555
H97 C97 1_555 1_555
H98 C97 1_555 1_555
H99 C97 1_555 1_555
C98 C93 1_555 1_555
H100 C98 1_555 1_555
H101 C98 1_555 1_555
H102 C98 1_555 1_555
C99 H103 1_555 1_555
C100 C99 1_555 1_555
C101 C99 1_555 1_555
H104 C101 1_555 1_555
H105 C101 1_555 1_555
H106 C101 1_555 1_555
C102 H107 1_555 1_555
H108 C102 1_555 1_555
C103 C102 1_555 1_555
H109 C103 1_555 1_555
H110 C103 1_555 1_555
H111 C103 1_555 1_555
C104 H112 1_555 1_555
C105 C104 1_555 1_555
H113 C105 1_555 1_555
H114 C105 1_555 1_555
H115 C105 1_555 1_555
C106 C104 1_555 1_555
C107 H116 1_555 1_555
H117 C107 1_555 1_555
C108 C107 1_555 1_555
H118 C108 1_555 1_555
H119 C108 1_555 1_555
H120 C108 1_555 1_555
O17 C74 1_555 1_555
O18 C84 1_555 1_555
O19 C94 1_555 1_555
O20 C100 1_555 1_555
O21 C100 1_555 1_555
O22 C95 1_555 1_555
O23 C106 1_555 1_555
O24 C106 1_555 1_555
S3 C73 1_555 1_555
C5 C6 1_555 1_555
C12 C13 1_555 1_555
C13 S1 1_555 1_555
C14 O1 1_555 1_555
C15 O2 1_555 1_555
C19 C20 1_555 1_555
C23 C24 1_555 1_555
C27 O3 1_555 1_555
C30 O5 1_555 1_555
C32 O6 1_555 1_555
C35 O8 1_555 1_555
C41 C42 1_555 1_555
C48 C49 1_555 1_555
C49 S2 1_555 1_555
C50 O9 1_555 1_555
C51 O10 1_555 1_555
C55 C56 1_555 1_555
C59 C60 1_555 1_555
C63 O11 1_555 1_555
C66 O13 1_555 1_555
C68 O14 1_555 1_555
C71 O16 1_555 1_555
C77 C78 1_555 1_555
C84 C85 1_555 1_555
C85 S3 1_555 1_555
C86 O17 1_555 1_555
C87 O18 1_555 1_555
C91 C92 1_555 1_555
C95 C96 1_555 1_555
C99 O19 1_555 1_555
C102 O21 1_555 1_555
C104 O22 1_555 1_555
C107 O24 1_555 1_555

#END
