
#######################################################################
#
#                 Cambridge Crystallographic Data Centre
#                                CCDC 
#
#######################################################################
#
# If this CIF has been generated from an entry in the Cambridge 
# Structural Database, then it will include bibliographic, chemical, 
# crystal, experimental, refinement or atomic coordinate data resulting 
# from the CCDC's data processing and validation procedures.
#
#######################################################################

data_UYOCIW
_chemical_formula_moiety         'C46 H64 O8 S2 Si2'
_chemical_name_systematic        
"diethyl 2,2'-((4'',5''-bis((t-butyl(dimethyl)silyl)oxy)-2,7-dimethyl-2,3-dihydrodispiro[indene-1,2'-thiirane-3',9''-thioxanthene]-5,6-diyl)bis(oxy))dipropanoate"
_symmetry_cell_setting           orthorhombic
_symmetry_space_group_name_H-M   'P 21 21 21'
_symmetry_Int_Tables_number      19
_space_group_name_Hall           'P 2ac 2ab'
loop_
_symmetry_equiv_pos_site_id
_symmetry_equiv_pos_as_xyz
1 x,y,z
2 1/2+x,1/2-y,-z
3 -x,1/2+y,1/2-z
4 1/2-x,-y,1/2+z
_cell_length_a                   11.8751(7)
_cell_length_b                   18.7850(12)
_cell_length_c                   43.388(3)
_cell_angle_alpha                90
_cell_angle_beta                 90
_cell_angle_gamma                90
_cell_volume                     9678.72
_exptl_crystal_colour            yellow
_exptl_crystal_description       prism
_cell_formula_units_Z            8
_exptl_crystal_recrystallization_method 'Ethanol/Ethyl Acetate'
loop_
_atom_site_label
_atom_site_type_symbol
_atom_site_fract_x
_atom_site_fract_y
_atom_site_fract_z
C1 C 0.2232(4) 0.6884(2) 0.65142(10)
C2 C 0.1872(4) 0.6832(3) 0.68211(11)
C3 C 0.2376(5) 0.7257(3) 0.70440(12)
H1 H 0.2144 0.7219 0.7253
C4 C 0.3205(5) 0.7731(3) 0.69648(12)
H2 H 0.3534 0.8025 0.7118
C5 C 0.3562(5) 0.7782(3) 0.66643(12)
H3 H 0.4124 0.8120 0.6611
C6 C 0.3111(4) 0.7347(3) 0.64394(11)
C7 C 0.3544(4) 0.7299(3) 0.61149(11)
C8 C 0.2614(4) 0.7368(2) 0.58826(11)
C9 C 0.2585(5) 0.7882(3) 0.56551(12)
H4 H 0.3179 0.8219 0.5640
C10 C 0.1696(5) 0.7911(3) 0.54481(13)
H5 H 0.1674 0.8274 0.5295
C11 C 0.0839(5) 0.7409(3) 0.54647(13)
H6 H 0.0244 0.7417 0.5318
C12 C 0.0847(4) 0.6900(3) 0.56927(11)
C13 C 0.1707(4) 0.6907(2) 0.59141(11)
C14 C 0.2010(7) 0.5508(4) 0.7353(2)
H7 H 0.2403 0.5244 0.7191
H8 H 0.1817 0.5183 0.7522
H9 H 0.2501 0.5886 0.7431
C15 C 0.0059(8) 0.6471(4) 0.74930(16)
H10 H 0.0601 0.6830 0.7562
H11 H -0.0171 0.6177 0.7669
H12 H -0.0603 0.6707 0.7405
C16 C -0.0260(6) 0.5208(4) 0.70462(15)
C17 C 0.0312(8) 0.4787(4) 0.67900(16)
H13 H -0.0197 0.4412 0.6717
H14 H 0.1005 0.4572 0.6869
H15 H 0.0494 0.5108 0.6619
C18 C -0.1335(7) 0.5539(6) 0.6921(3)
H16 H -0.1152 0.5851 0.6747
H17 H -0.1699 0.5818 0.7084
H18 H -0.1846 0.5162 0.6852
C19 C -0.0532(7) 0.4688(4) 0.73154(17)
H19 H -0.1036 0.4312 0.7241
H20 H -0.0899 0.4950 0.7483
H21 H 0.0168 0.4475 0.7391
C20 C 0.1488(6) 0.5337(5) 0.5492(3)
H22 H 0.1890 0.5680 0.5362
H23 H 0.1515 0.4866 0.5395
H24 H 0.1844 0.5316 0.5695
C21 C -0.0230(16) 0.5882(10) 0.5097(3)
H25 H -0.0991 0.6079 0.5077
H26 H -0.0160 0.5461 0.4965
H27 H 0.0322 0.6241 0.5033
C22 C -0.1049(10) 0.5124(7) 0.5688(3)
C23 C -0.0923(14) 0.5138(10) 0.6043(4)
H28 H -0.1530 0.4859 0.6137
H29 H -0.0964 0.5631 0.6117
H30 H -0.0194 0.4932 0.6101
C24 C -0.2207(13) 0.5430(10) 0.5628(4)
H31 H -0.2390 0.5381 0.5409
H32 H -0.2216 0.5934 0.5686
H33 H -0.2765 0.5171 0.5752
C25 C -0.1032(13) 0.4384(9) 0.5568(4)
H34 H -0.0267 0.4192 0.5584
H35 H -0.1269 0.4384 0.5352
H36 H -0.1548 0.4088 0.5689
C26 C 0.4490(4) 0.6756(2) 0.60616(11)
C27 C 0.4973(4) 0.6363(3) 0.63435(11)
H37 H 0.4653 0.6559 0.6539
C28 C 0.4551(5) 0.5602(3) 0.62867(11)
H38 H 0.5062 0.5246 0.6380
H39 H 0.3782 0.5534 0.6370
C29 C 0.4559(4) 0.5553(3) 0.59410(11)
C30 C 0.4653(4) 0.4932(3) 0.57709(11)
H40 H 0.4664 0.4481 0.5870
C31 C 0.4731(4) 0.4986(3) 0.54514(11)
C32 C 0.4651(4) 0.5648(3) 0.53124(10)
C33 C 0.4563(4) 0.6280(3) 0.54812(10)
C34 C 0.4514(4) 0.6220(2) 0.58043(10)
C35 C 0.6248(5) 0.6382(4) 0.63499(16)
H41 H 0.6522 0.6094 0.6523
H42 H 0.6503 0.6874 0.6375
H43 H 0.6543 0.6189 0.6156
C36 C 0.4581(5) 0.6971(3) 0.53055(12)
H44 H 0.5219 0.6972 0.5162
H45 H 0.4657 0.7369 0.5450
H46 H 0.3877 0.7023 0.5189
C37 C 0.4950(5) 0.3706(3) 0.53691(12)
H47 H 0.4776 0.3710 0.5595
C38 C 0.6093(7) 0.3403(4) 0.5325(2)
H48 H 0.6302 0.3434 0.5107
H49 H 0.6095 0.2903 0.5390
H50 H 0.6636 0.3671 0.5449
C39 C 0.4035(7) 0.3302(4) 0.52046(15)
C40 C 0.2194(11) 0.3324(8) 0.4986(2)
H51 H 0.1987 0.3586 0.4796
H52 H 0.2400 0.2830 0.4930
C41 C 0.1290(14) 0.3327(11) 0.5198(4)
H53 H 0.1259 0.2868 0.5305
H54 H 0.0582 0.3407 0.5088
H55 H 0.1405 0.3709 0.5349
C42 C 0.4079(5) 0.5312(3) 0.47991(13)
H56 H 0.3839 0.4871 0.4910
C43 C 0.4789(7) 0.5099(5) 0.45232(17)
H57 H 0.5167 0.5521 0.4440
H58 H 0.4304 0.4890 0.4364
H59 H 0.5355 0.4749 0.4587
C44 C 0.3048(5) 0.5702(4) 0.46924(13)
C45 C 0.2195(6) 0.6794(4) 0.4572(2)
H60 H 0.1901 0.6574 0.4381
H61 H 0.1589 0.6790 0.4729
C46 C 0.2551(7) 0.7514(5) 0.4512(3)
H62 H 0.2806 0.7735 0.4704
H63 H 0.1918 0.7787 0.4428
H64 H 0.3171 0.7511 0.4363
O1 O 0.1014(3) 0.6375(2) 0.68834(8)
O2 O 0.0013(3) 0.6403(2) 0.57105(8)
O3 O 0.4947(3) 0.44222(19) 0.52594(8)
O4 O 0.4116(7) 0.2681(3) 0.51430(13)
O5 O 0.3137(5) 0.3681(3) 0.51455(14)
O6 O 0.4796(3) 0.57137(18) 0.49950(7)
O7 O 0.2208(5) 0.5391(3) 0.46137(14)
O8 O 0.3163(4) 0.6400(2) 0.46829(10)
Si1 Si 0.07214(12) 0.59001(9) 0.71963(3)
Si2 Si 0.00526(14) 0.56095(11) 0.55328(4)
S1 S 0.15757(10) 0.63402(6) 0.62372(3)
S2 S 0.48965(11) 0.77033(7) 0.60287(3)
C53 C 0.2377(4) 0.3311(2) 0.31266(10)
C54 C 0.1489(4) 0.3284(3) 0.29108(11)
C55 C 0.1242(5) 0.2635(3) 0.27699(12)
H80 H 0.0641 0.2605 0.2626
C56 C 0.1869(6) 0.2036(3) 0.28393(13)
H81 H 0.1701 0.1599 0.2739
C57 C 0.2731(5) 0.2059(3) 0.30502(12)
H82 H 0.3162 0.1645 0.3092
C58 C 0.2968(4) 0.2696(3) 0.32021(11)
C59 C 0.3843(4) 0.2765(3) 0.34538(12)
C60 C 0.4635(4) 0.3371(3) 0.33942(12)
C61 C 0.5806(5) 0.3302(4) 0.34156(14)
H83 H 0.6137 0.2849 0.3450
C62 C 0.6466(6) 0.3890(6) 0.33869(18)
H84 H 0.7261 0.3839 0.3392
C63 C 0.6014(6) 0.4549(6) 0.33505(18)
H85 H 0.6492 0.4954 0.3341
C64 C 0.4827(6) 0.4635(4) 0.33262(17)
C65 C 0.4155(4) 0.4031(3) 0.33411(12)
C66 C -0.1364(7) 0.3466(4) 0.2836(3)
H86 H -0.1291 0.2998 0.2738
H87 H -0.2112 0.3662 0.2792
H88 H -0.1265 0.3419 0.3059
C67 C -0.0170(8) 0.3964(5) 0.22540(17)
H89 H 0.0340 0.4326 0.2170
H90 H -0.0918 0.4021 0.2162
H91 H 0.0122 0.3489 0.2206
C68 C -0.0546(5) 0.5021(3) 0.27882(14)
C69 C -0.0491(8) 0.5096(4) 0.31384(16)
H92 H 0.0275 0.4990 0.3209
H93 H -0.1021 0.4762 0.3234
H94 H -0.0690 0.5584 0.3197
C70 C -0.1730(6) 0.5230(4) 0.2679(2)
H95 H -0.1876 0.5728 0.2733
H96 H -0.2289 0.4925 0.2780
H97 H -0.1781 0.5170 0.2455
C71 C 0.0318(6) 0.5514(3) 0.26395(19)
H98 H 0.0182 0.6005 0.2707
H99 H 0.0250 0.5487 0.2415
H100 H 0.1077 0.5368 0.2701
C72 C 0.5771(10) 0.6198(8) 0.3708(3)
H101 H 0.5894 0.5734 0.3805
H102 H 0.5435 0.6526 0.3857
H103 H 0.6493 0.6390 0.3637
C73 C 0.545(2) 0.6380(13) 0.2992(4)
H104 H 0.6088 0.6072 0.2941
H105 H 0.5706 0.6874 0.3007
H106 H 0.4877 0.6343 0.2830
C74 C 0.3565(10) 0.6590(9) 0.3467(3)
C75 C 0.320(3) 0.6403(14) 0.3808(4)
H107 H 0.2798 0.6807 0.3897
H108 H 0.3875 0.6301 0.3931
H109 H 0.2712 0.5983 0.3806
C76 C 0.3883(13) 0.7350(6) 0.3499(5)
H110 H 0.3236 0.7621 0.3576
H111 H 0.4115 0.7537 0.3298
H112 H 0.4509 0.7392 0.3645
C77 C 0.2657(10) 0.6516(6) 0.3191(3)
H113 H 0.2259 0.6970 0.3164
H114 H 0.2114 0.6142 0.3241
H115 H 0.3047 0.6394 0.2999
C78 C 0.3481(4) 0.2631(3) 0.37838(12)
C79 C 0.3963(4) 0.3108(4) 0.40391(12)
H116 H 0.4616 0.3389 0.3960
C80 C 0.2957(4) 0.3601(3) 0.41065(12)
H117 H 0.2959 0.3760 0.4324
H118 H 0.2967 0.4024 0.3970
C81 C 0.1959(4) 0.3137(3) 0.40400(11)
C82 C 0.0864(4) 0.3247(3) 0.41370(12)
H119 H 0.0680 0.3656 0.4256
C83 C 0.0049(4) 0.2768(3) 0.40616(12)
C84 C 0.0334(4) 0.2159(3) 0.38940(12)
C85 C 0.1444(4) 0.2018(3) 0.38022(12)
C86 C 0.2250(4) 0.2544(3) 0.38678(11)
C87 C 0.4312(5) 0.2673(4) 0.43192(14)
H120 H 0.3657 0.2415 0.4400
H121 H 0.4606 0.2992 0.4479
H122 H 0.4897 0.2332 0.4260
C88 C 0.1690(5) 0.1302(3) 0.36640(14)
H123 H 0.1506 0.0929 0.3814
H124 H 0.2490 0.1273 0.3610
H125 H 0.1234 0.1237 0.3478
C89 C -0.1427(5) 0.3465(4) 0.42820(15)
H126 H -0.1021 0.3549 0.4480
C90 C -0.2689(6) 0.3388(5) 0.4341(2)
H127 H -0.3087 0.3346 0.4144
H128 H -0.2963 0.3808 0.4452
H129 H -0.2826 0.2961 0.4466
C91 C -0.1229(5) 0.4080(4) 0.40637(16)
C92 C -0.0790(11) 0.5316(4) 0.4034(3)
H130 H -0.0969 0.5748 0.4155
H131 H -0.1259 0.5319 0.3846
C93 C 0.0417(10) 0.5321(5) 0.3948(2)
H132 H 0.0880 0.5289 0.4134
H133 H 0.0592 0.5763 0.3838
H134 H 0.0577 0.4913 0.3814
C94 C -0.1460(4) 0.1786(3) 0.36868(13)
H135 H -0.1585 0.2312 0.3691
C95 C -0.2426(5) 0.1416(5) 0.38513(18)
H136 H -0.2253 0.0909 0.3874
H137 H -0.3118 0.1472 0.3731
H138 H -0.2530 0.1629 0.4055
C96 C -0.1382(5) 0.1538(3) 0.33578(15)
C97 C -0.2356(7) 0.1606(4) 0.28847(16)
H139 H -0.2407 0.1081 0.2868
H140 H -0.1699 0.1769 0.2763
C98 C -0.3415(8) 0.1945(5) 0.2767(2)
H141 H -0.4061 0.1761 0.2882
H142 H -0.3506 0.1834 0.2548
H143 H -0.3368 0.2462 0.2794
O9 O 0.0948(3) 0.38881(18) 0.28454(9)
O10 O 0.4331(5) 0.5273(3) 0.32847(15)
O11 O -0.1067(3) 0.2813(2) 0.41481(9)
O12 O -0.1247(4) 0.4023(3) 0.37904(11)
O13 O -0.1051(5) 0.4679(3) 0.42181(13)
O14 O -0.0452(3) 0.1620(2) 0.38515(9)
O15 O -0.0706(5) 0.1139(3) 0.32545(13)
O16 O -0.2236(4) 0.1813(2) 0.31989(10)
Si3 Si -0.02727(12) 0.40719(9) 0.26795(4)
Si4 Si 0.4814(4) 0.6091(2) 0.33758(10)
S3 S 0.26933(11) 0.41495(7) 0.32837(3)
S4 S 0.43992(12) 0.19529(9) 0.36217(4)
C47? C -0.0282(15) 0.4879(9) 0.5893(4)
H65? H -0.1028 0.4976 0.5980
H66? H 0.0290 0.4931 0.6054
H67? H -0.0262 0.4393 0.5812
C48? C -0.1081(10) 0.5425(7) 0.5261(3)
C49? C -0.0841(15) 0.5974(10) 0.5006(4)
H68? H -0.1448 0.5961 0.4853
H69? H -0.0124 0.5859 0.4905
H70? H -0.0797 0.6451 0.5097
C50? C -0.2239(13) 0.5544(10) 0.5401(4)
H71? H -0.2269 0.6017 0.5495
H72? H -0.2383 0.5181 0.5558
H73? H -0.2813 0.5510 0.5239
C51? C -0.1046(13) 0.4671(9) 0.5131(4)
H74? H -0.1029 0.4328 0.5302
H75? H -0.0370 0.4612 0.5004
H76? H -0.1717 0.4587 0.5005
C52? C 0.1256(17) 0.3700(11) 0.4966(5)
H77? H 0.0986 0.3815 0.5173
H78? H 0.0682 0.3421 0.4857
H79? H 0.1404 0.4141 0.4852
C99? C 0.334(2) 0.5682(12) 0.3822(4)
H144? H 0.3026 0.5209 0.3783
H145? H 0.2739 0.6037 0.3822
H146? H 0.3723 0.5683 0.4022
C100? C 0.3961(10) 0.6443(8) 0.3259(3)
C101? C 0.480(3) 0.6756(14) 0.3020(5)
H147? H 0.5018 0.6385 0.2873
H148? H 0.5474 0.6930 0.3127
H149? H 0.4444 0.7151 0.2909
Si5? Si 0.4363(4) 0.5900(3) 0.35185(10)
loop_
_geom_bond_atom_site_label_1
_geom_bond_atom_site_label_2
_geom_bond_site_symmetry_1
_geom_bond_site_symmetry_2
C1 C2 1_555 1_555
C2 C3 1_555 1_555
C3 H1 1_555 1_555
C4 C3 1_555 1_555
H2 C4 1_555 1_555
C5 C4 1_555 1_555
H3 C5 1_555 1_555
C6 C1 1_555 1_555
C7 C6 1_555 1_555
C8 C7 1_555 1_555
C9 C8 1_555 1_555
H4 C9 1_555 1_555
C10 C9 1_555 1_555
H5 C10 1_555 1_555
C11 C10 1_555 1_555
H6 C11 1_555 1_555
C12 C11 1_555 1_555
C13 C8 1_555 1_555
C14 H7 1_555 1_555
H8 C14 1_555 1_555
H9 C14 1_555 1_555
C15 H10 1_555 1_555
H11 C15 1_555 1_555
H12 C15 1_555 1_555
C16 C17 1_555 1_555
C17 H13 1_555 1_555
H14 C17 1_555 1_555
H15 C17 1_555 1_555
C18 C16 1_555 1_555
H16 C18 1_555 1_555
H17 C18 1_555 1_555
H18 C18 1_555 1_555
C19 C16 1_555 1_555
H19 C19 1_555 1_555
H20 C19 1_555 1_555
H21 C19 1_555 1_555
C20 H22 1_555 1_555
H23 C20 1_555 1_555
H24 C20 1_555 1_555
C21 H25 1_555 1_555
H26 C21 1_555 1_555
H27 C21 1_555 1_555
C22 C23 1_555 1_555
C23 H28 1_555 1_555
H29 C23 1_555 1_555
H30 C23 1_555 1_555
C24 C22 1_555 1_555
H31 C24 1_555 1_555
H32 C24 1_555 1_555
H33 C24 1_555 1_555
C25 C22 1_555 1_555
H34 C25 1_555 1_555
H35 C25 1_555 1_555
H36 C25 1_555 1_555
C26 C7 1_555 1_555
C27 C26 1_555 1_555
H37 C27 1_555 1_555
C28 C27 1_555 1_555
H38 C28 1_555 1_555
H39 C28 1_555 1_555
C29 C28 1_555 1_555
C30 C29 1_555 1_555
H40 C30 1_555 1_555
C31 C30 1_555 1_555
C32 C31 1_555 1_555
C33 C32 1_555 1_555
C34 C26 1_555 1_555
C35 C27 1_555 1_555
H41 C35 1_555 1_555
H42 C35 1_555 1_555
H43 C35 1_555 1_555
C36 C33 1_555 1_555
H44 C36 1_555 1_555
H45 C36 1_555 1_555
H46 C36 1_555 1_555
C37 H47 1_555 1_555
C38 C37 1_555 1_555
H48 C38 1_555 1_555
H49 C38 1_555 1_555
H50 C38 1_555 1_555
C39 C37 1_555 1_555
C40 H51 1_555 1_555
H52 C40 1_555 1_555
C41 C40 1_555 1_555
H53 C41 1_555 1_555
H54 C41 1_555 1_555
H55 C41 1_555 1_555
C42 H56 1_555 1_555
C43 C42 1_555 1_555
H57 C43 1_555 1_555
H58 C43 1_555 1_555
H59 C43 1_555 1_555
C44 C42 1_555 1_555
C45 H60 1_555 1_555
H61 C45 1_555 1_555
C46 C45 1_555 1_555
H62 C46 1_555 1_555
H63 C46 1_555 1_555
H64 C46 1_555 1_555
O1 C2 1_555 1_555
O2 C12 1_555 1_555
O3 C31 1_555 1_555
O4 C39 1_555 1_555
O5 C39 1_555 1_555
O6 C32 1_555 1_555
O7 C44 1_555 1_555
O8 C44 1_555 1_555
Si1 C14 1_555 1_555
Si2 C20 1_555 1_555
S1 C1 1_555 1_555
S2 C7 1_555 1_555
C53 C54 1_555 1_555
C54 C55 1_555 1_555
C55 H80 1_555 1_555
C56 C55 1_555 1_555
H81 C56 1_555 1_555
C57 C56 1_555 1_555
H82 C57 1_555 1_555
C58 C53 1_555 1_555
C59 C58 1_555 1_555
C60 C59 1_555 1_555
C61 C60 1_555 1_555
H83 C61 1_555 1_555
C62 C61 1_555 1_555
H84 C62 1_555 1_555
C63 C62 1_555 1_555
H85 C63 1_555 1_555
C64 C63 1_555 1_555
C65 C60 1_555 1_555
C66 H86 1_555 1_555
H87 C66 1_555 1_555
H88 C66 1_555 1_555
C67 H89 1_555 1_555
H90 C67 1_555 1_555
H91 C67 1_555 1_555
C68 C69 1_555 1_555
C69 H92 1_555 1_555
H93 C69 1_555 1_555
H94 C69 1_555 1_555
C70 C68 1_555 1_555
H95 C70 1_555 1_555
H96 C70 1_555 1_555
H97 C70 1_555 1_555
C71 C68 1_555 1_555
H98 C71 1_555 1_555
H99 C71 1_555 1_555
H100 C71 1_555 1_555
C72 H101 1_555 1_555
H102 C72 1_555 1_555
H103 C72 1_555 1_555
C73 H104 1_555 1_555
H105 C73 1_555 1_555
H106 C73 1_555 1_555
C74 C75 1_555 1_555
C75 H107 1_555 1_555
H108 C75 1_555 1_555
H109 C75 1_555 1_555
C76 C74 1_555 1_555
H110 C76 1_555 1_555
H111 C76 1_555 1_555
H112 C76 1_555 1_555
C77 C74 1_555 1_555
H113 C77 1_555 1_555
H114 C77 1_555 1_555
H115 C77 1_555 1_555
C78 C59 1_555 1_555
C79 C78 1_555 1_555
H116 C79 1_555 1_555
C80 C79 1_555 1_555
H117 C80 1_555 1_555
H118 C80 1_555 1_555
C81 C80 1_555 1_555
C82 C81 1_555 1_555
H119 C82 1_555 1_555
C83 C82 1_555 1_555
C84 C83 1_555 1_555
C85 C84 1_555 1_555
C86 C78 1_555 1_555
C87 C79 1_555 1_555
H120 C87 1_555 1_555
H121 C87 1_555 1_555
H122 C87 1_555 1_555
C88 C85 1_555 1_555
H123 C88 1_555 1_555
H124 C88 1_555 1_555
H125 C88 1_555 1_555
C89 H126 1_555 1_555
C90 C89 1_555 1_555
H127 C90 1_555 1_555
H128 C90 1_555 1_555
H129 C90 1_555 1_555
C91 C89 1_555 1_555
C92 H130 1_555 1_555
H131 C92 1_555 1_555
C93 C92 1_555 1_555
H132 C93 1_555 1_555
H133 C93 1_555 1_555
H134 C93 1_555 1_555
C94 H135 1_555 1_555
C95 C94 1_555 1_555
H136 C95 1_555 1_555
H137 C95 1_555 1_555
H138 C95 1_555 1_555
C96 C94 1_555 1_555
C97 H139 1_555 1_555
H140 C97 1_555 1_555
C98 C97 1_555 1_555
H141 C98 1_555 1_555
H142 C98 1_555 1_555
H143 C98 1_555 1_555
O9 C54 1_555 1_555
O10 C64 1_555 1_555
O11 C83 1_555 1_555
O12 C91 1_555 1_555
O13 C91 1_555 1_555
O14 C84 1_555 1_555
O15 C96 1_555 1_555
O16 C96 1_555 1_555
Si3 C66 1_555 1_555
Si4 C72 1_555 1_555
S3 C53 1_555 1_555
S4 C59 1_555 1_555
C5 C6 1_555 1_555
C12 C13 1_555 1_555
C13 S1 1_555 1_555
C15 Si1 1_555 1_555
C16 Si1 1_555 1_555
C21 Si2 1_555 1_555
C22 Si2 1_555 1_555
C26 S2 1_555 1_555
C29 C34 1_555 1_555
C33 C34 1_555 1_555
C37 O3 1_555 1_555
C40 O5 1_555 1_555
C42 O6 1_555 1_555
C45 O8 1_555 1_555
O1 Si1 1_555 1_555
O2 Si2 1_555 1_555
C57 C58 1_555 1_555
C64 C65 1_555 1_555
C65 S3 1_555 1_555
C67 Si3 1_555 1_555
C68 Si3 1_555 1_555
C73 Si4 1_555 1_555
C74 Si4 1_555 1_555
C78 S4 1_555 1_555
C81 C86 1_555 1_555
C85 C86 1_555 1_555
C89 O11 1_555 1_555
C92 O13 1_555 1_555
C94 O14 1_555 1_555
C97 O16 1_555 1_555
O9 Si3 1_555 1_555
O10 Si4 1_555 1_555

#END
