
#######################################################################
#
#                 Cambridge Crystallographic Data Centre
#                                CCDC 
#
#######################################################################
#
# If this CIF has been generated from an entry in the Cambridge 
# Structural Database, then it will include bibliographic, chemical, 
# crystal, experimental, refinement or atomic coordinate data resulting 
# from the CCDC's data processing and validation procedures.
#
#######################################################################

data_UYOHEW
_chemical_formula_moiety         'C72 H112 Li2 Mg1 O8,2(C7 H8)'
_chemical_name_systematic        
"bis(\m~3~-3,3',5,5'-Tetra-t-butylbiphenyl-2,2'-diolato)-tetrakis(tetrahydrofuran)-di-lithium-magnesium toluene solvate"
_symmetry_cell_setting           orthorhombic
_symmetry_space_group_name_H-M   'P b c a'
_symmetry_Int_Tables_number      61
_space_group_name_Hall           '-P 2ac 2ab'
loop_
_symmetry_equiv_pos_site_id
_symmetry_equiv_pos_as_xyz
1 x,y,z
2 1/2-x,-y,1/2+z
3 -x,1/2+y,1/2-z
4 1/2+x,1/2-y,-z
5 -x,-y,-z
6 1/2+x,y,1/2-z
7 x,1/2-y,1/2+z
8 1/2-x,1/2+y,z
_cell_length_a                   18.9268(16)
_cell_length_b                   20.4262(18)
_cell_length_c                   43.301(4)
_cell_angle_alpha                90
_cell_angle_beta                 90
_cell_angle_gamma                90
_cell_volume                     16740.3
_exptl_crystal_colour            colorless
_exptl_crystal_description       block
_cell_formula_units_Z            8
loop_
_atom_site_label
_atom_site_type_symbol
_atom_site_fract_x
_atom_site_fract_y
_atom_site_fract_z
Mg1 Mg 0.53353(9) 0.30358(9) 0.12733(4)
O1 O 0.55819(18) 0.34815(18) 0.08992(8)
O2 O 0.59236(19) 0.22673(17) 0.13109(8)
O3 O 0.45322(18) 0.25244(17) 0.14060(8)
O4 O 0.52956(17) 0.38751(17) 0.14766(8)
C1 C 0.6799(3) 0.2594(3) 0.09466(14)
O5 O 0.5223(2) 0.0945(2) 0.11792(11)
O6 O 0.6433(2) 0.4800(2) 0.09635(11)
C2 C 0.4425(3) 0.3597(3) 0.18478(13)
C3 C 0.6612(3) 0.2352(3) 0.12426(14)
C4 C 0.7151(3) 0.2203(3) 0.14545(14)
C5 C 0.3918(3) 0.2850(3) 0.14240(13)
O7 O 0.4848(2) 0.5059(2) 0.10750(11)
C6 C 0.3243(3) 0.3772(3) 0.16166(13)
H1 H 0.3217 0.4140 0.1743
C7 C 0.5735(3) 0.3097(3) 0.06556(13)
C8 C 0.5550(3) 0.4047(3) 0.20178(15)
C9 C 0.3864(3) 0.3404(3) 0.16155(12)
C10 C 0.6079(4) 0.2268(3) 0.01493(14)
C11 C 0.7847(3) 0.2354(3) 0.13757(15)
H2 H 0.8201 0.2267 0.1519
C12 C 0.5525(4) 0.2704(3) 0.01358(15)
H3 H 0.5256 0.2719 -0.0044
C13 C 0.4222(3) 0.3543(3) 0.21562(14)
H4 H 0.3773 0.3383 0.2201
C14 C 0.5320(3) 0.3964(3) 0.23179(15)
H5 H 0.5625 0.4081 0.2477
C15 C 0.4656(3) 0.3717(3) 0.23971(14)
C16 C 0.2667(3) 0.3610(3) 0.14379(15)
C17 C 0.5346(3) 0.3123(3) 0.03779(14)
C18 C 0.8037(3) 0.2626(3) 0.10953(16)
C19 C 0.5095(3) 0.3841(3) 0.17741(14)
C20 C 0.6453(3) 0.2250(3) 0.04237(14)
H6 H 0.6828 0.1957 0.0440
O8 O 0.4857(3) 0.1417(2) 0.18542(11)
C21 C 0.3315(3) 0.2642(3) 0.12561(13)
C22 C 0.6301(3) 0.2645(3) 0.06779(13)
C23 C 0.3283(3) 0.1983(3) 0.10881(15)
C24 C 0.7005(3) 0.1845(3) 0.17621(14)
C25 C 0.7503(3) 0.2735(3) 0.08818(14)
H7 H 0.7619 0.2907 0.0690
C26 C 0.2003(3) 0.4038(4) 0.14192(18)
C27 C 0.4188(3) 0.3639(4) 0.05794(18)
H8 H 0.4406 0.3701 0.0777
H9 H 0.3945 0.3226 0.0576
H10 H 0.3856 0.3986 0.0542
C28 C 0.2723(3) 0.3042(3) 0.12646(14)
H11 H 0.2336 0.2920 0.1145
C29 C 0.4432(4) 0.3623(4) 0.27359(15)
C30 C 0.6277(4) 0.1832(4) -0.01281(16)
C31 C 0.6259(3) 0.4381(3) 0.19519(14)
C32 C 0.6744(3) 0.3995(3) 0.17313(16)
H12 H 0.6846 0.3574 0.1819
H13 H 0.7177 0.4232 0.1702
H14 H 0.6512 0.3940 0.1536
C33 C 0.8809(3) 0.2823(5) 0.1017(2)
C34 C 0.4755(4) 0.3644(4) 0.03278(15)
C35 C 0.3359(4) 0.1441(3) 0.13265(17)
H15 H 0.3800 0.1491 0.1434
H16 H 0.3350 0.1023 0.1225
H17 H 0.2977 0.1466 0.1472
C36 C 0.6488(4) 0.2210(3) 0.19711(15)
H18 H 0.6054 0.2285 0.1862
H19 H 0.6690 0.2623 0.2031
H20 H 0.6395 0.1953 0.2152
C37 C 0.5652(5) 0.0983(4) 0.0908(2)
H21 H 0.6148 0.1005 0.0965
H22 H 0.5534 0.1370 0.0790
C38 C 0.6717(5) 0.5437(4) 0.1027(3)
H23 H 0.6340 0.5759 0.1033
H24 H 0.6955 0.5438 0.1225
C39 C 0.3871(4) 0.1914(3) 0.08420(16)
H25 H 0.4324 0.1975 0.0938
H26 H 0.3805 0.2239 0.0684
H27 H 0.3849 0.1486 0.0751
C40 C 0.6719(4) 0.1160(3) 0.16862(16)
H28 H 0.6294 0.1200 0.1567
H29 H 0.6618 0.0930 0.1875
H30 H 0.7065 0.0922 0.1570
C41 C 0.2576(4) 0.1871(4) 0.0919(2)
H31 H 0.2193 0.1904 0.1063
H32 H 0.2575 0.1443 0.0827
H33 H 0.2520 0.2195 0.0760
C42 C 0.4219(4) 0.5008(4) 0.1249(2)
H34 H 0.4329 0.4980 0.1467
H35 H 0.3962 0.4616 0.1190
C43 C 0.6097(3) 0.5059(3) 0.18129(18)
H36 H 0.5797 0.5298 0.1951
H37 H 0.5863 0.5005 0.1618
H38 H 0.6530 0.5294 0.1783
C44 C 0.4937(5) 0.0312(4) 0.1197(2)
H39 H 0.4461 0.0328 0.1280
H40 H 0.5223 0.0039 0.1331
C45 C 0.7683(4) 0.1739(4) 0.19535(16)
H41 H 0.8026 0.1510 0.1831
H42 H 0.7573 0.1485 0.2134
H43 H 0.7872 0.2155 0.2015
C46 C 0.4508(5) 0.1832(4) 0.20736(18)
H44 H 0.4085 0.2019 0.1983
H45 H 0.4818 0.2186 0.2136
C47 C 0.6701(3) 0.4489(4) 0.22493(18)
H46 H 0.6428 0.4733 0.2396
H47 H 0.7123 0.4727 0.2199
H48 H 0.6826 0.4072 0.2336
C48 C 0.6930(5) 0.4472(4) 0.0780(2)
H49 H 0.6697 0.4222 0.0619
H50 H 0.7211 0.4175 0.0905
C49 C 0.2014(4) 0.4392(5) 0.1106(2)
H51 H 0.1602 0.4664 0.1088
H52 H 0.2016 0.4075 0.0942
H53 H 0.2430 0.4659 0.1092
C50 C 0.4826(5) 0.5651(5) 0.0910(3)
H54 H 0.4766 0.5563 0.0692
H55 H 0.5266 0.5887 0.0938
C51 C 0.1334(4) 0.3634(5) 0.1424(2)
H56 H 0.0932 0.3918 0.1412
H57 H 0.1313 0.3387 0.1613
H58 H 0.1333 0.3339 0.1251
C52 C 0.4377(5) 0.3555(5) 0.00179(19)
H59 H 0.4147 0.3137 0.0014
H60 H 0.4716 0.3579 -0.0147
H61 H 0.4032 0.3895 -0.0008
C53 C 0.5104(4) 0.4327(4) 0.03226(18)
H62 H 0.5346 0.4401 0.0514
H63 H 0.4747 0.4656 0.0295
H64 H 0.5436 0.4349 0.0155
C54 C 0.4945(6) 0.0799(4) 0.1997(2)
H65 H 0.4818 0.0454 0.1854
H66 H 0.5436 0.0739 0.2055
Li1 Li 0.5120(5) 0.1748(5) 0.1447(3)
Li2 Li 0.5555(6) 0.4335(5) 0.1102(3)
C55 C 0.4933(6) 0.0056(5) 0.0887(3)
H67 H 0.4486 0.0147 0.0786
H68 H 0.5010 -0.0414 0.0888
C56 C 0.9030(6) 0.2337(8) 0.0736(3)
H69 H 0.8685 0.1995 0.0718
H70 H 0.9485 0.2149 0.0779
H71 H 0.9051 0.2580 0.0547
C57 C 0.8892(9) 0.3477(8) 0.0948(7)
H72 H 0.8759 0.3737 0.1124
H73 H 0.8598 0.3589 0.0775
H74 H 0.9377 0.3562 0.0897
C58 C 0.9323(5) 0.2488(7) 0.1240(3)
H75 H 0.9297 0.2696 0.1438
H76 H 0.9795 0.2523 0.1161
H77 H 0.9198 0.2034 0.1260
C59 C 0.3783(5) 0.5594(5) 0.1188(2)
H78 H 0.3374 0.5482 0.1064
H79 H 0.3622 0.5787 0.1381
C60 C 0.7203(6) 0.5592(6) 0.0788(3)
H80 H 0.6989 0.5888 0.0640
H81 H 0.7622 0.5799 0.0873
C61 C 0.1969(5) 0.4540(5) 0.1662(3)
H82 H 0.1544 0.4791 0.1638
H83 H 0.2371 0.4824 0.1645
H84 H 0.1970 0.4332 0.1861
C62 C 0.5513(5) 0.0391(5) 0.0727(3)
H85 H 0.5929 0.0115 0.0720
H86 H 0.5376 0.0504 0.0518
C63 C 0.4239(5) 0.6043(5) 0.1023(3)
H87 H 0.4408 0.6385 0.1160
H88 H 0.3988 0.6244 0.0853
C64 C 0.4524(7) 0.0761(5) 0.2256(3)
H89 H 0.4781 0.0557 0.2425
H90 H 0.4106 0.0503 0.2213
C65 C 0.5831(7) 0.1237(6) -0.0130(3)
H91 H 0.5908 0.0995 0.0058
H92 H 0.5953 0.0970 -0.0304
H93 H 0.5343 0.1361 -0.0143
C66 C 0.4209(18) 0.2947(11) 0.2788(4)
H94 H 0.4607 0.2660 0.2765
H95 H 0.3852 0.2831 0.2639
H96 H 0.4020 0.2905 0.2992
C67 C 0.4984(11) 0.3822(12) 0.2964(4)
H97 H 0.5379 0.3529 0.2950
H98 H 0.4789 0.3804 0.3169
H99 H 0.5137 0.4260 0.2920
C68 C 0.3783(13) 0.4139(16) 0.2786(4)
H100 H 0.3691 0.4365 0.2596
H101 H 0.3909 0.4450 0.2943
H102 H 0.3367 0.3905 0.2849
C69 C 0.6136(6) 0.2197(6) -0.0436(2)
H103 H 0.6268 0.1922 -0.0606
H104 H 0.6410 0.2593 -0.0441
H105 H 0.5643 0.2304 -0.0450
C70 C 0.7380(7) 0.4990(7) 0.0645(4)
H106 H 0.7874 0.4890 0.0680
H107 H 0.7300 0.5018 0.0424
C71 C 0.4327(6) 0.1430(5) 0.2338(2)
H108 H 0.3825 0.1456 0.2381
H109 H 0.4585 0.1573 0.2520
C72 C 0.7031(5) 0.1658(6) -0.0134(2)
H110 H 0.7152 0.1431 0.0053
H111 H 0.7309 0.2049 -0.0151
H112 H 0.7123 0.1381 -0.0308
C73 C 0.3261(10) 0.0890(15) 0.0121(4)
C80 C 0.2316(16) 0.0257(7) 0.0329(3)
H118 H 0.2179 -0.0100 0.0448
C81 C 0.3935(7) 0.1012(10) 0.0058(3)
H119 H 0.4225 0.0679 0.0150
H120 H 0.4063 0.1431 0.0141
H121 H 0.4003 0.1013 -0.0161
C82 C 0.2756(12) 0.1332(9) -0.0004(3)
H122 H 0.2901 0.1697 -0.0116
C84 C 0.3020(12) 0.0385(10) 0.0273(5)
H126 H 0.3349 0.0088 0.0350
C85 C 0.2102(13) 0.1219(8) 0.0041(3)
H127 H 0.1772 0.1512 -0.0038
C86 C 0.1852(8) 0.0648(12) 0.0211(4)
H128 H 0.1371 0.0567 0.0235
C74 C 0.3301(14) 0.5493(10) 0.2206(3)
H113 H 0.3100 0.5108 0.2280
C75 C 0.3979(15) 0.5499(10) 0.2111(4)
H114 H 0.4255 0.5122 0.2117
C76 C 0.3178(12) 0.6634(9) 0.2096(3)
C77 C 0.2908(7) 0.6057(12) 0.2193(3)
H115 H 0.2437 0.6042 0.2254
C78 C 0.4249(8) 0.6081(14) 0.2004(3)
H116 H 0.4713 0.6091 0.1933
C79 C 0.3851(12) 0.6661(10) 0.1997(3)
H117 H 0.4047 0.7052 0.1926
C83 C 0.2744(7) 0.7259(7) 0.2104(3)
H123 H 0.2282 0.7165 0.2184
H124 H 0.2702 0.7432 0.1899
H125 H 0.2974 0.7574 0.2234
C87? C 0.3703(13) 0.3342(12) 0.2770(5)
C88? C 0.4532(17) 0.4230(11) 0.2915(5)
C89? C 0.4958(15) 0.3056(11) 0.2874(4)
C90? C 0.8912(14) 0.319(2) 0.0707(6)
C91? C 0.8942(13) 0.3442(12) 0.1252(6)
H129? H 0.3728 0.2873 0.2765
H130? H 0.3410 0.3493 0.2604
H131? H 0.3504 0.3481 0.2963
H132? H 0.5009 0.4248 0.2991
H133? H 0.4210 0.4234 0.3086
H134? H 0.4443 0.4601 0.2785
H135? H 0.5278 0.2914 0.2716
H136? H 0.4682 0.2691 0.2944
H137? H 0.5223 0.3232 0.3044
H138? H 0.8808 0.3649 0.0736
H139? H 0.8600 0.3013 0.0554
H140? H 0.9392 0.3145 0.0639
H141? H 0.8563 0.3464 0.1399
H142? H 0.8958 0.3841 0.1135
H143? H 0.9382 0.3382 0.1359
loop_
_geom_bond_atom_site_label_1
_geom_bond_atom_site_label_2
_geom_bond_site_symmetry_1
_geom_bond_site_symmetry_2
Mg1 O1 1_555 1_555
O1 C7 1_555 1_555
O2 Mg1 1_555 1_555
O3 Mg1 1_555 1_555
O4 Mg1 1_555 1_555
C1 C3 1_555 1_555
O5 C37 1_555 1_555
O6 C38 1_555 1_555
C2 C9 1_555 1_555
C3 O2 1_555 1_555
C4 C3 1_555 1_555
C5 O3 1_555 1_555
O7 C42 1_555 1_555
C6 H1 1_555 1_555
C7 C17 1_555 1_555
C8 C14 1_555 1_555
C9 C5 1_555 1_555
C10 C12 1_555 1_555
C11 C4 1_555 1_555
H2 C11 1_555 1_555
C12 H3 1_555 1_555
C13 C2 1_555 1_555
H4 C13 1_555 1_555
C14 H5 1_555 1_555
C15 C13 1_555 1_555
C16 C6 1_555 1_555
C17 C12 1_555 1_555
C18 C11 1_555 1_555
C19 O4 1_555 1_555
C20 C10 1_555 1_555
H6 C20 1_555 1_555
O8 C46 1_555 1_555
C21 C5 1_555 1_555
C22 C1 1_555 1_555
C23 C21 1_555 1_555
C24 C4 1_555 1_555
C25 C1 1_555 1_555
H7 C25 1_555 1_555
C26 C16 1_555 1_555
C27 H8 1_555 1_555
H9 C27 1_555 1_555
H10 C27 1_555 1_555
C28 C16 1_555 1_555
H11 C28 1_555 1_555
C29 C15 1_555 1_555
C30 C10 1_555 1_555
C31 C8 1_555 1_555
C32 C31 1_555 1_555
H12 C32 1_555 1_555
H13 C32 1_555 1_555
H14 C32 1_555 1_555
C33 C18 1_555 1_555
C34 C17 1_555 1_555
C35 C23 1_555 1_555
H15 C35 1_555 1_555
H16 C35 1_555 1_555
H17 C35 1_555 1_555
C36 C24 1_555 1_555
H18 C36 1_555 1_555
H19 C36 1_555 1_555
H20 C36 1_555 1_555
C37 H21 1_555 1_555
H22 C37 1_555 1_555
C38 H23 1_555 1_555
H24 C38 1_555 1_555
C39 C23 1_555 1_555
H25 C39 1_555 1_555
H26 C39 1_555 1_555
H27 C39 1_555 1_555
C40 C24 1_555 1_555
H28 C40 1_555 1_555
H29 C40 1_555 1_555
H30 C40 1_555 1_555
C41 C23 1_555 1_555
H31 C41 1_555 1_555
H32 C41 1_555 1_555
H33 C41 1_555 1_555
C42 H34 1_555 1_555
H35 C42 1_555 1_555
C43 C31 1_555 1_555
H36 C43 1_555 1_555
H37 C43 1_555 1_555
H38 C43 1_555 1_555
C44 O5 1_555 1_555
H39 C44 1_555 1_555
H40 C44 1_555 1_555
C45 C24 1_555 1_555
H41 C45 1_555 1_555
H42 C45 1_555 1_555
H43 C45 1_555 1_555
C46 H44 1_555 1_555
H45 C46 1_555 1_555
C47 C31 1_555 1_555
H46 C47 1_555 1_555
H47 C47 1_555 1_555
H48 C47 1_555 1_555
C48 O6 1_555 1_555
H49 C48 1_555 1_555
H50 C48 1_555 1_555
C49 C26 1_555 1_555
H51 C49 1_555 1_555
H52 C49 1_555 1_555
H53 C49 1_555 1_555
C50 O7 1_555 1_555
H54 C50 1_555 1_555
H55 C50 1_555 1_555
C51 C26 1_555 1_555
H56 C51 1_555 1_555
H57 C51 1_555 1_555
H58 C51 1_555 1_555
C52 C34 1_555 1_555
H59 C52 1_555 1_555
H60 C52 1_555 1_555
H61 C52 1_555 1_555
C53 C34 1_555 1_555
H62 C53 1_555 1_555
H63 C53 1_555 1_555
H64 C53 1_555 1_555
C54 O8 1_555 1_555
H65 C54 1_555 1_555
H66 C54 1_555 1_555
Li1 O2 1_555 1_555
Li2 O1 1_555 1_555
C55 C44 1_555 1_555
H67 C55 1_555 1_555
H68 C55 1_555 1_555
C56 C33 1_555 1_555
H69 C56 1_555 1_555
H70 C56 1_555 1_555
H71 C56 1_555 1_555
C57 C33 1_555 1_555
H72 C57 1_555 1_555
H73 C57 1_555 1_555
H74 C57 1_555 1_555
C58 C33 1_555 1_555
H75 C58 1_555 1_555
H76 C58 1_555 1_555
H77 C58 1_555 1_555
C59 C42 1_555 1_555
H78 C59 1_555 1_555
H79 C59 1_555 1_555
C60 C38 1_555 1_555
H80 C60 1_555 1_555
H81 C60 1_555 1_555
C61 C26 1_555 1_555
H82 C61 1_555 1_555
H83 C61 1_555 1_555
H84 C61 1_555 1_555
C62 C37 1_555 1_555
H85 C62 1_555 1_555
H86 C62 1_555 1_555
C63 C50 1_555 1_555
H87 C63 1_555 1_555
H88 C63 1_555 1_555
C64 C54 1_555 1_555
H89 C64 1_555 1_555
H90 C64 1_555 1_555
C65 C30 1_555 1_555
H91 C65 1_555 1_555
H92 C65 1_555 1_555
H93 C65 1_555 1_555
C66 C29 1_555 1_555
H94 C66 1_555 1_555
H95 C66 1_555 1_555
H96 C66 1_555 1_555
C67 C29 1_555 1_555
H97 C67 1_555 1_555
H98 C67 1_555 1_555
H99 C67 1_555 1_555
C68 C29 1_555 1_555
H100 C68 1_555 1_555
H101 C68 1_555 1_555
H102 C68 1_555 1_555
C69 C30 1_555 1_555
H103 C69 1_555 1_555
H104 C69 1_555 1_555
H105 C69 1_555 1_555
C70 C48 1_555 1_555
H106 C70 1_555 1_555
H107 C70 1_555 1_555
C71 C46 1_555 1_555
H108 C71 1_555 1_555
H109 C71 1_555 1_555
C72 C30 1_555 1_555
H110 C72 1_555 1_555
H111 C72 1_555 1_555
H112 C72 1_555 1_555
C73 C81 1_555 1_555
C74 H113 1_555 1_555
C75 C74 1_555 1_555
H114 C75 1_555 1_555
C76 C77 1_555 1_555
C77 C74 1_555 1_555
H115 C77 1_555 1_555
C78 C75 1_555 1_555
H116 C78 1_555 1_555
C79 C76 1_555 1_555
H117 C79 1_555 1_555
C80 H118 1_555 1_555
C81 H119 1_555 1_555
H120 C81 1_555 1_555
H121 C81 1_555 1_555
C82 C73 1_555 1_555
H122 C82 1_555 1_555
C83 C76 1_555 1_555
H123 C83 1_555 1_555
H124 C83 1_555 1_555
H125 C83 1_555 1_555
C84 C73 1_555 1_555
H126 C84 1_555 1_555
C85 C82 1_555 1_555
H127 C85 1_555 1_555
C86 C80 1_555 1_555
H128 C86 1_555 1_555
O3 Li1 1_555 1_555
O4 Li2 1_555 1_555
O5 Li1 1_555 1_555
O6 Li2 1_555 1_555
C2 C19 1_555 1_555
O7 Li2 1_555 1_555
C6 C9 1_555 1_555
C7 C22 1_555 1_555
C8 C19 1_555 1_555
C14 C15 1_555 1_555
C18 C25 1_555 1_555
C20 C22 1_555 1_555
O8 Li1 1_555 1_555
C21 C28 1_555 1_555
C27 C34 1_555 1_555
C55 C62 1_555 1_555
C59 C63 1_555 1_555
C60 C70 1_555 1_555
C64 C71 1_555 1_555
C78 C79 1_555 1_555
C80 C84 1_555 1_555
C85 C86 1_555 1_555

#END
