
#######################################################################
#
#                 Cambridge Crystallographic Data Centre
#                                CCDC 
#
#######################################################################
#
# If this CIF has been generated from an entry in the Cambridge 
# Structural Database, then it will include bibliographic, chemical, 
# crystal, experimental, refinement or atomic coordinate data resulting 
# from the CCDC's data processing and validation procedures.
#
#######################################################################

data_UYOHIA
_chemical_formula_moiety         'C72 H112 Mg1 Na2 O8,1.68(C4 H8 O1)'
_chemical_name_systematic        
"bis(\m~3~-3,3',5,5'-Tetra-t-butylbiphenyl-2,2'-diolato)-tetrakis(tetrahydrofuran)-di-sodium-magnesium tetrahydrofuran solvate"
_symmetry_cell_setting           monoclinic
_symmetry_space_group_name_H-M   'C 2/c'
_symmetry_Int_Tables_number      15
_space_group_name_Hall           '-C 2yn'
loop_
_symmetry_equiv_pos_site_id
_symmetry_equiv_pos_as_xyz
1 x,y,z
2 -x,y,1/2-z
3 1/2+x,1/2+y,z
4 1/2-x,1/2+y,1/2-z
5 -x,-y,-z
6 x,-y,1/2+z
7 1/2-x,1/2-y,-z
8 1/2+x,1/2-y,1/2+z
_cell_length_a                   25.4945(8)
_cell_length_b                   26.2967(8)
_cell_length_c                   25.0617(9)
_cell_angle_alpha                90
_cell_angle_beta                 103.384(2)
_cell_angle_gamma                90
_cell_volume                     16345.6
_exptl_crystal_colour            colorless
_exptl_crystal_description       block
_cell_formula_units_Z            8
loop_
_atom_site_label
_atom_site_type_symbol
_atom_site_fract_x
_atom_site_fract_y
_atom_site_fract_z
Mg1 Mg 0.5000 0.10086(7) 0.2500
Na1 Na 0.5000 0.21688(11) 0.2500
Na2 Na 0.5000 -0.01490(10) 0.2500
O1 O 0.52301(11) 0.15107(10) 0.20344(11)
O3 O 0.4484(2) 0.2696(2) 0.1879(2)
O4 O 0.5329(2) -0.06708(16) 0.19394(19)
O8 O 0.46048(11) 0.05055(10) 0.19893(11)
C1 C 0.42754(17) 0.06771(16) 0.15293(17)
C2 C 0.37188(19) 0.05463(17) 0.13885(19)
C3 C 0.33923(18) 0.07773(19) 0.0928(2)
H1 H 0.3025 0.0708 0.0850
C4 C 0.35773(18) 0.11003(18) 0.05822(19)
C5 C 0.41315(17) 0.11832(17) 0.07033(17)
H2 H 0.4274 0.1385 0.0467
C6 C 0.44840(16) 0.09776(15) 0.11638(16)
C7 C 0.50694(16) 0.10536(16) 0.11946(16)
C8 C 0.52749(18) 0.08405(17) 0.07755(17)
H3 H 0.5050 0.0639 0.0514
C9 C 0.58042(18) 0.09172(17) 0.07330(18)
C10 C 0.61091(18) 0.12423(17) 0.11119(18)
H4 H 0.6455 0.1319 0.1075
C11 C 0.59377(17) 0.14654(16) 0.15464(17)
C12 C 0.54118(17) 0.13416(16) 0.16023(16)
C13 C 0.3491(2) 0.0144(2) 0.1718(2)
C14 C 0.3582(3) 0.0274(2) 0.2331(2)
H5 H 0.3961 0.0320 0.2485
H6 H 0.3449 0.0002 0.2518
H7 H 0.3394 0.0583 0.2373
C15 C 0.3756(2) -0.0367(2) 0.1639(2)
H8 H 0.3692 -0.0443 0.1254
H9 H 0.3604 -0.0631 0.1821
H10 H 0.4137 -0.0347 0.1792
C16 C 0.2871(2) 0.0075(3) 0.1491(3)
H11 H 0.2799 -0.0014 0.1110
H12 H 0.2690 0.0387 0.1534
H13 H 0.2743 -0.0190 0.1692
C17 C 0.3198(2) 0.1343(2) 0.0094(2)
C18 C 0.3465(3) 0.1647(5) -0.0251(4)
H14 H 0.3674 0.1910 -0.0034
H15 H 0.3199 0.1799 -0.0541
H16 H 0.3698 0.1434 -0.0404
C19 C 0.2745(5) 0.1609(5) 0.0262(4)
H17 H 0.2884 0.1890 0.0497
H18 H 0.2566 0.1376 0.0455
H19 H 0.2494 0.1732 -0.0058
C20 C 0.2871(4) 0.0930(4) -0.0273(4)
H20 H 0.2634 0.1087 -0.0582
H21 H 0.2663 0.0742 -0.0066
H22 H 0.3113 0.0704 -0.0398
C21 C 0.6026(2) 0.0675(2) 0.0279(2)
C22 C 0.6603(4) 0.0437(7) 0.0532(6)
H23 H 0.6654 0.0409 0.0923
H24 H 0.6877 0.0653 0.0449
H25 H 0.6626 0.0106 0.0378
C23 C 0.6116(11) 0.1082(6) -0.0117(7)
H26 H 0.5780 0.1247 -0.0276
H27 H 0.6258 0.0930 -0.0402
H28 H 0.6368 0.1329 0.0076
C24 C 0.5713(6) 0.0223(5) -0.0008(6)
H29 H 0.5353 0.0327 -0.0183
H30 H 0.5698 -0.0038 0.0256
H31 H 0.5889 0.0093 -0.0279
C25 C 0.62894(19) 0.18573(18) 0.19174(19)
C26 C 0.6838(2) 0.1942(2) 0.1767(3)
H32 H 0.7042 0.1632 0.1820
H33 H 0.7035 0.2203 0.1998
H34 H 0.6778 0.2045 0.1390
C27 C 0.5996(2) 0.23829(18) 0.1832(2)
H35 H 0.5650 0.2354 0.1918
H36 H 0.5950 0.2487 0.1456
H37 H 0.6209 0.2631 0.2068
C28 C 0.6404(2) 0.1703(2) 0.2517(2)
H38 H 0.6594 0.1385 0.2566
H39 H 0.6070 0.1667 0.2628
H40 H 0.6620 0.1960 0.2737
C29 C 0.5419(5) -0.0488(3) 0.1457(3)
H41 H 0.5650 -0.0191 0.1526
H42 H 0.5081 -0.0392 0.1212
C30 C 0.5675(7) -0.0887(6) 0.1216(5)
H43 H 0.5484 -0.0940 0.0838
H44 H 0.6043 -0.0793 0.1220
C31 C 0.5670(6) -0.1341(4) 0.1520(6)
H45 H 0.6030 -0.1481 0.1638
H46 H 0.5437 -0.1594 0.1303
C32 C 0.5463(5) -0.1187(3) 0.1988(5)
H47 H 0.5147 -0.1387 0.2001
H48 H 0.5734 -0.1246 0.2324
C33 C 0.4200(6) 0.2508(5) 0.1362(4)
H49 H 0.4071 0.2165 0.1399
H50 H 0.4431 0.2502 0.1105
C34 C 0.3742(8) 0.2858(7) 0.1170(8)
H51 H 0.3764 0.3011 0.0824
H52 H 0.3404 0.2675 0.1117
C35 C 0.3773(10) 0.3243(9) 0.1584(9)
H53 H 0.3720 0.3578 0.1417
H54 H 0.3499 0.3188 0.1789
C36 C 0.4283(6) 0.3203(3) 0.1923(6)
H55 H 0.4268 0.3271 0.2300
H56 H 0.4523 0.3450 0.1816
O1A O 0.47699(11) 0.15107(10) 0.29656(11)
O3A O 0.5516(2) 0.2696(2) 0.3121(2)
O4A O 0.4671(2) -0.06708(16) 0.30606(19)
O8A O 0.53952(11) 0.05055(10) 0.30107(11)
C1A C 0.57246(17) 0.06771(16) 0.34707(17)
C2A C 0.62812(19) 0.05463(17) 0.36115(19)
C3A C 0.66077(18) 0.07773(19) 0.4072(2)
H1A H 0.6975 0.0708 0.4150
C4A C 0.64227(18) 0.11003(18) 0.44178(19)
C5A C 0.58685(17) 0.11832(17) 0.42967(17)
H2A H 0.5726 0.1385 0.4533
C6A C 0.55160(16) 0.09776(15) 0.38362(16)
C7A C 0.49306(16) 0.10536(16) 0.38054(16)
C8A C 0.47251(18) 0.08405(17) 0.42245(17)
H3A H 0.4950 0.0639 0.4486
C9A C 0.41958(18) 0.09172(17) 0.42670(18)
C10A C 0.38909(18) 0.12423(17) 0.38881(18)
H4A H 0.3545 0.1319 0.3925
C11A C 0.40623(17) 0.14654(16) 0.34536(17)
C12A C 0.45882(17) 0.13416(16) 0.33977(16)
C13A C 0.6509(2) 0.0144(2) 0.3282(2)
C14A C 0.6418(3) 0.0274(2) 0.2669(2)
H5A H 0.6039 0.0320 0.2515
H6A H 0.6551 0.0002 0.2482
H7A H 0.6606 0.0583 0.2627
C15A C 0.6244(2) -0.0367(2) 0.3361(2)
H8A H 0.6308 -0.0443 0.3746
H9A H 0.6396 -0.0631 0.3179
H10A H 0.5863 -0.0347 0.3208
C16A C 0.7129(2) 0.0075(3) 0.3509(3)
H11A H 0.7201 -0.0014 0.3890
H12A H 0.7310 0.0387 0.3466
H13A H 0.7257 -0.0190 0.3308
C17A C 0.6802(2) 0.1343(2) 0.4906(2)
C18A C 0.6535(3) 0.1647(5) 0.5251(4)
H14A H 0.6326 0.1910 0.5034
H15A H 0.6801 0.1799 0.5541
H16A H 0.6302 0.1434 0.5404
C19A C 0.7255(5) 0.1609(5) 0.4738(4)
H17A H 0.7116 0.1890 0.4503
H18A H 0.7434 0.1376 0.4545
H19A H 0.7506 0.1732 0.5058
C20A C 0.7129(4) 0.0930(4) 0.5273(4)
H20A H 0.7366 0.1087 0.5582
H21A H 0.7337 0.0742 0.5066
H22A H 0.6887 0.0704 0.5398
C21A C 0.3974(2) 0.0675(2) 0.4721(2)
C22A C 0.3397(4) 0.0437(7) 0.4468(6)
H23A H 0.3346 0.0409 0.4077
H24A H 0.3123 0.0653 0.4551
H25A H 0.3374 0.0106 0.4622
C23A C 0.3884(11) 0.1082(6) 0.5117(7)
H26A H 0.4220 0.1247 0.5276
H27A H 0.3742 0.0930 0.5402
H28A H 0.3632 0.1329 0.4924
C24A C 0.4287(6) 0.0223(5) 0.5008(6)
H29A H 0.4647 0.0327 0.5183
H30A H 0.4302 -0.0038 0.4744
H31A H 0.4111 0.0093 0.5279
C25A C 0.37106(19) 0.18573(18) 0.30826(19)
C26A C 0.3162(2) 0.1942(2) 0.3233(3)
H32A H 0.2958 0.1632 0.3180
H33A H 0.2965 0.2203 0.3002
H34A H 0.3222 0.2045 0.3610
C27A C 0.4004(2) 0.23829(18) 0.3168(2)
H35A H 0.4350 0.2354 0.3082
H36A H 0.4050 0.2487 0.3544
H37A H 0.3791 0.2631 0.2932
C28A C 0.3596(2) 0.1703(2) 0.2483(2)
H38A H 0.3406 0.1385 0.2434
H39A H 0.3930 0.1667 0.2372
H40A H 0.3380 0.1960 0.2263
C29A C 0.4581(5) -0.0488(3) 0.3543(3)
H41A H 0.4350 -0.0191 0.3474
H42A H 0.4919 -0.0392 0.3788
C30A C 0.4325(7) -0.0887(6) 0.3784(5)
H43A H 0.4516 -0.0940 0.4162
H44A H 0.3957 -0.0793 0.3780
C31A C 0.4330(6) -0.1341(4) 0.3480(6)
H45A H 0.3970 -0.1481 0.3362
H46A H 0.4563 -0.1594 0.3697
C32A C 0.4537(5) -0.1187(3) 0.3012(5)
H47A H 0.4853 -0.1387 0.2999
H48A H 0.4266 -0.1246 0.2676
C33A C 0.5800(6) 0.2508(5) 0.3638(4)
H49A H 0.5929 0.2165 0.3601
H50A H 0.5569 0.2502 0.3895
C34A C 0.6258(8) 0.2858(7) 0.3830(8)
H51A H 0.6236 0.3011 0.4176
H52A H 0.6596 0.2675 0.3883
C35A C 0.6227(10) 0.3243(9) 0.3416(9)
H53A H 0.6280 0.3578 0.3583
H54A H 0.6501 0.3188 0.3211
C36A C 0.5717(6) 0.3203(3) 0.3077(6)
H55A H 0.5732 0.3271 0.2700
H56A H 0.5477 0.3450 0.3184
Mg2 Mg 0.0000 0.10385(8) 0.2500
Na3 Na 0.11787(7) 0.10671(8) 0.24444(8)
O2 O -0.03921(11) 0.07357(11) 0.29920(11)
O5 O 0.06381(11) 0.13460(11) 0.29671(11)
O6 O 0.18942(16) 0.07125(19) 0.30348(17)
O7 O 0.15367(18) 0.14674(19) 0.18119(19)
C37 C 0.05803(16) 0.15757(16) 0.34257(16)
C38 C 0.07230(18) 0.20921(17) 0.35356(19)
C39 C 0.0610(2) 0.23095(18) 0.4004(2)
H57 H 0.0686 0.2653 0.4067
C40 C 0.0393(2) 0.20497(19) 0.4382(2)
C41 C 0.02934(18) 0.15397(17) 0.42814(17)
H58 H 0.0159 0.1350 0.4534
C42 C 0.03851(17) 0.12948(15) 0.38184(16)
C43 C 0.03108(16) 0.07328(15) 0.37986(16)
C44 C 0.06388(17) 0.04549(16) 0.42242(17)
H59 H 0.0912 0.0625 0.4470
C45 C 0.0576(2) -0.00576(18) 0.42958(18)
C46 C 0.0146(2) -0.02923(18) 0.3931(2)
H60 H 0.0091 -0.0638 0.3976
C47 C -0.02010(18) -0.00417(17) 0.35079(18)
C48 C -0.00984(17) 0.04773(16) 0.34176(16)
C49 C 0.1036(2) 0.23873(18) 0.3185(2)
C50 C 0.1595(2) 0.2146(2) 0.3258(3)
H61 H 0.1557 0.1798 0.3139
H62 H 0.1780 0.2159 0.3638
H63 H 0.1799 0.2330 0.3043
C51 C 0.0744(3) 0.2411(2) 0.2579(2)
H64 H 0.0680 0.2072 0.2436
H65 H 0.0963 0.2591 0.2377
H66 H 0.0406 0.2584 0.2542
C52 C 0.1142(3) 0.2949(2) 0.3369(3)
H67 H 0.1346 0.3113 0.3141
H68 H 0.1342 0.2959 0.3744
H69 H 0.0805 0.3122 0.3335
C53 C 0.0284(3) 0.2315(2) 0.4885(3)
C54 C 0.0791(5) 0.2597(4) 0.5180(3)
H70 H 0.1069 0.2356 0.5330
H71 H 0.0712 0.2799 0.5471
H72 H 0.0912 0.2815 0.4925
C55 C -0.0130(5) 0.2736(5) 0.4698(4)
H73 H -0.0467 0.2588 0.4511
H74 H -0.0004 0.2961 0.4454
H75 H -0.0180 0.2923 0.5012
C56 C 0.0177(6) 0.1957(3) 0.5300(4)
H76 H -0.0140 0.1762 0.5147
H77 H 0.0123 0.2144 0.5612
H78 H 0.0479 0.1732 0.5413
C57 C 0.0924(2) -0.03665(19) 0.4766(2)
C58 C 0.1158(3) -0.0832(3) 0.4543(3)
H79 H 0.0870 -0.1037 0.4336
H80 H 0.1364 -0.1028 0.4843
H81 H 0.1387 -0.0725 0.4310
C59 C 0.1394(3) -0.0055(3) 0.5099(3)
H82 H 0.1618 0.0059 0.4863
H83 H 0.1603 -0.0262 0.5386
H84 H 0.1256 0.0234 0.5256
C60 C 0.0591(3) -0.0528(3) 0.5160(3)
H85 H 0.0296 -0.0735 0.4971
H86 H 0.0454 -0.0233 0.5306
H87 H 0.0812 -0.0720 0.5454
C61 C -0.0696(2) -0.03156(18) 0.3160(2)
C62 C -0.0722(3) -0.0873(2) 0.3339(3)
H88 H -0.0726 -0.0885 0.3721
H89 H -0.0412 -0.1053 0.3281
H90 H -0.1044 -0.1029 0.3127
C63 C -0.1201(2) -0.0059(2) 0.3274(2)
H91 H -0.1210 0.0291 0.3164
H92 H -0.1190 -0.0079 0.3659
H93 H -0.1517 -0.0229 0.3071
C64 C -0.0724(2) -0.0303(3) 0.2539(2)
H94 H -0.0725 0.0043 0.2419
H95 H -0.1047 -0.0470 0.2346
H96 H -0.0415 -0.0476 0.2467
C65 C 0.1847(4) 0.0613(5) 0.3571(3)
H97 H 0.2044 0.0864 0.3823
H98 H 0.1471 0.0622 0.3591
C66 C 0.2063(5) 0.0127(6) 0.3708(5)
H99 H 0.1777 -0.0123 0.3673
H100 H 0.2276 0.0122 0.4083
C67 C 0.2405(7) 0.0015(6) 0.3320(6)
H101 H 0.2778 -0.0034 0.3513
H102 H 0.2280 -0.0289 0.3108
C68 C 0.2350(3) 0.0458(4) 0.2968(3)
H103 H 0.2665 0.0674 0.3073
H104 H 0.2309 0.0357 0.2588
C69 C 0.2058(3) 0.1648(6) 0.1844(5)
H105 H 0.2179 0.1838 0.2182
H106 H 0.2301 0.1363 0.1852
C70 C 0.2079(7) 0.1954(6) 0.1410(7)
H107 H 0.2355 0.1841 0.1228
H108 H 0.2148 0.2304 0.1525
C71 C 0.1551(7) 0.1896(8) 0.1061(6)
H109 H 0.1396 0.2229 0.0957
H110 H 0.1576 0.1717 0.0730
C76 C 0.1226(4) 0.1633(5) 0.1324(4)
H119 H 0.1065 0.1346 0.1103
H120 H 0.0939 0.1851 0.1387
Na3A Na -0.11787(7) 0.10671(8) 0.25556(8)
O2A O 0.03921(11) 0.07357(11) 0.20080(11)
O5A O -0.06381(11) 0.13460(11) 0.20329(11)
O6A O -0.18942(16) 0.07125(19) 0.19652(17)
O7A O -0.15367(18) 0.14674(19) 0.31881(19)
C37A C -0.05803(16) 0.15757(16) 0.15743(16)
C38A C -0.07230(18) 0.20921(17) 0.14644(19)
C39A C -0.0610(2) 0.23095(18) 0.0996(2)
H57A H -0.0686 0.2653 0.0933
C40A C -0.0393(2) 0.20497(19) 0.0618(2)
C41A C -0.02934(18) 0.15397(17) 0.07186(17)
H58A H -0.0159 0.1350 0.0466
C42A C -0.03851(17) 0.12948(15) 0.11816(16)
C43A C -0.03108(16) 0.07328(15) 0.12014(16)
C44A C -0.06388(17) 0.04549(16) 0.07758(17)
H59A H -0.0912 0.0625 0.0530
C45A C -0.0576(2) -0.00576(18) 0.07042(18)
C46A C -0.0146(2) -0.02923(18) 0.1069(2)
H60A H -0.0091 -0.0638 0.1024
C47A C 0.02010(18) -0.00417(17) 0.14921(18)
C48A C 0.00984(17) 0.04773(16) 0.15824(16)
C49A C -0.1036(2) 0.23873(18) 0.1815(2)
C50A C -0.1595(2) 0.2146(2) 0.1742(3)
H61A H -0.1557 0.1798 0.1861
H62A H -0.1780 0.2159 0.1362
H63A H -0.1799 0.2330 0.1957
C51A C -0.0744(3) 0.2411(2) 0.2421(2)
H64A H -0.0680 0.2072 0.2564
H65A H -0.0963 0.2591 0.2623
H66A H -0.0406 0.2584 0.2458
C52A C -0.1142(3) 0.2949(2) 0.1631(3)
H67A H -0.1346 0.3113 0.1859
H68A H -0.1342 0.2959 0.1256
H69A H -0.0805 0.3122 0.1665
C53A C -0.0284(3) 0.2315(2) 0.0115(3)
C54A C -0.0791(5) 0.2597(4) -0.0180(3)
H70A H -0.1069 0.2356 -0.0330
H71A H -0.0712 0.2799 -0.0471
H72A H -0.0912 0.2815 0.0075
C55A C 0.0130(5) 0.2736(5) 0.0302(4)
H73A H 0.0467 0.2588 0.0489
H74A H 0.0004 0.2961 0.0546
H75A H 0.0180 0.2923 -0.0012
C56A C -0.0177(6) 0.1957(3) -0.0300(4)
H76A H 0.0140 0.1762 -0.0147
H77A H -0.0123 0.2144 -0.0612
H78A H -0.0479 0.1732 -0.0413
C57A C -0.0924(2) -0.03665(19) 0.0234(2)
C58A C -0.1158(3) -0.0832(3) 0.0457(3)
H79A H -0.0870 -0.1037 0.0664
H80A H -0.1364 -0.1028 0.0157
H81A H -0.1387 -0.0725 0.0690
C59A C -0.1394(3) -0.0055(3) -0.0099(3)
H82A H -0.1618 0.0059 0.0137
H83A H -0.1603 -0.0262 -0.0386
H84A H -0.1256 0.0234 -0.0256
C60A C -0.0591(3) -0.0528(3) -0.0160(3)
H85A H -0.0296 -0.0735 0.0029
H86A H -0.0454 -0.0233 -0.0306
H87A H -0.0812 -0.0720 -0.0454
C61A C 0.0696(2) -0.03156(18) 0.1840(2)
C62A C 0.0722(3) -0.0873(2) 0.1661(3)
H88A H 0.0726 -0.0885 0.1279
H89A H 0.0412 -0.1053 0.1719
H90A H 0.1044 -0.1029 0.1873
C63A C 0.1201(2) -0.0059(2) 0.1726(2)
H91A H 0.1210 0.0291 0.1836
H92A H 0.1190 -0.0079 0.1341
H93A H 0.1517 -0.0229 0.1929
C64A C 0.0724(2) -0.0303(3) 0.2461(2)
H94A H 0.0725 0.0043 0.2581
H95A H 0.1047 -0.0470 0.2654
H96A H 0.0415 -0.0476 0.2533
C65A C -0.1847(4) 0.0613(5) 0.1429(3)
H97A H -0.2044 0.0864 0.1177
H98A H -0.1471 0.0622 0.1409
C66A C -0.2063(5) 0.0127(6) 0.1292(5)
H99A H -0.1777 -0.0123 0.1327
H100A H -0.2276 0.0122 0.0917
C67A C -0.2405(7) 0.0015(6) 0.1680(6)
H101A H -0.2778 -0.0034 0.1487
H102A H -0.2280 -0.0289 0.1892
C68A C -0.2350(3) 0.0458(4) 0.2032(3)
H103A H -0.2665 0.0674 0.1927
H104A H -0.2309 0.0357 0.2412
C69A C -0.2058(3) 0.1648(6) 0.3156(5)
H105A H -0.2179 0.1838 0.2818
H106A H -0.2301 0.1363 0.3148
C70A C -0.2079(7) 0.1954(6) 0.3590(7)
H107A H -0.2355 0.1841 0.3772
H108A H -0.2148 0.2304 0.3475
C71A C -0.1551(7) 0.1896(8) 0.3939(6)
H109A H -0.1396 0.2229 0.4043
H110A H -0.1576 0.1717 0.4270
C76A C -0.1226(4) 0.1633(5) 0.3676(4)
H119A H -0.1065 0.1346 0.3897
H120A H -0.0939 0.1851 0.3613
O9 O 0.286(7) 0.331(4) 0.227(6)
C72 C 0.286(3) 0.350(2) 0.280(3)
H111 H 0.3131 0.3766 0.2898
H112 H 0.2944 0.3231 0.3066
C73 C 0.234(3) 0.3704(17) 0.278(2)
H113 H 0.2180 0.3527 0.3046
H114 H 0.2368 0.4062 0.2879
C74 C 0.202(3) 0.364(3) 0.225(4)
H115 H 0.1893 0.3965 0.2087
H116 H 0.1706 0.3430 0.2255
C75 C 0.234(2) 0.3396(16) 0.1926(19)
H117 H 0.2176 0.3075 0.1785
H118 H 0.2364 0.3609 0.1617
O10 O 0.3054(14) 0.3649(14) 0.5050(16)
C77 C 0.268(2) 0.3257(19) 0.507(2)
H121 H 0.2859 0.2968 0.5277
H122 H 0.2407 0.3379 0.5259
C78 C 0.2431(17) 0.3110(16) 0.453(2)
H123 H 0.2044 0.3163 0.4457
H124 H 0.2497 0.2753 0.4475
C79 C 0.2655(18) 0.3411(16) 0.4167(16)
H125 H 0.2374 0.3606 0.3925
H126 H 0.2827 0.3195 0.3944
C80 C 0.304(2) 0.3744(19) 0.449(2)
H127 H 0.2941 0.4095 0.4399
H128 H 0.3393 0.3684 0.4417
C81? C 0.6004(12) 0.0120(10) 0.0343(12)
C82? C 0.5583(9) 0.0778(12) -0.0277(7)
C83? C 0.6526(11) 0.0889(8) 0.0231(12)
H129? H 0.5639 0.0005 0.0215
H130? H 0.6131 0.0032 0.0723
H131? H 0.6228 -0.0041 0.0132
H132? H 0.5265 0.0919 -0.0192
H133? H 0.5494 0.0464 -0.0472
H134? H 0.5725 0.1013 -0.0501
H135? H 0.6460 0.1194 0.0016
H136? H 0.6715 0.0649 0.0054
H137? H 0.6741 0.0967 0.0589
loop_
_geom_bond_atom_site_label_1
_geom_bond_atom_site_label_2
_geom_bond_site_symmetry_1
_geom_bond_site_symmetry_2
Mg1 O1 1_555 1_555
Mg2 O2 1_555 1_555
Na1 O1 1_555 1_555
Na2 O4 1_555 1_555
Na3 O5 1_555 1_555
O1 C12 1_555 1_555
O2 C48 1_555 1_555
O3 Na1 1_555 1_555
O4 C29 1_555 1_555
O5 Mg2 1_555 1_555
O6 Na3 1_555 1_555
O7 Na3 1_555 1_555
O8 Mg1 1_555 1_555
C1 O8 1_555 1_555
C2 C1 1_555 1_555
C3 C2 1_555 1_555
H1 C3 1_555 1_555
C4 C3 1_555 1_555
C5 C4 1_555 1_555
H2 C5 1_555 1_555
C6 C1 1_555 1_555
C7 C6 1_555 1_555
C8 C7 1_555 1_555
H3 C8 1_555 1_555
C9 C8 1_555 1_555
C10 C9 1_555 1_555
H4 C10 1_555 1_555
C11 C10 1_555 1_555
C12 C7 1_555 1_555
C13 C2 1_555 1_555
C14 C13 1_555 1_555
H5 C14 1_555 1_555
H6 C14 1_555 1_555
H7 C14 1_555 1_555
C15 C13 1_555 1_555
H8 C15 1_555 1_555
H9 C15 1_555 1_555
H10 C15 1_555 1_555
C16 C13 1_555 1_555
H11 C16 1_555 1_555
H12 C16 1_555 1_555
H13 C16 1_555 1_555
C17 C4 1_555 1_555
C18 C17 1_555 1_555
H14 C18 1_555 1_555
H15 C18 1_555 1_555
H16 C18 1_555 1_555
C19 C17 1_555 1_555
H17 C19 1_555 1_555
H18 C19 1_555 1_555
H19 C19 1_555 1_555
C20 C17 1_555 1_555
H20 C20 1_555 1_555
H21 C20 1_555 1_555
H22 C20 1_555 1_555
C21 C9 1_555 1_555
C22 C21 1_555 1_555
H23 C22 1_555 1_555
H24 C22 1_555 1_555
H25 C22 1_555 1_555
C23 C21 1_555 1_555
H26 C23 1_555 1_555
H27 C23 1_555 1_555
H28 C23 1_555 1_555
C24 C21 1_555 1_555
H29 C24 1_555 1_555
H30 C24 1_555 1_555
H31 C24 1_555 1_555
C25 C11 1_555 1_555
C26 C25 1_555 1_555
H32 C26 1_555 1_555
H33 C26 1_555 1_555
H34 C26 1_555 1_555
C27 C25 1_555 1_555
H35 C27 1_555 1_555
H36 C27 1_555 1_555
H37 C27 1_555 1_555
C28 C25 1_555 1_555
H38 C28 1_555 1_555
H39 C28 1_555 1_555
H40 C28 1_555 1_555
C29 H41 1_555 1_555
H42 C29 1_555 1_555
C30 C29 1_555 1_555
H43 C30 1_555 1_555
H44 C30 1_555 1_555
C31 C30 1_555 1_555
H45 C31 1_555 1_555
H46 C31 1_555 1_555
C32 O4 1_555 1_555
H47 C32 1_555 1_555
H48 C32 1_555 1_555
C33 O3 1_555 1_555
H49 C33 1_555 1_555
H50 C33 1_555 1_555
C34 C33 1_555 1_555
H51 C34 1_555 1_555
H52 C34 1_555 1_555
C35 C34 1_555 1_555
H53 C35 1_555 1_555
H54 C35 1_555 1_555
C36 O3 1_555 1_555
H55 C36 1_555 1_555
H56 C36 1_555 1_555
C37 O5 1_555 1_555
C38 C37 1_555 1_555
C39 C38 1_555 1_555
H57 C39 1_555 1_555
C40 C39 1_555 1_555
C41 C40 1_555 1_555
H58 C41 1_555 1_555
C42 C37 1_555 1_555
C43 C42 1_555 1_555
C44 C43 1_555 1_555
H59 C44 1_555 1_555
C45 C44 1_555 1_555
C46 C45 1_555 1_555
H60 C46 1_555 1_555
C47 C46 1_555 1_555
C48 C43 1_555 1_555
C49 C38 1_555 1_555
C50 C49 1_555 1_555
H61 C50 1_555 1_555
H62 C50 1_555 1_555
H63 C50 1_555 1_555
C51 C49 1_555 1_555
H64 C51 1_555 1_555
H65 C51 1_555 1_555
H66 C51 1_555 1_555
C52 C49 1_555 1_555
H67 C52 1_555 1_555
H68 C52 1_555 1_555
H69 C52 1_555 1_555
C53 C40 1_555 1_555
C54 C53 1_555 1_555
H70 C54 1_555 1_555
H71 C54 1_555 1_555
H72 C54 1_555 1_555
C55 C53 1_555 1_555
H73 C55 1_555 1_555
H74 C55 1_555 1_555
H75 C55 1_555 1_555
C56 C53 1_555 1_555
H76 C56 1_555 1_555
H77 C56 1_555 1_555
H78 C56 1_555 1_555
C57 C45 1_555 1_555
C58 C57 1_555 1_555
H79 C58 1_555 1_555
H80 C58 1_555 1_555
H81 C58 1_555 1_555
C59 C57 1_555 1_555
H82 C59 1_555 1_555
H83 C59 1_555 1_555
H84 C59 1_555 1_555
C60 C57 1_555 1_555
H85 C60 1_555 1_555
H86 C60 1_555 1_555
H87 C60 1_555 1_555
C61 C47 1_555 1_555
C62 C61 1_555 1_555
H88 C62 1_555 1_555
H89 C62 1_555 1_555
H90 C62 1_555 1_555
C63 C61 1_555 1_555
H91 C63 1_555 1_555
H92 C63 1_555 1_555
H93 C63 1_555 1_555
C64 C61 1_555 1_555
H94 C64 1_555 1_555
H95 C64 1_555 1_555
H96 C64 1_555 1_555
C65 O6 1_555 1_555
H97 C65 1_555 1_555
H98 C65 1_555 1_555
C66 C65 1_555 1_555
H99 C66 1_555 1_555
H100 C66 1_555 1_555
C67 C66 1_555 1_555
H101 C67 1_555 1_555
H102 C67 1_555 1_555
C68 O6 1_555 1_555
H103 C68 1_555 1_555
H104 C68 1_555 1_555
C69 O7 1_555 1_555
H105 C69 1_555 1_555
H106 C69 1_555 1_555
C70 C69 1_555 1_555
H107 C70 1_555 1_555
H108 C70 1_555 1_555
C71 C70 1_555 1_555
H109 C71 1_555 1_555
H110 C71 1_555 1_555
O9 C72 1_555 1_555
C72 H111 1_555 1_555
H112 C72 1_555 1_555
C73 C72 1_555 1_555
H113 C73 1_555 1_555
H114 C73 1_555 1_555
C74 C73 1_555 1_555
H115 C74 1_555 1_555
H116 C74 1_555 1_555
C75 O9 1_555 1_555
H117 C75 1_555 1_555
H118 C75 1_555 1_555
C76 O7 1_555 1_555
H119 C76 1_555 1_555
H120 C76 1_555 1_555
O10 C77 1_555 1_555
C77 H121 1_555 1_555
H122 C77 1_555 1_555
C78 C77 1_555 1_555
H123 C78 1_555 1_555
H124 C78 1_555 1_555
C79 C78 1_555 1_555
H125 C79 1_555 1_555
H126 C79 1_555 1_555
C80 O10 1_555 1_555
H127 C80 1_555 1_555
H128 C80 1_555 1_555
Na3A O2 1_555 1_555
O1A Mg1 1_555 1_555
O2A Mg2 1_555 1_555
O3A Na1 1_555 1_555
O4A Na2 1_555 1_555
O5A Mg2 1_555 1_555
O6A Na3A 1_555 1_555
O7A Na3A 1_555 1_555
O8A Mg1 1_555 1_555
C1A O8A 1_555 1_555
C2A C1A 1_555 1_555
C3A C2A 1_555 1_555
H1A C3A 1_555 1_555
C4A C3A 1_555 1_555
C5A C4A 1_555 1_555
H2A C5A 1_555 1_555
C6A C1A 1_555 1_555
C7A C6A 1_555 1_555
C8A C7A 1_555 1_555
H3A C8A 1_555 1_555
C9A C8A 1_555 1_555
C10A C9A 1_555 1_555
H4A C10A 1_555 1_555
C11A C10A 1_555 1_555
C12A O1A 1_555 1_555
C13A C2A 1_555 1_555
C14A C13A 1_555 1_555
H5A C14A 1_555 1_555
H6A C14A 1_555 1_555
H7A C14A 1_555 1_555
C15A C13A 1_555 1_555
H8A C15A 1_555 1_555
H9A C15A 1_555 1_555
H10A C15A 1_555 1_555
C16A C13A 1_555 1_555
H11A C16A 1_555 1_555
H12A C16A 1_555 1_555
H13A C16A 1_555 1_555
C17A C4A 1_555 1_555
C18A C17A 1_555 1_555
H14A C18A 1_555 1_555
H15A C18A 1_555 1_555
H16A C18A 1_555 1_555
C19A C17A 1_555 1_555
H17A C19A 1_555 1_555
H18A C19A 1_555 1_555
H19A C19A 1_555 1_555
C20A C17A 1_555 1_555
H20A C20A 1_555 1_555
H21A C20A 1_555 1_555
H22A C20A 1_555 1_555
C21A C9A 1_555 1_555
C22A C21A 1_555 1_555
H23A C22A 1_555 1_555
H24A C22A 1_555 1_555
H25A C22A 1_555 1_555
C23A C21A 1_555 1_555
H26A C23A 1_555 1_555
H27A C23A 1_555 1_555
H28A C23A 1_555 1_555
C24A C21A 1_555 1_555
H29A C24A 1_555 1_555
H30A C24A 1_555 1_555
H31A C24A 1_555 1_555
C25A C11A 1_555 1_555
C26A C25A 1_555 1_555
H32A C26A 1_555 1_555
H33A C26A 1_555 1_555
H34A C26A 1_555 1_555
C27A C25A 1_555 1_555
H35A C27A 1_555 1_555
H36A C27A 1_555 1_555
H37A C27A 1_555 1_555
C28A C25A 1_555 1_555
H38A C28A 1_555 1_555
H39A C28A 1_555 1_555
H40A C28A 1_555 1_555
C29A O4A 1_555 1_555
H41A C29A 1_555 1_555
H42A C29A 1_555 1_555
C30A C29A 1_555 1_555
H43A C30A 1_555 1_555
H44A C30A 1_555 1_555
C31A C30A 1_555 1_555
H45A C31A 1_555 1_555
H46A C31A 1_555 1_555
C32A O4A 1_555 1_555
H47A C32A 1_555 1_555
H48A C32A 1_555 1_555
C33A O3A 1_555 1_555
H49A C33A 1_555 1_555
H50A C33A 1_555 1_555
C34A C33A 1_555 1_555
H51A C34A 1_555 1_555
H52A C34A 1_555 1_555
C35A C34A 1_555 1_555
H53A C35A 1_555 1_555
H54A C35A 1_555 1_555
C36A O3A 1_555 1_555
H55A C36A 1_555 1_555
H56A C36A 1_555 1_555
C37A O5A 1_555 1_555
C38A C37A 1_555 1_555
C39A C38A 1_555 1_555
H57A C39A 1_555 1_555
C40A C39A 1_555 1_555
C41A C40A 1_555 1_555
H58A C41A 1_555 1_555
C42A C37A 1_555 1_555
C43A C42A 1_555 1_555
C44A C43A 1_555 1_555
H59A C44A 1_555 1_555
C45A C44A 1_555 1_555
C46A C45A 1_555 1_555
H60A C46A 1_555 1_555
C47A C46A 1_555 1_555
C48A O2A 1_555 1_555
C49A C38A 1_555 1_555
C50A C49A 1_555 1_555
H61A C50A 1_555 1_555
H62A C50A 1_555 1_555
H63A C50A 1_555 1_555
C51A C49A 1_555 1_555
H64A C51A 1_555 1_555
H65A C51A 1_555 1_555
H66A C51A 1_555 1_555
C52A C49A 1_555 1_555
H67A C52A 1_555 1_555
H68A C52A 1_555 1_555
H69A C52A 1_555 1_555
C53A C40A 1_555 1_555
C54A C53A 1_555 1_555
H70A C54A 1_555 1_555
H71A C54A 1_555 1_555
H72A C54A 1_555 1_555
C55A C53A 1_555 1_555
H73A C55A 1_555 1_555
H74A C55A 1_555 1_555
H75A C55A 1_555 1_555
C56A C53A 1_555 1_555
H76A C56A 1_555 1_555
H77A C56A 1_555 1_555
H78A C56A 1_555 1_555
C57A C45A 1_555 1_555
C58A C57A 1_555 1_555
H79A C58A 1_555 1_555
H80A C58A 1_555 1_555
H81A C58A 1_555 1_555
C59A C57A 1_555 1_555
H82A C59A 1_555 1_555
H83A C59A 1_555 1_555
H84A C59A 1_555 1_555
C60A C57A 1_555 1_555
H85A C60A 1_555 1_555
H86A C60A 1_555 1_555
H87A C60A 1_555 1_555
C61A C47A 1_555 1_555
C62A C61A 1_555 1_555
H88A C62A 1_555 1_555
H89A C62A 1_555 1_555
H90A C62A 1_555 1_555
C63A C61A 1_555 1_555
H91A C63A 1_555 1_555
H92A C63A 1_555 1_555
H93A C63A 1_555 1_555
C64A C61A 1_555 1_555
H94A C64A 1_555 1_555
H95A C64A 1_555 1_555
H96A C64A 1_555 1_555
C65A O6A 1_555 1_555
H97A C65A 1_555 1_555
H98A C65A 1_555 1_555
C66A C65A 1_555 1_555
H99A C66A 1_555 1_555
H100A C66A 1_555 1_555
C67A C66A 1_555 1_555
H101A C67A 1_555 1_555
H102A C67A 1_555 1_555
C68A O6A 1_555 1_555
H103A C68A 1_555 1_555
H104A C68A 1_555 1_555
C69A O7A 1_555 1_555
H105A C69A 1_555 1_555
H106A C69A 1_555 1_555
C70A C69A 1_555 1_555
H107A C70A 1_555 1_555
H108A C70A 1_555 1_555
C71A C70A 1_555 1_555
H109A C71A 1_555 1_555
H110A C71A 1_555 1_555
C76A O7A 1_555 1_555
H119A C76A 1_555 1_555
H120A C76A 1_555 1_555
Na1 O1A 1_555 1_555
Na2 O8 1_555 1_555
Na2 O8A 1_555 1_555
Na3 O2A 1_555 1_555
C5 C6 1_555 1_555
C11 C12 1_555 1_555
C31 C32 1_555 1_555
C35 C36 1_555 1_555
C41 C42 1_555 1_555
C47 C48 1_555 1_555
C67 C68 1_555 1_555
C71 C76 1_555 1_555
C74 C75 1_555 1_555
C79 C80 1_555 1_555
Na3A O5A 1_555 1_555
C5A C6A 1_555 1_555
C7A C12A 1_555 1_555
C11A C12A 1_555 1_555
C31A C32A 1_555 1_555
C35A C36A 1_555 1_555
C41A C42A 1_555 1_555
C43A C48A 1_555 1_555
C47A C48A 1_555 1_555
C67A C68A 1_555 1_555
C71A C76A 1_555 1_555

#END
