
#######################################################################
#
#                 Cambridge Crystallographic Data Centre
#                                CCDC 
#
#######################################################################
#
# If this CIF has been generated from an entry in the Cambridge 
# Structural Database, then it will include bibliographic, chemical, 
# crystal, experimental, refinement or atomic coordinate data resulting 
# from the CCDC's data processing and validation procedures.
#
#######################################################################

data_UYOKUP
_chemical_formula_moiety         'C12 H14 N1 1+,C5 H2 Br1 O2 S1 1-'
_chemical_name_systematic        
'1-(2-Naphthyl)ethylammonium 5-bromothiophene-2-carboxylate'
_symmetry_cell_setting           orthorhombic
_symmetry_space_group_name_H-M   'P 21 21 21'
_symmetry_Int_Tables_number      19
_space_group_name_Hall           'P 2ac 2ab'
loop_
_symmetry_equiv_pos_site_id
_symmetry_equiv_pos_as_xyz
1 x,y,z
2 1/2-x,-y,1/2+z
3 -x,1/2+y,1/2-z
4 1/2+x,1/2-y,-z
_cell_length_a                   6.4089(3)
_cell_length_b                   13.7191(7)
_cell_length_c                   18.5284(10)
_cell_angle_alpha                90
_cell_angle_beta                 90
_cell_angle_gamma                90
_cell_volume                     1629.1
_exptl_crystal_colour            colorless
_exptl_crystal_description       needle
_cell_formula_units_Z            4
loop_
_atom_site_label
_atom_site_type_symbol
_atom_site_fract_x
_atom_site_fract_y
_atom_site_fract_z
C1 C 0.2484(4) 0.42838(18) 0.25013(13)
C2 C 0.4388(4) 0.46146(19) 0.26961(13)
H1 H 0.5666 0.4349 0.2527
C3 C 0.4240(4) 0.54110(18) 0.31857(13)
H2 H 0.5417 0.5739 0.3381
C4 C 0.2228(4) 0.56519(17) 0.33434(13)
S1 S 0.04802(10) 0.49255(5) 0.28861(3)
C5 C 0.1363(4) 0.63792(18) 0.38596(13)
O1 O 0.2625(2) 0.68382(14) 0.42560(9)
O2 O -0.0590(3) 0.64665(12) 0.38701(9)
Br1 Br 0.18658(4) 0.318814(19) 0.193041(14)
C6 C 0.2957(4) 0.93071(17) 0.04415(13)
H3 H 0.1583 0.9521 0.0550
C7 C 0.4110(4) 0.98041(18) -0.00592(13)
C8 C 0.6131(4) 0.94722(19) -0.02302(15)
H4 H 0.6919 0.9804 -0.0588
C9 C 0.6975(4) 0.86856(19) 0.01080(14)
H5 H 0.8340 0.8475 -0.0017
C10 C 0.6692(5) 0.73697(19) 0.10231(15)
H6 H 0.8065 0.7152 0.0916
C11 C 0.5551(5) 0.6907(2) 0.15367(15)
H7 H 0.6154 0.6383 0.1799
C12 C 0.3495(5) 0.7192(2) 0.16847(15)
H8 H 0.2707 0.6849 0.2037
C13 C 0.2614(5) 0.79616(19) 0.13261(14)
H9 H 0.1218 0.8148 0.1430
C14 C 0.3774(4) 0.84797(17) 0.08020(14)
C15 C 0.5841(4) 0.8179(2) 0.06439(13)
C16 C 0.3323(4) 1.07166(17) -0.04306(13)
H10 H 0.4237 1.0837 -0.0859
C17 C 0.1097(4) 1.0679(2) -0.06950(16)
H11 H 0.0154 1.0603 -0.0282
H12 H 0.0926 1.0124 -0.1023
H13 H 0.0765 1.1284 -0.0951
N1 N 0.3541(3) 1.15744(14) 0.00650(11)
H14 H 0.3390 1.2135 -0.0192
H15 H 0.4824 1.1564 0.0275
H16 H 0.2541 1.1545 0.0413
loop_
_geom_bond_atom_site_label_1
_geom_bond_atom_site_label_2
_geom_bond_site_symmetry_1
_geom_bond_site_symmetry_2
C1 C2 1_555 1_555
C2 H1 1_555 1_555
C3 C2 1_555 1_555
H2 C3 1_555 1_555
C4 C3 1_555 1_555
S1 C1 1_555 1_555
C5 C4 1_555 1_555
O1 C5 1_555 1_555
O2 C5 1_555 1_555
Br1 C1 1_555 1_555
C6 H3 1_555 1_555
C7 C6 1_555 1_555
C8 C7 1_555 1_555
H4 C8 1_555 1_555
C9 C8 1_555 1_555
H5 C9 1_555 1_555
C10 H6 1_555 1_555
C11 C10 1_555 1_555
H7 C11 1_555 1_555
C12 C11 1_555 1_555
H8 C12 1_555 1_555
C13 C12 1_555 1_555
H9 C13 1_555 1_555
C14 C6 1_555 1_555
C15 C9 1_555 1_555
C16 C7 1_555 1_555
H10 C16 1_555 1_555
C17 C16 1_555 1_555
H11 C17 1_555 1_555
H12 C17 1_555 1_555
H13 C17 1_555 1_555
N1 C16 1_555 1_555
H14 N1 1_555 1_555
H15 N1 1_555 1_555
H16 N1 1_555 1_555
C4 S1 1_555 1_555
C10 C15 1_555 1_555
C13 C14 1_555 1_555
C14 C15 1_555 1_555

#END
