
#######################################################################
#
#                 Cambridge Crystallographic Data Centre
#                                CCDC 
#
#######################################################################
#
# If this CIF has been generated from an entry in the Cambridge 
# Structural Database, then it will include bibliographic, chemical, 
# crystal, experimental, refinement or atomic coordinate data resulting 
# from the CCDC's data processing and validation procedures.
#
#######################################################################

data_UYOKOJ
_chemical_formula_moiety         'C12 H14 N1 1+,C5 H2 Cl1 O2 S1 1-'
_chemical_name_systematic        
'1-(2-Naphthyl)ethylammonium 5-chlorothiophene-2-carboxylate'
_symmetry_cell_setting           orthorhombic
_symmetry_space_group_name_H-M   'P 21 21 21'
_symmetry_Int_Tables_number      19
_space_group_name_Hall           'P 2ac 2ab'
loop_
_symmetry_equiv_pos_site_id
_symmetry_equiv_pos_as_xyz
1 x,y,z
2 1/2-x,-y,1/2+z
3 1/2+x,1/2-y,-z
4 -x,1/2+y,1/2-z
_cell_length_a                   6.414(4)
_cell_length_b                   13.712(8)
_cell_length_c                   18.334(11)
_cell_angle_alpha                90
_cell_angle_beta                 90
_cell_angle_gamma                90
_cell_volume                     1612.45
_exptl_crystal_colour            colorless
_exptl_crystal_description       prism
_cell_formula_units_Z            4
loop_
_atom_site_label
_atom_site_type_symbol
_atom_site_fract_x
_atom_site_fract_y
_atom_site_fract_z
C1 C 0.3189(12) 0.0684(6) 0.4560(4)
H1 H 0.1822 0.0469 0.4441
C2 C 0.4313(11) 0.0180(6) 0.5068(4)
C3 C 0.6338(12) 0.0501(6) 0.5234(5)
H2 H 0.7123 0.0163 0.5593
C4 C 0.7217(12) 0.1295(6) 0.4890(4)
H3 H 0.8599 0.1492 0.5004
C5 C 0.6915(13) 0.2626(6) 0.3965(5)
H4 H 0.8306 0.2831 0.4056
C6 C 0.5756(14) 0.3099(7) 0.3460(4)
H5 H 0.6348 0.3633 0.3203
C7 C 0.3722(13) 0.2821(6) 0.3309(4)
H6 H 0.2920 0.3169 0.2960
C8 C 0.2871(13) 0.2029(6) 0.3675(4)
H7 H 0.1490 0.1827 0.3564
C9 C 0.4015(11) 0.1524(6) 0.4202(4)
C10 C 0.6052(11) 0.1807(6) 0.4371(4)
C11 C 0.3523(12) -0.0731(6) 0.5438(4)
H8 H 0.4449 -0.0861 0.5866
C12 C 0.1300(12) -0.0691(7) 0.5717(5)
H9 H 0.1124 -0.0115 0.6027
H10 H 0.1001 -0.1280 0.6001
H11 H 0.0337 -0.0652 0.5303
N1 N 0.3737(8) -0.1582(5) 0.4922(4)
H12 H 0.2613 -0.1601 0.4619
H13 H 0.3806 -0.2146 0.5182
H14 H 0.4920 -0.1511 0.4653
S1 S 0.9586(3) 0.01232(16) 0.28473(12)
C13 C 0.7893(11) -0.0635(5) 0.3325(4)
C14 C 0.5879(11) -0.0433(5) 0.3165(4)
H15 H 0.4737 -0.0791 0.3358
C15 C 0.5644(12) 0.0357(6) 0.2686(4)
H16 H 0.4334 0.0607 0.2533
C16 C 0.7510(10) 0.0723(5) 0.2469(4)
C17 C 0.8844(12) -0.1351(5) 0.3842(4)
O1 O 0.7625(7) -0.1825(4) 0.4249(3)
O2 O 1.0784(7) -0.1421(4) 0.3847(3)
Cl1 Cl 0.7968(3) 0.17332(16) 0.19188(11)
loop_
_geom_bond_atom_site_label_1
_geom_bond_atom_site_label_2
_geom_bond_site_symmetry_1
_geom_bond_site_symmetry_2
C1 H1 1_555 1_555
C2 C1 1_555 1_555
C3 C2 1_555 1_555
H2 C3 1_555 1_555
C4 C3 1_555 1_555
H3 C4 1_555 1_555
C5 H4 1_555 1_555
C6 C5 1_555 1_555
H5 C6 1_555 1_555
C7 C6 1_555 1_555
H6 C7 1_555 1_555
C8 C7 1_555 1_555
H7 C8 1_555 1_555
C9 C1 1_555 1_555
C10 C4 1_555 1_555
C11 C2 1_555 1_555
H8 C11 1_555 1_555
C12 C11 1_555 1_555
H9 C12 1_555 1_555
H10 C12 1_555 1_555
H11 C12 1_555 1_555
N1 C11 1_555 1_555
H12 N1 1_555 1_555
H13 N1 1_555 1_555
H14 N1 1_555 1_555
S1 C13 1_555 1_555
C13 C14 1_555 1_555
C14 H15 1_555 1_555
C15 C14 1_555 1_555
H16 C15 1_555 1_555
C16 S1 1_555 1_555
C17 C13 1_555 1_555
O1 C17 1_555 1_555
O2 C17 1_555 1_555
Cl1 C16 1_555 1_555
C5 C10 1_555 1_555
C8 C9 1_555 1_555
C9 C10 1_555 1_555
C15 C16 1_555 1_555

#END
