
#######################################################################
#
#                 Cambridge Crystallographic Data Centre
#                                CCDC 
#
#######################################################################
#
# If this CIF has been generated from an entry in the Cambridge 
# Structural Database, then it will include bibliographic, chemical, 
# crystal, experimental, refinement or atomic coordinate data resulting 
# from the CCDC's data processing and validation procedures.
#
#######################################################################

data_UYOLOK
_chemical_formula_moiety         'C28 H23 N2 O3 P1'
_chemical_name_systematic        
9-(((Diphenyloxyphosphoryl)methylhydrazono)methyl)anthracene
_symmetry_cell_setting           orthorhombic
_symmetry_space_group_name_H-M   'P 21 21 21'
_symmetry_Int_Tables_number      19
_space_group_name_Hall           'P 2ac 2ab'
loop_
_symmetry_equiv_pos_site_id
_symmetry_equiv_pos_as_xyz
1 x,y,z
2 1/2-x,-y,1/2+z
3 1/2+x,1/2-y,-z
4 -x,1/2+y,1/2-z
_cell_length_a                   5.951(2)
_cell_length_b                   16.063(6)
_cell_length_c                   23.803(8)
_cell_angle_alpha                90
_cell_angle_beta                 90
_cell_angle_gamma                90
_cell_volume                     2275.35
_exptl_crystal_colour            yellow
_cell_formula_units_Z            4
loop_
_atom_site_label
_atom_site_type_symbol
_atom_site_fract_x
_atom_site_fract_y
_atom_site_fract_z
P1 P 0.62910(13) 0.77922(5) 0.19612(3)
O1 O 0.7713(4) 0.70209(12) 0.17551(7)
O2 O 0.8205(3) 0.84757(11) 0.19986(8)
O3 O 0.4355(4) 0.80056(12) 0.16191(8)
N1 N 0.5619(4) 0.75510(14) 0.26143(10)
N2 N 0.7451(4) 0.73952(14) 0.29588(9)
C1 C 0.9752(5) 0.61955(18) 0.39434(11)
C2 C 1.1767(5) 0.60506(18) 0.42537(11)
C3 C 0.7095(5) 0.71718(18) 0.34634(11)
H1 H 0.5640 0.7106 0.3599
C4 C 0.9074(5) 0.70186(18) 0.38308(11)
C5 C 0.9214(5) 0.47033(19) 0.38652(12)
H2 H 0.8365 0.4252 0.3744
C6 C 0.8958(6) 0.64554(19) 0.00770(13)
H3 H 0.9250 0.6317 -0.0295
C7 C 1.3534(6) 0.82325(19) 0.45671(12)
H4 H 1.4870 0.8138 0.4760
C8 C 0.6488(6) 0.64460(18) 0.08705(12)
H5 H 0.5129 0.6298 0.1036
C9 C 0.9671(6) 0.95047(18) 0.26088(12)
H6 H 1.1002 0.9202 0.2623
C10 C 1.0275(5) 0.77010(18) 0.40497(11)
C11 C 0.8480(5) 0.54842(18) 0.37575(11)
H7 H 0.7143 0.5562 0.3562
C12 C 1.1242(6) 0.45586(19) 0.41578(12)
H8 H 1.1734 0.4017 0.4220
C13 C 1.2472(6) 0.52138(19) 0.43479(11)
H9 H 1.3798 0.5114 0.4543
C14 C 0.8096(5) 0.68617(17) 0.11749(12)
C15 C 0.7886(5) 0.92201(17) 0.22980(11)
C16 C 0.3327(5) 0.75549(19) 0.28267(13)
H10 H 0.3185 0.7971 0.3114
H11 H 0.2976 0.7018 0.2981
H12 H 0.2308 0.7678 0.2525
C17 C 0.5726(6) 1.0405(2) 0.25594(15)
H13 H 0.4394 1.0707 0.2545
C18 C 1.2827(6) 0.9024(2) 0.44903(13)
H14 H 1.3667 0.9464 0.4633
C19 C 0.7510(6) 1.0697(2) 0.28753(13)
H15 H 0.7385 1.1196 0.3070
C20 C 1.2295(5) 0.75415(18) 0.43625(11)
C21 C 0.6915(6) 0.62519(19) 0.03185(13)
H16 H 0.5825 0.5982 0.0106
C22 C 0.9470(6) 1.02448(19) 0.28996(12)
H17 H 1.0669 1.0439 0.3113
C23 C 0.9573(6) 0.85463(18) 0.39751(12)
H18 H 0.8264 0.8661 0.3776
C24 C 1.0143(5) 0.70768(18) 0.09477(13)
H19 H 1.1216 0.7356 0.1160
C25 C 1.0556(6) 0.6864(2) 0.03920(13)
H20 H 1.1930 0.7000 0.0230
C26 C 1.2995(5) 0.67304(19) 0.44500(11)
H21 H 1.4323 0.6636 0.4646
C27 C 0.5916(6) 0.96664(19) 0.22646(14)
H22 H 0.4728 0.9474 0.2047
C28 C 1.0809(6) 0.9184(2) 0.41932(13)
H23 H 1.0322 0.9730 0.4147
loop_
_geom_bond_atom_site_label_1
_geom_bond_atom_site_label_2
_geom_bond_site_symmetry_1
_geom_bond_site_symmetry_2
P1 O1 1_555 1_555
O1 C14 1_555 1_555
O2 P1 1_555 1_555
O3 P1 1_555 1_555
N1 P1 1_555 1_555
N2 N1 1_555 1_555
C1 C2 1_555 1_555
C2 C13 1_555 1_555
C3 N2 1_555 1_555
H1 C3 1_555 1_555
C4 C1 1_555 1_555
C5 H2 1_555 1_555
C6 H3 1_555 1_555
C7 H4 1_555 1_555
C8 H5 1_555 1_555
C9 H6 1_555 1_555
C10 C4 1_555 1_555
C11 C1 1_555 1_555
H7 C11 1_555 1_555
C12 C5 1_555 1_555
H8 C12 1_555 1_555
C13 C12 1_555 1_555
H9 C13 1_555 1_555
C14 C8 1_555 1_555
C15 O2 1_555 1_555
C16 N1 1_555 1_555
H10 C16 1_555 1_555
H11 C16 1_555 1_555
H12 C16 1_555 1_555
C17 H13 1_555 1_555
C18 C7 1_555 1_555
H14 C18 1_555 1_555
C19 C17 1_555 1_555
H15 C19 1_555 1_555
C20 C7 1_555 1_555
C21 C6 1_555 1_555
H16 C21 1_555 1_555
C22 C9 1_555 1_555
H17 C22 1_555 1_555
C23 C10 1_555 1_555
H18 C23 1_555 1_555
C24 C14 1_555 1_555
H19 C24 1_555 1_555
C25 C6 1_555 1_555
H20 C25 1_555 1_555
C26 C2 1_555 1_555
H21 C26 1_555 1_555
C27 C15 1_555 1_555
H22 C27 1_555 1_555
C28 C18 1_555 1_555
H23 C28 1_555 1_555
C3 C4 1_555 1_555
C5 C11 1_555 1_555
C8 C21 1_555 1_555
C9 C15 1_555 1_555
C10 C20 1_555 1_555
C17 C27 1_555 1_555
C19 C22 1_555 1_555
C20 C26 1_555 1_555
C23 C28 1_555 1_555
C24 C25 1_555 1_555

#END
