
#######################################################################
#
#                 Cambridge Crystallographic Data Centre
#                                CCDC 
#
#######################################################################
#
# If this CIF has been generated from an entry in the Cambridge 
# Structural Database, then it will include bibliographic, chemical, 
# crystal, experimental, refinement or atomic coordinate data resulting 
# from the CCDC's data processing and validation procedures.
#
#######################################################################

data_UYOLUQ
_chemical_formula_moiety         'C28 H23 N2 O1 P1'
_chemical_name_systematic        
"N-Methyl-P,P-diphenyl-N'-(anthracen-9-yl)phosphinic hydrazide"
_symmetry_cell_setting           monoclinic
_symmetry_space_group_name_H-M   'P 21/n'
_symmetry_Int_Tables_number      14
_space_group_name_Hall           '-P 2yn'
loop_
_symmetry_equiv_pos_site_id
_symmetry_equiv_pos_as_xyz
1 x,y,z
2 1/2-x,1/2+y,1/2-z
3 -x,-y,-z
4 1/2+x,1/2-y,1/2+z
_cell_length_a                   8.409(3)
_cell_length_b                   14.562(6)
_cell_length_c                   17.447(7)
_cell_angle_alpha                90
_cell_angle_beta                 94.918(7)
_cell_angle_gamma                90
_cell_volume                     2128.55
_exptl_crystal_colour            yellow
_cell_formula_units_Z            4
loop_
_atom_site_label
_atom_site_type_symbol
_atom_site_fract_x
_atom_site_fract_y
_atom_site_fract_z
C1 C 0.2513(3) 1.23802(17) 0.47137(14)
H1 H 0.1767 1.2433 0.4291
C2 C 0.3259(3) 1.31477(18) 0.50020(15)
H2 H 0.3021 1.3714 0.4773
C3 C 0.4388(3) 1.30957(18) 0.56441(15)
H3 H 0.4897 1.3625 0.5837
C4 C 0.4734(3) 1.22716(18) 0.59813(15)
H4 H 0.5473 1.2244 0.6409
C5 C 0.4156(3) 0.89175(18) 0.60616(15)
H5 H 0.4925 0.8895 0.6478
C6 C 0.3476(3) 0.81277(18) 0.57865(15)
H6 H 0.3785 0.7568 0.6009
C7 C 0.2299(3) 0.81571(18) 0.51618(15)
H7 H 0.1817 0.7614 0.4983
C8 C 0.1854(3) 0.89635(17) 0.48152(14)
H8 H 0.1080 0.8961 0.4401
C9 C 0.2150(3) 1.06749(16) 0.47250(14)
C10 C 0.4399(3) 1.05968(17) 0.60185(14)
H9 H 0.5148 1.0570 0.6442
C11 C 0.3715(3) 0.97861(17) 0.57237(14)
C12 C 0.2552(3) 0.98179(17) 0.50742(14)
C13 C 0.2840(3) 1.14918(16) 0.50400(14)
C14 C 0.3987(3) 1.14468(17) 0.56930(14)
C15 C 0.1049(3) 1.07478(16) 0.40281(13)
H10 H 0.0330 1.1234 0.3979
C16 C 0.0568(3) 0.84112(17) 0.26256(14)
C17 C 0.1692(3) 0.77857(17) 0.23943(14)
H11 H 0.2388 0.7960 0.2034
C18 C 0.1777(3) 0.69077(18) 0.26984(15)
H12 H 0.2532 0.6497 0.2542
C19 C 0.0749(3) 0.66372(18) 0.32312(14)
H13 H 0.0805 0.6044 0.3430
C20 C -0.0365(3) 0.72501(18) 0.34684(15)
H14 H -0.1050 0.7072 0.3832
C21 C -0.0464(3) 0.81307(18) 0.31650(14)
H15 H -0.1225 0.8537 0.3322
C22 C -0.1479(3) 0.94496(16) 0.15476(15)
C23 C -0.1397(3) 0.94485(16) 0.07583(14)
H16 H -0.0416 0.9531 0.0559
C24 C -0.2749(3) 0.93267(18) 0.02636(17)
H17 H -0.2686 0.9339 -0.0266
C25 C -0.4196(3) 0.91861(18) 0.05627(18)
H18 H -0.5104 0.9081 0.0232
C26 C -0.4313(3) 0.91992(18) 0.13456(17)
H19 H -0.5300 0.9121 0.1540
C27 C -0.2946(3) 0.93297(18) 0.18446(16)
H20 H -0.3016 0.9336 0.2374
C28 C -0.0935(3) 1.10869(17) 0.26987(14)
H21 H -0.1686 1.1150 0.3080
H22 H -0.1498 1.1060 0.2197
H23 H -0.0224 1.1604 0.2726
N1 N -0.0017(2) 1.02444(14) 0.28404(11)
N2 N 0.1057(2) 1.01526(14) 0.34845(11)
O1 O 0.17365(19) 0.97134(12) 0.16912(10)
P1 P 0.03795(7) 0.95037(4) 0.21462(4)
loop_
_geom_bond_atom_site_label_1
_geom_bond_atom_site_label_2
_geom_bond_site_symmetry_1
_geom_bond_site_symmetry_2
C1 H1 1_555 1_555
C2 C1 1_555 1_555
H2 C2 1_555 1_555
C3 C2 1_555 1_555
H3 C3 1_555 1_555
C4 C3 1_555 1_555
H4 C4 1_555 1_555
C5 H5 1_555 1_555
C6 C5 1_555 1_555
H6 C6 1_555 1_555
C7 C6 1_555 1_555
H7 C7 1_555 1_555
C8 C7 1_555 1_555
H8 C8 1_555 1_555
C9 C12 1_555 1_555
C10 H9 1_555 1_555
C11 C5 1_555 1_555
C12 C8 1_555 1_555
C13 C1 1_555 1_555
C14 C4 1_555 1_555
C15 C9 1_555 1_555
H10 C15 1_555 1_555
C16 C17 1_555 1_555
C17 H11 1_555 1_555
C18 C17 1_555 1_555
H12 C18 1_555 1_555
C19 C18 1_555 1_555
H13 C19 1_555 1_555
C20 C19 1_555 1_555
H14 C20 1_555 1_555
C21 C16 1_555 1_555
H15 C21 1_555 1_555
C22 C23 1_555 1_555
C23 H16 1_555 1_555
C24 C23 1_555 1_555
H17 C24 1_555 1_555
C25 C24 1_555 1_555
H18 C25 1_555 1_555
C26 C25 1_555 1_555
H19 C26 1_555 1_555
C27 C22 1_555 1_555
H20 C27 1_555 1_555
C28 H21 1_555 1_555
H22 C28 1_555 1_555
H23 C28 1_555 1_555
N1 C28 1_555 1_555
N2 C15 1_555 1_555
O1 P1 1_555 1_555
P1 C16 1_555 1_555
C9 C13 1_555 1_555
C10 C11 1_555 1_555
C10 C14 1_555 1_555
C11 C12 1_555 1_555
C13 C14 1_555 1_555
C20 C21 1_555 1_555
C22 P1 1_555 1_555
C26 C27 1_555 1_555
N1 N2 1_555 1_555
N1 P1 1_555 1_555

#END
