
#######################################################################
#
#                 Cambridge Crystallographic Data Centre
#                                CCDC 
#
#######################################################################
#
# If this CIF has been generated from an entry in the Cambridge 
# Structural Database, then it will include bibliographic, chemical, 
# crystal, experimental, refinement or atomic coordinate data resulting 
# from the CCDC's data processing and validation procedures.
#
#######################################################################

data_UYOLIE
_chemical_formula_moiety         'C54 H52 N9 O8 P3,0.5(C1 H2 Cl2),C1 H1 Cl3'
_chemical_name_systematic        
"3,3'-(Dispiro[dibenzo[d,f][1,3,2]dioxaphosphepine-6,2'-[1,3,5,2,4,6]triazatriphosphinine-4',6''-dibenzo[d,f][1,3,2]dioxaphosphepine]-6',6'-diylbis((2-methylhydrazin-2-yl-1-ylidene)methylylidene))bis(7-(diethylamino)-2H-chromen-2-one) chloroform dichloromethane solvate"
_symmetry_cell_setting           triclinic
_symmetry_space_group_name_H-M   'P -1'
_symmetry_Int_Tables_number      2
_space_group_name_Hall           '-P 1'
loop_
_symmetry_equiv_pos_site_id
_symmetry_equiv_pos_as_xyz
1 x,y,z
2 -x,-y,-z
_cell_length_a                   11.010(4)
_cell_length_b                   12.759(4)
_cell_length_c                   20.531(7)
_cell_angle_alpha                86.616(7)
_cell_angle_beta                 76.804(6)
_cell_angle_gamma                82.921(7)
_cell_volume                     2785.14
_cell_formula_units_Z            2
loop_
_atom_site_label
_atom_site_type_symbol
_atom_site_fract_x
_atom_site_fract_y
_atom_site_fract_z
C55 C 0.4102(6) 0.9074(5) 0.8994(3)
H53 H 0.3600 0.8516 0.9243
Cl1 Cl 0.3918(2) 0.91559(19) 0.81715(10)
Cl2 Cl 0.35336(18) 1.02851(14) 0.93809(9)
Cl3 Cl 0.56579(17) 0.87332(18) 0.90254(11)
C56 C 0.5223(16) 0.4179(14) 0.4814(7)
H54 H 0.6126 0.3911 0.4709
H55 H 0.5151 0.4910 0.4624
Cl4 Cl 0.4797(4) 0.4242(4) 0.5579(3)
Cl5 Cl 0.4483(5) 0.3434(4) 0.4389(3)
C56A C 0.4777(16) 0.5821(14) 0.5186(7)
H54A H 0.3874 0.6089 0.5291
H55A H 0.4849 0.5090 0.5376
Cl4A Cl 0.5203(4) 0.5758(4) 0.4421(3)
Cl5A Cl 0.5517(5) 0.6566(4) 0.5611(3)
C1 C 0.9727(4) 0.1399(4) 1.0794(2)
C2 C 1.0753(5) 0.0642(4) 1.0655(3)
H1 H 1.0914 0.0234 1.0266
C3 C 1.1538(5) 0.0493(4) 1.1098(3)
H2 H 1.2242 -0.0031 1.1017
C4 C 1.1310(5) 0.1091(5) 1.1649(3)
H3 H 1.1852 0.0971 1.1952
C5 C 1.0298(5) 0.1874(4) 1.1776(3)
H4 H 1.0159 0.2287 1.2162
C6 C 0.9480(5) 0.2055(4) 1.1337(2)
C7 C 0.8399(5) 0.2879(4) 1.1467(2)
C8 C 0.7723(5) 0.3103(4) 1.2119(3)
H5 H 0.7960 0.2719 1.2489
C9 C 0.6711(6) 0.3883(5) 1.2225(3)
H6 H 0.6256 0.4027 1.2669
C10 C 0.6357(5) 0.4456(4) 1.1688(3)
H7 H 0.5655 0.4983 1.1765
C11 C 0.7027(5) 0.4258(4) 1.1040(3)
H8 H 0.6798 0.4651 1.0671
C12 C 0.8026(5) 0.3485(4) 1.0942(2)
C13 C 0.4679(4) 0.3490(4) 0.9503(2)
C14 C 0.4252(5) 0.3869(4) 1.0141(3)
H9 H 0.4795 0.4175 1.0356
C15 C 0.3018(5) 0.3793(5) 1.0458(3)
H10 H 0.2702 0.4045 1.0897
C16 C 0.2238(5) 0.3351(5) 1.0135(3)
H11 H 0.1380 0.3329 1.0350
C17 C 0.2685(5) 0.2944(4) 0.9508(3)
H12 H 0.2147 0.2615 0.9302
C18 C 0.3940(5) 0.3014(4) 0.9173(3)
C19 C 0.4454(5) 0.2564(4) 0.8503(3)
C20 C 0.3795(5) 0.2695(4) 0.7996(3)
H13 H 0.2989 0.3091 0.8077
C21 C 0.4287(5) 0.2260(5) 0.7380(3)
H14 H 0.3811 0.2350 0.7044
C22 C 0.5467(6) 0.1694(5) 0.7244(3)
H15 H 0.5807 0.1410 0.6814
C23 C 0.6152(5) 0.1543(4) 0.7738(3)
H16 H 0.6958 0.1146 0.7657
C24 C 0.5627(5) 0.1987(4) 0.8357(3)
C25 C 1.0421(5) 0.4537(4) 0.8549(3)
H17 H 1.1271 0.4744 0.8475
H18 H 1.0102 0.4391 0.9027
H19 H 0.9870 0.5113 0.8393
C26 C 1.1108(5) 0.4445(5) 0.7168(3)
H20 H 1.1260 0.5016 0.7404
C27 C 1.1327(6) 0.4494(5) 0.6441(3)
C28 C 1.1078(6) 0.3727(5) 0.6076(3)
H21 H 1.0791 0.3096 0.6293
C29 C 1.1247(6) 0.3862(5) 0.5357(3)
C30 C 1.1648(6) 0.4782(5) 0.5051(3)
C31 C 1.1791(6) 0.5458(5) 0.6112(3)
C32 C 1.0977(6) 0.3119(5) 0.4937(3)
H22 H 1.0692 0.2473 0.5128
C33 C 1.1116(6) 0.3307(5) 0.4274(3)
H23 H 1.0915 0.2795 0.4010
C34 C 1.1555(6) 0.4250(5) 0.3959(3)
C35 C 1.1820(6) 0.5001(5) 0.4377(3)
H24 H 1.2113 0.5648 0.4191
C36 C 1.2094(6) 0.5454(5) 0.2977(3)
H25 H 1.1633 0.6039 0.3262
H26 H 1.1853 0.5555 0.2540
C37 C 1.3456(7) 0.5542(7) 0.2866(4)
H27 H 1.3699 0.5501 0.3298
H28 H 1.3640 0.6220 0.2638
H29 H 1.3930 0.4963 0.2589
C38 C 1.1617(6) 0.3622(5) 0.2847(3)
H30 H 1.1514 0.3947 0.2410
H31 H 1.0867 0.3257 0.3040
C39 C 1.2786(8) 0.2801(7) 0.2730(4)
H32 H 1.3529 0.3151 0.2519
H33 H 1.2679 0.2257 0.2436
H34 H 1.2893 0.2473 0.3160
C40 C 1.1195(5) 0.0959(4) 0.8139(3)
H35 H 1.1075 0.0208 0.8175
H36 H 1.1423 0.1160 0.8545
H37 H 1.1868 0.1087 0.7749
C41 C 0.9903(5) 0.0669(5) 0.7168(3)
H38 H 1.0541 0.0162 0.7276
C42 C 0.9383(5) 0.0527(5) 0.6587(3)
C43 C 0.8871(6) 0.1323(5) 0.6243(3)
H39 H 0.8828 0.2027 0.6381
C44 C 0.8386(6) 0.1137(5) 0.5673(3)
C45 C 0.8444(7) 0.0090(5) 0.5490(3)
C46 C 0.9455(7) -0.0562(5) 0.6384(3)
C47 C 0.7919(7) 0.1909(5) 0.5263(3)
H40 H 0.7873 0.2629 0.5370
C48 C 0.7523(7) 0.1673(6) 0.4710(3)
H41 H 0.7234 0.2227 0.4433
C49 C 0.7541(6) 0.0590(6) 0.4545(3)
C50 C 0.7986(7) -0.0172(5) 0.4954(3)
H42 H 0.7981 -0.0895 0.4869
C51 C 0.6842(8) 0.1155(7) 0.3500(4)
H43 H 0.7156 0.0860 0.3050
H44 H 0.7296 0.1772 0.3521
C52 C 0.5478(14) 0.1524(12) 0.3589(8)
H45 H 0.5001 0.0911 0.3656
H46 H 0.5333 0.1933 0.3190
H47 H 0.5203 0.1969 0.3981
C53 C 0.7010(8) -0.0769(7) 0.3878(3)
H48 H 0.7761 -0.1226 0.3955
H49 H 0.6958 -0.0837 0.3408
C54 C 0.5835(10) -0.1126(9) 0.4348(4)
H50 H 0.5889 -0.1062 0.4813
H51 H 0.5771 -0.1865 0.4267
H52 H 0.5090 -0.0682 0.4265
N1 N 0.8087(4) 0.3050(3) 0.8488(2)
N2 N 0.7309(4) 0.2339(3) 0.9765(2)
N3 N 0.9783(4) 0.2413(3) 0.92442(19)
N4 N 1.0450(4) 0.3584(3) 0.8175(2)
N5 N 1.0706(4) 0.3618(4) 0.7482(2)
N6 N 1.1677(5) 0.4455(4) 0.3289(2)
N7 N 1.0017(4) 0.1596(3) 0.8062(2)
N8 N 0.9498(4) 0.1476(4) 0.7529(2)
N9 N 0.7130(6) 0.0359(5) 0.3998(3)
O1 O 0.5911(3) 0.3671(3) 0.91524(16)
O2 O 0.6308(3) 0.1780(3) 0.88681(16)
O3 O 0.8853(3) 0.1437(3) 1.03814(16)
O4 O 0.8762(3) 0.3390(3) 1.02928(16)
O5 O 0.9897(5) -0.1347(3) 0.6653(2)
O6 O 0.8940(5) -0.0726(3) 0.5852(2)
O7 O 1.2092(5) 0.6170(4) 0.6375(2)
O8 O 1.1927(5) 0.5554(3) 0.5425(2)
P1 P 0.69838(11) 0.27091(10) 0.90669(6)
P2 P 0.86674(11) 0.23995(10) 0.98734(6)
P3 P 0.95034(12) 0.26634(11) 0.85161(6)
loop_
_geom_bond_atom_site_label_1
_geom_bond_atom_site_label_2
_geom_bond_site_symmetry_1
_geom_bond_site_symmetry_2
C1 C2 1_555 1_555
C2 H1 1_555 1_555
C3 C2 1_555 1_555
H2 C3 1_555 1_555
C4 C3 1_555 1_555
H3 C4 1_555 1_555
C5 C4 1_555 1_555
H4 C5 1_555 1_555
C6 C1 1_555 1_555
C7 C6 1_555 1_555
C8 C7 1_555 1_555
H5 C8 1_555 1_555
C9 C8 1_555 1_555
H6 C9 1_555 1_555
C10 C9 1_555 1_555
H7 C10 1_555 1_555
C11 C10 1_555 1_555
H8 C11 1_555 1_555
C12 C7 1_555 1_555
C13 C14 1_555 1_555
C14 H9 1_555 1_555
C15 C14 1_555 1_555
H10 C15 1_555 1_555
C16 C15 1_555 1_555
H11 C16 1_555 1_555
C17 C16 1_555 1_555
H12 C17 1_555 1_555
C18 C13 1_555 1_555
C19 C18 1_555 1_555
C20 C19 1_555 1_555
H13 C20 1_555 1_555
C21 C20 1_555 1_555
H14 C21 1_555 1_555
C22 C21 1_555 1_555
H15 C22 1_555 1_555
C23 C22 1_555 1_555
H16 C23 1_555 1_555
C24 C19 1_555 1_555
C25 H17 1_555 1_555
H18 C25 1_555 1_555
H19 C25 1_555 1_555
C26 H20 1_555 1_555
C27 C26 1_555 1_555
C28 C27 1_555 1_555
H21 C28 1_555 1_555
C29 C28 1_555 1_555
C30 C29 1_555 1_555
C31 C27 1_555 1_555
C32 C29 1_555 1_555
H22 C32 1_555 1_555
C33 C32 1_555 1_555
H23 C33 1_555 1_555
C34 C33 1_555 1_555
C35 C30 1_555 1_555
H24 C35 1_555 1_555
C36 H25 1_555 1_555
H26 C36 1_555 1_555
C37 C36 1_555 1_555
H27 C37 1_555 1_555
H28 C37 1_555 1_555
H29 C37 1_555 1_555
C38 H30 1_555 1_555
H31 C38 1_555 1_555
C39 C38 1_555 1_555
H32 C39 1_555 1_555
H33 C39 1_555 1_555
H34 C39 1_555 1_555
C40 H35 1_555 1_555
H36 C40 1_555 1_555
H37 C40 1_555 1_555
C41 H38 1_555 1_555
C42 C41 1_555 1_555
C43 C42 1_555 1_555
H39 C43 1_555 1_555
C44 C43 1_555 1_555
C45 C44 1_555 1_555
C46 C42 1_555 1_555
C47 C44 1_555 1_555
H40 C47 1_555 1_555
C48 C47 1_555 1_555
H41 C48 1_555 1_555
C49 C48 1_555 1_555
C50 C45 1_555 1_555
H42 C50 1_555 1_555
C51 H43 1_555 1_555
H44 C51 1_555 1_555
C52 C51 1_555 1_555
H45 C52 1_555 1_555
H46 C52 1_555 1_555
H47 C52 1_555 1_555
C53 H48 1_555 1_555
H49 C53 1_555 1_555
C54 C53 1_555 1_555
H50 C54 1_555 1_555
H51 C54 1_555 1_555
H52 C54 1_555 1_555
C55 H53 1_555 1_555
C56 H54 1_555 1_555
H55 C56 1_555 1_555
Cl1 C55 1_555 1_555
Cl2 C55 1_555 1_555
Cl3 C55 1_555 1_555
Cl4 C56 1_555 1_555
Cl5 C56 1_555 1_555
N1 P1 1_555 1_555
N2 P1 1_555 1_555
N3 P2 1_555 1_555
N4 C25 1_555 1_555
N5 C26 1_555 1_555
N6 C34 1_555 1_555
N7 C40 1_555 1_555
N8 C41 1_555 1_555
N9 C49 1_555 1_555
O1 C13 1_555 1_555
O2 C24 1_555 1_555
O3 C1 1_555 1_555
O4 C12 1_555 1_555
O5 C46 1_555 1_555
O6 C45 1_555 1_555
O7 C31 1_555 1_555
O8 C30 1_555 1_555
P1 O1 1_555 1_555
P2 N2 1_555 1_555
P3 N1 1_555 1_555
C56A H54A 1_555 1_555
H55A Cl4 1_555 1_555
Cl4A H55 1_555 1_555
Cl5A C56A 1_555 1_555
C5 C6 1_555 1_555
C11 C12 1_555 1_555
C17 C18 1_555 1_555
C23 C24 1_555 1_555
C31 O8 1_555 1_555
C34 C35 1_555 1_555
C36 N6 1_555 1_555
C38 N6 1_555 1_555
C46 O6 1_555 1_555
C49 C50 1_555 1_555
C51 N9 1_555 1_555
C53 N9 1_555 1_555
N3 P3 1_555 1_555
N4 N5 1_555 1_555
N4 P3 1_555 1_555
N7 N8 1_555 1_555
N7 P3 1_555 1_555
O2 P1 1_555 1_555
O3 P2 1_555 1_555
O4 P2 1_555 1_555
C56A H55A 1_555 1_555
C56A Cl4A 1_555 1_555

#END
