
#######################################################################
#
#                 Cambridge Crystallographic Data Centre
#                                CCDC 
#
#######################################################################
#
# If this CIF has been generated from an entry in the Cambridge 
# Structural Database, then it will include bibliographic, chemical, 
# crystal, experimental, refinement or atomic coordinate data resulting 
# from the CCDC's data processing and validation procedures.
#
#######################################################################

data_UYOPUU
_chemical_formula_moiety         'C20 H21 N1 O4 S2'
_chemical_name_systematic        
'(R)-t-Butyl 2-oxo-5-(R)-(3-oxo-1,3-bis(2-thienyl)propyl)-2,5-dihydro-1H-pyrrole-1-carboxylate'
_symmetry_cell_setting           monoclinic
_symmetry_space_group_name_H-M   'P 21'
_symmetry_Int_Tables_number      4
_space_group_name_Hall           'P 2yb'
loop_
_symmetry_equiv_pos_site_id
_symmetry_equiv_pos_as_xyz
1 x,y,z
2 -x,1/2+y,-z
_cell_length_a                   8.838(10)
_cell_length_b                   10.681(11)
_cell_length_c                   10.897(12)
_cell_angle_alpha                90
_cell_angle_beta                 90.135(12)
_cell_angle_gamma                90
_cell_volume                     1028.66
_exptl_crystal_colour            colorless
_exptl_crystal_description       block
_cell_formula_units_Z            2
loop_
_atom_site_label
_atom_site_type_symbol
_atom_site_fract_x
_atom_site_fract_y
_atom_site_fract_z
C1 C -0.1739(4) 0.4026(4) 0.0015(4)
C2 C -0.2376(4) 0.4680(5) 0.1079(4)
H1 H -0.3355 0.4573 0.1371
C3 C -0.1367(4) 0.5439(4) 0.1563(3)
H2 H -0.1545 0.5938 0.2247
C4 C 0.0095(4) 0.5406(4) 0.0885(3)
H3 H 0.0289 0.6227 0.0517
C5 C 0.1470(4) 0.5015(4) 0.1695(3)
H4 H 0.2340 0.4947 0.1142
C6 C 0.1299(4) 0.3754(4) 0.2302(3)
C7 C 0.1780(3) 0.2450(2) 0.1632(2)
H5 H 0.2168 0.2290 0.0824
C8 C 0.1410(7) 0.1544(6) 0.2688(6)
H6 H 0.1595 0.0659 0.2619
C9 C 0.0838(6) 0.2054(7) 0.3664(6)
H7 H 0.0553 0.1554 0.4363
C10 C 0.1832(4) 0.6061(4) 0.2586(3)
H8 H 0.1623 0.6856 0.2190
H9 H 0.1166 0.5991 0.3289
C11 C 0.3453(4) 0.6060(4) 0.3031(3)
C12 C 0.3823(4) 0.6917(4) 0.4035(3)
C13 C 0.2898(5) 0.7856(4) 0.4568(3)
H10 H 0.1923 0.8059 0.4313
C14 C 0.3700(6) 0.8446(5) 0.5561(4)
H11 H 0.3288 0.9072 0.6050
C15 C 0.5131(6) 0.7987(5) 0.5711(4)
H12 H 0.5802 0.8285 0.6301
C16 C 0.0708(4) 0.4227(4) -0.1073(3)
C17 C 0.3227(4) 0.4830(5) -0.1813(4)
C18 C 0.4227(6) 0.5906(6) -0.1387(5)
H13 H 0.3762 0.6687 -0.1605
H14 H 0.5198 0.5844 -0.1775
H15 H 0.4351 0.5865 -0.0513
C19 C 0.3938(5) 0.3581(6) -0.1510(5)
H16 H 0.4117 0.3529 -0.0643
H17 H 0.4881 0.3501 -0.1939
H18 H 0.3269 0.2919 -0.1757
C20 C 0.2807(6) 0.4965(7) -0.3137(4)
H19 H 0.2121 0.4307 -0.3364
H20 H 0.3702 0.4914 -0.3631
H21 H 0.2328 0.5762 -0.3264
N1 N -0.0251(3) 0.4490(3) -0.0091(3)
O1 O -0.2337(3) 0.3288(4) -0.0653(3)
O2 O 0.4406(3) 0.5404(3) 0.2563(2)
O3 O 0.0474(3) 0.3433(3) -0.1813(2)
O4 O 0.1879(3) 0.5012(3) -0.1019(2)
S1 S 0.0618(3) 0.3539(3) 0.3646(2)
S2 S 0.55652(13) 0.68271(13) 0.47227(11)
C21? C 0.0618(3) 0.3539(3) 0.3646(2)
H22? H 0.0213 0.4106 0.4236
S3? S 0.1780(3) 0.2450(2) 0.1632(2)
loop_
_geom_bond_atom_site_label_1
_geom_bond_atom_site_label_2
_geom_bond_site_symmetry_1
_geom_bond_site_symmetry_2
C1 C2 1_555 1_555
C2 H1 1_555 1_555
C3 C2 1_555 1_555
H2 C3 1_555 1_555
C4 C3 1_555 1_555
H3 C4 1_555 1_555
C5 C4 1_555 1_555
H4 C5 1_555 1_555
C6 C5 1_555 1_555
C7 C6 1_555 1_555
H5 C7 1_555 1_555
C8 C7 1_555 1_555
H6 C8 1_555 1_555
C9 C8 1_555 1_555
H7 C9 1_555 1_555
C10 C5 1_555 1_555
H8 C10 1_555 1_555
H9 C10 1_555 1_555
C11 C10 1_555 1_555
C12 C11 1_555 1_555
C13 C12 1_555 1_555
H10 C13 1_555 1_555
C14 C13 1_555 1_555
H11 C14 1_555 1_555
C15 C14 1_555 1_555
H12 C15 1_555 1_555
C16 N1 1_555 1_555
C17 C18 1_555 1_555
C18 H13 1_555 1_555
H14 C18 1_555 1_555
H15 C18 1_555 1_555
C19 C17 1_555 1_555
H16 C19 1_555 1_555
H17 C19 1_555 1_555
H18 C19 1_555 1_555
C20 C17 1_555 1_555
H19 C20 1_555 1_555
H20 C20 1_555 1_555
H21 C20 1_555 1_555
N1 C1 1_555 1_555
O1 C1 1_555 1_555
O2 C11 1_555 1_555
O3 C16 1_555 1_555
O4 C16 1_555 1_555
S1 C6 1_555 1_555
S2 C12 1_555 1_555
C4 N1 1_555 1_555
C9 S1 1_555 1_555
C15 S2 1_555 1_555
C17 O4 1_555 1_555

#END
