
#######################################################################
#
#                 Cambridge Crystallographic Data Centre
#                                CCDC 
#
#######################################################################
#
# If this CIF has been generated from an entry in the Cambridge 
# Structural Database, then it will include bibliographic, chemical, 
# crystal, experimental, refinement or atomic coordinate data resulting 
# from the CCDC's data processing and validation procedures.
#
#######################################################################

data_UYOZUE
_chemical_formula_moiety         'C9 H7 Cl1 N4 O1 S1'
_chemical_name_systematic        
1-(3-Chlorophenyl)-3-(1,3,4-thiadiazol-2-yl)urea
_symmetry_cell_setting           monoclinic
_symmetry_space_group_name_H-M   'P 21/c'
_symmetry_Int_Tables_number      14
_space_group_name_Hall           '-P 2ybc'
loop_
_symmetry_equiv_pos_site_id
_symmetry_equiv_pos_as_xyz
1 x,y,z
2 -x,1/2+y,1/2-z
3 -x,-y,-z
4 x,1/2-y,1/2+z
_cell_length_a                   11.565(2)
_cell_length_b                   9.5616(19)
_cell_length_c                   10.221(2)
_cell_angle_alpha                90
_cell_angle_beta                 111.75(3)
_cell_angle_gamma                90
_cell_volume                     1049.78
_exptl_crystal_colour            colorless
_exptl_crystal_description       block
_cell_formula_units_Z            4
loop_
_atom_site_label
_atom_site_type_symbol
_atom_site_fract_x
_atom_site_fract_y
_atom_site_fract_z
S1 S 0.33635(8) 1.18504(8) 0.41616(8)
Cl1 Cl 0.09960(9) 0.28795(9) 0.56310(9)
O1 O 0.2458(2) 0.9298(2) 0.3902(2)
N1 N 0.4856(2) 1.3236(2) 0.6237(3)
N2 N 0.4825(2) 1.1903(2) 0.6751(2)
N3 N 0.3908(2) 0.9721(2) 0.6067(2)
H1 H 0.433(2) 0.944(3) 0.695(2)
N4 N 0.3066(2) 0.7524(2) 0.5495(2)
H2 H 0.363(2) 0.729(3) 0.627(2)
C1 C 0.2285(3) 0.6447(3) 0.4698(3)
C2 C 0.2030(3) 0.5356(3) 0.5446(3)
H3 H 0.2361 0.5348 0.6426
C3 C 0.1267(3) 0.4278(3) 0.4697(3)
C4 C 0.0755(3) 0.4265(3) 0.3262(3)
H4 H 0.0236 0.3538 0.2782
C5 C 0.1023(3) 0.5346(3) 0.2546(3)
H5 H 0.0682 0.5349 0.1567
C6 C 0.1791(3) 0.6438(3) 0.3247(3)
H6 H 0.1971 0.7159 0.2742
C7 C 0.3085(3) 0.8849(3) 0.5061(3)
C8 C 0.4082(3) 1.1079(3) 0.5787(3)
C9 C 0.4147(3) 1.3325(3) 0.4919(3)
H7 H 0.4070 1.4151 0.4414
loop_
_geom_bond_atom_site_label_1
_geom_bond_atom_site_label_2
_geom_bond_site_symmetry_1
_geom_bond_site_symmetry_2
S1 C8 1_555 1_555
Cl1 C3 1_555 1_555
O1 C7 1_555 1_555
N1 N2 1_555 1_555
N2 C8 1_555 1_555
N3 H1 1_555 1_555
N4 H2 1_555 1_555
C1 N4 1_555 1_555
C2 C1 1_555 1_555
H3 C2 1_555 1_555
C3 C2 1_555 1_555
C4 C3 1_555 1_555
H4 C4 1_555 1_555
C5 C4 1_555 1_555
H5 C5 1_555 1_555
C6 C1 1_555 1_555
H6 C6 1_555 1_555
C7 N3 1_555 1_555
C8 N3 1_555 1_555
C9 S1 1_555 1_555
H7 C9 1_555 1_555
N1 C9 1_555 1_555
N4 C7 1_555 1_555
C5 C6 1_555 1_555

#END
