
#######################################################################
#
#                 Cambridge Crystallographic Data Centre
#                                CCDC 
#
#######################################################################
#
# If this CIF has been generated from an entry in the Cambridge 
# Structural Database, then it will include bibliographic, chemical, 
# crystal, experimental, refinement or atomic coordinate data resulting 
# from the CCDC's data processing and validation procedures.
#
#######################################################################

data_UYOZEO
_chemical_formula_moiety         '2(C10 H9 N2 1+),C8 H2 F4 O4,C8 F4 O4 2-'
_chemical_name_systematic        
"bis(4,4'-Bipyridinium) 2,3,5,6-tetrafluoroterephthalate 2,3,5,6-tetrafluoroterephthalic acid"
_symmetry_cell_setting           triclinic
_symmetry_space_group_name_H-M   'P -1'
_symmetry_Int_Tables_number      2
_space_group_name_Hall           '-P 1'
loop_
_symmetry_equiv_pos_site_id
_symmetry_equiv_pos_as_xyz
1 x,y,z
2 -x,-y,-z
_cell_length_a                   8.3453(12)
_cell_length_b                   10.1798(15)
_cell_length_c                   10.6626(16)
_cell_angle_alpha                87.591(2)
_cell_angle_beta                 74.047(2)
_cell_angle_gamma                69.006(2)
_cell_volume                     811.516
_cell_formula_units_Z            1
loop_
_atom_site_label
_atom_site_type_symbol
_atom_site_fract_x
_atom_site_fract_y
_atom_site_fract_z
F1 F 0.18741(15) 0.18848(13) 0.47416(12)
F2 F 0.42548(16) 0.03027(12) 0.26657(11)
O1 O 0.1904(2) 0.13673(16) 0.82967(15)
O2 O 0.2057(2) 0.31416(14) 0.70371(15)
H1 H 0.1351 0.3630 0.7690
C1 C 0.4658(2) 0.01431(18) 0.38207(17)
C2 C 0.3432(2) 0.09813(17) 0.48898(18)
C3 C 0.3754(2) 0.08770(17) 0.61032(17)
C4 C 0.2451(3) 0.1832(2) 0.72761(19)
F1A F 0.81259(15) -0.18848(13) 0.52584(12)
F2A F 0.57452(16) -0.03027(12) 0.73343(11)
O1A O 0.8096(2) -0.13673(16) 0.17033(15)
O2A O 0.7943(2) -0.31416(14) 0.29629(15)
H1A H 0.8649 -0.3630 0.2310
C1A C 0.5342(2) -0.01431(18) 0.61793(17)
C2A C 0.6568(2) -0.09813(17) 0.51102(18)
C3A C 0.6246(2) -0.08770(17) 0.38968(17)
C4A C 0.7549(3) -0.1832(2) 0.27239(19)
N1 N 0.1031(2) 0.95433(15) 0.24097(15)
H2 H 0.0040 1.0145 0.2871
N2 N 0.9233(2) 0.47980(17) -0.13668(15)
C5 C 0.2001(3) 0.8491(2) 0.29844(19)
H3 H 0.1590 0.8408 0.3877
C6 C 0.3603(3) 0.75254(19) 0.22724(17)
H4 H 0.4268 0.6794 0.2683
C7 C 0.4227(2) 0.76450(17) 0.09384(16)
C8 C 0.3157(3) 0.87449(19) 0.03673(17)
H5 H 0.3513 0.8847 -0.0526
C9 C 0.1573(3) 0.96760(19) 0.11326(18)
H6 H 0.0868 1.0413 0.0751
C10 C 0.8316(3) 0.43791(19) -0.02989(19)
H7 H 0.8786 0.3456 -0.0071
C11 C 0.6696(2) 0.52652(18) 0.04799(18)
H8 H 0.6087 0.4939 0.1216
C12 C 0.5983(2) 0.66472(17) 0.01555(16)
C13 C 0.6979(3) 0.7075(2) -0.09403(19)
H9 H 0.6567 0.8001 -0.1175
C14 C 0.8576(3) 0.6127(2) -0.1677(2)
H10 H 0.9217 0.6424 -0.2418
F3 F 0.61108(17) 0.63772(13) 0.64957(13)
F4 F 0.15133(15) 0.58623(13) 0.50446(14)
O3 O 0.2137(3) 0.74481(16) 0.78590(14)
O4 O 0.16681(19) 0.85255(13) 0.60810(13)
C15 C 0.5531(2) 0.57067(18) 0.57575(17)
C16 C 0.3737(2) 0.62115(14) 0.58170(15)
C17 C 0.3245(2) 0.54540(18) 0.50319(18)
C18 C 0.2407(2) 0.74875(15) 0.66755(16)
F3A F 0.38892(17) 0.36228(13) 0.35043(13)
F4A F 0.84867(15) 0.41377(13) 0.49554(14)
O3A O 0.7863(3) 0.25519(16) 0.21410(14)
O4A O 0.83319(19) 0.14745(13) 0.39190(13)
C15A C 0.4469(2) 0.42933(18) 0.42425(17)
C16A C 0.6263(2) 0.37885(14) 0.41830(15)
C17A C 0.6755(2) 0.45460(18) 0.49681(18)
C18A C 0.7593(2) 0.25125(15) 0.33245(16)
loop_
_geom_bond_atom_site_label_1
_geom_bond_atom_site_label_2
_geom_bond_site_symmetry_1
_geom_bond_site_symmetry_2
F1 C2 1_555 1_555
F2 C1 1_555 1_555
O1 C4 1_555 1_555
O2 H1 1_555 1_555
C1 C2 1_555 1_555
C2 C3 1_555 1_555
C3 C4 1_555 1_555
C4 O2 1_555 1_555
N1 H2 1_555 1_555
N2 C10 1_555 1_555
C5 N1 1_555 1_555
H3 C5 1_555 1_555
C6 C5 1_555 1_555
H4 C6 1_555 1_555
C7 C6 1_555 1_555
C8 C7 1_555 1_555
H5 C8 1_555 1_555
C9 N1 1_555 1_555
H6 C9 1_555 1_555
C10 H7 1_555 1_555
C11 C10 1_555 1_555
H8 C11 1_555 1_555
C12 C7 1_555 1_555
C13 C12 1_555 1_555
H9 C13 1_555 1_555
C14 N2 1_555 1_555
H10 C14 1_555 1_555
F3 C15 1_555 1_555
F4 C17 1_555 1_555
O3 C18 1_555 1_555
O4 C18 1_555 1_555
C15 C16 1_555 1_555
C16 C17 1_555 1_555
C17 C15A 1_555 1_555
C18 C16 1_555 1_555
F1A C2A 1_555 1_555
F2A C1A 1_555 1_555
O1A C4A 1_555 1_555
O2A H1A 1_555 1_555
C1A C3 1_555 1_555
C2A C1A 1_555 1_555
C3A C1 1_555 1_555
C4A O2A 1_555 1_555
F3A C15A 1_555 1_555
F4A C17A 1_555 1_555
O3A C18A 1_555 1_555
O4A C18A 1_555 1_555
C15A C16A 1_555 1_555
C16A C17A 1_555 1_555
C17A C15 1_555 1_555
C18A C16A 1_555 1_555
C8 C9 1_555 1_555
C11 C12 1_555 1_555
C13 C14 1_555 1_555
C2A C3A 1_555 1_555
C3A C4A 1_555 1_555

#END
