
#######################################################################
#
#                 Cambridge Crystallographic Data Centre
#                                CCDC 
#
#######################################################################
#
# If this CIF has been generated from an entry in the Cambridge 
# Structural Database, then it will include bibliographic, chemical, 
# crystal, experimental, refinement or atomic coordinate data resulting 
# from the CCDC's data processing and validation procedures.
#
#######################################################################

data_UYUJEE
_chemical_formula_moiety         'C25 H24 N2 O2'
_chemical_name_systematic        
'Methyl 3-((methyl(4-methylphenyl)amino)methyl)-2-phenylindolizine-1-carboxylate'
_symmetry_cell_setting           monoclinic
_symmetry_space_group_name_H-M   'P 21/c'
_symmetry_Int_Tables_number      14
_space_group_name_Hall           '-P 2ybc'
loop_
_symmetry_equiv_pos_site_id
_symmetry_equiv_pos_as_xyz
1 x,y,z
2 -x,1/2+y,1/2-z
3 -x,-y,-z
4 x,1/2-y,1/2+z
_cell_length_a                   7.0755(9)
_cell_length_b                   27.670(3)
_cell_length_c                   10.6387(11)
_cell_angle_alpha                90
_cell_angle_beta                 101.765(11)
_cell_angle_gamma                90
_cell_volume                     2039.08
_exptl_crystal_colour            yellow
_exptl_crystal_description       block
_cell_formula_units_Z            4
loop_
_atom_site_label
_atom_site_type_symbol
_atom_site_fract_x
_atom_site_fract_y
_atom_site_fract_z
H1 H -0.429(4) 0.6086(9) 0.927(2)
H2 H -0.404(4) 0.6425(9) 0.803(3)
O1 O 0.1468(2) 0.53209(6) 0.64011(14)
N1 N -0.0548(2) 0.58164(6) 0.99514(16)
N2 N -0.2969(2) 0.67321(6) 0.97436(16)
C1 C -0.4372(3) 0.69188(7) 1.03584(17)
C2 C 0.1060(3) 0.55898(7) 0.96470(19)
O2 O 0.3842(2) 0.52714(7) 0.81304(17)
C3 C 0.2233(3) 0.54014(8) 0.7649(2)
C4 C -0.0804(3) 0.59090(7) 0.78415(19)
C5 C -0.1678(3) 0.60119(7) 0.8853(2)
C6 C 0.0916(3) 0.56420(7) 0.83231(19)
C7 C 0.0440(4) 0.56085(8) 1.2134(2)
H3 H 0.0250 0.5616 1.2973
C8 C -0.7040(3) 0.72941(9) 1.1783(2)
C9 C -0.4402(3) 0.74067(8) 1.0682(2)
H4 H -0.3529 0.7618 1.0427
C10 C 0.2363(3) 0.53600(8) 1.0634(2)
H5 H 0.3434 0.5200 1.0454
C11 C -0.0847(3) 0.58262(8) 1.1187(2)
H6 H -0.1925 0.5981 1.1372
C12 C -0.1481(4) 0.60897(8) 0.6512(2)
C13 C -0.5754(3) 0.66291(8) 1.0748(2)
H7 H -0.5820 0.6303 1.0534
C14 C -0.7027(4) 0.68151(9) 1.1446(2)
H8 H -0.7913 0.6608 1.1700
C15 C -0.5700(4) 0.75814(9) 1.1374(2)
H9 H -0.5668 0.7909 1.1574
C16 C -0.1728(4) 0.70706(8) 0.9250(3)
H10 H -0.0831 0.6895 0.8857
H11 H -0.1031 0.7263 0.9943
H12 H -0.2502 0.7277 0.8624
C17 C -0.3425(4) 0.62992(9) 0.8938(3)
C18 C 0.2058(4) 0.53710(8) 1.1857(2)
H13 H 0.2928 0.5220 1.2512
C19 C -0.3401(4) 0.60471(10) 0.5891(2)
H14 H -0.4277 0.5891 0.6295
C20 C 0.2629(4) 0.50484(10) 0.5693(2)
H15 H 0.1951 0.5014 0.4819
H16 H 0.2886 0.4734 0.6073
H17 H 0.3826 0.5215 0.5713
C21 C -0.0214(5) 0.63208(9) 0.5880(2)
H18 H 0.1075 0.6353 0.6284
C22 C -0.8412(5) 0.74926(12) 1.2570(3)
H19 H -0.8194 0.7833 1.2699
H20 H -0.8198 0.7332 1.3387
H21 H -0.9718 0.7439 1.2125
C23 C -0.4020(6) 0.62378(14) 0.4664(3)
H22 H -0.5310 0.6213 0.4256
C24 C -0.2727(9) 0.64633(13) 0.4056(4)
H23 H -0.3138 0.6588 0.3234
C25 C -0.0831(8) 0.65033(11) 0.4662(3)
H24 H 0.0045 0.6655 0.4248
loop_
_geom_bond_atom_site_label_1
_geom_bond_atom_site_label_2
_geom_bond_site_symmetry_1
_geom_bond_site_symmetry_2
H1 C17 1_555 1_555
H2 C17 1_555 1_555
O1 C3 1_555 1_555
N1 C2 1_555 1_555
N2 C1 1_555 1_555
C1 C9 1_555 1_555
C2 C6 1_555 1_555
O2 C3 1_555 1_555
C3 C6 1_555 1_555
C4 C5 1_555 1_555
C5 N1 1_555 1_555
C6 C4 1_555 1_555
C7 H3 1_555 1_555
C8 C14 1_555 1_555
C9 H4 1_555 1_555
C10 C2 1_555 1_555
H5 C10 1_555 1_555
C11 N1 1_555 1_555
H6 C11 1_555 1_555
C12 C4 1_555 1_555
C13 C1 1_555 1_555
H7 C13 1_555 1_555
C14 C13 1_555 1_555
H8 C14 1_555 1_555
C15 C8 1_555 1_555
H9 C15 1_555 1_555
C16 N2 1_555 1_555
H10 C16 1_555 1_555
H11 C16 1_555 1_555
H12 C16 1_555 1_555
C17 N2 1_555 1_555
C18 C7 1_555 1_555
H13 C18 1_555 1_555
C19 C12 1_555 1_555
H14 C19 1_555 1_555
C20 O1 1_555 1_555
H15 C20 1_555 1_555
H16 C20 1_555 1_555
H17 C20 1_555 1_555
C21 C12 1_555 1_555
H18 C21 1_555 1_555
C22 C8 1_555 1_555
H19 C22 1_555 1_555
H20 C22 1_555 1_555
H21 C22 1_555 1_555
C23 C19 1_555 1_555
H22 C23 1_555 1_555
C24 C23 1_555 1_555
H23 C24 1_555 1_555
C25 C21 1_555 1_555
H24 C25 1_555 1_555
C5 C17 1_555 1_555
C7 C11 1_555 1_555
C9 C15 1_555 1_555
C10 C18 1_555 1_555
C24 C25 1_555 1_555

#END
