
#######################################################################
#
#                 Cambridge Crystallographic Data Centre
#                                CCDC 
#
#######################################################################
#
# If this CIF has been generated from an entry in the Cambridge 
# Structural Database, then it will include bibliographic, chemical, 
# crystal, experimental, refinement or atomic coordinate data resulting 
# from the CCDC's data processing and validation procedures.
#
#######################################################################

data_UYUVEQ
_chemical_formula_moiety         'C14 H6 N4 O12,2(C3 H7 N1 O1)'
_chemical_name_systematic        
"2,2',6,6'-tetranitrobiphenyl-4,4'-dicarboxylic acid N,N-dimethylformamide solvate"
_symmetry_cell_setting           tetragonal
_symmetry_space_group_name_H-M   'I 41/a'
_symmetry_Int_Tables_number      88
_space_group_name_Hall           '-I 4ad'
loop_
_symmetry_equiv_pos_site_id
_symmetry_equiv_pos_as_xyz
1 x,y,z
2 1/2-x,-y,1/2+z
3 3/4-y,1/4+x,1/4+z
4 3/4+y,3/4-x,3/4+z
5 1/2+x,1/2+y,1/2+z
6 -x,1/2-y,z
7 1/4-y,3/4+x,3/4+z
8 1/4+y,1/4-x,1/4+z
9 -x,-y,-z
10 1/2+x,y,1/2-z
11 1/4+y,3/4-x,3/4-z
12 1/4-y,1/4+x,1/4-z
13 1/2-x,1/2-y,1/2-z
14 x,1/2+y,-z
15 3/4+y,1/4-x,1/4-z
16 3/4-y,3/4+x,3/4-z
_cell_length_a                   9.8774(14)
_cell_length_b                   9.8774(14)
_cell_length_c                   25.335(7)
_cell_angle_alpha                90
_cell_angle_beta                 90
_cell_angle_gamma                90
_cell_volume                     2471.76
_cell_formula_units_Z            4
loop_
_atom_site_label
_atom_site_type_symbol
_atom_site_fract_x
_atom_site_fract_y
_atom_site_fract_z
O4 O 0.0699(9) 0.3212(9) -0.0519(4)
N2 N 0.0000 0.2500 0.0254(4)
C6 C 0.0000 0.2500 -0.0226(8)
C7 C 0.0744(9) 0.3506(9) 0.0532(4)
H4 H 0.1102 0.4153 0.0286
H5 H 0.1476 0.3085 0.0721
H6 H 0.0157 0.3957 0.0778
O4E O -0.0699(9) 0.1788(9) -0.0519(4)
C7E C -0.0744(9) 0.1494(9) 0.0532(4)
H4E H -0.1102 0.0847 0.0286
H5E H -0.1476 0.1915 0.0721
H6E H -0.0157 0.1043 0.0778
O1 O 0.5718(4) 0.6630(4) -0.09775(18)
O2 O 0.7207(4) 0.4743(4) 0.0646(2)
O3 O 0.6483(4) 0.5369(4) 0.1400(2)
N1 N 0.6545(4) 0.5489(4) 0.0924(3)
C1 C 0.5000 0.7500 -0.0750(5)
C2 C 0.5000 0.7500 -0.0158(4)
C3 C 0.5741(5) 0.6550(5) 0.0120(3)
H2 H 0.6248 0.5905 -0.0060
C4 C 0.5730(4) 0.6557(4) 0.0656(3)
C5 C 0.5000 0.7500 0.0957(3)
O1E O 0.4282(4) 0.8370(4) -0.09775(18)
O1K O 0.5870(4) 0.8218(4) 0.34775(18)
O1N O 0.4130(4) 0.6782(4) 0.34775(18)
O2E O 0.2793(4) 1.0257(4) 0.0646(2)
O2K O 0.7757(4) 0.9707(4) 0.1854(2)
O2N O 0.2243(4) 0.5293(4) 0.1854(2)
O3E O 0.3517(4) 0.9631(4) 0.1400(2)
O3K O 0.7131(4) 0.8983(4) 0.1100(2)
O3N O 0.2869(4) 0.6017(4) 0.1100(2)
N1E N 0.3455(4) 0.9511(4) 0.0924(3)
N1K N 0.7011(4) 0.9045(4) 0.1576(3)
N1N N 0.2989(4) 0.5955(4) 0.1576(3)
C1K C 0.5000 0.7500 0.3250(5)
C2K C 0.5000 0.7500 0.2658(4)
C3E C 0.4259(5) 0.8450(5) 0.0120(3)
C3K C 0.5950(5) 0.8241(5) 0.2380(3)
C3N C 0.4050(5) 0.6759(5) 0.2380(3)
H2E H 0.3752 0.9095 -0.0060
H2N H 0.3405 0.6252 0.2560
H2K H 0.6595 0.8748 0.2560
C4E C 0.4270(4) 0.8443(4) 0.0656(3)
C4K C 0.5943(4) 0.8230(4) 0.1844(3)
C4N C 0.4057(4) 0.6770(4) 0.1844(3)
C5K C 0.5000 0.7500 0.1543(3)
H1? H 0.5645 0.6718 -0.1298
H3? H 0.0523 0.3034 -0.0828
loop_
_geom_bond_atom_site_label_1
_geom_bond_atom_site_label_2
_geom_bond_site_symmetry_1
_geom_bond_site_symmetry_2
O1 C1 1_555 1_555
O2 N1 1_555 1_555
O3 N1 1_555 1_555
N1 C4 1_555 1_555
C1 C2 1_555 1_555
C2 C3 1_555 1_555
C3 H2 1_555 1_555
C4 C3 1_555 1_555
C5 C4 1_555 1_555
O4 C6 1_555 1_555
N2 C6 1_555 1_555
C6 O4E 1_555 1_555
C7 N2 1_555 1_555
H4 C7 1_555 1_555
H5 C7 1_555 1_555
H6 C7 1_555 1_555
O1E C1 1_555 1_555
O1K C1K 1_555 1_555
O1N C1K 1_555 1_555
O2E N1E 1_555 1_555
O2K N1K 1_555 1_555
O2N N1N 1_555 1_555
O3E N1E 1_555 1_555
O3K N1K 1_555 1_555
O3N N1N 1_555 1_555
N1E C4E 1_555 1_555
N1K C4K 1_555 1_555
N1N C4N 1_555 1_555
C1K C2K 1_555 1_555
C2K C3K 1_555 1_555
C3E C2 1_555 1_555
C3K H2K 1_555 1_555
C3N C2K 1_555 1_555
H2E C3E 1_555 1_555
H2N C3N 1_555 1_555
C4E C5 1_555 1_555
C4K C3K 1_555 1_555
C4N C3N 1_555 1_555
C5K C5 1_555 1_555
C7E N2 1_555 1_555
H4E C7E 1_555 1_555
H5E C7E 1_555 1_555
H6E C7E 1_555 1_555
C3E C4E 1_555 1_555
C4K C5K 1_555 1_555
C4N C5K 1_555 1_555

#END
