
#######################################################################
#
#                 Cambridge Crystallographic Data Centre
#                                CCDC 
#
#######################################################################
#
# If this CIF has been generated from an entry in the Cambridge 
# Structural Database, then it will include bibliographic, chemical, 
# crystal, experimental, refinement or atomic coordinate data resulting 
# from the CCDC's data processing and validation procedures.
#
#######################################################################

data_UYUWOC
_chemical_name_common            'Swerimilegenin I'
_chemical_formula_moiety         'C11 H14 O4'
_chemical_name_systematic        
'5-ethyl-6-methoxy-4,6,8,8a-tetrahydro-1H,3H-pyrano[3,4-c]pyran-1-one 5-ethylidene-6-methoxy-4,5,6,8-tetrahydro-1H,3H-pyrano[3,4-c]pyran-1-one'
_symmetry_cell_setting           triclinic
_symmetry_space_group_name_H-M   'P 1'
_symmetry_Int_Tables_number      1
_space_group_name_Hall           'P 1'
loop_
_symmetry_equiv_pos_site_id
_symmetry_equiv_pos_as_xyz
1 x,y,z
_cell_length_a                   4.287(2)
_cell_length_b                   9.320(5)
_cell_length_c                   27.001(14)
_cell_angle_alpha                90.00
_cell_angle_beta                 90.00
_cell_angle_gamma                100.268(9)
_cell_volume                     1061.54
_exptl_crystal_colour            colorless
_exptl_crystal_description       irregular
_cell_formula_units_Z            4
loop_
_atom_site_label
_atom_site_type_symbol
_atom_site_fract_x
_atom_site_fract_y
_atom_site_fract_z
C1 C 0.549(6) 0.170(2) 0.0762(7)
O1 O 0.190(4) 0.0497(15) 0.1586(5)
O2 O 0.775(5) -0.0117(18) 0.0096(6)
C2 C 0.405(6) -0.0329(18) 0.1373(7)
H1 H 0.2961 -0.1321 0.1318
H2 H 0.5774 -0.0363 0.1603
C3 C 0.700(6) -0.0554(19) 0.0509(10)
C4 C 0.423(7) 0.411(2) 0.1077(8)
H3 H 0.5076 0.4509 0.0780
O3 O 0.754(5) -0.173(2) 0.0673(6)
C5 C 0.659(7) 0.108(3) -0.0067(8)
H4 H 0.4437 0.0758 -0.0182
H5 H 0.7839 0.1480 -0.0351
C6 C 0.542(6) 0.032(2) 0.0881(8)
C7 C 0.310(8) 0.509(3) 0.1396(10)
H6 H 0.1594 0.4563 0.1622
H7 H 0.2090 0.5749 0.1204
H8 H 0.4837 0.5640 0.1578
C8 C 0.656(7) 0.228(2) 0.0290(9)
H9 H 0.7142 0.3268 0.0218
C9 C 0.429(6) 0.265(2) 0.1136(8)
C10 C 0.295(6) 0.203(2) 0.1610(9)
H10 H 0.1240 0.2529 0.1722
O4 O 0.559(4) 0.2240(19) 0.1964(5)
C11 C 0.469(8) 0.184(3) 0.2477(7)
H11 H 0.3673 0.2574 0.2622
H12 H 0.6559 0.1758 0.2664
H13 H 0.3265 0.0919 0.2481
O5 O 0.698(4) 0.5453(17) 0.8271(6)
O6 O 1.280(4) 0.4880(17) 0.9746(6)
O7 O 1.259(5) 0.3229(18) 0.9148(8)
C12 C 1.043(6) 0.677(3) 0.9085(7)
C13 C 0.920(7) 0.473(2) 0.8520(10)
H14 H 1.0967 0.4695 0.8299
H15 H 0.8190 0.3738 0.8589
C14 C 0.941(6) 0.777(3) 0.8739(9)
C15 C 1.183(6) 0.732(2) 0.9566(7)
H16 H 1.0806 0.8112 0.9681
H17 H 1.4068 0.7706 0.9524
C16 C 1.041(6) 0.541(3) 0.8975(8)
C17 C 1.139(8) 0.612(3) 0.9942(10)
H18 H 0.9146 0.5793 1.0007
H19 H 1.2413 0.6465 1.0250
C18 C 1.202(7) 0.435(3) 0.9291(9)
C19 C 0.807(9) 1.012(3) 0.8388(12)
H20 H 0.6782 0.9550 0.8143
H21 H 0.9830 1.0728 0.8230
H22 H 0.6823 1.0720 0.8561
C20 C 0.807(5) 0.707(2) 0.8253(8)
H23 H 0.6327 0.7543 0.8142
O8 O 1.052(4) 0.7260(19) 0.7884(6)
C21 C 0.931(6) 0.910(2) 0.8759(8)
H24 H 1.0122 0.9549 0.9050
C22 C 0.977(7) 0.689(2) 0.7401(8)
H25 H 0.9160 0.5849 0.7375
H26 H 1.1590 0.7210 0.7195
H27 H 0.8053 0.7347 0.7295
C23 C 0.494(5) 0.1856(17) 0.6151(6)
O9 O 0.118(4) 0.4544(17) 0.5094(6)
O10 O 0.154(5) 0.621(2) 0.5665(7)
C24 C 0.227(6) 0.503(2) 0.5564(9)
O11 O 0.724(4) 0.3989(16) 0.6567(5)
C25 C 0.495(6) 0.481(2) 0.6379(8)
H28 H 0.5963 0.5820 0.6327
H29 H 0.3260 0.4804 0.6618
C26 C 0.244(6) 0.212(2) 0.5279(7)
H30 H 0.3737 0.1431 0.5164
H31 H 0.0275 0.1600 0.5311
C27 C 0.257(7) 0.334(3) 0.4909(8)
H32 H 0.4764 0.3699 0.4821
H33 H 0.1458 0.2962 0.4611
C28 C 0.597(7) 0.258(3) 0.6640(9)
H34 H 0.7696 0.2113 0.6762
C29 C 0.578(7) -0.068(2) 0.6403(7)
H35 H 0.7931 -0.0330 0.6501
H36 H 0.5609 -0.1646 0.6268
H37 H 0.4414 -0.0710 0.6686
C30 C 0.480(6) 0.033(3) 0.6013(10)
O12 O 0.344(4) 0.2148(14) 0.6952(5)
C31 C 0.357(5) 0.416(2) 0.5891(8)
C32 C 0.366(6) 0.274(3) 0.5787(9)
C33 C 0.455(9) 0.254(4) 0.7477(9)
H38 H 0.6820 0.2734 0.7487
H39 H 0.3756 0.1746 0.7695
H40 H 0.3758 0.3396 0.7581
C34 C 0.990(6) 0.673(3) 0.3719(8)
O13 O 0.650(5) 1.1269(19) 0.4158(8)
O14 O 1.210(4) 0.9031(18) 0.3292(6)
C35 C 0.864(6) 0.907(3) 0.3963(8)
C36 C 1.088(8) 0.748(3) 0.3200(10)
H41 H 1.2619 0.7043 0.3067
O15 O 0.617(5) 0.9545(18) 0.4748(7)
C37 C 0.721(6) 0.707(2) 0.4557(7)
H42 H 0.8124 0.6250 0.4674
H43 H 0.4956 0.6732 0.4506
C38 C 0.975(6) 0.975(3) 0.3513(10)
H44 H 1.0661 1.0766 0.3576
H45 H 0.7989 0.9727 0.3286
C39 C 0.877(6) 0.763(2) 0.4068(9)
C40 C 0.721(7) 1.016(3) 0.4246(7)
C41 C 0.773(7) 0.832(2) 0.4952(9)
H46 H 0.6761 0.7968 0.5265
H47 H 0.9972 0.8659 0.5006
C42 C 0.968(7) 0.539(2) 0.3826(11)
H48 H 0.8964 0.5034 0.4135
C43 C 1.069(7) 0.432(3) 0.3413(11)
H49 H 1.1334 0.4868 0.3118
H50 H 0.8921 0.3565 0.3340
H51 H 1.2422 0.3895 0.3534
O16 O 0.843(4) 0.7162(18) 0.2889(6)
C44 C 0.951(8) 0.750(3) 0.2398(9)
H52 H 0.9505 0.8515 0.2333
H53 H 0.8130 0.6914 0.2168
H54 H 1.1624 0.7309 0.2362
H55? H 0.6137 0.0299 0.5725
H56? H 0.2642 -0.0063 0.5914
loop_
_geom_bond_atom_site_label_1
_geom_bond_atom_site_label_2
_geom_bond_site_symmetry_1
_geom_bond_site_symmetry_2
C1 C6 1_555 1_555
O1 C2 1_555 1_555
O2 C3 1_555 1_555
C2 H1 1_555 1_555
H2 C2 1_555 1_555
C3 O3 1_555 1_555
C4 H3 1_555 1_555
C5 O2 1_555 1_555
H4 C5 1_555 1_555
H5 C5 1_555 1_555
C6 C2 1_555 1_555
C7 C4 1_555 1_555
H6 C7 1_555 1_555
H7 C7 1_555 1_555
H8 C7 1_555 1_555
C8 C1 1_555 1_555
H9 C8 1_555 1_555
C9 C1 1_555 1_555
C10 O1 1_555 1_555
H10 C10 1_555 1_555
O4 C10 1_555 1_555
C11 O4 1_555 1_555
H11 C11 1_555 1_555
H12 C11 1_555 1_555
H13 C11 1_555 1_555
O5 C13 1_555 1_555
O6 C17 1_555 1_555
O7 C18 1_555 1_555
C12 C14 1_555 1_555
C13 H14 1_555 1_555
H15 C13 1_555 1_555
C14 C20 1_555 1_555
C15 C12 1_555 1_555
H16 C15 1_555 1_555
H17 C15 1_555 1_555
C16 C12 1_555 1_555
C17 C15 1_555 1_555
H18 C17 1_555 1_555
H19 C17 1_555 1_555
C18 O6 1_555 1_555
C19 H20 1_555 1_555
H21 C19 1_555 1_555
H22 C19 1_555 1_555
C20 O5 1_555 1_555
H23 C20 1_555 1_555
O8 C20 1_555 1_555
C21 C14 1_555 1_555
H24 C21 1_555 1_555
C22 O8 1_555 1_555
H25 C22 1_555 1_555
H26 C22 1_555 1_555
H27 C22 1_555 1_555
C23 C28 1_555 1_555
O9 C24 1_555 1_555
O10 C24 1_555 1_555
C24 C31 1_555 1_555
O11 C25 1_555 1_555
C25 H28 1_555 1_555
H29 C25 1_555 1_555
C26 H30 1_555 1_555
H31 C26 1_555 1_555
C27 O9 1_555 1_555
H32 C27 1_555 1_555
H33 C27 1_555 1_555
C28 O11 1_555 1_555
H34 C28 1_555 1_555
C29 H35 1_555 1_555
H36 C29 1_555 1_555
H37 C29 1_555 1_555
C30 C23 1_555 1_555
O12 C28 1_555 1_555
C31 C25 1_555 1_555
C32 C23 1_555 1_555
C33 O12 1_555 1_555
H38 C33 1_555 1_555
H39 C33 1_555 1_555
H40 C33 1_555 1_555
C34 C36 1_555 1_555
O13 C40 1_555 1_555
O14 C36 1_555 1_555
C35 C38 1_555 1_555
C36 H41 1_555 1_555
O15 C40 1_555 1_555
C37 H42 1_555 1_555
H43 C37 1_555 1_555
C38 O14 1_555 1_555
H44 C38 1_555 1_555
H45 C38 1_555 1_555
C39 C34 1_555 1_555
C40 C35 1_555 1_555
C41 O15 1_555 1_555
H46 C41 1_555 1_555
H47 C41 1_555 1_555
C42 C34 1_555 1_555
H48 C42 1_555 1_555
C43 C42 1_555 1_555
H49 C43 1_555 1_555
H50 C43 1_555 1_555
H51 C43 1_555 1_555
O16 C36 1_555 1_555
C44 O16 1_555 1_555
H52 C44 1_555 1_555
H53 C44 1_555 1_555
H54 C44 1_555 1_555
C3 C6 1_555 1_555
C4 C9 1_555 1_555
C5 C8 1_555 1_555
C9 C10 1_555 1_555
C13 C16 1_555 1_555
C16 C18 1_555 1_555
C19 C21 1_555 1_555
C26 C27 1_555 1_555
C26 C32 1_555 1_555
C29 C30 1_555 1_555
C31 C32 1_555 1_555
C35 C39 1_555 1_555
C37 C39 1_555 1_555
C37 C41 1_555 1_555

#END
