
#######################################################################
#
#                 Cambridge Crystallographic Data Centre
#                                CCDC 
#
#######################################################################
#
# If this CIF has been generated from an entry in the Cambridge 
# Structural Database, then it will include bibliographic, chemical, 
# crystal, experimental, refinement or atomic coordinate data resulting 
# from the CCDC's data processing and validation procedures.
#
#######################################################################

data_UYUXUI
_chemical_formula_moiety         'C69 H57 N9 O9,C3 H6 O1'
_chemical_name_systematic        
'11,31,48-Tri-n-butoxy-8,14,28,34,45,51-hexaoxa-10,12,30,32,47,49,58,64,70-nonaazatridecacyclo[19.19.15.2^4,7^.2^15,18^.2^24,27^.2^35,38^.2^41,44^.2^52,55^.1^3,39^.1^9,13^.1^19,23^.1^29,33^.1^46,50^]doheptaconta-1,3(61),4,6,9(70),10,12,15,17,19(67),20,22,24,26,29(64),30,32,35,37,39,41,43,46(58),47,49,52,54,56,59,62,65,68,71-tritriacontaene acetone solvate'
_symmetry_cell_setting           monoclinic
_symmetry_space_group_name_H-M   'P 21/n'
_symmetry_Int_Tables_number      14
_space_group_name_Hall           '-P 2yn'
loop_
_symmetry_equiv_pos_site_id
_symmetry_equiv_pos_as_xyz
1 x,y,z
2 1/2-x,1/2+y,1/2-z
3 -x,-y,-z
4 1/2+x,1/2-y,1/2+z
_cell_length_a                   17.586(4)
_cell_length_b                   18.328(4)
_cell_length_c                   19.381(4)
_cell_angle_alpha                90
_cell_angle_beta                 91.08(3)
_cell_angle_gamma                90
_cell_volume                     6245.7
_exptl_crystal_colour            colorless
_exptl_crystal_description       plate
_cell_formula_units_Z            4
loop_
_atom_site_label
_atom_site_type_symbol
_atom_site_fract_x
_atom_site_fract_y
_atom_site_fract_z
O1 O 0.35601(11) 0.51366(10) -0.47297(10)
O2 O 0.48927(12) 0.33730(10) -0.58727(9)
O3 O 0.03720(10) -0.12150(10) -0.37901(11)
O4 O -0.13880(10) 0.05979(10) -0.40396(10)
O5 O 0.27839(11) 0.22107(11) 0.09210(9)
O6 O 0.50330(11) 0.12155(11) 0.02189(9)
O7 O 0.45258(11) 0.15195(11) 0.24971(9)
O8 O 0.45191(12) 0.55628(11) -0.68498(10)
O9 O -0.20057(12) -0.16984(12) -0.46198(12)
N1 N 0.47430(14) 0.44816(13) -0.63592(11)
N2 N 0.42034(13) 0.42140(12) -0.52730(11)
N3 N 0.40328(13) 0.53925(12) -0.57676(11)
N4 N -0.17171(13) -0.05521(13) -0.43373(12)
N5 N -0.07923(13) -0.15012(13) -0.42003(12)
N6 N -0.04726(12) -0.02787(12) -0.39141(11)
N7 N 0.38907(13) 0.17073(13) 0.05248(11)
N8 N 0.36638(13) 0.18916(13) 0.17197(11)
N9 N 0.48196(13) 0.13297(12) 0.13561(11)
C1 C 0.5897(2) 0.0636(3) 0.45422(18)
H1 H 0.6294 0.0302 0.4711
H2 H 0.5407 0.0493 0.4732
H3 H 0.6021 0.1135 0.4689
C2 C -0.1966(3) -0.2829(2) -0.3959(2)
H4 H -0.2315 -0.2516 -0.3694
H5 H -0.1473 -0.2837 -0.3705
C3 C -0.1846(2) -0.24773(18) -0.46400(19)
H6 H -0.1313 -0.2554 -0.4778
H7 H -0.2181 -0.2711 -0.4992
C4 C -0.02782(17) 0.13453(17) -0.41795(15)
H8 H -0.0321 0.1282 -0.4665
C5 C 0.50216(18) 0.28926(17) -0.47194(15)
H9 H 0.5455 0.3192 -0.4640
C6 C 0.26599(18) 0.29298(17) -0.01045(15)
H10 H 0.2872 0.3333 0.0139
C7 C 0.40957(18) 0.62522(17) -0.69040(16)
H11 H 0.4432 0.6644 -0.7073
H12 H 0.3907 0.6396 -0.6446
C8 C 0.5851(2) 0.0605(2) 0.37550(16)
H13 H 0.6346 0.0753 0.3564
H14 H 0.5747 0.0097 0.3607
C9 C 0.51814(17) 0.10825(16) 0.26930(14)
H15 H 0.5649 0.1288 0.2493
H16 H 0.5118 0.0575 0.2527
C10 C 0.38106(17) 0.19767(17) -0.49595(14)
H17 H 0.3409 0.1644 -0.5058
C11 C 0.39518(15) 0.48901(15) -0.52774(13)
C12 C 0.32860(15) 0.36775(15) -0.34407(14)
H18 H 0.3578 0.3367 -0.3146
C13 C 0.47420(17) 0.24582(17) -0.41939(15)
H19 H 0.4990 0.2467 -0.3754
C14 C 0.47046(17) 0.18822(16) -0.08280(14)
H20 H 0.4883 0.2322 -0.0623
C15 C 0.40814(17) 0.24160(17) -0.54880(14)
H21 H 0.3861 0.2390 -0.5939
C16 C 0.19020(14) 0.25027(14) -0.19011(13)
C17 C 0.24438(16) 0.46025(15) -0.42902(15)
H22 H 0.2158 0.4930 -0.4573
C18 C 0.22244(17) 0.16953(16) -0.01144(14)
H23 H 0.2137 0.1251 0.0124
C19 C 0.21129(14) 0.03097(14) -0.34078(13)
C20 C 0.24389(18) 0.29948(16) -0.07934(15)
H24 H 0.2507 0.3449 -0.1021
C21 C -0.14752(16) -0.12431(16) -0.43722(15)
C22 C 0.03241(17) 0.17324(17) -0.38908(14)
H25 H 0.0703 0.1925 -0.4183
C23 C 0.52317(18) 0.11010(18) 0.34719(14)
H26 H 0.4737 0.0950 0.3661
H27 H 0.5334 0.1607 0.3626
C24 C 0.44085(16) 0.18776(15) -0.14959(14)
H28 H 0.4387 0.2321 -0.1750
C25 C 0.36525(16) 0.41708(15) -0.38647(14)
H29 H 0.4192 0.4199 -0.3861
C26 C 0.09286(15) -0.06669(14) -0.36525(14)
C27 C -0.11800(15) -0.01081(15) -0.41000(14)
C28 C 0.20939(14) 0.30971(14) -0.30049(13)
C29 C 0.44204(16) 0.51379(15) -0.63000(13)
C30 C 0.14131(15) -0.04951(15) -0.41791(14)
H30 H 0.1344 -0.0708 -0.4623
C31 C 0.20801(16) 0.41011(15) -0.38724(14)
H31 H 0.1540 0.4077 -0.3879
C32 C 0.46669(16) 0.28838(15) -0.53479(13)
C33 C -0.03261(15) -0.09791(15) -0.39738(14)
C34 C 0.24968(15) 0.36333(14) -0.34430(13)
C35 C 0.45005(16) 0.05868(15) -0.07575(14)
H32 H 0.4540 0.0144 -0.0505
C36 C 0.46017(16) 0.40527(15) -0.58287(13)
C37 C 0.20086(17) 0.17680(15) -0.08021(14)
H33 H 0.1779 0.1367 -0.1035
C38 C 0.12793(14) 0.21345(14) -0.21881(13)
H34 H 0.1001 0.1806 -0.1910
C39 C 0.42065(16) 0.05915(15) -0.14257(13)
H35 H 0.4045 0.0146 -0.1632
C40 C 0.34760(16) 0.19267(15) 0.10535(13)
C41 C 0.40917(15) 0.16211(14) -0.30447(13)
H36 H 0.4536 0.1905 -0.2962
C42 C -0.07818(16) 0.11719(16) -0.30554(15)
H37 H -0.1165 0.0979 -0.2768
C43 C 0.10013(16) -0.03514(16) -0.30105(15)
H38 H 0.0656 -0.0466 -0.2655
C44 C 0.47339(15) 0.12358(15) -0.04674(13)
C45 C 0.43429(16) 0.15787(15) 0.18309(13)
C46 C 0.23107(15) 0.29790(14) -0.23212(13)
H39 H 0.2743 0.3225 -0.2135
C47 C -0.08109(15) 0.10550(14) -0.37531(14)
C48 C 0.41429(15) 0.12417(14) -0.18021(13)
C49 C 0.30994(14) 0.11955(14) -0.38060(13)
H40 H 0.2857 0.1193 -0.4248
C50 C 0.14672(14) 0.27257(14) -0.32741(13)
H41 H 0.1316 0.2807 -0.3741
C51 C 0.15931(15) 0.01391(15) -0.28952(14)
H42 H 0.1646 0.0365 -0.2456
C52 C 0.45522(15) 0.14300(15) 0.07156(13)
C53 C -0.01858(15) 0.15746(16) -0.27744(14)
H43 H -0.0169 0.1667 -0.2292
C54 C 0.41108(14) 0.20124(14) -0.42931(13)
C55 C 0.21224(15) 0.24182(14) -0.11582(13)
C56 C 0.32274(16) 0.46168(14) -0.42877(13)
C57 C 0.20023(15) -0.00083(15) -0.40540(14)
H44 H 0.2337 0.0111 -0.4416
C58 C 0.25647(16) 0.22712(15) 0.02158(13)
C59 C 0.10545(14) 0.22384(14) -0.28784(13)
C60 C 0.31259(15) 0.08184(14) -0.26212(13)
H45 H 0.2912 0.0550 -0.2253
C61 C 0.27812(14) 0.07934(14) -0.32755(13)
C62 C 0.37776(15) 0.12307(14) -0.25012(13)
C63 C 0.37645(14) 0.16033(14) -0.37092(13)
C64 C 0.03859(14) 0.18456(14) -0.31844(13)
C65 C -0.2295(5) -0.3625(4) -0.3962(6)
H46 H -0.2641 -0.3698 -0.3571
H47 H -0.2578 -0.3725 -0.4399
C66 C -0.1622(5) -0.4101(6) -0.3894(6)
H48 H -0.1785 -0.4613 -0.3889
H49 H -0.1347 -0.3988 -0.3463
H50 H -0.1287 -0.4020 -0.4285
C67 C 0.2174(3) 0.5566(4) -0.7683(4)
H51 H 0.1770 0.5262 -0.7493
H52 H 0.2366 0.5338 -0.8103
H53 H 0.1971 0.6051 -0.7795
C68 C 0.2831(3) 0.5641(3) -0.7145(3)
H54 H 0.2629 0.5835 -0.6708
H55 H 0.3054 0.5154 -0.7050
C69 C 0.3433(3) 0.6141(3) -0.7404(3)
H56 H 0.3200 0.6621 -0.7508
H57 H 0.3629 0.5942 -0.7841
O10 O 0.39738(15) 0.79874(16) -0.71353(16)
C70 C 0.3639(2) 0.8481(3) -0.6871(2)
C71 C 0.2776(3) 0.8509(4) -0.6973(4)
H58 H 0.2608 0.8091 -0.7252
H59 H 0.2634 0.8963 -0.7211
H60 H 0.2533 0.8492 -0.6523
C72 C 0.4009(4) 0.9054(4) -0.6446(4)
H61 H 0.4196 0.9442 -0.6746
H62 H 0.4437 0.8841 -0.6184
H63 H 0.3641 0.9257 -0.6125
C73? C -0.1817(8) -0.3665(5) -0.4169(7)
C74? C -0.2335(10) -0.4116(9) -0.3753(9)
C75? C 0.2219(6) 0.5918(9) -0.7946(6)
C76? C 0.3069(6) 0.5879(7) -0.7729(5)
C77? C 0.3238(4) 0.6190(6) -0.7035(5)
C78? C 0.3015(12) 0.8667(13) -0.6361(12)
C79? C 0.4182(12) 0.9118(10) -0.6998(16)
H64? H -0.1924 -0.3738 -0.4668
H65? H -0.1281 -0.3799 -0.4070
H66? H -0.2073 -0.4565 -0.3609
H67? H -0.2788 -0.4241 -0.4031
H68? H -0.2486 -0.3842 -0.3344
H69? H 0.2144 0.5673 -0.8392
H70? H 0.2063 0.6429 -0.7987
H71? H 0.1912 0.5675 -0.7598
H72? H 0.3233 0.5363 -0.7734
H73? H 0.3371 0.6145 -0.8074
H74? H 0.3014 0.5873 -0.6678
H75? H 0.3003 0.6679 -0.7000
H76? H 0.3237 0.8705 -0.5895
H77? H 0.2628 0.8283 -0.6371
H78? H 0.2780 0.9134 -0.6491
H79? H 0.4682 0.9007 -0.6792
H80? H 0.3979 0.9562 -0.6787
H81? H 0.4231 0.9194 -0.7496
loop_
_geom_bond_atom_site_label_1
_geom_bond_atom_site_label_2
_geom_bond_site_symmetry_1
_geom_bond_site_symmetry_2
O1 C11 1_555 1_555
O2 C32 1_555 1_555
O3 C26 1_555 1_555
O4 C27 1_555 1_555
O5 C40 1_555 1_555
O6 C44 1_555 1_555
O7 C9 1_555 1_555
O8 C7 1_555 1_555
O9 C3 1_555 1_555
O10 C70 1_555 1_555
N1 C29 1_555 1_555
N2 C11 1_555 1_555
N3 C11 1_555 1_555
N4 C21 1_555 1_555
N5 C21 1_555 1_555
N6 C27 1_555 1_555
N7 C40 1_555 1_555
N8 C40 1_555 1_555
N9 C45 1_555 1_555
C1 H1 1_555 1_555
H2 C1 1_555 1_555
H3 C1 1_555 1_555
C2 H4 1_555 1_555
H5 C2 1_555 1_555
C3 C2 1_555 1_555
H6 C3 1_555 1_555
H7 C3 1_555 1_555
C4 H8 1_555 1_555
C5 H9 1_555 1_555
C6 H10 1_555 1_555
C7 H11 1_555 1_555
H12 C7 1_555 1_555
C8 C1 1_555 1_555
H13 C8 1_555 1_555
H14 C8 1_555 1_555
C9 H15 1_555 1_555
H16 C9 1_555 1_555
C10 H17 1_555 1_555
C12 H18 1_555 1_555
C13 C5 1_555 1_555
H19 C13 1_555 1_555
C14 H20 1_555 1_555
C15 C10 1_555 1_555
H21 C15 1_555 1_555
C16 C38 1_555 1_555
C17 H22 1_555 1_555
C18 H23 1_555 1_555
C19 C51 1_555 1_555
C20 C6 1_555 1_555
H24 C20 1_555 1_555
C21 O9 1_555 1_555
C22 C4 1_555 1_555
H25 C22 1_555 1_555
C23 C8 1_555 1_555
H26 C23 1_555 1_555
H27 C23 1_555 1_555
C24 C14 1_555 1_555
H28 C24 1_555 1_555
C25 C12 1_555 1_555
H29 C25 1_555 1_555
C26 C30 1_555 1_555
C27 N4 1_555 1_555
C28 C34 1_555 1_555
C29 O8 1_555 1_555
C30 H30 1_555 1_555
C31 C17 1_555 1_555
H31 C31 1_555 1_555
C32 C5 1_555 1_555
C33 O3 1_555 1_555
C34 C12 1_555 1_555
C35 H32 1_555 1_555
C36 O2 1_555 1_555
C37 C18 1_555 1_555
H33 C37 1_555 1_555
C38 H34 1_555 1_555
C39 C35 1_555 1_555
H35 C39 1_555 1_555
C41 H36 1_555 1_555
C42 H37 1_555 1_555
C43 C26 1_555 1_555
H38 C43 1_555 1_555
C44 C14 1_555 1_555
C45 O7 1_555 1_555
C46 C16 1_555 1_555
H39 C46 1_555 1_555
C47 O4 1_555 1_555
C48 C24 1_555 1_555
C49 H40 1_555 1_555
C50 C28 1_555 1_555
H41 C50 1_555 1_555
C51 C43 1_555 1_555
H42 C51 1_555 1_555
C52 O6 1_555 1_555
C53 C42 1_555 1_555
H43 C53 1_555 1_555
C54 C10 1_555 1_555
C55 C16 1_555 1_555
C56 O1 1_555 1_555
C57 C19 1_555 1_555
H44 C57 1_555 1_555
C58 O5 1_555 1_555
C59 C38 1_555 1_555
C60 H45 1_555 1_555
C61 C19 1_555 1_555
C62 C41 1_555 1_555
C63 C41 1_555 1_555
C64 C22 1_555 1_555
C65 C2 1_555 1_555
H46 C65 1_555 1_555
H47 C65 1_555 1_555
C66 C65 1_555 1_555
H48 C66 1_555 1_555
H49 C66 1_555 1_555
H50 C66 1_555 1_555
C67 H51 1_555 1_555
H52 C67 1_555 1_555
H53 C67 1_555 1_555
C68 C67 1_555 1_555
H54 C68 1_555 1_555
H55 C68 1_555 1_555
C69 C7 1_555 1_555
H56 C69 1_555 1_555
H57 C69 1_555 1_555
C70 C71 1_555 1_555
C71 H58 1_555 1_555
H59 C71 1_555 1_555
H60 C71 1_555 1_555
C72 C70 1_555 1_555
H61 C72 1_555 1_555
H62 C72 1_555 1_555
H63 C72 1_555 1_555
N1 C36 1_555 1_555
N2 C36 1_555 1_555
N3 C29 1_555 1_555
N5 C33 1_555 1_555
N6 C33 1_555 1_555
N7 C52 1_555 1_555
N8 C45 1_555 1_555
N9 C52 1_555 1_555
C4 C47 1_555 1_555
C6 C58 1_555 1_555
C9 C23 1_555 1_555
C13 C54 1_555 1_555
C15 C32 1_555 1_555
C17 C56 1_555 1_555
C18 C58 1_555 1_555
C20 C55 1_555 1_555
C25 C56 1_555 1_555
C28 C46 1_555 1_555
C30 C57 1_555 1_555
C31 C34 1_555 1_555
C35 C44 1_555 1_555
C37 C55 1_555 1_555
C39 C48 1_555 1_555
C42 C47 1_555 1_555
C48 C62 1_555 1_555
C49 C61 1_555 1_555
C49 C63 1_555 1_555
C50 C59 1_555 1_555
C53 C64 1_555 1_555
C54 C63 1_555 1_555
C59 C64 1_555 1_555
C60 C61 1_555 1_555
C60 C62 1_555 1_555
C68 C69 1_555 1_555

#END
