
#######################################################################
#
#                 Cambridge Crystallographic Data Centre
#                                CCDC 
#
#######################################################################
#
# If this CIF has been generated from an entry in the Cambridge 
# Structural Database, then it will include bibliographic, chemical, 
# crystal, experimental, refinement or atomic coordinate data resulting 
# from the CCDC's data processing and validation procedures.
#
#######################################################################

data_UZAJOW
_chemical_formula_moiety         'C23 H16 N2 S1'
_chemical_name_systematic        
1-phenyl-N-(3-phenyl-8H-thieno[2,3-b]indol-2-yl)methanimine
_symmetry_cell_setting           monoclinic
_symmetry_space_group_name_H-M   'C 2/c'
_symmetry_Int_Tables_number      15
_space_group_name_Hall           '-C 2yn'
loop_
_symmetry_equiv_pos_site_id
_symmetry_equiv_pos_as_xyz
1 x,y,z
2 -x,y,1/2-z
3 1/2+x,1/2+y,z
4 1/2-x,1/2+y,1/2-z
5 -x,-y,-z
6 x,-y,1/2+z
7 1/2-x,1/2-y,-z
8 1/2+x,1/2-y,1/2+z
_cell_length_a                   31.093(6)
_cell_length_b                   10.519(2)
_cell_length_c                   10.657(2)
_cell_angle_alpha                90
_cell_angle_beta                 97.787(3)
_cell_angle_gamma                90
_cell_volume                     3453.41
_exptl_crystal_colour            yellow
_exptl_crystal_description       plate
_cell_formula_units_Z            8
loop_
_atom_site_label
_atom_site_type_symbol
_atom_site_fract_x
_atom_site_fract_y
_atom_site_fract_z
S1 S 0.69487(2) 0.46000(5) 0.35935(4)
N1 N 0.76709(5) 0.46294(15) 0.55081(14)
H1 H 0.7838 0.5142 0.5173
N2 N 0.61632(5) 0.33524(15) 0.32308(14)
C1 C 0.74054(6) 0.32458(17) 0.68665(16)
C2 C 0.74400(6) 0.25094(18) 0.79681(16)
H2 H 0.7211 0.1993 0.8128
C3 C 0.78179(6) 0.25544(19) 0.88200(17)
H3 H 0.7843 0.2048 0.9541
C4 C 0.81626(6) 0.33478(19) 0.86153(17)
H4 H 0.8410 0.3376 0.9211
C5 C 0.81393(6) 0.40944(19) 0.75341(17)
H5 H 0.8366 0.4630 0.7396
C6 C 0.77653(6) 0.40119(17) 0.66678(16)
C7 C 0.72616(6) 0.42683(17) 0.50027(16)
C8 C 0.70778(6) 0.34416(16) 0.57796(16)
C9 C 0.66546(6) 0.30312(17) 0.52229(16)
C10 C 0.65443(6) 0.35581(17) 0.40348(16)
C11 C 0.63619(6) 0.21997(18) 0.58422(16)
C12 C 0.63040(6) 0.24142(19) 0.71041(17)
H6 H 0.6460 0.3057 0.7560
C13 C 0.60180(6) 0.1684(2) 0.76830(19)
H7 H 0.5979 0.1848 0.8518
C14 C 0.57886(6) 0.0708(2) 0.7024(2)
H8 H 0.5596 0.0218 0.7414
C15 C 0.58478(6) 0.0467(2) 0.5782(2)
H9 H 0.5698 -0.0195 0.5340
C16 C 0.61302(6) 0.12105(19) 0.51931(18)
H10 H 0.6165 0.1047 0.4356
C17 C 0.61125(6) 0.38444(18) 0.21207(17)
H11 H 0.6332 0.4366 0.1899
C18 C 0.57306(6) 0.36350(18) 0.11816(17)
C19 C 0.54033(7) 0.2802(2) 0.1398(2)
H12 H 0.5419 0.2378 0.2169
C20 C 0.50539(8) 0.2600(3) 0.0469(2)
H13 H 0.4836 0.2034 0.0615
C21 C 0.50268(7) 0.3231(2) -0.0672(2)
H14 H 0.4790 0.3094 -0.1292
C22 C 0.53475(7) 0.4060(2) -0.08951(19)
H15 H 0.5329 0.4490 -0.1663
C23 C 0.56994(7) 0.4257(2) 0.00266(18)
H16 H 0.5918 0.4814 -0.0131
loop_
_geom_bond_atom_site_label_1
_geom_bond_atom_site_label_2
_geom_bond_site_symmetry_1
_geom_bond_site_symmetry_2
S1 C7 1_555 1_555
N1 H1 1_555 1_555
N2 C10 1_555 1_555
C1 C2 1_555 1_555
C2 H2 1_555 1_555
C3 C2 1_555 1_555
H3 C3 1_555 1_555
C4 C3 1_555 1_555
H4 C4 1_555 1_555
C5 C4 1_555 1_555
H5 C5 1_555 1_555
C6 N1 1_555 1_555
C7 N1 1_555 1_555
C8 C1 1_555 1_555
C9 C8 1_555 1_555
C10 S1 1_555 1_555
C11 C9 1_555 1_555
C12 C11 1_555 1_555
H6 C12 1_555 1_555
C13 C12 1_555 1_555
H7 C13 1_555 1_555
C14 C13 1_555 1_555
H8 C14 1_555 1_555
C15 C14 1_555 1_555
H9 C15 1_555 1_555
C16 C11 1_555 1_555
H10 C16 1_555 1_555
C17 N2 1_555 1_555
H11 C17 1_555 1_555
C18 C17 1_555 1_555
C19 C18 1_555 1_555
H12 C19 1_555 1_555
C20 C19 1_555 1_555
H13 C20 1_555 1_555
C21 C20 1_555 1_555
H14 C21 1_555 1_555
C22 C21 1_555 1_555
H15 C22 1_555 1_555
C23 C18 1_555 1_555
H16 C23 1_555 1_555
C1 C6 1_555 1_555
C5 C6 1_555 1_555
C7 C8 1_555 1_555
C9 C10 1_555 1_555
C15 C16 1_555 1_555
C22 C23 1_555 1_555

#END
