
#######################################################################
#
#                 Cambridge Crystallographic Data Centre
#                                CCDC 
#
#######################################################################
#
# If this CIF has been generated from an entry in the Cambridge 
# Structural Database, then it will include bibliographic, chemical, 
# crystal, experimental, refinement or atomic coordinate data resulting 
# from the CCDC's data processing and validation procedures.
#
#######################################################################

data_UZAKIR
_chemical_formula_moiety         'C13 H13 N3 O4'
_chemical_name_systematic        
5-(azido(phenyl)methyl)-6-hydroxytetrahydrofuro[3,2-b]furan-2(3H)-one
_chemical_properties_biological  
'influence on the K562 cell cycle was investigated. In vitro cytotoxicity tested against K562, HL-60, Jurkat, Raji, MCF-7, HeLa, A549, MRC-5.'
_symmetry_cell_setting           monoclinic
_symmetry_space_group_name_H-M   'P 21'
_symmetry_Int_Tables_number      4
_space_group_name_Hall           'P 2yb'
loop_
_symmetry_equiv_pos_site_id
_symmetry_equiv_pos_as_xyz
1 x,y,z
2 -x,1/2+y,-z
_cell_length_a                   7.7234(6)
_cell_length_b                   7.6579(9)
_cell_length_c                   11.6081(10)
_cell_angle_alpha                90
_cell_angle_beta                 91.013(7)
_cell_angle_gamma                90
_cell_volume                     686.454
_exptl_crystal_description       prism
_cell_formula_units_Z            2
loop_
_atom_site_label
_atom_site_type_symbol
_atom_site_fract_x
_atom_site_fract_y
_atom_site_fract_z
O1 O 0.6381(3) 0.8049(5) 0.50259(19)
N1 N 0.9923(5) 1.2378(7) 0.3152(3)
C1 C 0.4822(5) 0.7785(7) 0.4525(4)
O2 O 0.3536(4) 0.8258(6) 0.5010(3)
N2 N 1.0982(6) 1.3267(7) 0.2713(3)
C2 C 0.5022(5) 0.6874(7) 0.3409(4)
H1 H 0.4275 0.7385 0.2819
H2 H 0.4749 0.5643 0.348
O3 O 0.7168(4) 0.8664(4) 0.2466(2)
N3 N 1.2000(9) 1.4166(12) 0.2389(5)
C3 C 0.6893(5) 0.7129(7) 0.3127(3)
H3 H 0.7376 0.6095 0.2753
C4 C 0.7755(5) 0.7465(6) 0.4295(3)
H4 H 0.8342 0.6426 0.4601
O4 O 1.0535(3) 0.8237(7) 0.3624(2)
H5 H 1.1293 0.823 0.4128
C5 C 0.8991(4) 0.8935(7) 0.4077(3)
H6 H 0.9212 0.964 0.4768
C6 C 0.8021(5) 0.9952(6) 0.3146(3)
H7 H 0.7149 1.069 0.3509
C7 C 0.9100(5) 1.1065(6) 0.2364(3)
H8 H 1.0012 1.0336 0.2037
C8 C 0.8115(6) 1.1937(6) 0.1394(3)
C9 C 0.8770(6) 1.1909(8) 0.0289(4)
H9 H 0.9792 1.1313 0.0143
C10 C 0.7895(9) 1.2774(10) -0.0598(4)
H10 H 0.832 1.273 -0.1342
C11 C 0.6431(10) 1.3679(9) -0.0390(5)
H11 H 0.5867 1.4271 -0.0987
C12 C 0.5784(7) 1.3723(9) 0.0692(5)
H12 H 0.4782 1.4354 0.0837
C13 C 0.6613(7) 1.2832(8) 0.1576(4)
H13 H 0.6141 1.2841 0.2307
loop_
_geom_bond_atom_site_label_1
_geom_bond_atom_site_label_2
_geom_bond_site_symmetry_1
_geom_bond_site_symmetry_2
O1 C1 1_555 1_555
N1 N2 1_555 1_555
C1 O2 1_555 1_555
N2 N3 1_555 1_555
C2 C1 1_555 1_555
H1 C2 1_555 1_555
H2 C2 1_555 1_555
O3 C3 1_555 1_555
C3 C2 1_555 1_555
H3 C3 1_555 1_555
C4 O1 1_555 1_555
H4 C4 1_555 1_555
O4 H5 1_555 1_555
C5 C4 1_555 1_555
H6 C5 1_555 1_555
C6 O3 1_555 1_555
H7 C6 1_555 1_555
C7 N1 1_555 1_555
H8 C7 1_555 1_555
C8 C7 1_555 1_555
C9 C8 1_555 1_555
H9 C9 1_555 1_555
C10 C9 1_555 1_555
H10 C10 1_555 1_555
C11 C10 1_555 1_555
H11 C11 1_555 1_555
C12 C11 1_555 1_555
H12 C12 1_555 1_555
C13 C8 1_555 1_555
H13 C13 1_555 1_555
C3 C4 1_555 1_555
O4 C5 1_555 1_555
C5 C6 1_555 1_555
C6 C7 1_555 1_555
C12 C13 1_555 1_555

#END
