
#######################################################################
#
#                 Cambridge Crystallographic Data Centre
#                                CCDC 
#
#######################################################################
#
# If this CIF has been generated from an entry in the Cambridge 
# Structural Database, then it will include bibliographic, chemical, 
# crystal, experimental, refinement or atomic coordinate data resulting 
# from the CCDC's data processing and validation procedures.
#
#######################################################################

data_UZAKUD
_chemical_formula_moiety         'C7 H9 N3 O4'
_chemical_name_systematic        
5-(azidomethyl)-6-hydroxytetrahydrofuro[3,2-b]furan-2(3H)-one
_chemical_properties_biological  
'In vitro cytotoxicity tested against K562, HL-60, Jurkat, Raji, MCF-7, HeLa, A549, MRC-5.'
_symmetry_cell_setting           orthorhombic
_symmetry_space_group_name_H-M   'P 21 21 21'
_symmetry_Int_Tables_number      19
_space_group_name_Hall           'P 2ac 2ab'
loop_
_symmetry_equiv_pos_site_id
_symmetry_equiv_pos_as_xyz
1 x,y,z
2 1/2-x,-y,1/2+z
3 1/2+x,1/2-y,-z
4 -x,1/2+y,1/2-z
_cell_length_a                   5.50449(13)
_cell_length_b                   7.90177(18)
_cell_length_c                   20.4856(5)
_cell_angle_alpha                90
_cell_angle_beta                 90
_cell_angle_gamma                90
_cell_volume                     891.026
_exptl_crystal_colour            colorless
_exptl_crystal_description       prism
_cell_formula_units_Z            4
loop_
_atom_site_label
_atom_site_type_symbol
_atom_site_fract_x
_atom_site_fract_y
_atom_site_fract_z
O1 O -0.2306(3) -0.35097(16) 0.91947(7)
O2 O -0.2132(2) -0.07984(13) 0.94418(6)
O3 O 0.2199(2) 0.07893(16) 0.85925(6)
O4 O 0.0129(3) 0.34652(17) 0.94149(7)
H1 H -0.054(5) 0.434(4) 0.9284(13)
N1 N 0.1387(3) 0.2633(2) 0.73691(8)
N2 N 0.3407(3) 0.1998(2) 0.73476(8)
N3 N 0.5205(4) 0.1391(4) 0.72535(11)
C1 C -0.1106(3) -0.22381(19) 0.92345(8)
C2 C 0.1522(3) -0.1982(2) 0.90939(8)
H2 H 0.1896 -0.2311 0.8649
H3 H 0.2513 -0.2649 0.9389
C3 C 0.1983(3) -0.01077(19) 0.91937(7)
H4 H 0.34 0.0084 0.9474
C4 C -0.0354(3) 0.05374(18) 0.95177(7)
H5 H -0.0093 0.0823 0.9978
C5 C -0.1078(3) 0.20755(18) 0.91212(8)
H6 H -0.2843 0.2233 0.9108
C6 C -0.0037(3) 0.16343(19) 0.84541(8)
H7 H -0.1141 0.0859 0.8227
C7 C 0.0504(4) 0.3136(2) 0.80216(9)
H8 H -0.096 0.3807 0.7973
H9 H 0.1721 0.3838 0.8231
loop_
_geom_bond_atom_site_label_1
_geom_bond_atom_site_label_2
_geom_bond_site_symmetry_1
_geom_bond_site_symmetry_2
O1 C1 1_555 1_555
O2 C1 1_555 1_555
O3 C3 1_555 1_555
O4 H1 1_555 1_555
N1 N2 1_555 1_555
N2 N3 1_555 1_555
C1 C2 1_555 1_555
C2 H2 1_555 1_555
H3 C2 1_555 1_555
C3 C2 1_555 1_555
H4 C3 1_555 1_555
C4 O2 1_555 1_555
H5 C4 1_555 1_555
C5 O4 1_555 1_555
H6 C5 1_555 1_555
C6 O3 1_555 1_555
H7 C6 1_555 1_555
C7 N1 1_555 1_555
H8 C7 1_555 1_555
H9 C7 1_555 1_555
C3 C4 1_555 1_555
C4 C5 1_555 1_555
C5 C6 1_555 1_555
C6 C7 1_555 1_555

#END
