
#######################################################################
#
#                 Cambridge Crystallographic Data Centre
#                                CCDC 
#
#######################################################################
#
# If this CIF has been generated from an entry in the Cambridge 
# Structural Database, then it will include bibliographic, chemical, 
# crystal, experimental, refinement or atomic coordinate data resulting 
# from the CCDC's data processing and validation procedures.
#
#######################################################################

data_UZAKEN
_chemical_formula_moiety         'C13 H13 F1 O4'
_chemical_name_systematic        
5-(fluoro(phenyl)methyl)-6-hydroxytetrahydrofuro[3,2-b]furan-2(3H)-one
_chemical_properties_biological  
'In vitro cytotoxicity tested against K562, HL-60, Jurkat, Raji, MCF-7, HeLa, A549, MRC-5.  Exhibited antitumour activity in a low submicromolar range (IC50 0.03  M) against Raji cell line'
_symmetry_cell_setting           orthorhombic
_symmetry_space_group_name_H-M   'P 21 21 21'
_symmetry_Int_Tables_number      19
_space_group_name_Hall           'P 2ac 2ab'
loop_
_symmetry_equiv_pos_site_id
_symmetry_equiv_pos_as_xyz
1 x,y,z
2 1/2-x,-y,1/2+z
3 1/2+x,1/2-y,-z
4 -x,1/2+y,1/2-z
_cell_length_a                   5.7406(6)
_cell_length_b                   9.3164(10)
_cell_length_c                   22.935(2)
_cell_angle_alpha                90
_cell_angle_beta                 90
_cell_angle_gamma                90
_cell_volume                     1226.6
_exptl_crystal_colour            colorless
_exptl_crystal_description       needle
_cell_formula_units_Z            4
loop_
_atom_site_label
_atom_site_type_symbol
_atom_site_fract_x
_atom_site_fract_y
_atom_site_fract_z
F1 F 0.4763(4) 0.17243(19) 0.87140(8)
O1 O -0.0859(5) -0.0114(3) 0.65553(10)
O2 O 0.0122(4) -0.1600(3) 0.72639(8)
O3 O 0.4755(4) -0.0162(3) 0.78022(8)
O4 O 0.3414(4) -0.2574(2) 0.85515(9)
H1 H 0.284 -0.3378 0.8571
C1 C 0.2191(5) -0.2067(3) 0.75721(11)
H2 H 0.2487 -0.3094 0.7517
C2 C 0.0643(6) -0.0643(3) 0.68479(13)
C3 C 0.3216(6) -0.0419(4) 0.68153(13)
H3 H 0.3587 0.0597 0.6818
H4 H 0.3845 -0.0843 0.6463
C4 C 0.4200(5) -0.1152(3) 0.73496(11)
H5 H 0.5549 -0.1748 0.7249
C5 C 0.1957(5) -0.1676(3) 0.82176(11)
H6 H 0.0335 -0.1709 0.835
C6 C 0.2932(5) -0.0163(3) 0.82242(11)
H7 H 0.1716 0.0512 0.8103
C7 C 0.3942(6) 0.0319(3) 0.88024(12)
H8 H 0.5251 -0.0305 0.8907
C8 C 0.2207(5) 0.0325(3) 0.92894(11)
C9 C 0.0348(6) 0.1265(4) 0.92879(13)
H9 H 0.0161 0.1901 0.8979
C10 C 0.2456(8) -0.0606(4) 0.97520(13)
H10 H 0.3711 -0.1237 0.9763
C11 C -0.1231(8) 0.1268(6) 0.97389(16)
H11 H -0.2473 0.1909 0.9734
C12 C -0.0984(8) 0.0340(6) 1.01903(17)
H12 H -0.2057 0.0345 1.0494
C13 C 0.0849(10) -0.0605(5) 1.01991(16)
H13 H 0.1008 -0.1247 1.0507
loop_
_geom_bond_atom_site_label_1
_geom_bond_atom_site_label_2
_geom_bond_site_symmetry_1
_geom_bond_site_symmetry_2
F1 C7 1_555 1_555
O1 C2 1_555 1_555
O2 C1 1_555 1_555
O3 C4 1_555 1_555
O4 H1 1_555 1_555
C1 H2 1_555 1_555
C2 O2 1_555 1_555
C3 C2 1_555 1_555
H3 C3 1_555 1_555
H4 C3 1_555 1_555
C4 C1 1_555 1_555
H5 C4 1_555 1_555
C5 O4 1_555 1_555
H6 C5 1_555 1_555
C6 O3 1_555 1_555
H7 C6 1_555 1_555
C7 C6 1_555 1_555
H8 C7 1_555 1_555
C8 C7 1_555 1_555
C9 C8 1_555 1_555
H9 C9 1_555 1_555
C10 C8 1_555 1_555
H10 C10 1_555 1_555
C11 C9 1_555 1_555
H11 C11 1_555 1_555
C12 C11 1_555 1_555
H12 C12 1_555 1_555
C13 C10 1_555 1_555
H13 C13 1_555 1_555
C1 C5 1_555 1_555
C3 C4 1_555 1_555
C5 C6 1_555 1_555
C12 C13 1_555 1_555

#END
