
#######################################################################
#
#                 Cambridge Crystallographic Data Centre
#                                CCDC 
#
#######################################################################
#
# If this CIF has been generated from an entry in the Cambridge 
# Structural Database, then it will include bibliographic, chemical, 
# crystal, experimental, refinement or atomic coordinate data resulting 
# from the CCDC's data processing and validation procedures.
#
#######################################################################

data_UZARET
_chemical_formula_moiety         'C17 H14 O6,H2 O1'
_chemical_name_systematic        
'5,7-Dihydroxy-4-oxo-2-phenyl-3,4-dihydro-2H-chromen-3-yl acetate monohydrate'
_symmetry_cell_setting           monoclinic
_symmetry_space_group_name_H-M   'P 21'
_symmetry_Int_Tables_number      4
_space_group_name_Hall           'P 2yb'
loop_
_symmetry_equiv_pos_site_id
_symmetry_equiv_pos_as_xyz
1 x,y,z
2 -x,1/2+y,-z
_cell_length_a                   10.686(3)
_cell_length_b                   6.8641(16)
_cell_length_c                   11.267(3)
_cell_angle_alpha                90
_cell_angle_beta                 107.465(4)
_cell_angle_gamma                90
_cell_volume                     788.334
_exptl_crystal_colour            white
_exptl_crystal_description       block
_cell_formula_units_Z            2
loop_
_atom_site_label
_atom_site_type_symbol
_atom_site_fract_x
_atom_site_fract_y
_atom_site_fract_z
C1 C 1.2055(2) 0.9289(4) -0.0449(2)
C2 C 1.2755(2) 0.9475(4) -0.1303(2)
H1 H 1.2307 0.9529 -0.2169
C3 C 1.4110(2) 0.9580(4) -0.0880(2)
C4 C 1.4793(2) 0.9508(4) 0.0418(2)
C5 C 1.6206(2) 0.9486(4) 0.0876(2)
C6 C 1.6800(2) 0.9297(4) 0.2276(2)
H2 H 1.6968 0.7892 0.2502
C7 C 1.5892(2) 1.0157(4) 0.2966(2)
H3 H 1.5799 1.1590 0.2804
C8 C 1.4037(2) 0.9341(4) 0.1247(2)
C9 C 1.2686(2) 0.9225(4) 0.0833(2)
H4 H 1.2195 0.9103 0.1406
O1 O 1.80067(15) 1.0345(3) 0.26470(15)
C10 C 1.9113(2) 0.9353(4) 0.3289(2)
C11 C 2.0249(2) 1.0717(5) 0.3663(3)
H5 H 2.1060 1.0000 0.3732
H6 H 2.0298 1.1305 0.4468
H7 H 2.0135 1.1743 0.3035
C12 C 1.6398(2) 0.9811(4) 0.4350(2)
C13 C 1.6130(2) 0.8072(5) 0.4867(3)
H8 H 1.5607 0.7096 0.4353
C14 C 1.6638(3) 0.7781(5) 0.6142(3)
H9 H 1.6445 0.6607 0.6498
C15 C 1.7415(2) 0.9160(6) 0.6897(2)
H10 H 1.7765 0.8935 0.7766
C16 C 1.7687(3) 1.0884(5) 0.6382(3)
H11 H 1.8226 1.1843 0.6898
C17 C 1.7172(3) 1.1210(5) 0.5116(2)
H12 H 1.7350 1.2402 0.4770
O2 O 1.07324(15) 0.9240(3) -0.09139(15)
H13 H 1.0402 0.9183 -0.0326
O3 O 1.47701(16) 0.9756(3) -0.17222(14)
H14 H 1.5579 0.9673 -0.1361
O4 O 1.69183(15) 0.9568(3) 0.01845(15)
O5 O 1.46152(15) 0.9243(3) 0.25060(14)
O6 O 1.91178(18) 0.7650(3) 0.35001(18)
O7 O 0.95817(16) 0.8498(3) 0.08024(16)
H15 H 0.8810 0.8954 0.0647
H16 H 0.9588 0.7348 0.1083
loop_
_geom_bond_atom_site_label_1
_geom_bond_atom_site_label_2
_geom_bond_site_symmetry_1
_geom_bond_site_symmetry_2
C1 C2 1_555 1_555
C2 H1 1_555 1_555
C3 C2 1_555 1_555
C4 C3 1_555 1_555
C5 C4 1_555 1_555
C6 C5 1_555 1_555
H2 C6 1_555 1_555
C7 C6 1_555 1_555
H3 C7 1_555 1_555
C8 C4 1_555 1_555
C9 C1 1_555 1_555
H4 C9 1_555 1_555
O1 C6 1_555 1_555
C10 O1 1_555 1_555
C11 C10 1_555 1_555
H5 C11 1_555 1_555
H6 C11 1_555 1_555
H7 C11 1_555 1_555
C12 C7 1_555 1_555
C13 C12 1_555 1_555
H8 C13 1_555 1_555
C14 C13 1_555 1_555
H9 C14 1_555 1_555
C15 C14 1_555 1_555
H10 C15 1_555 1_555
C16 C15 1_555 1_555
H11 C16 1_555 1_555
C17 C12 1_555 1_555
H12 C17 1_555 1_555
O2 C1 1_555 1_555
H13 O2 1_555 1_555
O3 C3 1_555 1_555
H14 O3 1_555 1_555
O4 C5 1_555 1_555
O5 C7 1_555 1_555
O6 C10 1_555 1_555
O7 H15 1_555 1_555
H16 O7 1_555 1_555
C8 C9 1_555 1_555
C8 O5 1_555 1_555
C16 C17 1_555 1_555

#END
