
#######################################################################
#
#                 Cambridge Crystallographic Data Centre
#                                CCDC 
#
#######################################################################
#
# If this CIF has been generated from an entry in the Cambridge 
# Structural Database, then it will include bibliographic, chemical, 
# crystal, experimental, refinement or atomic coordinate data resulting 
# from the CCDC's data processing and validation procedures.
#
#######################################################################

data_UZAVEX
_chemical_formula_moiety         'C12 H12 O8,C2 H6 O1,2(H2 O1)'
_chemical_name_systematic        
'Bicyclo[2.2.2]oct-7-ene-2,3,5,6-tetracarboxylic acid dimethyl ether solvate dihydrate'
_symmetry_cell_setting           triclinic
_symmetry_space_group_name_H-M   'P -1'
_symmetry_Int_Tables_number      2
_space_group_name_Hall           '-P 1'
loop_
_symmetry_equiv_pos_site_id
_symmetry_equiv_pos_as_xyz
1 x,y,z
2 -x,-y,-z
_cell_length_a                   8.8554(15)
_cell_length_b                   9.5566(16)
_cell_length_c                   10.4388(17)
_cell_angle_alpha                110.863(3)
_cell_angle_beta                 91.127(3)
_cell_angle_gamma                91.429(3)
_cell_volume                     824.846
_cell_formula_units_Z            2
loop_
_atom_site_label
_atom_site_type_symbol
_atom_site_fract_x
_atom_site_fract_y
_atom_site_fract_z
C1 C 0.3254(3) 0.7846(3) 0.5569(3)
H1 H 0.3262 0.7933 0.4662
C2 C 0.3383(4) 0.9450(4) 0.6666(3)
H2 H 0.4356 0.9939 0.6620
C3 C 0.2066(3) 1.0309(3) 0.6352(3)
H3 H 0.2093 1.0112 0.5366
C4 C 0.0544(3) 0.9600(3) 0.6573(3)
H4 H -0.0026 0.9247 0.5696
C5 C 0.0894(4) 0.8215(3) 0.6954(3)
H5 H -0.0042 0.7748 0.7121
C6 C 0.1700(3) 0.7122(3) 0.5716(3)
H6 H 0.1087 0.7044 0.4900
C7 C 0.1915(4) 0.8683(4) 0.8192(3)
H7 H 0.1665 0.8538 0.8998
C8 C 0.3206(4) 0.9321(4) 0.8050(3)
H8 H 0.3945 0.9663 0.8747
C9 C 0.1787(3) 0.5546(4) 0.5729(3)
C10 C 0.4626(4) 0.7021(4) 0.5720(3)
C11 C 0.2219(4) 1.1988(4) 0.7038(3)
C12 C -0.0452(4) 1.0635(4) 0.7639(3)
O1 O -0.0036(3) 1.1531(3) 0.8707(2)
O2 O -0.1874(3) 1.0425(3) 0.7227(3)
H15 H -0.2510 1.0412 0.7823
O3 O 0.1215(3) 1.2661(3) 0.6580(2)
H16 H 0.1497 1.3533 0.6747
O4 O 0.3218(3) 1.2617(3) 0.7890(2)
O5 O 0.1473(3) 0.5328(2) 0.6822(2)
H17 H 0.2082 0.5854 0.7462
O6 O 0.2115(3) 0.4520(2) 0.4649(2)
O7 O 0.4730(3) 0.6309(3) 0.6465(2)
O8 O 0.5761(3) 0.7246(3) 0.5018(3)
H18 H 0.6487 0.6778 0.5123
C13 C 0.2629(5) 0.2506(5) 0.1157(4)
H9 H 0.1664 0.2102 0.1284
H10 H 0.3413 0.2069 0.1524
H11 H 0.2774 0.2281 0.0196
C14 C 0.1522(5) 0.4857(7) 0.1321(5)
H12 H 0.1600 0.4541 0.0343
H13 H 0.1664 0.5926 0.1720
H14 H 0.0540 0.4570 0.1537
O11 O 0.2685(4) 0.4144(4) 0.1874(3)
O9 O 0.3884(3) 0.7835(4) 0.1236(3)
H19 H 0.3999 0.7625 0.1957
H20 H 0.4745 0.7986 0.0953
O10 O 0.4191(3) 0.5573(3) 0.8756(2)
H21 H 0.3667 0.6243 0.9311
H22 H 0.3713 0.4733 0.8514
loop_
_geom_bond_atom_site_label_1
_geom_bond_atom_site_label_2
_geom_bond_site_symmetry_1
_geom_bond_site_symmetry_2
C1 H1 1_555 1_555
C2 C1 1_555 1_555
H2 C2 1_555 1_555
C3 C2 1_555 1_555
H3 C3 1_555 1_555
C4 C3 1_555 1_555
H4 C4 1_555 1_555
C5 C4 1_555 1_555
H5 C5 1_555 1_555
C6 C1 1_555 1_555
H6 C6 1_555 1_555
C7 C5 1_555 1_555
H7 C7 1_555 1_555
C8 C2 1_555 1_555
H8 C8 1_555 1_555
C9 C6 1_555 1_555
C10 C1 1_555 1_555
C11 C3 1_555 1_555
C12 C4 1_555 1_555
C13 H9 1_555 1_555
H10 C13 1_555 1_555
H11 C13 1_555 1_555
C14 H12 1_555 1_555
H13 C14 1_555 1_555
H14 C14 1_555 1_555
O1 C12 1_555 1_555
O2 C12 1_555 1_555
H15 O2 1_555 1_555
O3 C11 1_555 1_555
H16 O3 1_555 1_555
O4 C11 1_555 1_555
O5 C9 1_555 1_555
H17 O5 1_555 1_555
O6 C9 1_555 1_555
O7 C10 1_555 1_555
O8 C10 1_555 1_555
H18 O8 1_555 1_555
O9 H19 1_555 1_555
H20 O9 1_555 1_555
O10 H21 1_555 1_555
H22 O10 1_555 1_555
O11 C13 1_555 1_555
C5 C6 1_555 1_555
C7 C8 1_555 1_555
C14 O11 1_555 1_555

#END
