
#######################################################################
#
#                 Cambridge Crystallographic Data Centre
#                                CCDC 
#
#######################################################################
#
# If this CIF has been generated from an entry in the Cambridge 
# Structural Database, then it will include bibliographic, chemical, 
# crystal, experimental, refinement or atomic coordinate data resulting 
# from the CCDC's data processing and validation procedures.
#
#######################################################################

data_UZEQOH
_chemical_formula_moiety         'C16 H11 N3 O1'
_chemical_name_systematic        
phenyl(8H-[1,2,3]triazolo[5,1-a]isoindol-3-yl)methanone
_symmetry_cell_setting           monoclinic
_symmetry_space_group_name_H-M   'P 21'
_symmetry_Int_Tables_number      4
_space_group_name_Hall           'P 2yb'
loop_
_symmetry_equiv_pos_site_id
_symmetry_equiv_pos_as_xyz
1 x,y,z
2 -x,1/2+y,-z
_cell_length_a                   4.958(2)
_cell_length_b                   21.437(10)
_cell_length_c                   12.165(6)
_cell_angle_alpha                90
_cell_angle_beta                 98.132(7)
_cell_angle_gamma                90
_cell_volume                     1279.95
_exptl_crystal_colour            'metallic orange'
_exptl_crystal_description       block
_cell_formula_units_Z            4
loop_
_atom_site_label
_atom_site_type_symbol
_atom_site_fract_x
_atom_site_fract_y
_atom_site_fract_z
C1 C -0.4573(4) -0.48984(9) -0.10237(16)
N1 N -0.2840(4) -0.40739(8) -0.16438(14)
O1 O -0.3769(3) -0.55122(7) 0.05571(12)
C2 C -0.2586(4) -0.44480(8) -0.07496(15)
C3 C -0.7122(4) -0.59345(9) -0.08238(16)
C4 C -0.5108(4) -0.54494(9) -0.03650(17)
N2 N -0.5877(4) -0.47659(9) -0.20674(15)
C5 C -0.0344(4) -0.42050(8) 0.00426(15)
C6 C 0.0816(4) -0.44072(10) 0.10867(16)
H1 H 0.0140 -0.4754 0.1417
C7 C 0.0676(4) -0.36783(9) -0.04437(17)
N3 N -0.4818(4) -0.42607(9) -0.24510(16)
C8 C 0.3998(4) -0.35525(11) 0.11447(19)
H2 H 0.5462 -0.3335 0.1528
C9 C -0.6753(5) -0.65375(10) -0.03977(19)
H3 H -0.5283 -0.6623 0.0145
C10 C -0.0886(5) -0.35605(10) -0.15882(19)
H4 H -0.1783 -0.3157 -0.1634
H5 H 0.0278 -0.3592 -0.2163
C11 C 0.2841(4) -0.33463(10) 0.01074(19)
H6 H 0.3504 -0.2994 -0.0210
C12 C -0.9344(4) -0.58208(11) -0.16365(18)
C13 C -0.8550(5) -0.70097(11) -0.0774(2)
H7 H -0.8280 -0.7411 -0.0490
C14 C -1.1151(5) -0.62924(12) -0.19972(19)
H8 H -1.2648 -0.6210 -0.2529
C15 C -1.0737(5) -0.68844(12) -0.1570(2)
H9 H -1.1945 -0.7202 -0.1822
C16 C 0.3021(5) -0.40738(11) 0.16211(18)
H10 H 0.3856 -0.4205 0.2315
H11 H -0.961(4) -0.5436(12) -0.2008(17)
O2 O -1.3671(4) -0.69024(8) -0.43046(13)
N4 N -1.1426(4) -0.68547(9) -0.74392(14)
C17 C -1.3464(4) -0.71980(10) -0.61140(16)
N5 N -1.4340(4) -0.75167(9) -0.70662(15)
C18 C -1.4438(4) -0.72816(10) -0.50334(17)
C19 C -1.6278(4) -0.77992(10) -0.48180(17)
C20 C -0.9701(4) -0.62511(10) -0.59799(17)
C21 C -1.1569(4) -0.67591(9) -0.63558(16)
N6 N -1.3097(5) -0.73055(9) -0.78815(16)
C22 C -0.8462(4) -0.60673(10) -0.68901(19)
C23 C -0.6536(5) -0.55952(13) -0.6794(2)
H12 H -0.5705 -0.5473 -0.7399
C24 C -0.9520(5) -0.64446(12) -0.79028(19)
H13 H -1.0437 -0.6185 -0.8493
H14 H -0.8078 -0.6678 -0.8177
C25 C -1.6557(5) -0.83513(11) -0.54325(19)
H15 H -1.5594 -0.8403 -0.6029
C26 C -0.9055(5) -0.59609(12) -0.4956(2)
H16 H -0.9874 -0.6083 -0.4348
C27 C -0.7152(6) -0.54838(13) -0.4870(3)
H17 H -0.6719 -0.5276 -0.4197
C28 C -1.7712(5) -0.77416(12) -0.3918(2)
H18 H -1.7520 -0.7382 -0.3485
C29 C -0.5885(6) -0.53108(13) -0.5765(3)
H19 H -0.4572 -0.4998 -0.5676
C30 C -1.9678(6) -0.87494(14) -0.4282(2)
H20 H -2.0828 -0.9065 -0.4105
C31 C -1.8240(6) -0.88194(12) -0.5163(2)
H21 H -1.8410 -0.9185 -0.5578
C32 C -1.9403(5) -0.82093(14) -0.3664(2)
H22 H -2.0374 -0.8162 -0.3069
loop_
_geom_bond_atom_site_label_1
_geom_bond_atom_site_label_2
_geom_bond_site_symmetry_1
_geom_bond_site_symmetry_2
C1 C2 1_555 1_555
N1 C2 1_555 1_555
O1 C4 1_555 1_555
C2 C5 1_555 1_555
C3 C4 1_555 1_555
C4 C1 1_555 1_555
N2 C1 1_555 1_555
C5 C6 1_555 1_555
C6 H1 1_555 1_555
C7 C5 1_555 1_555
N3 N1 1_555 1_555
C8 H2 1_555 1_555
C9 C3 1_555 1_555
H3 C9 1_555 1_555
C10 N1 1_555 1_555
H4 C10 1_555 1_555
H5 C10 1_555 1_555
C11 C7 1_555 1_555
H6 C11 1_555 1_555
C12 C3 1_555 1_555
C13 C9 1_555 1_555
H7 C13 1_555 1_555
C14 C12 1_555 1_555
H8 C14 1_555 1_555
C15 C13 1_555 1_555
H9 C15 1_555 1_555
C16 C6 1_555 1_555
H10 C16 1_555 1_555
H11 C12 1_555 1_555
O2 C18 1_555 1_555
N4 C21 1_555 1_555
C17 N5 1_555 1_555
N5 N6 1_555 1_555
C18 C17 1_555 1_555
C19 C18 1_555 1_555
C20 C21 1_555 1_555
C21 C17 1_555 1_555
N6 N4 1_555 1_555
C22 C20 1_555 1_555
C23 C22 1_555 1_555
H12 C23 1_555 1_555
C24 N4 1_555 1_555
H13 C24 1_555 1_555
H14 C24 1_555 1_555
C25 C19 1_555 1_555
H15 C25 1_555 1_555
C26 C20 1_555 1_555
H16 C26 1_555 1_555
C27 C26 1_555 1_555
H17 C27 1_555 1_555
C28 C19 1_555 1_555
H18 C28 1_555 1_555
C29 C23 1_555 1_555
H19 C29 1_555 1_555
C30 H20 1_555 1_555
C31 C25 1_555 1_555
H21 C31 1_555 1_555
C32 C28 1_555 1_555
H22 C32 1_555 1_555
N2 N3 1_555 1_555
C7 C10 1_555 1_555
C8 C11 1_555 1_555
C8 C16 1_555 1_555
C14 C15 1_555 1_555
C22 C24 1_555 1_555
C27 C29 1_555 1_555
C30 C31 1_555 1_555
C30 C32 1_555 1_555

#END
