
#######################################################################
#
#                 Cambridge Crystallographic Data Centre
#                                CCDC 
#
#######################################################################
#
# If this CIF has been generated from an entry in the Cambridge 
# Structural Database, then it will include bibliographic, chemical, 
# crystal, experimental, refinement or atomic coordinate data resulting 
# from the CCDC's data processing and validation procedures.
#
#######################################################################

data_UZEWIH
_chemical_formula_moiety         'C8 H8 N6 O12'
_chemical_name_systematic        
'1-nitro-2-(trinitromethyl)-4,5-dihydro-1H-imidazole-4,5-diyl diacetate'
_symmetry_cell_setting           triclinic
_symmetry_space_group_name_H-M   'P -1'
_symmetry_Int_Tables_number      2
_space_group_name_Hall           '-P 1'
loop_
_symmetry_equiv_pos_site_id
_symmetry_equiv_pos_as_xyz
1 x,y,z
2 -x,-y,-z
_cell_length_a                   8.6990(17)
_cell_length_b                   8.7890(18)
_cell_length_c                   10.723(2)
_cell_angle_alpha                86.59(3)
_cell_angle_beta                 89.54(3)
_cell_angle_gamma                72.16(3)
_cell_volume                     778.985
_exptl_crystal_description       plate
_cell_formula_units_Z            2
loop_
_atom_site_label
_atom_site_type_symbol
_atom_site_fract_x
_atom_site_fract_y
_atom_site_fract_z
O1 O 0.1125(3) 0.6464(3) 0.1801(2)
N1 N -0.1653(3) 0.9646(3) 0.2098(3)
C1 C 0.0156(4) 0.7255(4) 0.2779(3)
H1 H 0.0207 0.6526 0.3516
N2 N 0.0741(3) 0.8594(3) 0.3065(2)
C2 C -0.1582(4) 0.7981(4) 0.2283(3)
H2 H -0.1768 0.7524 0.1508
O2 O 0.2615(4) 0.4651(4) 0.3212(3)
O3 O -0.2681(3) 0.7850(3) 0.3228(2)
C3 C -0.0274(4) 0.9853(4) 0.2624(3)
N3 N -0.2825(4) 1.0749(4) 0.1387(3)
N4 N -0.1159(4) 1.2648(4) 0.3425(3)
C4 C 0.2415(4) 0.5158(4) 0.2156(4)
O4 O -0.3787(5) 0.6492(5) 0.2021(3)
O5 O -0.2671(3) 1.2077(3) 0.1217(3)
N5 N 0.1680(4) 1.1111(3) 0.3367(3)
C5 C 0.3403(5) 0.4567(5) 0.1066(5)
H3 H 0.4302 0.3657 0.1324
H4 H 0.3793 0.5397 0.0695
H5 H 0.2758 0.4258 0.0465
N6 N 0.0284(4) 1.2125(4) 0.1372(3)
O6 O -0.3890(3) 1.0280(4) 0.1006(3)
C6 C -0.3761(5) 0.7060(5) 0.2985(4)
O7 O -0.2287(4) 1.2253(4) 0.3808(3)
C7 C -0.4819(5) 0.7065(6) 0.4068(4)
H6 H -0.5573 0.6506 0.3885
H7 H -0.5398 0.8150 0.4240
H8 H -0.4175 0.6543 0.4784
C8 C 0.0054(4) 1.1434(4) 0.2676(3)
O8 O -0.0854(5) 1.3850(4) 0.3616(4)
O9 O 0.1608(4) 1.0996(4) 0.4484(3)
O10 O 0.2843(4) 1.0969(4) 0.2736(3)
O11 O 0.0048(4) 1.3544(4) 0.1210(3)
O12 O 0.0759(4) 1.1111(4) 0.0626(3)
loop_
_geom_bond_atom_site_label_1
_geom_bond_atom_site_label_2
_geom_bond_site_symmetry_1
_geom_bond_site_symmetry_2
O1 C1 1_555 1_555
N1 C2 1_555 1_555
C1 H1 1_555 1_555
N2 C1 1_555 1_555
C2 C1 1_555 1_555
H2 C2 1_555 1_555
O2 C4 1_555 1_555
O3 C2 1_555 1_555
C3 N1 1_555 1_555
N3 N1 1_555 1_555
N4 O7 1_555 1_555
C4 O1 1_555 1_555
O4 C6 1_555 1_555
O5 N3 1_555 1_555
N5 C8 1_555 1_555
C5 C4 1_555 1_555
H3 C5 1_555 1_555
H4 C5 1_555 1_555
H5 C5 1_555 1_555
N6 C8 1_555 1_555
O6 N3 1_555 1_555
C6 O3 1_555 1_555
C7 C6 1_555 1_555
H6 C7 1_555 1_555
H7 C7 1_555 1_555
H8 C7 1_555 1_555
C8 C3 1_555 1_555
O8 N4 1_555 1_555
O9 N5 1_555 1_555
O10 N5 1_555 1_555
O11 N6 1_555 1_555
O12 N6 1_555 1_555
N2 C3 1_555 1_555
N4 C8 1_555 1_555

#END
