
#######################################################################
#
#                 Cambridge Crystallographic Data Centre
#                                CCDC 
#
#######################################################################
#
# If this CIF has been generated from an entry in the Cambridge 
# Structural Database, then it will include bibliographic, chemical, 
# crystal, experimental, refinement or atomic coordinate data resulting 
# from the CCDC's data processing and validation procedures.
#
#######################################################################

data_UZEWUT
_chemical_formula_moiety         'C8 H10 N6 O8'
_chemical_name_systematic        
trans-1-nitro-2-(trinitromethyl)-3a,4,5,6,7,7a-hexahydro-1H-benzimidazole
_symmetry_cell_setting           monoclinic
_symmetry_space_group_name_H-M   'C 2/c'
_symmetry_Int_Tables_number      15
_space_group_name_Hall           '-C 2yn'
loop_
_symmetry_equiv_pos_site_id
_symmetry_equiv_pos_as_xyz
1 x,y,z
2 -x,y,1/2-z
3 1/2+x,1/2+y,z
4 1/2-x,1/2+y,1/2-z
5 -x,-y,-z
6 x,-y,1/2+z
7 1/2-x,1/2-y,-z
8 1/2+x,1/2-y,1/2+z
_cell_length_a                   21.390(4)
_cell_length_b                   12.501(3)
_cell_length_c                   9.957(2)
_cell_angle_alpha                90
_cell_angle_beta                 95.08(3)
_cell_angle_gamma                90
_cell_volume                     2652.01
_exptl_crystal_description       plate
_cell_formula_units_Z            8
loop_
_atom_site_label
_atom_site_type_symbol
_atom_site_fract_x
_atom_site_fract_y
_atom_site_fract_z
O1 O 0.30626(12) 0.9508(2) 0.0678(3)
C1 C 0.34816(16) 0.7366(3) 0.2978(3)
H1 H 0.3139 0.6900 0.2613
N1 N 0.41975(13) 0.6996(2) 0.1351(3)
N2 N 0.35148(12) 0.8235(2) 0.1987(3)
O2 O 0.26933(12) 0.9106(2) 0.2564(3)
C2 C 0.3382(2) 0.7515(3) 0.4432(4)
H2 H 0.2977 0.7843 0.4523
H3 H 0.3707 0.7973 0.4866
N3 N 0.30557(12) 0.8989(2) 0.1723(3)
O3 O 0.29811(13) 0.7618(3) -0.0910(3)
C3 C 0.3411(2) 0.6415(3) 0.5069(4)
H4 H 0.3417 0.6503 0.6038
H5 H 0.3028 0.6038 0.4770
N4 N 0.33618(14) 0.8187(3) -0.1312(3)
O4 O 0.33416(15) 0.8595(3) -0.2397(3)
C4 C 0.3958(2) 0.5720(3) 0.4784(4)
H6 H 0.3875 0.4995 0.5069
H7 H 0.4329 0.5971 0.5324
N5 N 0.41849(13) 0.9464(2) -0.0247(3)
O5 O 0.44391(14) 0.9684(2) 0.0854(3)
C5 C 0.4098(3) 0.5694(3) 0.3318(4)
H8 H 0.4513 0.5399 0.3247
H9 H 0.3795 0.5241 0.2807
N6 N 0.44581(14) 0.7684(2) -0.1034(3)
O6 O 0.41347(13) 1.0018(2) -0.1226(3)
C6 C 0.40653(18) 0.6785(3) 0.2768(3)
H10 H 0.4394 0.7177 0.3313
C7 C 0.38843(14) 0.7818(2) 0.0998(3)
O7 O 0.49854(12) 0.8016(2) -0.0833(3)
O8 O 0.42797(14) 0.6916(2) -0.1678(3)
C8 C 0.39517(14) 0.8309(2) -0.0352(3)
loop_
_geom_bond_atom_site_label_1
_geom_bond_atom_site_label_2
_geom_bond_site_symmetry_1
_geom_bond_site_symmetry_2
O1 N3 1_555 1_555
C1 H1 1_555 1_555
N1 C6 1_555 1_555
N2 C1 1_555 1_555
O2 N3 1_555 1_555
C2 C1 1_555 1_555
H2 C2 1_555 1_555
H3 C2 1_555 1_555
N3 N2 1_555 1_555
O3 N4 1_555 1_555
C3 C2 1_555 1_555
H4 C3 1_555 1_555
H5 C3 1_555 1_555
N4 O4 1_555 1_555
C4 C3 1_555 1_555
H6 C4 1_555 1_555
H7 C4 1_555 1_555
N5 O5 1_555 1_555
C5 C4 1_555 1_555
H8 C5 1_555 1_555
H9 C5 1_555 1_555
N6 O7 1_555 1_555
O6 N5 1_555 1_555
C6 C1 1_555 1_555
H10 C6 1_555 1_555
C7 N1 1_555 1_555
O8 N6 1_555 1_555
C8 N4 1_555 1_555
N2 C7 1_555 1_555
N5 C8 1_555 1_555
C5 C6 1_555 1_555
N6 C8 1_555 1_555
C7 C8 1_555 1_555

#END
