
#######################################################################
#
#                 Cambridge Crystallographic Data Centre
#                                CCDC 
#
#######################################################################
#
# If this CIF has been generated from an entry in the Cambridge 
# Structural Database, then it will include bibliographic, chemical, 
# crystal, experimental, refinement or atomic coordinate data resulting 
# from the CCDC's data processing and validation procedures.
#
#######################################################################

data_UZEWAZ
_chemical_formula_moiety         'C6 H6 N6 O10'
_chemical_name_systematic        
1-nitro-2-(trinitromethyl)-3a,5,6,7a-tetrahydro-1H-[1,4]dioxino[2,3-d]imidazole
_symmetry_cell_setting           monoclinic
_symmetry_space_group_name_H-M   'P 21/n'
_symmetry_Int_Tables_number      14
_space_group_name_Hall           '-P 2yn'
loop_
_symmetry_equiv_pos_site_id
_symmetry_equiv_pos_as_xyz
1 x,y,z
2 1/2-x,1/2+y,1/2-z
3 -x,-y,-z
4 1/2+x,1/2-y,1/2+z
_cell_length_a                   20.437(4)
_cell_length_b                   6.2410(12)
_cell_length_c                   20.588(4)
_cell_angle_alpha                90
_cell_angle_beta                 113.82(3)
_cell_angle_gamma                90
_cell_volume                     2402.26
_exptl_crystal_description       plate
_cell_formula_units_Z            8
loop_
_atom_site_label
_atom_site_type_symbol
_atom_site_fract_x
_atom_site_fract_y
_atom_site_fract_z
C1 C 0.1322(3) 0.2791(8) 0.4696(2)
O1 O 0.1107(4) -0.0553(8) 0.4177(3)
O2 O 0.0251(3) 0.0962(9) 0.4365(2)
O3 O 0.1743(2) 0.3169(10) 0.3799(2)
O4 O 0.2476(2) 0.2142(9) 0.4819(2)
O5 O 0.0576(2) 0.5010(7) 0.37863(19)
O6 O 0.0691(2) 0.5671(7) 0.4866(2)
O7 O 0.2755(2) 0.7063(8) 0.6275(2)
O8 O 0.2178(2) 0.6295(7) 0.5142(2)
O9 O 0.1494(2) 0.0778(7) 0.69440(16)
O10 O 0.18627(19) 0.4965(7) 0.69585(18)
N1 N 0.0848(3) 0.0789(10) 0.4365(2)
N2 N 0.1917(3) 0.2760(8) 0.4404(2)
N3 N 0.0823(2) 0.4672(8) 0.4441(2)
N4 N 0.2356(2) 0.5950(9) 0.5780(3)
N5 N 0.2107(2) 0.4075(8) 0.5949(2)
N6 N 0.1492(2) 0.1026(7) 0.57817(19)
C2 C 0.1650(3) 0.2618(8) 0.5494(2)
C3 C 0.1917(3) 0.1283(11) 0.6566(2)
H1 H 0.2324 0.0292 0.6714
C4 C 0.0996(3) 0.2362(11) 0.6940(3)
H2 H 0.1014 0.2499 0.7416
H3 H 0.0518 0.1884 0.6634
C5 C 0.1121(3) 0.4543(11) 0.6691(3)
H4 H 0.0919 0.4583 0.6176
H5 H 0.0886 0.5633 0.6856
C6 C 0.2207(3) 0.3587(9) 0.6701(2)
H6 H 0.2718 0.3570 0.7012
O11 O 0.3757(2) 0.1796(9) 0.6732(2)
O12 O 0.4776(2) 0.3020(7) 0.7438(2)
O13 O 0.3770(2) -0.0120(7) 0.5584(2)
O14 O 0.4845(2) -0.0734(7) 0.57083(17)
O15 O 0.4372(2) 0.3946(9) 0.5249(2)
O16 O 0.4130(2) 0.5482(8) 0.6066(3)
O17 O 0.5096(2) -0.1325(7) 0.71701(19)
O18 O 0.6224(2) -0.2135(7) 0.7719(2)
O19 O 0.69579(18) 0.4033(8) 0.6510(2)
O20 O 0.69434(19) -0.0110(7) 0.68691(18)
N7 N 0.4361(3) 0.2330(8) 0.6878(2)
N8 N 0.4406(3) 0.0233(8) 0.5832(2)
N9 N 0.4353(2) 0.4041(8) 0.5810(3)
N10 N 0.5725(3) -0.1052(9) 0.7344(2)
N11 N 0.5933(2) 0.0800(8) 0.7110(2)
N12 N 0.5781(2) 0.3874(7) 0.64929(19)
C7 C 0.4679(2) 0.2191(8) 0.6323(2)
C8 C 0.5482(2) 0.2335(9) 0.6644(2)
C9 C 0.6670(3) 0.1321(10) 0.7214(3)
H7 H 0.6979 0.1354 0.7722
C10 C 0.6668(3) 0.0333(11) 0.6117(3)
H8 H 0.6150 0.0301 0.5919
H9 H 0.6830 -0.0768 0.5883
C11 C 0.6909(4) 0.2426(11) 0.5985(3)
H10 H 0.7376 0.2265 0.5971
H11 H 0.6581 0.2930 0.5522
C12 C 0.6554(3) 0.3605(10) 0.6912(3)
H12 H 0.6702 0.4614 0.7311
loop_
_geom_bond_atom_site_label_1
_geom_bond_atom_site_label_2
_geom_bond_site_symmetry_1
_geom_bond_site_symmetry_2
C1 N1 1_555 1_555
O1 N1 1_555 1_555
O2 N1 1_555 1_555
O3 N2 1_555 1_555
O4 N2 1_555 1_555
O5 N3 1_555 1_555
O6 N3 1_555 1_555
O7 N4 1_555 1_555
O8 N4 1_555 1_555
O9 C3 1_555 1_555
O10 C5 1_555 1_555
N2 C1 1_555 1_555
N3 C1 1_555 1_555
N4 N5 1_555 1_555
N5 C2 1_555 1_555
N6 C2 1_555 1_555
C2 C1 1_555 1_555
C3 N6 1_555 1_555
H1 C3 1_555 1_555
C4 O9 1_555 1_555
H2 C4 1_555 1_555
H3 C4 1_555 1_555
C5 C4 1_555 1_555
H4 C5 1_555 1_555
H5 C5 1_555 1_555
C6 O10 1_555 1_555
H6 C6 1_555 1_555
O11 N7 1_555 1_555
O12 N7 1_555 1_555
O13 N8 1_555 1_555
O14 N8 1_555 1_555
O15 N9 1_555 1_555
O16 N9 1_555 1_555
O17 N10 1_555 1_555
O18 N10 1_555 1_555
O19 C11 1_555 1_555
O20 C9 1_555 1_555
N7 C7 1_555 1_555
N8 C7 1_555 1_555
N9 C7 1_555 1_555
N10 N11 1_555 1_555
N11 C8 1_555 1_555
N12 C8 1_555 1_555
C7 C8 1_555 1_555
C9 N11 1_555 1_555
H7 C9 1_555 1_555
C10 O20 1_555 1_555
H8 C10 1_555 1_555
H9 C10 1_555 1_555
C11 C10 1_555 1_555
H10 C11 1_555 1_555
H11 C11 1_555 1_555
C12 O19 1_555 1_555
H12 C12 1_555 1_555
N5 C6 1_555 1_555
C3 C6 1_555 1_555
N12 C12 1_555 1_555
C9 C12 1_555 1_555

#END
