
#######################################################################
#
#                 Cambridge Crystallographic Data Centre
#                                CCDC 
#
#######################################################################
#
# If this CIF has been generated from an entry in the Cambridge 
# Structural Database, then it will include bibliographic, chemical, 
# crystal, experimental, refinement or atomic coordinate data resulting 
# from the CCDC's data processing and validation procedures.
#
#######################################################################

data_UZIGIV
_chemical_formula_moiety         'C20 H26 N2 O3 S1'
_chemical_name_systematic        
't-butyl (3-hydroxy-1-phenyl-4-(pyridin-2-ylsulfanyl)butan-2-yl)carbamate'
_symmetry_cell_setting           monoclinic
_symmetry_space_group_name_H-M   'P 21'
_symmetry_Int_Tables_number      4
_space_group_name_Hall           'P 2yb'
loop_
_symmetry_equiv_pos_site_id
_symmetry_equiv_pos_as_xyz
1 x,y,z
2 -x,1/2+y,-z
_cell_length_a                   10.2898(8)
_cell_length_b                   9.8137(7)
_cell_length_c                   10.4918(8)
_cell_angle_alpha                90
_cell_angle_beta                 112.340(8)
_cell_angle_gamma                90
_cell_volume                     979.953
_exptl_crystal_colour            colorless
_exptl_crystal_description       needle
_cell_formula_units_Z            2
loop_
_atom_site_label
_atom_site_type_symbol
_atom_site_fract_x
_atom_site_fract_y
_atom_site_fract_z
S1 S 0.54921(6) 0.40240(8) -0.00102(7)
O1 O 0.83127(17) 0.4151(2) 0.28308(18)
H1 H 0.770(3) 0.353(2) 0.265(3)
O2 O 1.00878(19) 0.3146(2) -0.07466(19)
O3 O 1.01066(19) 0.5263(2) -0.16412(19)
N1 N 0.6140(2) 0.2256(3) 0.2098(2)
N2 N 0.9949(2) 0.5086(3) 0.0385(2)
H2 H 0.995(3) 0.5972(14) 0.033(3)
C1 C 0.5105(3) 0.2866(3) 0.1081(3)
C2 C 0.3684(3) 0.2656(3) 0.0843(3)
H3 H 0.2970 0.3116 0.0114
C3 C 0.3345(3) 0.1773(3) 0.1685(3)
H4 H 0.2392 0.1625 0.1557
C4 C 0.4416(3) 0.1100(3) 0.2724(3)
H5 H 0.4211 0.0462 0.3303
C5 C 0.5780(3) 0.1379(3) 0.2894(3)
H6 H 0.6511 0.0927 0.3615
C6 C 0.7337(2) 0.3712(3) 0.0354(3)
H7 H 0.7534 0.2733 0.0568
H8 H 0.7523 0.3913 -0.0485
C7 C 0.8345(2) 0.4548(3) 0.1544(3)
H9 H 0.8046 0.5523 0.1383
C8 C 0.9866(2) 0.4452(3) 0.1604(3)
H10 H 1.0132 0.3470 0.1625
C9 C 1.0050(2) 0.4386(3) -0.0670(3)
C10 C 0.9957(3) 0.4771(3) -0.3028(3)
C11 C 1.1204(3) 0.3883(4) -0.2927(3)
H11 H 1.2079 0.4361 -0.2394
H12 H 1.1175 0.3692 -0.3855
H13 H 1.1162 0.3024 -0.2468
C12 C 0.9958(3) 0.6085(3) -0.3780(3)
H14 H 0.9189 0.6670 -0.3770
H15 H 0.9828 0.5882 -0.4735
H16 H 1.0856 0.6555 -0.3322
C13 C 0.8559(2) 0.4049(4) -0.3707(3)
H17 H 0.8546 0.3228 -0.3179
H18 H 0.8431 0.3792 -0.4650
H19 H 0.7797 0.4660 -0.3729
C14 C 1.0878(3) 0.5152(3) 0.2924(3)
H20 H 1.0578 0.6111 0.2920
H21 H 1.0790 0.4698 0.3730
C15 C 1.2405(3) 0.5138(3) 0.3106(3)
C16 C 1.2935(3) 0.6072(3) 0.2430(3)
H22 H 1.2322 0.6728 0.1835
C17 C 1.4339(3) 0.6063(4) 0.2608(3)
H23 H 1.4678 0.6694 0.2120
C18 C 1.5253(3) 0.5130(4) 0.3504(3)
H24 H 1.6221 0.5132 0.3644
C19 C 1.4745(3) 0.4204(3) 0.4185(3)
H25 H 1.5364 0.3557 0.4788
C20 C 1.3329(3) 0.4212(3) 0.3995(3)
H26 H 1.2992 0.3575 0.4479
loop_
_geom_bond_atom_site_label_1
_geom_bond_atom_site_label_2
_geom_bond_site_symmetry_1
_geom_bond_site_symmetry_2
S1 C1 1_555 1_555
O1 H1 1_555 1_555
O2 C9 1_555 1_555
O3 C9 1_555 1_555
N1 C1 1_555 1_555
N2 H2 1_555 1_555
C1 C2 1_555 1_555
C2 H3 1_555 1_555
C3 C2 1_555 1_555
H4 C3 1_555 1_555
C4 C3 1_555 1_555
H5 C4 1_555 1_555
C5 N1 1_555 1_555
H6 C5 1_555 1_555
C6 S1 1_555 1_555
H7 C6 1_555 1_555
H8 C6 1_555 1_555
C7 O1 1_555 1_555
H9 C7 1_555 1_555
C8 N2 1_555 1_555
H10 C8 1_555 1_555
C9 N2 1_555 1_555
C10 O3 1_555 1_555
C11 C10 1_555 1_555
H11 C11 1_555 1_555
H12 C11 1_555 1_555
H13 C11 1_555 1_555
C12 C10 1_555 1_555
H14 C12 1_555 1_555
H15 C12 1_555 1_555
H16 C12 1_555 1_555
C13 C10 1_555 1_555
H17 C13 1_555 1_555
H18 C13 1_555 1_555
H19 C13 1_555 1_555
C14 C8 1_555 1_555
H20 C14 1_555 1_555
H21 C14 1_555 1_555
C15 C14 1_555 1_555
C16 C15 1_555 1_555
H22 C16 1_555 1_555
C17 C16 1_555 1_555
H23 C17 1_555 1_555
C18 C17 1_555 1_555
H24 C18 1_555 1_555
C19 C18 1_555 1_555
H25 C19 1_555 1_555
C20 C15 1_555 1_555
H26 C20 1_555 1_555
C4 C5 1_555 1_555
C6 C7 1_555 1_555
C7 C8 1_555 1_555
C19 C20 1_555 1_555

#END
