
#######################################################################
#
#                 Cambridge Crystallographic Data Centre
#                                CCDC 
#
#######################################################################
#
# If this CIF has been generated from an entry in the Cambridge 
# Structural Database, then it will include bibliographic, chemical, 
# crystal, experimental, refinement or atomic coordinate data resulting 
# from the CCDC's data processing and validation procedures.
#
#######################################################################

data_UZILOF
_chemical_formula_moiety         'C44 H30 B2 N2 O2 S2'
_chemical_name_systematic        
8,8,17,17-Tetraphenyl-8,17-dihydro-9\l^5^,18\l^5^,8\l^5^,17\l^5^-[1,3]benzothiazolo[3,2-c][1,3]benzothiazolo[3',2':3,4][1,3,2]oxazaborinino[6,5-g][1,3,2]benzoxazaborinine
_symmetry_cell_setting           triclinic
_symmetry_space_group_name_H-M   'P -1'
_symmetry_Int_Tables_number      2
_space_group_name_Hall           '-P 1'
loop_
_symmetry_equiv_pos_site_id
_symmetry_equiv_pos_as_xyz
1 x,y,z
2 -x,-y,-z
_cell_length_a                   9.813(7)
_cell_length_b                   10.072(6)
_cell_length_c                   10.185(6)
_cell_angle_alpha                85.79(2)
_cell_angle_beta                 77.07(2)
_cell_angle_gamma                63.68(2)
_cell_volume                     879.03
_exptl_crystal_colour            'deep red'
_cell_formula_units_Z            1
_exptl_crystal_recrystallization_method sublimation
loop_
_atom_site_label
_atom_site_type_symbol
_atom_site_fract_x
_atom_site_fract_y
_atom_site_fract_z
B1 B 0.1101(3) 0.7415(3) 0.1786(2)
C1 C 0.2147(3) 0.4252(2) 0.4410(2)
C2 C 0.2691(3) 0.3741(3) 0.5590(2)
H1 H 0.2772 0.2835 0.5937
C3 C 0.3102(3) 0.4619(3) 0.6218(2)
H2 H 0.3490 0.4297 0.6996
C4 C 0.2949(3) 0.5985(3) 0.5710(3)
H3 H 0.3210 0.6570 0.6173
C5 C 0.2424(3) 0.6498(3) 0.4545(2)
H4 H 0.2341 0.7408 0.4208
C6 C 0.2020(3) 0.5605(2) 0.3886(2)
C7 C 0.1113(2) 0.4869(2) 0.2361(2)
C8 C 0.0499(2) 0.4941(2) 0.1178(2)
C9 C 0.0543(2) 0.6021(2) 0.0240(2)
C10 C 0.0050(2) 0.6062(2) -0.0941(2)
H5 H 0.0085 0.6762 -0.1579
C11 C -0.0599(3) 0.8681(2) 0.2422(2)
C12 C -0.1209(3) 0.9001(3) 0.3794(2)
H6 H -0.0595 0.8470 0.4402
C13 C -0.2700(4) 1.0087(3) 0.4285(3)
H7 H -0.3080 1.0259 0.5209
C14 C -0.3615(3) 1.0908(3) 0.3409(4)
H8 H -0.4620 1.1631 0.3734
C15 C -0.3041(3) 1.0657(3) 0.2060(3)
H9 H -0.3645 1.1227 0.1458
C16 C -0.1559(3) 0.9554(3) 0.1581(3)
H10 H -0.1194 0.9394 0.0655
C17 C 0.2544(3) 0.7809(2) 0.1611(2)
C18 C 0.4033(3) 0.6735(3) 0.1077(2)
H11 H 0.4167 0.5791 0.0882
C19 C 0.5315(3) 0.7017(3) 0.0827(3)
H12 H 0.6293 0.6274 0.0457
C20 C 0.5155(3) 0.8389(3) 0.1120(3)
H13 H 0.6021 0.8582 0.0960
C21 C 0.3712(3) 0.9472(3) 0.1651(3)
H14 H 0.3594 1.0408 0.1850
C22 C 0.2421(3) 0.9188(3) 0.1894(2)
H15 H 0.1448 0.9942 0.2256
N1 N 0.1429(2) 0.59296(19) 0.27005(17)
O1 O 0.11679(18) 0.69188(16) 0.04159(14)
S1 S 0.15289(7) 0.33958(6) 0.34172(6)
B1A B -0.1101(3) 0.2585(3) -0.1786(2)
C1A C -0.2147(3) 0.5748(2) -0.4410(2)
C2A C -0.2691(3) 0.6259(3) -0.5590(2)
H1A H -0.2772 0.7165 -0.5937
C3A C -0.3102(3) 0.5381(3) -0.6218(2)
H2A H -0.3490 0.5703 -0.6996
C4A C -0.2949(3) 0.4015(3) -0.5710(3)
H3A H -0.3210 0.3430 -0.6173
C5A C -0.2424(3) 0.3502(3) -0.4545(2)
H4A H -0.2341 0.2592 -0.4208
C6A C -0.2020(3) 0.4395(2) -0.3886(2)
C7A C -0.1113(2) 0.5131(2) -0.2361(2)
C8A C -0.0499(2) 0.5059(2) -0.1178(2)
C9A C -0.0543(2) 0.3979(2) -0.0240(2)
C10A C -0.0050(2) 0.3938(2) 0.0941(2)
H5A H -0.0085 0.3238 0.1579
C11A C 0.0599(3) 0.1319(2) -0.2422(2)
C12A C 0.1209(3) 0.0999(3) -0.3794(2)
H6A H 0.0595 0.1530 -0.4402
C13A C 0.2700(4) -0.0087(3) -0.4285(3)
H7A H 0.3080 -0.0259 -0.5209
C14A C 0.3615(3) -0.0908(3) -0.3409(4)
H8A H 0.4620 -0.1631 -0.3734
C15A C 0.3041(3) -0.0657(3) -0.2060(3)
H9A H 0.3645 -0.1227 -0.1458
C16A C 0.1559(3) 0.0446(3) -0.1581(3)
H10A H 0.1194 0.0606 -0.0655
C17A C -0.2544(3) 0.2191(2) -0.1611(2)
C18A C -0.4033(3) 0.3265(3) -0.1077(2)
H11A H -0.4167 0.4209 -0.0882
C19A C -0.5315(3) 0.2983(3) -0.0827(3)
H12A H -0.6293 0.3726 -0.0457
C20A C -0.5155(3) 0.1611(3) -0.1120(3)
H13A H -0.6021 0.1418 -0.0960
C21A C -0.3712(3) 0.0528(3) -0.1651(3)
H14A H -0.3594 -0.0408 -0.1850
C22A C -0.2421(3) 0.0812(3) -0.1894(2)
H15A H -0.1448 0.0058 -0.2256
N1A N -0.1429(2) 0.40704(19) -0.27005(17)
O1A O -0.11679(18) 0.30812(16) -0.04159(14)
S1A S -0.15289(7) 0.66042(6) -0.34172(6)
loop_
_geom_bond_atom_site_label_1
_geom_bond_atom_site_label_2
_geom_bond_site_symmetry_1
_geom_bond_site_symmetry_2
B1 C11 1_555 1_555
C1 C2 1_555 1_555
C2 H1 1_555 1_555
C3 C2 1_555 1_555
H2 C3 1_555 1_555
C4 C3 1_555 1_555
H3 C4 1_555 1_555
C5 C4 1_555 1_555
H4 C5 1_555 1_555
C6 C1 1_555 1_555
C7 C8 1_555 1_555
C8 C9 1_555 1_555
C9 C10 1_555 1_555
C10 H5 1_555 1_555
C11 C12 1_555 1_555
C12 H6 1_555 1_555
C13 C12 1_555 1_555
H7 C13 1_555 1_555
C14 C13 1_555 1_555
H8 C14 1_555 1_555
C15 C14 1_555 1_555
H9 C15 1_555 1_555
C16 C11 1_555 1_555
H10 C16 1_555 1_555
C17 B1 1_555 1_555
C18 C17 1_555 1_555
H11 C18 1_555 1_555
C19 C18 1_555 1_555
H12 C19 1_555 1_555
C20 C19 1_555 1_555
H13 C20 1_555 1_555
C21 C20 1_555 1_555
H14 C21 1_555 1_555
C22 C17 1_555 1_555
H15 C22 1_555 1_555
N1 B1 1_555 1_555
O1 B1 1_555 1_555
S1 C1 1_555 1_555
B1A C11A 1_555 1_555
C1A C2A 1_555 1_555
C2A H1A 1_555 1_555
C3A C2A 1_555 1_555
H2A C3A 1_555 1_555
C4A C3A 1_555 1_555
H3A C4A 1_555 1_555
C5A C4A 1_555 1_555
H4A C5A 1_555 1_555
C6A C1A 1_555 1_555
C7A C8A 1_555 1_555
C8A C10 1_555 1_555
C9A C8A 1_555 1_555
C10A C8 1_555 1_555
H5A C10A 1_555 1_555
C11A C12A 1_555 1_555
C12A H6A 1_555 1_555
C13A C12A 1_555 1_555
H7A C13A 1_555 1_555
C14A C13A 1_555 1_555
H8A C14A 1_555 1_555
C15A C14A 1_555 1_555
H9A C15A 1_555 1_555
C16A C11A 1_555 1_555
H10A C16A 1_555 1_555
C17A B1A 1_555 1_555
C18A C17A 1_555 1_555
H11A C18A 1_555 1_555
C19A C18A 1_555 1_555
H12A C19A 1_555 1_555
C20A C19A 1_555 1_555
H13A C20A 1_555 1_555
C21A C20A 1_555 1_555
H14A C21A 1_555 1_555
C22A C17A 1_555 1_555
H15A C22A 1_555 1_555
N1A B1A 1_555 1_555
O1A B1A 1_555 1_555
S1A C1A 1_555 1_555
C5 C6 1_555 1_555
C6 N1 1_555 1_555
C7 N1 1_555 1_555
C7 S1 1_555 1_555
C9 O1 1_555 1_555
C15 C16 1_555 1_555
C21 C22 1_555 1_555
C5A C6A 1_555 1_555
C6A N1A 1_555 1_555
C7A N1A 1_555 1_555
C7A S1A 1_555 1_555
C9A C10A 1_555 1_555
C9A O1A 1_555 1_555
C15A C16A 1_555 1_555
C21A C22A 1_555 1_555

#END
