
#######################################################################
#
#                 Cambridge Crystallographic Data Centre
#                                CCDC 
#
#######################################################################
#
# If this CIF has been generated from an entry in the Cambridge 
# Structural Database, then it will include bibliographic, chemical, 
# crystal, experimental, refinement or atomic coordinate data resulting 
# from the CCDC's data processing and validation procedures.
#
#######################################################################

data_UZISOM
_chemical_formula_moiety         'C23 H25 N3 O5,C1 H4 O1'
_chemical_name_systematic        
'Diethyl 5-(4-cyanophenyl)-7-methyl-1-oxo-2,3,5,6-tetrahydro-1H-pyrazolo[1,2-a][1,2]diazocine-6,8-dicarboxylate methanol solvate'
_symmetry_cell_setting           orthorhombic
_symmetry_space_group_name_H-M   'P b c a'
_symmetry_Int_Tables_number      61
_space_group_name_Hall           '-P 2ac 2ab'
loop_
_symmetry_equiv_pos_site_id
_symmetry_equiv_pos_as_xyz
1 x,y,z
2 1/2-x,-y,1/2+z
3 -x,1/2+y,1/2-z
4 1/2+x,1/2-y,-z
5 -x,-y,-z
6 1/2+x,y,1/2-z
7 x,1/2-y,1/2+z
8 1/2-x,1/2+y,z
_cell_length_a                   23.002(2)
_cell_length_b                   7.7747(8)
_cell_length_c                   25.097(3)
_cell_angle_alpha                90
_cell_angle_beta                 90
_cell_angle_gamma                90
_cell_volume                     4488.19
_exptl_crystal_colour            colorless
_exptl_crystal_description       block
_cell_formula_units_Z            8
_exptl_crystal_recrystallization_method dichloromethane/methanol
loop_
_atom_site_label
_atom_site_type_symbol
_atom_site_fract_x
_atom_site_fract_y
_atom_site_fract_z
O1 O -0.02776(6) 0.3153(2) 0.15074(6)
O2 O 0.05935(5) 0.21931(18) 0.12638(5)
O3 O 0.21623(5) 0.66225(17) 0.26540(5)
O4 O 0.13554(5) 0.79003(16) 0.23352(5)
O5 O 0.01018(6) 0.2496(2) 0.41346(5)
N1 N 0.11103(6) 0.22846(18) 0.30866(6)
N2 N 0.05765(6) 0.27815(19) 0.33381(6)
N3 N 0.25021(9) 0.6844(3) 0.54528(7)
C1 C 0.01041(7) 0.3410(2) 0.30468(7)
H2 H -0.0240 0.3596 0.3247
C2 C 0.00641(7) 0.3787(2) 0.25313(7)
H3 H -0.0306 0.4198 0.2421
C3 C 0.05022(7) 0.3667(2) 0.21035(7)
C4 C 0.10536(7) 0.4266(2) 0.21458(7)
C5 C 0.12361(7) 0.5111(2) 0.26662(7)
H4 H 0.0881 0.5574 0.2845
C6 C 0.15181(7) 0.3778(2) 0.30385(7)
H5 H 0.1874 0.3345 0.2853
C7 C 0.02355(7) 0.2995(2) 0.16000(7)
C8 C 0.03371(9) 0.1688(3) 0.07539(8)
H6 H 0.0160 0.2700 0.0578
H7 H 0.0029 0.0817 0.0812
C9 C 0.08047(11) 0.0961(3) 0.04124(9)
H8 H 0.0650 0.0728 0.0056
H9 H 0.0948 -0.0111 0.0570
H10 H 0.1125 0.1789 0.0386
C10 C 0.15335(7) 0.4108(2) 0.17419(7)
H11 H 0.1406 0.3361 0.1450
H12 H 0.1878 0.3611 0.1912
H13 H 0.1629 0.5250 0.1601
C11 C 0.16478(7) 0.6602(2) 0.25573(7)
C12 C 0.16840(8) 0.9415(2) 0.21641(8)
H14 H 0.2038 0.9536 0.2385
H15 H 0.1444 1.0460 0.2212
C13 C 0.18516(9) 0.9235(3) 0.15904(8)
H16 H 0.2045 1.0290 0.1471
H17 H 0.1502 0.9039 0.1375
H18 H 0.2117 0.8259 0.1550
C14 C 0.17168(7) 0.4517(2) 0.35675(7)
C15 C 0.22627(7) 0.4056(2) 0.37648(7)
H19 H 0.2508 0.3332 0.3559
C16 C 0.24516(8) 0.4635(2) 0.42541(7)
H20 H 0.2826 0.4320 0.4381
C17 C 0.20930(8) 0.5683(2) 0.45622(7)
C18 C 0.15462(8) 0.6168(2) 0.43706(7)
H21 H 0.1299 0.6878 0.4580
C19 C 0.13672(7) 0.5604(2) 0.38732(7)
H22 H 0.1001 0.5962 0.3738
C20 C 0.23085(8) 0.6318(3) 0.50661(8)
C21 C 0.13328(8) 0.0897(2) 0.34417(7)
H23 H 0.1762 0.0941 0.3462
H24 H 0.1216 -0.0246 0.3304
C22 C 0.10657(8) 0.1212(3) 0.39902(7)
H25 H 0.0968 0.0116 0.4169
H26 H 0.1331 0.1883 0.4221
C23 C 0.05272(8) 0.2222(3) 0.38562(7)
O6 O 0.06514(7) 0.6173(2) 0.00814(6)
H1 H 0.0373 0.6502 0.0273
C24 C 0.10793(10) 0.5799(3) 0.04593(10)
H27 H 0.1262 0.6871 0.0579
H28 H 0.1375 0.5052 0.0299
H29 H 0.0902 0.5213 0.0764
loop_
_geom_bond_atom_site_label_1
_geom_bond_atom_site_label_2
_geom_bond_site_symmetry_1
_geom_bond_site_symmetry_2
O1 C7 1_555 1_555
O2 C7 1_555 1_555
O3 C11 1_555 1_555
O4 C11 1_555 1_555
O5 C23 1_555 1_555
O6 H1 1_555 1_555
N1 N2 1_555 1_555
N2 C1 1_555 1_555
N3 C20 1_555 1_555
C1 H2 1_555 1_555
C2 C1 1_555 1_555
H3 C2 1_555 1_555
C3 C2 1_555 1_555
C4 C3 1_555 1_555
C5 C4 1_555 1_555
H4 C5 1_555 1_555
C6 N1 1_555 1_555
H5 C6 1_555 1_555
C7 C3 1_555 1_555
C8 O2 1_555 1_555
H6 C8 1_555 1_555
H7 C8 1_555 1_555
C9 C8 1_555 1_555
H8 C9 1_555 1_555
H9 C9 1_555 1_555
H10 C9 1_555 1_555
C10 C4 1_555 1_555
H11 C10 1_555 1_555
H12 C10 1_555 1_555
H13 C10 1_555 1_555
C11 C5 1_555 1_555
C12 O4 1_555 1_555
H14 C12 1_555 1_555
H15 C12 1_555 1_555
C13 C12 1_555 1_555
H16 C13 1_555 1_555
H17 C13 1_555 1_555
H18 C13 1_555 1_555
C14 C6 1_555 1_555
C15 C14 1_555 1_555
H19 C15 1_555 1_555
C16 C15 1_555 1_555
H20 C16 1_555 1_555
C17 C16 1_555 1_555
C18 C17 1_555 1_555
H21 C18 1_555 1_555
C19 C14 1_555 1_555
H22 C19 1_555 1_555
C20 C17 1_555 1_555
C21 N1 1_555 1_555
H23 C21 1_555 1_555
H24 C21 1_555 1_555
C22 C21 1_555 1_555
H25 C22 1_555 1_555
H26 C22 1_555 1_555
C23 N2 1_555 1_555
C24 O6 1_555 1_555
H27 C24 1_555 1_555
H28 C24 1_555 1_555
H29 C24 1_555 1_555
C5 C6 1_555 1_555
C18 C19 1_555 1_555
C22 C23 1_555 1_555

#END
