
#######################################################################
#
#                 Cambridge Crystallographic Data Centre
#                                CCDC 
#
#######################################################################
#
# If this CIF has been generated from an entry in the Cambridge 
# Structural Database, then it will include bibliographic, chemical, 
# crystal, experimental, refinement or atomic coordinate data resulting 
# from the CCDC's data processing and validation procedures.
#
#######################################################################

data_UZISUS
_chemical_formula_moiety         'C22 H25 N3 O7'
_chemical_name_systematic        
'Diethyl 7-methyl-5-(4-nitrophenyl)-1-oxo-2,3,5,10-tetrahydro-1H-pyrazolo[1,2-a][1,2]diazocine-6,8-dicarboxylate'
_symmetry_cell_setting           monoclinic
_symmetry_space_group_name_H-M   'P 21/n'
_symmetry_Int_Tables_number      14
_space_group_name_Hall           '-P 2yn'
loop_
_symmetry_equiv_pos_site_id
_symmetry_equiv_pos_as_xyz
1 x,y,z
2 1/2-x,1/2+y,1/2-z
3 -x,-y,-z
4 1/2+x,1/2-y,1/2+z
_cell_length_a                   6.9086(18)
_cell_length_b                   12.855(3)
_cell_length_c                   24.098(7)
_cell_angle_alpha                90
_cell_angle_beta                 92.903(3)
_cell_angle_gamma                90
_cell_volume                     2137.4
_exptl_crystal_colour            colorless
_exptl_crystal_description       block
_cell_formula_units_Z            4
_exptl_crystal_recrystallization_method dichloromethane/methanol
loop_
_atom_site_label
_atom_site_type_symbol
_atom_site_fract_x
_atom_site_fract_y
_atom_site_fract_z
O1 O -0.0751(2) 0.70823(13) 0.27921(7)
O2 O 0.2724(2) 0.57184(13) 0.51330(7)
O3 O 0.2389(2) 0.74204(13) 0.53036(6)
O4 O 0.8676(4) 0.96219(18) 0.56229(10)
O5 O 0.8413(3) 0.81227(18) 0.60127(7)
O6 O 0.3288(3) 0.43701(15) 0.31455(10)
O7 O 0.6231(3) 0.50544(14) 0.32021(8)
N1 N 0.2031(2) 0.77104(13) 0.32202(7)
N2 N 0.4090(2) 0.77100(13) 0.31769(7)
N3 N 0.8226(3) 0.87001(19) 0.56097(8)
C1 C 0.4257(3) 0.74418(19) 0.25775(8)
H1 H 0.5442 0.7027 0.2526
H2 H 0.4317 0.8082 0.2350
C2 C 0.2449(3) 0.68097(19) 0.24076(9)
H3 H 0.1995 0.6961 0.2020
H4 H 0.2690 0.6054 0.2448
C3 C 0.1017(3) 0.71879(16) 0.28155(8)
C4 C 0.1176(3) 0.82828(17) 0.36598(8)
H5 H -0.0237 0.8334 0.3574
H6 H 0.1705 0.8999 0.3663
C5 C 0.1496(3) 0.78295(16) 0.42293(8)
H7 H 0.1294 0.8288 0.4530
C6 C 0.2028(3) 0.68640(16) 0.43674(8)
C7 C 0.2363(3) 0.59739(15) 0.39795(8)
C8 C 0.3887(3) 0.59737(15) 0.36516(8)
C9 C 0.5107(3) 0.69393(15) 0.35648(8)
H8 H 0.6264 0.6695 0.3368
C10 C 0.2390(3) 0.65896(17) 0.49680(9)
C11 C 0.2913(4) 0.7222(2) 0.58877(9)
H9 H 0.4116 0.6803 0.5923
H10 H 0.1865 0.6832 0.6061
C12 C 0.3212(4) 0.8249(2) 0.61681(10)
H11 H 0.3534 0.8139 0.6565
H12 H 0.2023 0.8662 0.6123
H13 H 0.4277 0.8619 0.6001
C13 C 0.0867(3) 0.51256(19) 0.40063(11)
H14 H 0.1429 0.4464 0.3892
H15 H -0.0252 0.5296 0.3757
H16 H 0.0450 0.5064 0.4388
C14 C 0.5906(3) 0.74409(15) 0.41011(8)
C15 C 0.6087(3) 0.85146(15) 0.41641(8)
H17 H 0.5671 0.8962 0.3868
C16 C 0.6870(3) 0.89363(17) 0.46569(9)
H18 H 0.7003 0.9668 0.4701
C17 C 0.7450(3) 0.82686(18) 0.50807(8)
C18 C 0.7335(3) 0.71997(17) 0.50267(9)
H19 H 0.7763 0.6756 0.5323
C19 C 0.6586(3) 0.67927(16) 0.45321(8)
H20 H 0.6531 0.6060 0.4484
C20 C 0.4363(3) 0.50440(16) 0.33101(9)
C21 C 0.6957(6) 0.4265(2) 0.28328(14)
H21 H 0.8141 0.3945 0.3007
H22 H 0.5971 0.3712 0.2773
C22 C 0.7394(5) 0.4714(2) 0.23061(12)
H23 H 0.7995 0.4186 0.2077
H24 H 0.8290 0.5299 0.2367
H25 H 0.6195 0.4962 0.2115
loop_
_geom_bond_atom_site_label_1
_geom_bond_atom_site_label_2
_geom_bond_site_symmetry_1
_geom_bond_site_symmetry_2
O1 C3 1_555 1_555
O2 C10 1_555 1_555
O3 C10 1_555 1_555
O4 N3 1_555 1_555
O5 N3 1_555 1_555
O6 C20 1_555 1_555
O7 C20 1_555 1_555
N1 N2 1_555 1_555
N2 C1 1_555 1_555
N3 C17 1_555 1_555
C1 H1 1_555 1_555
H2 C1 1_555 1_555
C2 C1 1_555 1_555
H3 C2 1_555 1_555
H4 C2 1_555 1_555
C3 N1 1_555 1_555
C4 N1 1_555 1_555
H5 C4 1_555 1_555
H6 C4 1_555 1_555
C5 C4 1_555 1_555
H7 C5 1_555 1_555
C6 C5 1_555 1_555
C7 C6 1_555 1_555
C8 C7 1_555 1_555
C9 N2 1_555 1_555
H8 C9 1_555 1_555
C10 C6 1_555 1_555
C11 O3 1_555 1_555
H9 C11 1_555 1_555
H10 C11 1_555 1_555
C12 C11 1_555 1_555
H11 C12 1_555 1_555
H12 C12 1_555 1_555
H13 C12 1_555 1_555
C13 C7 1_555 1_555
H14 C13 1_555 1_555
H15 C13 1_555 1_555
H16 C13 1_555 1_555
C14 C9 1_555 1_555
C15 C14 1_555 1_555
H17 C15 1_555 1_555
C16 C15 1_555 1_555
H18 C16 1_555 1_555
C17 C16 1_555 1_555
C18 C17 1_555 1_555
H19 C18 1_555 1_555
C19 C14 1_555 1_555
H20 C19 1_555 1_555
C20 C8 1_555 1_555
C21 O7 1_555 1_555
H21 C21 1_555 1_555
H22 C21 1_555 1_555
C22 C21 1_555 1_555
H23 C22 1_555 1_555
H24 C22 1_555 1_555
H25 C22 1_555 1_555
C2 C3 1_555 1_555
C8 C9 1_555 1_555
C18 C19 1_555 1_555

#END
