
#######################################################################
#
#                 Cambridge Crystallographic Data Centre
#                                CCDC 
#
#######################################################################
#
# If this CIF has been generated from an entry in the Cambridge 
# Structural Database, then it will include bibliographic, chemical, 
# crystal, experimental, refinement or atomic coordinate data resulting 
# from the CCDC's data processing and validation procedures.
#
#######################################################################

data_UZIWOQ01
_chemical_formula_moiety         'C12 H24 O6,C7 H10 N1 O1 1+,B1 F4 1-'
_chemical_name_systematic        
'4-Methoxyanilinium tetrafluoroborate 1,4,7,10,13,16-hexaoxacyclooctadecane'
_symmetry_cell_setting           orthorhombic
_symmetry_space_group_name_H-M   'P n m a'
_symmetry_Int_Tables_number      62
_space_group_name_Hall           '-P 2ac 2n'
loop_
_symmetry_equiv_pos_site_id
_symmetry_equiv_pos_as_xyz
1 x,y,z
2 1/2-x,-y,1/2+z
3 -x,1/2+y,-z
4 1/2+x,1/2-y,1/2-z
5 -x,-y,-z
6 1/2+x,y,1/2-z
7 x,1/2-y,z
8 1/2-x,1/2+y,1/2+z
_cell_length_a                   15.989(3)
_cell_length_b                   11.336(2)
_cell_length_c                   12.676(3)
_cell_angle_alpha                90
_cell_angle_beta                 90
_cell_angle_gamma                90
_cell_volume                     2297.54
_cell_formula_units_Z            4
loop_
_atom_site_label
_atom_site_type_symbol
_atom_site_fract_x
_atom_site_fract_y
_atom_site_fract_z
F1 F 0.47730(8) -0.2500 0.83047(12)
B1 B 0.39427(14) -0.2500 0.79668(19)
F2 F 0.34296(8) -0.2500 0.88507(11)
F3 F 0.37912(7) -0.35043(9) 0.73735(9)
F3F F 0.37912(7) -0.14957(9) 0.73735(9)
N1 N 0.19889(9) 0.2500 0.77136(12)
H1 H 0.1758 0.3210 0.7841
H2 H 0.2136 0.2162 0.8329
H3 H 0.1616 0.2037 0.7379
O2 O 0.48861(14) 0.3201(2) 0.53196(17)
C1 C 0.27327(9) 0.2645(2) 0.70547(11)
C2 C 0.29919(11) 0.37710(18) 0.67685(16)
H4 H 0.2670 0.4446 0.6979
C3 C 0.37165(12) 0.39189(13) 0.61774(17)
H5 H 0.3896 0.4696 0.5980
C4 C 0.41820(9) 0.29410(17) 0.58724(13)
C5 C 0.39228(12) 0.31848(14) 0.61586(16)
H6 H 0.4244 0.3860 0.5948
C6 C 0.31982(13) 0.16673(15) 0.67497(16)
H7 H 0.3019 0.4110 0.6948
C13 C 0.54528(19) 0.2270(6) 0.5110(3)
H20 H 0.5917 0.2500 0.4716
H21 H 0.5183 0.3340 0.4710
H22 H 0.5650 0.1950 0.5766
H1F H 0.1758 0.1790 0.7841
H2F H 0.2136 0.2838 0.8329
H3F H 0.1616 0.2963 0.7379
O2F O 0.48861(14) 0.1799(2) 0.53196(17)
C1F C 0.27327(9) 0.2355(2) 0.70547(11)
C2F C 0.29919(11) 0.12290(18) 0.67685(16)
H4F H 0.2670 0.0554 0.6979
C3F C 0.37165(12) 0.10811(13) 0.61774(17)
H5F H 0.3896 0.0304 0.5980
C4F C 0.41820(9) 0.20590(17) 0.58724(13)
C5F C 0.39228(12) 0.18152(14) 0.61586(16)
H6F H 0.4244 0.1140 0.5948
C6F C 0.31982(13) 0.33327(15) 0.67497(16)
H7F H 0.3019 0.0890 0.6948
C13F C 0.54528(19) 0.2730(6) 0.5110(3)
H21F H 0.5183 0.1660 0.4710
H22F H 0.5650 0.3050 0.5766
O1 O 0.04166(8) 0.2500 0.65645(10)
C7 C 0.03304(9) 0.35445(12) 0.59533(10)
H8 H 0.0809 0.3629 0.5476
H9 H -0.0180 0.3504 0.5527
O3 O 0.10686(6) 0.46878(8) 0.72238(7)
C8 C 0.02884(9) 0.45735(12) 0.66860(11)
H10 H -0.0163 0.4456 0.7198
H11 H 0.0170 0.5295 0.6287
O4 O 0.20498(6) 0.45744(8) 0.90776(8)
C9 C 0.10268(10) 0.55498(13) 0.80432(12)
H12 H 0.0857 0.6312 0.7748
H13 H 0.0611 0.5313 0.8570
O5 O 0.28873(9) 0.2500 0.96872(10)
C10 C 0.18634(10) 0.56602(13) 0.85499(13)
H14 H 0.1860 0.6312 0.9058
H15 H 0.2290 0.5825 0.8014
C11 C 0.28366(9) 0.45978(14) 0.96047(12)
H16 H 0.3292 0.4581 0.9088
H17 H 0.2888 0.5323 1.0021
C12 C 0.28909(10) 0.35436(14) 1.03120(11)
H18 H 0.2414 0.3536 1.0798
H19 H 0.3406 0.3580 1.0730
C7F C 0.03304(9) 0.14555(12) 0.59533(10)
H8F H 0.0809 0.1371 0.5476
H9F H -0.0180 0.1496 0.5527
O3F O 0.10686(6) 0.03122(8) 0.72238(7)
C8F C 0.02884(9) 0.04265(12) 0.66860(11)
H10F H -0.0163 0.0544 0.7198
H11F H 0.0170 -0.0295 0.6287
O4F O 0.20498(6) 0.04256(8) 0.90776(8)
C9F C 0.10268(10) -0.05498(13) 0.80432(12)
H12F H 0.0857 -0.1312 0.7748
H13F H 0.0611 -0.0313 0.8570
C10F C 0.18634(10) -0.06602(13) 0.85499(13)
H14F H 0.1860 -0.1312 0.9058
H15F H 0.2290 -0.0825 0.8014
C11F C 0.28366(9) 0.04022(14) 0.96047(12)
H16F H 0.3292 0.0419 0.9088
H17F H 0.2888 -0.0323 1.0021
C12F C 0.28909(10) 0.14564(14) 1.03120(11)
H18F H 0.2414 0.1464 1.0798
H19F H 0.3406 0.1420 1.0730
loop_
_geom_bond_atom_site_label_1
_geom_bond_atom_site_label_2
_geom_bond_site_symmetry_1
_geom_bond_site_symmetry_2
O1 C7 1_555 1_555
F1 B1 1_555 1_555
N1 H1 1_555 1_555
H1 H3F 1_555 1_555
H2 N1 1_555 1_555
H3 N1 1_555 1_555
O2 C4 1_555 1_555
C1 N1 1_555 1_555
C2 C1 1_555 1_555
H4 C2 1_555 1_555
C3 C2 1_555 1_555
H5 C3 1_555 1_555
C4 C3 1_555 1_555
C5 C3 1_555 1_555
H6 C3 1_555 1_555
C6 C1 1_555 1_555
H7 C2 1_555 1_555
C7 H8 1_555 1_555
H9 C7 1_555 1_555
B1 F2 1_555 1_555
O3 C8 1_555 1_555
C8 C7 1_555 1_555
H10 C8 1_555 1_555
H11 C8 1_555 1_555
O4 C10 1_555 1_555
F3 B1 1_555 1_555
C9 O3 1_555 1_555
H12 C9 1_555 1_555
H13 C9 1_555 1_555
O5 C12 1_555 1_555
C10 C9 1_555 1_555
H14 C10 1_555 1_555
H15 C10 1_555 1_555
C11 O4 1_555 1_555
H16 C11 1_555 1_555
H17 C11 1_555 1_555
C12 C11 1_555 1_555
H18 C12 1_555 1_555
H19 C12 1_555 1_555
C13 O2 1_555 1_555
H20 C13 1_555 1_555
H21 O2 1_555 1_555
H22 C13 1_555 1_555
H1F N1 1_555 1_555
H2F N1 1_555 1_555
H3F N1 1_555 1_555
O2F O2 1_555 1_555
C1F N1 1_555 1_555
C2F C1 1_555 1_555
H4F C2F 1_555 1_555
C3F C6 1_555 1_555
H5F C3F 1_555 1_555
C4F C4 1_555 1_555
C5F C4 1_555 1_555
H6F C3F 1_555 1_555
C6F C1 1_555 1_555
H7F C6 1_555 1_555
C7F O1 1_555 1_555
H8F C7F 1_555 1_555
H9F C7F 1_555 1_555
O3F C8F 1_555 1_555
C8F C7F 1_555 1_555
H10F C8F 1_555 1_555
H11F C8F 1_555 1_555
O4F C10F 1_555 1_555
F3F B1 1_555 1_555
C9F O3F 1_555 1_555
H12F C9F 1_555 1_555
H13F C9F 1_555 1_555
C10F C9F 1_555 1_555
H14F C10F 1_555 1_555
H15F C10F 1_555 1_555
C11F O4F 1_555 1_555
H16F C11F 1_555 1_555
H17F C11F 1_555 1_555
C12F O5 1_555 1_555
H18F C12F 1_555 1_555
H19F C12F 1_555 1_555
C13F O2 1_555 1_555
H21F C13 1_555 1_555
H22F C13 1_555 1_555
H2 H2F 1_555 1_555
H3 H1F 1_555 1_555
C1 C1F 1_555 1_555
C2 C1F 1_555 1_555
C2 C6F 1_555 1_555
H4 H7 1_555 1_555
C3 C6F 1_555 1_555
C4 C5 1_555 1_555
C4 H6 1_555 1_555
C5 H6 1_555 1_555
C5 C4F 1_555 1_555
C5 C5F 1_555 1_555
C5 C6F 1_555 1_555
C6 C1F 1_555 1_555
C6 C2F 1_555 1_555
C6 C5F 1_555 1_555
H7 C6F 1_555 1_555
C13 O2F 1_555 1_555
C13 C13F 1_555 1_555
H20 C13F 1_555 1_555
H21 C13F 1_555 1_555
H22 C13F 1_555 1_555
O2F C4F 1_555 1_555
O2F C13F 1_555 1_555
O2F H21F 1_555 1_555
C1F C2F 1_555 1_555
C1F C6F 1_555 1_555
C2F C3F 1_555 1_555
C2F H7F 1_555 1_555
H4F H7F 1_555 1_555
C3F C4F 1_555 1_555
C3F C5F 1_555 1_555
C4F C5F 1_555 1_555
C4F H6F 1_555 1_555
C5F H6F 1_555 1_555
C11F C12F 1_555 1_555
C13F H22F 1_555 1_555

#END
