
#######################################################################
#
#                 Cambridge Crystallographic Data Centre
#                                CCDC 
#
#######################################################################
#
# If this CIF has been generated from an entry in the Cambridge 
# Structural Database, then it will include bibliographic, chemical, 
# crystal, experimental, refinement or atomic coordinate data resulting 
# from the CCDC's data processing and validation procedures.
#
#######################################################################

data_UZOGOG
_chemical_formula_moiety         'C17 H17 Br1 N2 O5 S1'
_chemical_name_systematic        
"(3R,4'R,5'R)-4'-Ethyl 5'-methyl 6-bromo-1-methyl-2-oxo-2'-thioxo-1,2-dihydrospiro[indole-3,3'-pyrrolidine]-4',5'-dicarboxylate"
_symmetry_cell_setting           monoclinic
_symmetry_space_group_name_H-M   'P 21'
_symmetry_Int_Tables_number      4
_space_group_name_Hall           'P 2yb'
loop_
_symmetry_equiv_pos_site_id
_symmetry_equiv_pos_as_xyz
1 x,y,z
2 -x,1/2+y,-z
_cell_length_a                   9.799(4)
_cell_length_b                   8.913(4)
_cell_length_c                   10.935(5)
_cell_angle_alpha                90
_cell_angle_beta                 90.731(4)
_cell_angle_gamma                90
_cell_volume                     954.969
_exptl_crystal_colour            colorless
_exptl_crystal_description       block
_cell_formula_units_Z            2
loop_
_atom_site_label
_atom_site_type_symbol
_atom_site_fract_x
_atom_site_fract_y
_atom_site_fract_z
Br1 Br 0.47252(9) -0.18088(11) 0.35322(8)
C1 C 0.8272(7) 0.1141(8) 0.2180(6)
C2 C 0.8372(7) -0.0377(8) 0.2106(6)
H1 H 0.9145 -0.0813 0.1772
C3 C 0.7331(7) -0.1270(8) 0.2525(6)
H2 H 0.7394 -0.2310 0.2481
C4 C 0.6200(7) -0.0596(9) 0.3008(6)
C5 C 0.6058(8) 0.0945(8) 0.3120(6)
H3 H 0.5295 0.1375 0.3475
C6 C 0.7105(7) 0.1803(8) 0.2678(6)
C7 C 0.8399(7) 0.3797(8) 0.2099(5)
C8 C 0.9187(7) 0.2377(8) 0.1763(5)
C9 C 0.9404(6) 0.2236(8) 0.0377(5)
C10 C 1.1496(7) 0.1569(8) 0.1330(6)
H4 H 1.1565 0.0511 0.1568
C11 C 1.0655(6) 0.2427(8) 0.2285(6)
H5 H 1.0960 0.3475 0.2294
C12 C 0.6234(8) 0.4412(9) 0.3142(7)
H6 H 0.6626 0.4871 0.3859
H7 H 0.5416 0.3887 0.3359
H8 H 0.6017 0.5172 0.2549
C13 C 1.2892(8) 0.2191(12) 0.1141(8)
C14 C 1.4860(9) 0.2022(18) -0.0077(9)
H9 H 1.4894 0.3076 -0.0251
H10 H 1.5159 0.1468 -0.0777
H11 H 1.5446 0.1802 0.0610
C15 C 1.0811(9) 0.1809(10) 0.3548(8)
C16 C 0.9860(12) 0.1947(13) 0.5562(7)
H12 H 1.0579 0.1227 0.5737
H13 H 0.9986 0.2801 0.6101
C17 C 0.8559(13) 0.1276(19) 0.5768(9)
H14 H 0.7877 0.1777 0.5279
H15 H 0.8334 0.1366 0.6616
H16 H 0.8590 0.0235 0.5546
N1 N 0.7206(5) 0.3359(7) 0.2627(4)
N2 N 1.0661(6) 0.1698(7) 0.0219(5)
O1 O 0.8735(5) 0.5097(6) 0.1963(4)
O2 O 1.3434(6) 0.3057(12) 0.1812(7)
O3 O 1.3480(6) 0.1599(8) 0.0205(5)
O4 O 1.1561(10) 0.0828(10) 0.3839(6)
O5 O 0.9937(6) 0.2438(7) 0.4278(4)
S1 S 0.82614(17) 0.2555(2) -0.06942(15)
H17 H 1.114(9) 0.123(11) -0.038(8)
loop_
_geom_bond_atom_site_label_1
_geom_bond_atom_site_label_2
_geom_bond_site_symmetry_1
_geom_bond_site_symmetry_2
Br1 C4 1_555 1_555
C1 C2 1_555 1_555
C2 H1 1_555 1_555
C3 C2 1_555 1_555
H2 C3 1_555 1_555
C4 C3 1_555 1_555
C5 C4 1_555 1_555
H3 C5 1_555 1_555
C6 C1 1_555 1_555
C7 C8 1_555 1_555
C8 C1 1_555 1_555
C9 C8 1_555 1_555
C10 H4 1_555 1_555
C11 C8 1_555 1_555
H5 C11 1_555 1_555
C12 H6 1_555 1_555
H7 C12 1_555 1_555
H8 C12 1_555 1_555
C13 C10 1_555 1_555
C14 H9 1_555 1_555
H10 C14 1_555 1_555
H11 C14 1_555 1_555
C15 C11 1_555 1_555
C16 H12 1_555 1_555
H13 C16 1_555 1_555
C17 C16 1_555 1_555
H14 C17 1_555 1_555
H15 C17 1_555 1_555
H16 C17 1_555 1_555
N1 C6 1_555 1_555
N2 C9 1_555 1_555
O1 C7 1_555 1_555
O2 C13 1_555 1_555
O3 C13 1_555 1_555
O4 C15 1_555 1_555
O5 C15 1_555 1_555
S1 C9 1_555 1_555
H17 N2 1_555 1_555
C5 C6 1_555 1_555
C7 N1 1_555 1_555
C10 C11 1_555 1_555
C10 N2 1_555 1_555
C12 N1 1_555 1_555
C14 O3 1_555 1_555
C16 O5 1_555 1_555

#END
