
#######################################################################
#
#                 Cambridge Crystallographic Data Centre
#                                CCDC 
#
#######################################################################
#
# If this CIF has been generated from an entry in the Cambridge 
# Structural Database, then it will include bibliographic, chemical, 
# crystal, experimental, refinement or atomic coordinate data resulting 
# from the CCDC's data processing and validation procedures.
#
#######################################################################

data_UZOKEB
_chemical_name_common            Sanguinarine
_chemical_formula_moiety         'C21 H17 N1 O5'
_chemical_name_systematic        
(R)-14-methoxy-13-methyl-13,14-dihydro[1,3]benzodioxolo[5,6-c][1,3]dioxolo[4,5-i]phenanthridine
_symmetry_cell_setting           orthorhombic
_symmetry_space_group_name_H-M   'P 21 21 21'
_symmetry_Int_Tables_number      19
_space_group_name_Hall           'P 2ac 2ab'
loop_
_symmetry_equiv_pos_site_id
_symmetry_equiv_pos_as_xyz
1 x,y,z
2 1/2+x,1/2-y,-z
3 -x,1/2+y,1/2-z
4 1/2-x,-y,1/2+z
_cell_length_a                   7.7154(2)
_cell_length_b                   9.5901(3)
_cell_length_c                   22.5595(6)
_cell_angle_alpha                90
_cell_angle_beta                 90
_cell_angle_gamma                90
_cell_volume                     1669.21
_exptl_crystal_colour            white
_exptl_crystal_description       polyhedral
_cell_formula_units_Z            4
loop_
_atom_site_label
_atom_site_type_symbol
_atom_site_fract_x
_atom_site_fract_y
_atom_site_fract_z
O1 O 0.1124(2) 0.47576(15) 0.08793(6)
O2 O 0.1056(2) 0.28810(14) 0.50313(6)
O3 O 0.2191(2) 0.09752(16) 0.55281(7)
O4 O 0.23497(19) 0.45042(13) 0.37991(6)
O5 O 0.2840(2) 0.32174(16) 0.03591(6)
N1 N 0.0835(2) 0.31290(16) 0.30874(7)
C1 C 0.1501(3) 0.4226(3) 0.02998(10)
H1 H 0.0474 0.3801 0.0130
H2 H 0.1875 0.4976 0.0041
C2 C 0.1721(3) 0.3742(2) 0.12628(9)
C3 C 0.1446(3) 0.3633(2) 0.18526(9)
H3 H 0.0729 0.4256 0.2052
C4 C 0.2306(3) 0.2518(2) 0.21594(9)
C5 C 0.2067(3) 0.2283(2) 0.27774(10)
C6 C 0.3005(3) 0.1265(2) 0.30719(10)
C7 C 0.2768(3) 0.1063(2) 0.37150(10)
C8 C 0.1908(3) 0.2130(2) 0.40277(9)
C9 C 0.1779(3) 0.1961(2) 0.46317(9)
C10 C 0.1310(4) 0.2261(2) 0.55965(10)
H4 H 0.1986 0.2880 0.5846
H5 H 0.0199 0.2106 0.5786
C11 C 0.2437(3) 0.0829(2) 0.49226(10)
C12 C -0.0981(3) 0.2794(2) 0.29609(9)
H6 H -0.1142 0.2718 0.2540
H7 H -0.1712 0.3520 0.3113
H8 H -0.1277 0.1925 0.3146
C13 C 0.1168(3) 0.3374(2) 0.37114(9)
H9 H 0.0067 0.3618 0.3902
C14 C 0.1552(3) 0.5811(2) 0.36646(11)
H10 H 0.1203 0.5820 0.3256
H11 H 0.2363 0.6552 0.3734
H12 H 0.0553 0.5938 0.3913
C15 C 0.2790(3) 0.2824(2) 0.09492(9)
C16 C 0.3673(3) 0.1790(2) 0.12172(10)
H13 H 0.4401 0.1204 0.1003
C17 C 0.3452(3) 0.1626(2) 0.18393(10)
C18 C 0.4387(3) 0.0598(2) 0.21509(10)
H14 H 0.5144 0.0018 0.1946
C19 C 0.4201(3) 0.0440(2) 0.27475(10)
H15 H 0.4869 -0.0219 0.2945
C20 C 0.3388(3) -0.0105(2) 0.40152(11)
H16 H 0.3917 -0.0815 0.3801
C21 C 0.3237(3) -0.0237(2) 0.46285(11)
H17 H 0.3661 -0.1014 0.4828
loop_
_geom_bond_atom_site_label_1
_geom_bond_atom_site_label_2
_geom_bond_site_symmetry_1
_geom_bond_site_symmetry_2
O1 C1 1_555 1_555
O2 C9 1_555 1_555
O3 C10 1_555 1_555
O4 C13 1_555 1_555
O5 C1 1_555 1_555
N1 C5 1_555 1_555
C1 H1 1_555 1_555
H2 C1 1_555 1_555
C2 O1 1_555 1_555
C3 C2 1_555 1_555
H3 C3 1_555 1_555
C4 C3 1_555 1_555
C5 C4 1_555 1_555
C6 C5 1_555 1_555
C7 C6 1_555 1_555
C8 C7 1_555 1_555
C9 C8 1_555 1_555
C10 O2 1_555 1_555
H4 C10 1_555 1_555
H5 C10 1_555 1_555
C11 O3 1_555 1_555
C12 N1 1_555 1_555
H6 C12 1_555 1_555
H7 C12 1_555 1_555
H8 C12 1_555 1_555
C13 N1 1_555 1_555
H9 C13 1_555 1_555
C14 O4 1_555 1_555
H10 C14 1_555 1_555
H11 C14 1_555 1_555
H12 C14 1_555 1_555
C15 O5 1_555 1_555
C16 C15 1_555 1_555
H13 C16 1_555 1_555
C17 C4 1_555 1_555
C18 C17 1_555 1_555
H14 C18 1_555 1_555
C19 C6 1_555 1_555
H15 C19 1_555 1_555
C20 C7 1_555 1_555
H16 C20 1_555 1_555
C21 C11 1_555 1_555
H17 C21 1_555 1_555
C2 C15 1_555 1_555
C8 C13 1_555 1_555
C9 C11 1_555 1_555
C16 C17 1_555 1_555
C18 C19 1_555 1_555
C20 C21 1_555 1_555

#END
