
#######################################################################
#
#                 Cambridge Crystallographic Data Centre
#                                CCDC 
#
#######################################################################
#
# If this CIF has been generated from an entry in the Cambridge 
# Structural Database, then it will include bibliographic, chemical, 
# crystal, experimental, refinement or atomic coordinate data resulting 
# from the CCDC's data processing and validation procedures.
#
#######################################################################

data_UZOKIF
_chemical_name_common            Sanguinarine
_chemical_formula_moiety         'C21 H17 N1 O5'
_chemical_name_systematic        
(S)-14-methoxy-13-methyl-13,14-dihydro[1,3]benzodioxolo[5,6-c][1,3]dioxolo[4,5-i]phenanthridine
_symmetry_cell_setting           orthorhombic
_symmetry_space_group_name_H-M   'P 21 21 21'
_symmetry_Int_Tables_number      19
_space_group_name_Hall           'P 2ac 2ab'
loop_
_symmetry_equiv_pos_site_id
_symmetry_equiv_pos_as_xyz
1 x,y,z
2 1/2-x,-y,1/2+z
3 1/2+x,1/2-y,-z
4 -x,1/2+y,1/2-z
_cell_length_a                   7.7230(2)
_cell_length_b                   9.6004(3)
_cell_length_c                   22.5562(7)
_cell_angle_alpha                90
_cell_angle_beta                 90
_cell_angle_gamma                90
_cell_volume                     1672.4
_exptl_crystal_colour            white
_exptl_crystal_description       polyhedral
_cell_formula_units_Z            4
loop_
_atom_site_label
_atom_site_type_symbol
_atom_site_fract_x
_atom_site_fract_y
_atom_site_fract_z
O1 O 0.88767(16) 0.52441(12) 0.91197(4)
O2 O 0.71604(15) 0.67845(12) 0.96397(5)
O3 O 0.76519(13) 0.54928(9) 0.62006(4)
C1 C 0.72072(18) 0.71781(15) 0.90535(6)
C2 C 0.63219(19) 0.82125(15) 0.87836(7)
H1 H 0.5574 0.8809 0.9001
C3 C 0.82212(19) 0.80319(15) 0.53681(7)
N1 N 0.91622(15) 0.68706(11) 0.69121(5)
C4 C 0.65493(18) 0.83777(14) 0.81597(7)
O4 O 0.78081(16) 0.90227(13) 0.44735(5)
C5 C 0.5794(2) 0.95644(15) 0.72535(7)
H2 H 0.5111 1.0236 0.7051
C6 C 0.6755(2) 1.02398(17) 0.53717(8)
H3 H 0.6320 1.1034 0.5169
O5 O 0.89463(16) 0.71171(11) 0.49687(5)
C7 C 0.79399(17) 0.77133(13) 0.72225(6)
C8 C 0.82753(18) 0.62528(15) 0.87371(6)
C9 C 0.5609(2) 0.94070(15) 0.78491(7)
H4 H 0.4837 0.9998 0.8059
C10 C 0.88342(17) 0.66238(13) 0.62889(6)
H5 H 0.9957 0.6376 0.6095
C11 C 0.76960(17) 0.74767(14) 0.78404(6)
C12 C 0.80892(17) 0.78702(14) 0.59721(6)
C13 C 0.69943(18) 0.87399(14) 0.69281(7)
C14 C 0.6605(2) 1.01017(16) 0.59823(8)
H6 H 0.6058 1.0823 0.6201
C15 C 0.72354(17) 0.89351(14) 0.62856(7)
C16 C 0.7561(2) 0.91710(16) 0.50734(7)
C17 C 0.85534(18) 0.63636(14) 0.81463(6)
H7 H 0.9287 0.5730 0.7943
C18 C 1.09849(19) 0.72069(16) 0.70381(6)
H8 H 1.1293 0.8084 0.6842
H9 H 1.1729 0.6458 0.6889
H10 H 1.1147 0.7303 0.7467
C19 C 0.8446(2) 0.41905(15) 0.63358(7)
H11 H 0.9495 0.4079 0.6096
H12 H 0.7637 0.3432 0.6247
H13 H 0.8750 0.4164 0.6757
C20 C 0.8688(2) 0.77380(18) 0.44028(7)
H14 H 0.9820 0.7897 0.4208
H15 H 0.7997 0.7107 0.4149
C21 C 0.8507(2) 0.57703(19) 0.96998(7)
H16 H 0.8125 0.5005 0.9963
H17 H 0.9554 0.6203 0.9873
loop_
_geom_bond_atom_site_label_1
_geom_bond_atom_site_label_2
_geom_bond_site_symmetry_1
_geom_bond_site_symmetry_2
O1 C8 1_555 1_555
O2 C1 1_555 1_555
O3 C10 1_555 1_555
C1 C2 1_555 1_555
C2 H1 1_555 1_555
C3 O5 1_555 1_555
N1 C7 1_555 1_555
C4 C2 1_555 1_555
O4 C16 1_555 1_555
C5 H2 1_555 1_555
C6 H3 1_555 1_555
O5 C20 1_555 1_555
C7 C11 1_555 1_555
C8 C1 1_555 1_555
C9 C4 1_555 1_555
H4 C9 1_555 1_555
C10 N1 1_555 1_555
H5 C10 1_555 1_555
C11 C4 1_555 1_555
C12 C3 1_555 1_555
C13 C5 1_555 1_555
C14 C6 1_555 1_555
H6 C14 1_555 1_555
C15 C12 1_555 1_555
C16 C3 1_555 1_555
C17 C8 1_555 1_555
H7 C17 1_555 1_555
C18 N1 1_555 1_555
H8 C18 1_555 1_555
H9 C18 1_555 1_555
H10 C18 1_555 1_555
C19 O3 1_555 1_555
H11 C19 1_555 1_555
H12 C19 1_555 1_555
H13 C19 1_555 1_555
C20 O4 1_555 1_555
H14 C20 1_555 1_555
H15 C20 1_555 1_555
C21 O1 1_555 1_555
H16 C21 1_555 1_555
H17 C21 1_555 1_555
O2 C21 1_555 1_555
C5 C9 1_555 1_555
C6 C16 1_555 1_555
C7 C13 1_555 1_555
C10 C12 1_555 1_555
C11 C17 1_555 1_555
C13 C15 1_555 1_555
C14 C15 1_555 1_555

#END
