
#######################################################################
#
#                 Cambridge Crystallographic Data Centre
#                                CCDC 
#
#######################################################################
#
# If this CIF has been generated from an entry in the Cambridge 
# Structural Database, then it will include bibliographic, chemical, 
# crystal, experimental, refinement or atomic coordinate data resulting 
# from the CCDC's data processing and validation procedures.
#
#######################################################################

data_UZOWEM
_chemical_formula_moiety         'C6 H3 Cl3 O1'
_chemical_name_systematic        3,4,5-trichlorophenol
_symmetry_cell_setting           triclinic
_symmetry_space_group_name_H-M   'P -1'
_symmetry_Int_Tables_number      2
_space_group_name_Hall           '-P 1'
loop_
_symmetry_equiv_pos_site_id
_symmetry_equiv_pos_as_xyz
1 x,y,z
2 -x,-y,-z
_cell_length_a                   7.057(3)
_cell_length_b                   14.776(6)
_cell_length_c                   15.408(6)
_cell_angle_alpha                66.479(12)
_cell_angle_beta                 81.914(14)
_cell_angle_gamma                80.739(14)
_cell_volume                     1448.77
_exptl_crystal_colour            colorless
_exptl_crystal_description       block
_cell_formula_units_Z            8
loop_
_atom_site_label
_atom_site_type_symbol
_atom_site_fract_x
_atom_site_fract_y
_atom_site_fract_z
Cl1 Cl 0.05595(9) 0.01285(4) 0.13301(4)
Cl4 Cl 0.05823(9) -0.11663(5) 0.35215(4)
Cl5 Cl 0.22754(9) -0.34248(5) 0.41681(4)
O4 O 0.3063(3) -0.30210(13) 0.07388(13)
H4 H 0.3034 -0.2607 0.0193
C1 C 0.1861(3) -0.15558(18) 0.10612(17)
H5 H 0.1783 -0.1169 0.0418
C2 C 0.2672(3) -0.31359(18) 0.23195(17)
H6 H 0.3150 -0.3805 0.2521
C5 C 0.2083(3) -0.26941(18) 0.29739(16)
C11 C 0.1307(3) -0.11335(17) 0.17297(17)
C12 C 0.2534(3) -0.25605(18) 0.13584(17)
C23 C 0.1381(3) -0.16940(18) 0.26984(16)
Cl2 Cl 0.40767(9) -0.40450(5) 0.63145(4)
Cl3 Cl 0.34484(9) -0.16965(5) 0.54174(4)
Cl6 Cl 0.39110(11) -0.51202(5) 0.85402(4)
O1 O 0.2898(3) -0.17829(13) 0.87842(13)
H1 H 0.2951 -0.1189 0.8472
C3 C 0.3661(3) -0.33650(18) 0.70266(17)
C7 C 0.3117(3) -0.17798(18) 0.72025(17)
H9 H 0.2925 -0.1089 0.6933
C9 C 0.3405(3) -0.23295(18) 0.66342(16)
C14 C 0.3124(3) -0.22820(18) 0.81811(17)
C17 C 0.3335(4) -0.33080(18) 0.85955(17)
H12 H 0.3298 -0.3635 0.9252
C24 C 0.3603(3) -0.38422(18) 0.80152(18)
Cl7 Cl -0.22038(10) -0.24935(5) 0.06860(4)
Cl8 Cl -0.46943(9) -0.05075(4) 0.30057(5)
Cl10 Cl -0.38839(9) -0.04954(5) 0.09462(5)
O3 O -0.2201(3) -0.41513(12) 0.42894(12)
H3 H -0.1428 -0.4552 0.4139
C4 C -0.3365(3) -0.24497(18) 0.36233(17)
H7 H -0.3623 -0.2450 0.4232
C8 C -0.2651(3) -0.24587(19) 0.18049(17)
C10 C -0.2593(3) -0.33085(17) 0.34912(17)
C13 C -0.2245(3) -0.33259(18) 0.25846(17)
H10 H -0.1746 -0.3912 0.2504
C16 C -0.3390(3) -0.15768(18) 0.19182(17)
C20 C -0.3750(3) -0.15859(18) 0.28353(18)
Cl9 Cl -0.18456(10) -0.09683(5) 0.58192(5)
Cl11 Cl -0.16565(10) -0.41308(5) 0.91849(4)
Cl12 Cl -0.20801(9) -0.18089(5) 0.80548(5)
O2 O -0.0825(3) -0.45577(12) 0.60622(12)
H2 H -0.1313 -0.4307 0.5554
C6 C -0.1233(3) -0.42814(18) 0.74911(17)
H8 H -0.1124 -0.4965 0.7831
C15 C -0.1290(3) -0.28716(18) 0.59894(17)
H11 H -0.1193 -0.2617 0.5329
C18 C -0.1707(3) -0.26061(19) 0.74634(18)
C19 C -0.1504(3) -0.36345(19) 0.79629(17)
C21 C -0.1126(3) -0.38894(17) 0.65035(17)
C22 C -0.1600(3) -0.22383(17) 0.64737(18)
loop_
_geom_bond_atom_site_label_1
_geom_bond_atom_site_label_2
_geom_bond_site_symmetry_1
_geom_bond_site_symmetry_2
Cl1 C11 1_555 1_555
Cl2 C3 1_555 1_555
Cl3 C9 1_555 1_555
Cl4 C23 1_555 1_555
Cl5 C5 1_555 1_555
Cl6 C24 1_555 1_555
Cl7 C8 1_555 1_555
Cl8 C20 1_555 1_555
Cl9 C22 1_555 1_555
Cl10 C16 1_555 1_555
Cl11 C19 1_555 1_555
Cl12 C18 1_555 1_555
O1 H1 1_555 1_555
O2 H2 1_555 1_555
O3 H3 1_555 1_555
O4 H4 1_555 1_555
C1 H5 1_555 1_555
C2 H6 1_555 1_555
C3 C9 1_555 1_555
C4 H7 1_555 1_555
C5 C2 1_555 1_555
C6 H8 1_555 1_555
C7 H9 1_555 1_555
C8 C13 1_555 1_555
C9 C7 1_555 1_555
C10 O3 1_555 1_555
C11 C1 1_555 1_555
C12 O4 1_555 1_555
C13 C10 1_555 1_555
H10 C13 1_555 1_555
C14 O1 1_555 1_555
C15 H11 1_555 1_555
C16 C8 1_555 1_555
C17 C14 1_555 1_555
H12 C17 1_555 1_555
C18 C19 1_555 1_555
C19 C6 1_555 1_555
C20 C4 1_555 1_555
C21 O2 1_555 1_555
C22 C15 1_555 1_555
C23 C5 1_555 1_555
C24 C3 1_555 1_555
C1 C12 1_555 1_555
C2 C12 1_555 1_555
C4 C10 1_555 1_555
C6 C21 1_555 1_555
C7 C14 1_555 1_555
C11 C23 1_555 1_555
C15 C21 1_555 1_555
C16 C20 1_555 1_555
C17 C24 1_555 1_555
C18 C22 1_555 1_555

#END
