
#######################################################################
#
#                 Cambridge Crystallographic Data Centre
#                                CCDC 
#
#######################################################################
#
# If this CIF has been generated from an entry in the Cambridge 
# Structural Database, then it will include bibliographic, chemical, 
# crystal, experimental, refinement or atomic coordinate data resulting 
# from the CCDC's data processing and validation procedures.
#
#######################################################################

data_UZOWEM04
_chemical_formula_moiety         'C6 H3 Cl3 O1'
_chemical_name_systematic        3,4,5-trichlorophenol
_symmetry_cell_setting           triclinic
_symmetry_space_group_name_H-M   'P -1'
_symmetry_Int_Tables_number      2
_space_group_name_Hall           '-P 1'
loop_
_symmetry_equiv_pos_site_id
_symmetry_equiv_pos_as_xyz
1 x,y,z
2 -x,-y,-z
_cell_length_a                   7.233(5)
_cell_length_b                   14.890(8)
_cell_length_c                   15.528(8)
_cell_angle_alpha                66.55(2)
_cell_angle_beta                 81.90(2)
_cell_angle_gamma                80.25(2)
_cell_volume                     1507.07
_exptl_crystal_colour            colorless
_exptl_crystal_description       block
_cell_formula_units_Z            8
loop_
_atom_site_label
_atom_site_type_symbol
_atom_site_fract_x
_atom_site_fract_y
_atom_site_fract_z
Cl1 Cl 0.05287(14) 0.01004(6) 0.13574(8)
Cl4 Cl 0.06267(14) -0.11841(8) 0.35272(7)
Cl5 Cl 0.23318(15) -0.34256(8) 0.41540(6)
O4 O 0.3061(5) -0.30079(19) 0.07492(19)
H4 H 0.2818 -0.2619 0.0218
C1 C 0.1854(4) -0.1565(2) 0.1083(2)
H5 H 0.1766 -0.1178 0.0446
C2 C 0.2683(4) -0.3126(2) 0.2319(2)
H6 H 0.3164 -0.3790 0.2514
C5 C 0.2113(4) -0.2699(2) 0.2974(2)
C11 C 0.1305(4) -0.1150(2) 0.1749(2)
C12 C 0.2532(5) -0.2555(2) 0.1368(2)
C23 C 0.1399(4) -0.1707(2) 0.2705(2)
Cl2 Cl 0.40791(13) -0.40382(7) 0.63372(7)
Cl3 Cl 0.34642(16) -0.17106(8) 0.54515(6)
Cl6 Cl 0.39250(18) -0.51017(7) 0.85422(7)
O1 O 0.2911(4) -0.17917(18) 0.87912(18)
H1 H 0.2976 -0.1204 0.8482
C3 C 0.3674(4) -0.3364(2) 0.7050(2)
C7 C 0.3141(5) -0.1798(2) 0.7224(2)
H9 H 0.2953 -0.1112 0.6957
C9 C 0.3424(4) -0.2340(2) 0.6659(2)
C14 C 0.3144(5) -0.2291(2) 0.8194(2)
C17 C 0.3358(5) -0.3306(2) 0.8598(2)
H12 H 0.3324 -0.3632 0.9249
C24 C 0.3625(5) -0.3833(2) 0.8021(2)
Cl7 Cl -0.22132(17) -0.24855(9) 0.06965(7)
Cl8 Cl -0.46875(14) -0.05215(7) 0.30110(8)
Cl10 Cl -0.39108(16) -0.05013(8) 0.09618(8)
O3 O -0.2144(4) -0.41216(16) 0.42650(16)
H3 H -0.1489 -0.4547 0.4109
C4 C -0.3331(4) -0.2439(2) 0.3606(2)
H7 H -0.3584 -0.2439 0.4210
C8 C -0.2637(5) -0.2451(3) 0.1805(2)
C10 C -0.2548(4) -0.3291(2) 0.3476(2)
C13 C -0.2216(4) -0.3302(2) 0.2577(2)
H10 H -0.1709 -0.3884 0.2496
C16 C -0.3392(4) -0.1570(2) 0.1920(2)
C20 C -0.3735(4) -0.1588(2) 0.2832(2)
Cl9 Cl -0.18363(17) -0.09791(7) 0.58381(9)
Cl11 Cl -0.16278(17) -0.41219(9) 0.91690(7)
Cl12 Cl -0.20589(15) -0.18171(8) 0.80575(8)
O2 O -0.0824(4) -0.45349(16) 0.60669(16)
H2 H -0.1235 -0.4269 0.5546
C6 C -0.1214(4) -0.4265(2) 0.7485(2)
H8 H -0.1097 -0.4944 0.7819
C15 C -0.1290(4) -0.2865(2) 0.6003(2)
H11 H -0.1211 -0.2609 0.5348
C18 C -0.1698(4) -0.2607(3) 0.7470(2)
C19 C -0.1490(4) -0.3623(3) 0.7954(2)
C21 C -0.1116(4) -0.3873(2) 0.6506(2)
C22 C -0.1585(4) -0.2238(2) 0.6487(3)
loop_
_geom_bond_atom_site_label_1
_geom_bond_atom_site_label_2
_geom_bond_site_symmetry_1
_geom_bond_site_symmetry_2
Cl1 C11 1_555 1_555
Cl2 C3 1_555 1_555
Cl3 C9 1_555 1_555
Cl4 C23 1_555 1_555
Cl5 C5 1_555 1_555
Cl6 C24 1_555 1_555
Cl7 C8 1_555 1_555
Cl8 C20 1_555 1_555
Cl9 C22 1_555 1_555
Cl10 C16 1_555 1_555
Cl11 C19 1_555 1_555
Cl12 C18 1_555 1_555
O1 H1 1_555 1_555
O2 H2 1_555 1_555
O3 H3 1_555 1_555
O4 H4 1_555 1_555
C1 H5 1_555 1_555
C2 H6 1_555 1_555
C3 C9 1_555 1_555
C4 H7 1_555 1_555
C5 C2 1_555 1_555
C6 H8 1_555 1_555
C7 H9 1_555 1_555
C8 C13 1_555 1_555
C9 C7 1_555 1_555
C10 O3 1_555 1_555
C11 C1 1_555 1_555
C12 O4 1_555 1_555
C13 C10 1_555 1_555
H10 C13 1_555 1_555
C14 O1 1_555 1_555
C15 H11 1_555 1_555
C16 C8 1_555 1_555
C17 C14 1_555 1_555
H12 C17 1_555 1_555
C18 C19 1_555 1_555
C19 C6 1_555 1_555
C20 C4 1_555 1_555
C21 O2 1_555 1_555
C22 C15 1_555 1_555
C23 C5 1_555 1_555
C24 C3 1_555 1_555
C1 C12 1_555 1_555
C2 C12 1_555 1_555
C4 C10 1_555 1_555
C6 C21 1_555 1_555
C7 C14 1_555 1_555
C11 C23 1_555 1_555
C15 C21 1_555 1_555
C16 C20 1_555 1_555
C17 C24 1_555 1_555
C18 C22 1_555 1_555

#END
