
#######################################################################
#
#                 Cambridge Crystallographic Data Centre
#                                CCDC 
#
#######################################################################
#
# If this CIF has been generated from an entry in the Cambridge 
# Structural Database, then it will include bibliographic, chemical, 
# crystal, experimental, refinement or atomic coordinate data resulting 
# from the CCDC's data processing and validation procedures.
#
#######################################################################

data_UZOXUD
_chemical_formula_moiety         'C6 H3 Cl3 O1,C6 H3 Cl3 O1'
_chemical_name_systematic        '2,3,4-trichlorophenol 3,4,5-trichlorophenol'
_symmetry_cell_setting           triclinic
_symmetry_space_group_name_H-M   'P -1'
_symmetry_Int_Tables_number      2
_space_group_name_Hall           '-P 1'
loop_
_symmetry_equiv_pos_site_id
_symmetry_equiv_pos_as_xyz
1 x,y,z
2 -x,-y,-z
_cell_length_a                   7.5300(9)
_cell_length_b                   14.2030(17)
_cell_length_c                   14.5740(17)
_cell_angle_alpha                81.459(6)
_cell_angle_beta                 80.154(6)
_cell_angle_gamma                78.092(6)
_cell_volume                     1492.26
_exptl_crystal_colour            colorless
_exptl_crystal_description       block
_cell_formula_units_Z            4
loop_
_atom_site_label
_atom_site_type_symbol
_atom_site_fract_x
_atom_site_fract_y
_atom_site_fract_z
Cl1 Cl 0.81910(11) 0.07526(7) 0.08306(6)
Cl2 Cl 0.78030(12) 0.09237(7) -0.13046(6)
Cl3 Cl 0.38627(14) 0.14591(7) -0.18827(6)
O1 O 0.1255(3) 0.16842(19) 0.15052(17)
H1 H 0.1535 0.1588 0.2050
C2 C 0.4530(4) 0.1246(2) 0.1145(2)
H4 H 0.4663 0.1196 0.1788
C4 C 0.4141(4) 0.1385(2) -0.0724(2)
C6 C 0.5896(4) 0.1140(2) -0.0469(2)
C8 C 0.2614(4) 0.1563(2) -0.0067(2)
H5 H 0.1427 0.1729 -0.0251
C9 C 0.2814(4) 0.1499(2) 0.0868(2)
C10 C 0.6052(4) 0.1066(2) 0.0472(2)
Cl4 Cl 0.47819(15) -0.19212(7) 0.43281(7)
Cl5 Cl 0.37281(15) -0.15078(8) 0.64269(7)
Cl6 Cl 0.13249(16) 0.05026(9) 0.68638(6)
O2 O 0.1331(4) 0.14024(19) 0.33716(17)
H2 H 0.0592 0.1874 0.3586
C1 C 0.2919(4) -0.0144(2) 0.3878(2)
H3 H 0.3248 -0.0276 0.3245
C3 C 0.3481(5) -0.0828(2) 0.4598(2)
C5 C 0.3012(5) -0.0645(3) 0.5533(2)
C7 C 0.1956(5) 0.0243(3) 0.5724(2)
C11 C 0.1373(5) 0.0940(3) 0.5014(2)
H6 H 0.0649 0.1546 0.5156
C12 C 0.1865(5) 0.0737(2) 0.4094(2)
Cl7 Cl -0.1476(2) 0.67434(11) 0.31933(16)
Cl8 Cl 0.2311(2) 0.63826(10) 0.39465(10)
Cl9 Cl 0.4260(2) 0.42374(12) 0.44221(12)
C13 C 0.1319(10) 0.5432(4) 0.3823(4)
C14 C 0.2159(6) 0.4479(3) 0.4046(3)
C15 C -0.1202(7) 0.4826(4) 0.3401(4)
H7 H -0.2353 0.4941 0.3181
C16 C -0.0277(8) 0.3889(4) 0.3638(4)
C17 C 0.1369(8) 0.3717(3) 0.3964(4)
H8 H 0.1962 0.3071 0.4133
C18 C -0.0380(7) 0.5580(4) 0.3499(4)
O3 O -0.1012(13) 0.3183(6) 0.3472(6)
H9 H -0.1365 0.3318 0.2943
Cl10 Cl 0.1441(2) 0.42580(14) 0.12795(16)
Cl11 Cl 0.2700(3) 0.41393(11) -0.08603(16)
C25 C 0.7403(7) 0.3353(3) 0.0212(4)
H13 H 0.8674 0.3184 -0.0014
C26 C 0.6143(7) 0.3591(3) -0.0410(4)
C27 C 0.3733(6) 0.3905(3) 0.0854(4)
C28 C 0.4987(6) 0.3656(3) 0.1489(4)
C29 C 0.6807(6) 0.3360(3) 0.1169(4)
C30 C 0.4311(7) 0.3861(3) -0.0109(5)
O5 O 0.7980(7) 0.3100(5) 0.1813(4)
H15 H 0.8899 0.2705 0.1604
Cl16 Cl 0.4425(9) 0.3590(4) 0.2198(4)
C19? C 0.0762(16) 0.4359(8) 0.3761(9)
C20? C 0.0990(16) 0.5309(10) 0.3741(11)
C21? C -0.0312(19) 0.6073(7) 0.3414(11)
C22? C -0.1841(16) 0.5887(8) 0.3108(9)
H10? H -0.2731 0.6409 0.2884
C23? C -0.2069(15) 0.4937(9) 0.3127(9)
H11? H -0.3114 0.4810 0.2918
C24? C -0.0767(18) 0.4173(7) 0.3454(9)
O4? O -0.094(3) 0.2987(16) 0.3739(13)
H12? H -0.1883 0.2891 0.3562
Cl12? Cl 0.6900(3) 0.35456(11) -0.15772(9)
H14? H 0.4583 0.3691 0.2140
C31? C 0.486(2) 0.3803(11) -0.0621(14)
C32? C 0.4121(17) 0.3823(11) 0.0319(15)
C33? C 0.527(2) 0.3591(12) 0.1005(13)
C34? C 0.715(2) 0.3340(12) 0.0750(15)
C35? C 0.7893(18) 0.3321(12) -0.0190(16)
H16? H 0.9183 0.3149 -0.0364
C36? C 0.675(2) 0.3552(12) -0.0875(14)
H17? H 0.7252 0.3539 -0.1518
O6? O 0.846(3) 0.3111(15) 0.1375(15)
H18? H 0.7949 0.2952 0.1918
Cl13? Cl 0.2433(8) 0.3408(3) 0.4181(4)
Cl14? Cl -0.0080(9) 0.7245(4) 0.3388(4)
Cl15? Cl 0.2924(8) 0.5548(4) 0.4125(4)
Cl17? Cl 0.1757(8) 0.4137(4) 0.0686(8)
Cl18? Cl 0.3396(15) 0.4065(5) -0.1427(7)
loop_
_geom_bond_atom_site_label_1
_geom_bond_atom_site_label_2
_geom_bond_site_symmetry_1
_geom_bond_site_symmetry_2
Cl1 C10 1_555 1_555
Cl2 C6 1_555 1_555
Cl3 C4 1_555 1_555
Cl4 C3 1_555 1_555
Cl5 C5 1_555 1_555
Cl6 C7 1_555 1_555
O1 H1 1_555 1_555
O2 H2 1_555 1_555
C1 H3 1_555 1_555
C2 H4 1_555 1_555
C3 C1 1_555 1_555
C4 C6 1_555 1_555
C5 C3 1_555 1_555
C6 C10 1_555 1_555
C7 C5 1_555 1_555
C8 C4 1_555 1_555
H5 C8 1_555 1_555
C9 O1 1_555 1_555
C10 C2 1_555 1_555
C11 C7 1_555 1_555
H6 C11 1_555 1_555
C12 O2 1_555 1_555
Cl7 C18 1_555 1_555
Cl8 C13 1_555 1_555
Cl9 C14 1_555 1_555
C13 C14 1_555 1_555
C14 C17 1_555 1_555
C15 H7 1_555 1_555
C16 C15 1_555 1_555
C17 C16 1_555 1_555
H8 C17 1_555 1_555
C18 C13 1_555 1_555
O3 C16 1_555 1_555
H9 O3 1_555 1_555
Cl10 C27 1_555 1_555
Cl11 C30 1_555 1_555
C25 H13 1_555 1_555
C26 C25 1_555 1_555
C27 C28 1_555 1_555
C28 C29 1_555 1_555
C29 C25 1_555 1_555
C30 C26 1_555 1_555
O5 C29 1_555 1_555
H15 O5 1_555 1_555
Cl16 C28 1_555 1_555
C1 C12 1_555 1_555
C2 C9 1_555 1_555
C8 C9 1_555 1_555
C11 C12 1_555 1_555
C15 C18 1_555 1_555
C27 C30 1_555 1_555

#END
