
#######################################################################
#
#                 Cambridge Crystallographic Data Centre
#                                CCDC 
#
#######################################################################
#
# If this CIF has been generated from an entry in the Cambridge 
# Structural Database, then it will include bibliographic, chemical, 
# crystal, experimental, refinement or atomic coordinate data resulting 
# from the CCDC's data processing and validation procedures.
#
#######################################################################

data_UZOXEN
_chemical_formula_moiety         'C6 H3 Cl3 O1'
_chemical_name_systematic        2,3,4-Trichlorophenol
_symmetry_cell_setting           monoclinic
_symmetry_space_group_name_H-M   'P 21/n'
_symmetry_Int_Tables_number      14
_space_group_name_Hall           '-P 2yn'
loop_
_symmetry_equiv_pos_site_id
_symmetry_equiv_pos_as_xyz
1 x,y,z
2 1/2-x,1/2+y,1/2-z
3 -x,-y,-z
4 1/2+x,1/2-y,1/2+z
_cell_length_a                   3.8010(6)
_cell_length_b                   12.7973(17)
_cell_length_c                   14.816(3)
_cell_angle_alpha                90
_cell_angle_beta                 96.902(7)
_cell_angle_gamma                90
_cell_volume                     715.465
_exptl_crystal_colour            colorless
_exptl_crystal_description       plate
_cell_formula_units_Z            4
loop_
_atom_site_label
_atom_site_type_symbol
_atom_site_fract_x
_atom_site_fract_y
_atom_site_fract_z
Cl1 Cl 0.17950(14) 0.78498(4) 0.15870(4)
Cl2 Cl 0.32716(15) 0.82719(4) 0.36907(4)
Cl3 Cl -0.19900(15) 0.57466(4) 0.08989(4)
O1 O 0.0914(5) 0.65481(13) 0.48187(11)
H1 H 0.2310 0.7053 0.4930
C1 C -0.1035(6) 0.60038(16) 0.20514(14)
C2 C -0.1272(6) 0.54630(16) 0.35981(15)
H2 H -0.1915 0.4959 0.4020
C3 C 0.1266(5) 0.71244(15) 0.32796(14)
C4 C 0.0600(5) 0.69364(15) 0.23516(14)
C5 C 0.0343(6) 0.63879(16) 0.39087(14)
C6 C -0.1945(6) 0.52732(15) 0.26769(16)
H3 H -0.3041 0.4636 0.2468
loop_
_geom_bond_atom_site_label_1
_geom_bond_atom_site_label_2
_geom_bond_site_symmetry_1
_geom_bond_site_symmetry_2
Cl1 C4 1_555 1_555
Cl2 C3 1_555 1_555
Cl3 C1 1_555 1_555
O1 H1 1_555 1_555
C1 C4 1_555 1_555
C2 H2 1_555 1_555
C3 C4 1_555 1_555
C5 O1 1_555 1_555
C6 C1 1_555 1_555
H3 C6 1_555 1_555
C2 C5 1_555 1_555
C2 C6 1_555 1_555
C3 C5 1_555 1_555

#END
