
#######################################################################
#
#                 Cambridge Crystallographic Data Centre
#                                CCDC 
#
#######################################################################
#
# If this CIF has been generated from an entry in the Cambridge 
# Structural Database, then it will include bibliographic, chemical, 
# crystal, experimental, refinement or atomic coordinate data resulting 
# from the CCDC's data processing and validation procedures.
#
#######################################################################

data_UZOXOX
_chemical_formula_moiety         'C6 H5 Cl1 O1,3(C6 H3 Cl3 O1)'
_chemical_name_systematic        '3,4,5-Trichlorophenol 4-chlorophenol'
_symmetry_cell_setting           orthorhombic
_symmetry_space_group_name_H-M   'P c a 21'
_symmetry_Int_Tables_number      29
_space_group_name_Hall           'P 2c -2ac'
loop_
_symmetry_equiv_pos_site_id
_symmetry_equiv_pos_as_xyz
1 x,y,z
2 -x,-y,1/2+z
3 1/2-x,y,1/2+z
4 1/2+x,-y,z
_cell_length_a                   13.4830(14)
_cell_length_b                   12.2021(12)
_cell_length_c                   16.7125(17)
_cell_angle_alpha                90
_cell_angle_beta                 90
_cell_angle_gamma                90
_cell_volume                     2749.56
_exptl_crystal_colour            colorless
_exptl_crystal_description       plate
_cell_formula_units_Z            4
loop_
_atom_site_label
_atom_site_type_symbol
_atom_site_fract_x
_atom_site_fract_y
_atom_site_fract_z
Cl1 Cl 0.65974(11) 0.59348(10) 0.56231(8)
O1 O 0.4376(2) 0.2589(3) 0.3826(2)
H1 H 0.4737 0.2054 0.3704
C1 C 0.5948(3) 0.3444(4) 0.4161(3)
H2 H 0.6293 0.2967 0.3808
C2 C 0.6457(3) 0.4233(4) 0.4590(3)
H3 H 0.7155 0.4300 0.4533
C3 C 0.5951(4) 0.4923(4) 0.5099(3)
C4 C 0.4938(4) 0.4843(4) 0.5193(3)
H4 H 0.4598 0.5328 0.5543
C5 C 0.4414(3) 0.4040(4) 0.4768(3)
H5 H 0.3718 0.3964 0.4833
C6 C 0.4933(3) 0.3357(3) 0.4251(3)
Cl2 Cl 0.40295(9) 0.02061(14) 0.48421(8)
Cl3 Cl 0.39889(10) 0.20195(10) 0.61865(10)
Cl4 Cl 0.40289(10) -0.22629(12) 0.53598(9)
O2 O 0.4234(3) -0.1075(3) 0.8230(2)
H6 H 0.4029 -0.0581 0.8539
C7 C 0.4085(3) 0.0368(4) 0.7243(3)
H7 H 0.4083 0.0920 0.7644
C8 C 0.4037(3) 0.0643(4) 0.6438(3)
C9 C 0.4043(3) -0.0146(4) 0.5842(3)
C10 C 0.4064(3) -0.1246(4) 0.6073(3)
C11 C 0.4107(3) -0.1547(4) 0.6866(3)
H8 H 0.4116 -0.2299 0.7013
C12 C 0.4138(3) -0.0735(4) 0.7450(3)
Cl5 Cl 0.38517(9) 0.65268(12) 0.35376(9)
Cl6 Cl 0.46899(10) 0.47368(11) 0.23407(8)
Cl7 Cl 0.69569(12) 0.45090(12) 0.21287(10)
O3 O 0.7375(2) 0.7756(2) 0.4028(2)
H9 H 0.7959 0.7519 0.4035
C13 C 0.5130(3) 0.6413(4) 0.3334(3)
C14 C 0.5489(4) 0.5606(4) 0.2836(3)
C15 C 0.6515(4) 0.5524(4) 0.2748(3)
C16 C 0.7159(3) 0.6206(3) 0.3133(3)
H10 H 0.7854 0.6120 0.3070
C17 C 0.6780(3) 0.7029(3) 0.3620(3)
C18 C 0.5760(3) 0.7136(4) 0.3725(3)
H11 H 0.5500 0.7695 0.4060
Cl8 Cl 0.66261(9) -0.17709(11) 0.71749(8)
Cl9 Cl 0.65758(9) 0.06623(13) 0.78067(7)
Cl10 Cl 0.65261(10) 0.25810(10) 0.65385(9)
O4 O 0.6584(2) -0.0252(3) 0.4353(2)
H12 H 0.6954 -0.0788 0.4252
C19 C 0.6591(3) -0.0922(3) 0.5702(3)
H13 H 0.6600 -0.1659 0.5520
C20 C 0.6577(3) -0.0063(4) 0.5159(3)
C21 C 0.6540(3) 0.1017(4) 0.5418(3)
H14 H 0.6512 0.1601 0.5043
C22 C 0.6544(3) 0.1231(4) 0.6231(3)
C23 C 0.6565(3) 0.0386(4) 0.6796(3)
C24 C 0.6591(3) -0.0689(4) 0.6514(3)
loop_
_geom_bond_atom_site_label_1
_geom_bond_atom_site_label_2
_geom_bond_site_symmetry_1
_geom_bond_site_symmetry_2
Cl1 C3 1_555 1_555
O1 H1 1_555 1_555
C1 H2 1_555 1_555
C2 C1 1_555 1_555
H3 C2 1_555 1_555
C3 C2 1_555 1_555
C4 C3 1_555 1_555
H4 C4 1_555 1_555
C5 C4 1_555 1_555
H5 C5 1_555 1_555
C6 O1 1_555 1_555
Cl2 C9 1_555 1_555
Cl3 C8 1_555 1_555
Cl4 C10 1_555 1_555
O2 H6 1_555 1_555
C7 H7 1_555 1_555
C8 C7 1_555 1_555
C9 C8 1_555 1_555
C10 C9 1_555 1_555
C11 C10 1_555 1_555
H8 C11 1_555 1_555
C12 O2 1_555 1_555
Cl5 C13 1_555 1_555
Cl6 C14 1_555 1_555
Cl7 C15 1_555 1_555
O3 H9 1_555 1_555
C13 C14 1_555 1_555
C14 C15 1_555 1_555
C15 C16 1_555 1_555
C16 H10 1_555 1_555
C17 O3 1_555 1_555
C18 C13 1_555 1_555
H11 C18 1_555 1_555
Cl8 C24 1_555 1_555
Cl9 C23 1_555 1_555
Cl10 C22 1_555 1_555
O4 H12 1_555 1_555
C19 H13 1_555 1_555
C20 O4 1_555 1_555
C21 C20 1_555 1_555
H14 C21 1_555 1_555
C22 C21 1_555 1_555
C23 C22 1_555 1_555
C24 C19 1_555 1_555
C1 C6 1_555 1_555
C5 C6 1_555 1_555
C7 C12 1_555 1_555
C11 C12 1_555 1_555
C16 C17 1_555 1_555
C17 C18 1_555 1_555
C19 C20 1_555 1_555
C23 C24 1_555 1_555

#END
