
#######################################################################
#
#                 Cambridge Crystallographic Data Centre
#                                CCDC 
#
#######################################################################
#
# If this CIF has been generated from an entry in the Cambridge 
# Structural Database, then it will include bibliographic, chemical, 
# crystal, experimental, refinement or atomic coordinate data resulting 
# from the CCDC's data processing and validation procedures.
#
#######################################################################

data_UZOXIR
_chemical_formula_moiety         'C6 H3 Cl3 O1,C1 H4 O1'
_chemical_name_systematic        '2,3,4-trichlorophenol methanol solvate'
_symmetry_cell_setting           rhombohedral
_symmetry_space_group_name_H-M   'R -3'
_symmetry_Int_Tables_number      148
_space_group_name_Hall           '-R 3'
loop_
_symmetry_equiv_pos_site_id
_symmetry_equiv_pos_as_xyz
1 x,y,z
2 -y,x-y,z
3 -x+y,-x,z
4 2/3+x,1/3+y,1/3+z
5 2/3-y,1/3+x-y,1/3+z
6 2/3-x+y,1/3-x,1/3+z
7 1/3+x,2/3+y,2/3+z
8 1/3-y,2/3+x-y,2/3+z
9 1/3-x+y,2/3-x,2/3+z
10 -x,-y,-z
11 y,-x+y,-z
12 x-y,x,-z
13 1/3-x,2/3-y,2/3-z
14 1/3+y,2/3-x+y,2/3-z
15 1/3+x-y,2/3+x,2/3-z
16 2/3-x,1/3-y,1/3-z
17 2/3+y,1/3-x+y,1/3-z
18 2/3+x-y,1/3+x,1/3-z
_cell_length_a                   32.389(3)
_cell_length_b                   32.389(3)
_cell_length_c                   3.8113(6)
_cell_angle_alpha                90
_cell_angle_beta                 90
_cell_angle_gamma                120
_cell_volume                     3462.57
_exptl_crystal_colour            colorless
_exptl_crystal_description       plate
_cell_formula_units_Z            18
loop_
_atom_site_label
_atom_site_type_symbol
_atom_site_fract_x
_atom_site_fract_y
_atom_site_fract_z
Cl1 Cl 0.65707(2) 0.77281(2) 0.1044(2)
Cl2 Cl 0.57285(3) 0.79358(2) 0.19704(19)
Cl3 Cl 0.46900(3) 0.71544(3) -0.0371(2)
O1 O 0.62760(7) 0.67837(7) -0.2419(6)
H1 H 0.6518 0.6970 -0.1241
C1 C 0.60019(10) 0.73163(9) -0.0345(7)
C2 C 0.56267(10) 0.74055(9) 0.0091(7)
C3 C 0.50971(10) 0.66465(10) -0.2629(8)
H2 H 0.4788 0.6418 -0.3426
C4 C 0.59272(10) 0.68924(10) -0.1899(7)
C5 C 0.51684(10) 0.70647(10) -0.1014(8)
C6 C 0.54714(10) 0.65626(10) -0.3075(8)
H3 H 0.5418 0.6278 -0.4192
O2? O 0.3333 0.6667 -0.085(7)
C7? C 0.370(3) 0.7241(12) -0.076(13)
loop_
_geom_bond_atom_site_label_1
_geom_bond_atom_site_label_2
_geom_bond_site_symmetry_1
_geom_bond_site_symmetry_2
Cl1 C1 1_555 1_555
Cl2 C2 1_555 1_555
Cl3 C5 1_555 1_555
O1 H1 1_555 1_555
C1 C2 1_555 1_555
C2 C5 1_555 1_555
C3 H2 1_555 1_555
C4 O1 1_555 1_555
C5 C3 1_555 1_555
C6 C3 1_555 1_555
H3 C6 1_555 1_555
C1 C4 1_555 1_555
C4 C6 1_555 1_555

#END
