
#######################################################################
#
#                 Cambridge Crystallographic Data Centre
#                                CCDC 
#
#######################################################################
#
# If this CIF has been generated from an entry in the Cambridge 
# Structural Database, then it will include bibliographic, chemical, 
# crystal, experimental, refinement or atomic coordinate data resulting 
# from the CCDC's data processing and validation procedures.
#
#######################################################################

data_UZUMEJ
_chemical_formula_moiety         'C11 H12 N2 O3'
_chemical_name_systematic        
'3-methyl-1-(pyridin-2-ylcarbonyl)azetidine-2-carboxylic acid'
_symmetry_cell_setting           orthorhombic
_symmetry_space_group_name_H-M   'P 21 21 21'
_symmetry_Int_Tables_number      19
_space_group_name_Hall           'P 2ac 2ab'
loop_
_symmetry_equiv_pos_site_id
_symmetry_equiv_pos_as_xyz
1 x,y,z
2 1/2-x,-y,1/2+z
3 1/2+x,1/2-y,-z
4 -x,1/2+y,1/2-z
_cell_length_a                   8.6746(4)
_cell_length_b                   10.2332(4)
_cell_length_c                   12.6417(4)
_cell_angle_alpha                90
_cell_angle_beta                 90
_cell_angle_gamma                90
_cell_volume                     1122.19
_exptl_crystal_colour            colorless
_exptl_crystal_description       block
_cell_formula_units_Z            4
loop_
_atom_site_label
_atom_site_type_symbol
_atom_site_fract_x
_atom_site_fract_y
_atom_site_fract_z
O1 O 0.03763(16) 0.88946(13) 0.48132(11)
O2 O 0.34246(16) 0.95291(13) 0.21298(11)
O3 O 0.37562(16) 1.16527(13) 0.17416(11)
H1 H 0.4001 1.1361 0.1143
C1 C 0.3396(2) 1.06687(18) 0.23739(15)
N1 N 0.21753(17) 1.02229(15) 0.41271(12)
C2 C 0.4419(2) 1.1011(2) 0.42670(16)
H2 H 0.5353 1.0626 0.3924
N2 N 0.01106(19) 1.09633(16) 0.25621(14)
C3 C -0.0302(2) 1.00122(18) 0.32334(15)
C4 C 0.0787(2) 0.96831(17) 0.41114(15)
C5 C 0.3038(2) 1.11517(19) 0.34751(15)
H3 H 0.2576 1.2047 0.3479
C6 C -0.1675(2) 0.93272(19) 0.31488(16)
H4 H -0.1929 0.8662 0.3643
C7 C -0.2270(2) 1.0616(2) 0.16389(17)
H5 H -0.2939 1.0854 0.1075
C8 C -0.2666(2) 0.96315(18) 0.23315(16)
H6 H -0.3608 0.9169 0.2247
C9 C -0.0877(2) 1.12503(19) 0.17835(17)
H7 H -0.0607 1.1927 0.1303
C10 C 0.3453(2) 0.9972(2) 0.48603(16)
H8 H 0.3879 0.9076 0.4811
H9 H 0.3222 1.0206 0.5603
C11 C 0.4788(3) 1.2229(2) 0.4888(2)
H10 H 0.5260 1.2878 0.4418
H11 H 0.5506 1.2014 0.5460
H12 H 0.3836 1.2588 0.5189
loop_
_geom_bond_atom_site_label_1
_geom_bond_atom_site_label_2
_geom_bond_site_symmetry_1
_geom_bond_site_symmetry_2
O1 C4 1_555 1_555
O2 C1 1_555 1_555
O3 H1 1_555 1_555
C1 O3 1_555 1_555
N1 C4 1_555 1_555
C2 H2 1_555 1_555
N2 C3 1_555 1_555
C3 C4 1_555 1_555
C5 C1 1_555 1_555
H3 C5 1_555 1_555
C6 C3 1_555 1_555
H4 C6 1_555 1_555
C7 H5 1_555 1_555
C8 C6 1_555 1_555
H6 C8 1_555 1_555
C9 N2 1_555 1_555
H7 C9 1_555 1_555
C10 N1 1_555 1_555
H8 C10 1_555 1_555
H9 C10 1_555 1_555
C11 C2 1_555 1_555
H10 C11 1_555 1_555
H11 C11 1_555 1_555
H12 C11 1_555 1_555
N1 C5 1_555 1_555
C2 C5 1_555 1_555
C2 C10 1_555 1_555
C7 C8 1_555 1_555
C7 C9 1_555 1_555

#END
