
#######################################################################
#
#                 Cambridge Crystallographic Data Centre
#                                CCDC 
#
#######################################################################
#
# If this CIF has been generated from an entry in the Cambridge 
# Structural Database, then it will include bibliographic, chemical, 
# crystal, experimental, refinement or atomic coordinate data resulting 
# from the CCDC's data processing and validation procedures.
#
#######################################################################

data_UZUMIN
_chemical_formula_moiety         'C16 H14 Cl1 N1 O2'
_chemical_name_systematic        
1-(5-(2-chloro-3-(phenylimino)prop-1-en-1-yl)-2-methyl-3-furyl)ethanone
_symmetry_cell_setting           monoclinic
_symmetry_space_group_name_H-M   'C 2/c'
_symmetry_Int_Tables_number      15
_space_group_name_Hall           '-C 2yn'
loop_
_symmetry_equiv_pos_site_id
_symmetry_equiv_pos_as_xyz
1 x,y,z
2 -x,y,1/2-z
3 1/2+x,1/2+y,z
4 1/2-x,1/2+y,1/2-z
5 -x,-y,-z
6 x,-y,1/2+z
7 1/2-x,1/2-y,-z
8 1/2+x,1/2-y,1/2+z
_cell_length_a                   25.053(5)
_cell_length_b                   7.2725(15)
_cell_length_c                   17.584(4)
_cell_angle_alpha                90
_cell_angle_beta                 115.28(3)
_cell_angle_gamma                90
_cell_volume                     2896.95
_exptl_crystal_colour            colorless
_exptl_crystal_description       prismatic
_cell_formula_units_Z            8
loop_
_atom_site_label
_atom_site_type_symbol
_atom_site_fract_x
_atom_site_fract_y
_atom_site_fract_z
Cl1 Cl 0.13939(5) 0.42386(19) 0.46691(7)
O1 O 0.33431(10) 0.5717(4) 0.57217(15)
O2 O 0.27964(15) 0.6379(6) 0.7857(2)
N1 N 0.10930(14) 0.3402(4) 0.28736(19)
C1 C 0.35898(16) 0.6206(5) 0.6550(2)
C2 C 0.31728(16) 0.6153(5) 0.6853(2)
C3 C 0.26369(16) 0.5574(5) 0.6174(2)
H1 H 0.2275 0.5398 0.6193
C4 C 0.27531(15) 0.5327(5) 0.5499(2)
C5 C 0.32246(17) 0.6584(6) 0.7700(2)
C6 C 0.3799(2) 0.7241(6) 0.8380(3)
H2 H 0.3752 0.7454 0.8886
H3 H 0.3915 0.8364 0.8205
H4 H 0.4098 0.6324 0.8482
C7 C 0.42355(18) 0.6603(8) 0.6900(3)
H5 H 0.4379 0.6935 0.7482
H6 H 0.4303 0.7601 0.6594
H7 H 0.4441 0.5529 0.6849
C8 C 0.24369(16) 0.4805(5) 0.4630(2)
H8 H 0.2660 0.4806 0.4322
C9 C 0.18690(16) 0.4316(5) 0.4198(2)
C10 C 0.16305(16) 0.3857(5) 0.3315(2)
H9 H 0.1883 0.3893 0.3053
C11 C 0.09031(16) 0.2979(5) 0.2011(2)
C12 C 0.02995(18) 0.2932(7) 0.1531(3)
H10 H 0.0045 0.3144 0.1781
C13 C 0.0073(2) 0.2567(9) 0.0675(3)
H11 H -0.0333 0.2558 0.0354
C14 C 0.0439(2) 0.2223(7) 0.0297(3)
H12 H 0.0282 0.1981 -0.0277
C15 C 0.10357(19) 0.2235(6) 0.0765(3)
H13 H 0.1286 0.2002 0.0510
C16 C 0.12698(18) 0.2594(5) 0.1621(2)
H14 H 0.1677 0.2576 0.1937
loop_
_geom_bond_atom_site_label_1
_geom_bond_atom_site_label_2
_geom_bond_site_symmetry_1
_geom_bond_site_symmetry_2
Cl1 C9 1_555 1_555
O1 C1 1_555 1_555
O2 C5 1_555 1_555
N1 C10 1_555 1_555
C1 C2 1_555 1_555
C2 C3 1_555 1_555
C3 H1 1_555 1_555
C4 O1 1_555 1_555
C5 C2 1_555 1_555
C6 C5 1_555 1_555
H2 C6 1_555 1_555
H3 C6 1_555 1_555
H4 C6 1_555 1_555
C7 C1 1_555 1_555
H5 C7 1_555 1_555
H6 C7 1_555 1_555
H7 C7 1_555 1_555
C8 C4 1_555 1_555
H8 C8 1_555 1_555
C9 C8 1_555 1_555
C10 C9 1_555 1_555
H9 C10 1_555 1_555
C11 N1 1_555 1_555
C12 C11 1_555 1_555
H10 C12 1_555 1_555
C13 C12 1_555 1_555
H11 C13 1_555 1_555
C14 C13 1_555 1_555
H12 C14 1_555 1_555
C15 C14 1_555 1_555
H13 C15 1_555 1_555
C16 C11 1_555 1_555
H14 C16 1_555 1_555
C3 C4 1_555 1_555
C15 C16 1_555 1_555

#END
