
#######################################################################
#
#                 Cambridge Crystallographic Data Centre
#                                CCDC 
#
#######################################################################
#
# If this CIF has been generated from an entry in the Cambridge 
# Structural Database, then it will include bibliographic, chemical, 
# crystal, experimental, refinement or atomic coordinate data resulting 
# from the CCDC's data processing and validation procedures.
#
#######################################################################

data_UZUYAR
_chemical_formula_moiety         'C5 H5 N3 O3,H4 N1 1+,H2 O1,C5 H4 N3 O3 1-'
_chemical_name_systematic        
'ammonium 6-amino-5-nitropyridin-2(1H)-one 6-amino-5-nitro-2-oxo-2H-pyridin-1-ide monohydrate'
_symmetry_cell_setting           monoclinic
_symmetry_space_group_name_H-M   'P 21'
_symmetry_Int_Tables_number      4
_space_group_name_Hall           'P 2yb'
loop_
_symmetry_equiv_pos_site_id
_symmetry_equiv_pos_as_xyz
1 x,y,z
2 -x,1/2+y,-z
_cell_length_a                   10.8724(10)
_cell_length_b                   3.7149(3)
_cell_length_c                   17.3901(15)
_cell_angle_alpha                90
_cell_angle_beta                 93.012(2)
_cell_angle_gamma                90
_cell_volume                     701.414
_exptl_crystal_colour            yellow
_exptl_crystal_description       Needle
_cell_formula_units_Z            2
loop_
_atom_site_label
_atom_site_type_symbol
_atom_site_fract_x
_atom_site_fract_y
_atom_site_fract_z
O1 O -0.51782(14) 0.5944(6) -0.25542(8)
O2 O -0.74782(14) 0.4261(6) -0.58249(8)
O3 O -0.89863(13) 0.7106(5) -0.53151(8)
N1 N -0.69744(16) 0.7205(5) -0.32140(9)
N2 N -0.79419(16) 0.5702(6) -0.52580(9)
N3 N -0.88118(15) 0.8778(5) -0.38244(9)
H1 H -0.9038 0.9709 -0.3396
H2 H -0.9314 0.8900 -0.4250
C1 C -0.53538(19) 0.4210(6) -0.38606(11)
H3 H -0.4569 0.3207 -0.3848
C2 C -0.58169(18) 0.5796(7) -0.31828(11)
C3 C -0.60718(18) 0.4192(6) -0.45191(11)
H4 H -0.5778 0.3144 -0.4959
C4 C -0.72559(18) 0.5732(6) -0.45506(11)
C5 C -0.77185(18) 0.7266(6) -0.38711(11)
O4 O -0.60860(13) 0.8425(5) 0.03922(8)
O5 O -0.75985(14) 1.1212(5) 0.09095(8)
O6 O -0.93970(13) 1.2439(5) -0.24812(8)
N4 N -0.70885(16) 1.0112(5) 0.03188(9)
N5 N -0.77706(16) 1.0180(5) -0.17746(9)
N6 N -0.60902(15) 0.7782(5) -0.11268(10)
H5 H -0.5627 0.7708 -0.0699
H6 H -0.5760 0.6939 -0.1594
C6 C -0.94121(19) 1.3154(6) -0.11296(11)
H7 H -1.0170 1.4321 -0.1151
C7 C -0.88818(19) 1.1941(6) -0.18301(11)
C8 C -0.76586(18) 1.0752(6) -0.03994(10)
C9 C -0.88016(19) 1.2581(6) -0.04467(11)
H8 H -0.9137 1.3403 0.0002
C10 C -0.71398(18) 0.9528(6) -0.10969(11)
O7 O -0.1624(4) 0.6432(12) -0.2800(2)
H9 H -0.174(4) 0.584(5) -0.3259(15)
H10 H -0.089(3) 0.597(5) -0.268(2)
N7 N -0.3466(5) 0.1076(12) -0.2124(2)
H11 H -0.337(5) 0.102(14) -0.157(2)
H12 H -0.386(5) -0.109(13) -0.233(3)
H13 H -0.270(4) 0.155(13) -0.236(4)
H14 H -0.410(4) 0.275(15) -0.230(3)
O8? O -0.1591(4) 0.5247(12) -0.2800(2)
N8? N -0.2977(5) 0.0886(13) -0.2219(2)
H15? H -0.292(4) 0.111(17) -0.1686(18)
H16? H -0.382(3) 0.095(18) -0.234(3)
H17? H -0.268(4) 0.274(12) -0.252(3)
H18? H -0.243(4) -0.098(12) -0.231(2)
H19? H -0.7302 0.7669 -0.2796
H20? H -0.7525 0.9521 -0.2211
loop_
_geom_bond_atom_site_label_1
_geom_bond_atom_site_label_2
_geom_bond_site_symmetry_1
_geom_bond_site_symmetry_2
O1 C2 1_555 1_555
O2 N2 1_555 1_555
O3 N2 1_555 1_555
N1 C2 1_555 1_555
N2 C4 1_555 1_555
N3 H1 1_555 1_555
H2 N3 1_555 1_555
C1 H3 1_555 1_555
C2 C1 1_555 1_555
C3 C1 1_555 1_555
H4 C3 1_555 1_555
C4 C3 1_555 1_555
C5 N1 1_555 1_555
O4 N4 1_555 1_555
O5 N4 1_555 1_555
O6 C7 1_555 1_555
N4 C8 1_555 1_555
N5 C7 1_555 1_555
N6 H5 1_555 1_555
H6 N6 1_555 1_555
C6 H7 1_555 1_555
C7 C6 1_555 1_555
C8 C9 1_555 1_555
C9 C6 1_555 1_555
H8 C9 1_555 1_555
C10 N5 1_555 1_555
O7 H9 1_555 1_555
H10 O7 1_555 1_555
N7 H11 1_555 1_555
H12 N7 1_555 1_555
H13 N7 1_555 1_555
H14 N7 1_555 1_555
N3 C5 1_555 1_555
C4 C5 1_555 1_555
N6 C10 1_555 1_555
C8 C10 1_555 1_555

#END
