
#######################################################################
#
#                 Cambridge Crystallographic Data Centre
#                                CCDC 
#
#######################################################################
#
# If this CIF has been generated from an entry in the Cambridge 
# Structural Database, then it will include bibliographic, chemical, 
# crystal, experimental, refinement or atomic coordinate data resulting 
# from the CCDC's data processing and validation procedures.
#
#######################################################################

data_UZUZAR
_chemical_compound_source        'leaves and twigs of Fatsia polycarpa'
_chemical_formula_moiety         'C30 H46 O3'
_chemical_name_systematic        '3\a-Hydroxyolean-11,13(18)-dien-28-oic acid'
_chemical_properties_biological  
'slight antibacterial activity and no cytotoxic activity'
_symmetry_cell_setting           orthorhombic
_symmetry_space_group_name_H-M   'P 21 21 21'
_symmetry_Int_Tables_number      19
_space_group_name_Hall           'P 2ac 2ab'
loop_
_symmetry_equiv_pos_site_id
_symmetry_equiv_pos_as_xyz
1 x,y,z
2 1/2-x,-y,1/2+z
3 -x,1/2+y,1/2-z
4 1/2+x,1/2-y,-z
_cell_length_a                   11.1004(2)
_cell_length_b                   12.7518(3)
_cell_length_c                   20.9205(4)
_cell_angle_alpha                90
_cell_angle_beta                 90
_cell_angle_gamma                90
_cell_volume                     2961.3
_exptl_crystal_colour            colorless
_exptl_crystal_description       parallelepiped
_cell_formula_units_Z            4
loop_
_atom_site_label
_atom_site_type_symbol
_atom_site_fract_x
_atom_site_fract_y
_atom_site_fract_z
O1 O 0.05109(15) 0.16464(15) 0.06769(8)
H1 H 0.072(3) 0.225(3) 0.0510(18)
O2 O 0.48386(14) -0.05030(15) 0.46628(8)
H2 H 0.477(5) -0.095(4) 0.498(3)
O3 O 0.66642(17) -0.11927(16) 0.47310(9)
C1 C 0.11101(19) 0.25893(17) 0.19461(11)
H3 H 0.1768 0.2578 0.1627
H4 H 0.1221 0.3220 0.2216
C2 C -0.0108(2) 0.26736(19) 0.15937(11)
H5 H -0.0761 0.2764 0.1911
H6 H -0.0099 0.3301 0.1315
C3 C -0.03649(19) 0.17100(18) 0.11907(11)
H7 H -0.1186 0.1783 0.0999
C4 C -0.03237(19) 0.06866(18) 0.15830(11)
C5 C 0.08908(18) 0.06405(17) 0.19421(10)
H8 H 0.1512 0.0651 0.1596
C6 C 0.11178(19) -0.03815(18) 0.22964(11)
H9 H 0.0856 -0.0978 0.2027
H10 H 0.0636 -0.0392 0.2695
C7 C 0.24657(19) -0.05057(17) 0.24621(11)
H11 H 0.2585 -0.1171 0.2698
H12 H 0.2939 -0.0545 0.2062
C8 C 0.29324(18) 0.04048(17) 0.28683(10)
C9 C 0.25743(18) 0.14576(16) 0.25531(10)
H13 H 0.3012 0.1464 0.2135
C10 C 0.12080(18) 0.16042(17) 0.23706(10)
C11 C 0.31209(19) 0.23470(18) 0.29304(11)
H14 H 0.2762 0.3022 0.2899
C12 C 0.4086(2) 0.22306(19) 0.33063(11)
H15 H 0.4370 0.2825 0.3535
C13 C 0.47316(19) 0.12316(18) 0.33851(11)
C14 C 0.43702(18) 0.04011(18) 0.28966(10)
C15 C 0.4839(2) -0.06911(19) 0.30814(11)
H16 H 0.4327 -0.0984 0.3425
H17 H 0.4782 -0.1163 0.2707
C16 C 0.6146(2) -0.0647(2) 0.33103(11)
H18 H 0.6661 -0.0389 0.2958
H19 H 0.6416 -0.1364 0.3421
C17 C 0.63072(19) 0.0071(2) 0.38951(11)
C18 C 0.55456(19) 0.10623(18) 0.38533(11)
C19 C 0.5801(2) 0.18188(19) 0.43979(11)
H20 H 0.5520 0.1498 0.4802
H21 H 0.5325 0.2466 0.4328
C20 C 0.7134(2) 0.2122(2) 0.44736(12)
C21 C 0.7895(2) 0.1112(2) 0.45025(12)
H22 H 0.8759 0.1304 0.4502
H23 H 0.7724 0.0744 0.4909
C22 C 0.76499(19) 0.0366(2) 0.39453(12)
H24 H 0.8133 -0.0279 0.4003
H25 H 0.7909 0.0703 0.3542
C23 C -0.0438(2) -0.02484(19) 0.11244(12)
H26 H 0.0257 -0.0262 0.0836
H27 H -0.1180 -0.0179 0.0874
H28 H -0.0465 -0.0901 0.1371
C24 C -0.14517(19) 0.0641(2) 0.20148(12)
H29 H -0.2178 0.0674 0.1749
H30 H -0.1443 0.1236 0.2311
H31 H -0.1449 -0.0016 0.2258
C25 C 0.0415(2) 0.17511(19) 0.29672(11)
H32 H -0.0427 0.1840 0.2837
H33 H 0.0681 0.2374 0.3202
H34 H 0.0486 0.1133 0.3243
C26 C 0.24384(19) 0.02852(18) 0.35521(10)
H35 H 0.1556 0.0286 0.3541
H36 H 0.2722 0.0871 0.3816
H37 H 0.2723 -0.0377 0.3735
C27 C 0.49477(19) 0.0694(2) 0.22450(10)
H38 H 0.5827 0.0682 0.2285
H39 H 0.4685 0.1398 0.2119
H40 H 0.4695 0.0187 0.1919
C28 C 0.5965(2) -0.0595(2) 0.44750(11)
C29 C 0.7520(3) 0.2813(2) 0.39133(13)
H41 H 0.7024 0.3449 0.3905
H42 H 0.7415 0.2427 0.3512
H43 H 0.8369 0.3007 0.3963
C30 C 0.7280(2) 0.2734(2) 0.50980(12)
H44 H 0.6795 0.3376 0.5079
H45 H 0.8129 0.2918 0.5158
H46 H 0.7008 0.2300 0.5457
loop_
_geom_bond_atom_site_label_1
_geom_bond_atom_site_label_2
_geom_bond_site_symmetry_1
_geom_bond_site_symmetry_2
O1 H1 1_555 1_555
O2 H2 1_555 1_555
O3 C28 1_555 1_555
C1 H3 1_555 1_555
H4 C1 1_555 1_555
C2 C1 1_555 1_555
H5 C2 1_555 1_555
H6 C2 1_555 1_555
C3 O1 1_555 1_555
H7 C3 1_555 1_555
C4 C3 1_555 1_555
C5 C4 1_555 1_555
H8 C5 1_555 1_555
C6 C5 1_555 1_555
H9 C6 1_555 1_555
H10 C6 1_555 1_555
C7 C6 1_555 1_555
H11 C7 1_555 1_555
H12 C7 1_555 1_555
C8 C7 1_555 1_555
C9 C8 1_555 1_555
H13 C9 1_555 1_555
C10 C1 1_555 1_555
C11 C9 1_555 1_555
H14 C11 1_555 1_555
C12 C11 1_555 1_555
H15 C12 1_555 1_555
C13 C12 1_555 1_555
C14 C8 1_555 1_555
C15 C14 1_555 1_555
H16 C15 1_555 1_555
H17 C15 1_555 1_555
C16 C15 1_555 1_555
H18 C16 1_555 1_555
H19 C16 1_555 1_555
C17 C16 1_555 1_555
C18 C13 1_555 1_555
C19 C18 1_555 1_555
H20 C19 1_555 1_555
H21 C19 1_555 1_555
C20 C19 1_555 1_555
C21 C20 1_555 1_555
H22 C21 1_555 1_555
H23 C21 1_555 1_555
C22 C17 1_555 1_555
H24 C22 1_555 1_555
H25 C22 1_555 1_555
C23 C4 1_555 1_555
H26 C23 1_555 1_555
H27 C23 1_555 1_555
H28 C23 1_555 1_555
C24 C4 1_555 1_555
H29 C24 1_555 1_555
H30 C24 1_555 1_555
H31 C24 1_555 1_555
C25 C10 1_555 1_555
H32 C25 1_555 1_555
H33 C25 1_555 1_555
H34 C25 1_555 1_555
C26 C8 1_555 1_555
H35 C26 1_555 1_555
H36 C26 1_555 1_555
H37 C26 1_555 1_555
C27 C14 1_555 1_555
H38 C27 1_555 1_555
H39 C27 1_555 1_555
H40 C27 1_555 1_555
C28 O2 1_555 1_555
C29 C20 1_555 1_555
H41 C29 1_555 1_555
H42 C29 1_555 1_555
H43 C29 1_555 1_555
C30 C20 1_555 1_555
H44 C30 1_555 1_555
H45 C30 1_555 1_555
H46 C30 1_555 1_555
C2 C3 1_555 1_555
C5 C10 1_555 1_555
C9 C10 1_555 1_555
C13 C14 1_555 1_555
C17 C18 1_555 1_555
C17 C28 1_555 1_555
C21 C22 1_555 1_555

#END
