
#######################################################################
#
#                 Cambridge Crystallographic Data Centre
#                                CCDC 
#
#######################################################################
#
# If this CIF has been generated from an entry in the Cambridge 
# Structural Database, then it will include bibliographic, chemical, 
# crystal, experimental, refinement or atomic coordinate data resulting 
# from the CCDC's data processing and validation procedures.
#
#######################################################################

data_VABCAE
_chemical_name_common            4-((2-Methylphenyl)amino)benzaldehyde
_chemical_formula_moiety         'C14 H13 N1 O1'
_chemical_name_systematic        4-(o-Tolylamino)benzaldehyde
_symmetry_cell_setting           orthorhombic
_symmetry_space_group_name_H-M   'P c a 21'
_symmetry_Int_Tables_number      29
_space_group_name_Hall           'P 2c -2ac'
loop_
_symmetry_equiv_pos_site_id
_symmetry_equiv_pos_as_xyz
1 x,y,z
2 -x,-y,1/2+z
3 1/2+x,-y,z
4 1/2-x,y,1/2+z
_cell_length_a                   14.193(10)
_cell_length_b                   10.699(10)
_cell_length_c                   7.677(6)
_cell_angle_alpha                90
_cell_angle_beta                 90
_cell_angle_gamma                90
_cell_volume                     1165.76
_exptl_crystal_colour            brown
_exptl_crystal_description       plate
_cell_formula_units_Z            4
_exptl_crystal_recrystallization_method 'ethyl acetate/petroleum ether'
loop_
_atom_site_label
_atom_site_type_symbol
_atom_site_fract_x
_atom_site_fract_y
_atom_site_fract_z
C1 C 1.07328(19) 0.7362(2) 0.3779(5)
H1 H 1.0775 0.8092 0.4432
C2 C 0.99125(16) 0.7114(2) 0.2798(4)
N1 N 0.91447(16) 0.7907(2) 0.2760(4)
C3 C 0.91320(18) 0.9212(2) 0.3158(4)
C4 C 0.98692(19) 0.5966(2) 0.1871(5)
H2 H 0.9324 0.5758 0.1265
C5 C 1.0628(2) 0.5154(2) 0.1858(5)
H3 H 1.0591 0.4418 0.1217
C6 C 1.14506(19) 0.5424(2) 0.2797(5)
C7 C 0.83034(19) 0.9730(2) 0.3886(5)
O1 O 1.23816(19) 0.36802(18) 0.1876(6)
C8 C 1.2296(2) 0.4612(3) 0.2747(6)
C9 C 1.1475(2) 0.6520(2) 0.3770(5)
H4 H 1.2006 0.6694 0.4437
C10 C 0.9897(2) 0.9981(3) 0.2718(5)
H5 H 1.0431 0.9638 0.2204
C11 C 0.7450(3) 0.8922(3) 0.4262(8)
H6 H 0.7589 0.8069 0.3968
H7 H 0.6926 0.9208 0.3580
H8 H 0.7295 0.8976 0.5477
C12 C 0.8298(3) 1.1013(3) 0.4195(6)
H9 H 0.7765 1.1371 0.4693
C13 C 0.9854(2) 1.1256(3) 0.3053(7)
H10 H 1.0365 1.1764 0.2781
C14 C 0.9052(3) 1.1773(3) 0.3790(7)
H11 H 0.9023 1.2627 0.4011
H12 H 1.286(2) 0.483(3) 0.339(5)
H13 H 0.869(3) 0.755(3) 0.244(5)
loop_
_geom_bond_atom_site_label_1
_geom_bond_atom_site_label_2
_geom_bond_site_symmetry_1
_geom_bond_site_symmetry_2
C1 H1 1_555 1_555
C2 C1 1_555 1_555
N1 C2 1_555 1_555
C3 N1 1_555 1_555
C4 C2 1_555 1_555
H2 C4 1_555 1_555
C5 C4 1_555 1_555
H3 C5 1_555 1_555
C6 C5 1_555 1_555
C7 C3 1_555 1_555
O1 C8 1_555 1_555
C8 C6 1_555 1_555
C9 C1 1_555 1_555
H4 C9 1_555 1_555
C10 C3 1_555 1_555
H5 C10 1_555 1_555
C11 C7 1_555 1_555
H6 C11 1_555 1_555
H7 C11 1_555 1_555
H8 C11 1_555 1_555
C12 C7 1_555 1_555
H9 C12 1_555 1_555
C13 C10 1_555 1_555
H10 C13 1_555 1_555
C14 C12 1_555 1_555
H11 C14 1_555 1_555
H12 C8 1_555 1_555
H13 N1 1_555 1_555
C6 C9 1_555 1_555
C13 C14 1_555 1_555

#END
