
#######################################################################
#
#                 Cambridge Crystallographic Data Centre
#                                CCDC 
#
#######################################################################
#
# If this CIF has been generated from an entry in the Cambridge 
# Structural Database, then it will include bibliographic, chemical, 
# crystal, experimental, refinement or atomic coordinate data resulting 
# from the CCDC's data processing and validation procedures.
#
#######################################################################

data_VABHEN
_chemical_formula_moiety         'C15 H12 F3 N3 O3 S1'
_chemical_name_systematic        
6-Hydroxy-4-(pyridin-3-yl)-5-(2-thienylcarbonyl)-6-trifluoromethyl-3,4,5,6-tetrahydropyrimidin-2(1H)-one
_symmetry_cell_setting           monoclinic
_symmetry_space_group_name_H-M   'C 2/c'
_symmetry_Int_Tables_number      15
_space_group_name_Hall           '-C 2yn'
loop_
_symmetry_equiv_pos_site_id
_symmetry_equiv_pos_as_xyz
1 x,y,z
2 -x,y,1/2-z
3 1/2+x,1/2+y,z
4 1/2-x,1/2+y,1/2-z
5 -x,-y,-z
6 x,-y,1/2+z
7 1/2-x,1/2-y,-z
8 1/2+x,1/2-y,1/2+z
_cell_length_a                   29.694(3)
_cell_length_b                   5.9710(8)
_cell_length_c                   17.6910(16)
_cell_angle_alpha                90
_cell_angle_beta                 95.223(8)
_cell_angle_gamma                90
_cell_volume                     3123.64
_exptl_crystal_colour            colorless
_exptl_crystal_description       prism
_cell_formula_units_Z            8
_exptl_crystal_recrystallization_method ethanol/water
loop_
_atom_site_label
_atom_site_type_symbol
_atom_site_fract_x
_atom_site_fract_y
_atom_site_fract_z
S1 S 0.026595(14) 0.12707(8) 0.92814(2)
F1 F 0.10963(3) -0.11784(17) 0.62064(4)
F2 F 0.06951(3) -0.11496(17) 0.71617(5)
F3 F 0.09202(3) 0.19531(16) 0.67005(5)
O1 O 0.15452(3) -0.25213(17) 0.75794(5)
O2 O 0.25389(3) 0.21588(17) 0.70458(5)
O3 O 0.10702(3) -0.12933(18) 0.89515(5)
N1 N 0.18320(4) 0.0743(2) 0.70261(6)
N2 N 0.21958(4) 0.2166(2) 0.81451(6)
N3 N 0.19968(4) 0.2310(2) 1.07057(6)
C1 C 0.14728(4) -0.0243(2) 0.74123(7)
C2 C 0.22112(4) 0.1687(2) 0.74020(7)
C3 C 0.18652(4) 0.1181(2) 0.86052(7)
H1 H 0.1952 -0.0410 0.8719
C4 C 0.14098(4) 0.1215(2) 0.81197(7)
H2 H 0.1345 0.2788 0.7949
C5 C 0.10424(5) -0.0160(3) 0.68637(7)
C6 C 0.18514(4) 0.2436(2) 0.93467(7)
C7 C 0.16718(4) 0.4565(3) 0.93907(7)
H3 H 0.1565 0.5349 0.8943
C8 C 0.16500(5) 0.5540(3) 1.01013(7)
H4 H 0.1524 0.6990 1.0148
C9 C 0.18153(5) 0.4355(3) 1.07377(7)
H5 H 0.1799 0.5025 1.1222
C10 C 0.20114(4) 0.1383(2) 1.00190(7)
H6 H 0.2138 -0.0072 0.9990
C11 C 0.10371(4) 0.0461(3) 0.85989(7)
C12 C 0.06578(5) 0.1986(3) 0.86639(7)
C13 C 0.05608(5) 0.4038(3) 0.83352(9)
H7 H 0.0738 0.4723 0.7978
C14 C 0.01670(5) 0.5012(3) 0.85897(10)
H8 H 0.0049 0.6425 0.8423
C15 C -0.00227(5) 0.3696(3) 0.90984(10)
H9 H -0.0289 0.4088 0.9328
H10 H 0.1888(5) 0.007(3) 0.6611(9)
H11 H 0.2439(5) 0.260(3) 0.8390(9)
H12 H 0.1814(6) -0.273(3) 0.7674(10)
loop_
_geom_bond_atom_site_label_1
_geom_bond_atom_site_label_2
_geom_bond_site_symmetry_1
_geom_bond_site_symmetry_2
S1 C12 1_555 1_555
F1 C5 1_555 1_555
F2 C5 1_555 1_555
F3 C5 1_555 1_555
O1 C1 1_555 1_555
O2 C2 1_555 1_555
O3 C11 1_555 1_555
N1 C1 1_555 1_555
N2 C2 1_555 1_555
N3 C9 1_555 1_555
C1 C4 1_555 1_555
C2 N1 1_555 1_555
C3 N2 1_555 1_555
H1 C3 1_555 1_555
C4 C3 1_555 1_555
H2 C4 1_555 1_555
C5 C1 1_555 1_555
C6 C3 1_555 1_555
C7 C6 1_555 1_555
H3 C7 1_555 1_555
C8 C7 1_555 1_555
H4 C8 1_555 1_555
C9 C8 1_555 1_555
H5 C9 1_555 1_555
C10 N3 1_555 1_555
H6 C10 1_555 1_555
C11 C4 1_555 1_555
C12 C11 1_555 1_555
C13 C12 1_555 1_555
H7 C13 1_555 1_555
C14 C13 1_555 1_555
H8 C14 1_555 1_555
C15 S1 1_555 1_555
H9 C15 1_555 1_555
H10 N1 1_555 1_555
H11 N2 1_555 1_555
H12 O1 1_555 1_555
C6 C10 1_555 1_555
C14 C15 1_555 1_555

#END
