
#######################################################################
#
#                 Cambridge Crystallographic Data Centre
#                                CCDC 
#
#######################################################################
#
# If this CIF has been generated from an entry in the Cambridge 
# Structural Database, then it will include bibliographic, chemical, 
# crystal, experimental, refinement or atomic coordinate data resulting 
# from the CCDC's data processing and validation procedures.
#
#######################################################################

data_VABJEQ
_chemical_formula_moiety         'C27 H28 N4 O4'
_chemical_name_systematic        
1-(2,4-Dinitrophenyl)-2-(2-(2-(4-methylphenyl)-1-phenylethylidene)hexylidene)hydrazine
_symmetry_cell_setting           orthorhombic
_symmetry_space_group_name_H-M   'P b c a'
_symmetry_Int_Tables_number      61
_space_group_name_Hall           '-P 2ac 2ab'
loop_
_symmetry_equiv_pos_site_id
_symmetry_equiv_pos_as_xyz
1 x,y,z
2 1/2-x,-y,1/2+z
3 1/2+x,1/2-y,-z
4 -x,1/2+y,1/2-z
5 -x,-y,-z
6 1/2+x,y,1/2-z
7 1/2-x,1/2+y,z
8 x,1/2-y,1/2+z
_cell_length_a                   8.8093(14)
_cell_length_b                   18.443(2)
_cell_length_c                   31.202(5)
_cell_angle_alpha                90
_cell_angle_beta                 90
_cell_angle_gamma                90
_cell_volume                     5069.39
_exptl_crystal_colour            yellow
_exptl_crystal_description       plate
_cell_formula_units_Z            8
loop_
_atom_site_label
_atom_site_type_symbol
_atom_site_fract_x
_atom_site_fract_y
_atom_site_fract_z
O1 O 0.7671(5) 0.4635(2) -0.00904(12)
O2 O 0.9173(5) 0.5433(2) -0.03685(11)
O3 O 0.9338(5) 0.7856(2) 0.01046(12)
O4 O 0.7693(5) 0.8248(2) 0.05608(14)
N1 N 0.4827(4) 0.48642(19) 0.08677(11)
N2 N 0.5895(4) 0.49649(19) 0.05491(11)
H1 H 0.6192 0.4607 0.0393
N3 N 0.8188(5) 0.5258(2) -0.01093(12)
N4 N 0.8273(5) 0.7768(2) 0.03517(14)
C1 C 0.3693(6) 0.1534(3) 0.09132(15)
H2 H 0.2999 0.1422 0.0698
C2 C 0.4656(7) 0.1007(3) 0.10628(18)
H3 H 0.4608 0.0547 0.0943
C3 C 0.5691(7) 0.1136(3) 0.13844(17)
C4 C 0.5731(6) 0.1830(3) 0.15453(18)
H4 H 0.6423 0.1941 0.1761
C5 C 0.4782(6) 0.2361(3) 0.13972(16)
H5 H 0.4842 0.2823 0.1515
C6 C 0.3741(5) 0.2230(2) 0.10780(14)
C7 C 0.6721(8) 0.0546(3) 0.1546(2)
H6 H 0.6181 0.0248 0.1747
H7 H 0.7586 0.0759 0.1684
H8 H 0.7054 0.0254 0.1309
C8 C 0.2706(5) 0.2811(2) 0.08979(14)
H9 H 0.3176 0.3012 0.0643
H10 H 0.1759 0.2586 0.0811
C9 C 0.2346(5) 0.3427(3) 0.12019(14)
C10 C 0.1049(6) 0.3298(3) 0.14958(15)
C11 C 0.1165(8) 0.2900(4) 0.1867(2)
H11 H 0.2090 0.2690 0.1939
C12 C -0.0082(11) 0.2807(5) 0.2139(2)
H12 H 0.0014 0.2535 0.2388
C13 C -0.1445(9) 0.3118(5) 0.2036(3)
H13 H -0.2267 0.3075 0.2221
C14 C -0.1591(7) 0.3488(4) 0.1664(3)
H14 H -0.2524 0.3686 0.1589
C15 C -0.0363(6) 0.3571(3) 0.1395(2)
H15 H -0.0491 0.3819 0.1138
C16 C 0.3089(5) 0.4067(2) 0.12068(14)
C17 C 0.2784(5) 0.4643(3) 0.15325(15)
H16 H 0.1778 0.4570 0.1651
H17 H 0.2796 0.5112 0.1392
C18 C 0.3932(7) 0.4649(3) 0.18969(17)
H18 H 0.3991 0.4164 0.2016
H19 H 0.4922 0.4764 0.1779
C19 C 0.3615(12) 0.5159(6) 0.2248(3)
H20 H 0.2693 0.5001 0.2390
H21 H 0.4432 0.5117 0.2456
C20 C 0.3449(19) 0.5884(6) 0.2150(4)
H22 H 0.3829 0.5972 0.1866
H23 H 0.4008 0.6171 0.2352
H24 H 0.2394 0.6012 0.2163
C21 C 0.4262(5) 0.4224(2) 0.08939(14)
H25 H 0.4606 0.3860 0.0712
C22 C 0.6465(5) 0.5639(2) 0.04873(13)
C23 C 0.7599(5) 0.5797(2) 0.01809(12)
C24 C 0.8195(5) 0.6493(2) 0.01419(13)
H26 H 0.8954 0.6589 -0.0057
C25 C 0.7660(5) 0.7030(2) 0.03973(13)
C26 C 0.6531(5) 0.6904(2) 0.06965(14)
H27 H 0.6179 0.7280 0.0868
C27 C 0.5938(5) 0.6225(2) 0.07386(14)
H28 H 0.5170 0.6145 0.0937
loop_
_geom_bond_atom_site_label_1
_geom_bond_atom_site_label_2
_geom_bond_site_symmetry_1
_geom_bond_site_symmetry_2
O1 N3 1_555 1_555
O2 N3 1_555 1_555
O3 N4 1_555 1_555
O4 N4 1_555 1_555
N1 N2 1_555 1_555
N2 H1 1_555 1_555
N3 C23 1_555 1_555
N4 C25 1_555 1_555
C1 H2 1_555 1_555
C2 C1 1_555 1_555
H3 C2 1_555 1_555
C3 C2 1_555 1_555
C4 C3 1_555 1_555
H4 C4 1_555 1_555
C5 C4 1_555 1_555
H5 C5 1_555 1_555
C6 C1 1_555 1_555
C7 C3 1_555 1_555
H6 C7 1_555 1_555
H7 C7 1_555 1_555
H8 C7 1_555 1_555
C8 C6 1_555 1_555
H9 C8 1_555 1_555
H10 C8 1_555 1_555
C9 C8 1_555 1_555
C10 C9 1_555 1_555
C11 C10 1_555 1_555
H11 C11 1_555 1_555
C12 C11 1_555 1_555
H12 C12 1_555 1_555
C13 C12 1_555 1_555
H13 C13 1_555 1_555
C14 C13 1_555 1_555
H14 C14 1_555 1_555
C15 C10 1_555 1_555
H15 C15 1_555 1_555
C16 C9 1_555 1_555
C17 C16 1_555 1_555
H16 C17 1_555 1_555
H17 C17 1_555 1_555
C18 C17 1_555 1_555
H18 C18 1_555 1_555
H19 C18 1_555 1_555
C19 C18 1_555 1_555
H20 C19 1_555 1_555
H21 C19 1_555 1_555
C20 C19 1_555 1_555
H22 C20 1_555 1_555
H23 C20 1_555 1_555
H24 C20 1_555 1_555
C21 N1 1_555 1_555
H25 C21 1_555 1_555
C22 N2 1_555 1_555
C23 C22 1_555 1_555
C24 C23 1_555 1_555
H26 C24 1_555 1_555
C25 C24 1_555 1_555
C26 C25 1_555 1_555
H27 C26 1_555 1_555
C27 C22 1_555 1_555
H28 C27 1_555 1_555
C5 C6 1_555 1_555
C14 C15 1_555 1_555
C16 C21 1_555 1_555
C26 C27 1_555 1_555

#END
