
#######################################################################
#
#                 Cambridge Crystallographic Data Centre
#                                CCDC 
#
#######################################################################
#
# If this CIF has been generated from an entry in the Cambridge 
# Structural Database, then it will include bibliographic, chemical, 
# crystal, experimental, refinement or atomic coordinate data resulting 
# from the CCDC's data processing and validation procedures.
#
#######################################################################

data_VABNAN
_chemical_name_common            (1.1.1.1)Pagodane
_chemical_formula_moiety         'C20 H20'
_chemical_name_systematic        
Undecacyclo(9.9.0.0^1,5^.0^2,12^.0^2,18^.0^3,7^.0^6,10^.0^8,12^.0^11,15^.0^13,17^.0^16,20^)icosane
_symmetry_cell_setting           triclinic
_symmetry_space_group_name_H-M   'P -1'
_symmetry_Int_Tables_number      2
_space_group_name_Hall           '-P 1'
loop_
_symmetry_equiv_pos_site_id
_symmetry_equiv_pos_as_xyz
1 x,y,z
2 -x,-y,-z
_cell_length_a                   7.304(5)
_cell_length_b                   8.182(4)
_cell_length_c                   6.336(3)
_cell_angle_alpha                105.50(4)
_cell_angle_beta                 112.07(5)
_cell_angle_gamma                64.97(5)
_cell_volume                     315.294
_cell_formula_units_Z            1
loop_
_atom_site_label
_atom_site_type_symbol
_atom_site_fract_x
_atom_site_fract_y
_atom_site_fract_z
C1 C 0.3835(2) 0.4623(2) 0.0286(2)
C2 C 0.5844(2) 0.5036(2) 0.1858(2)
C3 C 0.1868(2) 0.6257(2) 0.0616(2)
C4 C 0.0532(2) 0.6715(2) -0.1837(2)
C5 C 0.7660(2) 0.3246(2) 0.2509(2)
C6 C 0.6817(2) 0.1895(2) 0.0521(2)
C7 C 0.2863(2) 0.7754(2) 0.1643(2)
C8 C 0.5176(2) 0.6939(2) 0.3209(2)
C9 C 0.6338(2) 0.7931(2) 0.2717(2)
C10 C 0.4360(2) 0.2560(2) -0.0084(2)
H1 H 0.198115 0.881702 0.249680
H2 H 0.751784 0.062461 0.092139
H3 H 0.106683 0.611094 0.148855
H4 H 0.376900 0.210559 0.073376
H5 H 0.808134 0.299750 0.412052
H6 H 0.540229 0.699743 0.488159
H7 H -0.003140 0.574880 -0.281262
H8 H -0.066213 0.791649 -0.186148
H9 H 0.790983 0.741549 0.341755
H10 H 0.580373 0.927144 0.321167
C2A C 0.4156(2) 0.4964(2) -0.1858(2)
C1A C 0.6165(2) 0.5377(2) -0.0286(2)
C5A C 0.2340(2) 0.6754(2) -0.2509(2)
C4A C 0.9468(2) 0.3285(2) 0.1837(2)
C7A C 0.7137(2) 0.2246(2) -0.1643(2)
C6A C 0.3183(2) 0.8105(2) -0.0521(2)
C10A C 0.5640(2) 0.7440(2) 0.0084(2)
C9A C 0.3662(2) 0.2069(2) -0.2717(2)
C8A C 0.4824(2) 0.3061(2) -0.3209(2)
C3A C 0.8132(2) 0.3743(2) -0.0616(2)
H5A H 0.191866 0.700250 -0.412052
H7A H 1.003140 0.425120 0.281262
H8A H 1.066213 0.208351 0.186148
H1A H 0.801885 0.118298 -0.249680
H2A H 0.248216 0.937539 -0.092139
H4A H 0.623100 0.789441 -0.073376
H9A H 0.209017 0.258451 -0.341755
H10A H 0.419627 0.072856 -0.321167
H6A H 0.459771 0.300257 -0.488159
H3A H 0.893317 0.388906 -0.148855
loop_
_geom_bond_atom_site_label_1
_geom_bond_atom_site_label_2
_geom_bond_site_symmetry_1
_geom_bond_site_symmetry_2
C1 C2 1_555 1_555
C2 C5 1_555 1_555
C3 C1 1_555 1_555
C4 C3 1_555 1_555
C5 C6 1_555 1_555
C6 C10 1_555 1_555
C7 C3 1_555 1_555
C8 C2 1_555 1_555
C9 C8 1_555 1_555
C10 C1 1_555 1_555
H1 C7 1_555 1_555
H2 C6 1_555 1_555
H3 C3 1_555 1_555
H4 C10 1_555 1_555
H5 C5 1_555 1_555
H6 C8 1_555 1_555
H7 C4 1_555 1_555
H8 C4 1_555 1_555
H9 C9 1_555 1_555
H10 C9 1_555 1_555
C2A C1 1_555 1_555
C1A C2 1_555 1_555
C5A C4 1_555 1_555
C4A C5 1_555 1_555
C7A C6 1_555 1_555
C6A C7 1_555 1_555
C10A C9 1_555 1_555
C9A C10 1_555 1_555
C8A C2A 1_555 1_555
C3A C1A 1_555 1_555
H5A C5A 1_555 1_555
H7A C4A 1_555 1_555
H8A C4A 1_555 1_555
H1A C7A 1_555 1_555
H2A C6A 1_555 1_555
H4A C10A 1_555 1_555
H9A C9A 1_555 1_555
H10A C9A 1_555 1_555
H6A C8A 1_555 1_555
H3A C3A 1_555 1_555
C7 C8 1_555 1_555
C2A C1A 1_555 1_555
C2A C5A 1_555 1_555
C1A C10A 1_555 1_555
C5A C6A 1_555 1_555
C4A C3A 1_555 1_555
C7A C3A 1_555 1_555
C7A C8A 1_555 1_555
C6A C10A 1_555 1_555
C9A C8A 1_555 1_555

#END
