
#######################################################################
#
#                 Cambridge Crystallographic Data Centre
#                                CCDC 
#
#######################################################################
#
# If this CIF has been generated from an entry in the Cambridge 
# Structural Database, then it will include bibliographic, chemical, 
# crystal, experimental, refinement or atomic coordinate data resulting 
# from the CCDC's data processing and validation procedures.
#
#######################################################################

data_VABSIC
_chemical_formula_moiety         'C9 H7 N1 O2 S2'
_chemical_name_systematic        '2-(Benzothiazol-2-ylsulfanyl)acetic acid'
_symmetry_cell_setting           monoclinic
_symmetry_space_group_name_H-M   'P 21/c'
_symmetry_Int_Tables_number      14
_space_group_name_Hall           '-P 2ybc'
loop_
_symmetry_equiv_pos_site_id
_symmetry_equiv_pos_as_xyz
1 x,y,z
2 -x,1/2+y,1/2-z
3 -x,-y,-z
4 x,1/2-y,1/2+z
_cell_length_a                   6.0374(5)
_cell_length_b                   19.2450(17)
_cell_length_c                   8.1250(7)
_cell_angle_alpha                90
_cell_angle_beta                 90.4190(10)
_cell_angle_gamma                90
_cell_volume                     944.017
_exptl_crystal_colour            pink
_exptl_crystal_description       block
_cell_formula_units_Z            4
_exptl_crystal_recrystallization_method 'methanol/diethyl ether'
loop_
_atom_site_label
_atom_site_type_symbol
_atom_site_fract_x
_atom_site_fract_y
_atom_site_fract_z
C1 C 0.5666(3) 0.77360(10) 0.5938(3)
C2 C 0.4631(3) 0.70448(10) 0.5538(3)
H1 H 0.4289 0.6798 0.6546
H2 H 0.5654 0.6764 0.4906
C3 C 0.1497(3) 0.63490(9) 0.3747(2)
C4 C -0.0451(3) 0.55193(10) 0.2515(2)
C5 C 0.1331(3) 0.51163(10) 0.3081(2)
C6 C 0.1436(4) 0.44073(10) 0.2773(3)
H3 H 0.2624 0.4143 0.3154
C7 C -0.0259(4) 0.41063(11) 0.1894(3)
H4 H -0.0223 0.3632 0.1677
C8 C -0.2024(4) 0.45021(12) 0.1327(3)
H5 H -0.3154 0.4287 0.0732
C9 C -0.2144(3) 0.52022(11) 0.1620(2)
H6 H -0.3337 0.5461 0.1228
N1 N -0.0309(3) 0.62213(8) 0.2909(2)
O1 O 0.7348(3) 0.76603(7) 0.6956(2)
H7 H 0.7911 0.8041 0.7140
O2 O 0.5039(3) 0.82751(8) 0.5396(2)
S1 S 0.21328(9) 0.71923(3) 0.43642(7)
S2 S 0.31920(8) 0.56396(2) 0.41411(7)
loop_
_geom_bond_atom_site_label_1
_geom_bond_atom_site_label_2
_geom_bond_site_symmetry_1
_geom_bond_site_symmetry_2
C1 C2 1_555 1_555
C2 H1 1_555 1_555
H2 C2 1_555 1_555
C3 N1 1_555 1_555
C4 C5 1_555 1_555
C5 C6 1_555 1_555
C6 H3 1_555 1_555
C7 C6 1_555 1_555
H4 C7 1_555 1_555
C8 C7 1_555 1_555
H5 C8 1_555 1_555
C9 C4 1_555 1_555
H6 C9 1_555 1_555
N1 C4 1_555 1_555
O1 C1 1_555 1_555
H7 O1 1_555 1_555
O2 C1 1_555 1_555
S1 C2 1_555 1_555
S2 C3 1_555 1_555
C3 S1 1_555 1_555
C5 S2 1_555 1_555
C8 C9 1_555 1_555

#END
