
#######################################################################
#
#                 Cambridge Crystallographic Data Centre
#                                CCDC 
#
#######################################################################
#
# If this CIF has been generated from an entry in the Cambridge 
# Structural Database, then it will include bibliographic, chemical, 
# crystal, experimental, refinement or atomic coordinate data resulting 
# from the CCDC's data processing and validation procedures.
#
#######################################################################

data_VABTEZ
_chemical_formula_moiety         'C12 H24 O4'
_chemical_name_systematic        
(5-n-Hexyl-2-hydroxymethyl-1,3-dioxan-2-yl)methanol
_symmetry_cell_setting           monoclinic
_symmetry_space_group_name_H-M   'P 21/n'
_symmetry_Int_Tables_number      14
_space_group_name_Hall           '-P 2yn'
loop_
_symmetry_equiv_pos_site_id
_symmetry_equiv_pos_as_xyz
1 x,y,z
2 1/2-x,1/2+y,1/2-z
3 -x,-y,-z
4 1/2+x,1/2-y,1/2+z
_cell_length_a                   13.6602(10)
_cell_length_b                   5.9370(5)
_cell_length_c                   16.4268(12)
_cell_angle_alpha                90
_cell_angle_beta                 97.7370(10)
_cell_angle_gamma                90
_cell_volume                     1320.1
_exptl_crystal_colour            colorless
_exptl_crystal_description       prism
_cell_formula_units_Z            4
_exptl_crystal_recrystallization_method 'ethyl acetate'
loop_
_atom_site_label
_atom_site_type_symbol
_atom_site_fract_x
_atom_site_fract_y
_atom_site_fract_z
O1 O 0.21236(8) 1.1104(2) 0.46544(7)
O2 O 0.08583(9) 1.3743(2) 0.45699(9)
O3 O 0.25706(13) 1.7500(2) 0.65335(8)
H1 H 0.2562(18) 1.699(4) 0.7006(8)
O4 O 0.24968(15) 1.1821(2) 0.68721(8)
H2 H 0.257(2) 1.051(2) 0.6681(16)
C1 C 0.22572(13) 1.4192(3) 0.56451(10)
C2 C 0.29973(15) 1.5895(3) 0.60499(12)
H3 H 0.3529 1.5084 0.6402
H4 H 0.3302 1.6693 0.5618
C3 C 0.17790(16) 1.2926(3) 0.62952(12)
H5 H 0.1398 1.3998 0.6590
H6 H 0.1313 1.1794 0.6024
C4 C 0.14640(15) 1.5360(3) 0.50544(12)
H7 H 0.1046 1.6292 0.5369
H8 H 0.1780 1.6370 0.4687
C5 C 0.27918(13) 1.2561(3) 0.51385(11)
H9 H 0.3173 1.3429 0.4774
H10 H 0.3264 1.1648 0.5512
C6 C 0.14157(13) 1.2334(3) 0.41238(11)
H11 H 0.1756 1.3257 0.3737
C7 C 0.07331(14) 1.0673(4) 0.36474(12)
H12 H 0.0179 1.1508 0.3333
H13 H 0.0452 0.9678 0.4040
C8 C 0.12197(14) 0.9224(3) 0.30569(12)
H14 H 0.1780 0.8402 0.3368
H15 H 0.1489 1.0211 0.2655
C9 C 0.05174(14) 0.7536(4) 0.25968(13)
H16 H 0.0248 0.6562 0.3002
H17 H -0.0043 0.8368 0.2290
C10 C 0.09718(14) 0.6053(4) 0.20005(11)
H18 H 0.1277 0.7026 0.1615
H19 H 0.1505 0.5148 0.2311
C11 C 0.02531(15) 0.4480(4) 0.15108(14)
H20 H -0.0268 0.5389 0.1186
H21 H -0.0069 0.3545 0.1897
C12 C 0.07088(17) 0.2939(4) 0.09337(13)
H22 H 0.1047 0.3843 0.0558
H23 H 0.0189 0.2039 0.0617
H24 H 0.1185 0.1936 0.1252
loop_
_geom_bond_atom_site_label_1
_geom_bond_atom_site_label_2
_geom_bond_site_symmetry_1
_geom_bond_site_symmetry_2
O1 C5 1_555 1_555
O2 C4 1_555 1_555
O3 H1 1_555 1_555
O4 H2 1_555 1_555
C1 C2 1_555 1_555
C2 O3 1_555 1_555
H3 C2 1_555 1_555
H4 C2 1_555 1_555
C3 O4 1_555 1_555
H5 C3 1_555 1_555
H6 C3 1_555 1_555
C4 C1 1_555 1_555
H7 C4 1_555 1_555
H8 C4 1_555 1_555
C5 C1 1_555 1_555
H9 C5 1_555 1_555
H10 C5 1_555 1_555
C6 O1 1_555 1_555
H11 C6 1_555 1_555
C7 C6 1_555 1_555
H12 C7 1_555 1_555
H13 C7 1_555 1_555
C8 C7 1_555 1_555
H14 C8 1_555 1_555
H15 C8 1_555 1_555
C9 C8 1_555 1_555
H16 C9 1_555 1_555
H17 C9 1_555 1_555
C10 C9 1_555 1_555
H18 C10 1_555 1_555
H19 C10 1_555 1_555
C11 C10 1_555 1_555
H20 C11 1_555 1_555
H21 C11 1_555 1_555
C12 C11 1_555 1_555
H22 C12 1_555 1_555
H23 C12 1_555 1_555
H24 C12 1_555 1_555
O2 C6 1_555 1_555
C1 C3 1_555 1_555

#END
