
#######################################################################
#
#                 Cambridge Crystallographic Data Centre
#                                CCDC 
#
#######################################################################
#
# If this CIF has been generated from an entry in the Cambridge 
# Structural Database, then it will include bibliographic, chemical, 
# crystal, experimental, refinement or atomic coordinate data resulting 
# from the CCDC's data processing and validation procedures.
#
#######################################################################

data_VABWOM
_chemical_formula_moiety         'C20 H18 N4 O2 S2'
_chemical_name_systematic        
5,5'-diphenyl-2,2'-[butane-1,4-diylbis(sulfanediyl)]bis(1,3,4-oxadiazole)
_symmetry_cell_setting           monoclinic
_symmetry_space_group_name_H-M   'P 21/c'
_symmetry_Int_Tables_number      14
_space_group_name_Hall           '-P 2ybc'
loop_
_symmetry_equiv_pos_site_id
_symmetry_equiv_pos_as_xyz
1 x,y,z
2 -x,1/2+y,1/2-z
3 -x,-y,-z
4 x,1/2-y,1/2+z
_cell_length_a                   12.202(2)
_cell_length_b                   5.9317(12)
_cell_length_c                   13.518(3)
_cell_angle_alpha                90
_cell_angle_beta                 104.04(3)
_cell_angle_gamma                90
_cell_volume                     949.185
_exptl_crystal_colour            colorless
_exptl_crystal_description       prism
_cell_formula_units_Z            2
_exptl_crystal_recrystallization_method chloroform/ethanol
loop_
_atom_site_label
_atom_site_type_symbol
_atom_site_fract_x
_atom_site_fract_y
_atom_site_fract_z
S1 S 0.43518(5) 1.09305(10) 0.65529(4)
O1 O 0.30541(12) 0.7504(3) 0.68093(12)
N1 N 0.19647(17) 0.6825(3) 0.52644(14)
N2 N 0.26743(17) 0.8685(3) 0.51955(14)
C1 C 0.2073(2) 0.3923(4) 0.77192(18)
H1 H 0.2568 0.4939 0.8155
C2 C 0.1655(2) 0.2040(4) 0.81204(19)
H2 H 0.1869 0.1762 0.8834
C3 C 0.0925(2) 0.0563(4) 0.7481(2)
H3 H 0.0657 -0.0740 0.7757
C4 C 0.0589(2) 0.0987(4) 0.64463(19)
H4 H 0.0071 -0.0001 0.6016
C5 C 0.1004(2) 0.2843(4) 0.60345(18)
H5 H 0.0778 0.3123 0.5322
C6 C 0.17557(19) 0.4300(4) 0.66720(17)
C7 C 0.22137(19) 0.6207(4) 0.62076(17)
C8 C 0.3285(2) 0.8996(4) 0.61119(17)
C9 C 0.4184(2) 1.2482(4) 0.53652(18)
H6 H 0.4274 1.1445 0.4817
H7 H 0.3417 1.3145 0.5166
C10 C 0.5064(2) 1.4340(4) 0.55008(17)
H8 H 0.5829 1.3674 0.5705
H9 H 0.4970 1.5378 0.6048
S1B S 0.56482(5) 1.90695(10) 0.34471(4)
O1B O 0.69459(12) 2.2496(3) 0.31907(12)
N1B N 0.80353(17) 2.3175(3) 0.47356(14)
N2B N 0.73257(17) 2.1315(3) 0.48045(14)
C1B C 0.7927(2) 2.6077(4) 0.22808(18)
H1B H 0.7432 2.5061 0.1845
C2B C 0.8345(2) 2.7960(4) 0.18796(19)
H2B H 0.8131 2.8238 0.1166
C3B C 0.9075(2) 2.9437(4) 0.2519(2)
H3B H 0.9343 3.0740 0.2243
C4B C 0.9411(2) 2.9013(4) 0.35537(19)
H4B H 0.9929 3.0001 0.3984
C5B C 0.8996(2) 2.7157(4) 0.39655(18)
H5B H 0.9222 2.6877 0.4678
C6B C 0.82443(19) 2.5700(4) 0.33280(17)
C7B C 0.77863(19) 2.3793(4) 0.37924(17)
C8B C 0.6715(2) 2.1004(4) 0.38881(17)
C9B C 0.5816(2) 1.7518(4) 0.46348(18)
H6B H 0.5726 1.8555 0.5183
H7B H 0.6583 1.6855 0.4834
C10B C 0.4936(2) 1.5660(4) 0.44992(17)
H8B H 0.4171 1.6326 0.4295
H9B H 0.5030 1.4622 0.3952
loop_
_geom_bond_atom_site_label_1
_geom_bond_atom_site_label_2
_geom_bond_site_symmetry_1
_geom_bond_site_symmetry_2
S1 C8 1_555 1_555
O1 C7 1_555 1_555
N1 N2 1_555 1_555
N2 C8 1_555 1_555
C1 H1 1_555 1_555
C2 C1 1_555 1_555
H2 C2 1_555 1_555
C3 C2 1_555 1_555
H3 C3 1_555 1_555
C4 C3 1_555 1_555
H4 C4 1_555 1_555
C5 C4 1_555 1_555
H5 C5 1_555 1_555
C6 C1 1_555 1_555
C7 N1 1_555 1_555
C8 O1 1_555 1_555
C9 S1 1_555 1_555
H6 C9 1_555 1_555
H7 C9 1_555 1_555
C10 C9 1_555 1_555
H8 C10 1_555 1_555
H9 C10 1_555 1_555
S1B C8B 1_555 1_555
O1B C7B 1_555 1_555
N1B N2B 1_555 1_555
N2B C8B 1_555 1_555
C1B H1B 1_555 1_555
C2B C1B 1_555 1_555
H2B C2B 1_555 1_555
C3B C2B 1_555 1_555
H3B C3B 1_555 1_555
C4B C3B 1_555 1_555
H4B C4B 1_555 1_555
C5B C4B 1_555 1_555
H5B C5B 1_555 1_555
C6B C1B 1_555 1_555
C7B N1B 1_555 1_555
C8B O1B 1_555 1_555
C9B S1B 1_555 1_555
H6B C9B 1_555 1_555
H7B C9B 1_555 1_555
C10B C10 1_555 1_555
H8B C10B 1_555 1_555
H9B C10B 1_555 1_555
C5 C6 1_555 1_555
C6 C7 1_555 1_555
C5B C6B 1_555 1_555
C6B C7B 1_555 1_555
C9B C10B 1_555 1_555

#END
