
#######################################################################
#
#                 Cambridge Crystallographic Data Centre
#                                CCDC 
#
#######################################################################
#
# If this CIF has been generated from an entry in the Cambridge 
# Structural Database, then it will include bibliographic, chemical, 
# crystal, experimental, refinement or atomic coordinate data resulting 
# from the CCDC's data processing and validation procedures.
#
#######################################################################

data_VABWEC
_chemical_formula_moiety         'C13 H9 N1 O4'
_chemical_name_systematic        '5-(Pyridin-4-yl)isophthalic acid'
_symmetry_cell_setting           orthorhombic
_symmetry_space_group_name_H-M   'F d d 2'
_symmetry_Int_Tables_number      43
_space_group_name_Hall           'F 2 -2d'
loop_
_symmetry_equiv_pos_site_id
_symmetry_equiv_pos_as_xyz
1 x,y,z
2 -x,-y,z
3 1/4-x,1/4+y,1/4+z
4 1/4+x,1/4-y,1/4+z
5 x,1/2+y,1/2+z
6 -x,1/2-y,1/2+z
7 1/4-x,3/4+y,3/4+z
8 1/4+x,3/4-y,3/4+z
9 1/2+x,y,1/2+z
10 1/2-x,-y,1/2+z
11 3/4-x,1/4+y,3/4+z
12 3/4+x,1/4-y,3/4+z
13 1/2+x,1/2+y,z
14 1/2-x,1/2-y,z
15 3/4-x,3/4+y,1/4+z
16 3/4+x,3/4-y,1/4+z
_cell_length_a                   15.5362(16)
_cell_length_b                   37.371(3)
_cell_length_c                   7.1716(9)
_cell_angle_alpha                90
_cell_angle_beta                 90
_cell_angle_gamma                90
_cell_volume                     4163.85
_exptl_crystal_colour            colorless
_exptl_crystal_description       block
_cell_formula_units_Z            16
_exptl_crystal_recrystallization_method aqueous
loop_
_atom_site_label
_atom_site_type_symbol
_atom_site_fract_x
_atom_site_fract_y
_atom_site_fract_z
O1 O 0.70913(15) 0.16593(6) 0.0729(5)
O2 O 0.81725(15) 0.13320(6) -0.0349(5)
H1 H 0.8354 0.1528 -0.0678
O3 O 0.45574(15) 0.10618(6) 0.3114(4)
H2 H 0.4068 0.1054 0.3541
O4 O 0.45297(14) 0.04779(6) 0.3757(4)
N1 N 0.85168(17) -0.05737(7) 0.1930(5)
C1 C 0.74454(19) 0.13706(8) 0.0469(5)
C2 C 0.4902(2) 0.07358(8) 0.3152(6)
C3 C 0.70358(19) 0.10312(8) 0.1149(5)
C4 C 0.74860(19) 0.07115(8) 0.1188(5)
H3 H 0.8058 0.0707 0.0807
C5 C 0.70940(18) 0.03966(8) 0.1790(5)
C6 C 0.62393(19) 0.04072(8) 0.2376(5)
H4 H 0.5966 0.0198 0.2755
C7 C 0.57949(19) 0.07292(8) 0.2395(5)
C8 C 0.6192(2) 0.10389(8) 0.1779(5)
H5 H 0.5891 0.1254 0.1788
C9 C 0.7591(2) 0.00577(8) 0.1821(5)
C10 C 0.8478(2) 0.00577(8) 0.2122(6)
H6 H 0.8772 0.0272 0.2282
C11 C 0.8915(2) -0.02631(9) 0.2179(6)
H7 H 0.9505 -0.0262 0.2399
C12 C 0.7669(2) -0.05810(9) 0.1627(6)
H8 H 0.7397 -0.0800 0.1450
C13 C 0.7191(2) -0.02726(8) 0.1570(5)
H9 H 0.6601 -0.0284 0.1364
loop_
_geom_bond_atom_site_label_1
_geom_bond_atom_site_label_2
_geom_bond_site_symmetry_1
_geom_bond_site_symmetry_2
O1 C1 1_555 1_555
O2 H1 1_555 1_555
O3 H2 1_555 1_555
O4 C2 1_555 1_555
N1 C11 1_555 1_555
C1 O2 1_555 1_555
C2 O3 1_555 1_555
C3 C1 1_555 1_555
C4 C3 1_555 1_555
H3 C4 1_555 1_555
C5 C4 1_555 1_555
C6 C5 1_555 1_555
H4 C6 1_555 1_555
C7 C2 1_555 1_555
C8 C3 1_555 1_555
H5 C8 1_555 1_555
C9 C5 1_555 1_555
C10 C9 1_555 1_555
H6 C10 1_555 1_555
C11 C10 1_555 1_555
H7 C11 1_555 1_555
C12 N1 1_555 1_555
H8 C12 1_555 1_555
C13 C9 1_555 1_555
H9 C13 1_555 1_555
C6 C7 1_555 1_555
C7 C8 1_555 1_555
C12 C13 1_555 1_555

#END
