
#######################################################################
#
#                 Cambridge Crystallographic Data Centre
#                                CCDC 
#
#######################################################################
#
# If this CIF has been generated from an entry in the Cambridge 
# Structural Database, then it will include bibliographic, chemical, 
# crystal, experimental, refinement or atomic coordinate data resulting 
# from the CCDC's data processing and validation procedures.
#
#######################################################################

data_VABWUS
_chemical_formula_moiety         'C16 H12 F3 N3 O5 S1,H2 O1'
_chemical_name_systematic        
'rac-6-Hydroxy-4-(4-nitrophenyl)-5-(2-thienylcarbonyl)-6-(trifluoromethyl)-3,4,5,6-tetrahydropyrimidin-2(1H)-one monohydrate'
_symmetry_cell_setting           orthorhombic
_symmetry_space_group_name_H-M   'P n a 21'
_symmetry_Int_Tables_number      33
_space_group_name_Hall           'P 2c -2n'
loop_
_symmetry_equiv_pos_site_id
_symmetry_equiv_pos_as_xyz
1 x,y,z
2 1/2-x,1/2+y,1/2+z
3 1/2+x,1/2-y,z
4 -x,-y,1/2+z
_cell_length_a                   14.1640(13)
_cell_length_b                   9.1360(10)
_cell_length_c                   27.459(3)
_cell_angle_alpha                90
_cell_angle_beta                 90
_cell_angle_gamma                90
_cell_volume                     3553.26
_exptl_crystal_colour            colorless
_exptl_crystal_description       prism
_cell_formula_units_Z            8
_exptl_crystal_recrystallization_method 'aqueous ethanol'
loop_
_atom_site_label
_atom_site_type_symbol
_atom_site_fract_x
_atom_site_fract_y
_atom_site_fract_z
S1 S 0.60772(5) -0.35697(6) 0.08791(3)
F1 F 0.37968(10) -0.23469(13) 0.00751(6)
F2 F 0.27429(8) -0.07998(14) -0.01598(5)
F3 F 0.35284(9) -0.04033(14) 0.04972(5)
O1 O 0.45567(10) -0.08713(15) -0.06818(5)
O2 O 0.43350(10) 0.36232(14) -0.06593(5)
O3 O 0.59480(11) -0.23377(16) -0.01125(6)
O4 O 0.89623(12) 0.33821(17) 0.13355(6)
O5 O 0.96906(14) 0.1399(2) 0.11251(7)
N1 N 0.40188(13) 0.13684(17) -0.03407(6)
N2 N 0.55597(13) 0.2246(2) -0.04098(7)
N3 N 0.90201(14) 0.22519(19) 0.10965(7)
C1 C 0.43619(13) -0.01001(19) -0.02507(7)
C2 C 0.46358(14) 0.2445(2) -0.04839(7)
C3 C 0.60082(14) 0.0912(2) -0.02294(7)
H1 H 0.6249 0.0323 -0.0510
C4 C 0.52713(14) 0.00176(19) 0.00539(7)
H2 H 0.5117 0.0564 0.0359
C5 C 0.68228(15) 0.1286(2) 0.01111(7)
C6 C 0.67296(15) 0.2434(2) 0.04432(8)
H3 H 0.6169 0.3005 0.0445
C7 C 0.74425(16) 0.2748(2) 0.07696(7)
H4 H 0.7383 0.3535 0.0994
C8 C 0.82467(15) 0.1886(2) 0.07617(7)
C9 C 0.83640(15) 0.0731(2) 0.04422(8)
H5 H 0.8922 0.0154 0.0447
C10 C 0.76357(14) 0.0438(2) 0.01115(7)
H6 H 0.7698 -0.0346 -0.0114
C11 C 0.35973(15) -0.0915(2) 0.00413(7)
C12 C 0.56951(15) -0.1468(2) 0.01993(8)
C13 C 0.57782(15) -0.1808(2) 0.07158(8)
C14 C 0.56852(15) -0.0877(2) 0.11324(7)
H7 H 0.5543 0.0139 0.1124
C15 C 0.58417(19) -0.1726(3) 0.15664(9)
H8 H 0.5803 -0.1326 0.1885
C16 C 0.60494(19) -0.3148(3) 0.14778(10)
H9 H 0.6168 -0.3842 0.1728
H21 H 0.3382(17) 0.146(2) -0.0483(9)
H22 H 0.5907(17) 0.283(3) -0.0528(9)
H26 H 0.399(3) -0.106(4) -0.0845(14)
S2 S 0.87505(5) 0.87073(6) 0.23286(2)
F4 F 0.62278(9) 0.54205(14) 0.26486(4)
F5 F 0.64890(10) 0.73570(13) 0.30749(6)
F6 F 0.54339(9) 0.57986(14) 0.33042(5)
O6 O 0.72494(11) 0.58706(15) 0.38319(5)
O7 O 0.70213(11) 0.13746(14) 0.38037(5)
O8 O 0.86907(11) 0.72990(16) 0.32953(6)
O9 O 1.16517(13) 0.15713(17) 0.18214(6)
O10 O 1.23927(14) 0.3536(2) 0.20196(8)
N4 N 0.67149(13) 0.36304(16) 0.34850(6)
N5 N 0.82537(13) 0.27411(19) 0.35508(7)
N6 N 1.17126(14) 0.2717(2) 0.20498(7)
C17 C 0.70562(14) 0.5113(2) 0.34018(7)
C18 C 0.73277(14) 0.2537(2) 0.36261(7)
C19 C 0.87044(14) 0.4083(2) 0.33745(7)
H10 H 0.8951 0.4658 0.3657
C20 C 0.79665(14) 0.49985(19) 0.30975(7)
H11 H 0.7814 0.4485 0.2786
C21 C 0.62941(15) 0.5919(2) 0.31056(8)
C22 C 0.95101(14) 0.37086(19) 0.30321(7)
C23 C 0.94011(15) 0.2601(2) 0.26815(8)
H12 H 0.8829 0.2060 0.2669
C24 C 1.01085(15) 0.2290(2) 0.23565(7)
H13 H 1.0034 0.1537 0.2121
C25 C 1.09372(15) 0.3103(2) 0.23800(7)
C26 C 1.10671(16) 0.4235(2) 0.27159(8)
H14 H 1.1635 0.4789 0.2720
C27 C 1.03457(14) 0.4527(2) 0.30426(8)
H15 H 1.0419 0.5287 0.3275
C28 C 0.83971(14) 0.6501(2) 0.29737(7)
C29 C 0.84472(15) 0.6933(2) 0.24656(8)
C30 C 0.82926(16) 0.6111(2) 0.20372(8)
H16 H 0.8130 0.5102 0.2032
C31 C 0.84114(19) 0.6988(3) 0.16187(9)
H17 H 0.8340 0.6624 0.1297
C32 C 0.8636(2) 0.8396(3) 0.17194(10)
H18 H 0.8720 0.9128 0.1478
H23 H 0.859(2) 0.209(3) 0.3656(10)
H24 H 0.615(2) 0.362(3) 0.3582(9)
H25 H 0.6766(19) 0.603(3) 0.3989(10)
O11 O 0.98547(11) 0.12871(16) 0.40001(6)
H27 H 0.9996(19) 0.051(3) 0.4119(10)
H28 H 0.982(2) 0.188(3) 0.4227(11)
O12 O 0.78322(11) 0.87168(16) 0.41523(6)
H19 H 0.785(2) 0.818(3) 0.3900(11)
H20 H 0.777(2) 0.950(4) 0.4040(12)
loop_
_geom_bond_atom_site_label_1
_geom_bond_atom_site_label_2
_geom_bond_site_symmetry_1
_geom_bond_site_symmetry_2
S1 C13 1_555 1_555
F1 C11 1_555 1_555
F2 C11 1_555 1_555
F3 C11 1_555 1_555
O1 C1 1_555 1_555
O2 C2 1_555 1_555
O3 C12 1_555 1_555
O4 N3 1_555 1_555
O5 N3 1_555 1_555
N1 C1 1_555 1_555
N2 C2 1_555 1_555
N3 C8 1_555 1_555
C1 C4 1_555 1_555
C2 N1 1_555 1_555
C3 N2 1_555 1_555
H1 C3 1_555 1_555
C4 C3 1_555 1_555
H2 C4 1_555 1_555
C5 C3 1_555 1_555
C6 C5 1_555 1_555
H3 C6 1_555 1_555
C7 C6 1_555 1_555
H4 C7 1_555 1_555
C8 C7 1_555 1_555
C9 C8 1_555 1_555
H5 C9 1_555 1_555
C10 C5 1_555 1_555
H6 C10 1_555 1_555
C11 C1 1_555 1_555
C12 C4 1_555 1_555
C13 C12 1_555 1_555
C14 C13 1_555 1_555
H7 C14 1_555 1_555
C15 C14 1_555 1_555
H8 C15 1_555 1_555
C16 S1 1_555 1_555
H9 C16 1_555 1_555
S2 C29 1_555 1_555
F4 C21 1_555 1_555
F5 C21 1_555 1_555
F6 C21 1_555 1_555
O6 C17 1_555 1_555
O7 C18 1_555 1_555
O8 C28 1_555 1_555
O9 N6 1_555 1_555
O10 N6 1_555 1_555
N4 C17 1_555 1_555
N5 C18 1_555 1_555
N6 C25 1_555 1_555
C17 C20 1_555 1_555
C18 N4 1_555 1_555
C19 N5 1_555 1_555
H10 C19 1_555 1_555
C20 C19 1_555 1_555
H11 C20 1_555 1_555
C21 C17 1_555 1_555
C22 C19 1_555 1_555
C23 C22 1_555 1_555
H12 C23 1_555 1_555
C24 C23 1_555 1_555
H13 C24 1_555 1_555
C25 C24 1_555 1_555
C26 C25 1_555 1_555
H14 C26 1_555 1_555
C27 C22 1_555 1_555
H15 C27 1_555 1_555
C28 C20 1_555 1_555
C29 C28 1_555 1_555
C30 C29 1_555 1_555
H16 C30 1_555 1_555
C31 C30 1_555 1_555
H17 C31 1_555 1_555
C32 S2 1_555 1_555
H18 C32 1_555 1_555
O11 H27 1_555 1_555
O12 H19 1_555 1_555
H20 O12 1_555 1_555
H21 N1 1_555 1_555
H22 N2 1_555 1_555
H23 N5 1_555 1_555
H24 N4 1_555 1_555
H25 O6 1_555 1_555
H26 O1 1_555 1_555
H28 O11 1_555 1_555
C9 C10 1_555 1_555
C15 C16 1_555 1_555
C26 C27 1_555 1_555
C31 C32 1_555 1_555

#END
