
#######################################################################
#
#                 Cambridge Crystallographic Data Centre
#                                CCDC 
#
#######################################################################
#
# If this CIF has been generated from an entry in the Cambridge 
# Structural Database, then it will include bibliographic, chemical, 
# crystal, experimental, refinement or atomic coordinate data resulting 
# from the CCDC's data processing and validation procedures.
#
#######################################################################

data_VABYUU
_chemical_compound_source        'Kaempferia rotunda Val'
_chemical_formula_moiety         'C16 H16 O7'
_chemical_name_systematic        
'[1R-(1\a,2\a,4\a,5\b,6\a,7\a)]-4-Benzoyloxymethyl-5,6-dihydroxy-3,8-dioxatricyclo[5.1.0.0^2,4^]octan-5-yl acetate'
_symmetry_cell_setting           orthorhombic
_symmetry_space_group_name_H-M   'P 21 21 21'
_symmetry_Int_Tables_number      19
_space_group_name_Hall           'P 2ac 2ab'
loop_
_symmetry_equiv_pos_site_id
_symmetry_equiv_pos_as_xyz
1 x,y,z
2 1/2-x,-y,1/2+z
3 -x,1/2+y,1/2-z
4 1/2+x,1/2-y,-z
_cell_length_a                   5.7451(7)
_cell_length_b                   7.1746(9)
_cell_length_c                   35.708(5)
_cell_angle_alpha                90
_cell_angle_beta                 90
_cell_angle_gamma                90
_cell_volume                     1471.84
_exptl_crystal_colour            colorless
_exptl_crystal_description       prism
_cell_formula_units_Z            4
loop_
_atom_site_label
_atom_site_type_symbol
_atom_site_fract_x
_atom_site_fract_y
_atom_site_fract_z
O1 O 0.4671(3) 0.4022(3) 0.89359(5)
O2 O 0.1026(4) 0.3085(3) 0.88101(5)
O3 O 0.5062(3) 0.3882(3) 0.78913(5)
O4 O 0.1819(4) 0.5944(3) 0.74537(5)
O5 O 0.4387(4) 0.9627(3) 0.80058(6)
H1 H 0.541(5) 0.999(5) 0.7854(8)
O6 O 0.6886(3) 0.7118(3) 0.84539(5)
O7 O 0.5199(4) 0.8762(3) 0.89191(6)
C1 C 0.1872(5) 0.4312(4) 0.94156(7)
C2 C 0.3442(5) 0.5291(4) 0.96376(8)
H2 H 0.4890 0.5684 0.9536
C3 C 0.2893(6) 0.5693(4) 1.00069(8)
H3 H 0.3963 0.6364 1.0158
C4 C 0.0783(6) 0.5115(4) 1.01552(8)
H4 H 0.0423 0.5364 1.0410
C5 C -0.0805(5) 0.4172(4) 0.99317(8)
H5 H -0.2256 0.3789 1.0034
C6 C -0.0289(5) 0.3787(4) 0.95618(8)
H6 H -0.1395 0.3169 0.9408
C7 C 0.2420(5) 0.3749(4) 0.90243(7)
C8 C 0.5387(5) 0.3349(4) 0.85715(7)
H7 H 0.4820 0.2058 0.8537
H8 H 0.7108 0.3329 0.8558
C9 C 0.4444(5) 0.4570(4) 0.82602(7)
C10 C 0.2631(5) 0.3857(4) 0.80053(7)
H9 H 0.1942 0.2615 0.8067
C11 C 0.1072(5) 0.5236(4) 0.78182(7)
H10 H -0.0640 0.5067 0.7856
C12 C 0.1917(5) 0.7166(4) 0.77788(7)
H11 H 0.0699 0.8160 0.7790
C13 C 0.4278(6) 0.7684(4) 0.79357(7)
H12 H 0.5530 0.7316 0.7756
C14 C 0.4611(5) 0.6656(4) 0.83081(7)
H13 H 0.3394 0.7078 0.8490
C15 C 0.6928(6) 0.8232(4) 0.87612(7)
C16 C 0.9378(6) 0.8664(5) 0.88744(9)
H14 H 0.9366 0.9530 0.9087
H15 H 1.0202 0.9235 0.8663
H16 H 1.0169 0.7510 0.8947
loop_
_geom_bond_atom_site_label_1
_geom_bond_atom_site_label_2
_geom_bond_site_symmetry_1
_geom_bond_site_symmetry_2
O1 C7 1_555 1_555
O2 C7 1_555 1_555
O3 C9 1_555 1_555
O4 C11 1_555 1_555
O5 H1 1_555 1_555
O6 C14 1_555 1_555
O7 C15 1_555 1_555
C1 C2 1_555 1_555
C2 H2 1_555 1_555
C3 C2 1_555 1_555
H3 C3 1_555 1_555
C4 C3 1_555 1_555
H4 C4 1_555 1_555
C5 C4 1_555 1_555
H5 C5 1_555 1_555
C6 C1 1_555 1_555
H6 C6 1_555 1_555
C7 C1 1_555 1_555
C8 O1 1_555 1_555
H7 C8 1_555 1_555
H8 C8 1_555 1_555
C9 C8 1_555 1_555
C10 O3 1_555 1_555
H9 C10 1_555 1_555
C11 C10 1_555 1_555
H10 C11 1_555 1_555
C12 O4 1_555 1_555
H11 C12 1_555 1_555
C13 O5 1_555 1_555
H12 C13 1_555 1_555
C14 C9 1_555 1_555
H13 C14 1_555 1_555
C15 O6 1_555 1_555
C16 C15 1_555 1_555
H14 C16 1_555 1_555
H15 C16 1_555 1_555
H16 C16 1_555 1_555
C5 C6 1_555 1_555
C9 C10 1_555 1_555
C11 C12 1_555 1_555
C12 C13 1_555 1_555
C13 C14 1_555 1_555

#END
