
#######################################################################
#
#                 Cambridge Crystallographic Data Centre
#                                CCDC 
#
#######################################################################
#
# If this CIF has been generated from an entry in the Cambridge 
# Structural Database, then it will include bibliographic, chemical, 
# crystal, experimental, refinement or atomic coordinate data resulting 
# from the CCDC's data processing and validation procedures.
#
#######################################################################

data_VABYEF
_chemical_formula_moiety         'C35 H62 O1 Si1'
_chemical_name_systematic        
3-((t-Butyl(dimethyl)silyl)oxy)-6-ethynylcholestane
_symmetry_cell_setting           orthorhombic
_symmetry_space_group_name_H-M   'P 21 21 21'
_symmetry_Int_Tables_number      19
_space_group_name_Hall           'P 2ac 2ab'
loop_
_symmetry_equiv_pos_site_id
_symmetry_equiv_pos_as_xyz
1 x,y,z
2 1/2-x,-y,1/2+z
3 1/2+x,1/2-y,-z
4 -x,1/2+y,1/2-z
_cell_length_a                   6.5266(2)
_cell_length_b                   11.4858(3)
_cell_length_c                   44.4360(12)
_cell_angle_alpha                90
_cell_angle_beta                 90
_cell_angle_gamma                90
_cell_volume                     3331.07
_exptl_crystal_colour            colorless
_exptl_crystal_description       plate
_cell_formula_units_Z            4
_exptl_crystal_recrystallization_method 'Vapour Deposition'
loop_
_atom_site_label
_atom_site_type_symbol
_atom_site_fract_x
_atom_site_fract_y
_atom_site_fract_z
C1 C 0.9273(17) 0.4614(10) 0.3116(2)
H1 H 1.0259 0.3971 0.3121
H2 H 0.9447 0.5055 0.2929
H3 H 0.7878 0.4302 0.3126
C2 C 0.9635(14) 0.5399(8) 0.33788(18)
H4 H 0.8579 0.6026 0.3363
C3 C 1.1725(15) 0.6027(9) 0.33681(19)
H5 H 1.1896 0.6497 0.3550
H6 H 1.1778 0.6533 0.3191
H7 H 1.2826 0.5449 0.3356
C4 C 0.9330(12) 0.4859(7) 0.36864(16)
H8 H 0.9375 0.5485 0.3839
H9 H 1.0488 0.4324 0.3727
C5 C 0.7321(13) 0.4183(7) 0.37235(16)
H10 H 0.7351 0.3494 0.3590
H11 H 0.6170 0.4684 0.3658
C6 C 0.6922(13) 0.3773(7) 0.40500(16)
H12 H 0.5739 0.3234 0.4048
H13 H 0.8131 0.3326 0.4119
C7 C 0.6490(13) 0.4739(6) 0.42810(15)
H14 H 0.7675 0.5291 0.4277
C8 C 0.4577(14) 0.5424(8) 0.41979(17)
H15 H 0.3379 0.4911 0.4207
H16 H 0.4721 0.5732 0.3993
H17 H 0.4399 0.6071 0.4339
C9 C 0.6379(12) 0.4213(6) 0.45992(14)
H18 H 0.5240 0.3630 0.4599
C10 C 0.8364(14) 0.3555(7) 0.46866(16)
H19 H 0.9562 0.3910 0.4586
H20 H 0.8270 0.2729 0.4624
C11 C 0.8603(14) 0.3640(7) 0.50333(16)
H21 H 0.8762 0.2859 0.5125
H22 H 0.9799 0.4126 0.5088
C12 C 0.6602(11) 0.4213(6) 0.51334(14)
H23 H 0.5546 0.3582 0.5132
C13 C 0.6021(11) 0.5042(5) 0.48763(15)
C14 C 0.7459(12) 0.6076(6) 0.48553(17)
H24 H 0.7407 0.6520 0.5044
H25 H 0.7039 0.6576 0.4688
H26 H 0.8861 0.5799 0.4821
C15 C 0.3810(11) 0.5414(6) 0.49296(15)
H27 H 0.2902 0.4726 0.4916
H28 H 0.3393 0.5973 0.4771
C16 C 0.3561(12) 0.5987(6) 0.52414(14)
H29 H 0.2091 0.6154 0.5275
H30 H 0.4300 0.6739 0.5242
C17 C 0.4368(11) 0.5231(6) 0.55071(14)
H31 H 0.3448 0.4536 0.5517
C18 C 0.6508(11) 0.4759(6) 0.54436(14)
H32 H 0.7482 0.5431 0.5447
C19 C 0.7155(12) 0.3914(6) 0.56904(15)
H33 H 0.8598 0.3681 0.5657
H34 H 0.6298 0.3205 0.5678
C20 C 0.6948(11) 0.4447(6) 0.60079(14)
H35 H 0.7940 0.5107 0.6026
C21 C 0.7490(12) 0.3550(7) 0.62364(16)
C22 C 0.7948(13) 0.2824(7) 0.64150(19)
H36 H 0.8315 0.2244 0.6558
C23 C 0.4768(11) 0.4922(6) 0.60600(15)
H37 H 0.3802 0.4253 0.6036
C24 C 0.4494(11) 0.5384(7) 0.63766(15)
H38 H 0.5433 0.6050 0.6408
H39 H 0.4867 0.4768 0.6523
C25 C 0.2290(11) 0.5776(7) 0.64356(15)
H40 H 0.1361 0.5084 0.6432
C26 C 0.1591(11) 0.6650(6) 0.62002(15)
H41 H 0.2355 0.7387 0.6227
H42 H 0.0115 0.6817 0.6229
C27 C 0.1942(11) 0.6187(6) 0.58779(15)
H43 H 0.1540 0.6796 0.5732
H44 H 0.1047 0.5503 0.5844
C28 C 0.4198(10) 0.5832(6) 0.58180(14)
C29 C 0.5570(12) 0.6934(6) 0.58324(16)
H45 H 0.5482 0.7279 0.6034
H46 H 0.5102 0.7501 0.5683
H47 H 0.6994 0.6719 0.5790
C30 C 0.1725(12) 0.6847(8) 0.73370(16)
C31 C 0.4073(13) 0.7059(9) 0.7372(2)
H48 H 0.4735 0.6343 0.7442
H49 H 0.4307 0.7684 0.7518
H50 H 0.4654 0.7284 0.7177
C32 C 0.0888(14) 0.6423(9) 0.76395(18)
H51 H -0.0609 0.6371 0.7629
H52 H 0.1280 0.6972 0.7798
H53 H 0.1457 0.5653 0.7685
C33 C 0.0653(14) 0.7969(8) 0.7251(2)
H54 H 0.0999 0.8170 0.7043
H55 H 0.1099 0.8596 0.7385
H56 H -0.0832 0.7865 0.7269
C34 C 0.2773(12) 0.4341(8) 0.71048(19)
H57 H 0.2386 0.3755 0.6955
H58 H 0.2454 0.4051 0.7307
H59 H 0.4246 0.4498 0.7090
C35 C -0.1451(12) 0.5330(7) 0.69951(17)
H60 H -0.2184 0.5987 0.6905
H61 H -0.2028 0.5163 0.7194
H62 H -0.1595 0.4643 0.6866
O1 O 0.2156(8) 0.6335(5) 0.67244(10)
Si1 Si 0.1323(3) 0.5706(2) 0.70343(4)
loop_
_geom_bond_atom_site_label_1
_geom_bond_atom_site_label_2
_geom_bond_site_symmetry_1
_geom_bond_site_symmetry_2
C1 H1 1_555 1_555
H2 C1 1_555 1_555
H3 C1 1_555 1_555
C2 C1 1_555 1_555
H4 C2 1_555 1_555
C3 C2 1_555 1_555
H5 C3 1_555 1_555
H6 C3 1_555 1_555
H7 C3 1_555 1_555
C4 C2 1_555 1_555
H8 C4 1_555 1_555
H9 C4 1_555 1_555
C5 C4 1_555 1_555
H10 C5 1_555 1_555
H11 C5 1_555 1_555
C6 C5 1_555 1_555
H12 C6 1_555 1_555
H13 C6 1_555 1_555
C7 C6 1_555 1_555
H14 C7 1_555 1_555
C8 C7 1_555 1_555
H15 C8 1_555 1_555
H16 C8 1_555 1_555
H17 C8 1_555 1_555
C9 C7 1_555 1_555
H18 C9 1_555 1_555
C10 C9 1_555 1_555
H19 C10 1_555 1_555
H20 C10 1_555 1_555
C11 C10 1_555 1_555
H21 C11 1_555 1_555
H22 C11 1_555 1_555
C12 C11 1_555 1_555
H23 C12 1_555 1_555
C13 C9 1_555 1_555
C14 C13 1_555 1_555
H24 C14 1_555 1_555
H25 C14 1_555 1_555
H26 C14 1_555 1_555
C15 C13 1_555 1_555
H27 C15 1_555 1_555
H28 C15 1_555 1_555
C16 C15 1_555 1_555
H29 C16 1_555 1_555
H30 C16 1_555 1_555
C17 C16 1_555 1_555
H31 C17 1_555 1_555
C18 C12 1_555 1_555
H32 C18 1_555 1_555
C19 C18 1_555 1_555
H33 C19 1_555 1_555
H34 C19 1_555 1_555
C20 C19 1_555 1_555
H35 C20 1_555 1_555
C21 C20 1_555 1_555
C22 C21 1_555 1_555
H36 C22 1_555 1_555
C23 C20 1_555 1_555
H37 C23 1_555 1_555
C24 C23 1_555 1_555
H38 C24 1_555 1_555
H39 C24 1_555 1_555
C25 C24 1_555 1_555
H40 C25 1_555 1_555
C26 C25 1_555 1_555
H41 C26 1_555 1_555
H42 C26 1_555 1_555
C27 C26 1_555 1_555
H43 C27 1_555 1_555
H44 C27 1_555 1_555
C28 C17 1_555 1_555
C29 C28 1_555 1_555
H45 C29 1_555 1_555
H46 C29 1_555 1_555
H47 C29 1_555 1_555
C30 C31 1_555 1_555
C31 H48 1_555 1_555
H49 C31 1_555 1_555
H50 C31 1_555 1_555
C32 C30 1_555 1_555
H51 C32 1_555 1_555
H52 C32 1_555 1_555
H53 C32 1_555 1_555
C33 C30 1_555 1_555
H54 C33 1_555 1_555
H55 C33 1_555 1_555
H56 C33 1_555 1_555
C34 H57 1_555 1_555
H58 C34 1_555 1_555
H59 C34 1_555 1_555
C35 H60 1_555 1_555
H61 C35 1_555 1_555
H62 C35 1_555 1_555
O1 C25 1_555 1_555
Si1 C30 1_555 1_555
C12 C13 1_555 1_555
C17 C18 1_555 1_555
C23 C28 1_555 1_555
C27 C28 1_555 1_555
C34 Si1 1_555 1_555
C35 Si1 1_555 1_555
O1 Si1 1_555 1_555

#END
