
#######################################################################
#
#                 Cambridge Crystallographic Data Centre
#                                CCDC 
#
#######################################################################
#
# If this CIF has been generated from an entry in the Cambridge 
# Structural Database, then it will include bibliographic, chemical, 
# crystal, experimental, refinement or atomic coordinate data resulting 
# from the CCDC's data processing and validation procedures.
#
#######################################################################

data_VABZIK
_chemical_formula_moiety         'C30 H22 B1 F2 N3 O1'
_chemical_name_systematic        
'(2-(6-(diphenylamino)pyrimidin-4-yl)-1,2-diphenylethenolato)(difluoro)borate unknown solvate'
_symmetry_cell_setting           monoclinic
_symmetry_space_group_name_H-M   'P 21/c'
_symmetry_Int_Tables_number      14
_space_group_name_Hall           '-P 2ybc'
loop_
_symmetry_equiv_pos_site_id
_symmetry_equiv_pos_as_xyz
1 x,y,z
2 -x,1/2+y,1/2-z
3 -x,-y,-z
4 x,1/2-y,1/2+z
_cell_length_a                   5.7410(5)
_cell_length_b                   24.007(2)
_cell_length_c                   21.4981(19)
_cell_angle_alpha                90
_cell_angle_beta                 105.489(2)
_cell_angle_gamma                90
_cell_volume                     2855.35
_exptl_crystal_colour            yellow
_exptl_crystal_description       block
_cell_formula_units_Z            4
loop_
_atom_site_label
_atom_site_type_symbol
_atom_site_fract_x
_atom_site_fract_y
_atom_site_fract_z
B1 B 0.6111(15) 0.2063(3) 0.3273(3)
F1 F 0.4843(11) 0.16407(18) 0.3459(3)
F2 F 0.7976(8) 0.2187(2) 0.37640(15)
N1 N 0.8997(6) 0.10485(15) 0.12614(16)
N2 N 0.9235(7) 0.11336(16) 0.23428(19)
N3 N 0.7065(7) 0.18386(17) 0.27108(17)
O1 O 0.4600(7) 0.25243(17) 0.30962(17)
C1 C 1.2925(9) 0.0636(2) 0.1823(2)
H1 H 1.3237 0.0932 0.2113
C2 C 1.4610(9) 0.0221(2) 0.1859(2)
H2 H 1.6060 0.0235 0.2181
C3 C 1.4192(10) -0.0211(2) 0.1431(3)
H3 H 1.5357 -0.0485 0.1454
C4 C 1.2042(10) -0.0235(2) 0.0968(2)
H4 H 1.1732 -0.0530 0.0676
C5 C 1.0342(9) 0.0172(2) 0.0930(2)
H5 H 0.8878 0.0151 0.0614
C6 C 1.0778(8) 0.06074(19) 0.1352(2)
C7 C 0.7829(8) 0.12115(18) 0.0608(2)
C8 C 0.9053(9) 0.15307(19) 0.0274(2)
H6 H 1.0658 0.1626 0.0461
C9 C 0.7916(12) 0.1711(2) -0.0337(3)
H7 H 0.8748 0.1925 -0.0568
C10 C 0.5558(13) 0.1572(2) -0.0604(2)
H8 H 0.4770 0.1701 -0.1015
C11 C 0.4349(9) 0.1247(2) -0.0277(3)
H9 H 0.2747 0.1150 -0.0466
C12 C 0.5481(9) 0.10639(19) 0.0328(2)
H10 H 0.4659 0.0839 0.0550
C13 C 0.8416(8) 0.1344(2) 0.1742(2)
C14 C 0.8496(10) 0.1390(2) 0.2784(2)
H11 H 0.9019 0.1246 0.3200
C15 C 0.6352(8) 0.2073(2) 0.2109(2)
C16 C 0.7039(8) 0.18179(19) 0.1623(2)
H12 H 0.6573 0.1965 0.1208
C17 C 0.4855(8) 0.25719(19) 0.2019(2)
C18 C 0.4264(9) 0.2825(2) 0.1368(2)
C19 C 0.2022(10) 0.2758(2) 0.0946(3)
H13 H 0.0838 0.2565 0.1080
C20 C 0.1485(13) 0.2966(3) 0.0334(3)
H14 H -0.0049 0.2914 0.0058
C21 C 0.3187(18) 0.3248(3) 0.0128(3)
H15 H 0.2846 0.3383 -0.0292
C22 C 0.5474(13) 0.3333(2) 0.0560(4)
H16 H 0.6647 0.3534 0.0430
C23 C 0.5970(10) 0.3122(2) 0.1168(3)
H17 H 0.7486 0.3179 0.1452
C24 C 0.4041(8) 0.2766(2) 0.2512(2)
C25 C 0.2438(9) 0.3253(2) 0.2501(3)
C26 C 0.2579(9) 0.3726(3) 0.2151(3)
H18 H 0.3668 0.3742 0.1899
C27 C 0.1081(12) 0.4184(2) 0.2172(3)
H19 H 0.1168 0.4506 0.1939
C28 C -0.0527(11) 0.4146(3) 0.2548(4)
H20 H -0.1534 0.4445 0.2566
C29 C -0.0661(10) 0.3675(4) 0.2894(3)
H21 H -0.1759 0.3654 0.3142
C30 C 0.0809(10) 0.3240(3) 0.2873(2)
H22 H 0.0725 0.2924 0.3116
loop_
_geom_bond_atom_site_label_1
_geom_bond_atom_site_label_2
_geom_bond_site_symmetry_1
_geom_bond_site_symmetry_2
B1 F1 1_555 1_555
F2 B1 1_555 1_555
N1 C6 1_555 1_555
N2 C13 1_555 1_555
N3 B1 1_555 1_555
O1 B1 1_555 1_555
C1 H1 1_555 1_555
C2 C1 1_555 1_555
H2 C2 1_555 1_555
C3 C2 1_555 1_555
H3 C3 1_555 1_555
C4 C3 1_555 1_555
H4 C4 1_555 1_555
C5 C4 1_555 1_555
H5 C5 1_555 1_555
C6 C1 1_555 1_555
C7 N1 1_555 1_555
C8 C7 1_555 1_555
H6 C8 1_555 1_555
C9 C8 1_555 1_555
H7 C9 1_555 1_555
C10 C9 1_555 1_555
H8 C10 1_555 1_555
C11 C10 1_555 1_555
H9 C11 1_555 1_555
C12 C7 1_555 1_555
H10 C12 1_555 1_555
C13 N1 1_555 1_555
C14 N2 1_555 1_555
H11 C14 1_555 1_555
C15 N3 1_555 1_555
C16 C13 1_555 1_555
H12 C16 1_555 1_555
C17 C15 1_555 1_555
C18 C17 1_555 1_555
C19 C18 1_555 1_555
H13 C19 1_555 1_555
C20 C19 1_555 1_555
H14 C20 1_555 1_555
C21 C20 1_555 1_555
H15 C21 1_555 1_555
C22 C21 1_555 1_555
H16 C22 1_555 1_555
C23 C18 1_555 1_555
H17 C23 1_555 1_555
C24 O1 1_555 1_555
C25 C24 1_555 1_555
C26 C25 1_555 1_555
H18 C26 1_555 1_555
C27 C26 1_555 1_555
H19 C27 1_555 1_555
C28 C27 1_555 1_555
H20 C28 1_555 1_555
C29 C28 1_555 1_555
H21 C29 1_555 1_555
C30 C25 1_555 1_555
H22 C30 1_555 1_555
N3 C14 1_555 1_555
C5 C6 1_555 1_555
C11 C12 1_555 1_555
C15 C16 1_555 1_555
C17 C24 1_555 1_555
C22 C23 1_555 1_555
C29 C30 1_555 1_555

#END
