
#######################################################################
#
#                 Cambridge Crystallographic Data Centre
#                                CCDC 
#
#######################################################################
#
# If this CIF has been generated from an entry in the Cambridge 
# Structural Database, then it will include bibliographic, chemical, 
# crystal, experimental, refinement or atomic coordinate data resulting 
# from the CCDC's data processing and validation procedures.
#
#######################################################################

data_VABZEG
_chemical_formula_moiety         'C20 H18 B1 F2 N3 O1'
_chemical_name_systematic        
(2-(6-(dimethylamino)pyrimidin-4-yl)-1,2-diphenylethenolato)(difluoro)borate
_symmetry_cell_setting           monoclinic
_symmetry_space_group_name_H-M   'P 21/n'
_symmetry_Int_Tables_number      14
_space_group_name_Hall           '-P 2yn'
loop_
_symmetry_equiv_pos_site_id
_symmetry_equiv_pos_as_xyz
1 x,y,z
2 1/2-x,1/2+y,1/2-z
3 -x,-y,-z
4 1/2+x,1/2-y,1/2+z
_cell_length_a                   10.2016(7)
_cell_length_b                   17.9362(15)
_cell_length_c                   10.3169(8)
_cell_angle_alpha                90
_cell_angle_beta                 109.317(2)
_cell_angle_gamma                90
_cell_volume                     1781.49
_exptl_crystal_colour            yellow
_exptl_crystal_description       block
_cell_formula_units_Z            4
loop_
_atom_site_label
_atom_site_type_symbol
_atom_site_fract_x
_atom_site_fract_y
_atom_site_fract_z
N1 N -0.0079(2) 0.02201(11) 0.7403(2)
O1 O -0.23648(18) 0.08142(11) 0.6562(2)
C1 C 0.0409(3) 0.07174(14) 0.6651(3)
C2 C -0.1821(3) 0.13399(15) 0.5960(3)
C3 C -0.0510(3) 0.13112(14) 0.5939(3)
F1 F -0.17043(17) 0.02002(11) 0.86134(18)
F2 F -0.22128(17) -0.04599(9) 0.6689(2)
C4 C 0.2607(3) 0.00762(14) 0.7473(3)
C5 C -0.2862(3) 0.19373(15) 0.5363(3)
C6 C 0.1751(3) 0.06323(14) 0.6663(3)
H1 H 0.2095 0.0945 0.6131
N2 N 0.2112(2) -0.03780(13) 0.8266(2)
C7 C 0.0061(2) 0.18737(14) 0.5200(3)
C8 C 0.1128(3) 0.23472(14) 0.5920(3)
H2 H 0.1489 0.2316 0.6872
N3 N 0.3923(2) -0.00276(12) 0.7536(2)
C9 C 0.0810(3) -0.02898(15) 0.8165(3)
H3 H 0.0463 -0.0614 0.8675
C10 C 0.4810(3) -0.05841(17) 0.8431(3)
H4 H 0.4452 -0.0705 0.9157
H5 H 0.5734 -0.0389 0.8817
H6 H 0.4828 -0.1025 0.7910
C11 C -0.0445(3) 0.19318(16) 0.3792(3)
H7 H -0.1161 0.1619 0.3290
C12 C -0.4243(3) 0.17400(16) 0.4737(3)
H8 H -0.4492 0.1239 0.4653
C13 C 0.1658(3) 0.28633(15) 0.5239(3)
H9 H 0.2365 0.3182 0.5735
C14 C -0.5247(3) 0.22764(19) 0.4240(3)
H10 H -0.6167 0.2138 0.3811
C15 C -0.2516(3) 0.26868(16) 0.5481(3)
H11 H -0.1594 0.2828 0.5890
C16 C -0.3520(3) 0.32251(17) 0.5002(3)
H12 H -0.3277 0.3727 0.5098
B1 B -0.1626(3) 0.01899(19) 0.7315(4)
C17 C 0.4510(3) 0.04129(17) 0.6683(3)
H13 H 0.3919 0.0380 0.5742
H14 H 0.5416 0.0226 0.6767
H15 H 0.4582 0.0924 0.6975
C18 C 0.1151(3) 0.29093(17) 0.3838(3)
H16 H 0.1523 0.3253 0.3381
C19 C -0.4886(3) 0.3020(2) 0.4380(3)
H17 H -0.5565 0.3384 0.4053
C20 C 0.0098(3) 0.24491(17) 0.3111(3)
H18 H -0.0255 0.2483 0.2159
loop_
_geom_bond_atom_site_label_1
_geom_bond_atom_site_label_2
_geom_bond_site_symmetry_1
_geom_bond_site_symmetry_2
N1 C1 1_555 1_555
O1 C2 1_555 1_555
C1 C3 1_555 1_555
C2 C3 1_555 1_555
C3 C7 1_555 1_555
F1 B1 1_555 1_555
F2 B1 1_555 1_555
C4 C6 1_555 1_555
C5 C2 1_555 1_555
C6 C1 1_555 1_555
H1 C6 1_555 1_555
N2 C4 1_555 1_555
C7 C8 1_555 1_555
C8 H2 1_555 1_555
N3 C4 1_555 1_555
C9 N1 1_555 1_555
H3 C9 1_555 1_555
C10 N3 1_555 1_555
H4 C10 1_555 1_555
H5 C10 1_555 1_555
H6 C10 1_555 1_555
C11 C7 1_555 1_555
H7 C11 1_555 1_555
C12 C5 1_555 1_555
H8 C12 1_555 1_555
C13 C8 1_555 1_555
H9 C13 1_555 1_555
C14 C12 1_555 1_555
H10 C14 1_555 1_555
C15 C5 1_555 1_555
H11 C15 1_555 1_555
C16 C15 1_555 1_555
H12 C16 1_555 1_555
B1 N1 1_555 1_555
C17 N3 1_555 1_555
H13 C17 1_555 1_555
H14 C17 1_555 1_555
H15 C17 1_555 1_555
C18 C13 1_555 1_555
H16 C18 1_555 1_555
C19 C14 1_555 1_555
H17 C19 1_555 1_555
C20 C11 1_555 1_555
H18 C20 1_555 1_555
O1 B1 1_555 1_555
N2 C9 1_555 1_555
C16 C19 1_555 1_555
C18 C20 1_555 1_555

#END
