
#######################################################################
#
#                 Cambridge Crystallographic Data Centre
#                                CCDC 
#
#######################################################################
#
# If this CIF has been generated from an entry in the Cambridge 
# Structural Database, then it will include bibliographic, chemical, 
# crystal, experimental, refinement or atomic coordinate data resulting 
# from the CCDC's data processing and validation procedures.
#
#######################################################################

data_VACBAE
_chemical_name_common            Triflumizole
_chemical_formula_moiety         'C15 H15 Cl1 F3 N3 O1'
_chemical_name_systematic        
4-Chloro-N-(1-(1H-imidazol-1-yl)-2-propoxyethylidene)-2-(trifluoromethyl)aniline
_symmetry_cell_setting           monoclinic
_symmetry_space_group_name_H-M   'P 21/c'
_symmetry_Int_Tables_number      14
_space_group_name_Hall           '-P 2ybc'
loop_
_symmetry_equiv_pos_site_id
_symmetry_equiv_pos_as_xyz
1 x,y,z
2 -x,1/2+y,1/2-z
3 -x,-y,-z
4 x,1/2-y,1/2+z
_cell_length_a                   9.2815(6)
_cell_length_b                   20.5078(14)
_cell_length_c                   8.6339(6)
_cell_angle_alpha                90
_cell_angle_beta                 100.8350(10)
_cell_angle_gamma                90
_cell_volume                     1614.11
_exptl_crystal_colour            colorless
_exptl_crystal_description       block
_cell_formula_units_Z            4
_exptl_crystal_recrystallization_method dichloromethane
loop_
_atom_site_label
_atom_site_type_symbol
_atom_site_fract_x
_atom_site_fract_y
_atom_site_fract_z
Cl1 Cl 1.49537(5) 0.75199(2) 0.20992(6)
F1 F 0.88158(9) 0.70250(5) 0.32069(12)
F2 F 1.00525(12) 0.66642(5) 0.53792(12)
F3 F 1.03828(12) 0.76378(5) 0.46407(13)
N1 N 1.01160(11) 0.57214(5) 0.27790(12)
N2 N 0.80266(11) 0.51277(5) 0.19825(12)
N3 N 0.60502(12) 0.44946(6) 0.16697(13)
O1 O 0.81606(10) 0.56645(4) -0.10396(10)
C1 C 1.01505(16) 0.70258(7) 0.41218(17)
C2 C 1.13094(14) 0.67960(6) 0.32611(15)
C3 C 1.24709(15) 0.72066(6) 0.31239(16)
H1 H 1.2553 0.7622 0.3617
C4 C 1.34990(15) 0.70066(7) 0.22698(17)
C5 C 1.33924(15) 0.64078(7) 0.15219(17)
H2 H 1.4096 0.6280 0.0911
C6 C 1.22451(14) 0.59969(6) 0.16759(15)
H3 H 1.2175 0.5582 0.1179
C7 C 1.11926(13) 0.61799(6) 0.25445(14)
C8 C 0.89657(13) 0.56432(6) 0.17534(14)
C9 C 0.66245(13) 0.50171(6) 0.11769(15)
H4 H 0.6131 0.5290 0.0356
C10 C 0.71276(16) 0.42502(7) 0.28583(17)
H5 H 0.7026 0.3867 0.3446
C11 C 0.83378(15) 0.46272(7) 0.30736(16)
H6 H 0.9220 0.4563 0.3818
C12 C 0.84433(15) 0.60608(6) 0.03188(15)
H7 H 0.7538 0.6295 0.0439
H8 H 0.9202 0.6389 0.0211
C13 C 0.74287(15) 0.60238(7) -0.23828(15)
H9 H 0.8080 0.6373 -0.2643
H10 H 0.6532 0.6230 -0.2142
C14 C 0.70299(16) 0.55717(7) -0.37587(16)
H11 H 0.6424 0.5211 -0.3469
H12 H 0.7936 0.5381 -0.4018
C15 C 0.61863(18) 0.59207(9) -0.51998(17)
H13 H 0.5288 0.6109 -0.4948
H14 H 0.5931 0.5609 -0.6069
H15 H 0.6796 0.6269 -0.5512
loop_
_geom_bond_atom_site_label_1
_geom_bond_atom_site_label_2
_geom_bond_site_symmetry_1
_geom_bond_site_symmetry_2
Cl1 C4 1_555 1_555
F1 C1 1_555 1_555
F2 C1 1_555 1_555
F3 C1 1_555 1_555
N1 C7 1_555 1_555
N2 C8 1_555 1_555
N3 C9 1_555 1_555
O1 C12 1_555 1_555
C1 C2 1_555 1_555
C2 C3 1_555 1_555
C3 H1 1_555 1_555
C4 C3 1_555 1_555
C5 C4 1_555 1_555
H2 C5 1_555 1_555
C6 C5 1_555 1_555
H3 C6 1_555 1_555
C7 C2 1_555 1_555
C8 N1 1_555 1_555
C9 N2 1_555 1_555
H4 C9 1_555 1_555
C10 N3 1_555 1_555
H5 C10 1_555 1_555
C11 N2 1_555 1_555
H6 C11 1_555 1_555
C12 C8 1_555 1_555
H7 C12 1_555 1_555
H8 C12 1_555 1_555
C13 O1 1_555 1_555
H9 C13 1_555 1_555
H10 C13 1_555 1_555
C14 C13 1_555 1_555
H11 C14 1_555 1_555
H12 C14 1_555 1_555
C15 C14 1_555 1_555
H13 C15 1_555 1_555
H14 C15 1_555 1_555
H15 C15 1_555 1_555
C6 C7 1_555 1_555
C10 C11 1_555 1_555

#END
