
#######################################################################
#
#                 Cambridge Crystallographic Data Centre
#                                CCDC 
#
#######################################################################
#
# If this CIF has been generated from an entry in the Cambridge 
# Structural Database, then it will include bibliographic, chemical, 
# crystal, experimental, refinement or atomic coordinate data resulting 
# from the CCDC's data processing and validation procedures.
#
#######################################################################

data_VACFIQ
_chemical_formula_moiety         'C21 H17 N1 O4'
_chemical_name_systematic        "Dimethyl 4,4'-pyridine-2,6-diyldibenzoate"
_symmetry_cell_setting           orthorhombic
_symmetry_space_group_name_H-M   'C m c 21'
_symmetry_Int_Tables_number      36
_space_group_name_Hall           'C 2n -2'
loop_
_symmetry_equiv_pos_site_id
_symmetry_equiv_pos_as_xyz
1 x,y,z
2 -x,-y,1/2+z
3 -x,y,z
4 x,-y,1/2+z
5 1/2+x,1/2+y,z
6 1/2-x,1/2-y,1/2+z
7 1/2-x,1/2+y,z
8 1/2+x,1/2-y,1/2+z
_cell_length_a                   34.296(10)
_cell_length_b                   7.401(2)
_cell_length_c                   6.623(2)
_cell_angle_alpha                90
_cell_angle_beta                 90
_cell_angle_gamma                90
_cell_volume                     1681.08
_exptl_crystal_colour            colorless
_exptl_crystal_description       block
_cell_formula_units_Z            4
loop_
_atom_site_label
_atom_site_type_symbol
_atom_site_fract_x
_atom_site_fract_y
_atom_site_fract_z
O1 O 0.20583(3) 0.17226(19) 0.8336(2)
N1 N 0.0000 0.24751(18) 0.5426(2)
C1 C 0.17708(3) 0.24851(18) 0.8930(2)
O2 O 0.17487(3) 0.32976(15) 1.0717(2)
C2 C 0.13992(3) 0.25470(16) 0.77804(19)
C3 C 0.13855(4) 0.16771(18) 0.5923(2)
H1 H 0.1609 0.1139 0.5408
C4 C 0.10431(4) 0.16036(18) 0.4834(2)
H2 H 0.1038 0.1010 0.3597
C5 C 0.07037(3) 0.24139(14) 0.55745(17)
C6 C 0.07197(3) 0.33053(14) 0.74267(19)
H3 H 0.0496 0.3854 0.7936
C7 C 0.10641(3) 0.33846(14) 0.8520(2)
H4 H 0.1072 0.3996 0.9746
C8 C 0.03362(3) 0.23143(15) 0.44012(18)
C9 C 0.03455(4) 0.20276(19) 0.2306(2)
H5 H 0.0583 0.1927 0.1634
C10 C 0.0000 0.1898(3) 0.1258(3)
H6 H 0.0000 0.1725 -0.0133
C11 C 0.21015(5) 0.3231(3) 1.1922(3)
H7 H 0.2192 0.2006 1.2007
H8 H 0.2048 0.3677 1.3254
H9 H 0.2299 0.3967 1.1303
O1B O -0.20583(3) 0.17226(19) 0.8336(2)
C1B C -0.17708(3) 0.24851(18) 0.8930(2)
O2B O -0.17487(3) 0.32976(15) 1.0717(2)
C2B C -0.13992(3) 0.25470(16) 0.77804(19)
C3B C -0.13855(4) 0.16771(18) 0.5923(2)
H1B H -0.1609 0.1139 0.5408
C4B C -0.10431(4) 0.16036(18) 0.4834(2)
H2B H -0.1038 0.1010 0.3597
C5B C -0.07037(3) 0.24139(14) 0.55745(17)
C6B C -0.07197(3) 0.33053(14) 0.74267(19)
H3B H -0.0496 0.3854 0.7936
C7B C -0.10641(3) 0.33846(14) 0.8520(2)
H4B H -0.1072 0.3996 0.9746
C8B C -0.03362(3) 0.23143(15) 0.44012(18)
C9B C -0.03455(4) 0.20276(19) 0.2306(2)
H5B H -0.0583 0.1927 0.1634
C11B C -0.21015(5) 0.3231(3) 1.1922(3)
H7B H -0.2192 0.2006 1.2007
H8B H -0.2048 0.3677 1.3254
H9B H -0.2299 0.3967 1.1303
loop_
_geom_bond_atom_site_label_1
_geom_bond_atom_site_label_2
_geom_bond_site_symmetry_1
_geom_bond_site_symmetry_2
O1 C1 1_555 1_555
N1 C8 1_555 1_555
C1 O2 1_555 1_555
O2 C11 1_555 1_555
C2 C1 1_555 1_555
C3 C2 1_555 1_555
H1 C3 1_555 1_555
C4 C3 1_555 1_555
H2 C4 1_555 1_555
C5 C4 1_555 1_555
C6 C5 1_555 1_555
H3 C6 1_555 1_555
C7 C2 1_555 1_555
H4 C7 1_555 1_555
C8 C5 1_555 1_555
C9 C8 1_555 1_555
H5 C9 1_555 1_555
C10 C9 1_555 1_555
H6 C10 1_555 1_555
C11 H7 1_555 1_555
H8 C11 1_555 1_555
H9 C11 1_555 1_555
O1B C1B 1_555 1_555
C1B O2B 1_555 1_555
O2B C11B 1_555 1_555
C2B C1B 1_555 1_555
C3B C2B 1_555 1_555
H1B C3B 1_555 1_555
C4B C3B 1_555 1_555
H2B C4B 1_555 1_555
C5B C4B 1_555 1_555
C6B C5B 1_555 1_555
H3B C6B 1_555 1_555
C7B C2B 1_555 1_555
H4B C7B 1_555 1_555
C8B N1 1_555 1_555
C9B C10 1_555 1_555
H5B C9B 1_555 1_555
C11B H7B 1_555 1_555
H8B C11B 1_555 1_555
H9B C11B 1_555 1_555
C6 C7 1_555 1_555
C5B C8B 1_555 1_555
C6B C7B 1_555 1_555
C8B C9B 1_555 1_555

#END
