
#######################################################################
#
#                 Cambridge Crystallographic Data Centre
#                                CCDC 
#
#######################################################################
#
# If this CIF has been generated from an entry in the Cambridge 
# Structural Database, then it will include bibliographic, chemical, 
# crystal, experimental, refinement or atomic coordinate data resulting 
# from the CCDC's data processing and validation procedures.
#
#######################################################################

data_VACJUG
_chemical_name_common            
'Ethyl 4-(2-furyl)-6-methyl-2-oxo-1,2,3,4-tetrahydropyrimidine-5-carboxylate'
_chemical_formula_moiety         'C12 H14 N2 O4'
_chemical_name_systematic        
'Ethyl 4-(furan-2-yl)-6-methyl-2-oxo-1,2,3,4-tetrahydropyrimidine-5-carboxylate'
_symmetry_cell_setting           monoclinic
_symmetry_space_group_name_H-M   'P 21/c'
_symmetry_Int_Tables_number      14
_space_group_name_Hall           '-P 2ybc'
loop_
_symmetry_equiv_pos_site_id
_symmetry_equiv_pos_as_xyz
1 x,y,z
2 -x,1/2+y,1/2-z
3 -x,-y,-z
4 x,1/2-y,1/2+z
_cell_length_a                   12.1720(14)
_cell_length_b                   13.3180(15)
_cell_length_c                   17.116(2)
_cell_angle_alpha                90
_cell_angle_beta                 118.300(2)
_cell_angle_gamma                90
_cell_volume                     2442.99
_exptl_crystal_colour            yellow
_exptl_crystal_description       block
_cell_formula_units_Z            8
_exptl_crystal_recrystallization_method methanol
loop_
_atom_site_label
_atom_site_type_symbol
_atom_site_fract_x
_atom_site_fract_y
_atom_site_fract_z
N1 N 0.0677(3) 0.8975(2) 0.4632(2)
H1 H 0.0351 0.9555 0.4437
N2 N 0.0574(3) 0.7467(2) 0.5219(2)
H2 H 0.0468 0.7135 0.5609
O1 O -0.0199(2) 0.88634(18) 0.55364(19)
O2 O 0.3239(6) 0.8613(5) 0.5879(5)
O3 O 0.2203(2) 0.7669(2) 0.32562(17)
O4 O 0.1728(3) 0.6108(2) 0.3447(2)
C1 C 0.0329(3) 0.8474(3) 0.5145(3)
C2 C 0.1585(3) 0.8589(3) 0.4384(3)
H3 H 0.1438 0.8907 0.3826
C3 C 0.2873(4) 0.8830(3) 0.5074(3)
C4 C 0.3859(8) 0.9166(7) 0.4951(7)
H4 H 0.3852 0.9349 0.4424
C5 C 0.4870(15) 0.9164(9) 0.5815(12)
H5 H 0.5680 0.9359 0.5966
C6 C 0.448(2) 0.8828(11) 0.6403(17)
H6 H 0.4943 0.8764 0.7016
C7 C 0.1783(3) 0.6992(3) 0.3629(2)
C8 C 0.1410(3) 0.7470(2) 0.4236(2)
C9 C 0.0980(3) 0.6952(3) 0.4705(2)
C10 C 0.0877(4) 0.5845(3) 0.4755(3)
H7 H 0.0024 0.5646 0.4395
H8 H 0.1149 0.5652 0.5359
H9 H 0.1390 0.5523 0.4542
C11 C 0.2614(4) 0.7310(3) 0.2650(3)
H10 H 0.1938 0.6969 0.2155
H11 H 0.3299 0.6842 0.2946
C12 C 0.3030(4) 0.8203(4) 0.2328(3)
H12 H 0.2344 0.8660 0.2037
H13 H 0.3312 0.7988 0.1918
H14 H 0.3700 0.8533 0.2823
N3 N 0.8736(3) 0.6124(2) 0.7072(2)
H15 H 0.8988 0.5511 0.7182
N4 N 0.8981(3) 0.7698(2) 0.6635(2)
H16 H 0.9196 0.8075 0.6321
O5 O 0.9657(3) 0.63333(18) 0.6200(2)
O6 O 0.6054(4) 0.6411(3) 0.5976(3)
O7 O 0.7327(3) 0.7358(2) 0.85737(19)
O8 O 0.7471(3) 0.8936(2) 0.8223(2)
C13 C 0.9139(3) 0.6678(3) 0.6603(3)
C14 C 0.7910(3) 0.6476(3) 0.7409(3)
H17 H 0.8183 0.6161 0.7989
C15 C 0.6605(4) 0.6159(3) 0.6829(3)
C16 C 0.5810(5) 0.5651(4) 0.7005(4)
H18 H 0.5969 0.5387 0.7552
C17 C 0.4691(6) 0.5587(5) 0.6215(6)
H19 H 0.3961 0.5281 0.6141
C18 C 0.4851(6) 0.6031(6) 0.5604(6)
H20 H 0.4254 0.6087 0.5011
C19 C 0.7596(4) 0.8057(3) 0.8129(3)
C20 C 0.8035(3) 0.7603(3) 0.7555(2)
C21 C 0.8509(3) 0.8162(3) 0.7128(2)
C22 C 0.8605(4) 0.9280(3) 0.7135(3)
H21 H 0.7799 0.9562 0.6756
H22 H 0.9178 0.9474 0.6924
H23 H 0.8901 0.9524 0.7729
C23 C 0.6852(5) 0.7708(4) 0.9158(3)
H24 H 0.6148 0.8154 0.8839
H25 H 0.7496 0.8074 0.9654
C24 C 0.6464(5) 0.6833(5) 0.9477(4)
H26 H 0.5780 0.6508 0.8987
H27 H 0.6206 0.7041 0.9903
H28 H 0.7150 0.6373 0.9753
C25? C 0.3192(18) 0.9228(13) 0.5941(13)
C26? C 0.459(4) 0.924(2) 0.636(3)
C27? C 0.492(3) 0.8685(16) 0.598(2)
H29? H 0.2672 0.9425 0.6173
H30? H 0.5116 0.9619 0.6855
H31? H 0.5725 0.8445 0.6184
O9? O 0.3875(9) 0.8450(8) 0.5162(7)
loop_
_geom_bond_atom_site_label_1
_geom_bond_atom_site_label_2
_geom_bond_site_symmetry_1
_geom_bond_site_symmetry_2
N1 H1 1_555 1_555
N2 H2 1_555 1_555
O1 C1 1_555 1_555
O2 C3 1_555 1_555
O3 C7 1_555 1_555
O4 C7 1_555 1_555
C1 N1 1_555 1_555
C2 N1 1_555 1_555
H3 C2 1_555 1_555
C3 C2 1_555 1_555
C4 C3 1_555 1_555
H4 C4 1_555 1_555
C5 C4 1_555 1_555
H5 C5 1_555 1_555
C6 O2 1_555 1_555
H6 C6 1_555 1_555
C7 C8 1_555 1_555
C8 C2 1_555 1_555
C9 N2 1_555 1_555
C10 C9 1_555 1_555
H7 C10 1_555 1_555
H8 C10 1_555 1_555
H9 C10 1_555 1_555
C11 O3 1_555 1_555
H10 C11 1_555 1_555
H11 C11 1_555 1_555
C12 C11 1_555 1_555
H12 C12 1_555 1_555
H13 C12 1_555 1_555
H14 C12 1_555 1_555
N3 H15 1_555 1_555
N4 H16 1_555 1_555
O5 C13 1_555 1_555
O6 C15 1_555 1_555
O7 C19 1_555 1_555
O8 C19 1_555 1_555
C13 N3 1_555 1_555
C14 N3 1_555 1_555
H17 C14 1_555 1_555
C15 C14 1_555 1_555
C16 C15 1_555 1_555
H18 C16 1_555 1_555
C17 C16 1_555 1_555
H19 C17 1_555 1_555
C18 O6 1_555 1_555
H20 C18 1_555 1_555
C19 C20 1_555 1_555
C20 C14 1_555 1_555
C21 N4 1_555 1_555
C22 C21 1_555 1_555
H21 C22 1_555 1_555
H22 C22 1_555 1_555
H23 C22 1_555 1_555
C23 O7 1_555 1_555
H24 C23 1_555 1_555
H25 C23 1_555 1_555
C24 C23 1_555 1_555
H26 C24 1_555 1_555
H27 C24 1_555 1_555
H28 C24 1_555 1_555
N2 C1 1_555 1_555
C5 C6 1_555 1_555
C8 C9 1_555 1_555
N4 C13 1_555 1_555
C17 C18 1_555 1_555
C20 C21 1_555 1_555

#END
