
#######################################################################
#
#                 Cambridge Crystallographic Data Centre
#                                CCDC 
#
#######################################################################
#
# If this CIF has been generated from an entry in the Cambridge 
# Structural Database, then it will include bibliographic, chemical, 
# crystal, experimental, refinement or atomic coordinate data resulting 
# from the CCDC's data processing and validation procedures.
#
#######################################################################

data_VACJUH
_chemical_formula_moiety         'C38 H12 F10 N4'
_chemical_name_systematic        
8,16-bis(pentafluorophenyl)-2a,3,10a,11-tetraazadicyclopenta[ef,kl]diindeno[2,1-b:2',1'-h]heptalene
_symmetry_cell_setting           triclinic
_symmetry_space_group_name_H-M   'P -1'
_symmetry_Int_Tables_number      2
_space_group_name_Hall           '-P 1'
loop_
_symmetry_equiv_pos_site_id
_symmetry_equiv_pos_as_xyz
1 x,y,z
2 -x,-y,-z
_cell_length_a                   6.799(3)
_cell_length_b                   8.219(3)
_cell_length_c                   13.376(4)
_cell_angle_alpha                82.308(9)
_cell_angle_beta                 75.542(7)
_cell_angle_gamma                83.754(10)
_cell_volume                     715.063
_exptl_crystal_colour            red
_exptl_crystal_description       Plate
_cell_formula_units_Z            1
_exptl_crystal_recrystallization_method 'Vapour Deposition'
loop_
_atom_site_label
_atom_site_type_symbol
_atom_site_fract_x
_atom_site_fract_y
_atom_site_fract_z
F1 F -0.0906(6) 0.5925(4) 0.7727(3)
F2 F 0.4982(6) 0.8231(5) 0.7973(3)
F3 F -0.2677(6) 0.6402(5) 0.9728(3)
N1 N 0.5549(6) 0.2970(5) 0.5776(3)
N2 N 0.6876(6) 0.0269(5) 0.5644(3)
F4 F -0.0672(8) 0.7856(5) 1.0836(3)
F5 F 0.3208(8) 0.8757(6) 0.9956(3)
C1 C 0.6523(7) 0.1710(6) 0.5162(4)
C2 C 0.4894(7) 0.4620(5) 0.5513(4)
C3 C 0.3026(8) 0.6840(6) 0.6669(4)
C4 C 0.4042(8) 0.5264(6) 0.6483(4)
C5 C 0.4230(8) 0.3983(6) 0.7286(4)
H1 H 0.3803 0.4072 0.7995
C6 C 0.8618(8) -0.2343(6) 0.5005(4)
H2 H 0.8386 -0.2923 0.5664
C7 C 0.5130(8) 0.2615(6) 0.6852(4)
H3 H 0.5421 0.1605 0.7212
C8 C 0.7941(8) -0.0698(6) 0.4858(4)
C9 C 0.9989(9) -0.2235(6) 0.3157(5)
H4 H 1.0685 -0.2769 0.2586
C10 C 0.2753(8) 0.8138(6) 0.5966(4)
C11 C 0.9654(8) -0.3094(6) 0.4135(4)
H5 H 1.0130 -0.4197 0.4212
C12 C 0.8242(8) 0.0186(6) 0.3866(4)
C13 C 0.2092(9) 0.7063(6) 0.7796(4)
C14 C 0.0147(9) 0.6605(6) 0.8272(4)
C15 C 0.9305(9) -0.0581(6) 0.3009(4)
H6 H 0.9558 -0.0005 0.2349
C16 C 0.3107(10) 0.7760(7) 0.8387(5)
C17 C -0.0777(11) 0.6860(7) 0.9286(5)
C18 C 0.0261(12) 0.7570(8) 0.9840(4)
C19 C 0.2199(11) 0.8048(8) 0.9401(5)
F1A F 1.0906(6) 0.4075(4) 0.2273(3)
F2A F 0.5018(6) 0.1769(5) 0.2027(3)
F3A F 1.2677(6) 0.3598(5) 0.0272(3)
N1A N 0.4451(6) 0.7030(5) 0.4224(3)
N2A N 0.3124(6) 0.9731(5) 0.4356(3)
F4A F 1.0672(8) 0.2144(5) -0.0836(3)
F5A F 0.6792(8) 0.1243(6) 0.0044(3)
C1A C 0.3477(7) 0.8290(6) 0.4838(4)
C2A C 0.5106(7) 0.5380(5) 0.4487(4)
C3A C 0.6974(8) 0.3160(6) 0.3331(4)
C4A C 0.5958(8) 0.4736(6) 0.3517(4)
C5A C 0.5770(8) 0.6017(6) 0.2714(4)
H1A H 0.6197 0.5928 0.2005
C6A C 0.1382(8) 1.2343(6) 0.4995(4)
H2A H 0.1614 1.2923 0.4336
C7A C 0.4870(8) 0.7385(6) 0.3148(4)
H3A H 0.4579 0.8395 0.2788
C8A C 0.2059(8) 1.0698(6) 0.5142(4)
C9A C 0.0011(9) 1.2235(6) 0.6843(5)
H4A H -0.0685 1.2769 0.7414
C10A C 0.7247(8) 0.1862(6) 0.4034(4)
C11A C 0.0346(8) 1.3094(6) 0.5865(4)
H5A H -0.0130 1.4197 0.5788
C12A C 0.1758(8) 0.9814(6) 0.6134(4)
C13A C 0.7908(9) 0.2937(6) 0.2204(4)
C14A C 0.9853(9) 0.3395(6) 0.1728(4)
C15A C 0.0695(9) 1.0581(6) 0.6991(4)
H6A H 0.0442 1.0005 0.7651
C16A C 0.6893(10) 0.2240(7) 0.1613(5)
C17A C 1.0777(11) 0.3140(7) 0.0714(5)
C18A C 0.9739(12) 0.2430(8) 0.0160(4)
C19A C 0.7801(11) 0.1952(8) 0.0599(5)
loop_
_geom_bond_atom_site_label_1
_geom_bond_atom_site_label_2
_geom_bond_site_symmetry_1
_geom_bond_site_symmetry_2
F1 C14 1_555 1_555
F2 C16 1_555 1_555
F3 C17 1_555 1_555
N1 C1 1_555 1_555
N2 C1 1_555 1_555
F4 C18 1_555 1_555
F5 C19 1_555 1_555
C1 C10A 1_555 1_555
C2 N1 1_555 1_555
C3 C4 1_555 1_555
C4 C2 1_555 1_555
C5 C4 1_555 1_555
H1 C5 1_555 1_555
C6 H2 1_555 1_555
C7 N1 1_555 1_555
H3 C7 1_555 1_555
C8 N2 1_555 1_555
C9 H4 1_555 1_555
C10 C3 1_555 1_555
C11 C6 1_555 1_555
H5 C11 1_555 1_555
C12 C8 1_555 1_555
C13 C3 1_555 1_555
C14 C13 1_555 1_555
C15 C9 1_555 1_555
H6 C15 1_555 1_555
C16 C13 1_555 1_555
C17 C14 1_555 1_555
C18 C17 1_555 1_555
C19 C16 1_555 1_555
F1A C14A 1_555 1_555
F2A C16A 1_555 1_555
F3A C17A 1_555 1_555
N1A C1A 1_555 1_555
N2A C1A 1_555 1_555
F4A C18A 1_555 1_555
F5A C19A 1_555 1_555
C1A C10 1_555 1_555
C2A C2 1_555 1_555
C3A C4A 1_555 1_555
C4A C2A 1_555 1_555
C5A C4A 1_555 1_555
H1A C5A 1_555 1_555
C6A H2A 1_555 1_555
C7A N1A 1_555 1_555
H3A C7A 1_555 1_555
C8A N2A 1_555 1_555
C9A H4A 1_555 1_555
C10A C12 1_555 1_555
C11A C6A 1_555 1_555
H5A C11A 1_555 1_555
C12A C10 1_555 1_555
C13A C3A 1_555 1_555
C14A C13A 1_555 1_555
C15A C9A 1_555 1_555
H6A C15A 1_555 1_555
C16A C13A 1_555 1_555
C17A C14A 1_555 1_555
C18A C17A 1_555 1_555
C19A C16A 1_555 1_555
C5 C7 1_555 1_555
C6 C8 1_555 1_555
C9 C11 1_555 1_555
C12 C15 1_555 1_555
C18 C19 1_555 1_555
N1A C2A 1_555 1_555
C3A C10A 1_555 1_555
C5A C7A 1_555 1_555
C6A C8A 1_555 1_555
C8A C12A 1_555 1_555
C9A C11A 1_555 1_555
C12A C15A 1_555 1_555
C18A C19A 1_555 1_555

#END
