
#######################################################################
#
#                 Cambridge Crystallographic Data Centre
#                                CCDC 
#
#######################################################################
#
# If this CIF has been generated from an entry in the Cambridge 
# Structural Database, then it will include bibliographic, chemical, 
# crystal, experimental, refinement or atomic coordinate data resulting 
# from the CCDC's data processing and validation procedures.
#
#######################################################################

data_VACKIW
_chemical_formula_moiety         'C57 H36 N6 O3,H2 O1'
_chemical_name_systematic        
'6,19,32-triphenyl-1,14,27,41,43,45-hexaazadecacyclo[31.6.1.1^2,5^.1^7,14^.1^15,18^.1^20,27^.1^28,31^.0^8,13^.0^21,26^.0^34,39^]pentatetraconta-2,4,6,8,10,12,15,17,19,21,23,25,28,30,32,34,36,38-octadecaene-40,42,44-trione monohydrate'
_symmetry_cell_setting           triclinic
_symmetry_space_group_name_H-M   'P -1'
_symmetry_Int_Tables_number      2
_space_group_name_Hall           '-P 1'
loop_
_symmetry_equiv_pos_site_id
_symmetry_equiv_pos_as_xyz
1 x,y,z
2 -x,-y,-z
_cell_length_a                   12.261(6)
_cell_length_b                   13.380(6)
_cell_length_c                   14.218(6)
_cell_angle_alpha                77.740(9)
_cell_angle_beta                 81.518(10)
_cell_angle_gamma                89.721(12)
_cell_volume                     2253.52
_exptl_crystal_colour            brown
_exptl_crystal_description       Rectangular
_cell_formula_units_Z            2
loop_
_atom_site_label
_atom_site_type_symbol
_atom_site_fract_x
_atom_site_fract_y
_atom_site_fract_z
O1 O 0.4916(8) 0.870(2) 0.2054(11)
O2 O 1.0144(3) 0.6472(3) 0.0302(2)
O3 O 0.9053(3) 0.7142(3) 0.2239(2)
O4 O 0.9167(3) 0.8780(3) 0.0288(2)
N1 N 0.7876(3) 0.8867(3) 0.2018(2)
H1 H 0.8109 0.8372 0.1749
N2 N 0.8157(3) 1.0176(3) 0.0538(2)
N3 N 1.1222(3) 0.6608(3) -0.1178(2)
N4 N 1.0211(3) 0.8175(3) -0.1296(2)
H2 H 1.0208 0.8224 -0.0702
N5 N 0.8910(4) 0.5646(3) 0.3408(3)
N6 N 1.0204(3) 0.5337(3) 0.2051(3)
H3 H 0.9887 0.5717 0.1608
C1 C 0.7314(6) 0.3938(5) 0.5572(4)
H4 H 0.7280 0.3279 0.5954
C2 C 0.8146(5) 0.4217(4) 0.4789(4)
H5 H 0.8663 0.3746 0.4630
C3 C 0.8196(4) 0.5201(4) 0.4252(3)
C4 C 0.7426(4) 0.5929(4) 0.4469(3)
C5 C 0.7680(4) 0.6878(4) 0.3726(3)
C6 C 0.7283(4) 0.7839(4) 0.3736(3)
C7 C 0.7462(4) 0.8769(4) 0.2994(3)
C8 C 0.7858(4) 0.9873(4) 0.1546(3)
C9 C 0.8782(4) 0.9605(4) -0.0056(3)
C10 C 0.8830(4) 1.0152(4) -0.1074(3)
C11 C 0.9199(4) 0.9783(3) -0.1896(3)
C12 C 0.8953(4) 1.0366(4) -0.2861(3)
C13 C 0.9729(5) 1.1007(5) -0.3499(4)
H6 H 1.0417 1.1111 -0.3329
C14 C 0.9472(6) 1.1509(5) -0.4422(4)
H7 H 0.9994 1.1945 -0.4858
C15 C 0.8472(7) 1.1357(5) -0.4669(4)
H8 H 0.8316 1.1674 -0.5281
C16 C 1.4232(5) 0.2480(5) 0.1093(4)
H9 H 1.4771 0.1988 0.1110
C17 C 1.4479(5) 0.3442(5) 0.1185(4)
H10 H 1.5192 0.3606 0.1261
C18 C 1.3677(4) 0.4182(4) 0.1165(4)
H11 H 1.3852 0.4835 0.1236
C19 C 1.2628(4) 0.3945(4) 0.1040(3)
C20 C 1.1755(4) 0.4737(3) 0.0962(3)
C21 C 1.1657(4) 0.5301(3) 0.0032(3)
C22 C 1.0918(4) 0.6156(4) -0.0205(3)
C23 C 1.2104(4) 0.6085(4) -0.1604(3)
C24 C 1.2677(5) 0.6318(4) -0.2538(4)
H12 H 1.2525 0.6902 -0.2980
C25 C 1.3481(5) 0.5663(5) -0.2797(4)
H13 H 1.3859 0.5784 -0.3430
C26 C 1.3725(5) 0.4825(5) -0.2117(4)
H14 H 1.4264 0.4385 -0.2303
C27 C 1.3198(5) 0.4622(4) -0.1174(4)
H15 H 1.3394 0.4062 -0.0726
C28 C 1.2362(4) 0.5262(4) -0.0888(3)
C29 C 1.0664(4) 0.7410(4) -0.1701(3)
C30 C 1.0507(4) 0.7587(4) -0.2661(3)
H16 H 1.0731 0.7176 -0.3102
C31 C 0.9957(5) 0.8488(4) -0.2840(3)
H17 H 0.9752 0.8797 -0.3436
C32 C 0.9754(4) 0.8869(4) -0.1996(3)
C33 C 0.8260(4) 1.1117(3) -0.1019(3)
C34 C 0.7851(4) 1.1103(3) -0.0056(3)
C35 C 0.7195(5) 0.9746(4) 0.3115(3)
H18 H 0.6895 0.9917 0.3699
C36 C 0.7448(5) 1.0428(4) 0.2225(4)
H19 H 0.7357 1.1132 0.2108
C37 C 0.6588(5) 0.7996(4) 0.4655(4)
C38 C 0.7055(6) 0.7949(5) 0.5474(4)
H20 H 0.7807 0.7835 0.5453
C39 C 0.6436(7) 0.8068(6) 0.6338(5)
H21 H 0.6763 0.8024 0.6895
C40 C 0.5333(8) 0.8253(6) 0.6358(5)
H22 H 0.4917 0.8355 0.6931
C41 C 0.4831(7) 0.8290(7) 0.5558(5)
H23 H 0.4078 0.8390 0.5581
C42 C 0.5490(6) 0.8173(7) 0.4700(4)
H24 H 0.5167 0.8217 0.4142
C43 C 0.6534(6) 0.4631(5) 0.5787(4)
H25 H 0.5963 0.4431 0.6301
C44 C 0.6593(5) 0.5626(5) 0.5242(4)
H26 H 0.6069 0.6091 0.5400
C45 C 0.9860(4) 0.5186(4) 0.3018(3)
C46 C 1.1136(4) 0.4790(4) 0.1884(3)
C47 C 1.1361(4) 0.4273(4) 0.2792(3)
H27 H 1.1932 0.3825 0.2905
C48 C 1.0578(5) 0.4547(4) 0.3495(3)
H28 H 1.0546 0.4337 0.4166
C49 C 0.8599(4) 0.6636(4) 0.3004(3)
C50 C 0.7200(4) 1.1881(4) 0.0227(4)
H29 H 0.6906 1.1845 0.0875
C51 C 0.7011(5) 1.2704(4) -0.0496(4)
H30 H 0.6567 1.3225 -0.0332
C52 C 0.7466(5) 1.2773(4) -0.1458(4)
H31 H 0.7348 1.3348 -0.1925
C53 C 0.8101(5) 1.1988(4) -0.1735(4)
H32 H 0.8413 1.2037 -0.2381
C54 C 0.7931(5) 1.0246(5) -0.3118(4)
H33 H 0.7395 0.9830 -0.2679
C55 C 0.7688(6) 1.0739(6) -0.4027(5)
H34 H 0.6996 1.0648 -0.4195
C56 C 1.2395(5) 0.2971(4) 0.0943(4)
H35 H 1.1687 0.2806 0.0852
C57 C 1.3177(5) 0.2241(4) 0.0976(4)
H36 H 1.2998 0.1584 0.0919
loop_
_geom_bond_atom_site_label_1
_geom_bond_atom_site_label_2
_geom_bond_site_symmetry_1
_geom_bond_site_symmetry_2
O2 C22 1_555 1_555
O3 C49 1_555 1_555
O4 C9 1_555 1_555
N1 H1 1_555 1_555
N2 C8 1_555 1_555
N3 C22 1_555 1_555
N4 H2 1_555 1_555
N5 C3 1_555 1_555
N6 H3 1_555 1_555
C1 H4 1_555 1_555
C2 C1 1_555 1_555
H5 C2 1_555 1_555
C3 C2 1_555 1_555
C4 C3 1_555 1_555
C5 C4 1_555 1_555
C6 C5 1_555 1_555
C7 N1 1_555 1_555
C8 N1 1_555 1_555
C9 N2 1_555 1_555
C10 C9 1_555 1_555
C11 C10 1_555 1_555
C12 C11 1_555 1_555
C13 C12 1_555 1_555
H6 C13 1_555 1_555
C14 C13 1_555 1_555
H7 C14 1_555 1_555
C15 C14 1_555 1_555
H8 C15 1_555 1_555
C16 H9 1_555 1_555
C17 C16 1_555 1_555
H10 C17 1_555 1_555
C18 C17 1_555 1_555
H11 C18 1_555 1_555
C19 C18 1_555 1_555
C20 C19 1_555 1_555
C21 C20 1_555 1_555
C22 C21 1_555 1_555
C23 N3 1_555 1_555
C24 C23 1_555 1_555
H12 C24 1_555 1_555
C25 C24 1_555 1_555
H13 C25 1_555 1_555
C26 C25 1_555 1_555
H14 C26 1_555 1_555
C27 C26 1_555 1_555
H15 C27 1_555 1_555
C28 C21 1_555 1_555
C29 N3 1_555 1_555
C30 C29 1_555 1_555
H16 C30 1_555 1_555
C31 C30 1_555 1_555
H17 C31 1_555 1_555
C32 N4 1_555 1_555
C33 C10 1_555 1_555
C34 N2 1_555 1_555
C35 C7 1_555 1_555
H18 C35 1_555 1_555
C36 C8 1_555 1_555
H19 C36 1_555 1_555
C37 C6 1_555 1_555
C38 C37 1_555 1_555
H20 C38 1_555 1_555
C39 C38 1_555 1_555
H21 C39 1_555 1_555
C40 C39 1_555 1_555
H22 C40 1_555 1_555
C41 C40 1_555 1_555
H23 C41 1_555 1_555
C42 C37 1_555 1_555
H24 C42 1_555 1_555
C43 C1 1_555 1_555
H25 C43 1_555 1_555
C44 C4 1_555 1_555
H26 C44 1_555 1_555
C45 N5 1_555 1_555
C46 N6 1_555 1_555
C47 C46 1_555 1_555
H27 C47 1_555 1_555
C48 C45 1_555 1_555
H28 C48 1_555 1_555
C49 N5 1_555 1_555
C50 C34 1_555 1_555
H29 C50 1_555 1_555
C51 C50 1_555 1_555
H30 C51 1_555 1_555
C52 C51 1_555 1_555
H31 C52 1_555 1_555
C53 C33 1_555 1_555
H32 C53 1_555 1_555
C54 C12 1_555 1_555
H33 C54 1_555 1_555
C55 C15 1_555 1_555
H34 C55 1_555 1_555
C56 C19 1_555 1_555
H35 C56 1_555 1_555
C57 C16 1_555 1_555
H36 C57 1_555 1_555
N4 C29 1_555 1_555
N6 C45 1_555 1_555
C5 C49 1_555 1_555
C6 C7 1_555 1_555
C11 C32 1_555 1_555
C20 C46 1_555 1_555
C23 C28 1_555 1_555
C27 C28 1_555 1_555
C31 C32 1_555 1_555
C33 C34 1_555 1_555
C35 C36 1_555 1_555
C41 C42 1_555 1_555
C43 C44 1_555 1_555
C47 C48 1_555 1_555
C52 C53 1_555 1_555
C54 C55 1_555 1_555
C56 C57 1_555 1_555

#END
