
#######################################################################
#
#                 Cambridge Crystallographic Data Centre
#                                CCDC 
#
#######################################################################
#
# If this CIF has been generated from an entry in the Cambridge 
# Structural Database, then it will include bibliographic, chemical, 
# crystal, experimental, refinement or atomic coordinate data resulting 
# from the CCDC's data processing and validation procedures.
#
#######################################################################

data_VACKIV
_chemical_formula_moiety         'C25 H26 N4 O1'
_chemical_name_systematic        
(E)-N'-(3,3-dimethyl-2,6-diphenylpiperidin-4-ylidene)iotasonicotinohydrazide
_symmetry_cell_setting           triclinic
_symmetry_space_group_name_H-M   'P -1'
_symmetry_Int_Tables_number      2
_space_group_name_Hall           '-P 1'
loop_
_symmetry_equiv_pos_site_id
_symmetry_equiv_pos_as_xyz
1 x,y,z
2 -x,-y,-z
_cell_length_a                   6.21280(10)
_cell_length_b                   12.8346(3)
_cell_length_c                   15.0022(3)
_cell_angle_alpha                65.2930(10)
_cell_angle_beta                 78.8230(10)
_cell_angle_gamma                86.9480(10)
_cell_volume                     1065.62
_exptl_crystal_colour            colorless
_exptl_crystal_description       prism
_chemical_melting_point          '490 K'
_cell_formula_units_Z            2
_exptl_crystal_recrystallization_method ethanol
loop_
_atom_site_label
_atom_site_type_symbol
_atom_site_fract_x
_atom_site_fract_y
_atom_site_fract_z
O1 O 1.03274(18) -0.14364(9) 0.56827(8)
N1 N 0.33045(18) 0.26040(10) 0.65579(8)
N2 N 0.60062(18) -0.04110(9) 0.69192(8)
N3 N 0.74773(19) -0.05142(10) 0.61377(9)
N4 N 0.7572(2) -0.44715(11) 0.90685(10)
C1 C 0.36826(19) 0.17468(10) 0.75246(9)
C2 C 0.3208(2) 0.05259(11) 0.76155(9)
C3 C 0.4717(2) 0.04288(11) 0.67242(9)
C4 C 0.4554(2) 0.13676(11) 0.57172(9)
C5 C 0.4863(2) 0.25405(11) 0.57214(9)
C6 C 0.8758(2) -0.14316(11) 0.63200(10)
C7 C 0.2393(2) 0.20405(10) 0.83490(9)
C8 C 0.0312(2) 0.24877(12) 0.83080(10)
C9 C -0.0766(3) 0.28184(13) 0.90385(11)
C10 C 0.0198(3) 0.27101(14) 0.98165(11)
C11 C 0.2234(3) 0.22530(15) 0.98804(12)
C12 C 0.3326(2) 0.19245(12) 0.91516(10)
C13 C 0.0813(2) 0.03536(14) 0.75770(13)
C14 C 0.3741(3) -0.03629(12) 0.86027(10)
C15 C 0.8240(2) -0.24660(11) 0.72951(10)
C16 C 0.6160(2) -0.28642(12) 0.78285(12)
C17 C 0.5917(3) -0.38594(13) 0.86975(12)
C18 C 0.9553(3) -0.40873(13) 0.85467(12)
C19 C 0.9973(2) -0.31085(12) 0.76702(11)
C20 C 0.4552(2) 0.35141(11) 0.47507(9)
C21 C 0.6328(2) 0.39763(12) 0.39928(10)
C22 C 0.6084(3) 0.48708(13) 0.30964(11)
C23 C 0.4057(3) 0.53062(13) 0.29626(11)
C24 C 0.2281(3) 0.48566(16) 0.37049(13)
C25 C 0.2510(3) 0.39566(15) 0.45995(12)
H1 H 0.345(2) 0.3300(15) 0.6547(11)
H2 H 0.52434 0.18003 0.75368
H3 H 0.794(3) 0.0072(16) 0.5558(14)
H4 H 0.56718 0.12780 0.52067
H5 H 0.31293 0.13153 0.55624
H6 H 0.63545 0.26047 0.58215
H7 H -0.03622 0.25654 0.77826
H8 H -0.21595 0.31171 0.90010
H9 H -0.05261 0.29461 1.03008
H10 H 0.28808 0.21638 1.04164
H11 H 0.47123 0.16198 0.91995
H12 H 0.06299 -0.03715 0.75527
H13 H -0.01240 0.03648 0.81622
H14 H 0.04326 0.09596 0.69918
H15 H 0.52223 -0.02334 0.86404
H16 H 0.27505 -0.02933 0.91505
H17 H 0.35859 -0.11194 0.86366
H18 H 0.49352 -0.24676 0.76058
H19 H 0.45002 -0.41165 0.90449
H20 H 1.07448 -0.45049 0.87865
H21 H 1.14085 -0.28823 0.73343
H22 H 0.77117 0.36858 0.40818
H23 H 0.72983 0.51746 0.25863
H24 H 0.38929 0.59106 0.23630
H25 H 0.09044 0.51550 0.36118
H26 H 0.12831 0.36480 0.51013
loop_
_geom_bond_atom_site_label_1
_geom_bond_atom_site_label_2
_geom_bond_site_symmetry_1
_geom_bond_site_symmetry_2
O1 C6 1_555 1_555
N1 C1 1_555 1_555
N2 N3 1_555 1_555
N3 C6 1_555 1_555
N4 C17 1_555 1_555
C1 C2 1_555 1_555
C2 C3 1_555 1_555
C3 N2 1_555 1_555
C4 C3 1_555 1_555
C5 N1 1_555 1_555
C6 C15 1_555 1_555
C7 C1 1_555 1_555
C8 C7 1_555 1_555
C9 C8 1_555 1_555
C10 C9 1_555 1_555
C11 C10 1_555 1_555
C12 C7 1_555 1_555
C13 C2 1_555 1_555
C14 C2 1_555 1_555
C15 C16 1_555 1_555
C16 C17 1_555 1_555
C17 H19 1_555 1_555
C18 N4 1_555 1_555
C19 C15 1_555 1_555
C20 C5 1_555 1_555
C21 C20 1_555 1_555
C22 C21 1_555 1_555
C23 C22 1_555 1_555
C24 C23 1_555 1_555
C25 C20 1_555 1_555
H1 N1 1_555 1_555
H2 C1 1_555 1_555
H3 N3 1_555 1_555
H4 C4 1_555 1_555
H5 C4 1_555 1_555
H6 C5 1_555 1_555
H7 C8 1_555 1_555
H8 C9 1_555 1_555
H9 C10 1_555 1_555
H10 C11 1_555 1_555
H11 C12 1_555 1_555
H12 C13 1_555 1_555
H13 C13 1_555 1_555
H14 C13 1_555 1_555
H15 C14 1_555 1_555
H16 C14 1_555 1_555
H17 C14 1_555 1_555
H18 C16 1_555 1_555
H20 C18 1_555 1_555
H21 C19 1_555 1_555
H22 C21 1_555 1_555
H23 C22 1_555 1_555
H24 C23 1_555 1_555
H25 C24 1_555 1_555
H26 C25 1_555 1_555
C4 C5 1_555 1_555
C11 C12 1_555 1_555
C18 C19 1_555 1_555
C24 C25 1_555 1_555

#END
