
#######################################################################
#
#                 Cambridge Crystallographic Data Centre
#                                CCDC 
#
#######################################################################
#
# If this CIF has been generated from an entry in the Cambridge 
# Structural Database, then it will include bibliographic, chemical, 
# crystal, experimental, refinement or atomic coordinate data resulting 
# from the CCDC's data processing and validation procedures.
#
#######################################################################

data_VACKES
_chemical_formula_moiety         'C46 H18 F10 N4'
_chemical_name_systematic        
5,16-bis(pentafluorophenyl)-15c,21-dihydrobenzo[2,3]diindolo[3'',2'':1',7';3''',2''':5',6']cyclohepta[3',2',1':1,8]indolizino[5,6-b]indole
_symmetry_cell_setting           monoclinic
_symmetry_space_group_name_H-M   'P 21/n'
_symmetry_Int_Tables_number      14
_space_group_name_Hall           '-P 2yn'
loop_
_symmetry_equiv_pos_site_id
_symmetry_equiv_pos_as_xyz
1 x,y,z
2 1/2-x,1/2+y,1/2-z
3 -x,-y,-z
4 1/2+x,1/2-y,1/2+z
_cell_length_a                   10.144(2)
_cell_length_b                   12.998(3)
_cell_length_c                   25.579(5)
_cell_angle_alpha                90
_cell_angle_beta                 96.312(4)
_cell_angle_gamma                90
_cell_volume                     3352.19
_exptl_crystal_colour            black
_exptl_crystal_description       Block
_cell_formula_units_Z            4
loop_
_atom_site_label
_atom_site_type_symbol
_atom_site_fract_x
_atom_site_fract_y
_atom_site_fract_z
F1 F 0.2997(2) 0.14487(16) 0.64261(7)
F2 F -0.0303(2) 0.12440(16) 1.19737(7)
F3 F 0.1211(2) 0.29361(16) 0.66043(7)
F4 F 0.0454(2) 0.31742(15) 0.75689(7)
F5 F 0.29558(18) 0.30103(14) 1.11687(7)
F6 F 0.2107(2) 0.22013(15) 1.20331(7)
F7 F -0.18049(19) 0.10897(15) 1.10436(7)
F8 F -0.10424(17) 0.19924(13) 1.01755(6)
F9 F 0.3117(2) 0.03649(15) 0.81815(7)
F10 F 0.3891(2) 0.01438(17) 0.72050(8)
N1 N 0.2466(2) 0.41267(17) 0.93333(9)
N2 N 0.2753(3) 0.55620(18) 0.99155(9)
N3 N 0.1859(3) 0.06685(19) 0.98626(9)
N4 N -0.0917(3) 0.06837(18) 0.92073(10)
H1 H -0.1173 0.0439 0.9492
C1 C 0.2578(3) 0.1545(3) 0.69060(12)
C2 C 0.1700(3) 0.2308(3) 0.69964(12)
C3 C 0.1319(3) 0.2422(2) 0.74909(11)
C4 C 0.1778(3) 0.1788(2) 0.79100(11)
C5 C 0.1450(3) 0.2029(2) 0.84529(10)
C6 C 0.2150(3) 0.2773(2) 0.87256(11)
C7 C 0.1718(3) 0.3166(2) 0.92345(10)
H2 H 0.0774 0.3342 0.9171
C8 C 0.1911(3) 0.2471(2) 0.97222(10)
C9 C 0.1385(3) 0.3097(2) 1.01756(10)
C10 C 0.0965(3) 0.2549(2) 1.06432(11)
C11 C -0.0224(3) 0.2033(2) 1.06304(11)
C12 C -0.0636(3) 0.1577(2) 1.10710(12)
C13 C 0.0138(4) 0.1655(2) 1.15417(11)
C14 C 0.3033(3) 0.0892(2) 0.73014(13)
C15 C 0.2627(3) 0.1008(2) 0.77969(12)
C16 C 0.2294(3) 0.4659(2) 0.97784(11)
C17 C 0.2288(3) 0.5742(2) 1.04157(11)
C18 C 0.1518(3) 0.4924(2) 1.05843(11)
C19 C 0.0981(3) 0.4984(2) 1.10589(11)
H3 H 0.0453 0.4456 1.1166
C20 C 0.1253(3) 0.5858(2) 1.13734(11)
H4 H 0.0910 0.5911 1.1695
C21 C 0.2037(3) 0.6648(2) 1.12050(12)
H5 H 0.2217 0.7219 1.1420
C22 C 0.2554(3) 0.6603(2) 1.07267(12)
H6 H 0.3066 0.7139 1.0617
C23 C 0.1566(3) 0.4123(2) 1.01819(11)
C24 C 0.1246(3) 0.1429(2) 0.96126(11)
C25 C 0.3110(3) 0.1087(2) 1.00934(11)
C26 C 0.4119(3) 0.0539(2) 1.03725(12)
H7 H 0.4010 -0.0149 1.0456
C27 C 0.5303(3) 0.1052(3) 1.05243(13)
H8 H 0.5996 0.0702 1.0716
C28 C 0.5466(3) 0.2087(2) 1.03931(12)
H9 H 0.6272 0.2412 1.0492
C29 C 0.4442(3) 0.2629(2) 1.01177(11)
H10 H 0.4543 0.3320 1.0036
C30 C 0.3264(3) 0.2119(2) 0.99660(11)
C31 C 0.0203(3) 0.1269(2) 0.91766(11)
C32 C -0.1567(3) 0.0553(2) 0.87054(11)
C33 C -0.2760(3) 0.0055(2) 0.85421(13)
H11 H -0.3246 -0.0271 0.8782
C34 C -0.3192(3) 0.0065(3) 0.80114(13)
H12 H -0.3984 -0.0261 0.7892
C35 C -0.2463(3) 0.0555(2) 0.76488(13)
H13 H -0.2782 0.0554 0.7294
C36 C -0.1291(3) 0.1035(2) 0.78096(11)
H14 H -0.0815 0.1359 0.7566
C37 C -0.0808(3) 0.1036(2) 0.83479(11)
C38 C 0.0339(3) 0.1493(2) 0.86533(11)
C39 C 0.1750(3) 0.2565(2) 1.11253(12)
C40 C 0.1334(4) 0.2141(2) 1.15722(12)
C41 C 0.3379(3) 0.4260(2) 0.89632(10)
C42 C 0.3234(3) 0.3449(2) 0.85956(11)
C43 C 0.4076(3) 0.3420(2) 0.81992(11)
H15 H 0.4011 0.2888 0.7954
C44 C 0.5009(3) 0.4194(2) 0.81751(11)
H16 H 0.5566 0.4182 0.7910
C45 C 0.5123(3) 0.4984(2) 0.85411(12)
H17 H 0.5758 0.5493 0.8517
C46 C 0.4309(3) 0.5034(2) 0.89443(11)
H18 H 0.4386 0.5564 0.9190
loop_
_geom_bond_atom_site_label_1
_geom_bond_atom_site_label_2
_geom_bond_site_symmetry_1
_geom_bond_site_symmetry_2
F1 C1 1_555 1_555
F2 C13 1_555 1_555
F3 C2 1_555 1_555
F4 C3 1_555 1_555
F5 C39 1_555 1_555
F6 C40 1_555 1_555
F7 C12 1_555 1_555
F8 C11 1_555 1_555
F9 C15 1_555 1_555
F10 C14 1_555 1_555
N1 C7 1_555 1_555
N2 C16 1_555 1_555
N3 C24 1_555 1_555
N4 H1 1_555 1_555
C1 C2 1_555 1_555
C2 C3 1_555 1_555
C3 C4 1_555 1_555
C4 C5 1_555 1_555
C5 C6 1_555 1_555
C6 C7 1_555 1_555
C7 H2 1_555 1_555
C8 C7 1_555 1_555
C9 C8 1_555 1_555
C10 C9 1_555 1_555
C11 C10 1_555 1_555
C12 C11 1_555 1_555
C13 C12 1_555 1_555
C14 C1 1_555 1_555
C15 C4 1_555 1_555
C16 N1 1_555 1_555
C17 N2 1_555 1_555
C18 C17 1_555 1_555
C19 C18 1_555 1_555
H3 C19 1_555 1_555
C20 C19 1_555 1_555
H4 C20 1_555 1_555
C21 C20 1_555 1_555
H5 C21 1_555 1_555
C22 C17 1_555 1_555
H6 C22 1_555 1_555
C23 C9 1_555 1_555
C24 C8 1_555 1_555
C25 N3 1_555 1_555
C26 C25 1_555 1_555
H7 C26 1_555 1_555
C27 C26 1_555 1_555
H8 C27 1_555 1_555
C28 C27 1_555 1_555
H9 C28 1_555 1_555
C29 C28 1_555 1_555
H10 C29 1_555 1_555
C30 C8 1_555 1_555
C31 N4 1_555 1_555
C32 N4 1_555 1_555
C33 C32 1_555 1_555
H11 C33 1_555 1_555
C34 C33 1_555 1_555
H12 C34 1_555 1_555
C35 C34 1_555 1_555
H13 C35 1_555 1_555
C36 C35 1_555 1_555
H14 C36 1_555 1_555
C37 C32 1_555 1_555
C38 C5 1_555 1_555
C39 C10 1_555 1_555
C40 C13 1_555 1_555
C41 N1 1_555 1_555
C42 C6 1_555 1_555
C43 C42 1_555 1_555
H15 C43 1_555 1_555
C44 C43 1_555 1_555
H16 C44 1_555 1_555
C45 C44 1_555 1_555
H17 C45 1_555 1_555
C46 C41 1_555 1_555
H18 C46 1_555 1_555
C14 C15 1_555 1_555
C16 C23 1_555 1_555
C18 C23 1_555 1_555
C21 C22 1_555 1_555
C24 C31 1_555 1_555
C25 C30 1_555 1_555
C29 C30 1_555 1_555
C31 C38 1_555 1_555
C36 C37 1_555 1_555
C37 C38 1_555 1_555
C39 C40 1_555 1_555
C41 C42 1_555 1_555
C45 C46 1_555 1_555

#END
