
#######################################################################
#
#                 Cambridge Crystallographic Data Centre
#                                CCDC 
#
#######################################################################
#
# If this CIF has been generated from an entry in the Cambridge 
# Structural Database, then it will include bibliographic, chemical, 
# crystal, experimental, refinement or atomic coordinate data resulting 
# from the CCDC's data processing and validation procedures.
#
#######################################################################

data_VACKOC
_chemical_formula_moiety         'C57 H21 F15 N6 O3'
_chemical_name_systematic        
'6,19,32-tris(pentafluorophenyl)-1,14,27,41,43,45-hexaazadecacyclo[31.6.1.1^2,5^.1^7,14^.1^15,18^.1^20,27^.1^28,31^.0^8,13^.0^21,26^.0^34,39^]pentatetraconta-2,4,6,8,10,12,15,17,19,21,23,25,28,30,32,34,36,38-octadecaene-40,42,44-trione unknown solvate'
_symmetry_cell_setting           monoclinic
_symmetry_space_group_name_H-M   'P 21/c'
_symmetry_Int_Tables_number      14
_space_group_name_Hall           '-P 2ybc'
loop_
_symmetry_equiv_pos_site_id
_symmetry_equiv_pos_as_xyz
1 x,y,z
2 -x,1/2+y,1/2-z
3 -x,-y,-z
4 x,1/2-y,1/2+z
_cell_length_a                   8.6387(19)
_cell_length_b                   14.094(3)
_cell_length_c                   42.764(10)
_cell_angle_alpha                90
_cell_angle_beta                 91.418(5)
_cell_angle_gamma                90
_cell_volume                     5205.09
_exptl_crystal_colour            brown
_exptl_crystal_description       Rectangular
_cell_formula_units_Z            4
loop_
_atom_site_label
_atom_site_type_symbol
_atom_site_fract_x
_atom_site_fract_y
_atom_site_fract_z
F1 F 0.2646(5) 0.3116(3) 1.07181(9)
F2 F 1.1936(4) 0.3098(3) 0.87815(9)
F3 F 0.8021(5) 0.4762(3) 0.82162(10)
F4 F 0.1973(4) -0.1552(3) 0.87018(9)
F5 F 0.8131(4) 0.3150(3) 1.08223(9)
F6 F 1.4055(5) 0.3749(3) 0.83789(10)
F7 F -0.3963(5) -0.0301(3) 0.87256(10)
F8 F -0.1706(5) 0.0688(3) 0.90345(9)
F9 F 0.2445(5) 0.3721(3) 1.13099(10)
F10 F 0.7885(5) 0.3754(3) 1.14156(10)
F11 F 1.0160(5) 0.5421(3) 0.78240(10)
F12 F -0.0276(5) -0.2516(3) 0.83857(10)
F13 F -0.3249(5) -0.1879(3) 0.83986(10)
F14 F 0.5052(5) 0.4041(3) 1.16641(10)
F15 F 1.3163(5) 0.4893(3) 0.78943(10)
O1 O 0.6349(5) 0.2691(3) 0.97185(11)
O2 O 0.3723(5) 0.1301(3) 0.94547(11)
O3 O 0.5683(6) 0.2665(3) 0.89877(11)
N1 N 0.4365(6) 0.1595(4) 1.00575(14)
H1 H 0.4459 0.1884 0.9882
N2 N 0.7363(6) 0.4203(4) 0.98013(13)
N3 N 0.5660(7) 0.1837(4) 0.85260(13)
N4 N 0.3702(6) 0.1131(4) 0.88383(14)
H2 H 0.4193 0.1210 0.9014
N5 N 0.7743(6) 0.3766(4) 0.92694(13)
H3 H 0.7030 0.3340 0.9266
N6 N 0.2867(6) 0.0296(4) 0.98407(13)
C1 C 0.6672(9) 0.1681(5) 0.82739(16)
C2 C 0.0211(8) -0.0416(4) 0.88814(16)
C3 C 0.7252(8) 0.4915(4) 1.00357(16)
C4 C 0.5400(8) 0.3109(4) 1.07483(16)
C5 C 0.8675(8) 0.3996(5) 0.90216(17)
C6 C 0.7948(8) 0.2274(5) 0.83146(17)
C7 C 0.4908(8) 0.1926(5) 1.03428(17)
C8 C 0.3652(8) 0.0735(5) 1.00956(16)
C9 C 0.6539(8) 0.3387(5) 0.98909(16)
C10 C -0.1319(8) -0.0121(5) 0.88843(17)
C11 C 0.9330(8) 0.4910(4) 0.94363(17)
H4 H 0.9816 0.5354 0.9566
C12 C 0.1805(8) -0.0476(4) 0.98592(16)
C13 C 0.2280(8) 0.0697(5) 0.87994(17)
C14 C 0.1490(8) 0.0155(4) 0.90316(16)
C15 C 0.2893(8) 0.0629(5) 0.95349(16)
C16 C 0.9933(8) 0.3911(5) 0.85121(16)
C17 C 0.9667(8) 0.4724(5) 0.91313(17)
H5 H 1.0421 0.5027 0.9016
C18 C 1.0585(9) 0.4838(5) 0.80608(17)
C19 C 0.6322(9) 0.2461(5) 0.87385(17)
C20 C 0.4201(8) 0.1414(5) 0.85545(17)
C21 C 0.8128(8) 0.4312(5) 0.95156(17)
C22 C 0.0497(8) -0.1226(5) 0.87131(16)
C23 C 0.8705(8) 0.3527(5) 0.87283(16)
C24 C 1.2567(8) 0.3996(5) 0.83420(17)
C25 C 0.1777(8) 0.0054(5) 0.93448(17)
C26 C 0.6471(8) 0.4523(4) 1.02916(16)
C27 C 0.1110(8) -0.0627(4) 0.95653(16)
C28 C 0.3981(8) 0.3266(5) 1.08885(16)
C29 C 0.5510(8) 0.2856(4) 1.04083(16)
C30 C 0.7775(8) 0.2815(5) 0.86029(16)
C31 C 0.6076(8) 0.3542(4) 1.02185(16)
C32 C 0.5164(9) 0.3739(5) 1.13678(17)
C33 C 0.3793(8) 0.0471(5) 1.04073(16)
H6 H 0.3440 -0.0089 1.0496
C34 C 0.6717(9) 0.3277(5) 1.09396(17)
C35 C 0.4571(8) 0.1214(5) 1.05622(17)
H7 H 0.4824 0.1233 1.0775
C36 C 0.6128(8) 0.5144(4) 1.05377(17)
H8 H 0.5565 0.4925 1.0706
C37 C -0.0347(8) -0.1913(5) 0.97876(17)
H9 H -0.1069 -0.2399 0.9765
C38 C 0.3864(9) 0.3590(5) 1.11831(18)
C39 C 0.6585(9) 0.3593(5) 1.12410(18)
C40 C 0.1914(9) 0.0742(5) 0.84759(17)
H10 H 0.1019 0.0505 0.8379
C41 C 0.6619(8) 0.6072(5) 1.05315(17)
H11 H 0.6421 0.6466 1.0700
C42 C 0.3115(9) 0.1199(5) 0.83259(18)
H12 H 0.3171 0.1333 0.8114
C43 C -0.0620(9) -0.1731(5) 0.85566(18)
C44 C 0.0029(8) -0.1364(4) 0.95265(17)
H13 H -0.0429 -0.1486 0.9332
C45 C 0.7406(8) 0.6431(5) 1.02779(17)
H14 H 0.7729 0.7060 1.0278
C46 C -0.2477(9) -0.0611(5) 0.87212(18)
C47 C 0.9517(9) 0.4497(5) 0.82639(17)
C48 C 0.7711(8) 0.5849(5) 1.00238(17)
H15 H 0.8212 0.6086 0.9850
C49 C -0.2119(9) -0.1417(5) 0.85576(18)
C50 C 1.1472(8) 0.3672(5) 0.85462(17)
C51 C 1.2116(9) 0.4564(5) 0.81028(17)
C52 C 0.8990(9) 0.1532(5) 0.78527(18)
H16 H 0.9759 0.1490 0.7705
C53 C 0.1438(8) -0.1013(5) 1.01171(17)
H17 H 0.1899 -0.0899 1.0312
C54 C 0.6533(9) 0.1006(5) 0.80405(17)
H18 H 0.5684 0.0600 0.8027
C55 C 0.0328(8) -0.1747(5) 1.00721(18)
H19 H 0.0057 -0.2121 1.0241
C56 C 0.9149(8) 0.2175(5) 0.80975(17)
H20 H 1.0042 0.2541 0.8119
C57 C 0.7707(9) 0.0958(5) 0.78274(19)
H21 H 0.7627 0.0527 0.7663
C58? C 0.305(3) 0.2651(9) 0.7634(6)
C59? C 0.337(2) 0.1834(14) 0.7353(4)
C60? C 0.550(4) 0.2915(16) 0.7330(6)
C61? C 0.594(4) 0.3797(14) 0.7330(6)
C62? C 0.851(4) 0.370(2) 0.7223(5)
loop_
_geom_bond_atom_site_label_1
_geom_bond_atom_site_label_2
_geom_bond_site_symmetry_1
_geom_bond_site_symmetry_2
F1 C28 1_555 1_555
F2 C50 1_555 1_555
F3 C47 1_555 1_555
F4 C22 1_555 1_555
F5 C34 1_555 1_555
F6 C24 1_555 1_555
F7 C46 1_555 1_555
F8 C10 1_555 1_555
F9 C38 1_555 1_555
F10 C39 1_555 1_555
F11 C18 1_555 1_555
F12 C43 1_555 1_555
F13 C49 1_555 1_555
F14 C32 1_555 1_555
F15 C51 1_555 1_555
O1 C9 1_555 1_555
O2 C15 1_555 1_555
O3 C19 1_555 1_555
N1 H1 1_555 1_555
N2 C3 1_555 1_555
N3 C1 1_555 1_555
N4 H2 1_555 1_555
N5 H3 1_555 1_555
N6 C8 1_555 1_555
C1 C6 1_555 1_555
C2 C10 1_555 1_555
C3 C26 1_555 1_555
C4 C28 1_555 1_555
C5 N5 1_555 1_555
C6 C30 1_555 1_555
C7 N1 1_555 1_555
C8 N1 1_555 1_555
C9 N2 1_555 1_555
C10 C46 1_555 1_555
C11 H4 1_555 1_555
C12 N6 1_555 1_555
C13 N4 1_555 1_555
C14 C2 1_555 1_555
C15 N6 1_555 1_555
C16 C23 1_555 1_555
C17 C5 1_555 1_555
H5 C17 1_555 1_555
C18 C47 1_555 1_555
C19 N3 1_555 1_555
C20 N3 1_555 1_555
C21 N2 1_555 1_555
C22 C2 1_555 1_555
C23 C5 1_555 1_555
C24 C50 1_555 1_555
C25 C14 1_555 1_555
C26 C31 1_555 1_555
C27 C12 1_555 1_555
C28 C38 1_555 1_555
C29 C4 1_555 1_555
C30 C19 1_555 1_555
C31 C9 1_555 1_555
C32 C38 1_555 1_555
C33 C8 1_555 1_555
H6 C33 1_555 1_555
C34 C4 1_555 1_555
C35 C7 1_555 1_555
H7 C35 1_555 1_555
C36 C26 1_555 1_555
H8 C36 1_555 1_555
C37 H9 1_555 1_555
C39 C32 1_555 1_555
C40 C13 1_555 1_555
H10 C40 1_555 1_555
C41 C36 1_555 1_555
H11 C41 1_555 1_555
C42 C20 1_555 1_555
H12 C42 1_555 1_555
C43 C22 1_555 1_555
C44 C27 1_555 1_555
H13 C44 1_555 1_555
C45 C41 1_555 1_555
H14 C45 1_555 1_555
C46 C49 1_555 1_555
C47 C16 1_555 1_555
C48 C3 1_555 1_555
H15 C48 1_555 1_555
C49 C43 1_555 1_555
C50 C16 1_555 1_555
C51 C18 1_555 1_555
C52 H16 1_555 1_555
C53 C12 1_555 1_555
H17 C53 1_555 1_555
C54 C1 1_555 1_555
H18 C54 1_555 1_555
C55 C37 1_555 1_555
H19 C55 1_555 1_555
C56 C6 1_555 1_555
H20 C56 1_555 1_555
C57 C52 1_555 1_555
H21 C57 1_555 1_555
N4 C20 1_555 1_555
N5 C21 1_555 1_555
C7 C29 1_555 1_555
C11 C17 1_555 1_555
C11 C21 1_555 1_555
C13 C14 1_555 1_555
C15 C25 1_555 1_555
C23 C30 1_555 1_555
C24 C51 1_555 1_555
C25 C27 1_555 1_555
C29 C31 1_555 1_555
C33 C35 1_555 1_555
C34 C39 1_555 1_555
C37 C44 1_555 1_555
C40 C42 1_555 1_555
C45 C48 1_555 1_555
C52 C56 1_555 1_555
C53 C55 1_555 1_555
C54 C57 1_555 1_555

#END
