
#######################################################################
#
#                 Cambridge Crystallographic Data Centre
#                                CCDC 
#
#######################################################################
#
# If this CIF has been generated from an entry in the Cambridge 
# Structural Database, then it will include bibliographic, chemical, 
# crystal, experimental, refinement or atomic coordinate data resulting 
# from the CCDC's data processing and validation procedures.
#
#######################################################################

data_VACLUI
_chemical_formula_moiety         'C21 H14 Br1 N1 O3 S1'
_chemical_name_systematic        
(4-Bromophenyl)(1-(phenylsulfonyl)-1H-indol-2-yl)methanone
_symmetry_cell_setting           monoclinic
_symmetry_space_group_name_H-M   'P 21/n'
_symmetry_Int_Tables_number      14
_space_group_name_Hall           '-P 2yn'
loop_
_symmetry_equiv_pos_site_id
_symmetry_equiv_pos_as_xyz
1 x,y,z
2 1/2-x,1/2+y,1/2-z
3 -x,-y,-z
4 1/2+x,1/2-y,1/2+z
_cell_length_a                   8.482(3)
_cell_length_b                   25.780(4)
_cell_length_c                   8.690(3)
_cell_angle_alpha                90
_cell_angle_beta                 93.388(3)
_cell_angle_gamma                90
_cell_volume                     1896.89
_exptl_crystal_colour            colorless
_exptl_crystal_description       block
_cell_formula_units_Z            4
_exptl_crystal_recrystallization_method methanol
loop_
_atom_site_label
_atom_site_type_symbol
_atom_site_fract_x
_atom_site_fract_y
_atom_site_fract_z
Br1 Br 0.24312(5) 0.018422(12) 0.53534(5)
S1 S 0.26404(8) 0.34303(3) 0.83609(7)
O1 O 0.3198(2) 0.38893(8) 0.9118(2)
O2 O 0.2576(3) 0.29550(8) 0.9169(2)
O3 O 0.5440(2) 0.24395(7) 0.8349(2)
N1 N 0.3837(2) 0.33357(7) 0.6910(2)
C1 C 0.0793(3) 0.35548(11) 0.7418(3)
C2 C 0.0204(4) 0.40492(12) 0.7428(4)
H1 H 0.0751 0.4312 0.7965
C3 C -0.1230(4) 0.41519(17) 0.6619(5)
H2 H -0.1637 0.4487 0.6586
C4 C -0.2035(4) 0.3756(2) 0.5872(5)
H3 H -0.3000 0.3824 0.5347
C5 C -0.1456(4) 0.32696(18) 0.5883(4)
H4 H -0.2021 0.3006 0.5369
C6 C -0.0021(4) 0.31602(12) 0.6658(3)
H5 H 0.0386 0.2825 0.6665
C7 C 0.4047(3) 0.28357(9) 0.6256(3)
C8 C 0.4166(3) 0.28833(10) 0.4728(3)
H6 H 0.4315 0.2612 0.4045
C9 C 0.4027(3) 0.34192(10) 0.4327(3)
C10 C 0.4108(4) 0.36829(14) 0.2933(4)
H7 H 0.4263 0.3505 0.2024
C11 C 0.3955(4) 0.42089(15) 0.2939(4)
H8 H 0.4003 0.4391 0.2019
C12 C 0.3731(4) 0.44741(12) 0.4272(5)
H9 H 0.3629 0.4833 0.4230
C13 C 0.3650(3) 0.42278(11) 0.5686(4)
H10 H 0.3494 0.4410 0.6587
C14 C 0.3816(3) 0.36928(9) 0.5669(3)
C15 C 0.4561(3) 0.23788(10) 0.7209(3)
C16 C 0.4037(3) 0.18560(9) 0.6675(3)
C17 C 0.2741(3) 0.17786(10) 0.5660(3)
H11 H 0.2187 0.2062 0.5244
C18 C 0.2266(3) 0.12794(11) 0.5260(3)
H12 H 0.1389 0.1226 0.4584
C19 C 0.3100(3) 0.08671(10) 0.5870(3)
C20 C 0.4411(4) 0.09344(11) 0.6858(4)
H13 H 0.4980 0.0650 0.7246
C21 C 0.4865(3) 0.14285(10) 0.7260(3)
H14 H 0.5744 0.1478 0.7936
loop_
_geom_bond_atom_site_label_1
_geom_bond_atom_site_label_2
_geom_bond_site_symmetry_1
_geom_bond_site_symmetry_2
Br1 C19 1_555 1_555
S1 O1 1_555 1_555
O2 S1 1_555 1_555
O3 C15 1_555 1_555
N1 S1 1_555 1_555
C1 S1 1_555 1_555
C2 C1 1_555 1_555
H1 C2 1_555 1_555
C3 C2 1_555 1_555
H2 C3 1_555 1_555
C4 C3 1_555 1_555
H3 C4 1_555 1_555
C5 C4 1_555 1_555
H4 C5 1_555 1_555
C6 C1 1_555 1_555
H5 C6 1_555 1_555
C7 N1 1_555 1_555
C8 C7 1_555 1_555
H6 C8 1_555 1_555
C9 C8 1_555 1_555
C10 C9 1_555 1_555
H7 C10 1_555 1_555
C11 C10 1_555 1_555
H8 C11 1_555 1_555
C12 C11 1_555 1_555
H9 C12 1_555 1_555
C13 C12 1_555 1_555
H10 C13 1_555 1_555
C14 N1 1_555 1_555
C15 C7 1_555 1_555
C16 C15 1_555 1_555
C17 C16 1_555 1_555
H11 C17 1_555 1_555
C18 C17 1_555 1_555
H12 C18 1_555 1_555
C19 C18 1_555 1_555
C20 C19 1_555 1_555
H13 C20 1_555 1_555
C21 C16 1_555 1_555
H14 C21 1_555 1_555
C5 C6 1_555 1_555
C9 C14 1_555 1_555
C13 C14 1_555 1_555
C20 C21 1_555 1_555

#END
