
#######################################################################
#
#                 Cambridge Crystallographic Data Centre
#                                CCDC 
#
#######################################################################
#
# If this CIF has been generated from an entry in the Cambridge 
# Structural Database, then it will include bibliographic, chemical, 
# crystal, experimental, refinement or atomic coordinate data resulting 
# from the CCDC's data processing and validation procedures.
#
#######################################################################

data_VACLOC
_chemical_name_common            
2-(4-Allyl-2-methoxyphenoxy)-4,6-dichloro-1,3,5-triazine
_chemical_formula_moiety         'C13 H11 Cl2 N3 O2'
_chemical_name_systematic        
2,4-Dichloro-6-[2-methoxy-4-(prop-2-en-1-yl)phenoxy]-1,3,5-triazine
_symmetry_cell_setting           monoclinic
_symmetry_space_group_name_H-M   'P 21/c'
_symmetry_Int_Tables_number      14
_space_group_name_Hall           '-P 2ybc'
loop_
_symmetry_equiv_pos_site_id
_symmetry_equiv_pos_as_xyz
1 x,y,z
2 -x,1/2+y,1/2-z
3 -x,-y,-z
4 x,1/2-y,1/2+z
_cell_length_a                   11.4771(12)
_cell_length_b                   8.6050(9)
_cell_length_c                   14.7189(13)
_cell_angle_alpha                90
_cell_angle_beta                 103.0770(10)
_cell_angle_gamma                90
_cell_volume                     1415.95
_exptl_crystal_colour            colorless
_exptl_crystal_description       monoclinic
_cell_formula_units_Z            4
loop_
_atom_site_label
_atom_site_type_symbol
_atom_site_fract_x
_atom_site_fract_y
_atom_site_fract_z
Cl1 Cl 0.23031(7) 0.11286(10) 0.56145(6)
Cl2 Cl 0.08975(7) 0.41854(15) 0.81780(6)
N1 N 0.29775(19) 0.4567(3) 0.78327(14)
N2 N 0.36101(18) 0.3198(2) 0.66250(14)
N3 N 0.16967(19) 0.2701(3) 0.69226(16)
O1 O 0.47642(15) 0.5029(2) 0.75543(11)
O2 O 0.47302(16) 0.6829(2) 0.60769(12)
C1 C 0.3757(2) 0.4227(3) 0.73157(17)
C2 C 0.2573(2) 0.2488(3) 0.64855(18)
C3 C 0.1983(2) 0.3770(4) 0.7582(2)
C4 C 0.5660(2) 0.4821(3) 0.70437(17)
C5 C 0.5664(2) 0.5829(3) 0.63087(17)
C6 C 0.6619(2) 0.5747(3) 0.58824(17)
H1 H 0.6644 0.6411 0.5389
C7 C 0.7537(2) 0.4693(3) 0.61776(18)
C8 C 0.7481(2) 0.3691(3) 0.6892(2)
H2 H 0.8082 0.2958 0.7082
C9 C 0.6542(2) 0.3762(3) 0.73313(19)
H3 H 0.6513 0.3090 0.7820
C10 C 0.4713(3) 0.7868(3) 0.5320(2)
H4 H 0.5382 0.8565 0.5478
H5 H 0.3983 0.8456 0.5198
H6 H 0.4763 0.7285 0.4774
C11 C 0.8576(2) 0.4640(4) 0.5703(2)
H7 H 0.8779 0.5693 0.5563
H8 H 0.9265 0.4199 0.6131
C12 C 0.8333(7) 0.3729(13) 0.4838(7)
H9 H 0.7661 0.3994 0.4382
C13 C 0.8975(13) 0.2594(16) 0.4660(11)
H10 H 0.9654 0.2292 0.5099
H11 H 0.8759 0.2074 0.4093
C14? C 0.876(2) 0.317(2) 0.527(2)
C15? C 0.873(3) 0.310(5) 0.433(2)
H12? H 0.8464 0.5438 0.5226
H13? H 0.9307 0.4883 0.6157
H14? H 0.8899 0.2272 0.5634
H15? H 0.8587 0.3992 0.3970
H16? H 0.8844 0.2152 0.4060
loop_
_geom_bond_atom_site_label_1
_geom_bond_atom_site_label_2
_geom_bond_site_symmetry_1
_geom_bond_site_symmetry_2
Cl1 C2 1_555 1_555
Cl2 C3 1_555 1_555
N1 C1 1_555 1_555
N2 C1 1_555 1_555
N3 C2 1_555 1_555
O1 C1 1_555 1_555
O2 C5 1_555 1_555
C2 N2 1_555 1_555
C3 N1 1_555 1_555
C4 O1 1_555 1_555
C5 C4 1_555 1_555
C6 C5 1_555 1_555
H1 C6 1_555 1_555
C7 C6 1_555 1_555
C8 C7 1_555 1_555
H2 C8 1_555 1_555
C9 C4 1_555 1_555
H3 C9 1_555 1_555
C10 O2 1_555 1_555
H4 C10 1_555 1_555
H5 C10 1_555 1_555
H6 C10 1_555 1_555
C11 C7 1_555 1_555
H7 C11 1_555 1_555
H8 C11 1_555 1_555
C12 C11 1_555 1_555
H9 C12 1_555 1_555
C13 C12 1_555 1_555
H10 C13 1_555 1_555
H11 C13 1_555 1_555
N3 C3 1_555 1_555
C8 C9 1_555 1_555

#END
