
#######################################################################
#
#                 Cambridge Crystallographic Data Centre
#                                CCDC 
#
#######################################################################
#
# If this CIF has been generated from an entry in the Cambridge 
# Structural Database, then it will include bibliographic, chemical, 
# crystal, experimental, refinement or atomic coordinate data resulting 
# from the CCDC's data processing and validation procedures.
#
#######################################################################

data_VACPUN
_chemical_formula_moiety         'C26 H36 O2 S1 Si1'
_chemical_name_systematic        
2-methyl-3-(5-methyl-6-(phenylsulfanyl)-7-((trimethylsilyl)oxy)spiro[bicyclo[3.2.0]heptane-2,1'-cyclopropan]-7-yl)cyclohex-2-en-1-one
_symmetry_cell_setting           monoclinic
_symmetry_space_group_name_H-M   'P 21'
_symmetry_Int_Tables_number      4
_space_group_name_Hall           'P 2yb'
loop_
_symmetry_equiv_pos_site_id
_symmetry_equiv_pos_as_xyz
1 x,y,z
2 -x,1/2+y,-z
_cell_length_a                   9.9032(4)
_cell_length_b                   9.7661(2)
_cell_length_c                   13.8188(5)
_cell_angle_alpha                90
_cell_angle_beta                 110.703(4)
_cell_angle_gamma                90
_cell_volume                     1250.19
_exptl_crystal_colour            'light colorless'
_exptl_crystal_description       block
_cell_formula_units_Z            2
loop_
_atom_site_label
_atom_site_type_symbol
_atom_site_fract_x
_atom_site_fract_y
_atom_site_fract_z
S1 S -0.73455(6) -0.19034(5) -0.17691(4)
Si1 Si -0.77827(7) -0.32058(6) -0.45881(4)
O1 O -0.65255(15) -0.32331(15) -0.34367(10)
O2 O -0.8957(2) -0.8003(2) -0.25446(15)
C1 C -0.4418(2) -0.2945(2) -0.11324(14)
C2 C -0.3974(3) -0.1481(2) -0.13106(19)
H1 H -0.4660 -0.0821 -0.1231
H2 H -0.3026 -0.1266 -0.0814
C3 C -0.3953(3) -0.1431(3) -0.2404(2)
H3 H -0.4893 -0.1181 -0.2897
H4 H -0.3240 -0.0782 -0.2455
C4 C -0.3557(2) -0.2878(3) -0.25855(18)
C5 C -0.4251(2) -0.3817(2) -0.20256(15)
H5 H -0.3721 -0.4674 -0.1791
C6 C -0.59364(19) -0.40174(18) -0.25282(13)
C7 C -0.6060(2) -0.3276(2) -0.15477(13)
H6 H -0.6260 -0.3961 -0.1097
C8 C -0.3644(3) -0.3406(4) -0.00277(17)
H7 H -0.3836 -0.2770 0.0437
H8 H -0.2624 -0.3440 0.0111
H9 H -0.3981 -0.4299 0.0069
C9 C -0.2035(3) -0.3191(4) -0.2526(3)
H10 H -0.1369 -0.2431 -0.2426
H11 H -0.1601 -0.4041 -0.2198
C10 C -0.3282(4) -0.3280(4) -0.3543(2)
H12 H -0.3361 -0.2574 -0.4054
H13 H -0.3592 -0.4184 -0.3826
C11 C -0.7920(2) -0.1975(2) -0.06916(16)
C12 C -0.9005(2) -0.1054(3) -0.0720(2)
H14 H -0.9361 -0.0444 -0.1268
C13 C -0.9555(3) -0.1054(4) 0.0078(3)
H15 H -1.0273 -0.0432 0.0063
C14 C -0.9053(3) -0.1958(4) 0.0887(2)
H16 H -0.9454 -0.1974 0.1403
C15 C -0.7967(3) -0.2829(3) 0.0928(2)
H17 H -0.7605 -0.3427 0.1484
C16 C -0.7388(3) -0.2836(3) 0.01442(19)
H18 H -0.6634 -0.3430 0.0187
C17 C -0.6412(2) -0.55124(19) -0.27057(14)
C18 C -0.7583(2) -0.6036(2) -0.25492(15)
C19 C -0.7893(3) -0.7540(2) -0.26704(16)
C20 C -0.6830(3) -0.8446(2) -0.2896(2)
H19 H -0.7310 -0.9275 -0.3232
H20 H -0.6077 -0.8703 -0.2253
C21 C -0.6166(3) -0.7726(2) -0.3588(2)
H21 H -0.6907 -0.7537 -0.4253
H22 H -0.5449 -0.8316 -0.3703
C22 C -0.5465(3) -0.6401(2) -0.30967(18)
H23 H -0.4586 -0.6612 -0.2523
H24 H -0.5197 -0.5885 -0.3601
C23 C -0.8662(3) -0.5238(3) -0.2237(2)
H25 H -0.9617 -0.5567 -0.2616
H26 H -0.8599 -0.4285 -0.2386
H27 H -0.8460 -0.5354 -0.1509
C24 C -0.9600(4) -0.3149(9) -0.4536(3)
H28 H -0.9931 -0.4065 -0.4498
H29 H -1.0241 -0.2707 -0.5146
H30 H -0.9583 -0.2645 -0.3935
C25 C -0.7372(5) -0.1623(4) -0.5166(3)
H31 H -0.7669 -0.0841 -0.4870
H32 H -0.7881 -0.1634 -0.5900
H33 H -0.6353 -0.1572 -0.5027
C26 C -0.7596(6) -0.4625(5) -0.5412(3)
H34 H -0.6603 -0.4712 -0.5349
H35 H -0.8176 -0.4441 -0.6120
H36 H -0.7912 -0.5463 -0.5197
loop_
_geom_bond_atom_site_label_1
_geom_bond_atom_site_label_2
_geom_bond_site_symmetry_1
_geom_bond_site_symmetry_2
S1 C7 1_555 1_555
Si1 O1 1_555 1_555
O1 C6 1_555 1_555
O2 C19 1_555 1_555
C1 C2 1_555 1_555
C2 H1 1_555 1_555
H2 C2 1_555 1_555
C3 C2 1_555 1_555
H3 C3 1_555 1_555
H4 C3 1_555 1_555
C4 C3 1_555 1_555
C5 C1 1_555 1_555
H5 C5 1_555 1_555
C6 C5 1_555 1_555
C7 C1 1_555 1_555
H6 C7 1_555 1_555
C8 C1 1_555 1_555
H7 C8 1_555 1_555
H8 C8 1_555 1_555
H9 C8 1_555 1_555
C9 C4 1_555 1_555
H10 C9 1_555 1_555
H11 C9 1_555 1_555
C10 C4 1_555 1_555
H12 C10 1_555 1_555
H13 C10 1_555 1_555
C11 S1 1_555 1_555
C12 C11 1_555 1_555
H14 C12 1_555 1_555
C13 C12 1_555 1_555
H15 C13 1_555 1_555
C14 C13 1_555 1_555
H16 C14 1_555 1_555
C15 C14 1_555 1_555
H17 C15 1_555 1_555
C16 C11 1_555 1_555
H18 C16 1_555 1_555
C17 C6 1_555 1_555
C18 C17 1_555 1_555
C19 C18 1_555 1_555
C20 C19 1_555 1_555
H19 C20 1_555 1_555
H20 C20 1_555 1_555
C21 C20 1_555 1_555
H21 C21 1_555 1_555
H22 C21 1_555 1_555
C22 C17 1_555 1_555
H23 C22 1_555 1_555
H24 C22 1_555 1_555
C23 C18 1_555 1_555
H25 C23 1_555 1_555
H26 C23 1_555 1_555
H27 C23 1_555 1_555
C24 Si1 1_555 1_555
H28 C24 1_555 1_555
H29 C24 1_555 1_555
H30 C24 1_555 1_555
C25 Si1 1_555 1_555
H31 C25 1_555 1_555
H32 C25 1_555 1_555
H33 C25 1_555 1_555
C26 Si1 1_555 1_555
H34 C26 1_555 1_555
H35 C26 1_555 1_555
H36 C26 1_555 1_555
C4 C5 1_555 1_555
C6 C7 1_555 1_555
C9 C10 1_555 1_555
C15 C16 1_555 1_555
C21 C22 1_555 1_555

#END
