
#######################################################################
#
#                 Cambridge Crystallographic Data Centre
#                                CCDC 
#
#######################################################################
#
# If this CIF has been generated from an entry in the Cambridge 
# Structural Database, then it will include bibliographic, chemical, 
# crystal, experimental, refinement or atomic coordinate data resulting 
# from the CCDC's data processing and validation procedures.
#
#######################################################################

data_VACQIC
_chemical_formula_moiety         'C20 H28 O4'
_chemical_name_systematic        
"5-methylspiro[bicyclo[3.2.0]heptane-2,1'-cyclopropan]-7-yl 4,7,7-trimethyl-3-oxo-2-oxabicyclo[2.2.1]heptane-1-carboxylate"
_symmetry_cell_setting           monoclinic
_symmetry_space_group_name_H-M   'P 21'
_symmetry_Int_Tables_number      4
_space_group_name_Hall           'P 2yb'
loop_
_symmetry_equiv_pos_site_id
_symmetry_equiv_pos_as_xyz
1 x,y,z
2 -x,1/2+y,-z
_cell_length_a                   11.6937(9)
_cell_length_b                   7.0727(4)
_cell_length_c                   12.0855(11)
_cell_angle_alpha                90
_cell_angle_beta                 113.632(10)
_cell_angle_gamma                90
_cell_volume                     915.721
_exptl_crystal_colour            'light colorless'
_exptl_crystal_description       block
_cell_formula_units_Z            2
loop_
_atom_site_label
_atom_site_type_symbol
_atom_site_fract_x
_atom_site_fract_y
_atom_site_fract_z
O1 O -0.8267(2) -0.3765(3) -0.06413(19)
O2 O -0.78406(15) -0.1320(3) -0.15932(15)
O3 O -0.85059(17) 0.2858(3) -0.34177(18)
O4 O -0.68161(15) 0.1850(3) -0.18457(15)
C1 C -0.8613(2) -0.0133(4) -0.2609(2)
C2 C -0.8977(3) -0.1423(5) -0.3712(2)
H1 H -0.8256 -0.2077 -0.3731
H2 H -0.9384 -0.0719 -0.4457
C3 C -0.9884(3) -0.2803(5) -0.3504(2)
H3 H -0.9574 -0.4090 -0.3424
H4 H -1.0702 -0.2748 -0.4164
C4 C -0.9938(2) -0.2102(4) -0.2303(2)
C5 C -0.8638(2) -0.2552(4) -0.1399(2)
C6 C -0.9820(2) 0.0066(4) -0.2390(2)
C7 C -1.0915(3) 0.0977(6) -0.3443(3)
H5 H -1.1028 0.0347 -0.4183
H6 H -1.0738 0.2290 -0.3502
H7 H -1.1664 0.0864 -0.3301
C8 C -0.9608(3) 0.1106(6) -0.1217(3)
H8 H -1.0370 0.1120 -0.1094
H9 H -0.9350 0.2380 -0.1266
H10 H -0.8971 0.0470 -0.0553
C9 C -1.0976(3) -0.2913(6) -0.2007(3)
H11 H -1.0865 -0.4254 -0.1894
H12 H -1.1764 -0.2657 -0.2659
H13 H -1.0958 -0.2343 -0.1280
C10 C -0.7973(2) 0.1685(4) -0.2662(2)
C11 C -0.6220(2) 0.3649(4) -0.1874(2)
H14 H -0.6729 0.4706 -0.1805
C12 C -0.4891(2) 0.3802(5) -0.0917(2)
H15 H -0.4499 0.2591 -0.0619
H16 H -0.4805 0.4647 -0.0256
C13 C -0.4503(2) 0.4708(4) -0.1896(2)
C14 C -0.5774(2) 0.4020(4) -0.2894(2)
H17 H -0.6243 0.5014 -0.3459
C15 C -0.5427(2) 0.2363(4) -0.3489(2)
C16 C -0.4122(3) 0.1741(5) -0.2662(3)
H18 H -0.3698 0.1137 -0.3113
H19 H -0.4139 0.0879 -0.2044
C17 C -0.3498(2) 0.3614(5) -0.2112(3)
H20 H -0.2780 0.3403 -0.1360
H21 H -0.3229 0.4288 -0.2665
C18 C -0.5747(3) 0.2441(6) -0.4820(3)
H22 H -0.5121 0.2017 -0.5102
H23 H -0.6262 0.3481 -0.5274
C19 C -0.6343(3) 0.0981(5) -0.4322(3)
H24 H -0.6076 -0.0321 -0.4303
H25 H -0.7217 0.1143 -0.4475
C20 C -0.4302(3) 0.6830(5) -0.1758(3)
H26 H -0.5010 0.7414 -0.1685
H27 H -0.4204 0.7326 -0.2454
H28 H -0.3565 0.7093 -0.1048
loop_
_geom_bond_atom_site_label_1
_geom_bond_atom_site_label_2
_geom_bond_site_symmetry_1
_geom_bond_site_symmetry_2
O1 C5 1_555 1_555
O2 C1 1_555 1_555
O3 C10 1_555 1_555
O4 C10 1_555 1_555
C1 C2 1_555 1_555
C2 H1 1_555 1_555
H2 C2 1_555 1_555
C3 C2 1_555 1_555
H3 C3 1_555 1_555
H4 C3 1_555 1_555
C4 C3 1_555 1_555
C5 O2 1_555 1_555
C6 C1 1_555 1_555
C7 C6 1_555 1_555
H5 C7 1_555 1_555
H6 C7 1_555 1_555
H7 C7 1_555 1_555
C8 C6 1_555 1_555
H8 C8 1_555 1_555
H9 C8 1_555 1_555
H10 C8 1_555 1_555
C9 C4 1_555 1_555
H11 C9 1_555 1_555
H12 C9 1_555 1_555
H13 C9 1_555 1_555
C10 C1 1_555 1_555
C11 O4 1_555 1_555
H14 C11 1_555 1_555
C12 C11 1_555 1_555
H15 C12 1_555 1_555
H16 C12 1_555 1_555
C13 C12 1_555 1_555
C14 C11 1_555 1_555
H17 C14 1_555 1_555
C15 C14 1_555 1_555
C16 C15 1_555 1_555
H18 C16 1_555 1_555
H19 C16 1_555 1_555
C17 C13 1_555 1_555
H20 C17 1_555 1_555
H21 C17 1_555 1_555
C18 C15 1_555 1_555
H22 C18 1_555 1_555
H23 C18 1_555 1_555
C19 C15 1_555 1_555
H24 C19 1_555 1_555
H25 C19 1_555 1_555
C20 C13 1_555 1_555
H26 C20 1_555 1_555
H27 C20 1_555 1_555
H28 C20 1_555 1_555
C4 C5 1_555 1_555
C4 C6 1_555 1_555
C13 C14 1_555 1_555
C16 C17 1_555 1_555
C18 C19 1_555 1_555

#END
