
#######################################################################
#
#                 Cambridge Crystallographic Data Centre
#                                CCDC 
#
#######################################################################
#
# If this CIF has been generated from an entry in the Cambridge 
# Structural Database, then it will include bibliographic, chemical, 
# crystal, experimental, refinement or atomic coordinate data resulting 
# from the CCDC's data processing and validation procedures.
#
#######################################################################

data_VACQAU
_chemical_formula_moiety         'C28 H38 O3 S1'
_chemical_name_systematic        
6'-allyl-2'',3a'-dimethyl-4'-(phenylsulfanyl)hexahydrotrispiro[cyclopropane-1,1'-pentalene-5',1''-cyclohexane-3'',2'''-[1,3]dioxolan]-6'-ol
_symmetry_cell_setting           monoclinic
_symmetry_space_group_name_H-M   'P 21'
_symmetry_Int_Tables_number      4
_space_group_name_Hall           'P 2yb'
loop_
_symmetry_equiv_pos_site_id
_symmetry_equiv_pos_as_xyz
1 x,y,z
2 -x,1/2+y,-z
_cell_length_a                   11.7343(3)
_cell_length_b                   9.37652(17)
_cell_length_c                   11.8423(3)
_cell_angle_alpha                90
_cell_angle_beta                 113.378(3)
_cell_angle_gamma                90
_cell_volume                     1196.01
_exptl_crystal_colour            'light colorless'
_exptl_crystal_description       block
_cell_formula_units_Z            2
loop_
_atom_site_label
_atom_site_type_symbol
_atom_site_fract_x
_atom_site_fract_y
_atom_site_fract_z
S1 S 0.17181(4) 0.39200(4) 0.59468(4)
O1 O 0.12533(10) 0.68151(13) 0.95254(9)
H1 H 0.0510 0.6835 0.9380
O2 O -0.12069(10) 0.63915(15) 0.83485(11)
O3 O -0.26379(10) 0.54470(17) 0.65794(12)
C1 C 0.14216(13) 0.68822(17) 0.83969(13)
C2 C 0.08648(13) 0.55575(17) 0.75024(13)
C3 C 0.16798(13) 0.56295(17) 0.67186(13)
H2 H 0.1304 0.6344 0.6073
C4 C 0.29967(13) 0.61929(18) 0.75766(13)
C5 C 0.28305(13) 0.68804(17) 0.87014(14)
H3 H 0.3085 0.7880 0.8733
C6 C 0.37823(14) 0.61506(19) 0.98499(14)
C7 C 0.47752(14) 0.5628(2) 0.94364(15)
H4 H 0.5278 0.4887 0.9977
H5 H 0.5309 0.6402 0.9403
C8 C 0.40096(14) 0.5044(2) 0.81551(15)
H6 H 0.3642 0.4131 0.8203
H7 H 0.4516 0.4932 0.7683
C9 C 0.35415(16) 0.5264(2) 1.07937(14)
H8 H 0.4057 0.4429 1.1117
H9 H 0.2689 0.5169 1.0713
C10 C 0.41480(16) 0.6715(2) 1.11317(15)
H10 H 0.3659 0.7487 1.1254
H11 H 0.5026 0.6747 1.1658
C11 C 0.08712(14) 0.83227(18) 0.77676(14)
H12 H 0.0966 0.8384 0.6992
H13 H -0.0010 0.8340 0.7588
C12 C 0.14707(16) 0.9593(2) 0.85328(16)
H14 H 0.1455 0.9648 0.9311
C13 C 0.20168(18) 1.0637(2) 0.8207(2)
H15 H 0.240(2) 1.142(3) 0.873(2)
H16 H 0.207(3) 1.066(4) 0.736(3)
C14 C 0.34547(15) 0.7307(2) 0.69063(15)
H17 H 0.3548 0.6871 0.6215
H18 H 0.4241 0.7679 0.7460
H19 H 0.2863 0.8070 0.6625
C15 C -0.05647(13) 0.57021(19) 0.66850(14)
H20 H -0.0719 0.6708 0.6447
C16 C -0.13707(14) 0.5336(2) 0.74044(15)
C17 C -0.10852(15) 0.3883(2) 0.80081(16)
H21 H -0.1272 0.3153 0.7380
H22 H -0.1607 0.3719 0.8457
C18 C 0.02726(14) 0.3772(2) 0.88860(14)
H23 H 0.0448 0.2812 0.9215
H24 H 0.0439 0.4426 0.9568
C19 C 0.11148(13) 0.41313(17) 0.82129(14)
H25 H 0.1043 0.3368 0.7636
H26 H 0.1967 0.4139 0.8813
C20 C -0.23720(16) 0.7032(3) 0.8126(2)
H27 H -0.2437 0.7962 0.7747
H28 H -0.2497 0.7135 0.8884
C21 C -0.32944(16) 0.6000(2) 0.72637(19)
H29 H -0.3505 0.5252 0.7713
H30 H -0.4047 0.6484 0.6734
C22 C -0.10294(15) 0.4832(2) 0.54905(15)
H31 H -0.0630 0.5162 0.4972
H32 H -0.1911 0.4947 0.5071
H33 H -0.0838 0.3843 0.5681
C23 C 0.26530(15) 0.43420(19) 0.51196(14)
C24 C 0.22745(18) 0.5323(2) 0.41598(16)
H34 H 0.1503 0.5762 0.3917
C25 C 0.3051(2) 0.5643(2) 0.35668(17)
H35 H 0.2801 0.6307 0.2931
C26 C 0.41917(19) 0.4985(2) 0.39102(17)
H36 H 0.4718 0.5226 0.3525
C27 C 0.45482(16) 0.3967(3) 0.48293(16)
H37 H 0.5304 0.3499 0.5045
C28 C 0.37792(16) 0.3641(2) 0.54310(15)
H38 H 0.4019 0.2951 0.6045
loop_
_geom_bond_atom_site_label_1
_geom_bond_atom_site_label_2
_geom_bond_site_symmetry_1
_geom_bond_site_symmetry_2
S1 C3 1_555 1_555
O1 H1 1_555 1_555
O2 C16 1_555 1_555
O3 C16 1_555 1_555
C1 O1 1_555 1_555
C2 C1 1_555 1_555
C3 C2 1_555 1_555
H2 C3 1_555 1_555
C4 C3 1_555 1_555
C5 C1 1_555 1_555
H3 C5 1_555 1_555
C6 C5 1_555 1_555
C7 C6 1_555 1_555
H4 C7 1_555 1_555
H5 C7 1_555 1_555
C8 C4 1_555 1_555
H6 C8 1_555 1_555
H7 C8 1_555 1_555
C9 C6 1_555 1_555
H8 C9 1_555 1_555
H9 C9 1_555 1_555
C10 C6 1_555 1_555
H10 C10 1_555 1_555
H11 C10 1_555 1_555
C11 C1 1_555 1_555
H12 C11 1_555 1_555
H13 C11 1_555 1_555
C12 C11 1_555 1_555
H14 C12 1_555 1_555
C13 C12 1_555 1_555
H15 C13 1_555 1_555
H16 C13 1_555 1_555
C14 C4 1_555 1_555
H17 C14 1_555 1_555
H18 C14 1_555 1_555
H19 C14 1_555 1_555
C15 C2 1_555 1_555
H20 C15 1_555 1_555
C16 C15 1_555 1_555
C17 C16 1_555 1_555
H21 C17 1_555 1_555
H22 C17 1_555 1_555
C18 C17 1_555 1_555
H23 C18 1_555 1_555
H24 C18 1_555 1_555
C19 C2 1_555 1_555
H25 C19 1_555 1_555
H26 C19 1_555 1_555
C20 O2 1_555 1_555
H27 C20 1_555 1_555
H28 C20 1_555 1_555
C21 O3 1_555 1_555
H29 C21 1_555 1_555
H30 C21 1_555 1_555
C22 C15 1_555 1_555
H31 C22 1_555 1_555
H32 C22 1_555 1_555
H33 C22 1_555 1_555
C23 S1 1_555 1_555
C24 C23 1_555 1_555
H34 C24 1_555 1_555
C25 C24 1_555 1_555
H35 C25 1_555 1_555
C26 C25 1_555 1_555
H36 C26 1_555 1_555
C27 C26 1_555 1_555
H37 C27 1_555 1_555
C28 C23 1_555 1_555
H38 C28 1_555 1_555
C4 C5 1_555 1_555
C7 C8 1_555 1_555
C9 C10 1_555 1_555
C18 C19 1_555 1_555
C20 C21 1_555 1_555
C27 C28 1_555 1_555

#END
