
#######################################################################
#
#                 Cambridge Crystallographic Data Centre
#                                CCDC 
#
#######################################################################
#
# If this CIF has been generated from an entry in the Cambridge 
# Structural Database, then it will include bibliographic, chemical, 
# crystal, experimental, refinement or atomic coordinate data resulting 
# from the CCDC's data processing and validation procedures.
#
#######################################################################

data_VACVIG
_chemical_formula_moiety         'C56 H54 N8 O2 Si1'
_chemical_name_systematic        
(phthalocyaninato)-bis(2-(1-adamantyl)ethanolato)-silicon(iv)
_symmetry_cell_setting           triclinic
_symmetry_space_group_name_H-M   'P -1'
_symmetry_Int_Tables_number      2
_space_group_name_Hall           '-P 1'
loop_
_symmetry_equiv_pos_site_id
_symmetry_equiv_pos_as_xyz
1 x,y,z
2 -x,-y,-z
_cell_length_a                   8.657(2)
_cell_length_b                   11.255(2)
_cell_length_c                   11.789(2)
_cell_angle_alpha                76.19
_cell_angle_beta                 81.16
_cell_angle_gamma                88.66
_cell_volume                     1102.1
_exptl_crystal_colour            blue
_exptl_crystal_description       prism
_cell_formula_units_Z            1
loop_
_atom_site_label
_atom_site_type_symbol
_atom_site_fract_x
_atom_site_fract_y
_atom_site_fract_z
Si1 Si 0.0000 1.0000 0.5000
O1 O 0.05258(13) 0.85830(10) 0.57195(9)
N1 N 0.08036(15) 1.06101(11) 0.61841(11)
N2 N 0.34386(15) 1.12193(12) 0.52000(11)
N3 N 0.20142(15) 1.02832(12) 0.40106(11)
N4 N 0.14399(15) 0.97169(12) 0.22560(11)
C1 C 0.00096(18) 1.06474(13) 0.72844(13)
C2 C 0.10012(18) 1.11930(14) 0.79155(14)
C3 C 0.07531(19) 1.14075(14) 0.90473(14)
H1 H -0.0179 1.1180 0.9557
C4 C 0.1958(2) 1.19750(15) 0.93780(14)
H2 H 0.1837 1.2124 1.0129
C5 C 0.3357(2) 1.23283(16) 0.86021(15)
H3 H 0.4130 1.2729 0.8843
C6 C 0.36171(19) 1.20946(15) 0.74802(14)
H4 H 0.4553 1.2315 0.6973
C7 C 0.24095(18) 1.15143(14) 0.71542(13)
C8 C 0.22721(18) 1.11115(14) 0.60874(13)
C9 C 0.33059(17) 1.08272(13) 0.42482(13)
C10 C 0.45358(18) 1.10074(14) 0.32357(13)
C11 C 0.60464(18) 1.15002(15) 0.30300(14)
H5 H 0.6459 1.1763 0.3613
C12 C 0.69084(19) 1.15808(16) 0.19172(15)
H6 H 0.7922 1.1899 0.1755
C13 C 0.62852(19) 1.11929(15) 0.10307(15)
H7 H 0.6885 1.1272 0.0291
C14 C 0.47884(19) 1.06946(15) 0.12440(14)
H8 H 0.4373 1.0433 0.0661
C15 C 0.39300(18) 1.06006(14) 0.23638(14)
C16 C 0.23597(18) 1.01549(14) 0.28668(13)
C17 C 0.0917(2) 0.75310(15) 0.52898(14)
H9 H 0.1905 0.7670 0.4760
H10 H 0.0122 0.7371 0.4847
C18 C 0.10481(19) 0.64211(14) 0.63140(14)
H11 H 0.1651 0.6672 0.6848
H12 H 0.1649 0.5806 0.5993
C19 C -0.04741(19) 0.58065(14) 0.70503(14)
C20 C -0.0033(2) 0.48024(16) 0.80814(16)
H13 H 0.0646 0.4219 0.7771
H14 H 0.0536 0.5167 0.8563
C21 C -0.1496(2) 0.41326(18) 0.88498(18)
H15 H -0.1185 0.3500 0.9499
C22 C -0.2369(2) 0.35413(17) 0.8098(2)
H16 H -0.3290 0.3111 0.8580
H17 H -0.1703 0.2951 0.7787
C23 C -0.2857(2) 0.45261(18) 0.70702(19)
H18 H -0.3418 0.4143 0.6586
C24 C -0.1390(2) 0.51954(16) 0.63125(16)
H19 H -0.1692 0.5814 0.5661
H20 H -0.0722 0.4617 0.5984
C25 C -0.1570(2) 0.67009(15) 0.75755(15)
H21 H -0.1017 0.7087 0.8051
H22 H -0.1875 0.7337 0.6939
C26 C -0.3042(2) 0.60409(17) 0.83453(17)
H23 H -0.3718 0.6631 0.8666
C27 C -0.2573(3) 0.50450(19) 0.93583(17)
H24 H -0.3500 0.4622 0.9838
H25 H -0.2034 0.5412 0.9856
C28 C -0.3920(2) 0.54537(17) 0.75739(18)
H26 H -0.4224 0.6083 0.6931
H27 H -0.4860 0.5042 0.8044
O1A O -0.05258(13) 1.14170(10) 0.42805(9)
N1A N -0.08036(15) 0.93899(11) 0.38159(11)
N2A N -0.34386(15) 0.87807(12) 0.48000(11)
N3A N -0.20142(15) 0.97168(12) 0.59894(11)
N4A N -0.14399(15) 1.02831(12) 0.77440(11)
C1A C -0.00096(18) 0.93526(13) 0.27156(13)
C2A C -0.10012(18) 0.88070(14) 0.20845(14)
C3A C -0.07531(19) 0.85925(14) 0.09527(14)
H1A H 0.0179 0.8820 0.0443
C4A C -0.1958(2) 0.80250(15) 0.06220(14)
H2A H -0.1837 0.7876 -0.0129
C5A C -0.3357(2) 0.76717(16) 0.13979(15)
H3A H -0.4130 0.7271 0.1157
C6A C -0.36171(19) 0.79054(15) 0.25198(14)
H4A H -0.4553 0.7685 0.3027
C7A C -0.24095(18) 0.84857(14) 0.28458(13)
C8A C -0.22721(18) 0.88885(14) 0.39126(13)
C9A C -0.33059(17) 0.91728(13) 0.57518(13)
C10A C -0.45358(18) 0.89926(14) 0.67643(13)
C11A C -0.60464(18) 0.84998(15) 0.69700(14)
H5A H -0.6459 0.8237 0.6387
C12A C -0.69084(19) 0.84192(16) 0.80828(15)
H6A H -0.7922 0.8101 0.8245
C13A C -0.62852(19) 0.88071(15) 0.89693(15)
H7A H -0.6885 0.8728 0.9709
C14A C -0.47884(19) 0.93054(15) 0.87560(14)
H8A H -0.4373 0.9567 0.9339
C15A C -0.39300(18) 0.93994(14) 0.76362(14)
C16A C -0.23597(18) 0.98451(14) 0.71332(13)
C17A C -0.0917(2) 1.24690(15) 0.47102(14)
H9A H -0.1905 1.2330 0.5240
H10A H -0.0122 1.2629 0.5153
C18A C -0.10481(19) 1.35789(14) 0.36860(14)
H11A H -0.1651 1.3328 0.3152
H12A H -0.1649 1.4194 0.4007
C19A C 0.04741(19) 1.41935(14) 0.29497(14)
C20A C 0.0033(2) 1.51976(16) 0.19186(16)
H13A H -0.0646 1.5781 0.2229
H14A H -0.0536 1.4833 0.1437
C21A C 0.1496(2) 1.58674(18) 0.11502(18)
H15A H 0.1185 1.6500 0.0501
C22A C 0.2369(2) 1.64587(17) 0.1902(2)
H16A H 0.3290 1.6889 0.1420
H17A H 0.1703 1.7049 0.2213
C23A C 0.2857(2) 1.54739(18) 0.29298(19)
H18A H 0.3418 1.5857 0.3414
C24A C 0.1390(2) 1.48046(16) 0.36875(16)
H19A H 0.1692 1.4186 0.4339
H20A H 0.0722 1.5383 0.4016
C25A C 0.1570(2) 1.32991(15) 0.24245(15)
H21A H 0.1017 1.2913 0.1949
H22A H 0.1875 1.2663 0.3061
C26A C 0.3042(2) 1.39591(17) 0.16547(17)
H23A H 0.3718 1.3369 0.1334
C27A C 0.2573(3) 1.49550(19) 0.06417(17)
H24A H 0.3500 1.5378 0.0162
H25A H 0.2034 1.4588 0.0144
C28A C 0.3920(2) 1.45463(17) 0.24261(18)
H26A H 0.4224 1.3917 0.3069
H27A H 0.4860 1.4958 0.1956
loop_
_geom_bond_atom_site_label_1
_geom_bond_atom_site_label_2
_geom_bond_site_symmetry_1
_geom_bond_site_symmetry_2
Si1 O1 1_555 1_555
O1 C17 1_555 1_555
N1 Si1 1_555 1_555
N2 C8 1_555 1_555
N3 Si1 1_555 1_555
N4 C16 1_555 1_555
C1 N1 1_555 1_555
C2 C1 1_555 1_555
C3 C2 1_555 1_555
H1 C3 1_555 1_555
C4 C3 1_555 1_555
H2 C4 1_555 1_555
C5 C4 1_555 1_555
H3 C5 1_555 1_555
C6 C5 1_555 1_555
H4 C6 1_555 1_555
C7 C2 1_555 1_555
C8 N1 1_555 1_555
C9 N2 1_555 1_555
C10 C9 1_555 1_555
C11 C10 1_555 1_555
H5 C11 1_555 1_555
C12 C11 1_555 1_555
H6 C12 1_555 1_555
C13 C12 1_555 1_555
H7 C13 1_555 1_555
C14 C13 1_555 1_555
H8 C14 1_555 1_555
C15 C10 1_555 1_555
C16 N3 1_555 1_555
C17 H9 1_555 1_555
H10 C17 1_555 1_555
C18 C17 1_555 1_555
H11 C18 1_555 1_555
H12 C18 1_555 1_555
C19 C18 1_555 1_555
C20 C19 1_555 1_555
H13 C20 1_555 1_555
H14 C20 1_555 1_555
C21 C20 1_555 1_555
H15 C21 1_555 1_555
C22 C21 1_555 1_555
H16 C22 1_555 1_555
H17 C22 1_555 1_555
C23 C22 1_555 1_555
H18 C23 1_555 1_555
C24 C19 1_555 1_555
H19 C24 1_555 1_555
H20 C24 1_555 1_555
C25 C19 1_555 1_555
H21 C25 1_555 1_555
H22 C25 1_555 1_555
C26 C25 1_555 1_555
H23 C26 1_555 1_555
C27 C21 1_555 1_555
H24 C27 1_555 1_555
H25 C27 1_555 1_555
C28 C23 1_555 1_555
H26 C28 1_555 1_555
H27 C28 1_555 1_555
O1A Si1 1_555 1_555
N1A Si1 1_555 1_555
N2A C8A 1_555 1_555
N3A Si1 1_555 1_555
N4A C1 1_555 1_555
C1A N4 1_555 1_555
C2A C1A 1_555 1_555
C3A C2A 1_555 1_555
H1A C3A 1_555 1_555
C4A C3A 1_555 1_555
H2A C4A 1_555 1_555
C5A C4A 1_555 1_555
H3A C5A 1_555 1_555
C6A C5A 1_555 1_555
H4A C6A 1_555 1_555
C7A C2A 1_555 1_555
C8A N1A 1_555 1_555
C9A N2A 1_555 1_555
C10A C9A 1_555 1_555
C11A C10A 1_555 1_555
H5A C11A 1_555 1_555
C12A C11A 1_555 1_555
H6A C12A 1_555 1_555
C13A C12A 1_555 1_555
H7A C13A 1_555 1_555
C14A C13A 1_555 1_555
H8A C14A 1_555 1_555
C15A C10A 1_555 1_555
C16A N3A 1_555 1_555
C17A O1A 1_555 1_555
H9A C17A 1_555 1_555
H10A C17A 1_555 1_555
C18A C17A 1_555 1_555
H11A C18A 1_555 1_555
H12A C18A 1_555 1_555
C19A C18A 1_555 1_555
C20A C19A 1_555 1_555
H13A C20A 1_555 1_555
H14A C20A 1_555 1_555
C21A C20A 1_555 1_555
H15A C21A 1_555 1_555
C22A C21A 1_555 1_555
H16A C22A 1_555 1_555
H17A C22A 1_555 1_555
C23A C22A 1_555 1_555
H18A C23A 1_555 1_555
C24A C19A 1_555 1_555
H19A C24A 1_555 1_555
H20A C24A 1_555 1_555
C25A C19A 1_555 1_555
H21A C25A 1_555 1_555
H22A C25A 1_555 1_555
C26A C25A 1_555 1_555
H23A C26A 1_555 1_555
C27A C21A 1_555 1_555
H24A C27A 1_555 1_555
H25A C27A 1_555 1_555
C28A C23A 1_555 1_555
H26A C28A 1_555 1_555
H27A C28A 1_555 1_555
N3 C9 1_555 1_555
C6 C7 1_555 1_555
C7 C8 1_555 1_555
C14 C15 1_555 1_555
C15 C16 1_555 1_555
C23 C24 1_555 1_555
C26 C27 1_555 1_555
C26 C28 1_555 1_555
N1A C1A 1_555 1_555
N3A C9A 1_555 1_555
N4A C16A 1_555 1_555
C6A C7A 1_555 1_555
C7A C8A 1_555 1_555
C14A C15A 1_555 1_555
C15A C16A 1_555 1_555
C23A C24A 1_555 1_555
C26A C27A 1_555 1_555
C26A C28A 1_555 1_555

#END
