
#######################################################################
#
#                 Cambridge Crystallographic Data Centre
#                                CCDC 
#
#######################################################################
#
# If this CIF has been generated from an entry in the Cambridge 
# Structural Database, then it will include bibliographic, chemical, 
# crystal, experimental, refinement or atomic coordinate data resulting 
# from the CCDC's data processing and validation procedures.
#
#######################################################################

data_VACWUU
_chemical_formula_moiety         'C100 Cl28'
_chemical_name_systematic        octacosachloro-C100-fullerene
_symmetry_cell_setting           triclinic
_symmetry_space_group_name_H-M   'P -1'
_symmetry_Int_Tables_number      2
_space_group_name_Hall           '-P 1'
loop_
_symmetry_equiv_pos_site_id
_symmetry_equiv_pos_as_xyz
1 x,y,z
2 -x,-y,-z
_cell_length_a                   14.3300(10)
_cell_length_b                   15.3480(10)
_cell_length_c                   18.9500(10)
_cell_angle_alpha                98.880(10)
_cell_angle_beta                 103.490(10)
_cell_angle_gamma                113.520(10)
_cell_volume                     3570.12
_exptl_crystal_colour            red
_exptl_crystal_description       block
_cell_formula_units_Z            2
loop_
_atom_site_label
_atom_site_type_symbol
_atom_site_fract_x
_atom_site_fract_y
_atom_site_fract_z
Cl1 Cl 1.29342(18) 1.29588(17) -0.19571(13)
Cl2 Cl 1.27702(19) 1.18499(18) -0.35361(14)
Cl3 Cl 1.36993(17) 1.11085(18) -0.22874(14)
Cl4 Cl 1.27658(19) 0.95224(19) -0.39327(13)
Cl5 Cl 1.33663(18) 0.89680(19) -0.23462(14)
Cl6 Cl 1.2068(2) 0.71310(19) -0.36772(15)
Cl7 Cl 1.20356(19) 0.66888(19) -0.21148(15)
Cl8 Cl 1.0150(2) 0.49353(19) -0.34503(15)
Cl9 Cl 0.9998(2) 0.5143(2) -0.17089(16)
Cl10 Cl 0.8289(2) 0.48295(19) -0.10302(15)
Cl11 Cl 0.56253(19) 0.40583(18) -0.17124(15)
Cl12 Cl 0.6980(2) 0.57118(19) -0.01651(14)
Cl13 Cl 0.47703(19) 0.57028(18) -0.08699(15)
Cl14 Cl 0.63739(18) 0.76077(19) 0.03389(13)
Cl15 Cl 0.44563(18) 0.78944(18) -0.07747(14)
Cl16 Cl 0.66786(18) 0.97359(18) 0.03963(13)
Cl17 Cl 0.54643(18) 1.04345(18) -0.07250(13)
Cl18 Cl 0.78713(18) 1.19547(18) 0.00112(13)
Cl19 Cl 0.67826(19) 1.23398(18) -0.14708(15)
Cl20 Cl 0.9551(2) 1.33201(19) -0.07428(15)
Cl21 Cl 1.1216(2) 1.36921(18) -0.14989(15)
Cl22 Cl 1.13405(19) 1.32254(18) -0.32480(14)
Cl23 Cl 0.8741(2) 0.5213(2) -0.51946(16)
Cl24 Cl 0.7196(2) 0.38275(18) -0.45568(15)
Cl25 Cl 0.52492(19) 0.34441(17) -0.37584(14)
Cl26 Cl 0.38024(19) 0.42642(19) -0.33028(15)
Cl27 Cl 0.6289(2) 1.1846(2) -0.35110(15)
Cl28 Cl 0.8549(2) 1.23094(18) -0.43542(14)
C1 C 1.0585(7) 0.8964(7) -0.1391(5)
C2 C 0.9806(7) 0.8377(6) -0.1090(5)
C3 C 0.9098(7) 0.8676(7) -0.0849(5)
C4 C 0.9236(7) 0.9643(7) -0.0824(5)
C5 C 1.0080(7) 1.0277(7) -0.1054(5)
C6 C 1.0706(7) 0.9947(6) -0.1372(5)
C7 C 1.1286(7) 1.0489(6) -0.1806(5)
C8 C 1.1732(7) 1.0030(6) -0.2220(5)
C9 C 1.1595(6) 0.9103(7) -0.2248(5)
C10 C 1.0994(7) 0.8505(7) -0.1851(6)
C11 C 1.0686(7) 0.7479(7) -0.2026(5)
C12 C 0.9969(7) 0.6942(7) -0.1701(5)
C13 C 0.9550(7) 0.7360(7) -0.1256(5)
C14 C 0.8598(8) 0.6656(7) -0.1168(6)
C15 C 0.7897(7) 0.6934(7) -0.0940(5)
C16 C 0.8167(8) 0.7963(7) -0.0749(5)
C17 C 0.7415(6) 0.8273(7) -0.0618(5)
C18 C 0.7532(7) 0.9209(7) -0.0602(5)
C19 C 0.8431(7) 0.9934(7) -0.0718(5)
C20 C 0.8458(7) 1.0825(6) -0.0842(5)
C21 C 0.9281(8) 1.1425(7) -0.1048(5)
C22 C 1.0075(7) 1.1176(7) -0.1147(5)
C23 C 1.0674(7) 1.1707(7) -0.1577(5)
C24 C 1.1245(7) 1.1374(7) -0.1921(5)
C25 C 1.1716(8) 1.1875(7) -0.2480(5)
C26 C 1.1867(7) 1.1143(7) -0.3072(5)
C27 C 1.2266(8) 1.0443(7) -0.2767(6)
C28 C 1.1910(8) 0.9404(8) -0.3353(6)
C29 C 1.1995(7) 0.8708(7) -0.2818(5)
C30 C 1.1351(7) 0.7578(8) -0.3168(6)
C31 C 1.0988(7) 0.6964(7) -0.2593(5)
C32 C 0.9926(8) 0.5991(7) -0.3142(6)
C33 C 0.8954(8) 0.5616(7) -0.2839(6)
C34 C 0.9252(8) 0.5826(8) -0.1994(5)
C35 C 0.8332(8) 0.5628(8) -0.1615(6)
C36 C 0.7223(7) 0.5287(7) -0.2154(6)
C37 C 0.6380(7) 0.5296(7) -0.1784(5)
C38 C 0.6816(8) 0.6138(8) -0.1001(6)
C39 C 0.5929(8) 0.6520(7) -0.1079(5)
C40 C 0.6304(7) 0.7614(7) -0.0634(5)
C41 C 0.5696(7) 0.8220(7) -0.0953(5)
C42 C 0.6556(7) 0.9324(7) -0.0573(5)
C43 C 0.6420(7) 1.0101(7) -0.0978(5)
C44 C 0.7515(7) 1.1064(7) -0.0853(5)
C45 C 0.7235(8) 1.1413(7) -0.1607(6)
C46 C 0.8157(7) 1.1776(7) -0.1968(5)
C47 C 0.9261(8) 1.2203(7) -0.1430(5)
C48 C 1.0211(8) 1.2404(7) -0.1794(5)
C49 C 0.9871(7) 1.2083(7) -0.2643(5)
C50 C 1.0787(8) 1.2095(7) -0.2979(6)
C51 C 1.0286(8) 1.1218(8) -0.3654(6)
C52 C 1.0800(7) 1.0633(7) -0.3657(5)
C53 C 1.0264(8) 0.9615(8) -0.4043(5)
C54 C 1.0745(7) 0.8976(8) -0.3873(5)
C55 C 1.0039(7) 0.7962(7) -0.4098(5)
C56 C 1.0323(7) 0.7309(7) -0.3733(6)
C57 C 0.9609(8) 0.6370(7) -0.3782(6)
C58 C 0.8568(7) 0.5850(7) -0.4352(6)
C59 C 0.7613(8) 0.5120(7) -0.4133(6)
C60 C 0.7912(8) 0.5276(8) -0.3265(6)
C61 C 0.7022(8) 0.5102(7) -0.2923(6)
C62 C 0.5868(8) 0.4784(7) -0.3441(5)
C63 C 0.5203(8) 0.5197(7) -0.3079(5)
C64 C 0.5632(7) 0.5598(7) -0.2263(5)
C65 C 0.5555(7) 0.6360(7) -0.1902(5)
C66 C 0.5261(7) 0.7030(6) -0.2245(5)
C67 C 0.5451(7) 0.7939(7) -0.1841(5)
C68 C 0.5525(7) 0.8694(7) -0.2218(5)
C69 C 0.6029(7) 0.9691(7) -0.1806(5)
C70 C 0.6361(8) 1.0461(8) -0.2136(6)
C71 C 0.6107(7) 1.0285(7) -0.2906(5)
C72 C 0.6772(8) 1.0977(7) -0.3255(5)
C73 C 0.7952(8) 1.1551(7) -0.2736(6)
C74 C 0.8837(8) 1.1715(7) -0.3082(6)
C75 C 0.8519(7) 1.1307(7) -0.3927(5)
C76 C 0.9243(7) 1.0889(8) -0.4108(5)
C77 C 0.8689(7) 0.9878(7) -0.4499(5)
C78 C 0.9151(8) 0.9240(7) -0.4462(5)
C79 C 0.8419(8) 0.8190(8) -0.4638(5)
C80 C 0.8904(8) 0.7574(7) -0.4504(5)
C81 C 0.8214(7) 0.6584(7) -0.4587(5)
C82 C 0.7149(7) 0.6282(7) -0.4658(6)
C83 C 0.6753(7) 0.5421(7) -0.4376(5)
C84 C 0.5966(7) 0.5264(7) -0.4086(5)
C85 C 0.5518(7) 0.5950(7) -0.4042(5)
C86 C 0.5170(7) 0.5985(7) -0.3425(5)
C87 C 0.5138(7) 0.6835(7) -0.3059(5)
C88 C 0.5272(7) 0.7594(7) -0.3431(5)
C89 C 0.5392(7) 0.8495(7) -0.3012(5)
C90 C 0.5650(7) 0.9309(8) -0.3318(5)
C91 C 0.5948(7) 0.9248(7) -0.3989(5)
C92 C 0.6658(8) 1.0248(8) -0.3955(5)
C93 C 0.7455(8) 1.0387(7) -0.4256(5)
C94 C 0.7576(8) 0.9570(8) -0.4598(5)
C95 C 0.6884(7) 0.8575(7) -0.4641(5)
C96 C 0.7320(7) 0.7883(7) -0.4731(5)
C97 C 0.6689(8) 0.6925(8) -0.4673(6)
C98 C 0.5840(7) 0.6767(7) -0.4337(5)
C99 C 0.5604(7) 0.7545(7) -0.4084(5)
C100 C 0.6048(7) 0.8432(7) -0.4330(5)
loop_
_geom_bond_atom_site_label_1
_geom_bond_atom_site_label_2
_geom_bond_site_symmetry_1
_geom_bond_site_symmetry_2
Cl1 C25 1_555 1_555
Cl2 C26 1_555 1_555
Cl3 C27 1_555 1_555
Cl4 C28 1_555 1_555
Cl5 C29 1_555 1_555
Cl6 C30 1_555 1_555
Cl7 C31 1_555 1_555
Cl8 C32 1_555 1_555
Cl9 C34 1_555 1_555
Cl10 C35 1_555 1_555
Cl11 C37 1_555 1_555
Cl12 C38 1_555 1_555
Cl13 C39 1_555 1_555
Cl14 C40 1_555 1_555
Cl15 C41 1_555 1_555
Cl16 C42 1_555 1_555
Cl17 C43 1_555 1_555
Cl18 C44 1_555 1_555
Cl19 C45 1_555 1_555
Cl20 C47 1_555 1_555
Cl21 C48 1_555 1_555
Cl22 C50 1_555 1_555
Cl23 C58 1_555 1_555
Cl24 C59 1_555 1_555
Cl25 C62 1_555 1_555
Cl26 C63 1_555 1_555
Cl27 C72 1_555 1_555
Cl28 C75 1_555 1_555
C1 C2 1_555 1_555
C2 C3 1_555 1_555
C3 C4 1_555 1_555
C4 C5 1_555 1_555
C5 C6 1_555 1_555
C6 C1 1_555 1_555
C7 C6 1_555 1_555
C8 C7 1_555 1_555
C9 C8 1_555 1_555
C10 C1 1_555 1_555
C11 C10 1_555 1_555
C12 C11 1_555 1_555
C13 C2 1_555 1_555
C14 C13 1_555 1_555
C15 C14 1_555 1_555
C16 C3 1_555 1_555
C17 C16 1_555 1_555
C18 C17 1_555 1_555
C19 C4 1_555 1_555
C20 C19 1_555 1_555
C21 C20 1_555 1_555
C22 C5 1_555 1_555
C23 C22 1_555 1_555
C24 C7 1_555 1_555
C25 C24 1_555 1_555
C26 C25 1_555 1_555
C27 C8 1_555 1_555
C28 C27 1_555 1_555
C29 C9 1_555 1_555
C30 C29 1_555 1_555
C31 C11 1_555 1_555
C32 C31 1_555 1_555
C33 C32 1_555 1_555
C34 C12 1_555 1_555
C35 C14 1_555 1_555
C36 C35 1_555 1_555
C37 C36 1_555 1_555
C38 C15 1_555 1_555
C39 C38 1_555 1_555
C40 C17 1_555 1_555
C41 C40 1_555 1_555
C42 C18 1_555 1_555
C43 C42 1_555 1_555
C44 C20 1_555 1_555
C45 C44 1_555 1_555
C46 C45 1_555 1_555
C47 C21 1_555 1_555
C48 C23 1_555 1_555
C49 C48 1_555 1_555
C50 C25 1_555 1_555
C51 C50 1_555 1_555
C52 C26 1_555 1_555
C53 C52 1_555 1_555
C54 C28 1_555 1_555
C55 C54 1_555 1_555
C56 C30 1_555 1_555
C57 C32 1_555 1_555
C58 C57 1_555 1_555
C59 C58 1_555 1_555
C60 C33 1_555 1_555
C61 C36 1_555 1_555
C62 C61 1_555 1_555
C63 C62 1_555 1_555
C64 C37 1_555 1_555
C65 C39 1_555 1_555
C66 C65 1_555 1_555
C67 C41 1_555 1_555
C68 C67 1_555 1_555
C69 C43 1_555 1_555
C70 C45 1_555 1_555
C71 C70 1_555 1_555
C72 C71 1_555 1_555
C73 C46 1_555 1_555
C74 C49 1_555 1_555
C75 C74 1_555 1_555
C76 C51 1_555 1_555
C77 C76 1_555 1_555
C78 C53 1_555 1_555
C79 C78 1_555 1_555
C80 C55 1_555 1_555
C81 C58 1_555 1_555
C82 C81 1_555 1_555
C83 C59 1_555 1_555
C84 C62 1_555 1_555
C85 C84 1_555 1_555
C86 C63 1_555 1_555
C87 C66 1_555 1_555
C88 C87 1_555 1_555
C89 C68 1_555 1_555
C90 C71 1_555 1_555
C91 C90 1_555 1_555
C92 C72 1_555 1_555
C93 C75 1_555 1_555
C94 C77 1_555 1_555
C95 C94 1_555 1_555
C96 C79 1_555 1_555
C97 C82 1_555 1_555
C98 C85 1_555 1_555
C99 C88 1_555 1_555
C100 C91 1_555 1_555
C9 C10 1_555 1_555
C12 C13 1_555 1_555
C15 C16 1_555 1_555
C18 C19 1_555 1_555
C21 C22 1_555 1_555
C23 C24 1_555 1_555
C26 C27 1_555 1_555
C28 C29 1_555 1_555
C30 C31 1_555 1_555
C33 C34 1_555 1_555
C34 C35 1_555 1_555
C37 C38 1_555 1_555
C39 C40 1_555 1_555
C41 C42 1_555 1_555
C43 C44 1_555 1_555
C46 C47 1_555 1_555
C47 C48 1_555 1_555
C49 C50 1_555 1_555
C51 C52 1_555 1_555
C53 C54 1_555 1_555
C55 C56 1_555 1_555
C56 C57 1_555 1_555
C59 C60 1_555 1_555
C60 C61 1_555 1_555
C63 C64 1_555 1_555
C64 C65 1_555 1_555
C66 C67 1_555 1_555
C68 C69 1_555 1_555
C69 C70 1_555 1_555
C72 C73 1_555 1_555
C73 C74 1_555 1_555
C75 C76 1_555 1_555
C77 C78 1_555 1_555
C79 C80 1_555 1_555
C80 C81 1_555 1_555
C82 C83 1_555 1_555
C83 C84 1_555 1_555
C85 C86 1_555 1_555
C86 C87 1_555 1_555
C88 C89 1_555 1_555
C89 C90 1_555 1_555
C91 C92 1_555 1_555
C92 C93 1_555 1_555
C93 C94 1_555 1_555
C95 C96 1_555 1_555
C95 C100 1_555 1_555
C96 C97 1_555 1_555
C97 C98 1_555 1_555
C98 C99 1_555 1_555
C99 C100 1_555 1_555

#END
