
#######################################################################
#
#                 Cambridge Crystallographic Data Centre
#                                CCDC 
#
#######################################################################
#
# If this CIF has been generated from an entry in the Cambridge 
# Structural Database, then it will include bibliographic, chemical, 
# crystal, experimental, refinement or atomic coordinate data resulting 
# from the CCDC's data processing and validation procedures.
#
#######################################################################

data_VACWII
_chemical_formula_moiety         'C100 Cl22'
_chemical_name_systematic        docosachloro-C100-fullerene
_symmetry_cell_setting           monoclinic
_symmetry_space_group_name_H-M   'P 21/n'
_symmetry_Int_Tables_number      14
_space_group_name_Hall           '-P 2yn'
loop_
_symmetry_equiv_pos_site_id
_symmetry_equiv_pos_as_xyz
1 x,y,z
2 1/2-x,1/2+y,1/2-z
3 -x,-y,-z
4 1/2+x,1/2-y,1/2+z
_cell_length_a                   13.8120(10)
_cell_length_b                   33.788(2)
_cell_length_c                   15.7550(10)
_cell_angle_alpha                90
_cell_angle_beta                 109.047(8)
_cell_angle_gamma                90
_cell_volume                     6950
_exptl_crystal_colour            orange
_exptl_crystal_description       needle
_cell_formula_units_Z            4
loop_
_atom_site_label
_atom_site_type_symbol
_atom_site_fract_x
_atom_site_fract_y
_atom_site_fract_z
Cl1 Cl -0.00035(6) 0.22705(3) 0.92906(6)
Cl2 Cl -0.11773(6) 0.09187(2) 0.43728(5)
Cl3 Cl 0.13170(7) 0.14148(3) 1.11615(6)
Cl4 Cl 0.26301(6) 0.28785(2) 1.01048(5)
Cl5 Cl 0.39902(7) 0.31922(2) 0.83961(6)
Cl6 Cl 0.25172(6) 0.19502(3) 0.34091(5)
Cl7 Cl 0.06434(6) 0.09299(2) 0.31905(5)
Cl8 Cl -0.08373(6) 0.01919(2) 0.62043(6)
Cl9 Cl 0.00089(6) 0.00042(3) 0.81787(6)
Cl10 Cl 0.13472(7) 0.02931(3) 1.03770(6)
Cl11 Cl 0.39029(6) 0.20266(3) 1.19323(5)
Cl12 Cl 0.76358(6) 0.21701(2) 0.73995(5)
Cl13 Cl 0.48015(6) 0.11693(2) 0.37663(5)
Cl14 Cl 0.29703(6) 0.02272(2) 0.38418(5)
Cl15 Cl 0.61629(6) 0.15728(3) 1.20294(5)
Cl16 Cl 0.76847(6) 0.13106(3) 1.11635(5)
Cl17 Cl 0.85725(6) 0.12947(3) 0.94230(5)
Cl18 Cl 0.72645(6) 0.12446(2) 0.57399(5)
Cl19 Cl 0.34839(17) -0.03996(5) 0.5687(6)
Cl20 Cl 0.39387(8) -0.05504(3) 0.76360(7)
Cl21 Cl 0.60415(7) -0.02875(3) 0.78159(6)
Cl22 Cl 0.78714(6) 0.04560(2) 0.77932(5)
C1 C 0.0796(2) 0.21140(9) 0.7306(2)
C2 C 0.1287(2) 0.22501(9) 0.6678(2)
C3 C 0.1188(2) 0.20320(9) 0.5861(2)
C4 C 0.0469(2) 0.17211(10) 0.5652(2)
C5 C -0.0020(2) 0.15846(10) 0.6283(2)
C6 C 0.0202(2) 0.17514(10) 0.7137(2)
C7 C 0.0254(2) 0.14901(10) 0.7874(2)
C8 C 0.0789(2) 0.15964(10) 0.8784(2)
C9 C 0.1032(2) 0.20311(10) 0.8983(2)
C10 C 0.1200(2) 0.22424(10) 0.8201(2)
C11 C 0.2073(2) 0.24814(9) 0.8493(2)
C12 C 0.2545(2) 0.26052(9) 0.7905(2)
C13 C 0.2149(2) 0.24940(9) 0.7005(2)
C14 C 0.2970(2) 0.24810(9) 0.6628(2)
C15 C 0.2910(2) 0.22591(9) 0.5877(2)
C16 C 0.1976(2) 0.20322(9) 0.5451(2)
C17 C 0.1983(2) 0.17234(9) 0.4840(2)
C18 C 0.1282(2) 0.14073(9) 0.4684(2)
C19 C 0.0524(2) 0.14127(10) 0.5080(2)
C20 C -0.0013(2) 0.10478(10) 0.5277(2)
C21 C -0.0238(2) 0.11763(10) 0.6103(2)
C22 C -0.0130(2) 0.09277(10) 0.6798(2)
C23 C 0.0109(2) 0.10813(10) 0.7681(2)
C24 C 0.0589(2) 0.07917(10) 0.8311(2)
C25 C 0.1177(2) 0.08964(10) 0.9166(2)
C26 C 0.1247(2) 0.13055(10) 0.9421(2)
C27 C 0.1985(3) 0.14253(10) 1.0340(2)
C28 C 0.2476(2) 0.18251(10) 1.0319(2)
C29 C 0.2047(2) 0.20965(10) 0.9713(2)
C30 C 0.2645(2) 0.24301(10) 0.9476(2)
C31 C 0.3753(2) 0.23114(10) 0.9612(2)
C32 C 0.4229(2) 0.24193(10) 0.8982(2)
C33 C 0.3670(2) 0.26701(9) 0.8175(2)
C34 C 0.3911(3) 0.25479(9) 0.7343(2)
C35 C 0.4804(2) 0.23621(9) 0.7357(2)
C36 C 0.4806(2) 0.21840(9) 0.6523(2)
C37 C 0.3875(2) 0.21398(9) 0.5784(2)
C38 C 0.3850(2) 0.18593(9) 0.5120(2)
C39 C 0.2878(2) 0.16905(10) 0.4490(2)
C40 C 0.3199(2) 0.12676(9) 0.4418(2)
C41 C 0.2589(2) 0.09635(10) 0.4387(2)
C42 C 0.1494(2) 0.10112(10) 0.4331(2)
C43 C 0.1403(2) 0.06928(9) 0.4983(2)
C44 C 0.0746(2) 0.07072(9) 0.5488(2)
C45 C 0.0965(2) 0.04800(9) 0.6273(2)
C46 C 0.0220(2) 0.05056(10) 0.6806(2)
C47 C 0.0685(2) 0.04039(10) 0.7838(2)
C48 C 0.1800(2) 0.02873(9) 0.8153(2)
C49 C 0.2317(3) 0.03354(11) 0.9075(2)
C50 C 0.1917(3) 0.05880(10) 0.9708(2)
C51 C 0.2882(2) 0.07842(10) 1.0286(2)
C52 C 0.2917(3) 0.11634(10) 1.0597(2)
C53 C 0.3831(3) 0.13775(10) 1.0814(2)
C54 C 0.3619(3) 0.18178(10) 1.0813(2)
C55 C 0.4217(2) 0.20313(10) 1.0298(2)
C56 C 0.5161(2) 0.18786(10) 1.0356(2)
C57 C 0.5632(2) 0.19802(10) 0.9717(2)
C58 C 0.5169(2) 0.22372(10) 0.8993(2)
C59 C 0.5508(2) 0.22122(9) 0.8217(2)
C60 C 0.6279(2) 0.19360(9) 0.8233(2)
C61 C 0.6534(2) 0.18653(10) 0.7380(2)
C62 C 0.5647(2) 0.19451(9) 0.6543(2)
C63 C 0.5574(2) 0.16599(9) 0.5899(2)
C64 C 0.4672(2) 0.16170(9) 0.5186(2)
C65 C 0.4353(2) 0.12300(10) 0.4722(2)
C66 C 0.4736(2) 0.08952(9) 0.5408(2)
C67 C 0.4072(2) 0.05840(9) 0.5406(2)
C68 C 0.2999(2) 0.05622(9) 0.4745(2)
C69 C 0.2257(2) 0.04492(9) 0.5239(2)
C70 C 0.2513(2) 0.02387(9) 0.6040(2)
C71 C 0.1896(2) 0.02670(9) 0.6593(2)
C72 C 0.2358(2) 0.01926(9) 0.7574(2)
C73 C 0.3445(2) 0.01507(9) 0.7928(2)
C74 C 0.3978(2) 0.02756(9) 0.8827(2)
C75 C 0.3401(2) 0.03610(10) 0.9371(2)
C76 C 0.3742(2) 0.06330(10) 1.0106(2)
C77 C 0.4660(2) 0.08440(10) 1.0287(2)
C78 C 0.4716(2) 0.12177(10) 1.0705(2)
C79 C 0.5602(2) 0.14974(10) 1.0831(2)
C80 C 0.6412(2) 0.13663(10) 1.0366(2)
C81 C 0.6369(2) 0.16978(10) 0.9700(2)
C82 C 0.6689(2) 0.16679(10) 0.8964(2)
C83 C 0.7191(2) 0.12820(10) 0.8858(2)
C84 C 0.6986(2) 0.11729(10) 0.7891(2)
C85 C 0.6741(2) 0.14348(10) 0.7239(2)
C86 C 0.6281(2) 0.13160(10) 0.6261(2)
C87 C 0.5653(2) 0.09382(9) 0.6146(2)
C88 C 0.5891(2) 0.06682(9) 0.6856(2)
C89 C 0.5203(2) 0.03658(9) 0.6845(2)
C90 C 0.4311(2) 0.03261(9) 0.6132(2)
C91 C 0.3564(2) 0.00525(9) 0.6345(2)
C92 C 0.4035(3) -0.00073(12) 0.7376(2)
C93 C 0.5176(2) 0.01324(10) 0.7654(2)
C94 C 0.5563(2) 0.03933(9) 0.8472(2)
C95 C 0.5019(2) 0.04395(9) 0.9085(2)
C96 C 0.5343(2) 0.07345(10) 0.9782(2)
C97 C 0.6163(2) 0.09871(10) 0.9811(2)
C98 C 0.6640(2) 0.09485(10) 0.9160(2)
C99 C 0.6353(2) 0.06535(10) 0.8514(2)
C100 C 0.6738(2) 0.07419(10) 0.7735(2)
Cl23? Cl 0.3571(10) -0.0437(6) 0.604(2)
Cl24? Cl 0.2209(3) -0.02350(11) 0.9517(3)
Cl25? Cl 0.2054(14) -0.0434(5) 0.7548(12)
Cl26? Cl 0.4386(17) 0.3079(7) 0.6853(15)
loop_
_geom_bond_atom_site_label_1
_geom_bond_atom_site_label_2
_geom_bond_site_symmetry_1
_geom_bond_site_symmetry_2
Cl1 C9 1_555 1_555
Cl2 C20 1_555 1_555
Cl3 C27 1_555 1_555
Cl4 C30 1_555 1_555
Cl5 C33 1_555 1_555
Cl6 C39 1_555 1_555
Cl7 C42 1_555 1_555
Cl8 C46 1_555 1_555
Cl9 C47 1_555 1_555
Cl10 C50 1_555 1_555
Cl11 C54 1_555 1_555
Cl12 C61 1_555 1_555
Cl13 C65 1_555 1_555
Cl14 C68 1_555 1_555
Cl15 C79 1_555 1_555
Cl16 C80 1_555 1_555
Cl17 C83 1_555 1_555
Cl18 C86 1_555 1_555
Cl19 C91 1_555 1_555
Cl20 C92 1_555 1_555
Cl21 C93 1_555 1_555
Cl22 C100 1_555 1_555
C1 C2 1_555 1_555
C2 C3 1_555 1_555
C3 C4 1_555 1_555
C4 C5 1_555 1_555
C5 C6 1_555 1_555
C6 C1 1_555 1_555
C7 C6 1_555 1_555
C8 C7 1_555 1_555
C9 C8 1_555 1_555
C10 C1 1_555 1_555
C11 C10 1_555 1_555
C12 C11 1_555 1_555
C13 C2 1_555 1_555
C14 C13 1_555 1_555
C15 C14 1_555 1_555
C16 C3 1_555 1_555
C17 C16 1_555 1_555
C18 C17 1_555 1_555
C19 C4 1_555 1_555
C20 C19 1_555 1_555
C21 C5 1_555 1_555
C22 C21 1_555 1_555
C23 C7 1_555 1_555
C24 C23 1_555 1_555
C25 C24 1_555 1_555
C26 C8 1_555 1_555
C27 C26 1_555 1_555
C28 C27 1_555 1_555
C29 C9 1_555 1_555
C30 C11 1_555 1_555
C31 C30 1_555 1_555
C32 C31 1_555 1_555
C33 C12 1_555 1_555
C34 C14 1_555 1_555
C35 C34 1_555 1_555
C36 C35 1_555 1_555
C37 C15 1_555 1_555
C38 C37 1_555 1_555
C39 C17 1_555 1_555
C40 C39 1_555 1_555
C41 C40 1_555 1_555
C42 C18 1_555 1_555
C43 C42 1_555 1_555
C44 C20 1_555 1_555
C45 C44 1_555 1_555
C46 C22 1_555 1_555
C47 C24 1_555 1_555
C48 C47 1_555 1_555
C49 C48 1_555 1_555
C50 C25 1_555 1_555
C51 C50 1_555 1_555
C52 C27 1_555 1_555
C53 C52 1_555 1_555
C54 C28 1_555 1_555
C55 C31 1_555 1_555
C56 C55 1_555 1_555
C57 C56 1_555 1_555
C58 C32 1_555 1_555
C59 C35 1_555 1_555
C60 C59 1_555 1_555
C61 C60 1_555 1_555
C62 C36 1_555 1_555
C63 C62 1_555 1_555
C64 C38 1_555 1_555
C65 C40 1_555 1_555
C66 C65 1_555 1_555
C67 C66 1_555 1_555
C68 C41 1_555 1_555
C69 C43 1_555 1_555
C70 C69 1_555 1_555
C71 C45 1_555 1_555
C72 C48 1_555 1_555
C73 C72 1_555 1_555
C74 C73 1_555 1_555
C75 C49 1_555 1_555
C76 C51 1_555 1_555
C77 C76 1_555 1_555
C78 C53 1_555 1_555
C79 C56 1_555 1_555
C80 C79 1_555 1_555
C81 C57 1_555 1_555
C82 C60 1_555 1_555
C83 C82 1_555 1_555
C84 C83 1_555 1_555
C85 C61 1_555 1_555
C86 C63 1_555 1_555
C87 C66 1_555 1_555
C88 C87 1_555 1_555
C89 C88 1_555 1_555
C90 C67 1_555 1_555
C91 C70 1_555 1_555
C92 C73 1_555 1_555
C93 C89 1_555 1_555
C94 C93 1_555 1_555
C95 C74 1_555 1_555
C96 C77 1_555 1_555
C97 C80 1_555 1_555
C98 C83 1_555 1_555
C99 C94 1_555 1_555
C100 C84 1_555 1_555
C9 C10 1_555 1_555
C12 C13 1_555 1_555
C15 C16 1_555 1_555
C18 C19 1_555 1_555
C20 C21 1_555 1_555
C22 C23 1_555 1_555
C25 C26 1_555 1_555
C28 C29 1_555 1_555
C29 C30 1_555 1_555
C32 C33 1_555 1_555
C33 C34 1_555 1_555
C36 C37 1_555 1_555
C38 C39 1_555 1_555
C41 C42 1_555 1_555
C43 C44 1_555 1_555
C45 C46 1_555 1_555
C46 C47 1_555 1_555
C49 C50 1_555 1_555
C51 C52 1_555 1_555
C53 C54 1_555 1_555
C54 C55 1_555 1_555
C57 C58 1_555 1_555
C58 C59 1_555 1_555
C61 C62 1_555 1_555
C63 C64 1_555 1_555
C64 C65 1_555 1_555
C67 C68 1_555 1_555
C68 C69 1_555 1_555
C70 C71 1_555 1_555
C71 C72 1_555 1_555
C74 C75 1_555 1_555
C75 C76 1_555 1_555
C77 C78 1_555 1_555
C78 C79 1_555 1_555
C80 C81 1_555 1_555
C81 C82 1_555 1_555
C84 C85 1_555 1_555
C85 C86 1_555 1_555
C86 C87 1_555 1_555
C88 C100 1_555 1_555
C89 C90 1_555 1_555
C90 C91 1_555 1_555
C91 C92 1_555 1_555
C92 C93 1_555 1_555
C94 C95 1_555 1_555
C95 C96 1_555 1_555
C96 C97 1_555 1_555
C97 C98 1_555 1_555
C98 C99 1_555 1_555
C99 C100 1_555 1_555

#END
