
#######################################################################
#
#                 Cambridge Crystallographic Data Centre
#                                CCDC 
#
#######################################################################
#
# If this CIF has been generated from an entry in the Cambridge 
# Structural Database, then it will include bibliographic, chemical, 
# crystal, experimental, refinement or atomic coordinate data resulting 
# from the CCDC's data processing and validation procedures.
#
#######################################################################

data_VACXIJ
_chemical_formula_moiety         'C23 H32 B1 N1 O3'
_chemical_name_systematic        
2-t-butyl-10b-methyl-1-(4,4,5,5-tetramethyl-1,3,2-dioxaborolan-2-yl)-1,10b-dihydropyrido[2,1-a]isoindol-6(4H)-one
_symmetry_cell_setting           monoclinic
_symmetry_space_group_name_H-M   'P 21/n'
_symmetry_Int_Tables_number      14
_space_group_name_Hall           '-P 2yn'
loop_
_symmetry_equiv_pos_site_id
_symmetry_equiv_pos_as_xyz
1 x,y,z
2 1/2-x,1/2+y,1/2-z
3 -x,-y,-z
4 1/2+x,1/2-y,1/2+z
_cell_length_a                   9.9630(7)
_cell_length_b                   21.8573(16)
_cell_length_c                   10.4832(7)
_cell_angle_alpha                90
_cell_angle_beta                 101.6580(10)
_cell_angle_gamma                90
_cell_volume                     2235.77
_exptl_crystal_colour            colorless
_cell_formula_units_Z            4
loop_
_atom_site_label
_atom_site_type_symbol
_atom_site_fract_x
_atom_site_fract_y
_atom_site_fract_z
O1 O 0.71129(18) 0.63344(8) 0.59861(16)
O2 O 0.15412(15) 0.65284(8) 0.30903(15)
O3 O 0.29219(15) 0.60097(8) 0.47110(14)
N1 N 0.59036(15) 0.61010(7) 0.39436(15)
C1 C 0.39320(18) 0.53679(8) 0.23122(17)
C2 C 0.36621(17) 0.60496(8) 0.24551(16)
H1 H 0.3189 0.6198 0.1600
C3 C 0.50415(17) 0.63988(8) 0.28091(16)
C4 C 0.6154(2) 0.54517(9) 0.3949(2)
H2 H 0.6209 0.5295 0.4824
H3 H 0.7029 0.5377 0.3706
C5 C 0.5057(2) 0.51167(9) 0.3033(2)
H4 H 0.5166 0.4697 0.2957
C6 C 0.49364(17) 0.70386(8) 0.33335(17)
C7 C 0.57047(19) 0.70815(9) 0.45865(18)
C8 C 0.6337(2) 0.64765(9) 0.49666(19)
C9 C 0.4240(2) 0.75447(9) 0.2738(2)
H5 H 0.3738 0.7522 0.1889
C10 C 0.4309(2) 0.80850(10) 0.3434(3)
H6 H 0.3844 0.8428 0.3048
C11 C 0.5062(2) 0.81241(11) 0.4705(3)
H7 H 0.5088 0.8491 0.5159
C12 C 0.5773(2) 0.76202(11) 0.5297(2)
H8 H 0.6280 0.7643 0.6144
C13 C 0.2889(2) 0.50011(10) 0.13323(19)
C14 C 0.3333(3) 0.43307(11) 0.1253(2)
H9 H 0.3385 0.4137 0.2084
H10 H 0.4215 0.4316 0.1018
H11 H 0.2675 0.4120 0.0606
C15 C 0.2733(3) 0.52810(13) -0.0040(2)
H12 H 0.2091 0.5043 -0.0648
H13 H 0.3605 0.5280 -0.0295
H14 H 0.2405 0.5694 -0.0030
C16 C 0.1502(3) 0.50036(13) 0.1748(3)
H15 H 0.1601 0.4824 0.2598
H16 H 0.0852 0.4771 0.1136
H17 H 0.1183 0.5417 0.1771
C17 C 0.0826(3) 0.65336(14) 0.4169(3)
C18 C 0.1909(2) 0.63240(12) 0.5328(2)
C19 C -0.0316(4) 0.6036(3) 0.3817(6)
H18 H -0.0784 0.6088 0.2929
H19 H -0.0959 0.6077 0.4381
H20 H 0.0093 0.5637 0.3925
C20 C 0.0100(5) 0.7109(2) 0.4208(4)
H21 H 0.0750 0.7437 0.4398
H22 H -0.0435 0.7089 0.4873
H23 H -0.0494 0.7180 0.3380
C21 C 0.1480(4) 0.59107(19) 0.6295(4)
H24 H 0.1097 0.5543 0.5868
H25 H 0.0804 0.6112 0.6682
H26 H 0.2261 0.5810 0.6961
C22 C 0.2667(4) 0.68800(19) 0.6039(4)
H27 H 0.3540 0.6752 0.6534
H28 H 0.2131 0.7053 0.6614
H29 H 0.2802 0.7182 0.5411
C23 C 0.5778(2) 0.64060(10) 0.1657(2)
H30 H 0.6619 0.6632 0.1892
H31 H 0.5201 0.6597 0.0920
H32 H 0.5976 0.5994 0.1437
B1 B 0.2700(2) 0.61942(9) 0.3456(2)
loop_
_geom_bond_atom_site_label_1
_geom_bond_atom_site_label_2
_geom_bond_site_symmetry_1
_geom_bond_site_symmetry_2
O1 C8 1_555 1_555
O2 C17 1_555 1_555
O3 C18 1_555 1_555
N1 C3 1_555 1_555
C1 C2 1_555 1_555
C2 H1 1_555 1_555
C3 C2 1_555 1_555
C4 N1 1_555 1_555
H2 C4 1_555 1_555
H3 C4 1_555 1_555
C5 C1 1_555 1_555
H4 C5 1_555 1_555
C6 C3 1_555 1_555
C7 C6 1_555 1_555
C8 N1 1_555 1_555
C9 C6 1_555 1_555
H5 C9 1_555 1_555
C10 C9 1_555 1_555
H6 C10 1_555 1_555
C11 C10 1_555 1_555
H7 C11 1_555 1_555
C12 C7 1_555 1_555
H8 C12 1_555 1_555
C13 C1 1_555 1_555
C14 C13 1_555 1_555
H9 C14 1_555 1_555
H10 C14 1_555 1_555
H11 C14 1_555 1_555
C15 C13 1_555 1_555
H12 C15 1_555 1_555
H13 C15 1_555 1_555
H14 C15 1_555 1_555
C16 C13 1_555 1_555
H15 C16 1_555 1_555
H16 C16 1_555 1_555
H17 C16 1_555 1_555
C17 C18 1_555 1_555
C18 C21 1_555 1_555
C19 C17 1_555 1_555
H18 C19 1_555 1_555
H19 C19 1_555 1_555
H20 C19 1_555 1_555
C20 C17 1_555 1_555
H21 C20 1_555 1_555
H22 C20 1_555 1_555
H23 C20 1_555 1_555
C21 H24 1_555 1_555
H25 C21 1_555 1_555
H26 C21 1_555 1_555
C22 C18 1_555 1_555
H27 C22 1_555 1_555
H28 C22 1_555 1_555
H29 C22 1_555 1_555
C23 C3 1_555 1_555
H30 C23 1_555 1_555
H31 C23 1_555 1_555
H32 C23 1_555 1_555
B1 O2 1_555 1_555
O3 B1 1_555 1_555
C2 B1 1_555 1_555
C4 C5 1_555 1_555
C7 C8 1_555 1_555
C11 C12 1_555 1_555

#END
