
#######################################################################
#
#                 Cambridge Crystallographic Data Centre
#                                CCDC 
#
#######################################################################
#
# If this CIF has been generated from an entry in the Cambridge 
# Structural Database, then it will include bibliographic, chemical, 
# crystal, experimental, refinement or atomic coordinate data resulting 
# from the CCDC's data processing and validation procedures.
#
#######################################################################

data_VACXEF
_chemical_formula_moiety         'C100 Cl22,C100 Cl18'
_chemical_name_systematic        
'docosachloro-C100-fullerene octadecachloro-C100-fullerene'
_symmetry_cell_setting           triclinic
_symmetry_space_group_name_H-M   'P -1'
_symmetry_Int_Tables_number      2
_space_group_name_Hall           '-P 1'
loop_
_symmetry_equiv_pos_site_id
_symmetry_equiv_pos_as_xyz
1 x,y,z
2 -x,-y,-z
_cell_length_a                   13.4390(10)
_cell_length_b                   13.4580(10)
_cell_length_c                   43.631(3)
_cell_angle_alpha                92.158(5)
_cell_angle_beta                 95.033(5)
_cell_angle_gamma                118.742(4)
_cell_volume                     6863.41
_exptl_crystal_colour            orange
_exptl_crystal_description       plate
_cell_formula_units_Z            2
loop_
_atom_site_label
_atom_site_type_symbol
_atom_site_fract_x
_atom_site_fract_y
_atom_site_fract_z
Cl1 Cl 0.22636(12) 0.02431(14) 0.32322(3)
Cl2 Cl 0.30654(13) -0.10218(14) 0.25181(3)
Cl3 Cl 0.22098(12) -0.09438(14) 0.39775(3)
Cl4 Cl 0.35595(13) 0.17533(14) 0.43989(3)
Cl5 Cl 0.52046(13) 0.46393(14) 0.41772(3)
Cl6 Cl 0.56744(13) 0.53953(13) 0.34046(3)
Cl7 Cl 0.56776(13) 0.07731(13) 0.21134(3)
Cl8 Cl 0.47114(13) -0.32997(13) 0.27207(3)
Cl9 Cl 0.34747(13) -0.32575(13) 0.41345(3)
Cl10 Cl 0.63622(13) 0.24134(14) 0.50885(3)
Cl11 Cl 0.81144(14) 0.53341(14) 0.48343(3)
Cl12 Cl 0.88040(14) 0.71464(13) 0.32449(4)
Cl13 Cl 1.09394(13) 0.70598(13) 0.31080(3)
Cl14 Cl 0.73211(13) -0.13208(13) 0.23806(3)
Cl15 Cl 0.61307(14) -0.23885(13) 0.46630(3)
Cl16 Cl 0.75943(13) 0.05304(14) 0.51452(3)
Cl17 Cl 1.10208(13) 0.62602(13) 0.45513(3)
Cl18 Cl 1.22381(12) 0.52832(13) 0.29320(3)
Cl19 Cl 0.91951(14) -0.16599(14) 0.42962(3)
Cl20 Cl 1.07289(13) 0.13919(14) 0.48129(3)
Cl21 Cl 1.22986(12) 0.42096(13) 0.44470(3)
Cl22 Cl 1.30665(12) 0.39096(13) 0.35960(3)
C1 C 0.4507(5) 0.1308(5) 0.31452(13)
C2 C 0.3718(5) 0.0472(5) 0.33512(13)
C3 C 0.3973(5) 0.0764(5) 0.37000(13)
C4 C 0.4526(5) 0.1771(5) 0.38697(13)
C5 C 0.5143(5) 0.2930(5) 0.37758(13)
C6 C 0.5358(5) 0.3243(5) 0.34890(13)
C7 C 0.5119(5) 0.2487(5) 0.32063(12)
C8 C 0.5947(5) 0.3162(5) 0.30078(13)
C9 C 0.6286(5) 0.2674(5) 0.27783(12)
C10 C 0.5635(5) 0.1497(5) 0.27110(12)
C11 C 0.4755(5) 0.0845(5) 0.28806(12)
C12 C 0.4356(5) -0.0403(5) 0.27949(12)
C13 C 0.4131(5) -0.1039(5) 0.30781(13)
C14 C 0.3739(5) -0.0656(5) 0.33207(13)
C15 C 0.3676(5) -0.1092(5) 0.36070(13)
C16 C 0.3652(5) -0.0326(5) 0.38604(13)
C17 C 0.4498(5) -0.0158(5) 0.41389(12)
C18 C 0.5029(5) 0.0893(5) 0.43181(12)
C19 C 0.4771(5) 0.1828(5) 0.42202(13)
C20 C 0.5778(5) 0.2997(5) 0.42997(13)
C21 C 0.5846(5) 0.3773(6) 0.40549(13)
C22 C 0.7049(5) 0.4571(5) 0.39959(13)
C23 C 0.7274(5) 0.4927(5) 0.36987(13)
C24 C 0.6280(5) 0.4439(5) 0.34428(13)
C25 C 0.6667(5) 0.4282(5) 0.31461(12)
C26 C 0.7754(5) 0.4875(5) 0.30716(13)
C27 C 0.8170(5) 0.4369(5) 0.28602(13)
C28 C 0.7463(5) 0.3261(5) 0.27124(12)
C29 C 0.7978(5) 0.2580(5) 0.26369(12)
C30 C 0.7325(5) 0.1342(5) 0.26010(12)
C31 C 0.6037(5) 0.0824(5) 0.25316(12)
C32 C 0.5376(5) -0.0330(5) 0.26498(12)
C33 C 0.5840(5) -0.0967(5) 0.27203(12)
C34 C 0.5382(5) -0.1890(5) 0.29349(13)
C35 C 0.4565(5) -0.1783(5) 0.31356(13)
C36 C 0.4558(5) -0.2146(5) 0.34291(13)
C37 C 0.4050(5) -0.1876(5) 0.36590(13)
C38 C 0.4503(5) -0.2000(5) 0.39743(13)
C39 C 0.4868(5) -0.0955(5) 0.41908(13)
C40 C 0.5804(5) -0.0666(5) 0.44144(13)
C41 C 0.6329(5) 0.0369(5) 0.45879(12)
C42 C 0.5947(5) 0.1152(5) 0.45474(12)
C43 C 0.6712(5) 0.2342(5) 0.46984(12)
C44 C 0.6634(5) 0.3242(6) 0.45190(13)
C45 C 0.7803(5) 0.4263(5) 0.45234(12)
C46 C 0.7973(5) 0.4796(5) 0.42228(13)
C47 C 0.9065(5) 0.5283(5) 0.41381(13)
C48 C 0.9269(5) 0.5626(5) 0.38434(13)
C49 C 0.8415(5) 0.5509(5) 0.36235(13)
C50 C 0.8707(5) 0.5771(5) 0.32957(13)
C51 C 0.9833(5) 0.5717(5) 0.32070(13)
C52 C 0.9363(5) 0.4831(5) 0.29335(13)
C53 C 0.9857(5) 0.4195(5) 0.28644(12)
C54 C 0.9166(5) 0.3060(5) 0.27177(12)
C55 C 0.9655(5) 0.2380(5) 0.28130(12)
C56 C 0.8989(5) 0.1206(5) 0.28287(12)
C57 C 0.7816(5) 0.0693(5) 0.26896(12)
C58 C 0.7103(5) -0.0571(5) 0.27043(12)
C59 C 0.7415(5) -0.0940(5) 0.30042(13)
C60 C 0.6470(5) -0.1672(5) 0.31305(13)
C61 C 0.6534(5) -0.1877(5) 0.34466(13)
C62 C 0.5524(5) -0.2245(5) 0.35854(13)
C63 C 0.5552(5) -0.2098(5) 0.38988(13)
C64 C 0.6591(5) -0.1617(5) 0.40930(13)
C65 C 0.6574(5) -0.1216(5) 0.44203(13)
C66 C 0.7692(5) -0.0220(5) 0.45571(13)
C67 C 0.7523(5) 0.0666(5) 0.47325(12)
C68 C 0.8348(5) 0.1868(5) 0.46694(12)
C69 C 0.7939(5) 0.2632(5) 0.46807(12)
C70 C 0.8539(5) 0.3690(5) 0.45720(12)
C71 C 0.9538(5) 0.3988(5) 0.44371(12)
C72 C 1.0004(5) 0.5060(5) 0.42818(13)
C73 C 1.0555(5) 0.4989(5) 0.40007(12)
C74 C 1.0239(5) 0.5478(5) 0.37615(13)
C75 C 1.0387(5) 0.5321(5) 0.34592(13)
C76 C 1.0870(5) 0.4617(5) 0.33966(13)
C77 C 1.0895(5) 0.4286(5) 0.30599(13)
C78 C 1.0670(5) 0.3074(5) 0.30174(13)
C79 C 1.0990(5) 0.2596(5) 0.32443(13)
C80 C 1.0336(5) 0.1406(5) 0.32649(13)
C81 C 0.9347(5) 0.0681(5) 0.30661(13)
C82 C 0.8508(5) -0.0365(5) 0.31799(13)
C83 C 0.8616(5) -0.0597(5) 0.34923(13)
C84 C 0.7613(5) -0.1344(5) 0.36349(13)
C85 C 0.7604(5) -0.1287(5) 0.39637(13)
C86 C 0.8726(5) -0.0645(5) 0.41730(13)
C87 C 0.8669(5) 0.0051(5) 0.44460(13)
C88 C 0.9685(5) 0.1234(5) 0.44902(13)
C89 C 0.9360(5) 0.2154(5) 0.45342(12)
C90 C 0.9952(5) 0.3210(5) 0.44074(12)
C91 C 1.0924(5) 0.3444(5) 0.42016(12)
C92 C 1.0930(5) 0.4217(5) 0.39457(12)
C93 C 1.1135(5) 0.4071(5) 0.36361(13)
C94 C 1.1522(5) 0.3208(5) 0.35601(13)
C95 C 1.1044(5) 0.2250(5) 0.37664(13)
C96 C 1.0436(5) 0.1183(5) 0.35815(13)
C97 C 0.9627(5) 0.0200(5) 0.36938(13)
C98 C 0.9620(5) 0.0267(5) 0.40137(13)
C99 C 1.0164(5) 0.1312(5) 0.41905(13)
C100 C 1.0795(5) 0.2334(5) 0.40608(13)
Cl23 Cl -0.14652(14) 0.13353(14) -0.00595(3)
Cl24 Cl -0.33364(13) 0.18274(14) 0.05053(3)
Cl25 Cl 0.12072(14) 0.37817(14) -0.02363(3)
Cl26 Cl 0.28367(14) 0.23416(15) -0.01825(3)
Cl27 Cl -0.39333(13) 0.05714(15) 0.12716(4)
Cl28 Cl -0.16431(14) 0.53167(14) 0.10767(4)
Cl29 Cl 0.25713(15) 0.69787(15) 0.02479(4)
Cl30 Cl 0.60869(13) 0.40549(14) 0.03522(3)
Cl31 Cl 0.30598(15) -0.13241(14) 0.14613(4)
Cl32 Cl 0.05025(15) -0.21827(15) 0.19151(4)
Cl33 Cl -0.21161(14) 0.38174(15) 0.18174(4)
Cl34 Cl 0.52349(14) 0.81606(14) 0.07824(4)
Cl35 Cl 0.70148(13) 0.66846(14) 0.08552(3)
Cl36 Cl 0.06969(14) 0.00581(15) 0.25617(3)
Cl37 Cl 0.51283(14) 0.82076(14) 0.17665(4)
Cl38 Cl 0.70078(13) 0.66451(14) 0.18062(3)
Cl39 Cl 0.59638(13) 0.38058(14) 0.21864(3)
Cl40 Cl 0.34645(14) 0.30597(16) 0.27113(3)
C101 C -0.1038(5) 0.1071(6) 0.05389(13)
C102 C -0.0516(5) 0.1952(6) 0.03077(13)
C103 C 0.0717(5) 0.2339(6) 0.02358(13)
C104 C 0.1362(5) 0.1823(5) 0.02633(13)
C105 C 0.1134(6) 0.0775(6) 0.04034(13)
C106 C 0.0197(6) 0.0066(5) 0.05386(13)
C107 C -0.0810(5) 0.0194(5) 0.06035(13)
C108 C -0.1245(5) -0.0454(5) 0.08564(14)
C109 C -0.1802(5) -0.0178(5) 0.10753(14)
C110 C -0.2091(5) 0.0656(6) 0.09966(13)
C111 C -0.1760(5) 0.1230(5) 0.07343(13)
C112 C -0.1987(5) 0.2229(6) 0.07432(14)
C113 C -0.1040(5) 0.3244(6) 0.06311(14)
C114 C -0.0432(5) 0.3082(5) 0.04077(13)
C115 C 0.0556(5) 0.3984(6) 0.03302(13)
C116 C 0.1288(5) 0.3595(6) 0.01784(13)
C117 C 0.2534(5) 0.4261(6) 0.03201(13)
C118 C 0.3197(5) 0.3710(6) 0.03406(13)
C119 C 0.2634(6) 0.2461(6) 0.02225(13)
C120 C 0.3115(6) 0.1844(5) 0.04068(13)
C121 C 0.2217(5) 0.0834(5) 0.05003(13)
C122 C 0.2395(5) 0.0287(5) 0.07519(14)
C123 C 0.1402(5) -0.0487(5) 0.08946(14)
C124 C 0.0334(6) -0.0641(6) 0.07637(14)
C125 C -0.0588(5) -0.0994(6) 0.09434(15)
C126 C -0.0481(5) -0.1229(5) 0.12436(14)
C127 C -0.1021(6) -0.0924(6) 0.14735(14)
C128 C -0.1628(5) -0.0346(6) 0.13981(14)
C129 C -0.1563(5) 0.0491(6) 0.16267(14)
C130 C -0.1738(5) 0.1436(6) 0.15419(13)
C131 C -0.2399(5) 0.1297(6) 0.12288(14)
C132 C -0.2073(5) 0.2386(6) 0.10830(14)
C133 C -0.1578(5) 0.3376(6) 0.12466(14)
C134 C -0.0901(5) 0.4479(6) 0.11086(14)
C135 C -0.0567(5) 0.4319(6) 0.07982(14)
C136 C 0.0472(6) 0.5192(6) 0.07268(14)
C137 C 0.1004(6) 0.5053(6) 0.04803(14)
C138 C 0.2248(6) 0.5902(6) 0.05187(14)
C139 C 0.2965(6) 0.5343(6) 0.04800(14)
C140 C 0.4032(6) 0.5825(6) 0.06595(14)
C141 C 0.4676(5) 0.5296(5) 0.06740(13)
C142 C 0.4277(5) 0.4229(6) 0.05139(13)
C143 C 0.4948(5) 0.3618(6) 0.05945(14)
C144 C 0.4168(5) 0.2357(5) 0.05711(14)
C145 C 0.4339(5) 0.1889(6) 0.08461(14)
C146 C 0.3512(5) 0.0856(6) 0.09318(14)
C147 C 0.3587(5) 0.0704(5) 0.12517(14)
C148 C 0.2659(6) -0.0229(5) 0.13970(14)
C149 C 0.1497(5) -0.0727(5) 0.12129(14)
C150 C 0.0572(6) -0.1123(5) 0.13791(15)
C151 C 0.0654(6) -0.0941(6) 0.17300(15)
C152 C -0.0344(5) -0.0716(5) 0.17626(14)
C153 C -0.0287(5) 0.0065(6) 0.19778(14)
C154 C -0.0885(5) 0.0666(6) 0.19106(14)
C155 C -0.0278(5) 0.1763(6) 0.20790(13)
C156 C -0.0310(5) 0.2720(6) 0.19691(13)
C157 C -0.1164(5) 0.2485(6) 0.17083(13)
C158 C -0.1197(5) 0.3511(6) 0.15891(14)
C159 C -0.0031(5) 0.4524(6) 0.16120(14)
C160 C 0.0136(5) 0.5072(6) 0.13483(14)
C161 C 0.1256(6) 0.5839(5) 0.12790(14)
C162 C 0.1375(6) 0.5990(6) 0.09653(14)
C163 C 0.2427(6) 0.6376(6) 0.08559(14)
C164 C 0.3401(5) 0.6660(5) 0.10642(14)
C165 C 0.4423(6) 0.6765(5) 0.09197(14)
C166 C 0.5184(5) 0.6468(5) 0.11292(14)
C167 C 0.5578(5) 0.5764(6) 0.09546(14)
C168 C 0.5561(5) 0.4802(5) 0.11243(14)
C169 C 0.5367(5) 0.3865(6) 0.09409(14)
C170 C 0.5052(5) 0.2835(6) 0.10742(14)
C171 C 0.4923(5) 0.2743(5) 0.13891(13)
C172 C 0.4242(5) 0.1638(6) 0.14689(14)
C173 C 0.3663(5) 0.1449(6) 0.17440(14)
C174 C 0.2699(6) 0.0370(5) 0.17039(14)
C175 C 0.1763(5) 0.0107(6) 0.18589(14)
C176 C 0.1855(5) 0.0972(6) 0.20718(13)
C177 C 0.0763(6) 0.0765(6) 0.22126(13)
C178 C 0.0715(6) 0.1847(6) 0.22550(13)
C179 C 0.1654(5) 0.2863(6) 0.23104(13)
C180 C 0.1638(6) 0.3843(6) 0.22044(13)
C181 C 0.0684(5) 0.3804(6) 0.20376(13)
C182 C 0.0911(6) 0.4712(6) 0.18329(14)
C183 C 0.2016(6) 0.5525(6) 0.17798(14)
C184 C 0.2221(6) 0.6076(5) 0.14925(14)
C185 C 0.3323(5) 0.6556(5) 0.13777(14)
C186 C 0.4356(5) 0.6736(5) 0.15895(14)
C187 C 0.5148(5) 0.6455(5) 0.14287(14)
C188 C 0.5528(5) 0.5763(5) 0.16247(14)
C189 C 0.5457(5) 0.4753(5) 0.14459(13)
C190 C 0.5106(5) 0.3709(5) 0.15835(13)
C191 C 0.4720(5) 0.3546(6) 0.19122(14)
C192 C 0.3760(5) 0.2331(6) 0.19411(13)
C193 C 0.2827(5) 0.2049(6) 0.21169(13)
C194 C 0.2843(5) 0.3001(6) 0.23184(13)
C195 C 0.3472(5) 0.4128(6) 0.21837(13)
C196 C 0.2773(6) 0.4633(6) 0.21486(13)
C197 C 0.2987(6) 0.5487(6) 0.19479(13)
C198 C 0.4048(6) 0.5939(5) 0.18343(13)
C199 C 0.4691(5) 0.5401(6) 0.18576(13)
C200 C 0.4369(5) 0.4412(6) 0.20087(13)
Cl41? Cl 0.480(6) 0.501(7) 0.4974(18)
Cl42? Cl 0.583(3) 0.390(3) 0.4821(6)
loop_
_geom_bond_atom_site_label_1
_geom_bond_atom_site_label_2
_geom_bond_site_symmetry_1
_geom_bond_site_symmetry_2
Cl1 C2 1_555 1_555
Cl2 C12 1_555 1_555
Cl3 C16 1_555 1_555
Cl4 C19 1_555 1_555
Cl5 C21 1_555 1_555
Cl6 C24 1_555 1_555
Cl7 C31 1_555 1_555
Cl8 C34 1_555 1_555
Cl9 C38 1_555 1_555
Cl10 C43 1_555 1_555
Cl11 C45 1_555 1_555
Cl12 C50 1_555 1_555
Cl13 C51 1_555 1_555
Cl14 C58 1_555 1_555
Cl15 C65 1_555 1_555
Cl16 C67 1_555 1_555
Cl17 C72 1_555 1_555
Cl18 C77 1_555 1_555
Cl19 C86 1_555 1_555
Cl20 C88 1_555 1_555
Cl21 C91 1_555 1_555
Cl22 C94 1_555 1_555
C1 C2 1_555 1_555
C2 C3 1_555 1_555
C3 C4 1_555 1_555
C4 C5 1_555 1_555
C5 C6 1_555 1_555
C6 C7 1_555 1_555
C7 C1 1_555 1_555
C8 C7 1_555 1_555
C9 C8 1_555 1_555
C10 C9 1_555 1_555
C11 C1 1_555 1_555
C12 C11 1_555 1_555
C13 C12 1_555 1_555
C14 C2 1_555 1_555
C15 C14 1_555 1_555
C16 C3 1_555 1_555
C17 C16 1_555 1_555
C18 C17 1_555 1_555
C19 C4 1_555 1_555
C20 C19 1_555 1_555
C21 C5 1_555 1_555
C22 C21 1_555 1_555
C23 C22 1_555 1_555
C24 C6 1_555 1_555
C25 C8 1_555 1_555
C26 C25 1_555 1_555
C27 C26 1_555 1_555
C28 C9 1_555 1_555
C29 C28 1_555 1_555
C30 C29 1_555 1_555
C31 C10 1_555 1_555
C32 C12 1_555 1_555
C33 C32 1_555 1_555
C34 C33 1_555 1_555
C35 C13 1_555 1_555
C36 C35 1_555 1_555
C37 C15 1_555 1_555
C38 C37 1_555 1_555
C39 C17 1_555 1_555
C40 C39 1_555 1_555
C41 C40 1_555 1_555
C42 C18 1_555 1_555
C43 C42 1_555 1_555
C44 C20 1_555 1_555
C45 C44 1_555 1_555
C46 C22 1_555 1_555
C47 C46 1_555 1_555
C48 C47 1_555 1_555
C49 C23 1_555 1_555
C50 C26 1_555 1_555
C51 C50 1_555 1_555
C52 C27 1_555 1_555
C53 C52 1_555 1_555
C54 C29 1_555 1_555
C55 C54 1_555 1_555
C56 C55 1_555 1_555
C57 C30 1_555 1_555
C58 C33 1_555 1_555
C59 C58 1_555 1_555
C60 C34 1_555 1_555
C61 C60 1_555 1_555
C62 C36 1_555 1_555
C63 C38 1_555 1_555
C64 C63 1_555 1_555
C65 C40 1_555 1_555
C66 C65 1_555 1_555
C67 C41 1_555 1_555
C68 C67 1_555 1_555
C69 C43 1_555 1_555
C70 C45 1_555 1_555
C71 C70 1_555 1_555
C72 C47 1_555 1_555
C73 C72 1_555 1_555
C74 C48 1_555 1_555
C75 C51 1_555 1_555
C76 C75 1_555 1_555
C77 C53 1_555 1_555
C78 C55 1_555 1_555
C79 C78 1_555 1_555
C80 C79 1_555 1_555
C81 C56 1_555 1_555
C82 C59 1_555 1_555
C83 C82 1_555 1_555
C84 C61 1_555 1_555
C85 C64 1_555 1_555
C86 C85 1_555 1_555
C87 C66 1_555 1_555
C88 C87 1_555 1_555
C89 C68 1_555 1_555
C90 C71 1_555 1_555
C91 C90 1_555 1_555
C92 C73 1_555 1_555
C93 C76 1_555 1_555
C94 C79 1_555 1_555
C95 C94 1_555 1_555
C96 C80 1_555 1_555
C97 C83 1_555 1_555
C98 C86 1_555 1_555
C99 C88 1_555 1_555
C100 C91 1_555 1_555
Cl23 C102 1_555 1_555
Cl24 C112 1_555 1_555
Cl25 C116 1_555 1_555
Cl26 C119 1_555 1_555
Cl27 C131 1_555 1_555
Cl28 C134 1_555 1_555
Cl29 C138 1_555 1_555
Cl30 C143 1_555 1_555
Cl31 C148 1_555 1_555
Cl32 C151 1_555 1_555
Cl33 C158 1_555 1_555
Cl34 C165 1_555 1_555
Cl35 C167 1_555 1_555
Cl36 C177 1_555 1_555
Cl37 C186 1_555 1_555
Cl38 C188 1_555 1_555
Cl39 C191 1_555 1_555
Cl40 C194 1_555 1_555
C101 C102 1_555 1_555
C102 C103 1_555 1_555
C103 C104 1_555 1_555
C104 C105 1_555 1_555
C105 C106 1_555 1_555
C106 C107 1_555 1_555
C107 C101 1_555 1_555
C108 C107 1_555 1_555
C109 C108 1_555 1_555
C110 C109 1_555 1_555
C111 C101 1_555 1_555
C112 C111 1_555 1_555
C113 C112 1_555 1_555
C114 C102 1_555 1_555
C115 C114 1_555 1_555
C116 C103 1_555 1_555
C117 C116 1_555 1_555
C118 C117 1_555 1_555
C119 C104 1_555 1_555
C120 C119 1_555 1_555
C121 C105 1_555 1_555
C122 C121 1_555 1_555
C123 C122 1_555 1_555
C124 C106 1_555 1_555
C125 C108 1_555 1_555
C126 C125 1_555 1_555
C127 C126 1_555 1_555
C128 C109 1_555 1_555
C129 C128 1_555 1_555
C130 C129 1_555 1_555
C131 C110 1_555 1_555
C132 C112 1_555 1_555
C133 C132 1_555 1_555
C134 C133 1_555 1_555
C135 C113 1_555 1_555
C136 C135 1_555 1_555
C137 C115 1_555 1_555
C138 C137 1_555 1_555
C139 C117 1_555 1_555
C140 C139 1_555 1_555
C141 C140 1_555 1_555
C142 C118 1_555 1_555
C143 C142 1_555 1_555
C144 C120 1_555 1_555
C145 C144 1_555 1_555
C146 C122 1_555 1_555
C147 C146 1_555 1_555
C148 C147 1_555 1_555
C149 C123 1_555 1_555
C150 C126 1_555 1_555
C151 C150 1_555 1_555
C152 C127 1_555 1_555
C153 C152 1_555 1_555
C154 C129 1_555 1_555
C155 C154 1_555 1_555
C156 C155 1_555 1_555
C157 C130 1_555 1_555
C158 C133 1_555 1_555
C159 C158 1_555 1_555
C160 C134 1_555 1_555
C161 C160 1_555 1_555
C162 C136 1_555 1_555
C163 C138 1_555 1_555
C164 C163 1_555 1_555
C165 C140 1_555 1_555
C166 C165 1_555 1_555
C167 C141 1_555 1_555
C168 C167 1_555 1_555
C169 C143 1_555 1_555
C170 C145 1_555 1_555
C171 C170 1_555 1_555
C172 C147 1_555 1_555
C173 C172 1_555 1_555
C174 C148 1_555 1_555
C175 C151 1_555 1_555
C176 C175 1_555 1_555
C177 C153 1_555 1_555
C178 C155 1_555 1_555
C179 C178 1_555 1_555
C180 C179 1_555 1_555
C181 C156 1_555 1_555
C182 C159 1_555 1_555
C183 C182 1_555 1_555
C184 C161 1_555 1_555
C185 C164 1_555 1_555
C186 C185 1_555 1_555
C187 C166 1_555 1_555
C188 C187 1_555 1_555
C189 C168 1_555 1_555
C190 C171 1_555 1_555
C191 C190 1_555 1_555
C192 C173 1_555 1_555
C193 C176 1_555 1_555
C194 C179 1_555 1_555
C195 C194 1_555 1_555
C196 C180 1_555 1_555
C197 C183 1_555 1_555
C198 C186 1_555 1_555
C199 C188 1_555 1_555
C200 C191 1_555 1_555
C10 C11 1_555 1_555
C13 C14 1_555 1_555
C15 C16 1_555 1_555
C18 C19 1_555 1_555
C20 C21 1_555 1_555
C23 C24 1_555 1_555
C24 C25 1_555 1_555
C27 C28 1_555 1_555
C30 C31 1_555 1_555
C31 C32 1_555 1_555
C34 C35 1_555 1_555
C36 C37 1_555 1_555
C38 C39 1_555 1_555
C41 C42 1_555 1_555
C43 C44 1_555 1_555
C45 C46 1_555 1_555
C48 C49 1_555 1_555
C49 C50 1_555 1_555
C51 C52 1_555 1_555
C53 C54 1_555 1_555
C56 C57 1_555 1_555
C57 C58 1_555 1_555
C59 C60 1_555 1_555
C61 C62 1_555 1_555
C62 C63 1_555 1_555
C64 C65 1_555 1_555
C66 C67 1_555 1_555
C68 C69 1_555 1_555
C69 C70 1_555 1_555
C71 C72 1_555 1_555
C73 C74 1_555 1_555
C74 C75 1_555 1_555
C76 C77 1_555 1_555
C77 C78 1_555 1_555
C80 C81 1_555 1_555
C81 C82 1_555 1_555
C83 C84 1_555 1_555
C84 C85 1_555 1_555
C86 C87 1_555 1_555
C88 C89 1_555 1_555
C89 C90 1_555 1_555
C91 C92 1_555 1_555
C92 C93 1_555 1_555
C93 C94 1_555 1_555
C95 C96 1_555 1_555
C95 C100 1_555 1_555
C96 C97 1_555 1_555
C97 C98 1_555 1_555
C98 C99 1_555 1_555
C99 C100 1_555 1_555
C110 C111 1_555 1_555
C113 C114 1_555 1_555
C115 C116 1_555 1_555
C118 C119 1_555 1_555
C120 C121 1_555 1_555
C123 C124 1_555 1_555
C124 C125 1_555 1_555
C127 C128 1_555 1_555
C130 C131 1_555 1_555
C131 C132 1_555 1_555
C134 C135 1_555 1_555
C136 C137 1_555 1_555
C138 C139 1_555 1_555
C141 C142 1_555 1_555
C143 C144 1_555 1_555
C145 C146 1_555 1_555
C148 C149 1_555 1_555
C149 C150 1_555 1_555
C151 C152 1_555 1_555
C153 C154 1_555 1_555
C156 C157 1_555 1_555
C157 C158 1_555 1_555
C159 C160 1_555 1_555
C161 C162 1_555 1_555
C162 C163 1_555 1_555
C164 C165 1_555 1_555
C166 C167 1_555 1_555
C168 C169 1_555 1_555
C169 C170 1_555 1_555
C171 C172 1_555 1_555
C173 C174 1_555 1_555
C174 C175 1_555 1_555
C176 C177 1_555 1_555
C177 C178 1_555 1_555
C180 C181 1_555 1_555
C181 C182 1_555 1_555
C183 C184 1_555 1_555
C184 C185 1_555 1_555
C186 C187 1_555 1_555
C188 C189 1_555 1_555
C189 C190 1_555 1_555
C191 C192 1_555 1_555
C192 C193 1_555 1_555
C193 C194 1_555 1_555
C195 C196 1_555 1_555
C195 C200 1_555 1_555
C196 C197 1_555 1_555
C197 C198 1_555 1_555
C198 C199 1_555 1_555
C199 C200 1_555 1_555

#END
