
#######################################################################
#
#                 Cambridge Crystallographic Data Centre
#                                CCDC 
#
#######################################################################
#
# If this CIF has been generated from an entry in the Cambridge 
# Structural Database, then it will include bibliographic, chemical, 
# crystal, experimental, refinement or atomic coordinate data resulting 
# from the CCDC's data processing and validation procedures.
#
#######################################################################

data_VACYIK
_chemical_formula_moiety         'C23 H24 Br1 N1 O2'
_chemical_name_systematic        
3-((4-bromophenyl)(hydroxy)methyl)-2-t-butyl-3,10b-dihydropyrido[2,1-a]isoindol-6(4H)-one
_symmetry_cell_setting           orthorhombic
_symmetry_space_group_name_H-M   'P c c a'
_symmetry_Int_Tables_number      54
_space_group_name_Hall           '-P 2a 2ac'
loop_
_symmetry_equiv_pos_site_id
_symmetry_equiv_pos_as_xyz
1 x,y,z
2 1/2-x,-y,z
3 -x,y,1/2-z
4 1/2+x,-y,1/2-z
5 -x,-y,-z
6 1/2+x,y,-z
7 x,-y,1/2+z
8 1/2-x,y,1/2+z
_cell_length_a                   18.065(3)
_cell_length_b                   14.248(2)
_cell_length_c                   15.821(2)
_cell_angle_alpha                90
_cell_angle_beta                 90
_cell_angle_gamma                90
_cell_volume                     4072.17
_exptl_crystal_colour            colorless
_exptl_crystal_description       prism
_cell_formula_units_Z            8
loop_
_atom_site_label
_atom_site_type_symbol
_atom_site_fract_x
_atom_site_fract_y
_atom_site_fract_z
Br1 Br 0.59773(2) 0.15556(3) 0.63808(3)
O1 O 0.60157(9) 0.61903(13) 0.82499(11)
O2 O 0.54924(10) 0.63723(14) 0.64029(12)
H1 H 0.5066 0.6174 0.6393
N1 N 0.67983(11) 0.69416(14) 0.73253(12)
C1 C 0.70404(13) 0.61742(18) 0.67947(15)
H2 H 0.6881 0.5585 0.7041
H3 H 0.7577 0.6170 0.6769
C2 C 0.67241(13) 0.62602(18) 0.58906(15)
H4 H 0.7039 0.5874 0.5525
C3 C 0.67828(12) 0.72651(19) 0.55644(15)
C4 C 0.68923(14) 0.79741(19) 0.60970(17)
H5 H 0.6923 0.8573 0.5867
C5 C 0.69711(14) 0.78889(17) 0.70388(15)
H6 H 0.7483 0.8038 0.7196
C6 C 0.64556(14) 0.84773(17) 0.75622(16)
C7 C 0.63801(18) 0.9445(2) 0.7605(2)
H7 H 0.6673 0.9837 0.7275
C8 C 0.5860(2) 0.9807(2) 0.8151(2)
H8 H 0.5797 1.0454 0.8185
C9 C 0.5427(2) 0.9224(2) 0.86514(19)
H9 H 0.5078 0.9486 0.9014
C10 C 0.55071(18) 0.8262(2) 0.86192(16)
H10 H 0.5217 0.7870 0.8953
C11 C 0.60376(13) 0.78971(18) 0.80688(15)
C12 C 0.62551(13) 0.69089(17) 0.79106(14)
C13 C 0.67079(15) 0.7457(2) 0.46050(16)
C14 C 0.6949(2) 0.6609(3) 0.40728(18)
H11 H 0.6622 0.6092 0.4179
H12 H 0.7446 0.6435 0.4223
H13 H 0.6932 0.6771 0.3484
C15 C 0.59012(16) 0.7712(3) 0.43991(19)
H14 H 0.5584 0.7198 0.4550
H15 H 0.5855 0.7837 0.3805
H16 H 0.5761 0.8260 0.4713
C16 C 0.7185(2) 0.8309(2) 0.43401(19)
H17 H 0.7159 0.8388 0.3738
H18 H 0.7690 0.8203 0.4504
H19 H 0.7003 0.8864 0.4614
C17 C 0.59320(13) 0.5854(2) 0.58263(16)
H20 H 0.5746 0.5972 0.5254
C18 C 0.59211(13) 0.48050(19) 0.59785(16)
C19 C 0.57810(15) 0.4420(2) 0.67694(17)
H21 H 0.5670 0.4812 0.7222
C20 C 0.58040(16) 0.3458(2) 0.6892(2)
H22 H 0.5710 0.3205 0.7423
C21 C 0.59681(14) 0.2879(2) 0.6218(2)
C22 C 0.61089(16) 0.3234(2) 0.5432(2)
H23 H 0.6220 0.2838 0.4982
C23 C 0.60826(15) 0.4198(2) 0.53178(17)
H24 H 0.6176 0.4444 0.4784
loop_
_geom_bond_atom_site_label_1
_geom_bond_atom_site_label_2
_geom_bond_site_symmetry_1
_geom_bond_site_symmetry_2
Br1 C21 1_555 1_555
O1 C12 1_555 1_555
O2 H1 1_555 1_555
N1 C1 1_555 1_555
C1 H2 1_555 1_555
H3 C1 1_555 1_555
C2 C1 1_555 1_555
H4 C2 1_555 1_555
C3 C2 1_555 1_555
C4 C3 1_555 1_555
H5 C4 1_555 1_555
C5 N1 1_555 1_555
H6 C5 1_555 1_555
C6 C5 1_555 1_555
C7 C6 1_555 1_555
H7 C7 1_555 1_555
C8 C7 1_555 1_555
H8 C8 1_555 1_555
C9 C8 1_555 1_555
H9 C9 1_555 1_555
C10 C9 1_555 1_555
H10 C10 1_555 1_555
C11 C6 1_555 1_555
C12 N1 1_555 1_555
C13 C3 1_555 1_555
C14 C13 1_555 1_555
H11 C14 1_555 1_555
H12 C14 1_555 1_555
H13 C14 1_555 1_555
C15 C13 1_555 1_555
H14 C15 1_555 1_555
H15 C15 1_555 1_555
H16 C15 1_555 1_555
C16 C13 1_555 1_555
H17 C16 1_555 1_555
H18 C16 1_555 1_555
H19 C16 1_555 1_555
C17 O2 1_555 1_555
H20 C17 1_555 1_555
C18 C17 1_555 1_555
C19 C18 1_555 1_555
H21 C19 1_555 1_555
C20 C19 1_555 1_555
H22 C20 1_555 1_555
C21 C20 1_555 1_555
C22 C21 1_555 1_555
H23 C22 1_555 1_555
C23 C18 1_555 1_555
H24 C23 1_555 1_555
C2 C17 1_555 1_555
C4 C5 1_555 1_555
C10 C11 1_555 1_555
C11 C12 1_555 1_555
C22 C23 1_555 1_555

#END
