
#######################################################################
#
#                 Cambridge Crystallographic Data Centre
#                                CCDC 
#
#######################################################################
#
# If this CIF has been generated from an entry in the Cambridge 
# Structural Database, then it will include bibliographic, chemical, 
# crystal, experimental, refinement or atomic coordinate data resulting 
# from the CCDC's data processing and validation procedures.
#
#######################################################################

data_VACYEG
_chemical_formula_moiety         'C22 H30 B1 N1 O3'
_chemical_name_systematic        
2-t-butyl-1-(4,4,5,5-tetramethyl-1,3,2-dioxaborolan-2-yl)-1,10b-dihydropyrido[2,1-a]isoindol-6(4H)-one
_symmetry_cell_setting           monoclinic
_symmetry_space_group_name_H-M   'P 21/c'
_symmetry_Int_Tables_number      14
_space_group_name_Hall           '-P 2ybc'
loop_
_symmetry_equiv_pos_site_id
_symmetry_equiv_pos_as_xyz
1 x,y,z
2 -x,1/2+y,1/2-z
3 -x,-y,-z
4 x,1/2-y,1/2+z
_cell_length_a                   17.486(3)
_cell_length_b                   12.8415(19)
_cell_length_c                   9.1968(14)
_cell_angle_alpha                90
_cell_angle_beta                 104.204(3)
_cell_angle_gamma                90
_cell_volume                     2001.97
_exptl_crystal_colour            colorless
_exptl_crystal_description       prism
_cell_formula_units_Z            4
loop_
_atom_site_label
_atom_site_type_symbol
_atom_site_fract_x
_atom_site_fract_y
_atom_site_fract_z
O1 O 0.40305(3) 0.63980(4) 0.04373(6)
O2 O 0.27162(4) 0.51325(4) 0.62491(6)
O3 O 0.21514(4) 0.37336(4) 0.48851(6)
N1 N 0.34527(3) 0.63892(4) 0.24445(6)
C1 C 0.29526(4) 0.72954(5) 0.21102(8)
H1 H 0.2936 0.7541 0.1083
H2 H 0.3172 0.7862 0.2820
C2 C 0.21316(4) 0.70397(5) 0.22310(7)
H3 H 0.1738 0.7557 0.1909
C3 C 0.19060(3) 0.61447(4) 0.27533(7)
C4 C 0.25126(3) 0.52936(4) 0.33761(6)
H4 H 0.2454 0.4748 0.2581
C5 C 0.33693(3) 0.57096(4) 0.36643(6)
H5 H 0.3521 0.6085 0.4646
C6 C 0.39574(3) 0.48625(4) 0.35960(6)
C7 C 0.42013(4) 0.40147(5) 0.45313(7)
H6 H 0.4006 0.3909 0.5397
C8 C 0.47406(4) 0.33213(5) 0.41662(7)
H7 H 0.4915 0.2736 0.4793
C9 C 0.50277(4) 0.34765(5) 0.28898(7)
H8 H 0.5389 0.2991 0.2654
C10 C 0.47907(4) 0.43349(5) 0.19603(7)
H9 H 0.4987 0.4447 0.1098
C11 C 0.42562(3) 0.50212(4) 0.23406(6)
C12 C 0.39189(4) 0.59996(4) 0.15885(6)
C13 C 0.10311(4) 0.59011(5) 0.26268(7)
C14 C 0.04789(4) 0.66933(7) 0.16475(10)
H10 H 0.0572 0.7385 0.2108
H11 H -0.0070 0.6489 0.1561
H12 H 0.0582 0.6713 0.0648
C15 C 0.08484(4) 0.59012(7) 0.41801(9)
H13 H 0.0955 0.6594 0.4633
H14 H 0.1182 0.5386 0.4825
H15 H 0.0292 0.5724 0.4072
C16 C 0.08318(4) 0.48229(6) 0.18985(9)
H16 H 0.0269 0.4679 0.1774
H17 H 0.1144 0.4289 0.2542
H18 H 0.0956 0.4815 0.0915
C17 C 0.26087(4) 0.43897(5) 0.73845(7)
C18 C 0.22163(4) 0.34160(5) 0.64306(7)
C19 C 0.20978(6) 0.49258(7) 0.82853(9)
H19 H 0.2375 0.5538 0.8792
H20 H 0.1991 0.4441 0.9034
H21 H 0.1599 0.5143 0.7609
C20 C 0.34185(4) 0.41799(6) 0.84084(8)
H22 H 0.3764 0.3884 0.7821
H23 H 0.3369 0.3687 0.9193
H24 H 0.3645 0.4834 0.8871
C21 C 0.13926(5) 0.31508(8) 0.65791(13)
H25 H 0.1057 0.3771 0.6364
H26 H 0.1420 0.2912 0.7603
H27 H 0.1169 0.2598 0.5866
C22 C 0.27128(5) 0.24334(5) 0.66933(10)
H28 H 0.2450 0.1887 0.6006
H29 H 0.2777 0.2200 0.7731
H30 H 0.3232 0.2578 0.6513
B1 B 0.24381(4) 0.47182(5) 0.48638(7)
loop_
_geom_bond_atom_site_label_1
_geom_bond_atom_site_label_2
_geom_bond_site_symmetry_1
_geom_bond_site_symmetry_2
O1 C12 1_555 1_555
O2 C17 1_555 1_555
O3 C18 1_555 1_555
N1 C1 1_555 1_555
C1 H1 1_555 1_555
H2 C1 1_555 1_555
C2 C1 1_555 1_555
H3 C2 1_555 1_555
C3 C2 1_555 1_555
C4 C3 1_555 1_555
H4 C4 1_555 1_555
C5 N1 1_555 1_555
H5 C5 1_555 1_555
C6 C5 1_555 1_555
C7 C6 1_555 1_555
H6 C7 1_555 1_555
C8 C7 1_555 1_555
H7 C8 1_555 1_555
C9 C8 1_555 1_555
H8 C9 1_555 1_555
C10 C9 1_555 1_555
H9 C10 1_555 1_555
C11 C6 1_555 1_555
C12 N1 1_555 1_555
C13 C3 1_555 1_555
C14 C13 1_555 1_555
H10 C14 1_555 1_555
H11 C14 1_555 1_555
H12 C14 1_555 1_555
C15 C13 1_555 1_555
H13 C15 1_555 1_555
H14 C15 1_555 1_555
H15 C15 1_555 1_555
C16 C13 1_555 1_555
H16 C16 1_555 1_555
H17 C16 1_555 1_555
H18 C16 1_555 1_555
C17 C18 1_555 1_555
C18 C21 1_555 1_555
C19 C17 1_555 1_555
H19 C19 1_555 1_555
H20 C19 1_555 1_555
H21 C19 1_555 1_555
C20 C17 1_555 1_555
H22 C20 1_555 1_555
H23 C20 1_555 1_555
H24 C20 1_555 1_555
C21 H25 1_555 1_555
H26 C21 1_555 1_555
H27 C21 1_555 1_555
C22 C18 1_555 1_555
H28 C22 1_555 1_555
H29 C22 1_555 1_555
H30 C22 1_555 1_555
B1 O2 1_555 1_555
O3 B1 1_555 1_555
C4 C5 1_555 1_555
C4 B1 1_555 1_555
C10 C11 1_555 1_555
C11 C12 1_555 1_555

#END
