
#######################################################################
#
#                 Cambridge Crystallographic Data Centre
#                                CCDC 
#
#######################################################################
#
# If this CIF has been generated from an entry in the Cambridge 
# Structural Database, then it will include bibliographic, chemical, 
# crystal, experimental, refinement or atomic coordinate data resulting 
# from the CCDC's data processing and validation procedures.
#
#######################################################################

data_VACZIK
_chemical_formula_moiety         'C21 H14 F7 N1 S2'
_chemical_name_systematic        
5-(3,3,4,4,5,5-Hexafluoro-2-(5-(4-fluorophenyl)-2-methyl-3-thienyl)cyclopent-1-en-1-yl)-2,4-dimethyl-1,3-thiazole
_symmetry_cell_setting           monoclinic
_symmetry_space_group_name_H-M   'P 21/c'
_symmetry_Int_Tables_number      14
_space_group_name_Hall           '-P 2ybc'
loop_
_symmetry_equiv_pos_site_id
_symmetry_equiv_pos_as_xyz
1 x,y,z
2 -x,1/2+y,1/2-z
3 -x,-y,-z
4 x,1/2-y,1/2+z
_cell_length_a                   13.588(5)
_cell_length_b                   18.323(7)
_cell_length_c                   8.589(3)
_cell_angle_alpha                90
_cell_angle_beta                 106.594(4)
_cell_angle_gamma                90
_cell_volume                     2049.37
_cell_formula_units_Z            4
loop_
_atom_site_label
_atom_site_type_symbol
_atom_site_fract_x
_atom_site_fract_y
_atom_site_fract_z
C1 C 0.2760(7) 0.4254(5) 0.4004(11)
C2 C 0.2862(8) 0.3578(6) 0.3062(13)
C3 C 0.2167(8) 0.3749(5) 0.1338(12)
C4 C 0.1425(7) 0.4323(5) 0.1547(11)
C5 C 0.1922(7) 0.4635(5) 0.3188(10)
C6 C 0.3979(7) 0.5065(5) 0.5981(10)
C7 C 0.3555(6) 0.4403(4) 0.5494(10)
C8 C 0.4013(7) 0.3854(5) 0.6655(11)
H1 H 0.3802 0.3369 0.6556
C9 C 0.4789(6) 0.4108(5) 0.7922(10)
C10 C 0.3759(8) 0.5803(5) 0.5126(12)
H2 H 0.3880 0.5771 0.4080
H3 H 0.4203 0.6167 0.5768
H4 H 0.3057 0.5936 0.4992
C11 C 0.5491(8) 0.3701(5) 0.9290(11)
C12 C 0.5116(9) 0.3120(6) 0.9967(13)
H5 H 0.4422 0.3003 0.9621
C13 C 0.5794(11) 0.2709(6) 1.1180(13)
H6 H 0.5563 0.2298 1.1602
C14 C 0.6780(10) 0.2913(7) 1.1731(14)
C15 C 0.7186(8) 0.3504(7) 1.1133(12)
H7 H 0.7871 0.3642 1.1526
C16 C 0.6423(10) 0.3907(5) 0.9787(13)
H8 H 0.6636 0.4311 0.9313
C17 C 0.1460(7) 0.5264(5) 0.3788(11)
C18 C 0.1302(7) 0.5354(6) 0.5279(11)
C19 C 0.0697(9) 0.6432(7) 0.4197(14)
C20 C 0.1517(8) 0.4812(7) 0.6615(12)
H9 H 0.1428 0.4328 0.6166
H10 H 0.1053 0.4886 0.7258
H11 H 0.2211 0.4870 0.7286
C21 C 0.0299(14) 0.7183(9) 0.405(2)
H12 H -0.0234 0.7235 0.3050
H13 H 0.0846 0.7518 0.4074
H14 H 0.0027 0.7285 0.4947
F1 F 0.2478(6) 0.2987(3) 0.3607(8)
F2 F 0.3795(5) 0.3418(3) 0.3064(7)
F3 F 0.1679(5) 0.3154(4) 0.0536(9)
F4 F 0.2747(5) 0.4029(4) 0.0437(8)
F5 F 0.0497(5) 0.4016(4) 0.1526(8)
F6 F 0.1192(5) 0.4829(4) 0.0376(7)
F7 F 0.7456(7) 0.2541(5) 1.2992(11)
N1 N 0.0865(7) 0.6020(5) 0.5476(11)
S1 S 0.49480(17) 0.50344(13) 0.7751(3)
S2 S 0.1044(2) 0.60280(16) 0.2614(3)
loop_
_geom_bond_atom_site_label_1
_geom_bond_atom_site_label_2
_geom_bond_site_symmetry_1
_geom_bond_site_symmetry_2
C1 C2 1_555 1_555
C2 C3 1_555 1_555
C3 C4 1_555 1_555
C4 C5 1_555 1_555
C5 C1 1_555 1_555
C6 C7 1_555 1_555
C7 C1 1_555 1_555
C8 C7 1_555 1_555
H1 C8 1_555 1_555
C9 C8 1_555 1_555
C10 C6 1_555 1_555
H2 C10 1_555 1_555
H3 C10 1_555 1_555
H4 C10 1_555 1_555
C11 C9 1_555 1_555
C12 C11 1_555 1_555
H5 C12 1_555 1_555
C13 C12 1_555 1_555
H6 C13 1_555 1_555
C14 C13 1_555 1_555
C15 C14 1_555 1_555
H7 C15 1_555 1_555
C16 C11 1_555 1_555
H8 C16 1_555 1_555
C17 C5 1_555 1_555
C18 C17 1_555 1_555
C19 C21 1_555 1_555
C20 C18 1_555 1_555
H9 C20 1_555 1_555
H10 C20 1_555 1_555
H11 C20 1_555 1_555
C21 H12 1_555 1_555
H13 C21 1_555 1_555
H14 C21 1_555 1_555
F1 C2 1_555 1_555
F2 C2 1_555 1_555
F3 C3 1_555 1_555
F4 C3 1_555 1_555
F5 C4 1_555 1_555
F6 C4 1_555 1_555
F7 C14 1_555 1_555
N1 C18 1_555 1_555
S1 C6 1_555 1_555
S2 C17 1_555 1_555
C9 S1 1_555 1_555
C15 C16 1_555 1_555
C19 N1 1_555 1_555
C19 S2 1_555 1_555

#END
