
#######################################################################
#
#                 Cambridge Crystallographic Data Centre
#                                CCDC 
#
#######################################################################
#
# If this CIF has been generated from an entry in the Cambridge 
# Structural Database, then it will include bibliographic, chemical, 
# crystal, experimental, refinement or atomic coordinate data resulting 
# from the CCDC's data processing and validation procedures.
#
#######################################################################

data_VADCOU
_chemical_formula_moiety         'C34 H31 Br1 N2 O2'
_chemical_name_systematic        
't-Butyl \b-(4-bromophenyl)-N-(diphenylmethylene)tryptophanate'
_symmetry_cell_setting           orthorhombic
_symmetry_space_group_name_H-M   'P 21 21 21'
_symmetry_Int_Tables_number      19
_space_group_name_Hall           'P 2ac 2ab'
loop_
_symmetry_equiv_pos_site_id
_symmetry_equiv_pos_as_xyz
1 x,y,z
2 1/2-x,-y,1/2+z
3 -x,1/2+y,1/2-z
4 1/2+x,1/2-y,-z
_cell_length_a                   10.7635(12)
_cell_length_b                   10.9523(12)
_cell_length_c                   25.753(3)
_cell_angle_alpha                90
_cell_angle_beta                 90
_cell_angle_gamma                90
_cell_volume                     3035.89
_exptl_crystal_colour            colorless
_exptl_crystal_description       prismatic
_cell_formula_units_Z            4
loop_
_atom_site_label
_atom_site_type_symbol
_atom_site_fract_x
_atom_site_fract_y
_atom_site_fract_z
Br1 Br 0.73659(6) -0.30985(5) 0.76415(2)
N1 N 0.5374(4) 0.0781(4) 0.57389(15)
N2 N 0.8926(5) 0.2701(4) 0.5538(2)
O1 O 0.4416(4) 0.2981(4) 0.54993(15)
O2 O 0.5252(3) 0.3829(3) 0.61938(12)
C1 C 0.4952(5) 0.2898(5) 0.59051(19)
C2 C 0.5277(4) 0.1686(4) 0.61529(16)
H1 H 0.4599 0.1448 0.6386
C3 C 0.6484(4) 0.1742(4) 0.64665(15)
H2 H 0.6337 0.2342 0.6742
C4 C 0.7575(4) 0.2215(4) 0.61625(15)
C5 C 0.7857(4) 0.2074(4) 0.56587(18)
H3 H 0.7394 0.1617 0.5424
C6 C 0.9366(5) 0.3244(5) 0.5977(2)
C7 C 0.8519(4) 0.2968(5) 0.63751(17)
C8 C 0.8742(5) 0.3435(6) 0.6864(2)
H4 H 0.8206 0.3264 0.7138
C9 C 0.9767(6) 0.4157(8) 0.6939(3)
H5 H 0.9909 0.4501 0.7264
C10 C 1.0590(7) 0.4382(8) 0.6542(3)
H6 H 1.1300 0.4837 0.6612
C11 C 1.0408(6) 0.3968(6) 0.6058(3)
H7 H 1.0953 0.4156 0.5789
C12 C 0.4517(5) -0.0005(4) 0.56706(17)
C13 C 0.4666(4) -0.0889(4) 0.52339(17)
C14 C 0.5800(5) -0.1064(5) 0.5004(2)
H8 H 0.6490 -0.0646 0.5129
C15 C 0.5930(5) -0.1844(5) 0.4595(2)
H9 H 0.6709 -0.1965 0.4447
C16 C 0.4915(6) -0.2448(4) 0.4401(2)
H10 H 0.4999 -0.2968 0.4117
C17 C 0.3782(5) -0.2283(5) 0.4627(2)
H11 H 0.3088 -0.2692 0.4500
C18 C 0.3676(5) -0.1508(5) 0.50440(19)
H12 H 0.2903 -0.1406 0.5200
C19 C 0.3375(5) -0.0114(5) 0.59959(19)
C20 C 0.3326(6) -0.0986(5) 0.6381(2)
H13 H 0.4005 -0.1493 0.6441
C21 C 0.2261(8) -0.1103(9) 0.6678(3)
H14 H 0.2236 -0.1669 0.6947
C22 C 0.1281(10) -0.0416(10) 0.6583(4)
H15 H 0.0554 -0.0547 0.6770
C23 C 0.1312(7) 0.0468(8) 0.6223(4)
H16 H 0.0634 0.0985 0.6182
C24 C 0.2350(6) 0.0611(5) 0.5912(2)
H17 H 0.2355 0.1192 0.5649
C25 C 0.6709(4) 0.0528(4) 0.67430(18)
C26 C 0.7505(5) -0.0340(4) 0.65544(17)
H18 H 0.7917 -0.0201 0.6243
C27 C 0.7707(4) -0.1423(4) 0.6820(2)
H19 H 0.8275 -0.1991 0.6695
C28 C 0.7069(5) -0.1649(5) 0.72633(19)
C29 C 0.6271(5) -0.0818(5) 0.7456(2)
H20 H 0.5841 -0.0978 0.7762
C30 C 0.6093(5) 0.0287(5) 0.71934(19)
H21 H 0.5547 0.0863 0.7328
C31 C 0.5178(5) 0.5110(5) 0.5996(2)
C32 C 0.3872(5) 0.5478(5) 0.5930(3)
H22 H 0.3433 0.5360 0.6251
H23 H 0.3496 0.4991 0.5663
H24 H 0.3835 0.6324 0.5834
C33 C 0.5775(6) 0.5803(5) 0.6430(2)
H25 H 0.5259 0.5757 0.6734
H26 H 0.5874 0.6642 0.6330
H27 H 0.6574 0.5456 0.6505
C34 C 0.5941(6) 0.5201(6) 0.5515(3)
H28 H 0.6010 0.6041 0.5414
H29 H 0.5549 0.4745 0.5242
H30 H 0.6754 0.4874 0.5580
H31 H 0.918(5) 0.261(5) 0.5240(11)
loop_
_geom_bond_atom_site_label_1
_geom_bond_atom_site_label_2
_geom_bond_site_symmetry_1
_geom_bond_site_symmetry_2
Br1 C28 1_555 1_555
N1 C2 1_555 1_555
N2 C5 1_555 1_555
O1 C1 1_555 1_555
O2 C1 1_555 1_555
C1 C2 1_555 1_555
C2 H1 1_555 1_555
C3 C2 1_555 1_555
H2 C3 1_555 1_555
C4 C3 1_555 1_555
C5 C4 1_555 1_555
H3 C5 1_555 1_555
C6 N2 1_555 1_555
C7 C4 1_555 1_555
C8 C7 1_555 1_555
H4 C8 1_555 1_555
C9 C8 1_555 1_555
H5 C9 1_555 1_555
C10 C9 1_555 1_555
H6 C10 1_555 1_555
C11 C6 1_555 1_555
H7 C11 1_555 1_555
C12 N1 1_555 1_555
C13 C12 1_555 1_555
C14 C13 1_555 1_555
H8 C14 1_555 1_555
C15 C14 1_555 1_555
H9 C15 1_555 1_555
C16 C15 1_555 1_555
H10 C16 1_555 1_555
C17 C16 1_555 1_555
H11 C17 1_555 1_555
C18 C13 1_555 1_555
H12 C18 1_555 1_555
C19 C12 1_555 1_555
C20 C19 1_555 1_555
H13 C20 1_555 1_555
C21 C20 1_555 1_555
H14 C21 1_555 1_555
C22 C21 1_555 1_555
H15 C22 1_555 1_555
C23 C22 1_555 1_555
H16 C23 1_555 1_555
C24 C19 1_555 1_555
H17 C24 1_555 1_555
C25 C3 1_555 1_555
C26 C25 1_555 1_555
H18 C26 1_555 1_555
C27 C26 1_555 1_555
H19 C27 1_555 1_555
C28 C27 1_555 1_555
C29 C28 1_555 1_555
H20 C29 1_555 1_555
C30 C25 1_555 1_555
H21 C30 1_555 1_555
C31 O2 1_555 1_555
C32 C31 1_555 1_555
H22 C32 1_555 1_555
H23 C32 1_555 1_555
H24 C32 1_555 1_555
C33 C31 1_555 1_555
H25 C33 1_555 1_555
H26 C33 1_555 1_555
H27 C33 1_555 1_555
C34 C31 1_555 1_555
H28 C34 1_555 1_555
H29 C34 1_555 1_555
H30 C34 1_555 1_555
H31 N2 1_555 1_555
C6 C7 1_555 1_555
C10 C11 1_555 1_555
C17 C18 1_555 1_555
C23 C24 1_555 1_555
C29 C30 1_555 1_555

#END
