
#######################################################################
#
#                 Cambridge Crystallographic Data Centre
#                                CCDC 
#
#######################################################################
#
# If this CIF has been generated from an entry in the Cambridge 
# Structural Database, then it will include bibliographic, chemical, 
# crystal, experimental, refinement or atomic coordinate data resulting 
# from the CCDC's data processing and validation procedures.
#
#######################################################################

data_VADCEK
_chemical_formula_moiety         'C13 H14 Cl1 N1 O1'
_chemical_name_systematic        
5-Chloro-2,3,3a,4,5,6-hexahydro-1H-pyrrolo[1,2-a][1]benzazepin-1-one
_symmetry_cell_setting           monoclinic
_symmetry_space_group_name_H-M   'P 21/c'
_symmetry_Int_Tables_number      14
_space_group_name_Hall           '-P 2ybc'
loop_
_symmetry_equiv_pos_site_id
_symmetry_equiv_pos_as_xyz
1 x,y,z
2 -x,1/2+y,1/2-z
3 -x,-y,-z
4 x,1/2-y,1/2+z
_cell_length_a                   7.1065(4)
_cell_length_b                   6.9716(4)
_cell_length_c                   24.0669(13)
_cell_angle_alpha                90
_cell_angle_beta                 104.243(3)
_cell_angle_gamma                90
_cell_volume                     1155.71
_exptl_crystal_description       block
_cell_formula_units_Z            4
loop_
_atom_site_label
_atom_site_type_symbol
_atom_site_fract_x
_atom_site_fract_y
_atom_site_fract_z
Cl1 Cl 0.4382(2) 0.9693(2) 0.14783(6)
O1 O -0.2206(6) 0.3692(5) 0.01262(14)
N1 N -0.1322(5) 0.5948(5) 0.08332(14)
C1 C 0.2234(6) 0.8276(7) 0.14501(19)
H1 H 0.1814 0.8489 0.1804
C2 C 0.0644(7) 0.8966(7) 0.09459(19)
H2 H 0.0518 1.0346 0.0975
H3 H 0.1034 0.8701 0.0595
C3 C -0.1321(7) 0.8057(6) 0.09046(18)
H4 H -0.1787 0.8390 0.1243
C4 C -0.0582(6) 0.4696(6) 0.13040(17)
C5 C 0.1366(7) 0.4797(6) 0.15937(18)
C6 C 0.2766(6) 0.6156(7) 0.1419(2)
H5 H 0.2820 0.5860 0.1029
H6 H 0.4052 0.5947 0.1665
C7 C 0.1980(8) 0.3574(7) 0.2068(2)
H7 H 0.3272 0.3601 0.2274
C8 C 0.0706(9) 0.2331(7) 0.2235(2)
H8 H 0.1147 0.1535 0.2551
C9 C -0.1188(9) 0.2269(8) 0.1940(2)
H9 H -0.2040 0.1431 0.2054
C10 C -0.1850(8) 0.3443(7) 0.14729(19)
H10 H -0.3146 0.3396 0.1271
C11 C -0.2816(7) 0.8669(7) 0.0360(2)
H11 H -0.4099 0.8767 0.0430
H12 H -0.2470 0.9899 0.0225
C12 C -0.2766(7) 0.7109(7) -0.00738(19)
H13 H -0.4044 0.6908 -0.0326
H14 H -0.1865 0.7430 -0.0304
C13 C -0.2098(6) 0.5357(7) 0.02878(18)
loop_
_geom_bond_atom_site_label_1
_geom_bond_atom_site_label_2
_geom_bond_site_symmetry_1
_geom_bond_site_symmetry_2
Cl1 C1 1_555 1_555
O1 C13 1_555 1_555
N1 C3 1_555 1_555
C1 H1 1_555 1_555
C2 C1 1_555 1_555
H2 C2 1_555 1_555
H3 C2 1_555 1_555
C3 C2 1_555 1_555
H4 C3 1_555 1_555
C4 N1 1_555 1_555
C5 C4 1_555 1_555
C6 C1 1_555 1_555
H5 C6 1_555 1_555
H6 C6 1_555 1_555
C7 C5 1_555 1_555
H7 C7 1_555 1_555
C8 C7 1_555 1_555
H8 C8 1_555 1_555
C9 C8 1_555 1_555
H9 C9 1_555 1_555
C10 C4 1_555 1_555
H10 C10 1_555 1_555
C11 C3 1_555 1_555
H11 C11 1_555 1_555
H12 C11 1_555 1_555
C12 C11 1_555 1_555
H13 C12 1_555 1_555
H14 C12 1_555 1_555
C13 N1 1_555 1_555
C5 C6 1_555 1_555
C9 C10 1_555 1_555
C12 C13 1_555 1_555

#END
