
#######################################################################
#
#                 Cambridge Crystallographic Data Centre
#                                CCDC 
#
#######################################################################
#
# If this CIF has been generated from an entry in the Cambridge 
# Structural Database, then it will include bibliographic, chemical, 
# crystal, experimental, refinement or atomic coordinate data resulting 
# from the CCDC's data processing and validation procedures.
#
#######################################################################

data_VADGOY
_chemical_formula_moiety         'C18 H17 N1 O2 S1'
_chemical_name_systematic        
2-((4-Methylphenyl)sulfonyl)-2-phenylpent-4-enenitrile
_symmetry_cell_setting           triclinic
_symmetry_space_group_name_H-M   'P -1'
_symmetry_Int_Tables_number      2
_space_group_name_Hall           '-P 1'
loop_
_symmetry_equiv_pos_site_id
_symmetry_equiv_pos_as_xyz
1 x,y,z
2 -x,-y,-z
_cell_length_a                   8.5547(9)
_cell_length_b                   10.0913(11)
_cell_length_c                   11.0298(12)
_cell_angle_alpha                62.869(1)
_cell_angle_beta                 70.922(1)
_cell_angle_gamma                79.740(1)
_cell_volume                     800.386
_exptl_crystal_colour            colorless
_exptl_crystal_description       block
_cell_formula_units_Z            2
loop_
_atom_site_label
_atom_site_type_symbol
_atom_site_fract_x
_atom_site_fract_y
_atom_site_fract_z
S1 S 0.69172(5) 0.61700(4) 0.69705(4)
O1 O 0.67865(14) 0.48973(12) 0.83200(12)
O2 O 0.59028(14) 0.62766(13) 0.61111(13)
C1 C 0.63639(17) 0.78396(16) 0.73510(15)
C2 C 0.67178(18) 0.91319(17) 0.59443(16)
N1 N 0.70051(17) 1.01161(15) 0.48516(14)
C3 C 0.44615(18) 0.77900(17) 0.80812(16)
H1 H 0.3877 0.7740 0.7464
H2 H 0.4216 0.6884 0.8990
C4 C 0.38509(18) 0.91406(18) 0.83557(17)
H3 H 0.3802 1.0067 0.7566
C5 C 0.3379(2) 0.9123(2) 0.96235(19)
H4 H 0.3413 0.8214 1.0435
H5 H 0.3003 1.0020 0.9728
C6 C 0.89939(18) 0.64004(16) 0.59520(16)
C7 C 0.9353(2) 0.70356(18) 0.44831(17)
H6 H 0.8495 0.7284 0.4037
C8 C 1.0989(2) 0.72995(19) 0.36807(17)
H7 H 1.1248 0.7727 0.2675
C9 C 1.22619(19) 0.69511(17) 0.43176(17)
C10 C 1.1863(2) 0.63001(18) 0.57944(17)
H8 H 1.2720 0.6046 0.6243
C11 C 1.02376(19) 0.60178(17) 0.66188(17)
H9 H 0.9978 0.5569 0.7625
C12 C 1.4028(2) 0.7274(2) 0.34364(19)
H10 H 1.4681 0.7288 0.4014
H11 H 1.4070 0.8246 0.2620
H12 H 1.4484 0.6500 0.3101
C13 C 0.74212(18) 0.78221(16) 0.82352(15)
C14 C 0.88206(19) 0.86843(18) 0.76088(17)
H13 H 0.9086 0.9340 0.6626
C15 C 0.9827(2) 0.85910(19) 0.84108(18)
H14 H 1.0778 0.9180 0.7973
C16 C 0.9455(2) 0.7649(2) 0.98386(19)
H15 H 1.0155 0.7577 1.0383
C17 C 0.8045(2) 0.6803(2) 1.04780(18)
H16 H 0.7773 0.6166 1.1465
C18 C 0.70380(19) 0.68839(18) 0.96847(16)
H17 H 0.6083 0.6299 1.0129
loop_
_geom_bond_atom_site_label_1
_geom_bond_atom_site_label_2
_geom_bond_site_symmetry_1
_geom_bond_site_symmetry_2
S1 O1 1_555 1_555
O2 S1 1_555 1_555
C1 S1 1_555 1_555
C2 C1 1_555 1_555
N1 C2 1_555 1_555
C3 C1 1_555 1_555
H1 C3 1_555 1_555
H2 C3 1_555 1_555
C4 C3 1_555 1_555
H3 C4 1_555 1_555
C5 C4 1_555 1_555
H4 C5 1_555 1_555
H5 C5 1_555 1_555
C6 S1 1_555 1_555
C7 C6 1_555 1_555
H6 C7 1_555 1_555
C8 C7 1_555 1_555
H7 C8 1_555 1_555
C9 C8 1_555 1_555
C10 C9 1_555 1_555
H8 C10 1_555 1_555
C11 C6 1_555 1_555
H9 C11 1_555 1_555
C12 C9 1_555 1_555
H10 C12 1_555 1_555
H11 C12 1_555 1_555
H12 C12 1_555 1_555
C13 C1 1_555 1_555
C14 C13 1_555 1_555
H13 C14 1_555 1_555
C15 C14 1_555 1_555
H14 C15 1_555 1_555
C16 C15 1_555 1_555
H15 C16 1_555 1_555
C17 C16 1_555 1_555
H16 C17 1_555 1_555
C18 C13 1_555 1_555
H17 C18 1_555 1_555
C10 C11 1_555 1_555
C17 C18 1_555 1_555

#END
