
#######################################################################
#
#                 Cambridge Crystallographic Data Centre
#                                CCDC 
#
#######################################################################
#
# If this CIF has been generated from an entry in the Cambridge 
# Structural Database, then it will include bibliographic, chemical, 
# crystal, experimental, refinement or atomic coordinate data resulting 
# from the CCDC's data processing and validation procedures.
#
#######################################################################

data_VADGUE
_chemical_formula_moiety         'C12 H15 N1 O5'
_chemical_name_systematic        
4-Hydroxy-5-(hydroxymethyl)-4,5-dihydro-1'H,3H-spiro[furan-2,3'-pyrrolo[2,1-c][1,4]oxazine]-6'-carbaldehyde
_symmetry_cell_setting           monoclinic
_symmetry_space_group_name_H-M   'P 21'
_symmetry_Int_Tables_number      4
_space_group_name_Hall           'P 2yb'
loop_
_symmetry_equiv_pos_site_id
_symmetry_equiv_pos_as_xyz
1 x,y,z
2 -x,1/2+y,-z
_cell_length_a                   7.2060(11)
_cell_length_b                   7.0551(11)
_cell_length_c                   11.5524(17)
_cell_angle_alpha                90
_cell_angle_beta                 97.855(3)
_cell_angle_gamma                90
_cell_volume                     581.802
_exptl_crystal_colour            colorless
_exptl_crystal_description       prismatic
_cell_formula_units_Z            2
loop_
_atom_site_label
_atom_site_type_symbol
_atom_site_fract_x
_atom_site_fract_y
_atom_site_fract_z
N1 N 0.3901(3) 0.3641(4) 0.08696(17)
O1 O 0.0775(3) 0.3693(5) -0.10923(16)
O2 O 0.4270(2) 0.4175(3) 0.32163(15)
O3 O 0.3238(2) 0.1085(3) 0.28369(14)
O4 O 0.2465(3) 0.2742(4) 0.55058(17)
H1 H 0.1648 0.2961 0.5917
O5 O 0.0703(3) -0.1840(4) 0.33869(16)
H2 H 0.0672 -0.1573 0.2694
C1 C 0.2432(4) 0.3695(6) -0.1205(2)
H3 H 0.2707 0.3707 -0.1969
C2 C 0.3982(4) 0.3682(6) -0.0317(2)
C3 C 0.5864(4) 0.3791(6) -0.0455(2)
H4 H 0.6342 0.3830 -0.1162
C4 C 0.6902(4) 0.3834(6) 0.0641(2)
H5 H 0.8200 0.3905 0.0806
C5 C 0.5655(3) 0.3750(5) 0.1449(2)
C6 C 0.5955(3) 0.3761(6) 0.2748(2)
H6 H 0.6422 0.2532 0.3030
H7 H 0.6895 0.4702 0.3021
C7 C 0.2227(3) 0.3485(5) 0.1438(2)
H8 H 0.1419 0.2501 0.1062
H9 H 0.1544 0.4673 0.1362
C8 C 0.2756(3) 0.3010(4) 0.2725(2)
C9 C 0.1178(4) 0.3248(5) 0.3450(2)
H10 H -0.0018 0.2935 0.2998
H11 H 0.1128 0.4539 0.3734
C10 C 0.1655(4) 0.1870(5) 0.4456(2)
H12 H 0.0531 0.1166 0.4590
C11 C 0.3083(3) 0.0510(5) 0.4020(2)
H13 H 0.4301 0.0660 0.4505
C12 C 0.2544(4) -0.1545(5) 0.3976(2)
H14 H 0.3426 -0.2250 0.3580
H15 H 0.2619 -0.2030 0.4767
loop_
_geom_bond_atom_site_label_1
_geom_bond_atom_site_label_2
_geom_bond_site_symmetry_1
_geom_bond_site_symmetry_2
N1 C2 1_555 1_555
O1 C1 1_555 1_555
O2 C6 1_555 1_555
O3 C8 1_555 1_555
O4 H1 1_555 1_555
O5 H2 1_555 1_555
C1 H3 1_555 1_555
C2 C1 1_555 1_555
C3 C2 1_555 1_555
H4 C3 1_555 1_555
C4 C3 1_555 1_555
H5 C4 1_555 1_555
C5 N1 1_555 1_555
C6 C5 1_555 1_555
H6 C6 1_555 1_555
H7 C6 1_555 1_555
C7 N1 1_555 1_555
H8 C7 1_555 1_555
H9 C7 1_555 1_555
C8 O2 1_555 1_555
C9 C8 1_555 1_555
H10 C9 1_555 1_555
H11 C9 1_555 1_555
C10 O4 1_555 1_555
H12 C10 1_555 1_555
C11 O3 1_555 1_555
H13 C11 1_555 1_555
C12 O5 1_555 1_555
H14 C12 1_555 1_555
H15 C12 1_555 1_555
C4 C5 1_555 1_555
C7 C8 1_555 1_555
C9 C10 1_555 1_555
C10 C11 1_555 1_555
C11 C12 1_555 1_555

#END
