
#######################################################################
#
#                 Cambridge Crystallographic Data Centre
#                                CCDC 
#
#######################################################################
#
# If this CIF has been generated from an entry in the Cambridge 
# Structural Database, then it will include bibliographic, chemical, 
# crystal, experimental, refinement or atomic coordinate data resulting 
# from the CCDC's data processing and validation procedures.
#
#######################################################################

data_VADGIS
_chemical_formula_moiety         'C20 H30 N2 O4 S1 Si1'
_chemical_name_systematic        
4-Nitro-N-(2-(triisopropylsilyl)cyclopent-2-en-1-ylidene)benzenesulfonamide
_symmetry_cell_setting           monoclinic
_symmetry_space_group_name_H-M   'P 21/c'
_symmetry_Int_Tables_number      14
_space_group_name_Hall           '-P 2ybc'
loop_
_symmetry_equiv_pos_site_id
_symmetry_equiv_pos_as_xyz
1 x,y,z
2 -x,1/2+y,1/2-z
3 -x,-y,-z
4 x,1/2-y,1/2+z
_cell_length_a                   21.8780(14)
_cell_length_b                   8.1149(5)
_cell_length_c                   12.6652(8)
_cell_angle_alpha                90
_cell_angle_beta                 105.150(1)
_cell_angle_gamma                90
_cell_volume                     2170.4
_exptl_crystal_colour            colorless
_exptl_crystal_description       needle
_cell_formula_units_Z            4
loop_
_atom_site_label
_atom_site_type_symbol
_atom_site_fract_x
_atom_site_fract_y
_atom_site_fract_z
Si1 Si 0.163622(17) 0.53686(5) 0.71507(3)
C1 C 0.18238(7) 0.39752(19) 0.83891(13)
H1 H 0.1419 0.3420 0.8412
C2 C 0.20518(11) 0.4944(3) 0.94594(15)
H2 H 0.2137 0.4179 1.0079
H3 H 0.1724 0.5730 0.9526
H4 H 0.2441 0.5542 0.9457
C3 C 0.22976(9) 0.2616(2) 0.83383(16)
H5 H 0.2340 0.1872 0.8963
H6 H 0.2710 0.3109 0.8363
H7 H 0.2147 0.1994 0.7656
C4 C 0.14215(7) 0.41018(19) 0.58565(13)
H8 H 0.1790 0.3354 0.5893
C5 C 0.13397(10) 0.5115(2) 0.48062(14)
H9 H 0.1287 0.4369 0.4180
H10 H 0.1715 0.5803 0.4866
H11 H 0.0965 0.5819 0.4702
C6 C 0.08493(9) 0.2976(3) 0.57709(18)
H12 H 0.0797 0.2251 0.5135
H13 H 0.0468 0.3649 0.5687
H14 H 0.0916 0.2308 0.6436
C7 C 0.10154(7) 0.69053(19) 0.73156(14)
H15 H 0.1227 0.7598 0.7961
C8 C 0.07908(9) 0.8113(2) 0.63631(17)
H16 H 0.0547 0.9002 0.6583
H17 H 0.0523 0.7530 0.5732
H18 H 0.1159 0.8580 0.6165
C9 C 0.04426(9) 0.6115(3) 0.7609(2)
H19 H 0.0169 0.6982 0.7771
H20 H 0.0590 0.5407 0.8252
H21 H 0.0204 0.5453 0.6990
C10 C 0.23543(6) 0.66365(17) 0.71278(11)
C11 C 0.24495(7) 0.82260(19) 0.74348(13)
H22 H 0.2151 0.8842 0.7699
C12 C 0.30569(7) 0.89470(18) 0.73290(13)
H23 H 0.3339 0.9222 0.8055
H24 H 0.2981 0.9953 0.6871
C13 C 0.33403(7) 0.75745(18) 0.67778(12)
H25 H 0.3336 0.7883 0.6019
H26 H 0.3782 0.7337 0.7191
C14 C 0.29183(6) 0.61058(17) 0.67876(11)
N1 N 0.29936(5) 0.45688(15) 0.65620(10)
S1 S 0.363326(16) 0.39670(4) 0.62122(3)
O1 O 0.34991(5) 0.23293(14) 0.57875(9)
O2 O 0.38530(5) 0.51557(14) 0.55507(9)
C15 C 0.42186(6) 0.37592(17) 0.74753(11)
C16 C 0.41163(7) 0.26038(18) 0.82218(12)
H27 H 0.3729 0.2008 0.8073
C17 C 0.45786(7) 0.23257(18) 0.91781(12)
H28 H 0.4518 0.1538 0.9696
C18 C 0.51340(6) 0.32267(17) 0.93626(11)
C19 C 0.52459(7) 0.43965(18) 0.86409(12)
H29 H 0.5631 0.5000 0.8799
C20 C 0.47783(7) 0.46637(18) 0.76776(12)
H30 H 0.4840 0.5455 0.7162
N2 N 0.56232(6) 0.29175(16) 1.03897(10)
O3 O 0.55038(5) 0.19003(15) 1.10256(9)
O4 O 0.61197(5) 0.36995(15) 1.05640(9)
loop_
_geom_bond_atom_site_label_1
_geom_bond_atom_site_label_2
_geom_bond_site_symmetry_1
_geom_bond_site_symmetry_2
Si1 C1 1_555 1_555
C1 H1 1_555 1_555
C2 C1 1_555 1_555
H2 C2 1_555 1_555
H3 C2 1_555 1_555
H4 C2 1_555 1_555
C3 C1 1_555 1_555
H5 C3 1_555 1_555
H6 C3 1_555 1_555
H7 C3 1_555 1_555
C4 Si1 1_555 1_555
H8 C4 1_555 1_555
C5 C4 1_555 1_555
H9 C5 1_555 1_555
H10 C5 1_555 1_555
H11 C5 1_555 1_555
C6 C4 1_555 1_555
H12 C6 1_555 1_555
H13 C6 1_555 1_555
H14 C6 1_555 1_555
C7 Si1 1_555 1_555
H15 C7 1_555 1_555
C8 C7 1_555 1_555
H16 C8 1_555 1_555
H17 C8 1_555 1_555
H18 C8 1_555 1_555
C9 C7 1_555 1_555
H19 C9 1_555 1_555
H20 C9 1_555 1_555
H21 C9 1_555 1_555
C10 Si1 1_555 1_555
C11 C10 1_555 1_555
H22 C11 1_555 1_555
C12 C11 1_555 1_555
H23 C12 1_555 1_555
H24 C12 1_555 1_555
C13 C12 1_555 1_555
H25 C13 1_555 1_555
H26 C13 1_555 1_555
C14 C10 1_555 1_555
N1 C14 1_555 1_555
S1 N1 1_555 1_555
O1 S1 1_555 1_555
O2 S1 1_555 1_555
C15 S1 1_555 1_555
C16 C15 1_555 1_555
H27 C16 1_555 1_555
C17 C16 1_555 1_555
H28 C17 1_555 1_555
C18 C17 1_555 1_555
C19 C18 1_555 1_555
H29 C19 1_555 1_555
C20 C15 1_555 1_555
H30 C20 1_555 1_555
N2 C18 1_555 1_555
O3 N2 1_555 1_555
O4 N2 1_555 1_555
C13 C14 1_555 1_555
C19 C20 1_555 1_555

#END
