
#######################################################################
#
#                 Cambridge Crystallographic Data Centre
#                                CCDC 
#
#######################################################################
#
# If this CIF has been generated from an entry in the Cambridge 
# Structural Database, then it will include bibliographic, chemical, 
# crystal, experimental, refinement or atomic coordinate data resulting 
# from the CCDC's data processing and validation procedures.
#
#######################################################################

data_VADGEP
_chemical_formula_moiety         'C25 H9 B1 F15 N1'
_chemical_name_systematic        
tris(Pentafluorophenyl)(6-methylpyridinium-2-ylmethyl)borate
_symmetry_cell_setting           monoclinic
_symmetry_space_group_name_H-M   'P 21/c'
_symmetry_Int_Tables_number      14
_space_group_name_Hall           '-P 2ybc'
loop_
_symmetry_equiv_pos_site_id
_symmetry_equiv_pos_as_xyz
1 x,y,z
2 -x,1/2+y,1/2-z
3 -x,-y,-z
4 x,1/2-y,1/2+z
_cell_length_a                   7.690(5)
_cell_length_b                   18.994(11)
_cell_length_c                   15.963(10)
_cell_angle_alpha                90
_cell_angle_beta                 92.675(8)
_cell_angle_gamma                90
_cell_volume                     2329.08
_exptl_crystal_colour            colorless
_exptl_crystal_description       block
_cell_formula_units_Z            4
loop_
_atom_site_label
_atom_site_type_symbol
_atom_site_fract_x
_atom_site_fract_y
_atom_site_fract_z
B1 B 0.4522(3) 0.65866(13) 0.38967(15)
C1 C 0.6525(3) 0.62392(12) 0.38237(14)
H1 H 0.7307 0.6454 0.4244
H2 H 0.6477 0.5739 0.3942
C2 C 0.7232(3) 0.63440(11) 0.29844(14)
C3 C 0.7134(3) 0.58651(13) 0.23278(16)
H3 H 0.6705 0.5415 0.2415
C4 C 0.7668(3) 0.60530(15) 0.15489(18)
H4 H 0.7598 0.5727 0.1114
C5 C 0.8308(3) 0.67220(16) 0.14035(16)
H5 H 0.8626 0.6851 0.0870
C6 C 0.8466(3) 0.71890(13) 0.20523(15)
C7 C 0.9181(4) 0.79111(15) 0.19905(19)
H6 H 0.8410 0.8239 0.2241
H7 H 0.9294 0.8031 0.1411
H8 H 1.0304 0.7931 0.2279
C8 C 0.3505(3) 0.63101(12) 0.30204(13)
C9 C 0.3278(3) 0.66985(13) 0.22911(14)
C10 C 0.2594(3) 0.64324(15) 0.15425(15)
C11 C 0.2119(3) 0.57437(16) 0.14834(17)
C12 C 0.2349(3) 0.53191(14) 0.21750(17)
C13 C 0.3048(3) 0.56068(12) 0.29094(15)
C14 C 0.3631(3) 0.63000(11) 0.47576(14)
C15 C 0.1931(3) 0.60625(11) 0.48178(15)
C16 C 0.1236(3) 0.58498(12) 0.55581(17)
C17 C 0.2232(4) 0.58767(13) 0.62903(17)
C18 C 0.3904(4) 0.61213(14) 0.62786(15)
C19 C 0.4547(3) 0.63302(13) 0.55268(15)
C20 C 0.4456(3) 0.74526(12) 0.39951(13)
C21 C 0.5824(3) 0.79074(13) 0.42169(14)
C22 C 0.5678(4) 0.86233(14) 0.43010(16)
C23 C 0.4077(5) 0.89351(14) 0.41675(17)
C24 C 0.2668(4) 0.85213(15) 0.39754(16)
C25 C 0.2880(3) 0.78081(12) 0.39035(14)
F1 F 0.3760(2) 0.73815(8) 0.22729(9)
F2 F 0.2397(2) 0.68601(10) 0.08650(9)
F3 F 0.1423(3) 0.54839(11) 0.07583(11)
F4 F 0.1925(2) 0.46369(9) 0.21349(11)
F5 F 0.33132(18) 0.51506(7) 0.35553(9)
F6 F 0.08271(16) 0.60342(8) 0.41372(9)
F7 F -0.0430(2) 0.56338(9) 0.55644(11)
F8 F 0.1563(3) 0.56770(9) 0.70189(11)
F9 F 0.4883(2) 0.61638(10) 0.69953(9)
F10 F 0.61849(19) 0.65927(9) 0.55717(9)
F11 F 0.74785(18) 0.76531(8) 0.43640(9)
F12 F 0.7100(2) 0.90119(8) 0.45063(11)
F13 F 0.3934(3) 0.96350(9) 0.42338(12)
F14 F 0.1079(2) 0.88125(9) 0.38637(11)
F15 F 0.14093(18) 0.74317(8) 0.37202(9)
N1 N 0.7943(2) 0.69748(11) 0.28107(13)
H9 H 0.814(4) 0.7276(14) 0.3271(18)
loop_
_geom_bond_atom_site_label_1
_geom_bond_atom_site_label_2
_geom_bond_site_symmetry_1
_geom_bond_site_symmetry_2
B1 C1 1_555 1_555
C1 H1 1_555 1_555
H2 C1 1_555 1_555
C2 C1 1_555 1_555
C3 C2 1_555 1_555
H3 C3 1_555 1_555
C4 C3 1_555 1_555
H4 C4 1_555 1_555
C5 C4 1_555 1_555
H5 C5 1_555 1_555
C6 C5 1_555 1_555
C7 C6 1_555 1_555
H6 C7 1_555 1_555
H7 C7 1_555 1_555
H8 C7 1_555 1_555
C8 B1 1_555 1_555
C9 C8 1_555 1_555
C10 C9 1_555 1_555
C11 C10 1_555 1_555
C12 C11 1_555 1_555
C13 C8 1_555 1_555
C14 B1 1_555 1_555
C15 C14 1_555 1_555
C16 C15 1_555 1_555
C17 C16 1_555 1_555
C18 C17 1_555 1_555
C19 C14 1_555 1_555
C20 B1 1_555 1_555
C21 C20 1_555 1_555
C22 C21 1_555 1_555
C23 C22 1_555 1_555
C24 C23 1_555 1_555
C25 C20 1_555 1_555
F1 C9 1_555 1_555
F2 C10 1_555 1_555
F3 C11 1_555 1_555
F4 C12 1_555 1_555
F5 C13 1_555 1_555
F6 C15 1_555 1_555
F7 C16 1_555 1_555
F8 C17 1_555 1_555
F9 C18 1_555 1_555
F10 C19 1_555 1_555
F11 C21 1_555 1_555
F12 C22 1_555 1_555
F13 C23 1_555 1_555
F14 C24 1_555 1_555
F15 C25 1_555 1_555
N1 C2 1_555 1_555
H9 N1 1_555 1_555
C6 N1 1_555 1_555
C12 C13 1_555 1_555
C18 C19 1_555 1_555
C24 C25 1_555 1_555

#END
