
#######################################################################
#
#                 Cambridge Crystallographic Data Centre
#                                CCDC 
#
#######################################################################
#
# If this CIF has been generated from an entry in the Cambridge 
# Structural Database, then it will include bibliographic, chemical, 
# crystal, experimental, refinement or atomic coordinate data resulting 
# from the CCDC's data processing and validation procedures.
#
#######################################################################

data_VADHEQ
_chemical_formula_moiety         'C20 H15 N3 O3'
_chemical_name_systematic        
5-(3-Nitrophenyl)-2-(quinolin-8-yl)-2-azabicyclo[2.2.0]hexan-3-one
_symmetry_cell_setting           monoclinic
_symmetry_space_group_name_H-M   'I 2/a'
_symmetry_Int_Tables_number      15
_space_group_name_Hall           '-I 2ya'
loop_
_symmetry_equiv_pos_site_id
_symmetry_equiv_pos_as_xyz
1 x,y,z
2 1/2-x,y,-z
3 1/2+x,1/2+y,1/2+z
4 -x,1/2+y,1/2-z
5 -x,-y,-z
6 1/2+x,-y,z
7 1/2-x,1/2-y,1/2-z
8 x,1/2-y,1/2+z
_cell_length_a                   13.6461(19)
_cell_length_b                   10.7230(15)
_cell_length_c                   22.268(4)
_cell_angle_alpha                90
_cell_angle_beta                 90.915(2)
_cell_angle_gamma                90
_cell_volume                     3258
_exptl_crystal_colour            yellow
_exptl_crystal_description       block
_cell_formula_units_Z            8
loop_
_atom_site_label
_atom_site_type_symbol
_atom_site_fract_x
_atom_site_fract_y
_atom_site_fract_z
O1 O 0.5989(2) 0.6066(3) 0.48435(11)
N1 N 0.5898(2) 0.6911(3) 0.38643(12)
C1 C 0.6881(3) 0.8256(3) 0.32167(14)
O2 O 0.3951(4) 0.5991(4) 0.63971(16)
C2 C 0.3822(3) 0.7843(4) 0.47869(18)
N2 N 0.6078(2) 0.8446(3) 0.28673(13)
C3 C 0.3829(3) 0.7184(4) 0.41939(16)
H1 H 0.3164 0.6888 0.4100
N3 N 0.3861(3) 0.7106(4) 0.64228(16)
C4 C 0.3860(3) 0.7184(4) 0.53238(17)
H2 H 0.3914 0.6319 0.5322
C5 C 0.4958(3) 0.6770(3) 0.35371(16)
H3 H 0.4949 0.6333 0.3150
C6 C 0.7606(3) 0.7237(4) 0.40918(15)
H4 H 0.7552 0.6723 0.4426
C7 C 0.4567(3) 0.6080(3) 0.41024(15)
H5 H 0.4318 0.5226 0.4063
C8 C 0.3817(3) 0.7824(4) 0.58580(18)
C9 C 0.8611(3) 0.8532(4) 0.34729(18)
H6 H 0.9219 0.8878 0.3392
C10 C 0.6800(3) 0.7457(3) 0.37315(14)
C11 C 0.7812(3) 0.8784(3) 0.30937(16)
C12 C 0.7852(4) 0.9564(4) 0.25821(19)
H7 H 0.8440 0.9945 0.2482
C13 C 0.5574(3) 0.6299(3) 0.43732(15)
C14 C 0.7045(4) 0.9758(4) 0.22397(19)
H8 H 0.7068 1.0273 0.1904
C15 C 0.4238(3) 0.7845(4) 0.36329(18)
H9 H 0.3760 0.7938 0.3309
H10 H 0.4556 0.8634 0.3722
C16 C 0.6175(4) 0.9174(4) 0.23973(17)
H11 H 0.5626 0.9307 0.2153
C17 C 0.3763(4) 0.9103(4) 0.5896(2)
H12 H 0.3748 0.9510 0.6265
C18 C 0.8503(3) 0.7781(4) 0.39597(18)
H13 H 0.9042 0.7627 0.4210
C19 C 0.3732(4) 0.9751(4) 0.5361(3)
H14 H 0.3690 1.0616 0.5368
C20 C 0.3762(4) 0.9140(4) 0.4816(2)
H15 H 0.3743 0.9601 0.4462
O3 O 0.3811(4) 0.7663(4) 0.68911(16)
loop_
_geom_bond_atom_site_label_1
_geom_bond_atom_site_label_2
_geom_bond_site_symmetry_1
_geom_bond_site_symmetry_2
O1 C13 1_555 1_555
N1 C5 1_555 1_555
C1 N2 1_555 1_555
O2 N3 1_555 1_555
C2 C3 1_555 1_555
N2 C16 1_555 1_555
C3 H1 1_555 1_555
N3 C8 1_555 1_555
C4 C2 1_555 1_555
H2 C4 1_555 1_555
C5 H3 1_555 1_555
C6 H4 1_555 1_555
C7 C3 1_555 1_555
H5 C7 1_555 1_555
C8 C4 1_555 1_555
C9 H6 1_555 1_555
C10 N1 1_555 1_555
C11 C1 1_555 1_555
C12 C11 1_555 1_555
H7 C12 1_555 1_555
C13 N1 1_555 1_555
C14 C12 1_555 1_555
H8 C14 1_555 1_555
C15 C3 1_555 1_555
H9 C15 1_555 1_555
H10 C15 1_555 1_555
C16 C14 1_555 1_555
H11 C16 1_555 1_555
C17 C8 1_555 1_555
H12 C17 1_555 1_555
C18 C6 1_555 1_555
H13 C18 1_555 1_555
C19 C17 1_555 1_555
H14 C19 1_555 1_555
C20 C2 1_555 1_555
H15 C20 1_555 1_555
O3 N3 1_555 1_555
C1 C10 1_555 1_555
C5 C7 1_555 1_555
C5 C15 1_555 1_555
C6 C10 1_555 1_555
C7 C13 1_555 1_555
C9 C11 1_555 1_555
C9 C18 1_555 1_555
C19 C20 1_555 1_555

#END
