
#######################################################################
#
#                 Cambridge Crystallographic Data Centre
#                                CCDC 
#
#######################################################################
#
# If this CIF has been generated from an entry in the Cambridge 
# Structural Database, then it will include bibliographic, chemical, 
# crystal, experimental, refinement or atomic coordinate data resulting 
# from the CCDC's data processing and validation procedures.
#
#######################################################################

data_VADHAM
_chemical_formula_moiety         'C15 H10 N2 O3'
_chemical_name_systematic        3-(Benzoyloxy)quinazolin-4(3H)-one
_symmetry_cell_setting           monoclinic
_symmetry_space_group_name_H-M   'P 21/n'
_symmetry_Int_Tables_number      14
_space_group_name_Hall           '-P 2yn'
loop_
_symmetry_equiv_pos_site_id
_symmetry_equiv_pos_as_xyz
1 x,y,z
2 1/2-x,1/2+y,1/2-z
3 -x,-y,-z
4 1/2+x,1/2-y,1/2+z
_cell_length_a                   6.8611(4)
_cell_length_b                   18.3584(11)
_cell_length_c                   9.5657(6)
_cell_angle_alpha                90
_cell_angle_beta                 90.0894(7)
_cell_angle_gamma                90
_cell_volume                     1204.88
_exptl_crystal_colour            colorless
_exptl_crystal_description       block
_cell_formula_units_Z            4
loop_
_atom_site_label
_atom_site_type_symbol
_atom_site_fract_x
_atom_site_fract_y
_atom_site_fract_z
O1 O 0.4931(6) 0.5854(2) 0.4452(3)
O2 O 0.8152(4) 0.52809(12) 0.3297(2)
O3 O 0.7783(6) 0.6309(5) 0.1959(9)
N1 N 1.0382(4) 0.63881(14) 0.5916(3)
N2 N 0.8242(4) 0.57652(15) 0.4428(3)
C1 C 0.8724(3) 0.67006(11) 0.6531(2)
C2 C 0.9034(3) 0.71795(14) 0.7634(3)
H1 H 1.0323 0.7281 0.7940
C3 C 0.7458(4) 0.75093(14) 0.8290(3)
H2 H 0.7670 0.7837 0.9045
C4 C 0.5571(3) 0.73602(13) 0.7842(3)
H3 H 0.4494 0.7586 0.8291
C5 C 0.5261(3) 0.68814(12) 0.6739(2)
H4 H 0.3971 0.6779 0.6433
C6 C 0.6837(4) 0.65515(11) 0.60829(19)
C7 C 0.6494(5) 0.60338(18) 0.4931(4)
C8 C 1.0101(8) 0.5943(3) 0.4895(4)
H5 H 1.1197 0.5730 0.4447
C9 C 0.7855(5) 0.5654(3) 0.2010(6)
C10 C 0.7720(5) 0.5122(3) 0.0874(5)
C11 C 0.7344(4) 0.5411(2) -0.0442(5)
H6 H 0.7272 0.5924 -0.0564
C12 C 0.7074(4) 0.4950(2) -0.1579(4)
H7 H 0.6817 0.5148 -0.2478
C13 C 0.7179(4) 0.4200(2) -0.1400(4)
H8 H 0.6994 0.3885 -0.2177
C14 C 0.7555(4) 0.3911(2) -0.0084(5)
H9 H 0.7626 0.3398 0.0038
C15 C 0.7825(4) 0.4371(3) 0.1053(4)
H10 H 0.8082 0.4174 0.1952
O4? O 1.0010(8) 0.5847(3) 0.4449(4)
O5? O 0.6788(5) 0.52780(15) 0.3304(3)
O6? O 0.7163(9) 0.6303(7) 0.2023(13)
N3? N 0.4581(5) 0.63763(18) 0.5929(4)
N4? N 0.6713(5) 0.5752(2) 0.4427(4)
C16? C 0.6236(4) 0.66936(15) 0.6533(3)
C17? C 0.5936(4) 0.71762(18) 0.7631(4)
H11? H 0.4650 0.7275 0.7945
C18? C 0.7516(5) 0.75138(18) 0.8270(4)
H12? H 0.7311 0.7844 0.9021
C19? C 0.9398(4) 0.73688(17) 0.7811(3)
H13? H 1.0478 0.7600 0.8248
C20? C 0.9698(4) 0.68862(16) 0.6713(3)
H14? H 1.0984 0.6787 0.6399
C21? C 0.8117(5) 0.65486(14) 0.6074(2)
C22? C 0.8476(6) 0.6036(2) 0.4936(5)
C23? C 0.4875(11) 0.5930(4) 0.4921(6)
H15? H 0.3775 0.5711 0.4488
C24? C 0.7098(7) 0.5659(4) 0.2050(8)
C25? C 0.7262(7) 0.5153(4) 0.0851(6)
C26? C 0.7616(6) 0.5432(3) -0.0475(7)
H16? H 0.7659 0.5944 -0.0616
C27? C 0.7906(5) 0.4962(3) -0.1595(6)
H17? H 0.8148 0.5153 -0.2502
C28? C 0.7843(5) 0.4213(3) -0.1389(6)
H18? H 0.8042 0.3892 -0.2155
C29? C 0.7489(6) 0.3934(3) -0.0063(7)
H19? H 0.7446 0.3422 0.0078
C30? C 0.7199(6) 0.4403(5) 0.1057(6)
H20? H 0.6957 0.4213 0.1963
loop_
_geom_bond_atom_site_label_1
_geom_bond_atom_site_label_2
_geom_bond_site_symmetry_1
_geom_bond_site_symmetry_2
O1 C7 1_555 1_555
O2 N2 1_555 1_555
O3 C9 1_555 1_555
N1 C1 1_555 1_555
N2 C7 1_555 1_555
C1 C2 1_555 1_555
C2 H1 1_555 1_555
C3 C2 1_555 1_555
H2 C3 1_555 1_555
C4 C3 1_555 1_555
H3 C4 1_555 1_555
C5 C4 1_555 1_555
H4 C5 1_555 1_555
C6 C1 1_555 1_555
C7 C6 1_555 1_555
C8 N1 1_555 1_555
H5 C8 1_555 1_555
C9 O2 1_555 1_555
C10 C9 1_555 1_555
C11 C10 1_555 1_555
H6 C11 1_555 1_555
C12 C11 1_555 1_555
H7 C12 1_555 1_555
C13 C12 1_555 1_555
H8 C13 1_555 1_555
C14 C13 1_555 1_555
H9 C14 1_555 1_555
C15 C10 1_555 1_555
H10 C15 1_555 1_555
N2 C8 1_555 1_555
C5 C6 1_555 1_555
C14 C15 1_555 1_555

#END
