
#######################################################################
#
#                 Cambridge Crystallographic Data Centre
#                                CCDC 
#
#######################################################################
#
# If this CIF has been generated from an entry in the Cambridge 
# Structural Database, then it will include bibliographic, chemical, 
# crystal, experimental, refinement or atomic coordinate data resulting 
# from the CCDC's data processing and validation procedures.
#
#######################################################################

data_VADHUF
_chemical_formula_moiety         'C18 H15 N1 O3'
_chemical_name_systematic        
2-(Methylamino)-3-(phenylacetyl)-4H-chromen-4-one
_symmetry_cell_setting           triclinic
_symmetry_space_group_name_H-M   'P -1'
_symmetry_Int_Tables_number      2
_space_group_name_Hall           '-P 1'
loop_
_symmetry_equiv_pos_site_id
_symmetry_equiv_pos_as_xyz
1 x,y,z
2 -x,-y,-z
_cell_length_a                   6.8760(2)
_cell_length_b                   10.0689(3)
_cell_length_c                   11.7443(4)
_cell_angle_alpha                68.4160(10)
_cell_angle_beta                 73.9990(10)
_cell_angle_gamma                72.3670(10)
_cell_volume                     708.083
_exptl_crystal_colour            colorless
_exptl_crystal_description       block
_cell_formula_units_Z            2
loop_
_atom_site_label
_atom_site_type_symbol
_atom_site_fract_x
_atom_site_fract_y
_atom_site_fract_z
N1 N 0.17946(15) 0.25460(11) 0.58106(9)
H1 H 0.1653 0.3482 0.5381
O1 O 0.25415(17) 0.10695(11) 0.22521(9)
O2 O 0.24032(12) 0.02190(9) 0.59532(7)
O3 O 0.15270(14) 0.45376(9) 0.36690(8)
C1 C 0.3950(2) 0.61537(16) 0.11801(13)
H2 H 0.4970 0.5538 0.1669
C2 C 0.4036(3) 0.76047(17) 0.05546(14)
H3 H 0.5100 0.7979 0.0620
C3 C 0.2570(3) 0.85063(17) -0.01650(14)
H4 H 0.2617 0.9504 -0.0593
C4 C 0.1044(3) 0.79562(17) -0.02608(14)
H5 H 0.0046 0.8571 -0.0766
C5 C 0.0953(3) 0.65013(16) 0.03788(13)
H6 H -0.0119 0.6134 0.0315
C6 C 0.2411(2) 0.55804(14) 0.11086(11)
C7 C 0.2366(2) 0.39911(14) 0.17661(12)
H7 H 0.3706 0.3380 0.1477
H8 H 0.1259 0.3769 0.1523
C8 C 0.19931(18) 0.35599(13) 0.31754(11)
C9 C 0.29210(18) -0.18360(14) 0.38375(13)
H9 H 0.2946 -0.1683 0.2986
C10 C 0.31013(19) -0.32330(14) 0.46710(15)
H10 H 0.3250 -0.4039 0.4393
C11 C 0.30662(19) -0.34625(14) 0.59156(14)
H11 H 0.3195 -0.4429 0.6483
C12 C 0.28468(19) -0.23056(14) 0.63406(13)
H12 H 0.2826 -0.2461 0.7192
C13 C 0.26581(17) -0.09111(13) 0.54856(12)
C14 C 0.27008(17) -0.06410(13) 0.42389(12)
C15 C 0.25000(18) 0.08727(14) 0.33574(11)
C16 C 0.22233(17) 0.20135(13) 0.39001(11)
C17 C 0.21275(16) 0.16184(12) 0.51967(11)
C18 C 0.1643(2) 0.21382(14) 0.71482(11)
H13 H 0.1390 0.3020 0.7386
H14 H 0.2943 0.1474 0.7382
H15 H 0.0492 0.1645 0.7579
loop_
_geom_bond_atom_site_label_1
_geom_bond_atom_site_label_2
_geom_bond_site_symmetry_1
_geom_bond_site_symmetry_2
N1 H1 1_555 1_555
O1 C15 1_555 1_555
O2 C13 1_555 1_555
O3 C8 1_555 1_555
C1 H2 1_555 1_555
C2 C1 1_555 1_555
H3 C2 1_555 1_555
C3 C2 1_555 1_555
H4 C3 1_555 1_555
C4 C3 1_555 1_555
H5 C4 1_555 1_555
C5 C4 1_555 1_555
H6 C5 1_555 1_555
C6 C1 1_555 1_555
C7 C6 1_555 1_555
H7 C7 1_555 1_555
H8 C7 1_555 1_555
C8 C7 1_555 1_555
C9 H9 1_555 1_555
C10 C9 1_555 1_555
H10 C10 1_555 1_555
C11 C10 1_555 1_555
H11 C11 1_555 1_555
C12 C11 1_555 1_555
H12 C12 1_555 1_555
C13 C12 1_555 1_555
C14 C9 1_555 1_555
C15 C14 1_555 1_555
C16 C8 1_555 1_555
C17 N1 1_555 1_555
C18 N1 1_555 1_555
H13 C18 1_555 1_555
H14 C18 1_555 1_555
H15 C18 1_555 1_555
O2 C17 1_555 1_555
C5 C6 1_555 1_555
C13 C14 1_555 1_555
C15 C16 1_555 1_555
C16 C17 1_555 1_555

#END
