
#######################################################################
#
#                 Cambridge Crystallographic Data Centre
#                                CCDC 
#
#######################################################################
#
# If this CIF has been generated from an entry in the Cambridge 
# Structural Database, then it will include bibliographic, chemical, 
# crystal, experimental, refinement or atomic coordinate data resulting 
# from the CCDC's data processing and validation procedures.
#
#######################################################################

data_VADXIH
_chemical_formula_moiety         'C13 H18 O4 S1'
_chemical_name_systematic        'trans-2-Hydroxycyclohexyl toluenesulfonate'
_symmetry_cell_setting           monoclinic
_symmetry_space_group_name_H-M   'P 21/c'
_symmetry_Int_Tables_number      14
_space_group_name_Hall           '-P 2ybc'
loop_
_symmetry_equiv_pos_site_id
_symmetry_equiv_pos_as_xyz
1 x,y,z
2 -x,1/2+y,1/2-z
3 -x,-y,-z
4 x,1/2-y,1/2+z
_cell_length_a                   5.680(1)
_cell_length_b                   18.656(4)
_cell_length_c                   12.761(3)
_cell_angle_alpha                90
_cell_angle_beta                 94.25(2)
_cell_angle_gamma                90
_cell_volume                     1348.51
_exptl_crystal_colour            colorless
_chemical_melting_point          368-369K
_cell_formula_units_Z            4
loop_
_atom_site_label
_atom_site_type_symbol
_atom_site_fract_x
_atom_site_fract_y
_atom_site_fract_z
S1 S 0.4338(1) 0.6601(1) 0.3015(1)
O1 O 0.4988(3) 0.6465(1) 0.4213(1)
O2 O 0.7574(3) 0.5295(1) 0.5126(2)
O3 O 0.5667(3) 0.7191(1) 0.2660(1)
O4 O 0.1820(3) 0.6631(1) 0.2939(1)
C1 C 0.7451(4) 0.6556(1) 0.4650(2)
C2 C 0.7793(4) 0.6008(1) 0.5523(2)
C3 C 1.0204(4) 0.6100(1) 0.6095(2)
C4 C 1.0602(5) 0.6857(1) 0.6510(2)
C5 C 1.0261(5) 0.7389(1) 0.5623(2)
C6 C 0.7825(5) 0.7315(1) 0.5051(2)
C7 C 0.5216(4) 0.5821(1) 0.2381(2)
C8 C 0.3883(5) 0.5205(1) 0.2424(2)
C9 C 0.4497(5) 0.4601(1) 0.1897(2)
C10 C 0.6458(5) 0.4595(2) 0.1314(2)
C11 C 0.7776(5) 0.5208(2) 0.1295(2)
C12 C 0.7191(5) 0.5824(2) 0.1816(2)
C13 C 0.7141(7) 0.3927(2) 0.0729(3)
H1 H 0.6261(31) 0.5198(16) 0.5176(23)
H2 H 0.8577 0.6482 0.4135
H3 H 0.6584 0.6085 0.5998
H4 H 1.0345 0.5772 0.6676
H5 H 1.1387 0.5992 0.5618
H6 H 1.2182 0.6897 0.6828
H7 H 0.9496 0.6957 0.7024
H8 H 1.0433 0.7866 0.5903
H9 H 1.1438 0.7307 0.5134
H10 H 0.7692 0.7641 0.4468
H11 H 0.6645 0.7427 0.5527
H12 H 0.2517 0.5199 0.2824
H13 H 0.3554 0.4175 0.1933
H14 H 0.9158 0.5209 0.0905
H15 H 0.8143 0.6248 0.1784
H16 H 0.8791 0.3831 0.0884
H17 H 0.6841 0.4016 -0.0009
H18 H 0.6236 0.3521 0.0926
loop_
_geom_bond_atom_site_label_1
_geom_bond_atom_site_label_2
_geom_bond_site_symmetry_1
_geom_bond_site_symmetry_2
S1 O1 1_555 1_555
O1 C1 1_555 1_555
O2 C2 1_555 1_555
O3 S1 1_555 1_555
O4 S1 1_555 1_555
C1 C2 1_555 1_555
C2 C3 1_555 1_555
C3 C4 1_555 1_555
C4 C5 1_555 1_555
C5 C6 1_555 1_555
C6 C1 1_555 1_555
C7 S1 1_555 1_555
C8 C7 1_555 1_555
C9 C8 1_555 1_555
C10 C9 1_555 1_555
C11 C10 1_555 1_555
C12 C7 1_555 1_555
C13 C10 1_555 1_555
H1 O2 1_555 1_555
H2 C1 1_555 1_555
H3 C2 1_555 1_555
H4 C3 1_555 1_555
H5 C3 1_555 1_555
H6 C4 1_555 1_555
H7 C4 1_555 1_555
H8 C5 1_555 1_555
H9 C5 1_555 1_555
H10 C6 1_555 1_555
H11 C6 1_555 1_555
H12 C8 1_555 1_555
H13 C9 1_555 1_555
H14 C11 1_555 1_555
H15 C12 1_555 1_555
H16 C13 1_555 1_555
H17 C13 1_555 1_555
H18 C13 1_555 1_555
C11 C12 1_555 1_555

#END
