
#######################################################################
#
#                 Cambridge Crystallographic Data Centre
#                                CCDC 
#
#######################################################################
#
# If this CIF has been generated from an entry in the Cambridge 
# Structural Database, then it will include bibliographic, chemical, 
# crystal, experimental, refinement or atomic coordinate data resulting 
# from the CCDC's data processing and validation procedures.
#
#######################################################################

data_VADZEF
_chemical_formula_moiety         'C13 H14 N2 O7'
_chemical_name_systematic        'trans-2-Hydroxycyclohexyl 2,4-dinitrobenzoate'
_symmetry_cell_setting           triclinic
_symmetry_space_group_name_H-M   'P -1'
_symmetry_Int_Tables_number      2
_space_group_name_Hall           '-P 1'
loop_
_symmetry_equiv_pos_site_id
_symmetry_equiv_pos_as_xyz
1 x,y,z
2 -x,-y,-z
_cell_length_a                   7.562(2)
_cell_length_b                   8.352(2)
_cell_length_c                   12.790(2)
_cell_angle_alpha                91.73(2)
_cell_angle_beta                 100.83(2)
_cell_angle_gamma                116.33(1)
_cell_volume                     705.151
_exptl_crystal_colour            'pale yellow'
_chemical_melting_point          357-359K
_cell_formula_units_Z            2
loop_
_atom_site_label
_atom_site_type_symbol
_atom_site_fract_x
_atom_site_fract_y
_atom_site_fract_z
C1 C 0.3483(2) -0.0770(2) 0.2035(1)
C2 C 0.4722(2) -0.1605(2) 0.1688(1)
C3 C 0.3380(3) -0.3245(2) 0.0865(1)
C4 C 0.2209(3) -0.2797(2) -0.0078(1)
C5 C 0.0988(3) -0.1947(2) 0.0277(1)
C6 C 0.2324(3) -0.0291(2) 0.1108(1)
O1 O 0.4930(2) 0.0875(1) 0.2768(1)
O2 O 0.5676(2) -0.2136(1) 0.2584(1)
C7 C 0.4235(2) 0.1464(2) 0.3487(1)
O3 O 0.2571(2) 0.0693(2) 0.3659(1)
C8 C 0.5824(2) 0.3210(2) 0.4148(1)
C9 C 0.7058(2) 0.4748(2) 0.3748(1)
C10 C 0.8499(2) 0.6291(2) 0.4403(1)
C11 C 0.8679(2) 0.6275(2) 0.5493(1)
C12 C 0.7484(3) 0.4801(2) 0.5933(1)
C13 C 0.6063(3) 0.3281(2) 0.5251(1)
N1 N 0.6806(3) 0.4817(2) 0.2582(1)
O4 O 0.5097(2) 0.4011(2) 0.2027(1)
O5 O 0.8315(3) 0.5699(2) 0.2250(1)
N2 N 1.0224(2) 0.7902(2) 0.6217(1)
O6 O 1.0407(2) 0.7868(2) 0.7182(1)
O7 O 1.1236(2) 0.9202(2) 0.5804(1)
H1 H 0.2482 -0.1620 0.2369
H2 H 0.5739 -0.0719 0.1380
H3 H 0.4209 -0.3694 0.0608
H4 H 0.2438 -0.4154 0.1200
H5 H 0.1305 -0.3886 -0.0552
H6 H 0.3148 -0.1973 -0.0453
H7 H 0.0367 -0.1593 -0.0336
H8 H -0.0043 -0.2813 0.0587
H9 H 0.1490 0.0147 0.1370
H10 H 0.3265 0.0629 0.0778
H11 H 0.6603(26) -0.1244(22) 0.2932(13)
H12 H 0.9343 0.7335 0.4111
H13 H 0.7636 0.4832 0.6697
H14 H 0.5217 0.2245 0.5548
loop_
_geom_bond_atom_site_label_1
_geom_bond_atom_site_label_2
_geom_bond_site_symmetry_1
_geom_bond_site_symmetry_2
C1 C2 1_555 1_555
C2 C3 1_555 1_555
C3 C4 1_555 1_555
C4 C5 1_555 1_555
C5 C6 1_555 1_555
C6 C1 1_555 1_555
O1 C1 1_555 1_555
O2 C2 1_555 1_555
C7 O1 1_555 1_555
O3 C7 1_555 1_555
C8 C7 1_555 1_555
C9 C8 1_555 1_555
C10 C9 1_555 1_555
C11 C10 1_555 1_555
C12 C11 1_555 1_555
C13 C8 1_555 1_555
N1 C9 1_555 1_555
O4 N1 1_555 1_555
O5 N1 1_555 1_555
N2 C11 1_555 1_555
O6 N2 1_555 1_555
O7 N2 1_555 1_555
H1 C1 1_555 1_555
H2 C2 1_555 1_555
H3 C3 1_555 1_555
H4 C3 1_555 1_555
H5 C4 1_555 1_555
H6 C4 1_555 1_555
H7 C5 1_555 1_555
H8 C5 1_555 1_555
H9 C6 1_555 1_555
H10 C6 1_555 1_555
H11 O2 1_555 1_555
H12 C10 1_555 1_555
H13 C12 1_555 1_555
H14 C13 1_555 1_555
C12 C13 1_555 1_555

#END
