
#######################################################################
#
#                 Cambridge Crystallographic Data Centre
#                                CCDC 
#
#######################################################################
#
# If this CIF has been generated from an entry in the Cambridge 
# Structural Database, then it will include bibliographic, chemical, 
# crystal, experimental, refinement or atomic coordinate data resulting 
# from the CCDC's data processing and validation procedures.
#
#######################################################################

data_VADZAB
_chemical_formula_moiety         'C13 H15 N1 O5'
_chemical_name_systematic        'trans-2-Hydroxycyclohexyl 4-nitrobenzoate'
_symmetry_cell_setting           triclinic
_symmetry_space_group_name_H-M   'P -1'
_symmetry_Int_Tables_number      2
_space_group_name_Hall           '-P 1'
loop_
_symmetry_equiv_pos_site_id
_symmetry_equiv_pos_as_xyz
1 x,y,z
2 -x,-y,-z
_cell_length_a                   5.659(2)
_cell_length_b                   8.167(2)
_cell_length_c                   14.167(4)
_cell_angle_alpha                91.94(3)
_cell_angle_beta                 101.37(2)
_cell_angle_gamma                90.81(2)
_cell_volume                     641.394
_exptl_crystal_colour            'colorless-pale yellow'
_chemical_melting_point          369-370K
_cell_formula_units_Z            2
loop_
_atom_site_label
_atom_site_type_symbol
_atom_site_fract_x
_atom_site_fract_y
_atom_site_fract_z
C1 C 0.2563(2) 0.2158(2) 0.7492(1)
C2 C 0.5140(2) 0.1703(2) 0.7898(1)
C3 C 0.5348(3) 0.1292(2) 0.8947(1)
C4 C 0.4589(3) 0.2716(2) 0.9527(1)
C5 C 0.2026(3) 0.3210(2) 0.9106(1)
C6 C 0.1774(3) 0.3597(2) 0.8044(1)
C7 C 0.0669(2) 0.2530(2) 0.4847(1)
C8 C 0.2741(3) 0.3223(2) 0.4627(1)
C9 C 0.2932(3) 0.3382(2) 0.3673(1)
C10 C 0.1044(3) 0.2811(2) 0.2962(1)
C11 C -0.1040(3) 0.2142(2) 0.3157(1)
C12 C -0.1220(2) 0.2005(2) 0.4112(1)
N1 N 0.1312(2) 0.2894(2) 0.1947(1)
O1 O 0.3066(2) 0.3622(2) 0.1781(1)
O2 O -0.0244(2) 0.2238(2) 0.1332(1)
C13 C 0.0418(2) 0.2271(2) 0.5862(1)
O3 O 0.2481(2) 0.2555(1) 0.6485(1)
O4 O 0.5850(2) 0.0329(1) 0.7383(1)
O5 O -0.1448(2) 0.1833(2) 0.6074(1)
H1 H 0.1478 0.1267 0.7544
H2 H 0.6180 0.2616 0.7838
H3 H 0.6992 0.1040 0.9212
H4 H 0.4329 0.0357 0.8985
H5 H 0.4673 0.2400 1.0179
H6 H 0.5664 0.3634 0.9519
H7 H 0.0934 0.2326 0.9164
H8 H 0.1638 0.4164 0.9455
H9 H 0.2762 0.4540 0.7989
H10 H 0.0119 0.3821 0.7780
H11 H 0.4042 0.3592 0.5136
H12 H 0.4342 0.3877 0.3512
H13 H -0.2338 0.1780 0.2645
H14 H -0.2660 0.1544 0.4267
H15 H 0.6401(27) 0.0683(19) 0.6972(11)
loop_
_geom_bond_atom_site_label_1
_geom_bond_atom_site_label_2
_geom_bond_site_symmetry_1
_geom_bond_site_symmetry_2
C1 C2 1_555 1_555
C2 C3 1_555 1_555
C3 C4 1_555 1_555
C4 C5 1_555 1_555
C5 C6 1_555 1_555
C6 C1 1_555 1_555
C7 C8 1_555 1_555
C8 C9 1_555 1_555
C9 C10 1_555 1_555
C10 C11 1_555 1_555
C11 C12 1_555 1_555
C12 C7 1_555 1_555
N1 C10 1_555 1_555
O1 N1 1_555 1_555
O2 N1 1_555 1_555
C13 C7 1_555 1_555
O3 C1 1_555 1_555
O4 C2 1_555 1_555
O5 C13 1_555 1_555
H1 C1 1_555 1_555
H2 C2 1_555 1_555
H3 C3 1_555 1_555
H4 C3 1_555 1_555
H5 C4 1_555 1_555
H6 C4 1_555 1_555
H7 C5 1_555 1_555
H8 C5 1_555 1_555
H9 C6 1_555 1_555
H10 C6 1_555 1_555
H11 C8 1_555 1_555
H12 C9 1_555 1_555
H13 C11 1_555 1_555
H14 C12 1_555 1_555
H15 O4 1_555 1_555
C13 O3 1_555 1_555

#END
