
#######################################################################
#
#                 Cambridge Crystallographic Data Centre
#                                CCDC 
#
#######################################################################
#
# If this CIF has been generated from an entry in the Cambridge 
# Structural Database, then it will include bibliographic, chemical, 
# crystal, experimental, refinement or atomic coordinate data resulting 
# from the CCDC's data processing and validation procedures.
#
#######################################################################

data_VAFCOW
_chemical_formula_moiety         'C16 H15 N1 O1 S2'
_chemical_name_systematic        
3-Benzyl-4-hydroxy-4-phenyl-1,3-thiazolidine-2-thione
_symmetry_cell_setting           monoclinic
_symmetry_space_group_name_H-M   'C 2/c'
_symmetry_Int_Tables_number      15
_space_group_name_Hall           '-C 2yn'
loop_
_symmetry_equiv_pos_site_id
_symmetry_equiv_pos_as_xyz
1 x,y,z
2 -x,y,1/2-z
3 1/2+x,1/2+y,z
4 1/2-x,1/2+y,1/2-z
5 -x,-y,-z
6 x,-y,1/2+z
7 1/2-x,1/2-y,-z
8 1/2+x,1/2-y,1/2+z
_cell_length_a                   17.024(3)
_cell_length_b                   9.4054(19)
_cell_length_c                   19.180(4)
_cell_angle_alpha                90
_cell_angle_beta                 107.00(3)
_cell_angle_gamma                90
_cell_volume                     2936.86
_exptl_crystal_colour            colorless
_exptl_crystal_description       block
_cell_formula_units_Z            8
loop_
_atom_site_label
_atom_site_type_symbol
_atom_site_fract_x
_atom_site_fract_y
_atom_site_fract_z
S1 S 0.04481(2) 0.30258(5) 0.01785(2)
S2 S -0.00736(3) 0.43042(6) 0.13818(2)
O1 O 0.16560(7) 0.59039(15) 0.00796(6)
H1 H 0.1184 0.5806 -0.0269
N1 N 0.13532(7) 0.48120(15) 0.10738(7)
C1 C 0.19017(12) 0.4874(2) 0.28440(10)
H2 H 0.1362 0.4556 0.2731
C2 C 0.24455(14) 0.4584(2) 0.35231(11)
H3 H 0.2268 0.4073 0.3864
C3 C 0.32467(14) 0.5049(3) 0.36967(12)
H4 H 0.3610 0.4845 0.4152
C4 C 0.35084(12) 0.5816(2) 0.31962(12)
H5 H 0.4048 0.6137 0.3315
C5 C 0.29685(11) 0.6113(2) 0.25121(10)
H6 H 0.3150 0.6632 0.2176
C6 C 0.21617(10) 0.56397(18) 0.23287(9)
C7 C 0.30251(10) 0.34793(18) 0.13842(9)
H7 H 0.2661 0.2880 0.1520
C8 C 0.38629(10) 0.3295(2) 0.16902(10)
H8 H 0.4058 0.2579 0.2031
C9 C 0.44065(11) 0.4174(2) 0.14894(11)
H9 H 0.4969 0.4046 0.1691
C10 C 0.41145(11) 0.5243(3) 0.09888(12)
H10 H 0.4483 0.5839 0.0856
C11 C 0.32727(11) 0.5442(2) 0.06794(10)
H11 H 0.3080 0.6168 0.0343
C12 C 0.27241(9) 0.45473(17) 0.08772(8)
C13 C 0.15740(10) 0.60121(19) 0.15913(9)
H12 H 0.1075 0.6394 0.1664
H13 H 0.1820 0.6756 0.1373
C14 C 0.06288(9) 0.41432(19) 0.09314(9)
C15 C 0.18018(9) 0.46805(18) 0.05156(9)
C16 C 0.14586(10) 0.3320(2) 0.00881(10)
H14 H 0.1812 0.2517 0.0283
H15 H 0.1430 0.3433 -0.0422
loop_
_geom_bond_atom_site_label_1
_geom_bond_atom_site_label_2
_geom_bond_site_symmetry_1
_geom_bond_site_symmetry_2
S1 C14 1_555 1_555
S2 C14 1_555 1_555
O1 H1 1_555 1_555
N1 C13 1_555 1_555
C1 H2 1_555 1_555
C2 C1 1_555 1_555
H3 C2 1_555 1_555
C3 C2 1_555 1_555
H4 C3 1_555 1_555
C4 C3 1_555 1_555
H5 C4 1_555 1_555
C5 C4 1_555 1_555
H6 C5 1_555 1_555
C6 C1 1_555 1_555
C7 H7 1_555 1_555
C8 C7 1_555 1_555
H8 C8 1_555 1_555
C9 C8 1_555 1_555
H9 C9 1_555 1_555
C10 C9 1_555 1_555
H10 C10 1_555 1_555
C11 C10 1_555 1_555
H11 C11 1_555 1_555
C12 C7 1_555 1_555
C13 C6 1_555 1_555
H12 C13 1_555 1_555
H13 C13 1_555 1_555
C14 N1 1_555 1_555
C15 O1 1_555 1_555
C16 S1 1_555 1_555
H14 C16 1_555 1_555
H15 C16 1_555 1_555
N1 C15 1_555 1_555
C5 C6 1_555 1_555
C11 C12 1_555 1_555
C12 C15 1_555 1_555
C15 C16 1_555 1_555

#END
