
#######################################################################
#
#                 Cambridge Crystallographic Data Centre
#                                CCDC 
#
#######################################################################
#
# If this CIF has been generated from an entry in the Cambridge 
# Structural Database, then it will include bibliographic, chemical, 
# crystal, experimental, refinement or atomic coordinate data resulting 
# from the CCDC's data processing and validation procedures.
#
#######################################################################

data_VAFDAI
_chemical_formula_moiety         'C21 H26 O3'
_chemical_name_systematic        
3-Anisyl-3b,7,7-trimethyl-3,3a,3b,4,5,6,7,8a-octahydro-1H-indeno(1,2-c)furan-1-one
_symmetry_cell_setting           monoclinic
_symmetry_space_group_name_H-M   'P 21/n'
_symmetry_Int_Tables_number      14
_space_group_name_Hall           '-P 2yn'
loop_
_symmetry_equiv_pos_site_id
_symmetry_equiv_pos_as_xyz
1 x,y,z
2 1/2+x,1/2-y,1/2+z
3 -x,-y,-z
4 1/2-x,1/2+y,1/2-z
_cell_length_a                   9.6065(2)
_cell_length_b                   7.6983(2)
_cell_length_c                   24.7363(7)
_cell_angle_alpha                90.00
_cell_angle_beta                 98.4360(10)
_cell_angle_gamma                90.00
_cell_volume                     1809.55
_exptl_crystal_colour            colorless
_chemical_melting_point          104-105deg.C
_cell_formula_units_Z            4
loop_
_atom_site_label
_atom_site_type_symbol
_atom_site_fract_x
_atom_site_fract_y
_atom_site_fract_z
O1 O 0.67592(12) 0.15487(17) 0.21718(4)
O2 O 0.78467(15) 0.20004(19) 0.30187(5)
O3 O 0.27755(13) 0.3672(2) 0.00067(6)
C1 C 0.52237(16) 0.0853(2) 0.08350(7)
H1 H 0.5430 -0.0328 0.0850
C2 C 0.41652(17) 0.1470(2) 0.04397(7)
H2 H 0.3682 0.0705 0.0188
C3 C 0.38280(16) 0.3199(2) 0.04178(6)
C4 C 0.45461(17) 0.4340(2) 0.07929(7)
H3 H 0.4315 0.5514 0.0784
C5 C 0.56150(17) 0.3709(2) 0.11827(6)
H4 H 0.6100 0.4476 0.1433
C6 C 0.59767(14) 0.19695(19) 0.12078(5)
C7 C 0.71497(14) 0.12861(18) 0.16246(5)
H5 H 0.7253 0.0037 0.1564
C8 C 0.85963(14) 0.21565(16) 0.16404(5)
H6 H 0.8497 0.3360 0.1511
C9 C 0.96824(13) 0.11516(16) 0.13498(5)
C10 C 0.90644(15) 0.0159(2) 0.08323(5)
H7 H 0.8864 0.0971 0.0531
H8 H 0.8184 -0.0377 0.0890
C11 C 1.00685(17) -0.1244(2) 0.06822(6)
H9 H 1.0928 -0.0709 0.0601
H10 H 0.9636 -0.1863 0.0359
C12 C 1.04119(17) -0.25120(18) 0.11560(6)
H11 H 1.1002 -0.3431 0.1046
H12 H 0.9544 -0.3040 0.1232
C13 C 1.11640(15) -0.16768(17) 0.16841(5)
C14 C 1.03306(12) -0.00849(16) 0.18060(5)
C15 C 1.00749(14) 0.04630(18) 0.22906(5)
H13 H 1.0410 -0.0090 0.2618
C16 C 0.91778(16) 0.20857(18) 0.22515(6)
H14 H 0.9731 0.3121 0.2372
C17 C 0.79151(19) 0.1902(2) 0.25353(6)
C18 C 0.2389(2) 0.5442(4) -0.00438(9)
H15 H 0.1648 0.5583 -0.0346
H16 H 0.3188 0.6122 -0.0105
H17 H 0.2066 0.5824 0.0286
C19 C 1.1229(2) -0.2999(2) 0.21520(7)
H18 H 1.1702 -0.2488 0.2483
H19 H 1.1736 -0.4011 0.2064
H20 H 1.0291 -0.3324 0.2201
C20 C 1.26833(16) -0.1198(2) 0.16173(7)
H21 H 1.2677 -0.0493 0.1297
H22 H 1.3212 -0.2239 0.1581
H23 H 1.3110 -0.0562 0.1933
C21 C 1.07937(17) 0.24495(19) 0.12099(7)
H24 H 1.1507 0.1838 0.1052
H25 H 1.1215 0.3030 0.1537
H26 H 1.0353 0.3290 0.0954
loop_
_geom_bond_atom_site_label_1
_geom_bond_atom_site_label_2
_geom_bond_site_symmetry_1
_geom_bond_site_symmetry_2
O1 C7 1_555 1_555
O2 C17 1_555 1_555
O3 C3 1_555 1_555
C1 H1 1_555 1_555
C2 C1 1_555 1_555
H2 C2 1_555 1_555
C3 C2 1_555 1_555
C4 C3 1_555 1_555
H3 C4 1_555 1_555
C5 C4 1_555 1_555
H4 C5 1_555 1_555
C6 C1 1_555 1_555
C7 C6 1_555 1_555
H5 C7 1_555 1_555
C8 C7 1_555 1_555
H6 C8 1_555 1_555
C9 C8 1_555 1_555
C10 C9 1_555 1_555
H7 C10 1_555 1_555
H8 C10 1_555 1_555
C11 C10 1_555 1_555
H9 C11 1_555 1_555
H10 C11 1_555 1_555
C12 C11 1_555 1_555
H11 C12 1_555 1_555
H12 C12 1_555 1_555
C13 C12 1_555 1_555
C14 C9 1_555 1_555
C15 C14 1_555 1_555
H13 C15 1_555 1_555
C16 C8 1_555 1_555
H14 C16 1_555 1_555
C17 O1 1_555 1_555
C18 O3 1_555 1_555
H15 C18 1_555 1_555
H16 C18 1_555 1_555
H17 C18 1_555 1_555
C19 C13 1_555 1_555
H18 C19 1_555 1_555
H19 C19 1_555 1_555
H20 C19 1_555 1_555
C20 C13 1_555 1_555
H21 C20 1_555 1_555
H22 C20 1_555 1_555
H23 C20 1_555 1_555
C21 C9 1_555 1_555
H24 C21 1_555 1_555
H25 C21 1_555 1_555
H26 C21 1_555 1_555
C5 C6 1_555 1_555
C13 C14 1_555 1_555
C15 C16 1_555 1_555
C16 C17 1_555 1_555

#END
