
#######################################################################
#
#                 Cambridge Crystallographic Data Centre
#                                CCDC 
#
#######################################################################
#
# If this CIF has been generated from an entry in the Cambridge 
# Structural Database, then it will include bibliographic, chemical, 
# crystal, experimental, refinement or atomic coordinate data resulting 
# from the CCDC's data processing and validation procedures.
#
#######################################################################

data_VAFKIW
_chemical_formula_moiety         'C20 H18 N4 O6 S1'
_chemical_name_systematic        'bis(3-(4-Ethoxyphenyl)sydnon-4-yl) sulfide'
_symmetry_cell_setting           monoclinic
_symmetry_space_group_name_H-M   'C 2/c'
_symmetry_Int_Tables_number      15
_space_group_name_Hall           '-C 2yn'
loop_
_symmetry_equiv_pos_site_id
_symmetry_equiv_pos_as_xyz
1 x,y,z
2 1/2+x,1/2+y,z
3 -x,y,1/2-z
4 1/2-x,1/2+y,1/2-z
5 -x,-y,-z
6 1/2-x,1/2-y,-z
7 x,-y,1/2+z
8 1/2+x,1/2-y,1/2+z
_cell_length_a                   20.724(5)
_cell_length_b                   12.157(3)
_cell_length_c                   8.201(3)
_cell_angle_alpha                90
_cell_angle_beta                 95.10(2)
_cell_angle_gamma                90
_cell_volume                     2057.99
_cell_formula_units_Z            4
loop_
_atom_site_label
_atom_site_type_symbol
_atom_site_fract_x
_atom_site_fract_y
_atom_site_fract_z
S1 S 0.5000 0.0334(1) 0.2500
C1 C 0.3520(1) 0.1074(2) 0.1155(3)
C2 C 0.3091(1) 0.1824(2) 0.1700(4)
C3 C 0.2533(2) 0.1448(2) 0.2302(4)
C4 C 0.2414(1) 0.0335(2) 0.2376(4)
C5 C 0.2858(1) -0.0404(2) 0.1819(4)
C6 C 0.3414(1) -0.0040(2) 0.1207(4)
C7 C 0.5104(1) 0.1933(2) 0.0040(4)
C8 C 0.4727(1) 0.1247(2) 0.0980(3)
C9 C 0.1403(2) 0.0605(3) 0.3534(4)
C10 C 0.0840(2) -0.0080(3) 0.3893(5)
N1 N 0.4098(1) 0.1491(2) 0.0508(3)
N2 N 0.4018(1) 0.2231(2) -0.0652(3)
O1 O 0.4635(1) 0.2534(2) -0.0944(2)
O2 O 0.5671(1) 0.2096(2) -0.0009(3)
O3 O 0.1879(1) -0.0123(2) 0.2945(3)
H1 H 0.3179 0.2715 0.1654
H2 H 0.2189 0.2012 0.2801
H3 H 0.2744 -0.1298 0.1861
H4 H 0.3748 -0.0627 0.0700
H5 H 0.0705 -0.0635 0.2948
H6 H 0.0480 0.0424 0.4165
H7 H 0.0956 -0.0644 0.4739
H8 H 0.1587 0.1057 0.4518
H9 H 0.1289 0.1126 0.2664
C8B C 0.5273(1) 0.1247(2) 0.4020(3)
C7B C 0.4896(1) 0.1933(2) 0.4960(4)
N1B N 0.5902(1) 0.1491(2) 0.4492(3)
O1B O 0.5365(1) 0.2534(2) 0.5944(2)
O2B O 0.4329(1) 0.2096(2) 0.5009(3)
C1B C 0.6480(1) 0.1074(2) 0.3845(3)
N2B N 0.5982(1) 0.2231(2) 0.5652(3)
C2B C 0.6909(1) 0.1824(2) 0.3300(4)
C6B C 0.6586(1) -0.0040(2) 0.3793(4)
C3B C 0.7467(2) 0.1448(2) 0.2698(4)
H1B H 0.6821 0.2715 0.3346
C5B C 0.7142(1) -0.0404(2) 0.3181(4)
H4B H 0.6252 -0.0627 0.4300
C4B C 0.7586(1) 0.0335(2) 0.2624(4)
H2B H 0.7811 0.2012 0.2199
H3B H 0.7256 -0.1298 0.3139
O3B O 0.8121(1) -0.0123(2) 0.2055(3)
C9B C 0.8597(2) 0.0605(3) 0.1466(4)
C10B C 0.9160(2) -0.0080(3) 0.1107(5)
H8B H 0.8413 0.1057 0.0482
H9B H 0.8711 0.1126 0.2336
H5B H 0.9295 -0.0635 0.2052
H6B H 0.9520 0.0424 0.0835
H7B H 0.9044 -0.0644 0.0261
loop_
_geom_bond_atom_site_label_1
_geom_bond_atom_site_label_2
_geom_bond_site_symmetry_1
_geom_bond_site_symmetry_2
S1 C8 1_555 1_555
C1 C2 1_555 1_555
C2 C3 1_555 1_555
C3 C4 1_555 1_555
C4 C5 1_555 1_555
C5 C6 1_555 1_555
C6 C1 1_555 1_555
C7 C8 1_555 1_555
C8 N1 1_555 1_555
C9 C10 1_555 1_555
C10 H5 1_555 1_555
N1 C1 1_555 1_555
N2 N1 1_555 1_555
O1 C7 1_555 1_555
O2 C7 1_555 1_555
O3 C4 1_555 1_555
H1 C2 1_555 1_555
H2 C3 1_555 1_555
H3 C5 1_555 1_555
H4 C6 1_555 1_555
H6 C10 1_555 1_555
H7 C10 1_555 1_555
H8 C9 1_555 1_555
H9 C9 1_555 1_555
C8B S1 1_555 1_555
C7B C8B 1_555 1_555
N1B C8B 1_555 1_555
O1B C7B 1_555 1_555
O2B C7B 1_555 1_555
C1B N1B 1_555 1_555
N2B N1B 1_555 1_555
C2B C1B 1_555 1_555
C6B C1B 1_555 1_555
C3B C2B 1_555 1_555
H1B C2B 1_555 1_555
C5B C6B 1_555 1_555
H4B C6B 1_555 1_555
C4B C3B 1_555 1_555
H2B C3B 1_555 1_555
H3B C5B 1_555 1_555
O3B C4B 1_555 1_555
C9B O3B 1_555 1_555
C10B C9B 1_555 1_555
H8B C9B 1_555 1_555
H9B C9B 1_555 1_555
H5B C10B 1_555 1_555
H6B C10B 1_555 1_555
H7B C10B 1_555 1_555
C9 O3 1_555 1_555
N2 O1 1_555 1_555
O1B N2B 1_555 1_555
C5B C4B 1_555 1_555

#END
