
#######################################################################
#
#                 Cambridge Crystallographic Data Centre
#                                CCDC 
#
#######################################################################
#
# If this CIF has been generated from an entry in the Cambridge 
# Structural Database, then it will include bibliographic, chemical, 
# crystal, experimental, refinement or atomic coordinate data resulting 
# from the CCDC's data processing and validation procedures.
#
#######################################################################

data_VAFREB
_chemical_formula_moiety         'C19 H16 Br1 N1 O5'
_chemical_name_systematic        
'Methyl 3-(4-bromophenyl)-2-((1,3-dioxo-1,3-dihydro-2H-isoindol-2-yl)methyl)-3-hydroxypropanoate'
_symmetry_cell_setting           monoclinic
_symmetry_space_group_name_H-M   'P 21/n'
_symmetry_Int_Tables_number      14
_space_group_name_Hall           '-P 2yn'
loop_
_symmetry_equiv_pos_site_id
_symmetry_equiv_pos_as_xyz
1 x,y,z
2 1/2-x,1/2+y,1/2-z
3 -x,-y,-z
4 1/2+x,1/2-y,1/2+z
_cell_length_a                   15.0071(13)
_cell_length_b                   5.3892(5)
_cell_length_c                   23.515(2)
_cell_angle_alpha                90
_cell_angle_beta                 107.293(3)
_cell_angle_gamma                90
_cell_volume                     1815.84
_exptl_crystal_colour            colorless
_exptl_crystal_description       prism
_cell_formula_units_Z            4
loop_
_atom_site_label
_atom_site_type_symbol
_atom_site_fract_x
_atom_site_fract_y
_atom_site_fract_z
Br1 Br 0.59453(3) 0.86635(8) 0.218919(18)
C1 C 0.6711(3) 0.7652(7) 0.29483(16)
C2 C 0.6518(3) 0.5525(7) 0.32053(18)
H1 H 0.5998 0.4521 0.3007
C3 C 0.7099(3) 0.4863(8) 0.37631(18)
H2 H 0.6970 0.3388 0.3946
C4 C 0.7855(3) 0.6288(7) 0.40587(16)
C5 C 0.8021(3) 0.8414(8) 0.37896(19)
H3 H 0.8533 0.9441 0.3988
C6 C 0.7458(3) 0.9087(8) 0.32380(19)
H4 H 0.7588 1.0562 0.3056
C7 C 0.8519(3) 0.5542(7) 0.46520(18)
H5 H 0.8947 0.6963 0.4815
C8 C 0.8056(3) 0.4745(7) 0.51124(17)
H6 H 0.7688 0.3207 0.4962
C9 C 0.8797(3) 0.4094(7) 0.56859(17)
C10 C 0.9240(3) 0.1326(8) 0.64868(19)
H7 H 0.9014 -0.0174 0.6635
H8 H 0.9314 0.2659 0.6780
H9 H 0.9844 0.0980 0.6422
C11 C 0.7383(3) 0.6679(7) 0.52432(16)
H10 H 0.7743 0.8128 0.5448
H11 H 0.6942 0.7260 0.4864
C12 C 0.6172(3) 0.3810(7) 0.54029(18)
C13 C 0.5965(3) 0.2823(7) 0.59405(18)
C14 C 0.5349(3) 0.1009(8) 0.5985(2)
H12 H 0.4950 0.0219 0.5642
C15 C 0.5336(3) 0.0381(9) 0.6557(2)
H13 H 0.4919 -0.0868 0.6607
C16 C 0.5919(3) 0.1542(9) 0.7053(2)
H14 H 0.5894 0.1074 0.7437
C17 C 0.6534(3) 0.3357(8) 0.70022(18)
H15 H 0.6940 0.4142 0.7343
C18 C 0.6534(3) 0.3985(7) 0.64339(17)
C19 C 0.7135(3) 0.5752(7) 0.62361(18)
N1 N 0.6866(2) 0.5599(5) 0.56145(13)
O1 O 0.90674(18) 0.3425(4) 0.46037(11)
H16 H 0.9360 0.3723 0.4357
O2 O 0.9500(2) 0.5281(5) 0.59072(12)
O3 O 0.85765(19) 0.2079(5) 0.59318(12)
O4 O 0.5859(2) 0.3244(5) 0.48851(12)
O5 O 0.7747(2) 0.7084(6) 0.65275(12)
loop_
_geom_bond_atom_site_label_1
_geom_bond_atom_site_label_2
_geom_bond_site_symmetry_1
_geom_bond_site_symmetry_2
Br1 C1 1_555 1_555
C1 C2 1_555 1_555
C2 H1 1_555 1_555
C3 C2 1_555 1_555
H2 C3 1_555 1_555
C4 C3 1_555 1_555
C5 C4 1_555 1_555
H3 C5 1_555 1_555
C6 C1 1_555 1_555
H4 C6 1_555 1_555
C7 C4 1_555 1_555
H5 C7 1_555 1_555
C8 C7 1_555 1_555
H6 C8 1_555 1_555
C9 C8 1_555 1_555
C10 H7 1_555 1_555
H8 C10 1_555 1_555
H9 C10 1_555 1_555
C11 C8 1_555 1_555
H10 C11 1_555 1_555
H11 C11 1_555 1_555
C12 C13 1_555 1_555
C13 C14 1_555 1_555
C14 H12 1_555 1_555
C15 C14 1_555 1_555
H13 C15 1_555 1_555
C16 C15 1_555 1_555
H14 C16 1_555 1_555
C17 C16 1_555 1_555
H15 C17 1_555 1_555
C18 C13 1_555 1_555
C19 C18 1_555 1_555
N1 C11 1_555 1_555
O1 C7 1_555 1_555
H16 O1 1_555 1_555
O2 C9 1_555 1_555
O3 C9 1_555 1_555
O4 C12 1_555 1_555
O5 C19 1_555 1_555
C5 C6 1_555 1_555
C10 O3 1_555 1_555
C12 N1 1_555 1_555
C17 C18 1_555 1_555
C19 N1 1_555 1_555

#END
