
#######################################################################
#
#                 Cambridge Crystallographic Data Centre
#                                CCDC 
#
#######################################################################
#
# If this CIF has been generated from an entry in the Cambridge 
# Structural Database, then it will include bibliographic, chemical, 
# crystal, experimental, refinement or atomic coordinate data resulting 
# from the CCDC's data processing and validation procedures.
#
#######################################################################

data_VAFRUR
_chemical_formula_moiety         'C19 H21 Cl2 N1 O5 S1'
_chemical_name_systematic        
'Methyl 3-(2,4-dichlorophenyl)-3-hydroxy-2-((methyl((4-methylphenyl)sulfonyl)amino)methyl)propanoate'
_symmetry_cell_setting           triclinic
_symmetry_space_group_name_H-M   'P -1'
_symmetry_Int_Tables_number      2
_space_group_name_Hall           '-P 1'
loop_
_symmetry_equiv_pos_site_id
_symmetry_equiv_pos_as_xyz
1 x,y,z
2 -x,-y,-z
_cell_length_a                   10.6716(2)
_cell_length_b                   11.0562(2)
_cell_length_c                   11.1616(2)
_cell_angle_alpha                60.4580(10)
_cell_angle_beta                 67.3250(10)
_cell_angle_gamma                68.4600(10)
_cell_volume                     1031.12
_exptl_crystal_colour            colorless
_exptl_crystal_description       prism
_cell_formula_units_Z            2
loop_
_atom_site_label
_atom_site_type_symbol
_atom_site_fract_x
_atom_site_fract_y
_atom_site_fract_z
C1 C 0.9706(3) 0.0626(3) 0.2509(3)
C2 C 0.8518(3) 0.0273(3) 0.2669(3)
H1 H 0.7949 0.0879 0.2048
C3 C 0.8181(3) -0.0984(4) 0.3756(4)
H2 H 0.7380 -0.1214 0.3857
C4 C 0.8995(3) -0.1909(3) 0.4695(3)
C5 C 0.8622(4) -0.3286(4) 0.5874(4)
H3 H 0.9310 -0.3788 0.6413
H4 H 0.8591 -0.3864 0.5472
H5 H 0.7727 -0.3083 0.6488
C6 C 1.0181(3) -0.1536(3) 0.4526(3)
H6 H 1.0745 -0.2142 0.5151
C7 C 1.0533(3) -0.0296(3) 0.3458(3)
H7 H 1.1331 -0.0066 0.3364
C8 C 1.1750(4) 0.1196(4) -0.0711(4)
H8 H 1.0845 0.1379 -0.0830
H9 H 1.2091 0.0186 -0.0255
H10 H 1.2376 0.1574 -0.1626
C9 C 1.2929(3) 0.1757(3) 0.0457(3)
H11 H 1.3485 0.0793 0.0663
H12 H 1.2691 0.1949 0.1287
C10 C 1.3780(3) 0.2811(2) -0.0821(3)
H13 H 1.3933 0.2671 -0.1672
C11 C 1.5178(3) 0.2535(3) -0.0581(3)
C12 C 1.7392(3) 0.3138(4) -0.1716(4)
H14 H 1.7931 0.3615 -0.2656
H15 H 1.7878 0.2166 -0.1309
H16 H 1.7255 0.3609 -0.1133
C13 C 1.2970(3) 0.4352(3) -0.1055(3)
H17 H 1.2008 0.4420 -0.0996
C14 C 1.3521(3) 0.5494(3) -0.2466(3)
C15 C 1.3307(3) 0.5746(3) -0.3728(3)
C16 C 1.3690(3) 0.6875(3) -0.5003(3)
H18 H 1.3547 0.7011 -0.5836
C17 C 1.4285(3) 0.7787(3) -0.5008(3)
C18 C 1.4560(3) 0.7558(3) -0.3794(3)
H19 H 1.4993 0.8165 -0.3818
C19 C 1.4185(3) 0.6417(3) -0.2543(3)
H20 H 1.4379 0.6259 -0.1727
Cl1 Cl 1.24877(9) 0.46583(8) -0.37523(9)
Cl2 Cl 1.46663(9) 0.92684(8) -0.65778(8)
N1 N 1.1657(2) 0.1877(2) 0.0167(2)
O1 O 1.0231(2) 0.3045(2) 0.1801(2)
O2 O 0.9162(2) 0.2875(2) 0.0295(2)
O3 O 1.5478(2) 0.1845(3) 0.0539(2)
O4 O 1.6056(2) 0.3174(2) -0.1791(2)
O5 O 1.2948(2) 0.4577(2) 0.01020(19)
H21 H 1.2646 0.3949 0.0855
S1 S 1.01314(7) 0.22510(7) 0.11624(8)
loop_
_geom_bond_atom_site_label_1
_geom_bond_atom_site_label_2
_geom_bond_site_symmetry_1
_geom_bond_site_symmetry_2
C1 C2 1_555 1_555
C2 H1 1_555 1_555
C3 C2 1_555 1_555
H2 C3 1_555 1_555
C4 C3 1_555 1_555
C5 C4 1_555 1_555
H3 C5 1_555 1_555
H4 C5 1_555 1_555
H5 C5 1_555 1_555
C6 C4 1_555 1_555
H6 C6 1_555 1_555
C7 C1 1_555 1_555
H7 C7 1_555 1_555
C8 H8 1_555 1_555
H9 C8 1_555 1_555
H10 C8 1_555 1_555
C9 H11 1_555 1_555
H12 C9 1_555 1_555
C10 C9 1_555 1_555
H13 C10 1_555 1_555
C11 C10 1_555 1_555
C12 H14 1_555 1_555
H15 C12 1_555 1_555
H16 C12 1_555 1_555
C13 C10 1_555 1_555
H17 C13 1_555 1_555
C14 C13 1_555 1_555
C15 C14 1_555 1_555
C16 C15 1_555 1_555
H18 C16 1_555 1_555
C17 C16 1_555 1_555
C18 C17 1_555 1_555
H19 C18 1_555 1_555
C19 C14 1_555 1_555
H20 C19 1_555 1_555
Cl1 C15 1_555 1_555
Cl2 C17 1_555 1_555
N1 C8 1_555 1_555
O1 S1 1_555 1_555
O2 S1 1_555 1_555
O3 C11 1_555 1_555
O4 C11 1_555 1_555
O5 C13 1_555 1_555
H21 O5 1_555 1_555
S1 C1 1_555 1_555
C6 C7 1_555 1_555
C9 N1 1_555 1_555
C12 O4 1_555 1_555
C18 C19 1_555 1_555
N1 S1 1_555 1_555

#END
