
#######################################################################
#
#                 Cambridge Crystallographic Data Centre
#                                CCDC 
#
#######################################################################
#
# If this CIF has been generated from an entry in the Cambridge 
# Structural Database, then it will include bibliographic, chemical, 
# crystal, experimental, refinement or atomic coordinate data resulting 
# from the CCDC's data processing and validation procedures.
#
#######################################################################

data_VAFTAZ
_chemical_formula_moiety         'C21 H26 F1 N1 O3 S1'
_chemical_name_systematic        
1-(((3-Fluoro-4-phenyl-3,6-dihydropyridin-1(2H)-yl)sulfonyl)methyl)-7,7-dimethylbicyclo[2.2.1]heptan-2-one
_symmetry_cell_setting           monoclinic
_symmetry_space_group_name_H-M   'P 21'
_symmetry_Int_Tables_number      4
_space_group_name_Hall           'P 2yb'
loop_
_symmetry_equiv_pos_site_id
_symmetry_equiv_pos_as_xyz
1 x,y,z
2 -x,1/2+y,-z
_cell_length_a                   11.1643(2)
_cell_length_b                   11.6758(2)
_cell_length_c                   16.0025(3)
_cell_angle_alpha                90
_cell_angle_beta                 108.3880(10)
_cell_angle_gamma                90
_cell_volume                     1979.46
_exptl_crystal_colour            colorless
_cell_formula_units_Z            4
loop_
_atom_site_label
_atom_site_type_symbol
_atom_site_fract_x
_atom_site_fract_y
_atom_site_fract_z
C1 C 0.9736(3) 0.8790(2) 0.5303(2)
H1 H 0.9281 0.9388 0.4909
H2 H 1.0608 0.9030 0.5553
C2 C 0.9172(3) 0.8611(3) 0.6014(2)
H3 H 0.9341 0.9158 0.6458
C3 C 0.8438(2) 0.7730(2) 0.60714(17)
C4 C 0.8074(3) 0.6881(3) 0.5343(2)
H4 H 0.7156 0.6784 0.5165
C5 C 0.8417(2) 0.7217(3) 0.45476(18)
H5 H 0.8397 0.6548 0.4184
H6 H 0.7808 0.7766 0.4203
C6 C 0.7970(2) 0.7551(3) 0.68364(18)
C7 C 0.8595(3) 0.8039(3) 0.7648(2)
H7 H 0.9314 0.8477 0.7711
C8 C 0.8174(4) 0.7888(4) 0.8363(2)
H8 H 0.8603 0.8234 0.8897
C9 C 0.7136(3) 0.7237(3) 0.8293(3)
H9 H 0.6861 0.7130 0.8778
C10 C 0.6501(4) 0.6742(3) 0.7505(3)
H10 H 0.5791 0.6296 0.7454
C11 C 0.6910(3) 0.6901(3) 0.6779(2)
H11 H 0.6464 0.6565 0.6244
C12 C 1.0344(2) 0.8573(2) 0.24922(17)
C13 C 1.1803(3) 0.8714(4) 0.2757(2)
H12 H 1.2061 0.9468 0.3003
H13 H 1.2230 0.8139 0.3184
C14 C 1.2099(3) 0.8553(5) 0.1879(2)
H14 H 1.2531 0.9218 0.1748
H15 H 1.2614 0.7878 0.1899
C15 C 1.0781(3) 0.8413(3) 0.1198(2)
H16 H 1.0781 0.8064 0.0641
C16 C 1.0131(4) 0.9566(4) 0.1102(3)
H17 H 0.9361 0.9573 0.0605
H18 H 1.0682 1.0176 0.1032
C17 C 0.9850(3) 0.9676(3) 0.1976(2)
C18 C 0.9758(2) 0.8461(2) 0.32276(18)
H19 H 0.8910 0.8163 0.2970
H20 H 0.9677 0.9226 0.3440
C19 C 1.0066(3) 0.7701(3) 0.17251(19)
C20 C 1.0621(6) 0.6505(4) 0.1962(3)
H21 H 1.0109 0.6079 0.2234
H22 H 1.1464 0.6566 0.2363
H23 H 1.0641 0.6118 0.1437
C21 C 0.8643(4) 0.7581(4) 0.1244(2)
H24 H 0.8515 0.7157 0.0708
H25 H 0.8273 0.8328 0.1108
H26 H 0.8253 0.7183 0.1615
F1 F 0.8628(3) 0.58282(17) 0.56507(16)
N1 N 0.96757(18) 0.77206(18) 0.48125(13)
O1 O 1.0466(2) 0.64251(17) 0.38920(15)
O2 O 1.17242(17) 0.8088(2) 0.46094(14)
O3 O 0.9333(3) 1.0448(2) 0.2202(2)
S1 S 1.05254(5) 0.75988(5) 0.41566(4)
C22 C 0.6069(3) 0.4293(3) 0.40393(19)
H27 H 0.6973 0.4425 0.4236
H28 H 0.5912 0.3540 0.3770
C23 C 0.5592(3) 0.4333(3) 0.48077(18)
H29 H 0.6048 0.3929 0.5308
C24 C 0.4573(2) 0.4893(2) 0.48467(16)
C25 C 0.3826(3) 0.5551(2) 0.40540(19)
H30 H 0.2926 0.5438 0.3971
C26 C 0.4085(3) 0.5208(3) 0.32251(17)
H31 H 0.3715 0.4463 0.3033
H32 H 0.3707 0.5759 0.2763
C27 C 0.4145(2) 0.4897(2) 0.56382(16)
C28 C 0.4556(3) 0.4080(3) 0.62923(18)
H33 H 0.5127 0.3525 0.6242
C29 C 0.4139(3) 0.4070(3) 0.70172(19)
H34 H 0.4431 0.3513 0.7450
C30 C 0.3290(3) 0.4883(3) 0.7101(2)
H35 H 0.3005 0.4877 0.7588
C31 C 0.2872(3) 0.5695(3) 0.6464(2)
H36 H 0.2299 0.6245 0.6521
C32 C 0.3289(3) 0.5717(3) 0.5730(2)
H37 H 0.2995 0.6278 0.5302
C33 C 0.5870(2) 0.4095(2) 0.10464(16)
C34 C 0.6616(3) 0.5103(3) 0.0813(2)
H38 H 0.6074 0.5762 0.0606
H39 H 0.7319 0.5328 0.1320
C35 C 0.7084(5) 0.4618(3) 0.0080(3)
H40 H 0.7998 0.4562 0.0271
H41 H 0.6806 0.5087 -0.0446
C36 C 0.6467(5) 0.3428(3) -0.0079(3)
H42 H 0.6851 0.2902 -0.0399
C37 C 0.5069(5) 0.3585(4) -0.0497(2)
H43 H 0.4575 0.3449 -0.1076
C38 C 0.4680(3) 0.4015(3) 0.02550(19)
C39 C 0.5535(3) 0.4129(3) 0.18988(18)
H44 H 0.5918 0.3468 0.2249
H45 H 0.4628 0.4044 0.1749
C40 C 0.6603(3) 0.3036(3) 0.0884(2)
C41 C 0.5945(4) 0.1909(3) 0.0931(3)
H46 H 0.5988 0.1760 0.1529
H47 H 0.6355 0.1301 0.0722
H48 H 0.5078 0.1955 0.0570
C42 C 0.7959(4) 0.2987(4) 0.1512(4)
H49 H 0.7951 0.2768 0.2088
H50 H 0.8345 0.3726 0.1540
H51 H 0.8431 0.2434 0.1300
F2 F 0.4107(3) 0.67238(16) 0.41964(18)
N2 N 0.5444(2) 0.5162(2) 0.33892(13)
O4 O 0.5330(4) 0.6309(2) 0.2078(2)
O5 O 0.7314(2) 0.5368(4) 0.29147(16)
O6 O 0.3617(2) 0.4266(3) 0.0234(2)
S2 S 0.59849(7) 0.53558(6) 0.25637(4)
loop_
_geom_bond_atom_site_label_1
_geom_bond_atom_site_label_2
_geom_bond_site_symmetry_1
_geom_bond_site_symmetry_2
C1 H1 1_555 1_555
H2 C1 1_555 1_555
C2 C1 1_555 1_555
H3 C2 1_555 1_555
C3 C2 1_555 1_555
C4 C3 1_555 1_555
H4 C4 1_555 1_555
C5 C4 1_555 1_555
H5 C5 1_555 1_555
H6 C5 1_555 1_555
C6 C3 1_555 1_555
C7 C6 1_555 1_555
H7 C7 1_555 1_555
C8 C7 1_555 1_555
H8 C8 1_555 1_555
C9 C8 1_555 1_555
H9 C9 1_555 1_555
C10 C9 1_555 1_555
H10 C10 1_555 1_555
C11 C6 1_555 1_555
H11 C11 1_555 1_555
C12 C13 1_555 1_555
C13 H12 1_555 1_555
H13 C13 1_555 1_555
C14 C13 1_555 1_555
H14 C14 1_555 1_555
H15 C14 1_555 1_555
C15 C14 1_555 1_555
H16 C15 1_555 1_555
C16 C15 1_555 1_555
H17 C16 1_555 1_555
H18 C16 1_555 1_555
C17 C12 1_555 1_555
C18 C12 1_555 1_555
H19 C18 1_555 1_555
H20 C18 1_555 1_555
C19 C12 1_555 1_555
C20 C19 1_555 1_555
H21 C20 1_555 1_555
H22 C20 1_555 1_555
H23 C20 1_555 1_555
C21 C19 1_555 1_555
H24 C21 1_555 1_555
H25 C21 1_555 1_555
H26 C21 1_555 1_555
C22 H27 1_555 1_555
H28 C22 1_555 1_555
C23 C22 1_555 1_555
H29 C23 1_555 1_555
C24 C23 1_555 1_555
C25 C24 1_555 1_555
H30 C25 1_555 1_555
C26 C25 1_555 1_555
H31 C26 1_555 1_555
H32 C26 1_555 1_555
C27 C24 1_555 1_555
C28 C27 1_555 1_555
H33 C28 1_555 1_555
C29 C28 1_555 1_555
H34 C29 1_555 1_555
C30 C29 1_555 1_555
H35 C30 1_555 1_555
C31 C30 1_555 1_555
H36 C31 1_555 1_555
C32 C27 1_555 1_555
H37 C32 1_555 1_555
C33 C34 1_555 1_555
C34 H38 1_555 1_555
H39 C34 1_555 1_555
C35 C34 1_555 1_555
H40 C35 1_555 1_555
H41 C35 1_555 1_555
C36 C35 1_555 1_555
H42 C36 1_555 1_555
C37 C36 1_555 1_555
H43 C37 1_555 1_555
C38 C33 1_555 1_555
C39 C33 1_555 1_555
H44 C39 1_555 1_555
H45 C39 1_555 1_555
C40 C33 1_555 1_555
C41 C40 1_555 1_555
H46 C41 1_555 1_555
H47 C41 1_555 1_555
H48 C41 1_555 1_555
C42 C40 1_555 1_555
H49 C42 1_555 1_555
H50 C42 1_555 1_555
H51 C42 1_555 1_555
F1 C4 1_555 1_555
F2 C25 1_555 1_555
N1 C1 1_555 1_555
N2 C22 1_555 1_555
O1 S1 1_555 1_555
O2 S1 1_555 1_555
O3 C17 1_555 1_555
O4 S2 1_555 1_555
O5 S2 1_555 1_555
O6 C38 1_555 1_555
S1 C18 1_555 1_555
S2 C39 1_555 1_555
C5 N1 1_555 1_555
C10 C11 1_555 1_555
C15 C19 1_555 1_555
C16 C17 1_555 1_555
C26 N2 1_555 1_555
C31 C32 1_555 1_555
C36 C40 1_555 1_555
C37 C38 1_555 1_555
N1 S1 1_555 1_555
N2 S2 1_555 1_555

#END
