
#######################################################################
#
#                 Cambridge Crystallographic Data Centre
#                                CCDC 
#
#######################################################################
#
# If this CIF has been generated from an entry in the Cambridge 
# Structural Database, then it will include bibliographic, chemical, 
# crystal, experimental, refinement or atomic coordinate data resulting 
# from the CCDC's data processing and validation procedures.
#
#######################################################################

data_VAFVEF
_chemical_formula_moiety         'C22 H30 O4 S2'
_chemical_name_systematic        
2,2'-bis(t-butylsulfinyl)-6,6'-dimethoxybiphenyl
_symmetry_cell_setting           orthorhombic
_symmetry_space_group_name_H-M   'P 21 21 21'
_symmetry_Int_Tables_number      19
_space_group_name_Hall           'P 2ac 2ab'
loop_
_symmetry_equiv_pos_site_id
_symmetry_equiv_pos_as_xyz
1 x,y,z
2 1/2-x,-y,1/2+z
3 -x,1/2+y,1/2-z
4 1/2+x,1/2-y,-z
_cell_length_a                   9.5730(7)
_cell_length_b                   14.1860(10)
_cell_length_c                   16.8432(12)
_cell_angle_alpha                90
_cell_angle_beta                 90
_cell_angle_gamma                90
_cell_volume                     2287.35
_exptl_crystal_colour            colorless
_exptl_crystal_description       prismatic
_cell_formula_units_Z            4
loop_
_atom_site_label
_atom_site_type_symbol
_atom_site_fract_x
_atom_site_fract_y
_atom_site_fract_z
S1 S 0.23305(6) 0.22599(4) 0.33102(3)
S2 S 0.14660(5) 0.17893(3) 0.14571(3)
O1 O 0.25012(16) -0.11425(10) 0.23199(9)
O2 O 0.50707(16) -0.02789(11) 0.28872(10)
O3 O 0.1116(2) 0.28031(15) 0.36204(13)
O4 O 0.17074(18) 0.26941(10) 0.10341(10)
C1 C 0.1794(2) 0.10405(16) 0.33299(12)
C2 C 0.0705(2) 0.0791(2) 0.38237(14)
H1 H 0.0295 0.1241 0.4151
C3 C 0.0229(3) -0.0115(2) 0.38330(15)
H2 H -0.0497 -0.0282 0.4172
C4 C 0.0819(2) -0.07868(19) 0.33417(15)
H3 H 0.0493 -0.1404 0.3354
C5 C 0.1887(2) -0.05443(15) 0.28350(12)
C6 C 0.23839(18) 0.03900(14) 0.28076(11)
C7 C 0.34597(18) 0.06595(12) 0.22064(10)
C8 C 0.4835(2) 0.03139(14) 0.22685(13)
C9 C 0.5846(2) 0.06000(16) 0.17350(16)
H4 H 0.6755 0.0377 0.1784
C10 C 0.5513(2) 0.1212(2) 0.11328(16)
H5 H 0.6201 0.1397 0.0775
C11 C 0.4180(2) 0.15552(17) 0.10508(14)
H6 H 0.3965 0.1980 0.0648
C12 C 0.31645(17) 0.12590(13) 0.15763(11)
C13 C 0.2030(3) -0.20961(17) 0.2300(2)
H7 H 0.2199 -0.2387 0.2806
H8 H 0.2527 -0.2434 0.1895
H9 H 0.1048 -0.2110 0.2186
C14 C 0.6477(3) -0.0553(2) 0.30501(17)
H10 H 0.6904 -0.0786 0.2573
H11 H 0.6481 -0.1040 0.3446
H12 H 0.6992 -0.0018 0.3241
C15 C 0.3669(3) 0.22962(17) 0.41107(12)
C16 C 0.4823(3) 0.1620(2) 0.39068(16)
H13 H 0.5597 0.1718 0.4260
H14 H 0.5120 0.1725 0.3370
H15 H 0.4490 0.0985 0.3961
C17 C 0.3010(4) 0.2059(2) 0.49015(14)
H16 H 0.2665 0.1423 0.4889
H17 H 0.2251 0.2484 0.5003
H18 H 0.3696 0.2118 0.5314
C18 C 0.4206(4) 0.3308(2) 0.4074(2)
H19 H 0.4919 0.3396 0.4468
H20 H 0.3449 0.3736 0.4174
H21 H 0.4587 0.3429 0.3557
C19 C 0.0645(2) 0.09964(16) 0.07109(11)
C20 C 0.0487(3) 0.00289(17) 0.10723(17)
H22 H -0.0062 -0.0361 0.0726
H23 H 0.0029 0.0081 0.1578
H24 H 0.1392 -0.0249 0.1143
C21 C 0.1462(3) 0.1000(2) -0.00555(13)
H25 H 0.2290 0.0625 0.0006
H26 H 0.1719 0.1635 -0.0187
H27 H 0.0897 0.0742 -0.0473
C22 C -0.0785(2) 0.1453(2) 0.05959(15)
H28 H -0.0666 0.2105 0.0460
H29 H -0.1312 0.1404 0.1079
H30 H -0.1275 0.1136 0.0176
loop_
_geom_bond_atom_site_label_1
_geom_bond_atom_site_label_2
_geom_bond_site_symmetry_1
_geom_bond_site_symmetry_2
S1 O3 1_555 1_555
S2 O4 1_555 1_555
O1 C5 1_555 1_555
O2 C8 1_555 1_555
C1 S1 1_555 1_555
C2 C1 1_555 1_555
H1 C2 1_555 1_555
C3 C2 1_555 1_555
H2 C3 1_555 1_555
C4 C3 1_555 1_555
H3 C4 1_555 1_555
C5 C4 1_555 1_555
C6 C1 1_555 1_555
C7 C6 1_555 1_555
C8 C7 1_555 1_555
C9 C8 1_555 1_555
H4 C9 1_555 1_555
C10 C9 1_555 1_555
H5 C10 1_555 1_555
C11 C10 1_555 1_555
H6 C11 1_555 1_555
C12 S2 1_555 1_555
C13 O1 1_555 1_555
H7 C13 1_555 1_555
H8 C13 1_555 1_555
H9 C13 1_555 1_555
C14 O2 1_555 1_555
H10 C14 1_555 1_555
H11 C14 1_555 1_555
H12 C14 1_555 1_555
C15 S1 1_555 1_555
C16 C15 1_555 1_555
H13 C16 1_555 1_555
H14 C16 1_555 1_555
H15 C16 1_555 1_555
C17 C15 1_555 1_555
H16 C17 1_555 1_555
H17 C17 1_555 1_555
H18 C17 1_555 1_555
C18 C15 1_555 1_555
H19 C18 1_555 1_555
H20 C18 1_555 1_555
H21 C18 1_555 1_555
C19 S2 1_555 1_555
C20 C19 1_555 1_555
H22 C20 1_555 1_555
H23 C20 1_555 1_555
H24 C20 1_555 1_555
C21 C19 1_555 1_555
H25 C21 1_555 1_555
H26 C21 1_555 1_555
H27 C21 1_555 1_555
C22 C19 1_555 1_555
H28 C22 1_555 1_555
H29 C22 1_555 1_555
H30 C22 1_555 1_555
C5 C6 1_555 1_555
C7 C12 1_555 1_555
C11 C12 1_555 1_555

#END
