
#######################################################################
#
#                 Cambridge Crystallographic Data Centre
#                                CCDC 
#
#######################################################################
#
# If this CIF has been generated from an entry in the Cambridge 
# Structural Database, then it will include bibliographic, chemical, 
# crystal, experimental, refinement or atomic coordinate data resulting 
# from the CCDC's data processing and validation procedures.
#
#######################################################################

data_VAFWOR
_chemical_formula_moiety         'C16 H36 N1 1+,C6 H6 N1 O3 S1 1-,0.67(H2 O1)'
_chemical_name_systematic        
'Tetra-n-butylammonium 4-aminobenzenesulfonate hydrate'
_symmetry_cell_setting           monoclinic
_symmetry_space_group_name_H-M   'P 21/c'
_symmetry_Int_Tables_number      14
_space_group_name_Hall           '-P 2ybc'
loop_
_symmetry_equiv_pos_site_id
_symmetry_equiv_pos_as_xyz
1 x,y,z
2 -x,1/2+y,1/2-z
3 -x,-y,-z
4 x,1/2-y,1/2+z
_cell_length_a                   9.52730(10)
_cell_length_b                   14.8850(2)
_cell_length_c                   17.5820(2)
_cell_angle_alpha                90
_cell_angle_beta                 91.1880(10)
_cell_angle_gamma                90
_cell_volume                     2492.84
_exptl_crystal_colour            colorless
_exptl_crystal_description       block
_cell_formula_units_Z            4
loop_
_atom_site_label
_atom_site_type_symbol
_atom_site_fract_x
_atom_site_fract_y
_atom_site_fract_z
S1 S 0.29728(7) 0.52409(3) 0.14614(3)
C1 C -0.1439(3) 0.59726(14) 0.05878(12)
N1 N -0.2782(3) 0.61608(14) 0.03221(12)
H1 H -0.284(3) 0.617(2) -0.0169(6)
H2 H -0.338(3) 0.5829(18) 0.0562(16)
O1 O 0.29866(18) 0.42622(9) 0.13803(8)
C2 C -0.1204(3) 0.55832(15) 0.13030(12)
H3 H -0.1966 0.5444 0.1603
O2 O 0.3136(2) 0.55158(11) 0.22487(9)
C3 C 0.0138(3) 0.54020(15) 0.15722(12)
H4 H 0.0266 0.5146 0.2051
O3 O 0.3983(2) 0.56669(11) 0.09634(9)
C4 C 0.1294(3) 0.55971(13) 0.11389(11)
C5 C 0.1066(3) 0.59998(14) 0.04305(12)
H5 H 0.1828 0.6140 0.0131
C6 C -0.0273(3) 0.61919(14) 0.01694(12)
H6 H -0.0396 0.6475 -0.0299
O4 O 0.5777(3) 0.3999(2) 0.06537(15)
H7 H 0.581(6) 0.403(3) 0.0176(6)
H8 H 0.590(6) 0.4542(14) 0.081(2)
N2 N 0.53895(15) 0.79495(9) 0.18601(8)
C7 C 0.4281(2) 0.83673(12) 0.23547(10)
H9 H 0.4712 0.8519 0.2843
H10 H 0.3970 0.8924 0.2119
C8 C 0.3011(2) 0.77920(14) 0.24933(12)
H11 H 0.3291 0.7264 0.2782
H12 H 0.2614 0.7593 0.2010
C9 C 0.1910(2) 0.83068(17) 0.29256(12)
H13 H 0.1624 0.8830 0.2632
H14 H 0.2316 0.8516 0.3404
C10 C 0.0622(3) 0.7734(2) 0.30847(15)
H15 H -0.0045 0.8084 0.3361
H16 H 0.0898 0.7220 0.3382
H17 H 0.0202 0.7539 0.2612
C11 C 0.48077(19) 0.77454(12) 0.10660(9)
H18 H 0.5532 0.7443 0.0782
H19 H 0.4030 0.7330 0.1112
C12 C 0.4305(2) 0.85480(13) 0.06108(10)
H20 H 0.5088 0.8948 0.0522
H21 H 0.3610 0.8875 0.0896
C13 C 0.3664(2) 0.82496(13) -0.01484(10)
H22 H 0.4338 0.7882 -0.0413
H23 H 0.2843 0.7883 -0.0056
C14 C 0.3246(3) 0.90352(15) -0.06466(11)
H24 H 0.2848 0.8817 -0.1117
H25 H 0.4059 0.9393 -0.0748
H26 H 0.2565 0.9395 -0.0391
C15 C 0.66010(19) 0.86090(12) 0.18265(10)
H27 H 0.6242 0.9178 0.1638
H28 H 0.6959 0.8709 0.2340
C16 C 0.7811(2) 0.83260(16) 0.13363(11)
H29 H 0.7493 0.8290 0.0809
H30 H 0.8133 0.7734 0.1492
C17 C 0.9012(2) 0.89876(15) 0.14059(14)
H31 H 0.8677 0.9580 0.1262
H32 H 0.9333 0.9015 0.1933
C18 C 1.0234(3) 0.8739(2) 0.09132(16)
H33 H 1.0964 0.9180 0.0974
H34 H 0.9927 0.8719 0.0390
H35 H 1.0589 0.8160 0.1063
C19 C 0.5877(2) 0.70564(12) 0.21941(10)
H36 H 0.5089 0.6644 0.2186
H37 H 0.6589 0.6808 0.1868
C20 C 0.6473(2) 0.71032(13) 0.29998(10)
H38 H 0.7249 0.7525 0.3019
H39 H 0.5756 0.7321 0.3337
C21 C 0.6975(3) 0.61978(15) 0.32683(12)
H40 H 0.7689 0.5982 0.2929
H41 H 0.6196 0.5778 0.3245
C22 C 0.7575(3) 0.62207(17) 0.40742(12)
H42 H 0.7878 0.5629 0.4220
H43 H 0.6867 0.6423 0.4415
H44 H 0.8360 0.6625 0.4098
loop_
_geom_bond_atom_site_label_1
_geom_bond_atom_site_label_2
_geom_bond_site_symmetry_1
_geom_bond_site_symmetry_2
S1 O1 1_555 1_555
C1 N1 1_555 1_555
N1 H1 1_555 1_555
H2 N1 1_555 1_555
C2 C1 1_555 1_555
H3 C2 1_555 1_555
O2 S1 1_555 1_555
C3 C2 1_555 1_555
H4 C3 1_555 1_555
O3 S1 1_555 1_555
C4 S1 1_555 1_555
C5 C4 1_555 1_555
H5 C5 1_555 1_555
C6 C1 1_555 1_555
H6 C6 1_555 1_555
O4 H7 1_555 1_555
H8 O4 1_555 1_555
N2 C7 1_555 1_555
C7 H9 1_555 1_555
H10 C7 1_555 1_555
C8 C7 1_555 1_555
H11 C8 1_555 1_555
H12 C8 1_555 1_555
C9 C8 1_555 1_555
H13 C9 1_555 1_555
H14 C9 1_555 1_555
C10 C9 1_555 1_555
H15 C10 1_555 1_555
H16 C10 1_555 1_555
H17 C10 1_555 1_555
C11 N2 1_555 1_555
H18 C11 1_555 1_555
H19 C11 1_555 1_555
C12 C11 1_555 1_555
H20 C12 1_555 1_555
H21 C12 1_555 1_555
C13 C12 1_555 1_555
H22 C13 1_555 1_555
H23 C13 1_555 1_555
C14 C13 1_555 1_555
H24 C14 1_555 1_555
H25 C14 1_555 1_555
H26 C14 1_555 1_555
C15 N2 1_555 1_555
H27 C15 1_555 1_555
H28 C15 1_555 1_555
C16 C15 1_555 1_555
H29 C16 1_555 1_555
H30 C16 1_555 1_555
C17 C16 1_555 1_555
H31 C17 1_555 1_555
H32 C17 1_555 1_555
C18 C17 1_555 1_555
H33 C18 1_555 1_555
H34 C18 1_555 1_555
H35 C18 1_555 1_555
C19 N2 1_555 1_555
H36 C19 1_555 1_555
H37 C19 1_555 1_555
C20 C19 1_555 1_555
H38 C20 1_555 1_555
H39 C20 1_555 1_555
C21 C20 1_555 1_555
H40 C21 1_555 1_555
H41 C21 1_555 1_555
C22 C21 1_555 1_555
H42 C22 1_555 1_555
H43 C22 1_555 1_555
H44 C22 1_555 1_555
C3 C4 1_555 1_555
C5 C6 1_555 1_555

#END
