
#######################################################################
#
#                 Cambridge Crystallographic Data Centre
#                                CCDC 
#
#######################################################################
#
# If this CIF has been generated from an entry in the Cambridge 
# Structural Database, then it will include bibliographic, chemical, 
# crystal, experimental, refinement or atomic coordinate data resulting 
# from the CCDC's data processing and validation procedures.
#
#######################################################################

data_VAFZOT
_chemical_formula_moiety         'C16 H16 N4 O4 S1'
_chemical_name_systematic        
'Ethyl 2-(4-(5-(4-methyl-1,2,3-thiadiazol-5-yl)-1,3,4-oxadiazol-2-yl)phenoxy)propanoate'
_chemical_properties_biological  
'tested for rice KARI inhibitory activity and herbicidal activity against rape root (Brassica campestris)'
_symmetry_cell_setting           monoclinic
_symmetry_space_group_name_H-M   'P 21/c'
_symmetry_Int_Tables_number      14
_space_group_name_Hall           '-P 2ybc'
loop_
_symmetry_equiv_pos_site_id
_symmetry_equiv_pos_as_xyz
1 x,y,z
2 -x,1/2+y,1/2-z
3 -x,-y,-z
4 x,1/2-y,1/2+z
_cell_length_a                   18.846(14)
_cell_length_b                   12.028(9)
_cell_length_c                   8.116(6)
_cell_angle_alpha                90
_cell_angle_beta                 99.063(12)
_cell_angle_gamma                90
_cell_volume                     1816.76
_exptl_crystal_colour            colorless
_exptl_crystal_description       block
_chemical_melting_point          '143-144 deg.C'
_cell_formula_units_Z            4
loop_
_atom_site_label
_atom_site_type_symbol
_atom_site_fract_x
_atom_site_fract_y
_atom_site_fract_z
S1 S 0.22437(9) 0.72864(15) 0.3697(3)
O1 O 0.42262(16) 0.6100(2) 0.3286(5)
O2 O 0.75848(17) 0.5149(3) 0.3147(6)
O3 O 0.8074(2) 0.7220(4) 0.2189(7)
O4 O 0.90343(19) 0.7121(3) 0.4212(6)
N1 N 0.1598(3) 0.6515(6) 0.2522(10)
N2 N 0.1857(2) 0.5681(5) 0.1753(8)
N3 N 0.3887(2) 0.7518(4) 0.4785(7)
N4 N 0.4653(2) 0.7490(4) 0.5010(7)
C1 C 0.2934(3) 0.4774(4) 0.1273(7)
H1 H 0.3439 0.4916 0.1353
H2 H 0.2717 0.4765 0.0121
H3 H 0.2862 0.4067 0.1771
C2 C 0.2610(3) 0.5632(5) 0.2133(9)
C3 C 0.2918(3) 0.6442(4) 0.3146(8)
C4 C 0.3669(3) 0.6700(4) 0.3773(8)
C5 C 0.4822(2) 0.6652(4) 0.4127(8)
C6 C 0.5548(2) 0.6265(4) 0.3898(7)
C7 C 0.6156(3) 0.6813(4) 0.4694(8)
H4 H 0.6102 0.7414 0.5385
C8 C 0.6850(3) 0.6482(4) 0.4482(8)
H5 H 0.7250 0.6868 0.5011
C9 C 0.6936(2) 0.5568(4) 0.3470(8)
C10 C 0.6324(3) 0.4999(4) 0.2667(8)
H6 H 0.6376 0.4391 0.1989
C11 C 0.5640(3) 0.5346(4) 0.2888(8)
H7 H 0.5239 0.4963 0.2359
C12 C 0.8253(3) 0.5591(4) 0.4001(9)
H8 H 0.8238 0.5643 0.5200
C13 C 0.8850(3) 0.4752(5) 0.3685(12)
H9 H 0.8755 0.4039 0.4135
H10 H 0.9309 0.5017 0.4219
H11 H 0.8851 0.4685 0.2507
C14 C 0.8425(3) 0.6740(4) 0.3318(9)
C15 C 0.9291(3) 0.8220(5) 0.3755(11)
H12 H 0.8992 0.8803 0.4105
H13 H 0.9272 0.8269 0.2556
C16 C 1.0039(4) 0.8345(7) 0.4604(15)
H14 H 1.0044 0.8408 0.5785
H15 H 1.0245 0.9002 0.4202
H16 H 1.0314 0.7707 0.4377
loop_
_geom_bond_atom_site_label_1
_geom_bond_atom_site_label_2
_geom_bond_site_symmetry_1
_geom_bond_site_symmetry_2
S1 N1 1_555 1_555
O1 C4 1_555 1_555
O2 C9 1_555 1_555
O3 C14 1_555 1_555
O4 C14 1_555 1_555
N1 N2 1_555 1_555
N2 C2 1_555 1_555
N3 N4 1_555 1_555
N4 C5 1_555 1_555
C1 H1 1_555 1_555
H2 C1 1_555 1_555
H3 C1 1_555 1_555
C2 C1 1_555 1_555
C3 S1 1_555 1_555
C4 N3 1_555 1_555
C5 O1 1_555 1_555
C6 C5 1_555 1_555
C7 C6 1_555 1_555
H4 C7 1_555 1_555
C8 C7 1_555 1_555
H5 C8 1_555 1_555
C9 C8 1_555 1_555
C10 C9 1_555 1_555
H6 C10 1_555 1_555
C11 C6 1_555 1_555
H7 C11 1_555 1_555
C12 O2 1_555 1_555
H8 C12 1_555 1_555
C13 C12 1_555 1_555
H9 C13 1_555 1_555
H10 C13 1_555 1_555
H11 C13 1_555 1_555
C14 C12 1_555 1_555
C15 O4 1_555 1_555
H12 C15 1_555 1_555
H13 C15 1_555 1_555
C16 C15 1_555 1_555
H14 C16 1_555 1_555
H15 C16 1_555 1_555
H16 C16 1_555 1_555
C2 C3 1_555 1_555
C3 C4 1_555 1_555
C10 C11 1_555 1_555

#END
