
#######################################################################
#
#                 Cambridge Crystallographic Data Centre
#                                CCDC 
#
#######################################################################
#
# If this CIF has been generated from an entry in the Cambridge 
# Structural Database, then it will include bibliographic, chemical, 
# crystal, experimental, refinement or atomic coordinate data resulting 
# from the CCDC's data processing and validation procedures.
#
#######################################################################

data_VAGGUI
_chemical_formula_moiety         'C18 H20 O1'
_chemical_name_systematic        
1-methoxy-2,3,5-trimethyl-4-(1-phenylvinyl)benzene
_symmetry_cell_setting           triclinic
_symmetry_space_group_name_H-M   'P -1'
_symmetry_Int_Tables_number      2
_space_group_name_Hall           '-P 1'
loop_
_symmetry_equiv_pos_site_id
_symmetry_equiv_pos_as_xyz
1 x,y,z
2 -x,-y,-z
_cell_length_a                   7.3183(11)
_cell_length_b                   10.0305(15)
_cell_length_c                   10.9470(17)
_cell_angle_alpha                69.766(2)
_cell_angle_beta                 77.720(2)
_cell_angle_gamma                85.037(2)
_cell_volume                     736.662
_exptl_crystal_colour            colorless
_exptl_crystal_description       block
_cell_formula_units_Z            2
loop_
_atom_site_label
_atom_site_type_symbol
_atom_site_fract_x
_atom_site_fract_y
_atom_site_fract_z
C1 C 0.6071(3) 0.3031(2) 0.5397(2)
H1 H 0.6343 0.3955 0.4831
C2 C 0.4784(3) 0.2824(3) 0.6559(2)
H2 H 0.4208 0.3603 0.6765
C3 C 0.4349(4) 0.1494(3) 0.7407(3)
H3 H 0.3450 0.1352 0.8180
C4 C 0.5253(5) 0.0363(3) 0.7107(3)
H4 H 0.4997 -0.0554 0.7695
C5 C 0.6539(4) 0.0568(3) 0.5941(3)
H5 H 0.7131 -0.0218 0.5755
C6 C 0.6974(3) 0.1915(2) 0.5040(2)
C7 C 0.8314(3) 0.2155(2) 0.3764(2)
C8 C 0.8998(4) 0.1107(3) 0.3321(3)
H6 H 0.8641 0.0177 0.3815
H7 H 0.9837 0.1301 0.2515
C9 C 0.8872(3) 0.3658(2) 0.2943(2)
C10 C 0.7953(3) 0.4445(2) 0.1902(2)
C11 C 0.8467(3) 0.5847(2) 0.11343(19)
C12 C 0.9884(3) 0.6449(2) 0.1434(2)
C13 C 1.0800(3) 0.5682(2) 0.2449(2)
H8 H 1.1755 0.6101 0.2625
C14 C 1.0302(3) 0.4285(2) 0.3210(2)
C15 C 0.6380(3) 0.3794(3) 0.1617(3)
H9 H 0.6085 0.2886 0.2290
H10 H 0.6756 0.3675 0.0765
H11 H 0.5298 0.4408 0.1614
C16 C 0.7506(3) 0.6701(3) 0.0011(2)
H12 H 0.8085 0.7612 -0.0428
H13 H 0.6209 0.6831 0.0358
H14 H 0.7612 0.6205 -0.0610
C17 C 1.1336(3) 0.3477(3) 0.4313(3)
H15 H 1.2271 0.2868 0.4011
H16 H 1.0467 0.2912 0.5068
H17 H 1.1924 0.4137 0.4562
C18 C 1.1586(4) 0.8552(3) 0.1013(3)
H18 H 1.1169 0.8516 0.1917
H19 H 1.1678 0.9525 0.0438
H20 H 1.2790 0.8094 0.0921
O1 O 1.0296(2) 0.78468(16) 0.06660(15)
loop_
_geom_bond_atom_site_label_1
_geom_bond_atom_site_label_2
_geom_bond_site_symmetry_1
_geom_bond_site_symmetry_2
C1 H1 1_555 1_555
C2 C1 1_555 1_555
H2 C2 1_555 1_555
C3 C2 1_555 1_555
H3 C3 1_555 1_555
C4 C3 1_555 1_555
H4 C4 1_555 1_555
C5 C4 1_555 1_555
H5 C5 1_555 1_555
C6 C1 1_555 1_555
C7 C6 1_555 1_555
C8 C7 1_555 1_555
H6 C8 1_555 1_555
H7 C8 1_555 1_555
C9 C7 1_555 1_555
C10 C9 1_555 1_555
C11 C10 1_555 1_555
C12 C11 1_555 1_555
C13 C12 1_555 1_555
H8 C13 1_555 1_555
C14 C9 1_555 1_555
C15 C10 1_555 1_555
H9 C15 1_555 1_555
H10 C15 1_555 1_555
H11 C15 1_555 1_555
C16 C11 1_555 1_555
H12 C16 1_555 1_555
H13 C16 1_555 1_555
H14 C16 1_555 1_555
C17 C14 1_555 1_555
H15 C17 1_555 1_555
H16 C17 1_555 1_555
H17 C17 1_555 1_555
C18 H18 1_555 1_555
H19 C18 1_555 1_555
H20 C18 1_555 1_555
O1 C12 1_555 1_555
C5 C6 1_555 1_555
C13 C14 1_555 1_555
C18 O1 1_555 1_555

#END
