
#######################################################################
#
#                 Cambridge Crystallographic Data Centre
#                                CCDC 
#
#######################################################################
#
# If this CIF has been generated from an entry in the Cambridge 
# Structural Database, then it will include bibliographic, chemical, 
# crystal, experimental, refinement or atomic coordinate data resulting 
# from the CCDC's data processing and validation procedures.
#
#######################################################################

data_VAGXIL
_chemical_formula_moiety         'C13 H10 Cl1 N1 O2'
_chemical_name_systematic        
N-(3-Chlorophenyl)-\a-(2-hydroxyphenyl)nitrone
_symmetry_cell_setting           monoclinic
_symmetry_space_group_name_H-M   'P 21/n'
_symmetry_Int_Tables_number      14
_space_group_name_Hall           '-P 2yn'
loop_
_symmetry_equiv_pos_site_id
_symmetry_equiv_pos_as_xyz
1 x,y,z
2 1/2+x,1/2-y,1/2+z
3 -x,-y,-z
4 1/2-x,1/2+y,1/2-z
_cell_length_a                   5.9476(8)
_cell_length_b                   14.613(8)
_cell_length_c                   12.850(6)
_cell_angle_alpha                90
_cell_angle_beta                 97.436(6)
_cell_angle_gamma                90
_cell_volume                     1107.43
_exptl_crystal_colour            'pale yellow'
_exptl_crystal_description       needle
_chemical_melting_point          398-400K
_cell_formula_units_Z            4
_exptl_crystal_recrystallization_method 'diethyl ether'
loop_
_atom_site_label
_atom_site_type_symbol
_atom_site_fract_x
_atom_site_fract_y
_atom_site_fract_z
Cl1 Cl 0.10997(8) 0.87607(4) 0.06473(3)
O1 O 0.17729(18) 0.84631(9) 0.46978(9)
O2 O 0.1357(2) 0.96928(10) 0.60065(10)
H1 H 0.124(4) 0.9255(18) 0.5458(19)
N1 N 0.3918(2) 0.86041(9) 0.45613(10)
C1 C 0.3185(3) 0.84911(12) 0.16810(13)
C2 C 0.5202(3) 0.81116(12) 0.14679(14)
H2 H 0.5458 0.8002 0.0780
C3 C 0.6826(3) 0.78987(12) 0.22973(15)
H3 H 0.8193 0.7644 0.2164
C4 C 0.6464(3) 0.80565(12) 0.33237(13)
H4 H 0.7566 0.7909 0.3879
C5 C 0.4422(3) 0.84400(11) 0.35048(12)
C6 C 0.2753(3) 0.86601(11) 0.26927(12)
H5 H 0.1383 0.8914 0.2824
C7 C 0.5452(3) 0.88661(11) 0.53128(12)
H6 H 0.691(3) 0.8939(11) 0.5110(14)
C8 C 0.5097(2) 0.90366(11) 0.63910(12)
C9 C 0.6919(3) 0.88394(12) 0.71651(14)
H7 H 0.8273 0.8626 0.6966
C10 C 0.6738(3) 0.89563(13) 0.82114(14)
H8 H 0.7938 0.8800 0.8717
C11 C 0.4762(3) 0.93081(13) 0.85066(14)
H9 H 0.4641 0.9390 0.9215
C12 C 0.2970(3) 0.95383(13) 0.77668(13)
H10 H 0.1657 0.9781 0.7978
C13 C 0.3110(3) 0.94098(11) 0.67035(12)
loop_
_geom_bond_atom_site_label_1
_geom_bond_atom_site_label_2
_geom_bond_site_symmetry_1
_geom_bond_site_symmetry_2
Cl1 C1 1_555 1_555
O1 N1 1_555 1_555
O2 H1 1_555 1_555
N1 C5 1_555 1_555
C1 C2 1_555 1_555
C2 H2 1_555 1_555
C3 C2 1_555 1_555
H3 C3 1_555 1_555
C4 C3 1_555 1_555
H4 C4 1_555 1_555
C5 C4 1_555 1_555
C6 C1 1_555 1_555
H5 C6 1_555 1_555
C7 N1 1_555 1_555
H6 C7 1_555 1_555
C8 C7 1_555 1_555
C9 C8 1_555 1_555
H7 C9 1_555 1_555
C10 C9 1_555 1_555
H8 C10 1_555 1_555
C11 C10 1_555 1_555
H9 C11 1_555 1_555
C12 C11 1_555 1_555
H10 C12 1_555 1_555
C13 O2 1_555 1_555
C5 C6 1_555 1_555
C8 C13 1_555 1_555
C12 C13 1_555 1_555

#END
