
#######################################################################
#
#                 Cambridge Crystallographic Data Centre
#                                CCDC 
#
#######################################################################
#
# If this CIF has been generated from an entry in the Cambridge 
# Structural Database, then it will include bibliographic, chemical, 
# crystal, experimental, refinement or atomic coordinate data resulting 
# from the CCDC's data processing and validation procedures.
#
#######################################################################

data_VAHBIS
_chemical_formula_moiety         'C15 H26 O2'
_chemical_name_systematic        
'3,6,6,7b-tetramethyldecahydro-1H-cyclobuta[e]indene-2,4-diol unknown solvate'
_symmetry_cell_setting           hexagonal
_symmetry_space_group_name_H-M   'P 65'
_symmetry_Int_Tables_number      170
_space_group_name_Hall           'P 65'
loop_
_symmetry_equiv_pos_site_id
_symmetry_equiv_pos_as_xyz
1 x,y,z
2 x-y,x,5/6+z
3 -y,x-y,2/3+z
4 -x,-y,1/2+z
5 -x+y,-x,1/3+z
6 y,-x+y,1/6+z
_cell_length_a                   21.353(3)
_cell_length_b                   21.353(3)
_cell_length_c                   5.8048(10)
_cell_angle_alpha                90
_cell_angle_beta                 90
_cell_angle_gamma                120
_cell_volume                     2292.11
_exptl_crystal_colour            colorless
_exptl_crystal_description       needle
_cell_formula_units_Z            6
loop_
_atom_site_label
_atom_site_type_symbol
_atom_site_fract_x
_atom_site_fract_y
_atom_site_fract_z
O1 O 0.5284(2) 0.5267(2) 0.4920(12)
O2 O 0.6995(2) 0.38966(18) 0.1635(9)
C1 C 0.6462(3) 0.6005(3) 0.3339(13)
C2 C 0.5984(3) 0.5332(3) 0.4745(14)
C3 C 0.5949(3) 0.4660(3) 0.3712(13)
C4 C 0.6712(3) 0.4767(3) 0.3790(13)
C5 C 0.7017(3) 0.4569(3) 0.1688(13)
C6 C 0.7749(3) 0.5241(3) 0.2143(12)
C7 C 0.7367(3) 0.5549(3) 0.3650(13)
C8 C 0.7137(3) 0.6016(3) 0.2277(11)
C9 C 0.7706(3) 0.6830(3) 0.2047(14)
C10 C 0.7373(3) 0.7277(3) 0.2967(13)
C11 C 0.6761(3) 0.6742(3) 0.4555(13)
C12 C 0.7747(3) 0.5877(3) 0.5902(12)
C13 C 0.7930(3) 0.7940(3) 0.4331(15)
C14 C 0.7079(4) 0.7523(3) 0.1014(14)
C15 C 0.5397(3) 0.3963(3) 0.4846(18)
H1 H 0.6611 0.3555 0.0347
H2 H 0.5082 0.5127 0.3651
H3 H 0.6176 0.6001 0.2061
H4 H 0.6178 0.5390 0.6250
H5 H 0.5821 0.4637 0.2163
H6 H 0.6764 0.4531 0.5172
H7 H 0.6816 0.4629 0.0347
H8 H 0.8078 0.5143 0.3003
H9 H 0.7976 0.5514 0.0851
H10 H 0.7017 0.5814 0.0801
H11 H 0.8131 0.6934 0.2881
H12 H 0.7825 0.6926 0.0450
H13 H 0.6933 0.6724 0.6045
H14 H 0.6384 0.6860 0.4697
H15 H 0.8140 0.6344 0.5684
H16 H 0.7931 0.5578 0.6567
H17 H 0.7417 0.5884 0.6990
H18 H 0.7729 0.8220 0.4881
H19 H 0.8342 0.8249 0.3372
H20 H 0.8109 0.7794 0.5618
H21 H 0.6885 0.7805 0.1659
H22 H 0.7455 0.7815 -0.0022
H23 H 0.6710 0.7118 0.0259
H24 H 0.5407 0.3567 0.4149
H25 H 0.5511 0.3976 0.6453
H26 H 0.4931 0.3908 0.4700
H27? H 0.5124 0.5129 0.6238
loop_
_geom_bond_atom_site_label_1
_geom_bond_atom_site_label_2
_geom_bond_site_symmetry_1
_geom_bond_site_symmetry_2
O1 C2 1_555 1_555
O2 C5 1_555 1_555
C1 C2 1_555 1_555
C2 C3 1_555 1_555
C3 C4 1_555 1_555
C4 C5 1_555 1_555
C5 C6 1_555 1_555
C6 C7 1_555 1_555
C7 C4 1_555 1_555
C8 C1 1_555 1_555
C9 C8 1_555 1_555
C10 C9 1_555 1_555
C11 C1 1_555 1_555
C12 C7 1_555 1_555
C13 C10 1_555 1_555
C14 C10 1_555 1_555
C15 C3 1_555 1_555
H1 O2 1_555 1_555
H2 O1 1_555 1_555
H3 C1 1_555 1_555
H4 C2 1_555 1_555
H5 C3 1_555 1_555
H6 C4 1_555 1_555
H7 C5 1_555 1_555
H8 C6 1_555 1_555
H9 C6 1_555 1_555
H10 C8 1_555 1_555
H11 C9 1_555 1_555
H12 C9 1_555 1_555
H13 C11 1_555 1_555
H14 C11 1_555 1_555
H15 C12 1_555 1_555
H16 C12 1_555 1_555
H17 C12 1_555 1_555
H18 C13 1_555 1_555
H19 C13 1_555 1_555
H20 C13 1_555 1_555
H21 C14 1_555 1_555
H22 C14 1_555 1_555
H23 C14 1_555 1_555
H24 C15 1_555 1_555
H25 C15 1_555 1_555
H26 C15 1_555 1_555
C7 C8 1_555 1_555
C10 C11 1_555 1_555

#END
