
#######################################################################
#
#                 Cambridge Crystallographic Data Centre
#                                CCDC 
#
#######################################################################
#
# If this CIF has been generated from an entry in the Cambridge 
# Structural Database, then it will include bibliographic, chemical, 
# crystal, experimental, refinement or atomic coordinate data resulting 
# from the CCDC's data processing and validation procedures.
#
#######################################################################

data_VAHBUE
_chemical_formula_moiety         'C14 H20 O2'
_chemical_name_systematic        
3a,5,5-trimethyldecahydro-2H-cyclobuta[6,7]indeno[4,5-b]oxiren-2-one
_symmetry_cell_setting           orthorhombic
_symmetry_space_group_name_H-M   'P 21 21 21'
_symmetry_Int_Tables_number      19
_space_group_name_Hall           'P 2ac 2ab'
loop_
_symmetry_equiv_pos_site_id
_symmetry_equiv_pos_as_xyz
1 x,y,z
2 1/2+x,1/2-y,-z
3 -x,1/2+y,1/2-z
4 1/2-x,-y,1/2+z
_cell_length_a                   5.8991(1)
_cell_length_b                   12.6249(1)
_cell_length_c                   16.8455(2)
_cell_angle_alpha                90
_cell_angle_beta                 90
_cell_angle_gamma                90
_cell_volume                     1254.58
_exptl_crystal_colour            colorless
_exptl_crystal_description       prism
_cell_formula_units_Z            4
loop_
_atom_site_label
_atom_site_type_symbol
_atom_site_fract_x
_atom_site_fract_y
_atom_site_fract_z
O1 O 0.58484(15) 0.72524(8) 0.59685(5)
O2 O 0.0516(11) 0.8468(8) 0.7814(6)
C1 C 0.23158(17) 0.61711(8) 0.57151(6)
C2 C 0.3509(2) 0.72217(9) 0.56973(7)
C3 C 0.4133(2) 0.77978(9) 0.64171(8)
C4 C 0.3592(2) 0.73597(9) 0.72154(7)
C5 C 0.1235(11) 0.7659(6) 0.7566(6)
C6 C 0.0193(10) 0.6589(7) 0.7458(7)
C7 C 0.2597(2) 0.62090(9) 0.72491(6)
C8 C 0.26858(17) 0.55491(8) 0.64890(6)
C9 C 0.4867(2) 0.49296(9) 0.63293(8)
C10 C 0.46823(19) 0.45678(9) 0.54565(8)
C11 C 0.3177(2) 0.54270(10) 0.50584(7)
C12 C 0.3526(3) 0.55981(13) 0.79631(8)
C13 C 0.3532(2) 0.34862(11) 0.54093(10)
C14 C 0.7008(2) 0.45096(13) 0.50547(11)
H1 H 0.0705 0.6330 0.5649
H2 H 0.3228 0.7639 0.5204
H3 H 0.4243 0.8581 0.6376
H4 H 0.4793 0.7461 0.7584
H5 H -0.0426 0.6287 0.7927
H6 H -0.0883 0.6541 0.7040
H7 H 0.1427 0.5045 0.6527
H8 H 0.6191 0.5401 0.6401
H9 H 0.5032 0.4334 0.6698
H10 H 0.4022 0.5840 0.4651
H11 H 0.1861 0.5117 0.4789
H12 H 0.2726 0.4928 0.8039
H13 H 0.3296 0.6027 0.8450
H14 H 0.5183 0.5477 0.7911
H15 H 0.3253 0.3268 0.4860
H16 H 0.4450 0.2951 0.5659
H17 H 0.2095 0.3487 0.5688
H18 H 0.6890 0.4264 0.4498
H19 H 0.7718 0.5200 0.5063
H20 H 0.7949 0.4002 0.5353
O3? O 0.0802(15) 0.8779(9) 0.7564(8)
C15? C 0.1372(14) 0.7884(8) 0.7413(9)
C16? C 0.0220(12) 0.6820(9) 0.7365(10)
H21? H 0.4737 0.7489 0.7600
H22? H -0.0566 0.6627 0.7836
H23? H -0.0766 0.6752 0.6922
loop_
_geom_bond_atom_site_label_1
_geom_bond_atom_site_label_2
_geom_bond_site_symmetry_1
_geom_bond_site_symmetry_2
O1 C2 1_555 1_555
O2 C5 1_555 1_555
C1 C2 1_555 1_555
C2 C3 1_555 1_555
C3 O1 1_555 1_555
C4 C3 1_555 1_555
C5 C4 1_555 1_555
C6 C5 1_555 1_555
C7 C4 1_555 1_555
C8 C1 1_555 1_555
C9 C8 1_555 1_555
C10 C9 1_555 1_555
C11 C1 1_555 1_555
C12 C7 1_555 1_555
C13 C10 1_555 1_555
C14 C10 1_555 1_555
H1 C1 1_555 1_555
H2 C2 1_555 1_555
H3 C3 1_555 1_555
H4 C4 1_555 1_555
H5 C6 1_555 1_555
H6 C6 1_555 1_555
H7 C8 1_555 1_555
H8 C9 1_555 1_555
H9 C9 1_555 1_555
H10 C11 1_555 1_555
H11 C11 1_555 1_555
H12 C12 1_555 1_555
H13 C12 1_555 1_555
H14 C12 1_555 1_555
H15 C13 1_555 1_555
H16 C13 1_555 1_555
H17 C13 1_555 1_555
H18 C14 1_555 1_555
H19 C14 1_555 1_555
H20 C14 1_555 1_555
C6 C7 1_555 1_555
C7 C8 1_555 1_555
C10 C11 1_555 1_555

#END
