
#######################################################################
#
#                 Cambridge Crystallographic Data Centre
#                                CCDC 
#
#######################################################################
#
# If this CIF has been generated from an entry in the Cambridge 
# Structural Database, then it will include bibliographic, chemical, 
# crystal, experimental, refinement or atomic coordinate data resulting 
# from the CCDC's data processing and validation procedures.
#
#######################################################################

data_VAHBAK
_chemical_formula_moiety         'C20 H18 O3'
_chemical_name_systematic        
5-methoxy-9-phenyl-2,3,4,9-tetrahydro-1H-xanthen-1-one
_symmetry_cell_setting           monoclinic
_symmetry_space_group_name_H-M   'P 21/c'
_symmetry_Int_Tables_number      14
_space_group_name_Hall           '-P 2ybc'
loop_
_symmetry_equiv_pos_site_id
_symmetry_equiv_pos_as_xyz
1 x,y,z
2 -x,1/2+y,1/2-z
3 -x,-y,-z
4 x,1/2-y,1/2+z
_cell_length_a                   5.6299(7)
_cell_length_b                   18.125(2)
_cell_length_c                   15.3048(18)
_cell_angle_alpha                90
_cell_angle_beta                 94.9800(10)
_cell_angle_gamma                90
_cell_volume                     1555.84
_exptl_crystal_colour            colorless
_exptl_crystal_description       block
_cell_formula_units_Z            4
loop_
_atom_site_label
_atom_site_type_symbol
_atom_site_fract_x
_atom_site_fract_y
_atom_site_fract_z
C1 C 0.6887(2) 0.13690(7) 0.36317(8)
C2 C 0.7818(3) 0.10196(8) 0.44889(9)
H1 H 0.7032 0.1246 0.4961
H2 H 0.7409 0.0500 0.4474
C3 C 1.0479(3) 0.10958(7) 0.46839(9)
H3 H 1.1285 0.0801 0.4271
H4 H 1.0941 0.0912 0.5269
C4 C 1.1240(2) 0.18956(6) 0.46195(8)
H5 H 1.0746 0.2168 0.5118
H6 H 1.2964 0.1922 0.4635
C5 C 1.0160(2) 0.22377(6) 0.37907(7)
O1 O 1.14189(15) 0.28413(4) 0.35669(5)
C6 C 1.0282(2) 0.33289(6) 0.29649(7)
C7 C 1.1313(2) 0.40328(6) 0.29416(8)
C8 C 1.0207(3) 0.45585(7) 0.23893(8)
H7 H 1.0865 0.5027 0.2356
C9 C 0.8119(3) 0.43839(7) 0.18870(9)
H8 H 0.7368 0.4742 0.1526
C10 C 0.7137(3) 0.36896(7) 0.19131(8)
H9 H 0.5735 0.3583 0.1569
C11 C 0.8235(2) 0.31452(6) 0.24532(7)
C12 C 0.7261(2) 0.23676(6) 0.24765(7)
H10 H 0.5521 0.2398 0.2467
C13 C 0.8191(2) 0.19993(6) 0.33202(7)
C14 C 0.78664(19) 0.19441(6) 0.16615(7)
C15 C 1.0005(2) 0.15742(7) 0.16292(8)
H11 H 1.1099 0.1563 0.2121
C16 C 1.0524(3) 0.12190(8) 0.08638(9)
H12 H 1.1964 0.0970 0.0847
C17 C 0.8928(3) 0.12326(8) 0.01314(9)
H13 H 0.9285 0.0992 -0.0378
C18 C 0.6807(3) 0.16019(8) 0.01537(8)
H14 H 0.5727 0.1616 -0.0342
C19 C 0.6282(2) 0.19531(7) 0.09150(8)
H15 H 0.4837 0.2200 0.0927
C20 C 1.4316(3) 0.48584(8) 0.35441(12)
H16 H 1.4789 0.5000 0.2980
H17 H 1.5683 0.4860 0.3965
H18 H 1.3153 0.5202 0.3724
O2 O 0.50777(18) 0.11397(6) 0.32216(6)
O3 O 1.33069(18) 0.41364(5) 0.34894(6)
loop_
_geom_bond_atom_site_label_1
_geom_bond_atom_site_label_2
_geom_bond_site_symmetry_1
_geom_bond_site_symmetry_2
C1 C2 1_555 1_555
C2 H1 1_555 1_555
H2 C2 1_555 1_555
C3 C2 1_555 1_555
H3 C3 1_555 1_555
H4 C3 1_555 1_555
C4 C3 1_555 1_555
H5 C4 1_555 1_555
H6 C4 1_555 1_555
C5 C4 1_555 1_555
O1 C5 1_555 1_555
C6 O1 1_555 1_555
C7 C6 1_555 1_555
C8 C7 1_555 1_555
H7 C8 1_555 1_555
C9 C8 1_555 1_555
H8 C9 1_555 1_555
C10 C9 1_555 1_555
H9 C10 1_555 1_555
C11 C6 1_555 1_555
C12 C11 1_555 1_555
H10 C12 1_555 1_555
C13 C1 1_555 1_555
C14 C12 1_555 1_555
C15 C14 1_555 1_555
H11 C15 1_555 1_555
C16 C15 1_555 1_555
H12 C16 1_555 1_555
C17 C16 1_555 1_555
H13 C17 1_555 1_555
C18 C17 1_555 1_555
H14 C18 1_555 1_555
C19 C14 1_555 1_555
H15 C19 1_555 1_555
C20 H16 1_555 1_555
H17 C20 1_555 1_555
H18 C20 1_555 1_555
O2 C1 1_555 1_555
O3 C7 1_555 1_555
C5 C13 1_555 1_555
C10 C11 1_555 1_555
C12 C13 1_555 1_555
C18 C19 1_555 1_555
C20 O3 1_555 1_555

#END
