
#######################################################################
#
#                 Cambridge Crystallographic Data Centre
#                                CCDC 
#
#######################################################################
#
# If this CIF has been generated from an entry in the Cambridge 
# Structural Database, then it will include bibliographic, chemical, 
# crystal, experimental, refinement or atomic coordinate data resulting 
# from the CCDC's data processing and validation procedures.
#
#######################################################################

data_VAHCUF
_chemical_formula_moiety         'C15 H24 O3'
_chemical_name_systematic        
5-hydroxy-4,7,7,8b-tetramethyldecahydro-2H-indeno[5,4-b]furan-2-one
_symmetry_cell_setting           monoclinic
_symmetry_space_group_name_H-M   'P 21'
_symmetry_Int_Tables_number      4
_space_group_name_Hall           'P 2yb'
loop_
_symmetry_equiv_pos_site_id
_symmetry_equiv_pos_as_xyz
1 x,y,z
2 -x,1/2+y,-z
_cell_length_a                   8.5891(2)
_cell_length_b                   16.7819(2)
_cell_length_c                   9.8613(1)
_cell_angle_alpha                90
_cell_angle_beta                 95.8337(13)
_cell_angle_gamma                90
_cell_volume                     1414.06
_exptl_crystal_colour            'pale yellow'
_exptl_crystal_description       block
_cell_formula_units_Z            4
loop_
_atom_site_label
_atom_site_type_symbol
_atom_site_fract_x
_atom_site_fract_y
_atom_site_fract_z
O1 O 0.60680(15) 0.30374(9) 0.56992(13)
O2 O 0.45043(14) 0.03122(7) 0.47217(11)
O3 O 0.38657(14) -0.06059(7) 0.61928(12)
C1 C 0.33608(17) 0.26479(9) 0.57872(13)
C2 C 0.48441(17) 0.25434(10) 0.50668(14)
C3 C 0.53788(18) 0.16746(10) 0.51686(14)
C4 C 0.41215(18) 0.11541(9) 0.44181(14)
C5 C 0.37012(17) 0.00642(10) 0.57417(14)
C6 C 0.26258(17) 0.07161(9) 0.61442(14)
C7 C 0.24625(17) 0.12506(9) 0.48654(13)
C8 C 0.20254(17) 0.21198(9) 0.51411(13)
C9 C 0.14089(17) 0.26106(9) 0.38797(14)
C10 C 0.14214(18) 0.34820(9) 0.43882(15)
C11 C 0.2674(2) 0.34955(10) 0.56299(15)
C12 C 0.1253(2) 0.08732(10) 0.38122(16)
C13 C -0.0191(2) 0.36881(12) 0.4819(3)
C14 C 0.1816(3) 0.40633(11) 0.32835(18)
C15 C 0.6964(2) 0.15404(12) 0.4629(2)
H1 H 0.604(3) 0.3472(19) 0.523(3)
H2 H 0.3583 0.2501 0.6745
H3 H 0.4625 0.2688 0.4098
H4 H 0.5468 0.1519 0.6142
H5 H 0.4116 0.1222 0.3434
H6 H 0.3118 0.0988 0.6958
H7 H 0.1633 0.0489 0.6361
H8 H 0.1186 0.2108 0.5770
H9 H 0.2117 0.2549 0.3153
H10 H 0.0327 0.2428 0.3498
H11 H 0.2193 0.3670 0.6443
H12 H 0.3500 0.3884 0.5507
H13 H 0.0186 0.0931 0.4091
H14 H 0.1441 0.0306 0.3740
H15 H 0.1302 0.1124 0.2936
H16 H -0.0139 0.4213 0.5279
H17 H -0.0503 0.3303 0.5483
H18 H -0.0991 0.3702 0.4042
H19 H 0.1823 0.4600 0.3633
H20 H 0.2851 0.3955 0.2983
H21 H 0.1032 0.4031 0.2482
H22 H 0.7218 0.0974 0.4649
H23 H 0.7781 0.1841 0.5159
H24 H 0.6947 0.1715 0.3695
O4 O 0.43098(14) 0.20748(8) 1.11815(11)
O5 O 0.52146(13) 0.46833(7) 0.93675(11)
O6 O 0.62274(14) 0.57255(8) 1.05468(12)
C16 C 0.69617(16) 0.24883(9) 1.09053(13)
C17 C 0.52456(16) 0.25091(9) 1.03131(12)
C18 C 0.46396(17) 0.33669(9) 1.01933(13)
C19 C 0.55990(18) 0.38338(9) 0.92412(13)
C20 C 0.63105(19) 0.50249(10) 1.02588(14)
C21 C 0.75618(17) 0.44286(9) 1.07387(14)
C22 C 0.73832(18) 0.38032(9) 0.95947(13)
C23 C 0.80052(17) 0.29736(9) 1.00266(13)
C24 C 0.82468(18) 0.23933(9) 0.88608(14)
C25 C 0.84724(19) 0.15662(9) 0.95434(15)
C26 C 0.76666(19) 0.16446(9) 1.08873(14)
C27 C 0.8197(2) 0.41201(10) 0.83903(16)
C28 C 1.0213(2) 0.13978(12) 0.98785(19)
C29 C 0.7730(3) 0.09081(10) 0.86280(17)
C30 C 0.28853(19) 0.34070(11) 0.97113(16)
H25 H 0.406(3) 0.1647(16) 1.079(2)
H26 H 0.7023 0.2712 1.1832
H27 H 0.5149 0.2280 0.9391
H28 H 0.4832 0.3621 1.1089
H29 H 0.5260 0.3686 0.8272
H30 H 0.8559 0.4678 1.0833
H31 H 0.7337 0.4214 1.1594
H32 H 0.9025 0.3047 1.0534
H33 H 0.9164 0.2528 0.8412
H34 H 0.7306 0.2399 0.8191
H35 H 0.8464 0.1577 1.1680
H36 H 0.6853 0.1244 1.0946
H37 H 0.9333 0.4100 0.8576
H38 H 0.7893 0.4664 0.8156
H39 H 0.7915 0.3783 0.7609
H40 H 1.0385 0.0888 1.0370
H41 H 1.0711 0.1826 1.0425
H42 H 1.0709 0.1355 0.9031
H43 H 0.7903 0.0399 0.9088
H44 H 0.8212 0.0905 0.7769
H45 H 0.6599 0.1006 0.8444
H46 H 0.2536 0.3966 0.9588
H47 H 0.2270 0.3160 1.0364
H48 H 0.2639 0.3125 0.8860
loop_
_geom_bond_atom_site_label_1
_geom_bond_atom_site_label_2
_geom_bond_site_symmetry_1
_geom_bond_site_symmetry_2
O1 C2 1_555 1_555
O2 C4 1_555 1_555
O3 C5 1_555 1_555
C1 C2 1_555 1_555
C2 C3 1_555 1_555
C3 C4 1_555 1_555
C4 C7 1_555 1_555
C5 O2 1_555 1_555
C6 C5 1_555 1_555
C7 C6 1_555 1_555
C8 C1 1_555 1_555
C9 C8 1_555 1_555
C10 C9 1_555 1_555
C11 C1 1_555 1_555
C12 C7 1_555 1_555
C13 C10 1_555 1_555
C14 C10 1_555 1_555
C15 C3 1_555 1_555
H1 O1 1_555 1_555
H2 C1 1_555 1_555
H3 C2 1_555 1_555
H4 C3 1_555 1_555
H5 C4 1_555 1_555
H6 C6 1_555 1_555
H7 C6 1_555 1_555
H8 C8 1_555 1_555
H9 C9 1_555 1_555
H10 C9 1_555 1_555
H11 C11 1_555 1_555
H12 C11 1_555 1_555
H13 C12 1_555 1_555
H14 C12 1_555 1_555
H15 C12 1_555 1_555
H16 C13 1_555 1_555
H17 C13 1_555 1_555
H18 C13 1_555 1_555
H19 C14 1_555 1_555
H20 C14 1_555 1_555
H21 C14 1_555 1_555
H22 C15 1_555 1_555
H23 C15 1_555 1_555
H24 C15 1_555 1_555
O4 C17 1_555 1_555
O5 C19 1_555 1_555
O6 C20 1_555 1_555
C16 C17 1_555 1_555
C17 C18 1_555 1_555
C18 C19 1_555 1_555
C19 C22 1_555 1_555
C20 O5 1_555 1_555
C21 C20 1_555 1_555
C22 C21 1_555 1_555
C23 C16 1_555 1_555
C24 C23 1_555 1_555
C25 C24 1_555 1_555
C26 C16 1_555 1_555
C27 C22 1_555 1_555
C28 C25 1_555 1_555
C29 C25 1_555 1_555
C30 C18 1_555 1_555
H25 O4 1_555 1_555
H26 C16 1_555 1_555
H27 C17 1_555 1_555
H28 C18 1_555 1_555
H29 C19 1_555 1_555
H30 C21 1_555 1_555
H31 C21 1_555 1_555
H32 C23 1_555 1_555
H33 C24 1_555 1_555
H34 C24 1_555 1_555
H35 C26 1_555 1_555
H36 C26 1_555 1_555
H37 C27 1_555 1_555
H38 C27 1_555 1_555
H39 C27 1_555 1_555
H40 C28 1_555 1_555
H41 C28 1_555 1_555
H42 C28 1_555 1_555
H43 C29 1_555 1_555
H44 C29 1_555 1_555
H45 C29 1_555 1_555
H46 C30 1_555 1_555
H47 C30 1_555 1_555
H48 C30 1_555 1_555
C7 C8 1_555 1_555
C10 C11 1_555 1_555
C22 C23 1_555 1_555
C25 C26 1_555 1_555

#END
