
#######################################################################
#
#                 Cambridge Crystallographic Data Centre
#                                CCDC 
#
#######################################################################
#
# If this CIF has been generated from an entry in the Cambridge 
# Structural Database, then it will include bibliographic, chemical, 
# crystal, experimental, refinement or atomic coordinate data resulting 
# from the CCDC's data processing and validation procedures.
#
#######################################################################

data_VAHCEP
_chemical_formula_moiety         'C14 H20 O2'
_chemical_name_systematic        
4-hydroxy-6,6,7b-trimethyl-1,4,4a,5,6,7,7a,7b-octahydro-2H-cyclobuta[e]inden-2-one
_symmetry_cell_setting           orthorhombic
_symmetry_space_group_name_H-M   'P 21 21 21'
_symmetry_Int_Tables_number      19
_space_group_name_Hall           'P 2ac 2ab'
loop_
_symmetry_equiv_pos_site_id
_symmetry_equiv_pos_as_xyz
1 x,y,z
2 1/2+x,1/2-y,-z
3 -x,1/2+y,1/2-z
4 1/2-x,-y,1/2+z
_cell_length_a                   8.3922(1)
_cell_length_b                   8.6217(1)
_cell_length_c                   17.1215(1)
_cell_angle_alpha                90
_cell_angle_beta                 90
_cell_angle_gamma                90
_cell_volume                     1238.83
_exptl_crystal_colour            colorless
_exptl_crystal_description       needle
_cell_formula_units_Z            4
loop_
_atom_site_label
_atom_site_type_symbol
_atom_site_fract_x
_atom_site_fract_y
_atom_site_fract_z
O1 O 0.90800(9) 0.87435(8) 0.55729(5)
O2 O 0.23400(9) 0.82967(10) 0.61508(5)
C1 C 0.80568(11) 0.61223(11) 0.58165(5)
C2 C 0.80370(11) 0.78542(11) 0.60530(6)
C3 C 0.63776(12) 0.85016(11) 0.59817(6)
C4 C 0.52250(11) 0.76347(11) 0.62816(6)
C5 C 0.34568(11) 0.74467(13) 0.62752(6)
C6 C 0.36213(11) 0.57390(13) 0.65192(7)
C7 C 0.54620(11) 0.60207(12) 0.66232(6)
C8 C 0.65873(11) 0.51199(11) 0.60781(6)
C9 C 0.73078(12) 0.36024(11) 0.63987(6)
C10 C 0.90169(12) 0.35075(11) 0.60726(6)
C11 C 0.95162(11) 0.52249(11) 0.61039(6)
C12 C 0.59639(13) 0.60708(13) 0.74806(6)
C13 C 1.00888(14) 0.24699(14) 0.65664(8)
C14 C 0.90035(14) 0.29135(13) 0.52291(7)
H1 H 1.001(2) 0.8535(19) 0.5714(9)
H2 H 0.8068 0.6111 0.5241
H3 H 0.8365 0.7940 0.6609
H4 H 0.6214 0.9491 0.5730
H5 H 0.3038 0.5481 0.7000
H6 H 0.3363 0.5050 0.6088
H7 H 0.5945 0.4889 0.5606
H8 H 0.7380 0.3660 0.6970
H9 H 0.6678 0.2693 0.6254
H10 H 0.9745 0.5494 0.6666
H11 H 1.0501 0.5445 0.5798
H12 H 0.5779 0.5051 0.7735
H13 H 0.7082 0.6326 0.7543
H14 H 0.5376 0.6851 0.7775
H15 H 1.1173 0.2480 0.6375
H16 H 1.0079 0.2846 0.7110
H17 H 0.9694 0.1407 0.6559
H18 H 1.0085 0.2971 0.5015
H19 H 0.8662 0.1843 0.5219
H20 H 0.8305 0.3535 0.4887
loop_
_geom_bond_atom_site_label_1
_geom_bond_atom_site_label_2
_geom_bond_site_symmetry_1
_geom_bond_site_symmetry_2
O1 C2 1_555 1_555
O2 C5 1_555 1_555
C1 C2 1_555 1_555
C2 C3 1_555 1_555
C3 C4 1_555 1_555
C4 C5 1_555 1_555
C5 C6 1_555 1_555
C6 C7 1_555 1_555
C7 C4 1_555 1_555
C8 C1 1_555 1_555
C9 C8 1_555 1_555
C10 C9 1_555 1_555
C11 C1 1_555 1_555
C12 C7 1_555 1_555
C13 C10 1_555 1_555
C14 C10 1_555 1_555
H1 O1 1_555 1_555
H2 C1 1_555 1_555
H3 C2 1_555 1_555
H4 C3 1_555 1_555
H5 C6 1_555 1_555
H6 C6 1_555 1_555
H7 C8 1_555 1_555
H8 C9 1_555 1_555
H9 C9 1_555 1_555
H10 C11 1_555 1_555
H11 C11 1_555 1_555
H12 C12 1_555 1_555
H13 C12 1_555 1_555
H14 C12 1_555 1_555
H15 C13 1_555 1_555
H16 C13 1_555 1_555
H17 C13 1_555 1_555
H18 C14 1_555 1_555
H19 C14 1_555 1_555
H20 C14 1_555 1_555
C7 C8 1_555 1_555
C10 C11 1_555 1_555

#END
