
#######################################################################
#
#                 Cambridge Crystallographic Data Centre
#                                CCDC 
#
#######################################################################
#
# If this CIF has been generated from an entry in the Cambridge 
# Structural Database, then it will include bibliographic, chemical, 
# crystal, experimental, refinement or atomic coordinate data resulting 
# from the CCDC's data processing and validation procedures.
#
#######################################################################

data_VAHDIS
_chemical_formula_moiety         'C24 H27 Cl1 N2 O6'
_chemical_name_systematic        
'Diethyl 2,6-dimethyl-4-(5-methyl-3-(5-chloro-2-methoxyphenyl)isoxazol-4-yl)-1,4-dihydropyridine-3,5-dicarboxylate'
_chemical_properties_biological  'calcium channel blocker'
_symmetry_cell_setting           monoclinic
_symmetry_space_group_name_H-M   'P 21/c'
_symmetry_Int_Tables_number      14
_space_group_name_Hall           '-P 2ybc'
loop_
_symmetry_equiv_pos_site_id
_symmetry_equiv_pos_as_xyz
1 x,y,z
2 -x,1/2+y,1/2-z
3 -x,-y,-z
4 x,1/2-y,1/2+z
_cell_length_a                   8.0759(2)
_cell_length_b                   19.0762(1)
_cell_length_c                   14.9780(4)
_cell_angle_alpha                90
_cell_angle_beta                 92.96
_cell_angle_gamma                90
_cell_volume                     2304.39
_cell_formula_units_Z            4
loop_
_atom_site_label
_atom_site_type_symbol
_atom_site_fract_x
_atom_site_fract_y
_atom_site_fract_z
Cl1 Cl 0.0184(2) 0.6267(1) 0.1709(1)
O1 O 0.3263(4) 0.8999(2) 0.4566(2)
O2 O 0.6054(4) 0.7273(2) 0.3809(2)
O3 O 0.2159(4) 1.0047(2) 0.1895(2)
O4 O 0.0187(4) 0.9435(2) 0.1112(2)
O5 O 0.8439(5) 0.8055(2) 0.2325(3)
O6 O 0.7432(4) 0.9066(2) 0.2840(2)
N1 N 0.3699(5) 0.7795(2) 0.0948(3)
N2 N 0.3101(5) 0.8270(2) 0.4428(3)
C1 C 0.5262(6) 0.7854(3) 0.1360(3)
C2 C 0.5628(6) 0.8392(3) 0.1930(3)
C3 C 0.4277(6) 0.8909(3) 0.2175(3)
C4 C 0.2766(6) 0.8871(3) 0.1529(3)
C5 C 0.2486(6) 0.8309(3) 0.0984(3)
C6 C 0.1008(6) 0.8153(3) 0.0375(3)
C7 C 0.1709(6) 0.9496(3) 0.1537(3)
C8 C -0.0846(6) 1.0059(3) 0.1120(4)
C9 C -0.2469(6) 0.9884(3) 0.0636(4)
C10 C 0.7294(7) 0.8459(3) 0.2363(3)
C11 C 0.8965(7) 0.9166(4) 0.3375(4)
C12 C 0.8655(30) 0.9362(16) 0.4288(15)
C14 C 0.6407(6) 0.7271(3) 0.1089(3)
C15 C 0.3804(6) 0.8806(3) 0.3139(3)
C16 C 0.3413(6) 0.8170(3) 0.3582(3)
C17 C 0.3684(6) 0.9304(3) 0.3787(3)
C18 C 0.3887(7) 1.0075(3) 0.3817(4)
C19 C 0.3350(6) 0.7447(3) 0.3208(3)
C20 C 0.1938(6) 0.7215(3) 0.2719(3)
C21 C 0.1926(7) 0.6544(3) 0.2364(4)
C22 C 0.3247(6) 0.6096(3) 0.2501(4)
C23 C 0.4647(6) 0.6319(3) 0.2994(3)
C24 C 0.4707(6) 0.6992(3) 0.3345(3)
C25 C 0.7543(7) 0.6862(3) 0.3876(4)
H1 H 0.3457(5) 0.7409(2) 0.0646(3)
H2 H 0.4750(6) 0.9391(3) 0.2130(3)
H3 H 0.1176(6) 0.7707(3) 0.0069(3)
H4 H 0.0860(6) 0.8529(3) -0.0068(3)
H5 H 0.0018(6) 0.8121(3) 0.0725(3)
H6 H -0.0300(6) 1.0451(3) 0.0816(4)
H7 H -0.1029(6) 1.0201(3) 0.1742(4)
H8 H -0.3195(6) 1.0296(3) 0.0630(4)
H9 H -0.2999(6) 0.9497(3) 0.0943(4)
H10 H -0.2272(6) 0.9745(3) 0.0021(4)
H11 H 0.9628(7) 0.9538(4) 0.3101(4)
H12 H 0.9618(7) 0.8727(4) 0.3379(4)
H13 H 0.9714(30) 0.9427(16) 0.4628(15)
H14 H 0.8018(30) 0.8991(16) 0.4565(15)
H15 H 0.8024(30) 0.9801(16) 0.4287(15)
H19 H 0.5808(6) 0.6957(3) 0.0667(3)
H20 H 0.6791(6) 0.7006(3) 0.1621(3)
H21 H 0.7363(6) 0.7473(3) 0.0804(3)
H22 H 0.3690(7) 1.0245(3) 0.4420(4)
H23 H 0.3088(7) 1.0293(3) 0.3387(4)
H24 H 0.5016(7) 1.0198(3) 0.3664(4)
H25 H 0.1000(6) 0.7512(3) 0.2630(3)
H26 H 0.3200(6) 0.5636(3) 0.2259(4)
H27 H 0.5563(6) 0.6011(3) 0.3092(3)
H28 H 0.8406(7) 0.7120(3) 0.4223(4)
H29 H 0.7918(7) 0.6769(3) 0.3275(4)
H30 H 0.7323(7) 0.6417(3) 0.4174(4)
C13? C 0.8761(18) 0.8885(11) 0.4282(9)
H16? H 0.9791(18) 0.8952(11) 0.4647(9)
H17? H 0.8502(18) 0.8384(11) 0.4243(9)
H18? H 0.7854(18) 0.9133(11) 0.4557(9)
loop_
_geom_bond_atom_site_label_1
_geom_bond_atom_site_label_2
_geom_bond_site_symmetry_1
_geom_bond_site_symmetry_2
Cl1 C21 1_555 1_555
O1 N2 1_555 1_555
O2 C24 1_555 1_555
O3 C7 1_555 1_555
O4 C7 1_555 1_555
O5 C10 1_555 1_555
O6 C10 1_555 1_555
N1 C1 1_555 1_555
N2 C16 1_555 1_555
C1 C2 1_555 1_555
C2 C3 1_555 1_555
C3 C4 1_555 1_555
C4 C5 1_555 1_555
C5 N1 1_555 1_555
C6 C5 1_555 1_555
C7 C4 1_555 1_555
C8 O4 1_555 1_555
C9 C8 1_555 1_555
C10 C2 1_555 1_555
C11 O6 1_555 1_555
C12 C11 1_555 1_555
C14 C1 1_555 1_555
C15 C3 1_555 1_555
C16 C15 1_555 1_555
C17 O1 1_555 1_555
C18 C17 1_555 1_555
C19 C16 1_555 1_555
C20 C19 1_555 1_555
C21 C20 1_555 1_555
C22 C21 1_555 1_555
C23 C22 1_555 1_555
C24 C19 1_555 1_555
C25 O2 1_555 1_555
H1 N1 1_555 1_555
H2 C3 1_555 1_555
H3 C6 1_555 1_555
H4 C6 1_555 1_555
H5 C6 1_555 1_555
H6 C8 1_555 1_555
H7 C8 1_555 1_555
H8 C9 1_555 1_555
H9 C9 1_555 1_555
H10 C9 1_555 1_555
H11 C11 1_555 1_555
H12 C11 1_555 1_555
H13 C12 1_555 1_555
H14 C12 1_555 1_555
H15 C12 1_555 1_555
H19 C14 1_555 1_555
H20 C14 1_555 1_555
H21 C14 1_555 1_555
H22 C18 1_555 1_555
H23 C18 1_555 1_555
H24 C18 1_555 1_555
H25 C20 1_555 1_555
H26 C22 1_555 1_555
H27 C23 1_555 1_555
H28 C25 1_555 1_555
H29 C25 1_555 1_555
H30 C25 1_555 1_555
C15 C17 1_555 1_555
C23 C24 1_555 1_555

#END
