
#######################################################################
#
#                 Cambridge Crystallographic Data Centre
#                                CCDC 
#
#######################################################################
#
# If this CIF has been generated from an entry in the Cambridge 
# Structural Database, then it will include bibliographic, chemical, 
# crystal, experimental, refinement or atomic coordinate data resulting 
# from the CCDC's data processing and validation procedures.
#
#######################################################################

data_VAHDOY
_chemical_formula_moiety         'C24 H28 N2 O6'
_chemical_name_systematic        
'Diethyl 2,6-dimethyl-4-(5-methyl-3-(2-methoxyphenyl)isoxazol-4-yl)-1,4-dihydropyridine-3,5-dicarboxylate'
_chemical_properties_biological  'calcium channel blocker'
_symmetry_cell_setting           monoclinic
_symmetry_space_group_name_H-M   'P 21/c'
_symmetry_Int_Tables_number      14
_space_group_name_Hall           '-P 2ybc'
loop_
_symmetry_equiv_pos_site_id
_symmetry_equiv_pos_as_xyz
1 x,y,z
2 -x,1/2+y,1/2-z
3 -x,-y,-z
4 x,1/2-y,1/2+z
_cell_length_a                   8.095(3)
_cell_length_b                   18.894(7)
_cell_length_c                   14.867(4)
_cell_angle_alpha                90
_cell_angle_beta                 93.84(2)
_cell_angle_gamma                90
_cell_volume                     2268.76
_exptl_crystal_colour            yellow
_chemical_melting_point          '204-205 deg.C'
_cell_formula_units_Z            4
loop_
_atom_site_label
_atom_site_type_symbol
_atom_site_fract_x
_atom_site_fract_y
_atom_site_fract_z
N1 N 0.1279(3) 0.2796(1) 0.4032(2)
N2 N 0.1874(3) 0.3291(1) 0.0552(2)
O1 O 0.1701(2) 0.4025(1) 0.0411(1)
O2 O -0.1071(2) 0.2282(1) 0.1231(1)
O3 O -0.3460(3) 0.3099(1) 0.2660(2)
O4 O -0.2409(2) 0.4086(1) 0.2099(1)
O5 O 0.2952(3) 0.5029(1) 0.3043(1)
O6 O 0.4810(2) 0.4421(1) 0.3918(1)
C1 C -0.0289(3) 0.2863(1) 0.3621(2)
C2 C -0.0630(3) 0.3407(1) 0.3045(2)
C3 C 0.0713(3) 0.3924(2) 0.2806(2)
C4 C 0.2242(3) 0.3869(1) 0.3463(2)
C5 C 0.2499(3) 0.3301(1) 0.3999(2)
C6 C -0.1440(5) 0.2290(2) 0.3885(3)
C7 C -0.2292(4) 0.3494(2) 0.2606(2)
C8 C -0.3950(4) 0.4184(2) 0.1553(2)
C9 C -0.3833(9) 0.3888(5) 0.0660(4)
C10 C 0.3334(3) 0.4485(2) 0.3444(2)
C11 C 0.5900(4) 0.5031(2) 0.3891(2)
C12 C 0.7490(4) 0.4851(2) 0.4406(3)
C13 C 0.3999(4) 0.3133(2) 0.4607(2)
C14 C 0.1175(3) 0.3823(1) 0.1837(2)
C15 C 0.1569(3) 0.3186(1) 0.1396(2)
C16 C 0.1281(3) 0.4327(2) 0.1193(2)
C17 C 0.1048(6) 0.5101(2) 0.1170(3)
C18 C 0.1688(3) 0.2455(1) 0.1763(2)
C19 C 0.0324(4) 0.2002(2) 0.1668(2)
C20 C 0.0423(4) 0.1326(2) 0.2019(2)
C21 C 0.1882(4) 0.1105(2) 0.2470(2)
C22 C 0.3240(4) 0.1546(2) 0.2571(2)
C23 C 0.3127(4) 0.2217(2) 0.2214(2)
C24 C -0.2529(5) 0.1855(2) 0.1178(3)
H1 H 0.1465(35) 0.2427(16) 0.4403(20)
H2 H 0.0313(27) 0.4409(12) 0.2817(14)
H3 H -0.1018(57) 0.2043(24) 0.4424(34)
H4 H -0.1662(65) 0.1967(28) 0.3464(37)
H5 H -0.2411(66) 0.2478(25) 0.3999(33)
H6 H -0.4159(4) 0.4781(2) 0.1238(2)
H7 H -0.4905(4) 0.4013(2) 0.1891(2)
H8 H -0.4877(75) 0.4030(30) 0.0201(40)
H9 H -0.3951(87) 0.3404(42) 0.0904(49)
H10 H -0.2762(94) 0.3961(36) 0.0383(45)
H11 H 0.5279(35) 0.5430(15) 0.4161(19)
H12 H 0.6017(37) 0.5159(15) 0.3262(22)
H13 H 0.8215(43) 0.5284(18) 0.4414(21)
H14 H 0.8076(47) 0.4450(21) 0.4145(26)
H15 H 0.7313(38) 0.4724(15) 0.5021(23)
H16 H 0.3919(44) 0.2652(21) 0.4773(24)
H17 H 0.3977(56) 0.3411(24) 0.5114(31)
H18 H 0.5062(57) 0.3172(21) 0.4324(29)
H19 H 0.1932(72) 0.5326(28) 0.0979(37)
H20 H 0.0930(57) 0.5291(23) 0.1721(35)
H21 H 0.0113(60) 0.5245(22) 0.0815(32)
H22 H -0.0549(39) 0.1019(16) 0.1982(19)
H23 H 0.1936(42) 0.0634(19) 0.2732(23)
H24 H 0.4315(43) 0.1365(17) 0.2940(22)
H25 H 0.3989(35) 0.2520(14) 0.2264(17)
H26 H -0.3443(52) 0.2160(22) 0.0874(28)
H27 H -0.2884(52) 0.1683(22) 0.1785(31)
H28 H -0.2263(44) 0.1462(20) 0.0787(25)
C25? C -0.3814(21) 0.4532(12) 0.0767(11)
H29? H -0.4908(21) 0.4572(12) 0.0447(11)
H30? H -0.3071(21) 0.4269(12) 0.0393(11)
H31? H -0.3362(21) 0.5006(12) 0.0890(11)
loop_
_geom_bond_atom_site_label_1
_geom_bond_atom_site_label_2
_geom_bond_site_symmetry_1
_geom_bond_site_symmetry_2
N1 C1 1_555 1_555
N2 O1 1_555 1_555
O1 C16 1_555 1_555
O2 C19 1_555 1_555
O3 C7 1_555 1_555
O4 C7 1_555 1_555
O5 C10 1_555 1_555
O6 C10 1_555 1_555
C1 C2 1_555 1_555
C2 C3 1_555 1_555
C3 C4 1_555 1_555
C4 C5 1_555 1_555
C5 N1 1_555 1_555
C6 C1 1_555 1_555
C7 C2 1_555 1_555
C8 O4 1_555 1_555
C9 C8 1_555 1_555
C10 C4 1_555 1_555
C11 O6 1_555 1_555
C12 C11 1_555 1_555
C13 C5 1_555 1_555
C14 C3 1_555 1_555
C15 N2 1_555 1_555
C16 C14 1_555 1_555
C17 C16 1_555 1_555
C18 C15 1_555 1_555
C19 C18 1_555 1_555
C20 C19 1_555 1_555
C21 C20 1_555 1_555
C22 C21 1_555 1_555
C23 C18 1_555 1_555
C24 O2 1_555 1_555
H1 N1 1_555 1_555
H2 C3 1_555 1_555
H3 C6 1_555 1_555
H4 C6 1_555 1_555
H5 C6 1_555 1_555
H6 C8 1_555 1_555
H7 C8 1_555 1_555
H8 C9 1_555 1_555
H9 C9 1_555 1_555
H10 C9 1_555 1_555
H11 C11 1_555 1_555
H12 C11 1_555 1_555
H13 C12 1_555 1_555
H14 C12 1_555 1_555
H15 C12 1_555 1_555
H16 C13 1_555 1_555
H17 C13 1_555 1_555
H18 C13 1_555 1_555
H19 C17 1_555 1_555
H20 C17 1_555 1_555
H21 C17 1_555 1_555
H22 C20 1_555 1_555
H23 C21 1_555 1_555
H24 C22 1_555 1_555
H25 C23 1_555 1_555
H26 C24 1_555 1_555
H27 C24 1_555 1_555
H28 C24 1_555 1_555
C14 C15 1_555 1_555
C22 C23 1_555 1_555

#END
