
#######################################################################
#
#                 Cambridge Crystallographic Data Centre
#                                CCDC 
#
#######################################################################
#
# If this CIF has been generated from an entry in the Cambridge 
# Structural Database, then it will include bibliographic, chemical, 
# crystal, experimental, refinement or atomic coordinate data resulting 
# from the CCDC's data processing and validation procedures.
#
#######################################################################

data_VAHFIU
_chemical_formula_moiety         'C4 H3 N5 O6'
_chemical_name_systematic        1-Methyl-2,4,5-trinitroimidazole
_symmetry_cell_setting           orthorhombic
_symmetry_space_group_name_H-M   'P c a 21'
_symmetry_Int_Tables_number      29
_space_group_name_Hall           'P 2c -2ac'
loop_
_symmetry_equiv_pos_site_id
_symmetry_equiv_pos_as_xyz
1 x,y,z
2 -x,-y,1/2+z
3 1/2-x,y,1/2+z
4 1/2+x,-y,z
_cell_length_a                   8.6183(6)
_cell_length_b                   17.7119(12)
_cell_length_c                   10.6873(7)
_cell_angle_alpha                90
_cell_angle_beta                 90
_cell_angle_gamma                90
_cell_volume                     1631.38
_exptl_crystal_colour            yellow
_chemical_melting_point          '82 deg.C'
_cell_formula_units_Z            8
_exptl_crystal_recrystallization_method ethanol
_exptl_crystal_preparation       
'energetic filler for propellants and explosives'
loop_
_atom_site_label
_atom_site_type_symbol
_atom_site_fract_x
_atom_site_fract_y
_atom_site_fract_z
C1 C 0.2534(2) 0.1416(1) 0.9136(2)
C2 C 0.4934(2) 0.0595(1) 0.8715(2)
C3 C 0.6542(2) 0.1041(1) 0.9952(2)
C4 C 0.5242(2) 0.1471(1) 1.0058(1)
N1 N 0.4172(2) 0.1179(1) 0.9259(1)
N2 N 0.4260(2) 0.0142(1) 0.7716(1)
N3 N 0.6340(1) 0.0486(1) 0.9113(1)
N4 N 0.7946(2) 0.1089(1) 1.0691(1)
N5 N 0.4936(2) 0.2144(1) 1.0796(1)
O1 O 0.3229(2) 0.0423(1) 0.7099(1)
O2 O 0.4810(2) -0.0488(1) 0.7566(2)
O3 O 0.9014(2) 0.0681(1) 1.0408(2)
O4 O 0.7939(2) 0.1531(1) 1.1568(1)
O5 O 0.5810(2) 0.2670(1) 1.0643(2)
O6 O 0.3822(2) 0.2136(1) 1.1487(2)
C5 C 0.7884(2) 0.3548(1) 0.2680(2)
C6 C 0.5516(2) 0.4302(1) 0.1961(2)
C7 C 0.3785(2) 0.3922(1) 0.3142(2)
C8 C 0.5083(2) 0.3520(1) 0.3431(2)
N6 N 0.6231(2) 0.3768(1) 0.2663(1)
N7 N 0.6283(2) 0.4685(1) 0.0928(2)
N8 N 0.4063(2) 0.4417(1) 0.2217(2)
N9 N 0.2231(2) 0.3849(1) 0.3646(2)
N10 N 0.5336(2) 0.2915(1) 0.4318(2)
O7 O 0.7312(2) 0.4348(1) 0.0387(2)
O8 O 0.5804(2) 0.5312(1) 0.0670(2)
O9 O 0.1355(2) 0.4375(1) 0.3540(2)
O10 O 0.1921(2) 0.3253(1) 0.4145(3)
O11 O 0.4779(3) 0.2975(1) 0.5338(2)
O12 O 0.6070(2) 0.2370(1) 0.3934(2)
loop_
_geom_bond_atom_site_label_1
_geom_bond_atom_site_label_2
_geom_bond_site_symmetry_1
_geom_bond_site_symmetry_2
C1 N1 1_555 1_555
C2 N1 1_555 1_555
C3 C4 1_555 1_555
C4 N1 1_555 1_555
N2 C2 1_555 1_555
N3 C2 1_555 1_555
N4 C3 1_555 1_555
N5 C4 1_555 1_555
O1 N2 1_555 1_555
O2 N2 1_555 1_555
O3 N4 1_555 1_555
O4 N4 1_555 1_555
O5 N5 1_555 1_555
O6 N5 1_555 1_555
C5 N6 1_555 1_555
C6 N6 1_555 1_555
C7 C8 1_555 1_555
C8 N6 1_555 1_555
N7 C6 1_555 1_555
N8 C6 1_555 1_555
N9 C7 1_555 1_555
N10 C8 1_555 1_555
O7 N7 1_555 1_555
O8 N7 1_555 1_555
O9 N9 1_555 1_555
O10 N9 1_555 1_555
O11 N10 1_555 1_555
O12 N10 1_555 1_555
C3 N3 1_555 1_555
C7 N8 1_555 1_555

#END
