
#######################################################################
#
#                 Cambridge Crystallographic Data Centre
#                                CCDC 
#
#######################################################################
#
# If this CIF has been generated from an entry in the Cambridge 
# Structural Database, then it will include bibliographic, chemical, 
# crystal, experimental, refinement or atomic coordinate data resulting 
# from the CCDC's data processing and validation procedures.
#
#######################################################################

data_VAHRII
_chemical_formula_moiety         'C29 H26 N1 O2 P1'
_chemical_name_systematic        
3-(Diphenylphosphoryl)-1-methyl-4-(3-methylphenyl)-3,4-dihydroquinolin-2(1H)-one
_symmetry_cell_setting           monoclinic
_symmetry_space_group_name_H-M   'P 21/c'
_symmetry_Int_Tables_number      14
_space_group_name_Hall           '-P 2ybc'
loop_
_symmetry_equiv_pos_site_id
_symmetry_equiv_pos_as_xyz
1 x,y,z
2 -x,1/2+y,1/2-z
3 -x,-y,-z
4 x,1/2-y,1/2+z
_cell_length_a                   16.157(3)
_cell_length_b                   9.1290(18)
_cell_length_c                   16.109(3)
_cell_angle_alpha                90
_cell_angle_beta                 90.44(3)
_cell_angle_gamma                90
_cell_volume                     2375.96
_exptl_crystal_colour            colorless
_exptl_crystal_description       block
_cell_formula_units_Z            4
loop_
_atom_site_label
_atom_site_type_symbol
_atom_site_fract_x
_atom_site_fract_y
_atom_site_fract_z
P1 P 0.74219(7) 0.11160(15) 0.61359(7)
N1 N 0.7010(2) 0.4746(4) 0.5430(2)
O1 O 0.62707(19) 0.4305(4) 0.65780(19)
C1 C 0.7564(2) 0.3054(4) 0.6467(2)
H1 H 0.7550 0.3055 0.7075
O2 O 0.82314(17) 0.0358(3) 0.60981(18)
C2 C 0.6888(3) 0.4082(5) 0.6181(3)
C3 C 0.6358(3) 0.5708(5) 0.5114(3)
H2 H 0.5928 0.5789 0.5519
H3 H 0.6133 0.5307 0.4610
H4 H 0.6584 0.6661 0.5005
C4 C 0.7722(3) 0.4458(5) 0.4930(3)
C5 C 0.7694(3) 0.4736(5) 0.4077(3)
H5 H 0.7212 0.5082 0.3827
C6 C 0.8398(3) 0.4488(5) 0.3610(3)
H6 H 0.8388 0.4665 0.3042
C7 C 0.9106(3) 0.3983(6) 0.3981(3)
H7 H 0.9581 0.3834 0.3670
C8 C 0.9108(3) 0.3701(5) 0.4812(3)
H8 H 0.9588 0.3340 0.5060
C9 C 0.8416(2) 0.3935(5) 0.5298(2)
C10 C 0.8441(2) 0.3592(5) 0.6219(2)
H9 H 0.8831 0.2786 0.6310
C11 C 0.8697(3) 0.4854(5) 0.6768(3)
C12 C 0.9006(3) 0.4548(5) 0.7551(3)
H10 H 0.9044 0.3576 0.7720
C13 C 0.9263(3) 0.5651(5) 0.8101(3)
C14 C 0.9212(3) 0.7064(5) 0.7849(3)
H11 H 0.9377 0.7811 0.8206
C15 C 0.8914(3) 0.7407(6) 0.7058(3)
H12 H 0.8882 0.8378 0.6887
C16 C 0.8668(3) 0.6303(5) 0.6532(3)
H13 H 0.8476 0.6540 0.6003
C17 C 0.9615(3) 0.5274(5) 0.8948(3)
H14 H 0.9765 0.6159 0.9234
H15 H 1.0096 0.4669 0.8885
H16 H 0.9207 0.4756 0.9263
C18 C 0.6880(3) 0.1057(5) 0.5159(3)
C19 C 0.6059(3) 0.1398(5) 0.5081(3)
H17 H 0.5771 0.1737 0.5540
C20 C 0.5647(3) 0.1243(6) 0.4316(3)
H18 H 0.5088 0.1470 0.4266
C21 C 0.6082(4) 0.0753(6) 0.3647(3)
H19 H 0.5817 0.0653 0.3135
C22 C 0.6896(4) 0.0410(7) 0.3721(3)
H20 H 0.7183 0.0057 0.3264
C23 C 0.7305(3) 0.0585(6) 0.4481(3)
H21 H 0.7867 0.0381 0.4525
C24 C 0.6737(3) 0.0267(5) 0.6860(3)
C25 C 0.6771(3) -0.1258(5) 0.6901(3)
H22 H 0.7152 -0.1762 0.6579
C26 C 0.6250(3) -0.2025(6) 0.7412(3)
H23 H 0.6284 -0.3041 0.7439
C27 C 0.5681(3) -0.1295(6) 0.7883(3)
H24 H 0.5325 -0.1811 0.8227
C28 C 0.5640(3) 0.0211(6) 0.7842(3)
H25 H 0.5253 0.0710 0.8159
C29 C 0.6164(3) 0.0980(6) 0.7338(3)
H26 H 0.6130 0.1997 0.7319
loop_
_geom_bond_atom_site_label_1
_geom_bond_atom_site_label_2
_geom_bond_site_symmetry_1
_geom_bond_site_symmetry_2
P1 C1 1_555 1_555
N1 C2 1_555 1_555
O1 C2 1_555 1_555
C1 H1 1_555 1_555
O2 P1 1_555 1_555
C2 C1 1_555 1_555
C3 N1 1_555 1_555
H2 C3 1_555 1_555
H3 C3 1_555 1_555
H4 C3 1_555 1_555
C4 N1 1_555 1_555
C5 C4 1_555 1_555
H5 C5 1_555 1_555
C6 C5 1_555 1_555
H6 C6 1_555 1_555
C7 C6 1_555 1_555
H7 C7 1_555 1_555
C8 C7 1_555 1_555
H8 C8 1_555 1_555
C9 C4 1_555 1_555
C10 C1 1_555 1_555
H9 C10 1_555 1_555
C11 C10 1_555 1_555
C12 C11 1_555 1_555
H10 C12 1_555 1_555
C13 C12 1_555 1_555
C14 C13 1_555 1_555
H11 C14 1_555 1_555
C15 C14 1_555 1_555
H12 C15 1_555 1_555
C16 C11 1_555 1_555
H13 C16 1_555 1_555
C17 C13 1_555 1_555
H14 C17 1_555 1_555
H15 C17 1_555 1_555
H16 C17 1_555 1_555
C18 P1 1_555 1_555
C19 C18 1_555 1_555
H17 C19 1_555 1_555
C20 C19 1_555 1_555
H18 C20 1_555 1_555
C21 C20 1_555 1_555
H19 C21 1_555 1_555
C22 C21 1_555 1_555
H20 C22 1_555 1_555
C23 C18 1_555 1_555
H21 C23 1_555 1_555
C24 P1 1_555 1_555
C25 C24 1_555 1_555
H22 C25 1_555 1_555
C26 C25 1_555 1_555
H23 C26 1_555 1_555
C27 C26 1_555 1_555
H24 C27 1_555 1_555
C28 C27 1_555 1_555
H25 C28 1_555 1_555
C29 C24 1_555 1_555
H26 C29 1_555 1_555
C8 C9 1_555 1_555
C9 C10 1_555 1_555
C15 C16 1_555 1_555
C22 C23 1_555 1_555
C28 C29 1_555 1_555

#END
