
#######################################################################
#
#                 Cambridge Crystallographic Data Centre
#                                CCDC 
#
#######################################################################
#
# If this CIF has been generated from an entry in the Cambridge 
# Structural Database, then it will include bibliographic, chemical, 
# crystal, experimental, refinement or atomic coordinate data resulting 
# from the CCDC's data processing and validation procedures.
#
#######################################################################

data_VAHWUW
_chemical_formula_moiety         'C16 H17 Cl1 N2 O6 S1'
_chemical_name_systematic        
endo-3-Chloro-exo-4-((2,4-dinitrophenyl)thio)spiro(bicyclo(3.2.1)octane-6,2'(1,3)dioxolane)
_symmetry_cell_setting           monoclinic
_symmetry_space_group_name_H-M   'P 21/n'
_symmetry_Int_Tables_number      14
_space_group_name_Hall           '-P 2yn'
loop_
_symmetry_equiv_pos_site_id
_symmetry_equiv_pos_as_xyz
1 x,y,z
2 1/2-x,1/2+y,1/2-z
3 -x,-y,-z
4 1/2+x,1/2-y,1/2+z
_cell_length_a                   11.312(5)
_cell_length_b                   16.551(4)
_cell_length_c                   9.726(5)
_cell_angle_alpha                90
_cell_angle_beta                 107.66(4)
_cell_angle_gamma                90
_cell_volume                     1735.13
_exptl_crystal_colour            colorless
_chemical_melting_point          162-163deg.C
_cell_formula_units_Z            4
loop_
_atom_site_label
_atom_site_type_symbol
_atom_site_fract_x
_atom_site_fract_y
_atom_site_fract_z
S1 S 0.1081(1) 0.6650(1) 0.2791(1)
Cl1 Cl -0.1054(1) 0.7410(1) 0.4149(1)
C1 C -0.2907(2) 0.6100(2) 0.0540(3)
C2 C -0.2675(2) 0.6683(2) 0.1819(3)
C3 C -0.1313(2) 0.6919(2) 0.2439(3)
C4 C -0.0436(2) 0.6196(1) 0.2599(2)
C5 C -0.0849(2) 0.5629(1) 0.1270(3)
C6 C -0.1648(2) 0.4919(2) 0.1502(3)
C7 C -0.2990(3) 0.5227(2) 0.1000(3)
C8 C -0.1767(3) 0.6066(2) 0.0004(3)
O1 O -0.1256(2) 0.4643(1) 0.2943(2)
C9 C -0.1347(3) 0.3787(2) 0.2881(4)
C10 C -0.1015(3) 0.3597(2) 0.1548(4)
O2 O -0.1535(2) 0.4253(1) 0.0622(2)
C11 C 0.2087(2) 0.5822(1) 0.3151(2)
C12 C 0.1799(2) 0.5092(2) 0.3706(3)
C13 C 0.2586(2) 0.4438(2) 0.3976(3)
C14 C 0.3696(2) 0.4494(2) 0.3669(3)
C15 C 0.4029(2) 0.5187(2) 0.3119(3)
C16 C 0.3244(2) 0.5846(2) 0.2890(3)
N1 N 0.4550(2) 0.3804(1) 0.3945(3)
O3 O 0.5451(2) 0.3841(2) 0.3497(3)
O4 O 0.4347(2) 0.3244(1) 0.4649(3)
N2 N 0.3678(2) 0.6581(2) 0.2353(2)
O5 O 0.3191(2) 0.7222(1) 0.2482(3)
O6 O 0.4517(2) 0.6511(2) 0.1810(3)
H1 H -0.3648 0.6293 -0.0155
H2 H -0.2939 0.6430 0.2569
H3 H -0.3157 0.7166 0.1507
H4 H -0.1126 0.7280 0.1761
H5 H -0.0417 0.5862 0.3412
H6 H -0.0092 0.5462 0.1113
H7 H -0.3354 0.5200 0.1768
H8 H -0.3480 0.4912 0.0194
H9 H -0.1472 0.6596 -0.0138
H10 H -0.1920 0.5762 -0.0876
H11 H -0.0801 0.3547 0.3728
H12 H -0.2195 0.3624 0.2796
H13 H -0.1361 0.3085 0.1109
H14 H -0.0122 0.3570 0.1718
H15 H 0.1019 0.5051 0.3907
H16 H 0.2366 0.3950 0.4371
H17 H 0.4799 0.5220 0.2893
loop_
_geom_bond_atom_site_label_1
_geom_bond_atom_site_label_2
_geom_bond_site_symmetry_1
_geom_bond_site_symmetry_2
S1 C4 1_555 1_555
Cl1 C3 1_555 1_555
C1 C2 1_555 1_555
C2 C3 1_555 1_555
C3 C4 1_555 1_555
C4 C5 1_555 1_555
C5 C6 1_555 1_555
C6 C7 1_555 1_555
C7 C1 1_555 1_555
C8 C1 1_555 1_555
O1 C6 1_555 1_555
C9 O1 1_555 1_555
C10 C9 1_555 1_555
O2 C6 1_555 1_555
C11 S1 1_555 1_555
C12 C11 1_555 1_555
C13 C12 1_555 1_555
C14 C13 1_555 1_555
C15 C14 1_555 1_555
C16 C11 1_555 1_555
N1 C14 1_555 1_555
O3 N1 1_555 1_555
O4 N1 1_555 1_555
N2 C16 1_555 1_555
O5 N2 1_555 1_555
O6 N2 1_555 1_555
H1 C1 1_555 1_555
H2 C2 1_555 1_555
H3 C2 1_555 1_555
H4 C3 1_555 1_555
H5 C4 1_555 1_555
H6 C5 1_555 1_555
H7 C7 1_555 1_555
H8 C7 1_555 1_555
H9 C8 1_555 1_555
H10 C8 1_555 1_555
H11 C9 1_555 1_555
H12 C9 1_555 1_555
H13 C10 1_555 1_555
H14 C10 1_555 1_555
H15 C12 1_555 1_555
H16 C13 1_555 1_555
H17 C15 1_555 1_555
C5 C8 1_555 1_555
C10 O2 1_555 1_555
C15 C16 1_555 1_555

#END
