
#######################################################################
#
#                 Cambridge Crystallographic Data Centre
#                                CCDC 
#
#######################################################################
#
# If this CIF has been generated from an entry in the Cambridge 
# Structural Database, then it will include bibliographic, chemical, 
# crystal, experimental, refinement or atomic coordinate data resulting 
# from the CCDC's data processing and validation procedures.
#
#######################################################################

data_VAJBOA
_chemical_formula_moiety         'C35 H38 N2 O7'
_chemical_name_systematic        
"Diethyl 1-acetyl-4'-(4-t-butylphenyl)-2'-(2-hydroxyphenyl)-3-oxo-1,3-dihydro-5'H-spiro[indole-2,3'-pyrrolidine]-5',5'-dicarboxylate"
_symmetry_cell_setting           orthorhombic
_symmetry_space_group_name_H-M   'P 21 21 21'
_symmetry_Int_Tables_number      19
_space_group_name_Hall           'P 2ac 2ab'
loop_
_symmetry_equiv_pos_site_id
_symmetry_equiv_pos_as_xyz
1 x,y,z
2 1/2-x,-y,1/2+z
3 1/2+x,1/2-y,-z
4 -x,1/2+y,1/2-z
_cell_length_a                   9.8096(2)
_cell_length_b                   14.2690(4)
_cell_length_c                   22.0108(6)
_cell_angle_alpha                90
_cell_angle_beta                 90
_cell_angle_gamma                90
_cell_volume                     3080.92
_exptl_crystal_colour            colorless
_exptl_crystal_description       block
_cell_formula_units_Z            4
loop_
_atom_site_label
_atom_site_type_symbol
_atom_site_fract_x
_atom_site_fract_y
_atom_site_fract_z
O1 O -0.4463(3) -0.69796(19) 0.01279(16)
O2 O -0.7010(2) -0.38877(16) -0.05064(11)
O3 O -0.9100(3) -0.5020(3) -0.12213(14)
H1 H -0.9042 -0.5127 -0.0856
O4 O -0.8415(3) -0.3922(2) 0.08317(14)
O5 O -0.9660(3) -0.44182(18) 0.00418(11)
N1 N -0.4391(3) -0.55738(19) -0.03548(13)
N2 N -0.8136(3) -0.5882(2) -0.02062(14)
H2 H -0.856(4) -0.636(3) -0.020(2)
C1 C -0.3803(3) -0.4883(2) -0.07329(15)
C2 C -0.2531(4) -0.4873(3) -0.10213(19)
H3 H -0.1925 -0.5370 -0.0979
C3 C -0.2207(4) -0.4102(3) -0.1370(2)
H4 H -0.1365 -0.4086 -0.1564
C4 C -0.3093(5) -0.3341(3) -0.1446(2)
H5 H -0.2830 -0.2823 -0.1674
C5 C -0.4358(4) -0.3372(3) -0.11766(17)
H6 H -0.4973 -0.2883 -0.1229
C6 C -0.4700(4) -0.4148(2) -0.08255(16)
C7 C -0.5984(3) -0.4358(2) -0.05285(15)
C8 C -0.5851(3) -0.5336(2) -0.02404(15)
C9 C -0.3789(4) -0.6360(2) -0.0099(2)
C10 C -0.2255(4) -0.6413(3) -0.0086(3)
H7 H -0.1886 -0.5793 -0.0044
H8 H -0.1933 -0.6688 -0.0458
H9 H -0.1970 -0.6791 0.0251
C11 C -0.6292(3) -0.5378(2) 0.04290(15)
H10 H -0.6021 -0.6006 0.0562
C12 C -0.7881(4) -0.5429(2) 0.03879(15)
C13 C -0.6855(3) -0.6032(2) -0.05462(15)
H11 H -0.6536 -0.6671 -0.0463
C14 C -0.7001(4) -0.5921(2) -0.12279(16)
C15 C -0.8050(4) -0.5441(3) -0.15163(18)
C16 C -0.8067(5) -0.5363(4) -0.21466(19)
H12 H -0.8763 -0.5029 -0.2335
C17 C -0.7064(6) -0.5777(4) -0.2496(2)
H13 H -0.7093 -0.5733 -0.2917
C18 C -0.6015(5) -0.6257(5) -0.2214(2)
H14 H -0.5329 -0.6533 -0.2444
C19 C -0.5999(5) -0.6320(4) -0.1590(2)
H15 H -0.5289 -0.6644 -0.1404
C20 C -0.8652(4) -0.4490(2) 0.04449(16)
C21 C -1.0436(5) -0.3551(3) 0.0061(2)
H16 H -1.0766 -0.3403 -0.0343
H17 H -0.9848 -0.3043 0.0192
C22 C -1.1615(5) -0.3632(4) 0.0486(3)
H18 H -1.1289 -0.3780 0.0886
H19 H -1.2214 -0.4120 0.0348
H20 H -1.2100 -0.3048 0.0497
C23 C -0.8406(4) -0.6066(3) 0.09058(18)
C24 C -0.5589(4) -0.4724(2) 0.08742(15)
C25 C -0.5521(4) -0.3747(2) 0.08255(16)
H21 H -0.5914 -0.3451 0.0493
C26 C -0.4877(4) -0.3217(2) 0.12652(17)
H22 H -0.4844 -0.2570 0.1217
C27 C -0.4310(4) -0.4589(3) 0.18107(16)
H23 H -0.3897 -0.4888 0.2138
C28 C -0.4278(4) -0.3613(3) 0.17766(15)
C29 C -0.4942(4) -0.5121(2) 0.13684(16)
H24 H -0.4931 -0.5770 0.1405
C30 C -0.3653(5) -0.2994(3) 0.22720(18)
C31 C -0.3122(6) -0.3551(4) 0.2808(2)
H25 H -0.3852 -0.3911 0.2981
H26 H -0.2766 -0.3130 0.3108
H27 H -0.2413 -0.3966 0.2674
C32 C -0.2496(7) -0.2428(5) 0.2002(3)
H28 H -0.2136 -0.2012 0.2305
H29 H -0.2828 -0.2069 0.1664
H30 H -0.1789 -0.2843 0.1867
C33 C -0.4754(7) -0.2328(4) 0.2515(3)
H31 H -0.5484 -0.2686 0.2689
H32 H -0.5101 -0.1952 0.2188
H33 H -0.4367 -0.1928 0.2820
O6 O -0.7732(10) -0.6701(9) 0.1113(6)
O7 O -0.9603(9) -0.5868(7) 0.1060(5)
C34 C -1.0224(16) -0.6345(13) 0.1570(8)
H34 H -1.0268 -0.7009 0.1477
H35 H -0.9636 -0.6271 0.1921
C35 C -1.1422(18) -0.6064(15) 0.1712(10)
H36 H -1.1457 -0.5392 0.1690
H37 H -1.1633 -0.6262 0.2118
H38 H -1.2074 -0.6327 0.1435
C36? C -0.9769(15) -0.6117(10) 0.1808(6)
H39? H -0.9892 -0.6775 0.1712
H40? H -0.9161 -0.6069 0.2155
C37? C -1.096(2) -0.5721(16) 0.1935(10)
H41? H -1.1613 -0.5888 0.1628
H42? H -1.0858 -0.5052 0.1944
H43? H -1.1277 -0.5937 0.2323
O8? O -0.823(2) -0.6851(11) 0.0950(8)
O9? O -0.9195(13) -0.5614(7) 0.1284(5)
loop_
_geom_bond_atom_site_label_1
_geom_bond_atom_site_label_2
_geom_bond_site_symmetry_1
_geom_bond_site_symmetry_2
O1 C9 1_555 1_555
O2 C7 1_555 1_555
O3 H1 1_555 1_555
O4 C20 1_555 1_555
O5 C20 1_555 1_555
N1 C1 1_555 1_555
N2 H2 1_555 1_555
C1 C2 1_555 1_555
C2 H3 1_555 1_555
C3 C2 1_555 1_555
H4 C3 1_555 1_555
C4 C3 1_555 1_555
H5 C4 1_555 1_555
C5 C4 1_555 1_555
H6 C5 1_555 1_555
C6 C1 1_555 1_555
C7 C6 1_555 1_555
C8 N1 1_555 1_555
C9 N1 1_555 1_555
C10 C9 1_555 1_555
H7 C10 1_555 1_555
H8 C10 1_555 1_555
H9 C10 1_555 1_555
C11 C8 1_555 1_555
H10 C11 1_555 1_555
C12 N2 1_555 1_555
C13 N2 1_555 1_555
H11 C13 1_555 1_555
C14 C13 1_555 1_555
C15 O3 1_555 1_555
C16 C15 1_555 1_555
H12 C16 1_555 1_555
C17 C16 1_555 1_555
H13 C17 1_555 1_555
C18 C17 1_555 1_555
H14 C18 1_555 1_555
C19 C14 1_555 1_555
H15 C19 1_555 1_555
C20 C12 1_555 1_555
C21 O5 1_555 1_555
H16 C21 1_555 1_555
H17 C21 1_555 1_555
C22 C21 1_555 1_555
H18 C22 1_555 1_555
H19 C22 1_555 1_555
H20 C22 1_555 1_555
C23 C12 1_555 1_555
C24 C11 1_555 1_555
C25 C24 1_555 1_555
H21 C25 1_555 1_555
C26 C25 1_555 1_555
H22 C26 1_555 1_555
C27 H23 1_555 1_555
C28 C26 1_555 1_555
C29 C24 1_555 1_555
H24 C29 1_555 1_555
C30 C28 1_555 1_555
C31 C30 1_555 1_555
H25 C31 1_555 1_555
H26 C31 1_555 1_555
H27 C31 1_555 1_555
C32 C30 1_555 1_555
H28 C32 1_555 1_555
H29 C32 1_555 1_555
H30 C32 1_555 1_555
C33 C30 1_555 1_555
H31 C33 1_555 1_555
H32 C33 1_555 1_555
H33 C33 1_555 1_555
O6 C23 1_555 1_555
O7 C23 1_555 1_555
C34 O7 1_555 1_555
H34 C34 1_555 1_555
H35 C34 1_555 1_555
C35 C34 1_555 1_555
H36 C35 1_555 1_555
H37 C35 1_555 1_555
H38 C35 1_555 1_555
C5 C6 1_555 1_555
C7 C8 1_555 1_555
C8 C13 1_555 1_555
C11 C12 1_555 1_555
C14 C15 1_555 1_555
C18 C19 1_555 1_555
C27 C28 1_555 1_555
C27 C29 1_555 1_555

#END
