
#######################################################################
#
#                 Cambridge Crystallographic Data Centre
#                                CCDC 
#
#######################################################################
#
# If this CIF has been generated from an entry in the Cambridge 
# Structural Database, then it will include bibliographic, chemical, 
# crystal, experimental, refinement or atomic coordinate data resulting 
# from the CCDC's data processing and validation procedures.
#
#######################################################################

data_VAJDIT
_chemical_formula_moiety         'C12 H16 O2'
_chemical_name_systematic        Tricyclo(6.4.0.0^1,5^)dodeca-7,12-dione
_symmetry_cell_setting           monoclinic
_symmetry_space_group_name_H-M   'C 2/c'
_symmetry_Int_Tables_number      15
_space_group_name_Hall           '-C 2yn'
loop_
_symmetry_equiv_pos_site_id
_symmetry_equiv_pos_as_xyz
1 x,y,z
2 1/2+x,1/2+y,z
3 -x,y,1/2-z
4 1/2-x,1/2+y,1/2-z
5 -x,-y,-z
6 1/2-x,1/2-y,-z
7 x,-y,1/2+z
8 1/2+x,1/2-y,1/2+z
_cell_length_a                   15.4725(41)
_cell_length_b                   14.4057(27)
_cell_length_c                   10.4393(23)
_cell_angle_alpha                90
_cell_angle_beta                 118.582(16)
_cell_angle_gamma                90
_cell_volume                     2043.27
_exptl_crystal_colour            colorless
_chemical_melting_point          56deg.C
_cell_formula_units_Z            8
loop_
_atom_site_label
_atom_site_type_symbol
_atom_site_fract_x
_atom_site_fract_y
_atom_site_fract_z
C1 C 0.2594(11) 0.87540(9) 0.07614(15)
C2 C 0.16459(13) 0.91611(11) -0.03739(17)
C3 C 0.07697(12) 0.87538(11) -0.02854(18)
C4 C 0.08817(11) 0.89181(12) 0.12208(18)
C5 C 0.18218(9) 0.84968(9) 0.24298(15)
C6 C 0.18326(11) 0.74389(10) 0.25608(16)
C7 C 0.29053(11) 0.72165(9) 0.34800(14)
C8 C 0.35133(10) 0.79516(9) 0.32373(15)
C9 C 0.43039(11) 0.84189(11) 0.46412(18)
C10 C 0.38462(12) 0.93389(10) 0.47190(17)
C11 C 0.32588(11) 0.96354(9) 0.31286(16)
C12 C 0.27738(9) 0.87182(8) 0.23277(14)
O1 O 0.32224(9) 0.84888(8) 0.04635(13)
O2 O 0.32429(9) 0.65670(7) 0.43067(14)
H1 H 0.1606(13) 0.9042(13) -0.1329(21)
H2 H 0.1632(12) 0.9848(14) -0.0181(17)
H3 H 0.0734(12) 0.8082(12) -0.0467(17)
H4 H 0.0139(13) 0.9055(12) -0.1082(20)
H5 H 0.0296(13) 0.8652(11) 0.1297(19)
H6 H 0.0903(12) 0.9597(13) 0.1357(18)
H7 H 0.1926(10) 0.8735(9) 0.3374(16)
H8 H 0.1631(12) 0.7138(11) 0.1669(19)
H9 H 0.1418(12) 0.7176(11) 0.3014(18)
H10 H 0.3781(11) 0.7674(11) 0.2669(16)
H11 H 0.4906(13) 0.8498(11) 0.4607(19)
H12 H 0.4522(13) 0.8006(12) 0.5502(20)
H13 H 0.4333(13) 0.9784(13) 0.5325(18)
H14 H 0.3380(12) 0.9229(12) 0.5118(17)
H15 H 0.3700(11) 0.9836(12) 0.2773(17)
H16 H 0.2751(11) 1.0102(11) 0.2976(16)
loop_
_geom_bond_atom_site_label_1
_geom_bond_atom_site_label_2
_geom_bond_site_symmetry_1
_geom_bond_site_symmetry_2
C1 C2 1_555 1_555
C2 C3 1_555 1_555
C3 C4 1_555 1_555
C4 C5 1_555 1_555
C5 C6 1_555 1_555
C6 C7 1_555 1_555
C7 C8 1_555 1_555
C8 C9 1_555 1_555
C9 C10 1_555 1_555
C10 C11 1_555 1_555
C11 C12 1_555 1_555
C12 C1 1_555 1_555
O1 C1 1_555 1_555
O2 C7 1_555 1_555
H1 C2 1_555 1_555
H2 C2 1_555 1_555
H3 C3 1_555 1_555
H4 C3 1_555 1_555
H5 C4 1_555 1_555
H6 C4 1_555 1_555
H7 C5 1_555 1_555
H8 C6 1_555 1_555
H9 C6 1_555 1_555
H10 C8 1_555 1_555
H11 C9 1_555 1_555
H12 C9 1_555 1_555
H13 C10 1_555 1_555
H14 C10 1_555 1_555
H15 C11 1_555 1_555
H16 C11 1_555 1_555
C5 C12 1_555 1_555
C8 C12 1_555 1_555

#END
