
#######################################################################
#
#                 Cambridge Crystallographic Data Centre
#                                CCDC 
#
#######################################################################
#
# If this CIF has been generated from an entry in the Cambridge 
# Structural Database, then it will include bibliographic, chemical, 
# crystal, experimental, refinement or atomic coordinate data resulting 
# from the CCDC's data processing and validation procedures.
#
#######################################################################

data_VAJGUL
_chemical_formula_moiety         
'2.13(C26 H23 O1 1+),0.88(C26 H21 N1),2.13(B1 F4 1-),0.79(H2 O1),C4 H8 O1'
_chemical_name_systematic        
'2,4,6-tris(4-methylphenyl)pyrylium tetrafluoroborate 2,4,6-tris(4-methylphenyl)pyridine tetrahydrofuran solvate hydrate'
_symmetry_cell_setting           orthorhombic
_symmetry_space_group_name_H-M   'F d d d'
_symmetry_Int_Tables_number      70
_space_group_name_Hall           '-F 2uv 2vw'
loop_
_symmetry_equiv_pos_site_id
_symmetry_equiv_pos_as_xyz
1 x,y,z
2 3/4-x,3/4-y,z
3 3/4-x,y,3/4-z
4 x,3/4-y,3/4-z
5 x,1/2+y,1/2+z
6 3/4-x,1/4-y,1/2+z
7 3/4-x,1/2+y,1/4-z
8 x,1/4-y,1/4-z
9 1/2+x,y,1/2+z
10 1/4-x,3/4-y,1/2+z
11 1/4-x,y,1/4-z
12 1/2+x,3/4-y,1/4-z
13 1/2+x,1/2+y,z
14 1/4-x,1/4-y,z
15 1/4-x,1/2+y,3/4-z
16 1/2+x,1/4-y,3/4-z
17 -x,-y,-z
18 1/4+x,1/4+y,-z
19 1/4+x,-y,1/4+z
20 -x,1/4+y,1/4+z
21 -x,1/2-y,1/2-z
22 1/4+x,3/4+y,1/2-z
23 1/4+x,1/2-y,3/4+z
24 -x,3/4+y,3/4+z
25 1/2-x,-y,1/2-z
26 3/4+x,1/4+y,1/2-z
27 3/4+x,-y,3/4+z
28 1/2-x,1/4+y,3/4+z
29 1/2-x,1/2-y,-z
30 3/4+x,3/4+y,-z
31 3/4+x,1/2-y,1/4+z
32 1/2-x,3/4+y,1/4+z
_cell_length_a                   10.8697(8)
_cell_length_b                   38.626(4)
_cell_length_c                   67.320(6)
_cell_angle_alpha                90
_cell_angle_beta                 90
_cell_angle_gamma                90
_cell_volume                     28264.5
_exptl_crystal_colour            red
_cell_formula_units_Z            16
loop_
_atom_site_label
_atom_site_type_symbol
_atom_site_fract_x
_atom_site_fract_y
_atom_site_fract_z
C17 C 1.0700(5) 0.28168(17) 0.07579(10)
C18 C 1.0341(5) 0.28274(17) 0.09525(10)
H10 H 1.0375 0.3041 0.1022
C19 C 0.9930(5) 0.25344(19) 0.10497(10)
C20 C 0.9845(4) 0.22341(16) 0.09426(9)
H11 H 0.9562 0.2030 0.1007
C21 C 1.0148(6) 0.22191(19) 0.07506(12)
C22 C 1.1148(5) 0.31101(17) 0.06475(10)
C23 C 1.1644(5) 0.34013(19) 0.07510(12)
H12 H 1.1681 0.3400 0.0892
C24 C 1.2071(5) 0.36850(19) 0.06455(14)
H13 H 1.2424 0.3875 0.0715
C25 C 1.1988(7) 0.3696(2) 0.04391(15)
C26 C 1.1504(6) 0.3410(3) 0.03464(13)
H14 H 1.1454 0.3413 0.0205
C27 C 1.1090(6) 0.3122(2) 0.04435(11)
H15 H 1.0766 0.2932 0.0371
C28 C 1.2414(7) 0.4018(3) 0.03312(17)
H16 H 1.2724 0.4187 0.0428
H17 H 1.3072 0.3958 0.0238
H18 H 1.1722 0.4119 0.0258
C29 C 0.957(2) 0.2524(6) 0.12486(19)
C30 C 0.916(2) 0.2816(5) 0.1349(3)
H19 H 0.9080 0.3030 0.1281
C31 C 0.8853(18) 0.2793(3) 0.1549(3)
H20 H 0.8569 0.2993 0.1618
C32 C 0.8966(14) 0.2480(3) 0.16489(18)
C33 C 0.9382(14) 0.2188(3) 0.15482(19)
H21 H 0.9458 0.1974 0.1616
C34 C 0.9686(18) 0.2210(5) 0.13481(19)
H22 H 0.9970 0.2011 0.1279
C35 C 0.863(2) 0.2466(5) 0.1870(2)
H23 H 0.8751 0.2231 0.1920
H24 H 0.9154 0.2627 0.1944
H25 H 0.7765 0.2533 0.1887
C36 C 1.0081(16) 0.1912(3) 0.0625(2)
C37 C 1.0056(12) 0.1579(4) 0.07034(16)
H26 H 1.0158 0.1545 0.0842
C38 C 0.9883(13) 0.1297(3) 0.05787(18)
H27 H 0.9866 0.1069 0.0632
C39 C 0.9734(15) 0.1347(3) 0.03757(17)
C40 C 0.9758(17) 0.1680(3) 0.02973(18)
H28 H 0.9657 0.1714 0.0159
C41 C 0.9932(18) 0.1962(3) 0.0422(3)
H29 H 0.9949 0.2190 0.0368
C42 C 0.963(2) 0.1035(5) 0.0236(3)
H30 H 0.9623 0.0821 0.0315
H31 H 0.8862 0.1052 0.0160
H32 H 1.0330 0.1033 0.0145
O1 O 1.0553(4) 0.25073(15) 0.06597(9)
B1 B 1.1250 0.1250 0.1250
F1 F 1.0705(15) 0.1461(3) 0.13701(17)
F1G F 1.0705(15) 0.1039(3) 0.11299(17)
F1J F 1.1795(15) 0.1461(3) 0.11299(17)
F1M F 1.1795(15) 0.1039(3) 0.13701(17)
O2 O 0.518(5) 0.2450(12) -0.0124(7)
C1 C 0.8750 0.3750 0.06236(15)
H1 H 0.8750 0.3750 0.0765
C2 C 0.8296(5) 0.3464(2) 0.05280(10)
H2 H 0.8000 0.3287 0.0252
C3 C 0.8750 0.3750 0.02207(14)
C4 C 0.784(2) 0.3139(3) 0.0629(3)
C5 C 0.745(2) 0.3205(3) 0.0822(3)
H3 H 0.7474 0.3435 0.0873
C6 C 0.7015(17) 0.2936(3) 0.09401(18)
H4 H 0.6747 0.2982 0.1072
C7 C 0.6974(12) 0.2601(3) 0.08652(17)
C8 C 0.7366(13) 0.2535(3) 0.06724(19)
H5 H 0.7338 0.2306 0.0621
C9 C 0.7798(18) 0.2804(4) 0.05543(18)
H6 H 0.8065 0.2759 0.0423
C10 C 0.6571(16) 0.2288(4) 0.0990(3)
H7 H 0.6610 0.2078 0.0909
H8 H 0.7119 0.2264 0.1105
H9 H 0.5725 0.2323 0.1036
C11 C 0.870(5) 0.3726(7) 0.00098(11)
C12 C 0.847(3) 0.3408(6) -0.0080(2)
C13 C 0.846(2) 0.3380(4) -0.0285(2)
C14 C 0.869(3) 0.3671(4) -0.04019(11)
C15 C 0.892(2) 0.3989(4) -0.0312(2)
C16 C 0.892(3) 0.4016(5) -0.0107(2)
N1 N 0.8314(4) 0.34793(17) 0.03244(9)
C2A C 0.9204(5) 0.4036(2) 0.05280(10)
H2A H 0.9500 0.4213 0.0252
C4A C 0.966(2) 0.4361(3) 0.0629(3)
C5A C 1.005(2) 0.4295(3) 0.0822(3)
H3A H 1.0026 0.4065 0.0873
C6A C 1.0485(17) 0.4564(3) 0.09401(18)
H4A H 1.0753 0.4518 0.1072
C7A C 1.0526(12) 0.4899(3) 0.08652(17)
C8A C 1.0134(13) 0.4965(3) 0.06724(19)
H5A H 1.0162 0.5194 0.0621
C9A C 0.9702(18) 0.4696(4) 0.05543(18)
H6A H 0.9435 0.4741 0.0423
C10A C 1.0929(16) 0.5212(4) 0.0990(3)
H7A H 1.0890 0.5422 0.0909
H8A H 1.0381 0.5236 0.1105
H9A H 1.1775 0.5177 0.1036
C11A C 0.880(5) 0.3774(7) 0.00098(11)
C12A C 0.903(3) 0.4092(6) -0.0080(2)
C13A C 0.904(2) 0.4120(4) -0.0285(2)
C14A C 0.881(3) 0.3829(4) -0.04019(11)
C15A C 0.858(2) 0.3511(4) -0.0312(2)
C16A C 0.858(3) 0.3484(5) -0.0107(2)
N1A N 0.9186(4) 0.40207(17) 0.03244(9)
C43? C 0.779(2) 0.3170(3) 0.0630(3)
C44? C 0.744(2) 0.3143(3) 0.0828(3)
H33? H 0.7466 0.3341 0.0912
C45? C 0.7059(15) 0.2826(3) 0.09036(17)
H34? H 0.6822 0.2807 0.1039
C46? C 0.7024(12) 0.2536(2) 0.0781(2)
C47? C 0.7372(13) 0.2564(3) 0.05830(19)
H35? H 0.7348 0.2366 0.0499
C48? C 0.7754(17) 0.2881(4) 0.05074(19)
H36? H 0.7992 0.2900 0.0372
C49? C 0.6638(16) 0.2198(4) 0.0878(3)
H37? H 0.6645 0.2012 0.0779
H38? H 0.7213 0.2141 0.0986
H39? H 0.5806 0.2223 0.0933
H40? H 0.8318 0.3209 0.0000
H41? H 0.8308 0.3163 -0.0347
H42? H 0.9070 0.4187 -0.0392
H43? H 0.9079 0.4233 -0.0045
C50? C 0.875(4) 0.3627(6) -0.06284(19)
H44? H 0.8562 0.3386 -0.0663
H45? H 0.8149 0.3781 -0.0691
H46? H 0.9578 0.3685 -0.0675
H47? H 1.0746 0.2497 0.0522
N2? N 1.0553(4) 0.25073(15) 0.06597(9)
O3? O 0.9845(4) 0.22341(16) 0.09426(9)
N3? N 0.9845(4) 0.22341(16) 0.09426(9)
C51? C 0.951(3) 0.2543(7) 0.1272(2)
C52? C 0.902(2) 0.2850(6) 0.1346(3)
H48? H 0.8913 0.3043 0.1260
C53? C 0.8687(19) 0.2874(4) 0.1545(3)
H49? H 0.8355 0.3084 0.1595
C54? C 0.8842(15) 0.2591(3) 0.1670(2)
C55? C 0.9329(15) 0.2284(3) 0.1596(2)
H50? H 0.9435 0.2091 0.1682
C56? C 0.966(2) 0.2260(5) 0.1397(2)
H51? H 0.9993 0.2050 0.1347
C57? C 0.851(2) 0.2614(5) 0.1890(3)
H52? H 0.8677 0.2392 0.1954
H53? H 0.8998 0.2796 0.1953
H54? H 0.7631 0.2670 0.1903
C58? C 0.9808(18) 0.1890(3) 0.0655(3)
C59? C 0.9712(14) 0.1598(5) 0.0775(2)
H55? H 0.9788 0.1619 0.0915
C60? C 0.9504(14) 0.1275(4) 0.0690(2)
H56? H 0.9438 0.1076 0.0772
C61? C 0.9392(14) 0.1244(3) 0.0485(3)
C62? C 0.9488(15) 0.1536(4) 0.0365(2)
H57? H 0.9412 0.1515 0.0225
C63? C 0.9697(18) 0.1859(3) 0.0450(3)
H58? H 0.9762 0.2058 0.0368
C64? C 0.923(2) 0.0889(5) 0.0387(5)
H59? H 0.9167 0.0919 0.0242
H60? H 0.9939 0.0743 0.0418
H61? H 0.8477 0.0780 0.0437
B2? B 0.711(2) 0.3735(5) 0.1253(3)
F2? F 0.634(2) 0.4010(3) 0.1281(3)
F3? F 0.7758(19) 0.3651(5) 0.1424(2)
F4? F 0.7972(17) 0.3806(4) 0.1103(2)
F5? F 0.6425(19) 0.3442(4) 0.1197(2)
B3? B 0.859(3) 0.3724(9) 0.1262(4)
F6? F 0.767(3) 0.3512(9) 0.1339(5)
F7? F 0.807(5) 0.3938(12) 0.1119(5)
F8? F 0.907(3) 0.3917(9) 0.1417(4)
F9? F 0.952(4) 0.3531(11) 0.1174(5)
B4? B 0.765(3) 0.2612(7) 0.0047(5)
F10? F 0.885(3) 0.2694(8) 0.0108(5)
F11? F 0.766(4) 0.2581(10) -0.0159(4)
F12? F 0.734(4) 0.2306(7) 0.0144(6)
F13? F 0.677(3) 0.2860(8) 0.0094(4)
B5? B 0.629(2) 0.2500(6) 0.0040(3)
F14? F 0.562(2) 0.2405(6) 0.0210(3)
F15? F 0.567(2) 0.2361(5) -0.0120(3)
F16? F 0.636(2) 0.2851(5) 0.0027(3)
F17? F 0.7468(19) 0.2354(7) 0.0061(4)
O4? O 1.037(4) 0.2550(13) -0.0068(8)
C65? C 1.0553(4) 0.25073(15) 0.06597(9)
O5? O 0.8314(4) 0.34793(17) 0.03244(9)
C66? C 0.8314(4) 0.34793(17) 0.03244(9)
loop_
_geom_bond_atom_site_label_1
_geom_bond_atom_site_label_2
_geom_bond_site_symmetry_1
_geom_bond_site_symmetry_2
C1 H1 1_555 1_555
C2 C1 1_555 1_555
H2 N1 1_555 1_555
C3 C11 1_555 1_555
C4 C2 1_555 1_555
C5 C4 1_555 1_555
H3 C5 1_555 1_555
C6 C5 1_555 1_555
H4 C6 1_555 1_555
C7 C6 1_555 1_555
C8 C7 1_555 1_555
H5 C8 1_555 1_555
C9 C4 1_555 1_555
H6 C9 1_555 1_555
C10 C7 1_555 1_555
H7 C10 1_555 1_555
H8 C10 1_555 1_555
H9 C10 1_555 1_555
C11 C12 1_555 1_555
C12 C13 1_555 1_555
C13 C14 1_555 1_555
C14 C15 1_555 1_555
C15 C16 1_555 1_555
C16 C11 1_555 1_555
N1 C2 1_555 1_555
C17 C18 1_555 1_555
C18 H10 1_555 1_555
C19 C18 1_555 1_555
C20 C19 1_555 1_555
H11 C20 1_555 1_555
C21 C20 1_555 1_555
C22 C17 1_555 1_555
C23 C22 1_555 1_555
H12 C23 1_555 1_555
C24 C23 1_555 1_555
H13 C24 1_555 1_555
C25 C24 1_555 1_555
C26 C25 1_555 1_555
H14 C26 1_555 1_555
C27 C22 1_555 1_555
H15 C27 1_555 1_555
C28 C25 1_555 1_555
H16 C28 1_555 1_555
H17 C28 1_555 1_555
H18 C28 1_555 1_555
C29 C19 1_555 1_555
C30 C29 1_555 1_555
H19 C30 1_555 1_555
C31 C30 1_555 1_555
H20 C31 1_555 1_555
C32 C31 1_555 1_555
C33 C32 1_555 1_555
H21 C33 1_555 1_555
C34 C29 1_555 1_555
H22 C34 1_555 1_555
C35 C32 1_555 1_555
H23 C35 1_555 1_555
H24 C35 1_555 1_555
H25 C35 1_555 1_555
C36 C21 1_555 1_555
C37 C36 1_555 1_555
H26 C37 1_555 1_555
C38 C37 1_555 1_555
H27 C38 1_555 1_555
C39 C38 1_555 1_555
C40 C39 1_555 1_555
H28 C40 1_555 1_555
C41 C36 1_555 1_555
H29 C41 1_555 1_555
C42 C39 1_555 1_555
H30 C42 1_555 1_555
H31 C42 1_555 1_555
H32 C42 1_555 1_555
O1 C17 1_555 1_555
B1 F1 1_555 1_555
C2A C1 1_555 1_555
H2A N1A 1_555 1_555
C4A C2A 1_555 1_555
C5A C4A 1_555 1_555
H3A C5A 1_555 1_555
C6A C5A 1_555 1_555
H4A C6A 1_555 1_555
C7A C6A 1_555 1_555
C8A C7A 1_555 1_555
H5A C8A 1_555 1_555
C9A C4A 1_555 1_555
H6A C9A 1_555 1_555
C10A C7A 1_555 1_555
H7A C10A 1_555 1_555
H8A C10A 1_555 1_555
H9A C10A 1_555 1_555
C11A C3 1_555 1_555
C12A C11 1_555 1_555
C13A C15 1_555 1_555
C14A C14 1_555 1_555
C15A C12 1_555 1_555
C16A C11 1_555 1_555
N1A C3 1_555 1_555
F1G B1 1_555 1_555
F1J B1 1_555 1_555
F1M B1 1_555 1_555
C3 N1 1_555 1_555
C8 C9 1_555 1_555
C12 C11A 1_555 1_555
C13 C15A 1_555 1_555
C13 C16A 1_555 1_555
C14 C15A 1_555 1_555
C15 C12A 1_555 1_555
C15 C14A 1_555 1_555
C16 C11A 1_555 1_555
C16 C13A 1_555 1_555
C21 O1 1_555 1_555
C26 C27 1_555 1_555
C33 C34 1_555 1_555
C40 C41 1_555 1_555
C2A N1A 1_555 1_555
C8A C9A 1_555 1_555
C11A C12A 1_555 1_555
C11A C16A 1_555 1_555
C12A C13A 1_555 1_555
C13A C14A 1_555 1_555
C14A C15A 1_555 1_555
C15A C16A 1_555 1_555

#END
