
#######################################################################
#
#                 Cambridge Crystallographic Data Centre
#                                CCDC 
#
#######################################################################
#
# If this CIF has been generated from an entry in the Cambridge 
# Structural Database, then it will include bibliographic, chemical, 
# crystal, experimental, refinement or atomic coordinate data resulting 
# from the CCDC's data processing and validation procedures.
#
#######################################################################

data_VAJJOI
_chemical_formula_moiety         'C21 H15 Br1 O2'
_chemical_name_systematic        
7-bromo-9-(phenylethynyl)-2,3,4,9-tetrahydro-1H-xanthen-1-one
_symmetry_cell_setting           monoclinic
_symmetry_space_group_name_H-M   'P 21/c'
_symmetry_Int_Tables_number      14
_space_group_name_Hall           '-P 2ybc'
loop_
_symmetry_equiv_pos_site_id
_symmetry_equiv_pos_as_xyz
1 x,y,z
2 -x,1/2+y,1/2-z
3 -x,-y,-z
4 x,1/2-y,1/2+z
_cell_length_a                   16.7257(17)
_cell_length_b                   8.6177(9)
_cell_length_c                   12.0468(12)
_cell_angle_alpha                90
_cell_angle_beta                 104.9610(10)
_cell_angle_gamma                90
_cell_volume                     1677.53
_exptl_crystal_colour            colorless
_exptl_crystal_description       block
_cell_formula_units_Z            4
loop_
_atom_site_label
_atom_site_type_symbol
_atom_site_fract_x
_atom_site_fract_y
_atom_site_fract_z
Br1 Br 0.49815(2) 0.47842(4) 0.73417(3)
C1 C 0.32696(13) 0.8167(2) 0.48304(17)
C2 C 0.40595(15) 0.7904(3) 0.4729(2)
H1 H 0.4247 0.8405 0.4160
C3 C 0.45697(15) 0.6897(3) 0.5474(2)
H2 H 0.5104 0.6706 0.5411
C4 C 0.42814(15) 0.6175(3) 0.63097(19)
C5 C 0.34923(14) 0.6432(2) 0.64143(17)
H3 H 0.3308 0.5927 0.6984
C6 C 0.29725(13) 0.7444(2) 0.56683(16)
C7 C 0.21017(13) 0.7758(2) 0.57614(17)
H4 H 0.1841 0.6762 0.5847
C8 C 0.16017(13) 0.8528(2) 0.46803(17)
C9 C 0.07008(15) 0.8449(3) 0.4428(2)
C10 C 0.02099(18) 0.9283(5) 0.3375(3)
H5 H 0.0026 1.0268 0.3609
H6 H -0.0279 0.8674 0.3032
C11 C 0.0595(3) 1.0449(7) 0.2990(5)
H7 H 0.0615 1.1333 0.3495
H8 H 0.0264 1.0747 0.2234
C12 C 0.15097(17) 1.0097(3) 0.2901(2)
C13 C 0.19599(13) 0.9209(2) 0.39336(17)
C14 C 0.21245(13) 0.8710(2) 0.67909(17)
C15 C 0.21773(13) 0.9495(2) 0.76190(17)
C16 C 0.22649(13) 1.0484(2) 0.86060(17)
C17 C 0.16289(15) 1.0646(3) 0.91412(19)
H9 H 0.1137 1.0104 0.8868
C18 C 0.1726(2) 1.1616(3) 1.0083(2)
H10 H 0.1297 1.1736 1.0436
C19 C 0.2454(2) 1.2398(3) 1.0494(2)
H11 H 0.2520 1.3038 1.1134
C20 C 0.3086(2) 1.2246(3) 0.9972(2)
H12 H 0.3579 1.2783 1.0256
C21 C 0.29928(15) 1.1301(3) 0.9028(2)
H13 H 0.3422 1.1210 0.8671
O1 O 0.27878(9) 0.91757(18) 0.40336(12)
O2 O 0.03660(12) 0.7708(3) 0.50408(17)
H14 H 0.1697(19) 1.117(4) 0.300(3)
H15 H 0.165(2) 0.973(4) 0.228(3)
C22? C 0.0671(3) 0.9589(8) 0.2464(5)
H16? H 0.0671 0.8644 0.2026
H17? H 0.0372 1.0371 0.1939
loop_
_geom_bond_atom_site_label_1
_geom_bond_atom_site_label_2
_geom_bond_site_symmetry_1
_geom_bond_site_symmetry_2
Br1 C4 1_555 1_555
C1 C2 1_555 1_555
C2 H1 1_555 1_555
C3 C2 1_555 1_555
H2 C3 1_555 1_555
C4 C3 1_555 1_555
C5 C4 1_555 1_555
H3 C5 1_555 1_555
C6 C1 1_555 1_555
C7 C6 1_555 1_555
H4 C7 1_555 1_555
C8 C7 1_555 1_555
C9 C8 1_555 1_555
C10 C9 1_555 1_555
H5 C10 1_555 1_555
H6 C10 1_555 1_555
C11 C10 1_555 1_555
H7 C11 1_555 1_555
H8 C11 1_555 1_555
C12 C11 1_555 1_555
C13 C8 1_555 1_555
C14 C7 1_555 1_555
C15 C14 1_555 1_555
C16 C15 1_555 1_555
C17 C16 1_555 1_555
H9 C17 1_555 1_555
C18 C17 1_555 1_555
H10 C18 1_555 1_555
C19 C18 1_555 1_555
H11 C19 1_555 1_555
C20 C19 1_555 1_555
H12 C20 1_555 1_555
C21 C16 1_555 1_555
H13 C21 1_555 1_555
O1 C1 1_555 1_555
O2 C9 1_555 1_555
H14 C12 1_555 1_555
H15 C12 1_555 1_555
C5 C6 1_555 1_555
C12 C13 1_555 1_555
C13 O1 1_555 1_555
C20 C21 1_555 1_555

#END
