
#######################################################################
#
#                 Cambridge Crystallographic Data Centre
#                                CCDC 
#
#######################################################################
#
# If this CIF has been generated from an entry in the Cambridge 
# Structural Database, then it will include bibliographic, chemical, 
# crystal, experimental, refinement or atomic coordinate data resulting 
# from the CCDC's data processing and validation procedures.
#
#######################################################################

data_VAJKIA
_chemical_formula_moiety         'C19 H32 B2 N2 S1'
_chemical_name_systematic        
2,2:4,4-bis(Cyclo-octa-1,5-diyl)-3-thionia-1-azonia-5-aza-2,4-diboratabicyclo(3.3.0)octa-6,8-diene
_symmetry_cell_setting           orthorhombic
_symmetry_space_group_name_H-M   'P b c a'
_symmetry_Int_Tables_number      61
_space_group_name_Hall           '-P 2ac 2ab'
loop_
_symmetry_equiv_pos_site_id
_symmetry_equiv_pos_as_xyz
1 x,y,z
2 1/2-x,-y,1/2+z
3 1/2+x,1/2-y,-z
4 -x,1/2+y,1/2-z
5 -x,-y,-z
6 1/2+x,y,1/2-z
7 1/2-x,1/2+y,z
8 x,1/2-y,1/2+z
_cell_length_a                   13.350(2)
_cell_length_b                   19.839(4)
_cell_length_c                   14.146(2)
_cell_angle_alpha                90
_cell_angle_beta                 90
_cell_angle_gamma                90
_cell_volume                     3746.58
_exptl_crystal_colour            colorless
_chemical_melting_point          174-175deg.C(dec.)
_cell_formula_units_Z            8
loop_
_atom_site_label
_atom_site_type_symbol
_atom_site_fract_x
_atom_site_fract_y
_atom_site_fract_z
S1 S 0.1122(1) 0.1812(1) 0.1898(1)
B1 B 0.0512(2) 0.2182(1) 0.0728(2)
B2 B 0.1462(2) 0.0921(1) 0.1341(2)
N1 N 0.1088(1) 0.1735(1) -0.0014(1)
N2 N 0.1508(1) 0.1140(1) 0.0264(1)
C1 C -0.0672(2) 0.2049(1) 0.0744(2)
C2 C -0.1137(2) 0.2396(1) 0.1614(2)
C3 C -0.0843(2) 0.3136(1) 0.1755(2)
C4 C 0.0253(2) 0.3302(1) 0.1550(2)
C5 C 0.0681(2) 0.2979(1) 0.0653(2)
C6 C 0.0187(2) 0.3266(1) -0.0243(2)
C7 C -0.0885(2) 0.3038(1) -0.0428(2)
C8 C -0.1105(2) 0.2302(1) -0.0198(2)
C9 C 0.2484(2) 0.0640(1) 0.1795(1)
C10 C 0.2768(2) -0.0038(1) 0.1342(2)
C11 C 0.1922(2) -0.0559(1) 0.1276(2)
C12 C 0.0881(2) -0.0276(1) 0.1040(2)
C13 C 0.0598(2) 0.0383(1) 0.1552(2)
C14 C 0.0466(2) 0.0302(1) 0.2625(2)
C15 C 0.1432(2) 0.0163(1) 0.3177(2)
C16 C 0.2341(2) 0.0582(1) 0.2872(2)
C17 C 0.1186(2) 0.1780(1) -0.0956(2)
C18 C 0.1856(2) 0.0829(1) -0.0512(1)
C19 C 0.1665(2) 0.1216(1) -0.1295(1)
H1 H 0.1981 0.2095 0.1828
H2 H -0.0781 0.1571 0.0790
H3 H -0.1852 0.2374 0.1562
H4 H -0.0947 0.2150 0.2174
H5 H -0.1280 0.3479 0.1276
H6 H -0.0978 0.3256 0.2522
H7 H 0.0643 0.3154 0.2084
H8 H 0.0323 0.3782 0.1505
H9 H 0.1389 0.3062 0.0624
H10 H 0.0582 0.3140 -0.0784
H11 H 0.0195 0.3749 -0.0203
H12 H -0.1052 0.3122 -0.1081
H13 H -0.1320 0.3310 -0.0044
H14 H -0.0837 0.2031 -0.0704
H15 H -0.1818 0.2237 -0.0192
H16 H 0.3007 0.0960 0.1670
H17 H 0.3301 -0.0228 0.1713
H18 H 0.3026 0.0042 0.0714
H19 H 0.1879 -0.0793 0.1872
H20 H 0.2100 -0.0884 0.0799
H21 H 0.0388 -0.0610 0.1194
H22 H 0.0849 -0.0201 0.0366
H23 H -0.0012 0.0554 0.1283
H24 H 0.0004 -0.0059 0.2744
H25 H 0.0175 0.0708 0.2873
H26 H 0.1602 -0.0304 0.3090
H27 H 0.1312 0.0231 0.3843
H28 H 0.2259 0.1028 0.3130
H29 H 0.2934 0.0392 0.3149
H30 H 0.0973 0.2156 -0.1335
H31 H 0.2185 0.0399 -0.0517
H32 H 0.1827 0.1112 -0.1944
loop_
_geom_bond_atom_site_label_1
_geom_bond_atom_site_label_2
_geom_bond_site_symmetry_1
_geom_bond_site_symmetry_2
S1 B1 1_555 1_555
B1 N1 1_555 1_555
B2 S1 1_555 1_555
N1 N2 1_555 1_555
N2 B2 1_555 1_555
C1 B1 1_555 1_555
C2 C1 1_555 1_555
C3 C2 1_555 1_555
C4 C3 1_555 1_555
C5 B1 1_555 1_555
C6 C5 1_555 1_555
C7 C6 1_555 1_555
C8 C1 1_555 1_555
C9 B2 1_555 1_555
C10 C9 1_555 1_555
C11 C10 1_555 1_555
C12 C11 1_555 1_555
C13 B2 1_555 1_555
C14 C13 1_555 1_555
C15 C14 1_555 1_555
C16 C9 1_555 1_555
C17 N1 1_555 1_555
C18 N2 1_555 1_555
C19 C17 1_555 1_555
H1 S1 1_555 1_555
H2 C1 1_555 1_555
H3 C2 1_555 1_555
H4 C2 1_555 1_555
H5 C3 1_555 1_555
H6 C3 1_555 1_555
H7 C4 1_555 1_555
H8 C4 1_555 1_555
H9 C5 1_555 1_555
H10 C6 1_555 1_555
H11 C6 1_555 1_555
H12 C7 1_555 1_555
H13 C7 1_555 1_555
H14 C8 1_555 1_555
H15 C8 1_555 1_555
H16 C9 1_555 1_555
H17 C10 1_555 1_555
H18 C10 1_555 1_555
H19 C11 1_555 1_555
H20 C11 1_555 1_555
H21 C12 1_555 1_555
H22 C12 1_555 1_555
H23 C13 1_555 1_555
H24 C14 1_555 1_555
H25 C14 1_555 1_555
H26 C15 1_555 1_555
H27 C15 1_555 1_555
H28 C16 1_555 1_555
H29 C16 1_555 1_555
H30 C17 1_555 1_555
H31 C18 1_555 1_555
H32 C19 1_555 1_555
C4 C5 1_555 1_555
C7 C8 1_555 1_555
C12 C13 1_555 1_555
C15 C16 1_555 1_555
C18 C19 1_555 1_555

#END
