
#######################################################################
#
#                 Cambridge Crystallographic Data Centre
#                                CCDC 
#
#######################################################################
#
# If this CIF has been generated from an entry in the Cambridge 
# Structural Database, then it will include bibliographic, chemical, 
# crystal, experimental, refinement or atomic coordinate data resulting 
# from the CCDC's data processing and validation procedures.
#
#######################################################################

data_VAJKEW
_chemical_formula_moiety         'C19 H32 B2 N2 O1'
_chemical_name_systematic        
2,2:4,4-bis(Cyclo-octa-1,5-diyl)-3-oxonia-1-azonia-5-aza-2,4-diboratabicyclo(3.3.0)octa-6,8-diene
_symmetry_cell_setting           monoclinic
_symmetry_space_group_name_H-M   'P 21/n'
_symmetry_Int_Tables_number      14
_space_group_name_Hall           '-P 2yn'
loop_
_symmetry_equiv_pos_site_id
_symmetry_equiv_pos_as_xyz
1 x,y,z
2 1/2-x,1/2+y,1/2-z
3 -x,-y,-z
4 1/2+x,1/2-y,1/2+z
_cell_length_a                   10.033(4)
_cell_length_b                   13.432(8)
_cell_length_c                   13.828(7)
_cell_angle_alpha                90
_cell_angle_beta                 108.69(3)
_cell_angle_gamma                90
_cell_volume                     1765.24
_exptl_crystal_colour            colorless
_chemical_melting_point          184-185deg.C
_cell_formula_units_Z            4
loop_
_atom_site_label
_atom_site_type_symbol
_atom_site_fract_x
_atom_site_fract_y
_atom_site_fract_z
O1 O -0.0031(1) 0.3964(1) 0.2435(1)
B1 B -0.0945(2) 0.4922(2) 0.2369(2)
B2 B 0.1474(2) 0.3982(2) 0.3239(2)
N1 N -0.0019(1) 0.5389(1) 0.3417(1)
N2 N 0.1200(1) 0.4898(1) 0.3870(1)
C1 C -0.1003(2) 0.5571(1) 0.1396(1)
C2 C -0.1660(2) 0.4926(1) 0.0436(1)
C3 C -0.3092(2) 0.4476(1) 0.0355(1)
C4 C -0.3167(2) 0.4000(1) 0.1345(1)
C5 C -0.2525(2) 0.4638(1) 0.2304(1)
C6 C -0.3369(2) 0.5600(1) 0.2305(1)
C7 C -0.3271(2) 0.6406(1) 0.1548(1)
C8 C -0.1815(2) 0.6542(1) 0.1408(1)
C9 C 0.1807(2) 0.2940(1) 0.3826(1)
C10 C 0.3236(2) 0.3006(1) 0.4678(1)
C11 C 0.4452(2) 0.3373(1) 0.4324(2)
C12 C 0.4099(2) 0.4247(1) 0.3567(2)
C13 C 0.2664(2) 0.4182(1) 0.2720(1)
C14 C 0.2577(2) 0.3355(1) 0.1929(1)
C15 C 0.2653(2) 0.2291(1) 0.2344(1)
C16 C 0.1738(2) 0.2117(1) 0.3033(1)
C17 C -0.0086(2) 0.6168(1) 0.4000(1)
C18 C 0.1098(2) 0.6194(1) 0.4844(1)
C19 C 0.1891(2) 0.5382(1) 0.4737(1)
H1 H -0.0354 0.3433 0.2031
H2 H -0.0080 0.5759 0.1396
H3 H -0.1012 0.4397 0.0448
H4 H -0.1787 0.5328 -0.0160
H5 H -0.3779 0.4999 0.0171
H6 H -0.3327 0.3973 -0.0166
H7 H -0.4139 0.3853 0.1242
H8 H -0.2648 0.3389 0.1408
H9 H -0.2562 0.4257 0.2883
H10 H -0.2983 0.5860 0.2985
H11 H -0.4341 0.5433 0.2177
H12 H -0.3953 0.6244 0.0903
H13 H -0.3510 0.7033 0.1784
H14 H -0.1227 0.6915 0.1978
H15 H -0.1958 0.6916 0.0792
H16 H 0.1115 0.2770 0.4143
H17 H 0.3472 0.2363 0.4990
H18 H 0.3135 0.3473 0.5176
H19 H 0.5216 0.3576 0.4910
H20 H 0.4739 0.2814 0.4006
H21 H 0.4075 0.4844 0.3943
H22 H 0.4875 0.4278 0.3304
H23 H 0.2538 0.4813 0.2377
H24 H 0.3333 0.3428 0.1651
H25 H 0.1694 0.3432 0.1395
H26 H 0.2375 0.1815 0.1799
H27 H 0.3608 0.2165 0.2758
H28 H 0.0774 0.2078 0.2606
H29 H 0.2017 0.1494 0.3378
H30 H -0.0869 0.6619 0.3807
H31 H 0.1306 0.6673 0.5388
H32 H 0.2772 0.5145 0.5191
loop_
_geom_bond_atom_site_label_1
_geom_bond_atom_site_label_2
_geom_bond_site_symmetry_1
_geom_bond_site_symmetry_2
O1 B1 1_555 1_555
B1 N1 1_555 1_555
B2 O1 1_555 1_555
N1 N2 1_555 1_555
N2 B2 1_555 1_555
C1 B1 1_555 1_555
C2 C1 1_555 1_555
C3 C2 1_555 1_555
C4 C3 1_555 1_555
C5 B1 1_555 1_555
C6 C5 1_555 1_555
C7 C6 1_555 1_555
C8 C1 1_555 1_555
C9 B2 1_555 1_555
C10 C9 1_555 1_555
C11 C10 1_555 1_555
C12 C11 1_555 1_555
C13 B2 1_555 1_555
C14 C13 1_555 1_555
C15 C14 1_555 1_555
C16 C9 1_555 1_555
C17 N1 1_555 1_555
C18 C17 1_555 1_555
C19 N2 1_555 1_555
H1 O1 1_555 1_555
H2 C1 1_555 1_555
H3 C2 1_555 1_555
H4 C2 1_555 1_555
H5 C3 1_555 1_555
H6 C3 1_555 1_555
H7 C4 1_555 1_555
H8 C4 1_555 1_555
H9 C5 1_555 1_555
H10 C6 1_555 1_555
H11 C6 1_555 1_555
H12 C7 1_555 1_555
H13 C7 1_555 1_555
H14 C8 1_555 1_555
H15 C8 1_555 1_555
H16 C9 1_555 1_555
H17 C10 1_555 1_555
H18 C10 1_555 1_555
H19 C11 1_555 1_555
H20 C11 1_555 1_555
H21 C12 1_555 1_555
H22 C12 1_555 1_555
H23 C13 1_555 1_555
H24 C14 1_555 1_555
H25 C14 1_555 1_555
H26 C15 1_555 1_555
H27 C15 1_555 1_555
H28 C16 1_555 1_555
H29 C16 1_555 1_555
H30 C17 1_555 1_555
H31 C18 1_555 1_555
H32 C19 1_555 1_555
C4 C5 1_555 1_555
C7 C8 1_555 1_555
C12 C13 1_555 1_555
C15 C16 1_555 1_555
C18 C19 1_555 1_555

#END
