
#######################################################################
#
#                 Cambridge Crystallographic Data Centre
#                                CCDC 
#
#######################################################################
#
# If this CIF has been generated from an entry in the Cambridge 
# Structural Database, then it will include bibliographic, chemical, 
# crystal, experimental, refinement or atomic coordinate data resulting 
# from the CCDC's data processing and validation procedures.
#
#######################################################################

data_VAJLIE
_chemical_formula_moiety         'C17 H16 Br1 N1 O4 S1'
_chemical_name_systematic        
5-bromo-3-((4-methylphenyl)sulfonyl)-4-phenyl-1,3-oxazinan-2-one
_symmetry_cell_setting           monoclinic
_symmetry_space_group_name_H-M   'P 21'
_symmetry_Int_Tables_number      4
_space_group_name_Hall           'P 2yb'
loop_
_symmetry_equiv_pos_site_id
_symmetry_equiv_pos_as_xyz
1 x,y,z
2 -x,1/2+y,-z
_cell_length_a                   7.819(2)
_cell_length_b                   11.246(3)
_cell_length_c                   9.640(2)
_cell_angle_alpha                90
_cell_angle_beta                 94.539(4)
_cell_angle_gamma                90
_cell_volume                     845.011
_exptl_crystal_colour            colorless
_exptl_crystal_description       Plate
_cell_formula_units_Z            2
loop_
_atom_site_label
_atom_site_type_symbol
_atom_site_fract_x
_atom_site_fract_y
_atom_site_fract_z
Br1 Br 0.64740(5) 0.12020(4) 0.64957(4)
S1 S 0.94686(12) 0.43451(8) 0.53460(10)
O1 O 0.4673(3) 0.3696(3) 0.5792(3)
O2 O 0.6530(3) 0.4970(3) 0.6742(3)
O3 O 0.9321(4) 0.5601(2) 0.5184(3)
O4 O 1.0444(3) 0.3677(3) 0.4432(3)
N1 N 0.7479(3) 0.3748(3) 0.5096(3)
C1 C 0.7257(4) 0.2680(3) 0.4200(4)
H1 H 0.8308 0.2203 0.4320
C2 C 0.5786(5) 0.1954(3) 0.4702(4)
H2 H 0.5480 0.1331 0.4017
C3 C 0.4264(5) 0.2733(4) 0.4826(4)
H3 H 0.3892 0.3058 0.3920
H4 H 0.3330 0.2266 0.5147
C4 C 0.6238(5) 0.4181(3) 0.5921(4)
C5 C 0.6902(4) 0.2967(3) 0.2662(4)
C6 C 0.6760(5) 0.4118(3) 0.2160(4)
H5 H 0.6889 0.4757 0.2772
C7 C 0.6423(5) 0.4322(4) 0.0736(4)
H6 H 0.6326 0.5098 0.0405
C8 C 0.6235(6) 0.3391(4) -0.0177(4)
H7 H 0.5993 0.3533 -0.1122
C9 C 0.6407(6) 0.2237(4) 0.0312(5)
H8 H 0.6304 0.1602 -0.0307
C10 C 0.6731(5) 0.2027(4) 0.1727(4)
H9 H 0.6835 0.1250 0.2053
C11 C 1.0157(4) 0.3992(3) 0.7076(4)
C12 C 1.0709(4) 0.2843(3) 0.7374(4)
H10 H 1.0709 0.2272 0.6676
C13 C 1.1261(5) 0.2563(4) 0.8733(4)
H11 H 1.1638 0.1795 0.8943
C14 C 1.1268(5) 0.3398(4) 0.9792(4)
C15 C 1.0705(5) 0.4537(4) 0.9457(4)
H12 H 1.0706 0.5109 1.0154
C16 C 1.0136(5) 0.4846(4) 0.8101(4)
H13 H 0.9749 0.5612 0.7891
C17 C 1.1866(6) 0.3101(5) 1.1263(4)
H14 H 1.0953 0.3240 1.1852
H15 H 1.2831 0.3592 1.1560
H16 H 1.2199 0.2280 1.1320
loop_
_geom_bond_atom_site_label_1
_geom_bond_atom_site_label_2
_geom_bond_site_symmetry_1
_geom_bond_site_symmetry_2
Br1 C2 1_555 1_555
S1 O3 1_555 1_555
O1 C3 1_555 1_555
O2 C4 1_555 1_555
O4 S1 1_555 1_555
N1 S1 1_555 1_555
C1 N1 1_555 1_555
H1 C1 1_555 1_555
C2 C1 1_555 1_555
H2 C2 1_555 1_555
C3 C2 1_555 1_555
H3 C3 1_555 1_555
H4 C3 1_555 1_555
C4 O1 1_555 1_555
C5 C1 1_555 1_555
C6 C5 1_555 1_555
H5 C6 1_555 1_555
C7 C6 1_555 1_555
H6 C7 1_555 1_555
C8 C7 1_555 1_555
H7 C8 1_555 1_555
C9 C8 1_555 1_555
H8 C9 1_555 1_555
C10 C5 1_555 1_555
H9 C10 1_555 1_555
C11 S1 1_555 1_555
C12 C11 1_555 1_555
H10 C12 1_555 1_555
C13 C12 1_555 1_555
H11 C13 1_555 1_555
C14 C13 1_555 1_555
C15 C14 1_555 1_555
H12 C15 1_555 1_555
C16 C11 1_555 1_555
H13 C16 1_555 1_555
C17 C14 1_555 1_555
H14 C17 1_555 1_555
H15 C17 1_555 1_555
H16 C17 1_555 1_555
N1 C4 1_555 1_555
C9 C10 1_555 1_555
C15 C16 1_555 1_555

#END
