
#######################################################################
#
#                 Cambridge Crystallographic Data Centre
#                                CCDC 
#
#######################################################################
#
# If this CIF has been generated from an entry in the Cambridge 
# Structural Database, then it will include bibliographic, chemical, 
# crystal, experimental, refinement or atomic coordinate data resulting 
# from the CCDC's data processing and validation procedures.
#
#######################################################################

data_VAJLUQ
_chemical_formula_moiety         'C17 H13 Br1 F3 N1 O4 S1'
_chemical_name_systematic        
5-bromo-3-((4-methylphenyl)sulfonyl)-4-(2,4,6-trifluorophenyl)-1,3-oxazinan-2-one
_symmetry_cell_setting           orthorhombic
_symmetry_space_group_name_H-M   'P 21 21 21'
_symmetry_Int_Tables_number      19
_space_group_name_Hall           'P 2ac 2ab'
loop_
_symmetry_equiv_pos_site_id
_symmetry_equiv_pos_as_xyz
1 x,y,z
2 1/2-x,-y,1/2+z
3 -x,1/2+y,1/2-z
4 1/2+x,1/2-y,-z
_cell_length_a                   14.600(4)
_cell_length_b                   14.941(4)
_cell_length_c                   16.318(4)
_cell_angle_alpha                90
_cell_angle_beta                 90
_cell_angle_gamma                90
_cell_volume                     3559.59
_exptl_crystal_colour            colorless
_exptl_crystal_description       block
_cell_formula_units_Z            8
loop_
_atom_site_label
_atom_site_type_symbol
_atom_site_fract_x
_atom_site_fract_y
_atom_site_fract_z
Br1 Br 0.69980(6) 0.18339(5) 0.44838(5)
S1 S 0.45406(13) 0.34837(12) 0.46855(12)
F1 F 0.6194(4) 0.3070(3) 0.6991(3)
F2 F 0.6374(4) 0.6112(4) 0.7665(3)
F3 F 0.6450(4) 0.5243(3) 0.4922(3)
O1 O 0.6949(4) 0.3865(3) 0.3750(3)
O2 O 0.5553(4) 0.4150(4) 0.3307(3)
O3 O 0.4149(4) 0.4360(3) 0.4619(4)
O4 O 0.4420(4) 0.2996(4) 0.5440(3)
N1 N 0.5680(4) 0.3565(4) 0.4595(3)
C1 C 0.6253(5) 0.3336(5) 0.5308(4)
H1 H 0.5956 0.2837 0.5594
C2 C 0.7172(5) 0.3006(4) 0.5006(5)
H2 H 0.7587 0.2939 0.5474
C3 C 0.7587(5) 0.3648(6) 0.4403(5)
H3 H 0.7764 0.4192 0.4685
H4 H 0.8135 0.3384 0.4168
C4 C 0.6040(5) 0.3884(5) 0.3857(5)
C5 C 0.6326(5) 0.4108(5) 0.5911(4)
C6 C 0.6402(6) 0.5006(5) 0.5722(4)
C7 C 0.6427(6) 0.5681(6) 0.6285(5)
H5 H 0.6479 0.6276 0.6124
C8 C 0.6371(6) 0.5450(6) 0.7096(5)
C9 C 0.6296(6) 0.4580(6) 0.7358(5)
H6 H 0.6259 0.4434 0.7911
C10 C 0.6277(5) 0.3932(5) 0.6751(5)
C11 C 0.4195(5) 0.2814(5) 0.3864(5)
C12 C 0.3739(6) 0.3206(6) 0.3208(5)
H7 H 0.3637 0.3820 0.3198
C13 C 0.3436(6) 0.2668(6) 0.2569(6)
H8 H 0.3132 0.2924 0.2127
C14 C 0.3586(5) 0.1743(5) 0.2585(5)
C15 C 0.4021(5) 0.1375(5) 0.3261(5)
H9 H 0.4110 0.0759 0.3284
C16 C 0.4322(5) 0.1902(5) 0.3899(5)
H10 H 0.4609 0.1644 0.4350
C17 C 0.3306(6) 0.1171(6) 0.1870(5)
H11 H 0.2708 0.1348 0.1686
H12 H 0.3292 0.0554 0.2035
H13 H 0.3738 0.1245 0.1432
Br2 Br 0.69877(6) 0.76509(5) 0.48270(5)
S2 S 0.43093(13) 0.89305(13) 0.50800(12)
F4 F 0.6264(4) 0.8185(3) 0.7367(3)
F5 F 0.6025(4) 1.0937(4) 0.8720(3)
F6 F 0.5650(4) 1.0800(3) 0.5882(3)
O5 O 0.6740(3) 0.9710(3) 0.4429(3)
O6 O 0.5395(4) 0.9681(4) 0.3811(4)
O7 O 0.3825(4) 0.9703(4) 0.4799(4)
O8 O 0.4125(4) 0.8575(4) 0.5877(3)
N2 N 0.5436(4) 0.9175(4) 0.5122(4)
C18 C 0.5971(5) 0.8842(5) 0.5830(4)
H14 H 0.5716 0.8262 0.5992
C19 C 0.6949(5) 0.8693(5) 0.5560(5)
H15 H 0.7331 0.8575 0.6042
C20 C 0.7307(5) 0.9499(5) 0.5122(5)
H16 H 0.7320 1.0005 0.5495
H17 H 0.7928 0.9386 0.4939
C21 C 0.5839(5) 0.9531(5) 0.4418(5)
C22 C 0.5951(5) 0.9456(5) 0.6581(4)
C23 C 0.5822(6) 1.0371(6) 0.6597(5)
C24 C 0.5842(7) 1.0891(6) 0.7296(5)
H18 H 0.5747 1.1507 0.7280
C25 C 0.6012(6) 1.0441(7) 0.8021(5)
C26 C 0.6151(6) 0.9542(6) 0.8064(5)
H19 H 0.6265 0.9260 0.8562
C27 C 0.6117(6) 0.9075(5) 0.7353(5)
C28 C 0.4225(5) 0.8059(5) 0.4361(4)
C29 C 0.3900(5) 0.8230(5) 0.3577(5)
H20 H 0.3762 0.8811 0.3412
C30 C 0.3786(6) 0.7514(6) 0.3044(5)
H21 H 0.3560 0.7617 0.2520
C31 C 0.4003(5) 0.6646(5) 0.3279(5)
C32 C 0.4354(5) 0.6513(5) 0.4063(5)
H22 H 0.4528 0.5939 0.4219
C33 C 0.4451(5) 0.7198(5) 0.4609(5)
H23 H 0.4665 0.7090 0.5137
C34 C 0.3870(6) 0.5860(6) 0.2712(6)
H24 H 0.3278 0.5601 0.2805
H25 H 0.4336 0.5421 0.2815
H26 H 0.3912 0.6060 0.2153
loop_
_geom_bond_atom_site_label_1
_geom_bond_atom_site_label_2
_geom_bond_site_symmetry_1
_geom_bond_site_symmetry_2
Br1 C2 1_555 1_555
S1 O3 1_555 1_555
F1 C10 1_555 1_555
F2 C8 1_555 1_555
F3 C6 1_555 1_555
O1 C3 1_555 1_555
O2 C4 1_555 1_555
O4 S1 1_555 1_555
N1 S1 1_555 1_555
C1 N1 1_555 1_555
H1 C1 1_555 1_555
C2 C1 1_555 1_555
H2 C2 1_555 1_555
C3 C2 1_555 1_555
H3 C3 1_555 1_555
H4 C3 1_555 1_555
C4 O1 1_555 1_555
C5 C1 1_555 1_555
C6 C5 1_555 1_555
C7 C6 1_555 1_555
H5 C7 1_555 1_555
C8 C7 1_555 1_555
C9 C8 1_555 1_555
H6 C9 1_555 1_555
C10 C5 1_555 1_555
C11 S1 1_555 1_555
C12 C11 1_555 1_555
H7 C12 1_555 1_555
C13 C12 1_555 1_555
H8 C13 1_555 1_555
C14 C13 1_555 1_555
C15 C14 1_555 1_555
H9 C15 1_555 1_555
C16 C11 1_555 1_555
H10 C16 1_555 1_555
C17 C14 1_555 1_555
H11 C17 1_555 1_555
H12 C17 1_555 1_555
H13 C17 1_555 1_555
Br2 C19 1_555 1_555
S2 O7 1_555 1_555
F4 C27 1_555 1_555
F5 C25 1_555 1_555
F6 C23 1_555 1_555
O5 C20 1_555 1_555
O6 C21 1_555 1_555
O8 S2 1_555 1_555
N2 S2 1_555 1_555
C18 N2 1_555 1_555
H14 C18 1_555 1_555
C19 C18 1_555 1_555
H15 C19 1_555 1_555
C20 C19 1_555 1_555
H16 C20 1_555 1_555
H17 C20 1_555 1_555
C21 O5 1_555 1_555
C22 C18 1_555 1_555
C23 C22 1_555 1_555
C24 C23 1_555 1_555
H18 C24 1_555 1_555
C25 C24 1_555 1_555
C26 C25 1_555 1_555
H19 C26 1_555 1_555
C27 C22 1_555 1_555
C28 S2 1_555 1_555
C29 C28 1_555 1_555
H20 C29 1_555 1_555
C30 C29 1_555 1_555
H21 C30 1_555 1_555
C31 C30 1_555 1_555
C32 C31 1_555 1_555
H22 C32 1_555 1_555
C33 C28 1_555 1_555
H23 C33 1_555 1_555
C34 C31 1_555 1_555
H24 C34 1_555 1_555
H25 C34 1_555 1_555
H26 C34 1_555 1_555
N1 C4 1_555 1_555
C9 C10 1_555 1_555
C15 C16 1_555 1_555
N2 C21 1_555 1_555
C26 C27 1_555 1_555
C32 C33 1_555 1_555

#END
