
#######################################################################
#
#                 Cambridge Crystallographic Data Centre
#                                CCDC 
#
#######################################################################
#
# If this CIF has been generated from an entry in the Cambridge 
# Structural Database, then it will include bibliographic, chemical, 
# crystal, experimental, refinement or atomic coordinate data resulting 
# from the CCDC's data processing and validation procedures.
#
#######################################################################

data_VAJMOI01
_chemical_formula_moiety         'C23 H41 B2 N1 O1'
_chemical_name_systematic        
Quinuclidine-bis(cyclo-octan-1,5-diyl)diboroxane
_symmetry_cell_setting           monoclinic
_symmetry_space_group_name_H-M   'P 21/n'
_symmetry_Int_Tables_number      14
_space_group_name_Hall           '-P 2yn'
loop_
_symmetry_equiv_pos_site_id
_symmetry_equiv_pos_as_xyz
1 x,y,z
2 1/2-x,1/2+y,1/2-z
3 -x,-y,-z
4 1/2+x,1/2-y,1/2+z
_cell_length_a                   9.989(2)
_cell_length_b                   12.681(3)
_cell_length_c                   17.200(4)
_cell_angle_alpha                90
_cell_angle_beta                 96.96(2)
_cell_angle_gamma                90
_cell_volume                     2162.68
_cell_formula_units_Z            4
loop_
_atom_site_label
_atom_site_type_symbol
_atom_site_fract_x
_atom_site_fract_y
_atom_site_fract_z
O1 O 0.8266(2) 0.3004(2) 0.6249(1)
N1 N 1.0344(2) 0.2450(2) 0.5707(1)
B1 B 0.8656(3) 0.2711(3) 0.5476(2)
B2 B 0.8016(3) 0.3837(3) 0.6686(2)
C1 C 0.7786(3) 0.1677(2) 0.5168(2)
C2 C 0.6308(3) 0.1959(3) 0.5219(2)
C3 C 0.5829(4) 0.2934(3) 0.4734(3)
C4 C 0.6802(4) 0.3862(3) 0.4797(2)
C5 C 0.8320(3) 0.3581(2) 0.4804(2)
C6 C 0.8613(4) 0.3230(3) 0.3993(2)
C7 C 0.7974(5) 0.2184(3) 0.3711(2)
C8 C 0.7969(4) 0.1314(3) 0.4329(2)
C9 C 0.8501(4) 0.5009(3) 0.6645(2)
C10 C 0.9482(4) 0.5200(4) 0.7398(3)
C11 C 0.8995(5) 0.4895(5) 0.8135(2)
C12 C 0.8194(6) 0.3906(4) 0.8141(2)
C13 C 0.7200(4) 0.3692(3) 0.7400(2)
C14 C 0.5960(4) 0.4534(5) 0.7256(4)
C15 C 0.6370(6) 0.5626(5) 0.7084(3)
C16 C 0.7345(5) 0.5769(3) 0.6567(3)
C17 C 1.0579(3) 0.1848(3) 0.6462(2)
C18 C 1.2033(4) 0.1504(3) 0.6665(2)
C19 C 1.2906(3) 0.2104(3) 0.6147(2)
C20 C 1.2512(3) 0.1740(3) 0.5314(2)
C21 C 1.0995(4) 0.1797(4) 0.5124(2)
C22 C 1.1127(4) 0.3450(3) 0.5820(3)
C23 C 1.2582(3) 0.3261(3) 0.6193(3)
H1 H 0.8008 0.1088 0.5513
H2 H 0.5722 0.1373 0.5065
H3 H 0.6235 0.2140 0.5755
H4 H 0.4989 0.3151 0.4907
H5 H 0.5676 0.2727 0.4192
H6 H 0.6568 0.4323 0.4358
H7 H 0.6724 0.4239 0.5275
H8 H 0.8776 0.4235 0.4943
H9 H 0.9576 0.3178 0.4000
H10 H 0.8262 0.3732 0.3602
H11 H 0.7051 0.2344 0.3522
H12 H 0.8446 0.1976 0.3280
H13 H 0.7245 0.0853 0.4126
H14 H 0.8816 0.0951 0.4331
H15 H 0.8926 0.5185 0.6189
H16 H 0.9714 0.5937 0.7400
H17 H 1.0276 0.4783 0.7356
H18 H 0.9729 0.4823 0.8548
H19 H 0.8417 0.5464 0.8258
H20 H 0.8926 0.3408 0.8170
H21 H 0.7830 0.3923 0.8634
H22 H 0.6721 0.3040 0.7445
H23 H 0.5752 0.4302 0.7760
H24 H 0.5262 0.4304 0.6858
H25 H 0.6784 0.5840 0.7594
H26 H 0.5534 0.6000 0.6958
H27 H 0.6958 0.5679 0.6032
H28 H 0.7736 0.6462 0.6634
H29 H 1.0262 0.2329 0.6832
H30 H 0.9937 0.1284 0.6355
H31 H 1.2309 0.1682 0.7204
H32 H 1.2069 0.0751 0.6600
H33 H 1.3839 0.1941 0.6307
H34 H 1.2768 0.1018 0.5237
H35 H 1.2951 0.2191 0.4972
H36 H 1.0655 0.2080 0.4620
H37 H 1.0562 0.1132 0.5200
H38 H 1.1126 0.3702 0.5293
H39 H 1.0668 0.3951 0.6116
H40 H 1.2634 0.3544 0.6715
H41 H 1.3092 0.3701 0.5879
loop_
_geom_bond_atom_site_label_1
_geom_bond_atom_site_label_2
_geom_bond_site_symmetry_1
_geom_bond_site_symmetry_2
O1 B1 1_555 1_555
N1 B1 1_555 1_555
B1 C1 1_555 1_555
B2 O1 1_555 1_555
C1 C2 1_555 1_555
C2 C3 1_555 1_555
C3 C4 1_555 1_555
C4 C5 1_555 1_555
C5 B1 1_555 1_555
C6 C5 1_555 1_555
C7 C6 1_555 1_555
C8 C1 1_555 1_555
C9 B2 1_555 1_555
C10 C9 1_555 1_555
C11 C10 1_555 1_555
C12 C11 1_555 1_555
C13 B2 1_555 1_555
C14 C13 1_555 1_555
C15 C14 1_555 1_555
C16 C9 1_555 1_555
C17 N1 1_555 1_555
C18 C17 1_555 1_555
C19 C18 1_555 1_555
C20 C19 1_555 1_555
C21 N1 1_555 1_555
C22 N1 1_555 1_555
C23 C19 1_555 1_555
H1 C1 1_555 1_555
H2 C2 1_555 1_555
H3 C2 1_555 1_555
H4 C3 1_555 1_555
H5 C3 1_555 1_555
H6 C4 1_555 1_555
H7 C4 1_555 1_555
H8 C5 1_555 1_555
H9 C6 1_555 1_555
H10 C6 1_555 1_555
H11 C7 1_555 1_555
H12 C7 1_555 1_555
H13 C8 1_555 1_555
H14 C8 1_555 1_555
H15 C9 1_555 1_555
H16 C10 1_555 1_555
H17 C10 1_555 1_555
H18 C11 1_555 1_555
H19 C11 1_555 1_555
H20 C12 1_555 1_555
H21 C12 1_555 1_555
H22 C13 1_555 1_555
H23 C14 1_555 1_555
H24 C14 1_555 1_555
H25 C15 1_555 1_555
H26 C15 1_555 1_555
H27 C16 1_555 1_555
H28 C16 1_555 1_555
H29 C17 1_555 1_555
H30 C17 1_555 1_555
H31 C18 1_555 1_555
H32 C18 1_555 1_555
H33 C19 1_555 1_555
H34 C20 1_555 1_555
H35 C20 1_555 1_555
H36 C21 1_555 1_555
H37 C21 1_555 1_555
H38 C22 1_555 1_555
H39 C22 1_555 1_555
H40 C23 1_555 1_555
H41 C23 1_555 1_555
C7 C8 1_555 1_555
C12 C13 1_555 1_555
C15 C16 1_555 1_555
C20 C21 1_555 1_555
C22 C23 1_555 1_555

#END
