
#######################################################################
#
#                 Cambridge Crystallographic Data Centre
#                                CCDC 
#
#######################################################################
#
# If this CIF has been generated from an entry in the Cambridge 
# Structural Database, then it will include bibliographic, chemical, 
# crystal, experimental, refinement or atomic coordinate data resulting 
# from the CCDC's data processing and validation procedures.
#
#######################################################################

data_VAJMOL
_chemical_formula_moiety         'C19 H23 N1 O3 S1'
_chemical_name_systematic        
N-(2-(hydroxymethyl)-1-phenylpent-4-en-1-yl)-4-methylbenzenesulfonamide
_symmetry_cell_setting           orthorhombic
_symmetry_space_group_name_H-M   'P 21 21 21'
_symmetry_Int_Tables_number      19
_space_group_name_Hall           'P 2ac 2ab'
loop_
_symmetry_equiv_pos_site_id
_symmetry_equiv_pos_as_xyz
1 x,y,z
2 1/2-x,-y,1/2+z
3 -x,1/2+y,1/2-z
4 1/2+x,1/2-y,-z
_cell_length_a                   6.101(2)
_cell_length_b                   15.371(5)
_cell_length_c                   19.086(6)
_cell_angle_alpha                90
_cell_angle_beta                 90
_cell_angle_gamma                90
_cell_volume                     1789.86
_exptl_crystal_colour            colorless
_exptl_crystal_description       plate
_cell_formula_units_Z            4
loop_
_atom_site_label
_atom_site_type_symbol
_atom_site_fract_x
_atom_site_fract_y
_atom_site_fract_z
S1 S 0.53357(10) 0.57878(4) 0.26083(4)
O1 O 0.4701(4) 0.83948(13) 0.20632(11)
O2 O 0.4657(4) 0.50179(11) 0.22373(10)
O3 O 0.7618(3) 0.59278(14) 0.27389(11)
N1 N 0.4499(4) 0.66138(14) 0.21676(12)
C1 C 0.1245(5) 0.75891(17) 0.21597(14)
H1 H -0.0256 0.7612 0.1978
C2 C 0.2189(4) 0.66944(17) 0.19374(14)
H2 H 0.1343 0.6244 0.2180
C3 C 0.2463(5) 0.83601(18) 0.18344(15)
H3 H 0.2422 0.8310 0.1328
H4 H 0.1729 0.8896 0.1964
C4 C 0.1066(5) 0.76781(18) 0.29573(15)
H5 H 0.0549 0.7133 0.3153
H6 H 0.2507 0.7794 0.3150
C5 C -0.0461(5) 0.83927(19) 0.31652(15)
H7 H -0.1948 0.8302 0.3086
C6 C 0.0102(6) 0.9129(2) 0.34463(16)
H8 H 0.1571 0.9248 0.3534
H9 H -0.0964 0.9538 0.3559
C7 C 0.1948(5) 0.65379(16) 0.11539(14)
C8 C -0.0041(5) 0.62440(17) 0.09005(15)
H10 H -0.1181 0.6130 0.1211
C9 C -0.0352(6) 0.61173(19) 0.01897(17)
H11 H -0.1690 0.5910 0.0026
C10 C 0.1313(6) 0.6297(2) -0.02775(17)
H12 H 0.1102 0.6214 -0.0755
C11 C 0.3294(6) 0.6598(2) -0.00297(16)
H13 H 0.4415 0.6725 -0.0343
C12 C 0.3631(5) 0.67149(19) 0.06836(15)
H14 H 0.4980 0.6911 0.0846
C13 C 0.3954(4) 0.57805(18) 0.34213(14)
C14 C 0.1941(5) 0.53625(18) 0.34726(16)
H15 H 0.1394 0.5042 0.3098
C15 C 0.0763(5) 0.5430(2) 0.40885(16)
H16 H -0.0587 0.5152 0.4123
C16 C 0.1536(5) 0.5899(2) 0.46544(16)
C17 C 0.3578(6) 0.6310(2) 0.45926(17)
H17 H 0.4134 0.6623 0.4970
C18 C 0.4775(5) 0.62593(19) 0.39807(15)
H18 H 0.6117 0.6542 0.3943
C19 C 0.0225(7) 0.5956(3) 0.53251(17)
H19 H -0.1310 0.5975 0.5215
H20 H 0.0628 0.6474 0.5575
H21 H 0.0523 0.5456 0.5611
H22 H 0.478(7) 0.883(2) 0.2286(19)
H23 H 0.512(5) 0.7063(19) 0.2288(15)
loop_
_geom_bond_atom_site_label_1
_geom_bond_atom_site_label_2
_geom_bond_site_symmetry_1
_geom_bond_site_symmetry_2
S1 O2 1_555 1_555
O1 C3 1_555 1_555
O3 S1 1_555 1_555
N1 S1 1_555 1_555
C1 H1 1_555 1_555
C2 N1 1_555 1_555
H2 C2 1_555 1_555
C3 C1 1_555 1_555
H3 C3 1_555 1_555
H4 C3 1_555 1_555
C4 C1 1_555 1_555
H5 C4 1_555 1_555
H6 C4 1_555 1_555
C5 C4 1_555 1_555
H7 C5 1_555 1_555
C6 C5 1_555 1_555
H8 C6 1_555 1_555
H9 C6 1_555 1_555
C7 C2 1_555 1_555
C8 C7 1_555 1_555
H10 C8 1_555 1_555
C9 C8 1_555 1_555
H11 C9 1_555 1_555
C10 C9 1_555 1_555
H12 C10 1_555 1_555
C11 C10 1_555 1_555
H13 C11 1_555 1_555
C12 C7 1_555 1_555
H14 C12 1_555 1_555
C13 S1 1_555 1_555
C14 C13 1_555 1_555
H15 C14 1_555 1_555
C15 C14 1_555 1_555
H16 C15 1_555 1_555
C16 C15 1_555 1_555
C17 C16 1_555 1_555
H17 C17 1_555 1_555
C18 C13 1_555 1_555
H18 C18 1_555 1_555
C19 C16 1_555 1_555
H19 C19 1_555 1_555
H20 C19 1_555 1_555
H21 C19 1_555 1_555
H22 O1 1_555 1_555
H23 N1 1_555 1_555
C1 C2 1_555 1_555
C11 C12 1_555 1_555
C17 C18 1_555 1_555

#END
