
#######################################################################
#
#                 Cambridge Crystallographic Data Centre
#                                CCDC 
#
#######################################################################
#
# If this CIF has been generated from an entry in the Cambridge 
# Structural Database, then it will include bibliographic, chemical, 
# crystal, experimental, refinement or atomic coordinate data resulting 
# from the CCDC's data processing and validation procedures.
#
#######################################################################

data_VAJMAW
_chemical_formula_moiety         'C35 H14 F10 N4 S1'
_chemical_name_systematic        
5,15-bis(Pentafluorophenyl)-10-(2-thienyl)corrole
_symmetry_cell_setting           monoclinic
_symmetry_space_group_name_H-M   'P 21/n'
_symmetry_Int_Tables_number      14
_space_group_name_Hall           '-P 2yn'
loop_
_symmetry_equiv_pos_site_id
_symmetry_equiv_pos_as_xyz
1 x,y,z
2 1/2-x,1/2+y,1/2-z
3 -x,-y,-z
4 1/2+x,1/2-y,1/2+z
_cell_length_a                   14.4873(18)
_cell_length_b                   7.7533(8)
_cell_length_c                   25.313(3)
_cell_angle_alpha                90
_cell_angle_beta                 95.370(2)
_cell_angle_gamma                90
_cell_volume                     2830.79
_exptl_crystal_colour            violet
_exptl_crystal_description       plate
_cell_formula_units_Z            4
_exptl_crystal_recrystallization_method hexane/dichloromethane
loop_
_atom_site_label
_atom_site_type_symbol
_atom_site_fract_x
_atom_site_fract_y
_atom_site_fract_z
C1 C 0.3363(4) -0.5070(7) 0.4847(2)
C2 C 0.2937(4) -0.4683(7) 0.5314(2)
H1 H 0.2979 -0.5330 0.5625
C3 C 0.2456(4) -0.3187(7) 0.5224(2)
H2 H 0.2103 -0.2631 0.5462
C4 C 0.2590(3) -0.2625(7) 0.4699(2)
C5 C 0.2353(3) -0.1096(7) 0.44169(19)
C6 C 0.2675(3) -0.0712(6) 0.39172(19)
C7 C 0.2569(3) 0.0808(7) 0.3613(2)
H3 H 0.2244 0.1788 0.3699
C8 C 0.3020(4) 0.0592(7) 0.3175(2)
H4 H 0.3072 0.1416 0.2912
C9 C 0.3404(3) -0.1105(7) 0.3179(2)
C10 C 0.3906(3) -0.1882(6) 0.27958(18)
C11 C 0.4322(3) -0.3538(6) 0.28321(18)
C12 C 0.4625(4) -0.4588(7) 0.2431(2)
H5 H 0.4566 -0.4320 0.2071
C13 C 0.5015(4) -0.6049(7) 0.2644(2)
H6 H 0.5271 -0.6932 0.2456
C14 C 0.4969(3) -0.6007(6) 0.3197(2)
C15 C 0.5289(3) -0.7229(6) 0.35884(19)
C16 C 0.4942(3) -0.7264(6) 0.4091(2)
C17 C 0.5220(4) -0.8054(7) 0.4586(2)
H7 H 0.5710 -0.8824 0.4652
C18 C 0.4638(4) -0.7483(7) 0.4952(2)
H8 H 0.4668 -0.7811 0.5307
C19 C 0.3994(4) -0.6325(7) 0.4699(2)
C20 C 0.1710(3) 0.0157(6) 0.46355(19)
C21 C 0.0861(4) 0.0569(7) 0.4363(2)
C22 C 0.0250(4) 0.1710(8) 0.4554(2)
C23 C 0.0450(4) 0.2438(7) 0.5049(2)
C24 C 0.1277(4) 0.2069(7) 0.5328(2)
C25 C 0.1893(4) 0.0972(7) 0.5118(2)
C26 C 0.4043(4) -0.0944(7) 0.2301(2)
C27 C 0.4965(3) -0.0743(6) 0.20829(18)
H9 H 0.5540 -0.1130 0.2231
C28 C 0.4762(5) 0.0182(8) 0.1593(2)
H10 H 0.5227 0.0438 0.1376
C29 C 0.3886(5) 0.0662(8) 0.1460(2)
H11 H 0.3693 0.1264 0.1151
C30 C 0.6015(4) -0.8458(6) 0.34602(19)
C31 C 0.6818(4) -0.7923(7) 0.3246(2)
C32 C 0.7492(4) -0.9015(8) 0.3106(2)
C33 C 0.7391(4) -1.0775(8) 0.3186(2)
C34 C 0.6625(4) -1.1347(7) 0.3406(2)
C35 C 0.5962(4) -1.0217(7) 0.3541(2)
N1 N 0.3137(3) -0.3822(5) 0.44833(17)
H12 H 0.3310 -0.3787 0.4167
N2 N 0.3195(3) -0.1860(5) 0.36495(15)
N3 N 0.4507(3) -0.4484(5) 0.32946(15)
H13 H 0.4355 -0.4172 0.3601
N4 N 0.4188(3) -0.6272(5) 0.41836(16)
H14 H 0.3873 -0.5682 0.3942
F1 F 0.0599(2) -0.0201(4) 0.39014(12)
F2 F -0.0566(2) 0.2014(5) 0.42760(14)
F3 F -0.0164(2) 0.3461(4) 0.52566(14)
F4 F 0.1480(2) 0.2780(5) 0.58119(13)
F5 F 0.2723(2) 0.0704(4) 0.54106(12)
F6 F 0.6980(2) -0.6237(4) 0.31713(14)
F7 F 0.8244(2) -0.8447(5) 0.28989(16)
F8 F 0.8038(2) -1.1891(4) 0.30578(14)
F9 F 0.6523(2) -1.3041(4) 0.35061(13)
F10 F 0.5233(2) -1.0873(4) 0.37692(11)
S1 S 0.31651(12) 0.0055(2) 0.19135(7)
loop_
_geom_bond_atom_site_label_1
_geom_bond_atom_site_label_2
_geom_bond_site_symmetry_1
_geom_bond_site_symmetry_2
C1 C2 1_555 1_555
C2 H1 1_555 1_555
C3 C2 1_555 1_555
H2 C3 1_555 1_555
C4 C3 1_555 1_555
C5 C4 1_555 1_555
C6 C5 1_555 1_555
C7 C6 1_555 1_555
H3 C7 1_555 1_555
C8 C7 1_555 1_555
H4 C8 1_555 1_555
C9 C8 1_555 1_555
C10 C9 1_555 1_555
C11 C10 1_555 1_555
C12 C11 1_555 1_555
H5 C12 1_555 1_555
C13 C12 1_555 1_555
H6 C13 1_555 1_555
C14 C13 1_555 1_555
C15 C14 1_555 1_555
C16 C15 1_555 1_555
C17 C16 1_555 1_555
H7 C17 1_555 1_555
C18 C17 1_555 1_555
H8 C18 1_555 1_555
C19 C1 1_555 1_555
C20 C5 1_555 1_555
C21 C20 1_555 1_555
C22 C21 1_555 1_555
C23 C22 1_555 1_555
C24 C23 1_555 1_555
C25 C20 1_555 1_555
C26 C10 1_555 1_555
C27 C26 1_555 1_555
H9 C27 1_555 1_555
C28 C27 1_555 1_555
H10 C28 1_555 1_555
C29 C28 1_555 1_555
H11 C29 1_555 1_555
C30 C15 1_555 1_555
C31 C30 1_555 1_555
C32 C31 1_555 1_555
C33 C32 1_555 1_555
C34 C33 1_555 1_555
C35 C30 1_555 1_555
N1 C1 1_555 1_555
H12 N1 1_555 1_555
N2 C6 1_555 1_555
N3 C11 1_555 1_555
H13 N3 1_555 1_555
N4 C16 1_555 1_555
H14 N4 1_555 1_555
F1 C21 1_555 1_555
F2 C22 1_555 1_555
F3 C23 1_555 1_555
F4 C24 1_555 1_555
F5 C25 1_555 1_555
F6 C31 1_555 1_555
F7 C32 1_555 1_555
F8 C33 1_555 1_555
F9 C34 1_555 1_555
F10 C35 1_555 1_555
S1 C26 1_555 1_555
C4 N1 1_555 1_555
C9 N2 1_555 1_555
C14 N3 1_555 1_555
C18 C19 1_555 1_555
C19 N4 1_555 1_555
C24 C25 1_555 1_555
C29 S1 1_555 1_555
C34 C35 1_555 1_555

#END
