
#######################################################################
#
#                 Cambridge Crystallographic Data Centre
#                                CCDC 
#
#######################################################################
#
# If this CIF has been generated from an entry in the Cambridge 
# Structural Database, then it will include bibliographic, chemical, 
# crystal, experimental, refinement or atomic coordinate data resulting 
# from the CCDC's data processing and validation procedures.
#
#######################################################################

data_VAJMOI02
_chemical_formula_moiety         'C23 H41 B2 N1 O1'
_chemical_name_systematic        
Quinuclidine-bis(cyclo-octan-1,5-diyl)diboroxane
_symmetry_cell_setting           monoclinic
_symmetry_space_group_name_H-M   'P 21/n'
_symmetry_Int_Tables_number      14
_space_group_name_Hall           '-P 2yn'
loop_
_symmetry_equiv_pos_site_id
_symmetry_equiv_pos_as_xyz
1 x,y,z
2 1/2-x,1/2+y,1/2-z
3 -x,-y,-z
4 1/2+x,1/2-y,1/2+z
_cell_length_a                   9.986(2)
_cell_length_b                   12.735(3)
_cell_length_c                   17.204(3)
_cell_angle_alpha                90
_cell_angle_beta                 96.85(2)
_cell_angle_gamma                90
_cell_volume                     2172.24
_cell_formula_units_Z            4
loop_
_atom_site_label
_atom_site_type_symbol
_atom_site_fract_x
_atom_site_fract_y
_atom_site_fract_z
O1 O 0.8293(9) 0.3003(5) 0.6251(4)
N1 N 1.0397(11) 0.2458(6) 0.5712(4)
B1 B 0.8761(15) 0.2713(9) 0.5478(7)
B2 B 0.8062(16) 0.3840(10) 0.6706(8)
C1 C 0.7816(17) 0.1685(9) 0.5166(7)
C2 C 0.6394(22) 0.1954(10) 0.5225(8)
C3 C 0.5860(16) 0.2962(11) 0.4729(8)
C4 C 0.6867(16) 0.3871(10) 0.4800(9)
C5 C 0.8294(20) 0.3585(9) 0.4792(7)
C6 C 0.8598(19) 0.3234(10) 0.3994(7)
C7 C 0.7972(17) 0.2187(10) 0.3717(6)
C8 C 0.7958(16) 0.1309(8) 0.4322(7)
C9 C 0.8455(16) 0.5011(9) 0.6658(7)
C10 C 0.9451(20) 0.5215(11) 0.7404(8)
C11 C 0.8976(23) 0.4835(16) 0.8127(8)
C12 C 0.8190(25) 0.3877(13) 0.8127(8)
C13 C 0.7290(21) 0.3661(10) 0.7419(8)
C14 C 0.5999(15) 0.4477(14) 0.7310(12)
C15 C 0.6367(22) 0.5526(18) 0.7093(11)
C16 C 0.7278(22) 0.5722(11) 0.6589(10)
C17 C 1.0593(14) 0.1836(12) 0.6449(7)
C18 C 1.1988(16) 0.1526(11) 0.6652(7)
C19 C 1.2935(13) 0.2087(9) 0.6151(7)
C20 C 1.2506(18) 0.1741(11) 0.5313(7)
C21 C 1.1047(14) 0.1881(13) 0.5131(8)
C22 C 1.1117(15) 0.3455(10) 0.5853(9)
C23 C 1.2553(15) 0.3267(10) 0.6178(8)
H1 H 0.8137 0.1106 0.5493
H2 H 0.5843 0.1366 0.5044
H3 H 0.6301 0.2085 0.5766
H4 H 0.5037 0.3194 0.4913
H5 H 0.5684 0.2766 0.4188
H6 H 0.6785 0.4226 0.5284
H7 H 0.6621 0.4339 0.4370
H8 H 0.8827 0.4204 0.4909
H9 H 0.8267 0.3760 0.3621
H10 H 0.9560 0.3175 0.4006
H11 H 0.7050 0.2321 0.3510
H12 H 0.8461 0.1934 0.3307
H13 H 0.7211 0.0854 0.4158
H14 H 0.8789 0.0924 0.4333
H15 H 0.8864 0.5153 0.6190
H16 H 0.9600 0.5957 0.7452
H17 H 1.0289 0.4871 0.7344
H18 H 0.8425 0.5382 0.8306
H19 H 0.9762 0.4738 0.8499
H20 H 0.8814 0.3304 0.8209
H21 H 0.7654 0.3914 0.8555
H22 H 0.6973 0.2955 0.7458
H23 H 0.5615 0.4515 0.7796
H24 H 0.5337 0.4208 0.6909
H25 H 0.6695 0.5873 0.7573
H26 H 0.5542 0.5851 0.6870
H27 H 0.6828 0.5669 0.6065
H28 H 0.7605 0.6424 0.6681
H29 H 1.0044 0.1217 0.6383
H30 H 1.0317 0.2251 0.6868
H31 H 1.2256 0.1692 0.7192
H32 H 1.2062 0.0784 0.6575
H33 H 1.3872 0.1952 0.6320
H34 H 1.2735 0.1017 0.5254
H35 H 1.2965 0.2159 0.4962
H36 H 1.0641 0.1199 0.5078
H37 H 1.0881 0.2248 0.4641
H38 H 1.1095 0.3831 0.5369
H39 H 1.0682 0.3862 0.6220
H40 H 1.3131 0.3658 0.5876
H41 H 1.2685 0.3501 0.6712
loop_
_geom_bond_atom_site_label_1
_geom_bond_atom_site_label_2
_geom_bond_site_symmetry_1
_geom_bond_site_symmetry_2
O1 B1 1_555 1_555
N1 B1 1_555 1_555
B1 C1 1_555 1_555
B2 O1 1_555 1_555
C1 C2 1_555 1_555
C2 C3 1_555 1_555
C3 C4 1_555 1_555
C4 C5 1_555 1_555
C5 B1 1_555 1_555
C6 C5 1_555 1_555
C7 C6 1_555 1_555
C8 C1 1_555 1_555
C9 B2 1_555 1_555
C10 C9 1_555 1_555
C11 C10 1_555 1_555
C12 C11 1_555 1_555
C13 B2 1_555 1_555
C14 C13 1_555 1_555
C15 C14 1_555 1_555
C16 C9 1_555 1_555
C17 N1 1_555 1_555
C18 C17 1_555 1_555
C19 C18 1_555 1_555
C20 C19 1_555 1_555
C21 N1 1_555 1_555
C22 N1 1_555 1_555
C23 C19 1_555 1_555
H1 C1 1_555 1_555
H2 C2 1_555 1_555
H3 C2 1_555 1_555
H4 C3 1_555 1_555
H5 C3 1_555 1_555
H6 C4 1_555 1_555
H7 C4 1_555 1_555
H8 C5 1_555 1_555
H9 C6 1_555 1_555
H10 C6 1_555 1_555
H11 C7 1_555 1_555
H12 C7 1_555 1_555
H13 C8 1_555 1_555
H14 C8 1_555 1_555
H15 C9 1_555 1_555
H16 C10 1_555 1_555
H17 C10 1_555 1_555
H18 C11 1_555 1_555
H19 C11 1_555 1_555
H20 C12 1_555 1_555
H21 C12 1_555 1_555
H22 C13 1_555 1_555
H23 C14 1_555 1_555
H24 C14 1_555 1_555
H25 C15 1_555 1_555
H26 C15 1_555 1_555
H27 C16 1_555 1_555
H28 C16 1_555 1_555
H29 C17 1_555 1_555
H30 C17 1_555 1_555
H31 C18 1_555 1_555
H32 C18 1_555 1_555
H33 C19 1_555 1_555
H34 C20 1_555 1_555
H35 C20 1_555 1_555
H36 C21 1_555 1_555
H37 C21 1_555 1_555
H38 C22 1_555 1_555
H39 C22 1_555 1_555
H40 C23 1_555 1_555
H41 C23 1_555 1_555
C7 C8 1_555 1_555
C12 C13 1_555 1_555
C15 C16 1_555 1_555
C20 C21 1_555 1_555
C22 C23 1_555 1_555

#END
