
#######################################################################
#
#                 Cambridge Crystallographic Data Centre
#                                CCDC 
#
#######################################################################
#
# If this CIF has been generated from an entry in the Cambridge 
# Structural Database, then it will include bibliographic, chemical, 
# crystal, experimental, refinement or atomic coordinate data resulting 
# from the CCDC's data processing and validation procedures.
#
#######################################################################

data_VAJMAX
_chemical_formula_moiety         'C16 H19 N1 O3 S1'
_chemical_name_systematic        
N-(3-hydroxy-1-phenylpropyl)-4-methylbenzenesulfonamide
_symmetry_cell_setting           monoclinic
_symmetry_space_group_name_H-M   'P 21'
_symmetry_Int_Tables_number      4
_space_group_name_Hall           'P 2yb'
loop_
_symmetry_equiv_pos_site_id
_symmetry_equiv_pos_as_xyz
1 x,y,z
2 -x,1/2+y,-z
_cell_length_a                   5.804(2)
_cell_length_b                   22.592(7)
_cell_length_c                   6.639(2)
_cell_angle_alpha                90
_cell_angle_beta                 115.905(4)
_cell_angle_gamma                90
_cell_volume                     783.061
_exptl_crystal_colour            colorless
_exptl_crystal_description       block
_cell_formula_units_Z            2
loop_
_atom_site_label
_atom_site_type_symbol
_atom_site_fract_x
_atom_site_fract_y
_atom_site_fract_z
S1 S 0.33281(9) 0.54364(2) 0.45693(8)
O1 O 1.2513(3) 0.46412(9) 0.9157(3)
H1 H 1.2941 0.4917 1.0048
O2 O 0.0724(3) 0.55234(8) 0.4186(3)
O3 O 0.3988(3) 0.54707(9) 0.2723(2)
N1 N 0.4133(4) 0.47862(8) 0.5675(3)
C1 C 0.6735(4) 0.45538(10) 0.6279(3)
H2 H 0.7654 0.4834 0.5765
C2 C 0.8190(4) 0.44926(11) 0.8834(4)
H3 H 0.8284 0.4878 0.9509
H4 H 0.7229 0.4233 0.9352
C3 C 1.0886(4) 0.42494(11) 0.9633(4)
H5 H 1.1613 0.4181 1.1235
H6 H 1.0810 0.3872 0.8911
C4 C 0.6518(4) 0.39650(9) 0.5104(4)
C5 C 0.4976(5) 0.35137(10) 0.5276(5)
H7 H 0.4073 0.3572 0.6121
C6 C 0.4781(6) 0.29776(11) 0.4193(5)
H8 H 0.3730 0.2681 0.4303
C7 C 0.6132(6) 0.28821(12) 0.2959(5)
H9 H 0.5992 0.2522 0.2235
C8 C 0.7705(6) 0.33240(13) 0.2795(5)
H10 H 0.8635 0.3259 0.1977
C9 C 0.7884(5) 0.38661(11) 0.3863(4)
H11 H 0.8926 0.4163 0.3742
C10 C 0.5278(4) 0.59521(9) 0.6592(4)
C11 C 0.4742(5) 0.60601(11) 0.8416(4)
H12 H 0.3346 0.5881 0.8504
C12 C 0.6324(6) 0.64384(11) 1.0093(4)
H13 H 0.5979 0.6512 1.1312
C13 C 0.8411(5) 0.67092(11) 0.9986(5)
C14 C 0.8904(5) 0.65941(12) 0.8149(5)
H14 H 1.0297 0.6774 0.8060
C15 C 0.7354(5) 0.62151(11) 0.6449(5)
H15 H 0.7706 0.6139 0.5234
C16 C 1.0132(8) 0.71188(16) 1.1852(6)
H16 H 0.9097 0.7382 1.2250
H17 H 1.1181 0.7346 1.1351
H18 H 1.1206 0.6888 1.3135
H19 H 0.364(6) 0.4753(13) 0.674(5)
loop_
_geom_bond_atom_site_label_1
_geom_bond_atom_site_label_2
_geom_bond_site_symmetry_1
_geom_bond_site_symmetry_2
S1 O2 1_555 1_555
O1 H1 1_555 1_555
O3 S1 1_555 1_555
N1 S1 1_555 1_555
C1 N1 1_555 1_555
H2 C1 1_555 1_555
C2 C1 1_555 1_555
H3 C2 1_555 1_555
H4 C2 1_555 1_555
C3 O1 1_555 1_555
H5 C3 1_555 1_555
H6 C3 1_555 1_555
C4 C1 1_555 1_555
C5 C4 1_555 1_555
H7 C5 1_555 1_555
C6 C5 1_555 1_555
H8 C6 1_555 1_555
C7 C6 1_555 1_555
H9 C7 1_555 1_555
C8 C7 1_555 1_555
H10 C8 1_555 1_555
C9 C4 1_555 1_555
H11 C9 1_555 1_555
C10 S1 1_555 1_555
C11 C10 1_555 1_555
H12 C11 1_555 1_555
C12 C11 1_555 1_555
H13 C12 1_555 1_555
C13 C12 1_555 1_555
C14 C13 1_555 1_555
H14 C14 1_555 1_555
C15 C10 1_555 1_555
H15 C15 1_555 1_555
C16 C13 1_555 1_555
H16 C16 1_555 1_555
H17 C16 1_555 1_555
H18 C16 1_555 1_555
H19 N1 1_555 1_555
C2 C3 1_555 1_555
C8 C9 1_555 1_555
C14 C15 1_555 1_555

#END
