
#######################################################################
#
#                 Cambridge Crystallographic Data Centre
#                                CCDC 
#
#######################################################################
#
# If this CIF has been generated from an entry in the Cambridge 
# Structural Database, then it will include bibliographic, chemical, 
# crystal, experimental, refinement or atomic coordinate data resulting 
# from the CCDC's data processing and validation procedures.
#
#######################################################################

data_VAJNAY
_chemical_formula_moiety         'C15 H11 F2 N1 O1'
_chemical_name_systematic        
2-(3,4-difluorophenyl)-2,3-dihydroquinolin-4(1H)-one
_symmetry_cell_setting           triclinic
_symmetry_space_group_name_H-M   'P -1'
_symmetry_Int_Tables_number      2
_space_group_name_Hall           '-P 1'
loop_
_symmetry_equiv_pos_site_id
_symmetry_equiv_pos_as_xyz
1 x,y,z
2 -x,-y,-z
_cell_length_a                   6.816(2)
_cell_length_b                   8.648(3)
_cell_length_c                   10.567(3)
_cell_angle_alpha                91.038(5)
_cell_angle_beta                 97.022(5)
_cell_angle_gamma                96.930(5)
_cell_volume                     613.34
_exptl_crystal_description       block
_cell_formula_units_Z            2
loop_
_atom_site_label
_atom_site_type_symbol
_atom_site_fract_x
_atom_site_fract_y
_atom_site_fract_z
F1 F -0.0686(4) 0.3264(3) -0.0260(2)
F2 F -0.3160(3) 0.0613(3) -0.0607(2)
N1 N 0.1555(4) 0.2980(3) 0.4676(3)
H1 H 0.0551 0.3453 0.4409
O1 O 0.7319(3) 0.2129(3) 0.5139(2)
C1 C 0.2707(4) 0.3415(3) 0.5808(3)
C2 C 0.1940(5) 0.4194(4) 0.6772(3)
H2 H 0.0653 0.4462 0.6629
C3 C 0.3067(5) 0.4563(4) 0.7922(3)
H3 H 0.2531 0.5083 0.8551
C4 C 0.4997(5) 0.4180(4) 0.8174(3)
H4 H 0.5733 0.4403 0.8970
C5 C 0.5787(5) 0.3468(4) 0.7226(3)
H5 H 0.7091 0.3237 0.7376
C6 C 0.4690(4) 0.3078(3) 0.6038(3)
C7 C 0.5571(4) 0.2375(4) 0.5000(3)
C8 C 0.4270(5) 0.2007(4) 0.3764(3)
H6 H 0.4665 0.1099 0.3357
H7 H 0.4459 0.2875 0.3204
C9 C 0.2084(5) 0.1691(4) 0.3940(3)
H8 H 0.1909 0.0753 0.4441
C10 C 0.0702(5) 0.1410(4) 0.2711(3)
C11 C -0.0588(5) 0.0047(4) 0.2503(4)
H9 H -0.0568 -0.0703 0.3122
C12 C -0.1904(6) -0.0230(5) 0.1402(4)
H10 H -0.2775 -0.1150 0.1286
C13 C -0.1919(5) 0.0848(4) 0.0491(3)
C14 C -0.0649(5) 0.2211(4) 0.0672(3)
C15 C 0.0659(5) 0.2508(4) 0.1765(3)
H11 H 0.1513 0.3437 0.1874
loop_
_geom_bond_atom_site_label_1
_geom_bond_atom_site_label_2
_geom_bond_site_symmetry_1
_geom_bond_site_symmetry_2
F1 C14 1_555 1_555
F2 C13 1_555 1_555
N1 H1 1_555 1_555
O1 C7 1_555 1_555
C1 N1 1_555 1_555
C2 C1 1_555 1_555
H2 C2 1_555 1_555
C3 C2 1_555 1_555
H3 C3 1_555 1_555
C4 C3 1_555 1_555
H4 C4 1_555 1_555
C5 C4 1_555 1_555
H5 C5 1_555 1_555
C6 C1 1_555 1_555
C7 C6 1_555 1_555
C8 C7 1_555 1_555
H6 C8 1_555 1_555
H7 C8 1_555 1_555
C9 N1 1_555 1_555
H8 C9 1_555 1_555
C10 C9 1_555 1_555
C11 C10 1_555 1_555
H9 C11 1_555 1_555
C12 C11 1_555 1_555
H10 C12 1_555 1_555
C13 C12 1_555 1_555
C14 C13 1_555 1_555
C15 C10 1_555 1_555
H11 C15 1_555 1_555
C5 C6 1_555 1_555
C8 C9 1_555 1_555
C14 C15 1_555 1_555

#END
