
#######################################################################
#
#                 Cambridge Crystallographic Data Centre
#                                CCDC 
#
#######################################################################
#
# If this CIF has been generated from an entry in the Cambridge 
# Structural Database, then it will include bibliographic, chemical, 
# crystal, experimental, refinement or atomic coordinate data resulting 
# from the CCDC's data processing and validation procedures.
#
#######################################################################

data_VAJPUU
_chemical_formula_moiety         'C12 H12 N2,C11 H8 O3,H2 O1'
_chemical_name_systematic        
"6-hydroxy-2-naphthoic acid 5,5'-dimethyl-2,2'-bipyridine monohydrate"
_symmetry_cell_setting           triclinic
_symmetry_space_group_name_H-M   'P -1'
_symmetry_Int_Tables_number      2
_space_group_name_Hall           '-P 1'
loop_
_symmetry_equiv_pos_site_id
_symmetry_equiv_pos_as_xyz
1 x,y,z
2 -x,-y,-z
_cell_length_a                   8.7975(7)
_cell_length_b                   11.3254(8)
_cell_length_c                   11.7777(9)
_cell_angle_alpha                64.941(7)
_cell_angle_beta                 68.658(7)
_cell_angle_gamma                79.052(6)
_cell_volume                     989.23
_exptl_crystal_colour            yellow
_exptl_crystal_description       plate
_cell_formula_units_Z            2
loop_
_atom_site_label
_atom_site_type_symbol
_atom_site_fract_x
_atom_site_fract_y
_atom_site_fract_z
C1 C 0.22635(19) 0.18115(16) 0.09723(16)
O1 O -0.40459(14) 0.35988(13) -0.09262(13)
H1 H -0.3990 0.3085 -0.1265
O2 O 0.46586(15) 0.06777(13) 0.14441(14)
C2 C -0.02580(19) 0.29515(15) 0.06197(16)
C3 C -0.02477(19) 0.22401(16) -0.01297(16)
O3 O 0.35156(15) 0.22421(12) 0.22042(13)
H2 H 0.4262 0.2017 0.2523
C4 C -0.1530(2) 0.24598(17) -0.06529(17)
H3 H -0.1531 0.1991 -0.1138
C5 C -0.27718(19) 0.33516(17) -0.04568(17)
C6 C 0.3599(2) 0.15237(17) 0.15512(17)
C7 C 0.10130(19) 0.27068(16) 0.11624(17)
H4 H 0.1002 0.3164 0.1661
C8 C 0.1070(2) 0.13270(18) -0.03147(18)
H5 H 0.1107 0.0859 -0.0810
C9 C -0.1552(2) 0.38816(17) 0.07761(18)
H6 H -0.1571 0.4367 0.1251
C10 C 0.2277(2) 0.11224(17) 0.02153(18)
H7 H 0.3126 0.0518 0.0077
C11 C -0.2764(2) 0.40856(17) 0.02547(18)
H8 H -0.3593 0.4711 0.0366
N1 N 0.58085(17) 0.15567(14) 0.34718(14)
C12 C 0.4670(2) 0.28958(17) 0.47637(18)
N2 N 0.43834(19) 0.29165(16) 0.59611(16)
C13 C 0.5829(2) 0.18546(17) 0.44551(17)
C14 C 0.7964(2) -0.00788(18) 0.38511(18)
C15 C 0.6886(2) 0.1185(2) 0.51764(19)
H9 H 0.6887 0.1393 0.5860
C16 C 0.7929(2) 0.0217(2) 0.48792(18)
H10 H 0.8619 -0.0244 0.5377
C17 C 0.6857(2) 0.06241(18) 0.31914(18)
H11 H 0.6843 0.0432 0.2502
C18 C 0.2810(2) 0.47200(19) 0.4267(2)
H12 H 0.2307 0.5342 0.3678
C19 C 0.3916(2) 0.38084(18) 0.38867(19)
H13 H 0.4150 0.3809 0.3050
C20 C 0.2443(2) 0.47188(19) 0.5511(2)
C21 C 0.9118(2) -0.1102(2) 0.3476(2)
H14 H 1.0071 -0.0699 0.2766
H15 H 0.8594 -0.1550 0.3196
H16 H 0.9433 -0.1713 0.4225
C22 C 0.3299(2) 0.3799(2) 0.6298(2)
H17 H 0.3101 0.3797 0.7131
C23 C 0.1209(3) 0.5652(2) 0.6002(3)
H18 H 0.1734 0.6161 0.6217
H19 H 0.0363 0.5170 0.6776
H20 H 0.0740 0.6220 0.5326
O4 O 0.39394(18) -0.20076(14) 0.21331(15)
H21 H 0.4443 -0.2305 0.2699
H22 H 0.4095 -0.1197 0.1696
loop_
_geom_bond_atom_site_label_1
_geom_bond_atom_site_label_2
_geom_bond_site_symmetry_1
_geom_bond_site_symmetry_2
C1 C6 1_555 1_555
O1 H1 1_555 1_555
O2 C6 1_555 1_555
C2 C3 1_555 1_555
C3 C4 1_555 1_555
O3 H2 1_555 1_555
C4 H3 1_555 1_555
C5 O1 1_555 1_555
C6 O3 1_555 1_555
C7 C1 1_555 1_555
H4 C7 1_555 1_555
C8 C3 1_555 1_555
H5 C8 1_555 1_555
C9 C2 1_555 1_555
H6 C9 1_555 1_555
C10 C1 1_555 1_555
H7 C10 1_555 1_555
C11 C5 1_555 1_555
H8 C11 1_555 1_555
N1 C13 1_555 1_555
C12 N2 1_555 1_555
N2 C22 1_555 1_555
C13 C12 1_555 1_555
C14 C16 1_555 1_555
C15 C13 1_555 1_555
H9 C15 1_555 1_555
C16 C15 1_555 1_555
H10 C16 1_555 1_555
C17 N1 1_555 1_555
H11 C17 1_555 1_555
C18 H12 1_555 1_555
C19 C12 1_555 1_555
H13 C19 1_555 1_555
C20 C18 1_555 1_555
C21 C14 1_555 1_555
H14 C21 1_555 1_555
H15 C21 1_555 1_555
H16 C21 1_555 1_555
C22 C20 1_555 1_555
H17 C22 1_555 1_555
C23 C20 1_555 1_555
H18 C23 1_555 1_555
H19 C23 1_555 1_555
H20 C23 1_555 1_555
O4 H21 1_555 1_555
H22 O4 1_555 1_555
C2 C7 1_555 1_555
C4 C5 1_555 1_555
C8 C10 1_555 1_555
C9 C11 1_555 1_555
C14 C17 1_555 1_555
C18 C19 1_555 1_555

#END
