
#######################################################################
#
#                 Cambridge Crystallographic Data Centre
#                                CCDC 
#
#######################################################################
#
# If this CIF has been generated from an entry in the Cambridge 
# Structural Database, then it will include bibliographic, chemical, 
# crystal, experimental, refinement or atomic coordinate data resulting 
# from the CCDC's data processing and validation procedures.
#
#######################################################################

data_VAJVOT
_chemical_formula_moiety         'C30 H24 N12'
_chemical_name_systematic        
2,2',2''-(Benzene-1,3,5-triyltris(methylene-1H-1,2,3-triazole-1,4-diyl))tripyridine
_symmetry_cell_setting           triclinic
_symmetry_space_group_name_H-M   'P -1'
_symmetry_Int_Tables_number      2
_space_group_name_Hall           '-P 1'
loop_
_symmetry_equiv_pos_site_id
_symmetry_equiv_pos_as_xyz
1 x,y,z
2 -x,-y,-z
_cell_length_a                   9.110(5)
_cell_length_b                   10.485(5)
_cell_length_c                   14.400(8)
_cell_angle_alpha                74.055(7)
_cell_angle_beta                 81.433(7)
_cell_angle_gamma                86.057(5)
_cell_volume                     1307.23
_exptl_crystal_colour            colorless
_exptl_crystal_description       block
_cell_formula_units_Z            2
loop_
_atom_site_label
_atom_site_type_symbol
_atom_site_fract_x
_atom_site_fract_y
_atom_site_fract_z
N1 N 0.0455(3) 0.1910(2) 0.04889(18)
C1 C 0.0815(3) 0.0906(3) 0.1227(2)
C2 C 0.1720(3) -0.0159(3) 0.1094(2)
H1 H 0.1941 -0.0858 0.1637
C3 C 0.2295(4) -0.0190(3) 0.0161(2)
H2 H 0.2928 -0.0907 0.0050
C4 C 0.1944(4) 0.0825(3) -0.0602(2)
H3 H 0.2322 0.0827 -0.1254
C5 C 0.1028(4) 0.1852(3) -0.0407(2)
H4 H 0.0792 0.2558 -0.0943
N2 N -0.0607(2) 0.1664(2) 0.34809(16)
N3 N -0.0284(3) 0.0361(2) 0.37854(17)
N4 N 0.0222(3) -0.0043(2) 0.30057(17)
C6 C 0.0224(3) 0.1009(3) 0.2205(2)
C7 C -0.0321(3) 0.2093(3) 0.2511(2)
H5 H -0.0465 0.2969 0.2116
C8 C -0.1233(3) 0.2375(3) 0.4196(2)
H6 H -0.0935 0.1904 0.4839
H7 H -0.2330 0.2382 0.4259
N5 N 0.7093(3) 0.4747(2) 0.08647(18)
C9 C 0.6183(3) 0.5819(3) 0.0648(2)
C10 C 0.6139(3) 0.6607(3) -0.0285(2)
H8 H 0.5482 0.7360 -0.0403
C11 C 0.7052(3) 0.6297(3) -0.1047(2)
H9 H 0.7041 0.6831 -0.1697
C12 C 0.7980(3) 0.5201(3) -0.0848(2)
H10 H 0.8613 0.4949 -0.1359
C13 C 0.7976(3) 0.4473(3) 0.0101(2)
H11 H 0.8640 0.3726 0.0230
N6 N 0.3712(2) 0.5978(2) 0.28070(16)
N7 N 0.3521(3) 0.7192(2) 0.22115(18)
N8 N 0.4412(3) 0.7258(2) 0.13887(18)
C14 C 0.5172(3) 0.6083(3) 0.1471(2)
C15 C 0.4733(3) 0.5265(3) 0.2379(2)
H12 H 0.5079 0.4384 0.2646
C16 C 0.2811(3) 0.5620(3) 0.37614(19)
H13 H 0.2811 0.6352 0.4073
H14 H 0.3261 0.4821 0.4179
N9 N -0.3604(3) 0.9629(3) 0.6152(2)
C17 C -0.4514(3) 0.8624(3) 0.6124(2)
C18 C -0.5618(3) 0.8142(3) 0.68112(19)
H15 H -0.6212 0.7460 0.6762
C19 C -0.5868(3) 0.8647(4) 0.7572(3)
H16 H -0.6655 0.8302 0.8073
C20 C -0.5042(3) 0.9649(3) 0.7678(2)
H17 H -0.5253 0.9985 0.8234
C21 C -0.3908(3) 1.0139(3) 0.6950(2)
H18 H -0.3329 1.0834 0.6995
N10 N -0.3285(2) 0.7501(2) 0.39880(16)
N11 N -0.4527(2) 0.6802(2) 0.43554(18)
N12 N -0.5090(2) 0.7137(2) 0.51532(18)
C22 C -0.4208(3) 0.8055(3) 0.5289(2)
C23 C -0.3059(3) 0.8289(3) 0.4542(2)
H19 H -0.2271 0.8882 0.4438
C24 C -0.2348(3) 0.7279(3) 0.31316(19)
H20 H -0.1800 0.8094 0.2783
H21 H -0.2982 0.7093 0.2685
C25 C -0.1253(3) 0.6135(3) 0.33972(18)
C26 C -0.1707(3) 0.4832(3) 0.36414(19)
H22 H -0.2712 0.4661 0.3623
C27 C -0.0719(3) 0.3785(2) 0.39103(18)
C28 C 0.0754(3) 0.4053(3) 0.39300(18)
H23 H 0.1446 0.3337 0.4107
C29 C 0.1225(3) 0.5343(3) 0.36966(18)
C30 C 0.0212(3) 0.6378(3) 0.34307(18)
H24 H 0.0525 0.7268 0.3269
loop_
_geom_bond_atom_site_label_1
_geom_bond_atom_site_label_2
_geom_bond_site_symmetry_1
_geom_bond_site_symmetry_2
N1 C1 1_555 1_555
C1 C2 1_555 1_555
C2 H1 1_555 1_555
C3 C2 1_555 1_555
H2 C3 1_555 1_555
C4 C3 1_555 1_555
H3 C4 1_555 1_555
C5 N1 1_555 1_555
H4 C5 1_555 1_555
N2 N3 1_555 1_555
N3 N4 1_555 1_555
N4 C6 1_555 1_555
C6 C1 1_555 1_555
C7 N2 1_555 1_555
H5 C7 1_555 1_555
C8 N2 1_555 1_555
H6 C8 1_555 1_555
H7 C8 1_555 1_555
N5 C9 1_555 1_555
C9 C10 1_555 1_555
C10 H8 1_555 1_555
C11 C10 1_555 1_555
H9 C11 1_555 1_555
C12 C11 1_555 1_555
H10 C12 1_555 1_555
C13 N5 1_555 1_555
H11 C13 1_555 1_555
N6 N7 1_555 1_555
N7 N8 1_555 1_555
N8 C14 1_555 1_555
C14 C9 1_555 1_555
C15 N6 1_555 1_555
H12 C15 1_555 1_555
C16 N6 1_555 1_555
H13 C16 1_555 1_555
H14 C16 1_555 1_555
N9 C17 1_555 1_555
C17 C18 1_555 1_555
C18 H15 1_555 1_555
C19 C18 1_555 1_555
H16 C19 1_555 1_555
C20 C19 1_555 1_555
H17 C20 1_555 1_555
C21 N9 1_555 1_555
H18 C21 1_555 1_555
N10 N11 1_555 1_555
N11 N12 1_555 1_555
N12 C22 1_555 1_555
C22 C17 1_555 1_555
C23 N10 1_555 1_555
H19 C23 1_555 1_555
C24 N10 1_555 1_555
H20 C24 1_555 1_555
H21 C24 1_555 1_555
C25 C24 1_555 1_555
C26 C25 1_555 1_555
H22 C26 1_555 1_555
C27 C8 1_555 1_555
C28 C27 1_555 1_555
H23 C28 1_555 1_555
C29 C16 1_555 1_555
C30 C25 1_555 1_555
H24 C30 1_555 1_555
C4 C5 1_555 1_555
C6 C7 1_555 1_555
C12 C13 1_555 1_555
C14 C15 1_555 1_555
C20 C21 1_555 1_555
C22 C23 1_555 1_555
C26 C27 1_555 1_555
C28 C29 1_555 1_555
C29 C30 1_555 1_555

#END
