
#######################################################################
#
#                 Cambridge Crystallographic Data Centre
#                                CCDC 
#
#######################################################################
#
# If this CIF has been generated from an entry in the Cambridge 
# Structural Database, then it will include bibliographic, chemical, 
# crystal, experimental, refinement or atomic coordinate data resulting 
# from the CCDC's data processing and validation procedures.
#
#######################################################################

data_VAJWUZ
_chemical_formula_moiety         'C4 H12 N2 2+,2(C8 H5 O4 1-),2(H2 O1)'
_chemical_name_systematic        
'Piperazine-1,4-dium bis(ortho hydrogen phthalate) dihydrate'
_symmetry_cell_setting           monoclinic
_symmetry_space_group_name_H-M   'P 21/c'
_symmetry_Int_Tables_number      14
_space_group_name_Hall           '-P 2ybc'
loop_
_symmetry_equiv_pos_site_id
_symmetry_equiv_pos_as_xyz
1 x,y,z
2 x,1/2-y,1/2+z
3 -x,-y,-z
4 -x,1/2+y,1/2-z
_cell_length_a                   6.129(1)
_cell_length_b                   12.810(2)
_cell_length_c                   13.137(2)
_cell_angle_alpha                90
_cell_angle_beta                 95.87(1)
_cell_angle_gamma                90
_cell_volume                     1026.01
_exptl_crystal_colour            colorless
_exptl_crystal_description       prism
_cell_formula_units_Z            2
loop_
_atom_site_label
_atom_site_type_symbol
_atom_site_fract_x
_atom_site_fract_y
_atom_site_fract_z
O1 O 0.41951(16) 0.35572(7) 0.37596(7)
O2 O 0.35308(17) 0.30888(8) 0.53257(7)
O3 O 0.84935(17) 0.26237(9) 0.39051(9)
O4 O 0.8110(2) 0.19216(10) 0.23598(8)
H1 H 0.9212 0.2267 0.2292
C1 C 0.3949(2) 0.28784(10) 0.44334(10)
C2 C 0.4078(2) 0.17443(10) 0.41303(9)
C3 C 0.2489(2) 0.10593(11) 0.44023(11)
H2 H 0.1458 0.1288 0.4824
C4 C 0.2415(3) 0.00361(11) 0.40540(12)
H3 H 0.1328 -0.0413 0.4236
C5 C 0.3952(3) -0.03135(12) 0.34390(12)
H4 H 0.3901 -0.0999 0.3204
C6 C 0.5568(2) 0.03532(11) 0.31708(11)
H5 H 0.6608 0.0113 0.2758
C7 C 0.5650(2) 0.13816(10) 0.35137(10)
C8 C 0.7539(2) 0.20520(10) 0.32864(10)
N1 N 0.78245(17) 0.48794(8) 0.45003(8)
H6 H 0.6792 0.4486 0.4146
H7 H 0.7239 0.5510 0.4602
C9 C 0.8490(2) 0.43778(10) 0.55084(10)
H8 H 0.9013 0.3676 0.5400
H9 H 0.7228 0.4329 0.5896
C10 C 0.9733(2) 0.50023(10) 0.38929(10)
H10 H 0.9271 0.5357 0.3255
H11 H 1.0293 0.4320 0.3732
C10B C 1.0267(2) 0.49977(10) 0.61071(10)
N1B N 1.21755(17) 0.51206(8) 0.54997(8)
H6B H 1.3208 0.5514 0.5854
H7B H 1.2761 0.4490 0.5398
C9B C 1.1510(2) 0.56222(10) 0.44916(10)
H8B H 1.0987 0.6324 0.4600
H9B H 1.2772 0.5671 0.4104
H10B H 1.0729 0.4643 0.6745
H11B H 0.9707 0.5680 0.6268
O5 O 0.16399(19) 0.29107(10) 0.19326(9)
H12 H 0.249(3) 0.3038(17) 0.2454(11)
H13 H 0.230(3) 0.2672(15) 0.1472(12)
loop_
_geom_bond_atom_site_label_1
_geom_bond_atom_site_label_2
_geom_bond_site_symmetry_1
_geom_bond_site_symmetry_2
O1 C1 1_555 1_555
O2 C1 1_555 1_555
O3 C8 1_555 1_555
O4 H1 1_555 1_555
C1 C2 1_555 1_555
C2 C3 1_555 1_555
C3 H2 1_555 1_555
C4 C3 1_555 1_555
H3 C4 1_555 1_555
C5 C4 1_555 1_555
H4 C5 1_555 1_555
C6 C5 1_555 1_555
H5 C6 1_555 1_555
C7 C2 1_555 1_555
C8 O4 1_555 1_555
N1 H6 1_555 1_555
H7 N1 1_555 1_555
C9 N1 1_555 1_555
H8 C9 1_555 1_555
H9 C9 1_555 1_555
C10 N1 1_555 1_555
H10 C10 1_555 1_555
H11 C10 1_555 1_555
O5 H12 1_555 1_555
H13 O5 1_555 1_555
C10B C9 1_555 1_555
N1B C10B 1_555 1_555
H6B N1B 1_555 1_555
H7B N1B 1_555 1_555
C9B C10 1_555 1_555
H8B C9B 1_555 1_555
H9B C9B 1_555 1_555
H10B C10B 1_555 1_555
H11B C10B 1_555 1_555
C6 C7 1_555 1_555
C7 C8 1_555 1_555
N1B C9B 1_555 1_555

#END
