
#######################################################################
#
#                 Cambridge Crystallographic Data Centre
#                                CCDC 
#
#######################################################################
#
# If this CIF has been generated from an entry in the Cambridge 
# Structural Database, then it will include bibliographic, chemical, 
# crystal, experimental, refinement or atomic coordinate data resulting 
# from the CCDC's data processing and validation procedures.
#
#######################################################################

data_VAJWOV
_chemical_formula_moiety         'C22 H35 N1 O6 Si1'
_chemical_name_systematic        
'Benzyl (2R,3S,5S)-3-acetoxy-2-(((t-butyl(dimethyl)silyl)oxy)methyl)-5-(hydroxymethyl)pyrrolidine-1-carboxylate'
_symmetry_cell_setting           monoclinic
_symmetry_space_group_name_H-M   'C 2'
_symmetry_Int_Tables_number      5
_space_group_name_Hall           'C 2y'
loop_
_symmetry_equiv_pos_site_id
_symmetry_equiv_pos_as_xyz
1 x,y,z
2 -x,y,-z
3 1/2+x,1/2+y,z
4 1/2-x,1/2+y,-z
_cell_length_a                   23.812(7)
_cell_length_b                   6.6660(7)
_cell_length_c                   18.297(4)
_cell_angle_alpha                90
_cell_angle_beta                 123.79(3)
_cell_angle_gamma                90
_cell_volume                     2413.71
_chemical_melting_point          '94.9-96.8 deg.C'
_cell_formula_units_Z            4
loop_
_atom_site_label
_atom_site_type_symbol
_atom_site_fract_x
_atom_site_fract_y
_atom_site_fract_z
Si1 Si 0.65901(4) 0.49364(16) 0.59480(6)
O1 O 0.77819(16) 0.3599(5) 0.9171(2)
O2 O 0.78312(12) 0.6837(4) 0.88367(17)
O3 O 0.9331(3) -0.0047(8) 0.9254(3)
H1 H 0.9723 -0.0086 0.9682
C1 C 0.9038(2) 0.1779(6) 0.9247(3)
H2 H 0.9380 0.2820 0.9469
H3 H 0.8892 0.1681 0.9646
O4 O 0.95230(10) 0.4951(4) 0.84395(15)
O5 O 0.95963(16) 0.7926(5) 0.7947(2)
O6 O 0.73947(11) 0.5541(4) 0.64314(15)
N1 N 0.82006(13) 0.4445(4) 0.83544(17)
C2 C 0.77588(16) 0.6942(5) 0.7128(2)
H4 H 0.7464 0.7478 0.7290
H5 H 0.7906 0.8049 0.6929
C3 C 0.83695(14) 0.5977(5) 0.7926(2)
H6 H 0.8643 0.7025 0.8356
C4 C 0.88163(15) 0.4795(6) 0.7713(2)
H7 H 0.8748 0.5241 0.7158
C5 C 0.86049(19) 0.2632(6) 0.7661(3)
H8 H 0.8215 0.2325 0.7078
H9 H 0.8971 0.1734 0.7793
C6 C 0.84325(17) 0.2410(5) 0.8336(2)
C7 C 0.79261(15) 0.4853(6) 0.8819(2)
C8 C 0.75325(18) 0.7522(8) 0.9295(3)
H10 H 0.7741 0.8776 0.9592
H11 H 0.7614 0.6541 0.9736
C9 C 0.67766(17) 0.7825(6) 0.8655(2)
C10 C 0.6540(2) 0.9640(7) 0.8236(3)
H12 H 0.6843 1.0669 0.8352
C11 C 0.5857(2) 0.9948(9) 0.7644(3)
H13 H 0.5703 1.1185 0.7366
C12 C 0.5401(2) 0.8447(9) 0.7462(3)
H14 H 0.4941 0.8657 0.7056
C13 C 0.5633(2) 0.6619(9) 0.7887(3)
H15 H 0.5328 0.5601 0.7776
C14 C 0.6319(2) 0.6306(7) 0.8478(3)
H16 H 0.6474 0.5072 0.8758
C15 C 0.98505(17) 0.6603(6) 0.8477(2)
C16 C 1.05642(19) 0.6609(8) 0.9263(3)
H17 H 1.0785 0.7817 0.9266
H18 H 1.0799 0.5468 0.9238
H19 H 1.0567 0.6545 0.9789
C17 C 0.6072(3) 0.7122(11) 0.5873(5)
H20 H 0.6229 0.7580 0.6454
H21 H 0.5607 0.6726 0.5574
H22 H 0.6114 0.8186 0.5552
C18 C 0.6504(3) 0.3032(13) 0.6610(4)
H23 H 0.6642 0.3596 0.7169
H24 H 0.6783 0.1898 0.6699
H25 H 0.6040 0.2612 0.6307
C19 C 0.6329(2) 0.3927(10) 0.4854(3)
C20 C 0.6824(3) 0.2285(17) 0.4969(6)
H26 H 0.6686 0.1765 0.4403
H27 H 0.6825 0.1221 0.5324
H28 H 0.7270 0.2840 0.5253
C21 C 0.6351(4) 0.5613(17) 0.4304(4)
H29 H 0.6216 0.5099 0.3739
H30 H 0.6803 0.6133 0.4599
H31 H 0.6049 0.6666 0.4230
C22 C 0.5608(3) 0.3115(13) 0.4351(4)
H32 H 0.5490 0.2607 0.3792
H33 H 0.5303 0.4174 0.4263
H34 H 0.5579 0.2054 0.4683
O7? O 0.8859(7) 0.1111(19) 0.9783(7)
H35? H 0.8622 0.0109 0.9567
H36? H 0.9286 0.0731 0.9175
H37? H 0.9339 0.2918 0.9521
loop_
_geom_bond_atom_site_label_1
_geom_bond_atom_site_label_2
_geom_bond_site_symmetry_1
_geom_bond_site_symmetry_2
Si1 O6 1_555 1_555
O1 C7 1_555 1_555
O2 C7 1_555 1_555
O3 H1 1_555 1_555
C1 O3 1_555 1_555
H2 C1 1_555 1_555
H3 C1 1_555 1_555
O4 C4 1_555 1_555
O5 C15 1_555 1_555
O6 C2 1_555 1_555
N1 C3 1_555 1_555
C2 H4 1_555 1_555
H5 C2 1_555 1_555
C3 C2 1_555 1_555
H6 C3 1_555 1_555
C4 C3 1_555 1_555
H7 C4 1_555 1_555
C5 C4 1_555 1_555
H8 C5 1_555 1_555
H9 C5 1_555 1_555
C6 C1 1_555 1_555
C7 N1 1_555 1_555
C8 O2 1_555 1_555
H10 C8 1_555 1_555
H11 C8 1_555 1_555
C9 C8 1_555 1_555
C10 C9 1_555 1_555
H12 C10 1_555 1_555
C11 C10 1_555 1_555
H13 C11 1_555 1_555
C12 C11 1_555 1_555
H14 C12 1_555 1_555
C13 C12 1_555 1_555
H15 C13 1_555 1_555
C14 C9 1_555 1_555
H16 C14 1_555 1_555
C15 O4 1_555 1_555
C16 C15 1_555 1_555
H17 C16 1_555 1_555
H18 C16 1_555 1_555
H19 C16 1_555 1_555
C17 Si1 1_555 1_555
H20 C17 1_555 1_555
H21 C17 1_555 1_555
H22 C17 1_555 1_555
C18 Si1 1_555 1_555
H23 C18 1_555 1_555
H24 C18 1_555 1_555
H25 C18 1_555 1_555
C19 Si1 1_555 1_555
C20 C19 1_555 1_555
H26 C20 1_555 1_555
H27 C20 1_555 1_555
H28 C20 1_555 1_555
C21 C19 1_555 1_555
H29 C21 1_555 1_555
H30 C21 1_555 1_555
H31 C21 1_555 1_555
C22 C19 1_555 1_555
H32 C22 1_555 1_555
H33 C22 1_555 1_555
H34 C22 1_555 1_555
N1 C6 1_555 1_555
C5 C6 1_555 1_555
C13 C14 1_555 1_555

#END
