
#######################################################################
#
#                 Cambridge Crystallographic Data Centre
#                                CCDC 
#
#######################################################################
#
# If this CIF has been generated from an entry in the Cambridge 
# Structural Database, then it will include bibliographic, chemical, 
# crystal, experimental, refinement or atomic coordinate data resulting 
# from the CCDC's data processing and validation procedures.
#
#######################################################################

data_VAJZOW
_chemical_formula_moiety         'C27 H27 N1 O5 S1'
_chemical_name_systematic        
'Ethyl 1-benzyl-4-((4-methylphenyl)sulfonyl)-5-oxo-3-phenyl-2-pyrrolidinecarboxylate'
_symmetry_cell_setting           triclinic
_symmetry_space_group_name_H-M   'P -1'
_symmetry_Int_Tables_number      2
_space_group_name_Hall           '-P 1'
loop_
_symmetry_equiv_pos_site_id
_symmetry_equiv_pos_as_xyz
1 x,y,z
2 -x,-y,-z
_cell_length_a                   9.756(1)
_cell_length_b                   11.070(1)
_cell_length_c                   12.207(2)
_cell_angle_alpha                106.97(1)
_cell_angle_beta                 98.70(2)
_cell_angle_gamma                94.06(1)
_cell_volume                     1237.18
_exptl_crystal_colour            colorless
_exptl_crystal_description       prism
_chemical_melting_point          135-136deg.C
_cell_formula_units_Z            2
_exptl_crystal_recrystallization_method 'ethyl acetate'
loop_
_atom_site_label
_atom_site_type_symbol
_atom_site_fract_x
_atom_site_fract_y
_atom_site_fract_z
S1 S 0.23129(5) -0.07249(5) -0.07934(4)
O1 O 0.1471(2) 0.1949(2) 0.0311(1)
O2 O 0.3603(2) -0.0104(1) -0.0906(1)
O3 O 0.1052(2) -0.0707(1) -0.1565(1)
O4 O 0.5285(2) 0.0503(2) 0.3629(2)
O5 O 0.5575(2) 0.2355(2) 0.3289(2)
N1 N 0.2867(2) 0.1945(2) 0.2001(2)
C1 C 0.2074(2) 0.1394(2) 0.0936(2)
C2 C 0.2021(2) -0.0038(2) 0.0663(2)
C3 C 0.3112(2) -0.0258(2) 0.1612(2)
C4 C 0.3356(2) 0.1045(2) 0.2589(2)
C5 C 0.2913(3) 0.3311(2) 0.2600(2)
C6 C 0.2313(2) 0.3587(2) 0.3700(2)
C7 C 0.1080(2) 0.2932(2) 0.3753(2)
C8 C 0.0537(3) 0.3222(3) 0.4764(2)
C9 C 0.1212(3) 0.4176(3) 0.5728(2)
C10 C 0.2410(3) 0.4845(3) 0.5683(2)
C11 C 0.2966(2) 0.4552(2) 0.4680(2)
C12 C 0.2520(2) -0.2315(2) -0.0876(2)
C13 C 0.3815(2) -0.2740(2) -0.0913(2)
C14 C 0.3928(2) -0.4001(3) -0.1020(2)
C15 C 0.2791(3) -0.4850(2) -0.1065(2)
C16 C 0.1519(3) -0.4387(2) -0.0985(2)
C17 C 0.1365(2) -0.3131(2) -0.0897(2)
C18 C 0.2912(3) -0.6235(3) -0.1225(3)
C19 C 0.2681(2) -0.1357(2) 0.2036(2)
C20 C 0.1395(2) -0.1482(2) 0.2361(2)
C21 C 0.1023(3) -0.2475(2) 0.2773(2)
C22 C 0.1930(3) -0.3346(2) 0.2863(2)
C23 C 0.3197(3) -0.3235(2) 0.2544(2)
C24 C 0.3587(2) -0.2239(2) 0.2126(2)
C25 C 0.4863(3) 0.1406(2) 0.3204(2)
C26 C 0.6724(4) 0.0689(4) 0.4255(4)
C27 C 0.7259(4) -0.0480(5) 0.4074(4)
H1 H 0.1122 -0.0375 0.0723
H2 H 0.3954 -0.0403 0.1318
H3 H 0.2784 0.1005 0.3145
H4 H 0.3859 0.3685 0.2791
H5 H 0.2396 0.3682 0.2085
H6 H 0.0601 0.2274 0.3085
H7 H -0.0309 0.2759 0.4793
H8 H 0.0841 0.4368 0.6427
H9 H 0.2868 0.5518 0.6347
H10 H 0.3812 0.5021 0.4661
H11 H 0.4615 -0.2172 -0.0864
H12 H 0.4814 -0.4299 -0.1065
H13 H 0.0730 -0.4945 -0.0990
H14 H 0.0480 -0.2833 -0.0851
H15 H 0.2639 -0.6455 -0.0586
H16 H 0.2322 -0.6737 -0.1927
H17 H 0.3853 -0.6389 -0.1261
H18 H 0.0762 -0.0881 0.2302
H19 H 0.0137 -0.2553 0.2995
H20 H 0.1674 -0.4027 0.3147
H21 H 0.3824 -0.3841 0.2606
H22 H 0.4474 -0.2169 0.1904
H23 H 0.7283 0.1235 0.3981
H24 H 0.6742 0.1064 0.5064
H25 H 0.6701 -0.1029 0.4346
H26 H 0.7248 -0.0855 0.3266
H27 H 0.8192 -0.0348 0.4487
loop_
_geom_bond_atom_site_label_1
_geom_bond_atom_site_label_2
_geom_bond_site_symmetry_1
_geom_bond_site_symmetry_2
S1 O2 1_555 1_555
O1 C1 1_555 1_555
O3 S1 1_555 1_555
O4 C25 1_555 1_555
O5 C25 1_555 1_555
N1 C1 1_555 1_555
C1 C2 1_555 1_555
C2 S1 1_555 1_555
C3 C2 1_555 1_555
C4 N1 1_555 1_555
C5 N1 1_555 1_555
C6 C5 1_555 1_555
C7 C6 1_555 1_555
C8 C7 1_555 1_555
C9 C8 1_555 1_555
C10 C9 1_555 1_555
C11 C6 1_555 1_555
C12 S1 1_555 1_555
C13 C12 1_555 1_555
C14 C13 1_555 1_555
C15 C14 1_555 1_555
C16 C15 1_555 1_555
C17 C12 1_555 1_555
C18 C15 1_555 1_555
C19 C3 1_555 1_555
C20 C19 1_555 1_555
C21 C20 1_555 1_555
C22 C21 1_555 1_555
C23 C22 1_555 1_555
C24 C19 1_555 1_555
C25 C4 1_555 1_555
C26 O4 1_555 1_555
C27 C26 1_555 1_555
H1 C2 1_555 1_555
H2 C3 1_555 1_555
H3 C4 1_555 1_555
H4 C5 1_555 1_555
H5 C5 1_555 1_555
H6 C7 1_555 1_555
H7 C8 1_555 1_555
H8 C9 1_555 1_555
H9 C10 1_555 1_555
H10 C11 1_555 1_555
H11 C13 1_555 1_555
H12 C14 1_555 1_555
H13 C16 1_555 1_555
H14 C17 1_555 1_555
H15 C18 1_555 1_555
H16 C18 1_555 1_555
H17 C18 1_555 1_555
H18 C20 1_555 1_555
H19 C21 1_555 1_555
H20 C22 1_555 1_555
H21 C23 1_555 1_555
H22 C24 1_555 1_555
H23 C26 1_555 1_555
H24 C26 1_555 1_555
H25 C27 1_555 1_555
H26 C27 1_555 1_555
H27 C27 1_555 1_555
C3 C4 1_555 1_555
C10 C11 1_555 1_555
C16 C17 1_555 1_555
C23 C24 1_555 1_555

#END
