
#######################################################################
#
#                 Cambridge Crystallographic Data Centre
#                                CCDC 
#
#######################################################################
#
# If this CIF has been generated from an entry in the Cambridge 
# Structural Database, then it will include bibliographic, chemical, 
# crystal, experimental, refinement or atomic coordinate data resulting 
# from the CCDC's data processing and validation procedures.
#
#######################################################################

data_VAJZUC
_chemical_formula_moiety         'C29 H31 N1 O6 S1'
_chemical_name_systematic        
'Ethyl 1-benzyl-3-((benzyloxy)methyl)-4-((4-methylphenyl)sulfonyl)-5-oxo-2-pyrrolidinecarboxylate'
_symmetry_cell_setting           triclinic
_symmetry_space_group_name_H-M   'P -1'
_symmetry_Int_Tables_number      2
_space_group_name_Hall           '-P 1'
loop_
_symmetry_equiv_pos_site_id
_symmetry_equiv_pos_as_xyz
1 x,y,z
2 -x,-y,-z
_cell_length_a                   11.999(4)
_cell_length_b                   13.807(7)
_cell_length_c                   8.733(2)
_cell_angle_alpha                99.86(3)
_cell_angle_beta                 95.91(2)
_cell_angle_gamma                69.86(3)
_cell_volume                     1336.75
_exptl_crystal_colour            colorless
_exptl_crystal_description       prism
_chemical_melting_point          115-116deg.C
_cell_formula_units_Z            2
_exptl_crystal_recrystallization_method 'ethyl acetate'
loop_
_atom_site_label
_atom_site_type_symbol
_atom_site_fract_x
_atom_site_fract_y
_atom_site_fract_z
S1 S 0.33178(8) -0.00073(6) 0.11230(9)
O1 O 0.3770(2) -0.0287(2) 0.4742(3)
O2 O 0.3888(2) -0.1100(2) 0.1163(3)
O3 O 0.3394(2) 0.0411(2) -0.0237(3)
O4 O 0.4000(5) 0.3297(2) 0.2280(5)
O5 O 0.1385(3) 0.3425(2) 0.3810(4)
O6 O 0.2455(2) 0.3999(2) 0.5746(3)
N1 N 0.3229(2) 0.1494(2) 0.5152(3)
C1 C 0.3643(3) 0.0538(2) 0.4299(4)
C2 C 0.3941(3) 0.0677(2) 0.2715(4)
C3 C 0.3544(3) 0.1847(2) 0.2709(4)
C4 C 0.3371(3) 0.2324(2) 0.4438(4)
C5 C 0.3073(3) 0.1616(3) 0.6806(4)
C6 C 0.1838(3) 0.2275(3) 0.7301(4)
C7 C 0.0852(4) 0.2174(4) 0.6421(6)
C8 C -0.0271(4) 0.2771(5) 0.6969(9)
C9 C -0.0412(6) 0.3418(5) 0.829(1)
C10 C 0.0566(7) 0.3535(4) 0.9165(8)
C11 C 0.1678(4) 0.2951(3) 0.8669(5)
C12 C 0.1801(3) 0.0334(2) 0.1510(4)
C13 C 0.0962(3) 0.1128(3) 0.0842(5)
C14 C -0.0214(4) 0.1397(3) 0.1192(6)
C15 C -0.0564(4) 0.0893(3) 0.2193(5)
C16 C 0.0286(4) 0.0080(4) 0.2793(5)
C17 C 0.1481(3) -0.0221(3) 0.2461(5)
C18 C -0.1846(4) 0.1213(5) 0.2592(7)
C19 C 0.4410(4) 0.2196(3) 0.1991(5)
C20 C 0.4154(8) 0.3831(4) 0.1415(9)
C21 C 0.3914(5) 0.4974(3) 0.2124(7)
C22 C 0.3793(6) 0.5686(4) 0.1107(8)
C23 C 0.3646(6) 0.6731(4) 0.175(1)
C24 C 0.3689(5) 0.7018(4) 0.331(1)
C25 C 0.3733(5) 0.6342(4) 0.4228(8)
C26 C 0.3841(5) 0.5316(4) 0.3672(7)
C27 C 0.2279(3) 0.3302(3) 0.4599(4)
C28 C 0.1435(5) 0.4957(3) 0.6055(7)
C29 C 0.1791(8) 0.5650(5) 0.7331(9)
H1 H 0.4781 0.0410 0.2655
H2 H 0.2798 0.2058 0.2151
H3 H 0.4057 0.2482 0.4881
H4 H 0.3247 0.0944 0.7090
H5 H 0.3618 0.1933 0.7345
H6 H 0.0933 0.1711 0.5468
H7 H -0.0957 0.2710 0.6371
H8 H -0.1187 0.3802 0.8641
H9 H 0.0471 0.4014 1.0101
H10 H 0.2354 0.3018 0.9288
H11 H 0.1187 0.1484 0.0153
H12 H -0.0797 0.1944 0.0733
H13 H 0.0055 -0.0290 0.3454
H14 H 0.2059 -0.0792 0.2876
H15 H -0.1907 0.1410 0.3687
H16 H -0.2307 0.1787 0.2081
H17 H -0.2130 0.0645 0.2266
H18 H 0.4425 0.1963 0.0902
H19 H 0.5183 0.1927 0.2455
H20 H 0.4954 0.3544 0.1120
H21 H 0.3636 0.3810 0.0520
H22 H 0.3806 0.5475 0.0012
H23 H 0.3517 0.7237 0.1082
H24 H 0.3687 0.7699 0.3732
H25 H 0.3688 0.6569 0.5316
H26 H 0.3865 0.4853 0.4372
H27 H 0.1209 0.5288 0.5150
H28 H 0.0786 0.4795 0.6347
H29 H 0.2015 0.5315 0.8234
H30 H 0.2443 0.5806 0.7037
H31 H 0.1142 0.6278 0.7549
loop_
_geom_bond_atom_site_label_1
_geom_bond_atom_site_label_2
_geom_bond_site_symmetry_1
_geom_bond_site_symmetry_2
S1 O2 1_555 1_555
O1 C1 1_555 1_555
O3 S1 1_555 1_555
O4 C19 1_555 1_555
O5 C27 1_555 1_555
O6 C27 1_555 1_555
N1 C1 1_555 1_555
C1 C2 1_555 1_555
C2 S1 1_555 1_555
C3 C2 1_555 1_555
C4 N1 1_555 1_555
C5 N1 1_555 1_555
C6 C5 1_555 1_555
C7 C6 1_555 1_555
C8 C7 1_555 1_555
C9 C8 1_555 1_555
C10 C9 1_555 1_555
C11 C6 1_555 1_555
C12 S1 1_555 1_555
C13 C12 1_555 1_555
C14 C13 1_555 1_555
C15 C14 1_555 1_555
C16 C15 1_555 1_555
C17 C12 1_555 1_555
C18 C15 1_555 1_555
C19 C3 1_555 1_555
C20 O4 1_555 1_555
C21 C20 1_555 1_555
C22 C21 1_555 1_555
C23 C22 1_555 1_555
C24 C23 1_555 1_555
C25 C24 1_555 1_555
C26 C21 1_555 1_555
C27 C4 1_555 1_555
C28 O6 1_555 1_555
C29 C28 1_555 1_555
H1 C2 1_555 1_555
H2 C3 1_555 1_555
H3 C4 1_555 1_555
H4 C5 1_555 1_555
H5 C5 1_555 1_555
H6 C7 1_555 1_555
H7 C8 1_555 1_555
H8 C9 1_555 1_555
H9 C10 1_555 1_555
H10 C11 1_555 1_555
H11 C13 1_555 1_555
H12 C14 1_555 1_555
H13 C16 1_555 1_555
H14 C17 1_555 1_555
H15 C18 1_555 1_555
H16 C18 1_555 1_555
H17 C18 1_555 1_555
H18 C19 1_555 1_555
H19 C19 1_555 1_555
H20 C20 1_555 1_555
H21 C20 1_555 1_555
H22 C22 1_555 1_555
H23 C23 1_555 1_555
H24 C24 1_555 1_555
H25 C25 1_555 1_555
H26 C26 1_555 1_555
H27 C28 1_555 1_555
H28 C28 1_555 1_555
H29 C29 1_555 1_555
H30 C29 1_555 1_555
H31 C29 1_555 1_555
C3 C4 1_555 1_555
C10 C11 1_555 1_555
C16 C17 1_555 1_555
C25 C26 1_555 1_555

#END
