
#######################################################################
#
#                 Cambridge Crystallographic Data Centre
#                                CCDC 
#
#######################################################################
#
# If this CIF has been generated from an entry in the Cambridge 
# Structural Database, then it will include bibliographic, chemical, 
# crystal, experimental, refinement or atomic coordinate data resulting 
# from the CCDC's data processing and validation procedures.
#
#######################################################################

data_VAJZEM
_chemical_formula_moiety         'C22 H25 N1 O5 S1'
_chemical_name_systematic        
'Ethyl 1-benzyl-3-methyl-4-((4-methylphenyl)sulfonyl)-5-oxo-2-pyrrolidinecarboxylate'
_symmetry_cell_setting           monoclinic
_symmetry_space_group_name_H-M   'C c'
_symmetry_Int_Tables_number      9
_space_group_name_Hall           'C -2yc'
loop_
_symmetry_equiv_pos_site_id
_symmetry_equiv_pos_as_xyz
1 x,y,z
2 1/2+x,1/2+y,z
3 x,-y,1/2+z
4 1/2+x,1/2-y,1/2+z
_cell_length_a                   21.192(3)
_cell_length_b                   10.971(3)
_cell_length_c                   10.128(3)
_cell_angle_alpha                90
_cell_angle_beta                 112.54(2)
_cell_angle_gamma                90
_cell_volume                     2174.86
_exptl_crystal_colour            colorless
_exptl_crystal_description       prism
_chemical_melting_point          140-141deg.C
_cell_formula_units_Z            4
_exptl_crystal_recrystallization_method 'ethyl acetate'
loop_
_atom_site_label
_atom_site_type_symbol
_atom_site_fract_x
_atom_site_fract_y
_atom_site_fract_z
S1 S 0.4986(4) -0.07580(8) 0.744(1)
O1 O 0.3814(4) -0.1285(2) 0.440(1)
O2 O 0.4495(5) -0.1197(2) 0.798(1)
O3 O 0.5573(4) -0.0112(3) 0.839(1)
O4 O 0.3412(5) 0.3428(2) 0.647(1)
O5 O 0.2741(4) 0.1801(2) 0.618(1)
N1 N 0.3414(4) 0.0591(2) 0.469(1)
C1 C 0.3896(4) -0.0270(3) 0.493(1)
C2 C 0.4562(4) 0.0253(3) 0.598(1)
C3 C 0.4383(5) 0.1453(3) 0.652(1)
C4 C 0.3666(5) 0.1755(3) 0.537(1)
C5 C 0.2715(5) 0.0422(3) 0.363(1)
C6 C 0.2476(4) 0.1446(3) 0.257(1)
C7 C 0.2738(5) 0.1574(3) 0.153(1)
C8 C 0.2482(5) 0.2442(4) 0.047(1)
C9 C 0.1975(5) 0.3200(4) 0.046(1)
C10 C 0.1708(5) 0.3106(4) 0.149(1)
C11 C 0.1960(5) 0.2225(4) 0.255(1)
C12 C 0.5274(5) -0.1987(3) 0.670(1)
C13 C 0.5854(5) -0.1868(4) 0.642(1)
C14 C 0.6070(5) -0.2821(4) 0.582(1)
C15 C 0.5727(5) -0.3909(4) 0.553(1)
C16 C 0.5159(5) -0.4006(3) 0.586(1)
C17 C 0.4922(5) -0.3062(3) 0.642(1)
C18 C 0.5969(5) -0.4935(5) 0.483(1)
C19 C 0.4900(5) 0.2465(4) 0.671(1)
C20 C 0.3206(5) 0.2290(3) 0.605(1)
C21 C 0.3069(6) 0.4034(5) 0.729(1)
C22 C 0.3436(6) 0.5032(7) 0.799(1)
H1 H 0.4850 0.0416 0.5488
H2 H 0.4336 0.1311 0.7407
H3 H 0.3705 0.2309 0.4693
H4 H 0.2694 -0.0316 0.3127
H5 H 0.2410 0.0365 0.4124
H6 H 0.3096 0.1060 0.1543
H7 H 0.2656 0.2508 -0.0256
H8 H 0.1798 0.3801 -0.0264
H9 H 0.1348 0.3639 0.1477
H10 H 0.1771 0.2158 0.3264
H11 H 0.6101 -0.1128 0.6632
H12 H 0.6459 -0.2724 0.5595
H13 H 0.4916 -0.4760 0.5683
H14 H 0.4514 -0.3153 0.6611
H15 H 0.5671 -0.5620 0.4701
H16 H 0.5953 -0.4672 0.3930
H17 H 0.6417 -0.5157 0.5428
H18 H 0.5328 0.2215 0.7380
H19 H 0.4927 0.2634 0.5818
H20 H 0.4751 0.3178 0.7050
H21 H 0.2622 0.4289 0.6662
H22 H 0.3022 0.3478 0.7971
H23 H 0.3872 0.4780 0.8629
H24 H 0.3476 0.5589 0.7315
H25 H 0.3200 0.5419 0.8517
loop_
_geom_bond_atom_site_label_1
_geom_bond_atom_site_label_2
_geom_bond_site_symmetry_1
_geom_bond_site_symmetry_2
S1 O2 1_555 1_555
O1 C1 1_555 1_555
O3 S1 1_555 1_555
O4 C20 1_555 1_555
O5 C20 1_555 1_555
N1 C1 1_555 1_555
C1 C2 1_555 1_555
C2 S1 1_555 1_555
C3 C2 1_555 1_555
C4 N1 1_555 1_555
C5 N1 1_555 1_555
C6 C5 1_555 1_555
C7 C6 1_555 1_555
C8 C7 1_555 1_555
C9 C8 1_555 1_555
C10 C9 1_555 1_555
C11 C6 1_555 1_555
C12 S1 1_555 1_555
C13 C12 1_555 1_555
C14 C13 1_555 1_555
C15 C14 1_555 1_555
C16 C15 1_555 1_555
C17 C12 1_555 1_555
C18 C15 1_555 1_555
C19 C3 1_555 1_555
C20 C4 1_555 1_555
C21 O4 1_555 1_555
C22 C21 1_555 1_555
H1 C2 1_555 1_555
H2 C3 1_555 1_555
H3 C4 1_555 1_555
H4 C5 1_555 1_555
H5 C5 1_555 1_555
H6 C7 1_555 1_555
H7 C8 1_555 1_555
H8 C9 1_555 1_555
H9 C10 1_555 1_555
H10 C11 1_555 1_555
H11 C13 1_555 1_555
H12 C14 1_555 1_555
H13 C16 1_555 1_555
H14 C17 1_555 1_555
H15 C18 1_555 1_555
H16 C18 1_555 1_555
H17 C18 1_555 1_555
H18 C19 1_555 1_555
H19 C19 1_555 1_555
H20 C19 1_555 1_555
H21 C21 1_555 1_555
H22 C21 1_555 1_555
H23 C22 1_555 1_555
H24 C22 1_555 1_555
H25 C22 1_555 1_555
C3 C4 1_555 1_555
C10 C11 1_555 1_555
C16 C17 1_555 1_555

#END
