
#######################################################################
#
#                 Cambridge Crystallographic Data Centre
#                                CCDC 
#
#######################################################################
#
# If this CIF has been generated from an entry in the Cambridge 
# Structural Database, then it will include bibliographic, chemical, 
# crystal, experimental, refinement or atomic coordinate data resulting 
# from the CCDC's data processing and validation procedures.
#
#######################################################################

data_VAJZAI
_chemical_formula_moiety         'C24 H29 N1 O7 S1'
_chemical_name_systematic        
'Ethyl 1-benzyl-3-(dimethoxymethyl)-4-((4-methylphenyl)sulfonyl)-5-oxo-2-pyrrolidinecarboxylate'
_symmetry_cell_setting           monoclinic
_symmetry_space_group_name_H-M   'C 2/c'
_symmetry_Int_Tables_number      15
_space_group_name_Hall           '-C 2yn'
loop_
_symmetry_equiv_pos_site_id
_symmetry_equiv_pos_as_xyz
1 x,y,z
2 1/2+x,1/2+y,z
3 x,-y,1/2+z
4 1/2+x,1/2-y,1/2+z
5 -x,-y,-z
6 1/2-x,1/2-y,-z
7 -x,y,1/2-z
8 1/2-x,1/2+y,1/2-z
_cell_length_a                   18.073(6)
_cell_length_b                   8.335(3)
_cell_length_c                   33.036(4)
_cell_angle_alpha                90
_cell_angle_beta                 103.84(2)
_cell_angle_gamma                90
_cell_volume                     4832.01
_exptl_crystal_colour            colorless
_exptl_crystal_description       prism
_chemical_melting_point          103-104deg.C
_cell_formula_units_Z            8
_exptl_crystal_recrystallization_method 'ethyl acetate'
loop_
_atom_site_label
_atom_site_type_symbol
_atom_site_fract_x
_atom_site_fract_y
_atom_site_fract_z
S1 S 0.43855(3) 0.43076(7) 0.55626(2)
O1 O 0.6094(1) 0.2681(2) 0.58192(5)
O2 O 0.44158(9) 0.3546(2) 0.51758(5)
O3 O 0.4130(1) 0.3402(2) 0.58727(5)
O4 O 0.64502(9) 0.7445(2) 0.61007(5)
O5 O 0.5703(1) 0.8923(2) 0.64199(5)
O6 O 0.4723(1) 0.6056(2) 0.68927(6)
O7 O 0.5032(1) 0.3457(2) 0.69025(6)
N1 N 0.6062(1) 0.4035(2) 0.64178(6)
C1 C 0.5862(1) 0.3761(3) 0.60033(7)
C2 C 0.5316(1) 0.5091(3) 0.58031(6)
C3 C 0.5298(1) 0.6280(3) 0.61540(7)
C4 C 0.5680(1) 0.5375(3) 0.65589(7)
C5 C 0.6614(1) 0.3043(3) 0.67059(8)
C6 C 0.7328(1) 0.3941(3) 0.69183(8)
C7 C 0.7702(2) 0.4936(4) 0.67000(9)
C8 C 0.8384(2) 0.5665(4) 0.6892(1)
C9 C 0.8689(2) 0.5396(4) 0.7311(1)
C10 C 0.8323(2) 0.4438(4) 0.7532(1)
C11 C 0.7642(2) 0.3697(3) 0.73389(8)
C12 C 0.3844(1) 0.6079(3) 0.54624(7)
C13 C 0.4009(1) 0.7222(3) 0.51960(7)
C14 C 0.3636(2) 0.8676(3) 0.51587(8)
C15 C 0.3089(1) 0.8996(3) 0.53768(8)
C16 C 0.2910(1) 0.7809(4) 0.56254(9)
C17 C 0.3286(1) 0.6367(3) 0.56755(8)
C18 C 0.2699(2) 1.0608(4) 0.5343(1)
C19 C 0.5702(1) 0.7826(3) 0.60988(7)
C20 C 0.6851(2) 0.8694(4) 0.5955(1)
C21 C 0.5028(2) 0.9852(4) 0.6361(1)
C22 C 0.5109(1) 0.4814(3) 0.68023(7)
C23 C 0.4126(2) 0.5719(4) 0.71115(9)
C24 C 0.3406(2) 0.5397(5) 0.6809(1)
H1 H 0.5516 0.5615 0.5597
H2 H 0.4783 0.6509 0.6155
H3 H 0.6047 0.6052 0.6731
H4 H 0.6379 0.2643 0.6914
H5 H 0.6754 0.2171 0.6555
H6 H 0.7489 0.5125 0.6412
H7 H 0.8639 0.6341 0.6738
H8 H 0.9158 0.5885 0.7446
H9 H 0.8534 0.4272 0.7821
H10 H 0.7391 0.3022 0.7495
H11 H 0.4376 0.7010 0.5040
H12 H 0.3758 0.9474 0.4980
H13 H 0.2516 0.7991 0.5766
H14 H 0.3165 0.5572 0.5855
H15 H 0.2796 1.1096 0.5610
H16 H 0.2891 1.1274 0.5158
H17 H 0.2166 1.0469 0.5239
H18 H 0.5461 0.8298 0.5839
H19 H 0.7356 0.8352 0.5965
H20 H 0.6599 0.8956 0.5676
H21 H 0.6866 0.9613 0.6127
H22 H 0.5069 1.0569 0.6589
H23 H 0.4959 1.0448 0.6110
H24 H 0.4604 0.9161 0.6345
H25 H 0.4266 0.4809 0.7286
H26 H 0.4066 0.6621 0.7277
H27 H 0.3266 0.6305 0.6633
H28 H 0.3464 0.4492 0.6645
H29 H 0.3019 0.5186 0.6952
loop_
_geom_bond_atom_site_label_1
_geom_bond_atom_site_label_2
_geom_bond_site_symmetry_1
_geom_bond_site_symmetry_2
S1 O2 1_555 1_555
O1 C1 1_555 1_555
O3 S1 1_555 1_555
O4 C19 1_555 1_555
O5 C19 1_555 1_555
O6 C22 1_555 1_555
O7 C22 1_555 1_555
N1 C1 1_555 1_555
C1 C2 1_555 1_555
C2 S1 1_555 1_555
C3 C2 1_555 1_555
C4 N1 1_555 1_555
C5 N1 1_555 1_555
C6 C5 1_555 1_555
C7 C6 1_555 1_555
C8 C7 1_555 1_555
C9 C8 1_555 1_555
C10 C9 1_555 1_555
C11 C6 1_555 1_555
C12 S1 1_555 1_555
C13 C12 1_555 1_555
C14 C13 1_555 1_555
C15 C14 1_555 1_555
C16 C15 1_555 1_555
C17 C12 1_555 1_555
C18 C15 1_555 1_555
C19 C3 1_555 1_555
C20 O4 1_555 1_555
C21 O5 1_555 1_555
C22 C4 1_555 1_555
C23 O6 1_555 1_555
C24 C23 1_555 1_555
H1 C2 1_555 1_555
H2 C3 1_555 1_555
H3 C4 1_555 1_555
H4 C5 1_555 1_555
H5 C5 1_555 1_555
H6 C7 1_555 1_555
H7 C8 1_555 1_555
H8 C9 1_555 1_555
H9 C10 1_555 1_555
H10 C11 1_555 1_555
H11 C13 1_555 1_555
H12 C14 1_555 1_555
H13 C16 1_555 1_555
H14 C17 1_555 1_555
H15 C18 1_555 1_555
H16 C18 1_555 1_555
H17 C18 1_555 1_555
H18 C19 1_555 1_555
H19 C20 1_555 1_555
H20 C20 1_555 1_555
H21 C20 1_555 1_555
H22 C21 1_555 1_555
H23 C21 1_555 1_555
H24 C21 1_555 1_555
H25 C23 1_555 1_555
H26 C23 1_555 1_555
H27 C24 1_555 1_555
H28 C24 1_555 1_555
H29 C24 1_555 1_555
C3 C4 1_555 1_555
C10 C11 1_555 1_555
C16 C17 1_555 1_555

#END
