
#######################################################################
#
#                 Cambridge Crystallographic Data Centre
#                                CCDC 
#
#######################################################################
#
# If this CIF has been generated from an entry in the Cambridge 
# Structural Database, then it will include bibliographic, chemical, 
# crystal, experimental, refinement or atomic coordinate data resulting 
# from the CCDC's data processing and validation procedures.
#
#######################################################################

data_VAKCAO
_chemical_formula_moiety         'C10 H16 N4 2+,2(C11 H7 O3 1-)'
_chemical_name_systematic        
"1,1'-butane-1,4-diylbis-1H-imidazol-3-ium bis(6-hydroxy-2-naphthoate)"
_symmetry_cell_setting           monoclinic
_symmetry_space_group_name_H-M   'C 2/c'
_symmetry_Int_Tables_number      15
_space_group_name_Hall           '-C 2yn'
loop_
_symmetry_equiv_pos_site_id
_symmetry_equiv_pos_as_xyz
1 x,y,z
2 -x,y,1/2-z
3 1/2+x,1/2+y,z
4 1/2-x,1/2+y,1/2-z
5 -x,-y,-z
6 x,-y,1/2+z
7 1/2-x,1/2-y,-z
8 1/2+x,1/2-y,1/2+z
_cell_length_a                   20.1913(8)
_cell_length_b                   11.7908(4)
_cell_length_c                   13.0697(5)
_cell_angle_alpha                90
_cell_angle_beta                 116.500(4)
_cell_angle_gamma                90
_cell_volume                     2784.61
_exptl_crystal_colour            colorless
_exptl_crystal_description       block
_cell_formula_units_Z            4
loop_
_atom_site_label
_atom_site_type_symbol
_atom_site_fract_x
_atom_site_fract_y
_atom_site_fract_z
C1 C 0.33617(8) 0.92095(13) 0.17125(12)
C2 C 0.22484(8) 0.92943(13) 0.19820(13)
C3 C 0.25616(8) 1.01727(13) 0.28023(12)
C4 C 0.26636(8) 0.88269(14) 0.14568(12)
H1 H 0.2459 0.8247 0.0925
C5 C 0.21478(9) 1.06322(15) 0.33322(13)
H2 H 0.2352 1.1203 0.3874
O1 O 0.10208(7) 1.06734(12) 0.35350(12)
H3 H 0.1192 1.1281 0.3846
O2 O 0.35971(7) 0.77685(10) 0.06448(10)
C6 C 0.37865(9) 0.87062(15) 0.11330(13)
C7 C 0.36678(9) 1.00905(14) 0.25237(13)
H4 H 0.4139 1.0359 0.2697
C8 C 0.32863(9) 1.05534(14) 0.30569(13)
H5 H 0.3503 1.1125 0.3594
C9 C 0.11337(9) 0.93825(15) 0.22389(14)
H6 H 0.0658 0.9128 0.2053
O3 O 0.43208(6) 0.92845(11) 0.11492(11)
C10 C 0.15218(9) 0.89188(14) 0.17190(14)
H7 H 0.1308 0.8346 0.1182
C11 C 0.14504(9) 1.02477(15) 0.30582(14)
N1 N 0.09386(7) 1.25981(12) -0.00640(12)
N2 N 0.01439(7) 1.30268(14) 0.05515(12)
H8 H -0.0154 1.3412 0.0723
C12 C 0.22347(9) 1.24025(17) 0.02576(14)
H9 H 0.2243 1.1607 0.0452
H10 H 0.2397 1.2840 0.0957
C13 C 0.05450(9) 1.34250(16) 0.00768(15)
H11 H 0.0552 1.4178 -0.0131
C14 C 0.14637(10) 1.27353(18) -0.05437(16)
H12 H 0.1462 1.3522 -0.0760
H13 H 0.1300 1.2280 -0.1232
C15 C 0.07760(10) 1.16295(17) 0.03470(19)
H14 H 0.0973 1.0913 0.0361
C16 C 0.02811(10) 1.19006(18) 0.07258(18)
H15 H 0.0069 1.1406 0.1050
N1F N 0.40614(7) 1.24019(12) 0.00640(12)
N2F N 0.48561(7) 1.19732(14) -0.05515(12)
H8F H 0.5154 1.1588 -0.0723
C12F C 0.27653(9) 1.25975(17) -0.02576(14)
H9F H 0.2757 1.3393 -0.0452
H10F H 0.2603 1.2160 -0.0957
C13F C 0.44550(9) 1.15750(16) -0.00768(15)
H11F H 0.4448 1.0822 0.0131
C14F C 0.35363(10) 1.22647(18) 0.05437(16)
H12F H 0.3538 1.1478 0.0760
H13F H 0.3700 1.2720 0.1232
C15F C 0.42240(10) 1.33705(17) -0.03470(19)
H14F H 0.4027 1.4087 -0.0361
C16F C 0.47189(10) 1.30994(18) -0.07258(18)
H15F H 0.4931 1.3594 -0.1050
loop_
_geom_bond_atom_site_label_1
_geom_bond_atom_site_label_2
_geom_bond_site_symmetry_1
_geom_bond_site_symmetry_2
C1 C4 1_555 1_555
C2 C3 1_555 1_555
C3 C5 1_555 1_555
C4 C2 1_555 1_555
H1 C4 1_555 1_555
C5 H2 1_555 1_555
O1 H3 1_555 1_555
O2 C6 1_555 1_555
C6 C1 1_555 1_555
C7 C1 1_555 1_555
H4 C7 1_555 1_555
C8 C3 1_555 1_555
H5 C8 1_555 1_555
C9 H6 1_555 1_555
O3 C6 1_555 1_555
C10 C2 1_555 1_555
H7 C10 1_555 1_555
C11 C5 1_555 1_555
N1 C13 1_555 1_555
N2 H8 1_555 1_555
C12 H9 1_555 1_555
H10 C12 1_555 1_555
C13 N2 1_555 1_555
H11 C13 1_555 1_555
C14 N1 1_555 1_555
H12 C14 1_555 1_555
H13 C14 1_555 1_555
C15 N1 1_555 1_555
H14 C15 1_555 1_555
C16 N2 1_555 1_555
H15 C16 1_555 1_555
N1F C13F 1_555 1_555
N2F H8F 1_555 1_555
C12F C12 1_555 1_555
H9F C12F 1_555 1_555
H10F C12F 1_555 1_555
C13F N2F 1_555 1_555
H11F C13F 1_555 1_555
C14F N1F 1_555 1_555
H12F C14F 1_555 1_555
H13F C14F 1_555 1_555
C15F N1F 1_555 1_555
H14F C15F 1_555 1_555
C16F N2F 1_555 1_555
H15F C16F 1_555 1_555
O1 C11 1_555 1_555
C7 C8 1_555 1_555
C9 C10 1_555 1_555
C9 C11 1_555 1_555
C12 C14 1_555 1_555
C15 C16 1_555 1_555
C12F C14F 1_555 1_555
C15F C16F 1_555 1_555

#END
