
#######################################################################
#
#                 Cambridge Crystallographic Data Centre
#                                CCDC 
#
#######################################################################
#
# If this CIF has been generated from an entry in the Cambridge 
# Structural Database, then it will include bibliographic, chemical, 
# crystal, experimental, refinement or atomic coordinate data resulting 
# from the CCDC's data processing and validation procedures.
#
#######################################################################

data_VAKCES
_chemical_formula_moiety         'C14 H16 N4 2+,2(C11 H7 O3 1-)'
_chemical_name_systematic        
'1-(4-(1H-imidazol-3-ium-1-ylmethyl)benzyl)-1H-imidazol-3-ium bis(6-hydroxy-2-naphthoate)'
_symmetry_cell_setting           triclinic
_symmetry_space_group_name_H-M   'P -1'
_symmetry_Int_Tables_number      2
_space_group_name_Hall           '-P 1'
loop_
_symmetry_equiv_pos_site_id
_symmetry_equiv_pos_as_xyz
1 x,y,z
2 -x,-y,-z
_cell_length_a                   9.788(6)
_cell_length_b                   9.782(6)
_cell_length_c                   10.532(9)
_cell_angle_alpha                99.328(4)
_cell_angle_beta                 115.108(4)
_cell_angle_gamma                111.65
_cell_volume                     785.525
_exptl_crystal_colour            colorless
_exptl_crystal_description       block
_cell_formula_units_Z            1
loop_
_atom_site_label
_atom_site_type_symbol
_atom_site_fract_x
_atom_site_fract_y
_atom_site_fract_z
O1 O 0.9684(2) 0.7727(2) 0.0172(2)
H1 H 0.9752 0.7081 0.0569
C1 C 0.6002(3) 0.7348(3) -0.3237(2)
C2 C 0.5598(3) 0.8204(3) -0.4205(3)
H2 H 0.6468 0.9178 -0.4009
C3 C 0.4665(3) 0.5826(3) -0.3565(2)
C4 C 0.2589(3) 0.6104(3) -0.5724(3)
C5 C 0.2958(3) 0.5243(3) -0.4827(3)
H3 H 0.2075 0.4262 -0.5052
C6 C 0.7699(3) 0.7957(3) -0.1953(3)
H4 H 0.8580 0.8950 -0.1706
C7 C 0.3941(3) 0.7600(3) -0.5416(3)
H5 H 0.3700 0.8163 -0.6034
C8 C 0.8039(3) 0.7069(3) -0.1073(3)
C9 C 0.0802(3) 0.5471(3) -0.7074(3)
C10 C 0.5076(3) 0.4942(3) -0.2634(3)
H6 H 0.4216 0.3948 -0.2855
C11 C 0.6730(3) 0.5551(3) -0.1417(3)
H7 H 0.6987 0.4968 -0.0825
O2 O -0.0387(3) 0.4159(3) -0.7197(2)
O3 O 0.0499(3) 0.6146(3) -0.7970(2)
N1 N 0.6194(2) 0.9105(2) 0.1303(2)
N2 N 0.3415(3) 0.7465(3) -0.0305(3)
H8 H 0.2452 0.6722 -0.1092
C12 C 0.9085(3) 0.9985(3) 0.3524(3)
C13 C 0.9618(3) 1.1223(3) 0.4800(3)
H9 H 0.9373 1.2041 0.4679
C14 C 0.4972(3) 0.7905(3) -0.0052(3)
H10 H 0.5207 0.7447 -0.0723
C15 C 0.9475(3) 0.8758(3) 0.3731(3)
C16 C 0.8079(3) 0.9959(3) 0.1930(3)
H11 H 0.8437 1.1039 0.1972
H12 H 0.8342 0.9440 0.1270
C17 C 0.3637(3) 0.8432(4) 0.0941(3)
H13 H 0.2748 0.8399 0.1076
C18 C 0.5339(4) 0.9443(4) 0.1944(3)
H14 H 0.5833 1.0214 0.2883
N1A N 1.3806(2) 1.0895(2) 0.8697(2)
N2A N 1.6585(3) 1.2535(3) 1.0305(3)
H8A H 1.7548 1.3278 1.1092
C12A C 1.0915(3) 1.0015(3) 0.6476(3)
C13A C 1.0382(3) 0.8777(3) 0.5200(3)
H9A H 1.0627 0.7959 0.5321
C14A C 1.5028(3) 1.2095(3) 1.0052(3)
H10A H 1.4793 1.2553 1.0723
C15A C 1.0525(3) 1.1242(3) 0.6269(3)
C16A C 1.1921(3) 1.0041(3) 0.8070(3)
H11A H 1.1563 0.8961 0.8028
H12A H 1.1658 1.0560 0.8730
C17A C 1.6363(3) 1.1568(4) 0.9059(3)
H13A H 1.7252 1.1601 0.8924
C18A C 1.4661(4) 1.0557(4) 0.8056(3)
H14A H 1.4167 0.9786 0.7117
H15? H 1.0136 0.8719 0.3266
H16? H 0.8388 0.7767 0.3154
loop_
_geom_bond_atom_site_label_1
_geom_bond_atom_site_label_2
_geom_bond_site_symmetry_1
_geom_bond_site_symmetry_2
O1 H1 1_555 1_555
C1 C2 1_555 1_555
C2 H2 1_555 1_555
C3 C1 1_555 1_555
C4 C5 1_555 1_555
C5 C3 1_555 1_555
H3 C5 1_555 1_555
C6 C1 1_555 1_555
H4 C6 1_555 1_555
C7 C2 1_555 1_555
H5 C7 1_555 1_555
C8 O1 1_555 1_555
C9 C4 1_555 1_555
C10 C3 1_555 1_555
H6 C10 1_555 1_555
C11 C8 1_555 1_555
H7 C11 1_555 1_555
O2 C9 1_555 1_555
O3 C9 1_555 1_555
N1 C14 1_555 1_555
N2 H8 1_555 1_555
C12 C13 1_555 1_555
C13 H9 1_555 1_555
C14 N2 1_555 1_555
H10 C14 1_555 1_555
C15 C12 1_555 1_555
C16 N1 1_555 1_555
H11 C16 1_555 1_555
H12 C16 1_555 1_555
C17 N2 1_555 1_555
H13 C17 1_555 1_555
C18 N1 1_555 1_555
H14 C18 1_555 1_555
N1A C14A 1_555 1_555
N2A H8A 1_555 1_555
C12A C13A 1_555 1_555
C13A C15 1_555 1_555
H9A C13A 1_555 1_555
C14A N2A 1_555 1_555
H10A C14A 1_555 1_555
C15A C13 1_555 1_555
C16A N1A 1_555 1_555
H11A C16A 1_555 1_555
H12A C16A 1_555 1_555
C17A N2A 1_555 1_555
H13A C17A 1_555 1_555
C18A N1A 1_555 1_555
H14A C18A 1_555 1_555
C4 C7 1_555 1_555
C6 C8 1_555 1_555
C10 C11 1_555 1_555
C12 C16 1_555 1_555
C17 C18 1_555 1_555
C12A C15A 1_555 1_555
C12A C16A 1_555 1_555
C17A C18A 1_555 1_555

#END
