
#######################################################################
#
#                 Cambridge Crystallographic Data Centre
#                                CCDC 
#
#######################################################################
#
# If this CIF has been generated from an entry in the Cambridge 
# Structural Database, then it will include bibliographic, chemical, 
# crystal, experimental, refinement or atomic coordinate data resulting 
# from the CCDC's data processing and validation procedures.
#
#######################################################################

data_VAKJUP
_chemical_formula_moiety         'C14 H16 N3 O1 1+,C8 H7 O2 1-'
_chemical_name_systematic        
'(S)-2-Ammonio-3-phenyl-N-(pyridine-3-yl)propanamide 4-methylbenzoate'
_symmetry_cell_setting           orthorhombic
_symmetry_space_group_name_H-M   'P 21 21 21'
_symmetry_Int_Tables_number      19
_space_group_name_Hall           'P 2ac 2ab'
loop_
_symmetry_equiv_pos_site_id
_symmetry_equiv_pos_as_xyz
1 x,y,z
2 1/2-x,-y,1/2+z
3 -x,1/2+y,1/2-z
4 1/2+x,1/2-y,-z
_cell_length_a                   6.1730(10)
_cell_length_b                   13.940(2)
_cell_length_c                   23.052(4)
_cell_angle_alpha                90
_cell_angle_beta                 90
_cell_angle_gamma                90
_cell_volume                     1983.66
_exptl_crystal_colour            colorless
_exptl_crystal_description       needle
_cell_formula_units_Z            4
loop_
_atom_site_label
_atom_site_type_symbol
_atom_site_fract_x
_atom_site_fract_y
_atom_site_fract_z
C1 C 0.8680(4) -0.0591(2) 0.03110(11)
O1 O 0.6741(3) -0.08310(16) 0.03597(9)
O2 O 1.0141(3) -0.11444(13) 0.01384(9)
C2 C 0.9284(5) 0.04200(19) 0.04654(11)
C3 C 1.1333(4) 0.07791(16) 0.03470(9)
H1 H 1.2373 0.0380 0.0182
C4 C 1.1848(4) 0.17190(16) 0.04708(9)
H2 H 1.3217 0.1950 0.0377
C5 C 1.0370(7) 0.2325(2) 0.07301(13)
C6 C 1.0924(9) 0.3351(2) 0.08652(17)
H3 H 1.2303 0.3377 0.1057
H4 H 0.9831 0.3619 0.1113
H5 H 1.0992 0.3713 0.0511
C7 C 0.8333(6) 0.1958(2) 0.08561(15)
H6 H 0.7303 0.2351 0.1030
C8 C 0.7810(2) 0.10206(9) 0.07282(5)
H7 H 0.6440 0.0790 0.0821
N1 N 0.3912(2) 0.80362(9) 0.97738(5)
H8 H 0.4040 0.7443 0.9912
H9 H 0.2721 0.8307 0.9918
H10 H 0.5065 0.8380 0.9877
C9 C 0.3761(2) 0.80015(9) 0.91334(5)
H11 H 0.2561 0.7583 0.9018
C10 C 0.3374(2) 0.90141(9) 0.89018(5)
H12 H 0.2039 0.9261 0.9066
H13 H 0.4546 0.9426 0.9030
C11 C 0.3229(5) 0.90561(19) 0.82516(12)
C12 C 0.5010(5) 0.9302(2) 0.79161(14)
H14 H 0.6314 0.9449 0.8098
C13 C 0.4891(7) 0.9332(3) 0.73264(14)
H15 H 0.6098 0.9506 0.7109
C14 C 0.2975(8) 0.9104(3) 0.70526(15)
H16 H 0.2887 0.9121 0.6650
C15 C 0.1204(7) 0.8852(2) 0.73749(16)
H17 H -0.0086 0.8693 0.7190
C16 C 0.1321(5) 0.8834(2) 0.79695(14)
H18 H 0.0102 0.8670 0.8185
C17 C 0.5878(4) 0.76075(18) 0.88975(10)
O3 O 0.7595(3) 0.79035(14) 0.90830(8)
N2 N 0.5704(3) 0.69778(15) 0.84588(9)
H19 H 0.4455 0.6732 0.8387
C18 C 0.7490(4) 0.66977(18) 0.81073(11)
C19 C 0.9485(4) 0.6468(2) 0.83460(12)
H20 H 0.9611 0.6445 0.8748
N3 N 1.1229(4) 0.62771(19) 0.80261(11)
C20 C 1.0957(5) 0.6248(2) 0.74566(13)
H21 H 1.2153 0.6105 0.7227
C21 C 0.9021(4) 0.64156(16) 0.71849(9)
H22 H 0.8903 0.6363 0.6784
C22 C 0.7262(4) 0.66626(16) 0.75150(9)
H23 H 0.5941 0.6804 0.7341
loop_
_geom_bond_atom_site_label_1
_geom_bond_atom_site_label_2
_geom_bond_site_symmetry_1
_geom_bond_site_symmetry_2
C1 O1 1_555 1_555
O2 C1 1_555 1_555
C2 C1 1_555 1_555
C3 C2 1_555 1_555
H1 C3 1_555 1_555
C4 C3 1_555 1_555
H2 C4 1_555 1_555
C5 C4 1_555 1_555
C6 C5 1_555 1_555
H3 C6 1_555 1_555
H4 C6 1_555 1_555
H5 C6 1_555 1_555
C7 C5 1_555 1_555
H6 C7 1_555 1_555
C8 C2 1_555 1_555
H7 C8 1_555 1_555
N1 H8 1_555 1_555
H9 N1 1_555 1_555
H10 N1 1_555 1_555
C9 N1 1_555 1_555
H11 C9 1_555 1_555
C10 C9 1_555 1_555
H12 C10 1_555 1_555
H13 C10 1_555 1_555
C11 C10 1_555 1_555
C12 C11 1_555 1_555
H14 C12 1_555 1_555
C13 C12 1_555 1_555
H15 C13 1_555 1_555
C14 C13 1_555 1_555
H16 C14 1_555 1_555
C15 C14 1_555 1_555
H17 C15 1_555 1_555
C16 C11 1_555 1_555
H18 C16 1_555 1_555
C17 C9 1_555 1_555
O3 C17 1_555 1_555
N2 C17 1_555 1_555
H19 N2 1_555 1_555
C18 N2 1_555 1_555
C19 C18 1_555 1_555
H20 C19 1_555 1_555
N3 C19 1_555 1_555
C20 N3 1_555 1_555
H21 C20 1_555 1_555
C21 C20 1_555 1_555
H22 C21 1_555 1_555
C22 C18 1_555 1_555
H23 C22 1_555 1_555
C7 C8 1_555 1_555
C15 C16 1_555 1_555
C21 C22 1_555 1_555

#END
