
#######################################################################
#
#                 Cambridge Crystallographic Data Centre
#                                CCDC 
#
#######################################################################
#
# If this CIF has been generated from an entry in the Cambridge 
# Structural Database, then it will include bibliographic, chemical, 
# crystal, experimental, refinement or atomic coordinate data resulting 
# from the CCDC's data processing and validation procedures.
#
#######################################################################

data_VAKKAW
_chemical_formula_moiety         'C14 H16 N3 O1 1+,C7 H4 N1 O4 1-'
_chemical_name_systematic        
'(S)-2-Ammonio-3-phenyl-N-(pyridine-3-yl)propanamide 4-nitrobenzoate'
_symmetry_cell_setting           orthorhombic
_symmetry_space_group_name_H-M   'P 21 21 21'
_symmetry_Int_Tables_number      19
_space_group_name_Hall           'P 2ac 2ab'
loop_
_symmetry_equiv_pos_site_id
_symmetry_equiv_pos_as_xyz
1 x,y,z
2 1/2-x,-y,1/2+z
3 -x,1/2+y,1/2-z
4 1/2+x,1/2-y,-z
_cell_length_a                   6.120(4)
_cell_length_b                   13.976(8)
_cell_length_c                   22.911(13)
_cell_angle_alpha                90
_cell_angle_beta                 90
_cell_angle_gamma                90
_cell_volume                     1959.65
_exptl_crystal_colour            colorless
_exptl_crystal_description       needle
_cell_formula_units_Z            4
loop_
_atom_site_label
_atom_site_type_symbol
_atom_site_fract_x
_atom_site_fract_y
_atom_site_fract_z
C1 C -0.1296(10) 0.4419(4) 0.0287(2)
O1 O 0.0096(7) 0.3842(3) 0.01332(18)
O2 O -0.3301(7) 0.4236(3) 0.03314(19)
C2 C -0.0614(10) 0.5406(5) 0.0438(2)
C3 C 0.1449(11) 0.5732(5) 0.0304(3)
H1 H 0.2416 0.5326 0.0112
C4 C 0.2114(12) 0.6640(5) 0.0447(2)
H2 H 0.3516 0.6849 0.0357
C5 C 0.0675(13) 0.7224(5) 0.0723(2)
C6 C -0.1413(12) 0.6941(5) 0.0864(3)
H3 H -0.2375 0.7354 0.1052
C7 C -0.2031(11) 0.6020(5) 0.0717(3)
H4 H -0.3433 0.5811 0.0808
N1 N 0.1391(14) 0.8177(5) 0.0891(3)
O3 O 0.3300(12) 0.8384(4) 0.0830(3)
O4 O 0.0055(13) 0.8706(4) 0.1108(3)
N2 N 0.3919(8) 0.3034(3) 0.97620(18)
H5 H 0.5046 0.3403 0.9860
H6 H 0.4117 0.2449 0.9905
H7 H 0.2694 0.3282 0.9907
C8 C 0.3753(9) 0.2985(4) 0.9123(2)
H8 H 0.2535 0.2568 0.9011
C9 C 0.3396(12) 0.3984(4) 0.8884(2)
H9 H 0.2077 0.4246 0.9057
H10 H 0.4607 0.4386 0.9004
C10 C 0.3193(11) 0.4033(4) 0.8229(2)
C11 C 0.4958(11) 0.4289(5) 0.7889(3)
H11 H 0.6282 0.4437 0.8067
C12 C 0.4789(14) 0.4327(6) 0.7299(3)
H12 H 0.5983 0.4500 0.7071
C13 C 0.2795(19) 0.4102(5) 0.7041(3)
H13 H 0.2644 0.4144 0.6638
C14 C 0.1079(14) 0.3826(5) 0.7369(3)
H14 H -0.0228 0.3654 0.7191
C15 C 0.1256(13) 0.3798(5) 0.7958(3)
H15 H 0.0057 0.3618 0.8182
C16 C 0.5904(9) 0.2578(4) 0.8891(2)
O5 O 0.7609(7) 0.2857(3) 0.90892(16)
N3 N 0.5714(7) 0.1977(3) 0.84429(18)
H16 H 0.4440 0.1753 0.8362
C17 C 0.7505(10) 0.1686(4) 0.8092(2)
C18 C 0.9521(10) 0.1476(5) 0.8327(3)
N4 N 1.1258(9) 0.1279(4) 0.8003(2)
C19 C 1.0944(12) 0.1226(5) 0.7434(3)
H17 H 1.2143 0.1077 0.7202
C20 C 0.8990(11) 0.1373(5) 0.7160(3)
H18 H 0.8851 0.1302 0.6758
C21 C 0.7228(11) 0.1631(5) 0.7502(2)
H19 H 0.5879 0.1764 0.7334
H20 H 0.976(8) 0.148(3) 0.874(2)
loop_
_geom_bond_atom_site_label_1
_geom_bond_atom_site_label_2
_geom_bond_site_symmetry_1
_geom_bond_site_symmetry_2
C1 O1 1_555 1_555
O2 C1 1_555 1_555
C2 C1 1_555 1_555
C3 C2 1_555 1_555
H1 C3 1_555 1_555
C4 C3 1_555 1_555
H2 C4 1_555 1_555
C5 C4 1_555 1_555
C6 C5 1_555 1_555
H3 C6 1_555 1_555
C7 C2 1_555 1_555
H4 C7 1_555 1_555
N1 C5 1_555 1_555
O3 N1 1_555 1_555
O4 N1 1_555 1_555
N2 H5 1_555 1_555
H6 N2 1_555 1_555
H7 N2 1_555 1_555
C8 N2 1_555 1_555
H8 C8 1_555 1_555
C9 C8 1_555 1_555
H9 C9 1_555 1_555
H10 C9 1_555 1_555
C10 C9 1_555 1_555
C11 C10 1_555 1_555
H11 C11 1_555 1_555
C12 C11 1_555 1_555
H12 C12 1_555 1_555
C13 C12 1_555 1_555
H13 C13 1_555 1_555
C14 C13 1_555 1_555
H14 C14 1_555 1_555
C15 C10 1_555 1_555
H15 C15 1_555 1_555
C16 C8 1_555 1_555
O5 C16 1_555 1_555
N3 C16 1_555 1_555
H16 N3 1_555 1_555
C17 N3 1_555 1_555
C18 C17 1_555 1_555
N4 C18 1_555 1_555
C19 N4 1_555 1_555
H17 C19 1_555 1_555
C20 C19 1_555 1_555
H18 C20 1_555 1_555
C21 C17 1_555 1_555
H19 C21 1_555 1_555
H20 C18 1_555 1_555
C6 C7 1_555 1_555
C14 C15 1_555 1_555
C20 C21 1_555 1_555

#END
