
#######################################################################
#
#                 Cambridge Crystallographic Data Centre
#                                CCDC 
#
#######################################################################
#
# If this CIF has been generated from an entry in the Cambridge 
# Structural Database, then it will include bibliographic, chemical, 
# crystal, experimental, refinement or atomic coordinate data resulting 
# from the CCDC's data processing and validation procedures.
#
#######################################################################

data_VAKLOL
_chemical_formula_moiety         'C8 H6 F2 N2 O1'
_chemical_name_systematic        
'N-(4-fluorophenyl)-2-oxoethanehydrazonoyl fluoride'
_symmetry_cell_setting           monoclinic
_symmetry_space_group_name_H-M   'P 21'
_symmetry_Int_Tables_number      4
_space_group_name_Hall           'P 2yb'
loop_
_symmetry_equiv_pos_site_id
_symmetry_equiv_pos_as_xyz
1 x,y,z
2 -x,1/2+y,-z
_cell_length_a                   3.7697(19)
_cell_length_b                   11.297(6)
_cell_length_c                   9.224(5)
_cell_angle_alpha                90
_cell_angle_beta                 95.826(14)
_cell_angle_gamma                90
_cell_volume                     390.787
_exptl_crystal_colour            colorless
_exptl_crystal_description       Prism
_cell_formula_units_Z            2
loop_
_atom_site_label
_atom_site_type_symbol
_atom_site_fract_x
_atom_site_fract_y
_atom_site_fract_z
F1 F 0.4075(4) 0.75302(15) -0.30963(18)
F2 F -0.1126(4) 0.62861(15) 0.51165(17)
O1 O -0.0118(6) 0.40251(19) 0.6203(2)
N1 N 0.1093(6) 0.6690(2) 0.2525(3)
N2 N 0.1506(6) 0.5624(2) 0.3117(3)
C1 C 0.1932(7) 0.6882(2) 0.1094(3)
C2 C 0.1288(7) 0.8001(2) 0.0481(3)
H1 H 0.0392 0.8619 0.1040
C3 C 0.1953(7) 0.8204(2) -0.0932(3)
H2 H 0.1474 0.8958 -0.1364
C4 C 0.3315(7) 0.7312(3) -0.1715(3)
C5 C 0.3972(7) 0.6195(3) -0.1136(3)
H3 H 0.4898 0.5585 -0.1699
C6 C 0.3253(7) 0.5988(2) 0.0271(3)
H4 H 0.3665 0.5224 0.0685
C7 C 0.0471(8) 0.5437(2) 0.4372(3)
C8 C 0.0883(8) 0.4277(3) 0.5032(4)
H5 H 0.2003 0.3677 0.4519
H6 H 0.036(7) 0.7279(19) 0.307(3)
loop_
_geom_bond_atom_site_label_1
_geom_bond_atom_site_label_2
_geom_bond_site_symmetry_1
_geom_bond_site_symmetry_2
F1 C4 1_555 1_555
F2 C7 1_555 1_555
O1 C8 1_555 1_555
N1 N2 1_555 1_555
N2 C7 1_555 1_555
C1 N1 1_555 1_555
C2 C1 1_555 1_555
H1 C2 1_555 1_555
C3 C2 1_555 1_555
H2 C3 1_555 1_555
C4 C3 1_555 1_555
C5 C4 1_555 1_555
H3 C5 1_555 1_555
C6 C1 1_555 1_555
H4 C6 1_555 1_555
C7 C8 1_555 1_555
C8 H5 1_555 1_555
H6 N1 1_555 1_555
C5 C6 1_555 1_555

#END
