
#######################################################################
#
#                 Cambridge Crystallographic Data Centre
#                                CCDC 
#
#######################################################################
#
# If this CIF has been generated from an entry in the Cambridge 
# Structural Database, then it will include bibliographic, chemical, 
# crystal, experimental, refinement or atomic coordinate data resulting 
# from the CCDC's data processing and validation procedures.
#
#######################################################################

data_VAKLUR
_chemical_formula_moiety         'C12 H9 F3 N2 O1'
_chemical_name_systematic        
6,6-difluoro-6-((4-fluorophenyl)diazenyl)hexa-2,4-dienal
_symmetry_cell_setting           orthorhombic
_symmetry_space_group_name_H-M   'P 21 21 21'
_symmetry_Int_Tables_number      19
_space_group_name_Hall           'P 2ac 2ab'
loop_
_symmetry_equiv_pos_site_id
_symmetry_equiv_pos_as_xyz
1 x,y,z
2 1/2-x,-y,1/2+z
3 1/2+x,1/2-y,-z
4 -x,1/2+y,1/2-z
_cell_length_a                   4.5581(3)
_cell_length_b                   15.9643(9)
_cell_length_c                   47.294(2)
_cell_angle_alpha                90
_cell_angle_beta                 90
_cell_angle_gamma                90
_cell_volume                     3441.44
_exptl_crystal_colour            colorless
_exptl_crystal_description       Prism
_cell_formula_units_Z            12
loop_
_atom_site_label
_atom_site_type_symbol
_atom_site_fract_x
_atom_site_fract_y
_atom_site_fract_z
F1 F 0.9507(4) 0.34461(12) 0.22377(4)
F2 F -0.2356(4) 0.09146(11) 0.13316(3)
F3 F -0.2145(4) 0.18536(10) 0.10000(3)
O1 O 0.6257(5) -0.00140(14) -0.01531(4)
N1 N 0.1929(5) 0.16447(13) 0.15665(4)
N2 N 0.1420(5) 0.19229(14) 0.13256(4)
C1 C 0.3876(6) 0.21560(16) 0.17286(5)
C2 C 0.5345(6) 0.28580(16) 0.16209(5)
H1 H 0.5030 0.3032 0.1431
C3 C 0.7275(6) 0.32990(16) 0.17953(5)
H2 H 0.8307 0.3776 0.1728
C4 C 0.7631(6) 0.30194(17) 0.20687(5)
C5 C 0.6218(7) 0.23303(18) 0.21798(5)
H3 H 0.6546 0.2160 0.2370
C6 C 0.4305(6) 0.18947(16) 0.20058(5)
H4 H 0.3289 0.1418 0.2076
C7 C -0.0463(6) 0.13444(17) 0.11623(5)
C8 C 0.1370(6) 0.07556(15) 0.09919(5)
H5 H 0.2472 0.0338 0.1088
C9 C 0.1525(6) 0.07909(15) 0.07105(5)
H6 H 0.0278 0.1174 0.0615
C10 C 0.3485(6) 0.02785(16) 0.05426(5)
H7 H 0.4645 -0.0135 0.0634
C11 C 0.3708(7) 0.03692(17) 0.02634(5)
H8 H 0.2447 0.0752 0.0169
C12 C 0.5857(7) -0.01084(18) 0.00977(5)
H9 H 0.7004 -0.0517 0.0193
F4 F 0.8956(4) 0.66705(11) 0.23112(3)
F5 F -0.1909(4) 0.54520(11) 0.09847(3)
F6 F -0.1321(4) 0.42614(11) 0.12019(3)
O2 O 0.8424(5) 0.19616(12) 0.01962(4)
N3 N 0.2280(5) 0.50203(13) 0.15134(4)
N4 N 0.1914(5) 0.53860(13) 0.12830(4)
C13 C 0.4046(5) 0.54769(15) 0.17105(5)
C14 C 0.5731(6) 0.61691(15) 0.16355(5)
H10 H 0.5730 0.6363 0.1446
C15 C 0.7416(6) 0.65766(16) 0.18382(5)
H11 H 0.8583 0.7049 0.1791
C16 C 0.7335(6) 0.62709(17) 0.21114(5)
C17 C 0.5715(6) 0.55846(18) 0.21917(5)
H12 H 0.5737 0.5391 0.2382
C18 C 0.4048(6) 0.51837(16) 0.19872(5)
H13 H 0.2904 0.4708 0.2036
C19 C 0.0166(6) 0.48969(16) 0.10802(5)
C20 C 0.2035(6) 0.46120(16) 0.08402(5)
H14 H 0.2810 0.5029 0.0718
C21 C 0.2701(6) 0.38162(16) 0.07846(5)
H15 H 0.1862 0.3383 0.0896
C22 C 0.4689(6) 0.36025(16) 0.05561(5)
H16 H 0.5498 0.4047 0.0448
C23 C 0.5457(6) 0.28172(17) 0.04882(5)
H17 H 0.4585 0.2360 0.0585
C24 C 0.7621(6) 0.26567(16) 0.02665(5)
H18 H 0.8451 0.3125 0.0172
F7 F 0.9349(4) 0.99024(11) 0.23463(3)
F8 F -0.1869(4) 0.88034(9) 0.10062(3)
F9 F -0.2820(3) 0.78805(10) 0.13325(3)
O3 O 0.6509(6) 0.63425(13) -0.00359(4)
N5 N 0.1686(5) 0.83930(13) 0.16051(4)
N6 N 0.1269(5) 0.87537(13) 0.13742(4)
C25 C 0.3637(6) 0.88289(15) 0.17902(5)
C26 C 0.5155(6) 0.95486(16) 0.17136(5)
H19 H 0.4850 0.9790 0.1532
C27 C 0.7115(6) 0.99162(16) 0.19008(5)
H20 H 0.8184 1.0405 0.1851
C28 C 0.7452(6) 0.95440(17) 0.21622(5)
C29 C 0.5968(7) 0.88350(18) 0.22465(5)
H21 H 0.6258 0.8602 0.2429
C30 C 0.4033(6) 0.84715(17) 0.20552(5)
H22 H 0.2984 0.7980 0.2106
C31 C -0.0577(6) 0.82497(15) 0.11861(5)
C32 C 0.1166(6) 0.76010(15) 0.10358(5)
H23 H 0.1906 0.7144 0.1143
C33 C 0.1747(6) 0.76230(16) 0.07615(5)
H24 H 0.0933 0.8061 0.0651
C34 C 0.3598(6) 0.69966(16) 0.06229(5)
H25 H 0.4505 0.6581 0.0737
C35 C 0.4072(7) 0.69804(17) 0.03476(6)
H26 H 0.3142 0.7387 0.0231
C36 C 0.5987(7) 0.63544(17) 0.02151(5)
H27 H 0.6859 0.5939 0.0332
loop_
_geom_bond_atom_site_label_1
_geom_bond_atom_site_label_2
_geom_bond_site_symmetry_1
_geom_bond_site_symmetry_2
F1 C4 1_555 1_555
F2 C7 1_555 1_555
F3 C7 1_555 1_555
O1 C12 1_555 1_555
N1 N2 1_555 1_555
N2 C7 1_555 1_555
C1 N1 1_555 1_555
C2 C1 1_555 1_555
H1 C2 1_555 1_555
C3 C2 1_555 1_555
H2 C3 1_555 1_555
C4 C3 1_555 1_555
C5 C4 1_555 1_555
H3 C5 1_555 1_555
C6 C1 1_555 1_555
H4 C6 1_555 1_555
C7 C8 1_555 1_555
C8 H5 1_555 1_555
C9 C8 1_555 1_555
H6 C9 1_555 1_555
C10 C9 1_555 1_555
H7 C10 1_555 1_555
C11 C10 1_555 1_555
H8 C11 1_555 1_555
C12 C11 1_555 1_555
H9 C12 1_555 1_555
F4 C16 1_555 1_555
F5 C19 1_555 1_555
F6 C19 1_555 1_555
O2 C24 1_555 1_555
N3 N4 1_555 1_555
N4 C19 1_555 1_555
C13 N3 1_555 1_555
C14 C13 1_555 1_555
H10 C14 1_555 1_555
C15 C14 1_555 1_555
H11 C15 1_555 1_555
C16 C15 1_555 1_555
C17 C16 1_555 1_555
H12 C17 1_555 1_555
C18 C13 1_555 1_555
H13 C18 1_555 1_555
C19 C20 1_555 1_555
C20 H14 1_555 1_555
C21 C20 1_555 1_555
H15 C21 1_555 1_555
C22 C21 1_555 1_555
H16 C22 1_555 1_555
C23 C22 1_555 1_555
H17 C23 1_555 1_555
C24 C23 1_555 1_555
H18 C24 1_555 1_555
F7 C28 1_555 1_555
F8 C31 1_555 1_555
F9 C31 1_555 1_555
O3 C36 1_555 1_555
N5 N6 1_555 1_555
N6 C31 1_555 1_555
C25 N5 1_555 1_555
C26 C25 1_555 1_555
H19 C26 1_555 1_555
C27 C26 1_555 1_555
H20 C27 1_555 1_555
C28 C27 1_555 1_555
C29 C28 1_555 1_555
H21 C29 1_555 1_555
C30 C25 1_555 1_555
H22 C30 1_555 1_555
C31 C32 1_555 1_555
C32 H23 1_555 1_555
C33 C32 1_555 1_555
H24 C33 1_555 1_555
C34 C33 1_555 1_555
H25 C34 1_555 1_555
C35 C34 1_555 1_555
H26 C35 1_555 1_555
C36 C35 1_555 1_555
H27 C36 1_555 1_555
C5 C6 1_555 1_555
C17 C18 1_555 1_555
C29 C30 1_555 1_555

#END
