
#######################################################################
#
#                 Cambridge Crystallographic Data Centre
#                                CCDC 
#
#######################################################################
#
# If this CIF has been generated from an entry in the Cambridge 
# Structural Database, then it will include bibliographic, chemical, 
# crystal, experimental, refinement or atomic coordinate data resulting 
# from the CCDC's data processing and validation procedures.
#
#######################################################################

data_VAKXAG
_chemical_formula_moiety         'C16 H16 S2'
_chemical_name_systematic        2,11-Dithia(3.3)orthocyclophane
_symmetry_cell_setting           monoclinic
_symmetry_space_group_name_H-M   'P 21/a'
_symmetry_Int_Tables_number      14
_space_group_name_Hall           '-P 2yab'
loop_
_symmetry_equiv_pos_site_id
_symmetry_equiv_pos_as_xyz
1 x,y,z
2 1/2-x,1/2+y,-z
3 -x,-y,-z
4 1/2+x,1/2-y,z
_cell_length_a                   16.604(6)
_cell_length_b                   4.950(2)
_cell_length_c                   8.304(3)
_cell_angle_alpha                90
_cell_angle_beta                 100.28
_cell_angle_gamma                90
_cell_volume                     671.548
_cell_formula_units_Z            2
loop_
_atom_site_label
_atom_site_type_symbol
_atom_site_fract_x
_atom_site_fract_y
_atom_site_fract_z
S1 S 0.8762 0.0634(1) 0.6589(1)
C1 C 0.9702(1) -0.1311(4) 0.6868(2)
C2 C 0.8777(1) 0.2273(4) 0.4620(2)
C3 C 0.8804(1) 0.0286(4) 0.3256(2)
C4 C 0.8084(1) -0.1108(4) 0.2632(2)
C5 C 0.8046(1) -0.2992(4) 0.1395(2)
C6 C 0.8745(1) -0.3517(4) 0.0740(2)
C7 C 0.9464(1) -0.2149(4) 0.1333(2)
C8 C 1.0490(1) 0.0230(4) 0.7408(2)
H1 H 0.972(1) -0.236(4) 0.587(2)
H2 H 0.964(1) -0.265(4) 0.770(2)
H3 H 0.920(1) 0.356(4) 0.475(2)
H4 H 0.825(1) 0.327(4) 0.442(2)
H5 H 0.762(1) -0.070(5) 0.310(3)
H6 H 0.752(1) -0.393(4) 0.096(2)
H7 H 0.873(1) -0.480(5) -0.020(3)
H8 H 0.999(1) -0.252(4) 0.092(2)
C8B C 0.9510(1) -0.0230(4) 0.2592(2)
C3B C 1.1196(1) -0.0286(4) 0.6744(2)
C7B C 1.0536(1) 0.2149(4) 0.8667(2)
C1B C 1.0298(1) 0.1311(4) 0.3132(2)
C2B C 1.1223(1) -0.2273(4) 0.5380(2)
C4B C 1.1916(1) 0.1108(4) 0.7368(2)
C6B C 1.1255(1) 0.3517(4) 0.9260(2)
H8B H 1.001(1) 0.252(4) 0.908(2)
S1B S 1.1238 -0.0634(1) 0.3411(1)
H1B H 1.028(1) 0.236(4) 0.413(2)
H2B H 1.036(1) 0.265(4) 0.230(2)
H3B H 1.080(1) -0.356(4) 0.525(2)
H4B H 1.175(1) -0.327(4) 0.558(2)
C5B C 1.1954(1) 0.2992(4) 0.8605(2)
H5B H 1.238(1) 0.070(5) 0.690(3)
H7B H 1.127(1) 0.480(5) 1.020(3)
H6B H 1.248(1) 0.393(4) 0.904(2)
loop_
_geom_bond_atom_site_label_1
_geom_bond_atom_site_label_2
_geom_bond_site_symmetry_1
_geom_bond_site_symmetry_2
S1 C1 1_555 1_555
C1 C8 1_555 1_555
C2 S1 1_555 1_555
C3 C2 1_555 1_555
C4 C3 1_555 1_555
C5 C4 1_555 1_555
C6 C5 1_555 1_555
C7 C6 1_555 1_555
C8 C3B 1_555 1_555
H1 C1 1_555 1_555
H2 C1 1_555 1_555
H3 C2 1_555 1_555
H4 C2 1_555 1_555
H5 C4 1_555 1_555
H6 C5 1_555 1_555
H7 C6 1_555 1_555
H8 C7 1_555 1_555
C8B C3 1_555 1_555
C3B C2B 1_555 1_555
C7B C8 1_555 1_555
C1B C8B 1_555 1_555
C2B S1B 1_555 1_555
C4B C3B 1_555 1_555
C6B C7B 1_555 1_555
H8B C7B 1_555 1_555
S1B C1B 1_555 1_555
H1B C1B 1_555 1_555
H2B C1B 1_555 1_555
H3B C2B 1_555 1_555
H4B C2B 1_555 1_555
C5B C4B 1_555 1_555
H5B C4B 1_555 1_555
H7B C6B 1_555 1_555
H6B C5B 1_555 1_555
C7 C8B 1_555 1_555
C6B C5B 1_555 1_555

#END
