
#######################################################################
#
#                 Cambridge Crystallographic Data Centre
#                                CCDC 
#
#######################################################################
#
# If this CIF has been generated from an entry in the Cambridge 
# Structural Database, then it will include bibliographic, chemical, 
# crystal, experimental, refinement or atomic coordinate data resulting 
# from the CCDC's data processing and validation procedures.
#
#######################################################################

data_VALMIG
_chemical_formula_moiety         'C31 H33 N1 O4'
_chemical_name_systematic        
'Dimethyl 2-(isobutylamino)-3-(1,3,3-triphenylprop-1-en-1-yl)but-2-enedioate'
_symmetry_cell_setting           triclinic
_symmetry_space_group_name_H-M   'P -1'
_symmetry_Int_Tables_number      2
_space_group_name_Hall           '-P 1'
loop_
_symmetry_equiv_pos_site_id
_symmetry_equiv_pos_as_xyz
1 x,y,z
2 -x,-y,-z
_cell_length_a                   9.5376(6)
_cell_length_b                   10.1404(5)
_cell_length_c                   14.9134(9)
_cell_angle_alpha                95.842(5)
_cell_angle_beta                 95.110(5)
_cell_angle_gamma                108.437(5)
_cell_volume                     1349.93
_exptl_crystal_colour            colorless
_exptl_crystal_description       block
_cell_formula_units_Z            2
loop_
_atom_site_label
_atom_site_type_symbol
_atom_site_fract_x
_atom_site_fract_y
_atom_site_fract_z
O1 O 0.85941(19) 0.86655(16) 0.13013(12)
O2 O 0.75449(15) 0.72603(13) 0.22775(11)
O3 O 0.93427(17) 1.17997(16) 0.16191(12)
O4 O 0.77516(16) 1.08147(15) 0.03659(11)
N1 N 0.60150(19) 1.11589(17) 0.19352(13)
H1 H 0.5337 1.0826 0.2273
C1 C 0.8243(2) 1.3233(2) 0.40949(18)
H2 H 0.9174 1.3145 0.4041
C2 C 0.8101(3) 1.4547(2) 0.4161(2)
H3 H 0.8934 1.5333 0.4163
C3 C 0.6732(3) 1.4697(2) 0.42229(18)
H4 H 0.6629 1.5582 0.4260
C4 C 0.5528(3) 1.3539(2) 0.42296(16)
H5 H 0.4597 1.3634 0.4270
C5 C 0.5675(2) 1.2223(2) 0.41763(14)
H6 H 0.4842 1.1444 0.4188
C6 C 0.7044(2) 1.20473(18) 0.41059(13)
C7 C 0.72555(19) 1.06244(17) 0.40332(13)
H7 H 0.8031 1.0661 0.3638
C8 C 0.78013(18) 1.02554(19) 0.49365(14)
C9 C 0.7971(2) 1.1076(2) 0.57555(16)
H8 H 0.7775 1.1920 0.5775
C10 C 0.8431(3) 1.0655(3) 0.65536(18)
H9 H 0.8542 1.1218 0.7105
C11 C 0.8726(3) 0.9414(4) 0.6535(2)
H10 H 0.9039 0.9135 0.7070
C12 C 0.8555(3) 0.8593(3) 0.5724(3)
H11 H 0.8748 0.7748 0.5707
C13 C 0.8102(2) 0.9003(2) 0.49348(17)
H12 H 0.7992 0.8432 0.4387
C14 C 0.58981(19) 0.94223(17) 0.36067(13)
H13 H 0.5119 0.9153 0.3954
C15 C 0.57042(19) 0.87068(17) 0.27805(13)
C16 C 0.4364(2) 0.74517(17) 0.24814(15)
C17 C 0.3681(2) 0.7164(2) 0.16019(18)
H14 H 0.4085 0.7744 0.1180
C18 C 0.2396(3) 0.6021(3) 0.1331(2)
H15 H 0.1937 0.5847 0.0734
C19 C 0.1809(3) 0.5151(3) 0.1943(3)
H16 H 0.0948 0.4385 0.1764
C20 C 0.2487(3) 0.5410(2) 0.2814(3)
H17 H 0.2087 0.4815 0.3229
C21 C 0.3756(2) 0.6541(2) 0.30849(18)
H18 H 0.4214 0.6699 0.3681
C22 C 0.67815(19) 0.91835(17) 0.21205(13)
C23 C 0.7725(2) 0.83910(18) 0.18487(14)
C24 C 0.8406(3) 0.6387(2) 0.2021(2)
H19 H 0.8210 0.6103 0.1375
H20 H 0.8139 0.5571 0.2327
H21 H 0.9447 0.6902 0.2188
C25 C 0.69046(19) 1.03985(17) 0.17742(13)
C26 C 0.8155(2) 1.1058(2) 0.12461(16)
C27 C 0.8949(3) 1.1403(3) -0.0170(2)
H22 H 0.8550 1.1255 -0.0800
H23 H 0.9687 1.0949 -0.0093
H24 H 0.9397 1.2391 0.0031
C28 C 0.6039(2) 1.2462(2) 0.16194(17)
H25 H 0.6837 1.2742 0.1247
H26 H 0.6248 1.3184 0.2139
C29 C 0.4604(3) 1.2358(3) 0.10803(19)
H27 H 0.4399 1.1606 0.0570
C30 C 0.4729(4) 1.3701(3) 0.0692(2)
H28 H 0.3799 1.3611 0.0344
H29 H 0.5503 1.3883 0.0306
H30 H 0.4965 1.4464 0.1178
C31 C 0.3321(3) 1.1986(4) 0.1629(3)
H31 H 0.3197 1.1083 0.1819
H32 H 0.2427 1.1957 0.1265
H33 H 0.3521 1.2680 0.2155
loop_
_geom_bond_atom_site_label_1
_geom_bond_atom_site_label_2
_geom_bond_site_symmetry_1
_geom_bond_site_symmetry_2
O1 C23 1_555 1_555
O2 C23 1_555 1_555
O3 C26 1_555 1_555
O4 C26 1_555 1_555
N1 H1 1_555 1_555
C1 H2 1_555 1_555
C2 C1 1_555 1_555
H3 C2 1_555 1_555
C3 C2 1_555 1_555
H4 C3 1_555 1_555
C4 C3 1_555 1_555
H5 C4 1_555 1_555
C5 C4 1_555 1_555
H6 C5 1_555 1_555
C6 C1 1_555 1_555
C7 C6 1_555 1_555
H7 C7 1_555 1_555
C8 C7 1_555 1_555
C9 C8 1_555 1_555
H8 C9 1_555 1_555
C10 C9 1_555 1_555
H9 C10 1_555 1_555
C11 C10 1_555 1_555
H10 C11 1_555 1_555
C12 C11 1_555 1_555
H11 C12 1_555 1_555
C13 C8 1_555 1_555
H12 C13 1_555 1_555
C14 C7 1_555 1_555
H13 C14 1_555 1_555
C15 C14 1_555 1_555
C16 C15 1_555 1_555
C17 C16 1_555 1_555
H14 C17 1_555 1_555
C18 C17 1_555 1_555
H15 C18 1_555 1_555
C19 C18 1_555 1_555
H16 C19 1_555 1_555
C20 C19 1_555 1_555
H17 C20 1_555 1_555
C21 C16 1_555 1_555
H18 C21 1_555 1_555
C22 C15 1_555 1_555
C23 C22 1_555 1_555
C24 O2 1_555 1_555
H19 C24 1_555 1_555
H20 C24 1_555 1_555
H21 C24 1_555 1_555
C25 N1 1_555 1_555
C26 C25 1_555 1_555
C27 O4 1_555 1_555
H22 C27 1_555 1_555
H23 C27 1_555 1_555
H24 C27 1_555 1_555
C28 N1 1_555 1_555
H25 C28 1_555 1_555
H26 C28 1_555 1_555
C29 C28 1_555 1_555
H27 C29 1_555 1_555
C30 C29 1_555 1_555
H28 C30 1_555 1_555
H29 C30 1_555 1_555
H30 C30 1_555 1_555
C31 C29 1_555 1_555
H31 C31 1_555 1_555
H32 C31 1_555 1_555
H33 C31 1_555 1_555
C5 C6 1_555 1_555
C12 C13 1_555 1_555
C20 C21 1_555 1_555
C22 C25 1_555 1_555

#END
