
#######################################################################
#
#                 Cambridge Crystallographic Data Centre
#                                CCDC 
#
#######################################################################
#
# If this CIF has been generated from an entry in the Cambridge 
# Structural Database, then it will include bibliographic, chemical, 
# crystal, experimental, refinement or atomic coordinate data resulting 
# from the CCDC's data processing and validation procedures.
#
#######################################################################

data_VALMUS
_chemical_formula_moiety         'C28 H42 N6 O5,5.5(H2 O1)'
_chemical_name_systematic        
'N^2^-Benzoyl-N^6^-carbamimidoyllysyl-4-ethylidene-3-methylprolylleucine hydrate'
_symmetry_cell_setting           monoclinic
_symmetry_space_group_name_H-M   'C 2'
_symmetry_Int_Tables_number      5
_space_group_name_Hall           'C 2y'
loop_
_symmetry_equiv_pos_site_id
_symmetry_equiv_pos_as_xyz
1 x,y,z
2 -x,y,-z
3 1/2+x,1/2+y,z
4 1/2-x,1/2+y,-z
_cell_length_a                   27.1660(14)
_cell_length_b                   7.5426(4)
_cell_length_c                   17.8290(9)
_cell_angle_alpha                90
_cell_angle_beta                 108.241(3)
_cell_angle_gamma                90
_cell_volume                     3469.62
_exptl_crystal_colour            colorless
_exptl_crystal_description       cut-prism
_cell_formula_units_Z            4
loop_
_atom_site_label
_atom_site_type_symbol
_atom_site_fract_x
_atom_site_fract_y
_atom_site_fract_z
N1 N 0.27239(10) -0.1210(4) -0.03045(15)
H1 H 0.2993 -0.1335 0.0017
N2 N 0.18480(11) -0.0935(5) -0.08245(15)
H2 H 0.1902 -0.0589 -0.1245
H3 H 0.1579 -0.0791 -0.0787
N3 N 0.22113(9) -0.1740(4) 0.04806(14)
H4 H 0.2465 -0.1825 0.0839
C1 C 0.22557(11) -0.1279(4) -0.02097(17)
C2 C 0.17239(12) -0.1899(5) 0.06580(19)
H5 H 0.1773 -0.2728 0.1106
H6 H 0.1458 -0.2412 0.0195
C3 C 0.15270(12) -0.0136(5) 0.08654(19)
H7 H 0.1476 0.0687 0.0415
H8 H 0.1185 -0.0329 0.0940
C4 C 0.18861(11) 0.0732(4) 0.16044(17)
H9 H 0.2227 0.0959 0.1531
H10 H 0.1940 -0.0081 0.2059
C5 C 0.16596(12) 0.2473(4) 0.17793(18)
H11 H 0.1309 0.2240 0.1815
H12 H 0.1621 0.3290 0.1330
C6 C 0.19794(11) 0.3399(4) 0.25355(17)
H13 H 0.2014 0.2596 0.2995
N4 N 0.17134(10) 0.5027(4) 0.26373(15)
H14 H 0.1426 0.5195 0.2320
C7 C 0.19327(13) 0.6161(4) 0.32261(19)
O1 O 0.23664(9) 0.5877(4) 0.36866(15)
C8 C 0.16434(12) 0.7810(4) 0.33031(19)
C9 C 0.18741(14) 0.8883(5) 0.3952(2)
H15 H 0.2197 0.8546 0.4317
C10 C 0.16395(15) 1.0433(5) 0.4071(2)
H16 H 0.1799 1.1159 0.4517
C11 C 0.11707(16) 1.0916(6) 0.3536(3)
H17 H 0.1008 1.1987 0.3612
C12 C 0.09361(15) 0.9862(6) 0.2892(3)
H18 H 0.0612 1.0203 0.2530
C13 C 0.11735(14) 0.8298(5) 0.2773(2)
H19 H 0.1013 0.7570 0.2329
C14 C 0.25206(11) 0.3871(4) 0.25018(16)
O2 O 0.25586(8) 0.4815(3) 0.19505(11)
N5 N 0.29365(9) 0.3241(3) 0.30550(14)
C15 C 0.29335(12) 0.2295(4) 0.37823(17)
H20 H 0.2831 0.1040 0.3669
H21 H 0.2694 0.2871 0.4028
C16 C 0.34819(13) 0.2441(4) 0.42999(18)
C17 C 0.37098(13) 0.4061(5) 0.40452(18)
H22 H 0.3565 0.5118 0.4243
C18 C 0.34546(11) 0.3994(4) 0.31372(17)
H23 H 0.3409 0.5236 0.2930
C19 C 0.37255(14) 0.1311(5) 0.4866(2)
H24 H 0.4078 0.1548 0.5148
C20 C 0.34874(16) -0.0302(6) 0.5093(2)
H25 H 0.3109 -0.0229 0.4871
H26 H 0.3585 -0.0377 0.5670
H27 H 0.3611 -0.1359 0.4887
C21 C 0.42935(15) 0.4226(6) 0.4339(2)
H28 H 0.4409 0.4412 0.4912
H29 H 0.4400 0.5236 0.4081
H30 H 0.4449 0.3138 0.4216
C22 C 0.37718(11) 0.2968(4) 0.27162(17)
O3 O 0.41144(9) 0.3752(4) 0.25367(14)
N6 N 0.36723(10) 0.1247(4) 0.25874(16)
H31 H 0.3434 0.0823 0.2692
C23 C 0.39412(11) 0.0093(5) 0.21863(18)
H32 H 0.4148 0.0845 0.1933
C24 C 0.35565(11) -0.0995(5) 0.15495(17)
O4 O 0.36796(9) -0.1432(5) 0.09525(13)
H33 H 0.3977 -0.1040 0.0996
O5 O 0.31479(8) -0.1468(4) 0.16675(12)
C25 C 0.43124(12) -0.1195(5) 0.27715(19)
H34 H 0.4116 -0.1817 0.3076
H35 H 0.4432 -0.2100 0.2466
C26 C 0.47789(12) -0.0331(6) 0.3342(2)
H36 H 0.4657 0.0691 0.3595
C27 C 0.50439(15) -0.1650(7) 0.3984(2)
H37 H 0.4812 -0.1941 0.4292
H38 H 0.5365 -0.1129 0.4333
H39 H 0.5126 -0.2731 0.3743
C28 C 0.51571(16) 0.0359(9) 0.2957(3)
H40 H 0.5281 -0.0622 0.2703
H41 H 0.5451 0.0905 0.3356
H42 H 0.4987 0.1246 0.2558
O6 O 0.30443(12) 0.8332(4) 0.31603(16)
H43 H 0.2856 0.7552 0.3367
H44 H 0.3016 0.8282 0.2589
O7 O 0.07212(11) -0.0125(4) 0.88030(15)
H45 H 0.0618 0.1069 0.8796
H46 H 0.0509 -0.0627 0.8394
O8 O 0.0586(9) 0.5343(9) 0.1284(4)
O9 O 0.9956(3) 0.7651(12) 0.0688(4)
O10 O 0.43969(18) 0.9523(7) 0.0269(3)
O11 O 0.0277(2) 0.2431(7) 0.0564(3)
O12? O 0.0839(9) 0.5553(15) 0.1271(7)
O13? O 1.0096(2) 0.8804(11) 0.0818(3)
O14? O 0.46323(18) 0.8246(8) 0.0919(3)
loop_
_geom_bond_atom_site_label_1
_geom_bond_atom_site_label_2
_geom_bond_site_symmetry_1
_geom_bond_site_symmetry_2
N1 H1 1_555 1_555
N2 H2 1_555 1_555
H3 N2 1_555 1_555
N3 H4 1_555 1_555
C1 N1 1_555 1_555
C2 N3 1_555 1_555
H5 C2 1_555 1_555
H6 C2 1_555 1_555
C3 C2 1_555 1_555
H7 C3 1_555 1_555
H8 C3 1_555 1_555
C4 C3 1_555 1_555
H9 C4 1_555 1_555
H10 C4 1_555 1_555
C5 C4 1_555 1_555
H11 C5 1_555 1_555
H12 C5 1_555 1_555
C6 C5 1_555 1_555
H13 C6 1_555 1_555
N4 C6 1_555 1_555
H14 N4 1_555 1_555
C7 N4 1_555 1_555
O1 C7 1_555 1_555
C8 C7 1_555 1_555
C9 C8 1_555 1_555
H15 C9 1_555 1_555
C10 C9 1_555 1_555
H16 C10 1_555 1_555
C11 C10 1_555 1_555
H17 C11 1_555 1_555
C12 C11 1_555 1_555
H18 C12 1_555 1_555
C13 C8 1_555 1_555
H19 C13 1_555 1_555
C14 C6 1_555 1_555
O2 C14 1_555 1_555
N5 C14 1_555 1_555
C15 N5 1_555 1_555
H20 C15 1_555 1_555
H21 C15 1_555 1_555
C16 C15 1_555 1_555
C17 C16 1_555 1_555
H22 C17 1_555 1_555
C18 N5 1_555 1_555
H23 C18 1_555 1_555
C19 C16 1_555 1_555
H24 C19 1_555 1_555
C20 C19 1_555 1_555
H25 C20 1_555 1_555
H26 C20 1_555 1_555
H27 C20 1_555 1_555
C21 C17 1_555 1_555
H28 C21 1_555 1_555
H29 C21 1_555 1_555
H30 C21 1_555 1_555
C22 C18 1_555 1_555
O3 C22 1_555 1_555
N6 C22 1_555 1_555
H31 N6 1_555 1_555
C23 N6 1_555 1_555
H32 C23 1_555 1_555
C24 C23 1_555 1_555
O4 C24 1_555 1_555
H33 O4 1_555 1_555
O5 C24 1_555 1_555
C25 C23 1_555 1_555
H34 C25 1_555 1_555
H35 C25 1_555 1_555
C26 C25 1_555 1_555
H36 C26 1_555 1_555
C27 C26 1_555 1_555
H37 C27 1_555 1_555
H38 C27 1_555 1_555
H39 C27 1_555 1_555
C28 C26 1_555 1_555
H40 C28 1_555 1_555
H41 C28 1_555 1_555
H42 C28 1_555 1_555
O6 H43 1_555 1_555
H44 O6 1_555 1_555
O7 H45 1_555 1_555
H46 O7 1_555 1_555
N2 C1 1_555 1_555
N3 C1 1_555 1_555
C12 C13 1_555 1_555
C17 C18 1_555 1_555

#END
