
#######################################################################
#
#                 Cambridge Crystallographic Data Centre
#                                CCDC 
#
#######################################################################
#
# If this CIF has been generated from an entry in the Cambridge 
# Structural Database, then it will include bibliographic, chemical, 
# crystal, experimental, refinement or atomic coordinate data resulting 
# from the CCDC's data processing and validation procedures.
#
#######################################################################

data_VALNOO
_chemical_formula_moiety         'C28 H22 F3 N1 O5'
_chemical_name_systematic        
'Ethyl (S)-5-(benzoylamino)-6-oxo-2-phenyl-4-(4-(trifluoromethyl)phenyl)-3,6-dihydro-2H-pyran-2-carboxylate'
_symmetry_cell_setting           orthorhombic
_symmetry_space_group_name_H-M   'P 21 21 21'
_symmetry_Int_Tables_number      19
_space_group_name_Hall           'P 2ac 2ab'
loop_
_symmetry_equiv_pos_site_id
_symmetry_equiv_pos_as_xyz
1 x,y,z
2 1/2-x,-y,1/2+z
3 1/2+x,1/2-y,-z
4 -x,1/2+y,1/2-z
_cell_length_a                   9.1158(3)
_cell_length_b                   9.8126(3)
_cell_length_c                   28.3116(9)
_cell_angle_alpha                90
_cell_angle_beta                 90
_cell_angle_gamma                90
_cell_volume                     2532.46
_exptl_crystal_colour            colorless
_exptl_crystal_description       plate
_chemical_melting_point          '116-118 deg.C'
_cell_formula_units_Z            4
loop_
_atom_site_label
_atom_site_type_symbol
_atom_site_fract_x
_atom_site_fract_y
_atom_site_fract_z
O1 O 0.4314(3) 0.9294(3) 0.07075(8)
O2 O 0.6318(3) 1.0340(3) 0.12526(9)
O3 O 0.4676(3) 1.1030(4) 0.17896(10)
O4 O 0.4487(3) 1.0318(3) 0.00204(8)
O5 O 0.5691(3) 1.2893(3) 0.04444(12)
N1 N 0.3262(4) 1.2749(4) 0.03506(11)
H1 H 0.255(5) 1.308(4) 0.0210(13)
C1 C 0.3178(4) 1.1516(4) 0.06130(11)
C2 C 0.2330(4) 1.1361(4) 0.09957(11)
C3 C 0.2404(4) 1.0000(4) 0.12409(12)
H2 H 0.1706 0.9377 0.1098
H3 H 0.2148 1.0107 0.1571
C4 C 0.3934(4) 0.9421(4) 0.11998(11)
C5 C 0.4044(4) 1.0373(4) 0.04196(12)
C6 C 0.4053(4) 0.8000(5) 0.14132(12)
C7 C 0.4135(6) 0.7851(6) 0.18937(15)
H4 H 0.4117 0.8615 0.2088
C8 C 0.4244(7) 0.6549(7) 0.20916(18)
H5 H 0.4324 0.6457 0.2418
C9 C 0.4238(7) 0.5426(6) 0.1818(2)
H6 H 0.4289 0.4561 0.1952
C10 C 0.4155(8) 0.5586(6) 0.13455(19)
H7 H 0.4161 0.4819 0.1152
C11 C 0.4061(7) 0.6862(5) 0.11420(16)
H8 H 0.4002 0.6942 0.0815
C12 C 0.5004(4) 1.0370(5) 0.14438(12)
C13 C 0.7461(6) 1.1155(6) 0.14841(18)
H9 H 0.7020 1.1935 0.1639
H10 H 0.8150 1.1488 0.1250
C14 C 0.8248(6) 1.0304(7) 0.1838(2)
H11 H 0.8689 0.9537 0.1682
H12 H 0.7565 0.9988 0.2072
H13 H 0.8997 1.0839 0.1988
C15 C 0.1399(4) 1.2452(4) 0.12007(12)
C16 C 0.1516(4) 1.2730(5) 0.16850(13)
H14 H 0.2149 1.2222 0.1873
C17 C 0.0696(5) 1.3751(6) 0.18809(14)
H15 H 0.0790 1.3941 0.2201
C18 C -0.0269(5) 1.4504(5) 0.16110(15)
C19 C -0.0403(5) 1.4211(4) 0.11380(14)
H16 H -0.1061 1.4702 0.0953
C20 C 0.0423(5) 1.3206(4) 0.09373(12)
H17 H 0.0324 1.3026 0.0616
C21 C -0.1134(10) 1.5623(10) 0.1838(3)
C22 C 0.4581(5) 1.3365(4) 0.02775(13)
C23 C 0.4551(4) 1.4664(4) 0.00028(12)
C24 C 0.3412(4) 1.5041(4) -0.02915(14)
H18 H 0.2608 1.4469 -0.0331
C25 C 0.3473(5) 1.6280(5) -0.05287(15)
H19 H 0.2709 1.6540 -0.0727
C26 C 0.4660(6) 1.7115(4) -0.04698(16)
H20 H 0.4693 1.7945 -0.0628
C27 C 0.5787(6) 1.6753(5) -0.01850(16)
H21 H 0.6584 1.7334 -0.0148
C28 C 0.5753(5) 1.5522(5) 0.00503(14)
H22 H 0.6536 1.5267 0.0241
F1 F -0.223(2) 1.606(2) 0.1550(10)
F2 F -0.1504(16) 1.5498(15) 0.2245(4)
F3 F -0.012(2) 1.6810(16) 0.1863(6)
F4? F -0.2297(12) 1.4949(14) 0.2110(5)
F5? F -0.178(2) 1.645(2) 0.1563(8)
F6? F -0.044(2) 1.6342(17) 0.2133(5)
loop_
_geom_bond_atom_site_label_1
_geom_bond_atom_site_label_2
_geom_bond_site_symmetry_1
_geom_bond_site_symmetry_2
O1 C4 1_555 1_555
O2 C12 1_555 1_555
O3 C12 1_555 1_555
O4 C5 1_555 1_555
O5 C22 1_555 1_555
N1 H1 1_555 1_555
C1 N1 1_555 1_555
C2 C1 1_555 1_555
C3 C2 1_555 1_555
H2 C3 1_555 1_555
H3 C3 1_555 1_555
C4 C3 1_555 1_555
C5 O1 1_555 1_555
C6 C4 1_555 1_555
C7 C6 1_555 1_555
H4 C7 1_555 1_555
C8 C7 1_555 1_555
H5 C8 1_555 1_555
C9 C8 1_555 1_555
H6 C9 1_555 1_555
C10 C9 1_555 1_555
H7 C10 1_555 1_555
C11 C6 1_555 1_555
H8 C11 1_555 1_555
C12 C4 1_555 1_555
C13 O2 1_555 1_555
H9 C13 1_555 1_555
H10 C13 1_555 1_555
C14 C13 1_555 1_555
H11 C14 1_555 1_555
H12 C14 1_555 1_555
H13 C14 1_555 1_555
C15 C2 1_555 1_555
C16 C15 1_555 1_555
H14 C16 1_555 1_555
C17 C16 1_555 1_555
H15 C17 1_555 1_555
C18 C17 1_555 1_555
C19 C18 1_555 1_555
H16 C19 1_555 1_555
C20 C15 1_555 1_555
H17 C20 1_555 1_555
C21 C18 1_555 1_555
C22 N1 1_555 1_555
C23 C22 1_555 1_555
C24 C23 1_555 1_555
H18 C24 1_555 1_555
C25 C24 1_555 1_555
H19 C25 1_555 1_555
C26 C25 1_555 1_555
H20 C26 1_555 1_555
C27 C26 1_555 1_555
H21 C27 1_555 1_555
C28 C23 1_555 1_555
H22 C28 1_555 1_555
F1 C21 1_555 1_555
F2 C21 1_555 1_555
F3 C21 1_555 1_555
C1 C5 1_555 1_555
C10 C11 1_555 1_555
C19 C20 1_555 1_555
C27 C28 1_555 1_555

#END
