
#######################################################################
#
#                 Cambridge Crystallographic Data Centre
#                                CCDC 
#
#######################################################################
#
# If this CIF has been generated from an entry in the Cambridge 
# Structural Database, then it will include bibliographic, chemical, 
# crystal, experimental, refinement or atomic coordinate data resulting 
# from the CCDC's data processing and validation procedures.
#
#######################################################################

data_VALPII01
_chemical_formula_moiety         'C5 H12 N6 O5'
_chemical_name_systematic        N,N'-bis(2-(Nitroamino)ethyl)urea
_symmetry_cell_setting           orthorhombic
_symmetry_space_group_name_H-M   'P b c a'
_symmetry_Int_Tables_number      61
_space_group_name_Hall           '-P 2ac 2ab'
loop_
_symmetry_equiv_pos_site_id
_symmetry_equiv_pos_as_xyz
1 x,y,z
2 1/2-x,-y,1/2+z
3 1/2+x,1/2-y,-z
4 -x,1/2+y,1/2-z
5 -x,-y,-z
6 1/2+x,y,1/2-z
7 1/2-x,1/2+y,z
8 x,1/2-y,1/2+z
_cell_length_a                   11.0981(9)
_cell_length_b                   9.0675(8)
_cell_length_c                   20.042(1)
_cell_angle_alpha                90
_cell_angle_beta                 90
_cell_angle_gamma                90
_cell_volume                     2016.87
_cell_formula_units_Z            8
loop_
_atom_site_label
_atom_site_type_symbol
_atom_site_fract_x
_atom_site_fract_y
_atom_site_fract_z
O1 O 0.2097(2) 0.0318(2) 0.4081(1)
O2 O -0.1425(2) -0.0723(2) 0.4072(1)
O3 O -0.3167(2) 0.0099(2) 0.4400(1)
O4 O 0.3555(2) -0.1189(2) 0.2669(1)
O5 O 0.1844(2) -0.0389(2) 0.2291(1)
N1 N 0.1500(2) 0.2597(3) 0.4372(1)
N2 N 0.3399(2) 0.2228(3) 0.3974(1)
N3 N -0.1738(2) 0.1655(3) 0.4116(1)
N4 N -0.2118(3) 0.0280(3) 0.4200(1)
N5 N 0.3222(2) 0.1198(3) 0.2591(1)
N6 N 0.2861(2) -0.0188(3) 0.2520(1)
C1 C 0.2312(2) 0.1649(3) 0.4135(1)
C2 C 0.0289(2) 0.2173(3) 0.4544(1)
C3 C -0.0518(2) 0.2011(3) 0.3941(1)
C4 C 0.4334(2) 0.1393(3) 0.3654(1)
C5 C 0.4348(2) 0.1551(3) 0.2903(1)
H1 H 0.170(2) 0.348(3) 0.439(1)
H2 H 0.343(2) 0.321(4) 0.401(1)
H3 H -0.224(3) 0.230(3) 0.420(3)
H4 H 0.269(3) 0.181(3) 0.251(1)
loop_
_geom_bond_atom_site_label_1
_geom_bond_atom_site_label_2
_geom_bond_site_symmetry_1
_geom_bond_site_symmetry_2
O1 C1 1_555 1_555
O2 N4 1_555 1_555
O3 N4 1_555 1_555
O4 N6 1_555 1_555
O5 N6 1_555 1_555
N1 C1 1_555 1_555
N2 C1 1_555 1_555
N3 N4 1_555 1_555
N5 N6 1_555 1_555
C2 N1 1_555 1_555
C3 N3 1_555 1_555
C4 N2 1_555 1_555
C5 N5 1_555 1_555
H1 N1 1_555 1_555
H2 N2 1_555 1_555
H3 N3 1_555 1_555
H4 N5 1_555 1_555
C2 C3 1_555 1_555
C4 C5 1_555 1_555

#END
