
#######################################################################
#
#                 Cambridge Crystallographic Data Centre
#                                CCDC 
#
#######################################################################
#
# If this CIF has been generated from an entry in the Cambridge 
# Structural Database, then it will include bibliographic, chemical, 
# crystal, experimental, refinement or atomic coordinate data resulting 
# from the CCDC's data processing and validation procedures.
#
#######################################################################

data_VALRIM
_chemical_formula_moiety         'C21 H21 B1 O4,0.5(H2 O1)'
_chemical_name_systematic        
'3-phenyl-4-(4,4,5,5-tetramethyl-1,3,2-dioxaborolan-2-yl)-1H-isochromen-1-one hemihydrate'
_symmetry_cell_setting           monoclinic
_symmetry_space_group_name_H-M   'P 21/n'
_symmetry_Int_Tables_number      14
_space_group_name_Hall           '-P 2yn'
loop_
_symmetry_equiv_pos_site_id
_symmetry_equiv_pos_as_xyz
1 x,y,z
2 1/2-x,1/2+y,1/2-z
3 -x,-y,-z
4 1/2+x,1/2-y,1/2+z
_cell_length_a                   19.7607(18)
_cell_length_b                   10.0627(9)
_cell_length_c                   20.2687(18)
_cell_angle_alpha                90
_cell_angle_beta                 114.3955(11)
_cell_angle_gamma                90
_cell_volume                     3670.5
_exptl_crystal_colour            colorless
_exptl_crystal_description       needle
_cell_formula_units_Z            8
loop_
_atom_site_label
_atom_site_type_symbol
_atom_site_fract_x
_atom_site_fract_y
_atom_site_fract_z
O1 O 0.13142(8) 0.32083(14) 0.47559(8)
O2 O 0.01790(8) 0.42204(16) 0.42627(8)
O3 O 0.08094(8) 0.16208(15) 0.65150(8)
O4 O 0.01728(9) 0.01057(17) 0.67977(9)
B1 B 0.06409(13) 0.3378(2) 0.47808(13)
C1 C 0.04266(11) 0.2577(2) 0.53301(12)
C2 C -0.02561(11) 0.1793(2) 0.50931(12)
C3 C -0.08066(12) 0.1836(2) 0.43796(12)
H1 H -0.0746 0.2408 0.4035
C4 C -0.14331(13) 0.1053(2) 0.41769(13)
H2 H -0.1800 0.1092 0.3693
C5 C -0.15362(13) 0.0205(2) 0.46722(13)
H3 H -0.1969 -0.0331 0.4526
C6 C -0.10056(12) 0.0151(2) 0.53741(13)
H4 H -0.1074 -0.0420 0.5715
C7 C -0.03664(12) 0.0936(2) 0.55860(12)
C8 C 0.01937(12) 0.0825(2) 0.63284(12)
C9 C 0.09134(11) 0.2471(2) 0.60285(11)
C10 C 0.16170(12) 0.3205(2) 0.63901(11)
C11 C 0.22684(12) 0.2535(2) 0.68245(12)
H5 H 0.2256 0.1605 0.6902
C12 C 0.29321(13) 0.3222(3) 0.71428(13)
H6 H 0.3375 0.2759 0.7433
C13 C 0.29557(13) 0.4582(3) 0.70405(13)
H7 H 0.3413 0.5049 0.7254
C14 C 0.23065(13) 0.5253(2) 0.66238(13)
H8 H 0.2319 0.6186 0.6558
C15 C 0.16385(13) 0.4572(2) 0.63020(12)
H9 H 0.1195 0.5041 0.6021
C16 C 0.13620(12) 0.4200(2) 0.42457(12)
C17 C 0.05294(12) 0.4465(2) 0.37560(12)
C18 C 0.17598(13) 0.5395(2) 0.46951(13)
H10 H 0.1862 0.6040 0.4386
H11 H 0.2229 0.5109 0.5084
H12 H 0.1445 0.5809 0.4905
C19 C 0.18031(13) 0.3614(2) 0.38627(13)
H13 H 0.1815 0.4244 0.3499
H14 H 0.1569 0.2784 0.3624
H15 H 0.2311 0.3432 0.4216
C20 C 0.01839(13) 0.3463(2) 0.31446(13)
H16 H 0.0381 0.3606 0.2779
H17 H -0.0357 0.3579 0.2922
H18 H 0.0305 0.2560 0.3339
C21 C 0.03612(14) 0.5868(2) 0.34696(13)
H19 H 0.0602 0.6038 0.3141
H20 H 0.0550 0.6496 0.3875
H21 H -0.0177 0.5979 0.3207
O5 O 0.66080(8) 0.18364(15) 0.54638(8)
O6 O 0.58766(8) 0.08739(16) 0.59575(9)
O7 O 0.45620(8) 0.31196(16) 0.35984(8)
O8 O 0.36429(10) 0.45667(18) 0.32700(10)
B2 B 0.59049(14) 0.1629(2) 0.54099(14)
C22 C 0.52060(12) 0.2319(2) 0.48157(12)
C23 C 0.47141(12) 0.3117(2) 0.50316(13)
C24 C 0.47756(13) 0.3178(2) 0.57469(13)
H22 H 0.5127 0.2630 0.6108
C25 C 0.43317(13) 0.4025(3) 0.59320(15)
H23 H 0.4380 0.4051 0.6418
C26 C 0.38128(13) 0.4844(3) 0.54111(15)
H24 H 0.3515 0.5436 0.5544
C27 C 0.37352(13) 0.4789(2) 0.47098(14)
H25 H 0.3378 0.5337 0.4354
C28 C 0.41771(12) 0.3932(2) 0.45107(13)
C29 C 0.40918(12) 0.3932(2) 0.37628(14)
C30 C 0.51068(12) 0.2359(2) 0.41178(12)
C31 C 0.55572(12) 0.1669(2) 0.37982(12)
C32 C 0.58255(13) 0.2351(2) 0.33557(12)
H26 H 0.5682 0.3247 0.3225
C33 C 0.62985(13) 0.1728(3) 0.31069(12)
H27 H 0.6492 0.2206 0.2819
C34 C 0.64901(13) 0.0407(3) 0.32768(12)
H28 H 0.6816 -0.0018 0.3106
C35 C 0.62086(13) -0.0296(2) 0.36950(13)
H29 H 0.6334 -0.1206 0.3803
C36 C 0.57426(13) 0.0330(2) 0.39573(12)
H30 H 0.5550 -0.0152 0.4245
C37 C 0.71012(12) 0.0985(2) 0.60543(13)
C38 C 0.66416(12) 0.0786(2) 0.65114(13)
C39 C 0.72074(15) -0.0297(3) 0.57102(15)
H31 H 0.7580 -0.0851 0.6081
H32 H 0.7376 -0.0087 0.5330
H33 H 0.6735 -0.0778 0.5498
C40 C 0.78346(13) 0.1691(3) 0.64419(14)
H34 H 0.8145 0.1185 0.6874
H35 H 0.7746 0.2582 0.6585
H36 H 0.8088 0.1763 0.6118
C41 C 0.67428(15) -0.0545(3) 0.68914(16)
H37 H 0.7255 -0.0623 0.7256
H38 H 0.6638 -0.1262 0.6536
H39 H 0.6400 -0.0608 0.7128
C42 C 0.67406(15) 0.1913(3) 0.70431(14)
H40 H 0.7235 0.1855 0.7442
H41 H 0.6361 0.1843 0.7236
H42 H 0.6689 0.2767 0.6794
O9 O 0.0876(4) 0.0918(7) 0.2680(4)
H43 H 0.0462 0.0590 0.2665
H44 H 0.0955 0.0618 0.2316
loop_
_geom_bond_atom_site_label_1
_geom_bond_atom_site_label_2
_geom_bond_site_symmetry_1
_geom_bond_site_symmetry_2
O1 B1 1_555 1_555
O2 B1 1_555 1_555
O3 C8 1_555 1_555
O4 C8 1_555 1_555
B1 C1 1_555 1_555
C1 C2 1_555 1_555
C2 C3 1_555 1_555
C3 H1 1_555 1_555
C4 C3 1_555 1_555
H2 C4 1_555 1_555
C5 C4 1_555 1_555
H3 C5 1_555 1_555
C6 C5 1_555 1_555
H4 C6 1_555 1_555
C7 C2 1_555 1_555
C8 C7 1_555 1_555
C9 O3 1_555 1_555
C10 C9 1_555 1_555
C11 C10 1_555 1_555
H5 C11 1_555 1_555
C12 C11 1_555 1_555
H6 C12 1_555 1_555
C13 C12 1_555 1_555
H7 C13 1_555 1_555
C14 C13 1_555 1_555
H8 C14 1_555 1_555
C15 C10 1_555 1_555
H9 C15 1_555 1_555
C16 O1 1_555 1_555
C17 O2 1_555 1_555
C18 C16 1_555 1_555
H10 C18 1_555 1_555
H11 C18 1_555 1_555
H12 C18 1_555 1_555
C19 C16 1_555 1_555
H13 C19 1_555 1_555
H14 C19 1_555 1_555
H15 C19 1_555 1_555
C20 C17 1_555 1_555
H16 C20 1_555 1_555
H17 C20 1_555 1_555
H18 C20 1_555 1_555
C21 C17 1_555 1_555
H19 C21 1_555 1_555
H20 C21 1_555 1_555
H21 C21 1_555 1_555
O5 B2 1_555 1_555
O6 B2 1_555 1_555
O7 C29 1_555 1_555
O8 C29 1_555 1_555
B2 C22 1_555 1_555
C22 C23 1_555 1_555
C23 C24 1_555 1_555
C24 H22 1_555 1_555
C25 C24 1_555 1_555
H23 C25 1_555 1_555
C26 C25 1_555 1_555
H24 C26 1_555 1_555
C27 C26 1_555 1_555
H25 C27 1_555 1_555
C28 C23 1_555 1_555
C29 C28 1_555 1_555
C30 O7 1_555 1_555
C31 C30 1_555 1_555
C32 C31 1_555 1_555
H26 C32 1_555 1_555
C33 C32 1_555 1_555
H27 C33 1_555 1_555
C34 C33 1_555 1_555
H28 C34 1_555 1_555
C35 C34 1_555 1_555
H29 C35 1_555 1_555
C36 C31 1_555 1_555
H30 C36 1_555 1_555
C37 O5 1_555 1_555
C38 O6 1_555 1_555
C39 C37 1_555 1_555
H31 C39 1_555 1_555
H32 C39 1_555 1_555
H33 C39 1_555 1_555
C40 C37 1_555 1_555
H34 C40 1_555 1_555
H35 C40 1_555 1_555
H36 C40 1_555 1_555
C41 C38 1_555 1_555
H37 C41 1_555 1_555
H38 C41 1_555 1_555
H39 C41 1_555 1_555
C42 C38 1_555 1_555
H40 C42 1_555 1_555
H41 C42 1_555 1_555
H42 C42 1_555 1_555
O9 H43 1_555 1_555
H44 O9 1_555 1_555
C1 C9 1_555 1_555
C6 C7 1_555 1_555
C14 C15 1_555 1_555
C16 C17 1_555 1_555
C22 C30 1_555 1_555
C27 C28 1_555 1_555
C35 C36 1_555 1_555
C37 C38 1_555 1_555

#END
