
#######################################################################
#
#                 Cambridge Crystallographic Data Centre
#                                CCDC 
#
#######################################################################
#
# If this CIF has been generated from an entry in the Cambridge 
# Structural Database, then it will include bibliographic, chemical, 
# crystal, experimental, refinement or atomic coordinate data resulting 
# from the CCDC's data processing and validation procedures.
#
#######################################################################

data_VALSEJ
_chemical_formula_moiety         'C15 H18 N2 O2'
_chemical_name_systematic        
(3Z,4E)-3-benzylidene-1-t-butyl-4-(methoxyimino)azetidin-2-one
_symmetry_cell_setting           monoclinic
_symmetry_space_group_name_H-M   'P 21/n'
_symmetry_Int_Tables_number      14
_space_group_name_Hall           '-P 2yn'
loop_
_symmetry_equiv_pos_site_id
_symmetry_equiv_pos_as_xyz
1 x,y,z
2 1/2-x,1/2+y,1/2-z
3 -x,-y,-z
4 1/2+x,1/2-y,1/2+z
_cell_length_a                   7.237(3)
_cell_length_b                   11.544(5)
_cell_length_c                   16.870(8)
_cell_angle_alpha                90
_cell_angle_beta                 94.546(9)
_cell_angle_gamma                90
_cell_volume                     1404.95
_exptl_crystal_colour            colorless
_exptl_crystal_description       prismatic
_cell_formula_units_Z            4
loop_
_atom_site_label
_atom_site_type_symbol
_atom_site_fract_x
_atom_site_fract_y
_atom_site_fract_z
N1 N 0.2253(6) 1.0221(3) 0.1098(2)
N2 N 0.2655(6) 1.1120(3) -0.0177(2)
O1 O 0.2097(7) 0.8379(3) 0.16726(19)
O2 O 0.2879(6) 1.0699(3) -0.09602(18)
C1 C 0.2215(7) 0.9026(4) 0.1122(3)
C2 C 0.2488(6) 1.0250(4) 0.0272(2)
C3 C 0.2447(6) 0.8970(4) 0.0245(2)
C4 C 0.2615(6) 0.8191(4) -0.0327(3)
H1 H 0.2778 0.8496 -0.0827
C5 C 0.2582(6) 0.6925(4) -0.0284(3)
C6 C 0.2357(8) 0.6330(4) 0.0410(3)
H2 H 0.2203 0.6737 0.0876
C7 C 0.2358(9) 0.5137(5) 0.0418(4)
H3 H 0.2231 0.4746 0.0893
C8 C 0.2542(8) 0.4523(5) -0.0260(4)
H4 H 0.2524 0.3718 -0.0249
C9 C 0.2756(9) 0.5094(5) -0.0961(4)
H5 H 0.2889 0.4680 -0.1426
C10 C 0.2770(8) 0.6297(4) -0.0969(3)
H6 H 0.2909 0.6686 -0.1443
C11 C 0.2895(10) 1.1671(5) -0.1473(3)
H7 H 0.1719 1.2058 -0.1487
H8 H 0.3118 1.1417 -0.1999
H9 H 0.3858 1.2195 -0.1281
C12 C 0.2374(7) 1.1078(4) 0.1761(2)
C13 C 0.2306(9) 1.2292(4) 0.1403(3)
H10 H 0.3351 1.2401 0.1094
H11 H 0.2342 1.2856 0.1822
H12 H 0.1181 1.2383 0.1067
C14 C 0.4185(8) 1.0878(5) 0.2264(3)
H13 H 0.4195 1.0109 0.2481
H14 H 0.4297 1.1432 0.2689
H15 H 0.5206 1.0966 0.1939
C15 C 0.0718(8) 1.0887(5) 0.2251(3)
H16 H -0.0408 1.0956 0.1913
H17 H 0.0729 1.1458 0.2665
H18 H 0.0790 1.0128 0.2483
loop_
_geom_bond_atom_site_label_1
_geom_bond_atom_site_label_2
_geom_bond_site_symmetry_1
_geom_bond_site_symmetry_2
N1 C1 1_555 1_555
N2 O2 1_555 1_555
O1 C1 1_555 1_555
O2 C11 1_555 1_555
C1 C3 1_555 1_555
C2 N1 1_555 1_555
C3 C2 1_555 1_555
C4 C3 1_555 1_555
H1 C4 1_555 1_555
C5 C4 1_555 1_555
C6 C5 1_555 1_555
H2 C6 1_555 1_555
C7 C6 1_555 1_555
H3 C7 1_555 1_555
C8 C7 1_555 1_555
H4 C8 1_555 1_555
C9 C8 1_555 1_555
H5 C9 1_555 1_555
C10 C5 1_555 1_555
H6 C10 1_555 1_555
C11 H7 1_555 1_555
H8 C11 1_555 1_555
H9 C11 1_555 1_555
C12 N1 1_555 1_555
C13 C12 1_555 1_555
H10 C13 1_555 1_555
H11 C13 1_555 1_555
H12 C13 1_555 1_555
C14 C12 1_555 1_555
H13 C14 1_555 1_555
H14 C14 1_555 1_555
H15 C14 1_555 1_555
C15 C12 1_555 1_555
H16 C15 1_555 1_555
H17 C15 1_555 1_555
H18 C15 1_555 1_555
N2 C2 1_555 1_555
C9 C10 1_555 1_555

#END
