
#######################################################################
#
#                 Cambridge Crystallographic Data Centre
#                                CCDC 
#
#######################################################################
#
# If this CIF has been generated from an entry in the Cambridge 
# Structural Database, then it will include bibliographic, chemical, 
# crystal, experimental, refinement or atomic coordinate data resulting 
# from the CCDC's data processing and validation procedures.
#
#######################################################################

data_VAMCUK01
_chemical_formula_moiety         'C4 H7 N2 1+,N1 O3 1-'
_chemical_name_systematic        '2-methyl-1H-imidazol-3-ium nitrate'
_symmetry_cell_setting           orthorhombic
_symmetry_space_group_name_H-M   'P n m a'
_symmetry_Int_Tables_number      62
_space_group_name_Hall           '-P 2ac 2n'
loop_
_symmetry_equiv_pos_site_id
_symmetry_equiv_pos_as_xyz
1 x,y,z
2 1/2-x,-y,1/2+z
3 1/2+x,1/2-y,1/2-z
4 -x,1/2+y,-z
5 -x,-y,-z
6 1/2+x,y,1/2-z
7 1/2-x,1/2+y,1/2+z
8 x,1/2-y,z
_cell_length_a                   14.296(3)
_cell_length_b                   6.3180(12)
_cell_length_c                   7.3862(13)
_cell_angle_alpha                90
_cell_angle_beta                 90
_cell_angle_gamma                90
_cell_volume                     667.137
_exptl_crystal_description       block
_cell_formula_units_Z            4
loop_
_atom_site_label
_atom_site_type_symbol
_atom_site_fract_x
_atom_site_fract_y
_atom_site_fract_z
O1 O 0.17867(10) 0.2500 0.6386(2)
O2 O 0.03384(13) 0.2500 0.7222(2)
N1 N 0.09386(12) 0.2500 0.6030(2)
O3 O 0.06990(10) 0.2500 0.43883(18)
N2 N 0.37637(13) 0.2500 0.0947(2)
N3 N 0.25242(13) 0.2500 0.2541(3)
C1 C 0.34480(15) 0.2500 0.2629(3)
C2 C 0.22538(17) 0.2500 0.0743(4)
C3 C 0.30313(17) 0.2500 -0.0236(3)
C4 C 0.4031(2) 0.2500 0.4280(3)
H1 H 0.155(2) 0.2500 0.043(4)
H2 H 0.3058(19) 0.2500 -0.152(3)
H3 H 0.215(2) 0.2500 0.348(4)
H4 H 0.441(2) 0.2500 0.064(3)
H5? H 0.4198 0.3928 0.4584
H6? H 0.4588 0.1689 0.4068
H7? H 0.3685 0.1883 0.5261
loop_
_geom_bond_atom_site_label_1
_geom_bond_atom_site_label_2
_geom_bond_site_symmetry_1
_geom_bond_site_symmetry_2
O1 N1 1_555 1_555
O2 N1 1_555 1_555
N1 O3 1_555 1_555
N2 C1 1_555 1_555
N3 C1 1_555 1_555
C1 C4 1_555 1_555
C2 N3 1_555 1_555
C3 N2 1_555 1_555
H1 C2 1_555 1_555
H2 C3 1_555 1_555
H3 N3 1_555 1_555
H4 N2 1_555 1_555
C2 C3 1_555 1_555

#END
