
#######################################################################
#
#                 Cambridge Crystallographic Data Centre
#                                CCDC 
#
#######################################################################
#
# If this CIF has been generated from an entry in the Cambridge 
# Structural Database, then it will include bibliographic, chemical, 
# crystal, experimental, refinement or atomic coordinate data resulting 
# from the CCDC's data processing and validation procedures.
#
#######################################################################

data_VAMPEG
_chemical_formula_moiety         'C17 H23 N3 O3'
_chemical_name_systematic        
(4-Nitrophenyl)(3,3,6-trimethyloctahydro-2H-indazol-2-yl)methanone
_symmetry_cell_setting           monoclinic
_symmetry_space_group_name_H-M   'P 21/n'
_symmetry_Int_Tables_number      14
_space_group_name_Hall           '-P 2yn'
loop_
_symmetry_equiv_pos_site_id
_symmetry_equiv_pos_as_xyz
1 x,y,z
2 1/2-x,1/2+y,1/2-z
3 -x,-y,-z
4 1/2+x,1/2-y,1/2+z
_cell_length_a                   8.0912(14)
_cell_length_b                   11.382(2)
_cell_length_c                   36.319(6)
_cell_angle_alpha                90
_cell_angle_beta                 95.861(2)
_cell_angle_gamma                90
_cell_volume                     3327.28
_exptl_crystal_colour            yellow
_exptl_crystal_description       parallelepiped
_cell_formula_units_Z            8
loop_
_atom_site_label
_atom_site_type_symbol
_atom_site_fract_x
_atom_site_fract_y
_atom_site_fract_z
O1 O 0.2434(2) -0.06388(14) 0.10795(5)
O2 O 0.7010(4) -0.2882(2) 0.27242(8)
O3 O 0.6949(4) -0.4209(2) 0.23054(7)
N1 N 0.3880(2) 0.09695(16) 0.12637(5)
N2 N 0.5055(3) 0.15739(17) 0.15201(6)
H1 H 0.601(3) 0.141(2) 0.1430(6)
N3 N 0.6651(3) -0.3226(2) 0.24113(8)
C1 C 0.3461(3) -0.0157(2) 0.13068(6)
C2 C 0.4643(3) 0.2823(2) 0.14435(7)
H2 H 0.3625 0.3028 0.1565
C3 C 0.4216(3) 0.2852(2) 0.10229(7)
H3 H 0.3532 0.3566 0.0954
C4 C 0.3123(3) 0.1746(2) 0.09567(7)
C5 C 0.4292(3) -0.0881(2) 0.16236(6)
C6 C 0.4310(4) -0.2085(2) 0.15591(8)
H4 H 0.3793 -0.2385 0.1332
C7 C 0.5058(4) -0.2849(2) 0.18170(8)
H5 H 0.5079 -0.3669 0.1768
C8 C 0.5770(3) -0.2407(2) 0.21444(7)
C9 C 0.5726(4) -0.1234(2) 0.22259(7)
H6 H 0.6190 -0.0948 0.2460
C10 C 0.4992(3) -0.0469(2) 0.19602(7)
H7 H 0.4971 0.0349 0.2011
C11 C 0.6052(4) 0.3642(2) 0.15915(8)
H8 H 0.5616 0.4454 0.1594
H9 H 0.6417 0.3420 0.1851
C12 C 0.7539(3) 0.3630(2) 0.13749(8)
H10 H 0.8083 0.2842 0.1406
C13 C 0.6987(4) 0.3811(2) 0.09672(8)
H11 H 0.7969 0.3788 0.0826
H12 H 0.6463 0.4594 0.0931
C14 C 0.5757(3) 0.2869(2) 0.08211(7)
H13 H 0.5432 0.3009 0.0554
H14 H 0.6304 0.2092 0.0846
C15 C 0.8793(4) 0.4567(3) 0.15272(10)
H15 H 0.8274 0.5344 0.1503
H16 H 0.9766 0.4547 0.1387
H17 H 0.9140 0.4407 0.1789
C16 C 0.3212(3) 0.1190(2) 0.05765(7)
H18 H 0.4346 0.0914 0.0556
H19 H 0.2907 0.1776 0.0384
H20 H 0.2441 0.0525 0.0546
C17 C 0.1318(3) 0.2001(2) 0.10158(8)
H21 H 0.0700 0.1261 0.1017
H22 H 0.0820 0.2503 0.0815
H23 H 0.1275 0.2404 0.1253
O4 O 0.7534(2) 0.00188(17) 0.12299(5)
O5 O 1.2588(3) -0.2280(2) 0.28089(6)
O6 O 1.2406(3) -0.0419(2) 0.28800(6)
N4 N 0.8740(2) -0.15413(17) 0.09858(5)
N5 N 0.9947(3) -0.24677(17) 0.10188(6)
H24 H 1.092(3) -0.213(2) 0.0992(7)
N6 N 1.2125(3) -0.1308(3) 0.26987(7)
C18 C 0.8507(3) -0.0823(2) 0.12703(7)
C19 C 0.9427(3) -0.3218(2) 0.06999(6)
H25 H 0.8451 -0.3691 0.0762
C20 C 0.8810(3) -0.2346(2) 0.03924(6)
H26 H 0.8024 -0.2752 0.0203
C21 C 0.7857(3) -0.1435(2) 0.06041(7)
C22 C 0.9481(3) -0.1020(2) 0.16400(7)
C23 C 1.0021(3) -0.0021(2) 0.18372(7)
H27 H 0.9789 0.0734 0.1732
C24 C 1.0889(3) -0.0111(2) 0.21825(7)
H28 H 1.1280 0.0572 0.2314
C25 C 1.1178(3) -0.1210(2) 0.23331(7)
C26 C 1.0627(4) -0.2215(2) 0.21499(7)
H29 H 1.0825 -0.2965 0.2261
C27 C 0.9781(4) -0.2113(2) 0.18021(7)
H30 H 0.9398 -0.2800 0.1672
C28 C 1.0765(3) -0.4068(2) 0.06069(7)
H31 H 1.0233 -0.4709 0.0453
H32 H 1.1277 -0.4424 0.0840
C29 C 1.2141(3) -0.3528(2) 0.04022(7)
H33 H 1.2812 -0.2993 0.0577
C30 C 1.1374(3) -0.2797(2) 0.00784(7)
H34 H 1.2268 -0.2434 -0.0050
H35 H 1.0715 -0.3313 -0.0100
C31 C 1.0264(3) -0.1843(2) 0.02086(7)
H36 H 0.9831 -0.1357 -0.0006
H37 H 1.0928 -0.1328 0.0387
C32 C 1.3300(4) -0.4476(3) 0.02765(9)
H38 H 1.2663 -0.5021 0.0108
H39 H 1.3806 -0.4908 0.0493
H40 H 1.4174 -0.4107 0.0148
C33 C 0.7934(3) -0.0191(2) 0.04512(7)
H41 H 0.7241 0.0330 0.0586
H42 H 0.7525 -0.0191 0.0188
H43 H 0.9086 0.0088 0.0482
C34 C 0.6041(3) -0.1809(3) 0.06113(8)
H44 H 0.5999 -0.2627 0.0694
H45 H 0.5458 -0.1737 0.0362
H46 H 0.5506 -0.1302 0.0782
loop_
_geom_bond_atom_site_label_1
_geom_bond_atom_site_label_2
_geom_bond_site_symmetry_1
_geom_bond_site_symmetry_2
O1 C1 1_555 1_555
O2 N3 1_555 1_555
O3 N3 1_555 1_555
N1 N2 1_555 1_555
N2 H1 1_555 1_555
N3 C8 1_555 1_555
C1 N1 1_555 1_555
C2 N2 1_555 1_555
H2 C2 1_555 1_555
C3 C2 1_555 1_555
H3 C3 1_555 1_555
C4 N1 1_555 1_555
C5 C1 1_555 1_555
C6 C5 1_555 1_555
H4 C6 1_555 1_555
C7 C6 1_555 1_555
H5 C7 1_555 1_555
C8 C7 1_555 1_555
C9 C8 1_555 1_555
H6 C9 1_555 1_555
C10 C5 1_555 1_555
H7 C10 1_555 1_555
C11 C2 1_555 1_555
H8 C11 1_555 1_555
H9 C11 1_555 1_555
C12 C11 1_555 1_555
H10 C12 1_555 1_555
C13 C12 1_555 1_555
H11 C13 1_555 1_555
H12 C13 1_555 1_555
C14 C3 1_555 1_555
H13 C14 1_555 1_555
H14 C14 1_555 1_555
C15 C12 1_555 1_555
H15 C15 1_555 1_555
H16 C15 1_555 1_555
H17 C15 1_555 1_555
C16 C4 1_555 1_555
H18 C16 1_555 1_555
H19 C16 1_555 1_555
H20 C16 1_555 1_555
C17 C4 1_555 1_555
H21 C17 1_555 1_555
H22 C17 1_555 1_555
H23 C17 1_555 1_555
O4 C18 1_555 1_555
O5 N6 1_555 1_555
O6 N6 1_555 1_555
N4 N5 1_555 1_555
N5 H24 1_555 1_555
N6 C25 1_555 1_555
C18 N4 1_555 1_555
C19 N5 1_555 1_555
H25 C19 1_555 1_555
C20 C19 1_555 1_555
H26 C20 1_555 1_555
C21 N4 1_555 1_555
C22 C18 1_555 1_555
C23 C22 1_555 1_555
H27 C23 1_555 1_555
C24 C23 1_555 1_555
H28 C24 1_555 1_555
C25 C24 1_555 1_555
C26 C25 1_555 1_555
H29 C26 1_555 1_555
C27 C22 1_555 1_555
H30 C27 1_555 1_555
C28 C19 1_555 1_555
H31 C28 1_555 1_555
H32 C28 1_555 1_555
C29 C28 1_555 1_555
H33 C29 1_555 1_555
C30 C29 1_555 1_555
H34 C30 1_555 1_555
H35 C30 1_555 1_555
C31 C20 1_555 1_555
H36 C31 1_555 1_555
H37 C31 1_555 1_555
C32 C29 1_555 1_555
H38 C32 1_555 1_555
H39 C32 1_555 1_555
H40 C32 1_555 1_555
C33 C21 1_555 1_555
H41 C33 1_555 1_555
H42 C33 1_555 1_555
H43 C33 1_555 1_555
C34 C21 1_555 1_555
H44 C34 1_555 1_555
H45 C34 1_555 1_555
H46 C34 1_555 1_555
C3 C4 1_555 1_555
C9 C10 1_555 1_555
C13 C14 1_555 1_555
C20 C21 1_555 1_555
C26 C27 1_555 1_555
C30 C31 1_555 1_555

#END
