
#######################################################################
#
#                 Cambridge Crystallographic Data Centre
#                                CCDC 
#
#######################################################################
#
# If this CIF has been generated from an entry in the Cambridge 
# Structural Database, then it will include bibliographic, chemical, 
# crystal, experimental, refinement or atomic coordinate data resulting 
# from the CCDC's data processing and validation procedures.
#
#######################################################################

data_VAMPAC
_chemical_formula_moiety         'C17 H24 N2 O1'
_chemical_name_systematic        
cis-Phenyl(3,3,6-trimethyloctahydro-2H-indazol-2-yl)methanone
_symmetry_cell_setting           monoclinic
_symmetry_space_group_name_H-M   'C 2/c'
_symmetry_Int_Tables_number      15
_space_group_name_Hall           '-C 2yn'
loop_
_symmetry_equiv_pos_site_id
_symmetry_equiv_pos_as_xyz
1 x,y,z
2 -x,y,1/2-z
3 1/2+x,1/2+y,z
4 1/2-x,1/2+y,1/2-z
5 -x,-y,-z
6 x,-y,1/2+z
7 1/2-x,1/2-y,-z
8 1/2+x,1/2-y,1/2+z
_cell_length_a                   14.9036(5)
_cell_length_b                   9.9341(3)
_cell_length_c                   21.4212(6)
_cell_angle_alpha                90
_cell_angle_beta                 93.363(2)
_cell_angle_gamma                90
_cell_volume                     3166.03
_exptl_crystal_colour            colorless
_exptl_crystal_description       block
_cell_formula_units_Z            8
loop_
_atom_site_label
_atom_site_type_symbol
_atom_site_fract_x
_atom_site_fract_y
_atom_site_fract_z
O1 O 0.79240(8) 0.04610(12) 0.24663(6)
N1 N 0.87311(10) -0.29154(14) 0.23521(6)
H1 H 0.8243(13) -0.3487(19) 0.2398(8)
N2 N 0.83102(9) -0.16381(13) 0.21908(6)
C1 C 0.95640(12) -0.51127(19) 0.10315(8)
H2 H 1.0190(15) -0.463(2) 0.0981(9)
C2 C 0.88935(14) -0.4551(2) 0.05299(9)
H3 H 0.9130(13) -0.471(2) 0.0089(10)
H4 H 0.8325(14) -0.5091(19) 0.0577(9)
C3 C 0.86997(15) -0.3052(2) 0.06126(8)
H5 H 0.9282(16) -0.251(2) 0.0591(9)
H6 H 0.8216(15) -0.270(2) 0.0278(10)
C4 C 0.83910(11) -0.28523(18) 0.12682(7)
H7 H 0.7859(13) -0.3473(18) 0.1317(8)
C5 C 0.90949(12) -0.33150(18) 0.17582(7)
H8 H 0.9636(12) -0.2756(18) 0.1728(8)
C6 C 0.92877(14) -0.47954(19) 0.16926(9)
H9 H 0.9766(14) -0.510(2) 0.1999(9)
H10 H 0.8723(12) -0.5332(16) 0.1770(7)
C7 C 0.96881(14) -0.66230(19) 0.09505(10)
H11 H 0.9943 -0.6800 0.0547
H12 H 0.9105 -0.7074 0.0964
H13 H 1.0097 -0.6967 0.1289
C8 C 0.81204(11) -0.14575(17) 0.14994(7)
C9 C 0.86905(15) -0.03202(19) 0.12524(9)
H14 H 0.8553 0.0546 0.1475
H15 H 0.8547 -0.0227 0.0784
H16 H 0.9335 -0.0588 0.1339
C10 C 0.71196(12) -0.1189(2) 0.13597(9)
H17 H 0.6971 -0.0285 0.1505
H18 H 0.6767 -0.1857 0.1576
H19 H 0.6978 -0.1253 0.0908
C11 C 0.82013(11) -0.06855(16) 0.26201(8)
C12 C 0.83824(11) -0.10011(16) 0.32983(7)
C13 C 0.88102(12) -0.00184(19) 0.36718(9)
H20 H 0.9005(12) 0.0806(19) 0.3467(8)
C14 C 0.89414(13) -0.0211(2) 0.43098(9)
H21 H 0.9271(14) 0.048(2) 0.4558(10)
C15 C 0.86441(14) -0.1367(2) 0.45795(10)
H22 H 0.8722(14) -0.151(2) 0.5021(10)
C16 C 0.82058(14) -0.2341(2) 0.42178(9)
H23 H 0.7992(13) -0.319(2) 0.4406(9)
C17 C 0.80771(13) -0.21629(18) 0.35753(8)
H24 H 0.7754(12) -0.2832(19) 0.3319(8)
H25? H 0.8313 0.0476 0.1172
H26? H 0.8948 -0.0607 0.0863
H27? H 0.9177 -0.0100 0.1564
loop_
_geom_bond_atom_site_label_1
_geom_bond_atom_site_label_2
_geom_bond_site_symmetry_1
_geom_bond_site_symmetry_2
O1 C11 1_555 1_555
N1 H1 1_555 1_555
N2 N1 1_555 1_555
C1 H2 1_555 1_555
C2 C1 1_555 1_555
H3 C2 1_555 1_555
H4 C2 1_555 1_555
C3 C2 1_555 1_555
H5 C3 1_555 1_555
H6 C3 1_555 1_555
C4 C3 1_555 1_555
H7 C4 1_555 1_555
C5 N1 1_555 1_555
H8 C5 1_555 1_555
C6 C1 1_555 1_555
H9 C6 1_555 1_555
H10 C6 1_555 1_555
C7 C1 1_555 1_555
H11 C7 1_555 1_555
H12 C7 1_555 1_555
H13 C7 1_555 1_555
C8 N2 1_555 1_555
C9 C8 1_555 1_555
H14 C9 1_555 1_555
H15 C9 1_555 1_555
H16 C9 1_555 1_555
C10 C8 1_555 1_555
H17 C10 1_555 1_555
H18 C10 1_555 1_555
H19 C10 1_555 1_555
C11 N2 1_555 1_555
C12 C11 1_555 1_555
C13 C12 1_555 1_555
H20 C13 1_555 1_555
C14 C13 1_555 1_555
H21 C14 1_555 1_555
C15 C14 1_555 1_555
H22 C15 1_555 1_555
C16 C15 1_555 1_555
H23 C16 1_555 1_555
C17 C12 1_555 1_555
H24 C17 1_555 1_555
C4 C5 1_555 1_555
C4 C8 1_555 1_555
C5 C6 1_555 1_555
C16 C17 1_555 1_555

#END
