
#######################################################################
#
#                 Cambridge Crystallographic Data Centre
#                                CCDC 
#
#######################################################################
#
# If this CIF has been generated from an entry in the Cambridge 
# Structural Database, then it will include bibliographic, chemical, 
# crystal, experimental, refinement or atomic coordinate data resulting 
# from the CCDC's data processing and validation procedures.
#
#######################################################################

data_VAMRAC
_chemical_formula_moiety         'C33 H40 O6'
_chemical_name_systematic        
1\a,5\a-bis(3,4-Dimethoxyphenyl)-2\b,3\a,4\b-trimethyl-7,8-dimethoxy-1,2,2a(H\a),3,4,5-hexahydroacenaphthylene
_symmetry_cell_setting           triclinic
_symmetry_space_group_name_H-M   'P -1'
_symmetry_Int_Tables_number      2
_space_group_name_Hall           '-P 1'
loop_
_symmetry_equiv_pos_site_id
_symmetry_equiv_pos_as_xyz
1 x,y,z
2 -x,-y,-z
_cell_length_a                   10.460(3)
_cell_length_b                   11.876(4)
_cell_length_c                   13.870(4)
_cell_angle_alpha                63.50(3)
_cell_angle_beta                 74.51(3)
_cell_angle_gamma                89.49(3)
_cell_volume                     1473.74
_exptl_crystal_colour            colorless
_chemical_melting_point          126-127deg.C
_cell_formula_units_Z            2
loop_
_atom_site_label
_atom_site_type_symbol
_atom_site_fract_x
_atom_site_fract_y
_atom_site_fract_z
O1 O -0.3647(2) -0.0187(2) 1.1398(2)
O2 O -0.6185(2) 0.0241(2) 1.2064(2)
O3 O -0.7772(2) 0.6552(2) 1.2260(2)
O4 O -0.5548(2) 0.6409(2) 1.1014(2)
O5 O -0.0107(2) 0.4842(2) 0.8576(2)
O6 O 0.1883(2) 0.3955(2) 0.7697(2)
C1 C -0.2072(3) 0.1960(3) 1.3153(2)
C2 C -0.2461(3) 0.2055(3) 1.4255(2)
C3 C -0.3588(3) 0.2912(3) 1.4223(2)
C4 C -0.4865(3) 0.2431(3) 1.4071(2)
C5 C -0.5568(3) 0.1325(3) 1.3038(2)
C6 C -0.5260(3) 0.0698(3) 1.2387(2)
C7 C -0.3946(3) 0.0481(2) 1.2009(2)
C8 C -0.2960(2) 0.0904(2) 1.2313(2)
C9 C -0.1490(2) 0.0729(3) 1.2097(2)
C10 C -0.1114(3) 0.0998 1.3001(2)
C11 C -0.3284(2) 0.1570(2) 1.2936(2)
C12 C -0.4565(3) 0.1779(2) 1.3326(2)
C13 C -0.5699(3) 0.3507(3) 1.3638(2)
C14 C -0.5216(3) 0.4460(3) 1.2522(2)
C15 C -0.5932(3) 0.5457(3) 1.2089(3)
C16 C -0.7152(3) 0.5526(3) 1.2771(3)
C17 C -0.7628(3) 0.4591(3) 1.3858(3)
C18 C -0.6902(3) 0.3572(3) 1.4297(3)
C19 C -0.0827(3) 0.2822(3) 1.0294(2)
C20 C 0.0017(3) 0.3599(3) 0.9231(2)
C21 C 0.1097(3) 0.3128(3) 0.8751(2)
C22 C 0.1284(3) 0.1885(3) 0.9339(2)
C23 C 0.0428(3) 0.1116(3) 1.0413(2)
C24 C -0.0617(2) 0.1577(2) 1.0897(2)
C25 C -0.1307(3) -0.0233(3) 1.4089(3)
C26 C -0.1236(3) 0.2580(3) 1.4408(3)
C27 C -0.3991(4) 0.3136(4) 1.5256(3)
C28 C -0.4304(4) 0.6436(4) 1.0292(3)
C29 C -0.9016(4) 0.6662(4) 1.2916(4)
C30 C -0.7538(3) 0.0358(4) 1.2464(3)
C31 C -0.3491(4) 0.0590(4) 1.0217(3)
C32 C -0.1296(3) 0.5312(3) 0.8954(3)
C33 C 0.2906(4) 0.3457(4) 0.7152(3)
H1 H -0.1603(2) 0.2799(2) 1.2654(2)
H2 H -0.2785(3) 0.1231(3) 1.4888(2)
H3 H -0.3201(3) 0.3701(3) 1.3563(2)
H4 H -0.5373(3) 0.1794(3) 1.4806(2)
H5 H -0.6480(2) 0.1450(3) 1.3298(2)
H6 H -0.1334(2) -0.0096(2) 1.2159(2)
H7 H -0.0191(3) 0.1327(3) 1.2785(2)
H8 H -0.4374(3) 0.4422(3) 1.2050(2)
H9 H -0.8472(3) 0.4623(3) 1.4331(3)
H10 H -0.7248(3) 0.2922(3) 1.5063(2)
H11 H -0.1570(3) 0.3149(2) 1.0620(2)
H12 H 0.2008(3) 0.1543(3) 0.9010(2)
H13 H 0.0574(3) 0.0250(3) 1.0817(2)
H14 H -0.0801(3) -0.0843(3) 1.3933(3)
H15 H -0.2240(3) -0.0566(3) 1.4410(3)
H16 H -0.1004(3) -0.0061(3) 1.4612(3)
H17 H -0.1457(3) 0.2512(3) 1.5152(3)
H18 H -0.0970(3) 0.3455(3) 1.3858(3)
H19 H -0.0512(3) 0.2099(3) 1.4312(3)
H20 H -0.4687(4) 0.3675(3) 1.5200(3)
H21 H -0.3228(4) 0.3537(3) 1.5299(3)
H22 H -0.4310(4) 0.2338(3) 1.5922(3)
H23 H -0.4285(4) 0.5654(4) 1.0242(3)
H24 H -0.3603(4) 0.6528(4) 1.0590(3)
H25 H -0.4174(4) 0.7135(4) 0.9555(3)
H26 H -0.9327(4) 0.7447(4) 1.2499(4)
H27 H -0.8908(4) 0.6636(4) 1.3592(4)
H28 H -0.9656(4) 0.5963(4) 1.3111(4)
H29 H -0.7817(3) -0.0083(4) 1.3274(3)
H30 H -0.8070(3) -0.0008(4) 1.2182(3)
H31 H -0.7653(3) 0.1238(4) 1.2214(3)
H32 H -0.4220(3) 0.1087(3) 1.0126(3)
H33 H -0.3484(3) 0.0057(3) 0.9859(3)
H34 H -0.2661(3) 0.1144(3) 0.9875(3)
H35 H -0.1288(3) 0.6171(3) 0.8406(3)
H36 H -0.1332(3) 0.5290(3) 0.9662(3)
H37 H -0.2066(3) 0.4795(3) 0.9048(3)
H38 H 0.3403(4) 0.4124(3) 0.6429(3)
H39 H 0.2509(4) 0.2804(3) 0.7052(3)
H40 H 0.3498(4) 0.3105(3) 0.7606(3)
loop_
_geom_bond_atom_site_label_1
_geom_bond_atom_site_label_2
_geom_bond_site_symmetry_1
_geom_bond_site_symmetry_2
O1 C7 1_555 1_555
O2 C6 1_555 1_555
O3 C16 1_555 1_555
O4 C15 1_555 1_555
O5 C20 1_555 1_555
O6 C21 1_555 1_555
C1 C2 1_555 1_555
C2 C3 1_555 1_555
C3 C4 1_555 1_555
C4 C12 1_555 1_555
C5 C6 1_555 1_555
C6 C7 1_555 1_555
C7 C8 1_555 1_555
C8 C9 1_555 1_555
C9 C10 1_555 1_555
C10 C1 1_555 1_555
C11 C1 1_555 1_555
C12 C5 1_555 1_555
C13 C4 1_555 1_555
C14 C13 1_555 1_555
C15 C14 1_555 1_555
C16 C15 1_555 1_555
C17 C16 1_555 1_555
C18 C13 1_555 1_555
C19 C20 1_555 1_555
C20 C21 1_555 1_555
C21 C22 1_555 1_555
C22 C23 1_555 1_555
C23 C24 1_555 1_555
C24 C9 1_555 1_555
C25 C10 1_555 1_555
C26 C2 1_555 1_555
C27 C3 1_555 1_555
C28 O4 1_555 1_555
C29 O3 1_555 1_555
C30 O2 1_555 1_555
C31 O1 1_555 1_555
C32 O5 1_555 1_555
C33 O6 1_555 1_555
H1 C1 1_555 1_555
H2 C2 1_555 1_555
H3 C3 1_555 1_555
H4 C4 1_555 1_555
H5 C5 1_555 1_555
H6 C9 1_555 1_555
H7 C10 1_555 1_555
H8 C14 1_555 1_555
H9 C17 1_555 1_555
H10 C18 1_555 1_555
H11 C19 1_555 1_555
H12 C22 1_555 1_555
H13 C23 1_555 1_555
H14 C25 1_555 1_555
H15 C25 1_555 1_555
H16 C25 1_555 1_555
H17 C26 1_555 1_555
H18 C26 1_555 1_555
H19 C26 1_555 1_555
H20 C27 1_555 1_555
H21 C27 1_555 1_555
H22 C27 1_555 1_555
H23 C28 1_555 1_555
H24 C28 1_555 1_555
H25 C28 1_555 1_555
H26 C29 1_555 1_555
H27 C29 1_555 1_555
H28 C29 1_555 1_555
H29 C30 1_555 1_555
H30 C30 1_555 1_555
H31 C30 1_555 1_555
H32 C31 1_555 1_555
H33 C31 1_555 1_555
H34 C31 1_555 1_555
H35 C32 1_555 1_555
H36 C32 1_555 1_555
H37 C32 1_555 1_555
H38 C33 1_555 1_555
H39 C33 1_555 1_555
H40 C33 1_555 1_555
C8 C11 1_555 1_555
C11 C12 1_555 1_555
C17 C18 1_555 1_555
C19 C24 1_555 1_555

#END
