
#######################################################################
#
#                 Cambridge Crystallographic Data Centre
#                                CCDC 
#
#######################################################################
#
# If this CIF has been generated from an entry in the Cambridge 
# Structural Database, then it will include bibliographic, chemical, 
# crystal, experimental, refinement or atomic coordinate data resulting 
# from the CCDC's data processing and validation procedures.
#
#######################################################################

data_VAMSAF
_chemical_formula_moiety         'C25 H22 N2 O2 S1'
_chemical_name_systematic        
3-(Diphenylmethylene)-1-(phenylsulfonyl)piperidine-4-carbonitrile
_symmetry_cell_setting           monoclinic
_symmetry_space_group_name_H-M   'P 21'
_symmetry_Int_Tables_number      4
_space_group_name_Hall           'P 2yb'
loop_
_symmetry_equiv_pos_site_id
_symmetry_equiv_pos_as_xyz
1 x,y,z
2 -x,1/2+y,-z
_cell_length_a                   6.206(2)
_cell_length_b                   7.915(3)
_cell_length_c                   21.725(7)
_cell_angle_alpha                90
_cell_angle_beta                 93.109(8)
_cell_angle_gamma                90
_cell_volume                     1065.57
_exptl_crystal_colour            colorless
_exptl_crystal_description       tabular
_cell_formula_units_Z            2
loop_
_atom_site_label
_atom_site_type_symbol
_atom_site_fract_x
_atom_site_fract_y
_atom_site_fract_z
C1 C 0.5311(12) 0.3532(12) 0.6686(4)
H1 H 0.4295 0.3986 0.6373
H2 H 0.6723 0.3479 0.6515
C2 C 0.5394(11) 0.4642(12) 0.7246(3)
H3 H 0.5693 0.5794 0.7125
H4 H 0.6564 0.4273 0.7529
C3 C 0.3211(11) 0.4599(11) 0.7587(3)
H5 H 0.3393 0.5192 0.7982
C4 C 0.2555(11) 0.2844(11) 0.7689(3)
C5 C 0.2413(11) 0.1765(13) 0.7108(3)
H6 H 0.2017 0.0612 0.7203
H7 H 0.1354 0.2222 0.6808
C6 C 0.2108(10) 0.2212(11) 0.8251(3)
C7 C 0.2522(11) 0.3111(11) 0.8835(3)
C8 C 0.4605(14) 0.3797(15) 0.8992(4)
H8 H 0.5686 0.3726 0.8712
C9 C 0.5021(15) 0.4559(14) 0.9551(4)
H9 H 0.6367 0.5037 0.9646
C10 C 0.3429(15) 0.4621(14) 0.9979(4)
H10 H 0.3767 0.5069 1.0368
C11 C 0.1401(17) 0.4046(16) 0.9843(4)
H11 H 0.0306 0.4201 1.0113
C12 C 0.1013(13) 0.3187(12) 0.9265(3)
H12 H -0.0314 0.2666 0.9182
C13 C 0.1057(10) 0.0506(11) 0.8305(3)
C14 C -0.1021(12) 0.0202(17) 0.8029(3)
H13 H -0.1734 0.1032 0.7794
C15 C -0.1989(16) -0.1370(15) 0.8117(4)
H14 H -0.3340 -0.1586 0.7927
C16 C -0.1006(19) -0.2591(15) 0.8472(4)
H15 H -0.1715 -0.3606 0.8536
C17 C 0.1050(16) -0.2331(14) 0.8740(5)
H16 H 0.1765 -0.3188 0.8961
C18 C 0.2037(14) -0.0730(12) 0.8669(4)
H17 H 0.3367 -0.0512 0.8871
C19 C 0.3915(10) 0.0386(12) 0.5715(3)
C20 C 0.1926(12) -0.0441(12) 0.5666(4)
H18 H 0.1395 -0.1030 0.5996
C21 C 0.0761(14) -0.0339(15) 0.5091(4)
H19 H -0.0603 -0.0825 0.5043
C22 C 0.1622(19) 0.0475(17) 0.4596(4)
H20 H 0.0851 0.0522 0.4217
C23 C 0.362(2) 0.1211(15) 0.4669(4)
H21 H 0.4189 0.1765 0.4337
C24 C 0.4851(15) 0.1145(13) 0.5246(4)
H22 H 0.6229 0.1605 0.5292
C25 C 0.1624(12) 0.5452(14) 0.7193(3)
N1 N 0.4630(9) 0.1833(10) 0.6869(3)
N2 N 0.0287(13) 0.6127(13) 0.6884(4)
O1 O 0.4784(10) -0.1254(8) 0.6738(3)
O2 O 0.7625(8) 0.0503(11) 0.6346(3)
S1 S 0.5387(3) 0.0220(3) 0.64478(8)
loop_
_geom_bond_atom_site_label_1
_geom_bond_atom_site_label_2
_geom_bond_site_symmetry_1
_geom_bond_site_symmetry_2
C1 H1 1_555 1_555
H2 C1 1_555 1_555
C2 C1 1_555 1_555
H3 C2 1_555 1_555
H4 C2 1_555 1_555
C3 C2 1_555 1_555
H5 C3 1_555 1_555
C4 C3 1_555 1_555
C5 C4 1_555 1_555
H6 C5 1_555 1_555
H7 C5 1_555 1_555
C6 C4 1_555 1_555
C7 C6 1_555 1_555
C8 C7 1_555 1_555
H8 C8 1_555 1_555
C9 C8 1_555 1_555
H9 C9 1_555 1_555
C10 C9 1_555 1_555
H10 C10 1_555 1_555
C11 C10 1_555 1_555
H11 C11 1_555 1_555
C12 C7 1_555 1_555
H12 C12 1_555 1_555
C13 C6 1_555 1_555
C14 C13 1_555 1_555
H13 C14 1_555 1_555
C15 C14 1_555 1_555
H14 C15 1_555 1_555
C16 C15 1_555 1_555
H15 C16 1_555 1_555
C17 C16 1_555 1_555
H16 C17 1_555 1_555
C18 C13 1_555 1_555
H17 C18 1_555 1_555
C19 C20 1_555 1_555
C20 H18 1_555 1_555
C21 C20 1_555 1_555
H19 C21 1_555 1_555
C22 C21 1_555 1_555
H20 C22 1_555 1_555
C23 C22 1_555 1_555
H21 C23 1_555 1_555
C24 C19 1_555 1_555
H22 C24 1_555 1_555
C25 C3 1_555 1_555
N1 C1 1_555 1_555
N2 C25 1_555 1_555
O1 S1 1_555 1_555
O2 S1 1_555 1_555
S1 C19 1_555 1_555
C5 N1 1_555 1_555
C11 C12 1_555 1_555
C17 C18 1_555 1_555
C23 C24 1_555 1_555
N1 S1 1_555 1_555

#END
