
#######################################################################
#
#                 Cambridge Crystallographic Data Centre
#                                CCDC 
#
#######################################################################
#
# If this CIF has been generated from an entry in the Cambridge 
# Structural Database, then it will include bibliographic, chemical, 
# crystal, experimental, refinement or atomic coordinate data resulting 
# from the CCDC's data processing and validation procedures.
#
#######################################################################

data_VAMTIO
_chemical_formula_moiety         'C31 H20 Cl2 N6 O4,0.5(C1 H1 Cl3)'
_chemical_name_systematic        
'5,21-Dichloro-13,13-dimethyl-2,8,18,24-tetraoxa-4,6,20,22,34,39-hexaazaheptacyclo[23.5.3.2^9,12^.2^14,17^.1^3,7^.1^19,23^.0^28,32^]nonatriaconta-1(31),3(39),4,6,9,11,14,16,19(34),20,22,25,27,29,32,35,37-heptadecaene chloroform solvate'
_symmetry_cell_setting           tetragonal
_symmetry_space_group_name_H-M   'I 41 c d'
_symmetry_Int_Tables_number      110
_space_group_name_Hall           'I 4bw -2c'
loop_
_symmetry_equiv_pos_site_id
_symmetry_equiv_pos_as_xyz
1 x,y,z
2 1/2-x,1/2-y,1/2+z
3 -y,1/2+x,1/4+z
4 1/2+y,-x,3/4+z
5 x,-y,1/2+z
6 1/2-x,1/2+y,z
7 -y,1/2-x,3/4+z
8 1/2+y,x,1/4+z
9 1/2+x,1/2+y,1/2+z
10 -x,-y,z
11 1/2-y,x,3/4+z
12 y,1/2-x,1/4+z
13 1/2+x,1/2-y,z
14 -x,y,1/2+z
15 1/2-y,-x,1/4+z
16 y,1/2+x,3/4+z
_cell_length_a                   28.8658(19)
_cell_length_b                   28.8658(19)
_cell_length_c                   14.754(2)
_cell_angle_alpha                90
_cell_angle_beta                 90
_cell_angle_gamma                90
_cell_volume                     12293.5
_exptl_crystal_colour            colorless
_exptl_crystal_description       block
_cell_formula_units_Z            16
loop_
_atom_site_label
_atom_site_type_symbol
_atom_site_fract_x
_atom_site_fract_y
_atom_site_fract_z
C1 C 0.04411(15) 0.42714(15) 0.5992(3)
C2 C 0.06970(16) 0.38889(14) 0.6300(4)
H1 H 0.0563 0.3596 0.6325
C3 C 0.11355(16) 0.39526(15) 0.6555(3)
H2 H 0.1306 0.3699 0.6753
C4 C 0.13497(14) 0.43946(13) 0.6534(3)
C5 C 0.18131(16) 0.44715(16) 0.6802(4)
H3 H 0.1991 0.4222 0.6994
C6 C 0.20040(15) 0.49002(15) 0.6784(3)
H4 H 0.2311 0.4945 0.6956
C7 C 0.17343(14) 0.52692(13) 0.6506(3)
C8 C 0.12932(14) 0.52250(14) 0.6221(3)
H5 H 0.1127 0.5482 0.6022
C9 C 0.10862(14) 0.47773(14) 0.6233(3)
C10 C 0.06219(14) 0.47028(14) 0.5942(3)
H6 H 0.0445 0.4947 0.5720
C11 C 0.21987(13) 0.58468(14) 0.5842(3)
C12 C 0.25240(14) 0.56921(13) 0.4525(3)
C13 C 0.25946(15) 0.63736(14) 0.5128(4)
C14 C 0.24730(14) 0.49371(13) 0.3879(3)
C15 C 0.28030(16) 0.46204(15) 0.3698(3)
H7 H 0.3104 0.4713 0.3563
C16 C 0.26869(14) 0.41503(15) 0.3716(3)
H8 H 0.2913 0.3932 0.3579
C17 C 0.22520(13) 0.40046(13) 0.3929(3)
C18 C 0.19191(14) 0.43455(14) 0.4100(3)
H9 H 0.1618 0.4256 0.4239
C19 C 0.20237(15) 0.48077(14) 0.4069(3)
H10 H 0.1797 0.5030 0.4173
C20 C 0.21403(14) 0.34895(14) 0.4067(3)
C21 C 0.22721(18) 0.33757(19) 0.5047(4)
H11 H 0.2592 0.3451 0.5145
H12 H 0.2225 0.3051 0.5156
H13 H 0.2083 0.3553 0.5453
C22 C 0.24300(17) 0.31860(17) 0.3417(5)
H14 H 0.2345 0.2867 0.3492
H15 H 0.2753 0.3223 0.3553
H16 H 0.2373 0.3279 0.2803
C23 C 0.16314(13) 0.33943(12) 0.3879(3)
C24 C 0.14162(15) 0.35522(14) 0.3095(3)
H17 H 0.1596 0.3700 0.2658
C25 C 0.09512(14) 0.34997(14) 0.2938(3)
H18 H 0.0815 0.3615 0.2413
C26 C 0.06909(14) 0.32716(14) 0.3579(3)
C27 C 0.08859(16) 0.30858(14) 0.4321(3)
H19 H 0.0707 0.2915 0.4724
C28 C 0.13543(14) 0.31493(14) 0.4486(3)
H20 H 0.1485 0.3027 0.5009
C29 C -0.00635(14) 0.34656(14) 0.3989(3)
C30 C -0.01849(14) 0.39433(13) 0.5137(3)
C31 C -0.07712(14) 0.36380(17) 0.4412(4)
Cl1 Cl 0.28242(5) 0.69355(4) 0.50909(13)
Cl2 Cl -0.13661(4) 0.35849(6) 0.42717(15)
N1 N 0.23547(13) 0.62828(12) 0.5863(3)
N2 N 0.26957(13) 0.61153(12) 0.4434(3)
N3 N 0.22766(12) 0.55404(11) 0.5211(2)
N4 N -0.05173(12) 0.33986(13) 0.3842(3)
N5 N -0.06422(12) 0.39081(13) 0.5079(3)
N6 N 0.01210(11) 0.37328(12) 0.4618(3)
O1 O -0.00422(10) 0.42235(10) 0.5801(3)
O2 O 0.19290(11) 0.57278(10) 0.6538(2)
O3 O 0.26081(11) 0.54113(10) 0.3826(2)
O4 O 0.02062(10) 0.32327(11) 0.3428(2)
C32? C -0.0037(5) 0.4941(4) 0.2952(15)
H21? H 0.0021 0.4840 0.2328
Cl3? Cl -0.0284(5) 0.5488(3) 0.2963(6)
Cl4? Cl -0.0480(5) 0.4619(4) 0.3426(7)
Cl5? Cl 0.0468(7) 0.4917(6) 0.3577(9)
loop_
_geom_bond_atom_site_label_1
_geom_bond_atom_site_label_2
_geom_bond_site_symmetry_1
_geom_bond_site_symmetry_2
C1 C2 1_555 1_555
C2 H1 1_555 1_555
C3 C2 1_555 1_555
H2 C3 1_555 1_555
C4 C3 1_555 1_555
C5 C4 1_555 1_555
H3 C5 1_555 1_555
C6 C5 1_555 1_555
H4 C6 1_555 1_555
C7 C6 1_555 1_555
C8 C7 1_555 1_555
H5 C8 1_555 1_555
C9 C4 1_555 1_555
C10 C1 1_555 1_555
H6 C10 1_555 1_555
C11 N1 1_555 1_555
C12 N2 1_555 1_555
C13 Cl1 1_555 1_555
C14 C15 1_555 1_555
C15 H7 1_555 1_555
C16 C15 1_555 1_555
H8 C16 1_555 1_555
C17 C16 1_555 1_555
C18 C17 1_555 1_555
H9 C18 1_555 1_555
C19 C14 1_555 1_555
H10 C19 1_555 1_555
C20 C17 1_555 1_555
C21 C20 1_555 1_555
H11 C21 1_555 1_555
H12 C21 1_555 1_555
H13 C21 1_555 1_555
C22 C20 1_555 1_555
H14 C22 1_555 1_555
H15 C22 1_555 1_555
H16 C22 1_555 1_555
C23 C20 1_555 1_555
C24 C23 1_555 1_555
H17 C24 1_555 1_555
C25 C24 1_555 1_555
H18 C25 1_555 1_555
C26 C25 1_555 1_555
C27 C26 1_555 1_555
H19 C27 1_555 1_555
C28 C23 1_555 1_555
H20 C28 1_555 1_555
C29 N4 1_555 1_555
C30 N5 1_555 1_555
C31 Cl2 1_555 1_555
N1 C13 1_555 1_555
N2 C13 1_555 1_555
N3 C11 1_555 1_555
N4 C31 1_555 1_555
N5 C31 1_555 1_555
N6 C29 1_555 1_555
O1 C1 1_555 1_555
O2 C7 1_555 1_555
O3 C12 1_555 1_555
O4 C26 1_555 1_555
C8 C9 1_555 1_555
C9 C10 1_555 1_555
C11 O2 1_555 1_555
C12 N3 1_555 1_555
C14 O3 1_555 1_555
C18 C19 1_555 1_555
C27 C28 1_555 1_555
C29 O4 1_555 1_555
C30 N6 1_555 1_555
C30 O1 1_555 1_555

#END
