
#######################################################################
#
#                 Cambridge Crystallographic Data Centre
#                                CCDC 
#
#######################################################################
#
# If this CIF has been generated from an entry in the Cambridge 
# Structural Database, then it will include bibliographic, chemical, 
# crystal, experimental, refinement or atomic coordinate data resulting 
# from the CCDC's data processing and validation procedures.
#
#######################################################################

data_VAMTAF
_chemical_formula_moiety         '2(C1 H6 N3 1+),C10 H12 O6 S2 2-,C9 H12'
_chemical_name_systematic        
'bis(guanidinium) 2,4,5,6-tetramethylbenzene-1,3-disulfonate mesitylene clathrate'
_symmetry_cell_setting           monoclinic
_symmetry_space_group_name_H-M   'C 2'
_symmetry_Int_Tables_number      5
_space_group_name_Hall           'C 2y'
loop_
_symmetry_equiv_pos_site_id
_symmetry_equiv_pos_as_xyz
1 x,y,z
2 -x,y,-z
3 1/2+x,1/2+y,z
4 1/2-x,1/2+y,-z
_cell_length_a                   20.018(5)
_cell_length_b                   9.211(2)
_cell_length_c                   7.5579(19)
_cell_angle_alpha                90
_cell_angle_beta                 107.459(4)
_cell_angle_gamma                90
_cell_volume                     1329.37
_exptl_crystal_colour            colorless
_exptl_crystal_description       prism
_cell_formula_units_Z            2
loop_
_atom_site_label
_atom_site_type_symbol
_atom_site_fract_x
_atom_site_fract_y
_atom_site_fract_z
S1 S 0.14264(2) 0.04193(5) 0.14928(6)
O1 O 0.14177(8) 0.13000(15) 0.3092(2)
O2 O 0.14324(7) 0.13132(14) -0.00959(19)
O3 O 0.20110(7) -0.05923(17) 0.1953(2)
C1 C 0.06188(9) -0.0579(2) 0.0783(3)
C2 C 0.06115(9) -0.2102(2) 0.0960(3)
C3 C 0.0000 -0.2853(3) 0.0000
C4 C 0.0000 0.0222(3) 0.0000
C5 C 0.12192(11) -0.2967(2) 0.2182(3)
H1 H 0.1521 -0.3290 0.1450
H2 H 0.1040 -0.3815 0.2679
H3 H 0.1490 -0.2356 0.3209
C6 C 0.0000 -0.4509(4) 0.0000
C7 C 0.0000 0.1864(3) 0.0000
H7 H -0.0410 0.2219 -0.0975
C2A C -0.06115(9) -0.2102(2) -0.0960(3)
C1A C -0.06188(9) -0.0579(2) -0.0783(3)
S1A S -0.14264(2) 0.04193(5) -0.14928(6)
O1A O -0.14177(8) 0.13000(15) -0.3092(2)
O2A O -0.14324(7) 0.13132(14) 0.00959(19)
O3A O -0.20110(7) -0.05923(17) -0.1953(2)
H7A H 0.0410 0.2219 0.0975
C5A C -0.12192(11) -0.2967(2) -0.2182(3)
H1A H -0.1521 -0.3290 -0.1450
H2A H -0.1040 -0.3815 -0.2679
H3A H -0.1490 -0.2356 -0.3209
C8 C 0.0000 0.3226(4) 0.5000
C9 C -0.05963(12) 0.4005(3) 0.4071(3)
H10 H -0.1010 0.3490 0.3432
C10 C -0.06070(10) 0.5491(4) 0.4048(3)
C11 C 0.0000 0.6257(4) 0.5000
H11 H 0.0000 0.7289 0.5000
C12 C 0.0000 0.1589(4) 0.5000
C13 C -0.12549(13) 0.6333(3) 0.2988(4)
H15 H -0.1445 0.5921 0.1742
H16 H -0.1131 0.7353 0.2890
H17 H -0.1608 0.6270 0.3646
C10A C 0.06070(10) 0.5491(4) 0.5952(3)
C9A C 0.05963(12) 0.4005(3) 0.5929(3)
H10A H 0.1010 0.3490 0.6568
C13A C 0.12549(13) 0.6333(3) 0.7012(4)
H15A H 0.1445 0.5921 0.8258
H16A H 0.1131 0.7353 0.7110
H17A H 0.1608 0.6270 0.6354
C14 C 0.24376(10) -0.0628(2) -0.2692(3)
N1 N 0.26846(9) -0.1110(2) -0.0964(2)
H18 H 0.3029 -0.1744 -0.0674
H19 H 0.2504 -0.0795 -0.0107
N2 N 0.19220(8) 0.0333(2) -0.3119(2)
H20 H 0.1759 0.0660 -0.4262
H21 H 0.1743 0.0646 -0.2259
N3 N 0.27075(9) -0.1098(2) -0.3983(2)
H22 H 0.2545 -0.0772 -0.5127
H23 H 0.3050 -0.1737 -0.3698
H4? H 0.0274 -0.4864 -0.0789
H5? H -0.0482 -0.4864 -0.0480
H6? H 0.0208 -0.4864 0.1269
H8? H 0.0428 0.2219 -0.0233
H9? H -0.0018 0.2219 0.1208
H12? H -0.0469 0.1235 0.4324
H13? H 0.0130 0.1235 0.6281
H14? H 0.0338 0.1235 0.4395
loop_
_geom_bond_atom_site_label_1
_geom_bond_atom_site_label_2
_geom_bond_site_symmetry_1
_geom_bond_site_symmetry_2
S1 O1 1_555 1_555
O2 S1 1_555 1_555
O3 S1 1_555 1_555
C1 S1 1_555 1_555
C2 C1 1_555 1_555
C3 C2 1_555 1_555
C4 C1 1_555 1_555
C5 C2 1_555 1_555
H1 C5 1_555 1_555
H2 C5 1_555 1_555
H3 C5 1_555 1_555
C6 C3 1_555 1_555
C7 C4 1_555 1_555
H7 C7 1_555 1_555
C8 C9 1_555 1_555
C9 H10 1_555 1_555
C10 C9 1_555 1_555
C11 C10 1_555 1_555
H11 C11 1_555 1_555
C12 C8 1_555 1_555
C13 C10 1_555 1_555
H15 C13 1_555 1_555
H16 C13 1_555 1_555
H17 C13 1_555 1_555
C14 N1 1_555 1_555
N1 H18 1_555 1_555
H19 N1 1_555 1_555
N2 C14 1_555 1_555
H20 N2 1_555 1_555
H21 N2 1_555 1_555
N3 C14 1_555 1_555
H22 N3 1_555 1_555
H23 N3 1_555 1_555
C2A C3 1_555 1_555
C1A C4 1_555 1_555
S1A C1A 1_555 1_555
O1A S1A 1_555 1_555
O2A S1A 1_555 1_555
O3A S1A 1_555 1_555
H7A C7 1_555 1_555
C5A C2A 1_555 1_555
H1A C5A 1_555 1_555
H2A C5A 1_555 1_555
H3A C5A 1_555 1_555
C10A C11 1_555 1_555
C9A C8 1_555 1_555
H10A C9A 1_555 1_555
C13A C10A 1_555 1_555
H15A C13A 1_555 1_555
H16A C13A 1_555 1_555
H17A C13A 1_555 1_555
C2A C1A 1_555 1_555
C10A C9A 1_555 1_555

#END
