
#######################################################################
#
#                 Cambridge Crystallographic Data Centre
#                                CCDC 
#
#######################################################################
#
# If this CIF has been generated from an entry in the Cambridge 
# Structural Database, then it will include bibliographic, chemical, 
# crystal, experimental, refinement or atomic coordinate data resulting 
# from the CCDC's data processing and validation procedures.
#
#######################################################################

data_VAMTIP
_chemical_formula_moiety         'C19 H15 Cl1 N2 O4,2(C2 H6 O1 S1)'
_chemical_name_systematic        
'N-(4-chlorobenzene-1-carbonyl)-3-(2-oxo-1,2-dihydroquinolin-4-yl)alanine dimethyl sulfoxide solvate'
_symmetry_cell_setting           monoclinic
_symmetry_space_group_name_H-M   'P 21/c'
_symmetry_Int_Tables_number      14
_space_group_name_Hall           '-P 2ybc'
loop_
_symmetry_equiv_pos_site_id
_symmetry_equiv_pos_as_xyz
1 x,y,z
2 -x,1/2+y,1/2-z
3 -x,-y,-z
4 x,1/2-y,1/2+z
_cell_length_a                   8.9468(9)
_cell_length_b                   28.971(3)
_cell_length_c                   9.8022(11)
_cell_angle_alpha                90
_cell_angle_beta                 97.029(10)
_cell_angle_gamma                90
_cell_volume                     2521.61
_exptl_crystal_colour            colorless
_exptl_crystal_description       block
_cell_formula_units_Z            4
loop_
_atom_site_label
_atom_site_type_symbol
_atom_site_fract_x
_atom_site_fract_y
_atom_site_fract_z
C1 C 0.1728(4) 0.52972(12) -0.0819(3)
C2 C 0.1433(4) 0.53299(12) 0.0584(3)
H1 H 0.0722 0.5550 0.0820
C3 C 0.2136(4) 0.50565(12) 0.1579(3)
C4 C 0.3204(4) 0.47123(11) 0.1231(3)
C5 C 0.4017(4) 0.44177(12) 0.2190(4)
H2 H 0.3895 0.4443 0.3136
C6 C 0.4980(5) 0.40955(13) 0.1778(4)
H3 H 0.5511 0.3897 0.2440
C7 C 0.5196(5) 0.40541(13) 0.0400(4)
H4 H 0.5856 0.3825 0.0123
C8 C 0.4444(4) 0.43479(12) -0.0563(4)
H5 H 0.4611 0.4327 -0.1500
C9 C 0.3444(4) 0.46734(11) -0.0157(3)
C10 C 0.1799(4) 0.51112(12) 0.3036(3)
H6 H 0.1814 0.4803 0.3474
H7 H 0.0771 0.5239 0.3026
C11 C 0.2920(4) 0.54288(12) 0.3914(3)
H8 H 0.3970 0.5331 0.3804
C12 C 0.2657(4) 0.53609(12) 0.5401(3)
C13 C 0.3698(5) 0.62301(14) 0.3867(4)
C14 C 0.3317(4) 0.67083(13) 0.3370(4)
C15 C 0.2318(6) 0.68059(14) 0.2240(5)
H9 H 0.1860 0.6559 0.1705
C16 C 0.1954(6) 0.72570(15) 0.1854(5)
H10 H 0.1238 0.7318 0.1077
C17 C 0.2635(6) 0.76089(15) 0.2600(6)
C18 C 0.3678(6) 0.75271(16) 0.3708(6)
H11 H 0.4172 0.7776 0.4208
C19 C 0.4003(5) 0.70743(16) 0.4090(5)
H12 H 0.4718 0.7015 0.4869
Cl1 Cl 0.21926(17) 0.81788(4) 0.21250(19)
N1 N 0.2696(3) 0.49653(9) -0.1118(3)
H13 H 0.2859 0.4933 -0.1981
N2 N 0.2703(3) 0.58990(10) 0.3444(3)
H14 H 0.1902 0.5970 0.2868
O1 O 0.1119(3) 0.55636(9) -0.1743(2)
O2 O 0.3135(3) 0.50170(9) 0.6035(2)
O3 O 0.1867(3) 0.56819(9) 0.5900(2)
H15 H 0.1762 0.5619 0.6720
O4 O 0.4873(3) 0.61428(10) 0.4608(3)
C20 C -0.1108(6) 0.64603(17) -0.0861(6)
H16 H -0.1580 0.6202 -0.1398
H17 H -0.0252 0.6575 -0.1296
H18 H -0.0756 0.6355 0.0074
C21 C -0.2710(8) 0.7022(2) -0.2618(5)
H19 H -0.3092 0.6744 -0.3112
H20 H -0.3440 0.7273 -0.2805
H21 H -0.1750 0.7112 -0.2925
O5 O -0.1922(9) 0.72650(18) -0.0103(5)
S1 S -0.2428(3) 0.69048(10) -0.0792(3)
C22 C -0.1507(7) 0.6068(2) 0.4842(5)
H28 H -0.2419 0.6141 0.5260
H29 H -0.1234 0.5744 0.5024
H30 H -0.0680 0.6268 0.5238
C23 C -0.2053(13) 0.6731(3) 0.3066(9)
H31 H -0.2964 0.6813 0.3475
H32 H -0.1176 0.6877 0.3593
H33 H -0.2148 0.6841 0.2113
O6 O -0.0441(3) 0.60459(10) 0.2463(3)
S3 S -0.18352(16) 0.61581(5) 0.30927(15)
H22? H -0.0758 0.6329 -0.1687
H23? H -0.0335 0.6416 -0.0073
H24? H -0.2038 0.6305 -0.0683
H25? H -0.2234 0.6854 -0.3319
H26? H -0.3622 0.6858 -0.2433
H27? H -0.2976 0.7334 -0.2949
S2? S -0.1459(4) 0.70558(11) -0.1110(3)
H34? H -0.0718 0.5851 0.5206
H35? H -0.1776 0.6264 0.5589
H36? H -0.2397 0.5897 0.4440
H37? H -0.2271 0.6942 0.3799
H38? H -0.1712 0.6910 0.2312
H39? H -0.2967 0.6560 0.2724
S4? S -0.0861(12) 0.6404(4) 0.3611(11)
loop_
_geom_bond_atom_site_label_1
_geom_bond_atom_site_label_2
_geom_bond_site_symmetry_1
_geom_bond_site_symmetry_2
C1 C2 1_555 1_555
C2 H1 1_555 1_555
C3 C2 1_555 1_555
C4 C3 1_555 1_555
C5 C4 1_555 1_555
H2 C5 1_555 1_555
C6 C5 1_555 1_555
H3 C6 1_555 1_555
C7 C6 1_555 1_555
H4 C7 1_555 1_555
C8 C7 1_555 1_555
H5 C8 1_555 1_555
C9 C4 1_555 1_555
C10 C3 1_555 1_555
H6 C10 1_555 1_555
H7 C10 1_555 1_555
C11 C10 1_555 1_555
H8 C11 1_555 1_555
C12 C11 1_555 1_555
C13 C14 1_555 1_555
C14 C15 1_555 1_555
C15 H9 1_555 1_555
C16 C15 1_555 1_555
H10 C16 1_555 1_555
C17 C16 1_555 1_555
C18 C17 1_555 1_555
H11 C18 1_555 1_555
C19 C14 1_555 1_555
H12 C19 1_555 1_555
Cl1 C17 1_555 1_555
N1 C1 1_555 1_555
H13 N1 1_555 1_555
N2 C11 1_555 1_555
H14 N2 1_555 1_555
O1 C1 1_555 1_555
O2 C12 1_555 1_555
O3 C12 1_555 1_555
H15 O3 1_555 1_555
O4 C13 1_555 1_555
C20 H16 1_555 1_555
H17 C20 1_555 1_555
H18 C20 1_555 1_555
C21 H19 1_555 1_555
H20 C21 1_555 1_555
H21 C21 1_555 1_555
O5 S1 1_555 1_555
S1 C20 1_555 1_555
C22 H28 1_555 1_555
H29 C22 1_555 1_555
H30 C22 1_555 1_555
C23 H31 1_555 1_555
H32 C23 1_555 1_555
H33 C23 1_555 1_555
O6 S3 1_555 1_555
S3 C22 1_555 1_555
C8 C9 1_555 1_555
C9 N1 1_555 1_555
C13 N2 1_555 1_555
C18 C19 1_555 1_555
C21 S1 1_555 1_555
C23 S3 1_555 1_555

#END
