
#######################################################################
#
#                 Cambridge Crystallographic Data Centre
#                                CCDC 
#
#######################################################################
#
# If this CIF has been generated from an entry in the Cambridge 
# Structural Database, then it will include bibliographic, chemical, 
# crystal, experimental, refinement or atomic coordinate data resulting 
# from the CCDC's data processing and validation procedures.
#
#######################################################################

data_VAMTIN
_chemical_formula_moiety         '2(C1 H6 N3 1+),C9 H10 O6 S2 2-,C8 H10 N2 O2'
_chemical_name_systematic        
'bis(guanidinium) 2,4,6-trimethylbenzene-1,3-disulfonate N,N-dimethyl-3-nitroaniline clathrate'
_symmetry_cell_setting           triclinic
_symmetry_space_group_name_H-M   'P 1'
_symmetry_Int_Tables_number      1
_space_group_name_Hall           'P 1'
loop_
_symmetry_equiv_pos_site_id
_symmetry_equiv_pos_as_xyz
1 x,y,z
_cell_length_a                   7.6197(7)
_cell_length_b                   9.5606(9)
_cell_length_c                   10.3060(10)
_cell_angle_alpha                66.161(2)
_cell_angle_beta                 76.648(2)
_cell_angle_gamma                89.287(2)
_cell_volume                     665.399
_cell_formula_units_Z            1
loop_
_atom_site_label
_atom_site_type_symbol
_atom_site_fract_x
_atom_site_fract_y
_atom_site_fract_z
S1 S 0.68492(9) 0.22325(8) 0.52124(8)
O1 O 0.5343(3) 0.1521(3) 0.4971(3)
C1 C 0.7585(4) 0.4027(4) 0.3666(3)
S2 S 1.01229(9) 0.53678(9) -0.06335(8)
O2 O 0.8406(3) 0.1323(3) 0.5271(3)
C2 C 0.8421(4) 0.4000(4) 0.2303(4)
O3 O 0.6305(3) 0.2543(3) 0.6523(2)
C3 C 0.9113(4) 0.5429(4) 0.1094(3)
O4 O 0.8698(3) 0.4705(3) -0.1010(3)
C4 C 0.8999(5) 0.6815(4) 0.1240(4)
O5 O 1.1639(3) 0.4422(3) -0.0444(3)
C5 C 0.8077(6) 0.6762(4) 0.2603(4)
H11 H 0.7946 0.7708 0.2699
O6 O 1.0709(3) 0.6932(3) -0.1701(3)
C6 C 0.7345(5) 0.5434(4) 0.3817(4)
C7 C 0.8560(5) 0.2498(4) 0.2143(4)
H14 H 0.9588 0.1997 0.2500
H15 H 0.8740 0.2694 0.1109
H16 H 0.7441 0.1828 0.2715
C8 C 0.9769(7) 0.8409(5) 0.0080(5)
H17 H 1.1050 0.8385 -0.0356
H18 H 0.9655 0.9141 0.0534
H19 H 0.9098 0.8726 -0.0682
C9 C 0.6320(7) 0.5635(6) 0.5161(5)
H20 H 0.6957 0.5192 0.5941
H21 H 0.5098 0.5112 0.5492
H22 H 0.6239 0.6732 0.4924
N1 N 0.1548(4) 0.1618(4) 0.6322(3)
H1 H 0.0687 0.1379 0.5988
H2 H 0.2675 0.1456 0.6012
N2 N 0.2436(4) 0.2588(4) 0.7809(3)
H3 H 0.2159 0.2988 0.8456
H4 H 0.3567 0.2429 0.7504
N3 N -0.0543(4) 0.2472(4) 0.7767(3)
H5 H -0.1410 0.2235 0.7437
H6 H -0.0800 0.2875 0.8413
C10 C 0.1147(4) 0.2223(4) 0.7294(3)
N4 N 0.4438(4) 0.8260(4) -0.2994(3)
H7 H 0.3302 0.7867 -0.2660
H8 H 0.4721 0.9198 -0.3683
N5 N 0.7441(4) 0.8051(4) -0.2981(3)
H9 H 0.8303 0.7513 -0.2635
H10 H 0.7712 0.8990 -0.3670
N6 N 0.5321(4) 0.6041(4) -0.1430(3)
H12 H 0.4190 0.5635 -0.1088
H13 H 0.6185 0.5508 -0.1083
C11 C 0.5718(5) 0.7442(4) -0.2459(4)
O7 O 0.4647(4) 1.3351(3) 0.1319(3)
N7 N 0.2470(7) 0.6730(4) 0.3417(5)
O8 O 0.2504(4) 1.2013(4) 0.3211(3)
N8 N 0.3692(4) 1.2168(4) 0.2107(4)
C12 C 0.3295(6) 0.8129(5) 0.2463(5)
C13 C 0.3087(5) 0.9436(5) 0.2745(4)
H23 H 0.2334 0.9351 0.3653
C14 C 0.3930(5) 1.0828(4) 0.1760(4)
C15 C 0.5051(6) 1.1067(5) 0.0362(4)
H24 H 0.5628 1.2047 -0.0325
C16 C 0.5239(7) 0.9783(6) 0.0074(5)
H25 H 0.5973 0.9888 -0.0846
C17 C 0.4418(7) 0.8352(6) 0.1051(5)
H26 H 0.4595 0.7505 0.0792
C18 C 0.2683(8) 0.5393(5) 0.3141(7)
H27 H 0.2320 0.5560 0.2241
H28 H 0.1923 0.4523 0.3963
H29 H 0.3955 0.5170 0.3029
C19 C 0.1364(9) 0.6573(6) 0.4826(6)
H30 H 0.2143 0.6692 0.5417
H31 H 0.0690 0.5556 0.5335
H32 H 0.0510 0.7366 0.4680
loop_
_geom_bond_atom_site_label_1
_geom_bond_atom_site_label_2
_geom_bond_site_symmetry_1
_geom_bond_site_symmetry_2
S1 O1 1_555 1_555
N1 H1 1_555 1_555
H2 N1 1_555 1_555
C1 S1 1_555 1_555
S2 C3 1_555 1_555
O2 S1 1_555 1_555
N2 H3 1_555 1_555
H4 N2 1_555 1_555
C2 C1 1_555 1_555
O3 S1 1_555 1_555
N3 H5 1_555 1_555
H6 N3 1_555 1_555
C3 C2 1_555 1_555
O4 S2 1_555 1_555
N4 H7 1_555 1_555
H8 N4 1_555 1_555
C4 C3 1_555 1_555
O5 S2 1_555 1_555
N5 H9 1_555 1_555
H10 N5 1_555 1_555
C5 C4 1_555 1_555
H11 C5 1_555 1_555
O6 S2 1_555 1_555
N6 H12 1_555 1_555
H13 N6 1_555 1_555
C6 C1 1_555 1_555
O7 N8 1_555 1_555
N7 C12 1_555 1_555
C7 C2 1_555 1_555
H14 C7 1_555 1_555
H15 C7 1_555 1_555
H16 C7 1_555 1_555
O8 N8 1_555 1_555
N8 C14 1_555 1_555
C8 C4 1_555 1_555
H17 C8 1_555 1_555
H18 C8 1_555 1_555
H19 C8 1_555 1_555
C9 C6 1_555 1_555
H20 C9 1_555 1_555
H21 C9 1_555 1_555
H22 C9 1_555 1_555
C10 N1 1_555 1_555
C11 N4 1_555 1_555
C12 C13 1_555 1_555
C13 H23 1_555 1_555
C14 C13 1_555 1_555
C15 C14 1_555 1_555
H24 C15 1_555 1_555
C16 C15 1_555 1_555
H25 C16 1_555 1_555
C17 C12 1_555 1_555
H26 C17 1_555 1_555
C18 N7 1_555 1_555
H27 C18 1_555 1_555
H28 C18 1_555 1_555
H29 C18 1_555 1_555
C19 N7 1_555 1_555
H30 C19 1_555 1_555
H31 C19 1_555 1_555
H32 C19 1_555 1_555
N2 C10 1_555 1_555
N3 C10 1_555 1_555
N5 C11 1_555 1_555
C5 C6 1_555 1_555
N6 C11 1_555 1_555
C16 C17 1_555 1_555

#END
