
#######################################################################
#
#                 Cambridge Crystallographic Data Centre
#                                CCDC 
#
#######################################################################
#
# If this CIF has been generated from an entry in the Cambridge 
# Structural Database, then it will include bibliographic, chemical, 
# crystal, experimental, refinement or atomic coordinate data resulting 
# from the CCDC's data processing and validation procedures.
#
#######################################################################

data_VAMVOW
_chemical_formula_moiety         'C90 H96 N4 O10,2.5(C4 H8 O2),C6 H14'
_chemical_name_systematic        
'5,11,17,23,29,35-Hexa-t-butyl-39,42-dihydroxycalix(6)arene-37,38,40,41-tetrayl tetranicotinate 1,4-dioxane hexane solvate'
_symmetry_cell_setting           triclinic
_symmetry_space_group_name_H-M   'P -1'
_symmetry_Int_Tables_number      2
_space_group_name_Hall           '-P 1'
loop_
_symmetry_equiv_pos_site_id
_symmetry_equiv_pos_as_xyz
1 x,y,z
2 -x,-y,-z
_cell_length_a                   14.4844(2)
_cell_length_b                   14.7925(2)
_cell_length_c                   25.9591(4)
_cell_angle_alpha                101.3710(10)
_cell_angle_beta                 92.4790(10)
_cell_angle_gamma                117.2110(10)
_cell_volume                     4792.25
_exptl_crystal_colour            colorless
_exptl_crystal_description       block
_cell_formula_units_Z            2
loop_
_atom_site_label
_atom_site_type_symbol
_atom_site_fract_x
_atom_site_fract_y
_atom_site_fract_z
O1 O 0.6342(3) 0.4817(3) 0.13066(16)
O2 O 0.7895(2) 0.49976(18) 0.16282(9)
O3 O 1.1051(5) 0.5869(4) 0.06243(18)
O4 O 1.0110(2) 0.56973(19) 0.12807(10)
O5 O 0.9503(2) 0.5587(2) 0.45246(13)
O6 O 0.98806(17) 0.47553(17) 0.38179(9)
O7 O 1.2422(2) 0.3524(2) 0.33568(12)
O8 O 1.08993(17) 0.35221(17) 0.31279(9)
O9 O 1.0538(2) 0.62753(19) 0.24833(10)
H1 H 1.0830 0.6210 0.2225
O10 O 0.9082(2) 0.31993(19) 0.23629(10)
H2 H 0.9494 0.3121 0.2175
N1 N 0.6996(5) 0.7578(5) 0.2434(3)
N2 N 1.1609(5) 0.3449(4) 0.0966(2)
N3 N 0.6457(3) 0.3011(3) 0.42524(15)
N4 N 1.3674(4) 0.5513(5) 0.2291(2)
C1 C 0.6789(5) 0.6692(5) 0.2088(3)
H3 H 0.6125 0.6308 0.1884
C2 C 0.7949(6) 0.8114(5) 0.2703(2)
H4 H 0.8116 0.8739 0.2946
C3 C 0.8713(5) 0.7821(4) 0.26512(19)
H5 H 0.9380 0.8239 0.2849
C4 C 0.8467(3) 0.6884(3) 0.22969(16)
H6 H 0.8964 0.6652 0.2255
C5 C 0.7478(3) 0.6303(3) 0.20096(16)
C6 C 0.7153(3) 0.5300(3) 0.16110(17)
C7 C 0.7748(3) 0.4097(3) 0.12493(14)
C8 C 0.7997(3) 0.4185(3) 0.07456(14)
C9 C 0.7925(3) 0.3298(3) 0.03988(14)
H7 H 0.8093 0.3341 0.0060
C10 C 0.7612(3) 0.2355(3) 0.05403(14)
C11 C 0.7385(3) 0.2319(3) 0.10526(14)
H8 H 0.7179 0.1696 0.1156
C12 C 0.7453(3) 0.3181(3) 0.14148(13)
C13 C 0.7542(4) 0.1406(3) 0.01387(16)
C14 C 0.7181(8) 0.0452(5) 0.0355(3)
H9 H 0.6485 0.0245 0.0438
H10 H 0.7650 0.0607 0.0671
H11 H 0.7179 -0.0108 0.0093
C15 C 0.8626(7) 0.1652(6) 0.0007(4)
H12 H 0.8587 0.1059 -0.0243
H13 H 0.9087 0.1805 0.0326
H14 H 0.8892 0.2248 -0.0145
C16 C 0.6905(9) 0.1200(6) -0.0366(3)
H15 H 0.6199 0.1030 -0.0309
H16 H 0.6899 0.0624 -0.0616
H17 H 0.7198 0.1813 -0.0505
C17 C 0.8280(3) 0.5158(3) 0.05359(15)
H18 H 0.8605 0.5084 0.0222
H19 H 0.7625 0.5137 0.0417
C18 C 1.1483(4) 0.4261(4) 0.08323(17)
H20 H 1.1868 0.4613 0.0592
C19 C 1.1032(4) 0.2991(4) 0.13469(19)
H21 H 1.1131 0.2470 0.1450
C20 C 1.0364(3) 0.3243(3) 0.15687(15)
H22 H 0.9994 0.2909 0.1818
C21 C 1.0232(3) 0.3996(3) 0.14251(16)
H23 H 0.9748 0.4174 0.1575
C22 C 1.0777(3) 0.4527(3) 0.10650(14)
C23 C 1.0667(4) 0.5421(3) 0.09521(16)
C24 C 0.9897(3) 0.6514(3) 0.12118(14)
C25 C 0.8979(3) 0.6240(3) 0.08800(14)
C26 C 0.8758(3) 0.7047(3) 0.08431(15)
H24 H 0.8146 0.6884 0.0628
C27 C 0.9408(3) 0.8088(3) 0.11121(15)
C28 C 1.0293(3) 0.8298(3) 0.14363(15)
H25 H 1.0736 0.8987 0.1623
C29 C 1.0557(3) 0.7528(3) 0.14985(14)
C30 C 0.9118(3) 0.8931(3) 0.10336(18)
C31 C 0.8935(6) 0.8886(5) 0.0452(2)
H26 H 0.9564 0.9005 0.0303
H27 H 0.8750 0.9417 0.0411
H28 H 0.8374 0.8209 0.0271
C32 C 0.8122(5) 0.8749(5) 0.1280(3)
H29 H 0.7560 0.8066 0.1108
H30 H 0.7929 0.9272 0.1234
H31 H 0.8253 0.8796 0.1653
C33 C 0.9966(5) 1.0027(4) 0.1317(3)
H32 H 1.0605 1.0176 0.1174
H33 H 1.0083 1.0070 0.1690
H34 H 0.9745 1.0529 0.1267
C34 C 1.1539(3) 0.7824(3) 0.18727(15)
H35 H 1.2126 0.8419 0.1794
H36 H 1.1694 0.7242 0.1810
C35 C 1.1434(3) 0.8102(3) 0.24586(14)
C36 C 1.1809(3) 0.9136(3) 0.27301(15)
H37 H 1.2151 0.9659 0.2553
C37 C 1.1696(3) 0.9427(3) 0.32564(16)
C38 C 1.1186(3) 0.8612(3) 0.35079(15)
H38 H 1.1091 0.8780 0.3859
C39 C 1.0820(3) 0.7573(3) 0.32572(15)
C40 C 1.0947(3) 0.7318(3) 0.27286(15)
C41 C 1.2118(4) 1.0570(3) 0.35587(19)
C42 C 1.1243(6) 1.0753(5) 0.3759(3)
H39 H 1.0735 1.0609 0.3463
H40 H 1.1523 1.1468 0.3955
H41 H 1.0912 1.0296 0.3986
C43 C 1.2739(6) 1.1337(4) 0.3242(3)
H42 H 1.2293 1.1236 0.2929
H43 H 1.3315 1.1223 0.3142
H44 H 1.3006 1.2039 0.3455
C44 C 1.2913(5) 1.0814(4) 0.4061(3)
H45 H 1.3488 1.0709 0.3950
H46 H 1.2563 1.0354 0.4284
H47 H 1.3174 1.1528 0.4255
C45 C 1.0378(3) 0.6724(3) 0.35572(15)
H48 H 0.9818 0.6093 0.3323
H49 H 1.0079 0.6947 0.3852
C46 C 0.7413(3) 0.3835(4) 0.43342(17)
H50 H 0.7564 0.4409 0.4613
C47 C 0.6263(3) 0.2209(3) 0.38494(17)
H51 H 0.5607 0.1619 0.3788
C48 C 0.6973(3) 0.2196(3) 0.35164(17)
H52 H 0.6793 0.1620 0.3234
C49 C 0.7958(3) 0.3056(3) 0.36111(15)
H53 H 0.8455 0.3070 0.3393
C50 C 0.8196(3) 0.3895(3) 0.40319(14)
C51 C 0.9237(3) 0.4834(3) 0.41645(14)
C52 C 1.0939(2) 0.5535(2) 0.39081(12)
C53 C 1.1691(3) 0.5298(3) 0.41034(13)
C54 C 1.2734(3) 0.6041(3) 0.41639(14)
H54 H 1.3245 0.5894 0.4295
C55 C 1.3053(3) 0.7005(3) 0.40365(14)
C56 C 1.2274(3) 0.7196(3) 0.38379(13)
H55 H 1.2469 0.7829 0.3747
C57 C 1.1208(3) 0.6477(3) 0.37693(13)
C58 C 1.4219(3) 0.7811(3) 0.41158(15)
C59 C 1.4678(5) 0.8110(6) 0.4687(3)
H56 H 1.5410 0.8609 0.4735
H57 H 1.4601 0.7497 0.4795
H58 H 1.4318 0.8415 0.4900
C60 C 1.4770(5) 0.7356(5) 0.3783(4)
H59 H 1.5501 0.7858 0.3832
H60 H 1.4473 0.7176 0.3416
H61 H 1.4695 0.6738 0.3883
C61 C 1.4390(4) 0.8818(5) 0.3968(3)
H62 H 1.5129 0.9297 0.4021
H63 H 1.4046 0.9131 0.4189
H64 H 1.4103 0.8660 0.3602
C62 C 1.1427(3) 0.4317(3) 0.42999(14)
H65 H 1.2062 0.4250 0.4326
H66 H 1.1278 0.4452 0.4659
C63 C 1.3315(3) 0.4816(4) 0.2620(2)
H67 H 1.3709 0.4512 0.2722
C64 C 1.3048(4) 0.5934(4) 0.21538(19)
H68 H 1.3280 0.6385 0.1929
C65 C 1.2152(3) 0.5738(3) 0.23188(13)
H69 H 1.1759 0.6043 0.2218
C66 C 1.1823(3) 0.5087(3) 0.26367(14)
H70 H 1.1195 0.4958 0.2764
C67 C 1.2360(3) 0.4590(3) 0.27896(14)
C68 C 1.1927(3) 0.3828(3) 0.31266(14)
C69 C 1.0339(3) 0.2859(2) 0.34538(13)
C70 C 1.0547(3) 0.3255(2) 0.40064(13)
C71 C 0.9918(3) 0.2598(3) 0.43046(13)
H71 H 1.0046 0.2841 0.4673
C72 C 0.9109(3) 0.1595(3) 0.40815(13)
C73 C 0.8931(3) 0.1247(3) 0.35329(13)
H72 H 0.8392 0.0577 0.3374
C74 C 0.9538(3) 0.1875(3) 0.32085(13)
C75 C 0.8452(3) 0.0916(3) 0.44430(14)
C76 C 0.9160(4) 0.0689(5) 0.4787(2)
H73 H 0.9449 0.0317 0.4563
H74 H 0.8759 0.0271 0.5016
H75 H 0.9720 0.1338 0.4998
C77 C 0.8005(5) 0.1507(4) 0.4806(2)
H76 H 0.7550 0.1650 0.4595
H77 H 0.8569 0.2155 0.5015
H78 H 0.7612 0.1087 0.5038
C78 C 0.7549(4) -0.0110(4) 0.41297(19)
H79 H 0.7817 -0.0496 0.3900
H80 H 0.7086 0.0027 0.3920
H81 H 0.7171 -0.0512 0.4370
C79 C 0.9259(3) 0.1451(3) 0.26099(13)
H82 H 0.9204 0.0759 0.2516
H83 H 0.9816 0.1903 0.2442
C80 C 0.8228(3) 0.1387(3) 0.24004(12)
C81 C 0.7287(3) 0.0462(3) 0.23329(14)
H84 H 0.7307 -0.0130 0.2391
C82 C 0.6316(3) 0.0393(3) 0.21802(15)
C83 C 0.6321(3) 0.1285(3) 0.20856(14)
H85 H 0.5684 0.1259 0.1985
C84 C 0.7239(3) 0.2212(3) 0.21349(13)
C85 C 0.8192(3) 0.2259(3) 0.22970(13)
C86 C 0.5288(3) -0.0616(4) 0.2122(2)
C87 C 0.5387(5) -0.1367(6) 0.2327(7)
H86 H 0.5800 -0.1612 0.2122
H87 H 0.4704 -0.1944 0.2312
H88 H 0.5727 -0.1066 0.2690
C88 C 0.4603(6) -0.0356(8) 0.2528(4)
H89 H 0.3945 -0.0974 0.2502
H90 H 0.4475 0.0185 0.2445
H91 H 0.4975 -0.0120 0.2884
C89 C 0.4610(6) -0.0854(6) 0.1635(4)
H92 H 0.4912 -0.1039 0.1336
H93 H 0.4535 -0.0250 0.1612
H94 H 0.3932 -0.1429 0.1632
C90 C 0.7227(3) 0.3143(3) 0.19815(14)
H95 H 0.7751 0.3783 0.2226
H96 H 0.6545 0.3103 0.2011
O11 O 0.4318(4) 0.1657(5) 0.1554(2)
O12 O 0.2971(4) 0.2457(5) 0.1425(3)
C91 C 0.4353(5) 0.2139(5) 0.1135(3)
H97 H 0.3911 0.1616 0.0817
H98 H 0.5067 0.2483 0.1061
C92 C 0.3977(7) 0.2921(7) 0.1288(5)
H99 H 0.4458 0.3475 0.1588
H100 H 0.3969 0.3233 0.0993
C93 C 0.2949(5) 0.1981(6) 0.1838(3)
H101 H 0.2236 0.1634 0.1913
H102 H 0.3387 0.2510 0.2155
C94 C 0.3317(6) 0.1231(6) 0.1705(3)
H103 H 0.3337 0.0947 0.2010
H104 H 0.2826 0.0656 0.1416
O13 O 0.4356(14) 0.6803(16) 0.0275(9)
O14 O 0.5426(15) 0.6027(14) 0.0685(7)
C95 C 0.4002(11) 0.6308(13) 0.0718(11)
H105 H 0.4336 0.6813 0.1057
H106 H 0.3246 0.6008 0.0699
C96 C 0.4304(12) 0.5533(12) 0.0653(8)
H107 H 0.3973 0.5039 0.0310
H108 H 0.4089 0.5155 0.0929
C97 C 0.5426(13) 0.7283(10) 0.0311(6)
H109 H 0.5743 0.7822 0.0641
H110 H 0.5635 0.7615 0.0018
C98 C 0.5769(7) 0.6551(7) 0.0295(4)
H111 H 0.5508 0.6055 -0.0050
H112 H 0.6530 0.6899 0.0342
O15 O 0.5844(3) 0.4821(3) 0.51043(18)
C99 C 0.4928(5) 0.4060(5) 0.4751(3)
H113 H 0.4471 0.3565 0.4940
H114 H 0.5121 0.3676 0.4467
C100 C 0.5632(6) 0.5503(6) 0.5474(3)
H115 H 0.6293 0.6070 0.5675
H116 H 0.5230 0.5126 0.5722
O15A O 0.4156(3) 0.5179(3) 0.48957(18)
C99A C 0.5072(5) 0.5940(5) 0.5249(3)
H113A H 0.5529 0.6435 0.5060
H114A H 0.4879 0.6324 0.5533
C100A C 0.4368(6) 0.4497(6) 0.4526(3)
H115A H 0.3707 0.3930 0.4325
H116A H 0.4770 0.4874 0.4278
C101 C 0.5457(8) 0.3658(7) 0.3058(3)
H117 H 0.5422 0.3082 0.2795
H118 H 0.4763 0.3578 0.3073
H119 H 0.5751 0.3668 0.3399
C102 C 0.6070(9) 0.4568(8) 0.2926(5)
H120 H 0.5747 0.4542 0.2585
H121 H 0.6740 0.4592 0.2876
C103 C 0.6285(10) 0.5556(9) 0.3292(5)
H122 H 0.6402 0.6070 0.3086
H123 H 0.5663 0.5445 0.3454
C104 C 0.7141(10) 0.5976(9) 0.3696(4)
H124 H 0.7742 0.6023 0.3528
H125 H 0.6992 0.5469 0.3909
C105 C 0.7482(12) 0.7034(8) 0.4077(4)
H126 H 0.7964 0.7567 0.3913
H127 H 0.6865 0.7131 0.4099
C106 C 0.7963(8) 0.7248(9) 0.4600(5)
H128 H 0.8117 0.7940 0.4788
H129 H 0.8603 0.7203 0.4592
H130 H 0.7497 0.6746 0.4777
loop_
_geom_bond_atom_site_label_1
_geom_bond_atom_site_label_2
_geom_bond_site_symmetry_1
_geom_bond_site_symmetry_2
O1 C6 1_555 1_555
O2 C6 1_555 1_555
O3 C23 1_555 1_555
O4 C23 1_555 1_555
O5 C51 1_555 1_555
O6 C51 1_555 1_555
O7 C68 1_555 1_555
O8 C68 1_555 1_555
O9 H1 1_555 1_555
O10 H2 1_555 1_555
O11 C91 1_555 1_555
O12 C92 1_555 1_555
O13 C95 1_555 1_555
O14 C96 1_555 1_555
O15 C99 1_555 1_555
N1 C1 1_555 1_555
N2 C18 1_555 1_555
N3 C46 1_555 1_555
N4 C63 1_555 1_555
C1 H3 1_555 1_555
C2 N1 1_555 1_555
H4 C2 1_555 1_555
C3 C2 1_555 1_555
H5 C3 1_555 1_555
C4 C3 1_555 1_555
H6 C4 1_555 1_555
C5 C1 1_555 1_555
C6 C5 1_555 1_555
C7 O2 1_555 1_555
C8 C7 1_555 1_555
C9 C8 1_555 1_555
H7 C9 1_555 1_555
C10 C9 1_555 1_555
C11 C10 1_555 1_555
H8 C11 1_555 1_555
C12 C7 1_555 1_555
C13 C10 1_555 1_555
C14 C13 1_555 1_555
H9 C14 1_555 1_555
H10 C14 1_555 1_555
H11 C14 1_555 1_555
C15 C13 1_555 1_555
H12 C15 1_555 1_555
H13 C15 1_555 1_555
H14 C15 1_555 1_555
C16 C13 1_555 1_555
H15 C16 1_555 1_555
H16 C16 1_555 1_555
H17 C16 1_555 1_555
C17 C8 1_555 1_555
H18 C17 1_555 1_555
H19 C17 1_555 1_555
C18 H20 1_555 1_555
C19 N2 1_555 1_555
H21 C19 1_555 1_555
C20 C19 1_555 1_555
H22 C20 1_555 1_555
C21 C20 1_555 1_555
H23 C21 1_555 1_555
C22 C18 1_555 1_555
C23 C22 1_555 1_555
C24 O4 1_555 1_555
C25 C17 1_555 1_555
C26 C25 1_555 1_555
H24 C26 1_555 1_555
C27 C26 1_555 1_555
C28 C27 1_555 1_555
H25 C28 1_555 1_555
C29 C24 1_555 1_555
C30 C27 1_555 1_555
C31 C30 1_555 1_555
H26 C31 1_555 1_555
H27 C31 1_555 1_555
H28 C31 1_555 1_555
C32 C30 1_555 1_555
H29 C32 1_555 1_555
H30 C32 1_555 1_555
H31 C32 1_555 1_555
C33 C30 1_555 1_555
H32 C33 1_555 1_555
H33 C33 1_555 1_555
H34 C33 1_555 1_555
C34 C29 1_555 1_555
H35 C34 1_555 1_555
H36 C34 1_555 1_555
C35 C34 1_555 1_555
C36 C35 1_555 1_555
H37 C36 1_555 1_555
C37 C36 1_555 1_555
C38 C37 1_555 1_555
H38 C38 1_555 1_555
C39 C38 1_555 1_555
C40 O9 1_555 1_555
C41 C37 1_555 1_555
C42 C41 1_555 1_555
H39 C42 1_555 1_555
H40 C42 1_555 1_555
H41 C42 1_555 1_555
C43 C41 1_555 1_555
H42 C43 1_555 1_555
H43 C43 1_555 1_555
H44 C43 1_555 1_555
C44 C41 1_555 1_555
H45 C44 1_555 1_555
H46 C44 1_555 1_555
H47 C44 1_555 1_555
C45 C39 1_555 1_555
H48 C45 1_555 1_555
H49 C45 1_555 1_555
C46 H50 1_555 1_555
C47 N3 1_555 1_555
H51 C47 1_555 1_555
C48 C47 1_555 1_555
H52 C48 1_555 1_555
C49 C48 1_555 1_555
H53 C49 1_555 1_555
C50 C46 1_555 1_555
C51 C50 1_555 1_555
C52 O6 1_555 1_555
C53 C52 1_555 1_555
C54 C53 1_555 1_555
H54 C54 1_555 1_555
C55 C54 1_555 1_555
C56 C55 1_555 1_555
H55 C56 1_555 1_555
C57 C45 1_555 1_555
C58 C55 1_555 1_555
C59 C58 1_555 1_555
H56 C59 1_555 1_555
H57 C59 1_555 1_555
H58 C59 1_555 1_555
C60 C58 1_555 1_555
H59 C60 1_555 1_555
H60 C60 1_555 1_555
H61 C60 1_555 1_555
C61 C58 1_555 1_555
H62 C61 1_555 1_555
H63 C61 1_555 1_555
H64 C61 1_555 1_555
C62 C53 1_555 1_555
H65 C62 1_555 1_555
H66 C62 1_555 1_555
C63 H67 1_555 1_555
C64 N4 1_555 1_555
H68 C64 1_555 1_555
C65 C64 1_555 1_555
H69 C65 1_555 1_555
C66 C65 1_555 1_555
H70 C66 1_555 1_555
C67 C63 1_555 1_555
C68 C67 1_555 1_555
C69 O8 1_555 1_555
C70 C62 1_555 1_555
C71 C70 1_555 1_555
H71 C71 1_555 1_555
C72 C71 1_555 1_555
C73 C72 1_555 1_555
H72 C73 1_555 1_555
C74 C69 1_555 1_555
C75 C72 1_555 1_555
C76 C75 1_555 1_555
H73 C76 1_555 1_555
H74 C76 1_555 1_555
H75 C76 1_555 1_555
C77 C75 1_555 1_555
H76 C77 1_555 1_555
H77 C77 1_555 1_555
H78 C77 1_555 1_555
C78 C75 1_555 1_555
H79 C78 1_555 1_555
H80 C78 1_555 1_555
H81 C78 1_555 1_555
C79 C74 1_555 1_555
H82 C79 1_555 1_555
H83 C79 1_555 1_555
C80 C79 1_555 1_555
C81 C80 1_555 1_555
H84 C81 1_555 1_555
C82 C81 1_555 1_555
C83 C82 1_555 1_555
H85 C83 1_555 1_555
C84 C83 1_555 1_555
C85 O10 1_555 1_555
C86 C82 1_555 1_555
C87 C86 1_555 1_555
H86 C87 1_555 1_555
H87 C87 1_555 1_555
H88 C87 1_555 1_555
C88 C86 1_555 1_555
H89 C88 1_555 1_555
H90 C88 1_555 1_555
H91 C88 1_555 1_555
C89 C86 1_555 1_555
H92 C89 1_555 1_555
H93 C89 1_555 1_555
H94 C89 1_555 1_555
C90 C12 1_555 1_555
H95 C90 1_555 1_555
H96 C90 1_555 1_555
C91 H97 1_555 1_555
H98 C91 1_555 1_555
C92 C91 1_555 1_555
H99 C92 1_555 1_555
H100 C92 1_555 1_555
C93 O12 1_555 1_555
H101 C93 1_555 1_555
H102 C93 1_555 1_555
C94 O11 1_555 1_555
H103 C94 1_555 1_555
H104 C94 1_555 1_555
C95 H105 1_555 1_555
H106 C95 1_555 1_555
C96 C95 1_555 1_555
H107 C96 1_555 1_555
H108 C96 1_555 1_555
C97 O13 1_555 1_555
H109 C97 1_555 1_555
H110 C97 1_555 1_555
C98 O14 1_555 1_555
H111 C98 1_555 1_555
H112 C98 1_555 1_555
C99 H113 1_555 1_555
H114 C99 1_555 1_555
C100 O15 1_555 1_555
H115 C100 1_555 1_555
H116 C100 1_555 1_555
C101 H117 1_555 1_555
H118 C101 1_555 1_555
H119 C101 1_555 1_555
C102 C101 1_555 1_555
H120 C102 1_555 1_555
H121 C102 1_555 1_555
C103 C102 1_555 1_555
H122 C103 1_555 1_555
H123 C103 1_555 1_555
C104 C103 1_555 1_555
H124 C104 1_555 1_555
H125 C104 1_555 1_555
C105 C104 1_555 1_555
H126 C105 1_555 1_555
H127 C105 1_555 1_555
C106 C105 1_555 1_555
H128 C106 1_555 1_555
H129 C106 1_555 1_555
H130 C106 1_555 1_555
O15A C99A 1_555 1_555
C99A C100 1_555 1_555
H113A C99A 1_555 1_555
H114A C99A 1_555 1_555
C100A C99 1_555 1_555
H115A C100A 1_555 1_555
H116A C100A 1_555 1_555
C4 C5 1_555 1_555
C11 C12 1_555 1_555
C21 C22 1_555 1_555
C24 C25 1_555 1_555
C28 C29 1_555 1_555
C35 C40 1_555 1_555
C39 C40 1_555 1_555
C49 C50 1_555 1_555
C52 C57 1_555 1_555
C56 C57 1_555 1_555
C66 C67 1_555 1_555
C69 C70 1_555 1_555
C73 C74 1_555 1_555
C80 C85 1_555 1_555
C84 C85 1_555 1_555
C84 C90 1_555 1_555
C93 C94 1_555 1_555
C97 C98 1_555 1_555
O15A C100A 1_555 1_555

#END
