
#######################################################################
#
#                 Cambridge Crystallographic Data Centre
#                                CCDC 
#
#######################################################################
#
# If this CIF has been generated from an entry in the Cambridge 
# Structural Database, then it will include bibliographic, chemical, 
# crystal, experimental, refinement or atomic coordinate data resulting 
# from the CCDC's data processing and validation procedures.
#
#######################################################################

data_VAMXOZ
_chemical_formula_moiety         'C27 H27 F3 N4 O3'
_chemical_name_systematic        
2,2',2''-(nitrilotris((ethane-2,1-diyl)iminomethyl))tris(6-fluorophenol)
_symmetry_cell_setting           rhombohedral
_symmetry_space_group_name_H-M   'R -3'
_symmetry_Int_Tables_number      148
_space_group_name_Hall           '-R 3'
loop_
_symmetry_equiv_pos_site_id
_symmetry_equiv_pos_as_xyz
1 x,y,z
2 -y,x-y,z
3 -x+y,-x,z
4 2/3+x,1/3+y,1/3+z
5 2/3-y,1/3+x-y,1/3+z
6 2/3-x+y,1/3-x,1/3+z
7 1/3+x,2/3+y,2/3+z
8 1/3-y,2/3+x-y,2/3+z
9 1/3-x+y,2/3-x,2/3+z
10 -x,-y,-z
11 y,-x+y,-z
12 x-y,x,-z
13 1/3-x,2/3-y,2/3-z
14 1/3+y,2/3-x+y,2/3-z
15 1/3+x-y,2/3+x,2/3-z
16 2/3-x,1/3-y,1/3-z
17 2/3+y,1/3-x+y,1/3-z
18 2/3+x-y,1/3+x,1/3-z
_cell_length_a                   14.4761(5)
_cell_length_b                   14.4761(5)
_cell_length_c                   40.5191(19)
_cell_angle_alpha                90
_cell_angle_beta                 90
_cell_angle_gamma                120
_cell_volume                     7353.49
_exptl_crystal_colour            'yellowish yellow'
_exptl_crystal_description       block
_cell_formula_units_Z            12
loop_
_atom_site_label
_atom_site_type_symbol
_atom_site_fract_x
_atom_site_fract_y
_atom_site_fract_z
F1 F 1.09022(12) 0.68975(13) 0.42664(4)
O1 O 1.00751(16) 0.73709(16) 0.37425(4)
H1 H 0.9759 0.7531 0.3606
N1 N 1.0000 1.0000 0.30979(6)
N2 N 0.88703(14) 0.80318(13) 0.35284(4)
C1 C 0.91781(15) 0.79843(14) 0.41008(4)
C2 C 0.98423(15) 0.75476(15) 0.40435(5)
C3 C 0.87174(15) 0.82353(15) 0.38226(5)
H2 H 0.8303 0.8551 0.3859
C4 C 1.02647(16) 0.73153(16) 0.43194(5)
C5 C 0.92958(18) 0.89005(17) 0.29942(4)
H3 H 0.9715 0.8554 0.2962
H4 H 0.8973 0.8900 0.2784
C6 C 1.00471(16) 0.74741(17) 0.46340(5)
H5 H 1.0336 0.7298 0.4812
C7 C 0.93911(18) 0.7902(2) 0.46867(5)
H6 H 0.9240 0.8017 0.4901
C8 C 0.89657(17) 0.81551(18) 0.44247(5)
H7 H 0.8529 0.8445 0.4462
C9 C 0.84259(17) 0.82720(18) 0.32425(5)
H8 H 0.8095 0.8682 0.3310
H9 H 0.7882 0.7614 0.3143
F1A F 1.31025(13) 1.40047(18) 0.42664(4)
O1A O 1.26291(16) 1.27042(23) 0.37425(4)
H1A H 1.2469 1.2228 0.3606
N2A N 1.19682(13) 1.08385(19) 0.35284(4)
C1A C 1.20157(14) 1.11938(21) 0.41008(4)
C2A C 1.24524(15) 1.22947(21) 0.40435(5)
C3A C 1.17647(15) 1.04821(21) 0.38226(5)
H2A H 1.1449 0.9752 0.3859
C4A C 1.26847(16) 1.29494(23) 0.43194(5)
C5A C 1.10995(17) 1.03953(25) 0.29942(4)
H3A H 1.1446 1.1161 0.2962
H4A H 1.1100 1.0073 0.2784
C6A C 1.25259(17) 1.25730(23) 0.46340(5)
H5A H 1.2702 1.3038 0.4812
C7A C 1.2098(2) 1.14891(27) 0.46867(5)
H6A H 1.1983 1.1223 0.4901
C8A C 1.18449(18) 1.08106(25) 0.44247(5)
H7A H 1.1555 1.0084 0.4462
C9A C 1.17280(18) 1.01539(25) 0.32425(5)
H8A H 1.1318 0.9413 0.3310
H9A H 1.2386 1.0268 0.3143
F1B F 0.59953(18) 0.90978(12) 0.42664(4)
O1B O 0.72958(23) 0.99249(16) 0.37425(4)
H1B H 0.7772 1.0241 0.3606
N2B N 0.91615(19) 1.11297(14) 0.35284(4)
C1B C 0.88062(21) 1.08219(15) 0.41008(4)
C2B C 0.77053(21) 1.01577(15) 0.40435(5)
C3B C 0.95179(21) 1.12826(15) 0.38226(5)
H2B H 1.0248 1.1697 0.3859
C4B C 0.70506(23) 0.97353(16) 0.43194(5)
C5B C 0.96047(25) 1.07042(18) 0.29942(4)
H3B H 0.8839 1.0285 0.2962
H4B H 0.9927 1.1027 0.2784
C6B C 0.74270(23) 0.99529(16) 0.46340(5)
H5B H 0.6962 0.9664 0.4812
C7B C 0.85109(27) 1.06089(18) 0.46867(5)
H6B H 0.8777 1.0760 0.4901
C8B C 0.91894(25) 1.10343(17) 0.44247(5)
H7B H 0.9916 1.1471 0.4462
C9B C 0.98461(25) 1.15741(17) 0.32425(5)
H8B H 1.0587 1.1905 0.3310
H9B H 0.9732 1.2118 0.3143
N3 N 0.6667 0.3333 0.52714(6)
F2 F 0.64232(13) 0.69443(12) 0.41544(4)
O2 O 0.58399(14) 0.55228(12) 0.46541(3)
H10 H 0.5695 0.5030 0.4782
N4 N 0.51199(13) 0.35778(12) 0.48320(4)
C10 C 0.56941(13) 0.33259(14) 0.53692(4)
H11 H 0.5859 0.4052 0.5413
H12 H 0.5427 0.2922 0.5572
C11 C 0.51462(15) 0.33484(16) 0.45270(5)
H13 H 0.4949 0.2650 0.4471
C12 C 0.54653(15) 0.41212(17) 0.42713(5)
C13 C 0.48315(14) 0.28424(15) 0.51072(5)
H14 H 0.4754 0.2171 0.5032
H15 H 0.4155 0.2702 0.5199
C14 C 0.58031(15) 0.52011(16) 0.43568(5)
C15 C 0.61109(17) 0.59133(19) 0.40851(6)
C16 C 0.5438(2) 0.3815(2) 0.39398(5)
H16 H 0.5203 0.3104 0.3890
C17 C 0.60982(19) 0.5613(2) 0.37672(6)
H17 H 0.6321 0.6118 0.3599
C18 C 0.5751(2) 0.4549(3) 0.36917(6)
H18 H 0.5734 0.4340 0.3474
F2A F 0.30557(12) -0.05211(18) 0.41544(4)
O2A O 0.44772(12) 0.03171(18) 0.46541(3)
H10A H 0.4970 0.0665 0.4782
N4A N 0.64222(12) 0.15421(18) 0.48320(4)
C10A C 0.66741(14) 0.23682(19) 0.53692(4)
H11A H 0.5948 0.1807 0.5413
H12A H 0.7078 0.2505 0.5572
C11A C 0.66516(16) 0.17978(22) 0.45270(5)
H13A H 0.7350 0.2299 0.4471
C12A C 0.58788(17) 0.13441(23) 0.42713(5)
C13A C 0.71576(15) 0.19891(21) 0.51072(5)
H14A H 0.7829 0.2583 0.5032
H15A H 0.7298 0.1453 0.5199
C14A C 0.47989(16) 0.06020(22) 0.43568(5)
C15A C 0.40867(19) 0.01976(25) 0.40851(6)
C16A C 0.6185(2) 0.1623(3) 0.39398(5)
H16A H 0.6896 0.2099 0.3890
C17A C 0.4387(2) 0.04852(28) 0.37672(6)
H17A H 0.3882 0.0203 0.3599
C18A C 0.5451(3) 0.1202(4) 0.36917(6)
H18A H 0.5660 0.1394 0.3474
F2B F 1.05211(18) 0.35768(13) 0.41544(4)
O2B O 0.96829(18) 0.41601(14) 0.46541(3)
H10B H 0.9335 0.4305 0.4782
N4B N 0.84579(18) 0.48801(13) 0.48320(4)
C10B C 0.76318(19) 0.43059(13) 0.53692(4)
H11B H 0.8193 0.4141 0.5413
H12B H 0.7495 0.4573 0.5572
C11B C 0.82022(22) 0.48538(15) 0.45270(5)
H13B H 0.7701 0.5051 0.4471
C12B C 0.86559(23) 0.45347(15) 0.42713(5)
C13B C 0.80109(21) 0.51685(14) 0.51072(5)
H14B H 0.7417 0.5246 0.5032
H15B H 0.8547 0.5845 0.5199
C14B C 0.93980(22) 0.41969(15) 0.43568(5)
C15B C 0.98024(25) 0.38891(17) 0.40851(6)
C16B C 0.8377(3) 0.4562(2) 0.39398(5)
H16B H 0.7901 0.4797 0.3890
C17B C 0.95148(28) 0.39018(19) 0.37672(6)
H17B H 0.9797 0.3679 0.3599
C18B C 0.8798(4) 0.4249(2) 0.36917(6)
H18B H 0.8606 0.4266 0.3474
loop_
_geom_bond_atom_site_label_1
_geom_bond_atom_site_label_2
_geom_bond_site_symmetry_1
_geom_bond_site_symmetry_2
F1 C4 1_555 1_555
O1 H1 1_555 1_555
N1 C5 1_555 1_555
N2 C3 1_555 1_555
C1 C2 1_555 1_555
C2 O1 1_555 1_555
C3 C1 1_555 1_555
H2 C3 1_555 1_555
C4 C2 1_555 1_555
C5 H3 1_555 1_555
H4 C5 1_555 1_555
C6 C4 1_555 1_555
H5 C6 1_555 1_555
C7 C6 1_555 1_555
H6 C7 1_555 1_555
C8 C1 1_555 1_555
H7 C8 1_555 1_555
C9 N2 1_555 1_555
H8 C9 1_555 1_555
H9 C9 1_555 1_555
N3 C10 1_555 1_555
F2 C15 1_555 1_555
O2 H10 1_555 1_555
N4 C11 1_555 1_555
C10 H11 1_555 1_555
H12 C10 1_555 1_555
C11 H13 1_555 1_555
C12 C11 1_555 1_555
C13 N4 1_555 1_555
H14 C13 1_555 1_555
H15 C13 1_555 1_555
C14 O2 1_555 1_555
C15 C14 1_555 1_555
C16 C12 1_555 1_555
H16 C16 1_555 1_555
C17 C15 1_555 1_555
H17 C17 1_555 1_555
C18 C16 1_555 1_555
H18 C18 1_555 1_555
F1A C4A 1_555 1_555
O1A H1A 1_555 1_555
N2A C3A 1_555 1_555
C1A C2A 1_555 1_555
C2A O1A 1_555 1_555
C3A C1A 1_555 1_555
H2A C3A 1_555 1_555
C4A C2A 1_555 1_555
C5A N1 1_555 1_555
H3A C5A 1_555 1_555
H4A C5A 1_555 1_555
C6A C4A 1_555 1_555
H5A C6A 1_555 1_555
C7A C6A 1_555 1_555
H6A C7A 1_555 1_555
C8A C1A 1_555 1_555
H7A C8A 1_555 1_555
C9A N2A 1_555 1_555
H8A C9A 1_555 1_555
H9A C9A 1_555 1_555
F1B C4B 1_555 1_555
O1B H1B 1_555 1_555
N2B C3B 1_555 1_555
C1B C2B 1_555 1_555
C2B O1B 1_555 1_555
C3B C1B 1_555 1_555
H2B C3B 1_555 1_555
C4B C2B 1_555 1_555
C5B N1 1_555 1_555
H3B C5B 1_555 1_555
H4B C5B 1_555 1_555
C6B C4B 1_555 1_555
H5B C6B 1_555 1_555
C7B C6B 1_555 1_555
H6B C7B 1_555 1_555
C8B C1B 1_555 1_555
H7B C8B 1_555 1_555
C9B N2B 1_555 1_555
H8B C9B 1_555 1_555
H9B C9B 1_555 1_555
F2A C15A 1_555 1_555
O2A H10A 1_555 1_555
N4A C11A 1_555 1_555
C10A N3 1_555 1_555
H11A C10A 1_555 1_555
H12A C10A 1_555 1_555
C11A H13A 1_555 1_555
C12A C11A 1_555 1_555
C13A N4A 1_555 1_555
H14A C13A 1_555 1_555
H15A C13A 1_555 1_555
C14A O2A 1_555 1_555
C15A C14A 1_555 1_555
C16A C12A 1_555 1_555
H16A C16A 1_555 1_555
C17A C15A 1_555 1_555
H17A C17A 1_555 1_555
C18A C16A 1_555 1_555
H18A C18A 1_555 1_555
F2B C15B 1_555 1_555
O2B H10B 1_555 1_555
N4B C11B 1_555 1_555
C10B N3 1_555 1_555
H11B C10B 1_555 1_555
H12B C10B 1_555 1_555
C11B H13B 1_555 1_555
C12B C11B 1_555 1_555
C13B N4B 1_555 1_555
H14B C13B 1_555 1_555
H15B C13B 1_555 1_555
C14B O2B 1_555 1_555
C15B C14B 1_555 1_555
C16B C12B 1_555 1_555
H16B C16B 1_555 1_555
C17B C15B 1_555 1_555
H17B C17B 1_555 1_555
C18B C16B 1_555 1_555
H18B C18B 1_555 1_555
C5 C9 1_555 1_555
C7 C8 1_555 1_555
C10 C13 1_555 1_555
C12 C14 1_555 1_555
C17 C18 1_555 1_555
C5A C9A 1_555 1_555
C7A C8A 1_555 1_555
C5B C9B 1_555 1_555
C7B C8B 1_555 1_555
C10A C13A 1_555 1_555
C12A C14A 1_555 1_555
C17A C18A 1_555 1_555
C10B C13B 1_555 1_555
C12B C14B 1_555 1_555
C17B C18B 1_555 1_555

#END
