
#######################################################################
#
#                 Cambridge Crystallographic Data Centre
#                                CCDC 
#
#######################################################################
#
# If this CIF has been generated from an entry in the Cambridge 
# Structural Database, then it will include bibliographic, chemical, 
# crystal, experimental, refinement or atomic coordinate data resulting 
# from the CCDC's data processing and validation procedures.
#
#######################################################################

data_VAMZEQ
_chemical_formula_moiety         'C10 H7 N3'
_chemical_name_systematic        5-phenyl-1H-pyrazole-3-carbonitrile
_symmetry_cell_setting           rhombohedral
_symmetry_space_group_name_H-M   'R -3'
_symmetry_Int_Tables_number      148
_space_group_name_Hall           '-R 3'
loop_
_symmetry_equiv_pos_site_id
_symmetry_equiv_pos_as_xyz
1 x,y,z
2 -y,x-y,z
3 -x+y,-x,z
4 2/3+x,1/3+y,1/3+z
5 2/3-y,1/3+x-y,1/3+z
6 2/3-x+y,1/3-x,1/3+z
7 1/3+x,2/3+y,2/3+z
8 1/3-y,2/3+x-y,2/3+z
9 1/3-x+y,2/3-x,2/3+z
10 -x,-y,-z
11 y,-x+y,-z
12 x-y,x,-z
13 1/3-x,2/3-y,2/3-z
14 1/3+y,2/3-x+y,2/3-z
15 1/3+x-y,2/3+x,2/3-z
16 2/3-x,1/3-y,1/3-z
17 2/3+y,1/3-x+y,1/3-z
18 2/3+x-y,1/3+x,1/3-z
_cell_length_a                   32.877(5)
_cell_length_b                   32.877(5)
_cell_length_c                   4.4202(8)
_cell_angle_alpha                90
_cell_angle_beta                 90
_cell_angle_gamma                120
_cell_volume                     4137.68
_exptl_crystal_colour            colorless
_exptl_crystal_description       prismatic
_cell_formula_units_Z            18
loop_
_atom_site_label
_atom_site_type_symbol
_atom_site_fract_x
_atom_site_fract_y
_atom_site_fract_z
N1 N 0.29056(5) 0.03417(6) 0.5594(4)
N2 N 0.33070(5) 0.05823(5) 0.7185(4)
N3 N 0.39088(7) 0.15769(7) 1.1683(5)
C1 C 0.26280(6) 0.05384(6) 0.5661(4)
C2 C 0.28687(6) 0.09347(6) 0.7407(4)
H1 H 0.2776 0.1152 0.7897
C3 C 0.32765(6) 0.09438(6) 0.8285(4)
C4 C 0.36377(7) 0.12899(7) 1.0167(5)
C5 C 0.21697(6) 0.03457(6) 0.4205(4)
C6 C 0.19759(7) -0.00509(7) 0.2431(5)
H2 H 0.2143 -0.0206 0.2077
C7 C 0.15370(7) -0.02219(8) 0.1172(5)
H3 H 0.1411 -0.0490 -0.0027
C8 C 0.12858(7) 0.00004(8) 0.1674(5)
H4 H 0.0987 -0.0119 0.0852
C9 C 0.14759(7) 0.03974(8) 0.3385(5)
H5 H 0.1308 0.0553 0.3700
C10 C 0.19126(7) 0.05705(7) 0.4647(5)
H6 H 0.2038 0.0842 0.5814
H7 H 0.2850(6) 0.0074(5) 0.474(4)
loop_
_geom_bond_atom_site_label_1
_geom_bond_atom_site_label_2
_geom_bond_site_symmetry_1
_geom_bond_site_symmetry_2
N1 N2 1_555 1_555
N2 C3 1_555 1_555
N3 C4 1_555 1_555
C1 N1 1_555 1_555
C2 C1 1_555 1_555
H1 C2 1_555 1_555
C3 C2 1_555 1_555
C4 C3 1_555 1_555
C5 C1 1_555 1_555
C6 C5 1_555 1_555
H2 C6 1_555 1_555
C7 C6 1_555 1_555
H3 C7 1_555 1_555
C8 C7 1_555 1_555
H4 C8 1_555 1_555
C9 C8 1_555 1_555
H5 C9 1_555 1_555
C10 C5 1_555 1_555
H6 C10 1_555 1_555
H7 N1 1_555 1_555
C9 C10 1_555 1_555

#END
