
#######################################################################
#
#                 Cambridge Crystallographic Data Centre
#                                CCDC 
#
#######################################################################
#
# If this CIF has been generated from an entry in the Cambridge 
# Structural Database, then it will include bibliographic, chemical, 
# crystal, experimental, refinement or atomic coordinate data resulting 
# from the CCDC's data processing and validation procedures.
#
#######################################################################

data_VANCUJ
_chemical_formula_moiety         'C15 H25 N6 1+,Cl1 O4 1-'
_chemical_name_systematic        
'1,4,7-tris(2-Cyanoethyl)-4,7-triaza-1-azoniacyclononane perchlorate'
_symmetry_cell_setting           monoclinic
_symmetry_space_group_name_H-M   'P 21/c'
_symmetry_Int_Tables_number      14
_space_group_name_Hall           '-P 2ybc'
loop_
_symmetry_equiv_pos_site_id
_symmetry_equiv_pos_as_xyz
1 x,y,z
2 x,1/2-y,1/2+z
3 -x,-y,-z
4 -x,1/2+y,1/2-z
_cell_length_a                   12.973(7)
_cell_length_b                   9.708(6)
_cell_length_c                   46.04(3)
_cell_angle_alpha                90
_cell_angle_beta                 92.544(12)
_cell_angle_gamma                90
_cell_volume                     5792.65
_exptl_crystal_colour            colorless
_exptl_crystal_description       block
_cell_formula_units_Z            12
loop_
_atom_site_label
_atom_site_type_symbol
_atom_site_fract_x
_atom_site_fract_y
_atom_site_fract_z
C1 C 0.82597(15) 1.0969(2) 0.24203(4)
H1 H 0.8343 1.1326 0.2617
H2 H 0.8300 1.1734 0.2286
C2 C 0.91004(15) 0.9938(2) 0.23654(4)
H3 H 0.9735 1.0422 0.2328
H4 H 0.9223 0.9370 0.2537
C3 C 0.89736(15) 0.7571(2) 0.21622(4)
H5 H 0.9674 0.7419 0.2238
H6 H 0.8886 0.7086 0.1979
C4 C 0.82281(16) 0.7012(2) 0.23730(4)
H7 H 0.8278 0.6015 0.2379
H8 H 0.8403 0.7362 0.2566
C5 C 0.65848(16) 0.7995(2) 0.25168(5)
H9 H 0.6576 0.7340 0.2676
H10 H 0.5877 0.8145 0.2447
C6 C 0.70385(16) 0.9355(2) 0.26293(4)
H11 H 0.6557 0.9799 0.2755
H12 H 0.7674 0.9181 0.2742
C7 C 0.63914(17) 1.1216(2) 0.23068(5)
H13 H 0.6419 1.1987 0.2441
H14 H 0.5744 1.0737 0.2330
C8 C 0.64223(19) 1.1746(3) 0.20032(5)
H15 H 0.7094 1.2149 0.1974
H16 H 0.6327 1.0986 0.1868
C9 C 0.5622(2) 1.2783(3) 0.19419(6)
C10 C 0.91763(14) 0.9560(2) 0.18372(4)
H17 H 0.9000 1.0527 0.1817
H18 H 0.8813 0.9069 0.1680
C11 C 1.03173(15) 0.9401(2) 0.18020(5)
H19 H 1.0691 0.9901 0.1956
H20 H 1.0504 0.8436 0.1819
C12 C 1.06091(17) 0.9922(3) 0.15208(6)
C13 C 0.66134(17) 0.6404(2) 0.21077(5)
H21 H 0.6236 0.5802 0.2233
H22 H 0.7112 0.5845 0.2010
C14 C 0.58685(18) 0.7017(3) 0.18829(5)
H23 H 0.5513 0.6281 0.1777
H24 H 0.5356 0.7558 0.1979
C15 C 0.6400(2) 0.7887(3) 0.16800(6)
N1 N 0.72487(13) 1.02756(18) 0.23801(4)
N2 N 0.88029(11) 0.90584(17) 0.21145(3)
N3 N 0.71624(13) 0.74190(18) 0.22855(4)
H25 H 0.7245 0.8141 0.2163
N4 N 0.50208(19) 1.3593(3) 0.18916(5)
N5 N 1.08328(15) 1.0314(2) 0.13025(5)
N6 N 0.68055(18) 0.8564(3) 0.15315(5)
C16 C 0.74927(17) 0.1787(3) 0.11601(5)
H26 H 0.6827 0.1387 0.1198
H27 H 0.7787 0.2151 0.1342
C17 C 0.81872(19) 0.0692(3) 0.10493(5)
H28 H 0.8137 -0.0121 0.1170
H29 H 0.8895 0.1015 0.1066
C18 C 0.6913(2) -0.0393(3) 0.06929(6)
H30 H 0.6524 -0.0333 0.0868
H31 H 0.7006 -0.1357 0.0646
C19 C 0.6351(2) 0.0343(3) 0.04451(6)
H32 H 0.6679 0.0122 0.0266
H33 H 0.5647 0.0006 0.0428
C20 C 0.56906(17) 0.2339(3) 0.07070(5)
H34 H 0.5481 0.1581 0.0828
H35 H 0.5075 0.2767 0.0621
C21 C 0.62963(17) 0.3377(3) 0.08887(5)
H36 H 0.6301 0.4252 0.0787
H37 H 0.5964 0.3516 0.1071
C22 C 0.80762(16) 0.4073(2) 0.09945(5)
H38 H 0.8110 0.4587 0.0815
H39 H 0.8758 0.3701 0.1040
C23 C 0.77976(17) 0.5062(3) 0.12361(5)
H40 H 0.7110 0.5426 0.1195
H41 H 0.7794 0.4568 0.1419
C24 C 0.8532(2) 0.6194(3) 0.12610(6)
C25 C 0.8727(2) -0.0529(3) 0.06168(6)
H42 H 0.8410 -0.1145 0.0473
H43 H 0.9046 -0.1091 0.0770
C26 C 0.9528(3) 0.0270(4) 0.04804(8)
H44 H 0.9992 0.0614 0.0635
H45 H 0.9922 -0.0365 0.0366
C27 C 0.9251(3) 0.1405(4) 0.02982(9)
C28 C 0.62718(17) 0.2677(3) 0.02092(5)
H46 H 0.6347 0.3641 0.0261
H47 H 0.6843 0.2432 0.0090
C29 C 0.52851(19) 0.2491(3) 0.00344(5)
H48 H 0.5249 0.1556 -0.0040
H49 H 0.4709 0.2627 0.0159
C30 C 0.5198(2) 0.3446(4) -0.02061(7)
N7 N 0.73515(13) 0.2917(2) 0.09475(4)
N8 N 0.79333(18) 0.0300(2) 0.07382(5)
N9 N 0.63334(14) 0.1829(2) 0.04806(4)
H50 H 0.6982 0.2012 0.0554
N10 N 0.91336(18) 0.7030(2) 0.12693(5)
N11 N 0.9094(2) 0.2369(3) 0.01851(8)
N12 N 0.5178(2) 0.4254(3) -0.03876(5)
C31 C 0.18364(17) 0.6636(2) 0.13726(5)
H51 H 0.1100 0.6501 0.1338
H52 H 0.1942 0.7337 0.1521
C32 C 0.23461(17) 0.5299(3) 0.14700(5)
H53 H 0.3036 0.5483 0.1551
H54 H 0.1951 0.4872 0.1620
C33 C 0.13751(17) 0.3769(2) 0.11166(5)
H55 H 0.1316 0.2831 0.1186
H56 H 0.0820 0.4306 0.1194
C34 C 0.12883(18) 0.3787(3) 0.07916(5)
H57 H 0.1697 0.3040 0.0717
H58 H 0.0575 0.3631 0.0728
C35 C 0.10003(19) 0.6253(3) 0.07286(5)
H59 H 0.0474 0.5983 0.0861
H60 H 0.0654 0.6546 0.0548
C36 C 0.15841(19) 0.7431(3) 0.08559(5)
H61 H 0.1097 0.8108 0.0922
H62 H 0.1973 0.7857 0.0705
C37 C 0.30984(18) 0.8152(2) 0.11578(5)
H63 H 0.3318 0.8144 0.1362
H64 H 0.2793 0.9045 0.1114
C38 C 0.40249(19) 0.7955(3) 0.09765(5)
H65 H 0.3800 0.7802 0.0775
H66 H 0.4448 0.8779 0.0985
C39 C 0.4624(2) 0.6796(3) 0.10810(6)
C40 C 0.32738(18) 0.3346(3) 0.12101(5)
H67 H 0.3264 0.2925 0.1019
H68 H 0.3922 0.3837 0.1238
C41 C 0.32268(19) 0.2233(3) 0.14347(6)
H69 H 0.3255 0.2623 0.1629
H70 H 0.2595 0.1705 0.1408
C42 C 0.4144(2) 0.1348(3) 0.13906(6)
C43 C 0.2085(2) 0.4973(3) 0.03850(5)
H71 H 0.2669 0.4350 0.0398
H72 H 0.2338 0.5873 0.0330
C44 C 0.1328(2) 0.4469(3) 0.01528(6)
H73 H 0.1032 0.3604 0.0214
H74 H 0.0773 0.5132 0.0127
C45 C 0.1819(3) 0.4269(3) -0.01234(7)
N13 N 0.23100(14) 0.70652(19) 0.11034(4)
N14 N 0.23999(13) 0.4365(2) 0.12196(4)
N15 N 0.16330(15) 0.5074(2) 0.06715(4)
H75 H 0.2202 0.5253 0.0788
N16 N 0.50849(19) 0.5914(3) 0.11746(5)
N17 N 0.48413(18) 0.0757(3) 0.13599(5)
N18 N 0.2163(3) 0.4116(3) -0.03344(6)
Cl1 Cl 0.97209(5) 0.37066(7) 0.186080(14)
O1 O 0.87181(17) 0.3970(3) 0.19581(5)
O2 O 0.95953(15) 0.3190(2) 0.15799(4)
O3 O 1.01963(18) 0.2737(2) 0.20408(5)
O4 O 1.02135(15) 0.4965(2) 0.18619(4)
Cl2 Cl 0.27955(6) 0.05891(8) 0.039000(16)
O5 O 0.3214(3) -0.0590(3) 0.03311(5)
O6 O 0.2823(3) 0.1527(3) 0.01694(6)
O7 O 0.1824(2) 0.0423(4) 0.03893(10)
O8 O 0.2988(3) 0.0952(3) 0.06748(6)
Cl3 Cl 0.31824(5) 0.90705(8) 0.208730(15)
O9 O 0.28191(16) 1.0002(3) 0.18826(5)
O10 O 0.32113(16) 0.7729(2) 0.19764(4)
O11 O 0.24697(16) 0.9043(2) 0.23099(4)
O12 O 0.41152(16) 0.9381(2) 0.22253(5)
loop_
_geom_bond_atom_site_label_1
_geom_bond_atom_site_label_2
_geom_bond_site_symmetry_1
_geom_bond_site_symmetry_2
C1 H1 1_555 1_555
H2 C1 1_555 1_555
C2 C1 1_555 1_555
H3 C2 1_555 1_555
H4 C2 1_555 1_555
C3 H5 1_555 1_555
H6 C3 1_555 1_555
C4 C3 1_555 1_555
H7 C4 1_555 1_555
H8 C4 1_555 1_555
C5 H9 1_555 1_555
H10 C5 1_555 1_555
C6 C5 1_555 1_555
H11 C6 1_555 1_555
H12 C6 1_555 1_555
C7 H13 1_555 1_555
H14 C7 1_555 1_555
C8 C7 1_555 1_555
H15 C8 1_555 1_555
H16 C8 1_555 1_555
C9 C8 1_555 1_555
C10 H17 1_555 1_555
H18 C10 1_555 1_555
C11 C10 1_555 1_555
H19 C11 1_555 1_555
H20 C11 1_555 1_555
C12 C11 1_555 1_555
C13 H21 1_555 1_555
H22 C13 1_555 1_555
C14 C13 1_555 1_555
H23 C14 1_555 1_555
H24 C14 1_555 1_555
C15 C14 1_555 1_555
N1 C1 1_555 1_555
N2 C2 1_555 1_555
N3 C4 1_555 1_555
H25 N3 1_555 1_555
N4 C9 1_555 1_555
N5 C12 1_555 1_555
N6 C15 1_555 1_555
C16 H26 1_555 1_555
H27 C16 1_555 1_555
C17 C16 1_555 1_555
H28 C17 1_555 1_555
H29 C17 1_555 1_555
C18 H30 1_555 1_555
H31 C18 1_555 1_555
C19 C18 1_555 1_555
H32 C19 1_555 1_555
H33 C19 1_555 1_555
C20 H34 1_555 1_555
H35 C20 1_555 1_555
C21 C20 1_555 1_555
H36 C21 1_555 1_555
H37 C21 1_555 1_555
C22 H38 1_555 1_555
H39 C22 1_555 1_555
C23 C22 1_555 1_555
H40 C23 1_555 1_555
H41 C23 1_555 1_555
C24 C23 1_555 1_555
C25 H42 1_555 1_555
H43 C25 1_555 1_555
C26 C25 1_555 1_555
H44 C26 1_555 1_555
H45 C26 1_555 1_555
C27 C26 1_555 1_555
C28 H46 1_555 1_555
H47 C28 1_555 1_555
C29 C28 1_555 1_555
H48 C29 1_555 1_555
H49 C29 1_555 1_555
C30 C29 1_555 1_555
N7 C16 1_555 1_555
N8 C17 1_555 1_555
N9 C19 1_555 1_555
H50 N9 1_555 1_555
N10 C24 1_555 1_555
N11 C27 1_555 1_555
N12 C30 1_555 1_555
C31 H51 1_555 1_555
H52 C31 1_555 1_555
C32 C31 1_555 1_555
H53 C32 1_555 1_555
H54 C32 1_555 1_555
C33 H55 1_555 1_555
H56 C33 1_555 1_555
C34 C33 1_555 1_555
H57 C34 1_555 1_555
H58 C34 1_555 1_555
C35 H59 1_555 1_555
H60 C35 1_555 1_555
C36 C35 1_555 1_555
H61 C36 1_555 1_555
H62 C36 1_555 1_555
C37 H63 1_555 1_555
H64 C37 1_555 1_555
C38 C37 1_555 1_555
H65 C38 1_555 1_555
H66 C38 1_555 1_555
C39 C38 1_555 1_555
C40 H67 1_555 1_555
H68 C40 1_555 1_555
C41 C40 1_555 1_555
H69 C41 1_555 1_555
H70 C41 1_555 1_555
C42 C41 1_555 1_555
C43 H71 1_555 1_555
H72 C43 1_555 1_555
C44 C43 1_555 1_555
H73 C44 1_555 1_555
H74 C44 1_555 1_555
C45 C44 1_555 1_555
N13 C31 1_555 1_555
N14 C32 1_555 1_555
N15 C34 1_555 1_555
H75 N15 1_555 1_555
N16 C39 1_555 1_555
N17 C42 1_555 1_555
N18 C45 1_555 1_555
Cl1 O1 1_555 1_555
O2 Cl1 1_555 1_555
O3 Cl1 1_555 1_555
O4 Cl1 1_555 1_555
Cl2 O5 1_555 1_555
O6 Cl2 1_555 1_555
O7 Cl2 1_555 1_555
O8 Cl2 1_555 1_555
Cl3 O9 1_555 1_555
O10 Cl3 1_555 1_555
O11 Cl3 1_555 1_555
O12 Cl3 1_555 1_555
C3 N2 1_555 1_555
C5 N3 1_555 1_555
C6 N1 1_555 1_555
C7 N1 1_555 1_555
C10 N2 1_555 1_555
C13 N3 1_555 1_555
C18 N8 1_555 1_555
C20 N9 1_555 1_555
C21 N7 1_555 1_555
C22 N7 1_555 1_555
C25 N8 1_555 1_555
C28 N9 1_555 1_555
C33 N14 1_555 1_555
C35 N15 1_555 1_555
C36 N13 1_555 1_555
C37 N13 1_555 1_555
C40 N14 1_555 1_555
C43 N15 1_555 1_555

#END
