
#######################################################################
#
#                 Cambridge Crystallographic Data Centre
#                                CCDC 
#
#######################################################################
#
# If this CIF has been generated from an entry in the Cambridge 
# Structural Database, then it will include bibliographic, chemical, 
# crystal, experimental, refinement or atomic coordinate data resulting 
# from the CCDC's data processing and validation procedures.
#
#######################################################################

data_VANCEU
_chemical_formula_moiety         'C16 H15 F1 O2'
_chemical_name_systematic        
2-Fluoro-3-hydroxy-2-methyl-1,3-diphenylpropan-1-one
_symmetry_cell_setting           monoclinic
_symmetry_space_group_name_H-M   'P 21'
_symmetry_Int_Tables_number      4
_space_group_name_Hall           'P 2yb'
loop_
_symmetry_equiv_pos_site_id
_symmetry_equiv_pos_as_xyz
1 x,y,z
2 -x,1/2+y,-z
_cell_length_a                   10.722(2)
_cell_length_b                   5.6702(11)
_cell_length_c                   10.889(2)
_cell_angle_alpha                90
_cell_angle_beta                 101.319(2)
_cell_angle_gamma                90
_cell_volume                     649.13
_exptl_crystal_colour            colorless
_exptl_crystal_description       block
_cell_formula_units_Z            2
loop_
_atom_site_label
_atom_site_type_symbol
_atom_site_fract_x
_atom_site_fract_y
_atom_site_fract_z
F1 F 0.03027(5) 0.07411(13) 0.65755(5)
O1 O 0.05914(7) -0.05683(16) 0.90858(7)
H1 H 0.0956 -0.0849 0.9806
O2 O -0.17312(7) 0.26014(17) 0.85459(7)
C1 C 0.28622(9) -0.0049(2) 0.80658(10)
H2 H 0.2374 -0.1373 0.7793
C2 C 0.41294(10) 0.0053(2) 0.79376(9)
H3 H 0.4484 -0.1205 0.7578
C3 C 0.48655(9) 0.2024(2) 0.83446(9)
H4 H 0.5709 0.2091 0.8252
C4 C 0.43382(9) 0.3894(2) 0.88890(9)
H5 H 0.4829 0.5214 0.9164
C5 C 0.30682(9) 0.3796(2) 0.90239(9)
H6 H 0.2719 0.5045 0.9396
C6 C 0.23248(8) 0.1836(2) 0.86037(9)
C7 C 0.09410(9) 0.1725(2) 0.87337(9)
H7 H 0.0802 0.2864 0.9370
C8 C 0.00150(9) 0.2275(2) 0.74902(9)
C9 C 0.01075(9) 0.4787(2) 0.70385(11)
H8 H 0.0942 0.5055 0.6871
H9 H -0.0046 0.5865 0.7673
H10 H -0.0515 0.5031 0.6286
C10 C -0.13448(9) 0.1714(2) 0.76740(9)
C11 C -0.21563(8) 0.0072(2) 0.67879(9)
C12 C -0.22900(10) 0.0297(2) 0.54927(10)
H11 H -0.1852 0.1471 0.5157
C13 C -0.30836(11) -0.1246(3) 0.47062(11)
H12 H -0.3188 -0.1082 0.3842
C14 C -0.37166(10) -0.3022(3) 0.52018(11)
H13 H -0.4240 -0.4054 0.4670
C15 C -0.35746(10) -0.3272(2) 0.64940(11)
H14 H -0.3990 -0.4486 0.6825
C16 C -0.28088(10) -0.1697(2) 0.72898(10)
H15 H -0.2733 -0.1826 0.8153
loop_
_geom_bond_atom_site_label_1
_geom_bond_atom_site_label_2
_geom_bond_site_symmetry_1
_geom_bond_site_symmetry_2
F1 C8 1_555 1_555
O1 H1 1_555 1_555
O2 C10 1_555 1_555
C1 H2 1_555 1_555
C2 C1 1_555 1_555
H3 C2 1_555 1_555
C3 C2 1_555 1_555
H4 C3 1_555 1_555
C4 C3 1_555 1_555
H5 C4 1_555 1_555
C5 C4 1_555 1_555
H6 C5 1_555 1_555
C6 C1 1_555 1_555
C7 O1 1_555 1_555
H7 C7 1_555 1_555
C8 C7 1_555 1_555
C9 C8 1_555 1_555
H8 C9 1_555 1_555
H9 C9 1_555 1_555
H10 C9 1_555 1_555
C10 C8 1_555 1_555
C11 C10 1_555 1_555
C12 C11 1_555 1_555
H11 C12 1_555 1_555
C13 C12 1_555 1_555
H12 C13 1_555 1_555
C14 C13 1_555 1_555
H13 C14 1_555 1_555
C15 C14 1_555 1_555
H14 C15 1_555 1_555
C16 C11 1_555 1_555
H15 C16 1_555 1_555
C5 C6 1_555 1_555
C6 C7 1_555 1_555
C15 C16 1_555 1_555

#END
