
#######################################################################
#
#                 Cambridge Crystallographic Data Centre
#                                CCDC 
#
#######################################################################
#
# If this CIF has been generated from an entry in the Cambridge 
# Structural Database, then it will include bibliographic, chemical, 
# crystal, experimental, refinement or atomic coordinate data resulting 
# from the CCDC's data processing and validation procedures.
#
#######################################################################

data_VANDEV
_chemical_formula_moiety         'C34 H41 N3 O2'
_chemical_name_systematic        
1,3-bis(2,6-Di-isopropylphenyl)-2-(4-methylbenzylidene)-2,3-dihydro-1H-imidazole
_symmetry_cell_setting           monoclinic
_symmetry_space_group_name_H-M   'P 21/c'
_symmetry_Int_Tables_number      14
_space_group_name_Hall           '-P 2ybc'
loop_
_symmetry_equiv_pos_site_id
_symmetry_equiv_pos_as_xyz
1 x,y,z
2 -x,1/2+y,1/2-z
3 -x,-y,-z
4 x,1/2-y,1/2+z
_cell_length_a                   18.7758(7)
_cell_length_b                   9.1454(4)
_cell_length_c                   18.1216(7)
_cell_angle_alpha                90
_cell_angle_beta                 102.084(2)
_cell_angle_gamma                90
_cell_volume                     3042.75
_exptl_crystal_colour            blue
_exptl_crystal_description       prism
_cell_formula_units_Z            4
loop_
_atom_site_label
_atom_site_type_symbol
_atom_site_fract_x
_atom_site_fract_y
_atom_site_fract_z
O1 O 0.14626(5) 0.16963(12) 0.36487(6)
O2 O 0.25290(6) 0.27203(11) 0.37857(6)
N1 N 0.20830(6) 0.17601(14) 0.35072(7)
N2 N 0.19811(5) -0.37998(12) 0.06946(7)
N3 N 0.31151(6) -0.42011(12) 0.06411(7)
C1 C 0.22908(7) 0.06905(15) 0.30189(8)
C2 C 0.29553(7) 0.08421(16) 0.27956(8)
H1 H 0.3265 0.1649 0.2965
C3 C 0.31530(7) -0.01850(16) 0.23308(8)
H2 H 0.3610 -0.0081 0.2189
C4 C 0.27081(7) -0.14062(15) 0.20472(8)
C5 C 0.29849(7) -0.23692(15) 0.15637(8)
H3 H 0.3499 -0.2296 0.1624
C6 C 0.26844(7) -0.33969(15) 0.10210(8)
C7 C 0.13130(7) -0.31798(16) 0.08335(8)
C8 C 0.11465(7) -0.17234(16) 0.06223(8)
C9 C 0.05101(7) -0.11554(17) 0.07889(9)
H4 H 0.0382 -0.0167 0.0665
C10 C 0.00611(8) -0.19994(17) 0.11308(9)
H5 H -0.0368 -0.1584 0.1244
C11 C 0.02315(8) -0.34407(17) 0.13092(9)
H6 H -0.0090 -0.4014 0.1531
C12 C 0.08662(7) -0.40727(16) 0.11702(8)
C13 C 0.10720(9) -0.56409(17) 0.14052(10)
H7 H 0.1329 -0.6031 0.1016
C14 C 0.0470(6) -0.6667(14) 0.1497(4)
H8 H 0.0280 -0.6378 0.1940
H9 H 0.0660 -0.7667 0.1566
H10 H 0.0078 -0.6625 0.1046
C15 C 0.16997(17) -0.5686(5) 0.2113(2)
H11 H 0.1529 -0.5280 0.2546
H12 H 0.2111 -0.5106 0.2020
H13 H 0.1855 -0.6701 0.2220
C16 C 0.16201(7) -0.08144(16) 0.02113(8)
H14 H 0.2133 -0.1162 0.0385
C17 C 0.14064(8) -0.10954(18) -0.06396(9)
H15 H 0.1468 -0.2136 -0.0740
H16 H 0.1718 -0.0514 -0.0898
H17 H 0.0896 -0.0816 -0.0825
C18 C 0.16124(8) 0.08225(16) 0.03857(9)
H18 H 0.1124 0.1216 0.0191
H19 H 0.1964 0.1328 0.0145
H20 H 0.1745 0.0971 0.0933
C19 C 0.19910(7) -0.48292(16) 0.01284(9)
H21 H 0.1577 -0.5282 -0.0178
C20 C 0.26836(7) -0.50648(16) 0.00939(9)
H22 H 0.2852 -0.5708 -0.0244
C21 C 0.38812(7) -0.39382(15) 0.06826(8)
C22 C 0.40744(7) -0.28580(16) 0.02155(8)
C23 C 0.48169(8) -0.26533(17) 0.02477(9)
H23 H 0.4970 -0.1932 -0.0063
C24 C 0.53336(8) -0.34810(17) 0.07242(9)
H24 H 0.5836 -0.3337 0.0730
C25 C 0.51245(7) -0.45184(17) 0.11933(9)
H25 H 0.5486 -0.5070 0.1523
C26 C 0.43902(7) -0.47662(16) 0.11892(8)
C27 C 0.41534(8) -0.58866(17) 0.17092(9)
H26 H 0.3631 -0.5678 0.1710
C28 C 0.46587(17) -0.6035(4) 0.24524(17)
H27 H 0.5120 -0.6456 0.2382
H28 H 0.4441 -0.6679 0.2777
H29 H 0.4749 -0.5071 0.2689
C29 C 0.40305(18) -0.7347(3) 0.12790(19)
H30 H 0.4496 -0.7712 0.1191
H31 H 0.3693 -0.7198 0.0794
H32 H 0.3824 -0.8063 0.1579
C30 C 0.35163(8) -0.19000(17) -0.02950(9)
H33 H 0.3023 -0.2237 -0.0242
C31 C 0.35505(10) -0.2051(2) -0.11195(10)
H34 H 0.4029 -0.1727 -0.1192
H35 H 0.3170 -0.1448 -0.1427
H36 H 0.3475 -0.3077 -0.1273
C32 C 0.35951(9) -0.03047(18) -0.00399(11)
H37 H 0.3557 -0.0238 0.0490
H38 H 0.3208 0.0280 -0.0351
H39 H 0.4071 0.0067 -0.0095
C33 C 0.20460(7) -0.15296(16) 0.23089(8)
H40 H 0.1737 -0.2346 0.2156
C34 C 0.18434(7) -0.05033(16) 0.27745(8)
H41 H 0.1394 -0.0606 0.2932
C35? C 0.0376(9) -0.659(2) 0.1166(7)
H42? H 0.0499 -0.7623 0.1273
H43? H 0.0180 -0.6469 0.0624
H44? H 0.0011 -0.6285 0.1448
C36? C 0.1242(6) -0.5674(8) 0.2275(4)
H45? H 0.0881 -0.5085 0.2462
H46? H 0.1729 -0.5272 0.2467
H47? H 0.1223 -0.6685 0.2449
C37? C 0.4283(3) -0.5222(5) 0.2545(3)
H48? H 0.4126 -0.5932 0.2883
H49? H 0.4002 -0.4319 0.2538
H50? H 0.4802 -0.5009 0.2724
C38? C 0.4569(3) -0.7355(5) 0.1785(3)
H51? H 0.5091 -0.7173 0.1963
H52? H 0.4487 -0.7841 0.1292
H53? H 0.4392 -0.7983 0.2146
loop_
_geom_bond_atom_site_label_1
_geom_bond_atom_site_label_2
_geom_bond_site_symmetry_1
_geom_bond_site_symmetry_2
O1 N1 1_555 1_555
O2 N1 1_555 1_555
N1 C1 1_555 1_555
N2 C6 1_555 1_555
N3 C6 1_555 1_555
C1 C2 1_555 1_555
C2 H1 1_555 1_555
C3 C2 1_555 1_555
H2 C3 1_555 1_555
C4 C3 1_555 1_555
C5 C4 1_555 1_555
H3 C5 1_555 1_555
C6 C5 1_555 1_555
C7 N2 1_555 1_555
C8 C7 1_555 1_555
C9 C8 1_555 1_555
H4 C9 1_555 1_555
C10 C9 1_555 1_555
H5 C10 1_555 1_555
C11 C10 1_555 1_555
H6 C11 1_555 1_555
C12 C7 1_555 1_555
C13 C12 1_555 1_555
H7 C13 1_555 1_555
C14 C13 1_555 1_555
H8 C14 1_555 1_555
H9 C14 1_555 1_555
H10 C14 1_555 1_555
C15 C13 1_555 1_555
H11 C15 1_555 1_555
H12 C15 1_555 1_555
H13 C15 1_555 1_555
C16 C8 1_555 1_555
H14 C16 1_555 1_555
C17 C16 1_555 1_555
H15 C17 1_555 1_555
H16 C17 1_555 1_555
H17 C17 1_555 1_555
C18 C16 1_555 1_555
H18 C18 1_555 1_555
H19 C18 1_555 1_555
H20 C18 1_555 1_555
C19 N2 1_555 1_555
H21 C19 1_555 1_555
C20 N3 1_555 1_555
H22 C20 1_555 1_555
C21 N3 1_555 1_555
C22 C21 1_555 1_555
C23 C22 1_555 1_555
H23 C23 1_555 1_555
C24 C23 1_555 1_555
H24 C24 1_555 1_555
C25 C24 1_555 1_555
H25 C25 1_555 1_555
C26 C21 1_555 1_555
C27 C26 1_555 1_555
H26 C27 1_555 1_555
C28 C27 1_555 1_555
H27 C28 1_555 1_555
H28 C28 1_555 1_555
H29 C28 1_555 1_555
C29 C27 1_555 1_555
H30 C29 1_555 1_555
H31 C29 1_555 1_555
H32 C29 1_555 1_555
C30 C22 1_555 1_555
H33 C30 1_555 1_555
C31 C30 1_555 1_555
H34 C31 1_555 1_555
H35 C31 1_555 1_555
H36 C31 1_555 1_555
C32 C30 1_555 1_555
H37 C32 1_555 1_555
H38 C32 1_555 1_555
H39 C32 1_555 1_555
C33 C4 1_555 1_555
H40 C33 1_555 1_555
C34 C1 1_555 1_555
H41 C34 1_555 1_555
C11 C12 1_555 1_555
C19 C20 1_555 1_555
C25 C26 1_555 1_555
C33 C34 1_555 1_555

#END
