
#######################################################################
#
#                 Cambridge Crystallographic Data Centre
#                                CCDC 
#
#######################################################################
#
# If this CIF has been generated from an entry in the Cambridge 
# Structural Database, then it will include bibliographic, chemical, 
# crystal, experimental, refinement or atomic coordinate data resulting 
# from the CCDC's data processing and validation procedures.
#
#######################################################################

data_VANSUZ
_chemical_formula_moiety         'C25 H30 O7 S1'
_chemical_name_systematic        
'2,2-Dimethyl-8-(p-tolylsulfonyl)-9-oxo-3a,4,4a,7,9,9a-hexahydro-naphtho(2,3-d)(1,3)dioxol-4-yl pivalate'
_symmetry_cell_setting           monoclinic
_symmetry_space_group_name_H-M   'P 21'
_symmetry_Int_Tables_number      4
_space_group_name_Hall           'P 2yb'
loop_
_symmetry_equiv_pos_site_id
_symmetry_equiv_pos_as_xyz
1 x,y,z
2 -x,1/2+y,-z
_cell_length_a                   12.698(7)
_cell_length_b                   8.120(5)
_cell_length_c                   12.992(8)
_cell_angle_alpha                90
_cell_angle_beta                 110.828(10)
_cell_angle_gamma                90
_cell_volume                     1252.04
_exptl_crystal_colour            colorless
_exptl_crystal_description       plate
_chemical_melting_point          '155-157 deg.C'
_cell_formula_units_Z            2
loop_
_atom_site_label
_atom_site_type_symbol
_atom_site_fract_x
_atom_site_fract_y
_atom_site_fract_z
S1 S 0.71064(7) 0.82929(9) 0.64733(7)
O1 O 0.63872(19) 0.7621(3) 0.70022(19)
O2 O 0.77650(18) 0.9729(3) 0.69338(17)
O3 O 0.90653(17) 0.9617(3) 0.54975(18)
O4 O 1.12942(18) 1.0199(3) 0.70514(19)
O5 O 1.24769(17) 0.7923(3) 0.73644(17)
O6 O 1.11457(17) 0.5540(3) 0.80390(17)
O7 O 1.2843(2) 0.4369(3) 0.83963(19)
C1 C 0.8031(3) 0.6661(4) 0.6401(3)
C2 C 0.9017(3) 0.6933(4) 0.6291(2)
C3 C 0.9508(3) 0.8639(4) 0.6221(3)
C4 C 1.0678(3) 0.8747(4) 0.7038(3)
H1 H 1.0677 0.8514 0.7793
C5 C 1.1368(3) 0.7460(4) 0.6720(3)
H2 H 1.1261 0.7598 0.5924
C6 C 1.1025(3) 0.5733(4) 0.6903(2)
H3 H 1.1494 0.4902 0.6693
C7 C 0.9771(3) 0.5538(4) 0.6180(3)
H4 H 0.9733 0.5552 0.5398
C8 C 0.9351(3) 0.3876(4) 0.6369(3)
H5 H 0.9814 0.2943 0.6402
C9 C 0.8369(3) 0.3641(4) 0.6490(3)
H6 H 0.8166 0.2546 0.6598
C10 C 0.7566(3) 0.4983(4) 0.6468(3)
H7 H 0.7375 0.4917 0.7142
H8 H 0.6863 0.4822 0.5827
C11 C 0.6269(3) 0.8678(4) 0.5088(3)
C12 C 0.6539(2) 0.9956(4) 0.4517(3)
H9 H 0.7155 1.0666 0.4877
C13 C 0.5902(3) 1.0179(4) 0.3425(3)
H10 H 0.6078 1.1060 0.3033
C14 C 0.4995(3) 0.9135(4) 0.2874(3)
C15 C 0.4734(3) 0.7876(4) 0.3472(3)
H11 H 0.4117 0.7166 0.3117
C16 C 0.5362(3) 0.7646(4) 0.4578(3)
H12 H 0.5174 0.6792 0.4982
C17 C 0.4343(3) 0.9396(5) 0.1683(3)
H13 H 0.3738 0.8578 0.1429
H14 H 0.4845 0.9276 0.1263
H15 H 0.4018 1.0505 0.1572
C18 C 1.2477(3) 0.9705(4) 0.7414(3)
C19 C 1.2960(3) 1.0426(5) 0.6617(3)
H16 H 1.2557 0.9984 0.5879
H17 H 1.3760 1.0138 0.6845
H18 H 1.2880 1.1627 0.6605
C20 C 1.3100(3) 1.0192(5) 0.8588(3)
H19 H 1.3862 0.9727 0.8835
H20 H 1.2699 0.9773 0.9053
H21 H 1.3147 1.1396 0.8643
C21 C 1.2129(3) 0.4867(4) 0.8721(3)
C22 C 1.2171(3) 0.4809(5) 0.9899(3)
C23 C 1.1648(4) 0.6346(5) 1.0197(3)
H22 H 1.0843 0.6384 0.9753
H23 H 1.2019 0.7330 1.0050
H24 H 1.1746 0.6312 1.0980
C24 C 1.3410(3) 0.4660(5) 1.0641(3)
H25 H 1.3838 0.5574 1.0491
H26 H 1.3713 0.3613 1.0494
H27 H 1.3471 0.4697 1.1414
C25 C 1.1508(3) 0.3272(6) 0.9998(3)
H28 H 1.1853 0.2291 0.9811
H29 H 1.0726 0.3368 0.9491
H30 H 1.1522 0.3176 1.0755
loop_
_geom_bond_atom_site_label_1
_geom_bond_atom_site_label_2
_geom_bond_site_symmetry_1
_geom_bond_site_symmetry_2
S1 O1 1_555 1_555
O2 S1 1_555 1_555
O3 C3 1_555 1_555
O4 C4 1_555 1_555
O5 C5 1_555 1_555
O6 C6 1_555 1_555
O7 C21 1_555 1_555
C1 S1 1_555 1_555
C2 C1 1_555 1_555
C3 C2 1_555 1_555
C4 C3 1_555 1_555
H1 C4 1_555 1_555
C5 C4 1_555 1_555
H2 C5 1_555 1_555
C6 C5 1_555 1_555
H3 C6 1_555 1_555
C7 C2 1_555 1_555
H4 C7 1_555 1_555
C8 C7 1_555 1_555
H5 C8 1_555 1_555
C9 C8 1_555 1_555
H6 C9 1_555 1_555
C10 C1 1_555 1_555
H7 C10 1_555 1_555
H8 C10 1_555 1_555
C11 S1 1_555 1_555
C12 C11 1_555 1_555
H9 C12 1_555 1_555
C13 C12 1_555 1_555
H10 C13 1_555 1_555
C14 C13 1_555 1_555
C15 C14 1_555 1_555
H11 C15 1_555 1_555
C16 C11 1_555 1_555
H12 C16 1_555 1_555
C17 C14 1_555 1_555
H13 C17 1_555 1_555
H14 C17 1_555 1_555
H15 C17 1_555 1_555
C18 O4 1_555 1_555
C19 C18 1_555 1_555
H16 C19 1_555 1_555
H17 C19 1_555 1_555
H18 C19 1_555 1_555
C20 C18 1_555 1_555
H19 C20 1_555 1_555
H20 C20 1_555 1_555
H21 C20 1_555 1_555
C21 O6 1_555 1_555
C22 C21 1_555 1_555
C23 C22 1_555 1_555
H22 C23 1_555 1_555
H23 C23 1_555 1_555
H24 C23 1_555 1_555
C24 C22 1_555 1_555
H25 C24 1_555 1_555
H26 C24 1_555 1_555
H27 C24 1_555 1_555
C25 C22 1_555 1_555
H28 C25 1_555 1_555
H29 C25 1_555 1_555
H30 C25 1_555 1_555
O5 C18 1_555 1_555
C6 C7 1_555 1_555
C9 C10 1_555 1_555
C15 C16 1_555 1_555

#END
