
#######################################################################
#
#                 Cambridge Crystallographic Data Centre
#                                CCDC 
#
#######################################################################
#
# If this CIF has been generated from an entry in the Cambridge 
# Structural Database, then it will include bibliographic, chemical, 
# crystal, experimental, refinement or atomic coordinate data resulting 
# from the CCDC's data processing and validation procedures.
#
#######################################################################

data_VANSEK
_chemical_formula_moiety         'C16 H16 Cl1 N1 O2 S1'
_chemical_name_systematic        
(E)-N-methyl-N-chloro(benzylidenyl)-4-methylbenzenesulfonamide
_symmetry_cell_setting           triclinic
_symmetry_space_group_name_H-M   'P -1'
_symmetry_Int_Tables_number      2
_space_group_name_Hall           '-P 1'
loop_
_symmetry_equiv_pos_site_id
_symmetry_equiv_pos_as_xyz
1 x,y,z
2 -x,-y,-z
_cell_length_a                   8.485(9)
_cell_length_b                   10.116(10)
_cell_length_c                   10.128(10)
_cell_angle_alpha                78.931(10)
_cell_angle_beta                 84.684(10)
_cell_angle_gamma                67.375(9)
_cell_volume                     787.331
_exptl_crystal_colour            colorless
_exptl_crystal_description       block
_cell_formula_units_Z            2
loop_
_atom_site_label
_atom_site_type_symbol
_atom_site_fract_x
_atom_site_fract_y
_atom_site_fract_z
C1 C 0.7328(4) 0.7960(3) 0.2361(3)
H1 H 0.8480 0.7680 0.2119
C2 C 0.6140(5) 0.8268(3) 0.1399(3)
H2 H 0.6490 0.8179 0.0511
C3 C 0.4421(5) 0.8711(3) 0.1751(4)
H3 H 0.3613 0.8935 0.1098
C4 C 0.3922(4) 0.8816(3) 0.3040(4)
H4 H 0.2767 0.9102 0.3275
C5 C 0.5098(4) 0.8507(3) 0.4013(4)
H5 H 0.4734 0.8597 0.4898
C6 C 0.6827(3) 0.8062(3) 0.3681(3)
C7 C 0.8068(4) 0.7754(3) 0.4727(3)
C8 C 0.8493(3) 0.6731(3) 0.5814(3)
H6 H 0.9184 0.6830 0.6418
C9 C 0.7281(4) 0.5040(3) 0.5203(3)
H7 H 0.7790 0.5189 0.4328
H8 H 0.6072 0.5588 0.5167
H9 H 0.7488 0.4025 0.5478
C10 C 0.5539(4) 0.5934(3) 0.8078(3)
C11 C 0.4959(5) 0.7390(4) 0.8149(3)
H10 H 0.5716 0.7869 0.8044
C12 C 0.3249(5) 0.8127(4) 0.8376(3)
H11 H 0.2860 0.9111 0.8426
C13 C 0.2096(4) 0.7458(4) 0.8533(3)
C14 C 0.2698(4) 0.6009(3) 0.8443(3)
H12 H 0.1938 0.5535 0.8537
C15 C 0.4407(4) 0.5243(3) 0.8217(3)
H13 H 0.4792 0.4262 0.8158
C16 C 0.0225(5) 0.8275(4) 0.8811(4)
H14 H -0.0326 0.8818 0.7984
H15 H 0.0108 0.8929 0.9420
H16 H -0.0296 0.7597 0.9209
Cl1 Cl 0.91544(12) 0.89467(10) 0.44914(10)
N1 N 0.8025(3) 0.5518(3) 0.6161(2)
O1 O 0.8707(3) 0.5448(3) 0.8486(2)
O2 O 0.8004(3) 0.3463(2) 0.7930(2)
S1 S 0.77130(10) 0.49760(10) 0.77729(9)
loop_
_geom_bond_atom_site_label_1
_geom_bond_atom_site_label_2
_geom_bond_site_symmetry_1
_geom_bond_site_symmetry_2
C1 H1 1_555 1_555
C2 C1 1_555 1_555
H2 C2 1_555 1_555
C3 C2 1_555 1_555
H3 C3 1_555 1_555
C4 C3 1_555 1_555
H4 C4 1_555 1_555
C5 C4 1_555 1_555
H5 C5 1_555 1_555
C6 C1 1_555 1_555
C7 C6 1_555 1_555
C8 C7 1_555 1_555
H6 C8 1_555 1_555
C9 H7 1_555 1_555
H8 C9 1_555 1_555
H9 C9 1_555 1_555
C10 C11 1_555 1_555
C11 H10 1_555 1_555
C12 C11 1_555 1_555
H11 C12 1_555 1_555
C13 C12 1_555 1_555
C14 C13 1_555 1_555
H12 C14 1_555 1_555
C15 C10 1_555 1_555
H13 C15 1_555 1_555
C16 C13 1_555 1_555
H14 C16 1_555 1_555
H15 C16 1_555 1_555
H16 C16 1_555 1_555
Cl1 C7 1_555 1_555
N1 C8 1_555 1_555
O1 S1 1_555 1_555
O2 S1 1_555 1_555
S1 C10 1_555 1_555
C5 C6 1_555 1_555
C9 N1 1_555 1_555
C14 C15 1_555 1_555
N1 S1 1_555 1_555

#END
