
#######################################################################
#
#                 Cambridge Crystallographic Data Centre
#                                CCDC 
#
#######################################################################
#
# If this CIF has been generated from an entry in the Cambridge 
# Structural Database, then it will include bibliographic, chemical, 
# crystal, experimental, refinement or atomic coordinate data resulting 
# from the CCDC's data processing and validation procedures.
#
#######################################################################

data_VANXEO02
_chemical_name_common            6,13-dihydro-6,13-diazapentacene
_chemical_formula_moiety         'C20 H14 N2'
_chemical_name_systematic        6,13-dihydrodibenzo[b,i]phenazine
_symmetry_cell_setting           triclinic
_symmetry_space_group_name_H-M   'P -1'
_symmetry_Int_Tables_number      2
_space_group_name_Hall           '-P 1'
loop_
_symmetry_equiv_pos_site_id
_symmetry_equiv_pos_as_xyz
1 x,y,z
2 -x,-y,-z
_cell_length_a                   5.752(2)
_cell_length_b                   8.880(4)
_cell_length_c                   13.167(5)
_cell_angle_alpha                87.439(8)
_cell_angle_beta                 84.837(8)
_cell_angle_gamma                86.219(8)
_cell_volume                     667.846
_exptl_crystal_colour            green
_exptl_crystal_description       block
_cell_formula_units_Z            2
loop_
_atom_site_label
_atom_site_type_symbol
_atom_site_fract_x
_atom_site_fract_y
_atom_site_fract_z
C1 C 0.1157(3) 0.0986(2) 0.55761(15)
C2 C 0.2257(3) 0.1925(2) 0.61450(15)
H1 H 0.3678 0.2289 0.5882
C3 C 0.1295(4) 0.2358(2) 0.71204(16)
C4 C 0.2433(4) 0.3290(3) 0.77320(17)
H2 H 0.3858 0.3660 0.7483
C5 C 0.1482(5) 0.3660(3) 0.86829(18)
H3 H 0.2266 0.4270 0.9076
C6 C -0.0676(5) 0.3120(3) 0.90682(19)
H4 H -0.1318 0.3372 0.9717
C7 C -0.1835(4) 0.2223(3) 0.84906(17)
H5 H -0.3268 0.1875 0.8750
C8 C -0.0894(4) 0.1818(2) 0.75091(15)
C9 C -0.2024(3) 0.0864(2) 0.68993(15)
H6 H -0.3468 0.0517 0.7144
C10 C -0.1050(3) 0.0445(2) 0.59658(15)
N1 N 0.2117(3) 0.0517(2) 0.46302(13)
H7 H 0.3447 0.0839 0.4398
C1A C -0.1157(3) -0.0986(2) 0.44239(15)
C2A C -0.2257(3) -0.1925(2) 0.38550(15)
H1A H -0.3678 -0.2289 0.4118
C3A C -0.1295(4) -0.2358(2) 0.28796(16)
C4A C -0.2433(4) -0.3290(3) 0.22680(17)
H2A H -0.3858 -0.3660 0.2517
C5A C -0.1482(5) -0.3660(3) 0.13171(18)
H3A H -0.2266 -0.4270 0.0924
C6A C 0.0676(5) -0.3120(3) 0.09318(19)
H4A H 0.1318 -0.3372 0.0283
C7A C 0.1835(4) -0.2223(3) 0.15094(17)
H5A H 0.3268 -0.1875 0.1250
C8A C 0.0894(4) -0.1818(2) 0.24909(15)
C9A C 0.2024(3) -0.0864(2) 0.31007(15)
H6A H 0.3468 -0.0517 0.2856
C10A C 0.1050(3) -0.0445(2) 0.40342(15)
N1A N -0.2117(3) -0.0517(2) 0.53698(13)
H7A H -0.3447 -0.0839 0.5602
C11 C 0.3862(5) 0.1914(3) 0.10357(19)
H8 H 0.3146 0.1704 0.0456
C12 C 0.2792(4) 0.2921(3) 0.17091(18)
H9 H 0.1353 0.3396 0.1581
C13 C 0.3829(4) 0.3251(2) 0.25931(16)
C14 C 0.2775(4) 0.4304(2) 0.33014(16)
H10 H 0.1320 0.4775 0.3193
C15 C 0.3851(3) 0.4643(2) 0.41395(15)
C16 C 0.3923(3) 0.6083(2) 0.56797(15)
C17 C 0.2899(3) 0.7121(2) 0.63428(16)
H11 H 0.1466 0.7606 0.6214
C18 C 0.3970(3) 0.7475(2) 0.72239(16)
C19 C 0.2908(4) 0.8513(2) 0.79319(17)
H12 H 0.1471 0.9003 0.7816
C20 C 0.3959(4) 0.8805(3) 0.87826(18)
H13 H 0.3228 0.9484 0.9245
N2 N 0.2862(3) 0.5693(2) 0.48294(14)
H14 H 0.1518 0.6126 0.4724
C11A C 0.6138(5) 0.8086(3) 0.89643(19)
H8A H 0.6854 0.8296 0.9544
C12A C 0.7208(4) 0.7079(3) 0.82909(18)
H9A H 0.8647 0.6604 0.8419
C13A C 0.6171(4) 0.6749(2) 0.74069(16)
C14A C 0.7225(4) 0.5696(2) 0.66986(16)
H10A H 0.8680 0.5225 0.6807
C15A C 0.6149(3) 0.5357(2) 0.58605(15)
C16A C 0.6077(3) 0.3917(2) 0.43203(15)
C17A C 0.7101(3) 0.2879(2) 0.36572(16)
H11A H 0.8534 0.2394 0.3786
C18A C 0.6030(3) 0.2525(2) 0.27761(16)
C19A C 0.7092(4) 0.1487(2) 0.20681(17)
H12A H 0.8529 0.0997 0.2184
C20A C 0.6041(4) 0.1195(3) 0.12174(18)
H13A H 0.6772 0.0516 0.0755
N2A N 0.7138(3) 0.4307(2) 0.51706(14)
H14A H 0.8482 0.3874 0.5276
loop_
_geom_bond_atom_site_label_1
_geom_bond_atom_site_label_2
_geom_bond_site_symmetry_1
_geom_bond_site_symmetry_2
C1 C2 1_555 1_555
C2 H1 1_555 1_555
C3 C2 1_555 1_555
C4 C3 1_555 1_555
H2 C4 1_555 1_555
C5 C4 1_555 1_555
H3 C5 1_555 1_555
C6 C5 1_555 1_555
H4 C6 1_555 1_555
C7 C6 1_555 1_555
H5 C7 1_555 1_555
C8 C3 1_555 1_555
C9 C8 1_555 1_555
H6 C9 1_555 1_555
C10 C1 1_555 1_555
N1 C1 1_555 1_555
H7 N1 1_555 1_555
C11 H8 1_555 1_555
C12 C11 1_555 1_555
H9 C12 1_555 1_555
C13 C12 1_555 1_555
C14 C13 1_555 1_555
H10 C14 1_555 1_555
C15 C14 1_555 1_555
C16 C17 1_555 1_555
C17 H11 1_555 1_555
C18 C17 1_555 1_555
C19 C18 1_555 1_555
H12 C19 1_555 1_555
C20 C19 1_555 1_555
H13 C20 1_555 1_555
N2 C15 1_555 1_555
H14 N2 1_555 1_555
C1A C2A 1_555 1_555
C2A H1A 1_555 1_555
C3A C2A 1_555 1_555
C4A C3A 1_555 1_555
H2A C4A 1_555 1_555
C5A C4A 1_555 1_555
H3A C5A 1_555 1_555
C6A C5A 1_555 1_555
H4A C6A 1_555 1_555
C7A C6A 1_555 1_555
H5A C7A 1_555 1_555
C8A C3A 1_555 1_555
C9A C8A 1_555 1_555
H6A C9A 1_555 1_555
C10A N1 1_555 1_555
N1A C10 1_555 1_555
H7A N1A 1_555 1_555
C11A C20 1_555 1_555
H8A C11A 1_555 1_555
C12A C11A 1_555 1_555
H9A C12A 1_555 1_555
C13A C18 1_555 1_555
C14A C13A 1_555 1_555
H10A C14A 1_555 1_555
C15A C16 1_555 1_555
C16A C15 1_555 1_555
C17A C16A 1_555 1_555
H11A C17A 1_555 1_555
C18A C13 1_555 1_555
C19A C18A 1_555 1_555
H12A C19A 1_555 1_555
C20A C11 1_555 1_555
H13A C20A 1_555 1_555
N2A C15A 1_555 1_555
H14A N2A 1_555 1_555
C7 C8 1_555 1_555
C9 C10 1_555 1_555
C16 N2 1_555 1_555
C1A C10A 1_555 1_555
C1A N1A 1_555 1_555
C7A C8A 1_555 1_555
C9A C10A 1_555 1_555
C12A C13A 1_555 1_555
C14A C15A 1_555 1_555
C16A N2A 1_555 1_555
C17A C18A 1_555 1_555
C19A C20A 1_555 1_555

#END
