
#######################################################################
#
#                 Cambridge Crystallographic Data Centre
#                                CCDC 
#
#######################################################################
#
# If this CIF has been generated from an entry in the Cambridge 
# Structural Database, then it will include bibliographic, chemical, 
# crystal, experimental, refinement or atomic coordinate data resulting 
# from the CCDC's data processing and validation procedures.
#
#######################################################################

data_VANYUE
_chemical_formula_moiety         'C15 H12 O3'
_chemical_name_systematic        'Methyl 9-hydroxyfluorene-9-carboxylate'
_symmetry_cell_setting           triclinic
_symmetry_space_group_name_H-M   'P -1'
_symmetry_Int_Tables_number      2
_space_group_name_Hall           '-P 1'
loop_
_symmetry_equiv_pos_site_id
_symmetry_equiv_pos_as_xyz
1 x,y,z
2 -x,-y,-z
_cell_length_a                   9.201(1)
_cell_length_b                   12.107(1)
_cell_length_c                   12.446(1)
_cell_angle_alpha                76.988(8)
_cell_angle_beta                 69.14(1)
_cell_angle_gamma                71.01(1)
_cell_volume                     1215.65
_cell_formula_units_Z            4
loop_
_atom_site_label
_atom_site_type_symbol
_atom_site_fract_x
_atom_site_fract_y
_atom_site_fract_z
C1 C 0.2400(7) 0.4235(5) -0.0560(5)
C2 C 0.1821(8) 0.5466(5) -0.0591(5)
C3 C 0.2042(7) 0.6035(5) 0.0183(6)
C4 C 0.2825(7) 0.5406(5) 0.1005(5)
C5 C 0.4798(6) 0.3418(5) 0.2646(5)
C6 C 0.5664(7) 0.2387(6) 0.3176(5)
C7 C 0.6018(7) 0.1278(5) 0.2821(5)
C8 C 0.5497(6) 0.1172(5) 0.1931(5)
C9 C 0.3916(6) 0.2296(4) 0.0459(4)
C10 C 0.3181(6) 0.3624(4) 0.0250(4)
C11 C 0.3396(6) 0.4189(4) 0.1022(4)
C12 C 0.4286(5) 0.3300(4) 0.1760(4)
C13 C 0.4626(5) 0.2187(4) 0.1415(4)
C14 C 0.2629(6) 0.1621(4) 0.0871(4)
C15 C 0.0056(7) 0.1529(5) 0.2217(6)
O1 O 0.5086(4) 0.1862(3) -0.0570(3)
O2 O 0.2769(5) 0.0776(4) 0.0472(4)
O3 O 0.1395(4) 0.2078(3) 0.1726(4)
C16 C 0.3112(6) -0.3963(4) 0.5305(4)
C17 C 0.2444(8) -0.4606(5) 0.6352(5)
C18 C 0.0832(8) -0.4611(5) 0.6682(6)
C19 C -0.0164(7) -0.4009(5) 0.5987(6)
C20 C -0.1651(7) -0.2528(5) 0.3855(6)
C21 C -0.1907(7) -0.1915(6) 0.2821(6)
C22 C -0.0713(7) -0.1457(5) 0.1922(6)
C23 C 0.0821(7) -0.1635(5) 0.2057(5)
C24 C 0.2601(5) -0.2615(4) 0.3449(4)
C25 C 0.2134(5) -0.3349(4) 0.4620(4)
C26 C 0.0531(6) -0.3375(4) 0.4931(5)
C27 C -0.0138(6) -0.2720(4) 0.3987(5)
C28 C 0.1060(6) -0.2262(4) 0.3095(4)
C29 C 0.2987(5) -0.1511(4) 0.3552(4)
C30 C 0.2199(7) 0.013(4) 0.4572(5)
O4 O 0.3979(4) -0.3293(3) 0.2678(3)
O5 O 0.4106(5) -0.1186(4) 0.2906(4)
O6 O 0.1920(5) -0.0947(3) 0.4418(4)
loop_
_geom_bond_atom_site_label_1
_geom_bond_atom_site_label_2
_geom_bond_site_symmetry_1
_geom_bond_site_symmetry_2
C1 C2 1_555 1_555
C2 C3 1_555 1_555
C3 C4 1_555 1_555
C4 C11 1_555 1_555
C5 C6 1_555 1_555
C6 C7 1_555 1_555
C7 C8 1_555 1_555
C8 C13 1_555 1_555
C9 C10 1_555 1_555
C10 C1 1_555 1_555
C11 C10 1_555 1_555
C12 C5 1_555 1_555
C13 C9 1_555 1_555
C14 C9 1_555 1_555
C15 O3 1_555 1_555
O1 C9 1_555 1_555
O2 C14 1_555 1_555
O3 C14 1_555 1_555
C16 C17 1_555 1_555
C17 C18 1_555 1_555
C18 C19 1_555 1_555
C19 C26 1_555 1_555
C20 C21 1_555 1_555
C21 C22 1_555 1_555
C22 C23 1_555 1_555
C23 C28 1_555 1_555
C24 C25 1_555 1_555
C25 C16 1_555 1_555
C26 C25 1_555 1_555
C27 C20 1_555 1_555
C28 C24 1_555 1_555
C29 C24 1_555 1_555
C30 O6 1_555 1_555
O4 C24 1_555 1_555
O5 C29 1_555 1_555
O6 C29 1_555 1_555
C11 C12 1_555 1_555
C12 C13 1_555 1_555
C26 C27 1_555 1_555
C27 C28 1_555 1_555

#END
