
#######################################################################
#
#                 Cambridge Crystallographic Data Centre
#                                CCDC 
#
#######################################################################
#
# If this CIF has been generated from an entry in the Cambridge 
# Structural Database, then it will include bibliographic, chemical, 
# crystal, experimental, refinement or atomic coordinate data resulting 
# from the CCDC's data processing and validation procedures.
#
#######################################################################

data_VAPMEG
_chemical_formula_moiety         'C49 H35 Br4 Cl1 O11'
_chemical_name_systematic        
'1-(((4-Bromobenzoyl)oxy)methyl)-5-(4-chloro-3-(4-methoxybenzyl)phenyl)-6,8-dioxabicyclo[3.2.1]octane-2,3,4-triyl tris(4-bromobenzoate)'
_symmetry_cell_setting           monoclinic
_symmetry_space_group_name_H-M   'C 2'
_symmetry_Int_Tables_number      5
_space_group_name_Hall           'C 2y'
loop_
_symmetry_equiv_pos_site_id
_symmetry_equiv_pos_as_xyz
1 x,y,z
2 1/2+x,1/2+y,z
3 -x,y,-z
4 1/2-x,1/2+y,-z
_cell_length_a                   23.7485(6)
_cell_length_b                   6.3175(2)
_cell_length_c                   32.3167(8)
_cell_angle_alpha                90
_cell_angle_beta                 104.4910(10)
_cell_angle_gamma                90
_cell_volume                     4694.27
_cell_formula_units_Z            4
loop_
_atom_site_label
_atom_site_type_symbol
_atom_site_fract_x
_atom_site_fract_y
_atom_site_fract_z
O1 O 1.1869(2) -0.7316(6) -0.3079(1)
C1 C 1.1588(2) -0.5500(11) -0.2976(2)
C2 C 1.2018(2) -0.4238(10) -0.2632(2)
C3 C 1.2570(2) -0.3777(10) -0.2776(2)
C4 C 1.2761(2) -0.5539(10) -0.3025(2)
C5 C 1.2232(2) -0.6526(10) -0.3340(2)
C6 C 1.1829(3) -0.4917(11) -0.3615(2)
O2 O 1.1469(2) -0.4172(7) -0.3350(1)
C7 C 1.1048(2) -0.6142(12) -0.2840(2)
C8 C 1.1062(3) -0.7933(12) -0.2594(2)
C9 C 1.0577(3) -0.8549(13) -0.2445(2)
C10 C 1.0086(3) -0.7289(15) -0.2559(2)
C11 C 1.0072(3) -0.5484(16) -0.2804(2)
C12 C 1.0556(3) -0.4909(12) -0.2943(2)
Cl1 Cl 0.9475(1) -0.7987(5) -0.2395(1)
C13 C 1.0620(3) -1.0444(12) -0.2154(2)
C14 C 1.0748(3) -0.9920(14) -0.1682(3)
C15 C 1.0757(6) -1.1403(18) -0.1388(4)
C16 C 1.0861(6) -1.0990(20) -0.0958(4)
C17 C 1.0997(4) -0.9090(20) -0.0823(3)
C18 C 1.0985(5) -0.7491(18) -0.1099(4)
C19 C 1.0868(4) -0.7929(17) -0.1522(3)
O3 O 1.1128(4) -0.8508(13) -0.0393(3)
C20 C 1.0994(5) -0.9790(30) -0.0119(3)
O4 O 1.2159(2) -0.5447(6) -0.2251(1)
C21 C 1.2165(3) -0.4438(13) -0.1881(2)
O5 O 1.2052(2) -0.2570(9) -0.1872(2)
C22 C 1.2348(3) -0.5815(13) -0.1508(2)
C23 C 1.2362(4) -0.4982(14) -0.1110(3)
C24 C 1.2558(4) -0.6189(17) -0.0747(3)
C25 C 1.2725(4) -0.8241(15) -0.0776(3)
C26 C 1.2702(4) -0.9114(14) -0.1168(3)
C27 C 1.2513(3) -0.7864(13) -0.1531(2)
Br1 Br 1.2992(1) -0.9969(2) -0.0289(1)
O6 O 1.3037(2) -0.3322(7) -0.2408(1)
C28 C 1.3162(3) -0.1298(12) -0.2303(2)
O7 O 1.2924(2) 0.0137(9) -0.2519(2)
C29 C 1.3581(3) -0.1010(12) -0.1884(2)
C30 C 1.3699(3) -0.2637(14) -0.1593(2)
C31 C 1.4071(4) -0.2271(16) -0.1194(3)
C32 C 1.4328(4) -0.0390(20) -0.1095(3)
C33 C 1.4222(4) 0.1236(18) -0.1376(3)
C34 C 1.3839(3) 0.0925(14) -0.1784(3)
Br2 Br 1.4812(1) 0.0128(3) -0.0548(1)
O8 O 1.3155(2) -0.4574(7) -0.3248(1)
C35 C 1.3646(3) -0.5605(12) -0.3262(2)
O9 O 1.3751(2) -0.7377(9) -0.3132(2)
C36 C 1.4017(3) -0.4360(12) -0.3488(2)
C37 C 1.3872(3) -0.2339(12) -0.3632(2)
C38 C 1.4206(3) -0.1282(13) -0.3853(2)
C39 C 1.4681(3) -0.2244(14) -0.3926(2)
C40 C 1.4842(3) -0.4262(14) -0.3777(3)
C41 C 1.4498(3) -0.5306(13) -0.3558(2)
Br3 Br 1.5131(1) -0.0735(2) -0.4239(1)
C42 C 1.2364(3) -0.8443(11) -0.3580(2)
O10 O 1.2599(2) -0.7632(7) -0.3923(2)
C43 C 1.2692(3) -0.9080(13) -0.4197(2)
O11 O 1.2551(2) -1.0894(9) -0.4187(2)
C44 C 1.3006(3) -0.8234(11) -0.4508(2)
C45 C 1.3201(3) -0.6152(12) -0.4490(2)
C46 C 1.3535(3) -0.5479(14) -0.4761(2)
C47 C 1.3641(3) -0.6831(15) -0.5062(2)
C48 C 1.3462(3) -0.8884(17) -0.5082(2)
C49 C 1.3133(3) -0.9576(13) -0.4814(2)
Br4 Br 1.4094(1) -0.5867(2) -0.5422(1)
H1 H 1.1839 -0.2901 -0.2580
H2 H 1.2501 -0.2512 -0.2957
H3 H 1.2967 -0.6626 -0.2828
H4 H 1.2050 -0.3763 -0.3695
H5 H 1.1596 -0.5575 -0.3873
H6 H 1.1398 -0.8751 -0.2525
H7 H 0.9738 -0.4657 -0.2875
H8 H 1.0548 -0.3692 -0.3107
H9 H 1.0924 -1.1369 -0.2201
H10 H 1.0256 -1.1220 -0.2234
H11 H 1.0690 -1.2799 -0.1479
H12 H 1.0833 -1.2062 -0.0767
H13 H 1.1055 -0.6108 -0.1001
H14 H 1.0871 -0.6824 -0.1712
H15 H 1.1125 -0.9211 0.0164
H16 H 1.1178 -1.1135 -0.0131
H17 H 1.0580 -0.9975 -0.0186
H18 H 1.2238 -0.3600 -0.1087
H19 H 1.2577 -0.5602 -0.0480
H20 H 1.2811 -1.0515 -0.1190
H21 H 1.2499 -0.8447 -0.1798
H22 H 1.3532 -0.3963 -0.1662
H23 H 1.4143 -0.3352 -0.0992
H24 H 1.4400 0.2542 -0.1303
H25 H 1.3763 0.2024 -0.1982
H26 H 1.3546 -0.1688 -0.3579
H27 H 1.4107 0.0084 -0.3953
H28 H 1.5173 -0.4899 -0.3824
H29 H 1.4596 -0.6669 -0.3456
H30 H 1.2645 -0.9350 -0.3391
H31 H 1.2013 -0.9254 -0.3695
H32 H 1.3107 -0.5211 -0.4297
H33 H 1.3686 -0.4113 -0.4737
H34 H 1.3561 -0.9812 -0.5276
H35 H 1.2993 -1.0957 -0.4837
loop_
_geom_bond_atom_site_label_1
_geom_bond_atom_site_label_2
_geom_bond_site_symmetry_1
_geom_bond_site_symmetry_2
O1 C1 1_555 1_555
C1 C2 1_555 1_555
C2 C3 1_555 1_555
C3 C4 1_555 1_555
C4 C5 1_555 1_555
C5 O1 1_555 1_555
C6 C5 1_555 1_555
O2 C1 1_555 1_555
C7 C1 1_555 1_555
C8 C7 1_555 1_555
C9 C8 1_555 1_555
C10 C9 1_555 1_555
C11 C10 1_555 1_555
C12 C7 1_555 1_555
Cl1 C10 1_555 1_555
C13 C9 1_555 1_555
C14 C13 1_555 1_555
C15 C14 1_555 1_555
C16 C15 1_555 1_555
C17 C16 1_555 1_555
C18 C17 1_555 1_555
C19 C14 1_555 1_555
O3 C17 1_555 1_555
C20 O3 1_555 1_555
O4 C2 1_555 1_555
C21 O4 1_555 1_555
O5 C21 1_555 1_555
C22 C21 1_555 1_555
C23 C22 1_555 1_555
C24 C23 1_555 1_555
C25 C24 1_555 1_555
C26 C25 1_555 1_555
C27 C22 1_555 1_555
Br1 C25 1_555 1_555
O6 C3 1_555 1_555
C28 O6 1_555 1_555
O7 C28 1_555 1_555
C29 C28 1_555 1_555
C30 C29 1_555 1_555
C31 C30 1_555 1_555
C32 C31 1_555 1_555
C33 C32 1_555 1_555
C34 C29 1_555 1_555
Br2 C32 1_555 1_555
O8 C4 1_555 1_555
C35 O8 1_555 1_555
O9 C35 1_555 1_555
C36 C35 1_555 1_555
C37 C36 1_555 1_555
C38 C37 1_555 1_555
C39 C38 1_555 1_555
C40 C39 1_555 1_555
C41 C36 1_555 1_555
Br3 C39 1_555 1_555
C42 C5 1_555 1_555
O10 C42 1_555 1_555
C43 O10 1_555 1_555
O11 C43 1_555 1_555
C44 C43 1_555 1_555
C45 C44 1_555 1_555
C46 C45 1_555 1_555
C47 C46 1_555 1_555
C48 C47 1_555 1_555
C49 C44 1_555 1_555
Br4 C47 1_555 1_555
H1 C2 1_555 1_555
H2 C3 1_555 1_555
H3 C4 1_555 1_555
H4 C6 1_555 1_555
H5 C6 1_555 1_555
H6 C8 1_555 1_555
H7 C11 1_555 1_555
H8 C12 1_555 1_555
H9 C13 1_555 1_555
H10 C13 1_555 1_555
H11 C15 1_555 1_555
H12 C16 1_555 1_555
H13 C18 1_555 1_555
H14 C19 1_555 1_555
H15 C20 1_555 1_555
H16 C20 1_555 1_555
H17 C20 1_555 1_555
H18 C23 1_555 1_555
H19 C24 1_555 1_555
H20 C26 1_555 1_555
H21 C27 1_555 1_555
H22 C30 1_555 1_555
H23 C31 1_555 1_555
H24 C33 1_555 1_555
H25 C34 1_555 1_555
H26 C37 1_555 1_555
H27 C38 1_555 1_555
H28 C40 1_555 1_555
H29 C41 1_555 1_555
H30 C42 1_555 1_555
H31 C42 1_555 1_555
H32 C45 1_555 1_555
H33 C46 1_555 1_555
H34 C48 1_555 1_555
H35 C49 1_555 1_555
C6 O2 1_555 1_555
C11 C12 1_555 1_555
C18 C19 1_555 1_555
C26 C27 1_555 1_555
C33 C34 1_555 1_555
C40 C41 1_555 1_555
C48 C49 1_555 1_555

#END
