
#######################################################################
#
#                 Cambridge Crystallographic Data Centre
#                                CCDC 
#
#######################################################################
#
# If this CIF has been generated from an entry in the Cambridge 
# Structural Database, then it will include bibliographic, chemical, 
# crystal, experimental, refinement or atomic coordinate data resulting 
# from the CCDC's data processing and validation procedures.
#
#######################################################################

data_VAPPIO
_chemical_name_common            
N'-((1E,2E)-1,3-diphenylallylidene)acetohydrazide
_chemical_formula_moiety         'C17 H16 N2 O1'
_chemical_name_systematic        
N'-(1,3-diphenylprop-2-en-1-ylidene)acetohydrazide
_symmetry_cell_setting           triclinic
_symmetry_space_group_name_H-M   'P -1'
_symmetry_Int_Tables_number      2
_space_group_name_Hall           '-P 1'
loop_
_symmetry_equiv_pos_site_id
_symmetry_equiv_pos_as_xyz
1 x,y,z
2 -x,-y,-z
_cell_length_a                   9.9342(3)
_cell_length_b                   11.8665(3)
_cell_length_c                   12.5864(3)
_cell_angle_alpha                93.5910(10)
_cell_angle_beta                 93.3700(10)
_cell_angle_gamma                103.8360(10)
_cell_volume                     1433.69
_exptl_crystal_colour            yellow
_exptl_crystal_description       block
_cell_formula_units_Z            4
loop_
_atom_site_label
_atom_site_type_symbol
_atom_site_fract_x
_atom_site_fract_y
_atom_site_fract_z
C1 C 0.4544(2) 0.60465(17) 0.15669(15)
H1 H 0.4955 0.5553 0.1947
C2 C 0.5153(2) 0.65375(18) 0.06848(16)
H2 H 0.5971 0.6370 0.0476
C3 C 0.4550(2) 0.72756(18) 0.01141(16)
H3 H 0.4957 0.7594 -0.0481
C4 C 0.3344(2) 0.75376(17) 0.04307(15)
H4 H 0.2942 0.8039 0.0053
C5 C 0.2734(2) 0.70516(16) 0.13122(15)
H5 H 0.1926 0.7234 0.1525
C6 C 0.33153(19) 0.62938(15) 0.18825(14)
C7 C 0.25923(19) 0.57734(16) 0.28067(15)
C8 C 0.24936(19) 0.45506(16) 0.30011(15)
H6 H 0.2374 0.4337 0.3694
C9 C 0.25640(19) 0.37243(16) 0.22511(15)
H7 H 0.2735 0.3963 0.1572
C10 C 0.24011(19) 0.24813(16) 0.23824(15)
C11 C 0.25142(19) 0.17426(17) 0.14973(15)
H8 H 0.2683 0.2052 0.0843
C12 C 0.2381(2) 0.05653(17) 0.15737(16)
H9 H 0.2464 0.0092 0.0976
C13 C 0.2122(2) 0.00901(17) 0.25397(17)
H10 H 0.2044 -0.0700 0.2598
C14 C 0.1981(2) 0.08087(18) 0.34230(17)
H11 H 0.1789 0.0491 0.4070
C15 C 0.2121(2) 0.19863(17) 0.33508(16)
H12 H 0.2028 0.2454 0.3950
C16 C 0.0674(2) 0.67584(16) 0.47792(15)
C17 C 0.1129(2) 0.80415(16) 0.46785(16)
H13 H 0.0728 0.8447 0.5212
H14 H 0.0825 0.8213 0.3982
H15 H 0.2124 0.8288 0.4777
N1 N 0.20463(16) 0.64799(13) 0.33624(12)
N2 N 0.12161(17) 0.60290(13) 0.41581(13)
O1 O -0.01677(15) 0.63535(12) 0.54241(11)
C18 C 0.8384(2) 0.19646(17) 0.23628(15)
H16 H 0.9130 0.2602 0.2548
C19 C 0.8585(2) 0.09979(18) 0.17702(16)
H17 H 0.9465 0.0990 0.1561
C20 C 0.7478(2) 0.00473(18) 0.14913(16)
H18 H 0.7612 -0.0597 0.1090
C21 C 0.6176(2) 0.00576(19) 0.18104(18)
H19 H 0.5432 -0.0581 0.1624
C22 C 0.5973(2) 0.10155(18) 0.24068(17)
H20 H 0.5094 0.1012 0.2627
C23 C 0.7070(2) 0.19827(16) 0.26800(15)
C24 C 0.6788(2) 0.29946(17) 0.33112(15)
C25 C 0.7373(2) 0.41854(17) 0.30416(15)
H21 H 0.7457 0.4789 0.3568
C26 C 0.7794(2) 0.44530(17) 0.20808(15)
H22 H 0.7726 0.3831 0.1577
C27 C 0.83506(19) 0.56167(16) 0.17322(15)
C28 C 0.8446(2) 0.66411(17) 0.23781(16)
H23 H 0.8151 0.6599 0.3065
C29 C 0.8975(2) 0.77127(18) 0.20006(17)
H24 H 0.9036 0.8388 0.2437
C30 C 0.9418(2) 0.77936(18) 0.09743(17)
H25 H 0.9778 0.8519 0.0726
C31 C 0.9321(2) 0.67892(18) 0.03249(16)
H26 H 0.9615 0.6839 -0.0362
C32 C 0.8788(2) 0.57111(18) 0.06947(16)
H27 H 0.8719 0.5040 0.0250
C33 C 0.4682(2) 0.32763(17) 0.54268(15)
C34 C 0.4467(2) 0.20761(18) 0.57971(17)
H28 H 0.5311 0.1995 0.6162
H29 H 0.4217 0.1514 0.5192
H30 H 0.3736 0.1950 0.6274
N3 N 0.55066(17) 0.35693(14) 0.46139(13)
N4 N 0.59683(17) 0.27023(14) 0.40681(13)
O2 O 0.41505(16) 0.40133(13) 0.58506(12)
loop_
_geom_bond_atom_site_label_1
_geom_bond_atom_site_label_2
_geom_bond_site_symmetry_1
_geom_bond_site_symmetry_2
C1 H1 1_555 1_555
C2 C1 1_555 1_555
H2 C2 1_555 1_555
C3 C2 1_555 1_555
H3 C3 1_555 1_555
C4 C3 1_555 1_555
H4 C4 1_555 1_555
C5 C4 1_555 1_555
H5 C5 1_555 1_555
C6 C1 1_555 1_555
C7 C6 1_555 1_555
C8 C7 1_555 1_555
H6 C8 1_555 1_555
C9 C8 1_555 1_555
H7 C9 1_555 1_555
C10 C9 1_555 1_555
C11 C10 1_555 1_555
H8 C11 1_555 1_555
C12 C11 1_555 1_555
H9 C12 1_555 1_555
C13 C12 1_555 1_555
H10 C13 1_555 1_555
C14 C13 1_555 1_555
H11 C14 1_555 1_555
C15 C10 1_555 1_555
H12 C15 1_555 1_555
C16 C17 1_555 1_555
C17 H13 1_555 1_555
H14 C17 1_555 1_555
H15 C17 1_555 1_555
N1 C7 1_555 1_555
N2 C16 1_555 1_555
O1 C16 1_555 1_555
C18 H16 1_555 1_555
C19 C18 1_555 1_555
H17 C19 1_555 1_555
C20 C19 1_555 1_555
H18 C20 1_555 1_555
C21 C20 1_555 1_555
H19 C21 1_555 1_555
C22 C21 1_555 1_555
H20 C22 1_555 1_555
C23 C18 1_555 1_555
C24 C23 1_555 1_555
C25 C24 1_555 1_555
H21 C25 1_555 1_555
C26 C25 1_555 1_555
H22 C26 1_555 1_555
C27 C26 1_555 1_555
C28 C27 1_555 1_555
H23 C28 1_555 1_555
C29 C28 1_555 1_555
H24 C29 1_555 1_555
C30 C29 1_555 1_555
H25 C30 1_555 1_555
C31 C30 1_555 1_555
H26 C31 1_555 1_555
C32 C27 1_555 1_555
H27 C32 1_555 1_555
C33 C34 1_555 1_555
C34 H28 1_555 1_555
H29 C34 1_555 1_555
H30 C34 1_555 1_555
N3 C33 1_555 1_555
N4 C24 1_555 1_555
O2 C33 1_555 1_555
C5 C6 1_555 1_555
C14 C15 1_555 1_555
N1 N2 1_555 1_555
C22 C23 1_555 1_555
C31 C32 1_555 1_555
N3 N4 1_555 1_555

#END
