
#######################################################################
#
#                 Cambridge Crystallographic Data Centre
#                                CCDC 
#
#######################################################################
#
# If this CIF has been generated from an entry in the Cambridge 
# Structural Database, then it will include bibliographic, chemical, 
# crystal, experimental, refinement or atomic coordinate data resulting 
# from the CCDC's data processing and validation procedures.
#
#######################################################################

data_VAPQEL
_chemical_formula_moiety         'C22 H34 Cl1 N1 O6,3(H2 O1)'
_chemical_name_systematic        
'4-chloro-20-ethyl-14,16-dimethoxyaconitane-1,3,8,9-tetrol trihydrate'
_symmetry_cell_setting           monoclinic
_symmetry_space_group_name_H-M   'P 21'
_symmetry_Int_Tables_number      4
_space_group_name_Hall           'P 2yb'
loop_
_symmetry_equiv_pos_site_id
_symmetry_equiv_pos_as_xyz
1 x,y,z
2 -x,1/2+y,-z
_cell_length_a                   10.173(6)
_cell_length_b                   25.002(15)
_cell_length_c                   10.249(6)
_cell_angle_alpha                90
_cell_angle_beta                 112.588(10)
_cell_angle_gamma                90
_cell_volume                     2406.82
_exptl_crystal_colour            colorless
_exptl_crystal_description       block
_cell_formula_units_Z            4
loop_
_atom_site_label
_atom_site_type_symbol
_atom_site_fract_x
_atom_site_fract_y
_atom_site_fract_z
Cl1 Cl 1.10615(12) 1.08455(5) 0.14879(13)
O1 O 0.7142(4) 0.95094(13) 0.0099(3)
H1 H 0.6562 0.9410 -0.0669
O2 O 0.9097(4) 1.00671(14) -0.0659(4)
H2 H 0.9045 0.9814 -0.0172
O3 O 0.9486(3) 1.02526(13) 0.6461(3)
H3 H 1.0217 1.0186 0.6333
O4 O 0.9524(3) 0.94020(12) 0.4962(3)
H4 H 0.9440 0.9089 0.4708
O5 O 0.7394(4) 0.93138(13) 0.6424(3)
O6 O 0.4777(3) 1.00824(13) 0.5540(3)
N1 N 0.7307(4) 1.11185(13) 0.1845(4)
C1 C 0.6728(4) 1.00287(16) 0.0436(4)
H5 H 0.5722 1.0015 0.0304
C2 C 0.6901(5) 1.04365(18) -0.0586(4)
H6 H 0.6472 1.0772 -0.0484
H7 H 0.6406 1.0311 -0.1547
C3 C 0.8470(5) 1.05286(18) -0.0315(5)
H8 H 0.8536 1.0827 -0.0908
C4 C 0.9229(4) 1.06909(17) 0.1248(4)
C5 C 0.9222(4) 1.02409(16) 0.2276(4)
H9 H 0.9709 0.9919 0.2148
C6 C 0.9870(4) 1.04483(18) 0.3810(4)
H10 H 1.0498 1.0749 0.3887
H11 H 1.0406 1.0168 0.4447
C7 C 0.8577(4) 1.06234(16) 0.4164(4)
H12 H 0.8741 1.0980 0.4595
C8 C 0.8289(4) 1.02181(16) 0.5144(4)
C9 C 0.8148(4) 0.96452(16) 0.4510(4)
C10 C 0.7406(4) 0.96461(15) 0.2868(4)
H13 H 0.7732 0.9326 0.2530
C11 C 0.7633(4) 1.01281(15) 0.2018(4)
C12 C 0.5786(4) 0.95560(17) 0.2586(4)
H14 H 0.5211 0.9845 0.2019
H15 H 0.5452 0.9221 0.2092
C13 C 0.5694(4) 0.95430(17) 0.4064(4)
H16 H 0.4916 0.9310 0.4054
C14 C 0.7119(5) 0.93027(17) 0.4952(4)
H17 H 0.7149 0.8932 0.4657
C15 C 0.8213(7) 0.8892(3) 0.7214(6)
H18 H 0.7859 0.8560 0.6736
H19 H 0.8160 0.8886 0.8129
H20 H 0.9186 0.8939 0.7321
C16 C 0.6947(4) 1.03853(16) 0.5442(4)
H21 H 0.7156 1.0323 0.6436
H22 H 0.6814 1.0767 0.5282
C17 C 0.5528(4) 1.01095(17) 0.4587(4)
H23 H 0.4985 1.0333 0.3773
C18 C 0.3277(5) 1.0069(2) 0.4808(6)
H24 H 0.3025 0.9776 0.4151
H25 H 0.2962 1.0398 0.4305
H26 H 0.2831 1.0022 0.5473
C19 C 0.7333(4) 1.06400(15) 0.2683(4)
H27 H 0.6422 1.0605 0.2793
C20 C 0.8616(5) 1.12074(17) 0.1601(5)
H28 H 0.9323 1.1367 0.2440
H29 H 0.8422 1.1459 0.0828
C21 C 0.6870(6) 1.15923(19) 0.2398(5)
H30 H 0.7677 1.1725 0.3199
H31 H 0.6135 1.1493 0.2736
C22 C 0.6317(7) 1.2033(2) 0.1335(6)
H32 H 0.5615 1.1892 0.0480
H33 H 0.7088 1.2184 0.1136
H34 H 0.5894 1.2305 0.1707
Cl2 Cl 0.60999(13) 0.68543(6) 0.63723(12)
O7 O 0.4695(3) 0.81424(12) 0.2424(3)
H35 H 0.3961 0.8256 0.1812
O8 O 0.3923(4) 0.76051(15) 0.4361(4)
H36 H 0.4128 0.7871 0.4012
O9 O 1.1071(3) 0.74105(13) 0.4738(3)
H37 H 1.1710 0.7533 0.4526
O10 O 0.9528(3) 0.82681(12) 0.4648(3)
H38 H 1.0324 0.8167 0.5168
O11 O 1.1021(3) 0.83191(12) 0.2551(3)
O12 O 1.0228(3) 0.75228(14) 0.0088(3)
N2 N 0.6428(4) 0.65171(14) 0.2650(4)
C23 C 0.5019(4) 0.76184(16) 0.2014(4)
H39 H 0.4876 0.7628 0.1012
C24 C 0.3989(4) 0.72133(18) 0.2212(4)
H40 H 0.3019 0.7338 0.1729
H41 H 0.4082 0.6874 0.1797
C25 C 0.4290(4) 0.71343(19) 0.3776(5)
H42 H 0.3702 0.6838 0.3867
C26 C 0.5849(4) 0.69807(17) 0.4534(4)
C27 C 0.6891(4) 0.74275(17) 0.4493(4)
H43 H 0.6768 0.7758 0.4949
C28 C 0.8432(4) 0.72145(19) 0.5140(4)
H44 H 0.8506 0.6920 0.5781
H45 H 0.9085 0.7495 0.5653
C29 C 0.8764(4) 0.70224(16) 0.3849(4)
H46 H 0.9202 0.6667 0.4036
C30 C 0.9746(4) 0.74182(16) 0.3512(4)
C31 C 0.9102(4) 0.79965(15) 0.3325(4)
C32 C 0.7457(4) 0.79871(16) 0.2592(4)
H47 H 0.7108 0.8317 0.2866
C33 C 0.6612(4) 0.75117(15) 0.2903(4)
C34 C 0.7191(4) 0.80421(18) 0.0986(4)
H48 H 0.6639 0.7741 0.0458
H49 H 0.6671 0.8369 0.0602
C35 C 0.8661(4) 0.80551(17) 0.0884(4)
H50 H 0.8635 0.8279 0.0089
C36 C 0.9534(4) 0.83212(16) 0.2278(4)
H51 H 0.9213 0.8692 0.2262
C37 C 1.1790(5) 0.8753(2) 0.3357(6)
H52 H 1.1260 0.9077 0.3025
H53 H 1.2692 0.8780 0.3265
H54 H 1.1942 0.8699 0.4332
C38 C 1.0060(4) 0.72342(17) 0.2208(4)
H55 H 1.1067 0.7289 0.2430
H56 H 0.9888 0.6852 0.2097
C39 C 0.9240(4) 0.74968(19) 0.0781(4)
H57 H 0.8443 0.7265 0.0231
C40 C 0.9569(6) 0.7485(2) -0.1411(5)
H58 H 1.0277 0.7527 -0.1810
H59 H 0.8865 0.7761 -0.1765
H60 H 0.9123 0.7141 -0.1669
C41 C 0.7274(4) 0.69920(15) 0.2626(4)
H61 H 0.7375 0.7015 0.1714
C42 C 0.6207(5) 0.64520(18) 0.3972(5)
H62 H 0.7063 0.6302 0.4682
H63 H 0.5438 0.6200 0.3820
C43 C 0.6954(5) 0.60110(18) 0.2271(6)
H64 H 0.6406 0.5716 0.2417
H65 H 0.7939 0.5960 0.2904
C44 C 0.6863(8) 0.5994(3) 0.0773(7)
H66 H 0.5915 0.6084 0.0141
H67 H 0.7094 0.5641 0.0561
H68 H 0.7524 0.6246 0.0660
O13 O 1.2039(6) 0.9606(2) 0.0098(6)
H69 H 1.1455 0.9865 -0.0078
H70 H 1.1881 0.9428 -0.0653
O14 O 1.2157(4) 0.84328(16) 0.0226(4)
H71 H 1.2039 0.8770 0.0201
H72 H 1.2038 0.8305 0.0941
O15 O 0.4583(7) 0.8129(2) 0.7148(6)
H73 H 0.4352 0.8356 0.6480
H74 H 0.5075 0.7882 0.6990
O16 O 0.4969(4) 0.92521(17) 0.7541(4)
H75 H 0.5222 0.9429 0.6968
H76 H 0.4131 0.9343 0.7442
O17 O 1.1934(5) 0.8332(2) 0.7380(5)
H77 H 1.2668 0.8206 0.7284
H78 H 1.2098 0.8366 0.8254
O18 O 1.2162(4) 0.9464(2) 0.7435(5)
loop_
_geom_bond_atom_site_label_1
_geom_bond_atom_site_label_2
_geom_bond_site_symmetry_1
_geom_bond_site_symmetry_2
Cl1 C4 1_555 1_555
O1 H1 1_555 1_555
O2 H2 1_555 1_555
O3 H3 1_555 1_555
O4 H4 1_555 1_555
O5 C14 1_555 1_555
O6 C17 1_555 1_555
N1 C19 1_555 1_555
C1 O1 1_555 1_555
H5 C1 1_555 1_555
C2 C1 1_555 1_555
H6 C2 1_555 1_555
H7 C2 1_555 1_555
C3 O2 1_555 1_555
H8 C3 1_555 1_555
C4 C3 1_555 1_555
C5 C4 1_555 1_555
H9 C5 1_555 1_555
C6 C5 1_555 1_555
H10 C6 1_555 1_555
H11 C6 1_555 1_555
C7 C6 1_555 1_555
H12 C7 1_555 1_555
C8 O3 1_555 1_555
C9 O4 1_555 1_555
C10 C9 1_555 1_555
H13 C10 1_555 1_555
C11 C1 1_555 1_555
C12 C10 1_555 1_555
H14 C12 1_555 1_555
H15 C12 1_555 1_555
C13 C12 1_555 1_555
H16 C13 1_555 1_555
C14 C9 1_555 1_555
H17 C14 1_555 1_555
C15 O5 1_555 1_555
H18 C15 1_555 1_555
H19 C15 1_555 1_555
H20 C15 1_555 1_555
C16 C8 1_555 1_555
H21 C16 1_555 1_555
H22 C16 1_555 1_555
C17 C13 1_555 1_555
H23 C17 1_555 1_555
C18 O6 1_555 1_555
H24 C18 1_555 1_555
H25 C18 1_555 1_555
H26 C18 1_555 1_555
C19 C7 1_555 1_555
H27 C19 1_555 1_555
C20 N1 1_555 1_555
H28 C20 1_555 1_555
H29 C20 1_555 1_555
C21 N1 1_555 1_555
H30 C21 1_555 1_555
H31 C21 1_555 1_555
C22 C21 1_555 1_555
H32 C22 1_555 1_555
H33 C22 1_555 1_555
H34 C22 1_555 1_555
Cl2 C26 1_555 1_555
O7 H35 1_555 1_555
O8 H36 1_555 1_555
O9 H37 1_555 1_555
O10 H38 1_555 1_555
O11 C36 1_555 1_555
O12 C39 1_555 1_555
N2 C41 1_555 1_555
C23 O7 1_555 1_555
H39 C23 1_555 1_555
C24 C23 1_555 1_555
H40 C24 1_555 1_555
H41 C24 1_555 1_555
C25 O8 1_555 1_555
H42 C25 1_555 1_555
C26 C25 1_555 1_555
C27 C26 1_555 1_555
H43 C27 1_555 1_555
C28 C27 1_555 1_555
H44 C28 1_555 1_555
H45 C28 1_555 1_555
C29 C28 1_555 1_555
H46 C29 1_555 1_555
C30 O9 1_555 1_555
C31 O10 1_555 1_555
C32 C31 1_555 1_555
H47 C32 1_555 1_555
C33 C23 1_555 1_555
C34 C32 1_555 1_555
H48 C34 1_555 1_555
H49 C34 1_555 1_555
C35 C34 1_555 1_555
H50 C35 1_555 1_555
C36 C31 1_555 1_555
H51 C36 1_555 1_555
C37 O11 1_555 1_555
H52 C37 1_555 1_555
H53 C37 1_555 1_555
H54 C37 1_555 1_555
C38 C30 1_555 1_555
H55 C38 1_555 1_555
H56 C38 1_555 1_555
C39 C35 1_555 1_555
H57 C39 1_555 1_555
C40 O12 1_555 1_555
H58 C40 1_555 1_555
H59 C40 1_555 1_555
H60 C40 1_555 1_555
C41 C29 1_555 1_555
H61 C41 1_555 1_555
C42 N2 1_555 1_555
H62 C42 1_555 1_555
H63 C42 1_555 1_555
C43 N2 1_555 1_555
H64 C43 1_555 1_555
H65 C43 1_555 1_555
C44 C43 1_555 1_555
H66 C44 1_555 1_555
H67 C44 1_555 1_555
H68 C44 1_555 1_555
O13 H69 1_555 1_555
H70 O13 1_555 1_555
O14 H71 1_555 1_555
H72 O14 1_555 1_555
O15 H73 1_555 1_555
H74 O15 1_555 1_555
O16 H75 1_555 1_555
H76 O16 1_555 1_555
O17 H77 1_555 1_555
H78 O17 1_555 1_555
C2 C3 1_555 1_555
C4 C20 1_555 1_555
C5 C11 1_555 1_555
C7 C8 1_555 1_555
C8 C9 1_555 1_555
C10 C11 1_555 1_555
C11 C19 1_555 1_555
C13 C14 1_555 1_555
C16 C17 1_555 1_555
C24 C25 1_555 1_555
C26 C42 1_555 1_555
C27 C33 1_555 1_555
C29 C30 1_555 1_555
C30 C31 1_555 1_555
C32 C33 1_555 1_555
C33 C41 1_555 1_555
C35 C36 1_555 1_555
C38 C39 1_555 1_555

#END
