
#######################################################################
#
#                 Cambridge Crystallographic Data Centre
#                                CCDC 
#
#######################################################################
#
# If this CIF has been generated from an entry in the Cambridge 
# Structural Database, then it will include bibliographic, chemical, 
# crystal, experimental, refinement or atomic coordinate data resulting 
# from the CCDC's data processing and validation procedures.
#
#######################################################################

data_VAPQAH
_chemical_formula_moiety         'C23 H35 N1 O7,H2 O1'
_chemical_name_systematic        
'18-ethyl-3,8,9-trihydroxy-4,6,16-trimethoxy-18-azahexacyclo[11.3.2.1^2,5^.0^1,11^.0^3,8^.0^9,17^]nonadecan-12-one monohydrate'
_symmetry_cell_setting           monoclinic
_symmetry_space_group_name_H-M   'P 21'
_symmetry_Int_Tables_number      4
_space_group_name_Hall           'P 2yb'
loop_
_symmetry_equiv_pos_site_id
_symmetry_equiv_pos_as_xyz
1 x,y,z
2 -x,1/2+y,-z
_cell_length_a                   10.225(3)
_cell_length_b                   9.140(2)
_cell_length_c                   12.326(3)
_cell_angle_alpha                90
_cell_angle_beta                 106.463(18)
_cell_angle_gamma                90
_cell_volume                     1104.72
_exptl_crystal_colour            colorless
_exptl_crystal_description       block
_cell_formula_units_Z            2
loop_
_atom_site_label
_atom_site_type_symbol
_atom_site_fract_x
_atom_site_fract_y
_atom_site_fract_z
O1 O 0.0688(6) -0.7622(7) -0.1377(4)
O2 O -0.3490(5) -1.0731(6) -0.3364(4)
H1 H -0.3627 -1.0824 -0.2743
O3 O -0.5340(6) -0.8487(6) -0.4110(5)
H2 H -0.5419 -0.9367 -0.4242
O4 O -0.4083(6) -0.6238(6) -0.4632(4)
H3 H -0.4550 -0.6905 -0.4987
O5 O -0.5630(6) -0.5644(6) -0.2996(4)
O6 O -0.4770(6) -0.7112(7) -0.0590(4)
O7 O -0.0121(7) -0.9395(8) -0.5420(4)
N1 N -0.0696(7) -1.0315(7) -0.2775(5)
C1 C 0.0400(8) -0.7163(9) -0.2528(6)
H4 H 0.0437 -0.6091 -0.2535
C2 C 0.1841(11) -0.6961(14) -0.0636(8)
H5 H 0.1968 -0.7334 0.0115
H6 H 0.1709 -0.5921 -0.0637
H7 H 0.2631 -0.7178 -0.0880
C3 C 0.1486(9) -0.7730(9) -0.3029(7)
H8 H 0.1279 -0.7414 -0.3811
H9 H 0.2357 -0.7306 -0.2622
C4 C 0.1606(8) -0.9370(11) -0.2985(7)
H10 H 0.1965 -0.9676 -0.2203
H11 H 0.2247 -0.9675 -0.3389
C5 C 0.0202(9) -1.0144(10) -0.3515(6)
H12 H 0.0382 -1.1117 -0.3773
C6 C -0.1417(8) -0.8107(9) -0.4385(5)
H13 H -0.1499 -0.7275 -0.4902
C7 C -0.2767(8) -0.9060(9) -0.4630(5)
H14 H -0.3533 -0.8543 -0.5129
H15 H -0.2653 -0.9988 -0.4974
C8 C -0.2987(8) -0.9293(8) -0.3459(5)
C9 C -0.4065(8) -0.8210(8) -0.3261(6)
C10 C -0.3634(8) -0.6609(8) -0.3473(5)
C11 C -0.2087(8) -0.6372(7) -0.2997(5)
H16 H -0.1853 -0.5524 -0.3391
C12 C -0.1131(8) -0.7637(8) -0.3122(5)
C13 C -0.1872(8) -0.5902(10) -0.1731(6)
H17 H -0.1311 -0.6610 -0.1219
H18 H -0.1436 -0.4951 -0.1588
C14 C -0.3328(8) -0.5843(9) -0.1576(6)
H19 H -0.3393 -0.5052 -0.1057
C15 C -0.4183(8) -0.5492(8) -0.2767(6)
H20 H -0.3970 -0.4499 -0.2966
C16 C -0.6191(10) -0.4486(10) -0.2510(7)
H21 H -0.6001 -0.4645 -0.1710
H22 H -0.7159 -0.4451 -0.2847
H23 H -0.5792 -0.3576 -0.2642
C17 C -0.4301(8) -0.8401(9) -0.2090(6)
H24 H -0.5279 -0.8438 -0.2202
H25 H -0.3941 -0.9352 -0.1804
C18 C -0.3718(8) -0.7286(9) -0.1161(6)
H26 H -0.2908 -0.7709 -0.0626
C19 C -0.4375(11) -0.6400(13) 0.0451(7)
H27 H -0.3529 -0.6804 0.0902
H28 H -0.5064 -0.6529 0.0834
H29 H -0.4259 -0.5375 0.0333
C20 C -0.1542(7) -0.9071(8) -0.2653(5)
H30 H -0.1563 -0.8956 -0.1868
C21 C -0.0430(8) -0.9228(9) -0.4535(6)
C22 C -0.0088(10) -1.1084(10) -0.1708(7)
H31 H -0.0765 -1.1180 -0.1298
H32 H 0.0660 -1.0505 -0.1247
C23 C 0.0439(12) -1.2599(11) -0.1886(9)
H33 H 0.0655 -1.3134 -0.1187
H34 H 0.1244 -1.2504 -0.2134
H35 H -0.0249 -1.3115 -0.2449
O8 O -0.7742(13) -0.7894(16) -0.5704(11)
H36 H -0.7132 -0.7647 -0.6016
H37 H -0.7365 -0.8267 -0.5060
loop_
_geom_bond_atom_site_label_1
_geom_bond_atom_site_label_2
_geom_bond_site_symmetry_1
_geom_bond_site_symmetry_2
O1 C1 1_555 1_555
O2 H1 1_555 1_555
O3 H2 1_555 1_555
O4 H3 1_555 1_555
O5 C15 1_555 1_555
O6 C18 1_555 1_555
O7 C21 1_555 1_555
N1 C5 1_555 1_555
C1 H4 1_555 1_555
C2 O1 1_555 1_555
H5 C2 1_555 1_555
H6 C2 1_555 1_555
H7 C2 1_555 1_555
C3 C1 1_555 1_555
H8 C3 1_555 1_555
H9 C3 1_555 1_555
C4 C3 1_555 1_555
H10 C4 1_555 1_555
H11 C4 1_555 1_555
C5 C4 1_555 1_555
H12 C5 1_555 1_555
C6 H13 1_555 1_555
C7 C6 1_555 1_555
H14 C7 1_555 1_555
H15 C7 1_555 1_555
C8 O2 1_555 1_555
C9 O3 1_555 1_555
C10 O4 1_555 1_555
C11 C10 1_555 1_555
H16 C11 1_555 1_555
C12 C1 1_555 1_555
C13 C11 1_555 1_555
H17 C13 1_555 1_555
H18 C13 1_555 1_555
C14 C13 1_555 1_555
H19 C14 1_555 1_555
C15 C10 1_555 1_555
H20 C15 1_555 1_555
C16 O5 1_555 1_555
H21 C16 1_555 1_555
H22 C16 1_555 1_555
H23 C16 1_555 1_555
C17 C9 1_555 1_555
H24 C17 1_555 1_555
H25 C17 1_555 1_555
C18 C14 1_555 1_555
H26 C18 1_555 1_555
C19 O6 1_555 1_555
H27 C19 1_555 1_555
H28 C19 1_555 1_555
H29 C19 1_555 1_555
C20 N1 1_555 1_555
H30 C20 1_555 1_555
C21 C5 1_555 1_555
C22 N1 1_555 1_555
H31 C22 1_555 1_555
H32 C22 1_555 1_555
C23 C22 1_555 1_555
H33 C23 1_555 1_555
H34 C23 1_555 1_555
H35 C23 1_555 1_555
O8 H36 1_555 1_555
H37 O8 1_555 1_555
C6 C12 1_555 1_555
C6 C21 1_555 1_555
C7 C8 1_555 1_555
C8 C9 1_555 1_555
C8 C20 1_555 1_555
C9 C10 1_555 1_555
C11 C12 1_555 1_555
C12 C20 1_555 1_555
C14 C15 1_555 1_555
C17 C18 1_555 1_555

#END
