
#######################################################################
#
#                 Cambridge Crystallographic Data Centre
#                                CCDC 
#
#######################################################################
#
# If this CIF has been generated from an entry in the Cambridge 
# Structural Database, then it will include bibliographic, chemical, 
# crystal, experimental, refinement or atomic coordinate data resulting 
# from the CCDC's data processing and validation procedures.
#
#######################################################################

data_VAPRAH
_chemical_name_common            
'metformin 31,32,33,34,35-pentahydroxycalix(4)arene-5,11,17,23,29-pentasulfonate dodecahydrate'
_chemical_formula_moiety         'C35 H25 O20 S5 5-,2.5(C4 H13 N5 2+),12(H2 O1)'
_chemical_name_systematic        
'Amino(((dimethylamino)(iminio)methyl)amino)methaniminium 31,32,33,34,35-pentahydroxycalix(4)arene-5,11,17,23,29-pentasulfonate dodecahydrate'
_symmetry_cell_setting           monoclinic
_symmetry_space_group_name_H-M   'P 21/c'
_symmetry_Int_Tables_number      14
_space_group_name_Hall           '-P 2ybc'
loop_
_symmetry_equiv_pos_site_id
_symmetry_equiv_pos_as_xyz
1 x,y,z
2 -x,1/2+y,1/2-z
3 -x,-y,-z
4 x,1/2-y,1/2+z
_cell_length_a                   14.2990(17)
_cell_length_b                   20.408(2)
_cell_length_c                   22.893(2)
_cell_angle_alpha                90
_cell_angle_beta                 107.014(6)
_cell_angle_gamma                90
_cell_volume                     6388.11
_exptl_crystal_colour            colorless
_exptl_crystal_description       prism
_cell_formula_units_Z            4
loop_
_atom_site_label
_atom_site_type_symbol
_atom_site_fract_x
_atom_site_fract_y
_atom_site_fract_z
S1 S 0.22013(6) 0.57221(3) 0.48337(3)
S2 S 0.24942(6) 0.43442(3) 0.23674(3)
S3 S 0.29899(5) 0.07455(3) 0.23268(3)
S4 S 0.24966(5) -0.09520(3) 0.50157(3)
S5 S 0.39660(5) 0.23397(3) 0.58649(3)
O1 O -0.03553(15) 0.33963(10) 0.43184(9)
H1 H -0.051(3) 0.3263(17) 0.4635(16)
O2 O -0.09108(16) 0.29399(10) 0.27014(9)
H2 H -0.151(3) 0.3212(18) 0.2627(16)
O3 O -0.06516(15) 0.16136(10) 0.28054(9)
H3 H -0.075(3) 0.2009(19) 0.2743(16)
O4 O -0.02500(15) 0.12517(9) 0.42058(8)
H4 H -0.068(3) 0.1184(17) 0.3869(16)
O5 O -0.03258(13) 0.24491(9) 0.53123(8)
H5 H -0.063(3) 0.2051(17) 0.5252(15)
O6 O 0.2791(3) 0.57296(17) 0.44003(15)
O7 O 0.2971(3) 0.56307(18) 0.54728(14)
O8 O 0.1676(3) 0.62978(17) 0.48422(19)
O9 O 0.25744(19) 0.49612(11) 0.26997(11)
O10 O 0.23148(18) 0.44567(13) 0.17218(9)
O11 O 0.33156(16) 0.39165(10) 0.26361(11)
O12 O 0.36711(15) 0.12979(10) 0.24895(9)
O13 O 0.27318(16) 0.06022(10) 0.16754(9)
O14 O 0.33294(16) 0.01711(10) 0.27028(9)
O15 O 0.32271(15) -0.09220(10) 0.46889(9)
O16 O 0.18786(15) -0.15312(9) 0.48501(9)
O17 O 0.29477(14) -0.08922(9) 0.56733(8)
O18 O 0.40726(16) 0.24562(12) 0.52597(10)
O19 O 0.43089(16) 0.16930(11) 0.60945(12)
O20 O 0.43941(15) 0.28623(10) 0.62873(9)
C1 C 0.0215(2) 0.39458(12) 0.44596(11)
C2 C 0.07621(19) 0.40830(12) 0.50619(11)
C3 C 0.1361(2) 0.46319(13) 0.51716(12)
H6 H 0.1749 0.4727 0.5576
C4 C 0.1398(2) 0.50432(13) 0.46948(12)
C5 C 0.0818(3) 0.49132(14) 0.41060(12)
H7 H 0.0821 0.5209 0.3786
C6 C 0.0233(2) 0.43594(13) 0.39759(12)
C7 C -0.0399(2) 0.42062(14) 0.33319(12)
H8 H -0.0935 0.3910 0.3356
H9 H -0.0700 0.4618 0.3136
C8 C -0.0141(2) 0.32943(13) 0.26269(11)
C9 C 0.0151(2) 0.38891(13) 0.29299(11)
C10 C 0.0962(2) 0.42024(13) 0.28394(11)
H10 H 0.1176 0.4605 0.3042
C11 C 0.1461(2) 0.39402(13) 0.24617(11)
C12 C 0.1162(2) 0.33504(13) 0.21622(11)
H11 H 0.1506 0.3174 0.1901
C13 C 0.0362(2) 0.30185(13) 0.22451(11)
C14 C 0.0044(2) 0.23709(12) 0.19262(11)
H12 H 0.0162 0.2382 0.1521
H13 H -0.0668 0.2317 0.1858
C15 C 0.01709(19) 0.14138(13) 0.26692(11)
C16 C 0.0570(2) 0.17807(12) 0.22784(11)
C17 C 0.1443(2) 0.15723(13) 0.21962(11)
H14 H 0.1738 0.1824 0.1949
C18 C 0.1896(2) 0.10016(13) 0.24698(12)
C19 C 0.1459(2) 0.06210(13) 0.28159(11)
H15 H 0.1755 0.0220 0.2985
C20 C 0.0589(2) 0.08188(12) 0.29186(11)
C21 C 0.0085(2) 0.03739(13) 0.32656(11)
H16 H -0.0587 0.0539 0.3207
H17 H 0.0030 -0.0069 0.3083
C22 C 0.03932(18) 0.07426(12) 0.43736(11)
C23 C 0.05874(19) 0.03139(12) 0.39449(11)
C24 C 0.12479(19) -0.01952(12) 0.41575(11)
H18 H 0.1382 -0.0494 0.3874
C25 C 0.17154(19) -0.02725(12) 0.47794(11)
C26 C 0.15258(18) 0.01623(12) 0.51976(11)
H19 H 0.1853 0.0113 0.5621
C27 C 0.08567(18) 0.06722(12) 0.49990(11)
C28 C 0.06077(19) 0.11319(12) 0.54507(11)
H20 H 0.0769 0.0914 0.5855
H21 H -0.0105 0.1215 0.5317
C29 C 0.06706(18) 0.23889(12) 0.54703(10)
C30 C 0.11409(19) 0.17821(12) 0.55195(10)
C31 C 0.21612(19) 0.17776(13) 0.56621(11)
H22 H 0.2496 0.1371 0.5693
C32 C 0.26944(19) 0.23574(13) 0.57588(11)
C33 C 0.22133(19) 0.29573(12) 0.57306(11)
H23 H 0.2581 0.3352 0.5807
C34 C 0.12018(19) 0.29802(12) 0.55919(11)
C35 C 0.07034(19) 0.36412(12) 0.55812(11)
H24 H 0.0006 0.3567 0.5550
H25 H 0.1007 0.3869 0.5973
O21 O 0.63122(17) 0.13393(11) 0.63876(10)
H26 H 0.650(3) 0.119(2) 0.6114(18)
H27 H 0.577(3) 0.138(2) 0.6317(18)
O22 O 0.27169(18) 0.76815(11) 0.95679(10)
H28 H 0.248(3) 0.732(2) 0.9599(17)
H29 H 0.232(3) 0.796(2) 0.9577(17)
O23 O 0.21458(16) 0.91107(10) 0.66144(9)
H30 H 0.236(3) 0.9113(18) 0.6319(18)
H31 H 0.227(3) 0.9464(19) 0.6766(17)
O24 O 0.36781(19) 0.24104(12) 0.78162(11)
H32 H 0.354(3) 0.205(2) 0.773(2)
H33 H 0.364(3) 0.270(2) 0.751(2)
O25 O 0.47130(18) 0.61053(13) 0.74110(12)
H34 H 0.493(4) 0.586(2) 0.770(2)
H35 H 0.418(3) 0.595(2) 0.718(2)
O26 O 0.24856(18) 0.64238(12) 0.74596(11)
H36 H 0.255(3) 0.620(2) 0.720(2)
H37 H 0.282(3) 0.630(2) 0.779(2)
O27 O 0.3484(2) 0.02519(13) 0.39501(12)
H38 H 0.383(4) 0.014(3) 0.413(2)
H39 H 0.354(3) 0.020(2) 0.353(2)
O28 O 0.5384(2) 0.31569(12) 0.48178(15)
H40 H 0.504(4) 0.296(2) 0.500(2)
H41 H 0.586(4) 0.302(3) 0.494(2)
O29 O 0.2858(2) 0.57282(13) 0.65535(12)
H42 H 0.266(4) 0.586(2) 0.615(2)
H43 H 0.274(4) 0.532(3) 0.660(2)
O30 O 0.4638(3) 0.47988(17) 0.04974(15)
H44 H 0.5219 0.4926 0.0677
H45 H 0.4676 0.4409 0.0373
O31 O 0.4258(3) 0.4718(2) 0.16174(16)
H46 H 0.4731 0.4935 0.1854
H47 H 0.4214 0.4786 0.1246
N1 N 0.4851(2) 0.35530(13) 0.96742(11)
H48 H 0.536(3) 0.3800(19) 0.9847(17)
H49 H 0.456(3) 0.3378(19) 0.9903(17)
N2 N 0.5023(2) 0.36547(13) 0.87103(12)
H50 H 0.562(3) 0.3859(19) 0.8879(17)
H51 H 0.470(3) 0.3656(18) 0.8309(18)
N3 N 0.37064(17) 0.30938(12) 0.88403(11)
H52 H 0.368(3) 0.2902(17) 0.8498(16)
N4 N 0.26463(19) 0.36447(12) 0.92625(11)
H53 H 0.288(3) 0.4051(18) 0.9176(16)
H54 H 0.224(3) 0.3651(18) 0.9452(16)
N5 N 0.23744(17) 0.25514(11) 0.89821(10)
C36 C 0.4543(2) 0.34537(14) 0.90865(13)
C37 C 0.2895(2) 0.30937(13) 0.90452(11)
C38 C 0.1385(2) 0.25582(16) 0.90497(13)
H55 H 0.1423 0.2495 0.9480
H56 H 0.0998 0.2204 0.8805
H57 H 0.1073 0.2980 0.8909
C39 C 0.2784(2) 0.19004(14) 0.89270(14)
H58 H 0.2477 0.1726 0.8517
H59 H 0.2655 0.1604 0.9232
H60 H 0.3491 0.1938 0.8996
N6 N 0.69442(19) 0.26998(12) 0.65791(11)
H61 H 0.701(3) 0.2739(17) 0.6194(17)
H62 H 0.680(3) 0.2314(18) 0.6719(17)
N7 N 0.7334(2) 0.37812(14) 0.67743(12)
H63 H 0.745(3) 0.386(2) 0.645(2)
H64 H 0.731(3) 0.414(2) 0.6997(19)
N8 N 0.70227(18) 0.31656(12) 0.75272(10)
H65 H 0.726(3) 0.3491(18) 0.7767(16)
N9 N 0.57238(18) 0.24325(13) 0.73894(11)
H66 H 0.538(3) 0.2614(17) 0.7059(17)
H67 H 0.554(3) 0.2048(19) 0.7501(16)
N10 N 0.68530(17) 0.25583(11) 0.83385(10)
C40 C 0.7087(2) 0.32085(14) 0.69411(11)
C41 C 0.65199(19) 0.26982(13) 0.77490(11)
C42 C 0.7878(2) 0.26241(14) 0.87014(12)
H68 H 0.8260 0.2798 0.8444
H69 H 0.8135 0.2194 0.8861
H70 H 0.7925 0.2925 0.9043
C43 C 0.6238(2) 0.22237(16) 0.86545(13)
H71 H 0.5548 0.2285 0.8426
H72 H 0.6360 0.2407 0.9066
H73 H 0.6393 0.1755 0.8684
O32 O 0.5574(3) 0.0784(2) 0.2507(2)
O33 O 0.4400(4) 0.4224(2) 0.6193(2)
N11? N 0.6273(4) 0.5142(2) 0.6035(2)
H74? H 0.6602 0.5138 0.6425
H75? H 0.6481 0.4910 0.5773
N12? N 0.5128(4) 0.5842(3) 0.6205(2)
H76? H 0.5436 0.5852 0.6599
H77? H 0.4588 0.6071 0.6059
N13? N 0.4997(4) 0.5533(2) 0.5232(2)
H78? H 0.5269 0.4091 0.4918
N14? N 0.4744(4) 0.4426(2) 0.5026(3)
H79? H 0.5336 0.5912 0.5223
H80? H 0.4707 0.4373 0.5400
N15? N 0.4985(4) 0.5125(2) 0.4288(2)
C44? C 0.5469(4) 0.5493(3) 0.5842(3)
C45? C 0.4919(5) 0.5008(3) 0.4839(2)
C46? C 0.4747(6) 0.4611(4) 0.3828(3)
H81? H 0.4181 0.4363 0.3866
H82? H 0.4592 0.4808 0.3420
H83? H 0.5308 0.4316 0.3888
C47? C 0.5388(5) 0.5733(3) 0.4114(3)
H84? H 0.5648 0.6007 0.4476
H85? H 0.5914 0.5625 0.3935
H86? H 0.4870 0.5971 0.3813
O34? O 0.1811(3) 0.61155(19) 0.42407(16)
O35? O 0.3074(3) 0.5438(2) 0.49064(19)
O36? O 0.1990(3) 0.60847(19) 0.53188(16)
loop_
_geom_bond_atom_site_label_1
_geom_bond_atom_site_label_2
_geom_bond_site_symmetry_1
_geom_bond_site_symmetry_2
S1 O6 1_555 1_555
S2 O9 1_555 1_555
S3 O12 1_555 1_555
S4 O15 1_555 1_555
S5 O18 1_555 1_555
O1 H1 1_555 1_555
O2 H2 1_555 1_555
O3 H3 1_555 1_555
O4 H4 1_555 1_555
O5 H5 1_555 1_555
O7 S1 1_555 1_555
O8 S1 1_555 1_555
O10 S2 1_555 1_555
O11 S2 1_555 1_555
O13 S3 1_555 1_555
O14 S3 1_555 1_555
O16 S4 1_555 1_555
O17 S4 1_555 1_555
O19 S5 1_555 1_555
O20 S5 1_555 1_555
C1 O1 1_555 1_555
C2 C1 1_555 1_555
C3 C2 1_555 1_555
H6 C3 1_555 1_555
C4 S1 1_555 1_555
C5 C4 1_555 1_555
H7 C5 1_555 1_555
C6 C1 1_555 1_555
C7 C6 1_555 1_555
H8 C7 1_555 1_555
H9 C7 1_555 1_555
C8 O2 1_555 1_555
C9 C7 1_555 1_555
C10 C9 1_555 1_555
H10 C10 1_555 1_555
C11 S2 1_555 1_555
C12 C11 1_555 1_555
H11 C12 1_555 1_555
C13 C8 1_555 1_555
C14 C13 1_555 1_555
H12 C14 1_555 1_555
H13 C14 1_555 1_555
C15 O3 1_555 1_555
C16 C14 1_555 1_555
C17 C16 1_555 1_555
H14 C17 1_555 1_555
C18 S3 1_555 1_555
C19 C18 1_555 1_555
H15 C19 1_555 1_555
C20 C15 1_555 1_555
C21 C20 1_555 1_555
H16 C21 1_555 1_555
H17 C21 1_555 1_555
C22 O4 1_555 1_555
C23 C21 1_555 1_555
C24 C23 1_555 1_555
H18 C24 1_555 1_555
C25 S4 1_555 1_555
C26 C25 1_555 1_555
H19 C26 1_555 1_555
C27 C22 1_555 1_555
C28 C27 1_555 1_555
H20 C28 1_555 1_555
H21 C28 1_555 1_555
C29 O5 1_555 1_555
C30 C28 1_555 1_555
C31 C30 1_555 1_555
H22 C31 1_555 1_555
C32 S5 1_555 1_555
C33 C32 1_555 1_555
H23 C33 1_555 1_555
C34 C29 1_555 1_555
C35 C2 1_555 1_555
H24 C35 1_555 1_555
H25 C35 1_555 1_555
O21 H26 1_555 1_555
H27 O21 1_555 1_555
O22 H28 1_555 1_555
H29 O22 1_555 1_555
O23 H30 1_555 1_555
H31 O23 1_555 1_555
O24 H32 1_555 1_555
H33 O24 1_555 1_555
O25 H34 1_555 1_555
H35 O25 1_555 1_555
O26 H36 1_555 1_555
H37 O26 1_555 1_555
O27 H38 1_555 1_555
H39 O27 1_555 1_555
O28 H40 1_555 1_555
H41 O28 1_555 1_555
O29 H42 1_555 1_555
H43 O29 1_555 1_555
O30 H44 1_555 1_555
H45 O30 1_555 1_555
O31 H46 1_555 1_555
H47 O31 1_555 1_555
N1 H48 1_555 1_555
H49 N1 1_555 1_555
N2 H50 1_555 1_555
H51 N2 1_555 1_555
N3 H52 1_555 1_555
N4 H53 1_555 1_555
H54 N4 1_555 1_555
N5 C37 1_555 1_555
C36 N1 1_555 1_555
C37 N3 1_555 1_555
C38 N5 1_555 1_555
H55 C38 1_555 1_555
H56 C38 1_555 1_555
H57 C38 1_555 1_555
C39 N5 1_555 1_555
H58 C39 1_555 1_555
H59 C39 1_555 1_555
H60 C39 1_555 1_555
N6 H61 1_555 1_555
H62 N6 1_555 1_555
N7 H63 1_555 1_555
H64 N7 1_555 1_555
N8 H65 1_555 1_555
N9 H66 1_555 1_555
H67 N9 1_555 1_555
N10 C41 1_555 1_555
C40 N6 1_555 1_555
C41 N8 1_555 1_555
C42 N10 1_555 1_555
H68 C42 1_555 1_555
H69 C42 1_555 1_555
H70 C42 1_555 1_555
C43 N10 1_555 1_555
H71 C43 1_555 1_555
H72 C43 1_555 1_555
H73 C43 1_555 1_555
C3 C4 1_555 1_555
C5 C6 1_555 1_555
C8 C9 1_555 1_555
C10 C11 1_555 1_555
C12 C13 1_555 1_555
C15 C16 1_555 1_555
C17 C18 1_555 1_555
C19 C20 1_555 1_555
C22 C23 1_555 1_555
C24 C25 1_555 1_555
C26 C27 1_555 1_555
C29 C30 1_555 1_555
C31 C32 1_555 1_555
C33 C34 1_555 1_555
C34 C35 1_555 1_555
N2 C36 1_555 1_555
N3 C36 1_555 1_555
N4 C37 1_555 1_555
N7 C40 1_555 1_555
N8 C40 1_555 1_555
N9 C41 1_555 1_555

#END
