
#######################################################################
#
#                 Cambridge Crystallographic Data Centre
#                                CCDC 
#
#######################################################################
#
# If this CIF has been generated from an entry in the Cambridge 
# Structural Database, then it will include bibliographic, chemical, 
# crystal, experimental, refinement or atomic coordinate data resulting 
# from the CCDC's data processing and validation procedures.
#
#######################################################################

data_VAPSEN
_chemical_formula_moiety         'C46 H44 N2 O4,2(C1 H1 Cl3)'
_chemical_name_systematic        
'6,13,21,28-tetraoxa-42,45-diazaoctacyclo[31.8.4.3^14,20^.2^2,5^.2^29,32^.0^17,49^.0^36,44^.0^39,43^]dopentaconta-1(42),2,4,14(50),15,17,19,29,31,33(45),34,36(44),37,39(43),40,46,48,51-octadecaene chloroform solvate'
_symmetry_cell_setting           triclinic
_symmetry_space_group_name_H-M   'P -1'
_symmetry_Int_Tables_number      2
_space_group_name_Hall           '-P 1'
loop_
_symmetry_equiv_pos_site_id
_symmetry_equiv_pos_as_xyz
1 x,y,z
2 -x,-y,-z
_cell_length_a                   8.4044(4)
_cell_length_b                   14.7638(6)
_cell_length_c                   18.7247(8)
_cell_angle_alpha                73.146(3)
_cell_angle_beta                 85.741(3)
_cell_angle_gamma                81.873(3)
_cell_volume                     2199.89
_exptl_crystal_colour            colorless
_exptl_crystal_description       block
_cell_formula_units_Z            2
loop_
_atom_site_label
_atom_site_type_symbol
_atom_site_fract_x
_atom_site_fract_y
_atom_site_fract_z
O1 O 0.5420(2) -0.20884(12) 0.72962(9)
O2 O 0.3434(2) -0.35904(12) 0.36254(10)
O3 O 0.7006(2) -0.04897(12) 0.02882(10)
O4 O 0.9690(2) 0.32429(12) 0.22475(10)
N1 N 1.0485(2) 0.27808(14) 0.57096(11)
N2 N 0.9325(2) 0.14669(14) 0.69694(11)
C1 C 1.1040(3) 0.34141(17) 0.51151(14)
C2 C 1.1927(3) 0.41359(18) 0.51801(15)
H1 H 1.2335 0.4568 0.4747
C3 C 1.2183(3) 0.41997(18) 0.58731(14)
H2 H 1.2785 0.4673 0.5926
C4 C 1.1558(3) 0.35671(17) 0.65089(14)
C5 C 1.0722(3) 0.28521(17) 0.63999(14)
C6 C 1.1768(3) 0.36415(18) 0.72396(15)
H3 H 1.2329 0.4128 0.7299
C7 C 1.1170(3) 0.30217(18) 0.78435(15)
H4 H 1.1292 0.3084 0.8327
C8 C 1.0358(3) 0.22739(18) 0.77662(14)
C9 C 1.0109(3) 0.21732(17) 0.70579(14)
C10 C 0.9812(3) 0.15936(19) 0.83917(15)
H5 H 0.9979 0.1629 0.8879
C11 C 0.9046(3) 0.08819(18) 0.83068(14)
H6 H 0.8687 0.0416 0.8732
C12 C 0.8786(3) 0.08424(17) 0.75774(14)
C13 C 0.7887(3) 0.00961(17) 0.74764(14)
C14 C 0.7057(3) -0.04789(17) 0.80793(14)
H7 H 0.7052 -0.0375 0.8557
C15 C 0.6256(3) -0.11850(18) 0.79958(14)
H8 H 0.5701 -0.1560 0.8413
C16 C 0.6247(3) -0.13590(17) 0.73027(14)
C17 C 0.7021(3) -0.07929(17) 0.66931(14)
H9 H 0.7011 -0.0897 0.6216
C18 C 0.7814(3) -0.00714(17) 0.67851(14)
H10 H 0.8324 0.0321 0.6362
C19 C 0.5442(3) -0.23837(18) 0.66257(14)
H11 H 0.6541 -0.2654 0.6505
H12 H 0.5071 -0.1838 0.6198
C20 C 0.4311(3) -0.31293(19) 0.67965(15)
H13 H 0.3213 -0.2820 0.6873
H14 H 0.4617 -0.3609 0.7273
C21 C 0.4259(4) -0.36507(19) 0.62036(14)
H15 H 0.3374 -0.4053 0.6342
H16 H 0.5277 -0.4082 0.6211
C22 C 0.4021(3) -0.30032(18) 0.54054(14)
H17 H 0.3141 -0.2483 0.5409
H18 H 0.5016 -0.2711 0.5217
C23 C 0.3614(3) -0.35554(18) 0.48817(14)
H19 H 0.4361 -0.4155 0.4962
H20 H 0.2509 -0.3726 0.5004
C24 C 0.3732(3) -0.29873(18) 0.40740(14)
H21 H 0.2927 -0.2411 0.3976
H22 H 0.4816 -0.2783 0.3950
C25 C 0.3913(3) -0.33216(18) 0.28886(14)
C26 C 0.3877(4) -0.40151(19) 0.25102(16)
H23 H 0.3464 -0.4596 0.2760
C27 C 0.4436(4) -0.3856(2) 0.17838(16)
H24 H 0.4404 -0.4328 0.1534
C28 C 0.5061(4) -0.29941(19) 0.14006(15)
C29 C 0.5028(3) -0.22823(18) 0.17732(14)
C30 C 0.4435(3) -0.24613(18) 0.25242(14)
H25 H 0.4399 -0.1984 0.2775
C31 C 0.5762(4) -0.28283(19) 0.06709(16)
H26 H 0.5789 -0.3302 0.0417
C32 C 0.6396(4) -0.20074(19) 0.03244(15)
H27 H 0.6881 -0.1917 -0.0162
C33 C 0.6331(3) -0.12851(19) 0.06917(15)
C34 C 0.5655(3) -0.14197(18) 0.13963(14)
H28 H 0.5605 -0.0930 0.1636
C35 C 0.6950(3) 0.02628(18) 0.06322(15)
H29 H 0.7472 0.0023 0.1120
H30 H 0.5821 0.0520 0.0716
C36 C 0.7831(3) 0.10293(19) 0.01107(15)
H31 H 0.7319 0.1237 -0.0380
H32 H 0.8954 0.0756 0.0034
C37 C 0.7849(4) 0.19048(19) 0.03934(15)
H33 H 0.8421 0.2379 0.0015
H34 H 0.6727 0.2198 0.0443
C38 C 0.8644(4) 0.16877(19) 0.11357(15)
H35 H 0.9695 0.1296 0.1117
H36 H 0.7964 0.1309 0.1534
C39 C 0.8903(4) 0.25850(19) 0.13316(15)
H37 H 0.9732 0.2907 0.0985
H38 H 0.7890 0.3029 0.1268
C40 C 0.9425(3) 0.23611(18) 0.21199(15)
H39 H 0.8583 0.2066 0.2474
H40 H 1.0428 0.1909 0.2194
C41 C 1.0044(3) 0.32225(18) 0.29518(14)
C42 C 1.0454(3) 0.40654(18) 0.30347(14)
H41 H 1.0503 0.4604 0.2611
C43 C 1.0790(3) 0.41234(18) 0.37285(14)
H42 H 1.1077 0.4703 0.3775
C44 C 1.0718(3) 0.33489(17) 0.43635(14)
C45 C 1.0305(3) 0.25069(18) 0.42727(14)
H43 H 1.0239 0.1971 0.4697
C46 C 0.9991(3) 0.24367(18) 0.35759(14)
H44 H 0.9738 0.1852 0.3525
C47 C 0.7790(5) -0.0545(2) 0.3972(2)
H45 H 0.8717 -0.1049 0.3966
Cl1 Cl 0.74523(12) 0.01583(8) 0.30545(6)
Cl2 Cl 0.82730(15) 0.01662(8) 0.45166(9)
Cl3 Cl 0.6103(3) -0.10996(15) 0.43730(13)
C48? C 0.769(3) -0.0647(9) 0.3846(8)
H46? H 0.8717 -0.1086 0.3874
Cl4? Cl 0.624(3) -0.1229(16) 0.4466(12)
Cl5? Cl 0.8034(11) 0.0406(7) 0.4042(8)
Cl6? Cl 0.6976(12) -0.0327(8) 0.2941(5)
loop_
_geom_bond_atom_site_label_1
_geom_bond_atom_site_label_2
_geom_bond_site_symmetry_1
_geom_bond_site_symmetry_2
O1 C16 1_555 1_555
O2 C24 1_555 1_555
O3 C33 1_555 1_555
O4 C40 1_555 1_555
N1 C1 1_555 1_555
N2 C9 1_555 1_555
C1 C2 1_555 1_555
C2 H1 1_555 1_555
C3 C2 1_555 1_555
H2 C3 1_555 1_555
C4 C3 1_555 1_555
C5 N1 1_555 1_555
C6 C4 1_555 1_555
H3 C6 1_555 1_555
C7 C6 1_555 1_555
H4 C7 1_555 1_555
C8 C7 1_555 1_555
C9 C5 1_555 1_555
C10 C8 1_555 1_555
H5 C10 1_555 1_555
C11 C10 1_555 1_555
H6 C11 1_555 1_555
C12 N2 1_555 1_555
C13 C12 1_555 1_555
C14 C13 1_555 1_555
H7 C14 1_555 1_555
C15 C14 1_555 1_555
H8 C15 1_555 1_555
C16 C15 1_555 1_555
C17 C16 1_555 1_555
H9 C17 1_555 1_555
C18 C13 1_555 1_555
H10 C18 1_555 1_555
C19 O1 1_555 1_555
H11 C19 1_555 1_555
H12 C19 1_555 1_555
C20 C19 1_555 1_555
H13 C20 1_555 1_555
H14 C20 1_555 1_555
C21 C20 1_555 1_555
H15 C21 1_555 1_555
H16 C21 1_555 1_555
C22 C21 1_555 1_555
H17 C22 1_555 1_555
H18 C22 1_555 1_555
C23 C22 1_555 1_555
H19 C23 1_555 1_555
H20 C23 1_555 1_555
C24 C23 1_555 1_555
H21 C24 1_555 1_555
H22 C24 1_555 1_555
C25 O2 1_555 1_555
C26 C25 1_555 1_555
H23 C26 1_555 1_555
C27 C26 1_555 1_555
H24 C27 1_555 1_555
C28 C27 1_555 1_555
C29 C28 1_555 1_555
C30 C25 1_555 1_555
H25 C30 1_555 1_555
C31 C28 1_555 1_555
H26 C31 1_555 1_555
C32 C31 1_555 1_555
H27 C32 1_555 1_555
C33 C32 1_555 1_555
C34 C29 1_555 1_555
H28 C34 1_555 1_555
C35 O3 1_555 1_555
H29 C35 1_555 1_555
H30 C35 1_555 1_555
C36 C35 1_555 1_555
H31 C36 1_555 1_555
H32 C36 1_555 1_555
C37 C36 1_555 1_555
H33 C37 1_555 1_555
H34 C37 1_555 1_555
C38 C37 1_555 1_555
H35 C38 1_555 1_555
H36 C38 1_555 1_555
C39 C38 1_555 1_555
H37 C39 1_555 1_555
H38 C39 1_555 1_555
C40 C39 1_555 1_555
H39 C40 1_555 1_555
H40 C40 1_555 1_555
C41 O4 1_555 1_555
C42 C41 1_555 1_555
H41 C42 1_555 1_555
C43 C42 1_555 1_555
H42 C43 1_555 1_555
C44 C1 1_555 1_555
C45 C44 1_555 1_555
H43 C45 1_555 1_555
C46 C41 1_555 1_555
H44 C46 1_555 1_555
C47 H45 1_555 1_555
Cl1 C47 1_555 1_555
Cl2 C47 1_555 1_555
Cl3 C47 1_555 1_555
C4 C5 1_555 1_555
C8 C9 1_555 1_555
C11 C12 1_555 1_555
C17 C18 1_555 1_555
C29 C30 1_555 1_555
C33 C34 1_555 1_555
C43 C44 1_555 1_555
C45 C46 1_555 1_555

#END
