
#######################################################################
#
#                 Cambridge Crystallographic Data Centre
#                                CCDC 
#
#######################################################################
#
# If this CIF has been generated from an entry in the Cambridge 
# Structural Database, then it will include bibliographic, chemical, 
# crystal, experimental, refinement or atomic coordinate data resulting 
# from the CCDC's data processing and validation procedures.
#
#######################################################################

data_VAPTUE
_chemical_formula_moiety         'C20 H19 Cl2 N1 O3'
_chemical_name_systematic        
N-(3,4-dichlorophenyl)-4a-hydroxy-2,3,4,4a-tetrahydro-1H-xanthene-9a(9H)-carboxamide
_symmetry_cell_setting           monoclinic
_symmetry_space_group_name_H-M   'P 21'
_symmetry_Int_Tables_number      4
_space_group_name_Hall           'P 2yb'
loop_
_symmetry_equiv_pos_site_id
_symmetry_equiv_pos_as_xyz
1 x,y,z
2 -x,1/2+y,-z
_cell_length_a                   6.536(2)
_cell_length_b                   18.515(6)
_cell_length_c                   15.857(5)
_cell_angle_alpha                90
_cell_angle_beta                 98.094(4)
_cell_angle_gamma                90
_cell_volume                     1899.8
_exptl_crystal_colour            colorless
_exptl_crystal_description       plate
_cell_formula_units_Z            4
loop_
_atom_site_label
_atom_site_type_symbol
_atom_site_fract_x
_atom_site_fract_y
_atom_site_fract_z
Cl1 Cl 0.7582(2) 0.67500(10) 1.21796(14)
Cl2 Cl 1.2381(2) 0.67712(9) 1.29165(10)
O1 O 0.5378(5) 0.43948(19) 0.9249(2)
H1 H 0.4220 0.4327 0.9376
O2 O 0.5187(5) 0.3386(2) 0.8391(2)
O3 O 1.1801(5) 0.4164(2) 0.9864(2)
N1 N 0.8967(6) 0.4735(3) 1.0188(3)
H2 H 0.7644 0.4758 1.0067
C1 C 0.6313(7) 0.3728(3) 0.9133(3)
C2 C 0.8590(7) 0.3855(3) 0.8995(3)
C3 C 0.8635(8) 0.4333(3) 0.8208(3)
H3 H 0.8294 0.4825 0.8345
H4 H 1.0021 0.4333 0.8055
C4 C 0.7132(7) 0.4074(3) 0.7457(3)
C5 C 0.7357(9) 0.4254(3) 0.6633(3)
H5 H 0.8483 0.4532 0.6534
C6 C 0.5946(9) 0.4030(3) 0.5947(4)
H6 H 0.6119 0.4156 0.5394
C7 C 0.4266(9) 0.3613(3) 0.6101(4)
H7 H 0.3311 0.3458 0.5647
C8 C 0.4002(9) 0.3427(3) 0.6919(4)
H8 H 0.2859 0.3157 0.7017
C9 C 0.5456(8) 0.3645(3) 0.7599(3)
C10 C 0.6121(8) 0.3198(3) 0.9856(4)
H9 H 0.6722 0.3414 1.0392
H10 H 0.4669 0.3110 0.9885
C11 C 0.7185(9) 0.2483(3) 0.9744(4)
H11 H 0.6473 0.2233 0.9250
H12 H 0.7121 0.2181 1.0240
C12 C 0.9441(9) 0.2603(3) 0.9628(4)
H13 H 1.0072 0.2144 0.9521
H14 H 1.0189 0.2806 1.0146
C13 C 0.9595(8) 0.3118(3) 0.8882(3)
H15 H 0.8928 0.2897 0.8359
H16 H 1.1040 0.3190 0.8825
C14 C 0.9917(7) 0.4255(3) 0.9734(3)
C15 C 0.9875(8) 0.5205(3) 1.0837(3)
C16 C 0.8545(8) 0.5693(3) 1.1149(4)
H17 H 0.7152 0.5701 1.0924
C17 C 0.9293(9) 0.6166(3) 1.1791(4)
C18 C 1.1376(9) 0.6170(3) 1.2129(3)
C19 C 1.2667(9) 0.5693(3) 1.1814(4)
H18 H 1.4063 0.5696 1.2034
C20 C 1.1962(8) 0.5198(3) 1.1171(4)
H19 H 1.2866 0.4872 1.0973
Cl3 Cl 0.7144(3) 0.44573(13) 0.24565(14)
Cl4 Cl 0.4240(5) 0.31210(13) 0.20046(16)
O4 O -0.0587(5) 0.5582(2) 0.5496(3)
H20 H -0.1831 0.5644 0.5358
O5 O -0.0299(6) 0.6595(2) 0.6349(2)
O6 O 0.5420(6) 0.5851(3) 0.4943(3)
N2 N 0.2494(7) 0.5204(3) 0.4663(3)
H21 H 0.1260 0.5165 0.4787
C21 C 0.0400(7) 0.6254(3) 0.5634(3)
C22 C 0.2788(7) 0.6120(3) 0.5818(3)
C23 C 0.3238(8) 0.5628(3) 0.6608(4)
H22 H 0.2820 0.5138 0.6452
H23 H 0.4713 0.5625 0.6804
C24 C 0.2122(8) 0.5878(3) 0.7315(3)
C25 C 0.2763(10) 0.5673(3) 0.8164(4)
H24 H 0.3943 0.5392 0.8294
C26 C 0.1684(11) 0.5880(3) 0.8803(4)
H25 H 0.2140 0.5741 0.9361
C27 C -0.0095(11) 0.6299(4) 0.8619(4)
H26 H -0.0848 0.6431 0.9050
C28 C -0.0733(10) 0.6516(3) 0.7785(4)
H27 H -0.1907 0.6802 0.7659
C29 C 0.0346(8) 0.6313(3) 0.7153(4)
C30 C -0.0164(8) 0.6788(3) 0.4905(4)
H28 H 0.0156 0.6574 0.4381
H29 H -0.1641 0.6878 0.4837
C31 C 0.0961(10) 0.7496(4) 0.5048(4)
H30 H 0.0468 0.7750 0.5516
H31 H 0.0660 0.7792 0.4542
C32 C 0.3321(10) 0.7387(4) 0.5256(4)
H32 H 0.3852 0.7214 0.4751
H33 H 0.3975 0.7847 0.5415
C33 C 0.3871(8) 0.6847(3) 0.5980(4)
H34 H 0.5354 0.6770 0.6064
H35 H 0.3502 0.7052 0.6501
C34 C 0.3659(8) 0.5724(3) 0.5087(4)
C35 C 0.3010(9) 0.4715(4) 0.4044(4)
C36 C 0.4717(10) 0.4805(4) 0.3620(4)
H36 H 0.5606 0.5195 0.3744
C37 C 0.5076(10) 0.4290(4) 0.2994(4)
C38 C 0.3797(13) 0.3718(4) 0.2795(5)
C39 C 0.2105(13) 0.3625(5) 0.3213(5)
H37 H 0.1213 0.3238 0.3076
C40 C 0.1741(11) 0.4113(4) 0.3837(5)
H38 H 0.0620 0.4038 0.4129
loop_
_geom_bond_atom_site_label_1
_geom_bond_atom_site_label_2
_geom_bond_site_symmetry_1
_geom_bond_site_symmetry_2
Cl1 C17 1_555 1_555
Cl2 C18 1_555 1_555
O1 H1 1_555 1_555
O2 C1 1_555 1_555
O3 C14 1_555 1_555
N1 H2 1_555 1_555
C1 O1 1_555 1_555
C2 C1 1_555 1_555
C3 C2 1_555 1_555
H3 C3 1_555 1_555
H4 C3 1_555 1_555
C4 C3 1_555 1_555
C5 C4 1_555 1_555
H5 C5 1_555 1_555
C6 C5 1_555 1_555
H6 C6 1_555 1_555
C7 C6 1_555 1_555
H7 C7 1_555 1_555
C8 C7 1_555 1_555
H8 C8 1_555 1_555
C9 O2 1_555 1_555
C10 C1 1_555 1_555
H9 C10 1_555 1_555
H10 C10 1_555 1_555
C11 C10 1_555 1_555
H11 C11 1_555 1_555
H12 C11 1_555 1_555
C12 C11 1_555 1_555
H13 C12 1_555 1_555
H14 C12 1_555 1_555
C13 C2 1_555 1_555
H15 C13 1_555 1_555
H16 C13 1_555 1_555
C14 N1 1_555 1_555
C15 N1 1_555 1_555
C16 C15 1_555 1_555
H17 C16 1_555 1_555
C17 C16 1_555 1_555
C18 C17 1_555 1_555
C19 C18 1_555 1_555
H18 C19 1_555 1_555
C20 C15 1_555 1_555
H19 C20 1_555 1_555
Cl3 C37 1_555 1_555
Cl4 C38 1_555 1_555
O4 H20 1_555 1_555
O5 C21 1_555 1_555
O6 C34 1_555 1_555
N2 H21 1_555 1_555
C21 O4 1_555 1_555
C22 C21 1_555 1_555
C23 C22 1_555 1_555
H22 C23 1_555 1_555
H23 C23 1_555 1_555
C24 C23 1_555 1_555
C25 C24 1_555 1_555
H24 C25 1_555 1_555
C26 C25 1_555 1_555
H25 C26 1_555 1_555
C27 C26 1_555 1_555
H26 C27 1_555 1_555
C28 C27 1_555 1_555
H27 C28 1_555 1_555
C29 O5 1_555 1_555
C30 C21 1_555 1_555
H28 C30 1_555 1_555
H29 C30 1_555 1_555
C31 C30 1_555 1_555
H30 C31 1_555 1_555
H31 C31 1_555 1_555
C32 C31 1_555 1_555
H32 C32 1_555 1_555
H33 C32 1_555 1_555
C33 C22 1_555 1_555
H34 C33 1_555 1_555
H35 C33 1_555 1_555
C34 N2 1_555 1_555
C35 N2 1_555 1_555
C36 C35 1_555 1_555
H36 C36 1_555 1_555
C37 C36 1_555 1_555
C38 C37 1_555 1_555
C39 C38 1_555 1_555
H37 C39 1_555 1_555
C40 C35 1_555 1_555
H38 C40 1_555 1_555
C2 C14 1_555 1_555
C4 C9 1_555 1_555
C8 C9 1_555 1_555
C12 C13 1_555 1_555
C19 C20 1_555 1_555
C22 C34 1_555 1_555
C24 C29 1_555 1_555
C28 C29 1_555 1_555
C32 C33 1_555 1_555
C39 C40 1_555 1_555

#END
