
#######################################################################
#
#                 Cambridge Crystallographic Data Centre
#                                CCDC 
#
#######################################################################
#
# If this CIF has been generated from an entry in the Cambridge 
# Structural Database, then it will include bibliographic, chemical, 
# crystal, experimental, refinement or atomic coordinate data resulting 
# from the CCDC's data processing and validation procedures.
#
#######################################################################

data_VAPWER
_chemical_formula_moiety         'C32 H33 N1 O6'
_chemical_name_systematic        
'diethyl 1,3-dioxo-2-phenyl-1,2,3,3a,3b,4,6,6a,7,11b,13,13a-dodecahydro-5H-benzo[2,3]azuleno[5,4-e]isoindole-5,5-dicarboxylate'
_symmetry_cell_setting           triclinic
_symmetry_space_group_name_H-M   'P -1'
_symmetry_Int_Tables_number      2
_space_group_name_Hall           '-P 1'
loop_
_symmetry_equiv_pos_site_id
_symmetry_equiv_pos_as_xyz
1 x,y,z
2 -x,-y,-z
_cell_length_a                   10.101(3)
_cell_length_b                   12.346(3)
_cell_length_c                   12.412(3)
_cell_angle_alpha                113.929(4)
_cell_angle_beta                 104.294(6)
_cell_angle_gamma                92.608(4)
_cell_volume                     1352.36
_exptl_crystal_colour            colorless
_exptl_crystal_description       Prism
_cell_formula_units_Z            2
loop_
_atom_site_label
_atom_site_type_symbol
_atom_site_fract_x
_atom_site_fract_y
_atom_site_fract_z
O1 O -0.00531(9) 0.16225(8) 0.23607(8)
O2 O 0.39429(8) 0.38941(7) 0.28856(7)
O3 O 0.84405(9) 0.48230(7) 0.55138(8)
O4 O 0.96754(8) 0.37952(7) 0.64074(8)
O5 O 0.75751(10) 0.16160(7) 0.62808(8)
O6 O 0.68853(9) 0.33994(7) 0.70920(7)
N1 N 0.18333(10) 0.27342(8) 0.23552(8)
C1 C 0.48388(12) -0.03007(10) 0.14922(10)
C2 C 0.35898(13) -0.07172(11) 0.05706(11)
H1 H 0.2842 -0.0281 0.0653
C3 C 0.34370(14) -0.17820(11) -0.04798(11)
H2 H 0.2578 -0.2080 -0.1110
C4 C 0.45407(14) -0.24063(11) -0.06053(11)
H3 H 0.4432 -0.3130 -0.1324
C5 C 0.57952(13) -0.19853(10) 0.03057(11)
H4 H 0.6549 -0.2413 0.0212
C6 C 0.59457(12) -0.09291(10) 0.13624(11)
C7 C 0.72222(13) -0.02584(10) 0.24158(11)
H5 H 0.7890 0.0123 0.2157
H6 H 0.7678 -0.0803 0.2739
C8 C 0.66872(12) 0.07026(10) 0.33965(10)
H7 H 0.6493 0.0367 0.3962
C9 C 0.52918(12) 0.08691(9) 0.26564(10)
H8 H 0.5495 0.1525 0.2414
C10 C 0.43034(12) 0.12473(9) 0.34204(10)
C11 C 0.31394(12) 0.05841(10) 0.32723(10)
H9 H 0.2874 -0.0221 0.2656
C12 C 0.22513(12) 0.11354(10) 0.41012(11)
H10 H 0.2712 0.1236 0.4946
H11 H 0.1347 0.0605 0.3794
C13 C 0.20316(12) 0.23718(10) 0.41133(10)
H12 H 0.1590 0.2818 0.4768
C14 C 0.33846(11) 0.31421(9) 0.43005(10)
H13 H 0.3532 0.3933 0.5031
C15 C 0.46540(11) 0.25007(9) 0.44798(10)
H14 H 0.4727 0.2389 0.5246
C16 C 0.60008(11) 0.32905(9) 0.47176(10)
H15 H 0.6001 0.4112 0.5329
H16 H 0.6006 0.3339 0.3942
C17 C 0.73528(11) 0.28746(9) 0.51873(10)
C18 C 0.77591(12) 0.18476(10) 0.41610(10)
H17 H 0.7972 0.2161 0.3594
H18 H 0.8622 0.1630 0.4547
C19 C 0.11108(12) 0.21776(10) 0.28662(11)
C20 C 0.31507(11) 0.33332(9) 0.31378(10)
C21 C 0.12860(11) 0.26802(10) 0.11527(10)
C22 C 0.13074(13) 0.37268(11) 0.09927(11)
H19 H 0.1654 0.4486 0.1680
C23 C 0.08144(14) 0.36490(12) -0.01873(12)
H20 H 0.0842 0.4361 -0.0308
C24 C 0.02830(13) 0.25495(13) -0.11904(11)
H21 H -0.0057 0.2507 -0.1994
C25 C 0.02501(13) 0.15107(12) -0.10164(11)
H22 H -0.0126 0.0755 -0.1701
C26 C 0.07655(12) 0.15711(11) 0.01546(11)
H23 H 0.0762 0.0857 0.0272
C27 C 0.85230(12) 0.39503(10) 0.57126(10)
C28 C 1.08594(13) 0.47518(11) 0.68837(12)
H24 H 1.0680 0.5500 0.7498
H25 H 1.1026 0.4913 0.6205
C29 C 1.20979(14) 0.43432(13) 0.74718(13)
H26 H 1.1945 0.4235 0.8174
H27 H 1.2922 0.4949 0.7757
H28 H 1.2235 0.3579 0.6868
C30 C 0.72996(11) 0.25304(10) 0.62304(10)
C31 C 0.66661(14) 0.31636(12) 0.81018(12)
H29 H 0.7566 0.3256 0.8701
H30 H 0.6173 0.2335 0.7783
C32 C 0.58191(15) 0.40526(14) 0.87054(14)
H31 H 0.6292 0.4869 0.8971
H32 H 0.5701 0.3955 0.9423
H33 H 0.4909 0.3918 0.8118
loop_
_geom_bond_atom_site_label_1
_geom_bond_atom_site_label_2
_geom_bond_site_symmetry_1
_geom_bond_site_symmetry_2
O1 C19 1_555 1_555
O2 C20 1_555 1_555
O3 C27 1_555 1_555
O4 C27 1_555 1_555
O5 C30 1_555 1_555
O6 C30 1_555 1_555
N1 C19 1_555 1_555
C1 C2 1_555 1_555
C2 H1 1_555 1_555
C3 C2 1_555 1_555
H2 C3 1_555 1_555
C4 C3 1_555 1_555
H3 C4 1_555 1_555
C5 C4 1_555 1_555
H4 C5 1_555 1_555
C6 C1 1_555 1_555
C7 C6 1_555 1_555
H5 C7 1_555 1_555
H6 C7 1_555 1_555
C8 C7 1_555 1_555
H7 C8 1_555 1_555
C9 C1 1_555 1_555
H8 C9 1_555 1_555
C10 C9 1_555 1_555
C11 C10 1_555 1_555
H9 C11 1_555 1_555
C12 C11 1_555 1_555
H10 C12 1_555 1_555
H11 C12 1_555 1_555
C13 C12 1_555 1_555
H12 C13 1_555 1_555
C14 C13 1_555 1_555
H13 C14 1_555 1_555
C15 C10 1_555 1_555
H14 C15 1_555 1_555
C16 C15 1_555 1_555
H15 C16 1_555 1_555
H16 C16 1_555 1_555
C17 C16 1_555 1_555
C18 C8 1_555 1_555
H17 C18 1_555 1_555
H18 C18 1_555 1_555
C19 C13 1_555 1_555
C20 N1 1_555 1_555
C21 N1 1_555 1_555
C22 C21 1_555 1_555
H19 C22 1_555 1_555
C23 C22 1_555 1_555
H20 C23 1_555 1_555
C24 C23 1_555 1_555
H21 C24 1_555 1_555
C25 C24 1_555 1_555
H22 C25 1_555 1_555
C26 C21 1_555 1_555
H23 C26 1_555 1_555
C27 C17 1_555 1_555
C28 O4 1_555 1_555
H24 C28 1_555 1_555
H25 C28 1_555 1_555
C29 C28 1_555 1_555
H26 C29 1_555 1_555
H27 C29 1_555 1_555
H28 C29 1_555 1_555
C30 C17 1_555 1_555
C31 O6 1_555 1_555
H29 C31 1_555 1_555
H30 C31 1_555 1_555
C32 C31 1_555 1_555
H31 C32 1_555 1_555
H32 C32 1_555 1_555
H33 C32 1_555 1_555
C5 C6 1_555 1_555
C8 C9 1_555 1_555
C14 C15 1_555 1_555
C14 C20 1_555 1_555
C17 C18 1_555 1_555
C25 C26 1_555 1_555

#END
