
#######################################################################
#
#                 Cambridge Crystallographic Data Centre
#                                CCDC 
#
#######################################################################
#
# If this CIF has been generated from an entry in the Cambridge 
# Structural Database, then it will include bibliographic, chemical, 
# crystal, experimental, refinement or atomic coordinate data resulting 
# from the CCDC's data processing and validation procedures.
#
#######################################################################

data_VAPXER
_chemical_formula_moiety         'C19 H23 N4 1+,Cl1 1-'
_chemical_name_systematic        
'3-(2,6-Diisopropylphenyl)-1-(pyrimidin-2-yl)imidazolium chloride'
_symmetry_cell_setting           orthorhombic
_symmetry_space_group_name_H-M   'P n a 21'
_symmetry_Int_Tables_number      33
_space_group_name_Hall           'P 2c -2n'
loop_
_symmetry_equiv_pos_site_id
_symmetry_equiv_pos_as_xyz
1 x,y,z
2 -x,-y,1/2+z
3 1/2-x,1/2+y,1/2+z
4 1/2+x,1/2-y,z
_cell_length_a                   16.2690(4)
_cell_length_b                   11.9770(14)
_cell_length_c                   9.8280(11)
_cell_angle_alpha                90
_cell_angle_beta                 90
_cell_angle_gamma                90
_cell_volume                     1915.02
_exptl_crystal_colour            orange
_chemical_melting_point          '579 K'
_cell_formula_units_Z            4
loop_
_atom_site_label
_atom_site_type_symbol
_atom_site_fract_x
_atom_site_fract_y
_atom_site_fract_z
Cl1 Cl 0.36532(3) 0.39268(4) 0.27347(5)
N1 N 0.43581(11) 0.34061(15) 0.66706(18)
N2 N 0.33678(9) 0.20176(12) 0.64887(15)
N3 N 0.28173(9) 0.12505(12) 0.47293(17)
C1 C 0.38554(12) 0.27431(16) 0.73223(18)
C2 C 0.25877(12) 0.09698(15) 0.3343(2)
C3 C 0.28471(14) 0.11917(17) 0.6964(2)
H1 H 0.2750 0.1002 0.7888
C4 C 0.33353(11) 0.20412(14) 0.51218(17)
H2 H 0.3630 0.2535 0.4543
C5 C 0.30043(12) 0.01080(17) 0.2705(3)
N4 N 0.37302(13) 0.2626(2) 0.8633(2)
C6 C 0.47364(19) 0.4069(2) 0.8854(3)
H3 H 0.5052 0.4559 0.9405
C7 C 0.41967(18) 0.3333(3) 0.9408(3)
H4 H 0.4141 0.3307 1.0370
C8 C 0.19317(12) 0.15503(16) 0.2778(3)
C9 C 0.48052(16) 0.40731(18) 0.7473(2)
H5 H 0.5187 0.4570 0.7063
C10 C 0.16847(19) 0.1200(2) 0.1485(3)
H6 H 0.1234 0.1562 0.1057
C11 C 0.27263(19) -0.0192(3) 0.1416(3)
H7 H 0.2993 -0.0780 0.0940
C12 C 0.15060(15) 0.25025(19) 0.3501(3)
H8 H 0.1897 0.2785 0.4206
C13 C 0.37252(16) -0.0484(2) 0.3348(4)
H9 H 0.3789 -0.0192 0.4296
C14 C 0.2076(2) 0.0347(3) 0.0821(3)
H10 H 0.1894 0.0127 -0.0058
C15 C 0.13342(19) 0.3463(3) 0.2548(6)
H11 H 0.1190 0.4127 0.3079
H12 H 0.0876 0.3267 0.1946
H13 H 0.1825 0.3617 0.2002
C16 C 0.3601(2) -0.1731(3) 0.3437(5)
H14 H 0.3102 -0.1891 0.3959
H15 H 0.4076 -0.2072 0.3890
H16 H 0.3546 -0.2040 0.2518
C17 C 0.0763(2) 0.2133(3) 0.4226(4)
H17 H 0.0905 0.1527 0.4853
H18 H 0.0356 0.1866 0.3567
H19 H 0.0533 0.2760 0.4741
C18 C 0.25084(13) 0.07144(16) 0.5878(2)
H20 H 0.2125 0.0116 0.5885
C19 C 0.45086(19) -0.0229(4) 0.2582(9)
H21 H 0.4952 -0.0710 0.2917
H22 H 0.4659 0.0555 0.2723
H23 H 0.4424 -0.0365 0.1609
loop_
_geom_bond_atom_site_label_1
_geom_bond_atom_site_label_2
_geom_bond_site_symmetry_1
_geom_bond_site_symmetry_2
N1 C1 1_555 1_555
N2 C1 1_555 1_555
N3 C2 1_555 1_555
C1 N4 1_555 1_555
C2 C5 1_555 1_555
C3 N2 1_555 1_555
H1 C3 1_555 1_555
C4 N2 1_555 1_555
H2 C4 1_555 1_555
C5 C11 1_555 1_555
N4 C7 1_555 1_555
C6 H3 1_555 1_555
C7 C6 1_555 1_555
H4 C7 1_555 1_555
C8 C2 1_555 1_555
C9 N1 1_555 1_555
H5 C9 1_555 1_555
C10 C8 1_555 1_555
H6 C10 1_555 1_555
C11 H7 1_555 1_555
C12 C8 1_555 1_555
H8 C12 1_555 1_555
C13 C5 1_555 1_555
H9 C13 1_555 1_555
C14 C10 1_555 1_555
H10 C14 1_555 1_555
C15 C12 1_555 1_555
H11 C15 1_555 1_555
H12 C15 1_555 1_555
H13 C15 1_555 1_555
C16 C13 1_555 1_555
H14 C16 1_555 1_555
H15 C16 1_555 1_555
H16 C16 1_555 1_555
C17 C12 1_555 1_555
H17 C17 1_555 1_555
H18 C17 1_555 1_555
H19 C17 1_555 1_555
C18 N3 1_555 1_555
H20 C18 1_555 1_555
C19 C13 1_555 1_555
H21 C19 1_555 1_555
H22 C19 1_555 1_555
H23 C19 1_555 1_555
N3 C4 1_555 1_555
C3 C18 1_555 1_555
C6 C9 1_555 1_555
C11 C14 1_555 1_555

#END
