
#######################################################################
#
#                 Cambridge Crystallographic Data Centre
#                                CCDC 
#
#######################################################################
#
# If this CIF has been generated from an entry in the Cambridge 
# Structural Database, then it will include bibliographic, chemical, 
# crystal, experimental, refinement or atomic coordinate data resulting 
# from the CCDC's data processing and validation procedures.
#
#######################################################################

data_VAQJEF
_chemical_formula_moiety         'C21 H17 N2 1+,N1 O3 1-'
_chemical_name_systematic        
'1-benzyl-4-(2-cyano-2-phenylvinyl)pyridinium nitrate'
_symmetry_cell_setting           monoclinic
_symmetry_space_group_name_H-M   'P 21/c'
_symmetry_Int_Tables_number      14
_space_group_name_Hall           '-P 2ybc'
loop_
_symmetry_equiv_pos_site_id
_symmetry_equiv_pos_as_xyz
1 x,y,z
2 -x,1/2+y,1/2-z
3 -x,-y,-z
4 x,1/2-y,1/2+z
_cell_length_a                   8.8381(17)
_cell_length_b                   9.5668(19)
_cell_length_c                   22.090(4)
_cell_angle_alpha                90
_cell_angle_beta                 93.778(2)
_cell_angle_gamma                90
_cell_volume                     1863.7
_exptl_crystal_colour            yellow
_exptl_crystal_description       Cubic
_cell_formula_units_Z            4
loop_
_atom_site_label
_atom_site_type_symbol
_atom_site_fract_x
_atom_site_fract_y
_atom_site_fract_z
C1 C 0.5073(2) 0.3031(2) 0.40763(11)
C2 C 0.7042(2) 0.3749(2) 0.49006(10)
C3 C 0.7925(3) 0.4855(2) 0.52390(11)
C4 C 0.5966(3) 0.4010(2) 0.44598(11)
H1 H 0.5757 0.4950 0.4388
C5 C 0.0870(3) 0.0398(2) 0.29310(11)
C6 C 0.7455(3) 0.2328(3) 0.50573(11)
C7 C 0.3958(3) 0.0812(3) 0.38186(13)
H2 H 0.3778 -0.0113 0.3922
C8 C 0.4767(3) 0.1647(3) 0.42205(13)
H3 H 0.5119 0.1290 0.4595
C9 C 0.8797(3) 0.7221(3) 0.53464(16)
H4 H 0.8810 0.8131 0.5199
C10 C 0.7973(3) 0.6209(3) 0.50221(13)
H5 H 0.7449 0.6440 0.4657
C11 C 0.2548(3) 0.0341(3) 0.28497(14)
H6 H 0.2903 -0.0611 0.2911
H7 H 0.2732 0.0612 0.2438
C12 C 0.4438(3) 0.3489(3) 0.35248(13)
H8 H 0.4564 0.4418 0.3414
C13 C 0.3633(4) 0.2616(3) 0.31399(14)
H9 H 0.3224 0.2955 0.2770
C14 C 0.8729(4) 0.4559(3) 0.57776(13)
H10 H 0.8719 0.3656 0.5933
C15 C 0.9584(4) 0.6909(4) 0.58749(15)
H11 H 1.0141 0.7596 0.6088
C16 C -0.0042(4) 0.1237(3) 0.25678(15)
H12 H 0.0384 0.1787 0.2276
C17 C 0.0245(4) -0.0405(3) 0.33644(14)
H13 H 0.0856 -0.0981 0.3616
C18 C -0.1307(5) -0.0349(5) 0.3425(2)
H14 H -0.1746 -0.0877 0.3720
C19 C 0.9550(4) 0.5585(4) 0.60908(15)
H15 H 1.0088 0.5365 0.6455
C20 C -0.2190(4) 0.0499(6) 0.3041(3)
H16 H -0.3234 0.0527 0.3072
C21 C -0.1553(5) 0.1284(5) 0.2623(3)
H17 H -0.2157 0.1865 0.2371
N1 N 0.3422(2) 0.1287(2) 0.32847(10)
N2 N 0.7814(3) 0.1215(2) 0.51802(12)
N3 N 0.5430(3) 0.7281(2) 0.35106(14)
O1 O 0.6552(3) 0.6559(3) 0.34726(11)
O2 O 0.4933(5) 0.7526(4) 0.39724(18)
O3 O 0.4867(4) 0.7790(5) 0.30585(18)
loop_
_geom_bond_atom_site_label_1
_geom_bond_atom_site_label_2
_geom_bond_site_symmetry_1
_geom_bond_site_symmetry_2
C1 C4 1_555 1_555
C2 C3 1_555 1_555
C3 C10 1_555 1_555
C4 C2 1_555 1_555
H1 C4 1_555 1_555
C5 C11 1_555 1_555
C6 C2 1_555 1_555
C7 H2 1_555 1_555
C8 C1 1_555 1_555
H3 C8 1_555 1_555
C9 H4 1_555 1_555
C10 C9 1_555 1_555
H5 C10 1_555 1_555
C11 H6 1_555 1_555
H7 C11 1_555 1_555
C12 C1 1_555 1_555
H8 C12 1_555 1_555
C13 C12 1_555 1_555
H9 C13 1_555 1_555
C14 C3 1_555 1_555
H10 C14 1_555 1_555
C15 C9 1_555 1_555
H11 C15 1_555 1_555
C16 C5 1_555 1_555
H12 C16 1_555 1_555
C17 C5 1_555 1_555
H13 C17 1_555 1_555
C18 C17 1_555 1_555
H14 C18 1_555 1_555
C19 C14 1_555 1_555
H15 C19 1_555 1_555
C20 C18 1_555 1_555
H16 C20 1_555 1_555
C21 C16 1_555 1_555
H17 C21 1_555 1_555
N1 C7 1_555 1_555
N2 C6 1_555 1_555
N3 O1 1_555 1_555
O2 N3 1_555 1_555
O3 N3 1_555 1_555
C7 C8 1_555 1_555
C11 N1 1_555 1_555
C13 N1 1_555 1_555
C15 C19 1_555 1_555
C20 C21 1_555 1_555

#END
