
#######################################################################
#
#                 Cambridge Crystallographic Data Centre
#                                CCDC 
#
#######################################################################
#
# If this CIF has been generated from an entry in the Cambridge 
# Structural Database, then it will include bibliographic, chemical, 
# crystal, experimental, refinement or atomic coordinate data resulting 
# from the CCDC's data processing and validation procedures.
#
#######################################################################

data_VAQJUV
_chemical_formula_moiety         'C21 H17 N2 1+,C7 H7 O3 S1 1-'
_chemical_name_systematic        
'1-benzyl-4-(2-cyano-2-phenylvinyl)pyridinium 4-methylbenzenesulfonate'
_symmetry_cell_setting           monoclinic
_symmetry_space_group_name_H-M   'P 21/c'
_symmetry_Int_Tables_number      14
_space_group_name_Hall           '-P 2ybc'
loop_
_symmetry_equiv_pos_site_id
_symmetry_equiv_pos_as_xyz
1 x,y,z
2 -x,1/2+y,1/2-z
3 -x,-y,-z
4 x,1/2-y,1/2+z
_cell_length_a                   11.344(5)
_cell_length_b                   23.131(5)
_cell_length_c                   10.419(5)
_cell_angle_alpha                90
_cell_angle_beta                 114.529(5)
_cell_angle_gamma                90
_cell_volume                     2487.19
_exptl_crystal_colour            yellow
_exptl_crystal_description       Cubic
_cell_formula_units_Z            4
loop_
_atom_site_label
_atom_site_type_symbol
_atom_site_fract_x
_atom_site_fract_y
_atom_site_fract_z
S1 S 0.05239(6) 0.84455(3) 0.25212(6)
O1 O -0.07030(15) 0.82519(7) 0.24923(16)
O2 O 0.04289(18) 0.89959(8) 0.18321(17)
O3 O 0.11199(18) 0.80012(9) 0.20196(19)
C1 C 0.1548(2) 0.85631(9) 0.4320(2)
C2 C 0.1768(2) 0.81268(11) 0.5305(3)
H1 H 0.1404 0.7763 0.5014
C3 C 0.3088(3) 0.87591(14) 0.7176(3)
C4 C 0.2117(3) 0.90926(11) 0.4781(3)
H2 H 0.1980 0.9390 0.4134
C5 C 0.2522(3) 0.82285(13) 0.6709(3)
H3 H 0.2652 0.7933 0.7358
C6 C 0.2888(3) 0.91880(13) 0.6188(3)
H4 H 0.3279 0.9547 0.6476
C7 C 0.3889(3) 0.88743(17) 0.8727(3)
H5 H 0.3408 0.8761 0.9257
H6 H 0.4090 0.9279 0.8867
H7 H 0.4679 0.8656 0.9041
N1 N 0.91646(17) 0.83187(8) 0.61174(18)
C8 C 1.1647(2) 1.00192(9) 0.9422(2)
C9 C 1.0336(2) 0.91382(9) 0.8184(2)
C10 C 1.0980(2) 0.95334(10) 0.9357(2)
H8 H 1.0919 0.9433 1.0192
C11 C 1.0171(2) 0.85693(10) 0.8517(2)
H9 H 1.0451 0.8461 0.9457
C12 C 1.2337(2) 1.03456(10) 1.0746(2)
C13 C 0.8491(2) 0.78810(10) 0.5000(2)
H10 H 0.8755 0.7496 0.5378
H11 H 0.8738 0.7935 0.4221
C14 C 0.7053(2) 0.79370(10) 0.4476(2)
C15 C 1.1784(2) 1.02391(9) 0.8196(3)
C16 C 0.9286(2) 0.88604(11) 0.5760(2)
H12 H 0.8970 0.8959 0.4810
C17 C 0.9604(2) 0.81695(10) 0.7479(2)
H13 H 0.9521 0.7789 0.7719
C18 C 0.9860(2) 0.92722(11) 0.6751(2)
H14 H 0.9938 0.9647 0.6473
N2 N 1.1950(3) 1.04142(10) 0.7270(2)
C19 C 1.2579(2) 1.09337(10) 1.0721(3)
H15 H 1.2313 1.1126 0.9863
C20 C 0.6422(3) 0.76417(13) 0.5161(3)
H16 H 0.6880 0.7398 0.5913
C21 C 1.3213(3) 1.12324(12) 1.1965(3)
H17 H 1.3363 1.1627 1.1940
C22 C 0.6378(3) 0.82919(14) 0.3353(3)
H18 H 0.6804 0.8488 0.2889
C23 C 1.2759(3) 1.00717(12) 1.2038(3)
H19 H 1.2612 0.9678 1.2077
C24 C 1.3396(3) 1.03773(14) 1.3271(3)
H20 H 1.3672 1.0189 1.4135
C25 C 1.3624(3) 1.09563(14) 1.3230(3)
H21 H 1.4057 1.1161 1.4064
C26 C 0.4436(4) 0.8059(3) 0.3633(7)
H22 H 0.3549 0.8101 0.3356
C27 C 0.5049(4) 0.8354(2) 0.2919(4)
H23 H 0.4574 0.8591 0.2158
C28 C 0.5124(5) 0.7713(2) 0.4722(6)
H24 H 0.4701 0.7516 0.5187
loop_
_geom_bond_atom_site_label_1
_geom_bond_atom_site_label_2
_geom_bond_site_symmetry_1
_geom_bond_site_symmetry_2
S1 O1 1_555 1_555
O2 S1 1_555 1_555
O3 S1 1_555 1_555
C1 S1 1_555 1_555
C2 C1 1_555 1_555
H1 C2 1_555 1_555
C3 C5 1_555 1_555
C4 C1 1_555 1_555
H2 C4 1_555 1_555
C5 C2 1_555 1_555
H3 C5 1_555 1_555
C6 C3 1_555 1_555
H4 C6 1_555 1_555
C7 C3 1_555 1_555
H5 C7 1_555 1_555
H6 C7 1_555 1_555
H7 C7 1_555 1_555
N1 C13 1_555 1_555
C8 C10 1_555 1_555
C9 C10 1_555 1_555
C10 H8 1_555 1_555
C11 C9 1_555 1_555
H9 C11 1_555 1_555
C12 C8 1_555 1_555
C13 H10 1_555 1_555
H11 C13 1_555 1_555
C14 C13 1_555 1_555
C15 C8 1_555 1_555
C16 N1 1_555 1_555
H12 C16 1_555 1_555
C17 N1 1_555 1_555
H13 C17 1_555 1_555
C18 C9 1_555 1_555
H14 C18 1_555 1_555
N2 C15 1_555 1_555
C19 C12 1_555 1_555
H15 C19 1_555 1_555
C20 C14 1_555 1_555
H16 C20 1_555 1_555
C21 C19 1_555 1_555
H17 C21 1_555 1_555
C22 C14 1_555 1_555
H18 C22 1_555 1_555
C23 C12 1_555 1_555
H19 C23 1_555 1_555
C24 C23 1_555 1_555
H20 C24 1_555 1_555
C25 C21 1_555 1_555
H21 C25 1_555 1_555
C26 H22 1_555 1_555
C27 C22 1_555 1_555
H23 C27 1_555 1_555
C28 C20 1_555 1_555
H24 C28 1_555 1_555
C4 C6 1_555 1_555
C11 C17 1_555 1_555
C16 C18 1_555 1_555
C24 C25 1_555 1_555
C26 C27 1_555 1_555
C26 C28 1_555 1_555

#END
