
#######################################################################
#
#                 Cambridge Crystallographic Data Centre
#                                CCDC 
#
#######################################################################
#
# If this CIF has been generated from an entry in the Cambridge 
# Structural Database, then it will include bibliographic, chemical, 
# crystal, experimental, refinement or atomic coordinate data resulting 
# from the CCDC's data processing and validation procedures.
#
#######################################################################

data_VAQKUV
_chemical_name_common            'dibenzo-24-crown-8 iodine'
_chemical_formula_moiety         'C24 H32 O8,I2'
_chemical_name_systematic        
'6,7,9,10,12,13,20,21,23,24,26,27-Dodecahydrodibenzo[b,n][1,4,7,10,13,16,19,22]octaoxacyclotetracosine iodine'
_symmetry_cell_setting           triclinic
_symmetry_space_group_name_H-M   'P -1'
_symmetry_Int_Tables_number      2
_space_group_name_Hall           '-P 1'
loop_
_symmetry_equiv_pos_site_id
_symmetry_equiv_pos_as_xyz
1 x,y,z
2 -x,-y,-z
_cell_length_a                   4.8499(11)
_cell_length_b                   12.037(3)
_cell_length_c                   12.804(2)
_cell_angle_alpha                64.561(15)
_cell_angle_beta                 86.815(17)
_cell_angle_gamma                83.893(17)
_cell_volume                     671.131
_exptl_crystal_colour            red
_exptl_crystal_description       column
_cell_formula_units_Z            1
loop_
_atom_site_label
_atom_site_type_symbol
_atom_site_fract_x
_atom_site_fract_y
_atom_site_fract_z
I1 I 0.95821(7) -0.52957(3) 1.41265(2)
I1A I 1.04179(7) -0.47043(3) 1.58735(2)
O1 O 0.8827(6) -0.6376(2) 1.2515(2)
O2 O 0.7483(5) -0.8678(2) 1.23802(19)
O3 O 0.5675(5) -0.1379(2) 0.92057(19)
O4 O 0.7943(6) -0.3747(2) 1.0986(2)
C1 C 0.3984(7) -0.0309(3) 0.7313(3)
C2 C 0.5698(7) -0.0343(3) 0.8169(3)
C3 C 0.9112(8) -0.8624(3) 1.3249(3)
H1 H 1.0459 -0.9340 1.3549
H2 H 0.7931 -0.8617 1.3884
C4 C 1.0563(8) -0.7466(4) 1.2711(4)
H3 H 1.2065 -0.7532 1.3210
H4 H 1.1375 -0.7397 1.1978
C5 C 0.7276(8) 0.0632(3) 0.7937(3)
H5 H 0.8447 0.0612 0.8497
C6 C 0.5410(8) 0.1690(3) 0.6038(3)
H6 H 0.5286 0.2379 0.5328
C7 C 0.3846(8) 0.0705(3) 0.6252(3)
H7 H 0.2708 0.0731 0.5680
C8 C 0.7102(9) 0.1643(3) 0.6858(3)
H8 H 0.8170 0.2295 0.6703
C9 C 0.7368(9) -0.5836(3) 1.1469(3)
H9 H 0.5992 -0.6369 1.1478
H10 H 0.8640 -0.5733 1.0828
C10 C 0.5985(9) -0.4615(4) 1.1316(4)
H11 H 0.4572 -0.4345 1.0729
H12 H 0.5091 -0.4684 1.2036
C11 C 0.7047(11) -0.2659(3) 1.1126(3)
H13 H 0.8003 -0.2662 1.1772
H14 H 0.5074 -0.2643 1.1298
C12 C 0.7610(9) -0.1530(3) 1.0057(3)
H15 H 0.7422 -0.0812 1.0224
H16 H 0.9485 -0.1621 0.9780
O1A O 0.1173(6) -0.3624(2) 0.7485(2)
O2A O 0.2517(5) -0.1322(2) 0.76198(19)
O3A O 0.4325(5) -0.8621(2) 1.07943(19)
O4A O 0.2057(6) -0.6253(2) 0.9014(2)
C1A C 0.6016(7) -0.9691(3) 1.2687(3)
C2A C 0.4302(7) -0.9657(3) 1.1831(3)
C3A C 0.0888(8) -0.1376(3) 0.6751(3)
H1A H -0.0459 -0.0660 0.6451
H2A H 0.2069 -0.1383 0.6116
C4A C -0.0563(8) -0.2534(4) 0.7289(4)
H3A H -0.2065 -0.2468 0.6790
H4A H -0.1375 -0.2603 0.8022
C5A C 0.2724(8) -1.0632(3) 1.2063(3)
H5A H 0.1553 -1.0612 1.1503
C6A C 0.4590(8) -1.1690(3) 1.3962(3)
H6A H 0.4714 -1.2379 1.4672
C7A C 0.6154(8) -1.0705(3) 1.3748(3)
H7A H 0.7292 -1.0731 1.4320
C8A C 0.2898(9) -1.1643(3) 1.3142(3)
H8A H 0.1830 -1.2295 1.3297
C9A C 0.2632(9) -0.4164(3) 0.8531(3)
H9A H 0.4008 -0.3631 0.8522
H10A H 0.1360 -0.4267 0.9172
C10A C 0.4015(9) -0.5385(4) 0.8684(4)
H11A H 0.5428 -0.5655 0.9271
H12A H 0.4909 -0.5316 0.7964
C11A C 0.2953(11) -0.7341(3) 0.8874(3)
H13A H 0.1997 -0.7338 0.8228
H14A H 0.4926 -0.7357 0.8702
C12A C 0.2390(9) -0.8470(3) 0.9943(3)
H15A H 0.2578 -0.9188 0.9776
H16A H 0.0515 -0.8379 1.0220
loop_
_geom_bond_atom_site_label_1
_geom_bond_atom_site_label_2
_geom_bond_site_symmetry_1
_geom_bond_site_symmetry_2
I1 I1A 1_555 1_555
O1 C4 1_555 1_555
O2 C3 1_555 1_555
O3 C2 1_555 1_555
O4 C10 1_555 1_555
C1 C2 1_555 1_555
C2 C5 1_555 1_555
C3 H1 1_555 1_555
H2 C3 1_555 1_555
C4 C3 1_555 1_555
H3 C4 1_555 1_555
H4 C4 1_555 1_555
C5 H5 1_555 1_555
C6 H6 1_555 1_555
C7 C1 1_555 1_555
H7 C7 1_555 1_555
C8 C5 1_555 1_555
H8 C8 1_555 1_555
C9 O1 1_555 1_555
H9 C9 1_555 1_555
H10 C9 1_555 1_555
C10 C9 1_555 1_555
H11 C10 1_555 1_555
H12 C10 1_555 1_555
C11 O4 1_555 1_555
H13 C11 1_555 1_555
H14 C11 1_555 1_555
C12 O3 1_555 1_555
H15 C12 1_555 1_555
H16 C12 1_555 1_555
O1A C4A 1_555 1_555
O2A C1 1_555 1_555
O3A C2A 1_555 1_555
O4A C10A 1_555 1_555
C1A O2 1_555 1_555
C2A C1A 1_555 1_555
C3A O2A 1_555 1_555
H1A C3A 1_555 1_555
H2A C3A 1_555 1_555
C4A C3A 1_555 1_555
H3A C4A 1_555 1_555
H4A C4A 1_555 1_555
C5A C2A 1_555 1_555
H5A C5A 1_555 1_555
C6A H6A 1_555 1_555
C7A C1A 1_555 1_555
H7A C7A 1_555 1_555
C8A C5A 1_555 1_555
H8A C8A 1_555 1_555
C9A O1A 1_555 1_555
H9A C9A 1_555 1_555
H10A C9A 1_555 1_555
C10A C9A 1_555 1_555
H11A C10A 1_555 1_555
H12A C10A 1_555 1_555
C11A O4A 1_555 1_555
H13A C11A 1_555 1_555
H14A C11A 1_555 1_555
C12A O3A 1_555 1_555
H15A C12A 1_555 1_555
H16A C12A 1_555 1_555
C6 C7 1_555 1_555
C6 C8 1_555 1_555
C11 C12 1_555 1_555
C6A C7A 1_555 1_555
C6A C8A 1_555 1_555
C11A C12A 1_555 1_555

#END
