
#######################################################################
#
#                 Cambridge Crystallographic Data Centre
#                                CCDC 
#
#######################################################################
#
# If this CIF has been generated from an entry in the Cambridge 
# Structural Database, then it will include bibliographic, chemical, 
# crystal, experimental, refinement or atomic coordinate data resulting 
# from the CCDC's data processing and validation procedures.
#
#######################################################################

data_VAQKAB
_chemical_formula_moiety         'C15 H13 N3 O3,C1 H4 O1'
_chemical_name_systematic        
'Ethyl 1-carbamoyl-9H-\b-carboline-3-carboxylate methanol solvate'
_symmetry_cell_setting           triclinic
_symmetry_space_group_name_H-M   'P -1'
_symmetry_Int_Tables_number      2
_space_group_name_Hall           '-P 1'
loop_
_symmetry_equiv_pos_site_id
_symmetry_equiv_pos_as_xyz
1 x,y,z
2 -x,-y,-z
_cell_length_a                   7.8064(14)
_cell_length_b                   9.8524(15)
_cell_length_c                   10.6236(17)
_cell_angle_alpha                106.74(3)
_cell_angle_beta                 100.18(3)
_cell_angle_gamma                95.93(3)
_cell_volume                     759.757
_cell_formula_units_Z            2
loop_
_atom_site_label
_atom_site_type_symbol
_atom_site_fract_x
_atom_site_fract_y
_atom_site_fract_z
O1 O 0.1663(4) 0.4386(3) 1.1496(3)
N1 N 0.3305(4) 0.5815(3) 0.9150(3)
C1 C 0.0597(7) 0.3570(5) 1.3140(5)
H1 H 0.0355 0.3846 1.4026
H2 H 0.1443 0.2925 1.3097
H3 H -0.0473 0.3100 1.2490
O2 O 0.2544(5) 0.6654(3) 1.1647(3)
N2 N 0.4552(5) 0.7885(4) 0.8238(4)
H4 H 0.4919 0.8603 0.7994
H5 H 0.4305 0.8028 0.9018
C2 C 0.1319(6) 0.4864(5) 1.2842(4)
H6 H 0.0476 0.5525 1.2883
H7 H 0.2400 0.5351 1.3494
O3 O 0.4690(4) 0.6244(3) 0.6275(3)
N3 N 0.3651(4) 0.3273(3) 0.5918(3)
H8 H 0.4055 0.3688 0.5397
C3 C 0.2307(5) 0.5392(4) 1.1012(4)
C4 C 0.2641(5) 0.4808(4) 0.9658(4)
C5 C 0.2356(5) 0.3351(4) 0.8973(4)
H9 H 0.1943 0.2688 0.9365
C6 C 0.2691(5) 0.2900(4) 0.7712(4)
C7 C 0.3411(5) 0.3944(4) 0.7162(4)
C8 C 0.3650(5) 0.5404(4) 0.7929(4)
C9 C 0.4369(5) 0.6553(4) 0.7408(4)
C10 C 0.2567(6) 0.1525(4) 0.6694(4)
C11 C 0.1960(6) 0.0119(4) 0.6621(4)
H10 H 0.1550 -0.0089 0.7326
C12 C 0.1992(7) -0.0943(5) 0.5471(5)
H11 H 0.1638 -0.1894 0.5412
C13 C 0.2535(7) -0.0647(5) 0.4391(5)
H12 H 0.2478 -0.1399 0.3610
C14 C 0.3152(6) 0.0721(5) 0.4446(4)
H13 H 0.3560 0.0918 0.3735
C15 C 0.3139(5) 0.1808(4) 0.5621(4)
O4 O 0.6384(5) 0.0858(3) 0.8983(3)
H14 H 0.6422 0.1576 0.8740
C16 C 0.8102(8) 0.0640(6) 0.9424(6)
H15 H 0.8062 -0.0274 0.9580
H16 H 0.8654 0.1389 1.0246
H17 H 0.8768 0.0656 0.8750
loop_
_geom_bond_atom_site_label_1
_geom_bond_atom_site_label_2
_geom_bond_site_symmetry_1
_geom_bond_site_symmetry_2
O1 C2 1_555 1_555
N1 C4 1_555 1_555
C1 H1 1_555 1_555
H2 C1 1_555 1_555
H3 C1 1_555 1_555
O2 C3 1_555 1_555
N2 H4 1_555 1_555
H5 N2 1_555 1_555
C2 C1 1_555 1_555
H6 C2 1_555 1_555
H7 C2 1_555 1_555
O3 C9 1_555 1_555
N3 H8 1_555 1_555
C3 O1 1_555 1_555
C4 C3 1_555 1_555
C5 C4 1_555 1_555
H9 C5 1_555 1_555
C6 C5 1_555 1_555
C7 N3 1_555 1_555
C8 N1 1_555 1_555
C9 N2 1_555 1_555
C10 C6 1_555 1_555
C11 C10 1_555 1_555
H10 C11 1_555 1_555
C12 C11 1_555 1_555
H11 C12 1_555 1_555
C13 C12 1_555 1_555
H12 C13 1_555 1_555
C14 C13 1_555 1_555
H13 C14 1_555 1_555
C15 N3 1_555 1_555
O4 H14 1_555 1_555
C16 O4 1_555 1_555
H15 C16 1_555 1_555
H16 C16 1_555 1_555
H17 C16 1_555 1_555
C6 C7 1_555 1_555
C7 C8 1_555 1_555
C8 C9 1_555 1_555
C10 C15 1_555 1_555
C14 C15 1_555 1_555

#END
