
#######################################################################
#
#                 Cambridge Crystallographic Data Centre
#                                CCDC 
#
#######################################################################
#
# If this CIF has been generated from an entry in the Cambridge 
# Structural Database, then it will include bibliographic, chemical, 
# crystal, experimental, refinement or atomic coordinate data resulting 
# from the CCDC's data processing and validation procedures.
#
#######################################################################

data_VAQLIL
_chemical_formula_moiety         'C25 H23 N1 P4'
_chemical_name_systematic        
1-methyl-2,3,4,5-tetraphenylazatetraphospholidine
_symmetry_cell_setting           orthorhombic
_symmetry_space_group_name_H-M   'P b c n'
_symmetry_Int_Tables_number      60
_space_group_name_Hall           '-P 2n 2ab'
loop_
_symmetry_equiv_pos_site_id
_symmetry_equiv_pos_as_xyz
1 x,y,z
2 1/2+x,1/2-y,-z
3 -x,y,1/2-z
4 1/2-x,1/2-y,1/2+z
5 -x,-y,-z
6 1/2-x,1/2+y,z
7 x,-y,1/2+z
8 1/2+x,1/2+y,1/2-z
_cell_length_a                   11.9230(3)
_cell_length_b                   7.7492(2)
_cell_length_c                   24.4541(6)
_cell_angle_alpha                90
_cell_angle_beta                 90
_cell_angle_gamma                90
_cell_volume                     2259.41
_exptl_crystal_colour            colorless
_exptl_crystal_description       prism
_cell_formula_units_Z            4
loop_
_atom_site_label
_atom_site_type_symbol
_atom_site_fract_x
_atom_site_fract_y
_atom_site_fract_z
C1 C 0.0000 -0.1337(2) 0.7500
C2 C 0.12576(10) 0.16493(14) 0.66160(5)
C3 C 0.21832(11) 0.23832(17) 0.63537(6)
H1 H 0.2788 0.2826 0.6564
C4 C 0.22206(13) 0.24669(19) 0.57867(6)
H2 H 0.2845 0.2985 0.5610
C5 C 0.13536(14) 0.18000(19) 0.54791(6)
H3 H 0.1383 0.1861 0.5091
C6 C 0.04414(14) 0.10429(18) 0.57327(5)
H4 H -0.0151 0.0575 0.5520
C7 C 0.03930(11) 0.09669(16) 0.62999(5)
H5 H -0.0234 0.0446 0.6473
C8 C 0.11096(9) 0.43723(14) 0.82730(5)
C9 C 0.03533(10) 0.52081(15) 0.86184(5)
H6 H -0.0318 0.5682 0.8472
C10 C 0.05738(12) 0.53528(17) 0.91750(5)
H7 H 0.0050 0.5916 0.9407
C11 C 0.15505(13) 0.46830(18) 0.93928(5)
H8 H 0.1695 0.4773 0.9774
C12 C 0.23167(12) 0.38791(18) 0.90517(5)
H9 H 0.2994 0.3430 0.9199
C13 C 0.21021(10) 0.37243(16) 0.84955(5)
H10 H 0.2634 0.3174 0.8265
N1 N 0.0000 0.05707(17) 0.7500
P1 P 0.12627(3) 0.15237(4) 0.73660(2)
P2 P 0.09215(2) 0.42531(4) 0.75281(2)
C2B C -0.12576(10) 0.16493(14) 0.83840(5)
C3B C -0.21832(11) 0.23832(17) 0.86463(6)
H1B H -0.2788 0.2826 0.8436
C4B C -0.22206(13) 0.24669(19) 0.92133(6)
H2B H -0.2845 0.2985 0.9390
C5B C -0.13536(14) 0.18000(19) 0.95209(6)
H3B H -0.1383 0.1861 0.9909
C6B C -0.04414(14) 0.10429(18) 0.92673(5)
H4B H 0.0151 0.0575 0.9480
C7B C -0.03930(11) 0.09669(16) 0.87001(5)
H5B H 0.0234 0.0446 0.8527
C8B C -0.11096(9) 0.43723(14) 0.67270(5)
C9B C -0.03533(10) 0.52081(15) 0.63816(5)
H6B H 0.0318 0.5682 0.6528
C10B C -0.05738(12) 0.53528(17) 0.58250(5)
H7B H -0.0050 0.5916 0.5593
C11B C -0.15505(13) 0.46830(18) 0.56072(5)
H8B H -0.1695 0.4773 0.5226
C12B C -0.23167(12) 0.38791(18) 0.59483(5)
H9B H -0.2994 0.3430 0.5801
C13B C -0.21021(10) 0.37243(16) 0.65045(5)
H10B H -0.2634 0.3174 0.6735
P1B P -0.12627(3) 0.15237(4) 0.76340(2)
P2B P -0.09215(2) 0.42531(4) 0.74719(2)
H11? H -0.0772 -0.1758 0.7534
H12? H 0.0446 -0.1758 0.7809
H13? H 0.0326 -0.1758 0.7157
loop_
_geom_bond_atom_site_label_1
_geom_bond_atom_site_label_2
_geom_bond_site_symmetry_1
_geom_bond_site_symmetry_2
C1 N1 1_555 1_555
C2 C3 1_555 1_555
C3 H1 1_555 1_555
C4 C3 1_555 1_555
H2 C4 1_555 1_555
C5 C4 1_555 1_555
H3 C5 1_555 1_555
C6 C5 1_555 1_555
H4 C6 1_555 1_555
C7 C2 1_555 1_555
H5 C7 1_555 1_555
C8 C9 1_555 1_555
C9 H6 1_555 1_555
C10 C9 1_555 1_555
H7 C10 1_555 1_555
C11 C10 1_555 1_555
H8 C11 1_555 1_555
C12 C11 1_555 1_555
H9 C12 1_555 1_555
C13 C8 1_555 1_555
H10 C13 1_555 1_555
N1 P1 1_555 1_555
P1 C2 1_555 1_555
P2 C8 1_555 1_555
C2B C3B 1_555 1_555
C3B H1B 1_555 1_555
C4B C3B 1_555 1_555
H2B C4B 1_555 1_555
C5B C4B 1_555 1_555
H3B C5B 1_555 1_555
C6B C5B 1_555 1_555
H4B C6B 1_555 1_555
C7B C2B 1_555 1_555
H5B C7B 1_555 1_555
C8B C9B 1_555 1_555
C9B H6B 1_555 1_555
C10B C9B 1_555 1_555
H7B C10B 1_555 1_555
C11B C10B 1_555 1_555
H8B C11B 1_555 1_555
C12B C11B 1_555 1_555
H9B C12B 1_555 1_555
C13B C8B 1_555 1_555
H10B C13B 1_555 1_555
P1B N1 1_555 1_555
P2B P2 1_555 1_555
C6 C7 1_555 1_555
C12 C13 1_555 1_555
P1 P2 1_555 1_555
C2B P1B 1_555 1_555
C6B C7B 1_555 1_555
C8B P2B 1_555 1_555
C12B C13B 1_555 1_555
P1B P2B 1_555 1_555

#END
