
#######################################################################
#
#                 Cambridge Crystallographic Data Centre
#                                CCDC 
#
#######################################################################
#
# If this CIF has been generated from an entry in the Cambridge 
# Structural Database, then it will include bibliographic, chemical, 
# crystal, experimental, refinement or atomic coordinate data resulting 
# from the CCDC's data processing and validation procedures.
#
#######################################################################

data_VAQVER
_chemical_formula_moiety         'C23 H20 F1 N3 O1'
_chemical_name_systematic        
1-(4-{[4-(dimethylamino)phenyl]ethynyl}phenyl)-3-ethoxy-4-fluoro-1H-pyrrole-2-carbonitrile
_symmetry_cell_setting           triclinic
_symmetry_space_group_name_H-M   'P -1'
_symmetry_Int_Tables_number      2
_space_group_name_Hall           '-P 1'
loop_
_symmetry_equiv_pos_site_id
_symmetry_equiv_pos_as_xyz
1 x,y,z
2 -x,-y,-z
_cell_length_a                   7.8583(14)
_cell_length_b                   8.5608(16)
_cell_length_c                   14.782(3)
_cell_angle_alpha                102.930(5)
_cell_angle_beta                 90.493(5)
_cell_angle_gamma                97.186(5)
_cell_volume                     960.918
_exptl_crystal_colour            colorless
_exptl_crystal_description       prismatic
_cell_formula_units_Z            2
loop_
_atom_site_label
_atom_site_type_symbol
_atom_site_fract_x
_atom_site_fract_y
_atom_site_fract_z
F1 F 0.1421(2) 0.7246(3) 0.34971(13)
N1 N 0.5489(3) 0.5986(3) 0.33303(15)
N2 N 0.7988(3) 0.6900(4) 0.54244(19)
N3 N 1.6707(3) 0.0196(4) -0.17937(18)
O1 O 0.3515(2) 0.7953(2) 0.53317(13)
C1 C 0.5478(3) 0.6641(3) 0.42753(17)
C2 C 0.3940(3) 0.7232(3) 0.44695(19)
C3 C 0.3029(3) 0.6909(4) 0.3620(2)
C4 C 0.3975(4) 0.6175(4) 0.2937(2)
H1 H 0.3654 0.5855 0.2309
C5 C 0.6872(4) 0.6759(3) 0.4897(2)
C6 C 0.6886(3) 0.5401(3) 0.28083(17)
C7 C 0.7230(3) 0.5840(3) 0.19807(18)
H2 H 0.6603 0.6569 0.1790
C8 C 0.8499(3) 0.5204(3) 0.14348(18)
H3 H 0.8703 0.5485 0.0869
C9 C 0.9476(3) 0.4144(3) 0.17213(18)
C10 C 0.9157(3) 0.3774(3) 0.25718(19)
H4 H 0.9832 0.3104 0.2786
C11 C 0.7859(3) 0.4379(3) 0.31109(19)
H5 H 0.7644 0.4096 0.3675
C12 C 1.0757(4) 0.3434(3) 0.11295(19)
C13 C 1.1782(3) 0.2831(3) 0.06217(18)
C14 C 1.3037(3) 0.2129(3) 0.00189(17)
C15 C 1.2661(3) 0.0654(4) -0.06123(19)
H6 H 1.1567 0.0085 -0.0635
C16 C 1.3857(4) 0.0018(3) -0.12011(18)
H7 H 1.3557 -0.0976 -0.1612
C17 C 1.5519(4) 0.0821(4) -0.12018(18)
C18 C 1.5889(4) 0.2294(4) -0.0566(2)
H8 H 1.6978 0.2872 -0.0544
C19 C 1.4683(4) 0.2917(3) 0.00312(19)
H9 H 1.4985 0.3897 0.0455
C20 C 1.6300(5) -0.1315(5) -0.2460(2)
H10 H 1.5958 -0.2158 -0.2141
H11 H 1.7292 -0.1559 -0.2812
H12 H 1.5379 -0.1236 -0.2871
C21 C 1.8469(4) 0.0936(5) -0.1691(3)
H13 H 1.8535 0.2015 -0.1784
H14 H 1.9139 0.0315 -0.2142
H15 H 1.8908 0.0969 -0.1077
C22 C 0.2301(4) 0.9073(4) 0.5385(2)
H16 H 0.1183 0.8497 0.5157
H17 H 0.2646 0.9823 0.4996
C23 C 0.2190(4) 0.9972(4) 0.6350(2)
H18 H 0.1791 0.9233 0.6728
H19 H 0.1402 1.0750 0.6373
H20 H 0.3303 1.0520 0.6580
loop_
_geom_bond_atom_site_label_1
_geom_bond_atom_site_label_2
_geom_bond_site_symmetry_1
_geom_bond_site_symmetry_2
F1 C3 1_555 1_555
N1 C1 1_555 1_555
N2 C5 1_555 1_555
N3 C17 1_555 1_555
O1 C2 1_555 1_555
C1 C2 1_555 1_555
C2 C3 1_555 1_555
C3 C4 1_555 1_555
C4 N1 1_555 1_555
H1 C4 1_555 1_555
C5 C1 1_555 1_555
C6 N1 1_555 1_555
C7 C6 1_555 1_555
H2 C7 1_555 1_555
C8 C7 1_555 1_555
H3 C8 1_555 1_555
C9 C8 1_555 1_555
C10 C9 1_555 1_555
H4 C10 1_555 1_555
C11 C6 1_555 1_555
H5 C11 1_555 1_555
C12 C9 1_555 1_555
C13 C12 1_555 1_555
C14 C13 1_555 1_555
C15 C14 1_555 1_555
H6 C15 1_555 1_555
C16 C15 1_555 1_555
H7 C16 1_555 1_555
C17 C16 1_555 1_555
C18 C17 1_555 1_555
H8 C18 1_555 1_555
C19 C14 1_555 1_555
H9 C19 1_555 1_555
C20 N3 1_555 1_555
H10 C20 1_555 1_555
H11 C20 1_555 1_555
H12 C20 1_555 1_555
C21 N3 1_555 1_555
H13 C21 1_555 1_555
H14 C21 1_555 1_555
H15 C21 1_555 1_555
C22 O1 1_555 1_555
H16 C22 1_555 1_555
H17 C22 1_555 1_555
C23 C22 1_555 1_555
H18 C23 1_555 1_555
H19 C23 1_555 1_555
H20 C23 1_555 1_555
C10 C11 1_555 1_555
C18 C19 1_555 1_555

#END
