
#######################################################################
#
#                 Cambridge Crystallographic Data Centre
#                                CCDC 
#
#######################################################################
#
# If this CIF has been generated from an entry in the Cambridge 
# Structural Database, then it will include bibliographic, chemical, 
# crystal, experimental, refinement or atomic coordinate data resulting 
# from the CCDC's data processing and validation procedures.
#
#######################################################################

data_VARBOG
_chemical_formula_moiety         'C21 H16 N2 O2,C18 H14 O8,C1 H2 Cl2'
_chemical_name_systematic        
"(+)-3,3'-Trimethylene-2,2'-biquinoline N,N'-dioxide O,O'-dibenzoyl-L-tartaric acid dichloromethane solvate"
_symmetry_cell_setting           monoclinic
_symmetry_space_group_name_H-M   'C 2'
_symmetry_Int_Tables_number      5
_space_group_name_Hall           'C 2y'
loop_
_symmetry_equiv_pos_site_id
_symmetry_equiv_pos_as_xyz
1 x,y,z
2 -x,y,-z
3 1/2+x,1/2+y,z
4 1/2-x,1/2+y,-z
_cell_length_a                   20.517(2)
_cell_length_b                   8.8185(9)
_cell_length_c                   12.4105(11)
_cell_angle_alpha                90
_cell_angle_beta                 123.776(6)
_cell_angle_gamma                90
_cell_volume                     1866.43
_chemical_melting_point          163-165deg.C
_cell_formula_units_Z            2
loop_
_atom_site_label
_atom_site_type_symbol
_atom_site_fract_x
_atom_site_fract_y
_atom_site_fract_z
O1 O 0.02859(10) 0.3393(3) 0.41973(15)
N1 N 0.07386(11) 0.4467(3) 0.50051(18)
C1 C 0.15441(14) 0.4414(4) 0.5522(2)
C2 C 0.18528(16) 0.3211(5) 0.5206(3)
H2 H 0.1528 0.2449 0.4644
C3 C 0.26426(18) 0.3176(6) 0.5740(3)
H3 H 0.2859 0.2375 0.5552
C4 C 0.31277(19) 0.4339(7) 0.6567(4)
H4 H 0.3662 0.4311 0.6908
C5 C 0.28348(18) 0.5492(6) 0.6874(3)
H5 H 0.3171 0.6243 0.7435
C6 C 0.20228(15) 0.5588(4) 0.6363(3)
C7 C 0.16810(18) 0.6789(4) 0.6614(3)
H6 H 0.1994 0.7581 0.7145
C8 C 0.08891(17) 0.6815(4) 0.6088(3)
C9 C 0.04323(14) 0.5587(4) 0.5306(2)
C10 C 0.0471(2) 0.8126(4) 0.6242(3)
H7 H 0.0854 0.8770 0.6946
H8 H 0.0119 0.7735 0.6467
C11 C 0.0000 0.9072(7) 0.5000
H9 H -0.0359 0.9721 0.5064
H10 H 0.0359 0.9721 0.4936
C9A C -0.04323(14) 0.5587(4) 0.4694(2)
N1A N -0.07386(11) 0.4467(3) 0.49949(18)
O1A O -0.02859(10) 0.3393(3) 0.58027(15)
C1A C -0.15441(14) 0.4414(4) 0.4478(2)
C2A C -0.18528(16) 0.3211(5) 0.4794(3)
H2A H -0.1528 0.2449 0.5356
C3A C -0.26426(18) 0.3176(6) 0.4260(3)
H3A H -0.2859 0.2375 0.4448
C4A C -0.31277(19) 0.4339(7) 0.3433(4)
H4A H -0.3662 0.4311 0.3092
C5A C -0.28348(18) 0.5492(6) 0.3126(3)
H5A H -0.3171 0.6243 0.2565
C6A C -0.20228(15) 0.5588(4) 0.3637(3)
C7A C -0.16810(18) 0.6789(4) 0.3386(3)
H6A H -0.1994 0.7581 0.2855
C8A C -0.08891(17) 0.6815(4) 0.3912(3)
C10A C -0.0471(2) 0.8126(4) 0.3758(3)
H7A H -0.0854 0.8770 0.3054
H8A H -0.0119 0.7735 0.3533
O2 O 0.08829(9) 0.5655(2) 0.05512(16)
O3 O 0.19113(11) 0.4420(3) 0.2189(2)
O4 O 0.06004(13) 0.5890(3) 0.2453(2)
O5 O 0.01044(14) 0.3549(3) 0.20221(19)
H1 H 0.0194 0.3582 0.2753
C12 C 0.29551(15) 0.6507(4) 0.2203(3)
H11 H 0.3161 0.5837 0.2897
C13 C 0.3444(2) 0.7465(5) 0.2107(4)
H12 H 0.3980 0.7441 0.2733
C14 C 0.3150(2) 0.8447(7) 0.1103(4)
H13 H 0.3484 0.9101 0.1044
C15 C 0.2350(3) 0.8483(7) 0.0161(5)
H14 H 0.2150 0.9159 -0.0528
C16 C 0.1852(2) 0.7514(5) 0.0246(3)
H15 H 0.1317 0.7530 -0.0388
C17 C 0.21523(15) 0.6526(4) 0.1274(3)
C18 C 0.16627(14) 0.5435(4) 0.1415(3)
C19 C 0.04108(13) 0.4520(3) 0.0623(2)
H16 H 0.0650 0.3529 0.0701
C20 C 0.03860(14) 0.4758(3) 0.1821(2)
C19A C -0.04108(13) 0.4520(3) -0.0623(2)
O2A O -0.08829(9) 0.5655(2) -0.05512(16)
C18A C -0.16627(14) 0.5435(4) -0.1415(3)
O3A O -0.19113(11) 0.4420(3) -0.2189(2)
C17A C -0.21523(15) 0.6526(4) -0.1274(3)
C12A C -0.29551(15) 0.6507(4) -0.2203(3)
H11A H -0.3161 0.5837 -0.2897
C13A C -0.3444(2) 0.7465(5) -0.2107(4)
H12A H -0.3980 0.7441 -0.2733
C14A C -0.3150(2) 0.8447(7) -0.1103(4)
H13A H -0.3484 0.9101 -0.1044
C15A C -0.2350(3) 0.8483(7) -0.0161(5)
H14A H -0.2150 0.9159 0.0528
C16A C -0.1852(2) 0.7514(5) -0.0246(3)
H15A H -0.1317 0.7530 0.0388
H16A H -0.0650 0.3529 -0.0701
C20A C -0.03860(14) 0.4758(3) -0.1821(2)
O4A O -0.06004(13) 0.5890(3) -0.2453(2)
O5A O -0.01044(14) 0.3549(3) -0.20221(19)
H1A H -0.0194 0.3582 -0.2753
C21 C 0.5000 0.4108(9) 0.0000
H17 H 0.4564 0.3462 -0.0603
H18 H 0.5436 0.3462 0.0603
Cl1 Cl 0.47386(12) 0.5201(2) 0.0825(2)
Cl1A Cl 0.52614(12) 0.5201(2) -0.0825(2)
loop_
_geom_bond_atom_site_label_1
_geom_bond_atom_site_label_2
_geom_bond_site_symmetry_1
_geom_bond_site_symmetry_2
O1 N1 1_555 1_555
O2 C18 1_555 1_555
O3 C18 1_555 1_555
O4 C20 1_555 1_555
O5 H1 1_555 1_555
N1 C1 1_555 1_555
C1 C2 1_555 1_555
C2 H2 1_555 1_555
C3 C2 1_555 1_555
H3 C3 1_555 1_555
C4 C3 1_555 1_555
H4 C4 1_555 1_555
C5 C4 1_555 1_555
H5 C5 1_555 1_555
C6 C1 1_555 1_555
C7 C6 1_555 1_555
H6 C7 1_555 1_555
C8 C7 1_555 1_555
C9 N1 1_555 1_555
C10 C8 1_555 1_555
H7 C10 1_555 1_555
H8 C10 1_555 1_555
C11 C10 1_555 1_555
H9 C11 1_555 1_555
H10 C11 1_555 1_555
C12 H11 1_555 1_555
C13 C12 1_555 1_555
H12 C13 1_555 1_555
C14 C13 1_555 1_555
H13 C14 1_555 1_555
C15 C14 1_555 1_555
H14 C15 1_555 1_555
C16 C15 1_555 1_555
H15 C16 1_555 1_555
C17 C12 1_555 1_555
C18 C17 1_555 1_555
C19 O2 1_555 1_555
H16 C19 1_555 1_555
C20 O5 1_555 1_555
C21 H17 1_555 1_555
H18 C21 1_555 1_555
Cl1 C21 1_555 1_555
C9A C9 1_555 1_555
N1A C9A 1_555 1_555
O1A N1A 1_555 1_555
C1A N1A 1_555 1_555
C2A C1A 1_555 1_555
H2A C2A 1_555 1_555
C3A C2A 1_555 1_555
H3A C3A 1_555 1_555
C4A C3A 1_555 1_555
H4A C4A 1_555 1_555
C5A C4A 1_555 1_555
H5A C5A 1_555 1_555
C6A C1A 1_555 1_555
C7A C6A 1_555 1_555
H6A C7A 1_555 1_555
C8A C9A 1_555 1_555
C10A C11 1_555 1_555
H7A C10A 1_555 1_555
H8A C10A 1_555 1_555
C19A C19 1_555 1_555
O2A C19A 1_555 1_555
C18A O2A 1_555 1_555
O3A C18A 1_555 1_555
C17A C18A 1_555 1_555
C12A C17A 1_555 1_555
H11A C12A 1_555 1_555
C13A C12A 1_555 1_555
H12A C13A 1_555 1_555
C14A C13A 1_555 1_555
H13A C14A 1_555 1_555
C15A C14A 1_555 1_555
H14A C15A 1_555 1_555
C16A C17A 1_555 1_555
H15A C16A 1_555 1_555
H16A C19A 1_555 1_555
C20A C19A 1_555 1_555
O4A C20A 1_555 1_555
O5A C20A 1_555 1_555
H1A O5A 1_555 1_555
Cl1A C21 1_555 1_555
C5 C6 1_555 1_555
C8 C9 1_555 1_555
C16 C17 1_555 1_555
C19 C20 1_555 1_555
C5A C6A 1_555 1_555
C7A C8A 1_555 1_555
C8A C10A 1_555 1_555
C15A C16A 1_555 1_555

#END
