
#######################################################################
#
#                 Cambridge Crystallographic Data Centre
#                                CCDC 
#
#######################################################################
#
# If this CIF has been generated from an entry in the Cambridge 
# Structural Database, then it will include bibliographic, chemical, 
# crystal, experimental, refinement or atomic coordinate data resulting 
# from the CCDC's data processing and validation procedures.
#
#######################################################################

data_VARBOF
_chemical_formula_moiety         'C20 H38 N4 O6'
_chemical_name_systematic        
(2S,3R,4S)-1-Azido-4-((t-butyloxycarbonyl)amino)-5-cyclohexyl-2-hydroxy-3-((methoxyethoxy)methoxy)pentane
_symmetry_cell_setting           orthorhombic
_symmetry_space_group_name_H-M   'P 21 21 21'
_symmetry_Int_Tables_number      19
_space_group_name_Hall           'P 2ac 2ab'
loop_
_symmetry_equiv_pos_site_id
_symmetry_equiv_pos_as_xyz
1 x,y,z
2 1/2+x,1/2-y,-z
3 -x,1/2+y,1/2-z
4 1/2-x,-y,1/2+z
_cell_length_a                   10.881(4)
_cell_length_b                   22.136(3)
_cell_length_c                   10.274(2)
_cell_angle_alpha                90
_cell_angle_beta                 90
_cell_angle_gamma                90
_cell_volume                     2474.61
_chemical_melting_point          75-76deg.C
_cell_formula_units_Z            4
loop_
_atom_site_label
_atom_site_type_symbol
_atom_site_fract_x
_atom_site_fract_y
_atom_site_fract_z
O1 O 0.7525(6) 0.9208(2) 0.0768(6)
C1 C 0.8938(8) 0.9621(4) -0.078(1)
O2 O 0.8202(7) 1.1001(2) -0.1052(6)
O3 O 0.7811(6) 1.1283(2) 0.1048(6)
N1 N 0.7019(6) 1.0434(3) 0.0284(7)
C2 C 0.7627(8) 0.9431(3) -0.0518(8)
O4 O 0.9058(6) 0.9877(2) -0.2044(6)
C3 C 0.67348 0.9964(3) -0.0649(8)
C4 C 0.7736(9) 1.0913(4) -0.001(1)
C5 C 0.4447(9) 1.0273(3) -0.074(1)
C6 C 0.5406(9) 0.9776(4) -0.049(1)
C7 C 0.9870(9) 0.9118(4) -0.070(1)
N2 N 0.999(1) 0.8554(4) -0.253(1)
O5 O 0.6421(8) 0.8310(3) 0.0404(7)
O6 O 0.3887(9) 0.8419(3) -0.041(1)
C8 C 0.432(1) 0.8032(5) 0.056(1)
N3 N 0.956(1) 0.8588(4) -0.148(1)
C9 C 0.749(1) 0.8566(4) 0.088(1)
C10 C 0.438(1) 1.0467(6) -0.215(1)
C11 C 0.321(1) 1.0089(5) -0.026(2)
C12 C 0.224(1) 1.0604(6) -0.044(1)
C13 C 0.541(1) 0.8312(5) 0.123(1)
C14 C 0.217(1) 1.0807(7) -0.178(2)
C15 C 0.295(1) 0.8171(6) -0.113(2)
N4 N 1.032(1) 0.8449(5) -0.353(1)
C16 C 0.341(2) 1.0976(8) -0.232(2)
C17 C 0.848(1) 1.1865(4) 0.093(1)
C18 C 0.784(2) 1.2255(4) -0.006(1)
C19 C 0.835(1) 1.2105(4) 0.226(1)
C20 C 0.975(4) 1.1781(6) 0.059(1)
H1 H 0.9157 0.9921 -0.0169
H2 H 0.7397 0.9122 -0.1113
H3 H 0.6827 1.0125 -0.1497
H4 H 0.4688 1.0618 -0.0247
H5 H 0.5254 0.9455 -0.1078
H6 H 0.5308 0.9636 0.0380
H7 H 1.0640 0.9268 -0.0989
H8 H 0.9934 0.9000 0.0188
H9 H 0.3691 0.7963 0.1174
H10 H 0.4566 0.7660 0.0175
H11 H 0.8170 0.8406 0.0400
H12 H 0.7579 0.8461 0.1768
H13 H 0.5154 1.0606 -0.2424
H14 H 0.4145 1.0125 -0.2667
H15 H 0.2942 0.9745 -0.0725
H16 H 0.3264 0.9993 0.0645
H17 H 0.1461 1.0462 -0.0168
H18 H 0.2475 1.0940 0.0095
H19 H 0.5594 0.8088 0.1989
H20 H 0.5215 0.8717 0.1458
H21 H 0.1840 1.0487 -0.2295
H22 H 0.1640 1.1146 -0.1831
H23 H 0.2281 0.8071 -0.0574
H24 H 0.2681 0.8450 -0.1771
H25 H 0.3232 0.7811 -0.1550
H26 H 0.3678 1.1324 -0.1861
H27 H 0.3312 1.1064 -0.3209
H28 H 0.8259 1.2631 -0.0137
H29 H 0.7822 1.2058 -0.0873
H30 H 0.7018 1.2330 0.0228
H31 H 0.8724 1.1833 0.2864
H32 H 0.8753 1.2487 0.2326
H33 H 0.7510 1.2151 0.2470
H34 H 1.0151 1.1552 0.1247
H35 H 0.9811 1.1575 -0.0219
H36 H 1.0145 1.2165 0.0514
H37 H 0.6546 1.0421 0.1334
H38 H 0.8517 1.0206 -0.2158
loop_
_geom_bond_atom_site_label_1
_geom_bond_atom_site_label_2
_geom_bond_site_symmetry_1
_geom_bond_site_symmetry_2
O1 C2 1_555 1_555
C1 C2 1_555 1_555
O2 C4 1_555 1_555
O3 C4 1_555 1_555
N1 C3 1_555 1_555
C2 C3 1_555 1_555
O4 C1 1_555 1_555
C3 C6 1_555 1_555
C4 N1 1_555 1_555
C5 C6 1_555 1_555
C6 H5 1_555 1_555
C7 C1 1_555 1_555
N2 N3 1_555 1_555
O5 C9 1_555 1_555
O6 C8 1_555 1_555
C8 C13 1_555 1_555
N3 C7 1_555 1_555
C9 O1 1_555 1_555
C10 C5 1_555 1_555
C11 C5 1_555 1_555
C12 C11 1_555 1_555
C13 O5 1_555 1_555
C14 C12 1_555 1_555
C15 O6 1_555 1_555
N4 N2 1_555 1_555
C16 C10 1_555 1_555
C17 O3 1_555 1_555
C18 C17 1_555 1_555
C19 C17 1_555 1_555
C20 C17 1_555 1_555
H1 C1 1_555 1_555
H2 C2 1_555 1_555
H3 C3 1_555 1_555
H4 C5 1_555 1_555
H6 C6 1_555 1_555
H7 C7 1_555 1_555
H8 C7 1_555 1_555
H9 C8 1_555 1_555
H10 C8 1_555 1_555
H11 C9 1_555 1_555
H12 C9 1_555 1_555
H13 C10 1_555 1_555
H14 C10 1_555 1_555
H15 C11 1_555 1_555
H16 C11 1_555 1_555
H17 C12 1_555 1_555
H18 C12 1_555 1_555
H19 C13 1_555 1_555
H20 C13 1_555 1_555
H21 C14 1_555 1_555
H22 C14 1_555 1_555
H23 C15 1_555 1_555
H24 C15 1_555 1_555
H25 C15 1_555 1_555
H26 C16 1_555 1_555
H27 C16 1_555 1_555
H28 C18 1_555 1_555
H29 C18 1_555 1_555
H30 C18 1_555 1_555
H31 C19 1_555 1_555
H32 C19 1_555 1_555
H33 C19 1_555 1_555
H34 C20 1_555 1_555
H35 C20 1_555 1_555
H36 C20 1_555 1_555
H37 N1 1_555 1_555
H38 O4 1_555 1_555
C14 C16 1_555 1_555

#END
