
#######################################################################
#
#                 Cambridge Crystallographic Data Centre
#                                CCDC 
#
#######################################################################
#
# If this CIF has been generated from an entry in the Cambridge 
# Structural Database, then it will include bibliographic, chemical, 
# crystal, experimental, refinement or atomic coordinate data resulting 
# from the CCDC's data processing and validation procedures.
#
#######################################################################

data_VARGEC
_chemical_formula_moiety         'C20 H32 O5'
_chemical_name_systematic        '1,7,11-Trihydroxybeyeran-18-oic acid'
_chemical_properties_biological  anti-inflammatory
_symmetry_cell_setting           orthorhombic
_symmetry_space_group_name_H-M   'P 21 21 21'
_symmetry_Int_Tables_number      19
_space_group_name_Hall           'P 2ac 2ab'
loop_
_symmetry_equiv_pos_site_id
_symmetry_equiv_pos_as_xyz
1 x,y,z
2 1/2-x,-y,1/2+z
3 -x,1/2+y,1/2-z
4 1/2+x,1/2-y,-z
_cell_length_a                   8.53450(10)
_cell_length_b                   11.6604(2)
_cell_length_c                   18.7543(2)
_cell_angle_alpha                90
_cell_angle_beta                 90
_cell_angle_gamma                90
_cell_volume                     1866.35
_cell_formula_units_Z            4
_exptl_crystal_recrystallization_method 'Methanol, water'
loop_
_atom_site_label
_atom_site_type_symbol
_atom_site_fract_x
_atom_site_fract_y
_atom_site_fract_z
O1 O 0.66340(14) 0.31049(10) 1.19217(6)
O2 O 0.27676(17) 0.53680(12) 1.30465(6)
O3 O 0.24796(15) 0.65704(10) 1.21378(6)
H1 H 0.2761 0.7041 1.2436
O4 O 0.22715(14) 0.44056(11) 0.96342(5)
H2 H 0.2248 0.4454 0.9198
O5 O 0.77968(15) 0.29417(11) 1.06826(6)
C1 C 0.50486(18) 0.32244(13) 1.16722(7)
H3 H 0.4797 0.2565 1.1369
C2 C 0.40659(19) 0.31504(15) 1.23514(8)
H4 H 0.4166 0.2384 1.2547
H5 H 0.4490 0.3683 1.2699
C3 C 0.2341(2) 0.34120(15) 1.22480(8)
H6 H 0.1822 0.3402 1.2708
H7 H 0.1874 0.2817 1.1956
C4 C 0.20707(18) 0.45720(14) 1.18953(8)
C5 C 0.29878(16) 0.45613(13) 1.11702(7)
H8 H 0.2587 0.3887 1.0917
C6 C 0.26066(18) 0.55696(14) 1.06795(8)
H9 H 0.1483 0.5696 1.0677
H10 H 0.3104 0.6258 1.0862
C7 C 0.31656(17) 0.53517(14) 0.99231(8)
H11 H 0.2942 0.6036 0.9637
C8 C 0.49276(18) 0.51193(12) 0.98908(7)
C9 C 0.54301(16) 0.41634(12) 1.04309(7)
H12 H 0.4942 0.3453 1.0261
C10 C 0.48056(16) 0.43484(11) 1.12288(7)
C11 C 0.72260(18) 0.39803(12) 1.03583(7)
H13 H 0.7736 0.4621 1.0604
C12 C 0.7829(2) 0.39804(14) 0.95899(8)
H14 H 0.8961 0.4051 0.9599
H15 H 0.7577 0.3247 0.9374
C13 C 0.71644(19) 0.49311(14) 0.91237(8)
C14 C 0.53951(18) 0.47688(13) 0.91260(7)
H16 H 0.5117 0.3977 0.9030
H17 H 0.4896 0.5259 0.8775
C15 C 0.5902(2) 0.62496(13) 0.99688(9)
H18 H 0.5284 0.6907 0.9822
H19 H 0.6224 0.6359 1.0460
C16 C 0.7354(2) 0.61097(15) 0.94797(10)
H20 H 0.7385 0.6713 0.9124
H21 H 0.8312 0.6138 0.9757
C17 C 0.7905(2) 0.48782(19) 0.83796(10)
H22 H 0.7747 0.4129 0.8180
H23 H 0.9007 0.5031 0.8415
H24 H 0.7424 0.5442 0.8078
C18 C 0.02920(19) 0.47087(19) 1.17603(10)
H25 H -0.0254 0.4714 1.2208
H26 H -0.0076 0.4080 1.1475
H27 H 0.0102 0.5417 1.1514
C19 C 0.25071(16) 0.55373(15) 1.24199(8)
C20 C 0.56245(17) 0.53313(13) 1.16234(7)
H28 H 0.5197 0.5399 1.2095
H29 H 0.5462 0.6035 1.1369
H30 H 0.6727 0.5175 1.1654
H31 H 0.716(3) 0.2908(18) 1.1545(12)
H32 H 0.747(3) 0.244(3) 1.0460(16)
loop_
_geom_bond_atom_site_label_1
_geom_bond_atom_site_label_2
_geom_bond_site_symmetry_1
_geom_bond_site_symmetry_2
O1 C1 1_555 1_555
O2 C19 1_555 1_555
O3 H1 1_555 1_555
O4 H2 1_555 1_555
O5 C11 1_555 1_555
C1 H3 1_555 1_555
C2 C1 1_555 1_555
H4 C2 1_555 1_555
H5 C2 1_555 1_555
C3 C2 1_555 1_555
H6 C3 1_555 1_555
H7 C3 1_555 1_555
C4 C3 1_555 1_555
C5 C4 1_555 1_555
H8 C5 1_555 1_555
C6 C5 1_555 1_555
H9 C6 1_555 1_555
H10 C6 1_555 1_555
C7 O4 1_555 1_555
H11 C7 1_555 1_555
C8 C7 1_555 1_555
C9 C8 1_555 1_555
H12 C9 1_555 1_555
C10 C1 1_555 1_555
C11 C9 1_555 1_555
H13 C11 1_555 1_555
C12 C11 1_555 1_555
H14 C12 1_555 1_555
H15 C12 1_555 1_555
C13 C12 1_555 1_555
C14 C8 1_555 1_555
H16 C14 1_555 1_555
H17 C14 1_555 1_555
C15 C8 1_555 1_555
H18 C15 1_555 1_555
H19 C15 1_555 1_555
C16 C13 1_555 1_555
H20 C16 1_555 1_555
H21 C16 1_555 1_555
C17 C13 1_555 1_555
H22 C17 1_555 1_555
H23 C17 1_555 1_555
H24 C17 1_555 1_555
C18 C4 1_555 1_555
H25 C18 1_555 1_555
H26 C18 1_555 1_555
H27 C18 1_555 1_555
C19 O3 1_555 1_555
C20 C10 1_555 1_555
H28 C20 1_555 1_555
H29 C20 1_555 1_555
H30 C20 1_555 1_555
H31 O1 1_555 1_555
H32 O5 1_555 1_555
C4 C19 1_555 1_555
C5 C10 1_555 1_555
C6 C7 1_555 1_555
C9 C10 1_555 1_555
C13 C14 1_555 1_555
C15 C16 1_555 1_555

#END
