
#######################################################################
#
#                 Cambridge Crystallographic Data Centre
#                                CCDC 
#
#######################################################################
#
# If this CIF has been generated from an entry in the Cambridge 
# Structural Database, then it will include bibliographic, chemical, 
# crystal, experimental, refinement or atomic coordinate data resulting 
# from the CCDC's data processing and validation procedures.
#
#######################################################################

data_VARGIG
_chemical_formula_moiety         'C20 H32 O4'
_chemical_name_systematic        '1,7-Dihydroxybeyeran-18-oic acid'
_chemical_properties_biological  Anti-inflammatory
_symmetry_cell_setting           orthorhombic
_symmetry_space_group_name_H-M   'P 21 21 21'
_symmetry_Int_Tables_number      19
_space_group_name_Hall           'P 2ac 2ab'
loop_
_symmetry_equiv_pos_site_id
_symmetry_equiv_pos_as_xyz
1 x,y,z
2 1/2-x,-y,1/2+z
3 -x,1/2+y,1/2-z
4 1/2+x,1/2-y,-z
_cell_length_a                   7.9570(9)
_cell_length_b                   11.0205(18)
_cell_length_c                   21.513(4)
_cell_angle_alpha                90
_cell_angle_beta                 90
_cell_angle_gamma                90
_cell_volume                     1886.48
_cell_formula_units_Z            4
loop_
_atom_site_label
_atom_site_type_symbol
_atom_site_fract_x
_atom_site_fract_y
_atom_site_fract_z
O1 O 0.4499(3) 0.4033(3) 0.15105(14)
H1 H 0.4936 0.3381 0.1598
O2 O 0.1780(5) 0.7959(3) 0.2895(2)
O3 O 0.3928(5) 0.6923(4) 0.3280(2)
O4 O -0.2667(3) 0.5251(3) 0.17614(15)
H2 H -0.2118 0.4638 0.1834
C1 C 0.3158(4) 0.4281(3) 0.19419(17)
H3 H 0.2428 0.3565 0.1951
C2 C 0.3922(5) 0.4428(4) 0.25944(19)
H4 H 0.4523 0.3692 0.2704
H5 H 0.4725 0.5090 0.2589
C3 C 0.2607(5) 0.4680(4) 0.30819(19)
H6 H 0.3159 0.4797 0.3479
H7 H 0.1879 0.3977 0.3119
C4 C 0.1531(4) 0.5795(3) 0.29392(18)
C5 C 0.0792(4) 0.5630(3) 0.22691(18)
H8 H 0.0115 0.4889 0.2296
C6 C -0.0462(4) 0.6618(3) 0.2078(2)
H9 H -0.1163 0.6826 0.2432
H10 H 0.0146 0.7340 0.1954
C7 C -0.1563(4) 0.6195(4) 0.1547(2)
H11 H -0.2264 0.6883 0.1420
C8 C -0.0527(5) 0.5807(4) 0.0982(2)
C9 C 0.0987(4) 0.4973(4) 0.11574(19)
H12 H 0.0484 0.4194 0.1275
C10 C 0.2069(4) 0.5370(3) 0.17378(18)
C11 C 0.2003(5) 0.4709(6) 0.0568(2)
H13 H 0.2807 0.4070 0.0656
H14 H 0.2629 0.5431 0.0454
C12 C 0.0893(6) 0.4320(6) 0.0015(3)
H15 H 0.1571 0.4307 -0.0360
H16 H 0.0484 0.3503 0.0087
C13 C -0.0599(6) 0.5160(6) -0.0085(2)
C14 C -0.1636(5) 0.5123(5) 0.0512(2)
H17 H -0.1832 0.4294 0.0645
H18 H -0.2709 0.5527 0.0457
C15 C 0.0020(6) 0.6928(5) 0.0592(3)
H19 H 0.1148 0.7181 0.0704
H20 H -0.0743 0.7602 0.0658
C16 C -0.0042(8) 0.6498(8) -0.0101(3)
H21 H -0.0838 0.6981 -0.0336
H22 H 0.1056 0.6573 -0.0293
C17 C -0.1601(7) 0.4790(8) -0.0659(3)
H23 H -0.2504 0.5355 -0.0723
H24 H -0.2054 0.3991 -0.0600
H25 H -0.0877 0.4792 -0.1016
C18 C 0.0098(6) 0.5823(5) 0.3422(2)
H26 H 0.0563 0.5931 0.3830
H27 H -0.0512 0.5072 0.3406
H28 H -0.0648 0.6483 0.3330
C19 C 0.2475(5) 0.6990(4) 0.3025(2)
C20 C 0.3224(5) 0.6457(3) 0.1615(2)
H29 H 0.3835 0.6650 0.1986
H30 H 0.2560 0.7143 0.1492
H31 H 0.4000 0.6257 0.1289
H32 H 0.433(8) 0.731(5) 0.327(3)
loop_
_geom_bond_atom_site_label_1
_geom_bond_atom_site_label_2
_geom_bond_site_symmetry_1
_geom_bond_site_symmetry_2
O1 H1 1_555 1_555
O2 C19 1_555 1_555
O3 C19 1_555 1_555
O4 H2 1_555 1_555
C1 O1 1_555 1_555
H3 C1 1_555 1_555
C2 C1 1_555 1_555
H4 C2 1_555 1_555
H5 C2 1_555 1_555
C3 C2 1_555 1_555
H6 C3 1_555 1_555
H7 C3 1_555 1_555
C4 C3 1_555 1_555
C5 C4 1_555 1_555
H8 C5 1_555 1_555
C6 C5 1_555 1_555
H9 C6 1_555 1_555
H10 C6 1_555 1_555
C7 O4 1_555 1_555
H11 C7 1_555 1_555
C8 C7 1_555 1_555
C9 C8 1_555 1_555
H12 C9 1_555 1_555
C10 C1 1_555 1_555
C11 C9 1_555 1_555
H13 C11 1_555 1_555
H14 C11 1_555 1_555
C12 C11 1_555 1_555
H15 C12 1_555 1_555
H16 C12 1_555 1_555
C13 C12 1_555 1_555
C14 C8 1_555 1_555
H17 C14 1_555 1_555
H18 C14 1_555 1_555
C15 C8 1_555 1_555
H19 C15 1_555 1_555
H20 C15 1_555 1_555
C16 C13 1_555 1_555
H21 C16 1_555 1_555
H22 C16 1_555 1_555
C17 C13 1_555 1_555
H23 C17 1_555 1_555
H24 C17 1_555 1_555
H25 C17 1_555 1_555
C18 C4 1_555 1_555
H26 C18 1_555 1_555
H27 C18 1_555 1_555
H28 C18 1_555 1_555
C19 C4 1_555 1_555
C20 C10 1_555 1_555
H29 C20 1_555 1_555
H30 C20 1_555 1_555
H31 C20 1_555 1_555
H32 O3 1_555 1_555
C5 C10 1_555 1_555
C6 C7 1_555 1_555
C9 C10 1_555 1_555
C13 C14 1_555 1_555
C15 C16 1_555 1_555

#END
