
#######################################################################
#
#                 Cambridge Crystallographic Data Centre
#                                CCDC 
#
#######################################################################
#
# If this CIF has been generated from an entry in the Cambridge 
# Structural Database, then it will include bibliographic, chemical, 
# crystal, experimental, refinement or atomic coordinate data resulting 
# from the CCDC's data processing and validation procedures.
#
#######################################################################

data_VARJOP
_chemical_formula_moiety         'C35 H36 N4 O4'
_chemical_name_systematic        
N-(3',6'-bis(diethylamino)-3-oxospiro[isoindole-1,9'-xanthen]-2(3H)-yl)-2-hydroxybenzamide
_symmetry_cell_setting           triclinic
_symmetry_space_group_name_H-M   'P -1'
_symmetry_Int_Tables_number      2
_space_group_name_Hall           '-P 1'
loop_
_symmetry_equiv_pos_site_id
_symmetry_equiv_pos_as_xyz
1 x,y,z
2 -x,-y,-z
_cell_length_a                   8.9420(18)
_cell_length_b                   13.149(3)
_cell_length_c                   14.670(3)
_cell_angle_alpha                68.23(3)
_cell_angle_beta                 84.59(3)
_cell_angle_gamma                75.23(3)
_cell_volume                     1548.93
_cell_formula_units_Z            2
loop_
_atom_site_label
_atom_site_type_symbol
_atom_site_fract_x
_atom_site_fract_y
_atom_site_fract_z
O1 O 1.23308(19) 0.95694(15) 0.01651(12)
O2 O 1.1688(2) 0.72659(16) 0.13323(14)
O3 O 1.0998(3) 0.6254(2) 0.02502(17)
H1 H 1.1565 0.6394 0.0573
O4 O 0.9290(2) 0.92122(16) 0.44492(13)
N1 N 1.1030(2) 0.92203(18) 0.16518(14)
N2 N 0.9870(2) 0.88403(18) 0.13911(14)
N3 N 1.1275(4) 0.5270(2) 0.6014(2)
N4 N 0.6170(3) 1.2926(2) 0.31089(19)
C1 C 1.2203(3) 0.9538(2) 0.10227(18)
C2 C 1.3209(3) 0.9821(2) 0.15941(18)
C3 C 0.9691(3) 1.0270(2) 0.27263(18)
C4 C 1.4587(3) 1.0153(2) 0.1331(2)
H2 H 1.5008 1.0247 0.0709
C5 C 1.5316(3) 1.0338(3) 0.2023(2)
H3 H 1.6254 1.0545 0.1870
C6 C 1.4671(4) 1.0221(3) 0.2941(2)
H4 H 1.5189 1.0349 0.3394
C7 C 1.3280(3) 0.9920(3) 0.3201(2)
H5 H 1.2839 0.9864 0.3812
C8 C 1.2557(3) 0.9703(2) 0.25161(18)
C9 C 1.1041(3) 0.9341(2) 0.26291(17)
C10 C 1.0338(3) 0.7828(2) 0.12253(18)
C11 C 0.9097(3) 0.7469(2) 0.09092(18)
C12 C 0.9510(5) 0.6694(3) 0.0418(2)
C13 C 0.8337(6) 0.6375(3) 0.0091(3)
H6 H 0.8590 0.5898 -0.0265
C14 C 0.6822(6) 0.6768(4) 0.0297(3)
H7 H 0.6054 0.6545 0.0085
C15 C 0.6413(4) 0.7482(3) 0.0809(3)
H8 H 0.5380 0.7728 0.0954
C16 C 0.7549(4) 0.7838(2) 0.1109(2)
H9 H 0.7268 0.8330 0.1449
C17 C 1.1063(3) 0.8250(2) 0.34897(17)
C18 C 1.1986(3) 0.7212(2) 0.35181(19)
H10 H 1.2572 0.7176 0.2968
C19 C 1.2070(3) 0.6228(3) 0.4332(2)
H11 H 1.2695 0.5554 0.4309
C20 C 1.1225(3) 0.6230(3) 0.5194(2)
C21 C 1.0317(3) 0.7276(3) 0.5175(2)
H12 H 0.9752 0.7322 0.5730
C22 C 1.0239(3) 0.8250(2) 0.43431(19)
C23 C 0.8947(3) 1.0176(2) 0.36195(18)
C24 C 0.7801(3) 1.1042(2) 0.3753(2)
H13 H 0.7349 1.0943 0.4368
C25 C 0.7319(3) 1.2056(3) 0.2980(2)
C26 C 0.8053(4) 1.2168(3) 0.2067(2)
H14 H 0.7752 1.2833 0.1531
C27 C 0.9210(3) 1.1301(3) 0.1958(2)
H15 H 0.9690 1.1406 0.1351
C28 C 1.205(2) 0.4110(12) 0.606(2)
H16 H 1.1948 0.4030 0.5436
H17 H 1.1609 0.3556 0.6572
C29 C 1.3711(19) 0.3965(11) 0.6268(13)
H18 H 1.4296 0.3243 0.6268
H19 H 1.3795 0.4010 0.6899
H20 H 1.4110 0.4550 0.5773
C30 C 1.0907(7) 0.5361(6) 0.7016(4)
H21 H 1.1087 0.6054 0.7025
H22 H 1.1537 0.4727 0.7521
C31 C 0.9199(7) 0.5354(6) 0.7172(6)
H23 H 0.8876 0.5409 0.7798
H24 H 0.9046 0.4665 0.7153
H25 H 0.8600 0.5983 0.6662
C32 C 0.5680(6) 1.4041(4) 0.2301(4)
H26 H 0.6563 1.4265 0.1915
H27 H 0.5161 1.4619 0.2561
C33 C 0.4582(8) 1.3848(7) 0.1688(5)
H28 H 0.4221 1.4532 0.1141
H29 H 0.3718 1.3630 0.2083
H30 H 0.5113 1.3262 0.1451
C34 C 0.5410(14) 1.2812(14) 0.4062(6)
H31 H 0.4884 1.3564 0.4037
H32 H 0.6220 1.2530 0.4551
C35 C 0.4250(14) 1.2075(8) 0.4443(9)
H33 H 0.3864 1.2098 0.5071
H34 H 0.4749 1.1313 0.4510
H35 H 0.3405 1.2353 0.3989
C36? C 1.203(3) 0.4166(16) 0.594(3)
C37? C 1.365(2) 0.3619(13) 0.6329(15)
C38? C 0.9940(11) 0.5241(7) 0.6715(6)
C39? C 1.0448(14) 0.5658(9) 0.7456(7)
C40? C 0.4972(17) 1.3432(11) 0.2306(10)
C41? C 0.489(2) 1.4664(12) 0.1664(13)
C42? C 0.570(4) 1.291(4) 0.4104(15)
C43? C 0.426(4) 1.244(2) 0.426(2)
H36? H 1.2047 0.4255 0.5251
H37? H 1.1389 0.3646 0.6278
H38? H 1.3976 0.2887 0.6280
H39? H 1.3678 0.3545 0.7004
H40? H 1.4339 0.4077 0.5952
H41? H 0.9790 0.4483 0.7031
H42? H 0.8991 0.5738 0.6385
H43? H 0.9656 0.5681 0.7942
H44? H 1.0616 0.6400 0.7121
H45? H 1.1390 0.5154 0.7768
H46? H 0.3966 1.3375 0.2603
H47? H 0.5186 1.2987 0.1888
H48? H 0.4096 1.4919 0.1178
H49? H 0.5868 1.4729 0.1344
H50? H 0.4658 1.5118 0.2066
H51? H 0.6502 1.2430 0.4583
H52? H 0.5455 1.3668 0.4126
H53? H 0.3867 1.2349 0.4914
H54? H 0.4534 1.1716 0.4190
H55? H 0.3487 1.2944 0.3790
loop_
_geom_bond_atom_site_label_1
_geom_bond_atom_site_label_2
_geom_bond_site_symmetry_1
_geom_bond_site_symmetry_2
O1 C1 1_555 1_555
O2 C10 1_555 1_555
O3 H1 1_555 1_555
O4 C22 1_555 1_555
N1 N2 1_555 1_555
N2 C10 1_555 1_555
N3 C20 1_555 1_555
N4 C25 1_555 1_555
C1 N1 1_555 1_555
C2 C1 1_555 1_555
C3 C9 1_555 1_555
C4 C2 1_555 1_555
H2 C4 1_555 1_555
C5 C4 1_555 1_555
H3 C5 1_555 1_555
C6 C5 1_555 1_555
H4 C6 1_555 1_555
C7 C6 1_555 1_555
H5 C7 1_555 1_555
C8 C2 1_555 1_555
C9 N1 1_555 1_555
C10 C11 1_555 1_555
C11 C12 1_555 1_555
C12 O3 1_555 1_555
C13 C12 1_555 1_555
H6 C13 1_555 1_555
C14 C13 1_555 1_555
H7 C14 1_555 1_555
C15 C14 1_555 1_555
H8 C15 1_555 1_555
C16 C11 1_555 1_555
H9 C16 1_555 1_555
C17 C9 1_555 1_555
C18 C17 1_555 1_555
H10 C18 1_555 1_555
C19 C18 1_555 1_555
H11 C19 1_555 1_555
C20 C19 1_555 1_555
C21 C20 1_555 1_555
H12 C21 1_555 1_555
C22 C17 1_555 1_555
C23 O4 1_555 1_555
C24 C23 1_555 1_555
H13 C24 1_555 1_555
C25 C24 1_555 1_555
C26 C25 1_555 1_555
H14 C26 1_555 1_555
C27 C3 1_555 1_555
H15 C27 1_555 1_555
C28 N3 1_555 1_555
H16 C28 1_555 1_555
H17 C28 1_555 1_555
C29 C28 1_555 1_555
H18 C29 1_555 1_555
H19 C29 1_555 1_555
H20 C29 1_555 1_555
C30 N3 1_555 1_555
H21 C30 1_555 1_555
H22 C30 1_555 1_555
C31 C30 1_555 1_555
H23 C31 1_555 1_555
H24 C31 1_555 1_555
H25 C31 1_555 1_555
C32 N4 1_555 1_555
H26 C32 1_555 1_555
H27 C32 1_555 1_555
C33 C32 1_555 1_555
H28 C33 1_555 1_555
H29 C33 1_555 1_555
H30 C33 1_555 1_555
C34 N4 1_555 1_555
H31 C34 1_555 1_555
H32 C34 1_555 1_555
C35 C34 1_555 1_555
H33 C35 1_555 1_555
H34 C35 1_555 1_555
H35 C35 1_555 1_555
C3 C23 1_555 1_555
C7 C8 1_555 1_555
C8 C9 1_555 1_555
C15 C16 1_555 1_555
C21 C22 1_555 1_555
C26 C27 1_555 1_555

#END
