
#######################################################################
#
#                 Cambridge Crystallographic Data Centre
#                                CCDC 
#
#######################################################################
#
# If this CIF has been generated from an entry in the Cambridge 
# Structural Database, then it will include bibliographic, chemical, 
# crystal, experimental, refinement or atomic coordinate data resulting 
# from the CCDC's data processing and validation procedures.
#
#######################################################################

data_VARKEE10
_chemical_formula_moiety         '4(C14 H4 O6 1-),C14 H4 O6,2(C12 H12 N2 2+)'
_chemical_name_systematic        
'bis(2,5-Dihydro-4a,6a-phenanthrolene dionium) pentakis(1,4,5,8-naphthalene tetracarboxylic dianhydride)'
_symmetry_cell_setting           triclinic
_symmetry_space_group_name_H-M   'P -1'
_symmetry_Int_Tables_number      2
_space_group_name_Hall           '-P 1'
loop_
_symmetry_equiv_pos_site_id
_symmetry_equiv_pos_as_xyz
1 x,y,z
2 -x,-y,-z
_cell_length_a                   8.935(1)
_cell_length_b                   12.785(2)
_cell_length_c                   15.995(2)
_cell_angle_alpha                112.38(2)
_cell_angle_beta                 92.03(1)
_cell_angle_gamma                93.68(1)
_cell_volume                     1682.51
_exptl_crystal_colour            'blue black'
_cell_formula_units_Z            1
loop_
_atom_site_label
_atom_site_type_symbol
_atom_site_fract_x
_atom_site_fract_y
_atom_site_fract_z
O1 O 0.1649(2) 0.2957(1) 0.2131(1)
C1 C 0.0846(3) 0.2083(2) 0.1795(1)
O2 O -0.0684(2) 0.2173(1) 0.19001(9)
C2 C -0.1784(2) 0.1264(2) 0.1622(1)
O3 O -0.3054(2) 0.1499(1) 0.1803(1)
C3 C 0.2838(2) 0.0814(2) 0.1155(1)
C4 C 0.1323(2) 0.0967(2) 0.1313(1)
C5 C 0.0236(2) 0.0031(1) 0.1007(1)
C6 C -0.1294(2) 0.0150(2) 0.1156(1)
C7 C -0.2340(2) -0.0811(2) 0.0861(1)
C8 C 0.3291(2) -0.0250(2) 0.0709(1)
C9 C 0.2243(2) -0.1197(2) 0.0401(2)
C10 C 0.0707(2) -0.1076(1) 0.0549(1)
C11 C -0.0368(2) -0.2014(2) 0.0256(1)
C12 C -0.1879(2) -0.1873(2) 0.0424(1)
O4 O 0.4004(2) -0.2557(1) -0.0226(1)
C13 C 0.2729(3) -0.2322(2) -0.0063(1)
O5 O 0.1645(2) -0.3222(1) -0.0350(1)
C14 C 0.0130(3) -0.3141(2) -0.0201(2)
O6 O -0.0656(2) -0.4016(1) -0.0476(1)
H1 H 0.435(2) -0.036(2) 0.059(1)
H2 H 0.359(2) 0.148(2) 0.139(1)
H3 H -0.268(3) -0.258(2) 0.020(1)
H4 H -0.341(2) -0.071(2) 0.099(1)
O7 O 0.1453(2) -0.2746(1) 0.1759(1)
C15 C 0.2172(2) -0.1859(2) 0.2187(1)
O8 O 0.3721(2) -0.1870(1) 0.21850(9)
C16 C 0.4747(2) -0.0933(2) 0.2606(1)
O9 O 0.6058(2) -0.1120(1) 0.2570(1)
C17 C 0.0029(2) -0.0729(2) 0.2755(1)
C18 C 0.1568(2) -0.0786(2) 0.2689(1)
C19 C 0.2573(2) 0.0197(1) 0.3075(1)
C20 C 0.4143(2) 0.0154(2) 0.3037(1)
C21 C 0.5104(2) 0.1139(2) 0.3440(1)
C22 C -0.0544(2) 0.0303(2) 0.3200(1)
C23 C 0.0409(2) 0.1291(2) 0.3576(1)
C24 C 0.1980(2) 0.1257(1) 0.3523(1)
C25 C 0.2979(2) 0.2239(2) 0.3904(1)
C26 C 0.4528(2) 0.2171(2) 0.3872(1)
O10 O -0.1495(2) 0.2559(1) 0.4124(1)
C27 C -0.0193(2) 0.2381(2) 0.4025(1)
O11 O 0.0831(2) 0.3335(1) 0.43705(9)
C28 C 0.2376(2) 0.3330(2) 0.4320(1)
O12 O 0.3077(2) 0.4244(1) 0.4631(1)
H5 H -0.164(2) 0.034(2) 0.326(1)
H6 H -0.065(2) -0.148(2) 0.246(1)
H7 H 0.520(2) 0.288(2) 0.419(1)
H8 H 0.623(2) 0.107(2) 0.341(1)
O13 O 0.8716(2) -0.1911(1) 0.4213(1)
C29 C 0.7417(2) -0.1706(2) 0.4278(1)
O14 O 0.6359(2) -0.2640(1) 0.38903(9)
C30 C 0.4813(2) -0.2599(2) 0.3908(1)
O15 O 0.4075(2) -0.3492(1) 0.3529(1)
C31 C 0.7832(2) 0.0366(2) 0.5122(1)
C32 C 0.6843(2) -0.0608(2) 0.4723(1)
C33 C 0.5277(2) -0.0538(1) 0.4769(1)
C34 C 0.4249(2) -0.1503(2) 0.4376(1)
C35 C 0.7301(2) 0.1409(2) 0.5569(1)
H9 H 0.890(2) 0.032(2) 0.509(1)
H10 H 0.798(2) 0.211(2) 0.583(1)
C33A C 0.4723(2) 0.0538(1) 0.5231(1)
C35A C 0.2699(2) -0.1409(2) 0.4431(1)
C34A C 0.5751(2) 0.1503(2) 0.5624(1)
C32A C 0.3157(2) 0.0608(2) 0.5277(1)
C31A C 0.2168(2) -0.0366(2) 0.4878(1)
H10A H 0.202(2) -0.211(2) 0.417(1)
C30A C 0.5187(2) 0.2599(2) 0.6092(1)
C29A C 0.2583(2) 0.1706(2) 0.5722(1)
H9A H 0.110(2) -0.032(2) 0.491(1)
O14A O 0.3641(2) 0.2640(1) 0.61097(9)
O15A O 0.5925(2) 0.3492(1) 0.6471(1)
O13A O 0.1284(2) 0.1911(1) 0.5787(1)
N1 N 0.5309(2) -0.5392(1) 0.1939(1)
C36 C 0.6528(2) -0.4709(2) 0.1938(1)
C37 C 0.6411(3) -0.3979(2) 0.1497(1)
C38 C 0.5064(3) -0.3961(2) 0.1050(1)
C39 C 0.3849(3) -0.4670(2) 0.1056(2)
C40 C 0.3988(2) -0.5385(2) 0.1506(1)
C41 C 0.5450(3) -0.6178(2) 0.2412(2)
C42 C 0.6366(3) -0.5576(2) 0.3288(1)
N2 N 0.7844(2) -0.5142(1) 0.3110(1)
C43 C 0.9070(2) -0.5119(2) 0.3629(1)
C44 C 1.0444(3) -0.4704(2) 0.3488(2)
C45 C 1.0568(3) -0.4338(2) 0.2792(2)
C46 C 0.9299(2) -0.4366(2) 0.2253(1)
C47 C 0.7927(2) -0.4748(2) 0.2431(1)
H11 H 0.729(2) -0.348(2) 0.151(1)
H12 H 0.496(3) -0.341(2) 0.074(2)
H13 H 0.287(3) -0.465(2) 0.076(2)
H14 H 0.317(3) -0.589(2) 0.157(1)
H15 H 0.890(2) -0.543(2) 0.412(1)
H16 H 1.132(3) -0.470(2) 0.388(1)
H17 H 1.156(3) -0.404(2) 0.264(2)
H18 H 0.933(3) -0.410(2) 0.173(2)
H19 H 0.598(3) -0.684(2) 0.200(1)
H20 H 0.440(2) -0.642(2) 0.253(1)
H21 H 0.660(3) -0.610(2) 0.359(2)
H22 H 0.585(3) -0.492(2) 0.372(1)
loop_
_geom_bond_atom_site_label_1
_geom_bond_atom_site_label_2
_geom_bond_site_symmetry_1
_geom_bond_site_symmetry_2
O1 C1 1_555 1_555
C1 O2 1_555 1_555
O2 C2 1_555 1_555
C2 O3 1_555 1_555
C3 C4 1_555 1_555
C4 C1 1_555 1_555
C5 C4 1_555 1_555
C6 C2 1_555 1_555
C7 C6 1_555 1_555
C8 C3 1_555 1_555
C9 C8 1_555 1_555
C10 C5 1_555 1_555
C11 C10 1_555 1_555
C12 C7 1_555 1_555
O4 C13 1_555 1_555
C13 C9 1_555 1_555
O5 C13 1_555 1_555
C14 C11 1_555 1_555
O6 C14 1_555 1_555
H1 C8 1_555 1_555
H2 C3 1_555 1_555
H3 C12 1_555 1_555
H4 C7 1_555 1_555
O7 C15 1_555 1_555
C15 O8 1_555 1_555
O8 C16 1_555 1_555
C16 O9 1_555 1_555
C17 C18 1_555 1_555
C18 C15 1_555 1_555
C19 C18 1_555 1_555
C20 C16 1_555 1_555
C21 C20 1_555 1_555
C22 C17 1_555 1_555
C23 C22 1_555 1_555
C24 C19 1_555 1_555
C25 C24 1_555 1_555
C26 C21 1_555 1_555
O10 C27 1_555 1_555
C27 C23 1_555 1_555
O11 C27 1_555 1_555
C28 C25 1_555 1_555
O12 C28 1_555 1_555
H5 C22 1_555 1_555
H6 C17 1_555 1_555
H7 C26 1_555 1_555
H8 C21 1_555 1_555
O13 C29 1_555 1_555
C29 O14 1_555 1_555
O14 C30 1_555 1_555
C30 O15 1_555 1_555
C31 C32 1_555 1_555
C32 C29 1_555 1_555
C33 C32 1_555 1_555
C34 C30 1_555 1_555
C35 C31 1_555 1_555
H9 C31 1_555 1_555
H10 C35 1_555 1_555
N1 C36 1_555 1_555
C36 C37 1_555 1_555
C37 C38 1_555 1_555
C38 C39 1_555 1_555
C39 C40 1_555 1_555
C40 N1 1_555 1_555
C41 N1 1_555 1_555
C42 C41 1_555 1_555
N2 C42 1_555 1_555
C43 N2 1_555 1_555
C44 C43 1_555 1_555
C45 C44 1_555 1_555
C46 C45 1_555 1_555
C47 C36 1_555 1_555
H11 C37 1_555 1_555
H12 C38 1_555 1_555
H13 C39 1_555 1_555
H14 C40 1_555 1_555
H15 C43 1_555 1_555
H16 C44 1_555 1_555
H17 C45 1_555 1_555
H18 C46 1_555 1_555
H19 C41 1_555 1_555
H20 C41 1_555 1_555
H21 C42 1_555 1_555
H22 C42 1_555 1_555
C33A C33 1_555 1_555
C35A C34 1_555 1_555
C34A C35 1_555 1_555
C32A C33A 1_555 1_555
C31A C35A 1_555 1_555
H10A C35A 1_555 1_555
C30A C34A 1_555 1_555
C29A C32A 1_555 1_555
H9A C31A 1_555 1_555
O14A C30A 1_555 1_555
O15A C30A 1_555 1_555
O13A C29A 1_555 1_555
C5 C6 1_555 1_555
C9 C10 1_555 1_555
C11 C12 1_555 1_555
O5 C14 1_555 1_555
C19 C20 1_555 1_555
C23 C24 1_555 1_555
C25 C26 1_555 1_555
O11 C28 1_555 1_555
C33 C34 1_555 1_555
N2 C47 1_555 1_555
C46 C47 1_555 1_555
C33A C34A 1_555 1_555
C32A C31A 1_555 1_555
C29A O14A 1_555 1_555

#END
