
#######################################################################
#
#                 Cambridge Crystallographic Data Centre
#                                CCDC 
#
#######################################################################
#
# If this CIF has been generated from an entry in the Cambridge 
# Structural Database, then it will include bibliographic, chemical, 
# crystal, experimental, refinement or atomic coordinate data resulting 
# from the CCDC's data processing and validation procedures.
#
#######################################################################

data_VARLEH
_chemical_compound_source        
'stem bark of Chukrasia tabularis var. velutina'
_chemical_name_common            'Chuktabrin C methanol solvate'
_chemical_formula_moiety         'C38 H46 O18,C1 H4 O1'
_chemical_name_systematic        
'Methyl acetoxy(17,18-diacetoxy-19-(acetoxy(3-furyl)methyl)-10-ethyl-3,6,7-trihydroxy-2,5,19-trimethyl-15-oxo-9,14,16-trioxahexacyclo[10.4.3.1^2,5^.0^1,13^.0^3,7^.0^8,13^]icos-10-en-20-yl)acetate methanol solvate'
_symmetry_cell_setting           orthorhombic
_symmetry_space_group_name_H-M   'P 21 21 21'
_symmetry_Int_Tables_number      19
_space_group_name_Hall           'P 2ac 2ab'
loop_
_symmetry_equiv_pos_site_id
_symmetry_equiv_pos_as_xyz
1 x,y,z
2 1/2-x,-y,1/2+z
3 1/2+x,1/2-y,-z
4 -x,1/2+y,1/2-z
_cell_length_a                   11.07500(10)
_cell_length_b                   18.18310(10)
_cell_length_c                   19.21880(10)
_cell_angle_alpha                90
_cell_angle_beta                 90
_cell_angle_gamma                90
_cell_volume                     3870.24
_exptl_crystal_colour            colorless
_exptl_crystal_description       block
_cell_formula_units_Z            4
loop_
_atom_site_label
_atom_site_type_symbol
_atom_site_fract_x
_atom_site_fract_y
_atom_site_fract_z
O1 O 0.50168(10) 0.88218(6) 0.17846(6)
O2 O 0.01938(11) 0.75082(8) 0.26963(6)
O3 O 0.28401(10) 0.93514(6) 0.20697(6)
O4 O 0.54758(14) 0.66898(7) 0.30002(8)
O5 O 0.17694(12) 0.93891(7) 0.35089(7)
H1 H 0.1057 0.9334 0.3614
O6 O 0.20502(11) 0.63076(7) 0.13944(7)
O7 O 0.59242(11) 0.83501(7) 0.39531(6)
O8 O 0.32747(11) 0.87647(6) 0.07414(6)
O9 O 0.10044(10) 0.88896(6) 0.22100(6)
O10 O 0.12393(14) 1.00863(7) 0.19683(9)
O11 O 0.50591(15) 0.89093(9) 0.01976(9)
O12 O 0.04156(12) 0.82404(9) 0.37910(7)
H2 H -0.0122 0.8148 0.3511
O13 O 0.23712(15) 0.67358(7) 0.36860(8)
H3 H 0.1745 0.6498 0.3721
O14 O 0.63524(13) 0.79246(9) 0.15806(9)
O15 O 0.66402(17) 0.69204(9) 0.39285(9)
O16 O 0.57768(18) 0.59799(10) 0.05342(13)
C1 C 0.30780(14) 0.67950(8) 0.13447(8)
H4 H 0.3412 0.6874 0.1811
O17 O 0.3016(2) 0.56436(11) 0.21954(12)
C2 C 0.22200(17) 0.74438(11) 0.02890(8)
H5 H 0.2918 0.7360 0.0003
H6 H 0.1810 0.7879 0.0134
H7 H 0.1685 0.7030 0.0255
C3 C 0.40623(13) 0.82845(8) 0.18206(8)
H8 H 0.4387 0.7838 0.2037
C4 C 0.21991(17) 0.74413(10) 0.39753(9)
H9 H 0.1750 0.7392 0.4412
O18 O 0.76706(15) 0.84508(12) 0.33685(10)
C5 C 0.42838(16) 0.93404(8) 0.31922(9)
H10 H 0.4574 0.9359 0.3663
H11 H 0.3819 0.9774 0.3095
H12 H 0.4957 0.9315 0.2879
C6 C 0.14238(14) 0.77309(9) 0.27552(8)
H13 H 0.1925 0.7288 0.2718
C7 C -0.01905(14) 0.72922(9) 0.20465(9)
C8 C 0.26170(14) 0.75438(8) 0.10525(8)
C9 C -0.13227(16) 0.68420(11) 0.21139(10)
H14 H -0.1969 0.7160 0.2274
H15 H -0.1194 0.6470 0.2468
C10 C 0.15521(15) 0.80278(10) 0.35062(8)
C11 C 0.30781(13) 0.86013(8) 0.23032(8)
C12 C 0.34186(16) 0.78093(9) 0.41285(8)
C13 C 0.23871(15) 0.87163(9) 0.35911(8)
C14 C 0.34820(14) 0.86533(8) 0.30967(8)
C15 C 0.16554(16) 0.94911(9) 0.20782(9)
C16 C 0.40709(18) 0.91335(10) 0.03414(9)
C17 C 0.54479(15) 0.78972(9) 0.34056(9)
H16 H 0.5740 0.8090 0.2960
C18 C 0.17979(13) 0.82481(8) 0.21796(8)
C19 C 0.41005(19) 0.73955(12) 0.46918(9)
H17 H 0.3632 0.7393 0.5112
H18 H 0.4860 0.7633 0.4777
H19 H 0.4240 0.6899 0.4543
C20 C 0.2140(2) 0.57486(10) 0.18454(12)
C21 C 0.15476(14) 0.79079(8) 0.14510(8)
H20 H 0.1332 0.8332 0.1162
C22 C 0.61473(16) 0.85648(12) 0.16395(9)
C23 C 0.36734(14) 0.80952(8) 0.10787(8)
H21 H 0.4364 0.7892 0.0824
C24 C 0.59366(17) 0.71177(10) 0.34940(10)
C25 C 0.29512(17) 0.85792(10) 0.43066(8)
H22 H 0.2359 0.8575 0.4678
H23 H 0.3596 0.8922 0.4414
C26 C 0.40090(17) 0.64230(9) 0.09021(10)
C27 C 0.04091(14) 0.74585(10) 0.14749(9)
H24 H 0.0105 0.7285 0.1055
C28 C 0.40597(14) 0.79232(8) 0.34007(8)
H25 H 0.3789 0.7520 0.3100
C29 C -0.17253(19) 0.64677(13) 0.14528(13)
H26 H -0.2031 0.6829 0.1134
H27 H -0.2349 0.6119 0.1558
H28 H -0.1052 0.6217 0.1246
C30 C 0.3530(3) 0.98455(12) 0.01075(12)
H29 H 0.2954 0.9753 -0.0256
H30 H 0.4156 1.0162 -0.0065
H31 H 0.3132 1.0078 0.0493
C31 C 0.5786(3) 0.59223(12) 0.30242(17)
H32 H 0.5520 0.5687 0.2604
H33 H 0.5398 0.5697 0.3417
H34 H 0.6645 0.5871 0.3068
C32 C 0.1034(2) 0.52796(13) 0.18252(19)
H35 H 0.1221 0.4799 0.2003
H36 H 0.0755 0.5238 0.1354
H37 H 0.0415 0.5500 0.2106
C33 C 0.3811(3) 0.59936(13) 0.02962(13)
H38 H 0.3077 0.5900 0.0078
C34 C 0.7436(2) 0.90744(13) 0.44543(14)
H39 H 0.7025 0.9538 0.4421
H40 H 0.8293 0.9154 0.4436
H41 H 0.7230 0.8841 0.4886
C35 C 0.7027(2) 0.91830(16) 0.15805(15)
H43 H 0.7830 0.8989 0.1545
H44 H 0.6969 0.9490 0.1985
H45 H 0.6847 0.9468 0.1173
C36 C 0.70673(18) 0.85957(11) 0.38661(11)
C37 C 0.5204(2) 0.63903(13) 0.10213(15)
H46 H 0.5589 0.6621 0.1392
C39 C 0.4915(3) 0.57496(15) 0.01024(16)
H50 H 0.5055 0.5456 -0.0286
O19 O 0.0445(3) 0.58171(19) 0.38141(18)
H42 H 0.0147 0.5499 0.3565
C38 C -0.0374(3) 0.61853(19) 0.40893(17)
H47 H -0.0051 0.6457 0.4475
H48 H -0.0999 0.5862 0.4251
H49 H -0.0704 0.6521 0.3754
loop_
_geom_bond_atom_site_label_1
_geom_bond_atom_site_label_2
_geom_bond_site_symmetry_1
_geom_bond_site_symmetry_2
O1 C3 1_555 1_555
O2 C6 1_555 1_555
O3 C11 1_555 1_555
O4 C24 1_555 1_555
O5 H1 1_555 1_555
O6 C1 1_555 1_555
O7 C17 1_555 1_555
O8 C16 1_555 1_555
O9 C15 1_555 1_555
O10 C15 1_555 1_555
O11 C16 1_555 1_555
O12 H2 1_555 1_555
O13 H3 1_555 1_555
O14 C22 1_555 1_555
O15 C24 1_555 1_555
O16 C37 1_555 1_555
C1 H4 1_555 1_555
O17 C20 1_555 1_555
C2 H5 1_555 1_555
H6 C2 1_555 1_555
H7 C2 1_555 1_555
C3 H8 1_555 1_555
C4 O13 1_555 1_555
H9 C4 1_555 1_555
O18 C36 1_555 1_555
C5 H10 1_555 1_555
H11 C5 1_555 1_555
H12 C5 1_555 1_555
C6 H13 1_555 1_555
C7 O2 1_555 1_555
C8 C1 1_555 1_555
C9 C7 1_555 1_555
H14 C9 1_555 1_555
H15 C9 1_555 1_555
C10 O12 1_555 1_555
C11 C3 1_555 1_555
C12 C4 1_555 1_555
C13 O5 1_555 1_555
C14 C5 1_555 1_555
C15 O3 1_555 1_555
C16 C30 1_555 1_555
C17 H16 1_555 1_555
C18 O9 1_555 1_555
C19 C12 1_555 1_555
H17 C19 1_555 1_555
H18 C19 1_555 1_555
H19 C19 1_555 1_555
C20 O6 1_555 1_555
C21 C8 1_555 1_555
H20 C21 1_555 1_555
C22 O1 1_555 1_555
C23 O8 1_555 1_555
H21 C23 1_555 1_555
C24 C17 1_555 1_555
C25 C12 1_555 1_555
H22 C25 1_555 1_555
H23 C25 1_555 1_555
C26 C1 1_555 1_555
C27 C7 1_555 1_555
H24 C27 1_555 1_555
C28 C12 1_555 1_555
H25 C28 1_555 1_555
C29 C9 1_555 1_555
H26 C29 1_555 1_555
H27 C29 1_555 1_555
H28 C29 1_555 1_555
C30 H29 1_555 1_555
H30 C30 1_555 1_555
H31 C30 1_555 1_555
C31 O4 1_555 1_555
H32 C31 1_555 1_555
H33 C31 1_555 1_555
H34 C31 1_555 1_555
C32 C20 1_555 1_555
H35 C32 1_555 1_555
H36 C32 1_555 1_555
H37 C32 1_555 1_555
C33 C26 1_555 1_555
H38 C33 1_555 1_555
C34 H39 1_555 1_555
H40 C34 1_555 1_555
H41 C34 1_555 1_555
O19 H42 1_555 1_555
C35 C22 1_555 1_555
H43 C35 1_555 1_555
H44 C35 1_555 1_555
H45 C35 1_555 1_555
C36 O7 1_555 1_555
C37 C26 1_555 1_555
H46 C37 1_555 1_555
C38 O19 1_555 1_555
H47 C38 1_555 1_555
H48 C38 1_555 1_555
H49 C38 1_555 1_555
C39 O16 1_555 1_555
H50 C39 1_555 1_555
C2 C8 1_555 1_555
C3 C23 1_555 1_555
C4 C10 1_555 1_555
C6 C10 1_555 1_555
C6 C18 1_555 1_555
C8 C23 1_555 1_555
C10 C13 1_555 1_555
C11 C14 1_555 1_555
C11 C18 1_555 1_555
C13 C14 1_555 1_555
C13 C25 1_555 1_555
C14 C28 1_555 1_555
C17 C28 1_555 1_555
C18 C21 1_555 1_555
C21 C27 1_555 1_555
C33 C39 1_555 1_555
C34 C36 1_555 1_555

#END
