
#######################################################################
#
#                 Cambridge Crystallographic Data Centre
#                                CCDC 
#
#######################################################################
#
# If this CIF has been generated from an entry in the Cambridge 
# Structural Database, then it will include bibliographic, chemical, 
# crystal, experimental, refinement or atomic coordinate data resulting 
# from the CCDC's data processing and validation procedures.
#
#######################################################################

data_VARLUX
_chemical_formula_moiety         'C25 H18 B1 N1 O1 S1'
_chemical_name_systematic        
6,6-Diphenyl-6H-[1,3]benzothiazolo[3,2-c][1,3,2]benzoxazaborinine
_symmetry_cell_setting           monoclinic
_symmetry_space_group_name_H-M   'P 21/c'
_symmetry_Int_Tables_number      14
_space_group_name_Hall           '-P 2ybc'
loop_
_symmetry_equiv_pos_site_id
_symmetry_equiv_pos_as_xyz
1 x,y,z
2 -x,1/2+y,1/2-z
3 -x,-y,-z
4 x,1/2-y,1/2+z
_cell_length_a                   9.781(2)
_cell_length_b                   13.651(3)
_cell_length_c                   16.457(5)
_cell_angle_alpha                90
_cell_angle_beta                 114.07(2)
_cell_angle_gamma                90
_cell_volume                     2006.28
_cell_formula_units_Z            4
loop_
_atom_site_label
_atom_site_type_symbol
_atom_site_fract_x
_atom_site_fract_y
_atom_site_fract_z
B1 B 0.7144(3) 0.8636(2) 0.85297(19)
C1 C 0.7100(2) 0.91094(16) 0.76230(16)
C2 C 0.7443(3) 0.85739(18) 0.70075(17)
H1 H 0.7759 0.7928 0.7140
C3 C 0.7330(3) 0.8967(2) 0.62083(19)
H2 H 0.7558 0.8584 0.5813
C4 C 0.6888(3) 0.9913(2) 0.5998(2)
H3 H 0.6792 1.0175 0.5456
C5 C 0.6585(3) 1.0472(2) 0.6594(2)
H4 H 0.6307 1.1124 0.6461
C6 C 0.6689(3) 1.00777(19) 0.7398(2)
H5 H 0.6477 1.0473 0.7792
C7 C 0.7887(2) 0.75614(18) 0.87617(16)
C8 C 0.7152(3) 0.67032(19) 0.8775(2)
H6 H 0.6146 0.6730 0.8675
C9 C 0.7867(4) 0.5799(2) 0.8933(2)
H7 H 0.7348 0.5235 0.8952
C10 C 0.9347(4) 0.5739(3) 0.9060(2)
H8 H 0.9821 0.5133 0.9149
C11 C 1.0113(3) 0.6572(3) 0.9055(2)
H9 H 1.1112 0.6539 0.9141
C12 C 0.9399(3) 0.7458(2) 0.89220(19)
H10 H 0.9947 0.8020 0.8939
C13 C 0.7813(2) 0.92576(16) 1.00417(17)
C14 C 0.8996(3) 0.95482(19) 1.08266(19)
H11 H 0.9875 0.9788 1.0811
C15 C 0.8859(3) 0.9480(2) 1.16186(19)
H12 H 0.9656 0.9668 1.2140
C16 C 0.7557(3) 0.9136(2) 1.1659(2)
H13 H 0.7483 0.9095 1.2204
C17 C 0.6376(3) 0.8857(2) 1.08938(19)
H14 H 0.5495 0.8636 1.0919
C18 C 0.6490(2) 0.89022(16) 1.00772(16)
C19 C 0.5273(2) 0.86470(16) 0.92484(16)
C20 C 0.2909(3) 0.82022(18) 0.80179(18)
C21 C 0.1486(3) 0.7945(2) 0.7390(2)
H15 H 0.0677 0.7909 0.7548
C22 C 0.1310(3) 0.7750(2) 0.6544(2)
H16 H 0.0370 0.7577 0.6120
C23 C 0.2514(3) 0.7806(2) 0.6302(2)
H17 H 0.2372 0.7657 0.5721
C24 C 0.3918(3) 0.8078(2) 0.69116(19)
H18 H 0.4718 0.8119 0.6746
C25 C 0.4111(2) 0.82883(16) 0.77745(17)
N1 N 0.54459(19) 0.85556(13) 0.84957(13)
O1 O 0.79212(16) 0.93485(12) 0.92603(11)
S1 S 0.34687(7) 0.84423(5) 0.91413(5)
loop_
_geom_bond_atom_site_label_1
_geom_bond_atom_site_label_2
_geom_bond_site_symmetry_1
_geom_bond_site_symmetry_2
B1 C1 1_555 1_555
C1 C2 1_555 1_555
C2 H1 1_555 1_555
C3 C2 1_555 1_555
H2 C3 1_555 1_555
C4 C3 1_555 1_555
H3 C4 1_555 1_555
C5 C4 1_555 1_555
H4 C5 1_555 1_555
C6 C1 1_555 1_555
H5 C6 1_555 1_555
C7 B1 1_555 1_555
C8 C7 1_555 1_555
H6 C8 1_555 1_555
C9 C8 1_555 1_555
H7 C9 1_555 1_555
C10 C9 1_555 1_555
H8 C10 1_555 1_555
C11 C10 1_555 1_555
H9 C11 1_555 1_555
C12 C7 1_555 1_555
H10 C12 1_555 1_555
C13 C14 1_555 1_555
C14 H11 1_555 1_555
C15 C14 1_555 1_555
H12 C15 1_555 1_555
C16 C15 1_555 1_555
H13 C16 1_555 1_555
C17 C16 1_555 1_555
H14 C17 1_555 1_555
C18 C13 1_555 1_555
C19 C18 1_555 1_555
C20 C21 1_555 1_555
C21 H15 1_555 1_555
C22 C21 1_555 1_555
H16 C22 1_555 1_555
C23 C22 1_555 1_555
H17 C23 1_555 1_555
C24 C23 1_555 1_555
H18 C24 1_555 1_555
C25 C20 1_555 1_555
N1 B1 1_555 1_555
O1 B1 1_555 1_555
S1 C19 1_555 1_555
C5 C6 1_555 1_555
C11 C12 1_555 1_555
C13 O1 1_555 1_555
C17 C18 1_555 1_555
C19 N1 1_555 1_555
C20 S1 1_555 1_555
C24 C25 1_555 1_555
C25 N1 1_555 1_555

#END
