
#######################################################################
#
#                 Cambridge Crystallographic Data Centre
#                                CCDC 
#
#######################################################################
#
# If this CIF has been generated from an entry in the Cambridge 
# Structural Database, then it will include bibliographic, chemical, 
# crystal, experimental, refinement or atomic coordinate data resulting 
# from the CCDC's data processing and validation procedures.
#
#######################################################################

data_VARMOS
_chemical_formula_moiety         'C30 H34 Cl2 N2'
_chemical_name_systematic        
2,8-Dichloro-5,11-dihexyl-5,11-dihydroindolo[3,2-b]carbazole
_symmetry_cell_setting           monoclinic
_symmetry_space_group_name_H-M   'P 21/n'
_symmetry_Int_Tables_number      14
_space_group_name_Hall           '-P 2yn'
loop_
_symmetry_equiv_pos_site_id
_symmetry_equiv_pos_as_xyz
1 x,y,z
2 1/2-x,1/2+y,1/2-z
3 -x,-y,-z
4 1/2+x,1/2-y,1/2+z
_cell_length_a                   16.759(5)
_cell_length_b                   4.4914(14)
_cell_length_c                   18.515(7)
_cell_angle_alpha                90
_cell_angle_beta                 114.283(5)
_cell_angle_gamma                90
_cell_volume                     1270.35
_exptl_crystal_colour            yellow
_exptl_crystal_description       platelet
_cell_formula_units_Z            2
loop_
_atom_site_label
_atom_site_type_symbol
_atom_site_fract_x
_atom_site_fract_y
_atom_site_fract_z
Cl1 Cl 0.59331(4) 0.28906(15) 0.23686(4)
N1 N 0.86182(12) -0.2783(4) 0.51579(11)
C1 C 0.75828(15) 0.1787(5) 0.34267(13)
H1 H 0.7766 0.3114 0.3125
C2 C 0.87659(16) -0.2929(5) 0.79133(13)
H2 H 0.9297 -0.1677 0.8071
H3 H 0.8255 -0.1582 0.7764
C3 C 0.97642(14) 0.2001(5) 0.43327(13)
H4 H 0.9611 0.3309 0.3893
C4 C 0.86470(16) -0.2868(5) 0.65012(13)
H5 H 0.9176 -0.1596 0.6685
H6 H 0.8130 -0.1541 0.6333
C5 C 0.78991(15) -0.1614(5) 0.45366(13)
C6 C 0.81878(14) 0.0374(5) 0.41002(13)
C7 C 0.86022(15) -0.4676(5) 0.57878(13)
H7 H 0.9104 -0.6067 0.5957
H8 H 0.8058 -0.5873 0.5584
C8 C 0.91334(14) 0.0454(5) 0.44923(12)
C9 C 0.93745(14) -0.1522(5) 0.51493(13)
C10 C 0.64191(15) -0.0743(6) 0.36488(14)
H9 H 0.5810 -0.1071 0.3486
C11 C 0.86740(16) -0.4778(5) 0.71915(13)
H10 H 0.9173 -0.6177 0.7344
H11 H 0.8130 -0.5971 0.7018
C12 C 0.70119(15) -0.2178(5) 0.43139(14)
H12 H 0.6820 -0.3505 0.4610
C13 C 0.67077(15) 0.1184(5) 0.32144(13)
C14 C 0.88281(18) -0.4786(6) 0.86183(14)
H13 H 0.9336 -0.6144 0.8767
H14 H 0.8295 -0.6026 0.8463
C15 C 0.8927(2) -0.2916(7) 0.93370(15)
H15 H 0.8950 -0.4227 0.9768
H16 H 0.8426 -0.1565 0.9195
H17 H 0.9468 -0.1751 0.9510
Cl1B Cl 1.40669(4) -0.28906(15) 0.76314(4)
N1B N 1.13818(12) 0.2783(4) 0.48421(11)
C1B C 1.24172(15) -0.1787(5) 0.65733(13)
H1B H 1.2234 -0.3114 0.6875
C2B C 1.12341(16) 0.2929(5) 0.20867(13)
H2B H 1.0703 0.1677 0.1929
H3B H 1.1745 0.1582 0.2236
C3B C 1.02358(14) -0.2001(5) 0.56673(13)
H4B H 1.0389 -0.3309 0.6107
C4B C 1.13530(16) 0.2868(5) 0.34988(13)
H5B H 1.0824 0.1596 0.3315
H6B H 1.1870 0.1541 0.3667
C5B C 1.21009(15) 0.1614(5) 0.54634(13)
C6B C 1.18122(14) -0.0374(5) 0.58998(13)
C7B C 1.13978(15) 0.4676(5) 0.42122(13)
H7B H 1.0896 0.6067 0.4043
H8B H 1.1942 0.5873 0.4416
C8B C 1.08666(14) -0.0454(5) 0.55077(12)
C9B C 1.06255(14) 0.1522(5) 0.48507(13)
C10B C 1.35809(15) 0.0743(6) 0.63512(14)
H9B H 1.4190 0.1071 0.6514
C11B C 1.13260(16) 0.4778(5) 0.28085(13)
H10B H 1.0827 0.6177 0.2656
H11B H 1.1870 0.5971 0.2982
C12B C 1.29881(15) 0.2178(5) 0.56861(14)
H12B H 1.3180 0.3505 0.5390
C13B C 1.32923(15) -0.1184(5) 0.67856(13)
C14B C 1.11719(18) 0.4786(6) 0.13817(14)
H13B H 1.0664 0.6144 0.1233
H14B H 1.1705 0.6026 0.1537
C15B C 1.1073(2) 0.2916(7) 0.06630(15)
H15B H 1.1050 0.4227 0.0232
H16B H 1.1574 0.1565 0.0805
H17B H 1.0532 0.1751 0.0490
loop_
_geom_bond_atom_site_label_1
_geom_bond_atom_site_label_2
_geom_bond_site_symmetry_1
_geom_bond_site_symmetry_2
Cl1 C13 1_555 1_555
N1 C5 1_555 1_555
C1 H1 1_555 1_555
C2 H2 1_555 1_555
H3 C2 1_555 1_555
C3 H4 1_555 1_555
C4 H5 1_555 1_555
H6 C4 1_555 1_555
C5 C6 1_555 1_555
C6 C1 1_555 1_555
C7 N1 1_555 1_555
H7 C7 1_555 1_555
H8 C7 1_555 1_555
C8 C3 1_555 1_555
C9 N1 1_555 1_555
C10 H9 1_555 1_555
C11 C2 1_555 1_555
H10 C11 1_555 1_555
H11 C11 1_555 1_555
C12 C5 1_555 1_555
H12 C12 1_555 1_555
C13 C1 1_555 1_555
C14 C2 1_555 1_555
H13 C14 1_555 1_555
H14 C14 1_555 1_555
C15 C14 1_555 1_555
H15 C15 1_555 1_555
H16 C15 1_555 1_555
H17 C15 1_555 1_555
Cl1B C13B 1_555 1_555
N1B C5B 1_555 1_555
C1B H1B 1_555 1_555
C2B H2B 1_555 1_555
H3B C2B 1_555 1_555
C3B C9 1_555 1_555
H4B C3B 1_555 1_555
C4B H5B 1_555 1_555
H6B C4B 1_555 1_555
C5B C6B 1_555 1_555
C6B C1B 1_555 1_555
C7B N1B 1_555 1_555
H7B C7B 1_555 1_555
H8B C7B 1_555 1_555
C8B C3B 1_555 1_555
C9B C3 1_555 1_555
C10B H9B 1_555 1_555
C11B C2B 1_555 1_555
H10B C11B 1_555 1_555
H11B C11B 1_555 1_555
C12B C5B 1_555 1_555
H12B C12B 1_555 1_555
C13B C1B 1_555 1_555
C14B C2B 1_555 1_555
H13B C14B 1_555 1_555
H14B C14B 1_555 1_555
C15B C14B 1_555 1_555
H15B C15B 1_555 1_555
H16B C15B 1_555 1_555
H17B C15B 1_555 1_555
C4 C7 1_555 1_555
C4 C11 1_555 1_555
C6 C8 1_555 1_555
C8 C9 1_555 1_555
C10 C12 1_555 1_555
C10 C13 1_555 1_555
N1B C9B 1_555 1_555
C4B C7B 1_555 1_555
C4B C11B 1_555 1_555
C6B C8B 1_555 1_555
C8B C9B 1_555 1_555
C10B C12B 1_555 1_555
C10B C13B 1_555 1_555

#END
