
#######################################################################
#
#                 Cambridge Crystallographic Data Centre
#                                CCDC 
#
#######################################################################
#
# If this CIF has been generated from an entry in the Cambridge 
# Structural Database, then it will include bibliographic, chemical, 
# crystal, experimental, refinement or atomic coordinate data resulting 
# from the CCDC's data processing and validation procedures.
#
#######################################################################

data_VARMAE
_chemical_formula_moiety         'C27 H23 B1 N2 O1 S1'
_chemical_name_systematic        
N,N-Dimethyl-6,6-diphenyl-6H-[1,3]benzothiazolo[3,2-c][1,3,2]benzoxazaborinin-2-amine
_symmetry_cell_setting           monoclinic
_symmetry_space_group_name_H-M   'P 21/c'
_symmetry_Int_Tables_number      14
_space_group_name_Hall           '-P 2ybc'
loop_
_symmetry_equiv_pos_site_id
_symmetry_equiv_pos_as_xyz
1 x,y,z
2 -x,1/2+y,1/2-z
3 -x,-y,-z
4 x,1/2-y,1/2+z
_cell_length_a                   13.017(3)
_cell_length_b                   12.930(3)
_cell_length_c                   18.193(6)
_cell_angle_alpha                90
_cell_angle_beta                 132.518(18)
_cell_angle_gamma                90
_cell_volume                     2256.94
_cell_formula_units_Z            4
loop_
_atom_site_label
_atom_site_type_symbol
_atom_site_fract_x
_atom_site_fract_y
_atom_site_fract_z
S1 S 0.36229(5) 0.55737(4) 0.34931(4)
O1 O 0.79170(12) 0.66723(9) 0.61123(9)
N1 N 0.53538(14) 0.69369(10) 0.48046(11)
N2 N 0.7523(2) 0.33037(14) 0.40274(17)
C1 C 0.70685(18) 0.83144(13) 0.50455(14)
C2 C 0.6032(2) 0.89713(15) 0.42788(16)
H1 H 0.5141 0.8923 0.4045
C3 C 0.6280(2) 0.96934(16) 0.38515(17)
H2 H 0.5560 1.0115 0.3338
C4 C 0.7588(2) 0.97858(16) 0.41862(18)
H3 H 0.7762 1.0273 0.3906
C5 C 0.8637(2) 0.91523(16) 0.49387(19)
H4 H 0.9525 0.9210 0.5168
C6 C 0.8382(2) 0.84286(15) 0.53590(16)
H5 H 0.9107 0.8005 0.5866
C7 C 0.70284(17) 0.80303(13) 0.65075(13)
C8 C 0.7117(2) 0.74025(16) 0.71715(16)
H6 H 0.7056 0.6689 0.7083
C9 C 0.7293(2) 0.7796(2) 0.79542(18)
H7 H 0.7334 0.7352 0.8376
C10 C 0.7406(2) 0.8842(2) 0.81101(18)
H8 H 0.7533 0.9110 0.8641
C11 C 0.7333(2) 0.94925(17) 0.74812(17)
H9 H 0.7408 1.0203 0.7584
C12 C 0.7148(2) 0.90902(14) 0.66885(16)
H10 H 0.7102 0.9541 0.6269
C13 C 0.78010(18) 0.58792(13) 0.55793(14)
C14 C 0.8986(2) 0.53431(14) 0.59283(16)
H11 H 0.9859 0.5562 0.6509
C15 C 0.8881(2) 0.44967(15) 0.54273(17)
H12 H 0.9691 0.4154 0.5679
C16 C 0.7590(2) 0.41282(14) 0.45458(16)
C17 C 0.6405(2) 0.46481(13) 0.42121(15)
H13 H 0.5530 0.4412 0.3646
C18 C 0.65066(18) 0.55251(12) 0.47160(14)
C19 C 0.52863(17) 0.60539(12) 0.44010(13)
C20 C 0.29551(18) 0.66212(13) 0.36472(14)
C21 C 0.15605(19) 0.68300(16) 0.31339(15)
H14 H 0.0856 0.6382 0.2645
C22 C 0.1262(2) 0.77190(16) 0.33742(16)
H15 H 0.0341 0.7880 0.3038
C23 C 0.2318(2) 0.83772(15) 0.41108(17)
H16 H 0.2088 0.8971 0.4262
C24 C 0.37019(19) 0.81746(14) 0.46276(15)
H17 H 0.4400 0.8621 0.5123
C25 C 0.40247(17) 0.72828(13) 0.43873(13)
C26 C 0.8766(3) 0.2808(2) 0.4375(2)
H18 H 0.9403 0.3320 0.4501
H19 H 0.8538 0.2333 0.3878
H20 H 0.9191 0.2439 0.4980
C27 C 0.6232(3) 0.27679(18) 0.3296(2)
H21 H 0.5903 0.2510 0.3600
H22 H 0.6374 0.2201 0.3032
H23 H 0.5556 0.3234 0.2766
B1 B 0.68771(19) 0.75221(15) 0.56324(16)
loop_
_geom_bond_atom_site_label_1
_geom_bond_atom_site_label_2
_geom_bond_site_symmetry_1
_geom_bond_site_symmetry_2
S1 C19 1_555 1_555
O1 C13 1_555 1_555
N1 C19 1_555 1_555
N2 C16 1_555 1_555
C1 C2 1_555 1_555
C2 H1 1_555 1_555
C3 C2 1_555 1_555
H2 C3 1_555 1_555
C4 C3 1_555 1_555
H3 C4 1_555 1_555
C5 C4 1_555 1_555
H4 C5 1_555 1_555
C6 C1 1_555 1_555
H5 C6 1_555 1_555
C7 C8 1_555 1_555
C8 H6 1_555 1_555
C9 C8 1_555 1_555
H7 C9 1_555 1_555
C10 C9 1_555 1_555
H8 C10 1_555 1_555
C11 C10 1_555 1_555
H9 C11 1_555 1_555
C12 C7 1_555 1_555
H10 C12 1_555 1_555
C13 C14 1_555 1_555
C14 H11 1_555 1_555
C15 C14 1_555 1_555
H12 C15 1_555 1_555
C16 C15 1_555 1_555
C17 C16 1_555 1_555
H13 C17 1_555 1_555
C18 C13 1_555 1_555
C19 C18 1_555 1_555
C20 S1 1_555 1_555
C21 C20 1_555 1_555
H14 C21 1_555 1_555
C22 C21 1_555 1_555
H15 C22 1_555 1_555
C23 C22 1_555 1_555
H16 C23 1_555 1_555
C24 C23 1_555 1_555
H17 C24 1_555 1_555
C25 N1 1_555 1_555
C26 N2 1_555 1_555
H18 C26 1_555 1_555
H19 C26 1_555 1_555
H20 C26 1_555 1_555
C27 N2 1_555 1_555
H21 C27 1_555 1_555
H22 C27 1_555 1_555
H23 C27 1_555 1_555
B1 O1 1_555 1_555
N1 B1 1_555 1_555
C1 B1 1_555 1_555
C5 C6 1_555 1_555
C7 B1 1_555 1_555
C11 C12 1_555 1_555
C17 C18 1_555 1_555
C20 C25 1_555 1_555
C24 C25 1_555 1_555

#END
