
#######################################################################
#
#                 Cambridge Crystallographic Data Centre
#                                CCDC 
#
#######################################################################
#
# If this CIF has been generated from an entry in the Cambridge 
# Structural Database, then it will include bibliographic, chemical, 
# crystal, experimental, refinement or atomic coordinate data resulting 
# from the CCDC's data processing and validation procedures.
#
#######################################################################

data_VARNOT
_chemical_formula_moiety         'C28 H8 F14 N4 O4,2(C7 H8)'
_chemical_name_systematic        
"2,8-bis(2,2,3,3,4,4,4-heptafluorobutyl)-1,3,7,9-tetraoxo-1,2,3,7,8,9-hexahydropyrrolo[3',4':6,7]naphtho[2,3-f]isoindole-5,11-dicarbonitrile toluene solvate"
_symmetry_cell_setting           triclinic
_symmetry_space_group_name_H-M   'P -1'
_symmetry_Int_Tables_number      2
_space_group_name_Hall           '-P 1'
loop_
_symmetry_equiv_pos_site_id
_symmetry_equiv_pos_as_xyz
1 x,y,z
2 -x,-y,-z
_cell_length_a                   5.5811(4)
_cell_length_b                   8.4397(7)
_cell_length_c                   20.1209(14)
_cell_angle_alpha                90.954(6)
_cell_angle_beta                 91.204(6)
_cell_angle_gamma                93.579(7)
_cell_volume                     945.54
_exptl_crystal_colour            yellow
_exptl_crystal_description       needle
_cell_formula_units_Z            1
loop_
_atom_site_label
_atom_site_type_symbol
_atom_site_fract_x
_atom_site_fract_y
_atom_site_fract_z
F1 F 0.7428(5) 0.6885(3) -0.06977(12)
F2 F 0.7724(6) 0.9245(3) -0.02722(13)
F3 F 0.4417(5) 0.7842(3) -0.02280(12)
F4 F 1.0035(4) 0.7087(3) 0.04498(12)
F5 F 0.6714(5) 0.5604(3) 0.04867(11)
F6 F 0.7922(5) 0.9470(3) 0.11021(11)
F7 F 0.4581(4) 0.8030(3) 0.11263(11)
O1 O 1.0591(4) 0.9484(3) 0.25389(12)
O2 O 0.3559(5) 0.6360(3) 0.24508(12)
N1 N 0.7159(5) 0.7840(4) 0.23357(15)
N2 N -0.0818(6) 0.7013(4) 0.49989(17)
C1 C 0.6772(9) 0.7798(6) -0.0200(2)
C2 C 0.7624(7) 0.7105(5) 0.0463(2)
C3 C 0.7004(7) 0.7952(5) 0.11124(19)
C4 C 0.7885(7) 0.7109(4) 0.17158(18)
H1 H 0.7245 0.5988 0.1695
H2 H 0.9659 0.7118 0.1711
C5 C 0.8657(7) 0.8929(4) 0.27109(19)
C6 C 0.7369(7) 0.9169(4) 0.33375(19)
C7 C 0.8013(7) 1.0145(4) 0.38634(19)
H3 H 0.9420 1.0838 0.3856
C8 C 0.6495(6) 1.0095(5) 0.4431(2)
C9 C 0.4402(6) 0.9019(4) 0.44258(18)
C10 C 0.3789(6) 0.8056(4) 0.38530(18)
H4 H 0.2382 0.7360 0.3841
C11 C 0.5264(6) 0.8153(4) 0.33222(18)
C12 C 0.5099(7) 0.7314(5) 0.26710(19)
C13 C 0.2981(6) 0.8957(4) 0.49977(18)
C14 C 0.0886(7) 0.7862(5) 0.50008(18)
F1A F 0.2572(5) 1.3115(3) 1.06977(12)
F2A F 0.2276(6) 1.0755(3) 1.02722(13)
F3A F 0.5583(5) 1.2158(3) 1.02280(12)
F4A F -0.0035(4) 1.2913(3) 0.95502(12)
F5A F 0.3286(5) 1.4396(3) 0.95133(11)
F6A F 0.2078(5) 1.0530(3) 0.88979(11)
F7A F 0.5419(4) 1.1970(3) 0.88737(11)
O1A O -0.0591(4) 1.0516(3) 0.74611(12)
O2A O 0.6441(5) 1.3640(3) 0.75492(12)
N1A N 0.2841(5) 1.2160(4) 0.76643(15)
N2A N 1.0818(6) 1.2987(4) 0.50011(17)
C1A C 0.3228(9) 1.2202(6) 1.0200(2)
C2A C 0.2376(7) 1.2895(5) 0.9537(2)
C3A C 0.2996(7) 1.2048(5) 0.88876(19)
C4A C 0.2115(7) 1.2891(4) 0.82842(18)
H1A H 0.2755 1.4012 0.8305
H2A H 0.0341 1.2882 0.8289
C5A C 0.1343(7) 1.1071(4) 0.72891(19)
C6A C 0.2631(7) 1.0831(4) 0.66625(19)
C7A C 0.1987(7) 0.9855(4) 0.61366(19)
H3A H 0.0580 0.9162 0.6144
C8A C 0.3505(6) 0.9905(5) 0.5569(2)
C9A C 0.5598(6) 1.0981(4) 0.55742(18)
C10A C 0.6211(6) 1.1944(4) 0.61470(18)
H4A H 0.7618 1.2640 0.6159
C11A C 0.4736(6) 1.1847(4) 0.66778(18)
C12A C 0.4901(7) 1.2686(5) 0.73290(19)
C13A C 0.7019(6) 1.1043(4) 0.50023(18)
C14A C 0.9114(7) 1.2138(5) 0.49992(18)
C15 C 0.7765(7) 0.3237(5) 0.25038(19)
C16 C 0.8602(7) 0.4203(5) 0.3038(2)
H5 H 1.0127 0.4764 0.3016
C17 C 0.7237(7) 0.4359(5) 0.3604(2)
H6 H 0.7832 0.5018 0.3965
C18 C 0.5009(7) 0.3550(5) 0.3638(2)
H7 H 0.4065 0.3652 0.4022
C19 C 0.4172(7) 0.2595(5) 0.3109(2)
H8 H 0.2645 0.2036 0.3132
C20 C 0.5538(7) 0.2441(5) 0.2544(2)
H9 H 0.4933 0.1783 0.2182
C21 C 0.9269(7) 0.3064(5) 0.1893(2)
H10 H 1.0577 0.3895 0.1901
H11 H 0.8262 0.3166 0.1493
H12 H 0.9943 0.2019 0.1890
loop_
_geom_bond_atom_site_label_1
_geom_bond_atom_site_label_2
_geom_bond_site_symmetry_1
_geom_bond_site_symmetry_2
F1 C1 1_555 1_555
F2 C1 1_555 1_555
F3 C1 1_555 1_555
F4 C2 1_555 1_555
F5 C2 1_555 1_555
F6 C3 1_555 1_555
F7 C3 1_555 1_555
O1 C5 1_555 1_555
O2 C12 1_555 1_555
N1 C4 1_555 1_555
N2 C14 1_555 1_555
C1 C2 1_555 1_555
C2 C3 1_555 1_555
C3 C4 1_555 1_555
C4 H1 1_555 1_555
H2 C4 1_555 1_555
C5 N1 1_555 1_555
C6 C5 1_555 1_555
C7 C6 1_555 1_555
H3 C7 1_555 1_555
C8 C7 1_555 1_555
C9 C8 1_555 1_555
C10 C9 1_555 1_555
H4 C10 1_555 1_555
C11 C6 1_555 1_555
C12 N1 1_555 1_555
C13 C9 1_555 1_555
C14 C13 1_555 1_555
C15 C16 1_555 1_555
C16 H5 1_555 1_555
C17 C16 1_555 1_555
H6 C17 1_555 1_555
C18 C17 1_555 1_555
H7 C18 1_555 1_555
C19 C18 1_555 1_555
H8 C19 1_555 1_555
C20 C15 1_555 1_555
H9 C20 1_555 1_555
C21 C15 1_555 1_555
H10 C21 1_555 1_555
H11 C21 1_555 1_555
H12 C21 1_555 1_555
F1A C1A 1_555 1_555
F2A C1A 1_555 1_555
F3A C1A 1_555 1_555
F4A C2A 1_555 1_555
F5A C2A 1_555 1_555
F6A C3A 1_555 1_555
F7A C3A 1_555 1_555
O1A C5A 1_555 1_555
O2A C12A 1_555 1_555
N1A C4A 1_555 1_555
N2A C14A 1_555 1_555
C1A C2A 1_555 1_555
C2A C3A 1_555 1_555
C3A C4A 1_555 1_555
C4A H1A 1_555 1_555
H2A C4A 1_555 1_555
C5A N1A 1_555 1_555
C6A C5A 1_555 1_555
C7A C6A 1_555 1_555
H3A C7A 1_555 1_555
C8A C13 1_555 1_555
C9A C8A 1_555 1_555
C10A C9A 1_555 1_555
H4A C10A 1_555 1_555
C11A C6A 1_555 1_555
C12A N1A 1_555 1_555
C13A C8 1_555 1_555
C14A C13A 1_555 1_555
C10 C11 1_555 1_555
C11 C12 1_555 1_555
C19 C20 1_555 1_555
C7A C8A 1_555 1_555
C9A C13A 1_555 1_555
C10A C11A 1_555 1_555
C11A C12A 1_555 1_555

#END
