
#######################################################################
#
#                 Cambridge Crystallographic Data Centre
#                                CCDC 
#
#######################################################################
#
# If this CIF has been generated from an entry in the Cambridge 
# Structural Database, then it will include bibliographic, chemical, 
# crystal, experimental, refinement or atomic coordinate data resulting 
# from the CCDC's data processing and validation procedures.
#
#######################################################################

data_VARNIN
_chemical_formula_moiety         'C26 H8 Br2 F14 N2 O4'
_chemical_name_systematic        
5,11-Dibromo-2,8-bis(2,2,3,3,4,4,4-heptafluorobutyl)pyrrolo[3',4':6,7]naphtho[2,3-f]isoindole-1,3,7,9(2H,8H)-tetrone
_symmetry_cell_setting           triclinic
_symmetry_space_group_name_H-M   'P -1'
_symmetry_Int_Tables_number      2
_space_group_name_Hall           '-P 1'
loop_
_symmetry_equiv_pos_site_id
_symmetry_equiv_pos_as_xyz
1 x,y,z
2 -x,-y,-z
_cell_length_a                   5.2396(2)
_cell_length_b                   11.2287(4)
_cell_length_c                   11.5459(5)
_cell_angle_alpha                94.362(3)
_cell_angle_beta                 99.095(2)
_cell_angle_gamma                103.466(2)
_cell_volume                     647.788
_exptl_crystal_colour            yellow
_exptl_crystal_description       needle
_cell_formula_units_Z            1
loop_
_atom_site_label
_atom_site_type_symbol
_atom_site_fract_x
_atom_site_fract_y
_atom_site_fract_z
Br1 Br 1.41618(3) 0.874722(14) 0.663249(15)
F1 F 0.5192(2) 0.33158(10) 0.15307(10)
F2 F 0.3004(2) 0.45078(9) 0.06299(10)
F3 F 0.0083(2) 0.15795(10) 0.12868(10)
F4 F -0.1365(2) 0.27537(11) 0.00638(10)
F5 F 0.3308(2) 0.26268(10) -0.09923(9)
F6 F -0.0129(2) 0.10750(10) -0.12114(11)
F7 F 0.3431(2) 0.10954(10) 0.00141(11)
O1 O 0.6967(2) 0.45144(11) 0.40995(11)
O2 O 1.9342(2) 1.37360(11) 0.77839(12)
N1 N 0.3535(3) 0.51254(12) 0.29818(13)
C1 C 0.5963(3) 0.53158(15) 0.37682(15)
C2 C 0.6884(3) 0.66793(14) 0.40775(15)
C3 C 0.9136(3) 0.73699(15) 0.47952(15)
H1 H 1.0394 0.6990 0.5205
C4 C 0.9569(3) 0.86872(14) 0.49190(14)
C5 C 1.1802(3) 0.94683(15) 0.56680(15)
C6 C 1.2305(3) 1.07570(15) 0.57605(15)
C7 C 1.4674(3) 1.15402(15) 0.64874(15)
H2 H 1.5964 1.1198 0.6925
C8 C 1.5018(3) 1.27769(15) 0.65315(15)
C9 C 1.7251(3) 1.37852(15) 0.72100(15)
C10 C 0.1907(3) 0.39226(15) 0.24406(15)
H3 H 0.0006 0.3943 0.2282
H4 H 0.2104 0.3299 0.2987
C11 C 0.2762(3) 0.35723(15) 0.12959(15)
C12 C 0.0807(3) 0.24267(15) 0.05496(16)
C13 C 0.1908(4) 0.17994(16) -0.04308(17)
Br1A Br 0.58382(3) 1.125278(14) 0.336751(15)
F1A F 1.4808(2) 1.66842(10) 0.84693(10)
F2A F 1.6996(2) 1.54922(9) 0.93701(10)
F3A F 1.9917(2) 1.84205(10) 0.87132(10)
F4A F 2.1365(2) 1.72463(11) 0.99362(10)
F5A F 1.6692(2) 1.73732(10) 1.09923(9)
F6A F 2.0129(2) 1.89250(10) 1.12114(11)
F7A F 1.6569(2) 1.89046(10) 0.99859(11)
O1A O 1.3033(2) 1.54856(11) 0.59005(11)
O2A O 0.0658(2) 0.62640(11) 0.22161(12)
N1A N 1.6465(3) 1.48746(12) 0.70182(13)
C1A C 1.4037(3) 1.46842(15) 0.62318(15)
C2A C 1.3116(3) 1.33207(14) 0.59225(15)
C3A C 1.0864(3) 1.26301(15) 0.52048(15)
H1A H 0.9606 1.3010 0.4795
C4A C 1.0431(3) 1.13128(14) 0.50810(14)
C5A C 0.8198(3) 1.05317(15) 0.43320(15)
C6A C 0.7695(3) 0.92430(15) 0.42395(15)
C7A C 0.5326(3) 0.84598(15) 0.35126(15)
H2A H 0.4036 0.8802 0.3075
C8A C 0.4982(3) 0.72231(15) 0.34685(15)
C9A C 0.2749(3) 0.62148(15) 0.27900(15)
C10A C 1.8093(3) 1.60774(15) 0.75594(15)
H3A H 1.9994 1.6057 0.7718
H4A H 1.7896 1.6701 0.7013
C11A C 1.7238(3) 1.64277(15) 0.87041(15)
C12A C 1.9193(3) 1.75733(15) 0.94504(16)
C13A C 1.8092(4) 1.82006(16) 1.04308(17)
loop_
_geom_bond_atom_site_label_1
_geom_bond_atom_site_label_2
_geom_bond_site_symmetry_1
_geom_bond_site_symmetry_2
Br1 C5 1_555 1_555
F1 C11 1_555 1_555
F2 C11 1_555 1_555
F3 C12 1_555 1_555
F4 C12 1_555 1_555
F5 C13 1_555 1_555
F6 C13 1_555 1_555
F7 C13 1_555 1_555
O1 C1 1_555 1_555
O2 C9 1_555 1_555
N1 C1 1_555 1_555
C1 C2 1_555 1_555
C2 C3 1_555 1_555
C3 H1 1_555 1_555
C4 C3 1_555 1_555
C5 C4 1_555 1_555
C6 C5 1_555 1_555
C7 C6 1_555 1_555
H2 C7 1_555 1_555
C8 C7 1_555 1_555
C9 C8 1_555 1_555
C10 N1 1_555 1_555
H3 C10 1_555 1_555
H4 C10 1_555 1_555
C11 C10 1_555 1_555
C12 C11 1_555 1_555
C13 C12 1_555 1_555
Br1A C5A 1_555 1_555
F1A C11A 1_555 1_555
F2A C11A 1_555 1_555
F3A C12A 1_555 1_555
F4A C12A 1_555 1_555
F5A C13A 1_555 1_555
F6A C13A 1_555 1_555
F7A C13A 1_555 1_555
O1A C1A 1_555 1_555
O2A C9A 1_555 1_555
N1A C9 1_555 1_555
C1A N1A 1_555 1_555
C2A C8 1_555 1_555
C3A C2A 1_555 1_555
H1A C3A 1_555 1_555
C4A C6 1_555 1_555
C5A C4A 1_555 1_555
C6A C4 1_555 1_555
C7A C6A 1_555 1_555
H2A C7A 1_555 1_555
C8A C2 1_555 1_555
C9A N1 1_555 1_555
C10A N1A 1_555 1_555
H3A C10A 1_555 1_555
H4A C10A 1_555 1_555
C11A C10A 1_555 1_555
C12A C11A 1_555 1_555
C13A C12A 1_555 1_555
C1A C2A 1_555 1_555
C3A C4A 1_555 1_555
C5A C6A 1_555 1_555
C7A C8A 1_555 1_555
C8A C9A 1_555 1_555

#END
