
#######################################################################
#
#                 Cambridge Crystallographic Data Centre
#                                CCDC 
#
#######################################################################
#
# If this CIF has been generated from an entry in the Cambridge 
# Structural Database, then it will include bibliographic, chemical, 
# crystal, experimental, refinement or atomic coordinate data resulting 
# from the CCDC's data processing and validation procedures.
#
#######################################################################

data_VARNAF
_chemical_formula_moiety         'C18 H10 Cl2 N2'
_chemical_name_systematic        
2,8-Dichloro-5,11-dihydroindolo[3,2-b]carbazole
_symmetry_cell_setting           monoclinic
_symmetry_space_group_name_H-M   'P 21/c'
_symmetry_Int_Tables_number      14
_space_group_name_Hall           '-P 2ybc'
loop_
_symmetry_equiv_pos_site_id
_symmetry_equiv_pos_as_xyz
1 x,y,z
2 -x,1/2+y,1/2-z
3 -x,-y,-z
4 x,1/2-y,1/2+z
_cell_length_a                   14.730(3)
_cell_length_b                   5.8026(12)
_cell_length_c                   7.6541(15)
_cell_angle_alpha                90
_cell_angle_beta                 100.39(3)
_cell_angle_gamma                90
_cell_volume                     643.486
_cell_formula_units_Z            2
loop_
_atom_site_label
_atom_site_type_symbol
_atom_site_fract_x
_atom_site_fract_y
_atom_site_fract_z
Cl1 Cl 0.06445(3) 0.16955(8) 0.69334(6)
N1 N 0.38538(11) 0.7828(3) 0.77728(19)
H1 H 0.3938 0.9181 0.7373
C1 C 0.24167(12) 0.2923(3) 0.8161(2)
H2 H 0.2484 0.1511 0.8744
C2 C 0.15862(13) 0.3565(3) 0.7141(2)
C3 C 0.14728(13) 0.5669(3) 0.6254(2)
H3 H 0.0902 0.6051 0.5583
C4 C 0.21984(13) 0.7190(3) 0.6360(2)
H4 H 0.2127 0.8588 0.5755
C5 C 0.30397(13) 0.6583(3) 0.7392(2)
C6 C 0.31544(12) 0.4466(3) 0.8287(2)
C7 C 0.40942(12) 0.4435(3) 0.9251(2)
C8 C 0.45066(12) 0.6570(3) 0.8889(2)
C9 C 0.45939(12) 0.2833(3) 1.0380(2)
H5 H 0.4339 0.1433 1.0634
Cl1B Cl 0.93555(3) 0.83045(8) 1.30666(6)
N1B N 0.61462(11) 0.2172(3) 1.22272(19)
H1B H 0.6062 0.0819 1.2627
C1B C 0.75833(12) 0.7077(3) 1.1839(2)
H2B H 0.7516 0.8489 1.1256
C2B C 0.84138(13) 0.6435(3) 1.2859(2)
C3B C 0.85272(13) 0.4331(3) 1.3746(2)
H3B H 0.9098 0.3949 1.4417
C4B C 0.78016(13) 0.2810(3) 1.3640(2)
H4B H 0.7873 0.1412 1.4245
C5B C 0.69603(13) 0.3417(3) 1.2608(2)
C6B C 0.68456(12) 0.5534(3) 1.1713(2)
C7B C 0.59058(12) 0.5565(3) 1.0749(2)
C8B C 0.54934(12) 0.3430(3) 1.1111(2)
C9B C 0.54061(12) 0.7167(3) 0.9620(2)
H5B H 0.5661 0.8567 0.9366
loop_
_geom_bond_atom_site_label_1
_geom_bond_atom_site_label_2
_geom_bond_site_symmetry_1
_geom_bond_site_symmetry_2
Cl1 C2 1_555 1_555
N1 H1 1_555 1_555
C1 H2 1_555 1_555
C2 C1 1_555 1_555
C3 C2 1_555 1_555
H3 C3 1_555 1_555
C4 C3 1_555 1_555
H4 C4 1_555 1_555
C5 N1 1_555 1_555
C6 C1 1_555 1_555
C7 C6 1_555 1_555
C8 N1 1_555 1_555
C9 C7 1_555 1_555
H5 C9 1_555 1_555
Cl1B C2B 1_555 1_555
N1B H1B 1_555 1_555
C1B H2B 1_555 1_555
C2B C1B 1_555 1_555
C3B C2B 1_555 1_555
H3B C3B 1_555 1_555
C4B C3B 1_555 1_555
H4B C4B 1_555 1_555
C5B N1B 1_555 1_555
C6B C1B 1_555 1_555
C7B C6B 1_555 1_555
C8B C9 1_555 1_555
C9B C8 1_555 1_555
H5B C9B 1_555 1_555
C4 C5 1_555 1_555
C5 C6 1_555 1_555
C7 C8 1_555 1_555
N1B C8B 1_555 1_555
C4B C5B 1_555 1_555
C5B C6B 1_555 1_555
C7B C8B 1_555 1_555
C7B C9B 1_555 1_555

#END
