
#######################################################################
#
#                 Cambridge Crystallographic Data Centre
#                                CCDC 
#
#######################################################################
#
# If this CIF has been generated from an entry in the Cambridge 
# Structural Database, then it will include bibliographic, chemical, 
# crystal, experimental, refinement or atomic coordinate data resulting 
# from the CCDC's data processing and validation procedures.
#
#######################################################################

data_VARTIT
_chemical_formula_moiety         'C16 H14 Cl2 N2 O4,0.13(H2 O1)'
_chemical_name_systematic        
'Benzyl (2,2-dichloro-2-nitro-1-phenylethyl)carbamate hydrate'
_symmetry_cell_setting           monoclinic
_symmetry_space_group_name_H-M   'C 2/c'
_symmetry_Int_Tables_number      15
_space_group_name_Hall           '-C 2yn'
loop_
_symmetry_equiv_pos_site_id
_symmetry_equiv_pos_as_xyz
1 x,y,z
2 -x,y,1/2-z
3 1/2+x,1/2+y,z
4 1/2-x,1/2+y,1/2-z
5 -x,-y,-z
6 x,-y,1/2+z
7 1/2-x,1/2-y,-z
8 1/2+x,1/2-y,1/2+z
_cell_length_a                   25.692(4)
_cell_length_b                   20.951(3)
_cell_length_c                   16.292(3)
_cell_angle_alpha                90
_cell_angle_beta                 124.221(2)
_cell_angle_gamma                90
_cell_volume                     7251.31
_exptl_crystal_colour            colorless
_exptl_crystal_description       block
_cell_formula_units_Z            16
loop_
_atom_site_label
_atom_site_type_symbol
_atom_site_fract_x
_atom_site_fract_y
_atom_site_fract_z
C1 C 0.14691(16) -0.05363(17) -0.0700(3)
C2 C 0.17586(17) -0.10867(17) -0.0144(3)
H1 H 0.2010 -0.1066 0.0545
C3 C 0.16722(17) -0.16614(19) -0.0616(3)
H2 H 0.1863 -0.2030 -0.0249
C4 C 0.12861(19) -0.1684(2) -0.1674(3)
H3 H 0.1242 -0.2065 -0.2000
C5 C 0.09753(18) -0.11395(18) -0.2222(3)
H4 H 0.0695 -0.1167 -0.2907
C6 C 0.10847(16) -0.05398(17) -0.1737(3)
H5 H 0.0908 -0.0166 -0.2097
C7 C 0.15708(16) 0.01189(17) -0.0204(2)
H6 H 0.1487 0.0449 -0.0690
C8 C 0.25804(14) 0.06343(15) 0.0619(2)
C9 C 0.36317(14) 0.10028(16) 0.1487(3)
H7 H 0.3513 0.1449 0.1355
H8 H 0.3698 0.0847 0.0992
C10 C 0.42153(14) 0.09205(17) 0.2508(2)
C11 C 0.45144(16) 0.14718(18) 0.3044(3)
H9 H 0.4345 0.1870 0.2771
C12 C 0.50668(17) 0.14282(19) 0.3988(3)
H10 H 0.5267 0.1797 0.4346
C13 C 0.53200(17) 0.0833(2) 0.4396(3)
H11 H 0.5690 0.0804 0.5027
C14 C 0.50209(19) 0.0282(2) 0.3860(3)
H12 H 0.5190 -0.0116 0.4133
C15 C 0.44686(17) 0.03256(18) 0.2916(3)
H13 H 0.4268 -0.0043 0.2558
C16 C 0.11143(16) 0.02321(16) 0.0134(3)
Cl1 Cl 0.12243(4) -0.02832(5) 0.10450(7)
Cl2 Cl 0.11760(4) 0.10195(5) 0.05594(8)
N1 N 0.21867(11) 0.02103(12) 0.0643(2)
H14 H 0.2314 -0.0002 0.1177
N2 N 0.04183(15) 0.0129(2) -0.0835(3)
O1 O 0.31379(10) 0.06274(10) 0.14634(17)
O2 O 0.24343(10) 0.09721(11) -0.00784(17)
O3 O 0.02242(12) 0.04861(13) -0.1437(2)
O4 O 0.00849(13) -0.02772(14) -0.0862(2)
C17 C 0.16207(16) 0.81827(14) 0.2220(3)
C18 C 0.13977(17) 0.83175(17) 0.2810(3)
H15 H 0.1675 0.8431 0.3473
C19 C 0.07526(17) 0.82795(18) 0.2391(3)
H16 H 0.0602 0.8351 0.2786
C20 C 0.03326(18) 0.81368(18) 0.1393(3)
H17 H -0.0098 0.8128 0.1111
C21 C 0.05586(19) 0.80112(19) 0.0838(3)
H18 H 0.0278 0.7901 0.0174
C22 C 0.12143(17) 0.80419(17) 0.1237(3)
H19 H 0.1361 0.7968 0.0838
C23 C 0.23077(15) 0.82522(14) 0.2644(3)
H20 H 0.2346 0.8344 0.2090
C24 C 0.28014(13) 0.92988(14) 0.3108(2)
C25 C 0.31401(17) 1.03596(14) 0.3562(3)
H21 H 0.2755 1.0563 0.3037
H22 H 0.3418 1.0313 0.3340
C26 C 0.34491(15) 1.07543(13) 0.4483(2)
C27 C 0.39694(16) 1.11170(16) 0.4737(3)
H23 H 0.4134 1.1106 0.4354
C28 C 0.42467(18) 1.15082(18) 0.5601(3)
H24 H 0.4591 1.1764 0.5779
C29 C 0.40068(18) 1.15095(15) 0.6177(3)
H25 H 0.4198 1.1751 0.6756
C30 C 0.34940(18) 1.11568(17) 0.5890(3)
H26 H 0.3336 1.1157 0.6283
C31 C 0.31944(18) 1.07963(17) 0.5038(3)
H27 H 0.2823 1.0582 0.4836
C32 C 0.26571(17) 0.76107(16) 0.3119(3)
Cl3 Cl 0.23887(4) 0.69921(4) 0.22639(7)
Cl4 Cl 0.27181(4) 0.74057(4) 0.41791(7)
N3 N 0.26236(12) 0.87584(12) 0.3359(2)
H28 H 0.2700 0.8720 0.3943
N4 N 0.33660(15) 0.77397(13) 0.3400(3)
O5 O 0.29993(10) 0.97302(9) 0.37943(16)
O6 O 0.27713(10) 0.93475(10) 0.23343(17)
O7 O 0.38130(13) 0.75927(13) 0.4215(2)
O8 O 0.34346(11) 0.79399(12) 0.2764(2)
O9 O 0.0000 0.7655(4) 0.7500
H29 H 0.0345 0.7729 0.8052
H29A H -0.0345 0.7729 0.6948
H30? H -0.0121 0.7990 0.7145
loop_
_geom_bond_atom_site_label_1
_geom_bond_atom_site_label_2
_geom_bond_site_symmetry_1
_geom_bond_site_symmetry_2
C1 C2 1_555 1_555
C2 H1 1_555 1_555
C3 C2 1_555 1_555
H2 C3 1_555 1_555
C4 C3 1_555 1_555
H3 C4 1_555 1_555
C5 C4 1_555 1_555
H4 C5 1_555 1_555
C6 C1 1_555 1_555
H5 C6 1_555 1_555
C7 C1 1_555 1_555
H6 C7 1_555 1_555
C8 N1 1_555 1_555
C9 H7 1_555 1_555
H8 C9 1_555 1_555
C10 C9 1_555 1_555
C11 C10 1_555 1_555
H9 C11 1_555 1_555
C12 C11 1_555 1_555
H10 C12 1_555 1_555
C13 C12 1_555 1_555
H11 C13 1_555 1_555
C14 C13 1_555 1_555
H12 C14 1_555 1_555
C15 C10 1_555 1_555
H13 C15 1_555 1_555
C16 C7 1_555 1_555
Cl1 C16 1_555 1_555
Cl2 C16 1_555 1_555
N1 C7 1_555 1_555
H14 N1 1_555 1_555
N2 C16 1_555 1_555
O1 C8 1_555 1_555
O2 C8 1_555 1_555
O3 N2 1_555 1_555
O4 N2 1_555 1_555
C17 C18 1_555 1_555
C18 H15 1_555 1_555
C19 C18 1_555 1_555
H16 C19 1_555 1_555
C20 C19 1_555 1_555
H17 C20 1_555 1_555
C21 C20 1_555 1_555
H18 C21 1_555 1_555
C22 C17 1_555 1_555
H19 C22 1_555 1_555
C23 C17 1_555 1_555
H20 C23 1_555 1_555
C24 N3 1_555 1_555
C25 H21 1_555 1_555
H22 C25 1_555 1_555
C26 C25 1_555 1_555
C27 C26 1_555 1_555
H23 C27 1_555 1_555
C28 C27 1_555 1_555
H24 C28 1_555 1_555
C29 C28 1_555 1_555
H25 C29 1_555 1_555
C30 C29 1_555 1_555
H26 C30 1_555 1_555
C31 C26 1_555 1_555
H27 C31 1_555 1_555
C32 C23 1_555 1_555
Cl3 C32 1_555 1_555
Cl4 C32 1_555 1_555
N3 C23 1_555 1_555
H28 N3 1_555 1_555
N4 C32 1_555 1_555
O5 C24 1_555 1_555
O6 C24 1_555 1_555
O7 N4 1_555 1_555
O8 N4 1_555 1_555
O9 H29 1_555 1_555
H29A O9 1_555 1_555
C5 C6 1_555 1_555
C9 O1 1_555 1_555
C14 C15 1_555 1_555
C21 C22 1_555 1_555
C25 O5 1_555 1_555
C30 C31 1_555 1_555

#END
