
#######################################################################
#
#                 Cambridge Crystallographic Data Centre
#                                CCDC 
#
#######################################################################
#
# If this CIF has been generated from an entry in the Cambridge 
# Structural Database, then it will include bibliographic, chemical, 
# crystal, experimental, refinement or atomic coordinate data resulting 
# from the CCDC's data processing and validation procedures.
#
#######################################################################

data_VASKIK
_chemical_formula_moiety         'C30 H22 N2 O3 S1'
_chemical_name_systematic        
2-(2-(4-(4-Methoxybenzylthio)phenyl)ethynyl)-4-nitro-5-(2-phenylethynyl)aniline
_symmetry_cell_setting           triclinic
_symmetry_space_group_name_H-M   'P -1'
_symmetry_Int_Tables_number      2
_space_group_name_Hall           '-P 1'
loop_
_symmetry_equiv_pos_site_id
_symmetry_equiv_pos_as_xyz
1 x,y,z
2 -x,-y,-z
_cell_length_a                   9.176(2)
_cell_length_b                   10.247(2)
_cell_length_c                   13.020(2)
_cell_angle_alpha                84.81(1)
_cell_angle_beta                 86.91(1)
_cell_angle_gamma                79.00(1)
_cell_volume                     1195.96
_exptl_crystal_colour            yellow
_exptl_crystal_description       plate
_chemical_melting_point          473.7-474.5K
_cell_formula_units_Z            2
_exptl_crystal_recrystallization_method chlorobenzene
loop_
_atom_site_label
_atom_site_type_symbol
_atom_site_fract_x
_atom_site_fract_y
_atom_site_fract_z
S1 S -0.17175(4) 0.63253(4) 0.36809(3)
O1 O 0.89241(15) 0.05569(13) -0.17369(10)
O2 O 0.73287(13) 0.23562(11) -0.15168(9)
O3 O -0.82369(12) 0.94002(12) 0.50170(10)
N1 N 0.55788(17) -0.10080(15) 0.24352(11)
H1 H 0.474(3) -0.064(2) 0.2665(17)
H2 H 0.591(3) -0.180(2) 0.2628(18)
N2 N 0.79008(14) 0.12042(13) -0.12406(9)
C1 C 0.55100(14) 0.08061(14) 0.11177(11)
C2 C 0.61571(16) -0.04910(14) 0.15473(11)
C3 C 0.74043(16) -0.12029(14) 0.10408(12)
H3 H 0.786(2) -0.2083(19) 0.1327(14)
C4 C 0.80129(15) -0.07030(14) 0.01171(11)
C5 C 0.73492(15) 0.05863(13) -0.02889(10)
C6 C 0.61357(15) 0.13196(14) 0.02097(11)
H4 H 0.5797(19) 0.2124(18) -0.0084(14)
C7 C 0.92589(16) -0.15494(15) -0.03375(12)
C8 C 1.02776(16) -0.23722(15) -0.06151(12)
C9 C 1.15204(15) -0.33671(14) -0.09029(11)
C10 C 1.18248(17) -0.45870(16) -0.03151(12)
H5 H 1.118(2) -0.4809(19) 0.0261(15)
C11 C 1.30566(18) -0.55387(17) -0.05518(13)
H6 H 1.317(2) -0.639(2) -0.0153(16)
C12 C 1.40010(17) -0.52919(16) -0.13820(13)
H7 H 1.474(2) -0.591(2) -0.1498(15)
C13 C 1.37094(17) -0.40859(16) -0.19779(13)
H8 H 1.441(3) -0.388(2) -0.2540(18)
C14 C 1.24738(17) -0.31209(16) -0.17463(12)
H9 H 1.229(2) -0.2268(19) -0.2209(15)
C15 C 0.42634(15) 0.15669(15) 0.16305(11)
C16 C 0.32135(16) 0.22216(15) 0.20626(11)
C17 C 0.20245(15) 0.31491(15) 0.25095(11)
C18 C 0.09264(16) 0.27312(15) 0.31792(12)
H10 H 0.0918(18) 0.1814(18) 0.3358(13)
C19 C -0.02145(16) 0.36677(15) 0.35864(12)
H11 H -0.091(2) 0.3338(18) 0.4069(14)
C20 C -0.02904(15) 0.50310(14) 0.33071(11)
C21 C 0.08320(16) 0.54471(15) 0.26540(11)
H12 H 0.083(2) 0.642(2) 0.2442(15)
C22 C 0.19742(16) 0.45156(15) 0.22724(11)
H13 H 0.274(2) 0.4818(18) 0.1807(15)
C23 C -0.30233(17) 0.54967(15) 0.44660(12)
H14 H -0.254(2) 0.516(2) 0.5160(16)
H15 H -0.325(2) 0.4724(19) 0.4044(15)
C24 C -0.44038(16) 0.65306(14) 0.46269(11)
C25 C -0.56070(17) 0.66951(15) 0.39804(11)
H16 H -0.559(2) 0.616(2) 0.3374(15)
C26 C -0.68610(17) 0.76672(15) 0.41252(12)
H17 H -0.767(2) 0.780(2) 0.3719(17)
C27 C -0.69480(16) 0.84885(15) 0.49321(12)
C28 C -0.57658(18) 0.83406(18) 0.55805(13)
H18 H -0.580(2) 0.885(2) 0.6121(17)
C29 C -0.45160(18) 0.73673(18) 0.54179(13)
H19 H -0.370(2) 0.727(2) 0.5879(18)
C30 C -0.8357(2) 1.0289(2) 0.5807(2)
H20 H -0.763(3) 1.078(3) 0.566(2)
H21 H -0.919(3) 1.094(3) 0.567(2)
H22 H -0.833(2) 0.974(2) 0.6554(19)
loop_
_geom_bond_atom_site_label_1
_geom_bond_atom_site_label_2
_geom_bond_site_symmetry_1
_geom_bond_site_symmetry_2
S1 C20 1_555 1_555
O1 N2 1_555 1_555
O2 N2 1_555 1_555
O3 C27 1_555 1_555
N1 H1 1_555 1_555
H2 N1 1_555 1_555
N2 C5 1_555 1_555
C1 C2 1_555 1_555
C2 N1 1_555 1_555
C3 C2 1_555 1_555
H3 C3 1_555 1_555
C4 C3 1_555 1_555
C5 C4 1_555 1_555
C6 C1 1_555 1_555
H4 C6 1_555 1_555
C7 C4 1_555 1_555
C8 C7 1_555 1_555
C9 C8 1_555 1_555
C10 C9 1_555 1_555
H5 C10 1_555 1_555
C11 C10 1_555 1_555
H6 C11 1_555 1_555
C12 C11 1_555 1_555
H7 C12 1_555 1_555
C13 C12 1_555 1_555
H8 C13 1_555 1_555
C14 C9 1_555 1_555
H9 C14 1_555 1_555
C15 C1 1_555 1_555
C16 C15 1_555 1_555
C17 C16 1_555 1_555
C18 C17 1_555 1_555
H10 C18 1_555 1_555
C19 C18 1_555 1_555
H11 C19 1_555 1_555
C20 C19 1_555 1_555
C21 C20 1_555 1_555
H12 C21 1_555 1_555
C22 C17 1_555 1_555
H13 C22 1_555 1_555
C23 S1 1_555 1_555
H14 C23 1_555 1_555
H15 C23 1_555 1_555
C24 C23 1_555 1_555
C25 C24 1_555 1_555
H16 C25 1_555 1_555
C26 C25 1_555 1_555
H17 C26 1_555 1_555
C27 C26 1_555 1_555
C28 C27 1_555 1_555
H18 C28 1_555 1_555
C29 C24 1_555 1_555
H19 C29 1_555 1_555
C30 O3 1_555 1_555
H20 C30 1_555 1_555
H21 C30 1_555 1_555
H22 C30 1_555 1_555
C5 C6 1_555 1_555
C13 C14 1_555 1_555
C21 C22 1_555 1_555
C28 C29 1_555 1_555

#END
