
#######################################################################
#
#                 Cambridge Crystallographic Data Centre
#                                CCDC 
#
#######################################################################
#
# If this CIF has been generated from an entry in the Cambridge 
# Structural Database, then it will include bibliographic, chemical, 
# crystal, experimental, refinement or atomic coordinate data resulting 
# from the CCDC's data processing and validation procedures.
#
#######################################################################

data_VASLEI
_chemical_formula_moiety         'C23 H28 Cl1 N1 O2 Si1'
_chemical_name_systematic        
'Methyl (1-(t-butyl(dimethyl)silyl)-1H-indol-3-yl)(4-chlorophenyl)acetate'
_symmetry_cell_setting           orthorhombic
_symmetry_space_group_name_H-M   'P 21 21 21'
_symmetry_Int_Tables_number      19
_space_group_name_Hall           'P 2ac 2ab'
loop_
_symmetry_equiv_pos_site_id
_symmetry_equiv_pos_as_xyz
1 x,y,z
2 1/2+x,1/2-y,-z
3 -x,1/2+y,1/2-z
4 1/2-x,-y,1/2+z
_cell_length_a                   8.2322(7)
_cell_length_b                   10.6550(10)
_cell_length_c                   26.504(3)
_cell_angle_alpha                90
_cell_angle_beta                 90
_cell_angle_gamma                90
_cell_volume                     2324.77
_exptl_crystal_colour            colorless
_exptl_crystal_description       prism
_cell_formula_units_Z            4
loop_
_atom_site_label
_atom_site_type_symbol
_atom_site_fract_x
_atom_site_fract_y
_atom_site_fract_z
Cl1 Cl 0.29286(9) -0.17745(6) 0.62394(2)
Si1 Si 0.27545(7) 0.36458(5) 0.339543(19)
O1 O 0.7536(2) 0.19781(15) 0.45957(10)
O2 O 0.89815(16) 0.02581(16) 0.44844(7)
N1 N 0.3379(2) 0.21333(16) 0.35992(7)
C1 C 0.4726(3) 0.19348(19) 0.39065(7)
H1 H 0.5378 0.2574 0.4033
C2 C 0.4975(2) 0.06935(17) 0.39995(7)
C3 C 0.3707(2) 0.00324(17) 0.37438(6)
C4 C 0.2755(2) 0.09363(19) 0.34967(7)
C5 C 0.1398(3) 0.0575(2) 0.32145(9)
H2 H 0.0781 0.1165 0.3041
C6 C 0.1006(3) -0.0674(3) 0.32011(10)
H3 H 0.0094 -0.0926 0.3020
C7 C 0.1922(3) -0.1576(2) 0.34479(9)
H4 H 0.1615 -0.2415 0.3431
C8 C 0.3284(2) -0.12382(19) 0.37183(7)
H5 H 0.3910 -0.1843 0.3881
C9 C 0.6198(2) 0.00622(17) 0.43393(7)
H6 H 0.6629 -0.0669 0.4159
C10 C 0.7618(2) 0.08924(18) 0.44804(7)
C11 C 1.0424(3) 0.0927(3) 0.46459(13)
H7 H 1.1361 0.0404 0.4597
H8 H 1.0327 0.1138 0.4997
H9 H 1.0539 0.1681 0.4451
C12 C 0.5404(2) -0.04045(17) 0.48256(7)
C13 C 0.4418(2) 0.03857(18) 0.51053(7)
H10 H 0.4256 0.1207 0.4998
C14 C 0.3670(2) -0.0027(2) 0.55420(8)
H11 H 0.3017 0.0513 0.5729
C15 C 0.3902(2) -0.1241(2) 0.56958(7)
C16 C 0.4888(3) -0.20489(19) 0.54330(9)
H12 H 0.5047 -0.2867 0.5545
C17 C 0.5642(3) -0.16257(18) 0.49977(8)
H13 H 0.6317 -0.2165 0.4818
C18 C 0.0509(3) 0.3676(3) 0.33124(11)
H14 H 0.0236 0.3352 0.2985
H15 H 0.0125 0.4523 0.3342
H16 H 0.0008 0.3167 0.3568
C19 C 0.3326(4) 0.4756(2) 0.39093(9)
H17 H 0.4488 0.4829 0.3925
H18 H 0.2925 0.4446 0.4226
H19 H 0.2860 0.5565 0.3842
C20 C 0.3827(3) 0.4023(2) 0.27868(8)
C21 C 0.5679(3) 0.4042(3) 0.28676(11)
H20 H 0.5950 0.4671 0.3113
H21 H 0.6210 0.4232 0.2554
H22 H 0.6032 0.3235 0.2986
C22 C 0.3250(5) 0.5314(3) 0.25911(11)
H23 H 0.3575 0.5957 0.2824
H24 H 0.2088 0.5312 0.2561
H25 H 0.3728 0.5475 0.2267
C23 C 0.3419(3) 0.3023(3) 0.23886(9)
H26 H 0.3743 0.2212 0.2510
H27 H 0.3988 0.3208 0.2081
H28 H 0.2270 0.3024 0.2326
loop_
_geom_bond_atom_site_label_1
_geom_bond_atom_site_label_2
_geom_bond_site_symmetry_1
_geom_bond_site_symmetry_2
Cl1 C15 1_555 1_555
Si1 N1 1_555 1_555
O1 C10 1_555 1_555
O2 C10 1_555 1_555
N1 C1 1_555 1_555
C1 H1 1_555 1_555
C2 C1 1_555 1_555
C3 C2 1_555 1_555
C4 N1 1_555 1_555
C5 C4 1_555 1_555
H2 C5 1_555 1_555
C6 C5 1_555 1_555
H3 C6 1_555 1_555
C7 C6 1_555 1_555
H4 C7 1_555 1_555
C8 C3 1_555 1_555
H5 C8 1_555 1_555
C9 C2 1_555 1_555
H6 C9 1_555 1_555
C10 C9 1_555 1_555
C11 O2 1_555 1_555
H7 C11 1_555 1_555
H8 C11 1_555 1_555
H9 C11 1_555 1_555
C12 C9 1_555 1_555
C13 C12 1_555 1_555
H10 C13 1_555 1_555
C14 C13 1_555 1_555
H11 C14 1_555 1_555
C15 C14 1_555 1_555
C16 C15 1_555 1_555
H12 C16 1_555 1_555
C17 C12 1_555 1_555
H13 C17 1_555 1_555
C18 Si1 1_555 1_555
H14 C18 1_555 1_555
H15 C18 1_555 1_555
H16 C18 1_555 1_555
C19 Si1 1_555 1_555
H17 C19 1_555 1_555
H18 C19 1_555 1_555
H19 C19 1_555 1_555
C20 Si1 1_555 1_555
C21 C20 1_555 1_555
H20 C21 1_555 1_555
H21 C21 1_555 1_555
H22 C21 1_555 1_555
C22 C20 1_555 1_555
H23 C22 1_555 1_555
H24 C22 1_555 1_555
H25 C22 1_555 1_555
C23 C20 1_555 1_555
H26 C23 1_555 1_555
H27 C23 1_555 1_555
H28 C23 1_555 1_555
C3 C4 1_555 1_555
C7 C8 1_555 1_555
C16 C17 1_555 1_555

#END
