
#######################################################################
#
#                 Cambridge Crystallographic Data Centre
#                                CCDC 
#
#######################################################################
#
# If this CIF has been generated from an entry in the Cambridge 
# Structural Database, then it will include bibliographic, chemical, 
# crystal, experimental, refinement or atomic coordinate data resulting 
# from the CCDC's data processing and validation procedures.
#
#######################################################################

data_VASLUY
_chemical_formula_moiety         'C22 H21 Br1 N2 O5'
_chemical_name_systematic        
13-(3-Bromophenyl)-11-hydroxy-N-methyl-14-nitro-8-oxatetracyclo[9.3.1.0^2,7^.0^9,14^]pentadeca-2,4,6-triene-10-carboxamide
_symmetry_cell_setting           trigonal
_symmetry_space_group_name_H-M   'P 32'
_symmetry_Int_Tables_number      145
_space_group_name_Hall           'P 32'
loop_
_symmetry_equiv_pos_site_id
_symmetry_equiv_pos_as_xyz
1 x,y,z
2 -y,x-y,2/3+z
3 -x+y,-x,1/3+z
_cell_length_a                   10.3851(15)
_cell_length_b                   10.3851(15)
_cell_length_c                   16.312(3)
_cell_angle_alpha                90
_cell_angle_beta                 90
_cell_angle_gamma                120
_cell_volume                     1523.56
_exptl_crystal_colour            colorless
_exptl_crystal_description       block
_cell_formula_units_Z            3
loop_
_atom_site_label
_atom_site_type_symbol
_atom_site_fract_x
_atom_site_fract_y
_atom_site_fract_z
Br1 Br 0.84723(5) 0.54420(4) 1.03180(3)
C1 C 0.9102(3) 0.2379(4) 0.7895(2)
H1 H 0.9381 0.2072 0.8401
C2 C 1.0391(4) 0.2794(4) 0.7282(2)
H2 H 1.0754 0.3796 0.7081
H3 H 1.1204 0.2768 0.7560
C3 C 0.9863(3) 0.1713(4) 0.65667(18)
C4 C 0.9234(3) 0.0092(4) 0.68687(18)
H4 H 0.8793 -0.0577 0.6399
C5 C 0.8010(3) -0.0292(3) 0.75101(19)
H5 H 0.8395 -0.0382 0.8043
C6 C 0.7691(3) 0.0980(3) 0.75680(17)
C7 C 0.8600(4) 0.1814(4) 0.61505(19)
H6 H 0.8357 0.1278 0.5635
H7 H 0.8920 0.2846 0.6033
C8 C 0.7187(3) 0.1146(4) 0.67074(19)
H8 H 0.6792 0.1829 0.6728
C9 C 0.6016(4) -0.0339(4) 0.6391(2)
C10 C 0.5092(4) -0.0459(5) 0.5733(2)
H9 H 0.5195 0.0401 0.5494
C11 C 0.4034(5) -0.1824(6) 0.5433(3)
H10 H 0.3450 -0.1879 0.4987
C12 C 0.3846(5) -0.3101(6) 0.5793(3)
H11 H 0.3103 -0.4020 0.5604
C13 C 0.4737(4) -0.3036(5) 0.6425(3)
H12 H 0.4617 -0.3904 0.6662
C14 C 0.5814(4) -0.1668(4) 0.6706(2)
C15 C 1.0413(4) -0.0179(4) 0.7240(2)
C16 C 1.1998(4) -0.1281(5) 0.7110(3)
H13 H 1.1699 -0.1717 0.7645
H14 H 1.2955 -0.0396 0.7145
H15 H 1.2055 -0.1977 0.6747
C17 C 0.8838(3) 0.3635(4) 0.8129(2)
C18 C 0.8712(4) 0.4558(4) 0.7557(2)
H16 H 0.8793 0.4409 0.7001
C19 C 0.8468(4) 0.5692(4) 0.7801(3)
H17 H 0.8357 0.6279 0.7409
C20 C 0.8390(4) 0.5958(4) 0.8616(3)
H18 H 0.8251 0.6738 0.8781
C21 C 0.8519(4) 0.5060(4) 0.9186(2)
C22 C 0.8735(3) 0.3900(4) 0.8951(2)
H19 H 0.8812 0.3298 0.9347
N1 N 0.6480(3) 0.0566(3) 0.82004(17)
N2 N 1.0915(3) -0.0905(4) 0.6799(2)
O1 O 1.1086(2) 0.2163(3) 0.60383(15)
H20 H 1.0811 0.1675 0.5614
O2 O 1.0844(3) 0.0226(3) 0.79444(15)
O3 O 0.6691(2) -0.1681(2) 0.73420(13)
O4 O 0.5395(3) 0.0649(3) 0.80260(15)
O5 O 0.6681(3) 0.0204(3) 0.88788(15)
H21 H 1.055(4) -0.121(4) 0.636(2)
loop_
_geom_bond_atom_site_label_1
_geom_bond_atom_site_label_2
_geom_bond_site_symmetry_1
_geom_bond_site_symmetry_2
Br1 C21 1_555 1_555
C1 H1 1_555 1_555
C2 C1 1_555 1_555
H2 C2 1_555 1_555
H3 C2 1_555 1_555
C3 C2 1_555 1_555
C4 C3 1_555 1_555
H4 C4 1_555 1_555
C5 C4 1_555 1_555
H5 C5 1_555 1_555
C6 C1 1_555 1_555
C7 C3 1_555 1_555
H6 C7 1_555 1_555
H7 C7 1_555 1_555
C8 C6 1_555 1_555
H8 C8 1_555 1_555
C9 C8 1_555 1_555
C10 C9 1_555 1_555
H9 C10 1_555 1_555
C11 C10 1_555 1_555
H10 C11 1_555 1_555
C12 C11 1_555 1_555
H11 C12 1_555 1_555
C13 C12 1_555 1_555
H12 C13 1_555 1_555
C14 C9 1_555 1_555
C15 C4 1_555 1_555
C16 H13 1_555 1_555
H14 C16 1_555 1_555
H15 C16 1_555 1_555
C17 C1 1_555 1_555
C18 C17 1_555 1_555
H16 C18 1_555 1_555
C19 C18 1_555 1_555
H17 C19 1_555 1_555
C20 C19 1_555 1_555
H18 C20 1_555 1_555
C21 C20 1_555 1_555
C22 C17 1_555 1_555
H19 C22 1_555 1_555
N1 C6 1_555 1_555
N2 C15 1_555 1_555
O1 C3 1_555 1_555
H20 O1 1_555 1_555
O2 C15 1_555 1_555
O3 C5 1_555 1_555
O4 N1 1_555 1_555
O5 N1 1_555 1_555
H21 N2 1_555 1_555
C5 C6 1_555 1_555
C7 C8 1_555 1_555
C13 C14 1_555 1_555
C14 O3 1_555 1_555
C16 N2 1_555 1_555
C21 C22 1_555 1_555

#END
