
#######################################################################
#
#                 Cambridge Crystallographic Data Centre
#                                CCDC 
#
#######################################################################
#
# If this CIF has been generated from an entry in the Cambridge 
# Structural Database, then it will include bibliographic, chemical, 
# crystal, experimental, refinement or atomic coordinate data resulting 
# from the CCDC's data processing and validation procedures.
#
#######################################################################

data_VASMUZ
_chemical_formula_moiety         'C15 H19 Cl1 O2 S1'
_chemical_name_systematic        
3-(t-Butylsulfanyl)-1-(4-chlorophenyl)pentane-1,4-dione
_symmetry_cell_setting           orthorhombic
_symmetry_space_group_name_H-M   'P 21 21 21'
_symmetry_Int_Tables_number      19
_space_group_name_Hall           'P 2ac 2ab'
loop_
_symmetry_equiv_pos_site_id
_symmetry_equiv_pos_as_xyz
1 x,y,z
2 1/2-x,-y,1/2+z
3 -x,1/2+y,1/2-z
4 1/2+x,1/2-y,-z
_cell_length_a                   5.9677(9)
_cell_length_b                   11.1789(19)
_cell_length_c                   23.029(4)
_cell_angle_alpha                90
_cell_angle_beta                 90
_cell_angle_gamma                90
_cell_volume                     1536.32
_exptl_crystal_colour            colorless
_exptl_crystal_description       plate
_cell_formula_units_Z            4
loop_
_atom_site_label
_atom_site_type_symbol
_atom_site_fract_x
_atom_site_fract_y
_atom_site_fract_z
S1 S 0.85496(13) 0.43119(8) 0.14124(3)
Cl1 Cl 1.30289(16) 0.38021(11) 0.53886(3)
O1 O 0.5725(4) 0.4602(3) 0.32297(10)
O2 O 0.7727(5) 0.6560(2) 0.23489(11)
C1 C 0.8117(5) 0.4503(3) 0.42759(13)
H1 H 0.6685 0.4852 0.4285
C2 C 0.9314(5) 0.4391(3) 0.47803(13)
H2 H 0.8714 0.4655 0.5135
C3 C 1.1432(6) 0.3880(3) 0.47564(13)
C4 C 1.2318(5) 0.3458(3) 0.42464(13)
H3 H 1.3734 0.3090 0.4242
C5 C 1.1103(5) 0.3579(3) 0.37395(12)
H4 H 1.1707 0.3304 0.3387
C6 C 0.9001(5) 0.4104(3) 0.37466(12)
C7 C 0.7695(5) 0.4317(3) 0.32059(13)
C8 C 0.8847(5) 0.4194(3) 0.26265(12)
H5 H 0.9372 0.3369 0.2578
H6 H 1.0156 0.4723 0.2615
C9 C 0.7273(5) 0.4511(3) 0.21342(12)
H7 H 0.5924 0.3999 0.2161
C10 C 0.6555(6) 0.5807(3) 0.21418(13)
C11 C 0.4319(7) 0.6099(4) 0.18704(16)
H8 H 0.3125 0.5856 0.2131
H9 H 0.4172 0.5674 0.1505
H10 H 0.4222 0.6953 0.1801
C12 C 0.7403(5) 0.2871(3) 0.11550(14)
C13 C 0.8006(7) 0.1871(4) 0.15651(16)
H11 H 0.7221 0.1982 0.1930
H12 H 0.9609 0.1877 0.1634
H13 H 0.7575 0.1111 0.1395
C14 C 0.8558(7) 0.2693(4) 0.05683(14)
H14 H 0.8027 0.1958 0.0392
H15 H 1.0166 0.2644 0.0625
H16 H 0.8215 0.3363 0.0316
C15 C 0.4887(6) 0.2953(4) 0.10671(17)
H17 H 0.4329 0.2197 0.0919
H18 H 0.4555 0.3584 0.0791
H19 H 0.4168 0.3130 0.1435
loop_
_geom_bond_atom_site_label_1
_geom_bond_atom_site_label_2
_geom_bond_site_symmetry_1
_geom_bond_site_symmetry_2
S1 C9 1_555 1_555
Cl1 C3 1_555 1_555
O1 C7 1_555 1_555
O2 C10 1_555 1_555
C1 H1 1_555 1_555
C2 C1 1_555 1_555
H2 C2 1_555 1_555
C3 C2 1_555 1_555
C4 C3 1_555 1_555
H3 C4 1_555 1_555
C5 C4 1_555 1_555
H4 C5 1_555 1_555
C6 C1 1_555 1_555
C7 C6 1_555 1_555
C8 C7 1_555 1_555
H5 C8 1_555 1_555
H6 C8 1_555 1_555
C9 C8 1_555 1_555
H7 C9 1_555 1_555
C10 C9 1_555 1_555
C11 C10 1_555 1_555
H8 C11 1_555 1_555
H9 C11 1_555 1_555
H10 C11 1_555 1_555
C12 S1 1_555 1_555
C13 C12 1_555 1_555
H11 C13 1_555 1_555
H12 C13 1_555 1_555
H13 C13 1_555 1_555
C14 C12 1_555 1_555
H14 C14 1_555 1_555
H15 C14 1_555 1_555
H16 C14 1_555 1_555
C15 C12 1_555 1_555
H17 C15 1_555 1_555
H18 C15 1_555 1_555
H19 C15 1_555 1_555
C5 C6 1_555 1_555

#END
