
#######################################################################
#
#                 Cambridge Crystallographic Data Centre
#                                CCDC 
#
#######################################################################
#
# If this CIF has been generated from an entry in the Cambridge 
# Structural Database, then it will include bibliographic, chemical, 
# crystal, experimental, refinement or atomic coordinate data resulting 
# from the CCDC's data processing and validation procedures.
#
#######################################################################

data_VASNUZ
_chemical_formula_moiety         'C44 H65 Br1 Mg1 O2,0.5(C6 H6)'
_chemical_name_systematic        
'Bromo-(2,6-bis(2,4,6-tri-isopropylphenyl)phenyl)-bis(tetrahydrofuran)-magnesium benzene solvate'
_symmetry_cell_setting           monoclinic
_symmetry_space_group_name_H-M   'P 21/c'
_symmetry_Int_Tables_number      14
_space_group_name_Hall           '-P 2ybc'
loop_
_symmetry_equiv_pos_site_id
_symmetry_equiv_pos_as_xyz
1 x,y,z
2 -x,1/2+y,1/2-z
3 -x,-y,-z
4 x,1/2-y,1/2+z
_cell_length_a                   13.071(3)
_cell_length_b                   14.967(3)
_cell_length_c                   22.070(4)
_cell_angle_alpha                90
_cell_angle_beta                 98.95(3)
_cell_angle_gamma                90
_cell_volume                     4265.07
_exptl_crystal_colour            colorless
_exptl_crystal_description       prism
_chemical_melting_point          158-160deg.C
_cell_formula_units_Z            4
loop_
_atom_site_label
_atom_site_type_symbol
_atom_site_fract_x
_atom_site_fract_y
_atom_site_fract_z
Br1 Br 0.55840(5) 0.24611(5) 0.18401(3)
Mg1 Mg 0.66141(15) 0.23467(13) 0.28790(10)
O1 O 0.5958(3) 0.3329(3) 0.3347(2)
C1 C 0.6857(4) 0.1021(4) 0.3245(3)
O2 O 0.7826(3) 0.3166(3) 0.2795(2)
C2 C 0.7516(4) 0.0421(4) 0.2991(3)
C3 C 0.7443(5) -0.0508(4) 0.3050(3)
H1 H 0.7900 -0.0884 0.2872
C4 C 0.6718(5) -0.0884(4) 0.3364(3)
H2 H 0.6640 -0.1514 0.3379
C5 C 0.6102(5) -0.0324(4) 0.3656(3)
H3 H 0.5625 -0.0571 0.3895
C6 C 0.6182(4) 0.0606(4) 0.3601(3)
C7 C 0.5562(4) 0.1142(4) 0.3995(3)
C8 C 0.5963(4) 0.1277(4) 0.4618(3)
C9 C 0.5373(4) 0.1698(4) 0.5005(3)
H4 H 0.5657 0.1781 0.5425
C10 C 0.4364(4) 0.2004(4) 0.4791(3)
C11 C 0.3985(4) 0.1890(4) 0.4172(3)
H5 H 0.3311 0.2106 0.4018
C12 C 0.4554(4) 0.1471(4) 0.3770(3)
C13 C 0.8361(4) 0.0775(4) 0.2672(3)
C14 C 0.8285(4) 0.0754(4) 0.2018(3)
C15 C 0.9078(4) 0.1090(4) 0.1743(3)
H6 H 0.9024 0.1054 0.1309
C16 C 0.9960(5) 0.1481(4) 0.2077(3)
C17 C 1.0045(4) 0.1470(4) 0.2712(3)
H7 H 1.0651 0.1711 0.2949
C18 C 0.9278(4) 0.1122(4) 0.3016(3)
C19 C 0.9438(4) 0.1080(4) 0.3719(3)
H8 H 0.8763 0.1238 0.3852
C20 C 1.0249(5) 0.1723(5) 0.4037(3)
H9 H 1.0227 0.1723 0.4479
H10 H 1.0105 0.2327 0.3874
H11 H 1.0937 0.1535 0.3964
C21 C 0.9723(6) 0.0138(5) 0.3955(3)
H12 H 1.0409 -0.0020 0.3862
H13 H 0.9210 -0.0288 0.3755
H14 H 0.9733 0.0118 0.4400
C22 C 1.0797(5) 0.1903(5) 0.1758(3)
H15 H 1.1263 0.2255 0.2073
C23 C 1.1454(5) 0.1191(5) 0.1517(3)
H16 H 1.2031 0.1474 0.1355
H17 H 1.1029 0.0854 0.1189
H18 H 1.1726 0.0783 0.1851
C24 C 1.0359(5) 0.2547(5) 0.1248(4)
H19 H 1.0927 0.2878 0.1110
H20 H 0.9886 0.2967 0.1403
H21 H 0.9981 0.2209 0.0903
C25 C 0.7358(5) 0.0320(4) 0.1621(3)
H22 H 0.6772 0.0308 0.1863
C26 C 0.7621(5) -0.0657(5) 0.1477(3)
H23 H 0.7009 -0.0945 0.1246
H24 H 0.7836 -0.0981 0.1861
H25 H 0.8186 -0.0663 0.1232
C27 C 0.6986(5) 0.0824(5) 0.1017(3)
H26 H 0.6357 0.0540 0.0802
H27 H 0.7529 0.0805 0.0756
H28 H 0.6837 0.1447 0.1108
C28 C 0.7050(5) 0.0955(4) 0.4887(3)
H29 H 0.7318 0.0580 0.4571
C29 C 0.7039(6) 0.0385(6) 0.5458(4)
H30 H 0.7741 0.0171 0.5607
H31 H 0.6576 -0.0127 0.5356
H32 H 0.6792 0.0745 0.5777
C30 C 0.7790(5) 0.1748(5) 0.5041(4)
H33 H 0.7817 0.2100 0.4669
H34 H 0.8484 0.1525 0.5202
H35 H 0.7541 0.2125 0.5350
C31 C 0.3740(5) 0.2439(4) 0.5239(3)
H36 H 0.4010 0.2196 0.5656
C32 C 0.2596(5) 0.2226(6) 0.5109(4)
H37 H 0.2238 0.2537 0.5406
H38 H 0.2496 0.1580 0.5143
H39 H 0.2313 0.2423 0.4693
C33 C 0.3924(6) 0.3443(5) 0.5265(4)
H40 H 0.3530 0.3711 0.5561
H41 H 0.3697 0.3702 0.4858
H42 H 0.4664 0.3562 0.5391
C34 C 0.4067(5) 0.1301(4) 0.3108(3)
H43 H 0.4636 0.1169 0.2866
C35 C 0.3369(5) 0.0483(5) 0.3080(3)
H44 H 0.3100 0.0343 0.2651
H45 H 0.2789 0.0606 0.3302
H46 H 0.3767 -0.0027 0.3270
C36 C 0.3457(5) 0.2105(5) 0.2816(3)
H47 H 0.2841 0.2196 0.3011
H48 H 0.3246 0.1995 0.2377
H49 H 0.3895 0.2639 0.2873
C37 C 0.6088(6) 0.3469(5) 0.4011(3)
H50 H 0.6827 0.3422 0.4194
H51 H 0.5688 0.3022 0.4207
C38 C 0.5694(8) 0.4380(6) 0.4091(4)
H52 H 0.6134 0.4689 0.4432
H53 H 0.4976 0.4356 0.4181
C39 C 0.5725(6) 0.4857(5) 0.3501(3)
H54 H 0.6418 0.5114 0.3486
H55 H 0.5199 0.5338 0.3435
C40 C 0.5479(6) 0.4118(4) 0.3040(3)
H56 H 0.4721 0.4037 0.2931
H57 H 0.5773 0.4247 0.2662
C41 C 0.8227(5) 0.3373(5) 0.2229(3)
H58 H 0.7669 0.3606 0.1914
H59 H 0.8528 0.2834 0.2067
C42 C 0.9060(6) 0.4084(5) 0.2406(4)
H60 H 0.9621 0.4032 0.2154
H61 H 0.8763 0.4693 0.2361
C43 C 0.9450(5) 0.3866(5) 0.3075(4)
H62 H 0.9768 0.4396 0.3298
H63 H 0.9960 0.3373 0.3113
C44 C 0.8462(5) 0.3588(5) 0.3309(3)
H64 H 0.8619 0.3166 0.3656
H65 H 0.8105 0.4116 0.3448
C45 C 1.1010(7) 0.0191(6) -0.0046(4)
H66 H 1.1709 0.0322 -0.0081
C46 C 1.0736(7) -0.0663(6) 0.0106(4)
H67 H 1.1246 -0.1118 0.0182
C47 C 1.0275(7) 0.0847(6) -0.0147(4)
H68 H 1.0469 0.1435 -0.0245
C47B C 0.9725(7) -0.0847(6) 0.0147(4)
C45B C 0.8990(7) -0.0191(6) 0.0046(4)
H66B H 0.8291 -0.0322 0.0081
C46B C 0.9264(7) 0.0663(6) -0.0106(4)
H67B H 0.8754 0.1118 -0.0182
H68B H 0.9531 -0.1435 0.0245
loop_
_geom_bond_atom_site_label_1
_geom_bond_atom_site_label_2
_geom_bond_site_symmetry_1
_geom_bond_site_symmetry_2
Br1 Mg1 1_555 1_555
Mg1 O1 1_555 1_555
O1 C37 1_555 1_555
C1 Mg1 1_555 1_555
O2 Mg1 1_555 1_555
C2 C1 1_555 1_555
C3 C2 1_555 1_555
H1 C3 1_555 1_555
C4 C3 1_555 1_555
H2 C4 1_555 1_555
C5 C4 1_555 1_555
H3 C5 1_555 1_555
C6 C1 1_555 1_555
C7 C6 1_555 1_555
C8 C7 1_555 1_555
C9 C8 1_555 1_555
H4 C9 1_555 1_555
C10 C9 1_555 1_555
C11 C10 1_555 1_555
H5 C11 1_555 1_555
C12 C7 1_555 1_555
C13 C2 1_555 1_555
C14 C13 1_555 1_555
C15 C14 1_555 1_555
H6 C15 1_555 1_555
C16 C15 1_555 1_555
C17 C16 1_555 1_555
H7 C17 1_555 1_555
C18 C13 1_555 1_555
C19 C18 1_555 1_555
H8 C19 1_555 1_555
C20 C19 1_555 1_555
H9 C20 1_555 1_555
H10 C20 1_555 1_555
H11 C20 1_555 1_555
C21 C19 1_555 1_555
H12 C21 1_555 1_555
H13 C21 1_555 1_555
H14 C21 1_555 1_555
C22 C16 1_555 1_555
H15 C22 1_555 1_555
C23 C22 1_555 1_555
H16 C23 1_555 1_555
H17 C23 1_555 1_555
H18 C23 1_555 1_555
C24 C22 1_555 1_555
H19 C24 1_555 1_555
H20 C24 1_555 1_555
H21 C24 1_555 1_555
C25 C14 1_555 1_555
H22 C25 1_555 1_555
C26 C25 1_555 1_555
H23 C26 1_555 1_555
H24 C26 1_555 1_555
H25 C26 1_555 1_555
C27 C25 1_555 1_555
H26 C27 1_555 1_555
H27 C27 1_555 1_555
H28 C27 1_555 1_555
C28 C8 1_555 1_555
H29 C28 1_555 1_555
C29 C28 1_555 1_555
H30 C29 1_555 1_555
H31 C29 1_555 1_555
H32 C29 1_555 1_555
C30 C28 1_555 1_555
H33 C30 1_555 1_555
H34 C30 1_555 1_555
H35 C30 1_555 1_555
C31 C10 1_555 1_555
H36 C31 1_555 1_555
C32 C31 1_555 1_555
H37 C32 1_555 1_555
H38 C32 1_555 1_555
H39 C32 1_555 1_555
C33 C31 1_555 1_555
H40 C33 1_555 1_555
H41 C33 1_555 1_555
H42 C33 1_555 1_555
C34 C12 1_555 1_555
H43 C34 1_555 1_555
C35 C34 1_555 1_555
H44 C35 1_555 1_555
H45 C35 1_555 1_555
H46 C35 1_555 1_555
C36 C34 1_555 1_555
H47 C36 1_555 1_555
H48 C36 1_555 1_555
H49 C36 1_555 1_555
C37 H50 1_555 1_555
H51 C37 1_555 1_555
C38 C37 1_555 1_555
H52 C38 1_555 1_555
H53 C38 1_555 1_555
C39 C38 1_555 1_555
H54 C39 1_555 1_555
H55 C39 1_555 1_555
C40 O1 1_555 1_555
H56 C40 1_555 1_555
H57 C40 1_555 1_555
C41 O2 1_555 1_555
H58 C41 1_555 1_555
H59 C41 1_555 1_555
C42 C41 1_555 1_555
H60 C42 1_555 1_555
H61 C42 1_555 1_555
C43 C42 1_555 1_555
H62 C43 1_555 1_555
H63 C43 1_555 1_555
C44 O2 1_555 1_555
H64 C44 1_555 1_555
H65 C44 1_555 1_555
C45 H66 1_555 1_555
C46 C45 1_555 1_555
H67 C46 1_555 1_555
C47 C45 1_555 1_555
H68 C47 1_555 1_555
C47B C46 1_555 1_555
C45B C47B 1_555 1_555
H66B C45B 1_555 1_555
C46B C47 1_555 1_555
H67B C46B 1_555 1_555
H68B C47B 1_555 1_555
C5 C6 1_555 1_555
C11 C12 1_555 1_555
C17 C18 1_555 1_555
C39 C40 1_555 1_555
C43 C44 1_555 1_555
C45B C46B 1_555 1_555

#END
