
#######################################################################
#
#                 Cambridge Crystallographic Data Centre
#                                CCDC 
#
#######################################################################
#
# If this CIF has been generated from an entry in the Cambridge 
# Structural Database, then it will include bibliographic, chemical, 
# crystal, experimental, refinement or atomic coordinate data resulting 
# from the CCDC's data processing and validation procedures.
#
#######################################################################

data_VASNUB
_chemical_formula_moiety         'C23 H21 F1 N2'
_chemical_name_systematic        
3-[6-(3-fluorophenyl)pyridin-2-yl]-7,7-dimethyl-5,6,7,8-tetrahydro-6,8-methanoisoquinoline
_symmetry_cell_setting           monoclinic
_symmetry_space_group_name_H-M   'P 21'
_symmetry_Int_Tables_number      4
_space_group_name_Hall           'P 2yb'
loop_
_symmetry_equiv_pos_site_id
_symmetry_equiv_pos_as_xyz
1 x,y,z
2 -x,1/2+y,-z
_cell_length_a                   11.7753(9)
_cell_length_b                   6.3341(5)
_cell_length_c                   12.2919(10)
_cell_angle_alpha                90
_cell_angle_beta                 92.052(8)
_cell_angle_gamma                90
_cell_volume                     916.215
_exptl_crystal_colour            colorless
_exptl_crystal_description       block
_cell_formula_units_Z            2
loop_
_atom_site_label
_atom_site_type_symbol
_atom_site_fract_x
_atom_site_fract_y
_atom_site_fract_z
C1 C 1.0679(2) 0.5402(5) 1.2998(2)
H1 H 1.1071 0.4198 1.2796
C2 C 1.1083(3) 0.6645(6) 1.3843(3)
C3 C 1.0551(3) 0.8384(6) 1.4189(2)
H2 H 1.0848 0.9170 1.4771
C4 C 0.9551(3) 0.8968(5) 1.3651(2)
H3 H 0.9162 1.0162 1.3874
C5 C 0.9123(3) 0.7785(4) 1.2784(2)
H4 H 0.8455 0.8208 1.2419
C6 C 0.9675(2) 0.5979(5) 1.24521(19)
C7 C 0.9221(2) 0.4711(4) 1.1510(2)
C8 C 0.9489(2) 0.2600(4) 1.1385(2)
H5 H 0.9953 0.1917 1.1902
C9 C 0.9064(2) 0.1520(4) 1.0489(2)
H6 H 0.9211 0.0088 1.0407
C10 C 0.8418(2) 0.2591(4) 0.9718(2)
H7 H 0.8145 0.1907 0.9092
C11 C 0.81778(19) 0.4709(4) 0.9886(2)
C12 C 0.74924(19) 0.5920(4) 0.90704(19)
C13 C 0.6800(2) 0.7595(4) 0.9357(2)
H8 H 0.6796 0.8050 1.0076
C14 C 0.6119(2) 0.8580(4) 0.8574(2)
C15 C 0.6185(2) 0.7925(4) 0.7491(2)
C16 C 0.6925(2) 0.6287(4) 0.7279(2)
H9 H 0.6983 0.5865 0.6559
C17 C 0.5256(3) 1.0258(4) 0.8820(2)
H10 H 0.5637 1.1461 0.9158
H11 H 0.4720 0.9705 0.9329
C18 C 0.4619(2) 1.0964(5) 0.7780(2)
H12 H 0.4061 1.2091 0.7875
C19 C 0.5498(3) 1.1391(5) 0.6908(2)
H13 H 0.5222 1.2281 0.6313
H14 H 0.6231 1.1868 0.7197
C20 C 0.5438(2) 0.9014(4) 0.6664(2)
H15 H 0.5526 0.8595 0.5905
C21 C 0.4195(2) 0.9080(5) 0.7073(2)
C22 C 0.3346(3) 0.9759(6) 0.6164(3)
H16 H 0.2620 1.0023 0.6466
H17 H 0.3274 0.8656 0.5630
H18 H 0.3614 1.1022 0.5826
C23 C 0.3738(3) 0.7135(6) 0.7640(3)
H19 H 0.4303 0.6610 0.8154
H20 H 0.3559 0.6063 0.7108
H21 H 0.3065 0.7504 0.8014
F1 F 1.20764(17) 0.6058(5) 1.43619(16)
N1 N 0.85460(16) 0.5749(3) 1.07802(15)
N2 N 0.75612(17) 0.5267(3) 0.80334(17)
loop_
_geom_bond_atom_site_label_1
_geom_bond_atom_site_label_2
_geom_bond_site_symmetry_1
_geom_bond_site_symmetry_2
C1 H1 1_555 1_555
C2 C1 1_555 1_555
C3 C2 1_555 1_555
H2 C3 1_555 1_555
C4 C3 1_555 1_555
H3 C4 1_555 1_555
C5 C4 1_555 1_555
H4 C5 1_555 1_555
C6 C1 1_555 1_555
C7 C6 1_555 1_555
C8 C7 1_555 1_555
H5 C8 1_555 1_555
C9 C8 1_555 1_555
H6 C9 1_555 1_555
C10 C9 1_555 1_555
H7 C10 1_555 1_555
C11 C10 1_555 1_555
C12 C11 1_555 1_555
C13 C12 1_555 1_555
H8 C13 1_555 1_555
C14 C13 1_555 1_555
C15 C14 1_555 1_555
C16 C15 1_555 1_555
H9 C16 1_555 1_555
C17 C14 1_555 1_555
H10 C17 1_555 1_555
H11 C17 1_555 1_555
C18 C17 1_555 1_555
H12 C18 1_555 1_555
C19 C18 1_555 1_555
H13 C19 1_555 1_555
H14 C19 1_555 1_555
C20 C15 1_555 1_555
H15 C20 1_555 1_555
C21 C18 1_555 1_555
C22 C21 1_555 1_555
H16 C22 1_555 1_555
H17 C22 1_555 1_555
H18 C22 1_555 1_555
C23 C21 1_555 1_555
H19 C23 1_555 1_555
H20 C23 1_555 1_555
H21 C23 1_555 1_555
F1 C2 1_555 1_555
N1 C7 1_555 1_555
N2 C12 1_555 1_555
C5 C6 1_555 1_555
C11 N1 1_555 1_555
C16 N2 1_555 1_555
C19 C20 1_555 1_555
C20 C21 1_555 1_555

#END
