
#######################################################################
#
#                 Cambridge Crystallographic Data Centre
#                                CCDC 
#
#######################################################################
#
# If this CIF has been generated from an entry in the Cambridge 
# Structural Database, then it will include bibliographic, chemical, 
# crystal, experimental, refinement or atomic coordinate data resulting 
# from the CCDC's data processing and validation procedures.
#
#######################################################################

data_VASPIP
_chemical_formula_moiety         'C40 H44 O11 S4,0.5(C4 H8 O2)'
_chemical_name_systematic        
'25,27:26,28-bis(3,6,9-Trioxaundecane-1,11-dioxy)-2-oxo-2,8,14,20-tetrathiacalix(4)arene ethyl acetate solvate'
_symmetry_cell_setting           monoclinic
_symmetry_space_group_name_H-M   'P 21/c'
_symmetry_Int_Tables_number      14
_space_group_name_Hall           '-P 2ybc'
loop_
_symmetry_equiv_pos_site_id
_symmetry_equiv_pos_as_xyz
1 x,y,z
2 -x,1/2+y,1/2-z
3 -x,-y,-z
4 x,1/2-y,1/2+z
_cell_length_a                   11.2279(12)
_cell_length_b                   17.7360(8)
_cell_length_c                   41.920(2)
_cell_angle_alpha                90
_cell_angle_beta                 96.027(4)
_cell_angle_gamma                90
_cell_volume                     8301.72
_exptl_crystal_colour            colorless
_exptl_crystal_description       platelet
_cell_formula_units_Z            8
loop_
_atom_site_label
_atom_site_type_symbol
_atom_site_fract_x
_atom_site_fract_y
_atom_site_fract_z
S1 S 0.2636(3) -0.3510(2) 0.08559(10)
S2 S 0.6401(3) -0.42466(17) 0.17710(7)
S3 S 0.8550(2) -0.14657(16) 0.15735(7)
S4 S 0.4495(2) -0.06054(16) 0.07803(7)
O1 O 0.2406(17) -0.3610(12) 0.0498(3)
O2 O 0.4195(7) -0.3342(4) 0.15087(18)
O3 O 0.1888(8) -0.2923(6) 0.1897(2)
O4 O 0.2799(6) -0.1464(5) 0.22290(17)
O5 O 0.4637(6) -0.0286(4) 0.20272(16)
O6 O 0.5799(5) -0.1283(4) 0.13940(15)
O7 O 0.7401(6) -0.2986(4) 0.13621(16)
O8 O 0.9373(7) -0.3744(5) 0.08516(18)
O9 O 0.7462(5) -0.3820(4) 0.02112(15)
O10 O 0.4939(5) -0.3361(4) 0.00711(15)
O11 O 0.4499(5) -0.2356(4) 0.06986(17)
C1 C 0.3409(14) -0.3616(9) 0.1705(4)
H1 H 0.3773 -0.4023 0.1835
H2 H 0.2701 -0.3809 0.1579
C2 C 0.3066(12) -0.2964(9) 0.1920(4)
H3 H 0.3384 -0.3056 0.2141
H4 H 0.3397 -0.2493 0.1851
C3 C 0.1421(11) -0.2478(8) 0.2147(3)
H5 H 0.1752 -0.2685 0.2351
H6 H 0.0563 -0.2561 0.2130
C4 C 0.1616(11) -0.1671(7) 0.2160(3)
H7 H 0.1314 -0.1454 0.1955
H8 H 0.1157 -0.1459 0.2322
C5 C 0.2937(10) -0.0678(8) 0.2306(3)
H9 H 0.2610 -0.0575 0.2506
H10 H 0.2499 -0.0378 0.2139
C6 C 0.4249(9) -0.0466(7) 0.2335(3)
H11 H 0.4381 -0.0035 0.2476
H12 H 0.4722 -0.0883 0.2429
C7 C 0.4825(9) -0.0920(6) 0.1838(2)
H13 H 0.4071 -0.1104 0.1732
H14 H 0.5205 -0.1322 0.1968
C8 C 0.5651(8) -0.0651(6) 0.1587(2)
H15 H 0.5283 -0.0240 0.1460
H16 H 0.6416 -0.0483 0.1692
C9 C 0.8479(10) -0.3325(7) 0.1293(2)
C10 C 0.8311(8) -0.3361(7) 0.0923(2)
C11 C 0.9418(9) -0.3818(7) 0.0514(2)
C12 C 0.8464(9) -0.4302(6) 0.0330(3)
H17 H 0.8791 -0.4549 0.0152
H18 H 0.8194 -0.4687 0.0470
C13 C 0.6594(9) -0.4226(6) 0.0005(2)
H19 H 0.6216 -0.4603 0.0129
H20 H 0.6987 -0.4484 -0.0159
C14 C 0.5666(8) -0.3703(6) -0.0149(2)
H21 H 0.6059 -0.3309 -0.0259
H22 H 0.5152 -0.3980 -0.0309
C15 C 0.5355(8) -0.2689(6) 0.0214(3)
H23 H 0.5670 -0.2366 0.0056
H24 H 0.5994 -0.2792 0.0383
C16 C 0.4314(9) -0.2292(7) 0.0355(3)
H25 H 0.4286 -0.1765 0.0293
H26 H 0.3560 -0.2525 0.0275
C17 C 0.4090(8) -0.3861(6) 0.0967(3)
C18 C 0.4607(8) -0.3834(6) 0.1290(2)
C19 C 0.5686(8) -0.4210(5) 0.1372(2)
C20 C 0.6180(8) -0.4652(6) 0.1153(2)
H27 H 0.6869 -0.4928 0.1217
C21 C 0.5667(9) -0.4695(6) 0.0835(3)
H28 H 0.6026 -0.4979 0.0685
C22 C 0.4638(9) -0.4317(6) 0.0749(2)
H29 H 0.4281 -0.4358 0.0540
C23 C 0.6779(7) -0.3294(6) 0.1874(2)
C24 C 0.7340(8) -0.2796(6) 0.1676(2)
C25 C 0.7758(7) -0.2102(5) 0.1798(2)
C26 C 0.7649(8) -0.1916(7) 0.2118(3)
H30 H 0.7947 -0.1460 0.2202
C27 C 0.7088(9) -0.2419(6) 0.2310(2)
H31 H 0.6998 -0.2292 0.2521
C28 C 0.6660(9) -0.3112(7) 0.2188(3)
H32 H 0.6298 -0.3448 0.2318
C29 C 0.7713(7) -0.1381(5) 0.1194(2)
C30 C 0.6502(8) -0.1189(6) 0.1146(2)
C31 C 0.5973(7) -0.1005(6) 0.0842(2)
C32 C 0.6647(7) -0.0980(6) 0.0588(2)
H33 H 0.6295 -0.0825 0.0388
C33 C 0.7849(9) -0.1183(6) 0.0625(3)
H34 H 0.8287 -0.1209 0.0449
C34 C 0.8364(7) -0.1343(5) 0.0923(2)
H35 H 0.9185 -0.1431 0.0951
C35 C 0.3565(7) -0.1284(6) 0.0924(2)
C36 C 0.3581(8) -0.2043(6) 0.0860(2)
C37 C 0.2751(8) -0.2540(6) 0.0964(3)
C38 C 0.1851(9) -0.2243(8) 0.1134(3)
H36 H 0.1267 -0.2568 0.1196
C39 C 0.1791(9) -0.1512(7) 0.1211(3)
H37 H 0.1196 -0.1329 0.1329
C40 C 0.2662(8) -0.1035(6) 0.1106(2)
H38 H 0.2642 -0.0526 0.1159
S5 S -0.2371(2) 0.33974(17) 0.13954(7)
S6 S 0.0197(2) 0.07605(16) 0.16824(7)
S7 S 0.3357(2) 0.15133(15) 0.08010(6)
S8 S 0.0980(2) 0.42651(18) 0.05775(8)
O12 O 0.3414(14) 0.1357(10) 0.0451(2)
O13 O 0.0086(5) 0.3952(4) 0.12190(17)
O14 O 0.1435(8) 0.4777(5) 0.1765(2)
O15 O 0.3806(7) 0.3421(4) 0.20365(19)
O16 O 0.4812(5) 0.2059(4) 0.17448(16)
O17 O 0.2363(5) 0.1572(4) 0.14432(15)
O18 O -0.1523(5) 0.1806(4) 0.12714(15)
O19 O -0.3352(12) 0.1541(9) 0.0766(3)
O20 O -0.2291(7) 0.1270(5) 0.00841(18)
O21 O 0.0152(6) 0.1658(5) -0.01211(19)
O22 O 0.1174(5) 0.2534(4) 0.05802(18)
C41 C -0.0086(8) 0.4704(6) 0.1317(3)
H39 H -0.0701 0.4711 0.1464
H40 H -0.0371 0.5003 0.1131
C42 C 0.1023(10) 0.5055(8) 0.1478(3)
H41 H 0.1650 0.5007 0.1337
H42 H 0.0874 0.5590 0.1503
C43 C 0.2160(12) 0.4119(9) 0.1748(4)
H43 H 0.2459 0.4099 0.1539
H44 H 0.1670 0.3675 0.1769
C44 C 0.3198(14) 0.4106(11) 0.2004(4)
H45 H 0.3761 0.4495 0.1957
H46 H 0.2909 0.4230 0.2207
C45 C 0.4885(10) 0.3385(7) 0.1913(3)
H47 H 0.5431 0.3750 0.2021
H48 H 0.4777 0.3511 0.1687
C46 C 0.5407(8) 0.2623(7) 0.1955(3)
H49 H 0.6243 0.2645 0.1916
H50 H 0.5376 0.2466 0.2175
C47 C 0.3880(8) 0.1666(6) 0.1883(2)
H51 H 0.3308 0.2023 0.1954
H52 H 0.4216 0.1378 0.2068
C48 C 0.3265(7) 0.1146(6) 0.1636(2)
H53 H 0.3841 0.0942 0.1502
H54 H 0.2898 0.0730 0.1740
C49 C -0.2621(8) 0.1430(7) 0.1326(3)
H55 H -0.3148 0.1777 0.1422
H56 H -0.2451 0.1010 0.1472
C50 C -0.3217(13) 0.1150(9) 0.1010(3)
H57 H -0.2776 0.0706 0.0955
H58 H -0.4009 0.0978 0.1049
C51 C -0.3733(11) 0.1180(8) 0.0464(3)
H59 H -0.4179 0.1570 0.0341
H60 H -0.4329 0.0818 0.0517
C52 C -0.3057(9) 0.0764(6) 0.0213(3)
H61 H -0.2601 0.0347 0.0313
H62 H -0.3625 0.0563 0.0044
C53 C -0.1671(9) 0.0864(7) -0.0149(3)
H63 H -0.2237 0.0622 -0.0307
H64 H -0.1146 0.0483 -0.0045
C54 C -0.0972(9) 0.1448(7) -0.0301(3)
H65 H -0.0807 0.1267 -0.0510
H66 H -0.1464 0.1896 -0.0334
C55 C 0.0042(10) 0.2084(8) 0.0138(3)
H67 H -0.0269 0.1784 0.0303
H68 H -0.0513 0.2495 0.0082
C56 C 0.1250(9) 0.2393(6) 0.0257(3)
H69 H 0.1875 0.2029 0.0230
H70 H 0.1415 0.2853 0.0145
C57 C -0.1851(8) 0.3472(6) 0.1010(2)
C58 C -0.0705(7) 0.3750(5) 0.0965(2)
C59 C -0.0413(8) 0.3855(6) 0.0651(2)
C60 C -0.1258(8) 0.3700(6) 0.0390(2)
H71 H -0.1050 0.3765 0.0182
C61 C -0.2396(8) 0.3453(5) 0.0434(2)
H72 H -0.2969 0.3373 0.0261
C62 C -0.2660(8) 0.3327(5) 0.0749(2)
H73 H -0.3410 0.3138 0.0782
C63 C -0.1259(7) 0.2859(6) 0.1626(2)
C64 C -0.0981(7) 0.2131(6) 0.1552(2)
C65 C -0.0113(8) 0.1729(5) 0.1753(2)
C66 C 0.0406(8) 0.2062(6) 0.2026(2)
H74 H 0.0968 0.1794 0.2159
C67 C 0.0118(9) 0.2787(6) 0.2109(3)
H75 H 0.0476 0.3000 0.2298
C68 C -0.0704(8) 0.3194(6) 0.1910(3)
H76 H -0.0891 0.3687 0.1962
C69 C 0.0659(7) 0.0756(5) 0.1289(2)
C70 C 0.1680(7) 0.1141(5) 0.1215(2)
C71 C 0.1990(7) 0.1104(5) 0.0900(2)
C72 C 0.1319(8) 0.0695(5) 0.0666(2)
H77 H 0.1538 0.0669 0.0458
C73 C 0.0291(8) 0.0316(6) 0.0750(2)
H78 H -0.0177 0.0040 0.0595
C74 C -0.0025(8) 0.0350(6) 0.1056(3)
H79 H -0.0705 0.0098 0.1108
C75 C 0.3150(7) 0.2484(6) 0.0856(2)
C76 C 0.2173(7) 0.2902(6) 0.0733(2)
C77 C 0.2120(8) 0.3701(6) 0.0763(2)
C78 C 0.3117(9) 0.4044(6) 0.0920(2)
H80 H 0.3100 0.4565 0.0944
C79 C 0.4123(9) 0.3673(6) 0.1041(2)
H81 H 0.4781 0.3931 0.1140
C80 C 0.4129(8) 0.2898(6) 0.1010(2)
H82 H 0.4807 0.2635 0.1094
O23 O 0.0429(6) -0.5517(5) 0.24960(18)
O24 O 0.1214(6) -0.4351(4) 0.25327(16)
C81 C -0.0606(10) -0.4478(8) 0.2215(3)
H83 H -0.1162 -0.4849 0.2123
H84 H -0.0270 -0.4209 0.2047
H85 H -0.1014 -0.4131 0.2342
C82 C 0.0361(9) -0.4856(8) 0.2421(3)
C83 C 0.2195(9) -0.4625(6) 0.2741(3)
H86 H 0.2615 -0.5012 0.2633
H87 H 0.1910 -0.4846 0.2931
C84 C 0.2995(12) -0.4005(9) 0.2831(4)
H88 H 0.3450 -0.3885 0.2656
H89 H 0.3530 -0.4144 0.3016
H90 H 0.2537 -0.3572 0.2882
O25? O 0.875(3) -0.388(2) 0.0789(6)
C85? C 0.924(3) -0.333(3) 0.1016(7)
O26? O -0.253(3) 0.4093(12) 0.1589(7)
O27? O 0.106(3) 0.052(2) 0.1960(6)
loop_
_geom_bond_atom_site_label_1
_geom_bond_atom_site_label_2
_geom_bond_site_symmetry_1
_geom_bond_site_symmetry_2
S1 O1 1_555 1_555
S2 C19 1_555 1_555
S3 C25 1_555 1_555
S4 C31 1_555 1_555
O2 C1 1_555 1_555
O3 C2 1_555 1_555
O4 C4 1_555 1_555
O5 C6 1_555 1_555
O6 C8 1_555 1_555
O7 C9 1_555 1_555
O8 C10 1_555 1_555
O9 C12 1_555 1_555
O10 C14 1_555 1_555
O11 C16 1_555 1_555
C1 H1 1_555 1_555
H2 C1 1_555 1_555
C2 C1 1_555 1_555
H3 C2 1_555 1_555
H4 C2 1_555 1_555
C3 O3 1_555 1_555
H5 C3 1_555 1_555
H6 C3 1_555 1_555
C4 C3 1_555 1_555
H7 C4 1_555 1_555
H8 C4 1_555 1_555
C5 O4 1_555 1_555
H9 C5 1_555 1_555
H10 C5 1_555 1_555
C6 C5 1_555 1_555
H11 C6 1_555 1_555
H12 C6 1_555 1_555
C7 O5 1_555 1_555
H13 C7 1_555 1_555
H14 C7 1_555 1_555
C8 C7 1_555 1_555
H15 C8 1_555 1_555
H16 C8 1_555 1_555
C9 C10 1_555 1_555
C11 O8 1_555 1_555
C12 C11 1_555 1_555
H17 C12 1_555 1_555
H18 C12 1_555 1_555
C13 O9 1_555 1_555
H19 C13 1_555 1_555
H20 C13 1_555 1_555
C14 C13 1_555 1_555
H21 C14 1_555 1_555
H22 C14 1_555 1_555
C15 O10 1_555 1_555
H23 C15 1_555 1_555
H24 C15 1_555 1_555
C16 C15 1_555 1_555
H25 C16 1_555 1_555
H26 C16 1_555 1_555
C17 S1 1_555 1_555
C18 O2 1_555 1_555
C19 C18 1_555 1_555
C20 C19 1_555 1_555
H27 C20 1_555 1_555
C21 C20 1_555 1_555
H28 C21 1_555 1_555
C22 C17 1_555 1_555
H29 C22 1_555 1_555
C23 S2 1_555 1_555
C24 O7 1_555 1_555
C25 C24 1_555 1_555
C26 C25 1_555 1_555
H30 C26 1_555 1_555
C27 C26 1_555 1_555
H31 C27 1_555 1_555
C28 C23 1_555 1_555
H32 C28 1_555 1_555
C29 S3 1_555 1_555
C30 O6 1_555 1_555
C31 C30 1_555 1_555
C32 C31 1_555 1_555
H33 C32 1_555 1_555
C33 C32 1_555 1_555
H34 C33 1_555 1_555
C34 C29 1_555 1_555
H35 C34 1_555 1_555
C35 S4 1_555 1_555
C36 O11 1_555 1_555
C37 S1 1_555 1_555
C38 C37 1_555 1_555
H36 C38 1_555 1_555
C39 C38 1_555 1_555
H37 C39 1_555 1_555
C40 C35 1_555 1_555
H38 C40 1_555 1_555
S5 C57 1_555 1_555
S6 C65 1_555 1_555
S7 O12 1_555 1_555
S8 C59 1_555 1_555
O13 C41 1_555 1_555
O14 C42 1_555 1_555
O15 C44 1_555 1_555
O16 C46 1_555 1_555
O17 C48 1_555 1_555
O18 C49 1_555 1_555
O19 C50 1_555 1_555
O20 C52 1_555 1_555
O21 C54 1_555 1_555
O22 C56 1_555 1_555
C41 H39 1_555 1_555
H40 C41 1_555 1_555
C42 C41 1_555 1_555
H41 C42 1_555 1_555
H42 C42 1_555 1_555
C43 O14 1_555 1_555
H43 C43 1_555 1_555
H44 C43 1_555 1_555
C44 C43 1_555 1_555
H45 C44 1_555 1_555
H46 C44 1_555 1_555
C45 O15 1_555 1_555
H47 C45 1_555 1_555
H48 C45 1_555 1_555
C46 C45 1_555 1_555
H49 C46 1_555 1_555
H50 C46 1_555 1_555
C47 O16 1_555 1_555
H51 C47 1_555 1_555
H52 C47 1_555 1_555
C48 C47 1_555 1_555
H53 C48 1_555 1_555
H54 C48 1_555 1_555
C49 H55 1_555 1_555
H56 C49 1_555 1_555
C50 C49 1_555 1_555
H57 C50 1_555 1_555
H58 C50 1_555 1_555
C51 O19 1_555 1_555
H59 C51 1_555 1_555
H60 C51 1_555 1_555
C52 C51 1_555 1_555
H61 C52 1_555 1_555
H62 C52 1_555 1_555
C53 O20 1_555 1_555
H63 C53 1_555 1_555
H64 C53 1_555 1_555
C54 C53 1_555 1_555
H65 C54 1_555 1_555
H66 C54 1_555 1_555
C55 O21 1_555 1_555
H67 C55 1_555 1_555
H68 C55 1_555 1_555
C56 C55 1_555 1_555
H69 C56 1_555 1_555
H70 C56 1_555 1_555
C57 C58 1_555 1_555
C58 O13 1_555 1_555
C59 C58 1_555 1_555
C60 C59 1_555 1_555
H71 C60 1_555 1_555
C61 C60 1_555 1_555
H72 C61 1_555 1_555
C62 C57 1_555 1_555
H73 C62 1_555 1_555
C63 S5 1_555 1_555
C64 O18 1_555 1_555
C65 C64 1_555 1_555
C66 C65 1_555 1_555
H74 C66 1_555 1_555
C67 C66 1_555 1_555
H75 C67 1_555 1_555
C68 C63 1_555 1_555
H76 C68 1_555 1_555
C69 S6 1_555 1_555
C70 O17 1_555 1_555
C71 S7 1_555 1_555
C72 C71 1_555 1_555
H77 C72 1_555 1_555
C73 C72 1_555 1_555
H78 C73 1_555 1_555
C74 C69 1_555 1_555
H79 C74 1_555 1_555
C75 S7 1_555 1_555
C76 O22 1_555 1_555
C77 S8 1_555 1_555
C78 C77 1_555 1_555
H80 C78 1_555 1_555
C79 C78 1_555 1_555
H81 C79 1_555 1_555
C80 C75 1_555 1_555
H82 C80 1_555 1_555
O23 C82 1_555 1_555
O24 C82 1_555 1_555
C81 H83 1_555 1_555
H84 C81 1_555 1_555
H85 C81 1_555 1_555
C82 C81 1_555 1_555
C83 O24 1_555 1_555
H86 C83 1_555 1_555
H87 C83 1_555 1_555
C84 C83 1_555 1_555
H88 C84 1_555 1_555
H89 C84 1_555 1_555
H90 C84 1_555 1_555
C17 C18 1_555 1_555
C21 C22 1_555 1_555
C23 C24 1_555 1_555
C27 C28 1_555 1_555
C29 C30 1_555 1_555
C33 C34 1_555 1_555
C35 C36 1_555 1_555
C36 C37 1_555 1_555
C39 C40 1_555 1_555
C61 C62 1_555 1_555
C63 C64 1_555 1_555
C67 C68 1_555 1_555
C69 C70 1_555 1_555
C70 C71 1_555 1_555
C73 C74 1_555 1_555
C75 C76 1_555 1_555
C76 C77 1_555 1_555
C79 C80 1_555 1_555

#END
