
#######################################################################
#
#                 Cambridge Crystallographic Data Centre
#                                CCDC 
#
#######################################################################
#
# If this CIF has been generated from an entry in the Cambridge 
# Structural Database, then it will include bibliographic, chemical, 
# crystal, experimental, refinement or atomic coordinate data resulting 
# from the CCDC's data processing and validation procedures.
#
#######################################################################

data_VASPUC
_chemical_formula_moiety         'C17 H22 Br1 N1 O3'
_chemical_name_systematic        
't-Butyl 3-(4-bromobenzyl)-1-methyl-2-oxopyrrolidine-3-carboxylate'
_symmetry_cell_setting           monoclinic
_symmetry_space_group_name_H-M   'P 21'
_symmetry_Int_Tables_number      4
_space_group_name_Hall           'P 2yb'
loop_
_symmetry_equiv_pos_site_id
_symmetry_equiv_pos_as_xyz
1 x,y,z
2 -x,1/2+y,-z
_cell_length_a                   6.3623(19)
_cell_length_b                   22.039(7)
_cell_length_c                   12.749(4)
_cell_angle_alpha                90
_cell_angle_beta                 90.0000
_cell_angle_gamma                90
_cell_volume                     1787.65
_exptl_crystal_colour            colorless
_exptl_crystal_description       needle
_cell_formula_units_Z            4
_exptl_crystal_recrystallization_method ethylacetate/hexane
loop_
_atom_site_label
_atom_site_type_symbol
_atom_site_fract_x
_atom_site_fract_y
_atom_site_fract_z
Br1 Br 0.2200(3) 0.40225(6) 0.12754(11)
O3 O -0.0891(11) 0.7555(4) -0.1989(6)
O4 O 0.0566(11) 0.7644(4) 0.0718(6)
O6 O -0.1806(13) 0.6910(4) 0.0588(7)
N2 N 0.2467(15) 0.7793(5) -0.1569(8)
C2 C -0.0666(18) 0.5570(6) 0.0185(9)
C5 C 0.0710(19) 0.5802(6) -0.0526(9)
C11 C 0.0674(18) 0.7477(6) -0.1501(9)
C12 C 0.161(2) 0.4743(5) 0.0536(10)
C13 C 0.2993(18) 0.4965(6) -0.0170(11)
C16 C -0.2505(18) 0.8138(8) 0.1487(10)
C18 C 0.0191(17) 0.6374(5) -0.1151(8)
C19 C 0.3395(15) 0.6977(6) -0.0507(9)
C21 C 0.1012(15) 0.6962(6) -0.0682(8)
C22 C 0.2556(17) 0.5485(7) -0.0708(12)
C23 C 0.4089(16) 0.7610(6) -0.0870(9)
C24 C 0.2674(17) 0.8335(6) -0.2230(10)
C27 C -0.0222(18) 0.5051(6) 0.0720(9)
C28 C -0.0272(19) 0.7925(7) 0.1688(11)
C30 C -0.0249(19) 0.7153(6) 0.0278(9)
C31 C 0.108(3) 0.8489(7) 0.1760(12)
C34 C -0.001(3) 0.7515(8) 0.2585(10)
H1 H -0.1930 0.5770 0.0308
H10 H 0.4251 0.4761 -0.0291
H15 H -0.2926 0.8412 0.2033
H16 H -0.3431 0.7794 0.1478
H17 H -0.2569 0.8342 0.0823
H18 H -0.1324 0.6404 -0.1217
H19 H 0.0765 0.6331 -0.1852
H20 H 0.4084 0.6664 -0.0917
H21 H 0.3729 0.6916 0.0227
H24 H 0.3508 0.5629 -0.1202
H25 H 0.4196 0.7887 -0.0281
H26 H 0.5435 0.7592 -0.1227
H27 H 0.1615 0.8328 -0.2767
H28 H 0.4040 0.8340 -0.2550
H29 H 0.2501 0.8692 -0.1807
H31 H -0.1171 0.4904 0.1214
H35 H 0.0556 0.8749 0.2304
H36 H 0.1053 0.8701 0.1103
H37 H 0.2504 0.8374 0.1920
H42 H -0.0836 0.7156 0.2475
H43 H -0.0472 0.7715 0.3213
H44 H 0.1442 0.7406 0.2653
Br2 Br 0.7206(2) 0.95573(6) 0.37222(11)
O1 O 0.4084(10) 0.6027(3) 0.7008(6)
O2 O 0.3173(13) 0.6674(4) 0.4421(7)
O5 O 0.5569(11) 0.5927(4) 0.4278(6)
N1 N 0.7494(14) 0.5790(5) 0.6584(8)
C1 C 0.5739(19) 0.7781(5) 0.5502(9)
C3 C 0.5699(19) 0.6109(6) 0.6516(9)
C4 C 0.5239(14) 0.7209(5) 0.6149(8)
C6 C 0.7964(19) 0.8615(6) 0.5137(11)
C7 C 0.475(2) 0.6437(6) 0.4725(11)
C8 C 0.9109(15) 0.5962(6) 0.5833(9)
C9 C 0.5989(16) 0.6599(6) 0.5682(10)
C10 C 0.2438(18) 0.5473(7) 0.3499(10)
C14 C 0.7684(16) 0.5265(7) 0.7211(11)
C15 C 0.475(2) 0.8528(6) 0.4273(10)
C17 C 0.658(3) 0.8839(5) 0.4448(10)
C20 C 0.8416(14) 0.6587(6) 0.5483(9)
C25 C 0.471(2) 0.5642(7) 0.3306(10)
C26 C 0.4344(18) 0.8008(6) 0.4794(10)
C29 C 0.603(2) 0.5082(7) 0.3234(12)
C32 C 0.493(2) 0.6063(7) 0.2414(9)
C33 C 0.7539(18) 0.8096(7) 0.5707(11)
H2 H 0.3728 0.7187 0.6246
H3 H 0.5868 0.7255 0.6838
H4 H 0.9240 0.8813 0.5234
H5 H 0.9154 0.5682 0.5247
H6 H 1.0483 0.5977 0.6162
H7 H 0.2015 0.5169 0.3003
H8 H 0.1569 0.5826 0.3417
H9 H 0.2288 0.5318 0.4198
H11 H 0.6556 0.5254 0.7711
H12 H 0.9004 0.5274 0.7576
H13 H 0.7621 0.4911 0.6774
H14 H 0.3782 0.8677 0.3792
H22 H 0.8725 0.6649 0.4746
H23 H 0.9116 0.6899 0.5888
H30 H 0.3093 0.7802 0.4667
H32 H 0.7474 0.5194 0.3133
H33 H 0.5566 0.4841 0.2651
H34 H 0.5894 0.4853 0.3870
H38 H 0.6346 0.6215 0.2390
H39 H 0.3973 0.6395 0.2499
H40 H 0.4623 0.5853 0.1773
H41 H 0.8466 0.7963 0.6223
loop_
_geom_bond_atom_site_label_1
_geom_bond_atom_site_label_2
_geom_bond_site_symmetry_1
_geom_bond_site_symmetry_2
Br1 C12 1_555 1_555
Br2 C17 1_555 1_555
O1 C3 1_555 1_555
O2 C7 1_555 1_555
O3 C11 1_555 1_555
O4 C28 1_555 1_555
O5 C7 1_555 1_555
O6 C30 1_555 1_555
N1 C3 1_555 1_555
N2 C11 1_555 1_555
C1 C4 1_555 1_555
C2 C5 1_555 1_555
C3 C9 1_555 1_555
C4 C9 1_555 1_555
C5 C18 1_555 1_555
C6 C17 1_555 1_555
C7 C9 1_555 1_555
C8 N1 1_555 1_555
C9 C20 1_555 1_555
C10 C25 1_555 1_555
C11 C21 1_555 1_555
C12 C13 1_555 1_555
C13 C22 1_555 1_555
C14 N1 1_555 1_555
C15 C17 1_555 1_555
C16 C28 1_555 1_555
C18 C21 1_555 1_555
C19 C21 1_555 1_555
C20 C8 1_555 1_555
C21 C30 1_555 1_555
C22 C5 1_555 1_555
C23 N2 1_555 1_555
C24 N2 1_555 1_555
C25 O5 1_555 1_555
C26 C1 1_555 1_555
C27 C2 1_555 1_555
C28 C31 1_555 1_555
C29 C25 1_555 1_555
C30 O4 1_555 1_555
C31 H35 1_555 1_555
C32 C25 1_555 1_555
C33 C1 1_555 1_555
C34 C28 1_555 1_555
H1 C2 1_555 1_555
H2 C4 1_555 1_555
H3 C4 1_555 1_555
H4 C6 1_555 1_555
H5 C8 1_555 1_555
H6 C8 1_555 1_555
H7 C10 1_555 1_555
H8 C10 1_555 1_555
H9 C10 1_555 1_555
H10 C13 1_555 1_555
H11 C14 1_555 1_555
H12 C14 1_555 1_555
H13 C14 1_555 1_555
H14 C15 1_555 1_555
H15 C16 1_555 1_555
H16 C16 1_555 1_555
H17 C16 1_555 1_555
H18 C18 1_555 1_555
H19 C18 1_555 1_555
H20 C19 1_555 1_555
H21 C19 1_555 1_555
H22 C20 1_555 1_555
H23 C20 1_555 1_555
H24 C22 1_555 1_555
H25 C23 1_555 1_555
H26 C23 1_555 1_555
H27 C24 1_555 1_555
H28 C24 1_555 1_555
H29 C24 1_555 1_555
H30 C26 1_555 1_555
H31 C27 1_555 1_555
H32 C29 1_555 1_555
H33 C29 1_555 1_555
H34 C29 1_555 1_555
H36 C31 1_555 1_555
H37 C31 1_555 1_555
H38 C32 1_555 1_555
H39 C32 1_555 1_555
H40 C32 1_555 1_555
H41 C33 1_555 1_555
H42 C34 1_555 1_555
H43 C34 1_555 1_555
H44 C34 1_555 1_555
C6 C33 1_555 1_555
C12 C27 1_555 1_555
C15 C26 1_555 1_555
C19 C23 1_555 1_555

#END
