
#######################################################################
#
#                 Cambridge Crystallographic Data Centre
#                                CCDC 
#
#######################################################################
#
# If this CIF has been generated from an entry in the Cambridge 
# Structural Database, then it will include bibliographic, chemical, 
# crystal, experimental, refinement or atomic coordinate data resulting 
# from the CCDC's data processing and validation procedures.
#
#######################################################################

data_VASSEO
_chemical_formula_moiety         'C15 H18 O3 S1'
_chemical_name_systematic        2-Methyl-3-(phenylsulfonyl)-5-n-butylfuran
_symmetry_cell_setting           orthorhombic
_symmetry_space_group_name_H-M   'P c a 21'
_symmetry_Int_Tables_number      29
_space_group_name_Hall           'P 2c -2ac'
loop_
_symmetry_equiv_pos_site_id
_symmetry_equiv_pos_as_xyz
1 x,y,z
2 -x,-y,1/2+z
3 1/2+x,-y,z
4 1/2-x,y,1/2+z
_cell_length_a                   12.0416(9)
_cell_length_b                   15.7116(11)
_cell_length_c                   15.1600(11)
_cell_angle_alpha                90
_cell_angle_beta                 90
_cell_angle_gamma                90
_cell_volume                     2868.16
_exptl_crystal_colour            colorless
_exptl_crystal_description       needles
_chemical_melting_point          58-59deg.C
_cell_formula_units_Z            8
loop_
_atom_site_label
_atom_site_type_symbol
_atom_site_fract_x
_atom_site_fract_y
_atom_site_fract_z
S1 S 0.58573(6) 0.01349(5) 0.54318(5)
O1 O 0.65114(16) 0.25168(13) 0.59114(14)
O2 O 0.64947(18) -0.04627(12) 0.59284(14)
O3 O 0.46649(15) 0.01519(13) 0.55260(14)
C1 C 0.6370(2) 0.11437(17) 0.56534(16)
C2 C 0.5795(2) 0.1860(2) 0.5761(2)
C3 C 0.7575(2) 0.21845(17) 0.58922(19)
C4 C 0.7526(2) 0.13497(17) 0.57355(19)
C5 C 0.8490(3) 0.2793(2) 0.6021(3)
C6 C 0.9631(3) 0.2381(2) 0.6025(3)
C7 C 1.0578(3) 0.2996(2) 0.6132(3)
C8 C 1.1696(3) 0.2575(2) 0.6141(3)
H1 H 1.1746 0.2201 0.6640
H2 H 1.2265 0.3001 0.6181
H3 H 1.1793 0.2253 0.5608
C9 C 0.4599(4) 0.2078(3) 0.5765(3)
C10 C 0.6168(2) -0.00344(17) 0.43127(19)
C11 C 0.7154(2) -0.0361(2) 0.4062(2)
H4 H 0.7682 -0.0509 0.4482
C12 C 0.7377(3) -0.0475(2) 0.3157(2)
H5 H 0.8053 -0.0702 0.2977
C13 C 0.6600(3) -0.0253(2) 0.2552(2)
H6 H 0.6749 -0.0326 0.1954
C14 C 0.5612(3) 0.0073(2) 0.2809(2)
H7 H 0.5083 0.0221 0.2389
C15 C 0.5390(2) 0.01855(19) 0.3691(2)
H8 H 0.4712 0.0411 0.3867
H17 H 0.8126(15) 0.1000(12) 0.5705(14)
H18 H 0.843(2) 0.3091(17) 0.6537(18)
H19 H 0.848(2) 0.3223(17) 0.558(2)
H20 H 0.967(2) 0.1964(13) 0.6507(13)
H21 H 0.970(2) 0.2059(15) 0.5505(14)
H22 H 1.044(2) 0.3329(15) 0.6681(13)
H23 H 1.050(2) 0.3387(18) 0.562(2)
H24 H 0.419(3) 0.1675(19) 0.541(2)
H25 H 0.449(3) 0.2636(13) 0.560(2)
H26 H 0.434(3) 0.221(2) 0.6329(15)
S2 S 0.43595(7) 0.48592(5) 0.42018(5)
O4 O 0.49193(16) 0.25247(12) 0.34772(12)
O5 O 0.52764(15) 0.54382(11) 0.41430(15)
O6 O 0.33547(17) 0.50596(13) 0.37480(14)
C16 C 0.4837(2) 0.38797(18) 0.38623(17)
C17 C 0.4223(2) 0.3181(2) 0.3676(2)
C18 C 0.5992(2) 0.2826(2) 0.35482(19)
C19 C 0.5979(2) 0.36421(19) 0.37738(18)
C20 C 0.6887(3) 0.2194(2) 0.3379(2)
C21 C 0.8045(3) 0.2589(2) 0.3397(2)
C22 C 0.8961(3) 0.1943(2) 0.3308(3)
C23 C 1.0113(3) 0.2339(3) 0.3358(4)
C24 C 0.3010(2) 0.3000(2) 0.3667(2)
H9 H 0.2617 0.3468 0.3927
H10 H 0.2864 0.2491 0.3997
H11 H 0.2766 0.2923 0.3069
C25 C 0.4042(2) 0.47324(16) 0.53218(19)
C26 C 0.4875(2) 0.4564(2) 0.5905(2)
H12 H 0.5598 0.4491 0.5702
C27 C 0.4649(3) 0.4501(2) 0.6801(2)
H13 H 0.5218 0.4379 0.7196
C28 C 0.3595(3) 0.4617(2) 0.7100(2)
H14 H 0.3449 0.4596 0.7702
C29 C 0.2764(3) 0.4761(2) 0.6527(2)
H15 H 0.2041 0.4819 0.6733
C30 C 0.2978(2) 0.48250(19) 0.5625(2)
H16 H 0.2401 0.4930 0.5232
H27 H 0.6620(19) 0.4025(15) 0.3863(15)
H28 H 0.6778(18) 0.1920(13) 0.2789(12)
H29 H 0.683(2) 0.1724(13) 0.3800(14)
H30 H 0.816(2) 0.3029(13) 0.2940(15)
H31 H 0.814(2) 0.2886(16) 0.3957(13)
H32 H 0.886(3) 0.162(2) 0.276(2)
H33 H 0.889(2) 0.1504(17) 0.378(2)
H34 H 1.073(3) 0.198(2) 0.324(2)
H35 H 1.025(2) 0.2703(17) 0.2834(14)
H36 H 1.011(3) 0.265(2) 0.3909(18)
loop_
_geom_bond_atom_site_label_1
_geom_bond_atom_site_label_2
_geom_bond_site_symmetry_1
_geom_bond_site_symmetry_2
S1 O2 1_555 1_555
S2 O5 1_555 1_555
O1 C2 1_555 1_555
O3 S1 1_555 1_555
O4 C17 1_555 1_555
O6 S2 1_555 1_555
C1 S1 1_555 1_555
C2 C1 1_555 1_555
C3 O1 1_555 1_555
C4 C1 1_555 1_555
C5 C3 1_555 1_555
C6 C5 1_555 1_555
C7 C6 1_555 1_555
C8 C7 1_555 1_555
H1 C8 1_555 1_555
H2 C8 1_555 1_555
H3 C8 1_555 1_555
C9 C2 1_555 1_555
C10 S1 1_555 1_555
C11 C10 1_555 1_555
H4 C11 1_555 1_555
C12 C11 1_555 1_555
H5 C12 1_555 1_555
C13 C12 1_555 1_555
H6 C13 1_555 1_555
C14 C13 1_555 1_555
H7 C14 1_555 1_555
C15 C10 1_555 1_555
H8 C15 1_555 1_555
C16 S2 1_555 1_555
C17 C16 1_555 1_555
C18 O4 1_555 1_555
C19 C16 1_555 1_555
C20 C18 1_555 1_555
C21 C20 1_555 1_555
C22 C21 1_555 1_555
C23 C22 1_555 1_555
C24 C17 1_555 1_555
H9 C24 1_555 1_555
H10 C24 1_555 1_555
H11 C24 1_555 1_555
C25 S2 1_555 1_555
C26 C25 1_555 1_555
H12 C26 1_555 1_555
C27 C26 1_555 1_555
H13 C27 1_555 1_555
C28 C27 1_555 1_555
H14 C28 1_555 1_555
C29 C28 1_555 1_555
H15 C29 1_555 1_555
C30 C25 1_555 1_555
H16 C30 1_555 1_555
H17 C4 1_555 1_555
H18 C5 1_555 1_555
H19 C5 1_555 1_555
H20 C6 1_555 1_555
H21 C6 1_555 1_555
H22 C7 1_555 1_555
H23 C7 1_555 1_555
H24 C9 1_555 1_555
H25 C9 1_555 1_555
H26 C9 1_555 1_555
H27 C19 1_555 1_555
H28 C20 1_555 1_555
H29 C20 1_555 1_555
H30 C21 1_555 1_555
H31 C21 1_555 1_555
H32 C22 1_555 1_555
H33 C22 1_555 1_555
H34 C23 1_555 1_555
H35 C23 1_555 1_555
H36 C23 1_555 1_555
C3 C4 1_555 1_555
C14 C15 1_555 1_555
C18 C19 1_555 1_555
C29 C30 1_555 1_555

#END
