
#######################################################################
#
#                 Cambridge Crystallographic Data Centre
#                                CCDC 
#
#######################################################################
#
# If this CIF has been generated from an entry in the Cambridge 
# Structural Database, then it will include bibliographic, chemical, 
# crystal, experimental, refinement or atomic coordinate data resulting 
# from the CCDC's data processing and validation procedures.
#
#######################################################################

data_VASYIZ
_chemical_formula_moiety         'C98 H94 N2 O6,C36 H44 O10,3(C6 H6)'
_chemical_name_systematic        
"[2]-(2,9-bis(2-(4-(bis(4-t-butylphenyl)(4-ethylphenyl)methyl)phenoxy)ethyl)isoquinolino[4',5',6':6,5,10]anthra[2,1,9-def]isoquinoline-1,3,8,10(2H,9H)-tetrone)-(6,9,12,15,18,29,32,35,38,41-decaoxapentacyclo[40.4.0.0^5,46^.0^19,24^.0^23,28^]hexatetraconta-1(46),2,4,19,21,23,25,27,42,44-decaene)-rotaxane benzene solvate"
_symmetry_cell_setting           triclinic
_symmetry_space_group_name_H-M   'P -1'
_symmetry_Int_Tables_number      2
_space_group_name_Hall           '-P 1'
loop_
_symmetry_equiv_pos_site_id
_symmetry_equiv_pos_as_xyz
1 x,y,z
2 -x,-y,-z
_cell_length_a                   12.3285(18)
_cell_length_b                   13.103(2)
_cell_length_c                   20.068(3)
_cell_angle_alpha                75.090(13)
_cell_angle_beta                 78.565(13)
_cell_angle_gamma                89.624(12)
_cell_volume                     3067.08
_exptl_crystal_colour            red
_exptl_crystal_description       plate
_cell_formula_units_Z            1
loop_
_atom_site_label
_atom_site_type_symbol
_atom_site_fract_x
_atom_site_fract_y
_atom_site_fract_z
C50 C 1.1178(5) 0.7607(4) 0.3520(3)
C51 C 1.2090(5) 0.7155(4) 0.3210(3)
H48 H 1.2818 0.7409 0.3193
C52 C 1.1926(5) 0.6312(4) 0.2919(3)
H49 H 1.2551 0.5988 0.2714
C53 C 1.0895(5) 0.5953(5) 0.2925(3)
H50 H 1.0807 0.5398 0.2711
C54 C 0.8838(5) 0.6050(5) 0.3261(3)
C55 C 0.7950(5) 0.6490(6) 0.3587(3)
H51 H 0.7221 0.6231 0.3613
C56 C 0.8110(5) 0.7317(5) 0.3881(3)
H52 H 0.7478 0.7623 0.4094
C57 C 0.9123(5) 0.7699(5) 0.3875(3)
H53 H 0.9200 0.8259 0.4086
C58 C 0.9943(5) 0.6397(5) 0.3248(3)
C59 C 1.0092(5) 0.7252(4) 0.3546(3)
O4 O 1.1227(3) 0.8402(3) 0.3836(2)
C60 C 1.2286(5) 0.8879(5) 0.3785(4)
H54 H 1.2634 0.9197 0.3286
H55 H 1.2778 0.8342 0.3993
C61 C 1.2114(6) 0.9712(5) 0.4178(4)
H56 H 1.2780 1.0196 0.4044
H57 H 1.1476 1.0132 0.4058
O5 O 1.1909(4) 0.9215(4) 0.4916(3)
C62 C 1.1663(7) 0.9909(6) 0.5340(5)
H58 H 1.0994 1.0289 0.5238
H59 H 1.2285 1.0440 0.5229
C63 C 1.1467(7) 0.9342(6) 0.6106(4)
H60 H 1.2094 0.8890 0.6203
H61 H 1.1414 0.9861 0.6392
O6 O 1.0509(4) 0.8737(4) 0.6282(3)
C64 C 1.0203(8) 0.8235(8) 0.7015(5)
H62 H 0.9388 0.8242 0.7162
H63 H 1.0537 0.8654 0.7276
C65 C 1.0579(12) 0.7012(11) 0.7241(8)
H64 H 1.0351 0.6729 0.7758
H65 H 1.0194 0.6573 0.7017
O7 O 1.1600(8) 0.6945(6) 0.7063(4)
C66 C 1.2131(7) 0.6099(8) 0.7380(5)
H66 H 1.1707 0.5806 0.7866
H67 H 1.2868 0.6351 0.7413
C67 C 1.2290(6) 0.5205(7) 0.7013(5)
H68 H 1.2679 0.5483 0.6517
H69 H 1.2742 0.4656 0.7253
O8 O 1.1220(4) 0.4763(4) 0.7043(2)
C50A C 0.8822(5) 0.2393(4) 0.6480(3)
C51A C 0.7910(5) 0.2845(4) 0.6790(3)
H48A H 0.7182 0.2591 0.6807
C52A C 0.8074(5) 0.3688(4) 0.7081(3)
H49A H 0.7449 0.4012 0.7286
C53A C 0.9105(5) 0.4047(5) 0.7075(3)
H50A H 0.9193 0.4602 0.7289
C54A C 1.1162(5) 0.3950(5) 0.6739(3)
C55A C 1.2050(5) 0.3510(6) 0.6413(3)
H51A H 1.2779 0.3769 0.6387
C56A C 1.1890(5) 0.2683(5) 0.6119(3)
H52A H 1.2522 0.2377 0.5906
C57A C 1.0877(5) 0.2301(5) 0.6125(3)
H53A H 1.0800 0.1741 0.5914
C58A C 1.0057(5) 0.3603(5) 0.6752(3)
C59A C 0.9908(5) 0.2748(4) 0.6454(3)
O4A O 0.8773(3) 0.1598(3) 0.6164(2)
C60A C 0.7714(5) 0.1121(5) 0.6215(4)
H54A H 0.7366 0.0803 0.6714
H55A H 0.7222 0.1658 0.6007
C61A C 0.7886(6) 0.0288(5) 0.5822(4)
H56A H 0.7220 -0.0196 0.5956
H57A H 0.8524 -0.0132 0.5942
O5A O 0.8091(4) 0.0785(4) 0.5084(3)
C62A C 0.8337(7) 0.0091(6) 0.4660(5)
H58A H 0.9006 -0.0289 0.4762
H59A H 0.7715 -0.0440 0.4771
C63A C 0.8533(7) 0.0658(6) 0.3894(4)
H60A H 0.7906 0.1110 0.3797
H61A H 0.8586 0.0139 0.3608
O6A O 0.9491(4) 0.1263(4) 0.3718(3)
C64A C 0.9797(8) 0.1765(8) 0.2985(5)
H62A H 1.0612 0.1758 0.2838
H63A H 0.9463 0.1346 0.2724
C65A C 0.9421(12) 0.2988(11) 0.2759(8)
H64A H 0.9649 0.3271 0.2242
H65A H 0.9806 0.3427 0.2983
O7A O 0.8400(8) 0.3055(6) 0.2937(4)
C66A C 0.7869(7) 0.3901(8) 0.2620(5)
H66A H 0.8293 0.4194 0.2134
H67A H 0.7132 0.3649 0.2587
C67A C 0.7710(6) 0.4795(7) 0.2987(5)
H68A H 0.7321 0.4517 0.3483
H69A H 0.7258 0.5344 0.2747
O8A O 0.8780(4) 0.5237(4) 0.2957(2)
C1 C 0.7970(4) 0.4030(4) 0.4961(3)
H1 H 0.7978 0.3434 0.4773
C2 C 0.6968(4) 0.4388(4) 0.5212(3)
H2 H 0.6304 0.4055 0.5182
C3 C 0.6917(4) 0.5250(4) 0.5517(3)
C4 C 0.7882(4) 0.6672(4) 0.5797(3)
C5 C 0.8851(4) 0.7152(4) 0.5819(3)
H3 H 0.8827 0.7745 0.6011
C6 C 0.9858(4) 0.6791(4) 0.5569(3)
H4 H 1.0516 0.7151 0.5583
C7 C 0.8977(4) 0.4493(4) 0.4966(3)
C8 C 0.8947(4) 0.5377(4) 0.5274(2)
C9 C 0.7895(4) 0.5745(4) 0.5534(3)
C10 C 0.9944(4) 0.5893(4) 0.5288(3)
C11 C 0.5818(4) 0.5614(4) 0.5796(3)
O1 O 0.4944(3) 0.5144(3) 0.58543(19)
N1 N 0.5852(3) 0.6574(3) 0.5999(2)
C12 C 0.6803(4) 0.7094(4) 0.6028(3)
O2 O 0.6731(3) 0.7912(3) 0.6232(2)
C13 C 0.4782(4) 0.7088(4) 0.6136(3)
H5 H 0.4163 0.6560 0.6229
H6 H 0.4735 0.7352 0.6560
C14 C 0.4675(5) 0.7981(4) 0.5527(3)
H7 H 0.3964 0.8322 0.5626
H8 H 0.5289 0.8517 0.5425
O3 O 0.4718(3) 0.7527(3) 0.4934(2)
C15 C 0.4982(4) 0.8138(4) 0.4262(3)
C16 C 0.5256(4) 0.7640(4) 0.3721(3)
H9 H 0.5261 0.6890 0.3835
C17 C 0.5513(4) 0.8187(4) 0.3046(3)
H10 H 0.5680 0.7803 0.2699
C18 C 0.5551(5) 0.9295(5) 0.2819(3)
C19 C 0.5247(5) 0.9798(5) 0.3368(3)
H11 H 0.5226 1.0547 0.3249
C20 C 0.4981(5) 0.9253(5) 0.4071(3)
H12 H 0.4798 0.9626 0.4424
C21 C 0.5907(5) 0.9909(5) 0.2047(3)
C22 C 0.5487(5) 0.9299(5) 0.1570(3)
C23 C 0.6083(6) 0.9300(6) 0.0887(4)
H13 H 0.6792 0.9652 0.0707
C24 C 0.5602(7) 0.8769(7) 0.0479(4)
H14 H 0.6032 0.8754 0.0033
C25 C 0.4616(7) 0.8295(6) 0.0662(4)
C26 C 0.4016(6) 0.8249(6) 0.1345(4)
H15 H 0.3322 0.7867 0.1522
C27 C 0.4471(5) 0.8784(5) 0.1764(4)
H16 H 0.4037 0.8785 0.2212
C28 C 0.4185(8) 0.7685(7) 0.0191(4)
H17 H 0.4326 0.8138 -0.0298
H18 H 0.4621 0.7048 0.0190
C29 C 0.2999(8) 0.7350(7) 0.0401(5)
H19 H 0.2821 0.6924 0.0097
H20 H 0.2552 0.7976 0.0352
H21 H 0.2837 0.6928 0.0892
C30 C 0.7208(5) 1.0041(5) 0.1862(3)
C31 C 0.7727(5) 1.0763(6) 0.1237(4)
H22 H 0.7294 1.1181 0.0936
C32 C 0.8886(6) 1.0869(6) 0.1055(4)
H23 H 0.9229 1.1377 0.0636
C33 C 0.9541(5) 1.0252(6) 0.1471(4)
C34 C 0.9015(6) 0.9546(6) 0.2097(3)
H24 H 0.9446 0.9132 0.2401
C35 C 0.7875(6) 0.9444(5) 0.2279(4)
H25 H 0.7537 0.8947 0.2705
C36 C 1.0842(6) 1.0384(7) 0.1230(4)
C37 C 1.1224(7) 1.1559(8) 0.1043(5)
H26 H 1.0930 1.1952 0.0637
H27 H 1.2036 1.1623 0.0927
H28 H 1.0950 1.1848 0.1446
C38 C 1.1183(7) 0.9977(8) 0.0576(5)
H29 H 1.0809 0.9286 0.0655
H30 H 1.1987 0.9906 0.0481
H31 H 1.0974 1.0477 0.0172
C39 C 1.1398(7) 0.9778(9) 0.1803(5)
H32 H 1.1168 1.0035 0.2225
H33 H 1.2203 0.9878 0.1644
H34 H 1.1184 0.9024 0.1915
C40 C 0.5400(5) 1.1011(5) 0.1937(3)
C41 C 0.4344(6) 1.1141(6) 0.1818(4)
H35 H 0.3937 1.0545 0.1790
C42 C 0.3836(6) 1.2121(6) 0.1734(4)
H36 H 0.3107 1.2176 0.1644
C43 C 0.4395(6) 1.3000(5) 0.1782(3)
C44 C 0.5436(6) 1.2888(5) 0.1892(4)
H37 H 0.5841 1.3489 0.1914
C45 C 0.5952(6) 1.1898(5) 0.1977(4)
H38 H 0.6684 1.1849 0.2062
C46 C 0.3846(6) 1.4093(5) 0.1639(4)
C47 C 0.3873(10) 1.4489(7) 0.0855(4)
H39 H 0.4639 1.4527 0.0594
H40 H 0.3572 1.5194 0.0755
H41 H 0.3424 1.4003 0.0710
C48 C 0.2653(6) 1.4005(7) 0.2018(5)
H42 H 0.2258 1.3443 0.1907
H43 H 0.2307 1.4678 0.1868
H44 H 0.2617 1.3836 0.2527
C49 C 0.4465(7) 1.4890(6) 0.1907(5)
H45 H 0.4401 1.4630 0.2417
H46 H 0.4133 1.5580 0.1799
H47 H 0.5248 1.4962 0.1674
C1A C 1.2030(4) 0.5970(4) 0.5039(3)
H1A H 1.2022 0.6566 0.5227
C2A C 1.3032(4) 0.5612(4) 0.4788(3)
H2A H 1.3696 0.5945 0.4818
C3A C 1.3083(4) 0.4750(4) 0.4483(3)
C4A C 1.2118(4) 0.3328(4) 0.4203(3)
C5A C 1.1149(4) 0.2848(4) 0.4181(3)
H3A H 1.1173 0.2255 0.3989
C6A C 1.0142(4) 0.3209(4) 0.4431(3)
H4A H 0.9484 0.2849 0.4417
C7A C 1.1023(4) 0.5507(4) 0.5034(3)
C8A C 1.1053(4) 0.4623(4) 0.4726(2)
C9A C 1.2105(4) 0.4255(4) 0.4466(3)
C10A C 1.0056(4) 0.4107(4) 0.4712(3)
C11A C 1.4182(4) 0.4386(4) 0.4204(3)
O1A O 1.5056(3) 0.4856(3) 0.41457(19)
N1A N 1.4148(3) 0.3426(3) 0.4001(2)
C12A C 1.3197(4) 0.2906(4) 0.3972(3)
O2A O 1.3269(3) 0.2088(3) 0.3768(2)
C13A C 1.5218(4) 0.2912(4) 0.3864(3)
H5A H 1.5837 0.3440 0.3771
H6A H 1.5265 0.2648 0.3440
C14A C 1.5325(5) 0.2019(4) 0.4473(3)
H7A H 1.6036 0.1678 0.4374
H8A H 1.4711 0.1483 0.4575
O3A O 1.5282(3) 0.2473(3) 0.5066(2)
C15A C 1.5018(4) 0.1862(4) 0.5738(3)
C16A C 1.4744(4) 0.2360(4) 0.6279(3)
H9A H 1.4739 0.3110 0.6165
C17A C 1.4487(4) 0.1813(4) 0.6954(3)
H10A H 1.4320 0.2197 0.7301
C18A C 1.4449(5) 0.0705(5) 0.7181(3)
C19A C 1.4753(5) 0.0202(5) 0.6632(3)
H11A H 1.4774 -0.0547 0.6751
C20A C 1.5019(5) 0.0747(5) 0.5929(3)
H12A H 1.5202 0.0374 0.5576
C21A C 1.4093(5) 0.0091(5) 0.7953(3)
C22A C 1.4513(5) 0.0701(5) 0.8430(3)
C23A C 1.3917(6) 0.0700(6) 0.9113(4)
H13A H 1.3208 0.0348 0.9293
C24A C 1.4398(7) 0.1231(7) 0.9521(4)
H14A H 1.3968 0.1246 0.9967
C25A C 1.5384(7) 0.1705(6) 0.9338(4)
C26A C 1.5984(6) 0.1751(6) 0.8655(4)
H15A H 1.6678 0.2133 0.8478
C27A C 1.5529(5) 0.1216(5) 0.8236(4)
H16A H 1.5963 0.1215 0.7788
C28A C 1.5815(8) 0.2315(7) 0.9809(4)
H17A H 1.5674 0.1862 1.0298
H18A H 1.5379 0.2952 0.9810
C29A C 1.7001(8) 0.2650(7) 0.9599(5)
H19A H 1.7179 0.3076 0.9903
H20A H 1.7448 0.2024 0.9648
H21A H 1.7163 0.3072 0.9108
C30A C 1.2792(5) -0.0041(5) 0.8138(3)
C31A C 1.2273(5) -0.0763(6) 0.8763(4)
H22A H 1.2706 -0.1181 0.9064
C32A C 1.1114(6) -0.0869(6) 0.8945(4)
H23A H 1.0771 -0.1377 0.9364
C33A C 1.0459(5) -0.0252(6) 0.8529(4)
C34A C 1.0985(6) 0.0454(6) 0.7903(3)
H24A H 1.0554 0.0868 0.7599
C35A C 1.2125(6) 0.0556(5) 0.7721(4)
H25A H 1.2463 0.1053 0.7295
C36A C 0.9158(6) -0.0384(7) 0.8770(4)
C37A C 0.8776(7) -0.1559(8) 0.8957(5)
H26A H 0.9070 -0.1952 0.9363
H27A H 0.7964 -0.1623 0.9073
H28A H 0.9050 -0.1848 0.8554
C38A C 0.8817(7) 0.0023(8) 0.9424(5)
H29A H 0.9191 0.0714 0.9345
H30A H 0.8013 0.0094 0.9519
H31A H 0.9026 -0.0477 0.9828
C39A C 0.8602(7) 0.0222(9) 0.8197(5)
H32A H 0.8832 -0.0035 0.7775
H33A H 0.7797 0.0122 0.8356
H34A H 0.8816 0.0976 0.8085
C40A C 1.4600(5) -0.1011(5) 0.8063(3)
C41A C 1.5656(6) -0.1141(6) 0.8182(4)
H35A H 1.6063 -0.0545 0.8210
C42A C 1.6164(6) -0.2121(6) 0.8266(4)
H36A H 1.6893 -0.2176 0.8356
C43A C 1.5605(6) -0.3000(5) 0.8218(3)
C44A C 1.4564(6) -0.2888(5) 0.8108(4)
H37A H 1.4159 -0.3489 0.8086
C45A C 1.4048(6) -0.1898(5) 0.8023(4)
H38A H 1.3316 -0.1849 0.7938
C46A C 1.6154(6) -0.4093(5) 0.8361(4)
C47A C 1.6127(10) -0.4489(7) 0.9145(4)
H39A H 1.5361 -0.4527 0.9406
H40A H 1.6428 -0.5194 0.9245
H41A H 1.6576 -0.4003 0.9290
C48A C 1.7347(6) -0.4005(7) 0.7982(5)
H42A H 1.7742 -0.3443 0.8093
H43A H 1.7693 -0.4678 0.8132
H44A H 1.7383 -0.3836 0.7473
C49A C 1.5535(7) -0.4890(6) 0.8093(5)
H45A H 1.5599 -0.4630 0.7583
H46A H 1.5867 -0.5580 0.8201
H47A H 1.4752 -0.4962 0.8326
C68? C 1.1185(16) 0.7667(14) 0.7333(10)
H70? H 0.9596 0.7701 0.7092
H71? H 0.9920 0.8765 0.7273
H72? H 1.0915 0.7358 0.7844
H73? H 1.1779 0.8206 0.7277
loop_
_geom_bond_atom_site_label_1
_geom_bond_atom_site_label_2
_geom_bond_site_symmetry_1
_geom_bond_site_symmetry_2
C1 H1 1_555 1_555
C2 C1 1_555 1_555
H2 C2 1_555 1_555
C3 C2 1_555 1_555
C4 C5 1_555 1_555
C5 H3 1_555 1_555
C6 C5 1_555 1_555
H4 C6 1_555 1_555
C7 C1 1_555 1_555
C8 C7 1_555 1_555
C9 C3 1_555 1_555
C10 C6 1_555 1_555
C11 C3 1_555 1_555
O1 C11 1_555 1_555
N1 C11 1_555 1_555
C12 C4 1_555 1_555
O2 C12 1_555 1_555
C13 N1 1_555 1_555
H5 C13 1_555 1_555
H6 C13 1_555 1_555
C14 C13 1_555 1_555
H7 C14 1_555 1_555
H8 C14 1_555 1_555
O3 C14 1_555 1_555
C15 O3 1_555 1_555
C16 C15 1_555 1_555
H9 C16 1_555 1_555
C17 C16 1_555 1_555
H10 C17 1_555 1_555
C18 C17 1_555 1_555
C19 C18 1_555 1_555
H11 C19 1_555 1_555
C20 C15 1_555 1_555
H12 C20 1_555 1_555
C21 C18 1_555 1_555
C22 C21 1_555 1_555
C23 C22 1_555 1_555
H13 C23 1_555 1_555
C24 C23 1_555 1_555
H14 C24 1_555 1_555
C25 C24 1_555 1_555
C26 C25 1_555 1_555
H15 C26 1_555 1_555
C27 C22 1_555 1_555
H16 C27 1_555 1_555
C28 C25 1_555 1_555
H17 C28 1_555 1_555
H18 C28 1_555 1_555
C29 C28 1_555 1_555
H19 C29 1_555 1_555
H20 C29 1_555 1_555
H21 C29 1_555 1_555
C30 C21 1_555 1_555
C31 C30 1_555 1_555
H22 C31 1_555 1_555
C32 C31 1_555 1_555
H23 C32 1_555 1_555
C33 C32 1_555 1_555
C34 C33 1_555 1_555
H24 C34 1_555 1_555
C35 C30 1_555 1_555
H25 C35 1_555 1_555
C36 C33 1_555 1_555
C37 C36 1_555 1_555
H26 C37 1_555 1_555
H27 C37 1_555 1_555
H28 C37 1_555 1_555
C38 C36 1_555 1_555
H29 C38 1_555 1_555
H30 C38 1_555 1_555
H31 C38 1_555 1_555
C39 C36 1_555 1_555
H32 C39 1_555 1_555
H33 C39 1_555 1_555
H34 C39 1_555 1_555
C40 C21 1_555 1_555
C41 C40 1_555 1_555
H35 C41 1_555 1_555
C42 C41 1_555 1_555
H36 C42 1_555 1_555
C43 C42 1_555 1_555
C44 C43 1_555 1_555
H37 C44 1_555 1_555
C45 C40 1_555 1_555
H38 C45 1_555 1_555
C46 C43 1_555 1_555
C47 C46 1_555 1_555
H39 C47 1_555 1_555
H40 C47 1_555 1_555
H41 C47 1_555 1_555
C48 C46 1_555 1_555
H42 C48 1_555 1_555
H43 C48 1_555 1_555
H44 C48 1_555 1_555
C49 C46 1_555 1_555
H45 C49 1_555 1_555
H46 C49 1_555 1_555
H47 C49 1_555 1_555
C50 C51 1_555 1_555
C51 H48 1_555 1_555
C52 C51 1_555 1_555
H49 C52 1_555 1_555
C53 C52 1_555 1_555
H50 C53 1_555 1_555
C54 C55 1_555 1_555
C55 H51 1_555 1_555
C56 C55 1_555 1_555
H52 C56 1_555 1_555
C57 C56 1_555 1_555
H53 C57 1_555 1_555
C58 C53 1_555 1_555
C59 C50 1_555 1_555
O4 C50 1_555 1_555
C60 O4 1_555 1_555
H54 C60 1_555 1_555
H55 C60 1_555 1_555
C61 C60 1_555 1_555
H56 C61 1_555 1_555
H57 C61 1_555 1_555
O5 C61 1_555 1_555
C62 O5 1_555 1_555
H58 C62 1_555 1_555
H59 C62 1_555 1_555
C63 C62 1_555 1_555
H60 C63 1_555 1_555
H61 C63 1_555 1_555
O6 C63 1_555 1_555
C64 O6 1_555 1_555
H62 C64 1_555 1_555
H63 C64 1_555 1_555
C65 C64 1_555 1_555
H64 C65 1_555 1_555
H65 C65 1_555 1_555
O7 C65 1_555 1_555
C66 O7 1_555 1_555
H66 C66 1_555 1_555
H67 C66 1_555 1_555
C67 C66 1_555 1_555
H68 C67 1_555 1_555
H69 C67 1_555 1_555
O8 C67 1_555 1_555
C1A H1A 1_555 1_555
C2A C1A 1_555 1_555
H2A C2A 1_555 1_555
C3A C2A 1_555 1_555
C4A C5A 1_555 1_555
C5A H3A 1_555 1_555
C6A C5A 1_555 1_555
H4A C6A 1_555 1_555
C7A C10 1_555 1_555
C8A C7A 1_555 1_555
C9A C3A 1_555 1_555
C10A C7 1_555 1_555
C11A C3A 1_555 1_555
O1A C11A 1_555 1_555
N1A C11A 1_555 1_555
C12A C4A 1_555 1_555
O2A C12A 1_555 1_555
C13A N1A 1_555 1_555
H5A C13A 1_555 1_555
H6A C13A 1_555 1_555
C14A C13A 1_555 1_555
H7A C14A 1_555 1_555
H8A C14A 1_555 1_555
O3A C14A 1_555 1_555
C15A O3A 1_555 1_555
C16A C15A 1_555 1_555
H9A C16A 1_555 1_555
C17A C16A 1_555 1_555
H10A C17A 1_555 1_555
C18A C17A 1_555 1_555
C19A C18A 1_555 1_555
H11A C19A 1_555 1_555
C20A C15A 1_555 1_555
H12A C20A 1_555 1_555
C21A C18A 1_555 1_555
C22A C21A 1_555 1_555
C23A C22A 1_555 1_555
H13A C23A 1_555 1_555
C24A C23A 1_555 1_555
H14A C24A 1_555 1_555
C25A C24A 1_555 1_555
C26A C25A 1_555 1_555
H15A C26A 1_555 1_555
C27A C22A 1_555 1_555
H16A C27A 1_555 1_555
C28A C25A 1_555 1_555
H17A C28A 1_555 1_555
H18A C28A 1_555 1_555
C29A C28A 1_555 1_555
H19A C29A 1_555 1_555
H20A C29A 1_555 1_555
H21A C29A 1_555 1_555
C30A C21A 1_555 1_555
C31A C30A 1_555 1_555
H22A C31A 1_555 1_555
C32A C31A 1_555 1_555
H23A C32A 1_555 1_555
C33A C32A 1_555 1_555
C34A C33A 1_555 1_555
H24A C34A 1_555 1_555
C35A C30A 1_555 1_555
H25A C35A 1_555 1_555
C36A C33A 1_555 1_555
C37A C36A 1_555 1_555
H26A C37A 1_555 1_555
H27A C37A 1_555 1_555
H28A C37A 1_555 1_555
C38A C36A 1_555 1_555
H29A C38A 1_555 1_555
H30A C38A 1_555 1_555
H31A C38A 1_555 1_555
C39A C36A 1_555 1_555
H32A C39A 1_555 1_555
H33A C39A 1_555 1_555
H34A C39A 1_555 1_555
C40A C21A 1_555 1_555
C41A C40A 1_555 1_555
H35A C41A 1_555 1_555
C42A C41A 1_555 1_555
H36A C42A 1_555 1_555
C43A C42A 1_555 1_555
C44A C43A 1_555 1_555
H37A C44A 1_555 1_555
C45A C40A 1_555 1_555
H38A C45A 1_555 1_555
C46A C43A 1_555 1_555
C47A C46A 1_555 1_555
H39A C47A 1_555 1_555
H40A C47A 1_555 1_555
H41A C47A 1_555 1_555
C48A C46A 1_555 1_555
H42A C48A 1_555 1_555
H43A C48A 1_555 1_555
H44A C48A 1_555 1_555
C49A C46A 1_555 1_555
H45A C49A 1_555 1_555
H46A C49A 1_555 1_555
H47A C49A 1_555 1_555
C50A C51A 1_555 1_555
C51A H48A 1_555 1_555
C52A C51A 1_555 1_555
H49A C52A 1_555 1_555
C53A C52A 1_555 1_555
H50A C53A 1_555 1_555
C54A O8 1_555 1_555
C55A C54A 1_555 1_555
H51A C55A 1_555 1_555
C56A C55A 1_555 1_555
H52A C56A 1_555 1_555
C57A C56A 1_555 1_555
H53A C57A 1_555 1_555
C58A C53A 1_555 1_555
C59A C50A 1_555 1_555
O4A C50A 1_555 1_555
C60A O4A 1_555 1_555
H54A C60A 1_555 1_555
H55A C60A 1_555 1_555
C61A C60A 1_555 1_555
H56A C61A 1_555 1_555
H57A C61A 1_555 1_555
O5A C61A 1_555 1_555
C62A O5A 1_555 1_555
H58A C62A 1_555 1_555
H59A C62A 1_555 1_555
C63A C62A 1_555 1_555
H60A C63A 1_555 1_555
H61A C63A 1_555 1_555
O6A C63A 1_555 1_555
C64A O6A 1_555 1_555
H62A C64A 1_555 1_555
H63A C64A 1_555 1_555
C65A C64A 1_555 1_555
H64A C65A 1_555 1_555
H65A C65A 1_555 1_555
O7A C65A 1_555 1_555
C66A O7A 1_555 1_555
H66A C66A 1_555 1_555
H67A C66A 1_555 1_555
C67A C66A 1_555 1_555
H68A C67A 1_555 1_555
H69A C67A 1_555 1_555
O8A C54 1_555 1_555
C4 C9 1_555 1_555
C8 C9 1_555 1_555
C8 C10 1_555 1_555
N1 C12 1_555 1_555
C19 C20 1_555 1_555
C26 C27 1_555 1_555
C34 C35 1_555 1_555
C44 C45 1_555 1_555
C54 C58 1_555 1_555
C57 C59 1_555 1_555
C58 C59 1_555 1_555
C1A C7A 1_555 1_555
C4A C9A 1_555 1_555
C6A C10A 1_555 1_555
C8A C9A 1_555 1_555
C8A C10A 1_555 1_555
N1A C12A 1_555 1_555
C19A C20A 1_555 1_555
C26A C27A 1_555 1_555
C34A C35A 1_555 1_555
C44A C45A 1_555 1_555
C54A C58A 1_555 1_555
C57A C59A 1_555 1_555
C58A C59A 1_555 1_555
C67A O8A 1_555 1_555

#END
