
#######################################################################
#
#                 Cambridge Crystallographic Data Centre
#                                CCDC 
#
#######################################################################
#
# If this CIF has been generated from an entry in the Cambridge 
# Structural Database, then it will include bibliographic, chemical, 
# crystal, experimental, refinement or atomic coordinate data resulting 
# from the CCDC's data processing and validation procedures.
#
#######################################################################

data_VATFUT
_chemical_formula_moiety         'C15 H14 O4'
_chemical_name_systematic        '2-Phenylethyl 2,6-dihydroxybenzoate'
_symmetry_cell_setting           monoclinic
_symmetry_space_group_name_H-M   'P 21/c'
_symmetry_Int_Tables_number      14
_space_group_name_Hall           '-P 2ybc'
loop_
_symmetry_equiv_pos_site_id
_symmetry_equiv_pos_as_xyz
1 x,y,z
2 -x,1/2+y,1/2-z
3 -x,-y,-z
4 x,1/2-y,1/2+z
_cell_length_a                   10.036(2)
_cell_length_b                   9.705(2)
_cell_length_c                   13.156(2)
_cell_angle_alpha                90
_cell_angle_beta                 97.82(1)
_cell_angle_gamma                90
_cell_volume                     1269.47
_cell_formula_units_Z            4
loop_
_atom_site_label
_atom_site_type_symbol
_atom_site_fract_x
_atom_site_fract_y
_atom_site_fract_z
O1 O 0.37916(9) 0.21806(9) 0.59803(7)
O2 O 0.59577(10) 0.18179(10) 0.58653(8)
O3 O 0.29223(10) 0.45872(12) 0.64202(9)
O4 O 0.76072(10) 0.38645(15) 0.60474(9)
C1 C 0.52491(12) 0.40898(14) 0.62118(9)
C2 C 0.42065(14) 0.50014(14) 0.63845(10)
C3 C 0.44535(16) 0.63886(15) 0.65416(11)
H1 H 0.3761 0.6980 0.6658
C4 C 0.57340(17) 0.68924(16) 0.65249(11)
H2 H 0.5893 0.7831 0.6621
C5 C 0.67791(15) 0.60448(17) 0.63701(11)
H3 H 0.7639 0.6404 0.6373
C6 C 0.65497(14) 0.46541(15) 0.62104(10)
C7 C 0.50646(13) 0.26146(14) 0.60074(9)
C8 C 0.12119(13) 0.12354(14) 0.48618(10)
C9 C 0.12059(14) 0.07747(15) 0.38660(11)
H4 H 0.1735 0.0023 0.3741
C10 C 0.04325(16) 0.14073(17) 0.30600(12)
H5 H 0.0429 0.1073 0.2397
C11 C -0.03387(15) 0.25346(17) 0.32280(13)
H6 H -0.0859 0.2965 0.2680
C12 C -0.03372(15) 0.30212(17) 0.42076(14)
H7 H -0.0847 0.3790 0.4325
C13 C 0.04243(14) 0.23641(15) 0.50164(12)
H8 H 0.0407 0.2687 0.5680
C14 C 0.20377(14) 0.05156(15) 0.57451(11)
H9 H 0.1846 -0.0464 0.5697
H10 H 0.1763 0.0846 0.6381
C15 C 0.35318(14) 0.07235(14) 0.57891(12)
H11 H 0.4013 0.0173 0.6336
H12 H 0.3824 0.0451 0.5145
H13 H 0.2872(19) 0.375(2) 0.6265(15)
H14 H 0.730(2) 0.301(2) 0.5960(18)
loop_
_geom_bond_atom_site_label_1
_geom_bond_atom_site_label_2
_geom_bond_site_symmetry_1
_geom_bond_site_symmetry_2
O1 C7 1_555 1_555
O2 C7 1_555 1_555
O3 C2 1_555 1_555
O4 C6 1_555 1_555
C1 C2 1_555 1_555
C2 C3 1_555 1_555
C3 H1 1_555 1_555
C4 C3 1_555 1_555
H2 C4 1_555 1_555
C5 C4 1_555 1_555
H3 C5 1_555 1_555
C6 C1 1_555 1_555
C7 C1 1_555 1_555
C8 C9 1_555 1_555
C9 H4 1_555 1_555
C10 C9 1_555 1_555
H5 C10 1_555 1_555
C11 C10 1_555 1_555
H6 C11 1_555 1_555
C12 C11 1_555 1_555
H7 C12 1_555 1_555
C13 C8 1_555 1_555
H8 C13 1_555 1_555
C14 C8 1_555 1_555
H9 C14 1_555 1_555
H10 C14 1_555 1_555
C15 O1 1_555 1_555
H11 C15 1_555 1_555
H12 C15 1_555 1_555
H13 O3 1_555 1_555
H14 O4 1_555 1_555
C5 C6 1_555 1_555
C12 C13 1_555 1_555
C14 C15 1_555 1_555

#END
