
#######################################################################
#
#                 Cambridge Crystallographic Data Centre
#                                CCDC 
#
#######################################################################
#
# If this CIF has been generated from an entry in the Cambridge 
# Structural Database, then it will include bibliographic, chemical, 
# crystal, experimental, refinement or atomic coordinate data resulting 
# from the CCDC's data processing and validation procedures.
#
#######################################################################

data_VATFIH
_chemical_formula_moiety         'C15 H16 O4'
_chemical_name_systematic        
'3,4a-Dimethyl-2-oxo-2,4,4a,5,6,7-hexahydronaphtho[2,3-b]furan-5-carboxylic acid'
_symmetry_cell_setting           orthorhombic
_symmetry_space_group_name_H-M   'P 21 21 21'
_symmetry_Int_Tables_number      19
_space_group_name_Hall           'P 2ac 2ab'
loop_
_symmetry_equiv_pos_site_id
_symmetry_equiv_pos_as_xyz
1 x,y,z
2 1/2-x,-y,1/2+z
3 -x,1/2+y,1/2-z
4 1/2+x,1/2-y,-z
_cell_length_a                   10.93210(10)
_cell_length_b                   12.66030(10)
_cell_length_c                   18.1878(2)
_cell_angle_alpha                90
_cell_angle_beta                 90
_cell_angle_gamma                90
_cell_volume                     2517.26
_exptl_crystal_colour            colorless
_exptl_crystal_description       block
_cell_formula_units_Z            8
loop_
_atom_site_label
_atom_site_type_symbol
_atom_site_fract_x
_atom_site_fract_y
_atom_site_fract_z
C1 C 0.4498(2) 0.15826(18) 0.76991(13)
C2 C 0.4856(2) 0.25294(16) 0.72807(12)
C3 C 0.3943(2) 0.33556(18) 0.70815(14)
H1 H 0.3416 0.3092 0.6686
H2 H 0.4370 0.3993 0.6915
H3 H 0.3442 0.3525 0.7513
C4 C 0.60662(19) 0.24450(15) 0.71360(11)
C5 C 0.6495(2) 0.14692(15) 0.74486(12)
C6 C 0.7641(2) 0.11177(16) 0.74155(12)
H4 H 0.7845 0.0444 0.7610
C7 C 0.8579(2) 0.17734(15) 0.70785(11)
C8 C 0.82861(18) 0.29519(15) 0.69777(11)
C9 C 0.69462(19) 0.31060(16) 0.67099(12)
H5 H 0.6718 0.3859 0.6761
H6 H 0.6892 0.2917 0.6183
C10 C 0.84267(19) 0.35038(16) 0.77279(12)
H7 H 0.9272 0.3431 0.7899
H8 H 0.7872 0.3177 0.8085
H9 H 0.8225 0.4254 0.7677
C11 C 0.91839(18) 0.33904(16) 0.63940(12)
H10 H 0.9003 0.3019 0.5921
C12 C 1.0519(2) 0.31452(18) 0.65930(13)
H11 H 1.1073 0.3486 0.6234
H12 H 1.0707 0.3430 0.7087
C13 C 1.0719(2) 0.19528(19) 0.65865(14)
H13 H 1.0850 0.1716 0.6074
H14 H 1.1468 0.1785 0.6870
C14 C 0.9666(2) 0.13608(17) 0.69069(12)
H15 H 0.9779 0.0628 0.6996
C15 C 0.90334(19) 0.45589(16) 0.62549(12)
O1 O 0.35279(16) 0.13147(15) 0.79458(11)
O2 O 0.55309(15) 0.09482(12) 0.77876(9)
O3 O 0.9449(3) 0.52324(15) 0.66551(12)
O4 O 0.8456(2) 0.47927(13) 0.56619(11)
H16 H 0.8547 0.5438 0.5570
C16 C 0.4479(2) 1.11750(16) 0.56948(12)
C17 C 0.4915(2) 1.01217(16) 0.59223(12)
C18 C 0.4096(2) 0.93777(19) 0.63136(14)
H17 H 0.4540 0.8723 0.6421
H18 H 0.3386 0.9218 0.6004
H19 H 0.3820 0.9699 0.6775
C19 C 0.60879(19) 1.00436(15) 0.57142(11)
C20 C 0.6432(2) 1.10080(15) 0.53449(12)
C21 C 0.75285(19) 1.12055(15) 0.50534(12)
H20 H 0.7708 1.1882 0.4855
C22 C 0.8446(2) 1.03736(15) 0.50425(11)
C23 C 0.80279(19) 0.92420(15) 0.52123(11)
C24 C 0.70577(19) 0.92305(16) 0.58316(12)
H21 H 0.6674 0.8523 0.5854
H22 H 0.7465 0.9362 0.6309
C25 C 0.7468(2) 0.87808(17) 0.45073(12)
H23 H 0.8082 0.8785 0.4115
H24 H 0.6764 0.9210 0.4358
H25 H 0.7200 0.8054 0.4599
C26 C 0.91768(19) 0.86373(16) 0.54887(13)
H26 H 0.9481 0.9020 0.5934
C27 C 1.0204(2) 0.86717(18) 0.49184(16)
H27 H 1.0905 0.8246 0.5093
H28 H 0.9912 0.8362 0.4450
C28 C 1.0615(2) 0.9808(2) 0.47884(17)
H29 H 1.1246 0.9994 0.5157
H30 H 1.0997 0.9858 0.4296
C29 C 0.9593(2) 1.05945(17) 0.48350(13)
H31 H 0.9773 1.1305 0.4707
C30 C 0.8942(2) 0.75062(16) 0.57191(12)
O5 O 0.54443(14) 1.16937(11) 0.53432(8)
O6 O 0.35063(15) 1.15960(13) 0.57716(9)
O7 O 0.8530(2) 0.68318(13) 0.53138(11)
O8 O 0.9214(3) 0.73086(15) 0.63841(12)
H32 H 0.9168 0.6655 0.6458
loop_
_geom_bond_atom_site_label_1
_geom_bond_atom_site_label_2
_geom_bond_site_symmetry_1
_geom_bond_site_symmetry_2
C1 C2 1_555 1_555
C2 C3 1_555 1_555
C3 H1 1_555 1_555
H2 C3 1_555 1_555
H3 C3 1_555 1_555
C4 C2 1_555 1_555
C5 C4 1_555 1_555
C6 C5 1_555 1_555
H4 C6 1_555 1_555
C7 C6 1_555 1_555
C8 C7 1_555 1_555
C9 C4 1_555 1_555
H5 C9 1_555 1_555
H6 C9 1_555 1_555
C10 C8 1_555 1_555
H7 C10 1_555 1_555
H8 C10 1_555 1_555
H9 C10 1_555 1_555
C11 C8 1_555 1_555
H10 C11 1_555 1_555
C12 C11 1_555 1_555
H11 C12 1_555 1_555
H12 C12 1_555 1_555
C13 C12 1_555 1_555
H13 C13 1_555 1_555
H14 C13 1_555 1_555
C14 C7 1_555 1_555
H15 C14 1_555 1_555
C15 C11 1_555 1_555
O1 C1 1_555 1_555
O2 C1 1_555 1_555
O3 C15 1_555 1_555
O4 C15 1_555 1_555
H16 O4 1_555 1_555
C16 C17 1_555 1_555
C17 C18 1_555 1_555
C18 H17 1_555 1_555
H18 C18 1_555 1_555
H19 C18 1_555 1_555
C19 C17 1_555 1_555
C20 C19 1_555 1_555
C21 C20 1_555 1_555
H20 C21 1_555 1_555
C22 C21 1_555 1_555
C23 C22 1_555 1_555
C24 C19 1_555 1_555
H21 C24 1_555 1_555
H22 C24 1_555 1_555
C25 C23 1_555 1_555
H23 C25 1_555 1_555
H24 C25 1_555 1_555
H25 C25 1_555 1_555
C26 C23 1_555 1_555
H26 C26 1_555 1_555
C27 C26 1_555 1_555
H27 C27 1_555 1_555
H28 C27 1_555 1_555
C28 C27 1_555 1_555
H29 C28 1_555 1_555
H30 C28 1_555 1_555
C29 C22 1_555 1_555
H31 C29 1_555 1_555
C30 C26 1_555 1_555
O5 C16 1_555 1_555
O6 C16 1_555 1_555
O7 C30 1_555 1_555
O8 C30 1_555 1_555
H32 O8 1_555 1_555
C5 O2 1_555 1_555
C8 C9 1_555 1_555
C13 C14 1_555 1_555
C20 O5 1_555 1_555
C23 C24 1_555 1_555
C28 C29 1_555 1_555

#END
