
#######################################################################
#
#                 Cambridge Crystallographic Data Centre
#                                CCDC 
#
#######################################################################
#
# If this CIF has been generated from an entry in the Cambridge 
# Structural Database, then it will include bibliographic, chemical, 
# crystal, experimental, refinement or atomic coordinate data resulting 
# from the CCDC's data processing and validation procedures.
#
#######################################################################

data_VATJUW
_chemical_formula_moiety         'C23 H16 Cl1 N3'
_chemical_name_systematic        
2-Chloro-6-methyl-8,9-diphenylimidazo(1,2-c)quinazoline
_symmetry_cell_setting           monoclinic
_symmetry_space_group_name_H-M   'P 21/c'
_symmetry_Int_Tables_number      14
_space_group_name_Hall           '-P 2ybc'
loop_
_symmetry_equiv_pos_site_id
_symmetry_equiv_pos_as_xyz
1 x,y,z
2 x,1/2-y,1/2+z
3 -x,-y,-z
4 -x,1/2+y,1/2-z
_cell_length_a                   7.7890(10)
_cell_length_b                   17.777(2)
_cell_length_c                   26.040(3)
_cell_angle_alpha                90
_cell_angle_beta                 94.700(10)
_cell_angle_gamma                90
_cell_volume                     3593.51
_exptl_crystal_colour            colorless
_exptl_crystal_description       block
_chemical_melting_point          '452-453 K'
_cell_formula_units_Z            8
_exptl_crystal_recrystallization_method ethanol
loop_
_atom_site_label
_atom_site_type_symbol
_atom_site_fract_x
_atom_site_fract_y
_atom_site_fract_z
Cl1 Cl 0.31998(9) 0.76302(4) 0.53087(3)
N1 N 0.3554(2) 0.46802(10) 0.42845(7)
N2 N 0.6123(2) 0.50260(9) 0.39244(7)
N3 N 0.7484(2) 0.61308(9) 0.40530(7)
C1 C 0.3512(3) 0.53833(13) 0.45174(9)
C2 C 0.2160(3) 0.55456(15) 0.48200(9)
H1 H 0.1315 0.5186 0.4861
C3 C 0.2067(3) 0.62306(15) 0.50567(9)
H2 H 0.1162 0.6335 0.5257
C4 C 0.3333(3) 0.67714(14) 0.49964(9)
C5 C 0.4667(3) 0.66296(12) 0.46996(9)
H3 H 0.5500 0.6994 0.4659
C6 C 0.4761(3) 0.59334(12) 0.44600(8)
C7 C 0.6132(3) 0.57348(12) 0.41533(8)
C8 C 0.4797(3) 0.45110(12) 0.40057(9)
C9 C 0.7638(3) 0.49878(11) 0.36624(8)
C10 C 0.8428(3) 0.56719(11) 0.37502(8)
C11 C 0.8166(3) 0.43284(11) 0.33675(8)
C12 C 0.7370(3) 0.41576(12) 0.28860(9)
H4 H 0.6484 0.4463 0.2744
C13 C 0.7875(3) 0.35397(13) 0.26133(9)
H5 H 0.7325 0.3431 0.2291
C14 C 0.9183(4) 0.30872(13) 0.28162(10)
H6 H 0.9504 0.2664 0.2637
C15 C 1.0020(3) 0.32625(12) 0.32867(10)
H7 H 1.0932 0.2964 0.3420
C16 C 0.9519(3) 0.38774(12) 0.35632(8)
H8 H 1.0092 0.3989 0.3882
C17 C 1.0036(3) 0.59804(11) 0.35697(8)
C18 C 1.0557(3) 0.66954(11) 0.37360(8)
H9 H 0.9905 0.6954 0.3962
C19 C 1.2016(3) 0.70281(13) 0.35730(9)
H10 H 1.2331 0.7508 0.3687
C20 C 1.3003(3) 0.66521(14) 0.32439(10)
H11 H 1.3992 0.6875 0.3136
C21 C 1.2523(3) 0.59447(14) 0.30736(9)
H12 H 1.3191 0.5689 0.2850
C22 C 1.1049(3) 0.56114(12) 0.32335(8)
H13 H 1.0734 0.5134 0.3114
C23 C 0.4808(3) 0.37564(12) 0.37614(9)
H14 H 0.3985 0.3438 0.3910
H15 H 0.5936 0.3540 0.3818
H16 H 0.4508 0.3804 0.3398
Cl2 Cl -0.17754(10) 0.75994(4) 0.53180(3)
N4 N -0.1547(2) 1.04812(11) 0.41982(8)
N5 N 0.1019(2) 1.01240(9) 0.38499(7)
N6 N 0.2419(2) 0.90328(9) 0.40045(7)
C24 C -0.1554(3) 0.97976(14) 0.44558(9)
C25 C -0.2881(3) 0.96504(16) 0.47769(10)
H17 H -0.3727 1.0011 0.4814
C26 C -0.2937(3) 0.89830(17) 0.50352(10)
H18 H -0.3818 0.8891 0.5248
C27 C -0.1681(3) 0.84436(14) 0.49802(9)
C28 C -0.0365(3) 0.85649(13) 0.46739(8)
H19 H 0.0476 0.8200 0.4642
C29 C -0.0307(3) 0.92476(13) 0.44098(8)
C30 C 0.1057(3) 0.94273(12) 0.40925(8)
C31 C -0.0326(3) 1.06344(12) 0.39091(9)
C32 C 0.2530(3) 1.01581(11) 0.35889(8)
C33 C 0.3350(3) 0.94790(11) 0.36922(8)
C34 C 0.3074(3) 1.08175(11) 0.32978(8)
C35 C 0.2349(3) 1.09708(12) 0.28028(9)
H20 H 0.1524 1.0647 0.2647
C36 C 0.2843(3) 1.15997(13) 0.25407(9)
H21 H 0.2340 1.1701 0.2212
C37 C 0.4069(3) 1.20746(13) 0.27636(10)
H22 H 0.4378 1.2504 0.2589
C38 C 0.4842(3) 1.19182(12) 0.32420(10)
H23 H 0.5703 1.2233 0.3388
C39 C 0.4348(3) 1.12938(12) 0.35101(9)
H24 H 0.4877 1.1193 0.3836
C40 C 0.4972(3) 0.91750(11) 0.35208(8)
C41 C 0.5534(3) 0.84765(12) 0.37075(8)
H25 H 0.4893 0.8225 0.3940
C42 C 0.7006(3) 0.81491(13) 0.35578(9)
H26 H 0.7344 0.7679 0.3686
C43 C 0.7987(3) 0.85157(14) 0.32182(9)
H27 H 0.8992 0.8298 0.3118
C44 C 0.7461(3) 0.92047(14) 0.30308(9)
H28 H 0.8118 0.9455 0.2802
C45 C 0.5968(3) 0.95348(12) 0.31771(8)
H29 H 0.5629 1.0002 0.3044
C46 C -0.0385(3) 1.13622(12) 0.36268(10)
H30 H -0.0674 1.1272 0.3267
H31 H 0.0721 1.1602 0.3673
H32 H -0.1239 1.1682 0.3758
loop_
_geom_bond_atom_site_label_1
_geom_bond_atom_site_label_2
_geom_bond_site_symmetry_1
_geom_bond_site_symmetry_2
Cl1 C4 1_555 1_555
N1 C1 1_555 1_555
N2 C7 1_555 1_555
N3 C7 1_555 1_555
C1 C2 1_555 1_555
C2 H1 1_555 1_555
C3 C2 1_555 1_555
H2 C3 1_555 1_555
C4 C3 1_555 1_555
C5 C4 1_555 1_555
H3 C5 1_555 1_555
C6 C1 1_555 1_555
C7 C6 1_555 1_555
C8 N1 1_555 1_555
C9 N2 1_555 1_555
C10 N3 1_555 1_555
C11 C9 1_555 1_555
C12 C11 1_555 1_555
H4 C12 1_555 1_555
C13 C12 1_555 1_555
H5 C13 1_555 1_555
C14 C13 1_555 1_555
H6 C14 1_555 1_555
C15 C14 1_555 1_555
H7 C15 1_555 1_555
C16 C11 1_555 1_555
H8 C16 1_555 1_555
C17 C10 1_555 1_555
C18 C17 1_555 1_555
H9 C18 1_555 1_555
C19 C18 1_555 1_555
H10 C19 1_555 1_555
C20 C19 1_555 1_555
H11 C20 1_555 1_555
C21 C20 1_555 1_555
H12 C21 1_555 1_555
C22 C17 1_555 1_555
H13 C22 1_555 1_555
C23 C8 1_555 1_555
H14 C23 1_555 1_555
H15 C23 1_555 1_555
H16 C23 1_555 1_555
Cl2 C27 1_555 1_555
N4 C24 1_555 1_555
N5 C30 1_555 1_555
N6 C30 1_555 1_555
C24 C25 1_555 1_555
C25 H17 1_555 1_555
C26 C25 1_555 1_555
H18 C26 1_555 1_555
C27 C26 1_555 1_555
C28 C27 1_555 1_555
H19 C28 1_555 1_555
C29 C24 1_555 1_555
C30 C29 1_555 1_555
C31 N4 1_555 1_555
C32 N5 1_555 1_555
C33 N6 1_555 1_555
C34 C32 1_555 1_555
C35 C34 1_555 1_555
H20 C35 1_555 1_555
C36 C35 1_555 1_555
H21 C36 1_555 1_555
C37 C36 1_555 1_555
H22 C37 1_555 1_555
C38 C37 1_555 1_555
H23 C38 1_555 1_555
C39 C34 1_555 1_555
H24 C39 1_555 1_555
C40 C33 1_555 1_555
C41 C40 1_555 1_555
H25 C41 1_555 1_555
C42 C41 1_555 1_555
H26 C42 1_555 1_555
C43 C42 1_555 1_555
H27 C43 1_555 1_555
C44 C43 1_555 1_555
H28 C44 1_555 1_555
C45 C40 1_555 1_555
H29 C45 1_555 1_555
C46 C31 1_555 1_555
H30 C46 1_555 1_555
H31 C46 1_555 1_555
H32 C46 1_555 1_555
N2 C8 1_555 1_555
C5 C6 1_555 1_555
C9 C10 1_555 1_555
C15 C16 1_555 1_555
C21 C22 1_555 1_555
N5 C31 1_555 1_555
C28 C29 1_555 1_555
C32 C33 1_555 1_555
C38 C39 1_555 1_555
C44 C45 1_555 1_555

#END
