
#######################################################################
#
#                 Cambridge Crystallographic Data Centre
#                                CCDC 
#
#######################################################################
#
# If this CIF has been generated from an entry in the Cambridge 
# Structural Database, then it will include bibliographic, chemical, 
# crystal, experimental, refinement or atomic coordinate data resulting 
# from the CCDC's data processing and validation procedures.
#
#######################################################################

data_VATKOR
_chemical_formula_moiety         'C11 H11 N1 O3 S1'
_chemical_name_systematic        
'Methyl 3-(2-oxobenzothiazoline-3-yl)propanoate'
_symmetry_cell_setting           monoclinic
_symmetry_space_group_name_H-M   'P 21/c'
_symmetry_Int_Tables_number      14
_space_group_name_Hall           '-P 2ybc'
loop_
_symmetry_equiv_pos_site_id
_symmetry_equiv_pos_as_xyz
1 x,y,z
2 x,1/2-y,1/2+z
3 -x,-y,-z
4 -x,1/2+y,1/2-z
_cell_length_a                   7.9109(13)
_cell_length_b                   8.386(3)
_cell_length_c                   16.4898(16)
_cell_angle_alpha                90
_cell_angle_beta                 93.645(12)
_cell_angle_gamma                90
_cell_volume                     1091.73
_exptl_crystal_colour            yellow
_exptl_crystal_description       prism
_chemical_melting_point          '330 K'
_cell_formula_units_Z            4
_exptl_crystal_recrystallization_method methanol
loop_
_atom_site_label
_atom_site_type_symbol
_atom_site_fract_x
_atom_site_fract_y
_atom_site_fract_z
S1 S 0.25538(7) 0.17569(5) 0.51309(3)
N1 N 0.12490(17) 0.34196(16) 0.39321(8)
O1 O 0.09372(19) 0.07022(16) 0.37773(9)
O2 O 0.2970(2) 0.57779(17) 0.25554(11)
O3 O 0.40718(17) 0.36035(16) 0.20159(9)
C1 C 0.2695(2) 0.3827(2) 0.51872(10)
C2 C 0.3463(2) 0.4725(2) 0.58099(11)
H1 H 0.4011 0.4238 0.6260
C3 C 0.3391(3) 0.6368(2) 0.57438(13)
H2 H 0.3888 0.6999 0.6157
C4 C 0.2590(3) 0.7079(2) 0.50711(14)
H3 H 0.2544 0.8186 0.5042
C5 C 0.1846(2) 0.6183(2) 0.44327(12)
H4 H 0.1325 0.6674 0.3977
C6 C 0.19077(19) 0.45405(18) 0.44985(10)
C7 C 0.1437(2) 0.1859(2) 0.41688(11)
C8 C 0.0318(2) 0.3775(2) 0.31570(11)
H5 H 0.0025 0.4898 0.3141
H6 H -0.0728 0.3168 0.3121
C9 C 0.1322(2) 0.3383(2) 0.24330(11)
H7 H 0.1677 0.2277 0.2472
H8 H 0.0586 0.3494 0.1943
C10 C 0.2851(2) 0.4405(2) 0.23563(10)
C11 C 0.5593(3) 0.4465(3) 0.18529(14)
H9 H 0.6369 0.3760 0.1608
H10 H 0.6108 0.4875 0.2353
H11 H 0.5312 0.5333 0.1490
loop_
_geom_bond_atom_site_label_1
_geom_bond_atom_site_label_2
_geom_bond_site_symmetry_1
_geom_bond_site_symmetry_2
S1 C1 1_555 1_555
N1 C6 1_555 1_555
O1 C7 1_555 1_555
O2 C10 1_555 1_555
O3 C10 1_555 1_555
C1 C2 1_555 1_555
C2 H1 1_555 1_555
C3 C2 1_555 1_555
H2 C3 1_555 1_555
C4 C3 1_555 1_555
H3 C4 1_555 1_555
C5 C4 1_555 1_555
H4 C5 1_555 1_555
C6 C1 1_555 1_555
C7 S1 1_555 1_555
C8 N1 1_555 1_555
H5 C8 1_555 1_555
H6 C8 1_555 1_555
C9 C8 1_555 1_555
H7 C9 1_555 1_555
H8 C9 1_555 1_555
C10 C9 1_555 1_555
C11 O3 1_555 1_555
H9 C11 1_555 1_555
H10 C11 1_555 1_555
H11 C11 1_555 1_555
N1 C7 1_555 1_555
C5 C6 1_555 1_555

#END
