
#######################################################################
#
#                 Cambridge Crystallographic Data Centre
#                                CCDC 
#
#######################################################################
#
# If this CIF has been generated from an entry in the Cambridge 
# Structural Database, then it will include bibliographic, chemical, 
# crystal, experimental, refinement or atomic coordinate data resulting 
# from the CCDC's data processing and validation procedures.
#
#######################################################################

data_VATROY
_chemical_formula_moiety         'C18 H21 Br1 F3 N3 O2'
_chemical_name_systematic        
'2-((1-(4-Bromophenyl)-2,2,2-trifluoroethyl)amino)-4-methylpentyl 1H-imidazole-1-carboxylate'
_symmetry_cell_setting           monoclinic
_symmetry_space_group_name_H-M   'P 21'
_symmetry_Int_Tables_number      4
_space_group_name_Hall           'P 2yb'
loop_
_symmetry_equiv_pos_site_id
_symmetry_equiv_pos_as_xyz
1 x,y,z
2 -x,1/2+y,-z
_cell_length_a                   10.363(9)
_cell_length_b                   5.990(5)
_cell_length_c                   15.86(1)
_cell_angle_alpha                90
_cell_angle_beta                 94.09(1)
_cell_angle_gamma                90
_cell_volume                     981.992
_exptl_crystal_colour            colorless
_cell_formula_units_Z            2
loop_
_atom_site_label
_atom_site_type_symbol
_atom_site_fract_x
_atom_site_fract_y
_atom_site_fract_z
Br1 Br 1.05488(6) 0.22908(10) 0.90874(4)
F1 F 0.6539(4) -0.2962(7) 0.5929(2)
F2 F 0.5418(4) -0.0851(6) 0.5052(2)
F3 F 0.7421(4) -0.0085(7) 0.5377(3)
O1 O 0.5450(5) 0.5797(7) 0.8514(3)
O2 O 0.4621(4) 0.2367(9) 0.8186(2)
N1 N 0.6860(5) 0.0038(9) 1.0165(3)
N2 N 0.6020(5) 0.2717(9) 0.9326(3)
N3 N 0.4768(5) -0.0295(8) 0.6730(3)
H1 H 0.47060 -0.17160 0.68620
C1 C 0.6871(7) 0.3778(12) 0.9919(4)
H2 H 0.70610 0.53270 0.99610
C2 C 0.7373(6) 0.2095(14) 1.0424(4)
H3 H 0.79900 0.23020 1.08910
C3 C 0.6048(7) 0.0490(11) 0.9508(4)
H4 H 0.55460 -0.06010 0.91990
C4 C 0.5349(6) 0.3841(10) 0.8645(4)
C5 C 0.4059(7) 0.3246(10) 0.7399(4)
H5 H 0.46890 0.42230 0.71370
H6 H 0.32810 0.41400 0.74990
C6 C 0.3690(6) 0.1282(10) 0.6812(4)
H7 H 0.34580 0.19140 0.62370
C7 C 0.5942(6) 0.0637(10) 0.6418(4)
H8 H 0.57180 0.21390 0.61750
C8 C 0.6328(7) -0.0833(11) 0.5702(4)
C9 C 0.7072(7) 0.0951(10) 0.7087(4)
C10 C 0.7453(7) -0.0669(10) 0.7669(4)
H9 H 0.70100 -0.20590 0.76590
C11 C 0.8481(6) -0.0304(11) 0.8275(4)
H10 H 0.87370 -0.14410 0.86700
C12 C 0.9114(6) 0.1705(10) 0.8295(4)
C13 C 0.8746(7) 0.3400(11) 0.7722(5)
H11 H 0.91800 0.47970 0.77430
C14 C 0.7724(7) 0.2993(10) 0.7117(5)
H12 H 0.74690 0.41260 0.67200
C15 C 0.2520(7) -0.0013(11) 0.7073(4)
H13 H 0.18450 0.10680 0.72120
H14 H 0.27760 -0.08610 0.75940
C16 C 0.1929(7) -0.1646(12) 0.6406(4)
H15 H 0.26300 -0.26640 0.62360
C17 C 0.0883(7) -0.3064(14) 0.6775(5)
H16 H 0.12350 -0.37690 0.73000
H17 H 0.05940 -0.42220 0.63680
H18 H 0.01480 -0.21140 0.68950
C18 C 0.1362(9) -0.0415(16) 0.5611(5)
H19 H 0.07680 0.07520 0.57770
H20 H 0.08930 -0.14780 0.52330
H21 H 0.20660 0.02650 0.53190
loop_
_geom_bond_atom_site_label_1
_geom_bond_atom_site_label_2
_geom_bond_site_symmetry_1
_geom_bond_site_symmetry_2
Br1 C12 1_555 1_555
F1 C8 1_555 1_555
F2 C8 1_555 1_555
F3 C8 1_555 1_555
O1 C4 1_555 1_555
O2 C4 1_555 1_555
N1 C2 1_555 1_555
N2 C1 1_555 1_555
N3 H1 1_555 1_555
C1 H2 1_555 1_555
C2 C1 1_555 1_555
H3 C2 1_555 1_555
C3 N1 1_555 1_555
H4 C3 1_555 1_555
C4 N2 1_555 1_555
C5 O2 1_555 1_555
H5 C5 1_555 1_555
H6 C5 1_555 1_555
C6 N3 1_555 1_555
H7 C6 1_555 1_555
C7 N3 1_555 1_555
H8 C7 1_555 1_555
C8 C7 1_555 1_555
C9 C7 1_555 1_555
C10 C9 1_555 1_555
H9 C10 1_555 1_555
C11 C10 1_555 1_555
H10 C11 1_555 1_555
C12 C11 1_555 1_555
C13 C12 1_555 1_555
H11 C13 1_555 1_555
C14 C9 1_555 1_555
H12 C14 1_555 1_555
C15 C6 1_555 1_555
H13 C15 1_555 1_555
H14 C15 1_555 1_555
C16 C15 1_555 1_555
H15 C16 1_555 1_555
C17 C16 1_555 1_555
H16 C17 1_555 1_555
H17 C17 1_555 1_555
H18 C17 1_555 1_555
C18 C16 1_555 1_555
H19 C18 1_555 1_555
H20 C18 1_555 1_555
H21 C18 1_555 1_555
N2 C3 1_555 1_555
C5 C6 1_555 1_555
C13 C14 1_555 1_555

#END
