
#######################################################################
#
#                 Cambridge Crystallographic Data Centre
#                                CCDC 
#
#######################################################################
#
# If this CIF has been generated from an entry in the Cambridge 
# Structural Database, then it will include bibliographic, chemical, 
# crystal, experimental, refinement or atomic coordinate data resulting 
# from the CCDC's data processing and validation procedures.
#
#######################################################################

data_VATTOB
_chemical_formula_moiety         'C10 H10 N1 1+,C7 H5 O6 S1 1-,H2 O1'
_chemical_name_systematic        
'2-Methylquinolinium 5-sulfonatosalicylic acid monohydrate'
_symmetry_cell_setting           monoclinic
_symmetry_space_group_name_H-M   'P 21/c'
_symmetry_Int_Tables_number      14
_space_group_name_Hall           '-P 2ybc'
loop_
_symmetry_equiv_pos_site_id
_symmetry_equiv_pos_as_xyz
1 x,y,z
2 -x,1/2+y,1/2-z
3 -x,-y,-z
4 x,1/2-y,1/2+z
_cell_length_a                   8.8164(6)
_cell_length_b                   14.3480(16)
_cell_length_c                   14.0002(13)
_cell_angle_alpha                90
_cell_angle_beta                 104.4390(10)
_cell_angle_gamma                90
_cell_volume                     1715.05
_exptl_crystal_colour            colorless
_exptl_crystal_description       block
_cell_formula_units_Z            4
loop_
_atom_site_label
_atom_site_type_symbol
_atom_site_fract_x
_atom_site_fract_y
_atom_site_fract_z
S1 S 0.09025(7) 0.21390(5) 0.52211(5)
O1 O 0.7612(2) 0.02334(14) 0.63515(14)
O2 O 0.69534(19) 0.16672(13) 0.57922(15)
H2 H 0.7897 0.1706 0.5837
O3 O 0.5422(2) -0.08975(14) 0.65644(14)
H3 H 0.6317 -0.0735 0.6573
O4 O -0.01289(19) 0.21412(14) 0.58973(13)
O5 O 0.0055(2) 0.18625(13) 0.42407(13)
O6 O 0.17486(19) 0.29969(13) 0.52454(14)
C11 C 0.6627(3) 0.0837(2) 0.60781(19)
C12 C 0.4949(3) 0.06929(18) 0.60272(17)
C13 C 0.4437(3) -0.01775(19) 0.62753(18)
C14 C 0.2853(3) -0.03129(19) 0.62108(19)
H15 H 0.2508 -0.0890 0.6373
C15 C 0.1797(3) 0.03904(19) 0.59125(18)
H16 H 0.0743 0.0290 0.5879
C16 C 0.2290(3) 0.12584(18) 0.56585(17)
C17 C 0.3856(3) 0.14020(18) 0.57143(17)
H17 H 0.4188 0.1979 0.5541
N1 N 0.2836(3) 0.44582(17) 0.34666(16)
H1 H 0.2171 0.4008 0.3360
C1 C 0.2288(3) 0.5316(2) 0.3463(2)
C2 C 0.3350(3) 0.6046(2) 0.3656(2)
H6 H 0.2991 0.6654 0.3668
C3 C 0.4907(3) 0.5878(2) 0.3826(2)
H7 H 0.5606 0.6375 0.3951
C4 C 0.5478(3) 0.49715(19) 0.38184(19)
C5 C 0.4392(3) 0.4239(2) 0.36294(19)
C6 C 0.4880(5) 0.3324(2) 0.3598(2)
H8 H 0.4155 0.2841 0.3467
C7 C 0.6448(5) 0.3147(3) 0.3765(3)
H9 H 0.6788 0.2536 0.3747
C8 C 0.7546(4) 0.3866(3) 0.3961(3)
H10 H 0.8607 0.3731 0.4074
C9 C 0.7073(4) 0.4759(2) 0.3988(2)
H11 H 0.7811 0.5235 0.4120
C10 C 0.0568(4) 0.5460(3) 0.3231(3)
H12 H 0.0226 0.5759 0.2600
H13 H 0.0313 0.5847 0.3729
H14 H 0.0053 0.4869 0.3214
O7 O 0.0901(4) 0.3022(2) 0.28969(17)
H4 H 0.0511 0.2903 0.2291
H5 H 0.0566 0.2621 0.3242
loop_
_geom_bond_atom_site_label_1
_geom_bond_atom_site_label_2
_geom_bond_site_symmetry_1
_geom_bond_site_symmetry_2
S1 O4 1_555 1_555
N1 H1 1_555 1_555
O1 C11 1_555 1_555
O2 H2 1_555 1_555
O3 H3 1_555 1_555
O5 S1 1_555 1_555
O6 S1 1_555 1_555
O7 H4 1_555 1_555
H5 O7 1_555 1_555
C1 N1 1_555 1_555
C2 C1 1_555 1_555
H6 C2 1_555 1_555
C3 C2 1_555 1_555
H7 C3 1_555 1_555
C4 C3 1_555 1_555
C5 N1 1_555 1_555
C6 C5 1_555 1_555
H8 C6 1_555 1_555
C7 C6 1_555 1_555
H9 C7 1_555 1_555
C8 C7 1_555 1_555
H10 C8 1_555 1_555
C9 C4 1_555 1_555
H11 C9 1_555 1_555
C10 C1 1_555 1_555
H12 C10 1_555 1_555
H13 C10 1_555 1_555
H14 C10 1_555 1_555
C11 O2 1_555 1_555
C12 C11 1_555 1_555
C13 O3 1_555 1_555
C14 C13 1_555 1_555
H15 C14 1_555 1_555
C15 C14 1_555 1_555
H16 C15 1_555 1_555
C16 S1 1_555 1_555
C17 C12 1_555 1_555
H17 C17 1_555 1_555
C4 C5 1_555 1_555
C8 C9 1_555 1_555
C12 C13 1_555 1_555
C15 C16 1_555 1_555
C16 C17 1_555 1_555

#END
