
#######################################################################
#
#                 Cambridge Crystallographic Data Centre
#                                CCDC 
#
#######################################################################
#
# If this CIF has been generated from an entry in the Cambridge 
# Structural Database, then it will include bibliographic, chemical, 
# crystal, experimental, refinement or atomic coordinate data resulting 
# from the CCDC's data processing and validation procedures.
#
#######################################################################

data_VATTUH
_chemical_formula_moiety         'C10 H10 N1 1+,C7 H4 N1 O5 1-'
_chemical_name_systematic        '2-Methylquinolinium 5-nitrosalicylate'
_symmetry_cell_setting           triclinic
_symmetry_space_group_name_H-M   'P -1'
_symmetry_Int_Tables_number      2
_space_group_name_Hall           '-P 1'
loop_
_symmetry_equiv_pos_site_id
_symmetry_equiv_pos_as_xyz
1 x,y,z
2 -x,-y,-z
_cell_length_a                   7.1158(6)
_cell_length_b                   9.5738(8)
_cell_length_c                   11.7604(12)
_cell_angle_alpha                80.3870(10)
_cell_angle_beta                 72.9660(10)
_cell_angle_gamma                87.811(2)
_cell_volume                     755.228
_exptl_crystal_colour            colorless
_exptl_crystal_description       block
_cell_formula_units_Z            2
loop_
_atom_site_label
_atom_site_type_symbol
_atom_site_fract_x
_atom_site_fract_y
_atom_site_fract_z
N1 N 0.2830(3) 0.6695(2) 0.51692(17)
H1 H 0.3297 0.7291 0.4520
C1 C 0.2726(5) 0.8695(3) 0.6190(3)
H3 H 0.3332 0.9142 0.5376
H4 H 0.3566 0.8800 0.6679
H5 H 0.1485 0.9131 0.6502
C2 C 0.2408(4) 0.7163(3) 0.6213(2)
C3 C 0.1685(4) 0.6203(4) 0.7269(2)
H6 H 0.1408 0.6505 0.8012
C4 C 0.1382(4) 0.4830(4) 0.7219(3)
H7 H 0.0899 0.4198 0.7932
C5 C 0.1783(3) 0.4339(3) 0.6112(2)
C6 C 0.2565(3) 0.5317(2) 0.5063(2)
C7 C 0.3041(4) 0.4924(3) 0.3924(2)
H8 H 0.3578 0.5577 0.3233
C8 C 0.2696(4) 0.3549(3) 0.3852(3)
H9 H 0.3019 0.3265 0.3101
C9 C 0.1874(5) 0.2567(3) 0.4880(4)
H10 H 0.1618 0.1646 0.4805
C10 C 0.1443(4) 0.2940(3) 0.5985(3)
H11 H 0.0918 0.2269 0.6666
N2 N 0.3580(4) 0.3715(2) -0.0275(2)
O1 O 0.4448(3) -0.16137(19) 0.30876(16)
O2 O 0.1763(3) -0.0301(2) 0.32899(19)
O3 O 0.7571(3) -0.08052(19) 0.15087(16)
H2 H 0.6819 -0.1311 0.2079
O4 O 0.4524(3) 0.4576(2) -0.11277(17)
O5 O 0.1811(3) 0.3801(3) 0.0165(2)
C11 C 0.3463(4) -0.0546(3) 0.2753(2)
C12 C 0.4573(3) 0.0456(2) 0.1661(2)
C13 C 0.6582(4) 0.0294(3) 0.1107(2)
C14 C 0.7596(4) 0.1297(3) 0.0132(2)
H12 H 0.8938 0.1204 -0.0215
C15 C 0.6620(4) 0.2412(3) -0.0310(2)
H13 H 0.7291 0.3081 -0.0957
C16 C 0.4626(4) 0.2536(2) 0.0214(2)
C17 C 0.3609(4) 0.1582(2) 0.1185(2)
H14 H 0.2268 0.1693 0.1524
loop_
_geom_bond_atom_site_label_1
_geom_bond_atom_site_label_2
_geom_bond_site_symmetry_1
_geom_bond_site_symmetry_2
N1 H1 1_555 1_555
N2 O4 1_555 1_555
O1 C11 1_555 1_555
O2 C11 1_555 1_555
O3 H2 1_555 1_555
O5 N2 1_555 1_555
C1 H3 1_555 1_555
H4 C1 1_555 1_555
H5 C1 1_555 1_555
C2 N1 1_555 1_555
C3 C2 1_555 1_555
H6 C3 1_555 1_555
C4 C3 1_555 1_555
H7 C4 1_555 1_555
C5 C4 1_555 1_555
C6 N1 1_555 1_555
C7 C6 1_555 1_555
H8 C7 1_555 1_555
C8 C7 1_555 1_555
H9 C8 1_555 1_555
C9 C8 1_555 1_555
H10 C9 1_555 1_555
C10 C5 1_555 1_555
H11 C10 1_555 1_555
C11 C12 1_555 1_555
C12 C13 1_555 1_555
C13 O3 1_555 1_555
C14 C13 1_555 1_555
H12 C14 1_555 1_555
C15 C14 1_555 1_555
H13 C15 1_555 1_555
C16 N2 1_555 1_555
C17 C12 1_555 1_555
H14 C17 1_555 1_555
C1 C2 1_555 1_555
C5 C6 1_555 1_555
C9 C10 1_555 1_555
C15 C16 1_555 1_555
C16 C17 1_555 1_555

#END
