
#######################################################################
#
#                 Cambridge Crystallographic Data Centre
#                                CCDC 
#
#######################################################################
#
# If this CIF has been generated from an entry in the Cambridge 
# Structural Database, then it will include bibliographic, chemical, 
# crystal, experimental, refinement or atomic coordinate data resulting 
# from the CCDC's data processing and validation procedures.
#
#######################################################################

data_VATVES
_chemical_compound_source        'Isodon weiseiensis C.Y.Wu'
_chemical_formula_moiety         'C20 H28 O5'
_chemical_name_systematic        
(1\a,7\a,14\b)-1,7,14-Trihydroxy-ent-kaur-16-en-15,18-dione
_chemical_properties_biological  
'significant cytotoxic activity against human cancer cell lines Bel-7402 and HO-8910'
_symmetry_cell_setting           orthorhombic
_symmetry_space_group_name_H-M   'P 21 21 21'
_symmetry_Int_Tables_number      19
_space_group_name_Hall           'P 2ac 2ab'
loop_
_symmetry_equiv_pos_site_id
_symmetry_equiv_pos_as_xyz
1 x,y,z
2 1/2-x,-y,1/2+z
3 -x,1/2+y,1/2-z
4 1/2+x,1/2-y,-z
_cell_length_a                   13.072(5)
_cell_length_b                   13.982(5)
_cell_length_c                   19.604(7)
_cell_angle_alpha                90
_cell_angle_beta                 90
_cell_angle_gamma                90
_cell_volume                     3583.08
_exptl_crystal_colour            colorless
_exptl_crystal_description       prism
_chemical_melting_point          208-210deg.C
_cell_formula_units_Z            8
loop_
_atom_site_label
_atom_site_type_symbol
_atom_site_fract_x
_atom_site_fract_y
_atom_site_fract_z
C1 C 0.26576(6) 0.62890(6) 0.35614(4)
C2 C 0.31562(7) 0.55011(6) 0.39945(4)
H1 H 0.3824 0.5716 0.4147
H2 H 0.2739 0.5383 0.4395
C3 C 0.32734(7) 0.45861(6) 0.35986(4)
H3 H 0.2602 0.4354 0.3470
H4 H 0.3589 0.4108 0.3889
C4 C 0.39249(6) 0.47148(6) 0.29547(4)
H5 H 0.4616 0.4910 0.3090
C5 C 0.34805(5) 0.54797(5) 0.24643(4)
C6 C 0.43257(5) 0.57680(5) 0.19290(4)
H6 H 0.4911 0.5968 0.2207
C7 C 0.47556(6) 0.49723(6) 0.14658(4)
H7 H 0.5480 0.5092 0.1398
H8 H 0.4694 0.4369 0.1706
C8 C 0.42564(7) 0.48610(6) 0.07656(4)
H9 H 0.3602 0.4541 0.0816
H10 H 0.4688 0.4466 0.0478
C9 C 0.40940(6) 0.58330(6) 0.04235(4)
H11 H 0.3825 0.5762 -0.0040
C10 C 0.33697(6) 0.64209(6) 0.08724(4)
H12 H 0.2773 0.6046 0.1014
C11 C 0.40612(5) 0.66736(5) 0.14860(4)
C12 C 0.37402(6) 0.74986(5) 0.19477(4)
H13 H 0.4343 0.7683 0.2214
C13 C 0.29163(6) 0.72214(5) 0.24498(4)
H14 H 0.2304 0.7028 0.2206
H15 H 0.2746 0.7766 0.2735
C14 C 0.32958(6) 0.63968(5) 0.28938(4)
H16 H 0.3978 0.6594 0.3047
C15 C 0.15151(7) 0.61185(8) 0.34715(5)
H17 H 0.1198 0.6061 0.3911
H18 H 0.1409 0.5540 0.3217
H19 H 0.1218 0.6647 0.3229
C16 C 0.28163(9) 0.71943(7) 0.39591(4)
H20 H 0.3488 0.7393 0.4027
C17 C 0.25133(6) 0.50772(6) 0.21272(4)
H21 H 0.2227 0.5549 0.1827
H22 H 0.2022 0.4916 0.2473
H23 H 0.2685 0.4515 0.1871
C18 C 0.50365(6) 0.64455(6) 0.04343(4)
C19 C 0.56873(7) 0.66360(7) -0.00577(5)
H24 H 0.6203 0.7084 0.0011
H25 H 0.5633 0.6323 -0.0475
C20 C 0.50660(5) 0.69101(5) 0.11150(4)
O1 O 0.21531(8) 0.76838(6) 0.41974(4)
O2 O 0.39842(5) 0.38086(4) 0.26175(3)
H26 H 0.4097(9) 0.3348(8) 0.2973(6)
O3 O 0.30775(4) 0.72449(4) 0.04894(3)
H27 H 0.3014(8) 0.7742(4) 0.0751(4)
O4 O 0.57648(4) 0.73781(4) 0.13432(3)
O5 O 0.34541(5) 0.83111(4) 0.15445(3)
H28 H 0.2845(8) 0.8604(8) 0.1706(5)
C21 C 0.30463(7) 0.79341(6) 0.61267(4)
C22 C 0.32255(9) 0.87918(7) 0.56488(4)
H29 H 0.3936 0.8798 0.5506
H30 H 0.2806 0.8717 0.5244
C23 C 0.29731(7) 0.97352(6) 0.59853(4)
H31 H 0.2245 0.9759 0.6081
H32 H 0.3132 1.0252 0.5673
C24 C 0.35608(6) 0.98799(5) 0.66425(4)
H33 H 0.4292 0.9833 0.6536
C25 C 0.33098(5) 0.91004(5) 0.71801(4)
C26 C 0.40531(5) 0.92054(5) 0.78079(4)
H34 H 0.4729 0.9305 0.7604
C27 C 0.38881(7) 1.00871(6) 0.82694(4)
H35 H 0.4553 1.0318 0.8414
H36 H 0.3575 1.0587 0.7997
C28 C 0.32262(8) 0.99328(7) 0.89087(4)
H37 H 0.3325 1.0464 0.9220
H38 H 0.2510 0.9919 0.8778
C29 C 0.34988(7) 0.90007(7) 0.92701(4)
H39 H 0.3114 0.8925 0.9696
C30 C 0.33002(6) 0.81797(5) 0.87828(4)
H40 H 0.2632 0.8243 0.8560
C31 C 0.41826(5) 0.82814(5) 0.82648(4)
C32 C 0.44173(6) 0.74207(6) 0.78225(4)
H41 H 0.5048 0.7570 0.7574
C33 C 0.35856(6) 0.72921(6) 0.72913(4)
H42 H 0.2925 0.7235 0.7514
H43 H 0.3709 0.6712 0.7033
C34 C 0.35834(6) 0.81487(5) 0.68159(4)
H44 H 0.4305 0.8228 0.6691
C35 C 0.36350(10) 0.71247(7) 0.58083(5)
H45 H 0.4342 0.7197 0.5790
C36 C 0.19144(8) 0.76665(8) 0.61666(5)
H46 H 0.1660 0.7539 0.5716
H47 H 0.1537 0.8186 0.6364
H48 H 0.1835 0.7106 0.6445
C37 C 0.21946(6) 0.91867(7) 0.73997(4)
H49 H 0.1759 0.9121 0.7008
H50 H 0.2084 0.9801 0.7606
H51 H 0.2038 0.8693 0.7723
C38 C 0.46313(7) 0.89205(7) 0.93874(4)
C39 C 0.51825(10) 0.91730(9) 0.99172(6)
H52 H 0.5888 0.9086 0.9912
H53 H 0.4868 0.9439 1.0298
C40 C 0.50685(6) 0.84910(6) 0.87572(4)
O6 O 0.33022(9) 0.64054(6) 0.55774(4)
O7 O 0.33656(4) 1.08347(4) 0.68802(3)
H54 H 0.3926(4) 1.1146(5) 0.6823(5)
O8 O 0.34046(4) 0.72696(4) 0.91110(3)
H55 H 0.3272(10) 0.7390(9) 0.9501(7)
O9 O 0.59535(4) 0.83285(5) 0.86470(3)
O10 O 0.46064(5) 0.65634(4) 0.81921(3)
H56 H 0.4233(6) 0.6579(8) 0.8559(3)
loop_
_geom_bond_atom_site_label_1
_geom_bond_atom_site_label_2
_geom_bond_site_symmetry_1
_geom_bond_site_symmetry_2
C1 C2 1_555 1_555
C2 H1 1_555 1_555
H2 C2 1_555 1_555
C3 C2 1_555 1_555
H3 C3 1_555 1_555
H4 C3 1_555 1_555
C4 C3 1_555 1_555
H5 C4 1_555 1_555
C5 C4 1_555 1_555
C6 C5 1_555 1_555
H6 C6 1_555 1_555
C7 C6 1_555 1_555
H7 C7 1_555 1_555
H8 C7 1_555 1_555
C8 C7 1_555 1_555
H9 C8 1_555 1_555
H10 C8 1_555 1_555
C9 C8 1_555 1_555
H11 C9 1_555 1_555
C10 C9 1_555 1_555
H12 C10 1_555 1_555
C11 C6 1_555 1_555
C12 C11 1_555 1_555
H13 C12 1_555 1_555
C13 C12 1_555 1_555
H14 C13 1_555 1_555
H15 C13 1_555 1_555
C14 C1 1_555 1_555
H16 C14 1_555 1_555
C15 C1 1_555 1_555
H17 C15 1_555 1_555
H18 C15 1_555 1_555
H19 C15 1_555 1_555
C16 C1 1_555 1_555
H20 C16 1_555 1_555
C17 C5 1_555 1_555
H21 C17 1_555 1_555
H22 C17 1_555 1_555
H23 C17 1_555 1_555
C18 C9 1_555 1_555
C19 C18 1_555 1_555
H24 C19 1_555 1_555
H25 C19 1_555 1_555
C20 C11 1_555 1_555
O1 C16 1_555 1_555
O2 C4 1_555 1_555
H26 O2 1_555 1_555
O3 C10 1_555 1_555
H27 O3 1_555 1_555
O4 C20 1_555 1_555
O5 C12 1_555 1_555
H28 O5 1_555 1_555
C21 C22 1_555 1_555
C22 H29 1_555 1_555
H30 C22 1_555 1_555
C23 C22 1_555 1_555
H31 C23 1_555 1_555
H32 C23 1_555 1_555
C24 C23 1_555 1_555
H33 C24 1_555 1_555
C25 C24 1_555 1_555
C26 C25 1_555 1_555
H34 C26 1_555 1_555
C27 C26 1_555 1_555
H35 C27 1_555 1_555
H36 C27 1_555 1_555
C28 C27 1_555 1_555
H37 C28 1_555 1_555
H38 C28 1_555 1_555
C29 C28 1_555 1_555
H39 C29 1_555 1_555
C30 C29 1_555 1_555
H40 C30 1_555 1_555
C31 C26 1_555 1_555
C32 C31 1_555 1_555
H41 C32 1_555 1_555
C33 C32 1_555 1_555
H42 C33 1_555 1_555
H43 C33 1_555 1_555
C34 C21 1_555 1_555
H44 C34 1_555 1_555
C35 C21 1_555 1_555
H45 C35 1_555 1_555
C36 C21 1_555 1_555
H46 C36 1_555 1_555
H47 C36 1_555 1_555
H48 C36 1_555 1_555
C37 C25 1_555 1_555
H49 C37 1_555 1_555
H50 C37 1_555 1_555
H51 C37 1_555 1_555
C38 C29 1_555 1_555
C39 C38 1_555 1_555
H52 C39 1_555 1_555
H53 C39 1_555 1_555
C40 C31 1_555 1_555
O6 C35 1_555 1_555
O7 C24 1_555 1_555
H54 O7 1_555 1_555
O8 C30 1_555 1_555
H55 O8 1_555 1_555
O9 C40 1_555 1_555
O10 C32 1_555 1_555
H56 O10 1_555 1_555
C5 C14 1_555 1_555
C10 C11 1_555 1_555
C13 C14 1_555 1_555
C18 C20 1_555 1_555
C25 C34 1_555 1_555
C30 C31 1_555 1_555
C33 C34 1_555 1_555
C38 C40 1_555 1_555

#END
