
#######################################################################
#
#                 Cambridge Crystallographic Data Centre
#                                CCDC 
#
#######################################################################
#
# If this CIF has been generated from an entry in the Cambridge 
# Structural Database, then it will include bibliographic, chemical, 
# crystal, experimental, refinement or atomic coordinate data resulting 
# from the CCDC's data processing and validation procedures.
#
#######################################################################

data_VATZAT
_chemical_formula_moiety         'C10 H9 N3 O3,H2 O1'
_chemical_name_systematic        
"N'-(2-Furylmethylene)-5-methyl-1,2-oxazole-4-carbohydrazide monohydrate"
_symmetry_cell_setting           monoclinic
_symmetry_space_group_name_H-M   'P 21/c'
_symmetry_Int_Tables_number      14
_space_group_name_Hall           '-P 2ybc'
loop_
_symmetry_equiv_pos_site_id
_symmetry_equiv_pos_as_xyz
1 x,y,z
2 -x,1/2+y,1/2-z
3 -x,-y,-z
4 x,1/2-y,1/2+z
_cell_length_a                   11.3522(19)
_cell_length_b                   8.0700(14)
_cell_length_c                   12.872(2)
_cell_angle_alpha                90
_cell_angle_beta                 106.969(12)
_cell_angle_gamma                90
_cell_volume                     1127.89
_exptl_crystal_colour            colorless
_exptl_crystal_description       block
_cell_formula_units_Z            4
loop_
_atom_site_label
_atom_site_type_symbol
_atom_site_fract_x
_atom_site_fract_y
_atom_site_fract_z
O1 O 0.40633(10) 1.14543(15) -0.01337(11)
O2 O 0.17552(10) 0.90711(15) 0.14468(8)
O3 O -0.18045(10) 0.55061(14) 0.07489(8)
N1 N 0.33469(15) 1.1100(2) -0.12058(13)
N2 N 0.07161(10) 0.82461(15) -0.02604(9)
H3 H 0.0658 0.8275 -0.0941
N3 N -0.01205(10) 0.73724(15) 0.01043(9)
C1 C 0.41622(16) 1.1008(3) 0.17276(15)
H4 H 0.4887 1.1668 0.1807
H5 H 0.4393 0.9952 0.2069
H6 H 0.3622 1.1565 0.2064
C2 C 0.35247(14) 1.07618(19) 0.05621(14)
C3 C 0.24888(12) 0.99595(17) 0.00004(11)
C4 C 0.24404(16) 1.0227(2) -0.10977(14)
H7 H 0.1818 0.9815 -0.1681
C5 C 0.16326(12) 0.90600(18) 0.04677(11)
C6 C -0.27957(17) 0.4580(2) 0.07933(16)
H8 H -0.2964 0.4272 0.1432
C7 C -0.34888(15) 0.4178(2) -0.02003(15)
H9 H -0.4209 0.3555 -0.0378
C8 C -0.29127(13) 0.4884(2) -0.09297(14)
H10 H -0.3182 0.4814 -0.1683
C9 C -0.18967(12) 0.56791(18) -0.03263(11)
C10 C -0.09747(12) 0.66370(18) -0.06209(11)
H11 H -0.1000 0.6723 -0.1348
O4 O 0.02759(12) 0.7232(2) 0.24767(9)
H1 H 0.0672(18) 0.780(3) 0.2123(17)
H2 H -0.0290(17) 0.676(3) 0.2015(16)
loop_
_geom_bond_atom_site_label_1
_geom_bond_atom_site_label_2
_geom_bond_site_symmetry_1
_geom_bond_site_symmetry_2
O1 N1 1_555 1_555
O2 C5 1_555 1_555
O3 C6 1_555 1_555
O4 H1 1_555 1_555
H2 O4 1_555 1_555
N1 C4 1_555 1_555
N2 H3 1_555 1_555
N3 N2 1_555 1_555
C1 H4 1_555 1_555
H5 C1 1_555 1_555
H6 C1 1_555 1_555
C2 O1 1_555 1_555
C3 C2 1_555 1_555
C4 C3 1_555 1_555
H7 C4 1_555 1_555
C5 N2 1_555 1_555
C6 H8 1_555 1_555
C7 C6 1_555 1_555
H9 C7 1_555 1_555
C8 C7 1_555 1_555
H10 C8 1_555 1_555
C9 O3 1_555 1_555
C10 N3 1_555 1_555
H11 C10 1_555 1_555
C1 C2 1_555 1_555
C3 C5 1_555 1_555
C8 C9 1_555 1_555
C9 C10 1_555 1_555

#END
