
#######################################################################
#
#                 Cambridge Crystallographic Data Centre
#                                CCDC 
#
#######################################################################
#
# If this CIF has been generated from an entry in the Cambridge 
# Structural Database, then it will include bibliographic, chemical, 
# crystal, experimental, refinement or atomic coordinate data resulting 
# from the CCDC's data processing and validation procedures.
#
#######################################################################

data_VAVFAB
_chemical_formula_moiety         'C12 H10 N2 S1'
_chemical_name_systematic        
2-(Pyridin-2-yl)-2,3-dihydro-1,3-benzothiazole
_symmetry_cell_setting           orthorhombic
_symmetry_space_group_name_H-M   'P 21 21 21'
_symmetry_Int_Tables_number      19
_space_group_name_Hall           'P 2ac 2ab'
loop_
_symmetry_equiv_pos_site_id
_symmetry_equiv_pos_as_xyz
1 x,y,z
2 1/2-x,-y,1/2+z
3 -x,1/2+y,1/2-z
4 1/2+x,1/2-y,-z
_cell_length_a                   6.1793(6)
_cell_length_b                   8.6385(9)
_cell_length_c                   19.256(2)
_cell_angle_alpha                90
_cell_angle_beta                 90
_cell_angle_gamma                90
_cell_volume                     1027.88
_exptl_crystal_colour            colorless
_exptl_crystal_description       plate
_cell_formula_units_Z            4
loop_
_atom_site_label
_atom_site_type_symbol
_atom_site_fract_x
_atom_site_fract_y
_atom_site_fract_z
S1 S 0.19740(13) 0.41410(9) 0.40426(4)
N1 N 0.5699(4) 0.2739(3) 0.39277(13)
H1 H 0.674(4) 0.210(3) 0.4081(14)
N2 N 0.4367(4) 0.4509(3) 0.56033(13)
C1 C 0.4306(5) 0.3276(3) 0.44932(15)
H2 H 0.3806 0.2365 0.4770
C2 C 0.5309(5) 0.4445(3) 0.49720(15)
C3 C 0.5226(5) 0.5496(3) 0.60645(17)
H3 H 0.4570 0.5574 0.6509
C4 C 0.7016(5) 0.6408(3) 0.59285(18)
H4 H 0.7607 0.7059 0.6278
C5 C 0.7928(6) 0.6352(4) 0.52742(17)
H5 H 0.9134 0.6985 0.5161
C6 C 0.7053(5) 0.5361(3) 0.47891(16)
H6 H 0.7642 0.5307 0.4334
C7 C 0.2412(5) 0.2895(3) 0.33288(15)
C8 C 0.1009(5) 0.2597(4) 0.27882(17)
H7 H -0.0378 0.3069 0.2771
C9 C 0.1685(5) 0.1581(4) 0.22677(17)
H8 H 0.0742 0.1343 0.1893
C10 C 0.3703(5) 0.0926(4) 0.22950(16)
H9 H 0.4147 0.0247 0.1934
C11 C 0.5109(5) 0.1232(4) 0.28389(16)
H10 H 0.6495 0.0757 0.2854
C12 C 0.4468(5) 0.2238(4) 0.33596(15)
loop_
_geom_bond_atom_site_label_1
_geom_bond_atom_site_label_2
_geom_bond_site_symmetry_1
_geom_bond_site_symmetry_2
S1 C1 1_555 1_555
N1 H1 1_555 1_555
N2 C2 1_555 1_555
C1 N1 1_555 1_555
H2 C1 1_555 1_555
C2 C1 1_555 1_555
C3 N2 1_555 1_555
H3 C3 1_555 1_555
C4 C3 1_555 1_555
H4 C4 1_555 1_555
C5 C4 1_555 1_555
H5 C5 1_555 1_555
C6 C2 1_555 1_555
H6 C6 1_555 1_555
C7 S1 1_555 1_555
C8 C7 1_555 1_555
H7 C8 1_555 1_555
C9 C8 1_555 1_555
H8 C9 1_555 1_555
C10 C9 1_555 1_555
H9 C10 1_555 1_555
C11 C10 1_555 1_555
H10 C11 1_555 1_555
C12 N1 1_555 1_555
C5 C6 1_555 1_555
C7 C12 1_555 1_555
C11 C12 1_555 1_555

#END
