
#######################################################################
#
#                 Cambridge Crystallographic Data Centre
#                                CCDC 
#
#######################################################################
#
# If this CIF has been generated from an entry in the Cambridge 
# Structural Database, then it will include bibliographic, chemical, 
# crystal, experimental, refinement or atomic coordinate data resulting 
# from the CCDC's data processing and validation procedures.
#
#######################################################################

data_VAVHOS
_chemical_formula_moiety         'C11 H18 N1 O1 1+,C7 H4 F1 O2 1-'
_chemical_name_systematic        '(-)-methylephedrinium 2-fluorobenzoate'
_symmetry_cell_setting           monoclinic
_symmetry_space_group_name_H-M   'P 21'
_symmetry_Int_Tables_number      4
_space_group_name_Hall           'P 2yb'
loop_
_symmetry_equiv_pos_site_id
_symmetry_equiv_pos_as_xyz
1 x,y,z
2 -x,1/2+y,-z
_cell_length_a                   5.7285(2)
_cell_length_b                   14.8236(16)
_cell_length_c                   9.7213(3)
_cell_angle_alpha                90
_cell_angle_beta                 97.952(4)
_cell_angle_gamma                90
_cell_volume                     817.566
_exptl_crystal_colour            colorless
_exptl_crystal_description       'large slab cut to size'
_cell_formula_units_Z            2
loop_
_atom_site_label
_atom_site_type_symbol
_atom_site_fract_x
_atom_site_fract_y
_atom_site_fract_z
F2 F 0.2822(3) 0.34411(11) -0.33365(19)
O1 O -0.17926(19) 0.29651(6) -0.07543(11)
O2 O -0.1210(2) 0.40131(6) -0.23091(11)
C1 C -0.0246(2) 0.25082(9) -0.27874(13)
C2 C -0.1291(3) 0.16631(9) -0.29844(14)
H1 H -0.2565 0.1517 -0.2495
C3 C -0.0543(3) 0.10281(10) -0.38659(15)
H2 H -0.1326 0.0463 -0.3996
C4 C 0.1347(3) 0.12181(10) -0.45567(16)
H3 H 0.1886 0.0780 -0.5153
C5 C 0.2455(3) 0.20464(10) -0.43800(16)
H4 H 0.3764 0.2182 -0.4846
C6 C 0.1629(3) 0.26741(9) -0.35154(16)
C7 C -0.1159(3) 0.32134(9) -0.18740(15)
O3 O 0.73275(19) 0.14942(7) 0.06894(11)
N1 N 0.3535(2) 0.00561(7) 0.07400(12)
C8 C 0.4990(2) 0.24837(8) 0.19844(13)
C9 C 0.6966(2) 0.27335(9) 0.28963(15)
H6 H 0.8391 0.2402 0.2921
C10 C 0.6860(3) 0.34697(10) 0.37755(15)
H7 H 0.8215 0.3638 0.4399
C11 C 0.4805(3) 0.39544(10) 0.37463(15)
H8 H 0.4747 0.4461 0.4340
C12 C 0.2828(2) 0.37028(9) 0.28509(14)
H9 H 0.1404 0.4033 0.2835
C13 C 0.2913(2) 0.29704(9) 0.19757(13)
H10 H 0.1544 0.2799 0.1365
C14 C 0.5042(2) 0.16796(8) 0.10181(13)
H11 H 0.3972 0.1807 0.0137
C15 C 0.4120(3) 0.08455(8) 0.17091(13)
H12 H 0.2612 0.1030 0.2039
C16 C 0.5749(3) 0.05313(9) 0.29802(15)
H13 H 0.5139 -0.0030 0.3327
H14 H 0.5834 0.0995 0.3704
H15 H 0.7327 0.0425 0.2732
C17 C 0.5561(3) -0.04238(10) 0.02724(16)
H16 H 0.5009 -0.0986 -0.0195
H17 H 0.6732 -0.0563 0.1078
H18 H 0.6279 -0.0040 -0.0374
C18 C 0.1774(3) 0.02818(10) -0.04776(16)
H19 H 0.2524 0.0647 -0.1134
H20 H 0.0476 0.0623 -0.0169
H21 H 0.1159 -0.0276 -0.0934
H22 H 0.773(3) 0.1947(14) 0.016(2)
H23 H 0.273(3) -0.0356(12) 0.1259(18)
F1? F -0.3026(4) 0.14095(13) -0.23490(19)
H5? H 0.2379 0.3246 -0.3414
loop_
_geom_bond_atom_site_label_1
_geom_bond_atom_site_label_2
_geom_bond_site_symmetry_1
_geom_bond_site_symmetry_2
F2 C6 1_555 1_555
O1 C7 1_555 1_555
O2 C7 1_555 1_555
C1 C2 1_555 1_555
C2 H1 1_555 1_555
C3 C2 1_555 1_555
H2 C3 1_555 1_555
C4 C3 1_555 1_555
H3 C4 1_555 1_555
C5 C4 1_555 1_555
H4 C5 1_555 1_555
C6 C1 1_555 1_555
C7 C1 1_555 1_555
O3 C14 1_555 1_555
N1 C15 1_555 1_555
C8 C9 1_555 1_555
C9 H6 1_555 1_555
C10 C9 1_555 1_555
H7 C10 1_555 1_555
C11 C10 1_555 1_555
H8 C11 1_555 1_555
C12 C11 1_555 1_555
H9 C12 1_555 1_555
C13 C8 1_555 1_555
H10 C13 1_555 1_555
C14 C8 1_555 1_555
H11 C14 1_555 1_555
C15 C14 1_555 1_555
H12 C15 1_555 1_555
C16 C15 1_555 1_555
H13 C16 1_555 1_555
H14 C16 1_555 1_555
H15 C16 1_555 1_555
C17 N1 1_555 1_555
H16 C17 1_555 1_555
H17 C17 1_555 1_555
H18 C17 1_555 1_555
C18 N1 1_555 1_555
H19 C18 1_555 1_555
H20 C18 1_555 1_555
H21 C18 1_555 1_555
H22 O3 1_555 1_555
H23 N1 1_555 1_555
C5 C6 1_555 1_555
C12 C13 1_555 1_555

#END
