
#######################################################################
#
#                 Cambridge Crystallographic Data Centre
#                                CCDC 
#
#######################################################################
#
# If this CIF has been generated from an entry in the Cambridge 
# Structural Database, then it will include bibliographic, chemical, 
# crystal, experimental, refinement or atomic coordinate data resulting 
# from the CCDC's data processing and validation procedures.
#
#######################################################################

data_VAVHUY
_chemical_formula_moiety         'C11 H18 N1 O1 1+,C7 H5 O3 1-'
_chemical_name_systematic        '(-)-methylephedrinium 2-hydroxybenzoate'
_symmetry_cell_setting           orthorhombic
_symmetry_space_group_name_H-M   'P 21 21 21'
_symmetry_Int_Tables_number      19
_space_group_name_Hall           'P 2ac 2ab'
loop_
_symmetry_equiv_pos_site_id
_symmetry_equiv_pos_as_xyz
1 x,y,z
2 1/2-x,-y,1/2+z
3 1/2+x,1/2-y,-z
4 -x,1/2+y,1/2-z
_cell_length_a                   9.4432(3)
_cell_length_b                   11.6437(4)
_cell_length_c                   15.0684(5)
_cell_angle_alpha                90
_cell_angle_beta                 90
_cell_angle_gamma                90
_cell_volume                     1656.83
_exptl_crystal_colour            colorless
_exptl_crystal_description       prism
_cell_formula_units_Z            4
loop_
_atom_site_label
_atom_site_type_symbol
_atom_site_fract_x
_atom_site_fract_y
_atom_site_fract_z
O1 O 1.19632(12) 0.34652(10) -0.14905(8)
N1 N 0.97608(13) 0.30411(11) -0.30046(9)
C1 C 1.08736(17) 0.18569(13) -0.07355(10)
C2 C 0.96863(17) 0.14518(14) -0.02852(10)
H1 H 0.8784 0.1773 -0.0411
C3 C 0.98000(18) 0.05895(15) 0.03426(11)
H2 H 0.8978 0.0320 0.0641
C4 C 1.11105(19) 0.01199(15) 0.05363(11)
H3 H 1.1194 -0.0472 0.0967
C5 C 1.22977(18) 0.05214(16) 0.00970(12)
H4 H 1.3199 0.0202 0.0228
C6 C 1.21875(17) 0.13866(15) -0.05341(11)
H5 H 1.3012 0.1657 -0.0829
C7 C 1.07182(16) 0.27811(13) -0.14385(10)
H6 H 0.9900 0.3285 -0.1279
C8 C 1.04258(17) 0.22217(14) -0.23463(10)
H7 H 0.9729 0.1588 -0.2244
C9 C 0.82367(16) 0.32644(15) -0.28201(12)
H8 H 0.8140 0.3632 -0.2238
H9 H 0.7716 0.2536 -0.2822
H10 H 0.7851 0.3772 -0.3279
C10 C 1.05335(19) 0.41436(13) -0.31432(12)
H11 H 1.0126 0.4550 -0.3652
H12 H 1.1536 0.3983 -0.3257
H13 H 1.0446 0.4622 -0.2611
C11 C 1.17346(16) 0.16824(14) -0.27573(11)
H14 H 1.1488 0.1346 -0.3333
H15 H 1.2098 0.1081 -0.2364
H16 H 1.2463 0.2272 -0.2841
H17 H 0.9783(18) 0.2611(16) -0.3643(13)
H18 H 1.165(2) 0.4154(17) -0.1323(14)
O2 O 1.10684(13) 0.55780(10) -0.10108(7)
O3 O 1.03547(12) 0.71947(9) -0.03732(7)
O4 O 0.99822(12) 0.73469(10) 0.12776(8)
C12 C 1.07356(16) 0.61358(14) -0.03433(11)
C13 C 1.07361(16) 0.55983(14) 0.05572(11)
C14 C 1.03528(17) 0.62142(14) 0.13181(11)
C15 C 1.03373(18) 0.56839(16) 0.21427(11)
H19 H 1.0098 0.6114 0.2657
C16 C 1.06681(17) 0.45335(16) 0.22189(11)
H20 H 1.0653 0.4175 0.2785
C17 C 1.10218(18) 0.39012(14) 0.14737(11)
H21 H 1.1234 0.3106 0.1524
C18 C 1.10644(17) 0.44355(14) 0.06569(11)
H22 H 1.1324 0.4001 0.0149
H23 H 1.0081(19) 0.7507(17) 0.0653(13)
loop_
_geom_bond_atom_site_label_1
_geom_bond_atom_site_label_2
_geom_bond_site_symmetry_1
_geom_bond_site_symmetry_2
O1 C7 1_555 1_555
N1 C8 1_555 1_555
C1 C2 1_555 1_555
C2 H1 1_555 1_555
C3 C2 1_555 1_555
H2 C3 1_555 1_555
C4 C3 1_555 1_555
H3 C4 1_555 1_555
C5 C4 1_555 1_555
H4 C5 1_555 1_555
C6 C1 1_555 1_555
H5 C6 1_555 1_555
C7 C1 1_555 1_555
H6 C7 1_555 1_555
C8 C7 1_555 1_555
H7 C8 1_555 1_555
C9 N1 1_555 1_555
H8 C9 1_555 1_555
H9 C9 1_555 1_555
H10 C9 1_555 1_555
C10 N1 1_555 1_555
H11 C10 1_555 1_555
H12 C10 1_555 1_555
H13 C10 1_555 1_555
C11 C8 1_555 1_555
H14 C11 1_555 1_555
H15 C11 1_555 1_555
H16 C11 1_555 1_555
H17 N1 1_555 1_555
H18 O1 1_555 1_555
O2 C12 1_555 1_555
O3 C12 1_555 1_555
O4 C14 1_555 1_555
C12 C13 1_555 1_555
C13 C14 1_555 1_555
C14 C15 1_555 1_555
C15 H19 1_555 1_555
C16 C15 1_555 1_555
H20 C16 1_555 1_555
C17 C16 1_555 1_555
H21 C17 1_555 1_555
C18 C13 1_555 1_555
H22 C18 1_555 1_555
H23 O4 1_555 1_555
C5 C6 1_555 1_555
C17 C18 1_555 1_555

#END
