
#######################################################################
#
#                 Cambridge Crystallographic Data Centre
#                                CCDC 
#
#######################################################################
#
# If this CIF has been generated from an entry in the Cambridge 
# Structural Database, then it will include bibliographic, chemical, 
# crystal, experimental, refinement or atomic coordinate data resulting 
# from the CCDC's data processing and validation procedures.
#
#######################################################################

data_VAVJIO
_chemical_formula_moiety         'C11 H18 N1 O1 1+,B1 F4 1-'
_chemical_name_systematic        '(-)-methylephedrinium tetrafluoroborate'
_symmetry_cell_setting           orthorhombic
_symmetry_space_group_name_H-M   'P 21 21 21'
_symmetry_Int_Tables_number      19
_space_group_name_Hall           'P 2ac 2ab'
loop_
_symmetry_equiv_pos_site_id
_symmetry_equiv_pos_as_xyz
1 x,y,z
2 1/2-x,-y,1/2+z
3 1/2+x,1/2-y,-z
4 -x,1/2+y,1/2-z
_cell_length_a                   7.8841(2)
_cell_length_b                   11.4446(3)
_cell_length_c                   14.5177(5)
_cell_angle_alpha                90
_cell_angle_beta                 90
_cell_angle_gamma                90
_cell_volume                     1309.94
_exptl_crystal_colour            colorless
_exptl_crystal_description       plate
_cell_formula_units_Z            4
loop_
_atom_site_label
_atom_site_type_symbol
_atom_site_fract_x
_atom_site_fract_y
_atom_site_fract_z
F1 F 0.97939(11) 0.01740(7) 0.37635(6)
F2 F 0.93154(11) -0.10309(7) 0.49733(7)
F3 F 1.15743(10) 0.01804(6) 0.49972(6)
F4 F 1.15355(10) -0.13730(7) 0.40155(6)
B1 B 1.05531(19) -0.05262(12) 0.44335(11)
O1 O 0.47557(12) 0.06134(9) 0.69160(8)
N1 N 0.50710(14) 0.00480(8) 0.50367(8)
C1 C 0.77070(16) 0.13455(11) 0.70257(9)
C2 C 0.72186(18) 0.22171(12) 0.76325(10)
H1 H 0.6050 0.2342 0.7758
C3 C 0.84367(19) 0.29089(12) 0.80583(10)
H2 H 0.8100 0.3507 0.8474
C4 C 1.01356(19) 0.27280(12) 0.78775(10)
H3 H 1.0965 0.3197 0.8175
C5 C 1.06381(18) 0.18675(11) 0.72646(10)
H4 H 1.1807 0.1753 0.7133
C6 C 0.94196(17) 0.11741(11) 0.68442(9)
H5 H 0.9759 0.0577 0.6429
C7 C 0.64161(16) 0.05594(11) 0.65486(9)
H6 H 0.6823 -0.0266 0.6592
C8 C 0.62606(17) 0.08831(10) 0.55300(9)
H7 H 0.7408 0.0826 0.5240
C9 C 0.5603(2) 0.21225(11) 0.54033(11)
H8 H 0.5632 0.2328 0.4748
H9 H 0.6320 0.2666 0.5751
H10 H 0.4434 0.2172 0.5630
C10 C 0.51775(19) 0.02060(13) 0.40153(10)
H11 H 0.6320 0.0002 0.3804
H12 H 0.4936 0.1022 0.3859
H13 H 0.4346 -0.0303 0.3714
C11 C 0.53058(18) -0.12187(10) 0.52617(10)
H14 H 0.4532 -0.1689 0.4886
H15 H 0.5060 -0.1348 0.5915
H16 H 0.6479 -0.1448 0.5131
H17 H 0.479(3) 0.0400(17) 0.7456(16)
H18 H 0.401(2) 0.0227(12) 0.5233(11)
loop_
_geom_bond_atom_site_label_1
_geom_bond_atom_site_label_2
_geom_bond_site_symmetry_1
_geom_bond_site_symmetry_2
F1 B1 1_555 1_555
F2 B1 1_555 1_555
F3 B1 1_555 1_555
F4 B1 1_555 1_555
O1 C7 1_555 1_555
N1 C8 1_555 1_555
C1 C2 1_555 1_555
C2 H1 1_555 1_555
C3 C2 1_555 1_555
H2 C3 1_555 1_555
C4 C3 1_555 1_555
H3 C4 1_555 1_555
C5 C4 1_555 1_555
H4 C5 1_555 1_555
C6 C1 1_555 1_555
H5 C6 1_555 1_555
C7 C1 1_555 1_555
H6 C7 1_555 1_555
C8 C7 1_555 1_555
H7 C8 1_555 1_555
C9 C8 1_555 1_555
H8 C9 1_555 1_555
H9 C9 1_555 1_555
H10 C9 1_555 1_555
C10 N1 1_555 1_555
H11 C10 1_555 1_555
H12 C10 1_555 1_555
H13 C10 1_555 1_555
C11 N1 1_555 1_555
H14 C11 1_555 1_555
H15 C11 1_555 1_555
H16 C11 1_555 1_555
H17 O1 1_555 1_555
H18 N1 1_555 1_555
C5 C6 1_555 1_555

#END
