
#######################################################################
#
#                 Cambridge Crystallographic Data Centre
#                                CCDC 
#
#######################################################################
#
# If this CIF has been generated from an entry in the Cambridge 
# Structural Database, then it will include bibliographic, chemical, 
# crystal, experimental, refinement or atomic coordinate data resulting 
# from the CCDC's data processing and validation procedures.
#
#######################################################################

data_VAVJEK
_chemical_formula_moiety         'C11 H18 N1 O1 1+,C7 H6 N1 O2 1-'
_chemical_name_systematic        '(-)-methylephedrinium 4-aminobenzoate'
_symmetry_cell_setting           orthorhombic
_symmetry_space_group_name_H-M   'P 21 21 21'
_symmetry_Int_Tables_number      19
_space_group_name_Hall           'P 2ac 2ab'
loop_
_symmetry_equiv_pos_site_id
_symmetry_equiv_pos_as_xyz
1 x,y,z
2 1/2-x,-y,1/2+z
3 1/2+x,1/2-y,-z
4 -x,1/2+y,1/2-z
_cell_length_a                   9.2790(2)
_cell_length_b                   13.3031(3)
_cell_length_c                   13.8797(3)
_cell_angle_alpha                90
_cell_angle_beta                 90
_cell_angle_gamma                90
_cell_volume                     1713.3
_exptl_crystal_colour            colorless
_exptl_crystal_description       prism
_cell_formula_units_Z            4
loop_
_atom_site_label
_atom_site_type_symbol
_atom_site_fract_x
_atom_site_fract_y
_atom_site_fract_z
O1 O 0.36221(8) 0.11634(6) 0.99248(6)
N1 N 0.17948(11) 0.07092(7) 1.16039(7)
C1 C 0.21736(11) 0.08674(8) 0.97944(8)
H1 H 0.2123 0.0119 0.9734
C2 C 0.13005(12) 0.12042(8) 1.06742(7)
H2 H 0.0288 0.0975 1.0562
C3 C 0.12372(14) 0.23369(8) 1.07887(8)
H3 H 0.0760 0.2504 1.1398
H4 H 0.0693 0.2628 1.0252
H5 H 0.2218 0.2610 1.0790
C4 C 0.30881(13) 0.11761(10) 1.20677(8)
H6 H 0.3300 0.0827 1.2673
H7 H 0.2894 0.1887 1.2200
H8 H 0.3917 0.1120 1.1634
C5 C 0.20045(14) -0.03908(8) 1.15032(9)
H9 H 0.2895 -0.0521 1.1145
H10 H 0.1185 -0.0681 1.1155
H11 H 0.2072 -0.0697 1.2144
C6 C 0.1516(15) 0.1352(10) 0.8899(8)
C7 C 0.2173(12) 0.2162(10) 0.8445(9)
H12 H 0.3026 0.2447 0.8708
C8 C 0.1584(11) 0.2556(8) 0.7605(9)
H13 H 0.2033 0.3111 0.7295
C9 C 0.0337(12) 0.2140(8) 0.7220(7)
H14 H -0.0066 0.2409 0.6646
C10 C -0.0320(12) 0.1329(7) 0.7674(8)
H15 H -0.1172 0.1044 0.7410
C11 C 0.0270(14) 0.0935(7) 0.8513(8)
H16 H -0.0179 0.0381 0.8823
H17 H 0.1034(17) 0.0855(11) 1.2078(11)
H18 H 0.414(2) 0.0909(13) 0.9411(12)
O2 O -0.48930(9) 0.03291(5) 0.84427(5)
O3 O -0.47822(9) -0.12451(6) 0.79019(6)
N2 N -0.10754(11) -0.17021(8) 1.17701(7)
C18 C -0.35672(12) -0.08646(8) 0.93689(8)
C19 C -0.31320(12) -0.18606(8) 0.95094(8)
H24 H -0.3425 -0.2360 0.9061
C20 C -0.22842(12) -0.21356(8) 1.02875(8)
H25 H -0.1994 -0.2816 1.0358
C21 C -0.18483(12) -0.14224(8) 1.09715(7)
C22 C -0.22665(12) -0.04174(8) 1.08270(8)
H26 H -0.1971 0.0084 1.1273
C23 C -0.31061(12) -0.01501(8) 1.00402(8)
H27 H -0.3374 0.0534 0.9956
C24 C -0.44767(12) -0.05675(8) 0.85172(8)
H28 H -0.0798(15) -0.1255(11) 1.2233(11)
H29 H -0.0744(17) -0.2314(12) 1.1799(11)
C12? C 0.1455(15) 0.1260(10) 0.8884(8)
C13? C 0.1943(12) 0.2131(9) 0.8438(9)
H19? H 0.2741 0.2487 0.8699
C14? C 0.1265(11) 0.2483(8) 0.7612(9)
H20? H 0.1599 0.3079 0.7307
C15? C 0.0097(12) 0.1963(8) 0.7230(7)
H21? H -0.0366 0.2203 0.6665
C16? C -0.0391(12) 0.1091(7) 0.7675(8)
H22? H -0.1189 0.0736 0.7415
C17? C 0.0288(14) 0.0740(7) 0.8502(8)
H23? H -0.0046 0.0144 0.8806
loop_
_geom_bond_atom_site_label_1
_geom_bond_atom_site_label_2
_geom_bond_site_symmetry_1
_geom_bond_site_symmetry_2
O1 C1 1_555 1_555
N1 C2 1_555 1_555
C1 H1 1_555 1_555
C2 C1 1_555 1_555
H2 C2 1_555 1_555
C3 C2 1_555 1_555
H3 C3 1_555 1_555
H4 C3 1_555 1_555
H5 C3 1_555 1_555
C4 N1 1_555 1_555
H6 C4 1_555 1_555
H7 C4 1_555 1_555
H8 C4 1_555 1_555
C5 N1 1_555 1_555
H9 C5 1_555 1_555
H10 C5 1_555 1_555
H11 C5 1_555 1_555
C6 C1 1_555 1_555
C7 C6 1_555 1_555
H12 C7 1_555 1_555
C8 C7 1_555 1_555
H13 C8 1_555 1_555
C9 C8 1_555 1_555
H14 C9 1_555 1_555
C10 C9 1_555 1_555
H15 C10 1_555 1_555
C11 C6 1_555 1_555
H16 C11 1_555 1_555
H17 N1 1_555 1_555
H18 O1 1_555 1_555
O2 C24 1_555 1_555
O3 C24 1_555 1_555
N2 C21 1_555 1_555
C18 C19 1_555 1_555
C19 H24 1_555 1_555
C20 C19 1_555 1_555
H25 C20 1_555 1_555
C21 C20 1_555 1_555
C22 C21 1_555 1_555
H26 C22 1_555 1_555
C23 C18 1_555 1_555
H27 C23 1_555 1_555
C24 C18 1_555 1_555
H28 N2 1_555 1_555
H29 N2 1_555 1_555
C10 C11 1_555 1_555
C22 C23 1_555 1_555

#END
