
#######################################################################
#
#                 Cambridge Crystallographic Data Centre
#                                CCDC 
#
#######################################################################
#
# If this CIF has been generated from an entry in the Cambridge 
# Structural Database, then it will include bibliographic, chemical, 
# crystal, experimental, refinement or atomic coordinate data resulting 
# from the CCDC's data processing and validation procedures.
#
#######################################################################

data_VAVLOW
_chemical_formula_moiety         'C11 H18 N1 O1 1+,0.5(I2),I1 1-'
_chemical_name_systematic        
'(+-)-methylephedrinium iodide hemikis(di-iodine)'
_symmetry_cell_setting           monoclinic
_symmetry_space_group_name_H-M   'C 2/c'
_symmetry_Int_Tables_number      15
_space_group_name_Hall           '-C 2yn'
loop_
_symmetry_equiv_pos_site_id
_symmetry_equiv_pos_as_xyz
1 x,y,z
2 -x,y,1/2-z
3 1/2+x,1/2+y,z
4 1/2-x,1/2+y,1/2-z
5 -x,-y,-z
6 x,-y,1/2+z
7 1/2-x,1/2-y,-z
8 1/2+x,1/2-y,1/2+z
_cell_length_a                   12.7306(2)
_cell_length_b                   8.9883(2)
_cell_length_c                   24.9567(5)
_cell_angle_alpha                90
_cell_angle_beta                 96.364(2)
_cell_angle_gamma                90
_cell_volume                     2838.11
_exptl_crystal_colour            'reddish brown'
_exptl_crystal_description       block
_cell_formula_units_Z            8
loop_
_atom_site_label
_atom_site_type_symbol
_atom_site_fract_x
_atom_site_fract_y
_atom_site_fract_z
I1 I 0.006034(10) -0.282553(16) 0.194975(6)
I1A I -0.006034(10) -0.282553(16) 0.305025(6)
I2 I 0.011709(10) -0.326293(15) 0.059454(5)
O1 O -0.12643(13) 0.30198(18) 0.08089(7)
N1 N -0.23005(12) 0.01674(19) 0.06115(7)
C1 C 0.02905(15) 0.1819(2) 0.13089(8)
C2 C 0.11011(15) 0.0778(2) 0.13093(9)
H1 H 0.1059 0.0016 0.1044
C3 C 0.19695(16) 0.0851(3) 0.16964(9)
H2 H 0.2523 0.0142 0.1694
C4 C 0.20324(17) 0.1954(3) 0.20852(9)
H3 H 0.2626 0.1999 0.2351
C5 C 0.12300(18) 0.2991(3) 0.20859(9)
H4 H 0.1275 0.3750 0.2352
C6 C 0.03589(16) 0.2926(2) 0.16993(9)
H5 H -0.0191 0.3640 0.1702
C7 C -0.06590(15) 0.1695(2) 0.08847(8)
H6 H -0.0408 0.1405 0.0534
C8 C -0.14018(14) 0.0483(2) 0.10533(8)
H7 H -0.0981 -0.0452 0.1119
C9 C -0.18678(17) 0.0872(3) 0.15712(8)
H8 H -0.1295 0.1057 0.1859
H9 H -0.2303 0.0043 0.1674
H10 H -0.2305 0.1767 0.1514
C10 C -0.19933(16) 0.0168(3) 0.00522(8)
H11 H -0.1415 -0.0539 0.0028
H12 H -0.1761 0.1168 -0.0038
H13 H -0.2602 -0.0123 -0.0201
C11 C -0.28080(16) -0.1293(2) 0.07139(9)
H14 H -0.3412 -0.1457 0.0441
H15 H -0.3052 -0.1282 0.1073
H16 H -0.2293 -0.2096 0.0695
H17 H -0.2767(18) 0.082(3) 0.0637(9)
H18 H -0.093(2) 0.360(3) 0.0733(11)
loop_
_geom_bond_atom_site_label_1
_geom_bond_atom_site_label_2
_geom_bond_site_symmetry_1
_geom_bond_site_symmetry_2
I1 I1A 1_555 1_555
O1 C7 1_555 1_555
N1 C8 1_555 1_555
C1 C2 1_555 1_555
C2 H1 1_555 1_555
C3 C2 1_555 1_555
H2 C3 1_555 1_555
C4 C3 1_555 1_555
H3 C4 1_555 1_555
C5 C4 1_555 1_555
H4 C5 1_555 1_555
C6 C1 1_555 1_555
H5 C6 1_555 1_555
C7 C1 1_555 1_555
H6 C7 1_555 1_555
C8 C7 1_555 1_555
H7 C8 1_555 1_555
C9 C8 1_555 1_555
H8 C9 1_555 1_555
H9 C9 1_555 1_555
H10 C9 1_555 1_555
C10 N1 1_555 1_555
H11 C10 1_555 1_555
H12 C10 1_555 1_555
H13 C10 1_555 1_555
C11 N1 1_555 1_555
H14 C11 1_555 1_555
H15 C11 1_555 1_555
H16 C11 1_555 1_555
H17 N1 1_555 1_555
H18 O1 1_555 1_555
C5 C6 1_555 1_555

#END
