
#######################################################################
#
#                 Cambridge Crystallographic Data Centre
#                                CCDC 
#
#######################################################################
#
# If this CIF has been generated from an entry in the Cambridge 
# Structural Database, then it will include bibliographic, chemical, 
# crystal, experimental, refinement or atomic coordinate data resulting 
# from the CCDC's data processing and validation procedures.
#
#######################################################################

data_VAVLUB
_chemical_formula_moiety         '2(C28 H28 N6),C18 H20 N2,C1 H4 O1'
_chemical_name_systematic        
"bis((4-(2-(Cyanoimino)-1,2-bis(4-(dimethylamino)phenyl)ethylidene)-2,5-dimethylcyclohexa-2,5-dien-1-ylidene)cyanamide) 4,4'-ethyne-1,2-diylbis(N,N-dimethylaniline) methanol solvate"
_symmetry_cell_setting           triclinic
_symmetry_space_group_name_H-M   'P -1'
_symmetry_Int_Tables_number      2
_space_group_name_Hall           '-P 1'
loop_
_symmetry_equiv_pos_site_id
_symmetry_equiv_pos_as_xyz
1 x,y,z
2 -x,-y,-z
_cell_length_a                   11.5040(7)
_cell_length_b                   12.1136(7)
_cell_length_c                   12.8530(8)
_cell_angle_alpha                100.552(2)
_cell_angle_beta                 98.525(2)
_cell_angle_gamma                96.793(3)
_cell_volume                     1721.79
_exptl_crystal_colour            'red brown'
_exptl_crystal_description       cube
_cell_formula_units_Z            1
loop_
_atom_site_label
_atom_site_type_symbol
_atom_site_fract_x
_atom_site_fract_y
_atom_site_fract_z
N1 N 0.7307(5) 0.1252(5) 0.0877(5)
N2 N 0.7927(6) -0.0569(6) 0.1236(6)
N3 N 0.6160(5) 0.6279(5) 0.0919(5)
N4 N 1.0736(5) 0.3936(6) 0.5876(6)
N5 N 0.3620(6) -0.1944(5) 0.3208(5)
N6 N 0.1723(7) -0.2684(6) 0.1928(6)
C1 C 0.7619(6) 0.0280(8) 0.1129(6)
C2 C 0.6924(6) 0.1958(6) 0.1613(6)
C3 C 0.6863(6) 0.1668(6) 0.2693(6)
C4 C 0.6696(5) 0.3037(6) 0.1423(6)
C5 C 0.6188(6) 0.3784(6) 0.2127(6)
C6 C 0.5981(6) 0.4836(6) 0.1970(6)
C7 C 0.6290(6) 0.5217(6) 0.1049(6)
C8 C 0.6763(6) 0.4470(6) 0.0312(6)
C9 C 0.6942(6) 0.3418(6) 0.0486(6)
C10 C 0.5709(8) 0.7075(7) 0.1708(7)
C11 C 0.6608(7) 0.6711(7) 0.0043(7)
C12 C 0.7836(6) 0.2251(6) 0.3522(6)
C13 C 0.7753(6) 0.2436(6) 0.4625(6)
C14 C 0.8702(6) 0.2994(6) 0.5410(6)
C15 C 0.9785(6) 0.3401(7) 0.5114(7)
C16 C 0.9858(6) 0.3254(7) 0.4022(7)
C17 C 0.8915(6) 0.2727(6) 0.3257(7)
C18 C 1.0685(8) 0.4091(10) 0.7014(7)
C19 C 1.1870(6) 0.4261(8) 0.5564(7)
C20 C 0.5993(6) 0.0790(6) 0.2802(6)
C21 C 0.6233(6) 0.0138(6) 0.3623(6)
C22 C 0.5485(6) -0.0743(6) 0.3767(6)
C23 C 0.4350(6) -0.1056(6) 0.3068(6)
C24 C 0.4094(6) -0.0432(6) 0.2260(6)
C25 C 0.4847(6) 0.0445(6) 0.2073(6)
C26 C 0.4421(6) 0.1037(6) 0.1198(6)
C27 C 0.5817(7) -0.1413(7) 0.4597(7)
C28 C 0.2609(9) -0.2278(7) 0.2499(7)
H1 H 0.5973 0.3550 0.2756
H2 H 0.5619 0.5314 0.2470
H3 H 0.6960 0.4712 -0.0319
H4 H 0.7248 0.2916 -0.0040
H5 H 0.5687 0.7784 0.1480
H6 H 0.6233 0.7194 0.2386
H7 H 0.4925 0.6768 0.1783
H8 H 0.6457 0.7477 0.0065
H9 H 0.6211 0.6240 -0.0629
H10 H 0.7447 0.6694 0.0113
H11 H 0.7020 0.2182 0.4840
H12 H 0.8628 0.3087 0.6154
H13 H 1.0591 0.3534 0.3821
H14 H 0.8973 0.2668 0.2512
H15 H 1.1430 0.4480 0.7432
H16 H 1.0518 0.3357 0.7188
H17 H 1.0063 0.4525 0.7171
H18 H 1.2442 0.4623 0.6193
H19 H 1.1783 0.4775 0.5081
H20 H 1.2138 0.3592 0.5214
H21 H 0.6969 0.0342 0.4124
H22 H 0.3337 -0.0628 0.1790
H23 H 0.3644 0.0674 0.0829
H24 H 0.4966 0.1005 0.0700
H25 H 0.4389 0.1816 0.1504
H26 H 0.5214 -0.1341 0.5167
H27 H 0.6714 -0.1091 0.5010
H28 H 0.5763 -0.2294 0.4215
C29 C 0.4622(6) 0.4801(7) 0.4619(7)
C30 C 0.3704(7) 0.4317(7) 0.3696(6)
C31 C 0.3088(7) 0.5043(7) 0.3146(7)
C32 C 0.2156(7) 0.4606(8) 0.2310(7)
C33 C 0.1757(7) 0.3417(8) 0.1989(7)
C34 C 0.2418(7) 0.2706(7) 0.2507(7)
C35 C 0.3367(7) 0.3152(7) 0.3354(7)
N7 N 0.0805(6) 0.2988(7) 0.1182(6)
C36 C 0.0235(8) 0.3743(9) 0.0580(8)
C37 C 0.0474(8) 0.1781(9) 0.0802(9)
H29 H 0.3340 0.5848 0.3363
H30 H 0.1755 0.5108 0.1935
H31 H 0.2193 0.1900 0.2274
H32 H 0.3799 0.2648 0.3699
H33 H -0.0177 0.4322 0.1111
H34 H -0.0440 0.3244 -0.0072
H35 H 0.0897 0.4226 0.0251
H36 H 0.1159 0.1443 0.0396
H37 H -0.0365 0.1611 0.0244
H38 H 0.0377 0.1377 0.1480
C29A C 0.5378(6) 0.5199(7) 0.5381(7)
C30A C 0.6296(7) 0.5683(7) 0.6304(6)
C31A C 0.6912(7) 0.4957(7) 0.6854(7)
C32A C 0.7844(7) 0.5394(8) 0.7690(7)
C33A C 0.8243(7) 0.6583(8) 0.8011(7)
C34A C 0.7582(7) 0.7294(7) 0.7493(7)
C35A C 0.6633(7) 0.6848(7) 0.6646(7)
N7A N 0.9195(6) 0.7012(7) 0.8818(6)
C36A C 0.9765(8) 0.6257(9) 0.9420(8)
C37A C 0.9526(8) 0.8219(9) 0.9198(9)
H29A H 0.6660 0.4152 0.6637
H30A H 0.8245 0.4892 0.8065
H31A H 0.7807 0.8100 0.7726
H32A H 0.6201 0.7352 0.6301
H33A H 1.0177 0.5678 0.8889
H34A H 1.0440 0.6756 1.0072
H35A H 0.9103 0.5774 0.9749
H36A H 0.8841 0.8557 0.9604
H37A H 1.0365 0.8389 0.9756
H38A H 0.9623 0.8623 0.8520
C38 C 0.097(2) 0.106(2) 0.584(2)
O1 O 0.139(4) 0.156(3) 0.690(3)
H39 H 0.1451 0.1307 0.5333
H40 H 0.0167 0.1247 0.5675
H41 H 0.0927 0.0236 0.5776
H42 H 0.1752 0.2208 0.6896
C39? C 0.050(5) 0.041(5) 0.466(4)
H43? H 0.6580 -0.1810 0.4428
H44? H 0.5080 -0.2060 0.4584
H45? H 0.6031 -0.0857 0.5380
H46? H -0.0155 -0.0180 0.4676
H47? H 0.0188 0.1126 0.4626
H48? H 0.1095 0.0517 0.5314
H49? H 0.1298 0.0621 0.3522
O2? O 0.101(3) 0.004(3) 0.372(3)
loop_
_geom_bond_atom_site_label_1
_geom_bond_atom_site_label_2
_geom_bond_site_symmetry_1
_geom_bond_site_symmetry_2
N1 C1 1_555 1_555
N2 C1 1_555 1_555
N3 C7 1_555 1_555
N4 C15 1_555 1_555
N5 C23 1_555 1_555
N6 C28 1_555 1_555
C2 N1 1_555 1_555
C3 C2 1_555 1_555
C4 C2 1_555 1_555
C5 C4 1_555 1_555
C6 C5 1_555 1_555
C7 C6 1_555 1_555
C8 C7 1_555 1_555
C9 C4 1_555 1_555
C10 N3 1_555 1_555
C11 N3 1_555 1_555
C12 C3 1_555 1_555
C13 C12 1_555 1_555
C14 C13 1_555 1_555
C15 C14 1_555 1_555
C16 C15 1_555 1_555
C17 C12 1_555 1_555
C18 N4 1_555 1_555
C19 N4 1_555 1_555
C20 C3 1_555 1_555
C21 C20 1_555 1_555
C22 C21 1_555 1_555
C23 C22 1_555 1_555
C24 C23 1_555 1_555
C25 C20 1_555 1_555
C26 C25 1_555 1_555
C27 C22 1_555 1_555
C28 N5 1_555 1_555
C29 C30 1_555 1_555
C30 C31 1_555 1_555
C31 C32 1_555 1_555
C32 C33 1_555 1_555
C33 C34 1_555 1_555
C34 C35 1_555 1_555
C35 C30 1_555 1_555
N7 C33 1_555 1_555
C36 N7 1_555 1_555
C37 N7 1_555 1_555
C38 O1 1_555 1_555
O1 H42 1_555 1_555
H1 C5 1_555 1_555
H2 C6 1_555 1_555
H3 C8 1_555 1_555
H4 C9 1_555 1_555
H5 C10 1_555 1_555
H6 C10 1_555 1_555
H7 C10 1_555 1_555
H8 C11 1_555 1_555
H9 C11 1_555 1_555
H10 C11 1_555 1_555
H11 C13 1_555 1_555
H12 C14 1_555 1_555
H13 C16 1_555 1_555
H14 C17 1_555 1_555
H15 C18 1_555 1_555
H16 C18 1_555 1_555
H17 C18 1_555 1_555
H18 C19 1_555 1_555
H19 C19 1_555 1_555
H20 C19 1_555 1_555
H21 C21 1_555 1_555
H22 C24 1_555 1_555
H23 C26 1_555 1_555
H24 C26 1_555 1_555
H25 C26 1_555 1_555
H26 C27 1_555 1_555
H27 C27 1_555 1_555
H28 C27 1_555 1_555
H29 C31 1_555 1_555
H30 C32 1_555 1_555
H31 C34 1_555 1_555
H32 C35 1_555 1_555
H33 C36 1_555 1_555
H34 C36 1_555 1_555
H35 C36 1_555 1_555
H36 C37 1_555 1_555
H37 C37 1_555 1_555
H38 C37 1_555 1_555
H39 C38 1_555 1_555
H40 C38 1_555 1_555
H41 C38 1_555 1_555
C29A C29 1_555 1_555
C30A C29A 1_555 1_555
C31A C30A 1_555 1_555
C32A C31A 1_555 1_555
C33A C32A 1_555 1_555
C34A C33A 1_555 1_555
C35A C30A 1_555 1_555
N7A C33A 1_555 1_555
C36A N7A 1_555 1_555
C37A N7A 1_555 1_555
H29A C31A 1_555 1_555
H30A C32A 1_555 1_555
H31A C34A 1_555 1_555
H32A C35A 1_555 1_555
H33A C36A 1_555 1_555
H34A C36A 1_555 1_555
H35A C36A 1_555 1_555
H36A C37A 1_555 1_555
H37A C37A 1_555 1_555
H38A C37A 1_555 1_555
C8 C9 1_555 1_555
C16 C17 1_555 1_555
C24 C25 1_555 1_555
C34A C35A 1_555 1_555

#END
