
#######################################################################
#
#                 Cambridge Crystallographic Data Centre
#                                CCDC 
#
#######################################################################
#
# If this CIF has been generated from an entry in the Cambridge 
# Structural Database, then it will include bibliographic, chemical, 
# crystal, experimental, refinement or atomic coordinate data resulting 
# from the CCDC's data processing and validation procedures.
#
#######################################################################

data_VAVMEN
_chemical_formula_moiety         'C11 H18 N1 O1 1+,0.5(C4 H4 O4 2-)'
_chemical_name_systematic        '(+-)-methylephedrinium hemikis(succinate)'
_symmetry_cell_setting           monoclinic
_symmetry_space_group_name_H-M   'P 21/c'
_symmetry_Int_Tables_number      14
_space_group_name_Hall           '-P 2ybc'
loop_
_symmetry_equiv_pos_site_id
_symmetry_equiv_pos_as_xyz
1 x,y,z
2 -x,1/2+y,1/2-z
3 -x,-y,-z
4 x,1/2-y,1/2+z
_cell_length_a                   16.0654(7)
_cell_length_b                   8.1278(3)
_cell_length_c                   9.7638(3)
_cell_angle_alpha                90
_cell_angle_beta                 92.226(3)
_cell_angle_gamma                90
_cell_volume                     1273.96
_exptl_crystal_colour            colorless
_exptl_crystal_description       needle
_cell_formula_units_Z            4
loop_
_atom_site_label
_atom_site_type_symbol
_atom_site_fract_x
_atom_site_fract_y
_atom_site_fract_z
O1 O 0.22508(9) 0.53642(17) 0.14409(14)
N1 N 0.15912(10) 0.52947(19) 0.43509(16)
C1 C 0.31461(12) 0.3067(2) 0.21702(19)
C2 C 0.32346(13) 0.1526(2) 0.2789(2)
H1 H 0.2827 0.1154 0.3397
C3 C 0.39095(14) 0.0535(3) 0.2527(2)
H2 H 0.3968 -0.0504 0.2967
C4 C 0.44989(14) 0.1048(3) 0.1630(2)
H3 H 0.4958 0.0357 0.1444
C5 C 0.44213(14) 0.2557(3) 0.1006(2)
H4 H 0.4828 0.2909 0.0389
C6 C 0.37492(13) 0.3573(3) 0.1273(2)
H5 H 0.3702 0.4617 0.0841
C7 C 0.23832(12) 0.4106(2) 0.24378(18)
H6 H 0.1886 0.3365 0.2395
C8 C 0.24500(12) 0.4861(2) 0.38785(19)
H7 H 0.2679 0.3991 0.4511
C9 C 0.30448(13) 0.6322(2) 0.3983(2)
H8 H 0.2873 0.7155 0.3304
H9 H 0.3611 0.5952 0.3809
H10 H 0.3032 0.6798 0.4905
C10 C 0.15572(13) 0.5325(2) 0.58719(19)
H11 H 0.1943 0.6162 0.6243
H12 H 0.1717 0.4244 0.6241
H13 H 0.0990 0.5589 0.6133
C11 C 0.12304(13) 0.6839(2) 0.3767(2)
H14 H 0.0636 0.6891 0.3954
H15 H 0.1301 0.6857 0.2775
H16 H 0.1517 0.7788 0.4189
H17 H 0.1164(13) 0.440(3) 0.402(2)
H18 H 0.1950(16) 0.487(3) 0.076(2)
O2 O 0.04333(8) 0.31117(16) 0.37138(14)
O3 O 0.13999(8) 0.13660(16) 0.45116(14)
C12 C 0.06605(12) 0.1714(2) 0.41749(19)
C13 C -0.00144(12) 0.0422(2) 0.43021(18)
H19 H 0.0048 -0.0418 0.3579
H20 H -0.0566 0.0949 0.4148
O2B O -0.04333(8) -0.31117(16) 0.62862(14)
O3B O -0.13999(8) -0.13660(16) 0.54884(14)
C12B C -0.06605(12) -0.1714(2) 0.58251(19)
C13B C 0.00144(12) -0.0422(2) 0.56979(18)
H19B H -0.0048 0.0418 0.6421
H20B H 0.0566 -0.0949 0.5852
loop_
_geom_bond_atom_site_label_1
_geom_bond_atom_site_label_2
_geom_bond_site_symmetry_1
_geom_bond_site_symmetry_2
O1 C7 1_555 1_555
N1 C8 1_555 1_555
C1 C2 1_555 1_555
C2 H1 1_555 1_555
C3 C2 1_555 1_555
H2 C3 1_555 1_555
C4 C3 1_555 1_555
H3 C4 1_555 1_555
C5 C4 1_555 1_555
H4 C5 1_555 1_555
C6 C1 1_555 1_555
H5 C6 1_555 1_555
C7 C1 1_555 1_555
H6 C7 1_555 1_555
C8 C7 1_555 1_555
H7 C8 1_555 1_555
C9 C8 1_555 1_555
H8 C9 1_555 1_555
H9 C9 1_555 1_555
H10 C9 1_555 1_555
C10 N1 1_555 1_555
H11 C10 1_555 1_555
H12 C10 1_555 1_555
H13 C10 1_555 1_555
C11 N1 1_555 1_555
H14 C11 1_555 1_555
H15 C11 1_555 1_555
H16 C11 1_555 1_555
H17 N1 1_555 1_555
H18 O1 1_555 1_555
O2 C12 1_555 1_555
O3 C12 1_555 1_555
C12 C13 1_555 1_555
C13 H19 1_555 1_555
H20 C13 1_555 1_555
O2B C12B 1_555 1_555
O3B C12B 1_555 1_555
C12B C13B 1_555 1_555
C13B C13 1_555 1_555
H19B C13B 1_555 1_555
H20B C13B 1_555 1_555
C5 C6 1_555 1_555

#END
