
#######################################################################
#
#                 Cambridge Crystallographic Data Centre
#                                CCDC 
#
#######################################################################
#
# If this CIF has been generated from an entry in the Cambridge 
# Structural Database, then it will include bibliographic, chemical, 
# crystal, experimental, refinement or atomic coordinate data resulting 
# from the CCDC's data processing and validation procedures.
#
#######################################################################

data_VAVMIQ
_chemical_formula_moiety         'C48 H54 S2 Si2'
_chemical_name_systematic        
([1]Benzothieno[3',2':6,7]anthra[2,3-b][1]benzothiene-7,15-diyldiethyne-2,1-diyl)bis(tri-isopropylsilane)
_symmetry_cell_setting           triclinic
_symmetry_space_group_name_H-M   'P -1'
_symmetry_Int_Tables_number      2
_space_group_name_Hall           '-P 1'
loop_
_symmetry_equiv_pos_site_id
_symmetry_equiv_pos_as_xyz
1 x,y,z
2 -x,-y,-z
_cell_length_a                   11.317(2)
_cell_length_b                   12.747(3)
_cell_length_c                   15.369(3)
_cell_angle_alpha                75.186(3)
_cell_angle_beta                 78.547(3)
_cell_angle_gamma                84.000(3)
_cell_volume                     2097.34
_exptl_crystal_colour            orange
_exptl_crystal_description       rod
_cell_formula_units_Z            2
_exptl_crystal_recrystallization_method dichloromethane
loop_
_atom_site_label
_atom_site_type_symbol
_atom_site_fract_x
_atom_site_fract_y
_atom_site_fract_z
S1 S 0.48067(7) 0.21058(6) -0.09349(5)
S2 S 0.16962(7) 0.01877(7) 0.61555(5)
Si1 Si 0.01179(7) -0.31380(6) 0.18626(5)
Si2 Si 0.53609(7) 0.36648(7) 0.31182(6)
C1 C 0.4339(2) 0.1230(2) -0.14986(19)
C2 C 0.4644(3) 0.1273(2) -0.24288(19)
H1 H 0.5144 0.1817 -0.2828
C3 C 0.4205(3) 0.0513(2) -0.2761(2)
H2 H 0.4399 0.0539 -0.3396
C4 C 0.3482(3) -0.0292(2) -0.2178(2)
H3 H 0.3195 -0.0815 -0.2417
C5 C 0.3182(2) -0.0331(2) -0.12573(19)
H4 H 0.2682 -0.0877 -0.0862
C6 C 0.3607(2) 0.0424(2) -0.09091(19)
C7 C 0.3425(2) 0.0518(2) 0.00350(18)
C8 C 0.2768(2) -0.0124(2) 0.07965(18)
H5 H 0.2345 -0.0699 0.0736
C9 C 0.2716(2) 0.0066(2) 0.16710(18)
C10 C 0.2050(2) -0.0596(2) 0.24637(18)
C11 C 0.2019(2) -0.0422(2) 0.33402(18)
C12 C 0.1351(2) -0.1078(2) 0.41398(18)
H6 H 0.0943 -0.1670 0.4093
C13 C 0.1290(2) -0.0864(2) 0.49774(18)
C14 C 0.0650(2) -0.1417(2) 0.58696(18)
C15 C -0.0063(3) -0.2307(2) 0.6094(2)
H7 H -0.0177 -0.2643 0.5634
C16 C -0.0605(3) -0.2698(3) 0.6997(2)
H8 H -0.1088 -0.3308 0.7153
C17 C -0.0451(3) -0.2211(3) 0.7678(2)
H9 H -0.0827 -0.2493 0.8293
C18 C 0.0243(3) -0.1321(2) 0.7465(2)
H10 H 0.0343 -0.0981 0.7927
C19 C 0.0789(3) -0.0933(2) 0.65642(19)
C20 C 0.1920(2) 0.0026(2) 0.50420(18)
C21 C 0.2592(2) 0.0655(2) 0.42930(19)
H11 H 0.3017 0.1227 0.4357
C22 C 0.2659(2) 0.0456(2) 0.34190(18)
C23 C 0.3318(2) 0.1116(2) 0.26299(19)
C24 C 0.3355(2) 0.0943(2) 0.17539(18)
C25 C 0.4009(2) 0.1607(2) 0.09503(18)
H12 H 0.4424 0.2198 0.0992
C26 C 0.4040(2) 0.1396(2) 0.01257(18)
C27 C 0.1381(2) -0.1436(2) 0.23555(18)
C28 C 0.0830(3) -0.2117(2) 0.22135(19)
C29 C 0.1392(3) -0.4091(2) 0.1493(2)
H13 H 0.1678 -0.4510 0.2065
C30 C 0.2488(3) -0.3517(3) 0.0875(3)
H14 H 0.2715 -0.2972 0.1151
H15 H 0.2286 -0.3159 0.0274
H16 H 0.3166 -0.4051 0.0803
C31 C 0.1032(3) -0.4935(2) 0.1063(2)
H17 H 0.0328 -0.5300 0.1459
H18 H 0.1706 -0.5473 0.0991
H19 H 0.0829 -0.4576 0.0463
C32 C -0.0757(3) -0.2387(2) 0.0949(2)
H20 H -0.1370 -0.1892 0.1233
C33 C 0.0005(3) -0.1659(3) 0.0116(2)
H21 H 0.0457 -0.1183 0.0323
H22 H -0.0527 -0.1217 -0.0285
H23 H 0.0571 -0.2115 -0.0221
C34 C -0.1459(3) -0.3128(3) 0.0623(3)
H24 H -0.1943 -0.3595 0.1153
H25 H -0.0892 -0.3580 0.0284
H26 H -0.1993 -0.2684 0.0224
C35 C -0.0940(3) -0.3883(2) 0.2889(2)
H27 H -0.1238 -0.4496 0.2712
C36 C -0.0308(3) -0.4378(3) 0.3700(2)
H28 H 0.0396 -0.4837 0.3511
H29 H -0.0869 -0.4818 0.4195
H30 H -0.0046 -0.3795 0.3916
C37 C -0.2041(3) -0.3164(3) 0.3163(3)
H31 H -0.2435 -0.2853 0.2633
H32 H -0.1788 -0.2576 0.3377
H33 H -0.2610 -0.3600 0.3654
C38 C 0.3979(2) 0.1969(2) 0.27262(18)
C39 C 0.4547(3) 0.2654(2) 0.28450(19)
C40 C 0.6425(3) 0.4309(2) 0.2052(2)
H34 H 0.6744 0.4948 0.2178
C41 C 0.5790(3) 0.4746(3) 0.1231(2)
H35 H 0.5095 0.5230 0.1393
H36 H 0.5514 0.4138 0.1057
H37 H 0.6355 0.5151 0.0716
C42 C 0.7504(3) 0.3557(3) 0.1821(2)
H38 H 0.7898 0.3285 0.2355
H39 H 0.8077 0.3955 0.1309
H40 H 0.7235 0.2943 0.1650
C43 C 0.6233(3) 0.2905(3) 0.4030(2)
H41 H 0.6828 0.2397 0.3746
C44 C 0.5481(3) 0.2199(3) 0.4872(2)
H42 H 0.5011 0.1723 0.4678
H43 H 0.4930 0.2665 0.5208
H44 H 0.6018 0.1755 0.5268
C45 C 0.6981(3) 0.3664(3) 0.4311(2)
H45 H 0.7454 0.4110 0.3763
H46 H 0.7527 0.3228 0.4704
H47 H 0.6437 0.4136 0.4646
C46 C 0.4288(4) 0.4620(4) 0.3696(4)
H48 H 0.4535 0.4597 0.4290
C47 C 0.2932(6) 0.4331(6) 0.3902(6)
H49 H 0.2854 0.3587 0.4279
H50 H 0.2655 0.4390 0.3326
H51 H 0.2440 0.4836 0.4232
C48 C 0.4262(7) 0.5842(5) 0.3129(5)
H52 H 0.5091 0.6069 0.2902
H53 H 0.3827 0.6305 0.3523
H54 H 0.3852 0.5911 0.2611
C49? C 0.4075(6) 0.4767(5) 0.3259(5)
C50? C 0.3198(7) 0.4290(6) 0.4174(5)
C51? C 0.4646(6) 0.5759(5) 0.3417(5)
H55? H 0.3650 0.4980 0.2723
H56? H 0.2846 0.3644 0.4121
H57? H 0.2551 0.4838 0.4291
H58? H 0.3648 0.4092 0.4681
H59? H 0.5296 0.6014 0.2902
H60? H 0.4973 0.5534 0.3985
H61? H 0.4024 0.6348 0.3462
loop_
_geom_bond_atom_site_label_1
_geom_bond_atom_site_label_2
_geom_bond_site_symmetry_1
_geom_bond_site_symmetry_2
S1 C1 1_555 1_555
S2 C19 1_555 1_555
Si1 C28 1_555 1_555
Si2 C39 1_555 1_555
C1 C2 1_555 1_555
C2 H1 1_555 1_555
C3 C2 1_555 1_555
H2 C3 1_555 1_555
C4 C3 1_555 1_555
H3 C4 1_555 1_555
C5 C4 1_555 1_555
H4 C5 1_555 1_555
C6 C1 1_555 1_555
C7 C6 1_555 1_555
C8 C7 1_555 1_555
H5 C8 1_555 1_555
C9 C8 1_555 1_555
C10 C9 1_555 1_555
C11 C10 1_555 1_555
C12 C11 1_555 1_555
H6 C12 1_555 1_555
C13 C12 1_555 1_555
C14 C13 1_555 1_555
C15 C14 1_555 1_555
H7 C15 1_555 1_555
C16 C15 1_555 1_555
H8 C16 1_555 1_555
C17 C16 1_555 1_555
H9 C17 1_555 1_555
C18 C17 1_555 1_555
H10 C18 1_555 1_555
C19 C14 1_555 1_555
C20 S2 1_555 1_555
C21 C20 1_555 1_555
H11 C21 1_555 1_555
C22 C11 1_555 1_555
C23 C22 1_555 1_555
C24 C9 1_555 1_555
C25 C24 1_555 1_555
H12 C25 1_555 1_555
C26 S1 1_555 1_555
C27 C10 1_555 1_555
C28 C27 1_555 1_555
C29 Si1 1_555 1_555
H13 C29 1_555 1_555
C30 C29 1_555 1_555
H14 C30 1_555 1_555
H15 C30 1_555 1_555
H16 C30 1_555 1_555
C31 C29 1_555 1_555
H17 C31 1_555 1_555
H18 C31 1_555 1_555
H19 C31 1_555 1_555
C32 Si1 1_555 1_555
H20 C32 1_555 1_555
C33 C32 1_555 1_555
H21 C33 1_555 1_555
H22 C33 1_555 1_555
H23 C33 1_555 1_555
C34 C32 1_555 1_555
H24 C34 1_555 1_555
H25 C34 1_555 1_555
H26 C34 1_555 1_555
C35 Si1 1_555 1_555
H27 C35 1_555 1_555
C36 C35 1_555 1_555
H28 C36 1_555 1_555
H29 C36 1_555 1_555
H30 C36 1_555 1_555
C37 C35 1_555 1_555
H31 C37 1_555 1_555
H32 C37 1_555 1_555
H33 C37 1_555 1_555
C38 C23 1_555 1_555
C39 C38 1_555 1_555
C40 Si2 1_555 1_555
H34 C40 1_555 1_555
C41 C40 1_555 1_555
H35 C41 1_555 1_555
H36 C41 1_555 1_555
H37 C41 1_555 1_555
C42 C40 1_555 1_555
H38 C42 1_555 1_555
H39 C42 1_555 1_555
H40 C42 1_555 1_555
C43 Si2 1_555 1_555
H41 C43 1_555 1_555
C44 C43 1_555 1_555
H42 C44 1_555 1_555
H43 C44 1_555 1_555
H44 C44 1_555 1_555
C45 C43 1_555 1_555
H45 C45 1_555 1_555
H46 C45 1_555 1_555
H47 C45 1_555 1_555
C46 Si2 1_555 1_555
H48 C46 1_555 1_555
C47 C46 1_555 1_555
H49 C47 1_555 1_555
H50 C47 1_555 1_555
H51 C47 1_555 1_555
C48 C46 1_555 1_555
H52 C48 1_555 1_555
H53 C48 1_555 1_555
H54 C48 1_555 1_555
C5 C6 1_555 1_555
C7 C26 1_555 1_555
C13 C20 1_555 1_555
C18 C19 1_555 1_555
C21 C22 1_555 1_555
C23 C24 1_555 1_555
C25 C26 1_555 1_555

#END
