
#######################################################################
#
#                 Cambridge Crystallographic Data Centre
#                                CCDC 
#
#######################################################################
#
# If this CIF has been generated from an entry in the Cambridge 
# Structural Database, then it will include bibliographic, chemical, 
# crystal, experimental, refinement or atomic coordinate data resulting 
# from the CCDC's data processing and validation procedures.
#
#######################################################################

data_VAVMIR
_chemical_formula_moiety         'C11 H18 N1 O1 1+,C4 H5 O6 1-'
_chemical_name_systematic        '(+-)-methylephedrinium hydrogen rac-tartrate'
_symmetry_cell_setting           orthorhombic
_symmetry_space_group_name_H-M   'P b c 21'
_symmetry_Int_Tables_number      29
_space_group_name_Hall           'P 2c -2b'
loop_
_symmetry_equiv_pos_site_id
_symmetry_equiv_pos_as_xyz
1 x,y,z
2 -x,-y,1/2+z
3 -x,1/2+y,z
4 x,1/2-y,1/2+z
_cell_length_a                   7.9133(5)
_cell_length_b                   10.1443(5)
_cell_length_c                   40.028(4)
_cell_angle_alpha                90
_cell_angle_beta                 90
_cell_angle_gamma                90
_cell_volume                     3213.24
_exptl_crystal_colour            colorless
_cell_formula_units_Z            8
loop_
_atom_site_label
_atom_site_type_symbol
_atom_site_fract_x
_atom_site_fract_y
_atom_site_fract_z
O1 O 0.2857(7) 0.0297(5) 0.53454(14)
H1 H 0.2544 -0.0328 0.5222
N1 N 0.2517(8) 0.3099(6) 0.50135(16)
H2 H 0.1481 0.2967 0.4909
C1 C 0.0433(10) 0.1023(7) 0.56801(19)
C2 C 0.0897(10) 0.0102(8) 0.5921(2)
H3 H 0.1931 -0.0367 0.5901
C3 C -0.0169(12) -0.0127(9) 0.6194(2)
H4 H 0.0162 -0.0741 0.6361
C4 C -0.1673(12) 0.0515(9) 0.6224(2)
H5 H -0.2396 0.0341 0.6409
C5 C -0.2135(11) 0.1424(10) 0.5984(3)
H6 H -0.3172 0.1886 0.6007
C6 C -0.1113(10) 0.1675(9) 0.5709(2)
H7 H -0.1461 0.2285 0.5543
C7 C 0.1542(9) 0.1242(7) 0.5369(2)
H8 H 0.0808 0.1155 0.5167
C8 C 0.2287(9) 0.2646(7) 0.5373(2)
H9 H 0.1425 0.3237 0.5477
C9 C 0.3879(11) 0.2779(8) 0.5573(2)
H10 H 0.4249 0.3701 0.5571
H11 H 0.4763 0.2223 0.5474
H12 H 0.3667 0.2498 0.5803
C10 C 0.3782(10) 0.2350(8) 0.4814(2)
H13 H 0.4901 0.2446 0.4916
H14 H 0.3809 0.2696 0.4585
H15 H 0.3468 0.1416 0.4809
C11 C 0.2874(11) 0.4536(7) 0.4987(2)
H16 H 0.2763 0.4815 0.4754
H17 H 0.4027 0.4712 0.5065
H18 H 0.2069 0.5026 0.5126
O2 O 0.7776(6) 0.2591(5) 0.74613(14)
H19 H 0.7371 0.3270 0.7551
N2 N 0.7672(7) -0.0264(6) 0.77673(15)
H20 H 0.6661 -0.0194 0.7885
C12 C 0.5405(9) 0.1844(7) 0.71223(19)
C13 C 0.5862(9) 0.2739(7) 0.6878(2)
H21 H 0.6903 0.3199 0.6899
C14 C 0.4832(12) 0.2983(8) 0.6603(2)
H22 H 0.5155 0.3609 0.6438
C15 C 0.3311(11) 0.2287(9) 0.6573(2)
H23 H 0.2592 0.2435 0.6387
C16 C 0.2861(12) 0.1383(8) 0.6816(2)
H24 H 0.1838 0.0902 0.6793
C17 C 0.3881(10) 0.1170(8) 0.7092(2)
H25 H 0.3540 0.0565 0.7260
C18 C 0.6498(9) 0.1620(7) 0.7432(2)
H26 H 0.5761 0.1658 0.7634
C19 C 0.7321(9) 0.0240(7) 0.7412(2)
H27 H 0.6471 -0.0368 0.7310
C20 C 0.8869(10) 0.0204(9) 0.7195(2)
H28 H 0.9272 -0.0707 0.7176
H29 H 0.9755 0.0752 0.7294
H30 H 0.8588 0.0542 0.6972
C21 C 0.8948(10) 0.0487(8) 0.7959(2)
H31 H 1.0038 0.0444 0.7843
H32 H 0.9061 0.0106 0.8183
H33 H 0.8589 0.1409 0.7978
C22 C 0.8136(10) -0.1700(7) 0.7766(2)
H34 H 0.8219 -0.2019 0.7997
H35 H 0.9226 -0.1816 0.7654
H36 H 0.7265 -0.2202 0.7647
O3 O 0.2035(6) 0.8660(5) 0.81746(14)
O4 O 0.4050(7) 0.9406(5) 0.78453(13)
O5 O 0.5634(6) 1.0725(5) 0.83324(13)
H37 H 0.519(12) 1.150(5) 0.838(2)
O6 O 0.6029(7) 0.7995(5) 0.84516(14)
H38 H 0.6911 0.7798 0.8557
O7 O 0.7406(6) 0.8941(5) 0.90013(14)
O8 O 0.5226(7) 1.0256(6) 0.91164(14)
H39 H 0.584(11) 1.071(9) 0.926(2)
C23 C 0.3401(9) 0.9293(6) 0.81300(17)
C24 C 0.4274(9) 0.9905(7) 0.84347(18)
H40 H 0.3440 1.0432 0.8566
C25 C 0.5001(9) 0.8812(7) 0.86515(18)
H41 H 0.4046 0.8273 0.8741
C26 C 0.6028(9) 0.9340(6) 0.89446(18)
O9 O -0.0857(6) 0.6875(5) 0.85892(14)
O10 O 0.1054(7) 0.8377(5) 0.87511(14)
H42 H 0.150(12) 0.867(10) 0.8564(14)
O11 O -0.0810(9) 0.5761(6) 0.92145(16)
H43 H -0.096(14) 0.533(11) 0.9026(17)
O12 O -0.0298(8) 0.8176(5) 0.95509(14)
H44 H -0.0840 0.8547 0.9397
O13 O 0.3058(7) 0.5875(5) 0.96217(13)
O14 O 0.1049(7) 0.6543(5) 0.99685(14)
C27 C 0.0142(9) 0.7321(7) 0.87953(18)
C28 C 0.0508(10) 0.6599(7) 0.9112(2)
H45 H 0.1493 0.6013 0.9062
C29 C 0.1030(9) 0.7441(7) 0.94135(18)
H46 H 0.1934 0.8066 0.9340
C30 C 0.1760(9) 0.6547(7) 0.96874(19)
loop_
_geom_bond_atom_site_label_1
_geom_bond_atom_site_label_2
_geom_bond_site_symmetry_1
_geom_bond_site_symmetry_2
O1 H1 1_555 1_555
N1 H2 1_555 1_555
C1 C2 1_555 1_555
C2 H3 1_555 1_555
C3 C2 1_555 1_555
H4 C3 1_555 1_555
C4 C3 1_555 1_555
H5 C4 1_555 1_555
C5 C4 1_555 1_555
H6 C5 1_555 1_555
C6 C1 1_555 1_555
H7 C6 1_555 1_555
C7 O1 1_555 1_555
H8 C7 1_555 1_555
C8 N1 1_555 1_555
H9 C8 1_555 1_555
C9 C8 1_555 1_555
H10 C9 1_555 1_555
H11 C9 1_555 1_555
H12 C9 1_555 1_555
C10 N1 1_555 1_555
H13 C10 1_555 1_555
H14 C10 1_555 1_555
H15 C10 1_555 1_555
C11 N1 1_555 1_555
H16 C11 1_555 1_555
H17 C11 1_555 1_555
H18 C11 1_555 1_555
O2 H19 1_555 1_555
N2 H20 1_555 1_555
C12 C13 1_555 1_555
C13 H21 1_555 1_555
C14 C13 1_555 1_555
H22 C14 1_555 1_555
C15 C14 1_555 1_555
H23 C15 1_555 1_555
C16 C15 1_555 1_555
H24 C16 1_555 1_555
C17 C12 1_555 1_555
H25 C17 1_555 1_555
C18 O2 1_555 1_555
H26 C18 1_555 1_555
C19 N2 1_555 1_555
H27 C19 1_555 1_555
C20 C19 1_555 1_555
H28 C20 1_555 1_555
H29 C20 1_555 1_555
H30 C20 1_555 1_555
C21 N2 1_555 1_555
H31 C21 1_555 1_555
H32 C21 1_555 1_555
H33 C21 1_555 1_555
C22 N2 1_555 1_555
H34 C22 1_555 1_555
H35 C22 1_555 1_555
H36 C22 1_555 1_555
O3 C23 1_555 1_555
O4 C23 1_555 1_555
O5 H37 1_555 1_555
O6 H38 1_555 1_555
O7 C26 1_555 1_555
O8 H39 1_555 1_555
C23 C24 1_555 1_555
C24 O5 1_555 1_555
H40 C24 1_555 1_555
C25 O6 1_555 1_555
H41 C25 1_555 1_555
C26 O8 1_555 1_555
O9 C27 1_555 1_555
O10 H42 1_555 1_555
O11 H43 1_555 1_555
O12 H44 1_555 1_555
O13 C30 1_555 1_555
O14 C30 1_555 1_555
C27 O10 1_555 1_555
C28 O11 1_555 1_555
H45 C28 1_555 1_555
C29 O12 1_555 1_555
H46 C29 1_555 1_555
C30 C29 1_555 1_555
C1 C7 1_555 1_555
C5 C6 1_555 1_555
C7 C8 1_555 1_555
C12 C18 1_555 1_555
C16 C17 1_555 1_555
C18 C19 1_555 1_555
C24 C25 1_555 1_555
C25 C26 1_555 1_555
C27 C28 1_555 1_555
C28 C29 1_555 1_555

#END
