
#######################################################################
#
#                 Cambridge Crystallographic Data Centre
#                                CCDC 
#
#######################################################################
#
# If this CIF has been generated from an entry in the Cambridge 
# Structural Database, then it will include bibliographic, chemical, 
# crystal, experimental, refinement or atomic coordinate data resulting 
# from the CCDC's data processing and validation procedures.
#
#######################################################################

data_VAVMOW
_chemical_formula_moiety         'C54 H66 S2 Si2'
_chemical_name_systematic        
([1]Benzothieno[3',2':6,7]anthra[2,3-b][1]benzothiene-7,15-diyldiethyne-2,1-diyl)bis(tri-isobutylsilane)
_symmetry_cell_setting           triclinic
_symmetry_space_group_name_H-M   'P -1'
_symmetry_Int_Tables_number      2
_space_group_name_Hall           '-P 1'
loop_
_symmetry_equiv_pos_site_id
_symmetry_equiv_pos_as_xyz
1 x,y,z
2 -x,-y,-z
_cell_length_a                   11.1453(11)
_cell_length_b                   16.4944(16)
_cell_length_c                   26.181(3)
_cell_angle_alpha                88.4584(13)
_cell_angle_beta                 85.4059(14)
_cell_angle_gamma                89.7663(13)
_cell_volume                     4795.78
_exptl_crystal_colour            pink
_exptl_crystal_description       rod
_cell_formula_units_Z            4
_exptl_crystal_recrystallization_method chloroform
loop_
_atom_site_label
_atom_site_type_symbol
_atom_site_fract_x
_atom_site_fract_y
_atom_site_fract_z
S1 S -0.20777(7) -0.00578(5) 0.08152(3)
S2 S 0.64388(8) 0.09810(5) 0.21101(3)
Si1 Si 0.11581(8) -0.12441(6) 0.28027(3)
Si2 Si 0.37469(8) 0.31032(5) -0.07661(3)
C1 C 0.2211(3) 0.03976(17) 0.14500(11)
C2 C 0.1355(3) 0.05349(17) 0.10852(11)
C3 C 0.0190(3) 0.01778(18) 0.11517(12)
H1 H -0.0027 -0.0159 0.1444
C4 C -0.0610(3) 0.03214(18) 0.07939(12)
C5 C -0.2341(3) 0.04646(19) 0.02449(12)
C6 C -0.3409(3) 0.0467(2) 0.00099(14)
H2 H -0.4085 0.0170 0.0158
C7 C -0.3479(3) 0.0905(2) -0.04422(14)
H3 H -0.4207 0.0909 -0.0608
C8 C -0.2492(3) 0.1342(2) -0.06572(14)
H4 H -0.2555 0.1643 -0.0968
C9 C -0.1420(3) 0.1345(2) -0.04254(12)
H5 H -0.0748 0.1644 -0.0575
C10 C -0.1343(3) 0.09014(18) 0.00329(12)
C11 C -0.0325(3) 0.08305(18) 0.03499(11)
C12 C 0.0794(3) 0.11729(17) 0.02770(11)
H6 H 0.0994 0.1503 -0.0020
C13 C 0.1659(3) 0.10410(17) 0.06388(11)
C14 C 0.2822(3) 0.13937(17) 0.05663(11)
C15 C 0.3669(3) 0.12701(17) 0.09358(11)
C16 C 0.4828(3) 0.16334(18) 0.08767(11)
H7 H 0.5047 0.1959 0.0579
C17 C 0.5632(3) 0.15227(18) 0.12401(11)
C18 C 0.6851(3) 0.18366(18) 0.12481(12)
C19 C 0.7510(3) 0.2304(2) 0.08771(13)
H8 H 0.7160 0.2473 0.0573
C20 C 0.8676(3) 0.2521(2) 0.09519(14)
H9 H 0.9131 0.2838 0.0698
C21 C 0.9188(3) 0.2278(2) 0.13988(14)
H10 H 0.9990 0.2435 0.1447
C22 C 0.8557(3) 0.1816(2) 0.17711(14)
H11 H 0.8914 0.1650 0.2075
C23 C 0.7385(3) 0.15952(19) 0.16948(12)
C24 C 0.5298(3) 0.10299(18) 0.16872(11)
C25 C 0.4209(3) 0.06571(18) 0.17578(11)
H12 H 0.4020 0.0323 0.2054
C26 C 0.3354(3) 0.07691(17) 0.13864(11)
C27 C 0.1902(3) -0.01216(19) 0.18887(12)
C28 C 0.1635(3) -0.0566(2) 0.22520(12)
C29 C 0.1666(4) -0.2295(2) 0.26455(14)
H13 H 0.2470 -0.2376 0.2775
H14 H 0.1110 -0.2678 0.2841
C30 C 0.1753(4) -0.2537(2) 0.20847(16)
H15 H 0.2297 -0.2139 0.1887
C31 C 0.0547(5) -0.2502(4) 0.18560(18)
H16 H 0.0647 -0.2668 0.1499
H17 H 0.0233 -0.1946 0.1870
H18 H -0.0019 -0.2868 0.2052
C32 C 0.2323(6) -0.3380(3) 0.2022(2)
H19 H 0.2360 -0.3524 0.1660
H20 H 0.1835 -0.3779 0.2228
H21 H 0.3139 -0.3374 0.2136
C33 C 0.1829(3) -0.0901(3) 0.33905(13)
H22 H 0.1767 -0.0302 0.3394
H23 H 0.1318 -0.1113 0.3691
C34 C 0.3139(3) -0.1129(3) 0.34725(14)
H24 H 0.3198 -0.1734 0.3474
C35 C 0.4017(4) -0.0803(3) 0.30444(17)
H25 H 0.4838 -0.0964 0.3113
H26 H 0.3963 -0.0210 0.3026
H27 H 0.3819 -0.1024 0.2718
C36 C 0.3475(5) -0.0851(4) 0.39890(18)
H28 H 0.4313 -0.1001 0.4034
H29 H 0.2945 -0.1111 0.4261
H30 H 0.3386 -0.0261 0.4005
C37 C -0.0523(3) -0.1192(2) 0.29300(14)
H31 H -0.0880 -0.1293 0.2603
H32 H -0.0771 -0.1647 0.3169
C38 C -0.1093(4) -0.0422(3) 0.31483(17)
H33 H -0.0720 -0.0327 0.3476
C39 C -0.2442(4) -0.0538(3) 0.3289(2)
H34 H -0.2787 -0.0035 0.3427
H35 H -0.2563 -0.0978 0.3547
H36 H -0.2838 -0.0676 0.2982
C40 C -0.0882(4) 0.0311(3) 0.2829(2)
H37 H -0.0016 0.0380 0.2744
H38 H -0.1202 0.0782 0.3016
H39 H -0.1288 0.0263 0.2513
C41 C 0.3136(3) 0.18956(18) 0.01190(11)
C42 C 0.3390(3) 0.23385(19) -0.02453(11)
C43 C 0.2810(3) 0.4033(2) -0.06358(14)
H40 H 0.2807 0.4139 -0.0265
H41 H 0.3225 0.4496 -0.0822
C44 C 0.1504(4) 0.4042(3) -0.07724(16)
H42 H 0.1507 0.3973 -0.1151
C45 C 0.0925(5) 0.4856(3) -0.06479(19)
H43 H 0.0089 0.4856 -0.0739
H44 H 0.1371 0.5288 -0.0844
H45 H 0.0940 0.4950 -0.0280
C46 C 0.0761(4) 0.3359(3) -0.05086(19)
H46 H -0.0065 0.3392 -0.0611
H47 H 0.0754 0.3408 -0.0136
H48 H 0.1115 0.2836 -0.0609
C47 C 0.3367(3) 0.2668(2) -0.13841(13)
H49 H 0.2483 0.2704 -0.1398
H50 H 0.3733 0.3021 -0.1666
C48 C 0.3743(4) 0.1793(2) -0.14991(13)
H51 H 0.3551 0.1449 -0.1183
C49 C 0.3028(5) 0.1475(3) -0.19238(18)
H52 H 0.3270 0.0916 -0.1996
H53 H 0.3188 0.1816 -0.2234
H54 H 0.2167 0.1491 -0.1815
C50 C 0.5063(5) 0.1726(4) -0.1648(2)
H55 H 0.5269 0.1160 -0.1719
H56 H 0.5515 0.1910 -0.1367
H57 H 0.5269 0.2065 -0.1955
C51 C 0.5379(3) 0.3383(2) -0.07648(13)
H58 H 0.5837 0.3022 -0.1006
H59 H 0.5468 0.3941 -0.0911
C52 C 0.6002(4) 0.3357(3) -0.02682(19)
H60 H 0.6008 0.2775 -0.0150
C53 C 0.5375(4) 0.3818(2) 0.01641(15)
H61 H 0.4547 0.3621 0.0230
H62 H 0.5364 0.4397 0.0070
H63 H 0.5806 0.3736 0.0473
C54 C 0.7318(7) 0.3610(5) -0.0366(3)
H64 H 0.7693 0.3614 -0.0040
H65 H 0.7362 0.4153 -0.0527
H66 H 0.7744 0.3224 -0.0595
S3 S -0.16551(12) 0.58356(7) 0.27608(4)
S4 S 0.68988(10) 0.48038(6) 0.40471(5)
Si3 Si 0.3708(4) 0.35708(17) 0.21704(12)
Si4 Si 0.1203(5) 0.7966(3) 0.5587(2)
C55 C 0.2595(4) 0.5284(2) 0.34209(16)
C56 C 0.1452(4) 0.5656(2) 0.34705(14)
C57 C 0.0589(4) 0.5525(2) 0.31175(14)
H67 H 0.0766 0.5172 0.2840
C58 C -0.0500(4) 0.5904(2) 0.31723(13)
C59 C -0.2575(4) 0.6489(2) 0.31416(15)
C60 C -0.3740(5) 0.6723(3) 0.30534(18)
H68 H -0.4104 0.6551 0.2759
C61 C -0.4355(5) 0.7212(3) 0.34073(19)
H69 H -0.5154 0.7377 0.3354
C62 C -0.3836(4) 0.7467(2) 0.38362(18)
H70 H -0.4279 0.7800 0.4074
C63 C -0.2668(4) 0.7236(2) 0.39200(15)
H71 H -0.2309 0.7412 0.4215
C64 C -0.2026(4) 0.6746(2) 0.35712(14)
C65 C -0.0811(4) 0.6425(2) 0.35932(14)
C66 C 0.0015(3) 0.6553(2) 0.39409(14)
H72 H -0.0187 0.6899 0.4220
C67 C 0.1170(3) 0.6182(2) 0.38945(14)
C68 C 0.2035(3) 0.6321(2) 0.42493(14)
C69 C 0.3187(3) 0.5953(2) 0.41890(15)
C70 C 0.4074(3) 0.6094(2) 0.45392(15)
H73 H 0.3893 0.6442 0.4819
C71 C 0.5188(3) 0.5732(2) 0.44774(15)
C72 C 0.6212(3) 0.5801(2) 0.47871(15)
C73 C 0.6321(4) 0.6251(2) 0.52256(15)
H74 H 0.5659 0.6560 0.5365
C74 C 0.7391(4) 0.6244(3) 0.54548(17)
H75 H 0.7468 0.6556 0.5750
C75 C 0.8359(4) 0.5784(3) 0.52558(19)
H76 H 0.9090 0.5784 0.5419
C76 C 0.8279(4) 0.5324(3) 0.48236(18)
H77 H 0.8941 0.5008 0.4689
C77 C 0.7198(4) 0.5342(2) 0.45948(15)
C78 C 0.5440(4) 0.5208(2) 0.40524(16)
C79 C 0.4628(4) 0.5067(2) 0.37137(17)
H78 H 0.4829 0.4717 0.3437
C80 C 0.3470(4) 0.5436(2) 0.37640(15)
C81 C 0.2786(9) 0.4805(5) 0.2956(2)
C82 C 0.3099(10) 0.4343(5) 0.2622(3)
C83 C 0.3287(5) 0.3807(4) 0.1513(2)
H79 H 0.3489 0.4382 0.1430
H80 H 0.3798 0.3473 0.1273
C84 C 0.1980(6) 0.3676(5) 0.1406(3)
H81 H 0.1758 0.3112 0.1527
C85 C 0.1113(7) 0.4250(5) 0.1691(4)
H82 H 0.1224 0.4212 0.2058
H83 H 0.0284 0.4102 0.1635
H84 H 0.1270 0.4807 0.1564
C86 C 0.179(3) 0.3738(18) 0.0837(5)
H85 H 0.2261 0.3318 0.0655
H86 H 0.2048 0.4274 0.0700
H87 H 0.0933 0.3664 0.0789
C87 C 0.5387(6) 0.3561(8) 0.2171(4)
H88 H 0.5592 0.3574 0.2531
H89 H 0.5682 0.3038 0.2032
C88 C 0.6079(9) 0.4235(5) 0.1874(3)
H90 H 0.5899 0.4207 0.1506
C89 C 0.5747(9) 0.5081(6) 0.2058(5)
H91 H 0.4882 0.5171 0.2038
H92 H 0.6199 0.5486 0.1840
H93 H 0.5947 0.5130 0.2413
C90 C 0.7429(11) 0.4117(14) 0.1899(7)
H94 H 0.7664 0.3581 0.1772
H95 H 0.7631 0.4157 0.2255
H96 H 0.7862 0.4537 0.1687
C91 C 0.3018(6) 0.2577(3) 0.2391(2)
H97 H 0.2150 0.2616 0.2338
H98 H 0.3362 0.2164 0.2154
C92 C 0.3103(11) 0.2240(5) 0.2918(3)
H99 H 0.3865 0.1946 0.2810
C93 C 0.3668(12) 0.2620(7) 0.3333(4)
H100 H 0.4135 0.3091 0.3197
H101 H 0.4203 0.2229 0.3489
H102 H 0.3045 0.2795 0.3592
C94 C 0.2448(10) 0.1451(4) 0.3034(3)
H103 H 0.2392 0.1160 0.2715
H104 H 0.1637 0.1562 0.3189
H105 H 0.2889 0.1118 0.3272
C95 C 0.1727(3) 0.6820(2) 0.46784(14)
C96 C 0.1442(3) 0.7244(2) 0.50384(14)
C97 C -0.0369(12) 0.8346(18) 0.5577(8)
H106 H -0.0859 0.8043 0.5850
H107 H -0.0367 0.8920 0.5679
C98 C -0.1034(15) 0.8314(12) 0.5094(7)
H108 H -0.1004 0.7734 0.4992
C99 C -0.0395(11) 0.8792(8) 0.4648(6)
H109 H 0.0433 0.8594 0.4587
H110 H -0.0385 0.9369 0.4729
H111 H -0.0823 0.8722 0.4339
C100 C -0.2368(15) 0.8530(10) 0.5174(7)
H112 H -0.2752 0.8185 0.5450
H113 H -0.2754 0.8442 0.4857
H114 H -0.2453 0.9100 0.5266
C101 C 0.2217(6) 0.8860(4) 0.5475(3)
H115 H 0.2197 0.9033 0.5111
H116 H 0.1857 0.9306 0.5683
C102 C 0.3541(6) 0.8795(4) 0.5587(3)
H117 H 0.3599 0.8688 0.5962
C103 C 0.4192(8) 0.9587(5) 0.5423(5)
H118 H 0.5053 0.9527 0.5468
H119 H 0.3859 1.0028 0.5635
H120 H 0.4081 0.9713 0.5062
C104 C 0.4194(6) 0.8128(4) 0.5285(3)
H121 H 0.5052 0.8141 0.5340
H122 H 0.4091 0.8214 0.4919
H123 H 0.3858 0.7600 0.5400
C105 C 0.1548(6) 0.7481(4) 0.6213(2)
H124 H 0.2194 0.7077 0.6136
H125 H 0.1895 0.7907 0.6415
C106 C 0.0577(7) 0.7060(5) 0.6559(3)
H126 H -0.0055 0.7466 0.6666
C107 C 0.1077(10) 0.6687(9) 0.7037(4)
H127 H 0.0448 0.6369 0.7232
H128 H 0.1346 0.7120 0.7251
H129 H 0.1760 0.6334 0.6937
C108 C 0.0003(7) 0.6398(4) 0.6259(3)
H130 H -0.0265 0.6634 0.5940
H131 H -0.0690 0.6167 0.6466
H132 H 0.0595 0.5970 0.6179
C109? C 0.3005(14) 0.4624(6) 0.3089(3)
C110? C 0.3250(15) 0.4137(6) 0.2766(3)
C111? C 0.2555(8) 0.3239(5) 0.1812(3)
C112? C 0.2391(14) 0.3951(5) 0.1446(4)
C113? C 0.1593(14) 0.4616(7) 0.1683(6)
C114? C 0.188(4) 0.370(2) 0.0953(8)
C115? C 0.5208(10) 0.3513(11) 0.1998(6)
C116? C 0.5907(12) 0.4279(8) 0.2080(5)
C117? C 0.5316(16) 0.5041(9) 0.1874(7)
C118? C 0.7181(15) 0.4187(18) 0.1827(9)
C119? C 0.3627(9) 0.2355(4) 0.2677(3)
C120? C 0.4047(9) 0.2300(5) 0.3204(3)
C121? C 0.5268(12) 0.2674(9) 0.3268(5)
C122? C 0.3868(11) 0.1504(6) 0.3498(4)
C123? C -0.062(2) 0.827(2) 0.5539(11)
C124? C -0.107(2) 0.8380(15) 0.5010(9)
C125? C -0.029(3) 0.8963(18) 0.4668(11)
C126? C -0.232(3) 0.8768(18) 0.5054(13)
C127? C 0.2074(8) 0.8562(6) 0.5668(4)
C128? C 0.3391(9) 0.8334(6) 0.5568(5)
C129? C 0.4181(13) 0.9057(8) 0.5655(7)
C130? C 0.3698(10) 0.7718(6) 0.5968(4)
C131? C 0.0787(9) 0.7029(4) 0.6127(3)
C132? C 0.5759(10) 0.3960(6) -0.0389(5)
C133? C 0.0767(12) 0.7342(7) 0.6673(4)
C134? C 0.0420(15) 0.6654(12) 0.7057(7)
C135? C 0.7134(19) 0.4046(12) -0.0439(9)
C136? C -0.0368(11) 0.7839(9) 0.6810(5)
H133? H 0.2792 0.2763 0.1604
H134? H 0.1761 0.3115 0.1993
H135? H 0.3203 0.4191 0.1352
H136? H 0.1886 0.4765 0.2010
H137? H 0.0764 0.4418 0.1740
H138? H 0.1616 0.5092 0.1450
H139? H 0.2467 0.3349 0.0762
H140? H 0.1722 0.4180 0.0743
H141? H 0.1132 0.3396 0.1035
H142? H 0.5711 0.3052 0.2103
H143? H 0.5154 0.3475 0.1623
H144? H 0.5961 0.4335 0.2456
H145? H 0.5809 0.5514 0.1935
H146? H 0.4513 0.5104 0.2050
H147? H 0.5247 0.4995 0.1506
H148? H 0.7651 0.4670 0.1888
H149? H 0.7146 0.4124 0.1457
H150? H 0.7562 0.3707 0.1974
H151? H 0.2785 0.2160 0.2702
H152? H 0.4110 0.1963 0.2467
H153? H 0.3481 0.2672 0.3401
H154? H 0.5322 0.3205 0.3090
H155? H 0.5904 0.2318 0.3120
H156? H 0.5366 0.2739 0.3633
H157? H 0.4054 0.1571 0.3854
H158? H 0.4403 0.1092 0.3339
H159? H 0.3029 0.1330 0.3491
H160? H -0.1213 0.7931 0.5750
H161? H -0.0608 0.8805 0.5696
H162? H -0.1109 0.7843 0.4844
H163? H -0.0620 0.9015 0.4331
H164? H 0.0531 0.8754 0.4626
H165? H -0.0294 0.9496 0.4825
H166? H -0.2599 0.8848 0.4712
H167? H -0.2275 0.9294 0.5218
H168? H -0.2878 0.8413 0.5262
H169? H 0.1920 0.9031 0.5439
H170? H 0.1958 0.8752 0.6024
H171? H 0.3563 0.8123 0.5215
H172? H 0.5029 0.8898 0.5605
H173? H 0.4006 0.9242 0.6006
H174? H 0.4016 0.9497 0.5412
H175? H 0.4553 0.7576 0.5915
H176? H 0.3209 0.7230 0.5940
H177? H 0.3532 0.7943 0.6309
H178? H 0.5836 0.2874 -0.0718
H179? H 0.5639 0.3606 -0.1111
H180? H 0.0047 0.6707 0.6102
H181? H 0.1478 0.6653 0.6075
H182? H 0.5426 0.4501 -0.0487
H183? H 0.1526 0.7625 0.6744
H184? H 0.4498 0.3760 0.0208
H185? H 0.5620 0.4278 0.0360
H186? H 0.5755 0.3321 0.0288
H187? H 0.0472 0.6843 0.7406
H188? H 0.0972 0.6195 0.6996
H189? H -0.0405 0.6480 0.7015
H190? H 0.7376 0.4435 -0.0190
H191? H 0.7400 0.4240 -0.0786
H192? H 0.7504 0.3518 -0.0371
H193? H -0.0337 0.8051 0.7155
H194? H -0.1078 0.7493 0.6801
H195? H -0.0416 0.8292 0.6563
Si5? Si 0.3661(5) 0.3333(3) 0.23067(17)
Si6? Si 0.0891(8) 0.7795(5) 0.5589(4)
loop_
_geom_bond_atom_site_label_1
_geom_bond_atom_site_label_2
_geom_bond_site_symmetry_1
_geom_bond_site_symmetry_2
S1 C4 1_555 1_555
S2 C23 1_555 1_555
Si1 C28 1_555 1_555
Si2 C42 1_555 1_555
C1 C2 1_555 1_555
C2 C3 1_555 1_555
C3 H1 1_555 1_555
C4 C3 1_555 1_555
C5 S1 1_555 1_555
C6 C5 1_555 1_555
H2 C6 1_555 1_555
C7 C6 1_555 1_555
H3 C7 1_555 1_555
C8 C7 1_555 1_555
H4 C8 1_555 1_555
C9 C8 1_555 1_555
H5 C9 1_555 1_555
C10 C5 1_555 1_555
C11 C4 1_555 1_555
C12 C11 1_555 1_555
H6 C12 1_555 1_555
C13 C2 1_555 1_555
C14 C13 1_555 1_555
C15 C14 1_555 1_555
C16 C15 1_555 1_555
H7 C16 1_555 1_555
C17 C16 1_555 1_555
C18 C17 1_555 1_555
C19 C18 1_555 1_555
H8 C19 1_555 1_555
C20 C19 1_555 1_555
H9 C20 1_555 1_555
C21 C20 1_555 1_555
H10 C21 1_555 1_555
C22 C21 1_555 1_555
H11 C22 1_555 1_555
C23 C18 1_555 1_555
C24 S2 1_555 1_555
C25 C24 1_555 1_555
H12 C25 1_555 1_555
C26 C1 1_555 1_555
C27 C1 1_555 1_555
C28 C27 1_555 1_555
C29 Si1 1_555 1_555
H13 C29 1_555 1_555
H14 C29 1_555 1_555
C30 C29 1_555 1_555
H15 C30 1_555 1_555
C31 C30 1_555 1_555
H16 C31 1_555 1_555
H17 C31 1_555 1_555
H18 C31 1_555 1_555
C32 C30 1_555 1_555
H19 C32 1_555 1_555
H20 C32 1_555 1_555
H21 C32 1_555 1_555
C33 Si1 1_555 1_555
H22 C33 1_555 1_555
H23 C33 1_555 1_555
C34 C33 1_555 1_555
H24 C34 1_555 1_555
C35 C34 1_555 1_555
H25 C35 1_555 1_555
H26 C35 1_555 1_555
H27 C35 1_555 1_555
C36 C34 1_555 1_555
H28 C36 1_555 1_555
H29 C36 1_555 1_555
H30 C36 1_555 1_555
C37 Si1 1_555 1_555
H31 C37 1_555 1_555
H32 C37 1_555 1_555
C38 C37 1_555 1_555
H33 C38 1_555 1_555
C39 C38 1_555 1_555
H34 C39 1_555 1_555
H35 C39 1_555 1_555
H36 C39 1_555 1_555
C40 C38 1_555 1_555
H37 C40 1_555 1_555
H38 C40 1_555 1_555
H39 C40 1_555 1_555
C41 C14 1_555 1_555
C42 C41 1_555 1_555
C43 Si2 1_555 1_555
H40 C43 1_555 1_555
H41 C43 1_555 1_555
C44 C43 1_555 1_555
H42 C44 1_555 1_555
C45 C44 1_555 1_555
H43 C45 1_555 1_555
H44 C45 1_555 1_555
H45 C45 1_555 1_555
C46 C44 1_555 1_555
H46 C46 1_555 1_555
H47 C46 1_555 1_555
H48 C46 1_555 1_555
C47 Si2 1_555 1_555
H49 C47 1_555 1_555
H50 C47 1_555 1_555
C48 C47 1_555 1_555
H51 C48 1_555 1_555
C49 C48 1_555 1_555
H52 C49 1_555 1_555
H53 C49 1_555 1_555
H54 C49 1_555 1_555
C50 C48 1_555 1_555
H55 C50 1_555 1_555
H56 C50 1_555 1_555
H57 C50 1_555 1_555
C51 Si2 1_555 1_555
H58 C51 1_555 1_555
H59 C51 1_555 1_555
C52 C51 1_555 1_555
H60 C52 1_555 1_555
C53 C52 1_555 1_555
H61 C53 1_555 1_555
H62 C53 1_555 1_555
H63 C53 1_555 1_555
C54 C52 1_555 1_555
H64 C54 1_555 1_555
H65 C54 1_555 1_555
H66 C54 1_555 1_555
S3 C58 1_555 1_555
S4 C77 1_555 1_555
Si3 C82 1_555 1_555
Si4 C96 1_555 1_555
C55 C56 1_555 1_555
C56 C57 1_555 1_555
C57 H67 1_555 1_555
C58 C57 1_555 1_555
C59 S3 1_555 1_555
C60 C59 1_555 1_555
H68 C60 1_555 1_555
C61 C60 1_555 1_555
H69 C61 1_555 1_555
C62 C61 1_555 1_555
H70 C62 1_555 1_555
C63 C62 1_555 1_555
H71 C63 1_555 1_555
C64 C59 1_555 1_555
C65 C58 1_555 1_555
C66 C65 1_555 1_555
H72 C66 1_555 1_555
C67 C56 1_555 1_555
C68 C67 1_555 1_555
C69 C68 1_555 1_555
C70 C69 1_555 1_555
H73 C70 1_555 1_555
C71 C70 1_555 1_555
C72 C71 1_555 1_555
C73 C72 1_555 1_555
H74 C73 1_555 1_555
C74 C73 1_555 1_555
H75 C74 1_555 1_555
C75 C74 1_555 1_555
H76 C75 1_555 1_555
C76 C75 1_555 1_555
H77 C76 1_555 1_555
C77 C72 1_555 1_555
C78 S4 1_555 1_555
C79 C78 1_555 1_555
H78 C79 1_555 1_555
C80 C55 1_555 1_555
C81 C55 1_555 1_555
C82 C81 1_555 1_555
C83 Si3 1_555 1_555
H79 C83 1_555 1_555
H80 C83 1_555 1_555
C84 C83 1_555 1_555
H81 C84 1_555 1_555
C85 C84 1_555 1_555
H82 C85 1_555 1_555
H83 C85 1_555 1_555
H84 C85 1_555 1_555
C86 C84 1_555 1_555
H85 C86 1_555 1_555
H86 C86 1_555 1_555
H87 C86 1_555 1_555
C87 Si3 1_555 1_555
H88 C87 1_555 1_555
H89 C87 1_555 1_555
C88 C87 1_555 1_555
H90 C88 1_555 1_555
C89 C88 1_555 1_555
H91 C89 1_555 1_555
H92 C89 1_555 1_555
H93 C89 1_555 1_555
C90 C88 1_555 1_555
H94 C90 1_555 1_555
H95 C90 1_555 1_555
H96 C90 1_555 1_555
C91 Si3 1_555 1_555
H97 C91 1_555 1_555
H98 C91 1_555 1_555
C92 C91 1_555 1_555
H99 C92 1_555 1_555
C93 C92 1_555 1_555
H100 C93 1_555 1_555
H101 C93 1_555 1_555
H102 C93 1_555 1_555
C94 C92 1_555 1_555
H103 C94 1_555 1_555
H104 C94 1_555 1_555
H105 C94 1_555 1_555
C95 C68 1_555 1_555
C96 C95 1_555 1_555
C97 Si4 1_555 1_555
H106 C97 1_555 1_555
H107 C97 1_555 1_555
C98 C97 1_555 1_555
H108 C98 1_555 1_555
C99 C98 1_555 1_555
H109 C99 1_555 1_555
H110 C99 1_555 1_555
H111 C99 1_555 1_555
C100 C98 1_555 1_555
H112 C100 1_555 1_555
H113 C100 1_555 1_555
H114 C100 1_555 1_555
C101 Si4 1_555 1_555
H115 C101 1_555 1_555
H116 C101 1_555 1_555
C102 C101 1_555 1_555
H117 C102 1_555 1_555
C103 C102 1_555 1_555
H118 C103 1_555 1_555
H119 C103 1_555 1_555
H120 C103 1_555 1_555
C104 C102 1_555 1_555
H121 C104 1_555 1_555
H122 C104 1_555 1_555
H123 C104 1_555 1_555
C105 Si4 1_555 1_555
H124 C105 1_555 1_555
H125 C105 1_555 1_555
C106 C105 1_555 1_555
H126 C106 1_555 1_555
C107 C106 1_555 1_555
H127 C107 1_555 1_555
H128 C107 1_555 1_555
H129 C107 1_555 1_555
C108 C106 1_555 1_555
H130 C108 1_555 1_555
H131 C108 1_555 1_555
H132 C108 1_555 1_555
C9 C10 1_555 1_555
C10 C11 1_555 1_555
C12 C13 1_555 1_555
C15 C26 1_555 1_555
C17 C24 1_555 1_555
C22 C23 1_555 1_555
C25 C26 1_555 1_555
C63 C64 1_555 1_555
C64 C65 1_555 1_555
C66 C67 1_555 1_555
C69 C80 1_555 1_555
C71 C78 1_555 1_555
C76 C77 1_555 1_555
C79 C80 1_555 1_555

#END
