
#######################################################################
#
#                 Cambridge Crystallographic Data Centre
#                                CCDC 
#
#######################################################################
#
# If this CIF has been generated from an entry in the Cambridge 
# Structural Database, then it will include bibliographic, chemical, 
# crystal, experimental, refinement or atomic coordinate data resulting 
# from the CCDC's data processing and validation procedures.
#
#######################################################################

data_VAVNAI
_chemical_formula_moiety         'C18 H9 N9 O3'
_chemical_name_systematic        
3,7,11-trimethoxy-2,6,10-tricyano-1,4,5,8,9,12-hexaazatriphenylene
_symmetry_cell_setting           triclinic
_symmetry_space_group_name_H-M   'P -1'
_symmetry_Int_Tables_number      2
_space_group_name_Hall           '-P 1'
loop_
_symmetry_equiv_pos_site_id
_symmetry_equiv_pos_as_xyz
1 x,y,z
2 -x,-y,-z
_cell_length_a                   7.259(2)
_cell_length_b                   11.372(4)
_cell_length_c                   12.832(6)
_cell_angle_alpha                115.87(3)
_cell_angle_beta                 100.92(3)
_cell_angle_gamma                95.20(3)
_cell_volume                     917.682
_exptl_crystal_colour            yellow
_exptl_crystal_description       prism
_cell_formula_units_Z            2
_exptl_crystal_recrystallization_method benzene
loop_
_atom_site_label
_atom_site_type_symbol
_atom_site_fract_x
_atom_site_fract_y
_atom_site_fract_z
O1 O 1.1522(3) 0.97078(19) 0.72171(18)
O2 O 0.5875(3) 0.3339(2) 0.78992(18)
O3 O 0.5615(3) 0.2584(2) 0.10303(16)
N1 N 0.9217(3) 0.6796(2) 0.44757(19)
N2 N 0.9791(3) 0.7757(2) 0.6966(2)
N3 N 0.8432(3) 0.6126(2) 0.78399(19)
N4 N 0.6170(3) 0.3580(2) 0.6246(2)
N5 N 0.5464(3) 0.2687(2) 0.38181(19)
N6 N 0.7019(3) 0.4307(2) 0.29196(19)
N7 N 1.1880(4) 0.9386(3) 0.4426(3)
N8 N 0.8447(5) 0.6161(3) 1.0503(2)
N9 N 0.3151(4) -0.0054(3) 0.1201(3)
C1 C 0.8447(4) 0.6052(3) 0.4934(2)
C2 C 0.8768(4) 0.6521(2) 0.6173(2)
C3 C 0.8029(4) 0.5669(2) 0.6639(2)
C4 C 0.6919(4) 0.4395(2) 0.5847(2)
C5 C 0.6546(4) 0.3920(2) 0.4563(2)
C6 C 0.7307(4) 0.4727(2) 0.4112(2)
C7 C 1.0248(4) 0.7978(3) 0.5258(2)
C8 C 1.0490(4) 0.8482(3) 0.6517(2)
C9 C 0.7726(4) 0.5318(3) 0.8217(2)
C10 C 0.6559(4) 0.4037(3) 0.7406(2)
C11 C 0.5174(4) 0.2293(3) 0.2661(2)
C12 C 0.5981(4) 0.3106(3) 0.2210(2)
C13 C 1.1167(4) 0.8767(3) 0.4792(3)
C14 C 1.1663(5) 1.0267(3) 0.8495(3)
H1 H 1.2438 1.1147 0.8904
H2 H 1.2238 0.9712 0.8797
H3 H 1.0408 1.0310 0.8628
C15 C 0.8133(5) 0.5787(3) 0.9497(3)
C16 C 0.4577(5) 0.2071(3) 0.7114(3)
H4 H 0.4195 0.1674 0.7583
H5 H 0.5210 0.1488 0.6562
H6 H 0.3466 0.2213 0.6676
C17 C 0.4026(4) 0.0981(3) 0.1849(3)
C18 C 0.6581(5) 0.3329(4) 0.0541(3)
H7 H 0.6201 0.2850 -0.0318
H8 H 0.7941 0.3436 0.0814
H9 H 0.6237 0.4189 0.0804
loop_
_geom_bond_atom_site_label_1
_geom_bond_atom_site_label_2
_geom_bond_site_symmetry_1
_geom_bond_site_symmetry_2
O1 C8 1_555 1_555
O2 C10 1_555 1_555
O3 C12 1_555 1_555
N1 C1 1_555 1_555
N2 C2 1_555 1_555
N3 C3 1_555 1_555
N4 C4 1_555 1_555
N5 C5 1_555 1_555
N6 C6 1_555 1_555
N7 C13 1_555 1_555
N8 C15 1_555 1_555
N9 C17 1_555 1_555
C1 C2 1_555 1_555
C2 C3 1_555 1_555
C3 C4 1_555 1_555
C4 C5 1_555 1_555
C5 C6 1_555 1_555
C6 C1 1_555 1_555
C7 N1 1_555 1_555
C8 N2 1_555 1_555
C9 N3 1_555 1_555
C10 N4 1_555 1_555
C11 N5 1_555 1_555
C12 N6 1_555 1_555
C13 C7 1_555 1_555
C14 O1 1_555 1_555
H1 C14 1_555 1_555
H2 C14 1_555 1_555
H3 C14 1_555 1_555
C15 C9 1_555 1_555
C16 O2 1_555 1_555
H4 C16 1_555 1_555
H5 C16 1_555 1_555
H6 C16 1_555 1_555
C17 C11 1_555 1_555
C18 O3 1_555 1_555
H7 C18 1_555 1_555
H8 C18 1_555 1_555
H9 C18 1_555 1_555
C7 C8 1_555 1_555
C9 C10 1_555 1_555
C11 C12 1_555 1_555

#END
