
#######################################################################
#
#                 Cambridge Crystallographic Data Centre
#                                CCDC 
#
#######################################################################
#
# If this CIF has been generated from an entry in the Cambridge 
# Structural Database, then it will include bibliographic, chemical, 
# crystal, experimental, refinement or atomic coordinate data resulting 
# from the CCDC's data processing and validation procedures.
#
#######################################################################

data_VAVPEO
_chemical_formula_moiety         'C23 H24 Cl1 N1 O8 S1'
_chemical_name_systematic        
'(2S,3S,4R,5R)-5-(4-chlorophenyl)-N-(p-tosyl)pyrrolidine-2,3,4-tricarboxylic acid trimethyl ester'
_symmetry_cell_setting           orthorhombic
_symmetry_space_group_name_H-M   'P 21 21 21'
_symmetry_Int_Tables_number      19
_space_group_name_Hall           'P 2ac 2ab'
loop_
_symmetry_equiv_pos_site_id
_symmetry_equiv_pos_as_xyz
1 x,y,z
2 1/2-x,-y,1/2+z
3 -x,1/2+y,1/2-z
4 1/2+x,1/2-y,-z
_cell_length_a                   9.422(3)
_cell_length_b                   9.507(3)
_cell_length_c                   26.579(7)
_cell_angle_alpha                90
_cell_angle_beta                 90
_cell_angle_gamma                90
_cell_volume                     2380.81
_exptl_crystal_colour            colorless
_exptl_crystal_description       cubic
_cell_formula_units_Z            4
_exptl_crystal_recrystallization_method hexanes
loop_
_atom_site_label
_atom_site_type_symbol
_atom_site_fract_x
_atom_site_fract_y
_atom_site_fract_z
S1 S -0.04317(4) 0.82812(4) 0.112326(16)
Cl1 Cl -0.12343(6) 1.54467(5) 0.011636(19)
O1 O -0.13558(14) 0.88443(13) 0.26274(5)
N1 N 0.02223(15) 0.95894(15) 0.14509(5)
O2 O 0.45316(15) 1.03696(16) 0.12915(5)
O3 O 0.33716(13) 1.11010(13) 0.26614(5)
O4 O -0.14395(13) 0.76144(13) 0.14493(5)
O5 O 0.19241(15) 0.93552(15) 0.29030(5)
O6 O 0.36753(15) 0.87623(14) 0.18313(5)
O7 O -0.17523(14) 1.06347(14) 0.20967(5)
C1 C -0.0460(2) 1.25263(18) 0.11605(7)
H1 H -0.0831 1.2262 0.1479
C2 C 0.13001(18) 1.05054(17) 0.12123(6)
H2 H 0.1830 0.9941 0.0956
C3 C 0.35776(18) 0.98657(18) 0.16161(7)
C4 C 0.14352(18) 1.05887(17) 0.21342(6)
H3 H 0.0864 1.1456 0.2200
O8 O -0.08609(14) 0.88685(14) 0.06515(5)
C5 C 0.22580(18) 1.02509(18) 0.26088(6)
C6 C 0.03998(18) 0.94049(17) 0.19954(6)
H4 H 0.0835 0.8468 0.2069
C7 C -0.10077(17) 0.95588(18) 0.22773(6)
C8 C 0.1200(2) 1.21780(19) 0.04897(7)
H5 H 0.1969 1.1669 0.0347
C9 C 0.09687(18) 0.71041(17) 0.10121(6)
C10 C 0.12739(18) 0.60572(18) 0.13599(6)
H6 H 0.0708 0.5951 0.1653
C11 C 0.06556(18) 1.17686(18) 0.09538(6)
C12 C 0.0637(2) 1.3320(2) 0.02327(7)
H7 H 0.1022 1.3605 -0.0082
C13 C 0.2414(2) 0.51689(18) 0.12734(7)
H8 H 0.2632 0.4456 0.1512
C14 C 0.3245(2) 0.5303(2) 0.08442(7)
C15 C 0.41487(19) 1.0901(2) 0.31251(7)
H9 H 0.3496 1.0979 0.3411
H10 H 0.4888 1.1622 0.3153
H11 H 0.4588 0.9967 0.3125
C16 C -0.0490(2) 1.40324(18) 0.04423(7)
C17 C 0.1781(2) 0.72560(19) 0.05779(7)
H12 H 0.1560 0.7969 0.0340
C18 C 0.4450(2) 0.4303(2) 0.07387(9)
H13 H 0.4475 0.3574 0.0999
H14 H 0.5349 0.4821 0.0739
H15 H 0.4308 0.3863 0.0409
C19 C 0.23256(18) 1.08505(17) 0.16561(6)
H16 H 0.2644 1.1853 0.1640
C20 C -0.1041(2) 1.3668(2) 0.09065(8)
H17 H -0.1801 1.4189 0.1049
C21 C 0.2915(2) 0.6357(2) 0.04964(7)
H18 H 0.3474 0.6457 0.0201
C22 C -0.3075(2) 1.0937(2) 0.23502(8)
H19 H -0.3653 1.0082 0.2365
H20 H -0.3590 1.1668 0.2165
H21 H -0.2878 1.1268 0.2692
C23 C 0.5708(2) 0.9438(3) 0.11733(9)
H22 H 0.6109 0.9062 0.1486
H23 H 0.6440 0.9962 0.0991
H24 H 0.5367 0.8660 0.0964
loop_
_geom_bond_atom_site_label_1
_geom_bond_atom_site_label_2
_geom_bond_site_symmetry_1
_geom_bond_site_symmetry_2
S1 N1 1_555 1_555
Cl1 C16 1_555 1_555
O1 C7 1_555 1_555
N1 C2 1_555 1_555
O2 C3 1_555 1_555
O3 C5 1_555 1_555
O4 S1 1_555 1_555
O5 C5 1_555 1_555
O6 C3 1_555 1_555
O7 C7 1_555 1_555
C1 H1 1_555 1_555
C2 H2 1_555 1_555
C3 C19 1_555 1_555
C4 H3 1_555 1_555
O8 S1 1_555 1_555
C5 C4 1_555 1_555
C6 N1 1_555 1_555
H4 C6 1_555 1_555
C7 C6 1_555 1_555
C8 H5 1_555 1_555
C9 S1 1_555 1_555
C10 C9 1_555 1_555
H6 C10 1_555 1_555
C11 C1 1_555 1_555
C12 C8 1_555 1_555
H7 C12 1_555 1_555
C13 C10 1_555 1_555
H8 C13 1_555 1_555
C14 C13 1_555 1_555
C15 O3 1_555 1_555
H9 C15 1_555 1_555
H10 C15 1_555 1_555
H11 C15 1_555 1_555
C16 C12 1_555 1_555
C17 C9 1_555 1_555
H12 C17 1_555 1_555
C18 C14 1_555 1_555
H13 C18 1_555 1_555
H14 C18 1_555 1_555
H15 C18 1_555 1_555
C19 C2 1_555 1_555
H16 C19 1_555 1_555
C20 C1 1_555 1_555
H17 C20 1_555 1_555
C21 C14 1_555 1_555
H18 C21 1_555 1_555
C22 O7 1_555 1_555
H19 C22 1_555 1_555
H20 C22 1_555 1_555
H21 C22 1_555 1_555
C23 O2 1_555 1_555
H22 C23 1_555 1_555
H23 C23 1_555 1_555
H24 C23 1_555 1_555
C2 C11 1_555 1_555
C4 C6 1_555 1_555
C4 C19 1_555 1_555
C8 C11 1_555 1_555
C16 C20 1_555 1_555
C17 C21 1_555 1_555

#END
