
#######################################################################
#
#                 Cambridge Crystallographic Data Centre
#                                CCDC 
#
#######################################################################
#
# If this CIF has been generated from an entry in the Cambridge 
# Structural Database, then it will include bibliographic, chemical, 
# crystal, experimental, refinement or atomic coordinate data resulting 
# from the CCDC's data processing and validation procedures.
#
#######################################################################

data_VAVPEP
_chemical_formula_moiety         'C26 H28 N2 O4'
_chemical_name_systematic        
N-(2-Hydroxy-1-phenylethyl)-1,3,5-trimethyl-8-(4-nitrophenyl)bicyclo[4.2.0]octa-2,4-diene-7-carboxamide
_symmetry_cell_setting           orthorhombic
_symmetry_space_group_name_H-M   'P 21 21 21'
_symmetry_Int_Tables_number      19
_space_group_name_Hall           'P 2ac 2ab'
loop_
_symmetry_equiv_pos_site_id
_symmetry_equiv_pos_as_xyz
1 x,y,z
2 1/2-x,-y,1/2+z
3 -x,1/2+y,1/2-z
4 1/2+x,1/2-y,-z
_cell_length_a                   6.9954(4)
_cell_length_b                   11.7795(7)
_cell_length_c                   29.5906(17)
_cell_angle_alpha                90
_cell_angle_beta                 90
_cell_angle_gamma                90
_cell_volume                     2438.33
_exptl_crystal_colour            colorless
_exptl_crystal_description       needle
_cell_formula_units_Z            4
loop_
_atom_site_label
_atom_site_type_symbol
_atom_site_fract_x
_atom_site_fract_y
_atom_site_fract_z
N1 N 0.9572(2) 0.14232(16) 0.03421(7)
H1 H 0.8408 0.1657 0.0335
C1 C 1.0415(4) 0.1299(2) 0.07450(9)
C2 C 0.7647(3) -0.0255(2) 0.15447(8)
O1 O 1.0299(2) 0.3099(2) -0.03614(6)
C3 C 0.4963(4) -0.1954(2) 0.15976(9)
C4 C 0.9218(3) 0.1563(2) 0.11572(8)
H2 H 0.792(3) 0.1793(16) 0.1070(6)
C5 C 0.9459(4) 0.3591(3) 0.14935(10)
C6 C 1.0071(4) 0.2402(2) 0.15164(9)
H3 H 1.147(3) 0.2356(18) 0.1517(7)
O2 O 1.2105(2) 0.10134(14) 0.07850(5)
C7 C 1.0525(4) 0.1182(3) -0.00853(9)
H4 H 1.189(3) 0.1337(18) -0.0044(7)
C8 C 0.9802(3) 0.1962(3) -0.04507(8)
H5 H 1.0341 0.1735 -0.0739
H6 H 0.8423 0.1898 -0.0472
C9 C 0.5781(4) -0.0072(2) 0.14157(8)
H7 H 0.5426 0.0641 0.1310
C10 C 0.9159(3) 0.0649(2) 0.15294(8)
H8 H 1.040(3) 0.0269(17) 0.1532(7)
C11 C 0.9224(4) 0.1626(2) 0.18925(8)
C12 C 0.8124(4) -0.1323(2) 0.16994(8)
H9 H 0.9374 -0.1462 0.1791
N2 N 0.3548(4) -0.2875(2) 0.16264(10)
C13 C 0.7322(4) 0.2053(3) 0.20445(8)
H10 H 0.6521 0.1555 0.2198
C14 C 0.6805(4) -0.2192(2) 0.17229(8)
H11 H 0.7154 -0.2914 0.1820
C15 C 0.4432(4) -0.0916(2) 0.14390(9)
H12 H 0.3180 -0.0782 0.1348
O3 O 0.1940(3) -0.26912(18) 0.14997(9)
C16 C 0.6706(4) 0.3109(3) 0.19727(9)
C17 C 0.7860(5) 0.3893(2) 0.17048(10)
H13 H 0.7455 0.4643 0.1681
C18 C 1.0490(4) 0.1368(2) 0.22989(8)
H14 H 1.0676 0.2048 0.2472
H15 H 1.1705 0.1089 0.2196
H16 H 0.9886 0.0803 0.2484
O4 O 0.4054(4) -0.3784(2) 0.17748(9)
C19 C 1.0606(4) 0.4394(2) 0.12100(10)
H17 H 1.0098 0.5147 0.1241
H18 H 1.0541 0.4164 0.0899
H19 H 1.1913 0.4386 0.1309
C20 C 0.4847(4) 0.3552(2) 0.21540(10)
H20 H 0.4164 0.2946 0.2299
H21 H 0.4094 0.3848 0.1910
H22 H 0.5095 0.4144 0.2369
C21 C 1.0325(7) -0.0034(4) -0.02203(10)
C22 C 0.999(2) -0.2276(9) -0.0508(3)
H23 H 0.9893 -0.3035 -0.0593
C23 C 0.8464(12) -0.1699(6) -0.03609(18)
H24 H 0.7275 -0.2052 -0.0359
C24 C 1.1899(8) -0.0586(5) -0.03844(13)
H25 H 1.3081 -0.0227 -0.0399
C25 C 0.8615(8) -0.0585(4) -0.02106(13)
H26 H 0.7537 -0.0212 -0.0102
C26 C 1.1669(16) -0.1721(8) -0.0531(3)
H27 H 1.2725 -0.2101 -0.0648
H28 H 0.934(4) 0.359(3) -0.0423(10)
loop_
_geom_bond_atom_site_label_1
_geom_bond_atom_site_label_2
_geom_bond_site_symmetry_1
_geom_bond_site_symmetry_2
N1 H1 1_555 1_555
C1 N1 1_555 1_555
C2 C9 1_555 1_555
O1 C8 1_555 1_555
C3 N2 1_555 1_555
C4 C1 1_555 1_555
H2 C4 1_555 1_555
C5 C6 1_555 1_555
C6 C4 1_555 1_555
H3 C6 1_555 1_555
O2 C1 1_555 1_555
C7 N1 1_555 1_555
H4 C7 1_555 1_555
C8 C7 1_555 1_555
H5 C8 1_555 1_555
H6 C8 1_555 1_555
C9 H7 1_555 1_555
C10 C2 1_555 1_555
H8 C10 1_555 1_555
C11 C6 1_555 1_555
C12 C2 1_555 1_555
H9 C12 1_555 1_555
N2 O3 1_555 1_555
C13 C11 1_555 1_555
H10 C13 1_555 1_555
C14 C3 1_555 1_555
H11 C14 1_555 1_555
C15 C3 1_555 1_555
H12 C15 1_555 1_555
C16 C13 1_555 1_555
C17 C5 1_555 1_555
H13 C17 1_555 1_555
C18 C11 1_555 1_555
H14 C18 1_555 1_555
H15 C18 1_555 1_555
H16 C18 1_555 1_555
O4 N2 1_555 1_555
C19 C5 1_555 1_555
H17 C19 1_555 1_555
H18 C19 1_555 1_555
H19 C19 1_555 1_555
C20 C16 1_555 1_555
H20 C20 1_555 1_555
H21 C20 1_555 1_555
H22 C20 1_555 1_555
C21 C7 1_555 1_555
C22 H23 1_555 1_555
C23 C22 1_555 1_555
H24 C23 1_555 1_555
C24 C21 1_555 1_555
H25 C24 1_555 1_555
C25 C21 1_555 1_555
H26 C25 1_555 1_555
C26 C22 1_555 1_555
H27 C26 1_555 1_555
H28 O1 1_555 1_555
C4 C10 1_555 1_555
C9 C15 1_555 1_555
C10 C11 1_555 1_555
C12 C14 1_555 1_555
C16 C17 1_555 1_555
C23 C25 1_555 1_555
C24 C26 1_555 1_555

#END
