
#######################################################################
#
#                 Cambridge Crystallographic Data Centre
#                                CCDC 
#
#######################################################################
#
# If this CIF has been generated from an entry in the Cambridge 
# Structural Database, then it will include bibliographic, chemical, 
# crystal, experimental, refinement or atomic coordinate data resulting 
# from the CCDC's data processing and validation procedures.
#
#######################################################################

data_VAVSUJ
_chemical_formula_moiety         'C23 H17 F4 N1 O2'
_chemical_name_systematic        
'ethyl 3-(4-fluorobenzyl)-1-(trifluoromethyl)pyrrolo[1,2-a]quinoline-2-carboxylate'
_symmetry_cell_setting           triclinic
_symmetry_space_group_name_H-M   'P -1'
_symmetry_Int_Tables_number      2
_space_group_name_Hall           '-P 1'
loop_
_symmetry_equiv_pos_site_id
_symmetry_equiv_pos_as_xyz
1 x,y,z
2 -x,-y,-z
_cell_length_a                   8.2176(16)
_cell_length_b                   9.2644(18)
_cell_length_c                   13.110(3)
_cell_angle_alpha                99.384(3)
_cell_angle_beta                 91.951(3)
_cell_angle_gamma                93.602(3)
_cell_volume                     981.783
_cell_formula_units_Z            2
loop_
_atom_site_label
_atom_site_type_symbol
_atom_site_fract_x
_atom_site_fract_y
_atom_site_fract_z
F1 F 0.6101(2) 0.91558(17) 0.07497(13)
F2 F 0.8414(3) 1.00355(15) 0.14513(16)
F3 F 0.8229(2) 0.91115(18) -0.01535(13)
F4 F 0.5925(2) 0.27615(18) 0.53987(12)
O1 O 1.1038(2) 0.90055(19) 0.28257(13)
O2 O 0.8660(3) 0.8980(2) 0.35560(16)
N1 N 0.78148(16) 0.61292(15) 0.04941(10)
C1 C 0.69206(19) 0.5607(2) -0.04535(13)
C2 C 0.6025(2) 0.6492(3) -0.09879(16)
H1 H 0.6000 0.7486 -0.0729
C3 C 0.5169(3) 0.5900(4) -0.19027(18)
H2 H 0.4577 0.6505 -0.2253
C4 C 0.5177(3) 0.4448(4) -0.23003(17)
H3 H 0.4601 0.4067 -0.2918
C5 C 0.6034(3) 0.3559(3) -0.17876(16)
H4 H 0.6035 0.2568 -0.2062
C6 C 0.6918(2) 0.4101(2) -0.08515(13)
C7 C 0.7761(2) 0.3134(2) -0.03125(14)
H5 H 0.7774 0.2148 -0.0598
C8 C 0.8537(2) 0.36405(19) 0.06056(14)
H6 H 0.9060 0.2999 0.0962
C9 C 0.85623(19) 0.51503(18) 0.10356(12)
C10 C 0.9274(2) 0.59052(19) 0.19527(13)
C11 C 1.0160(2) 0.5257(2) 0.27721(14)
H7 H 1.0881 0.6018 0.3184
H8 H 1.0831 0.4508 0.2440
C12 C 0.9027(2) 0.4585(2) 0.34837(13)
C13 C 0.8706(3) 0.3090(2) 0.33706(15)
H9 H 0.9202 0.2485 0.2853
C14 C 0.7660(3) 0.2463(2) 0.40097(17)
H10 H 0.7448 0.1451 0.3924
C15 C 0.6954(3) 0.3366(3) 0.47652(15)
C16 C 0.7232(3) 0.4849(2) 0.49092(15)
H11 H 0.6732 0.5442 0.5432
C17 C 0.8274(2) 0.5458(2) 0.42631(15)
H12 H 0.8471 0.6471 0.4354
C18 C 0.8091(2) 0.75231(19) 0.10822(14)
C19 C 0.7694(3) 0.8934(2) 0.07828(19)
C20 C 0.8975(2) 0.73861(19) 0.19766(14)
C21 C 0.9510(3) 0.8555(2) 0.28595(16)
C22 C 1.1726(4) 1.0083(3) 0.3701(3)
H13 H 1.0970 1.0836 0.3886
H14 H 1.1922 0.9609 0.4296
C23 C 1.3222(6) 1.0723(6) 0.3402(5)
H15 H 1.3030 1.1124 0.2781
H16 H 1.3995 0.9985 0.3278
H17 H 1.3649 1.1490 0.3945
loop_
_geom_bond_atom_site_label_1
_geom_bond_atom_site_label_2
_geom_bond_site_symmetry_1
_geom_bond_site_symmetry_2
F1 C19 1_555 1_555
F2 C19 1_555 1_555
F3 C19 1_555 1_555
F4 C15 1_555 1_555
O1 C21 1_555 1_555
O2 C21 1_555 1_555
N1 C1 1_555 1_555
C1 C2 1_555 1_555
C2 H1 1_555 1_555
C3 C2 1_555 1_555
H2 C3 1_555 1_555
C4 C3 1_555 1_555
H3 C4 1_555 1_555
C5 C4 1_555 1_555
H4 C5 1_555 1_555
C6 C1 1_555 1_555
C7 C6 1_555 1_555
H5 C7 1_555 1_555
C8 C7 1_555 1_555
H6 C8 1_555 1_555
C9 N1 1_555 1_555
C10 C9 1_555 1_555
C11 C10 1_555 1_555
H7 C11 1_555 1_555
H8 C11 1_555 1_555
C12 C11 1_555 1_555
C13 C12 1_555 1_555
H9 C13 1_555 1_555
C14 C13 1_555 1_555
H10 C14 1_555 1_555
C15 C14 1_555 1_555
C16 C15 1_555 1_555
H11 C16 1_555 1_555
C17 C12 1_555 1_555
H12 C17 1_555 1_555
C18 N1 1_555 1_555
C19 C18 1_555 1_555
C20 C10 1_555 1_555
C21 C20 1_555 1_555
C22 O1 1_555 1_555
H13 C22 1_555 1_555
H14 C22 1_555 1_555
C23 C22 1_555 1_555
H15 C23 1_555 1_555
H16 C23 1_555 1_555
H17 C23 1_555 1_555
C5 C6 1_555 1_555
C8 C9 1_555 1_555
C16 C17 1_555 1_555
C18 C20 1_555 1_555

#END
