
#######################################################################
#
#                 Cambridge Crystallographic Data Centre
#                                CCDC 
#
#######################################################################
#
# If this CIF has been generated from an entry in the Cambridge 
# Structural Database, then it will include bibliographic, chemical, 
# crystal, experimental, refinement or atomic coordinate data resulting 
# from the CCDC's data processing and validation procedures.
#
#######################################################################

data_VAVTAQ
_chemical_formula_moiety         'C26 H22 N2 O4'
_chemical_name_systematic        
'diethyl 3-(4-cyanobenzyl)pyrrolo[1,2-a]quinoline-1,2-dicarboxylate'
_symmetry_cell_setting           triclinic
_symmetry_space_group_name_H-M   'P -1'
_symmetry_Int_Tables_number      2
_space_group_name_Hall           '-P 1'
loop_
_symmetry_equiv_pos_site_id
_symmetry_equiv_pos_as_xyz
1 x,y,z
2 -x,-y,-z
_cell_length_a                   8.679(6)
_cell_length_b                   11.875(8)
_cell_length_c                   12.649(8)
_cell_angle_alpha                106.234(10)
_cell_angle_beta                 109.319(10)
_cell_angle_gamma                104.799(10)
_cell_volume                     1090.64
_cell_formula_units_Z            2
loop_
_atom_site_label
_atom_site_type_symbol
_atom_site_fract_x
_atom_site_fract_y
_atom_site_fract_z
O1 O 0.25259(16) 0.53500(12) 1.02265(11)
O2 O 0.2087(2) 0.35660(15) 1.05687(14)
O3 O 0.30534(15) 0.13444(11) 0.97520(11)
O4 O 0.01493(18) 0.07176(16) 0.85898(15)
N1 N 0.24476(17) 0.19814(13) 0.72955(12)
N2 N -0.4464(2) 0.63903(18) 0.63066(17)
C1 C 0.2322(2) 0.08174(16) 0.64938(16)
C2 C 0.1874(3) -0.03106(18) 0.66645(18)
H1 H 0.1618 -0.0325 0.7320
C3 C 0.1809(3) -0.1405(2) 0.5867(2)
H2 H 0.1528 -0.2148 0.5998
C4 C 0.2156(3) -0.1410(2) 0.4875(2)
H3 H 0.2111 -0.2151 0.4341
C5 C 0.2566(3) -0.0311(2) 0.4686(2)
H4 H 0.2776 -0.0322 0.4009
C6 C 0.2677(2) 0.08279(18) 0.54849(17)
C7 C 0.3152(3) 0.19861(19) 0.52958(19)
H5 H 0.3396 0.1979 0.4632
C8 C 0.3248(2) 0.30654(18) 0.60515(16)
H6 H 0.3543 0.3797 0.5904
C9 C 0.2902(2) 0.31090(16) 0.70912(15)
C10 C 0.2946(2) 0.40923(16) 0.80166(15)
C11 C 0.2513(2) 0.35558(16) 0.88111(15)
C12 C 0.2228(2) 0.22775(17) 0.83583(15)
C13 C 0.3331(2) 0.54372(16) 0.81021(17)
H7 H 0.3983 0.5591 0.7631
H8 H 0.4077 0.6021 0.8947
C14 C 0.1679(2) 0.57120(15) 0.76431(15)
C15 C 0.0236(2) 0.48758(18) 0.65586(18)
H9 H 0.0316 0.4163 0.6075
C16 C -0.1330(3) 0.50689(19) 0.61700(18)
H10 H -0.2285 0.4492 0.5434
C17 C -0.1464(2) 0.61302(16) 0.68870(16)
C18 C -0.3126(3) 0.62802(18) 0.65629(17)
C19 C -0.0001(2) 0.70085(18) 0.79599(18)
H11 H -0.0066 0.7736 0.8432
C20 C 0.1552(2) 0.67992(17) 0.83242(18)
H12 H 0.2529 0.7397 0.9038
C21 C 0.2356(2) 0.41397(18) 0.99492(16)
C22 C 0.2361(3) 0.5948(2) 1.13425(18)
H13 H 0.3222 0.5899 1.2032
H14 H 0.1189 0.5514 1.1257
C23 C 0.2674(3) 0.7301(2) 1.1546(2)
H15 H 0.1747 0.7340 1.0901
H16 H 0.3791 0.7701 1.1554
H17 H 0.2687 0.7734 1.2316
C24 C 0.1670(2) 0.13543(18) 0.88938(17)
C25 C 0.2632(3) 0.0647(2) 1.0475(2)
H18 H 0.1946 -0.0245 0.9952
H19 H 0.1931 0.0973 1.0842
C26 C 0.4279(3) 0.0796(3) 1.1434(2)
H20 H 0.4936 0.0429 1.1066
H21 H 0.4007 0.0373 1.1933
H22 H 0.4971 0.1682 1.1931
loop_
_geom_bond_atom_site_label_1
_geom_bond_atom_site_label_2
_geom_bond_site_symmetry_1
_geom_bond_site_symmetry_2
O1 C21 1_555 1_555
O2 C21 1_555 1_555
O3 C24 1_555 1_555
O4 C24 1_555 1_555
N1 C1 1_555 1_555
N2 C18 1_555 1_555
C1 C2 1_555 1_555
C2 H1 1_555 1_555
C3 C2 1_555 1_555
H2 C3 1_555 1_555
C4 C3 1_555 1_555
H3 C4 1_555 1_555
C5 C4 1_555 1_555
H4 C5 1_555 1_555
C6 C1 1_555 1_555
C7 C6 1_555 1_555
H5 C7 1_555 1_555
C8 C7 1_555 1_555
H6 C8 1_555 1_555
C9 N1 1_555 1_555
C10 C9 1_555 1_555
C11 C10 1_555 1_555
C12 N1 1_555 1_555
C13 C10 1_555 1_555
H7 C13 1_555 1_555
H8 C13 1_555 1_555
C14 C13 1_555 1_555
C15 C14 1_555 1_555
H9 C15 1_555 1_555
C16 C15 1_555 1_555
H10 C16 1_555 1_555
C17 C16 1_555 1_555
C18 C17 1_555 1_555
C19 C17 1_555 1_555
H11 C19 1_555 1_555
C20 C14 1_555 1_555
H12 C20 1_555 1_555
C21 C11 1_555 1_555
C22 O1 1_555 1_555
H13 C22 1_555 1_555
H14 C22 1_555 1_555
C23 C22 1_555 1_555
H15 C23 1_555 1_555
H16 C23 1_555 1_555
H17 C23 1_555 1_555
C24 C12 1_555 1_555
C25 O3 1_555 1_555
H18 C25 1_555 1_555
H19 C25 1_555 1_555
C26 C25 1_555 1_555
H20 C26 1_555 1_555
H21 C26 1_555 1_555
H22 C26 1_555 1_555
C5 C6 1_555 1_555
C8 C9 1_555 1_555
C11 C12 1_555 1_555
C19 C20 1_555 1_555

#END
