
#######################################################################
#
#                 Cambridge Crystallographic Data Centre
#                                CCDC 
#
#######################################################################
#
# If this CIF has been generated from an entry in the Cambridge 
# Structural Database, then it will include bibliographic, chemical, 
# crystal, experimental, refinement or atomic coordinate data resulting 
# from the CCDC's data processing and validation procedures.
#
#######################################################################

data_VAWBOL
_chemical_formula_moiety         'C25 H15 B1 F4 N2'
_chemical_name_systematic        
Diphenyl-(4,5,6,7-tetrafluoro-2-(2'-pyridyl)indole-N,N')-boron
_symmetry_cell_setting           orthorhombic
_symmetry_space_group_name_H-M   'P n a 21'
_symmetry_Int_Tables_number      33
_space_group_name_Hall           'P 2c -2n'
loop_
_symmetry_equiv_pos_site_id
_symmetry_equiv_pos_as_xyz
1 x,y,z
2 -x,-y,1/2+z
3 1/2+x,1/2-y,z
4 1/2-x,1/2+y,1/2+z
_cell_length_a                   19.128(4)
_cell_length_b                   9.0418(17)
_cell_length_c                   11.663(3)
_cell_angle_alpha                90
_cell_angle_beta                 90
_cell_angle_gamma                90
_cell_volume                     2017.13
_exptl_crystal_colour            yellow
_exptl_crystal_description       plate
_chemical_melting_point          'above 300deg.C'
_cell_formula_units_Z            4
_exptl_crystal_preparation       luminescent
loop_
_atom_site_label
_atom_site_type_symbol
_atom_site_fract_x
_atom_site_fract_y
_atom_site_fract_z
B1 B 0.0516(2) 0.1012(5) -0.0593(5)
F1 F 0.20344(12) 0.1592(2) 0.0702(2)
F2 F 0.26716(13) 0.2866(3) 0.2469(2)
F3 F 0.19660(13) 0.4492(3) 0.4042(2)
F4 F 0.05623(12) 0.4747(2) 0.3852(2)
N1 N 0.0495(2) 0.1978(3) 0.0534(3)
N2 N -0.03079(17) 0.1259(4) -0.0866(3)
C1 C 0.0664(2) -0.0677(5) -0.0253(4)
C2 C 0.1324(2) -0.1284(5) -0.0368(4)
H1 H 0.1673 -0.0733 -0.0724
C3 C 0.1482(3) -0.2688(5) 0.0032(4)
H2 H 0.1932 -0.3067 -0.0046
C4 C 0.0966(3) -0.3512(5) 0.0544(5)
H3 H 0.1069 -0.4452 0.0821
C5 C 0.0305(3) -0.2971(6) 0.0651(4)
H4 H -0.0042 -0.3539 0.0993
C6 C 0.0152(2) -0.1549(5) 0.0242(3)
H5 H -0.0301 -0.1185 0.0306
C7 C 0.0980(2) 0.1781(5) -0.1563(3)
C8 C 0.1157(2) 0.3263(5) -0.1551(4)
H6 H 0.0992 0.3847 -0.0953
C9 C 0.1570(2) 0.3922(6) -0.2384(5)
H7 H 0.1688 0.4917 -0.2326
C10 C 0.1797(3) 0.3110(7) -0.3280(5)
H8 H 0.2063 0.3549 -0.3853
C11 C 0.1636(3) 0.1652(7) -0.3341(4)
H9 H 0.1797 0.1088 -0.3953
C12 C 0.1236(2) 0.1005(5) -0.2496(4)
H10 H 0.1134 0.0003 -0.2555
C13 C -0.0649(3) 0.2028(5) -0.0027(5)
C14 C -0.1364(3) 0.2295(5) -0.0126(4)
H11 H -0.1603 0.2798 0.0448
C15 C -0.1706(3) 0.1806(5) -0.1078(5)
H12 H -0.2183 0.1978 -0.1158
C16 C -0.1349(3) 0.1059(5) -0.1922(5)
H13 H -0.1583 0.0751 -0.2579
C17 C -0.0657(3) 0.0769(5) -0.1803(4)
H14 H -0.0422 0.0234 -0.2364
C18 C -0.0165(3) 0.2447(4) 0.0858(4)
C19 C -0.0160(3) 0.3208(5) 0.1846(4)
H15 H -0.0545 0.3614 0.2220
C20 C 0.0547(2) 0.3270(5) 0.2207(5)
C21 C 0.0938(3) 0.2452(5) 0.1382(5)
C22 C 0.1654(3) 0.2356(5) 0.1474(5)
C23 C 0.1976(2) 0.2994(6) 0.2370(5)
C24 C 0.1612(3) 0.3798(6) 0.3168(5)
C25 C 0.0920(3) 0.3918(5) 0.3095(4)
loop_
_geom_bond_atom_site_label_1
_geom_bond_atom_site_label_2
_geom_bond_site_symmetry_1
_geom_bond_site_symmetry_2
B1 N1 1_555 1_555
F1 C22 1_555 1_555
F2 C23 1_555 1_555
F3 C24 1_555 1_555
F4 C25 1_555 1_555
N1 C18 1_555 1_555
N2 B1 1_555 1_555
C1 B1 1_555 1_555
C2 C1 1_555 1_555
H1 C2 1_555 1_555
C3 C2 1_555 1_555
H2 C3 1_555 1_555
C4 C3 1_555 1_555
H3 C4 1_555 1_555
C5 C4 1_555 1_555
H4 C5 1_555 1_555
C6 C1 1_555 1_555
H5 C6 1_555 1_555
C7 B1 1_555 1_555
C8 C7 1_555 1_555
H6 C8 1_555 1_555
C9 C8 1_555 1_555
H7 C9 1_555 1_555
C10 C9 1_555 1_555
H8 C10 1_555 1_555
C11 C10 1_555 1_555
H9 C11 1_555 1_555
C12 C7 1_555 1_555
H10 C12 1_555 1_555
C13 N2 1_555 1_555
C14 C13 1_555 1_555
H11 C14 1_555 1_555
C15 C14 1_555 1_555
H12 C15 1_555 1_555
C16 C15 1_555 1_555
H13 C16 1_555 1_555
C17 N2 1_555 1_555
H14 C17 1_555 1_555
C18 C13 1_555 1_555
C19 C18 1_555 1_555
H15 C19 1_555 1_555
C20 C19 1_555 1_555
C21 N1 1_555 1_555
C22 C21 1_555 1_555
C23 C22 1_555 1_555
C24 C23 1_555 1_555
C25 C20 1_555 1_555
C5 C6 1_555 1_555
C11 C12 1_555 1_555
C16 C17 1_555 1_555
C20 C21 1_555 1_555
C24 C25 1_555 1_555

#END
