
#######################################################################
#
#                 Cambridge Crystallographic Data Centre
#                                CCDC 
#
#######################################################################
#
# If this CIF has been generated from an entry in the Cambridge 
# Structural Database, then it will include bibliographic, chemical, 
# crystal, experimental, refinement or atomic coordinate data resulting 
# from the CCDC's data processing and validation procedures.
#
#######################################################################

data_VAWBIF
_chemical_formula_moiety         'C25 H16 B1 F3 N2'
_chemical_name_systematic        
Diphenyl-(5,6,7-trifluoro-2-(2'-pyridyl)indole-N,N')-boron
_symmetry_cell_setting           monoclinic
_symmetry_space_group_name_H-M   'P 21'
_symmetry_Int_Tables_number      4
_space_group_name_Hall           'P 2yb'
loop_
_symmetry_equiv_pos_site_id
_symmetry_equiv_pos_as_xyz
1 x,y,z
2 -x,1/2+y,-z
_cell_length_a                   9.015(4)
_cell_length_b                   11.936(5)
_cell_length_c                   9.341(4)
_cell_angle_alpha                90
_cell_angle_beta                 91.464(6)
_cell_angle_gamma                90
_cell_volume                     1004.79
_exptl_crystal_colour            yellow
_exptl_crystal_description       plate
_chemical_melting_point          'above 300deg.C'
_cell_formula_units_Z            2
_exptl_crystal_preparation       luminescent
loop_
_atom_site_label
_atom_site_type_symbol
_atom_site_fract_x
_atom_site_fract_y
_atom_site_fract_z
B1 B 0.0988(4) 0.8374(3) 0.4000(4)
N1 N 0.1954(3) 0.9457(2) 0.4138(3)
N2 N 0.1231(3) 0.8044(2) 0.5697(3)
C1 C -0.0713(4) 0.8708(2) 0.3729(3)
C2 C -0.1525(4) 0.9257(3) 0.4760(3)
H1 H -0.1094 0.9349 0.5668
C3 C -0.2925(4) 0.9670(3) 0.4514(4)
H2 H -0.3418 1.0041 0.5237
C4 C -0.3586(4) 0.9531(3) 0.3204(5)
H3 H -0.4539 0.9804 0.3026
C5 C -0.2850(5) 0.8991(3) 0.2149(4)
H4 H -0.3306 0.8894 0.1253
C6 C -0.1432(4) 0.8587(2) 0.2401(3)
H5 H -0.0946 0.8225 0.1666
C7 C 0.1677(4) 0.7429(3) 0.3029(3)
C8 C 0.3163(4) 0.7481(3) 0.2654(3)
H6 H 0.3744 0.8078 0.2978
C9 C 0.3790(4) 0.6665(4) 0.1811(4)
H7 H 0.4776 0.6727 0.1554
C10 C 0.2967(7) 0.5772(4) 0.1358(4)
H8 H 0.3401 0.5211 0.0819
C11 C 0.1523(6) 0.5697(3) 0.1688(4)
H9 H 0.0956 0.5095 0.1356
C12 C 0.0882(4) 0.6518(3) 0.2524(4)
H10 H -0.0113 0.6451 0.2750
C13 C 0.0771(4) 0.7106(3) 0.6321(4)
H11 H 0.0268 0.6567 0.5778
C14 C 0.1034(4) 0.6928(3) 0.7769(4)
H12 H 0.0718 0.6274 0.8208
C15 C 0.1771(4) 0.7740(4) 0.8539(4)
H13 H 0.1947 0.7636 0.9515
C16 C 0.2255(4) 0.8705(3) 0.7899(4)
H14 H 0.2753 0.9255 0.8429
C17 C 0.1982(4) 0.8836(3) 0.6440(4)
C18 C 0.2403(4) 0.9733(3) 0.5507(4)
C19 C 0.3102(4) 1.0708(3) 0.5577(4)
H15 H 0.3487 1.1055 0.6396
C20 C 0.3146(4) 1.1117(3) 0.4154(4)
C21 C 0.3758(4) 1.2080(3) 0.3508(5)
H16 H 0.4253 1.2625 0.4047
C22 C 0.3590(5) 1.2169(3) 0.2085(6)
C23 C 0.2880(4) 1.1398(4) 0.1235(5)
C24 C 0.2279(4) 1.0486(3) 0.1836(4)
C25 C 0.2413(4) 1.0317(3) 0.3303(4)
F1 F 0.1570(2) 0.97193(17) 0.09957(18)
F2 F 0.2742(2) 1.15541(18) -0.0196(2)
F3 F 0.4175(3) 1.30815(19) 0.1394(3)
loop_
_geom_bond_atom_site_label_1
_geom_bond_atom_site_label_2
_geom_bond_site_symmetry_1
_geom_bond_site_symmetry_2
B1 N1 1_555 1_555
N1 C18 1_555 1_555
N2 B1 1_555 1_555
C1 B1 1_555 1_555
C2 C1 1_555 1_555
H1 C2 1_555 1_555
C3 C2 1_555 1_555
H2 C3 1_555 1_555
C4 C3 1_555 1_555
H3 C4 1_555 1_555
C5 C4 1_555 1_555
H4 C5 1_555 1_555
C6 C1 1_555 1_555
H5 C6 1_555 1_555
C7 B1 1_555 1_555
C8 C7 1_555 1_555
H6 C8 1_555 1_555
C9 C8 1_555 1_555
H7 C9 1_555 1_555
C10 C9 1_555 1_555
H8 C10 1_555 1_555
C11 C10 1_555 1_555
H9 C11 1_555 1_555
C12 C7 1_555 1_555
H10 C12 1_555 1_555
C13 N2 1_555 1_555
H11 C13 1_555 1_555
C14 C13 1_555 1_555
H12 C14 1_555 1_555
C15 C14 1_555 1_555
H13 C15 1_555 1_555
C16 C15 1_555 1_555
H14 C16 1_555 1_555
C17 N2 1_555 1_555
C18 C17 1_555 1_555
C19 C18 1_555 1_555
H15 C19 1_555 1_555
C20 C19 1_555 1_555
C21 C20 1_555 1_555
H16 C21 1_555 1_555
C22 C21 1_555 1_555
C23 C22 1_555 1_555
C24 C23 1_555 1_555
C25 N1 1_555 1_555
F1 C24 1_555 1_555
F2 C23 1_555 1_555
F3 C22 1_555 1_555
C5 C6 1_555 1_555
C11 C12 1_555 1_555
C16 C17 1_555 1_555
C20 C25 1_555 1_555
C24 C25 1_555 1_555

#END
