
#######################################################################
#
#                 Cambridge Crystallographic Data Centre
#                                CCDC 
#
#######################################################################
#
# If this CIF has been generated from an entry in the Cambridge 
# Structural Database, then it will include bibliographic, chemical, 
# crystal, experimental, refinement or atomic coordinate data resulting 
# from the CCDC's data processing and validation procedures.
#
#######################################################################

data_VAWBEB
_chemical_formula_moiety         'C25 H17 B1 F2 N2'
_chemical_name_systematic        
Diphenyl-(5,7-difluoro-2-(2'-pyridyl)indole-N,N')-boron
_symmetry_cell_setting           monoclinic
_symmetry_space_group_name_H-M   'P 21'
_symmetry_Int_Tables_number      4
_space_group_name_Hall           'P 2yb'
loop_
_symmetry_equiv_pos_site_id
_symmetry_equiv_pos_as_xyz
1 x,y,z
2 -x,1/2+y,-z
_cell_length_a                   9.188(3)
_cell_length_b                   11.721(4)
_cell_length_c                   18.737(6)
_cell_angle_alpha                90
_cell_angle_beta                 91.697(7)
_cell_angle_gamma                90
_cell_volume                     2016.95
_exptl_crystal_colour            orange
_exptl_crystal_description       needle
_chemical_melting_point          'above 300deg.C'
_cell_formula_units_Z            4
_exptl_crystal_preparation       luminescent
loop_
_atom_site_label
_atom_site_type_symbol
_atom_site_fract_x
_atom_site_fract_y
_atom_site_fract_z
B1 B 0.8982(4) 0.6119(3) 0.0505(2)
N1 N 0.9089(3) 0.5018(2) 0.09884(14)
N2 N 1.0690(3) 0.6463(2) 0.06465(15)
C1 C 0.8003(3) 0.7093(3) 0.08465(19)
C2 C 0.7456(4) 0.8035(3) 0.0453(2)
H1 H 0.7653 0.8092 -0.0030
C3 C 0.6632(4) 0.8876(3) 0.0770(3)
H2 H 0.6300 0.9494 0.0499
C4 C 0.6302(5) 0.8809(4) 0.1472(3)
H3 H 0.5736 0.9371 0.1677
C5 C 0.6810(5) 0.7910(4) 0.1874(2)
H4 H 0.6587 0.7860 0.2354
C6 C 0.7650(4) 0.7077(3) 0.1568(2)
H5 H 0.7997 0.6481 0.1853
C7 C 0.8746(4) 0.5788(3) -0.03143(18)
C8 C 0.9830(4) 0.5321(3) -0.0702(2)
H6 H 1.0735 0.5224 -0.0474
C9 C 0.9686(5) 0.4985(3) -0.1402(2)
H7 H 1.0470 0.4663 -0.1632
C10 C 0.8367(6) 0.5130(3) -0.1761(2)
H8 H 0.8248 0.4904 -0.2234
C11 C 0.7232(5) 0.5613(3) -0.1407(2)
H9 H 0.6341 0.5728 -0.1645
C12 C 0.7413(4) 0.5932(3) -0.0689(2)
H10 H 0.6631 0.6248 -0.0455
C13 C 1.1355(4) 0.7385(3) 0.03801(18)
H11 H 1.0817 0.7911 0.0110
C14 C 1.2819(4) 0.7557(3) 0.0503(2)
H12 H 1.3275 0.8197 0.0319
C15 C 1.3601(4) 0.6771(4) 0.0901(2)
H13 H 1.4595 0.6877 0.0984
C16 C 1.2918(4) 0.5823(3) 0.11798(19)
H14 H 1.3437 0.5290 0.1453
C17 C 1.1458(4) 0.5695(3) 0.10409(18)
C18 C 1.0464(4) 0.4800(3) 0.12626(18)
C19 C 1.0499(4) 0.3824(3) 0.16819(19)
H15 H 1.1306 0.3504 0.1917
C20 C 0.9052(4) 0.3420(3) 0.16754(18)
C21 C 0.8372(5) 0.2479(3) 0.2002(2)
H16 H 0.8904 0.1966 0.2284
C22 C 0.6952(5) 0.2359(3) 0.1891(2)
C23 C 0.6061(4) 0.3087(3) 0.1467(2)
H17 H 0.5065 0.2963 0.1407
C24 C 0.6730(4) 0.3973(3) 0.11536(19)
C25 C 0.8211(4) 0.4169(3) 0.12409(18)
F1 F 0.5936(2) 0.46999(17) 0.07259(11)
F2 F 0.6234(3) 0.14735(18) 0.22198(12)
B2 B 0.9040(5) -0.0042(4) 0.5623(2)
N3 N 0.8103(3) 0.1081(2) 0.55867(15)
N4 N 0.8910(3) -0.0282(3) 0.47640(15)
C26 C 0.8272(4) -0.1063(3) 0.60372(18)
C27 C 0.6831(4) -0.1010(3) 0.6233(2)
H18 H 0.6291 -0.0363 0.6113
C28 C 0.6167(5) -0.1870(4) 0.6596(2)
H19 H 0.5215 -0.1782 0.6742
C29 C 0.6918(5) -0.2876(4) 0.6746(2)
H20 H 0.6466 -0.3473 0.6979
C30 C 0.8308(5) -0.2972(4) 0.6549(2)
H21 H 0.8809 -0.3649 0.6640
C31 C 0.9008(5) -0.2080(3) 0.62140(19)
H22 H 0.9984 -0.2157 0.6104
C32 C 1.0704(4) 0.0239(3) 0.5843(2)
C33 C 1.1302(4) 0.0039(3) 0.6520(2)
H23 H 1.0739 -0.0333 0.6852
C34 C 1.2700(5) 0.0368(4) 0.6721(3)
H24 H 1.3061 0.0215 0.7180
C35 C 1.3551(5) 0.0919(4) 0.6242(3)
H25 H 1.4489 0.1147 0.6376
C36 C 1.3025(5) 0.1134(4) 0.5573(3)
H26 H 1.3604 0.1509 0.5249
C37 C 1.1613(5) 0.0792(3) 0.5365(2)
H27 H 1.1273 0.0936 0.4901
C38 C 0.9436(4) -0.1192(3) 0.4419(2)
H28 H 0.9945 -0.1754 0.4673
C39 C 0.9225(5) -0.1295(4) 0.3695(3)
H29 H 0.9614 -0.1911 0.3452
C40 C 0.8432(5) -0.0476(5) 0.3330(2)
H30 H 0.8250 -0.0556 0.2842
C41 C 0.7898(4) 0.0468(4) 0.3685(2)
H31 H 0.7398 0.1041 0.3438
C42 C 0.8127(4) 0.0529(3) 0.4404(2)
C43 C 0.7658(4) 0.1385(3) 0.4902(2)
C44 C 0.6861(4) 0.2382(3) 0.4889(2)
H32 H 0.6472 0.2755 0.4488
C45 C 0.6757(4) 0.2721(3) 0.5609(2)
C46 C 0.6065(4) 0.3630(3) 0.5959(2)
H33 H 0.5591 0.4204 0.5700
C47 C 0.6113(4) 0.3641(3) 0.6669(3)
C48 C 0.6881(5) 0.2864(3) 0.7107(2)
H34 H 0.6918 0.2934 0.7601
C49 C 0.7566(4) 0.2005(3) 0.6768(2)
C50 C 0.7546(4) 0.1903(3) 0.6034(2)
F3 F 0.8338(3) 0.12239(19) 0.71636(11)
F4 F 0.5418(3) 0.45045(18) 0.70271(13)
loop_
_geom_bond_atom_site_label_1
_geom_bond_atom_site_label_2
_geom_bond_site_symmetry_1
_geom_bond_site_symmetry_2
B1 N1 1_555 1_555
B2 N3 1_555 1_555
N1 C18 1_555 1_555
N2 B1 1_555 1_555
N3 C43 1_555 1_555
N4 B2 1_555 1_555
C1 B1 1_555 1_555
C2 C1 1_555 1_555
H1 C2 1_555 1_555
C3 C2 1_555 1_555
H2 C3 1_555 1_555
C4 C3 1_555 1_555
H3 C4 1_555 1_555
C5 C4 1_555 1_555
H4 C5 1_555 1_555
C6 C1 1_555 1_555
H5 C6 1_555 1_555
C7 B1 1_555 1_555
C8 C7 1_555 1_555
H6 C8 1_555 1_555
C9 C8 1_555 1_555
H7 C9 1_555 1_555
C10 C9 1_555 1_555
H8 C10 1_555 1_555
C11 C10 1_555 1_555
H9 C11 1_555 1_555
C12 C7 1_555 1_555
H10 C12 1_555 1_555
C13 N2 1_555 1_555
H11 C13 1_555 1_555
C14 C13 1_555 1_555
H12 C14 1_555 1_555
C15 C14 1_555 1_555
H13 C15 1_555 1_555
C16 C15 1_555 1_555
H14 C16 1_555 1_555
C17 N2 1_555 1_555
C18 C17 1_555 1_555
C19 C18 1_555 1_555
H15 C19 1_555 1_555
C20 C19 1_555 1_555
C21 C20 1_555 1_555
H16 C21 1_555 1_555
C22 C21 1_555 1_555
C23 C22 1_555 1_555
H17 C23 1_555 1_555
C24 C23 1_555 1_555
C25 N1 1_555 1_555
C26 B2 1_555 1_555
C27 C26 1_555 1_555
H18 C27 1_555 1_555
C28 C27 1_555 1_555
H19 C28 1_555 1_555
C29 C28 1_555 1_555
H20 C29 1_555 1_555
C30 C29 1_555 1_555
H21 C30 1_555 1_555
C31 C26 1_555 1_555
H22 C31 1_555 1_555
C32 B2 1_555 1_555
C33 C32 1_555 1_555
H23 C33 1_555 1_555
C34 C33 1_555 1_555
H24 C34 1_555 1_555
C35 C34 1_555 1_555
H25 C35 1_555 1_555
C36 C35 1_555 1_555
H26 C36 1_555 1_555
C37 C32 1_555 1_555
H27 C37 1_555 1_555
C38 N4 1_555 1_555
H28 C38 1_555 1_555
C39 C38 1_555 1_555
H29 C39 1_555 1_555
C40 C39 1_555 1_555
H30 C40 1_555 1_555
C41 C40 1_555 1_555
H31 C41 1_555 1_555
C42 N4 1_555 1_555
C43 C42 1_555 1_555
C44 C43 1_555 1_555
H32 C44 1_555 1_555
C45 C44 1_555 1_555
C46 C45 1_555 1_555
H33 C46 1_555 1_555
C47 C46 1_555 1_555
C48 C47 1_555 1_555
H34 C48 1_555 1_555
C49 C48 1_555 1_555
C50 N3 1_555 1_555
F1 C24 1_555 1_555
F2 C22 1_555 1_555
F3 C49 1_555 1_555
F4 C47 1_555 1_555
C5 C6 1_555 1_555
C11 C12 1_555 1_555
C16 C17 1_555 1_555
C20 C25 1_555 1_555
C24 C25 1_555 1_555
C30 C31 1_555 1_555
C36 C37 1_555 1_555
C41 C42 1_555 1_555
C45 C50 1_555 1_555
C49 C50 1_555 1_555

#END
