
#######################################################################
#
#                 Cambridge Crystallographic Data Centre
#                                CCDC 
#
#######################################################################
#
# If this CIF has been generated from an entry in the Cambridge 
# Structural Database, then it will include bibliographic, chemical, 
# crystal, experimental, refinement or atomic coordinate data resulting 
# from the CCDC's data processing and validation procedures.
#
#######################################################################

data_VAWCIG
_chemical_formula_moiety         'C28 H20 B1 N3'
_chemical_name_systematic        
Diphenyl-(2-(8'-quinolyl)-7-azaindole-N,N')-boron
_symmetry_cell_setting           monoclinic
_symmetry_space_group_name_H-M   'C 2/c'
_symmetry_Int_Tables_number      15
_space_group_name_Hall           '-C 2yn'
loop_
_symmetry_equiv_pos_site_id
_symmetry_equiv_pos_as_xyz
1 x,y,z
2 1/2+x,1/2+y,z
3 -x,y,1/2-z
4 1/2-x,1/2+y,1/2-z
5 -x,-y,-z
6 1/2-x,1/2-y,-z
7 x,-y,1/2+z
8 1/2+x,1/2-y,1/2+z
_cell_length_a                   20.246(9)
_cell_length_b                   11.547(5)
_cell_length_c                   17.962(8)
_cell_angle_alpha                90
_cell_angle_beta                 91.728(9)
_cell_angle_gamma                90
_cell_volume                     4197.26
_exptl_crystal_colour            orange
_exptl_crystal_description       plate
_chemical_melting_point          221-223deg.C.(dec.)
_cell_formula_units_Z            8
_exptl_crystal_preparation       luminescent
loop_
_atom_site_label
_atom_site_type_symbol
_atom_site_fract_x
_atom_site_fract_y
_atom_site_fract_z
B1 B 0.2018(4) -0.0979(6) 0.1761(4)
N1 N 0.2009(3) 0.0217(4) 0.1353(2)
N2 N 0.2816(3) -0.1300(4) 0.1843(2)
N3 N 0.0838(3) 0.0423(4) 0.1139(3)
C1 C 0.1680(3) -0.1976(5) 0.1248(3)
C2 C 0.1721(3) -0.1936(5) 0.0497(3)
H1 H 0.1918 -0.1296 0.0281
C3 C 0.1480(4) -0.2817(6) 0.0038(4)
H2 H 0.1500 -0.2743 -0.0477
C4 C 0.1212(3) -0.3793(6) 0.0340(4)
H3 H 0.1052 -0.4387 0.0035
C5 C 0.1185(3) -0.3880(5) 0.1098(4)
H4 H 0.1012 -0.4543 0.1313
C6 C 0.1414(3) -0.2982(5) 0.1547(3)
H5 H 0.1389 -0.3052 0.2061
C7 C 0.1756(3) -0.0816(4) 0.2597(3)
C8 C 0.1103(3) -0.0944(4) 0.2751(3)
H6 H 0.0809 -0.1173 0.2371
C9 C 0.0867(3) -0.0743(5) 0.3454(4)
H7 H 0.0421 -0.0853 0.3543
C10 C 0.1281(4) -0.0387(5) 0.4011(4)
H8 H 0.1119 -0.0249 0.4482
C11 C 0.1936(4) -0.0229(5) 0.3888(4)
H9 H 0.2219 0.0031 0.4269
C12 C 0.2177(3) -0.0461(4) 0.3183(4)
H10 H 0.2627 -0.0377 0.3103
C13 C 0.2946(3) -0.2371(5) 0.2097(3)
H11 H 0.2597 -0.2863 0.2201
C14 C 0.3593(4) -0.2764(5) 0.2211(3)
H12 H 0.3668 -0.3500 0.2407
C15 C 0.4099(3) -0.2104(6) 0.2043(3)
H13 H 0.4528 -0.2389 0.2091
C16 C 0.3987(4) -0.0969(6) 0.1790(3)
C17 C 0.3330(4) -0.0577(5) 0.1683(3)
C18 C 0.4513(4) -0.0192(7) 0.1624(3)
H14 H 0.4948 -0.0445 0.1665
C19 C 0.4381(4) 0.0901(6) 0.1407(4)
H15 H 0.4724 0.1420 0.1334
C20 C 0.3730(4) 0.1249(5) 0.1295(3)
H16 H 0.3651 0.2004 0.1135
C21 C 0.3193(4) 0.0542(5) 0.1407(3)
C22 C 0.2542(4) 0.0922(5) 0.1231(3)
C23 C 0.2330(4) 0.1945(5) 0.0918(3)
H17 H 0.2597 0.2562 0.0783
C24 C 0.1647(4) 0.1897(5) 0.0838(3)
C25 C 0.1155(4) 0.2635(5) 0.0586(4)
H18 H 0.1256 0.3372 0.0414
C26 C 0.0520(4) 0.2260(6) 0.0594(4)
H19 H 0.0177 0.2729 0.0414
C27 C 0.0390(4) 0.1165(6) 0.0875(4)
H20 H -0.0050 0.0933 0.0879
C28 C 0.1455(4) 0.0803(5) 0.1112(3)
loop_
_geom_bond_atom_site_label_1
_geom_bond_atom_site_label_2
_geom_bond_site_symmetry_1
_geom_bond_site_symmetry_2
B1 N1 1_555 1_555
N1 C22 1_555 1_555
N2 B1 1_555 1_555
N3 C27 1_555 1_555
C1 B1 1_555 1_555
C2 C1 1_555 1_555
H1 C2 1_555 1_555
C3 C2 1_555 1_555
H2 C3 1_555 1_555
C4 C3 1_555 1_555
H3 C4 1_555 1_555
C5 C4 1_555 1_555
H4 C5 1_555 1_555
C6 C1 1_555 1_555
H5 C6 1_555 1_555
C7 B1 1_555 1_555
C8 C7 1_555 1_555
H6 C8 1_555 1_555
C9 C8 1_555 1_555
H7 C9 1_555 1_555
C10 C9 1_555 1_555
H8 C10 1_555 1_555
C11 C10 1_555 1_555
H9 C11 1_555 1_555
C12 C7 1_555 1_555
H10 C12 1_555 1_555
C13 N2 1_555 1_555
H11 C13 1_555 1_555
C14 C13 1_555 1_555
H12 C14 1_555 1_555
C15 C14 1_555 1_555
H13 C15 1_555 1_555
C16 C15 1_555 1_555
C17 N2 1_555 1_555
C18 C16 1_555 1_555
H14 C18 1_555 1_555
C19 C18 1_555 1_555
H15 C19 1_555 1_555
C20 C19 1_555 1_555
H16 C20 1_555 1_555
C21 C17 1_555 1_555
C22 C21 1_555 1_555
C23 C22 1_555 1_555
H17 C23 1_555 1_555
C24 C23 1_555 1_555
C25 C24 1_555 1_555
H18 C25 1_555 1_555
C26 C25 1_555 1_555
H19 C26 1_555 1_555
C27 C26 1_555 1_555
H20 C27 1_555 1_555
C28 N1 1_555 1_555
N3 C28 1_555 1_555
C5 C6 1_555 1_555
C11 C12 1_555 1_555
C16 C17 1_555 1_555
C20 C21 1_555 1_555
C24 C28 1_555 1_555

#END
