
#######################################################################
#
#                 Cambridge Crystallographic Data Centre
#                                CCDC 
#
#######################################################################
#
# If this CIF has been generated from an entry in the Cambridge 
# Structural Database, then it will include bibliographic, chemical, 
# crystal, experimental, refinement or atomic coordinate data resulting 
# from the CCDC's data processing and validation procedures.
#
#######################################################################

data_VAWHOS
_chemical_formula_moiety         'C22 H15 Cl1 N2 O3'
_chemical_name_systematic        
(2-Chloro-4-nitrophenyl)(2-(quinolin-2-yl)phenyl)methanol
_symmetry_cell_setting           triclinic
_symmetry_space_group_name_H-M   'P -1'
_symmetry_Int_Tables_number      2
_space_group_name_Hall           '-P 1'
loop_
_symmetry_equiv_pos_site_id
_symmetry_equiv_pos_as_xyz
1 x,y,z
2 -x,-y,-z
_cell_length_a                   6.6099(13)
_cell_length_b                   10.144(2)
_cell_length_c                   14.147(3)
_cell_angle_alpha                102.26(3)
_cell_angle_beta                 92.21(3)
_cell_angle_gamma                99.96(3)
_cell_volume                     910.167
_exptl_crystal_colour            colorless
_exptl_crystal_description       block
_cell_formula_units_Z            2
loop_
_atom_site_label
_atom_site_type_symbol
_atom_site_fract_x
_atom_site_fract_y
_atom_site_fract_z
Cl1 Cl 0.20970(8) 0.13257(6) 0.57563(4)
O1 O -0.1098(2) 0.33298(13) 0.81899(9)
H1 H -0.0664 0.3074 0.8675
O2 O -0.3239(2) 0.45995(16) 0.37596(11)
O3 O -0.1185(3) 0.33010(18) 0.30934(11)
N1 N 0.1337(2) 0.21137(16) 0.93382(10)
N2 N -0.2037(3) 0.38135(17) 0.37915(12)
C1 C 0.3047(3) 0.27591(19) 0.99468(12)
C2 C 0.2959(3) 0.4005(2) 1.06077(13)
H2 H 0.1721 0.4363 1.0634
C3 C 0.4657(3) 0.4695(2) 1.12091(13)
H3 H 0.4590 0.5534 1.1648
C4 C 0.6501(3) 0.4176(2) 1.11849(14)
H4 H 0.7666 0.4665 1.1607
C5 C 0.6623(3) 0.2975(2) 1.05594(15)
H5 H 0.7873 0.2631 1.0548
C6 C 0.4899(3) 0.2235(2) 0.99256(13)
C7 C 0.4922(3) 0.0980(2) 0.92670(14)
H6 H 0.6140 0.0599 0.9228
C8 C 0.3196(3) 0.0316(2) 0.86868(14)
H7 H 0.3183 -0.0545 0.8258
C9 C 0.1421(3) 0.09279(18) 0.87314(12)
C10 C -0.0418(3) 0.02497(19) 0.80569(13)
C11 C -0.1313(3) -0.11095(19) 0.80492(14)
H8 H -0.0730 -0.1584 0.8470
C12 C -0.3034(3) -0.1768(2) 0.74358(16)
H9 H -0.3647 -0.2684 0.7445
C13 C -0.3866(3) -0.1090(2) 0.68070(15)
H10 H -0.5042 -0.1543 0.6380
C14 C -0.2978(3) 0.0252(2) 0.68016(14)
H11 H -0.3553 0.0708 0.6366
C15 C -0.1261(3) 0.09401(18) 0.74213(13)
C16 C -0.0315(3) 0.24261(18) 0.74391(13)
H12 H 0.1211 0.2553 0.7574
C17 C -0.0749(3) 0.28087(18) 0.64858(13)
C18 C 0.0251(3) 0.23301(18) 0.56688(13)
C19 C -0.0159(3) 0.26330(19) 0.47786(13)
H13 H 0.0521 0.2286 0.4226
C20 C -0.1601(3) 0.34619(18) 0.47267(13)
C21 C -0.2620(3) 0.3980(2) 0.55124(14)
H14 H -0.3594 0.4552 0.5456
C22 C -0.2181(3) 0.3641(2) 0.63906(14)
H15 H -0.2874 0.3986 0.6939
loop_
_geom_bond_atom_site_label_1
_geom_bond_atom_site_label_2
_geom_bond_site_symmetry_1
_geom_bond_site_symmetry_2
Cl1 C18 1_555 1_555
O1 H1 1_555 1_555
O2 N2 1_555 1_555
O3 N2 1_555 1_555
N1 C1 1_555 1_555
N2 C20 1_555 1_555
C1 C2 1_555 1_555
C2 H2 1_555 1_555
C3 C2 1_555 1_555
H3 C3 1_555 1_555
C4 C3 1_555 1_555
H4 C4 1_555 1_555
C5 C4 1_555 1_555
H5 C5 1_555 1_555
C6 C1 1_555 1_555
C7 C6 1_555 1_555
H6 C7 1_555 1_555
C8 C7 1_555 1_555
H7 C8 1_555 1_555
C9 N1 1_555 1_555
C10 C9 1_555 1_555
C11 C10 1_555 1_555
H8 C11 1_555 1_555
C12 C11 1_555 1_555
H9 C12 1_555 1_555
C13 C12 1_555 1_555
H10 C13 1_555 1_555
C14 C13 1_555 1_555
H11 C14 1_555 1_555
C15 C10 1_555 1_555
C16 O1 1_555 1_555
H12 C16 1_555 1_555
C17 C16 1_555 1_555
C18 C17 1_555 1_555
C19 C18 1_555 1_555
H13 C19 1_555 1_555
C20 C19 1_555 1_555
C21 C20 1_555 1_555
H14 C21 1_555 1_555
C22 C17 1_555 1_555
H15 C22 1_555 1_555
C5 C6 1_555 1_555
C8 C9 1_555 1_555
C14 C15 1_555 1_555
C15 C16 1_555 1_555
C21 C22 1_555 1_555

#END
