
#######################################################################
#
#                 Cambridge Crystallographic Data Centre
#                                CCDC 
#
#######################################################################
#
# If this CIF has been generated from an entry in the Cambridge 
# Structural Database, then it will include bibliographic, chemical, 
# crystal, experimental, refinement or atomic coordinate data resulting 
# from the CCDC's data processing and validation procedures.
#
#######################################################################

data_VAWHUY
_chemical_formula_moiety         'C13 H15 Cl1 N2 O2'
_chemical_name_systematic        
3-(5-((4-Chlorophenyl)amino)-3-methyl-1,2-oxazol-4-yl)propan-1-ol
_symmetry_cell_setting           monoclinic
_symmetry_space_group_name_H-M   'P 21/n'
_symmetry_Int_Tables_number      14
_space_group_name_Hall           '-P 2yn'
loop_
_symmetry_equiv_pos_site_id
_symmetry_equiv_pos_as_xyz
1 x,y,z
2 1/2-x,1/2+y,1/2-z
3 -x,-y,-z
4 1/2+x,1/2-y,1/2+z
_cell_length_a                   16.142(3)
_cell_length_b                   8.118(4)
_cell_length_c                   20.461(6)
_cell_angle_alpha                90
_cell_angle_beta                 97.661(6)
_cell_angle_gamma                90
_cell_volume                     2657.29
_exptl_crystal_colour            colorless
_exptl_crystal_description       block
_cell_formula_units_Z            8
loop_
_atom_site_label
_atom_site_type_symbol
_atom_site_fract_x
_atom_site_fract_y
_atom_site_fract_z
Cl1 Cl 0.39936(6) 0.30025(12) 0.20131(4)
O2 O 0.39492(13) 0.0542(2) -0.11870(9)
N2 N 0.41218(17) 0.3283(3) -0.08572(12)
N3 N 0.39633(17) -0.0402(3) -0.17784(12)
O4 O 0.36485(17) 0.6238(3) -0.15046(11)
C1 C 0.40334(18) 0.4584(4) 0.01734(14)
H1 H 0.4002 0.5589 -0.0047
C4 C 0.41795(18) 0.2304(4) -0.19878(13)
C6 C 0.40907(18) 0.2122(3) -0.13386(13)
C8 C 0.4365(2) 0.3837(4) -0.23464(15)
H3 H 0.4636 0.3525 -0.2724
H4 H 0.4762 0.4490 -0.2057
C9 C 0.41110(17) 0.3132(4) -0.01776(13)
C13 C 0.41779(18) 0.1639(4) 0.01592(14)
H6 H 0.4240 0.0663 -0.0067
C14 C 0.41021(19) 0.0674(4) -0.22313(14)
C18 C 0.40544(19) 0.3059(4) 0.11667(14)
C19 C 0.4151(2) 0.1615(4) 0.08343(14)
H12 H 0.4199 0.0620 0.1062
C20 C 0.40021(18) 0.4550(4) 0.08426(14)
H13 H 0.3946 0.5522 0.1073
C21 C 0.3132(2) 0.5532(4) -0.20498(17)
H14 H 0.2727 0.6347 -0.2234
H15 H 0.2826 0.4615 -0.1894
C24 C 0.3614(2) 0.4925(4) -0.25898(15)
H19 H 0.3808 0.5871 -0.2816
H20 H 0.3237 0.4308 -0.2908
C25 C 0.4185(2) 0.0087(4) -0.29086(15)
H21 H 0.4105 -0.1084 -0.2931
H22 H 0.4732 0.0352 -0.3012
H23 H 0.3771 0.0615 -0.3220
H28 H 0.4106(19) 0.420(4) -0.1011(14)
H30 H 0.377(2) 0.710(4) -0.1620(15)
Cl2 Cl -0.36620(5) 0.17634(11) -0.21077(5)
O1 O 0.01944(13) -0.1193(2) -0.07962(10)
N1 N -0.00549(17) 0.1558(3) -0.10925(13)
O3 O 0.06708(14) 0.4433(3) -0.05621(10)
N4 N 0.08968(17) -0.2187(3) -0.05343(13)
C2 C 0.13247(18) 0.0439(3) -0.06574(13)
C3 C -0.13148(19) 0.3016(4) -0.14465(13)
H2 H -0.1010 0.3985 -0.1372
C5 C 0.04890(19) 0.0348(3) -0.08544(13)
C7 C -0.26020(19) 0.1663(4) -0.17991(14)
C10 C -0.09150(18) 0.1498(4) -0.13149(13)
C11 C -0.13822(19) 0.0058(4) -0.14297(14)
H5 H -0.1129 -0.0962 -0.1344
C12 C 0.15419(19) -0.1187(4) -0.04566(14)
C15 C 0.1111(2) 0.3744(4) 0.00269(15)
H7 H 0.0775 0.2878 0.0186
H8 H 0.1196 0.4591 0.0364
C16 C -0.21523(19) 0.3095(4) -0.16849(14)
H9 H -0.2412 0.4110 -0.1768
C17 C 0.18909(19) 0.1892(4) -0.06743(15)
H10 H 0.1706 0.2522 -0.1070
H11 H 0.2449 0.1492 -0.0710
C22 C 0.1940(2) 0.3050(4) -0.00837(16)
H16 H 0.2177 0.2457 0.0309
H17 H 0.2315 0.3951 -0.0149
C23 C -0.22228(19) 0.0148(4) -0.16718(15)
H18 H -0.2534 -0.0813 -0.1749
C26 C 0.2385(2) -0.1842(4) -0.01933(18)
H24 H 0.2342 -0.2994 -0.0098
H25 H 0.2595 -0.1263 0.0203
H26 H 0.2759 -0.1689 -0.0515
H27 H 0.012(2) 0.248(4) -0.1008(15)
H29 H 0.072(3) 0.551(6) -0.0563(19)
loop_
_geom_bond_atom_site_label_1
_geom_bond_atom_site_label_2
_geom_bond_site_symmetry_1
_geom_bond_site_symmetry_2
Cl1 C18 1_555 1_555
Cl2 C7 1_555 1_555
O1 N4 1_555 1_555
O2 N3 1_555 1_555
N1 C5 1_555 1_555
O3 C15 1_555 1_555
N2 C6 1_555 1_555
N3 C14 1_555 1_555
O4 C21 1_555 1_555
N4 C12 1_555 1_555
C1 H1 1_555 1_555
C2 C5 1_555 1_555
C3 H2 1_555 1_555
C4 C6 1_555 1_555
C5 O1 1_555 1_555
C6 O2 1_555 1_555
C7 C16 1_555 1_555
C8 C4 1_555 1_555
H3 C8 1_555 1_555
H4 C8 1_555 1_555
C9 N2 1_555 1_555
C10 N1 1_555 1_555
C11 C10 1_555 1_555
H5 C11 1_555 1_555
C12 C2 1_555 1_555
C13 C9 1_555 1_555
H6 C13 1_555 1_555
C14 C4 1_555 1_555
C15 H7 1_555 1_555
H8 C15 1_555 1_555
C16 C3 1_555 1_555
H9 C16 1_555 1_555
C17 C2 1_555 1_555
H10 C17 1_555 1_555
H11 C17 1_555 1_555
C18 C19 1_555 1_555
C19 C13 1_555 1_555
H12 C19 1_555 1_555
C20 C1 1_555 1_555
H13 C20 1_555 1_555
C21 H14 1_555 1_555
H15 C21 1_555 1_555
C22 C15 1_555 1_555
H16 C22 1_555 1_555
H17 C22 1_555 1_555
C23 C7 1_555 1_555
H18 C23 1_555 1_555
C24 C8 1_555 1_555
H19 C24 1_555 1_555
H20 C24 1_555 1_555
C25 C14 1_555 1_555
H21 C25 1_555 1_555
H22 C25 1_555 1_555
H23 C25 1_555 1_555
C26 C12 1_555 1_555
H24 C26 1_555 1_555
H25 C26 1_555 1_555
H26 C26 1_555 1_555
H27 N1 1_555 1_555
H28 N2 1_555 1_555
H29 O3 1_555 1_555
H30 O4 1_555 1_555
C1 C9 1_555 1_555
C3 C10 1_555 1_555
C11 C23 1_555 1_555
C17 C22 1_555 1_555
C18 C20 1_555 1_555
C21 C24 1_555 1_555

#END
