
#######################################################################
#
#                 Cambridge Crystallographic Data Centre
#                                CCDC 
#
#######################################################################
#
# If this CIF has been generated from an entry in the Cambridge 
# Structural Database, then it will include bibliographic, chemical, 
# crystal, experimental, refinement or atomic coordinate data resulting 
# from the CCDC's data processing and validation procedures.
#
#######################################################################

data_VAWJUA
_chemical_formula_moiety         'C30 H36 N4,2(C2 H6 O1 S1)'
_chemical_name_systematic        
'2,2,7,8,13,13,18,19-Octamethyl-23,24,25,26-tetra-azapentacyclo[18.2.1.1^3,6^.1^9,12^.1^14,17^]hexacosa-1(22),3,5,7,9,11,14,16,18,20-decaene dimethylsulfoxide solvate'
_symmetry_cell_setting           monoclinic
_symmetry_space_group_name_H-M   'P 21/c'
_symmetry_Int_Tables_number      14
_space_group_name_Hall           '-P 2ybc'
loop_
_symmetry_equiv_pos_site_id
_symmetry_equiv_pos_as_xyz
1 x,y,z
2 -x,1/2+y,1/2-z
3 -x,-y,-z
4 x,1/2-y,1/2+z
_cell_length_a                   8.627(8)
_cell_length_b                   21.841(8)
_cell_length_c                   9.936(5)
_cell_angle_alpha                90
_cell_angle_beta                 110.68(9)
_cell_angle_gamma                90
_cell_volume                     1751.54
_exptl_crystal_colour            colorless
_exptl_crystal_description       block
_cell_formula_units_Z            2
loop_
_atom_site_label
_atom_site_type_symbol
_atom_site_fract_x
_atom_site_fract_y
_atom_site_fract_z
C1 C 1.4422(3) 1.14497(11) 0.9558(2)
H1 H 1.4817 1.1107 1.0193
H2 H 1.3623 1.1674 0.9832
H3 H 1.5335 1.1713 0.9617
C2 C 1.3619(2) 1.12208(9) 0.80265(19)
C3 C 1.2528(2) 1.06743(9) 0.78927(17)
C4 C 1.2869(2) 1.00704(9) 0.81308(18)
H4 H 1.3917 0.9894 0.8470
C5 C 1.1330(2) 0.97537(9) 0.77675(16)
H5 H 1.1201 0.9332 0.7817
C6 C 1.0072(2) 1.01743(9) 0.73327(16)
C7 C 0.8219(2) 1.01068(9) 0.69785(18)
C8 C 0.7825(2) 1.02032(12) 0.8364(2)
H6 H 0.6647 1.0198 0.8133
H7 H 0.8261 1.0591 0.8785
H8 H 0.8323 0.9881 0.9034
C9 C 0.7264(2) 1.05956(9) 0.5862(2)
H9 H 0.7583 1.0570 0.5031
H10 H 0.7523 1.0996 0.6281
H11 H 0.6094 1.0524 0.5583
C10 C 0.7645(2) 0.94785(9) 0.63663(18)
C11 C 0.7179(2) 0.89667(11) 0.6925(2)
H12 H 0.7219 0.8919 0.7867
C12 C 0.6627(2) 0.85276(10) 0.5825(2)
H13 H 0.6247 0.8138 0.5923
C13 C 0.6739(2) 0.87644(9) 0.45845(19)
C14 C 0.6132(2) 0.85224(9) 0.3109(2)
C15 C 0.5090(2) 0.79447(9) 0.2947(2)
H14 H 0.4069 0.8044 0.3077
H15 H 0.5689 0.7650 0.3658
H16 H 0.4858 0.7776 0.2004
N1 N 1.08168(18) 1.07359(8) 0.74151(15)
N2 N 0.73858(18) 0.93464(8) 0.49595(17)
H20 H 0.754(2) 0.9585(9) 0.4358(18)
H21 H 1.031(2) 1.1133(9) 0.7230(18)
C1B C 0.5578(3) 0.85503(11) 0.0442(2)
H1B H 0.5183 0.8893 -0.0193
H2B H 0.6377 0.8326 0.0168
H3B H 0.4665 0.8287 0.0383
C2B C 0.6381(2) 0.87792(9) 0.19735(19)
C3B C 0.7472(2) 0.93257(9) 0.21073(17)
C4B C 0.7131(2) 0.99296(9) 0.18692(18)
H4B H 0.6083 1.0106 0.1530
C5B C 0.8670(2) 1.02463(9) 0.22325(16)
H5B H 0.8799 1.0668 0.2183
C6B C 0.9928(2) 0.98257(9) 0.26673(16)
C7B C 1.1781(2) 0.98932(9) 0.30215(18)
C8B C 1.2175(2) 0.97968(12) 0.1636(2)
H6B H 1.3353 0.9802 0.1867
H7B H 1.1739 0.9409 0.1215
H8B H 1.1677 1.0119 0.0966
C9B C 1.2736(2) 0.94044(9) 0.4138(2)
H9B H 1.2417 0.9430 0.4969
H10B H 1.2477 0.9004 0.3719
H11B H 1.3906 0.9476 0.4417
C10B C 1.2355(2) 1.05215(9) 0.36337(18)
C11B C 1.2821(2) 1.10333(11) 0.3075(2)
H12B H 1.2781 1.1081 0.2133
C12B C 1.3373(2) 1.14724(10) 0.4175(2)
H13B H 1.3753 1.1862 0.4077
C13B C 1.3261(2) 1.12356(9) 0.54155(19)
C14B C 1.3868(2) 1.14776(9) 0.6891(2)
C15B C 1.4910(2) 1.20553(9) 0.7053(2)
H14B H 1.5931 1.1956 0.6923
H15B H 1.4311 1.2350 0.6342
H16B H 1.5142 1.2224 0.7996
N1B N 0.91832(18) 0.92641(8) 0.25849(15)
N2B N 1.26142(18) 1.06536(8) 0.50405(17)
H20B H 1.246(2) 1.0415(9) 0.5642(18)
H21B H 0.969(2) 0.8867(9) 0.2770(18)
C16 C 1.0350(7) 0.2805(2) 0.5320(5)
H17 H 1.0605 0.3104 0.6074
H18 H 1.0038 0.3008 0.4406
H19 H 1.1306 0.2554 0.5451
S1 S 0.86458(11) 0.23272(4) 0.53717(8)
O1 O 0.93857(19) 0.19864(7) 0.67701(13)
C17 C 0.8713(5) 0.18483(18) 0.3982(3)
H22 H 0.964(4) 0.1732(19) 0.429(4)
H23 H 0.866(4) 0.2096(15) 0.319(3)
H24 H 0.771(4) 0.1623(16) 0.398(3)
C18? C 0.9245(13) 0.3034(5) 0.5258(11)
H25? H 0.8073 0.2965 0.4972
H26? H 0.9490 0.3213 0.4474
H27? H 0.9597 0.3306 0.6068
S2? S 1.0298(3) 0.23324(13) 0.5735(2)
loop_
_geom_bond_atom_site_label_1
_geom_bond_atom_site_label_2
_geom_bond_site_symmetry_1
_geom_bond_site_symmetry_2
C1 H1 1_555 1_555
H2 C1 1_555 1_555
H3 C1 1_555 1_555
C2 C1 1_555 1_555
C3 C2 1_555 1_555
C4 C3 1_555 1_555
H4 C4 1_555 1_555
C5 C4 1_555 1_555
H5 C5 1_555 1_555
C6 C5 1_555 1_555
C7 C6 1_555 1_555
C8 C7 1_555 1_555
H6 C8 1_555 1_555
H7 C8 1_555 1_555
H8 C8 1_555 1_555
C9 C7 1_555 1_555
H9 C9 1_555 1_555
H10 C9 1_555 1_555
H11 C9 1_555 1_555
C10 C7 1_555 1_555
C11 C10 1_555 1_555
H12 C11 1_555 1_555
C12 C11 1_555 1_555
H13 C12 1_555 1_555
C13 C12 1_555 1_555
C14 C13 1_555 1_555
C15 C14 1_555 1_555
H14 C15 1_555 1_555
H15 C15 1_555 1_555
H16 C15 1_555 1_555
C16 H17 1_555 1_555
H18 C16 1_555 1_555
H19 C16 1_555 1_555
S1 C16 1_555 1_555
N1 C3 1_555 1_555
N2 C10 1_555 1_555
O1 S1 1_555 1_555
H20 N2 1_555 1_555
H21 N1 1_555 1_555
C17 S1 1_555 1_555
H22 C17 1_555 1_555
H23 C17 1_555 1_555
H24 C17 1_555 1_555
C1B H1B 1_555 1_555
H2B C1B 1_555 1_555
H3B C1B 1_555 1_555
C2B C14 1_555 1_555
C3B C2B 1_555 1_555
C4B C3B 1_555 1_555
H4B C4B 1_555 1_555
C5B C4B 1_555 1_555
H5B C5B 1_555 1_555
C6B C5B 1_555 1_555
C7B C6B 1_555 1_555
C8B C7B 1_555 1_555
H6B C8B 1_555 1_555
H7B C8B 1_555 1_555
H8B C8B 1_555 1_555
C9B C7B 1_555 1_555
H9B C9B 1_555 1_555
H10B C9B 1_555 1_555
H11B C9B 1_555 1_555
C10B C7B 1_555 1_555
C11B C10B 1_555 1_555
H12B C11B 1_555 1_555
C12B C11B 1_555 1_555
H13B C12B 1_555 1_555
C13B C12B 1_555 1_555
C14B C2 1_555 1_555
C15B C14B 1_555 1_555
H14B C15B 1_555 1_555
H15B C15B 1_555 1_555
H16B C15B 1_555 1_555
N1B C3B 1_555 1_555
N2B C10B 1_555 1_555
H20B N2B 1_555 1_555
H21B N1B 1_555 1_555
C6 N1 1_555 1_555
C13 N2 1_555 1_555
C1B C2B 1_555 1_555
C6B N1B 1_555 1_555
C13B C14B 1_555 1_555
C13B N2B 1_555 1_555

#END
