
#######################################################################
#
#                 Cambridge Crystallographic Data Centre
#                                CCDC 
#
#######################################################################
#
# If this CIF has been generated from an entry in the Cambridge 
# Structural Database, then it will include bibliographic, chemical, 
# crystal, experimental, refinement or atomic coordinate data resulting 
# from the CCDC's data processing and validation procedures.
#
#######################################################################

data_VAWKEL
_chemical_formula_moiety         'C26 H28 N4'
_chemical_name_systematic        
2,2,13,13-Tetramethyl-23,24,25,26-tetra-azapentacyclo[18.2.1.1^3,6^.1^9,12^.1^14,17^]hexacosa-1(22),3,5,7,9,11,14,16,18,20-decaene
_symmetry_cell_setting           triclinic
_symmetry_space_group_name_H-M   'P -1'
_symmetry_Int_Tables_number      2
_space_group_name_Hall           '-P 1'
loop_
_symmetry_equiv_pos_site_id
_symmetry_equiv_pos_as_xyz
1 x,y,z
2 -x,-y,-z
_cell_length_a                   9.4161(12)
_cell_length_b                   9.7498(13)
_cell_length_c                   13.4677(17)
_cell_angle_alpha                110.833(2)
_cell_angle_beta                 93.481(2)
_cell_angle_gamma                102.570(2)
_cell_volume                     1114.87
_exptl_crystal_colour            colorless
_exptl_crystal_description       plate
_cell_formula_units_Z            2
loop_
_atom_site_label
_atom_site_type_symbol
_atom_site_fract_x
_atom_site_fract_y
_atom_site_fract_z
N1 N 0.7647(3) 0.0007(3) 0.43032(19)
N2 N 0.5881(3) 0.2852(3) 0.47774(19)
N3 N 0.7721(3) -0.0321(3) 0.1003(2)
C1 C 0.5969(3) 0.3494(3) 0.4015(2)
N4 N 0.6280(3) 0.2693(3) 0.1535(2)
C2 C 0.7247(3) 0.2900(3) 0.5216(2)
C3 C 0.7557(3) 0.0530(3) 0.5371(2)
C4 C 0.7474(3) 0.2143(3) 0.5992(2)
C5 C 0.7673(3) -0.1491(3) 0.3924(2)
C6 C 0.8216(3) -0.0597(4) 0.1877(2)
C7 C 0.7631(3) -0.1900(3) 0.4797(2)
H1 H 0.7651 -0.2852 0.4793
C8 C 0.7555(3) -0.0646(3) 0.5696(2)
H2 H 0.7510 -0.0620 0.6391
C9 C 0.8231(3) 0.3591(3) 0.4729(2)
H3 H 0.9250 0.3787 0.4867
C10 C 0.6721(4) 0.2428(3) 0.0556(2)
C11 C 0.4660(4) 0.3697(4) 0.3518(3)
C12 C 0.8422(3) 0.1098(4) 0.1064(2)
C13 C 0.7439(4) 0.3957(3) 0.3982(2)
H4 H 0.7847 0.4434 0.3540
C14 C 0.5134(4) 0.3374(3) 0.1636(2)
C15 C 0.7720(4) -0.2078(4) 0.1939(3)
C16 C 0.7584(4) -0.2427(4) 0.2806(3)
C17 C 0.6197(4) 0.2075(4) 0.6642(2)
H5 H 0.6091 0.3082 0.7009
H6 H 0.6397 0.1645 0.7158
H7 H 0.5304 0.1457 0.6166
C18 C 0.9272(3) 0.0684(4) 0.2502(3)
H8 H 0.9814 0.0837 0.3150
C19 C 0.8002(4) 0.1732(4) 0.0251(2)
C20 C 0.4362(4) 0.3712(4) 0.2543(3)
C21 C 0.9398(4) 0.1732(4) 0.1996(3)
H9 H 1.0040 0.2697 0.2253
C22 C 0.4871(4) 0.3556(4) 0.0686(3)
H10 H 0.4160 0.3998 0.0515
C23 C 0.5848(4) 0.2967(4) 0.0016(3)
H11 H 0.5895 0.2945 -0.0677
C24 C 0.8922(4) 0.3029(4) 0.6758(3)
H12 H 0.9721 0.3065 0.6350
H13 H 0.9085 0.2533 0.7240
H14 H 0.8866 0.4044 0.7164
C25 C 0.7566(5) 0.0490(4) -0.0879(3)
H15 H 0.8366 0.0033 -0.1070
H16 H 0.7341 0.0929 -0.1385
H17 H 0.6716 -0.0270 -0.0891
C26 C 0.9325(5) 0.2988(5) 0.0254(4)
H18 H 0.9557 0.3801 0.0947
H19 H 0.9080 0.3368 -0.0284
H20 H 1.0161 0.2577 0.0099
H21 H 0.766(3) 0.052(3) 0.391(2)
H22 H 0.666(3) 0.245(3) 0.205(2)
H23 H 0.705(3) -0.095(3) 0.051(2)
H24 H 0.508(3) 0.250(3) 0.493(2)
H25 H 0.391(3) 0.381(3) 0.397(2)
H26 H 0.735(3) -0.345(3) 0.2667(19)
H27 H 0.346(3) 0.393(3) 0.240(2)
H28 H 0.750(3) -0.289(3) 0.128(3)
loop_
_geom_bond_atom_site_label_1
_geom_bond_atom_site_label_2
_geom_bond_site_symmetry_1
_geom_bond_site_symmetry_2
N1 C3 1_555 1_555
N2 C1 1_555 1_555
N3 C6 1_555 1_555
C1 C11 1_555 1_555
N4 C10 1_555 1_555
C2 N2 1_555 1_555
C3 C4 1_555 1_555
C4 C2 1_555 1_555
C5 N1 1_555 1_555
C6 C15 1_555 1_555
C7 C5 1_555 1_555
H1 C7 1_555 1_555
C8 C3 1_555 1_555
H2 C8 1_555 1_555
C9 C2 1_555 1_555
H3 C9 1_555 1_555
C10 C19 1_555 1_555
C11 C20 1_555 1_555
C12 N3 1_555 1_555
C13 C1 1_555 1_555
H4 C13 1_555 1_555
C14 N4 1_555 1_555
C15 C16 1_555 1_555
C16 C5 1_555 1_555
C17 C4 1_555 1_555
H5 C17 1_555 1_555
H6 C17 1_555 1_555
H7 C17 1_555 1_555
C18 C6 1_555 1_555
H8 C18 1_555 1_555
C19 C12 1_555 1_555
C20 C14 1_555 1_555
C21 C12 1_555 1_555
H9 C21 1_555 1_555
C22 C14 1_555 1_555
H10 C22 1_555 1_555
C23 C10 1_555 1_555
H11 C23 1_555 1_555
C24 C4 1_555 1_555
H12 C24 1_555 1_555
H13 C24 1_555 1_555
H14 C24 1_555 1_555
C25 C19 1_555 1_555
H15 C25 1_555 1_555
H16 C25 1_555 1_555
H17 C25 1_555 1_555
C26 C19 1_555 1_555
H18 C26 1_555 1_555
H19 C26 1_555 1_555
H20 C26 1_555 1_555
H21 N1 1_555 1_555
H22 N4 1_555 1_555
H23 N3 1_555 1_555
H24 N2 1_555 1_555
H25 C11 1_555 1_555
H26 C16 1_555 1_555
H27 C20 1_555 1_555
H28 C15 1_555 1_555
C7 C8 1_555 1_555
C9 C13 1_555 1_555
C18 C21 1_555 1_555
C22 C23 1_555 1_555

#END
