
#######################################################################
#
#                 Cambridge Crystallographic Data Centre
#                                CCDC 
#
#######################################################################
#
# If this CIF has been generated from an entry in the Cambridge 
# Structural Database, then it will include bibliographic, chemical, 
# crystal, experimental, refinement or atomic coordinate data resulting 
# from the CCDC's data processing and validation procedures.
#
#######################################################################

data_VAWKAH
_chemical_formula_moiety         'C36 H44 N4'
_chemical_name_systematic        
7',8',18',19'-Tetramethyl-23',24',25',26'-tetra-azadispiro[cyclohexane-1,2'-pentacyclo[18.2.1.1^3,6^.1^9,12^.1^14,17^]hexacosane-13',1''-cyclohexane]-1'(22'),3',5',7',9',11',14',16',18',20'-decaene
_symmetry_cell_setting           tetragonal
_symmetry_space_group_name_H-M   'I 41/a'
_symmetry_Int_Tables_number      88
_space_group_name_Hall           '-I 4ad'
loop_
_symmetry_equiv_pos_site_id
_symmetry_equiv_pos_as_xyz
1 x,y,z
2 1/2-x,-y,1/2+z
3 3/4-y,1/4+x,1/4+z
4 3/4+y,3/4-x,3/4+z
5 1/2+x,1/2+y,1/2+z
6 -x,1/2-y,z
7 1/4-y,3/4+x,3/4+z
8 1/4+y,1/4-x,1/4+z
9 -x,-y,-z
10 1/2+x,y,1/2-z
11 1/4+y,3/4-x,3/4-z
12 1/4-y,1/4+x,1/4-z
13 1/2-x,1/2-y,1/2-z
14 x,1/2+y,-z
15 3/4+y,1/4-x,1/4-z
16 3/4-y,3/4+x,3/4-z
_cell_length_a                   13.9875(18)
_cell_length_b                   13.9875(18)
_cell_length_c                   31.440(7)
_cell_angle_alpha                90
_cell_angle_beta                 90
_cell_angle_gamma                90
_cell_volume                     6151.24
_exptl_crystal_colour            colorless
_exptl_crystal_description       block
_cell_formula_units_Z            8
loop_
_atom_site_label
_atom_site_type_symbol
_atom_site_fract_x
_atom_site_fract_y
_atom_site_fract_z
C1 C 1.0248(3) 0.9792(3) 0.10078(16)
C2 C 1.0333(3) 0.9967(3) 0.14288(16)
H1 H 1.0767 1.0387 0.1552
C3 C 0.9657(3) 0.9410(3) 0.16498(14)
H2 H 0.9578 0.9391 0.1943
C4 C 0.9139(3) 0.8905(2) 0.13618(13)
C5 C 0.8262(2) 0.8286(2) 0.13981(10)
C6 C 0.8143(2) 0.7709(2) 0.09986(10)
C7 C 0.7729(2) 0.7918(3) 0.06165(11)
H3 H 0.7397 0.8474 0.0551
C8 C 0.7890(3) 0.7145(3) 0.03401(11)
H4 H 0.7680 0.7106 0.0060
C9 C 0.8401(3) 0.6467(3) 0.05473(11)
C10 C 1.0782(3) 1.0095(3) 0.06248(16)
C11 C 0.7388(2) 0.8948(2) 0.14575(11)
H5 H 0.7514 0.9384 0.1691
H6 H 0.7304 0.9328 0.1202
C12 C 0.6467(2) 0.8411(3) 0.15477(12)
H7 H 0.5956 0.8866 0.1599
H8 H 0.6296 0.8031 0.1301
C13 C 0.6571(3) 0.7764(3) 0.19308(12)
H9 H 0.5996 0.7384 0.1964
H10 H 0.6648 0.8150 0.2185
C14 C 0.7427(3) 0.7105(3) 0.18832(10)
H11 H 0.7503 0.6733 0.2141
H12 H 0.7311 0.6664 0.1651
C15 C 0.8340(2) 0.7656(2) 0.17973(10)
H13 H 0.8863 0.7209 0.1761
H14 H 0.8484 0.8056 0.2041
C16 C 0.8660(3) 0.5498(3) 0.04142(13)
H15 H 0.934(2) 0.891(2) 0.0732(9)
H16 H 0.893(2) 0.650(2) 0.1139(9)
N1 N 0.9509(2) 0.9152(2) 0.09751(12)
N2 N 0.8550(2) 0.6826(2) 0.09543(9)
C17 C 1.0626(3) 1.1147(3) 0.05064(16)
H17 H 1.0688 1.1536 0.0756
H18 H 0.9997 1.1225 0.0389
H19 H 1.1094 1.1337 0.0300
C18 C 0.8187(3) 0.5198(3) -0.00023(12)
H20 H 0.8473 0.4616 -0.0102
H21 H 0.8275 0.5692 -0.0211
H22 H 0.7516 0.5099 0.0044
C1E C 0.9752(3) 0.5208(3) 0.10078(16)
C2E C 0.9667(3) 0.5033(3) 0.14288(16)
H1E H 0.9233 0.4613 0.1552
C3E C 1.0343(3) 0.5590(3) 0.16498(14)
H2E H 1.0422 0.5609 0.1943
C4E C 1.0861(3) 0.6095(2) 0.13618(13)
C5E C 1.1738(2) 0.6714(2) 0.13981(10)
C6E C 1.1857(2) 0.7291(2) 0.09986(10)
C7E C 1.2271(2) 0.7082(3) 0.06165(11)
H3E H 1.2603 0.6526 0.0551
C8E C 1.2110(3) 0.7855(3) 0.03401(11)
H4E H 1.2320 0.7894 0.0060
C9E C 1.1599(3) 0.8533(3) 0.05473(11)
C10E C 0.9218(3) 0.4905(3) 0.06248(16)
C11E C 1.2612(2) 0.6052(2) 0.14575(11)
H5E H 1.2486 0.5616 0.1691
H6E H 1.2696 0.5672 0.1202
C12E C 1.3533(2) 0.6589(3) 0.15477(12)
H7E H 1.4044 0.6134 0.1599
H8E H 1.3704 0.6969 0.1301
C13E C 1.3429(3) 0.7236(3) 0.19308(12)
H9E H 1.4004 0.7616 0.1964
H10E H 1.3352 0.6850 0.2185
C14E C 1.2573(3) 0.7895(3) 0.18832(10)
H11E H 1.2497 0.8267 0.2141
H12E H 1.2689 0.8336 0.1651
C15E C 1.1660(2) 0.7344(2) 0.17973(10)
H13E H 1.1137 0.7791 0.1761
H14E H 1.1516 0.6944 0.2041
C16E C 1.1340(3) 0.9502(3) 0.04142(13)
H15E H 1.066(2) 0.609(2) 0.0732(9)
H16E H 1.107(2) 0.850(2) 0.1139(9)
N1E N 1.0491(2) 0.5848(2) 0.09751(12)
N2E N 1.1450(2) 0.8174(2) 0.09543(9)
C17E C 0.9374(3) 0.3853(3) 0.05064(16)
H17E H 0.9312 0.3464 0.0756
H18E H 1.0003 0.3775 0.0389
H19E H 0.8906 0.3663 0.0300
C18E C 1.1813(3) 0.9802(3) -0.00023(12)
H20E H 1.1527 1.0384 -0.0102
H21E H 1.1725 0.9308 -0.0211
H22E H 1.2484 0.9901 0.0044
loop_
_geom_bond_atom_site_label_1
_geom_bond_atom_site_label_2
_geom_bond_site_symmetry_1
_geom_bond_site_symmetry_2
C1 C2 1_555 1_555
C2 H1 1_555 1_555
C3 C2 1_555 1_555
H2 C3 1_555 1_555
C4 C3 1_555 1_555
C5 C4 1_555 1_555
C6 C5 1_555 1_555
C7 C6 1_555 1_555
H3 C7 1_555 1_555
C8 C7 1_555 1_555
H4 C8 1_555 1_555
C9 C8 1_555 1_555
C10 C1 1_555 1_555
C11 C5 1_555 1_555
H5 C11 1_555 1_555
H6 C11 1_555 1_555
C12 C11 1_555 1_555
H7 C12 1_555 1_555
H8 C12 1_555 1_555
C13 C12 1_555 1_555
H9 C13 1_555 1_555
H10 C13 1_555 1_555
C14 C13 1_555 1_555
H11 C14 1_555 1_555
H12 C14 1_555 1_555
C15 C5 1_555 1_555
H13 C15 1_555 1_555
H14 C15 1_555 1_555
C16 C9 1_555 1_555
H15 N1 1_555 1_555
H16 N2 1_555 1_555
N1 C1 1_555 1_555
N2 C6 1_555 1_555
C17 C10 1_555 1_555
H17 C17 1_555 1_555
H18 C17 1_555 1_555
H19 C17 1_555 1_555
C18 C16 1_555 1_555
H20 C18 1_555 1_555
H21 C18 1_555 1_555
H22 C18 1_555 1_555
C1E C2E 1_555 1_555
C2E H1E 1_555 1_555
C3E C2E 1_555 1_555
H2E C3E 1_555 1_555
C4E C3E 1_555 1_555
C5E C4E 1_555 1_555
C6E C5E 1_555 1_555
C7E C6E 1_555 1_555
H3E C7E 1_555 1_555
C8E C7E 1_555 1_555
H4E C8E 1_555 1_555
C9E C8E 1_555 1_555
C10E C16 1_555 1_555
C11E C5E 1_555 1_555
H5E C11E 1_555 1_555
H6E C11E 1_555 1_555
C12E C11E 1_555 1_555
H7E C12E 1_555 1_555
H8E C12E 1_555 1_555
C13E C12E 1_555 1_555
H9E C13E 1_555 1_555
H10E C13E 1_555 1_555
C14E C13E 1_555 1_555
H11E C14E 1_555 1_555
H12E C14E 1_555 1_555
C15E C5E 1_555 1_555
H13E C15E 1_555 1_555
H14E C15E 1_555 1_555
C16E C10 1_555 1_555
H15E N1E 1_555 1_555
H16E N2E 1_555 1_555
N1E C1E 1_555 1_555
N2E C6E 1_555 1_555
C17E C10E 1_555 1_555
H17E C17E 1_555 1_555
H18E C17E 1_555 1_555
H19E C17E 1_555 1_555
C18E C16E 1_555 1_555
H20E C18E 1_555 1_555
H21E C18E 1_555 1_555
H22E C18E 1_555 1_555
C4 N1 1_555 1_555
C9 N2 1_555 1_555
C14 C15 1_555 1_555
C1E C10E 1_555 1_555
C4E N1E 1_555 1_555
C9E C16E 1_555 1_555
C9E N2E 1_555 1_555
C14E C15E 1_555 1_555

#END
