
#######################################################################
#
#                 Cambridge Crystallographic Data Centre
#                                CCDC 
#
#######################################################################
#
# If this CIF has been generated from an entry in the Cambridge 
# Structural Database, then it will include bibliographic, chemical, 
# crystal, experimental, refinement or atomic coordinate data resulting 
# from the CCDC's data processing and validation procedures.
#
#######################################################################

data_VAWKUC
_chemical_formula_moiety         'C22 H28 N2 O3'
_chemical_name_systematic        
4,17-dihydroxy-5,7-dimethyl-12-methylene-16-oxo-7-azahexacyclo[11.3.2.1^1,5^.0^8,19^.0^10,15^.0^10,17^]nonadecane-6-carbonitrile
_symmetry_cell_setting           monoclinic
_symmetry_space_group_name_H-M   'P 21'
_symmetry_Int_Tables_number      4
_space_group_name_Hall           'P 2yb'
loop_
_symmetry_equiv_pos_site_id
_symmetry_equiv_pos_as_xyz
1 x,y,z
2 -x,1/2+y,-z
_cell_length_a                   9.7305(2)
_cell_length_b                   8.76406(16)
_cell_length_c                   11.0765(2)
_cell_angle_alpha                90
_cell_angle_beta                 109.450(2)
_cell_angle_gamma                90
_cell_volume                     890.684
_exptl_crystal_colour            'light colorless'
_exptl_crystal_description       block
_cell_formula_units_Z            2
loop_
_atom_site_label
_atom_site_type_symbol
_atom_site_fract_x
_atom_site_fract_y
_atom_site_fract_z
O1 O 0.46503(18) 0.1961(2) 0.11265(16)
H1 H 0.4008 0.2505 0.1221
O2 O 0.89379(19) 0.2442(2) 0.47778(16)
O3 O 0.9754(2) 0.6632(2) 0.26355(17)
H2 H 1.0032 0.6853 0.3398
C1 C 0.5714(2) 0.1666(3) 0.2336(2)
N1 N 0.9533(2) 0.1712(2) 0.23574(19)
C2 C 0.8767(3) 0.4706(3) 0.0362(2)
H3 H 0.7845 0.5112 -0.0163
H4 H 0.9002 0.3825 -0.0046
H5 H 0.9510 0.5467 0.0476
C3 C 0.8678(2) 0.4249(3) 0.1678(2)
C4 C 0.8463(3) 0.5730(3) 0.2337(2)
H6 H 0.7683 0.6305 0.1710
C5 C 1.1298(3) 0.3545(3) 0.2032(2)
C6 C 1.0647(3) 0.0530(3) 0.2594(3)
H7 H 1.0193 -0.0457 0.2488
H8 H 1.1317 0.0627 0.3451
H9 H 1.1165 0.0641 0.1997
C7 C 0.8173(2) 0.1605(3) 0.1262(2)
H10 H 0.8382 0.1686 0.0457
C8 C 0.6985(3) -0.0275(3) 0.4643(2)
H11 H 0.7221 -0.1331 0.4886
H12 H 0.7356 0.0354 0.5404
C9 C 0.7989(3) 0.5468(3) 0.3492(2)
H13 H 0.7741 0.6438 0.3787
H14 H 0.8792 0.5030 0.4179
C10 C 0.6534(3) 0.0154(3) 0.2284(2)
N2 N 1.2268(2) 0.3699(3) 0.1679(2)
C11 C 0.3635(3) -0.2208(4) 0.2978(3)
C12 C 0.5517(3) -0.1225(3) 0.2070(2)
H15 H 0.4805 -0.1178 0.1215
H16 H 0.6079 -0.2154 0.2135
C13 C 0.4740(3) -0.1266(3) 0.3038(2)
C14 C 0.7465(3) 0.3072(3) 0.1507(2)
H17 H 0.6618 0.3330 0.0761
C15 C 0.5323(3) -0.0080(3) 0.4050(2)
H18 H 0.4862 -0.0172 0.4710
C16 C 0.7249(3) 0.0195(3) 0.1240(2)
H19 H 0.7859 -0.0702 0.1330
H20 H 0.6489 0.0136 0.0411
C17 C 0.7687(2) 0.0214(3) 0.3635(2)
H21 H 0.8534 -0.0421 0.3688
C18 C 0.6674(3) 0.4398(3) 0.3175(2)
H22 H 0.6396 0.4264 0.3931
H23 H 0.5859 0.4862 0.2516
C19 C 0.8091(2) 0.1908(3) 0.3790(2)
C20 C 1.0034(2) 0.3299(3) 0.2482(2)
H24 H 1.0308 0.3606 0.3382
C21 C 0.5005(3) 0.1497(3) 0.3407(2)
H25 H 0.5384 0.2284 0.4048
H26 H 0.3960 0.1638 0.3036
C22 C 0.6994(3) 0.2842(3) 0.2711(2)
loop_
_geom_bond_atom_site_label_1
_geom_bond_atom_site_label_2
_geom_bond_site_symmetry_1
_geom_bond_site_symmetry_2
O1 H1 1_555 1_555
O2 C19 1_555 1_555
O3 H2 1_555 1_555
C1 O1 1_555 1_555
N1 C6 1_555 1_555
C2 H3 1_555 1_555
H4 C2 1_555 1_555
H5 C2 1_555 1_555
C3 C2 1_555 1_555
C4 O3 1_555 1_555
H6 C4 1_555 1_555
C5 N2 1_555 1_555
C6 H7 1_555 1_555
H8 C6 1_555 1_555
H9 C6 1_555 1_555
C7 N1 1_555 1_555
H10 C7 1_555 1_555
C8 H11 1_555 1_555
H12 C8 1_555 1_555
C9 C4 1_555 1_555
H13 C9 1_555 1_555
H14 C9 1_555 1_555
C10 C1 1_555 1_555
C11 C13 1_555 1_555
C12 C10 1_555 1_555
H15 C12 1_555 1_555
H16 C12 1_555 1_555
C13 C12 1_555 1_555
C14 C3 1_555 1_555
H17 C14 1_555 1_555
C15 C8 1_555 1_555
H18 C15 1_555 1_555
C16 C7 1_555 1_555
H19 C16 1_555 1_555
H20 C16 1_555 1_555
C17 C8 1_555 1_555
H21 C17 1_555 1_555
C18 C9 1_555 1_555
H22 C18 1_555 1_555
H23 C18 1_555 1_555
C19 C17 1_555 1_555
C20 N1 1_555 1_555
H24 C20 1_555 1_555
C21 C1 1_555 1_555
H25 C21 1_555 1_555
H26 C21 1_555 1_555
C22 C1 1_555 1_555
C3 C4 1_555 1_555
C3 C20 1_555 1_555
C5 C20 1_555 1_555
C7 C14 1_555 1_555
C10 C16 1_555 1_555
C10 C17 1_555 1_555
C13 C15 1_555 1_555
C14 C22 1_555 1_555
C15 C21 1_555 1_555
C18 C22 1_555 1_555
C19 C22 1_555 1_555

#END
