
#######################################################################
#
#                 Cambridge Crystallographic Data Centre
#                                CCDC 
#
#######################################################################
#
# If this CIF has been generated from an entry in the Cambridge 
# Structural Database, then it will include bibliographic, chemical, 
# crystal, experimental, refinement or atomic coordinate data resulting 
# from the CCDC's data processing and validation procedures.
#
#######################################################################

data_VAWLOW
_chemical_formula_moiety         'C31 H24 N4 O3 S1,C2 H6 O1 S1'
_chemical_name_systematic        
"1-Benzyl-1'-(4-methoxyphenyl)-2'-thioxodispiro[indole-3,4'-imidazolidine-5',3''-indole]-2,2''(1H,1''H)-dione dimethylsulfoxide solvate"
_symmetry_cell_setting           monoclinic
_symmetry_space_group_name_H-M   'P 21/n'
_symmetry_Int_Tables_number      14
_space_group_name_Hall           '-P 2yn'
loop_
_symmetry_equiv_pos_site_id
_symmetry_equiv_pos_as_xyz
1 x,y,z
2 1/2-x,1/2+y,1/2-z
3 -x,-y,-z
4 1/2+x,1/2-y,1/2+z
_cell_length_a                   11.2440(2)
_cell_length_b                   19.7631(3)
_cell_length_c                   13.6481(2)
_cell_angle_alpha                90
_cell_angle_beta                 92.766(2)
_cell_angle_gamma                90
_cell_volume                     3029.3
_exptl_crystal_colour            colorless
_exptl_crystal_description       block
_cell_formula_units_Z            4
loop_
_atom_site_label
_atom_site_type_symbol
_atom_site_fract_x
_atom_site_fract_y
_atom_site_fract_z
S1 S 0.03402(4) 0.08701(2) 0.37782(3)
O4 O 0.08921(11) 0.15710(6) 0.37964(9)
C28 C -0.11420(19) 0.09827(12) 0.41214(18)
H18 H -0.1533 0.1308 0.3694
H19 H -0.1141 0.1142 0.4786
H20 H -0.1558 0.0559 0.4070
C32 C 0.0023(3) 0.07010(12) 0.25098(16)
H24 H -0.0388 0.1080 0.2213
H25 H -0.0467 0.0305 0.2442
H26 H 0.0755 0.0627 0.2191
S2 S 0.07854(4) 0.09311(2) 0.64002(4)
O1 O 0.32460(11) 0.25982(6) 0.74750(8)
O2 O 0.35264(14) -0.05292(7) 1.00016(10)
N1 N 0.22939(12) 0.17729(7) 0.55483(10)
O3 O 0.38028(12) 0.08109(6) 0.45569(9)
N2 N 0.47303(13) 0.17849(7) 0.40747(10)
N3 N 0.31136(11) 0.11857(6) 0.67764(9)
N4 N 0.52464(12) 0.23555(7) 0.75417(10)
H1 H 0.5500 0.2687 0.7902
C1 C 0.40521(13) 0.16556(7) 0.65112(10)
C2 C 0.53115(13) 0.13946(8) 0.66019(11)
C3 C 0.20913(14) 0.12983(8) 0.62386(11)
C4 C 0.35647(13) 0.18799(7) 0.54593(10)
C5 C 0.46768(14) 0.24769(8) 0.43210(11)
C6 C 0.39531(14) 0.25682(8) 0.51142(11)
C7 C 0.58434(15) 0.08244(9) 0.62326(12)
H2 H 0.5402 0.0518 0.5846
C8 C 0.32109(13) 0.07615(8) 0.76255(11)
C9 C 0.59785(14) 0.18368(8) 0.72045(11)
C10 C 0.33975(15) -0.00772(9) 0.92489(12)
C11 C 0.37025(16) 0.32130(8) 0.54199(13)
H3 H 0.3195 0.3284 0.5928
C12 C 0.33135(16) 0.00734(8) 0.75090(12)
H4 H 0.3329 -0.0110 0.6882
C13 C 0.76957(16) 0.11695(11) 0.70317(15)
H5 H 0.8505 0.1093 0.7159
C14 C 0.45070(16) 0.17451(9) 0.22616(12)
C15 C 0.33941(18) -0.03460(9) 0.83154(14)
H6 H 0.3446 -0.0812 0.8231
C16 C 0.52190(17) 0.15281(10) 0.31726(12)
H7 H 0.5241 0.1038 0.3199
H8 H 0.6031 0.1688 0.3134
C17 C 0.52024(17) 0.30123(9) 0.38590(13)
H9 H 0.5693 0.2943 0.3339
C18 C 0.42218(18) 0.37582(9) 0.49548(14)
H10 H 0.4060 0.4197 0.5156
C19 C 0.70469(16) 0.07168(10) 0.64482(14)
H11 H 0.7419 0.0338 0.6199
C20 C 0.41011(14) 0.22705(8) 0.72326(11)
C21 C 0.71741(15) 0.17307(10) 0.74288(14)
H12 H 0.7612 0.2027 0.7834
C22 C 0.31924(19) 0.10249(9) 0.85527(13)
H13 H 0.3109 0.1489 0.8636
C23 C 0.3296(2) 0.06074(10) 0.93697(13)
H14 H 0.3297 0.0792 0.9997
C24 C 0.49710(18) 0.36553(10) 0.42001(14)
H15 H 0.5328 0.4026 0.3914
C25 C 0.40400(15) 0.14063(8) 0.46564(11)
C26 C 0.50206(19) 0.21175(10) 0.15376(14)
H16 H 0.5823 0.2231 0.1605
C27 C 0.33109(18) 0.15775(10) 0.21381(14)
H17 H 0.2952 0.1320 0.2612
C29 C 0.2649(2) 0.17895(12) 0.13169(16)
H21 H 0.1846 0.1678 0.1243
C30 C 0.3173(2) 0.21652(11) 0.06087(15)
H22 H 0.2724 0.2311 0.0059
C31 C 0.4354(2) 0.23236(11) 0.07139(15)
H23 H 0.4712 0.2571 0.0229
C33 C 0.3491(2) -0.02866(14) 1.09695(15)
H27 H 0.2713 -0.0108 1.1075
H28 H 0.4074 0.0064 1.1073
H29 H 0.3660 -0.0650 1.1421
H30 H 0.1874(17) 0.1765(9) 0.5011(15)
loop_
_geom_bond_atom_site_label_1
_geom_bond_atom_site_label_2
_geom_bond_site_symmetry_1
_geom_bond_site_symmetry_2
S1 O4 1_555 1_555
S2 C3 1_555 1_555
O1 C20 1_555 1_555
O2 C10 1_555 1_555
N1 C3 1_555 1_555
O3 C25 1_555 1_555
N2 C5 1_555 1_555
N3 C1 1_555 1_555
N4 H1 1_555 1_555
C1 C2 1_555 1_555
C2 C7 1_555 1_555
C3 N3 1_555 1_555
C4 N1 1_555 1_555
C5 C6 1_555 1_555
C6 C4 1_555 1_555
C7 H2 1_555 1_555
C8 N3 1_555 1_555
C9 N4 1_555 1_555
C10 C15 1_555 1_555
C11 C6 1_555 1_555
H3 C11 1_555 1_555
C12 C8 1_555 1_555
H4 C12 1_555 1_555
C13 H5 1_555 1_555
C14 C16 1_555 1_555
C15 C12 1_555 1_555
H6 C15 1_555 1_555
C16 N2 1_555 1_555
H7 C16 1_555 1_555
H8 C16 1_555 1_555
C17 C5 1_555 1_555
H9 C17 1_555 1_555
C18 C11 1_555 1_555
H10 C18 1_555 1_555
C19 C7 1_555 1_555
H11 C19 1_555 1_555
C20 N4 1_555 1_555
C21 C9 1_555 1_555
H12 C21 1_555 1_555
C22 C8 1_555 1_555
H13 C22 1_555 1_555
C23 C10 1_555 1_555
H14 C23 1_555 1_555
C24 C17 1_555 1_555
H15 C24 1_555 1_555
C25 N2 1_555 1_555
C26 C14 1_555 1_555
H16 C26 1_555 1_555
C27 C14 1_555 1_555
H17 C27 1_555 1_555
C28 S1 1_555 1_555
H18 C28 1_555 1_555
H19 C28 1_555 1_555
H20 C28 1_555 1_555
C29 C27 1_555 1_555
H21 C29 1_555 1_555
C30 C29 1_555 1_555
H22 C30 1_555 1_555
C31 C26 1_555 1_555
H23 C31 1_555 1_555
C32 S1 1_555 1_555
H24 C32 1_555 1_555
H25 C32 1_555 1_555
H26 C32 1_555 1_555
C33 O2 1_555 1_555
H27 C33 1_555 1_555
H28 C33 1_555 1_555
H29 C33 1_555 1_555
H30 N1 1_555 1_555
C1 C4 1_555 1_555
C1 C20 1_555 1_555
C2 C9 1_555 1_555
C4 C25 1_555 1_555
C13 C19 1_555 1_555
C13 C21 1_555 1_555
C18 C24 1_555 1_555
C22 C23 1_555 1_555
C30 C31 1_555 1_555

#END
