
#######################################################################
#
#                 Cambridge Crystallographic Data Centre
#                                CCDC 
#
#######################################################################
#
# If this CIF has been generated from an entry in the Cambridge 
# Structural Database, then it will include bibliographic, chemical, 
# crystal, experimental, refinement or atomic coordinate data resulting 
# from the CCDC's data processing and validation procedures.
#
#######################################################################

data_VAWLUB
_chemical_formula_moiety         
'2(C1 H6 N3 1+),C16 H14 Cl2 O6 S2 2-,2(C8 H6 O1)'
_chemical_name_systematic        
"bis(Guanidinium) (3,3'-dichloro-2,2',6,6'-tetramethyl-4,4'-biphenyldisulfonate) bis((+-)-styrene oxide) clathrate"
_symmetry_cell_setting           orthorhombic
_symmetry_space_group_name_H-M   'P b c n'
_symmetry_Int_Tables_number      60
_space_group_name_Hall           '-P 2n 2ab'
loop_
_symmetry_equiv_pos_site_id
_symmetry_equiv_pos_as_xyz
1 x,y,z
2 1/2-x,1/2-y,1/2+z
3 1/2+x,1/2-y,-z
4 -x,y,1/2-z
5 -x,-y,-z
6 1/2+x,1/2+y,1/2-z
7 1/2-x,1/2+y,z
8 x,-y,1/2+z
_cell_length_a                   25.530(4)
_cell_length_b                   14.088(2)
_cell_length_c                   11.9203(19)
_cell_angle_alpha                90
_cell_angle_beta                 90
_cell_angle_gamma                90
_cell_volume                     4287.33
_exptl_crystal_colour            colorless
_cell_formula_units_Z            4
loop_
_atom_site_label
_atom_site_type_symbol
_atom_site_fract_x
_atom_site_fract_y
_atom_site_fract_z
C9 C 0.26117(16) 0.1278(3) 0.5962(4)
N1 N 0.27428(14) 0.2033(3) 0.6557(3)
H8 H 0.2699 0.2033 0.7272
H9 H 0.2872 0.2523 0.6228
N2 N 0.24134(15) 0.0518(3) 0.6444(3)
H10 H 0.2367 0.0508 0.7158
H11 H 0.2330 0.0033 0.6045
N3 N 0.26883(15) 0.1275(3) 0.4858(3)
H12 H 0.2608 0.0781 0.4470
H13 H 0.2818 0.1766 0.4533
S1 S 0.19220(4) 0.11386(8) 0.92221(9)
Cl1 Cl 0.10367(4) 0.26067(8) 1.01073(9)
O1 O 0.19105(11) 0.1154(2) 1.0445(2)
O2 O 0.21609(11) 0.0284(2) 0.8784(2)
O3 O 0.21543(11) 0.1988(2) 0.8735(2)
C1 C 0.12648(14) 0.1135(3) 0.8725(3)
C2 C 0.08866(15) 0.1766(3) 0.9082(3)
C3 C 0.02660(14) 0.1127(3) 0.7764(3)
C4 C 0.11366(15) 0.0505(3) 0.7880(3)
H1 H 0.1388 0.0073 0.7640
C5 C 0.06493(15) 0.0493(3) 0.7378(3)
C6 C 0.05351(18) -0.0173(3) 0.6426(4)
H2 H 0.0839 -0.0554 0.6276
H3 H 0.0446 0.0187 0.5769
H4 H 0.0247 -0.0577 0.6624
C7 C 0.03846(14) 0.1777(3) 0.8629(3)
C8 C -0.00219(18) 0.2496(3) 0.9046(4)
H5 H 0.0130 0.2879 0.9627
H6 H -0.0321 0.2163 0.9339
H7 H -0.0129 0.2894 0.8435
S1C S -0.19220(4) 0.11386(8) 0.57779(9)
Cl1C Cl -0.10367(4) 0.26067(8) 0.48927(9)
O1C O -0.19105(11) 0.1154(2) 0.4555(2)
O2C O -0.21609(11) 0.0284(2) 0.6216(2)
O3C O -0.21543(11) 0.1988(2) 0.6265(2)
C1C C -0.12648(14) 0.1135(3) 0.6275(3)
C2C C -0.08866(15) 0.1766(3) 0.5918(3)
C3C C -0.02660(14) 0.1127(3) 0.7236(3)
C4C C -0.11366(15) 0.0505(3) 0.7120(3)
H1C H -0.1388 0.0073 0.7360
C5C C -0.06493(15) 0.0493(3) 0.7622(3)
C6C C -0.05351(18) -0.0173(3) 0.8574(4)
H2C H -0.0839 -0.0554 0.8724
H3C H -0.0446 0.0187 0.9231
H4C H -0.0247 -0.0577 0.8376
C7C C -0.03846(14) 0.1777(3) 0.6371(3)
C8C C 0.00219(18) 0.2496(3) 0.5954(4)
H5C H -0.0130 0.2879 0.5373
H6C H 0.0321 0.2163 0.5661
H7C H 0.0129 0.2894 0.6565
loop_
_geom_bond_atom_site_label_1
_geom_bond_atom_site_label_2
_geom_bond_site_symmetry_1
_geom_bond_site_symmetry_2
S1 O1 1_555 1_555
Cl1 C2 1_555 1_555
O2 S1 1_555 1_555
O3 S1 1_555 1_555
C1 S1 1_555 1_555
C2 C1 1_555 1_555
C3 C5 1_555 1_555
C4 C1 1_555 1_555
H1 C4 1_555 1_555
C5 C4 1_555 1_555
C6 C5 1_555 1_555
H2 C6 1_555 1_555
H3 C6 1_555 1_555
H4 C6 1_555 1_555
C7 C2 1_555 1_555
C8 C7 1_555 1_555
H5 C8 1_555 1_555
H6 C8 1_555 1_555
H7 C8 1_555 1_555
C9 N1 1_555 1_555
N1 H8 1_555 1_555
H9 N1 1_555 1_555
N2 C9 1_555 1_555
H10 N2 1_555 1_555
H11 N2 1_555 1_555
N3 C9 1_555 1_555
H12 N3 1_555 1_555
H13 N3 1_555 1_555
S1C O1C 1_555 1_555
Cl1C C2C 1_555 1_555
O2C S1C 1_555 1_555
O3C S1C 1_555 1_555
C1C S1C 1_555 1_555
C2C C1C 1_555 1_555
C3C C3 1_555 1_555
C4C C1C 1_555 1_555
H1C C4C 1_555 1_555
C5C C3C 1_555 1_555
C6C C5C 1_555 1_555
H2C C6C 1_555 1_555
H3C C6C 1_555 1_555
H4C C6C 1_555 1_555
C7C C2C 1_555 1_555
C8C C7C 1_555 1_555
H5C C8C 1_555 1_555
H6C C8C 1_555 1_555
H7C C8C 1_555 1_555
C3 C7 1_555 1_555
C3C C7C 1_555 1_555
C4C C5C 1_555 1_555

#END
