
#######################################################################
#
#                 Cambridge Crystallographic Data Centre
#                                CCDC 
#
#######################################################################
#
# If this CIF has been generated from an entry in the Cambridge 
# Structural Database, then it will include bibliographic, chemical, 
# crystal, experimental, refinement or atomic coordinate data resulting 
# from the CCDC's data processing and validation procedures.
#
#######################################################################

data_VAWLOV
_chemical_formula_moiety         '2(C1 H6 N3 1+),C14 H12 O6 S2 2-,2(C2 H3 N1)'
_chemical_name_systematic        
"bis(Guanidinium) (2,2'-dimethyl-4,4'-biphenyldisulfonate) bis(acetonitrile) clathrate"
_symmetry_cell_setting           monoclinic
_symmetry_space_group_name_H-M   'C 2/c'
_symmetry_Int_Tables_number      15
_space_group_name_Hall           '-C 2yn'
loop_
_symmetry_equiv_pos_site_id
_symmetry_equiv_pos_as_xyz
1 x,y,z
2 1/2+x,1/2+y,z
3 -x,y,1/2-z
4 1/2-x,1/2+y,1/2-z
5 -x,-y,-z
6 1/2-x,1/2-y,-z
7 x,-y,1/2+z
8 1/2+x,1/2-y,1/2+z
_cell_length_a                   7.4632(15)
_cell_length_b                   12.587(3)
_cell_length_c                   29.788(6)
_cell_angle_alpha                90
_cell_angle_beta                 93.983(4)
_cell_angle_gamma                90
_cell_volume                     2791.51
_exptl_crystal_colour            colorless
_cell_formula_units_Z            4
loop_
_atom_site_label
_atom_site_type_symbol
_atom_site_fract_x
_atom_site_fract_y
_atom_site_fract_z
S1 S 0.13050(8) 0.04579(5) 0.427300(19)
O1 O 0.2993(2) 0.10249(15) 0.43670(6)
O2 O 0.1393(2) -0.06481(15) 0.44211(6)
O3 O -0.0226(2) 0.10169(15) 0.44416(6)
C1 C 0.0903(3) 0.0420(2) 0.36796(8)
C2 C -0.0983(4) -0.0171(2) 0.30341(9)
C4 C 0.0177(4) 0.0341(2) 0.27533(8)
C5 C -0.0592(4) -0.0121(2) 0.34973(9)
H7 H -0.1348 -0.0457 0.3688
C6 C 0.2062(4) 0.0916(3) 0.34044(10)
H8 H 0.3072 0.1273 0.3526
C7 C -0.2633(5) -0.0774(4) 0.28531(11)
H9 H -0.2994 -0.1261 0.3077
H10 H -0.2360 -0.1160 0.2588
H11 H -0.3590 -0.0282 0.2778
C8 C 0.1682(5) 0.0868(3) 0.29414(10)
H12 H 0.2455 0.1197 0.2753
S1B S -0.13050(8) 0.04579(5) 0.072700(19)
O1B O -0.2993(2) 0.10249(15) 0.06330(6)
O2B O -0.1393(2) -0.06481(15) 0.05789(6)
O3B O 0.0226(2) 0.10169(15) 0.05584(6)
C1B C -0.0903(3) 0.0420(2) 0.13204(8)
C2B C 0.0983(4) -0.0171(2) 0.19659(9)
C4B C -0.0177(4) 0.0341(2) 0.22467(8)
C5B C 0.0592(4) -0.0121(2) 0.15027(9)
H7B H 0.1348 -0.0457 0.1312
C6B C -0.2062(4) 0.0916(3) 0.15956(10)
H8B H -0.3072 0.1273 0.1474
C7B C 0.2633(5) -0.0774(4) 0.21469(11)
H9B H 0.2994 -0.1261 0.1923
H10B H 0.2360 -0.1160 0.2412
H11B H 0.3590 -0.0282 0.2222
C8B C -0.1682(5) 0.0868(3) 0.20586(10)
H12B H -0.2455 0.1197 0.2247
N1 N -0.3599(3) -0.01092(18) 0.45405(8)
H1 H -0.2604 0.0235 0.4539
H2 H -0.4600 0.0230 0.4540
N2 N -0.2052(3) -0.16873(18) 0.45437(8)
H3 H -0.1054 -0.1347 0.4542
H4 H -0.2054 -0.2371 0.4545
N3 N -0.5127(3) -0.16877(19) 0.45449(9)
H5 H -0.6126 -0.1347 0.4544
H6 H -0.5124 -0.2371 0.4547
C3 C -0.3590(3) -0.1159(2) 0.45433(8)
N4 N 0.3070(19) 0.2377(8) 0.1332(4)
C9 C 0.282(4) 0.2556(15) 0.1725(5)
C10 C 0.4171(11) 0.2157(7) 0.2028(4)
H13 H 0.4734 0.1558 0.1897
H14 H 0.3655 0.1941 0.2300
H15 H 0.5052 0.2700 0.2096
loop_
_geom_bond_atom_site_label_1
_geom_bond_atom_site_label_2
_geom_bond_site_symmetry_1
_geom_bond_site_symmetry_2
S1 O1 1_555 1_555
O2 S1 1_555 1_555
O3 S1 1_555 1_555
C1 S1 1_555 1_555
N1 H1 1_555 1_555
H2 N1 1_555 1_555
N2 H3 1_555 1_555
H4 N2 1_555 1_555
N3 H5 1_555 1_555
H6 N3 1_555 1_555
C2 C4 1_555 1_555
C3 N1 1_555 1_555
C4 C8 1_555 1_555
C5 C1 1_555 1_555
H7 C5 1_555 1_555
C6 C1 1_555 1_555
H8 C6 1_555 1_555
C7 C2 1_555 1_555
H9 C7 1_555 1_555
H10 C7 1_555 1_555
H11 C7 1_555 1_555
C8 C6 1_555 1_555
H12 C8 1_555 1_555
N4 C9 1_555 1_555
C9 C10 1_555 1_555
C10 H13 1_555 1_555
H14 C10 1_555 1_555
H15 C10 1_555 1_555
S1B O1B 1_555 1_555
O2B S1B 1_555 1_555
O3B S1B 1_555 1_555
C1B S1B 1_555 1_555
C2B C4B 1_555 1_555
C4B C4 1_555 1_555
C5B C1B 1_555 1_555
H7B C5B 1_555 1_555
C6B C1B 1_555 1_555
H8B C6B 1_555 1_555
C7B C2B 1_555 1_555
H9B C7B 1_555 1_555
H10B C7B 1_555 1_555
H11B C7B 1_555 1_555
C8B C4B 1_555 1_555
H12B C8B 1_555 1_555
N2 C3 1_555 1_555
N3 C3 1_555 1_555
C2 C5 1_555 1_555
C2B C5B 1_555 1_555
C6B C8B 1_555 1_555

#END
