
#######################################################################
#
#                 Cambridge Crystallographic Data Centre
#                                CCDC 
#
#######################################################################
#
# If this CIF has been generated from an entry in the Cambridge 
# Structural Database, then it will include bibliographic, chemical, 
# crystal, experimental, refinement or atomic coordinate data resulting 
# from the CCDC's data processing and validation procedures.
#
#######################################################################

data_VAWLIQ
_chemical_formula_moiety         'C24 H16 F1 N3 O3 S1,C2 H6 O1 S1'
_chemical_name_systematic        
"1-Benzyl-5''-fluoro-2'-thioxodispiro[indole-3,4'-[1,3]oxazolidine-5',3''-indole]-2,2''(1H,1''H)-dione dimethylsulfoxide solvate"
_symmetry_cell_setting           monoclinic
_symmetry_space_group_name_H-M   'P n'
_symmetry_Int_Tables_number      7
_space_group_name_Hall           'P -2yac'
loop_
_symmetry_equiv_pos_site_id
_symmetry_equiv_pos_as_xyz
1 x,y,z
2 1/2+x,-y,1/2+z
_cell_length_a                   11.030(5)
_cell_length_b                   8.972(5)
_cell_length_c                   12.853(5)
_cell_angle_alpha                90
_cell_angle_beta                 91.448(5)
_cell_angle_gamma                90
_cell_volume                     1271.54
_exptl_crystal_colour            colorless
_exptl_crystal_description       block
_cell_formula_units_Z            2
loop_
_atom_site_label
_atom_site_type_symbol
_atom_site_fract_x
_atom_site_fract_y
_atom_site_fract_z
S1 S 0.45133(6) 0.91969(8) 0.45135(5)
O1 O 0.22849(13) 0.82032(16) 0.43277(11)
O2 O 0.25051(17) 0.5159(2) 0.35780(12)
O3 O 0.16827(16) 0.88178(16) 0.67999(12)
C1 C 0.3382(2) 0.8125(2) 0.48363(15)
F1 F -0.23172(17) 0.9663(2) 0.54216(17)
N1 N 0.08644(16) 0.65322(18) 0.72141(13)
N2 N 0.33435(17) 0.70812(19) 0.55864(14)
C2 C 0.2253(2) 0.3642(2) 0.57182(17)
H1 H 0.2807 0.3595 0.5186
C3 C 0.21160(19) 0.6588(2) 0.57622(14)
C4 C 0.0988(2) 0.6601(3) 0.91404(16)
C5 C 0.02025(19) 0.7418(2) 0.46591(15)
C6 C 0.0239(2) 0.6962(3) 0.81640(17)
H2 H -0.0530 0.6442 0.8188
H3 H 0.0073 0.8023 0.8145
C7 C 0.15175(19) 0.7022(2) 0.46857(14)
N3 N 0.04273(19) 0.5390(2) 0.35957(15)
H4 H 0.0227 0.4653 0.3199
C8 C 0.10549(19) 0.5041(2) 0.69049(15)
C9 C 0.18735(19) 0.4997(2) 0.60896(15)
C10 C 0.1575(2) 0.5722(2) 0.38834(15)
C11 C -0.0434(2) 0.8552(2) 0.51328(19)
H5 H -0.0047 0.9260 0.5552
C12 C 0.0565(2) 0.3762(2) 0.73188(17)
H6 H 0.0000 0.3804 0.7843
C13 C -0.1674(3) 0.8577(3) 0.4951(2)
C14 C -0.1639(3) 0.6458(3) 0.3837(2)
H7 H -0.2030 0.5777 0.3397
C15 C 0.1796(3) 0.2339(3) 0.61495(19)
H8 H 0.2062 0.1416 0.5917
C16 C -0.0407(2) 0.6392(2) 0.40201(17)
C17 C 0.0572(3) 0.5590(3) 0.9857(2)
H9 H -0.0173 0.5122 0.9745
C18 C 0.0950(2) 0.2414(2) 0.69201(18)
H10 H 0.0630 0.1534 0.7179
C19 C 0.2111(3) 0.7248(3) 0.9316(2)
H11 H 0.2406 0.7922 0.8834
C20 C 0.2361(4) 0.5922(4) 1.0917(2)
H12 H 0.2813 0.5703 1.1518
C21 C 0.15393(19) 0.7489(2) 0.66538(14)
C23 C 0.1266(4) 0.5272(4) 1.0747(2)
H16 H 0.0974 0.4602 1.1233
C24 C -0.2281(3) 0.7573(3) 0.4328(2)
H17 H -0.3118 0.7638 0.4235
C26 C 0.2804(4) 0.6909(4) 1.0199(2)
H21 H 0.3562 0.7345 1.0305
H22 H 0.391(2) 0.706(3) 0.610(2)
S2 S 0.52106(7) 0.85404(8) 0.80539(5)
O4 O 0.47406(16) 0.71992(18) 0.74533(13)
C22 C 0.4704(5) 1.0123(3) 0.7354(3)
H13 H 0.5053 1.0123 0.6677
H14 H 0.4948 1.1008 0.7723
H15 H 0.3836 1.0098 0.7281
C25 C 0.6761(4) 0.8609(5) 0.7821(5)
H18 H 0.7130 0.7680 0.8023
H19 H 0.7125 0.9405 0.8219
H20 H 0.6882 0.8780 0.7094
loop_
_geom_bond_atom_site_label_1
_geom_bond_atom_site_label_2
_geom_bond_site_symmetry_1
_geom_bond_site_symmetry_2
S1 C1 1_555 1_555
S2 O4 1_555 1_555
O1 C1 1_555 1_555
O2 C10 1_555 1_555
O3 C21 1_555 1_555
C1 N2 1_555 1_555
F1 C13 1_555 1_555
N1 C6 1_555 1_555
N2 C3 1_555 1_555
C2 H1 1_555 1_555
C3 C7 1_555 1_555
C4 C6 1_555 1_555
C5 C7 1_555 1_555
C6 H2 1_555 1_555
H3 C6 1_555 1_555
C7 O1 1_555 1_555
N3 H4 1_555 1_555
C8 N1 1_555 1_555
C9 C2 1_555 1_555
C10 C7 1_555 1_555
C11 C5 1_555 1_555
H5 C11 1_555 1_555
C12 C8 1_555 1_555
H6 C12 1_555 1_555
C13 C11 1_555 1_555
C14 H7 1_555 1_555
C15 C2 1_555 1_555
H8 C15 1_555 1_555
C16 C5 1_555 1_555
C17 C4 1_555 1_555
H9 C17 1_555 1_555
C18 C12 1_555 1_555
H10 C18 1_555 1_555
C19 C4 1_555 1_555
H11 C19 1_555 1_555
C20 H12 1_555 1_555
C21 N1 1_555 1_555
C22 S2 1_555 1_555
H13 C22 1_555 1_555
H14 C22 1_555 1_555
H15 C22 1_555 1_555
C23 C17 1_555 1_555
H16 C23 1_555 1_555
C24 C13 1_555 1_555
H17 C24 1_555 1_555
C25 S2 1_555 1_555
H18 C25 1_555 1_555
H19 C25 1_555 1_555
H20 C25 1_555 1_555
C26 C19 1_555 1_555
H21 C26 1_555 1_555
H22 N2 1_555 1_555
C3 C9 1_555 1_555
C3 C21 1_555 1_555
N3 C10 1_555 1_555
N3 C16 1_555 1_555
C8 C9 1_555 1_555
C14 C16 1_555 1_555
C14 C24 1_555 1_555
C15 C18 1_555 1_555
C20 C23 1_555 1_555
C20 C26 1_555 1_555

#END
