
#######################################################################
#
#                 Cambridge Crystallographic Data Centre
#                                CCDC 
#
#######################################################################
#
# If this CIF has been generated from an entry in the Cambridge 
# Structural Database, then it will include bibliographic, chemical, 
# crystal, experimental, refinement or atomic coordinate data resulting 
# from the CCDC's data processing and validation procedures.
#
#######################################################################

data_VAWLEL
_chemical_formula_moiety         
'2(C1 H6 N3 1+),C12 H6 N2 O10 S2 2-,2(C1 H4 O1)'
_chemical_name_systematic        
"bis(Guanidinium) (2,2'-dinitro-4,4'-biphenyldisulfonate) bis(methanol) clathrate"
_symmetry_cell_setting           orthorhombic
_symmetry_space_group_name_H-M   'P n a 21'
_symmetry_Int_Tables_number      33
_space_group_name_Hall           'P 2c -2n'
loop_
_symmetry_equiv_pos_site_id
_symmetry_equiv_pos_as_xyz
1 x,y,z
2 -x,-y,1/2+z
3 1/2-x,1/2+y,1/2+z
4 1/2+x,1/2-y,z
_cell_length_a                   15.597(3)
_cell_length_b                   21.361(4)
_cell_length_c                   7.6072(13)
_cell_angle_alpha                90
_cell_angle_beta                 90
_cell_angle_gamma                90
_cell_volume                     2534.47
_exptl_crystal_colour            yellow
_cell_formula_units_Z            4
loop_
_atom_site_label
_atom_site_type_symbol
_atom_site_fract_x
_atom_site_fract_y
_atom_site_fract_z
S1 S 0.12526(4) 0.53258(3) 0.19908(14)
S2 S 0.65891(4) 0.22477(3) 0.19473(16)
O1 O 0.61758(12) 0.16372(8) 0.1946(5)
O2 O 0.15646(12) 0.59710(8) 0.1990(5)
O3 O 0.07597(17) 0.51824(12) 0.0428(4)
C1 C 0.57489(16) 0.28076(12) 0.1899(7)
O4 O 0.08085(17) 0.51733(13) 0.3593(3)
O5 O 0.70706(17) 0.23750(12) 0.3535(4)
O6 O 0.70990(16) 0.23588(12) 0.0375(4)
C2 C 0.21799(16) 0.48463(12) 0.1918(6)
C3 C 0.36745(17) 0.41262(14) 0.1741(5)
O7 O 0.62648(15) 0.46708(10) 0.1863(8)
C4 C 0.49044(18) 0.26243(14) 0.1988(9)
H1 H 0.4768 0.2192 0.2079
C5 C 0.2615(3) 0.46997(18) 0.3430(5)
H2 H 0.2407 0.4841 0.4534
C6 C 0.44270(18) 0.36934(14) 0.1766(6)
C7 C 0.3207(2) 0.42689(19) 0.0246(5)
C8 C 0.3358(2) 0.43463(18) 0.3348(5)
H3 H 0.3658 0.4251 0.4401
C9 C 0.2468(2) 0.46315(18) 0.0313(6)
H4 H 0.2166 0.4731 -0.0734
C10 C 0.59462(18) 0.34349(13) 0.1750(6)
H5 H 0.6526 0.3570 0.1703
C11 C 0.42555(18) 0.30592(14) 0.1945(9)
H6 H 0.3678 0.2923 0.2040
N1 N 0.55316(18) 0.45227(13) 0.1488(5)
O8 O 0.4214(2) 0.39103(18) -0.1706(4)
C12 C 0.52833(19) 0.38634(14) 0.1672(5)
O9 O 0.50065(18) 0.48962(13) 0.0954(6)
O12 O 0.29138(17) 0.40023(14) -0.2628(4)
N8 N 0.3459(2) 0.40406(15) -0.1481(5)
C13 C 0.84774(17) 0.37124(13) 0.1986(7)
N2 N 0.89457(18) 0.42281(12) 0.1998(6)
H7 H 0.9106 0.4401 0.1001
H8 H 0.9098 0.4399 0.3004
N3 N 0.8248(2) 0.34446(16) 0.3490(4)
H9 H 0.8408 0.3610 0.4497
H10 H 0.7937 0.3101 0.3479
N4 N 0.8249(2) 0.34561(17) 0.0472(4)
H11 H 0.8409 0.3629 -0.0525
H12 H 0.7937 0.3113 0.0463
N5 N -0.14089(15) 0.69126(11) 0.1948(6)
H13 H -0.1560 0.7086 0.0946
H14 H -0.1541 0.7095 0.2949
C14 C -0.09838(17) 0.63789(12) 0.1951(7)
N6 N -0.0741(2) 0.61198(16) 0.3460(5)
H15 H -0.0449 0.5767 0.3456
H16 H -0.0872 0.6301 0.4464
N7 N -0.0788(2) 0.61081(16) 0.0452(5)
H17 H -0.0940 0.6283 -0.0547
H18 H -0.0504 0.5752 0.0449
O10 O 0.6574(4) 0.7492(4) 0.1762(13)
C16 C 0.5674(4) 0.7588(3) 0.1741(15)
C15 C 0.3733(4) 0.6256(5) 0.1565(15)
O11 O 0.3262(4) 0.6651(3) 0.2264(19)
O13? O 0.4355(17) 0.6484(11) 0.114(2)
loop_
_geom_bond_atom_site_label_1
_geom_bond_atom_site_label_2
_geom_bond_site_symmetry_1
_geom_bond_site_symmetry_2
S1 O2 1_555 1_555
S2 O1 1_555 1_555
O3 S1 1_555 1_555
C1 S2 1_555 1_555
O4 S1 1_555 1_555
O5 S2 1_555 1_555
O6 S2 1_555 1_555
C2 S1 1_555 1_555
C3 C6 1_555 1_555
O7 N1 1_555 1_555
C4 C1 1_555 1_555
H1 C4 1_555 1_555
C5 C2 1_555 1_555
H2 C5 1_555 1_555
C6 C11 1_555 1_555
C7 C3 1_555 1_555
C8 C3 1_555 1_555
H3 C8 1_555 1_555
C9 C2 1_555 1_555
H4 C9 1_555 1_555
C10 C1 1_555 1_555
H5 C10 1_555 1_555
C11 C4 1_555 1_555
H6 C11 1_555 1_555
N1 C12 1_555 1_555
O8 N8 1_555 1_555
C12 C6 1_555 1_555
C13 N2 1_555 1_555
N2 H7 1_555 1_555
H8 N2 1_555 1_555
N3 C13 1_555 1_555
H9 N3 1_555 1_555
H10 N3 1_555 1_555
N4 C13 1_555 1_555
H11 N4 1_555 1_555
H12 N4 1_555 1_555
N5 H13 1_555 1_555
H14 N5 1_555 1_555
C14 N5 1_555 1_555
N6 C14 1_555 1_555
H15 N6 1_555 1_555
H16 N6 1_555 1_555
N7 C14 1_555 1_555
H17 N7 1_555 1_555
H18 N7 1_555 1_555
O9 N1 1_555 1_555
O10 C16 1_555 1_555
C15 O11 1_555 1_555
O12 N8 1_555 1_555
N8 C7 1_555 1_555
C5 C8 1_555 1_555
C7 C9 1_555 1_555
C10 C12 1_555 1_555

#END
