
#######################################################################
#
#                 Cambridge Crystallographic Data Centre
#                                CCDC 
#
#######################################################################
#
# If this CIF has been generated from an entry in the Cambridge 
# Structural Database, then it will include bibliographic, chemical, 
# crystal, experimental, refinement or atomic coordinate data resulting 
# from the CCDC's data processing and validation procedures.
#
#######################################################################

data_VAWMAI
_chemical_formula_moiety         '2(C1 H6 N3 1+),C16 H14 Cl2 O6 S2 2-,2(C7 H8)'
_chemical_name_systematic        
"bis(Guanidinium) (3,3'-dichloro-2,2',6,6'-tetramethyl-4,4'-biphenyldisulfonate) bis(toluene) clathrate"
_symmetry_cell_setting           orthorhombic
_symmetry_space_group_name_H-M   'P b c n'
_symmetry_Int_Tables_number      60
_space_group_name_Hall           '-P 2n 2ab'
loop_
_symmetry_equiv_pos_site_id
_symmetry_equiv_pos_as_xyz
1 x,y,z
2 1/2-x,1/2-y,1/2+z
3 1/2+x,1/2-y,-z
4 -x,y,1/2-z
5 -x,-y,-z
6 1/2+x,1/2+y,1/2-z
7 1/2-x,1/2+y,z
8 x,-y,1/2+z
_cell_length_a                   25.574(5)
_cell_length_b                   14.097(3)
_cell_length_c                   11.770(2)
_cell_angle_alpha                90
_cell_angle_beta                 90
_cell_angle_gamma                90
_cell_volume                     4243.28
_cell_formula_units_Z            4
loop_
_atom_site_label
_atom_site_type_symbol
_atom_site_fract_x
_atom_site_fract_y
_atom_site_fract_z
N1 N 0.72403(19) 0.8001(3) -0.1582(4)
H1 H 0.7286 0.8001 -0.2306
H2 H 0.7110 0.7511 -0.1252
N2 N 0.72812(19) 0.8771(4) 0.0132(4)
H3 H 0.7138 0.8293 0.0461
H4 H 0.7367 0.9263 0.0522
N3 N 0.75718(18) 0.9510(3) -0.1472(4)
H5 H 0.7619 0.9518 -0.2195
H6 H 0.7655 0.9996 -0.1068
C4 C 0.7370(2) 0.8750(5) -0.0979(5)
S1 S 0.69129(5) 0.61622(11) 0.07579(12)
Cl1 Cl 0.60304(6) 0.76407(11) -0.01038(15)
O1 O 0.68997(15) 0.6189(3) -0.0479(3)
O2 O 0.71368(15) 0.7014(3) 0.1263(3)
O3 O 0.71542(15) 0.5305(3) 0.1188(3)
C1 C 0.6259(2) 0.6141(4) 0.1251(4)
C2 C 0.5879(2) 0.6770(4) 0.0917(4)
C3 C 0.52648(19) 0.6104(4) 0.2225(5)
C5 C 0.6128(2) 0.5491(4) 0.2093(4)
H7 H 0.6377 0.5050 0.2317
C6 C 0.5648(2) 0.5473(4) 0.2606(4)
C7 C 0.5379(2) 0.6773(4) 0.1360(5)
C8 C 0.5539(2) 0.4780(4) 0.3552(5)
H8 H 0.5836 0.4374 0.3657
H9 H 0.5239 0.4403 0.3360
H10 H 0.5471 0.5121 0.4242
C9 C 0.4966(2) 0.7468(5) 0.0941(7)
H11 H 0.5053 0.8097 0.1190
H12 H 0.4631 0.7292 0.1243
H13 H 0.4952 0.7454 0.0126
S1C S 0.30871(5) 0.61622(11) 0.42421(12)
Cl1C Cl 0.39696(6) 0.76407(11) 0.51038(15)
O1C O 0.31003(15) 0.6189(3) 0.5479(3)
O2C O 0.28632(15) 0.7014(3) 0.3737(3)
O3C O 0.28458(15) 0.5305(3) 0.3812(3)
C1C C 0.3741(2) 0.6141(4) 0.3749(4)
C2C C 0.4121(2) 0.6770(4) 0.4083(4)
C3C C 0.47352(19) 0.6104(4) 0.2775(5)
C5C C 0.3872(2) 0.5491(4) 0.2907(4)
H7C H 0.3623 0.5050 0.2683
C6C C 0.4352(2) 0.5473(4) 0.2394(4)
C7C C 0.4621(2) 0.6773(4) 0.3640(5)
C8C C 0.4461(2) 0.4780(4) 0.1448(5)
H8C H 0.4164 0.4374 0.1343
H9C H 0.4761 0.4403 0.1640
H10C H 0.4529 0.5121 0.0758
C9C C 0.5034(2) 0.7468(5) 0.4059(7)
H11C H 0.4947 0.8097 0.3810
H12C H 0.5369 0.7292 0.3757
H13C H 0.5048 0.7454 0.4874
loop_
_geom_bond_atom_site_label_1
_geom_bond_atom_site_label_2
_geom_bond_site_symmetry_1
_geom_bond_site_symmetry_2
S1 O1 1_555 1_555
Cl1 C2 1_555 1_555
O2 S1 1_555 1_555
O3 S1 1_555 1_555
C1 S1 1_555 1_555
C2 C1 1_555 1_555
C3 C6 1_555 1_555
N1 H1 1_555 1_555
H2 N1 1_555 1_555
N2 H3 1_555 1_555
H4 N2 1_555 1_555
N3 H5 1_555 1_555
H6 N3 1_555 1_555
C4 N1 1_555 1_555
C5 C1 1_555 1_555
H7 C5 1_555 1_555
C6 C5 1_555 1_555
C7 C2 1_555 1_555
C8 C6 1_555 1_555
H8 C8 1_555 1_555
H9 C8 1_555 1_555
H10 C8 1_555 1_555
C9 C7 1_555 1_555
H11 C9 1_555 1_555
H12 C9 1_555 1_555
H13 C9 1_555 1_555
S1C O1C 1_555 1_555
Cl1C C2C 1_555 1_555
O2C S1C 1_555 1_555
O3C S1C 1_555 1_555
C1C S1C 1_555 1_555
C2C C1C 1_555 1_555
C3C C3 1_555 1_555
C5C C1C 1_555 1_555
H7C C5C 1_555 1_555
C6C C3C 1_555 1_555
C7C C2C 1_555 1_555
C8C C6C 1_555 1_555
H8C C8C 1_555 1_555
H9C C8C 1_555 1_555
H10C C8C 1_555 1_555
C9C C7C 1_555 1_555
H11C C9C 1_555 1_555
H12C C9C 1_555 1_555
H13C C9C 1_555 1_555
C3 C7 1_555 1_555
N2 C4 1_555 1_555
N3 C4 1_555 1_555
C3C C7C 1_555 1_555
C5C C6C 1_555 1_555

#END
