
#######################################################################
#
#                 Cambridge Crystallographic Data Centre
#                                CCDC 
#
#######################################################################
#
# If this CIF has been generated from an entry in the Cambridge 
# Structural Database, then it will include bibliographic, chemical, 
# crystal, experimental, refinement or atomic coordinate data resulting 
# from the CCDC's data processing and validation procedures.
#
#######################################################################

data_VAWMUD
_chemical_formula_moiety         'C16 H18 O6'
_chemical_name_systematic        
9-Hydroxy-3,5'-dimethyl-4',5',6a,8,9,9a-hexahydro-1H,3'H,7H-spiro[cyclopenta[d]pyrano[4,3-b]pyran-6,2'-furan]-1,7-dione
_symmetry_cell_setting           monoclinic
_symmetry_space_group_name_H-M   'C 2'
_symmetry_Int_Tables_number      5
_space_group_name_Hall           'C 2y'
loop_
_symmetry_equiv_pos_site_id
_symmetry_equiv_pos_as_xyz
1 x,y,z
2 -x,y,-z
3 1/2+x,1/2+y,z
4 1/2-x,1/2+y,-z
_cell_length_a                   16.6297(4)
_cell_length_b                   8.0075(2)
_cell_length_c                   10.8932(3)
_cell_angle_alpha                90
_cell_angle_beta                 91.2580(10)
_cell_angle_gamma                90
_cell_volume                     1450.21
_exptl_crystal_colour            colorless
_exptl_crystal_description       plate
_cell_formula_units_Z            4
loop_
_atom_site_label
_atom_site_type_symbol
_atom_site_fract_x
_atom_site_fract_y
_atom_site_fract_z
H1 H 1.1364(9) 0.5947(19) 0.6300(14)
H2 H 1.0808(10) 0.372(2) 0.9379(18)
H3 H 1.2283(9) 0.883(2) 0.6978(15)
H4 H 0.9802(9) 1.127(2) 0.6441(14)
H5 H 1.0100(9) 0.481(2) 0.6288(14)
H6 H 1.2483(10) 0.727(2) 0.7912(14)
H7 H 1.2644(11) 0.953(2) 0.9307(16)
H8 H 1.0649(11) 0.903(3) 1.0994(18)
H9 H 1.1948(9) 1.055(2) 0.8678(14)
H10 H 1.1412(14) 1.030(3) 1.109(2)
H11 H 0.9829(10) 0.560(2) 0.8785(16)
H12 H 1.1845(10) 0.766(2) 1.0243(15)
H13 H 1.0647(12) 0.260(3) 0.8199(18)
H14 H 1.0787(12) 1.056(3) 1.0031(19)
H15 H 0.8946(13) 0.421(3) 0.748(2)
H16 H 0.8289(13) 1.121(3) 0.439(2)
H17 H 0.8537(12) 1.229(3) 0.5510(18)
H18 H 0.7816(14) 1.110(3) 0.565(2)
O1 O 0.85206(5) 0.83716(13) 0.57580(9)
O2 O 1.08162(5) 0.90219(11) 0.70886(8)
C1 C 1.00524(7) 0.87134(16) 0.66970(10)
C2 C 1.01988(8) 0.56215(16) 0.69516(11)
O3 O 0.92877(6) 0.36580(13) 0.80002(10)
O4 O 0.85463(6) 0.56510(13) 0.61075(10)
O5 O 1.10070(5) 0.76009(12) 0.89333(8)
C3 C 0.97278(7) 0.71488(16) 0.66223(11)
C4 C 0.88534(8) 0.99284(17) 0.58422(11)
C5 C 1.12640(7) 0.76812(17) 0.77192(11)
C6 C 1.11014(8) 0.59988(17) 0.70977(11)
C7 C 0.89174(8) 0.69669(18) 0.61819(12)
C8 C 0.96012(8) 1.01363(17) 0.63214(11)
C9 C 0.83199(10) 1.1239(2) 0.53201(16)
O6 O 1.21076(6) 0.41959(16) 0.80589(11)
C10 C 1.14098(8) 0.45898(19) 0.79319(12)
C11 C 1.15564(7) 0.85481(17) 0.97505(12)
C12 C 0.99623(8) 0.47435(17) 0.81615(12)
C13 C 1.21391(8) 0.9410(2) 0.89002(13)
C14 C 1.21338(7) 0.8274(2) 0.77724(13)
C15 C 1.10691(10) 0.9670(2) 1.05432(14)
C16 C 1.07042(9) 0.37446(19) 0.85319(13)
loop_
_geom_bond_atom_site_label_1
_geom_bond_atom_site_label_2
_geom_bond_site_symmetry_1
_geom_bond_site_symmetry_2
H1 C6 1_555 1_555
H2 C16 1_555 1_555
H3 C14 1_555 1_555
H4 C8 1_555 1_555
H5 C2 1_555 1_555
H6 C14 1_555 1_555
H7 C13 1_555 1_555
H8 C15 1_555 1_555
H9 C13 1_555 1_555
H10 C15 1_555 1_555
H11 C12 1_555 1_555
H12 C11 1_555 1_555
H13 C16 1_555 1_555
H14 C15 1_555 1_555
H15 O3 1_555 1_555
H16 C9 1_555 1_555
H17 C9 1_555 1_555
H18 C9 1_555 1_555
O1 C4 1_555 1_555
O2 C1 1_555 1_555
C1 C3 1_555 1_555
C2 C3 1_555 1_555
O3 C12 1_555 1_555
O4 C7 1_555 1_555
O5 C5 1_555 1_555
C3 C7 1_555 1_555
C4 C8 1_555 1_555
C5 O2 1_555 1_555
C6 C2 1_555 1_555
C7 O1 1_555 1_555
C8 C1 1_555 1_555
C9 C4 1_555 1_555
O6 C10 1_555 1_555
C10 C6 1_555 1_555
C11 O5 1_555 1_555
C12 C2 1_555 1_555
C13 C11 1_555 1_555
C14 C5 1_555 1_555
C15 C11 1_555 1_555
C16 C10 1_555 1_555
C5 C6 1_555 1_555
C12 C16 1_555 1_555
C13 C14 1_555 1_555

#END
