
#######################################################################
#
#                 Cambridge Crystallographic Data Centre
#                                CCDC 
#
#######################################################################
#
# If this CIF has been generated from an entry in the Cambridge 
# Structural Database, then it will include bibliographic, chemical, 
# crystal, experimental, refinement or atomic coordinate data resulting 
# from the CCDC's data processing and validation procedures.
#
#######################################################################

data_VAWNEO
_chemical_formula_moiety         'C18 H20 N8 O4,1.5(C2 H6 O1 S1)'
_chemical_name_systematic        
'4-Amino-5-((6-amino-9-ethyl-9H-purin-8-yl)ethynyl)-1-(4-hydroxy-5-(hydroxymethyl)tetrahydrofuran-2-yl)pyrimidin-2(1H)-one dimethylsulfoxide solvate'
_symmetry_cell_setting           triclinic
_symmetry_space_group_name_H-M   'P 1'
_symmetry_Int_Tables_number      1
_space_group_name_Hall           'P 1'
loop_
_symmetry_equiv_pos_site_id
_symmetry_equiv_pos_as_xyz
1 x,y,z
_cell_length_a                   6.6820(13)
_cell_length_b                   14.126(3)
_cell_length_c                   14.661(3)
_cell_angle_alpha                65.97(3)
_cell_angle_beta                 82.42(3)
_cell_angle_gamma                83.79(3)
_cell_volume                     1250.6
_exptl_crystal_colour            colorless
_exptl_crystal_description       plate
_cell_formula_units_Z            2
loop_
_atom_site_label
_atom_site_type_symbol
_atom_site_fract_x
_atom_site_fract_y
_atom_site_fract_z
O1 O 0.6543(4) 0.85839(19) 0.61237(17)
O2 O 0.2826(4) 1.08613(16) 0.65390(17)
O3 O 0.0674(4) 1.1094(2) 0.47811(19)
H1 H -0.0326 1.1504 0.4565
O4 O 0.0201(5) 1.0930(3) 0.8186(2)
H2 H -0.0716 1.1302 0.8351
N1 N 0.1434(4) 0.8254(2) 1.2060(2)
N2 N 0.4649(4) 0.8298(2) 1.2372(2)
N3 N 0.2000(5) 0.7970(2) 1.4856(2)
N4 N -0.0324(5) 0.8051(2) 1.3691(2)
N5 N 0.5442(4) 0.8142(2) 1.4435(2)
H3 H 0.5568 0.8095 1.5042
H4 H 0.6514 0.8221 1.3998
N6 N 0.4696(5) 0.9260(2) 0.7163(2)
N7 N 0.7449(5) 0.8010(2) 0.7719(2)
N8 N 0.8201(5) 0.7428(2) 0.9350(2)
H5 H 0.9291 0.7090 0.9200
H6 H 0.7921 0.7399 0.9964
C1 C 0.3468(6) 0.8343(2) 1.1703(2)
C2 C 0.3305(5) 0.8165(2) 1.3223(2)
C3 C 0.3626(5) 0.8092(2) 1.4178(2)
C4 C 0.0187(6) 0.7975(3) 1.4564(3)
H7 H -0.0915 0.7914 1.5061
C5 C 0.1347(5) 0.8135(2) 1.3028(2)
C6 C -0.0249(6) 0.8302(3) 1.1483(2)
H8 H -0.1402 0.7948 1.1952
H9 H 0.0186 0.7929 1.1040
C7 C -0.0930(7) 0.9408(3) 1.0854(3)
H10 H -0.1378 0.9777 1.1292
H11 H -0.2052 0.9409 1.0486
H12 H 0.0199 0.9756 1.0377
C8 C 0.4145(5) 0.8429(2) 1.0713(2)
C9 C 0.4625(5) 0.8479(2) 0.9882(2)
C10 C 0.5231(5) 0.8549(3) 0.8881(2)
C11 C 0.6971(5) 0.7984(2) 0.8646(2)
C12 C 0.6269(5) 0.8591(2) 0.6968(2)
C13 C 0.4167(6) 0.9205(3) 0.8099(2)
H13 H 0.3043 0.9626 0.8221
C14 C 0.3588(6) 0.9993(3) 0.6311(2)
H14 H 0.4532 1.0228 0.5682
C15 C 0.1749(6) 0.9547(3) 0.6145(3)
H15 H 0.2086 0.9276 0.5614
H16 H 0.1226 0.8982 0.6771
C16 C 0.0233(6) 1.0472(3) 0.5825(2)
H17 H -0.1186 1.0248 0.5977
C17 C 0.0654(6) 1.1022(3) 0.6478(3)
H18 H 0.0283 1.1781 0.6138
C18 C -0.0505(7) 1.0585(3) 0.7515(3)
H19 H -0.1959 1.0799 0.7456
H20 H -0.0365 0.9817 0.7788
O5 O 0.2832(4) 0.61731(19) 1.02824(17)
O6 O 0.8433(4) 0.50101(18) 0.97299(17)
O7 O 0.7257(5) 0.2341(2) 1.1025(3)
H21 H 0.6118 0.2090 1.1221
O8 O 0.9639(5) 0.3949(2) 0.83867(19)
H22 H 0.8974 0.3460 0.8425
N9 N 0.7948(4) 0.5575(2) 0.4676(2)
N10 N 0.4698(4) 0.5731(2) 0.43237(19)
N11 N 0.7325(5) 0.5855(2) 0.1888(2)
N12 N 0.9677(5) 0.5595(2) 0.3098(2)
N13 N 0.3856(4) 0.5928(2) 0.2241(2)
H23 H 0.3728 0.5994 0.1628
H24 H 0.2773 0.5919 0.2656
N14 N 0.5130(4) 0.5643(2) 0.92645(19)
N15 N 0.2040(5) 0.6562(2) 0.8702(2)
N16 N 0.1217(5) 0.6886(2) 0.7129(2)
H25 H 0.0079 0.7209 0.7251
H26 H 0.1500 0.6837 0.6546
C19 C 0.5925(5) 0.5647(2) 0.4998(2)
C20 C 0.6027(5) 0.5728(2) 0.3516(2)
C21 C 0.5698(5) 0.5839(2) 0.2542(2)
C22 C 0.9153(6) 0.5719(3) 0.2202(3)
H27 H 1.0249 0.5707 0.1722
C23 C 0.8006(6) 0.5632(3) 0.3721(2)
C24 C 0.9672(6) 0.5432(3) 0.5244(3)
H28 H 0.9334 0.5775 0.5719
H29 H 1.0841 0.5769 0.4777
C25 C 1.0257(7) 0.4286(4) 0.5828(3)
H30 H 0.9088 0.3943 0.6273
H31 H 1.1366 0.4223 0.6229
H32 H 1.0695 0.3955 0.5357
C26 C 0.5290(5) 0.5679(2) 0.5943(2)
C27 C 0.4906(5) 0.5802(2) 0.6728(2)
C28 C 0.4385(5) 0.5943(2) 0.7633(2)
C29 C 0.2513(5) 0.6473(2) 0.7825(2)
C30 C 0.3264(5) 0.6142(2) 0.9447(2)
C31 C 0.5659(6) 0.5555(2) 0.8379(2)
H33 H 0.6927 0.5221 0.8273
C32 C 0.6430(5) 0.5162(3) 1.0114(2)
H34 H 0.6392 0.5624 1.0483
C33 C 0.5747(6) 0.4097(3) 1.0830(2)
H35 H 0.4282 0.4045 1.0829
H36 H 0.6058 0.3928 1.1523
C34 C 0.7015(6) 0.3404(3) 1.0377(3)
H37 H 0.6444 0.3469 0.9756
C35 C 0.9022(6) 0.3918(3) 1.0095(3)
H38 H 0.9727 0.3716 1.0714
C36 C 1.0456(6) 0.3686(3) 0.9306(3)
H39 H 1.1689 0.4071 0.9175
H40 H 1.0868 0.2936 0.9580
S1 S 0.51879(16) 0.24349(7) 0.87210(8)
O9 O 0.7443(5) 0.2393(3) 0.8392(3)
C37 C 0.4527(9) 0.1136(4) 0.9412(4)
H41 H 0.4971 0.0727 0.9012
H42 H 0.3057 0.1121 0.9571
H43 H 0.5187 0.0842 1.0035
C38 C 0.3974(9) 0.2679(4) 0.7634(4)
H44 H 0.4180 0.3393 0.7149
H45 H 0.2523 0.2587 0.7820
H46 H 0.4550 0.2193 0.7333
S2 S 0.63130(16) 0.30345(8) 0.39547(8)
O10 O 0.7036(5) 0.1949(3) 0.4079(3)
C39 C 0.5839(8) 0.3003(3) 0.5188(3)
H47 H 0.4955 0.2441 0.5599
H48 H 0.5180 0.3668 0.5159
H49 H 0.7122 0.2884 0.5485
C40 C 0.3716(7) 0.3181(3) 0.3718(3)
H50 H 0.3625 0.3182 0.3056
H51 H 0.3111 0.3837 0.3736
H52 H 0.2988 0.2602 0.4233
S3 S 0.24167(17) 0.16463(7) 0.23142(8)
O11 O 0.3351(6) 0.1875(3) 0.1256(2)
C41 C 0.4205(7) 0.0762(3) 0.3099(3)
H53 H 0.4737 0.0248 0.2824
H54 H 0.3541 0.0408 0.3776
H55 H 0.5318 0.1144 0.3127
C42 C 0.0518(7) 0.0769(3) 0.2541(3)
H56 H -0.0616 0.1137 0.2149
H57 H 0.0040 0.0483 0.3256
H58 H 0.1081 0.0203 0.2342
S4? S 0.277(3) 0.0830(13) 0.2107(13)
O12? O 0.3351(6) 0.1875(3) 0.1256(2)
C43? C 0.4205(7) 0.0762(3) 0.3099(3)
C44? C 0.0518(7) 0.0769(3) 0.2541(3)
loop_
_geom_bond_atom_site_label_1
_geom_bond_atom_site_label_2
_geom_bond_site_symmetry_1
_geom_bond_site_symmetry_2
O1 C12 1_555 1_555
O2 C14 1_555 1_555
O3 H1 1_555 1_555
O4 H2 1_555 1_555
N1 C1 1_555 1_555
N2 C1 1_555 1_555
N3 C3 1_555 1_555
N4 C4 1_555 1_555
N5 H3 1_555 1_555
H4 N5 1_555 1_555
N6 C12 1_555 1_555
N7 C11 1_555 1_555
N8 H5 1_555 1_555
H6 N8 1_555 1_555
C1 C8 1_555 1_555
C2 N2 1_555 1_555
C3 N5 1_555 1_555
C4 N3 1_555 1_555
H7 C4 1_555 1_555
C5 N1 1_555 1_555
C6 N1 1_555 1_555
H8 C6 1_555 1_555
H9 C6 1_555 1_555
C7 C6 1_555 1_555
H10 C7 1_555 1_555
H11 C7 1_555 1_555
H12 C7 1_555 1_555
C8 C9 1_555 1_555
C9 C10 1_555 1_555
C10 C11 1_555 1_555
C11 N8 1_555 1_555
C12 N7 1_555 1_555
C13 N6 1_555 1_555
H13 C13 1_555 1_555
C14 N6 1_555 1_555
H14 C14 1_555 1_555
C15 C14 1_555 1_555
H15 C15 1_555 1_555
H16 C15 1_555 1_555
C16 O3 1_555 1_555
H17 C16 1_555 1_555
C17 O2 1_555 1_555
H18 C17 1_555 1_555
C18 O4 1_555 1_555
H19 C18 1_555 1_555
H20 C18 1_555 1_555
O5 C30 1_555 1_555
O6 C32 1_555 1_555
O7 H21 1_555 1_555
O8 H22 1_555 1_555
N9 C19 1_555 1_555
N10 C19 1_555 1_555
N11 C21 1_555 1_555
N12 C22 1_555 1_555
N13 H23 1_555 1_555
H24 N13 1_555 1_555
N14 C30 1_555 1_555
N15 C29 1_555 1_555
N16 H25 1_555 1_555
H26 N16 1_555 1_555
C19 C26 1_555 1_555
C20 N10 1_555 1_555
C21 N13 1_555 1_555
C22 N11 1_555 1_555
H27 C22 1_555 1_555
C23 N9 1_555 1_555
C24 N9 1_555 1_555
H28 C24 1_555 1_555
H29 C24 1_555 1_555
C25 C24 1_555 1_555
H30 C25 1_555 1_555
H31 C25 1_555 1_555
H32 C25 1_555 1_555
C26 C27 1_555 1_555
C27 C28 1_555 1_555
C28 C29 1_555 1_555
C29 N16 1_555 1_555
C30 N15 1_555 1_555
C31 N14 1_555 1_555
H33 C31 1_555 1_555
C32 N14 1_555 1_555
H34 C32 1_555 1_555
C33 C32 1_555 1_555
H35 C33 1_555 1_555
H36 C33 1_555 1_555
C34 O7 1_555 1_555
H37 C34 1_555 1_555
C35 O6 1_555 1_555
H38 C35 1_555 1_555
C36 O8 1_555 1_555
H39 C36 1_555 1_555
H40 C36 1_555 1_555
S1 O9 1_555 1_555
C37 S1 1_555 1_555
H41 C37 1_555 1_555
H42 C37 1_555 1_555
H43 C37 1_555 1_555
C38 S1 1_555 1_555
H44 C38 1_555 1_555
H45 C38 1_555 1_555
H46 C38 1_555 1_555
S2 O10 1_555 1_555
C39 S2 1_555 1_555
H47 C39 1_555 1_555
H48 C39 1_555 1_555
H49 C39 1_555 1_555
C40 S2 1_555 1_555
H50 C40 1_555 1_555
H51 C40 1_555 1_555
H52 C40 1_555 1_555
S3 O11 1_555 1_555
C41 S3 1_555 1_555
H53 C41 1_555 1_555
H54 C41 1_555 1_555
H55 C41 1_555 1_555
C42 S3 1_555 1_555
H56 C42 1_555 1_555
H57 C42 1_555 1_555
H58 C42 1_555 1_555
N4 C5 1_555 1_555
C2 C3 1_555 1_555
C2 C5 1_555 1_555
C10 C13 1_555 1_555
C15 C16 1_555 1_555
C16 C17 1_555 1_555
C17 C18 1_555 1_555
N12 C23 1_555 1_555
C20 C21 1_555 1_555
C20 C23 1_555 1_555
C28 C31 1_555 1_555
C33 C34 1_555 1_555
C34 C35 1_555 1_555
C35 C36 1_555 1_555

#END
