
#######################################################################
#
#                 Cambridge Crystallographic Data Centre
#                                CCDC 
#
#######################################################################
#
# If this CIF has been generated from an entry in the Cambridge 
# Structural Database, then it will include bibliographic, chemical, 
# crystal, experimental, refinement or atomic coordinate data resulting 
# from the CCDC's data processing and validation procedures.
#
#######################################################################

data_VAWPAN
_chemical_formula_moiety         'C23 H22 O6'
_chemical_name_systematic        
'dimethyl hydroxy((4-methylphenyl)(5-phenyl-2-furyl)methyl)malonate'
_symmetry_cell_setting           monoclinic
_symmetry_space_group_name_H-M   'P 21/c'
_symmetry_Int_Tables_number      14
_space_group_name_Hall           '-P 2ybc'
loop_
_symmetry_equiv_pos_site_id
_symmetry_equiv_pos_as_xyz
1 x,y,z
2 -x,1/2+y,1/2-z
3 -x,-y,-z
4 x,1/2-y,1/2+z
_cell_length_a                   12.2622(10)
_cell_length_b                   16.1230(14)
_cell_length_c                   10.5218(8)
_cell_angle_alpha                90
_cell_angle_beta                 97.120(8)
_cell_angle_gamma                90
_cell_volume                     2064.16
_exptl_crystal_colour            white
_exptl_crystal_description       needle
_cell_formula_units_Z            4
_exptl_crystal_recrystallization_method ethanol/hexane
loop_
_atom_site_label
_atom_site_type_symbol
_atom_site_fract_x
_atom_site_fract_y
_atom_site_fract_z
O1 O 0.48143(15) 0.29090(12) 0.38346(16)
O2 O 0.17243(18) 0.37171(13) 0.29015(19)
O3 O 0.08145(16) 0.20603(13) 0.31208(18)
O4 O 0.21336(17) 0.28984(15) 0.60392(16)
H1 H 0.1647 0.2651 0.6352
O5 O 0.04828(19) 0.19490(16) 0.5149(2)
O6 O 0.1308(2) 0.42315(15) 0.4742(2)
C1 C 0.5642(2) 0.34618(19) 0.4257(3)
C2 C 0.3962(2) 0.30464(19) 0.4535(2)
C3 C 0.3257(2) 0.15978(18) 0.4676(2)
C4 C 0.1625(2) 0.3683(2) 0.4138(3)
C5 C 0.3013(2) 0.24773(17) 0.4207(2)
H2 H 0.2866 0.2455 0.3271
C6 C 0.0993(2) 0.2226(2) 0.4359(3)
C7 C 0.6634(2) 0.3426(2) 0.3625(3)
C8 C 0.1961(2) 0.28237(18) 0.4706(2)
C9 C 0.2965(3) 0.09228(19) 0.3894(3)
H3 H 0.2619 0.1009 0.3067
C10 C 0.3181(3) 0.0124(2) 0.4323(3)
H4 H 0.2977 -0.0318 0.3777
C11 C 0.4241(3) 0.3665(2) 0.5379(3)
C12 C 0.3787(2) 0.1443(2) 0.5896(2)
H5 H 0.4004 0.1886 0.6436
C13 C 0.3696(3) -0.0036(2) 0.5549(3)
C14 C 0.6698(3) 0.2920(2) 0.2575(3)
H6 H 0.6103 0.2590 0.2262
C15 C 0.3998(3) 0.0645(2) 0.6318(3)
H7 H 0.4353 0.0560 0.7141
C16 C 0.5315(3) 0.3934(2) 0.5193(3)
C17 C 0.7518(3) 0.3922(2) 0.4048(3)
H8 H 0.7473 0.4275 0.4739
C18 C 0.1401(3) 0.4486(2) 0.2259(3)
H9 H 0.1500 0.4443 0.1370
H10 H 0.1847 0.4930 0.2645
H11 H 0.0643 0.4596 0.2333
C19 C 0.8536(3) 0.3394(3) 0.2444(4)
H12 H 0.9175 0.3374 0.2054
C20 C 0.7647(3) 0.2903(2) 0.1991(3)
H13 H 0.7688 0.2560 0.1288
C21 C 0.0004(3) 0.1430(2) 0.2722(3)
H14 H -0.0055 0.1363 0.1809
H15 H -0.0695 0.1595 0.2960
H16 H 0.0224 0.0914 0.3131
C22 C 0.8475(3) 0.3910(3) 0.3471(4)
H17 H 0.9067 0.4246 0.3775
C23 C 0.3899(3) -0.0907(2) 0.6024(3)
H18 H 0.3235 -0.1131 0.6279
H19 H 0.4462 -0.0905 0.6745
H20 H 0.4132 -0.1242 0.5353
H21 H 0.376(3) 0.388(2) 0.592(3)
H22 H 0.575(3) 0.438(2) 0.570(3)
loop_
_geom_bond_atom_site_label_1
_geom_bond_atom_site_label_2
_geom_bond_site_symmetry_1
_geom_bond_site_symmetry_2
O1 C1 1_555 1_555
O2 C4 1_555 1_555
O3 C6 1_555 1_555
O4 H1 1_555 1_555
O5 C6 1_555 1_555
O6 C4 1_555 1_555
C1 C7 1_555 1_555
C2 O1 1_555 1_555
C3 C5 1_555 1_555
C4 C8 1_555 1_555
C5 C2 1_555 1_555
H2 C5 1_555 1_555
C6 C8 1_555 1_555
C7 C14 1_555 1_555
C8 O4 1_555 1_555
C9 C3 1_555 1_555
H3 C9 1_555 1_555
C10 C9 1_555 1_555
H4 C10 1_555 1_555
C11 C2 1_555 1_555
C12 C3 1_555 1_555
H5 C12 1_555 1_555
C13 C10 1_555 1_555
C14 H6 1_555 1_555
C15 C12 1_555 1_555
H7 C15 1_555 1_555
C16 C1 1_555 1_555
C17 C7 1_555 1_555
H8 C17 1_555 1_555
C18 O2 1_555 1_555
H9 C18 1_555 1_555
H10 C18 1_555 1_555
H11 C18 1_555 1_555
C19 H12 1_555 1_555
C20 C14 1_555 1_555
H13 C20 1_555 1_555
C21 O3 1_555 1_555
H14 C21 1_555 1_555
H15 C21 1_555 1_555
H16 C21 1_555 1_555
C22 C17 1_555 1_555
H17 C22 1_555 1_555
C23 C13 1_555 1_555
H18 C23 1_555 1_555
H19 C23 1_555 1_555
H20 C23 1_555 1_555
H21 C11 1_555 1_555
H22 C16 1_555 1_555
C5 C8 1_555 1_555
C11 C16 1_555 1_555
C13 C15 1_555 1_555
C19 C20 1_555 1_555
C19 C22 1_555 1_555

#END
