
#######################################################################
#
#                 Cambridge Crystallographic Data Centre
#                                CCDC 
#
#######################################################################
#
# If this CIF has been generated from an entry in the Cambridge 
# Structural Database, then it will include bibliographic, chemical, 
# crystal, experimental, refinement or atomic coordinate data resulting 
# from the CCDC's data processing and validation procedures.
#
#######################################################################

data_VAWPEO
_chemical_compound_source        'Myrothecium verrucaria'
_chemical_name_common            'Myrocin C monoacetate'
_chemical_formula_moiety         'C22 H26 O6'
_chemical_name_systematic        
6-Acetyloxy-1,20-cyclo-6,9-dihydroxy-19-oic-7-oxo-8,15-pimaradiene-19,6-\g-lactone
_chemical_properties_biological  'antitumour and antibiotic activity'
_symmetry_cell_setting           orthorhombic
_symmetry_space_group_name_H-M   'P 21 21 21'
_symmetry_Int_Tables_number      19
_space_group_name_Hall           'P 2ac 2ab'
loop_
_symmetry_equiv_pos_site_id
_symmetry_equiv_pos_as_xyz
1 x,y,z
2 1/2+x,1/2-y,-z
3 -x,1/2+y,1/2-z
4 1/2-x,-y,1/2+z
_cell_length_a                   10.091(3)
_cell_length_b                   28.863(9)
_cell_length_c                   6.785(2)
_cell_angle_alpha                90
_cell_angle_beta                 90
_cell_angle_gamma                90
_cell_volume                     1976.18
_exptl_crystal_colour            colorless
_chemical_melting_point          234-235deg.C(dec.)
_cell_formula_units_Z            4
loop_
_atom_site_label
_atom_site_type_symbol
_atom_site_fract_x
_atom_site_fract_y
_atom_site_fract_z
O1 O 0.1931(3) 0.1595(1) 0.4736(5)
O2 O 0.1624(3) 0.0862(1) 0.3759(5)
O3 O 0.3313(3) 0.0959(1) 0.7005(5)
O4 O 0.5323(3) 0.0807(1) 0.1454(5)
O5 O 0.0915(5) 0.2235(2) 0.3753(7)
O6 O 0.3149(4) 0.0324(1) 0.3125(7)
C1 C 0.4824(6) 0.1954(2) 0.0513(8)
C2 C 0.3821(6) 0.2100(2) -0.0967(8)
C3 C 0.2457(6) 0.2165(2) -0.0017(9)
C4 C 0.1983(5) 0.1744(2) 0.1246(7)
C5 C 0.3077(4) 0.1392(1) 0.1804(6)
C6 C 0.2627(4) 0.1219(1) 0.3854(7)
C7 C 0.3710(4) 0.1082(1) 0.5382(7)
C8 C 0.5112(4) 0.1110(2) 0.4824(7)
C9 C 0.5455(5) 0.1220(2) 0.2678(7)
C10 C 0.4471(4) 0.1577(2) 0.1963(7)
C11 C 0.6916(6) 0.1353(2) 0.2466(8)
C12 C 0.7783(5) 0.1044(3) 0.3677(9)
C13 C 0.7508(5) 0.1106(2) 0.5921(8)
C14 C 0.6024(5) 0.1064(2) 0.6244(8)
C15 C 0.8292(7) 0.0756(3) 0.700(1)
C16 C 0.796(1) 0.0417(3) 0.802(2)
C17 C 0.7964(6) 0.1587(3) 0.666(1)
C18 C 0.0808(5) 0.1510(2) 0.0227(9)
C19 C 0.1527(5) 0.1900(2) 0.3297(9)
C20 C 0.4681(6) 0.2082(2) 0.2686(9)
C21 C 0.2013(5) 0.0429(2) 0.3347(8)
C22 C 0.0838(6) 0.0114(2) 0.325(1)
H1 H 0.466(5) 0.062(2) 0.198(8)
H2 H 0.577(5) 0.196(2) 0.006(10)
H3 H 0.379(5) 0.185(2) -0.198(8)
H4 H 0.408(6) 0.241(2) -0.165(10)
H5 H 0.192(5) 0.223(2) -0.100(8)
H6 H 0.245(5) 0.244(2) 0.072(9)
H7 H 0.301(4) 0.113(1) 0.093(6)
H8 H 0.692(5) 0.167(2) 0.274(8)
H9 H 0.712(6) 0.131(2) 0.113(8)
H10 H 0.870(6) 0.116(2) 0.346(9)
H11 H 0.767(6) 0.070(2) 0.329(10)
H12 H 0.573(5) 0.101(2) 0.765(8)
H13 H 0.935(7) 0.073(2) 0.691(12)
H14 H 0.691(8) 0.037(2) 0.830(13)
H15 H 0.893(6) 0.033(2) 0.849(10)
H16 H 0.730(7) 0.185(2) 0.600(12)
H17 H 0.787(6) 0.166(2) 0.821(11)
H18 H 0.894(6) 0.162(2) 0.635(11)
H19 H 0.045(6) 0.121(2) 0.095(8)
H20 H 0.001(6) 0.171(2) 0.006(11)
H21 H 0.110(5) 0.136(2) -0.098(8)
H22 H 0.554(6) 0.211(2) 0.340(11)
H23 H 0.393(5) 0.229(2) 0.304(8)
H24 H 0.009(7) 0.023(2) 0.412(11)
H25 H 0.086(8) -0.003(3) 0.191(14)
H26 H 0.099(8) -0.016(2) 0.351(12)
loop_
_geom_bond_atom_site_label_1
_geom_bond_atom_site_label_2
_geom_bond_site_symmetry_1
_geom_bond_site_symmetry_2
O1 C6 1_555 1_555
O2 C6 1_555 1_555
O3 C7 1_555 1_555
O4 C9 1_555 1_555
O5 C19 1_555 1_555
O6 C21 1_555 1_555
C1 C2 1_555 1_555
C2 C3 1_555 1_555
C3 C4 1_555 1_555
C4 C5 1_555 1_555
C5 C6 1_555 1_555
C6 C7 1_555 1_555
C7 C8 1_555 1_555
C8 C9 1_555 1_555
C9 C10 1_555 1_555
C10 C1 1_555 1_555
C11 C9 1_555 1_555
C12 C11 1_555 1_555
C13 C12 1_555 1_555
C14 C8 1_555 1_555
C15 C13 1_555 1_555
C16 C15 1_555 1_555
C17 C13 1_555 1_555
C18 C4 1_555 1_555
C19 O1 1_555 1_555
C20 C1 1_555 1_555
C21 O2 1_555 1_555
C22 C21 1_555 1_555
H1 O4 1_555 1_555
H2 C1 1_555 1_555
H3 C2 1_555 1_555
H4 C2 1_555 1_555
H5 C3 1_555 1_555
H6 C3 1_555 1_555
H7 C5 1_555 1_555
H8 C11 1_555 1_555
H9 C11 1_555 1_555
H10 C12 1_555 1_555
H11 C12 1_555 1_555
H12 C14 1_555 1_555
H13 C15 1_555 1_555
H14 C16 1_555 1_555
H15 C16 1_555 1_555
H16 C17 1_555 1_555
H17 C17 1_555 1_555
H18 C17 1_555 1_555
H19 C18 1_555 1_555
H20 C18 1_555 1_555
H21 C18 1_555 1_555
H22 C20 1_555 1_555
H23 C20 1_555 1_555
H24 C22 1_555 1_555
H25 C22 1_555 1_555
H26 C22 1_555 1_555
C4 C19 1_555 1_555
C5 C10 1_555 1_555
C10 C20 1_555 1_555
C13 C14 1_555 1_555

#END
