
#######################################################################
#
#                 Cambridge Crystallographic Data Centre
#                                CCDC 
#
#######################################################################
#
# If this CIF has been generated from an entry in the Cambridge 
# Structural Database, then it will include bibliographic, chemical, 
# crystal, experimental, refinement or atomic coordinate data resulting 
# from the CCDC's data processing and validation procedures.
#
#######################################################################

data_VAWPER
_chemical_formula_moiety         'C15 H15 N1 O4 S1'
_chemical_name_systematic        
N-(2-formyl-3-methoxyphenyl)-4-methylbenzene-1-sulfonamide
_symmetry_cell_setting           monoclinic
_symmetry_space_group_name_H-M   'P 21/n'
_symmetry_Int_Tables_number      14
_space_group_name_Hall           '-P 2yn'
loop_
_symmetry_equiv_pos_site_id
_symmetry_equiv_pos_as_xyz
1 x,y,z
2 1/2-x,1/2+y,1/2-z
3 -x,-y,-z
4 1/2+x,1/2-y,1/2+z
_cell_length_a                   5.9655(5)
_cell_length_b                   8.3443(4)
_cell_length_c                   29.031(2)
_cell_angle_alpha                90
_cell_angle_beta                 93.060(8)
_cell_angle_gamma                90
_cell_volume                     1443.04
_exptl_crystal_colour            'light colorless'
_exptl_crystal_description       block
_cell_formula_units_Z            4
loop_
_atom_site_label
_atom_site_type_symbol
_atom_site_fract_x
_atom_site_fract_y
_atom_site_fract_z
S1 S 0.12229(15) 0.22352(9) 0.63669(3)
C1 C 0.7318(8) 0.2370(5) 0.80913(13)
H1 H 0.8824 0.2110 0.8017
H2 H 0.6813 0.1618 0.8314
H3 H 0.7284 0.3433 0.8218
C2 C 0.3034(5) 0.2187(3) 0.68623(10)
C3 C 0.5274(6) -0.3035(3) 0.57506(11)
H4 H 0.5820 -0.4063 0.5703
C4 C 0.5799(6) 0.2293(4) 0.76610(11)
O1 O 0.8035(4) -0.1827(2) 0.52867(8)
O2 O 0.6115(4) 0.2611(2) 0.54819(7)
O3 O -0.0608(4) 0.1177(2) 0.64330(7)
C5 C 0.3465(7) -0.2795(4) 0.60124(11)
H5 H 0.2805 -0.3682 0.6144
O4 O 0.0776(4) 0.3874(2) 0.62513(7)
C6 C 0.2449(6) 0.1370(4) 0.72513(11)
H6 H 0.1127 0.0778 0.7247
C7 C 0.5026(6) 0.3033(4) 0.68701(12)
H7 H 0.5445 0.3569 0.6607
C8 C 0.6387(6) 0.3080(4) 0.72664(13)
H8 H 0.7726 0.3652 0.7269
C9 C 0.3557(6) 0.0020(3) 0.58983(9)
N1 N 0.2679(5) 0.1580(3) 0.59470(8)
H9 H 0.2942 0.2254 0.5732
C10 C 0.5448(6) -0.0161(3) 0.56374(9)
C11 C 0.2577(7) -0.1304(3) 0.60895(11)
H10 H 0.1336 -0.1190 0.6268
C12 C 0.6269(6) -0.1729(3) 0.55591(10)
C13 C 0.6655(6) 0.1194(4) 0.54563(10)
H11 H 0.7958 0.0966 0.5307
C14 C 0.3832(7) 0.1435(4) 0.76459(13)
H12 H 0.3425 0.0886 0.7908
C15 C 0.8840(7) -0.3399(4) 0.51787(13)
H13 H 1.0056 -0.3308 0.4977
H14 H 0.7645 -0.4009 0.5030
H15 H 0.9358 -0.3930 0.5458
loop_
_geom_bond_atom_site_label_1
_geom_bond_atom_site_label_2
_geom_bond_site_symmetry_1
_geom_bond_site_symmetry_2
S1 C2 1_555 1_555
C1 H1 1_555 1_555
H2 C1 1_555 1_555
H3 C1 1_555 1_555
C2 C6 1_555 1_555
C3 H4 1_555 1_555
C4 C1 1_555 1_555
O1 C12 1_555 1_555
O2 C13 1_555 1_555
O3 S1 1_555 1_555
C5 C3 1_555 1_555
H5 C5 1_555 1_555
O4 S1 1_555 1_555
C6 H6 1_555 1_555
C7 C2 1_555 1_555
H7 C7 1_555 1_555
C8 C4 1_555 1_555
H8 C8 1_555 1_555
C9 N1 1_555 1_555
N1 S1 1_555 1_555
H9 N1 1_555 1_555
C10 C9 1_555 1_555
C11 C5 1_555 1_555
H10 C11 1_555 1_555
C12 C3 1_555 1_555
C13 C10 1_555 1_555
H11 C13 1_555 1_555
C14 C4 1_555 1_555
H12 C14 1_555 1_555
C15 O1 1_555 1_555
H13 C15 1_555 1_555
H14 C15 1_555 1_555
H15 C15 1_555 1_555
C6 C14 1_555 1_555
C7 C8 1_555 1_555
C9 C11 1_555 1_555
C10 C12 1_555 1_555

#END
