
#######################################################################
#
#                 Cambridge Crystallographic Data Centre
#                                CCDC 
#
#######################################################################
#
# If this CIF has been generated from an entry in the Cambridge 
# Structural Database, then it will include bibliographic, chemical, 
# crystal, experimental, refinement or atomic coordinate data resulting 
# from the CCDC's data processing and validation procedures.
#
#######################################################################

data_VAWPIV
_chemical_formula_moiety         'C18 H15 N1 O3 S1'
_chemical_name_systematic        
N-(3-formylnaphthalen-2-yl)-4-methylbenzene-1-sulfonamide
_symmetry_cell_setting           triclinic
_symmetry_space_group_name_H-M   'P -1'
_symmetry_Int_Tables_number      2
_space_group_name_Hall           '-P 1'
loop_
_symmetry_equiv_pos_site_id
_symmetry_equiv_pos_as_xyz
1 x,y,z
2 -x,-y,-z
_cell_length_a                   7.7523(6)
_cell_length_b                   9.9375(8)
_cell_length_c                   10.9445(8)
_cell_angle_alpha                83.039(7)
_cell_angle_beta                 79.544(6)
_cell_angle_gamma                72.210(7)
_cell_volume                     787.551
_exptl_crystal_colour            'light colorless'
_exptl_crystal_description       block
_cell_formula_units_Z            2
loop_
_atom_site_label
_atom_site_type_symbol
_atom_site_fract_x
_atom_site_fract_y
_atom_site_fract_z
S1 S -0.12648(12) 0.76216(9) 0.78133(8)
O1 O -0.0105(3) 0.8930(2) 0.4113(2)
O2 O -0.1806(3) 0.6374(2) 0.8290(2)
O3 O -0.2595(3) 0.8989(2) 0.7850(2)
C1 C 0.2883(4) 0.3895(3) 0.5815(3)
C2 C 0.2479(5) 0.8887(3) 0.9094(3)
H1 H 0.2887 0.9689 0.8984
N1 N -0.0405(3) 0.7491(2) 0.6353(2)
H2 H -0.0792 0.8224 0.5862
C3 C 0.0507(4) 0.7661(3) 0.8598(3)
C4 C 0.3558(5) 0.2558(3) 0.6470(3)
H3 H 0.3078 0.2398 0.7299
C5 C 0.1122(5) 0.8844(3) 0.8455(3)
H4 H 0.0619 0.9614 0.7925
C6 C 0.2911(4) 0.5406(3) 0.3924(3)
H5 H 0.3352 0.5542 0.3084
C7 C 0.3596(4) 0.4084(3) 0.4555(3)
C8 C 0.3244(5) 0.7773(3) 0.9891(3)
C9 C 0.1606(4) 0.6506(3) 0.4513(3)
C10 C 0.0904(4) 0.6316(3) 0.5793(3)
C11 C 0.1012(5) 0.7846(3) 0.3766(3)
H6 H 0.1552 0.7864 0.2935
C12 C 0.1520(4) 0.5024(3) 0.6428(3)
H7 H 0.1044 0.4887 0.7261
C13 C 0.1276(5) 0.6524(3) 0.9377(3)
H8 H 0.0885 0.5715 0.9477
C14 C 0.4971(5) 0.2959(3) 0.3965(3)
H9 H 0.5422 0.3076 0.3124
C15 C 0.4698(5) 0.7846(4) 1.0602(3)
H10 H 0.5651 0.8124 1.0037
H11 H 0.5205 0.6933 1.1006
H12 H 0.4166 0.8528 1.1217
C16 C 0.5633(5) 0.1719(4) 0.4613(4)
H13 H 0.6568 0.0998 0.4224
C17 C 0.4922(5) 0.1512(3) 0.5864(4)
H14 H 0.5383 0.0647 0.6296
C18 C 0.2637(5) 0.6595(3) 1.0009(3)
H15 H 0.3156 0.5821 1.0530
loop_
_geom_bond_atom_site_label_1
_geom_bond_atom_site_label_2
_geom_bond_site_symmetry_1
_geom_bond_site_symmetry_2
S1 O2 1_555 1_555
O1 C11 1_555 1_555
O3 S1 1_555 1_555
C1 C4 1_555 1_555
C2 H1 1_555 1_555
N1 S1 1_555 1_555
H2 N1 1_555 1_555
C3 S1 1_555 1_555
C4 H3 1_555 1_555
C5 C2 1_555 1_555
H4 C5 1_555 1_555
C6 H5 1_555 1_555
C7 C1 1_555 1_555
C8 C2 1_555 1_555
C9 C6 1_555 1_555
C10 N1 1_555 1_555
C11 C9 1_555 1_555
H6 C11 1_555 1_555
C12 C1 1_555 1_555
H7 C12 1_555 1_555
C13 C3 1_555 1_555
H8 C13 1_555 1_555
C14 C7 1_555 1_555
H9 C14 1_555 1_555
C15 C8 1_555 1_555
H10 C15 1_555 1_555
H11 C15 1_555 1_555
H12 C15 1_555 1_555
C16 C14 1_555 1_555
H13 C16 1_555 1_555
C17 C4 1_555 1_555
H14 C17 1_555 1_555
C18 C8 1_555 1_555
H15 C18 1_555 1_555
C3 C5 1_555 1_555
C6 C7 1_555 1_555
C9 C10 1_555 1_555
C10 C12 1_555 1_555
C13 C18 1_555 1_555
C16 C17 1_555 1_555

#END
