
#######################################################################
#
#                 Cambridge Crystallographic Data Centre
#                                CCDC 
#
#######################################################################
#
# If this CIF has been generated from an entry in the Cambridge 
# Structural Database, then it will include bibliographic, chemical, 
# crystal, experimental, refinement or atomic coordinate data resulting 
# from the CCDC's data processing and validation procedures.
#
#######################################################################

data_VAWRUI
_chemical_formula_moiety         'C28 H32 Br1 Cl1 N4 O1 S1'
_chemical_name_systematic        
(4-((1-(4-Bromophenyl)ethyl)amino)-2-(3-thienyl)cyclohexyl)(4-(5-chloropyridin-2-yl)piperazin-1-yl)methanone
_symmetry_cell_setting           orthorhombic
_symmetry_space_group_name_H-M   'P 21 21 21'
_symmetry_Int_Tables_number      19
_space_group_name_Hall           'P 2ac 2ab'
loop_
_symmetry_equiv_pos_site_id
_symmetry_equiv_pos_as_xyz
1 x,y,z
2 1/2-x,-y,1/2+z
3 1/2+x,1/2-y,-z
4 -x,1/2+y,1/2-z
_cell_length_a                   5.96737(13)
_cell_length_b                   15.0858(3)
_cell_length_c                   29.8320(6)
_cell_angle_alpha                90
_cell_angle_beta                 90
_cell_angle_gamma                90
_cell_volume                     2685.55
_exptl_crystal_colour            colorless
_cell_formula_units_Z            4
loop_
_atom_site_label
_atom_site_type_symbol
_atom_site_fract_x
_atom_site_fract_y
_atom_site_fract_z
C1 C 0.0785(4) 0.37048(16) 1.07426(8)
H1 H -0.0736 0.3440 1.0785
C2 C 0.0730(4) 0.46810(16) 1.09109(8)
H2 H 0.2147 0.4986 1.0820
C3 C 0.0478(5) 0.47329(17) 1.14225(8)
H3 H 0.0586 0.5359 1.1519
H4 H -0.1018 0.4508 1.1510
C4 C 0.2279(5) 0.41916(17) 1.16584(9)
H5 H 0.3772 0.4436 1.1583
H6 H 0.2075 0.4242 1.1987
C5 C 0.2192(4) 0.32204(17) 1.15243(9)
H7 H 0.3462 0.2902 1.1672
C6 C 0.2485(4) 0.31589(16) 1.10139(8)
H8 H 0.2357 0.2530 1.0923
H9 H 0.4014 0.3361 1.0936
C7 C 0.1362(4) 0.36751(16) 1.02501(8)
C8 C 0.3470(4) 0.39413(16) 1.00751(8)
H10 H 0.4662 0.4151 1.0258
C9 C 0.3640(4) 0.38626(14) 0.95831(8)
H11 H 0.4895 0.4016 0.9403
C10 C -0.0047(5) 0.33834(18) 0.99177(9)
H12 H -0.1524 0.3171 0.9969
C11 C -0.1239(4) 0.51252(15) 1.06815(8)
C12 C 0.1136(4) 0.62663(17) 1.02817(8)
H13 H 0.2402 0.5997 1.0448
H14 H 0.0905 0.6874 1.0398
C13 C 0.1704(4) 0.63105(17) 0.97893(8)
H15 H 0.2994 0.6713 0.9744
H16 H 0.2138 0.5714 0.9682
C14 C -0.2196(4) 0.60816(18) 0.96003(9)
H17 H -0.1906 0.5473 0.9491
H18 H -0.3469 0.6328 0.9428
C15 C -0.2783(4) 0.60564(17) 1.00939(8)
H19 H -0.3209 0.6658 1.0195
H20 H -0.4084 0.5659 1.0141
C16 C 0.0133(4) 0.70796(16) 0.91336(8)
C17 C -0.1610(5) 0.72333(18) 0.88261(8)
H21 H -0.3038 0.6969 0.8869
C18 C -0.1222(5) 0.77706(18) 0.84619(9)
H22 H -0.2371 0.7877 0.8248
C19 C 0.0876(5) 0.81540(16) 0.84122(8)
C20 C 0.2521(4) 0.79446(17) 0.87133(9)
H23 H 0.3971 0.8190 0.8670
C21 C 0.0042(5) 0.24903(18) 1.21280(9)
H24 H 0.1584 0.2290 1.2212
C22 C -0.1558(7) 0.17029(19) 1.21663(11)
H25 H -0.3094 0.1902 1.2108
H26 H -0.1468 0.1453 1.2469
H27 H -0.1139 0.1249 1.1947
C23 C -0.0672(5) 0.32221(18) 1.24472(9)
C24 C -0.2691(5) 0.36653(19) 1.23936(9)
H28 H -0.3605 0.3527 1.2142
C25 C -0.3414(5) 0.42983(19) 1.26924(9)
H29 H -0.4809 0.4590 1.2650
C26 C -0.2063(5) 0.45009(18) 1.30568(9)
C27 C -0.0022(6) 0.4093(2) 1.31178(9)
H30 H 0.0905 0.4250 1.3364
C28 C 0.0661(5) 0.34541(19) 1.28157(9)
H31 H 0.2060 0.3166 1.2859
N1 N 0.0074(4) 0.27963(15) 1.16587(7)
H32 H -0.0067 0.2268 1.1482
N2 N -0.0892(3) 0.57408(14) 1.03568(7)
N3 N -0.0207(4) 0.66299(15) 0.95312(7)
N4 N 0.2194(4) 0.74112(14) 0.90666(7)
O1 O -0.3151(3) 0.48793(12) 1.07734(6)
S1 S 0.11711(14) 0.34478(6) 0.94015(2)
Cl1 Cl 0.14436(12) 0.88573(4) 0.79648(2)
Br1 Br -0.31251(7) 0.53435(2) 1.348410(11)
loop_
_geom_bond_atom_site_label_1
_geom_bond_atom_site_label_2
_geom_bond_site_symmetry_1
_geom_bond_site_symmetry_2
C1 H1 1_555 1_555
C2 C1 1_555 1_555
H2 C2 1_555 1_555
C3 C2 1_555 1_555
H3 C3 1_555 1_555
H4 C3 1_555 1_555
C4 C3 1_555 1_555
H5 C4 1_555 1_555
H6 C4 1_555 1_555
C5 C4 1_555 1_555
H7 C5 1_555 1_555
C6 C1 1_555 1_555
H8 C6 1_555 1_555
H9 C6 1_555 1_555
C7 C1 1_555 1_555
C8 C7 1_555 1_555
H10 C8 1_555 1_555
C9 C8 1_555 1_555
H11 C9 1_555 1_555
C10 C7 1_555 1_555
H12 C10 1_555 1_555
C11 C2 1_555 1_555
C12 H13 1_555 1_555
H14 C12 1_555 1_555
C13 C12 1_555 1_555
H15 C13 1_555 1_555
H16 C13 1_555 1_555
C14 H17 1_555 1_555
H18 C14 1_555 1_555
C15 C14 1_555 1_555
H19 C15 1_555 1_555
H20 C15 1_555 1_555
C16 C17 1_555 1_555
C17 H21 1_555 1_555
C18 C17 1_555 1_555
H22 C18 1_555 1_555
C19 C18 1_555 1_555
C20 C19 1_555 1_555
H23 C20 1_555 1_555
C21 H24 1_555 1_555
C22 C21 1_555 1_555
H25 C22 1_555 1_555
H26 C22 1_555 1_555
H27 C22 1_555 1_555
C23 C21 1_555 1_555
C24 C23 1_555 1_555
H28 C24 1_555 1_555
C25 C24 1_555 1_555
H29 C25 1_555 1_555
C26 C25 1_555 1_555
C27 C26 1_555 1_555
H30 C27 1_555 1_555
C28 C23 1_555 1_555
H31 C28 1_555 1_555
N1 C5 1_555 1_555
H32 N1 1_555 1_555
N2 C11 1_555 1_555
N3 C13 1_555 1_555
N4 C16 1_555 1_555
O1 C11 1_555 1_555
S1 C9 1_555 1_555
Cl1 C19 1_555 1_555
Br1 C26 1_555 1_555
C5 C6 1_555 1_555
C10 S1 1_555 1_555
C12 N2 1_555 1_555
C14 N3 1_555 1_555
C15 N2 1_555 1_555
C16 N3 1_555 1_555
C20 N4 1_555 1_555
C21 N1 1_555 1_555
C27 C28 1_555 1_555

#END
