
#######################################################################
#
#                 Cambridge Crystallographic Data Centre
#                                CCDC 
#
#######################################################################
#
# If this CIF has been generated from an entry in the Cambridge 
# Structural Database, then it will include bibliographic, chemical, 
# crystal, experimental, refinement or atomic coordinate data resulting 
# from the CCDC's data processing and validation procedures.
#
#######################################################################

data_VAWRAP
_chemical_formula_moiety         'C12 H11 N1 O2'
_chemical_name_systematic        3,3-dimethyl-1H,3H-furo[3,4-a]indolizin-1-one
_symmetry_cell_setting           monoclinic
_symmetry_space_group_name_H-M   'P 21/n'
_symmetry_Int_Tables_number      14
_space_group_name_Hall           '-P 2yn'
loop_
_symmetry_equiv_pos_site_id
_symmetry_equiv_pos_as_xyz
1 x,y,z
2 1/2-x,1/2+y,1/2-z
3 -x,-y,-z
4 1/2+x,1/2-y,1/2+z
_cell_length_a                   8.0248(7)
_cell_length_b                   12.1750(12)
_cell_length_c                   10.5501(12)
_cell_angle_alpha                90
_cell_angle_beta                 100.480(9)
_cell_angle_gamma                90
_cell_volume                     1013.57
_cell_formula_units_Z            4
loop_
_atom_site_label
_atom_site_type_symbol
_atom_site_fract_x
_atom_site_fract_y
_atom_site_fract_z
O1 O -0.00186(11) 0.04604(8) 0.16840(9)
O2 O 0.19206(12) 0.10200(9) 0.33690(11)
N1 N -0.34029(13) 0.11488(8) 0.42735(11)
C1 C 0.04476(16) 0.08482(10) 0.29198(14)
C2 C -0.10768(16) 0.09787(10) 0.34371(13)
C3 C -0.16419(15) 0.12889(10) 0.45540(13)
C4 C -0.09113(18) 0.16867(11) 0.57813(14)
H1 H 0.0254 0.1795 0.5990
C5 C -0.19030(19) 0.19125(12) 0.66590(14)
H2 H -0.1419 0.2183 0.7467
C6 C -0.3672(2) 0.17387(12) 0.63495(15)
H3 H -0.4342 0.1882 0.6963
C7 C -0.43991(18) 0.13667(11) 0.51749(14)
H4 H -0.5565 0.1258 0.4976
C8 C -0.39110(16) 0.07667(11) 0.30200(13)
H5 H -0.5012 0.0613 0.2609
C9 C -0.24738(16) 0.06620(11) 0.25161(13)
C10 C -0.18717(16) 0.03095(12) 0.13128(14)
C11 C -0.2470(2) 0.10474(16) 0.01621(16)
H6 H -0.2155 0.1793 0.0385
H7 H -0.3680 0.0998 -0.0080
H8 H -0.1953 0.0819 -0.0547
C12 C -0.2184(2) -0.08989(14) 0.09963(18)
H9 H -0.1670 -0.1091 0.0273
H10 H -0.3381 -0.1033 0.0788
H11 H -0.1697 -0.1336 0.1728
loop_
_geom_bond_atom_site_label_1
_geom_bond_atom_site_label_2
_geom_bond_site_symmetry_1
_geom_bond_site_symmetry_2
O1 C1 1_555 1_555
O2 C1 1_555 1_555
N1 C3 1_555 1_555
C1 C2 1_555 1_555
C2 C3 1_555 1_555
C3 C4 1_555 1_555
C4 H1 1_555 1_555
C5 C4 1_555 1_555
H2 C5 1_555 1_555
C6 C5 1_555 1_555
H3 C6 1_555 1_555
C7 N1 1_555 1_555
H4 C7 1_555 1_555
C8 N1 1_555 1_555
H5 C8 1_555 1_555
C9 C2 1_555 1_555
C10 O1 1_555 1_555
C11 C10 1_555 1_555
H6 C11 1_555 1_555
H7 C11 1_555 1_555
H8 C11 1_555 1_555
C12 C10 1_555 1_555
H9 C12 1_555 1_555
H10 C12 1_555 1_555
H11 C12 1_555 1_555
C6 C7 1_555 1_555
C8 C9 1_555 1_555
C9 C10 1_555 1_555

#END
