
#######################################################################
#
#                 Cambridge Crystallographic Data Centre
#                                CCDC 
#
#######################################################################
#
# If this CIF has been generated from an entry in the Cambridge 
# Structural Database, then it will include bibliographic, chemical, 
# crystal, experimental, refinement or atomic coordinate data resulting 
# from the CCDC's data processing and validation procedures.
#
#######################################################################

data_VAWSAP
_chemical_formula_moiety         'C13 H21 N1 O4'
_chemical_name_systematic        
'Methyl 1-hydroxy-6-isopropyl-5-oxooctahydroindolizine-3-carboxylate'
_symmetry_cell_setting           monoclinic
_symmetry_space_group_name_H-M   'C 2'
_symmetry_Int_Tables_number      5
_space_group_name_Hall           'C 2y'
loop_
_symmetry_equiv_pos_site_id
_symmetry_equiv_pos_as_xyz
1 x,y,z
2 -x,y,-z
3 1/2+x,1/2+y,z
4 1/2-x,1/2+y,-z
_cell_length_a                   13.491(2)
_cell_length_b                   6.0916(10)
_cell_length_c                   16.623(3)
_cell_angle_alpha                90
_cell_angle_beta                 101.837(2)
_cell_angle_gamma                90
_cell_volume                     1337.06
_exptl_crystal_colour            colorless
_exptl_crystal_description       plate
_cell_formula_units_Z            4
_exptl_crystal_recrystallization_method 'ethyl acetate/hexanes'
loop_
_atom_site_label
_atom_site_type_symbol
_atom_site_fract_x
_atom_site_fract_y
_atom_site_fract_z
N1 N 0.52974(17) 0.1086(4) 0.28475(14)
O1 O 0.61749(15) -0.2508(4) 0.45230(12)
O2 O 0.59449(16) -0.3264(4) 0.31728(12)
O3 O 0.37408(15) 0.3615(4) 0.34507(13)
H1 H 0.3197 0.4328 0.3337
O4 O 0.69966(14) 0.1285(4) 0.31668(11)
C1 C 0.6720(3) -0.4563(6) 0.4729(2)
H2 H 0.6935 -0.4684 0.5327
H3 H 0.7317 -0.4589 0.4478
H4 H 0.6276 -0.5798 0.4520
C2 C 0.5839(2) -0.2120(5) 0.37363(17)
C3 C 0.5255(2) 0.0060(5) 0.36255(18)
H5 H 0.5541 0.1079 0.4087
C4 C 0.4109(2) -0.0240(6) 0.3577(2)
H6 H 0.3877 -0.1691 0.3343
H7 H 0.3940 -0.0100 0.4126
C5 C 0.3630(2) 0.1622(6) 0.30071(18)
H8 H 0.2903 0.1311 0.2762
C6 C 0.4284(2) 0.1582(6) 0.23507(17)
H9 H 0.4062 0.0322 0.1971
C7 C 0.4338(2) 0.3615(6) 0.18438(18)
H10 H 0.4510 0.4902 0.2210
H11 H 0.3672 0.3887 0.1478
C8 C 0.5144(2) 0.3305(6) 0.13299(18)
H12 H 0.5183 0.4649 0.1003
H13 H 0.4944 0.2074 0.0942
C9 C 0.6195(2) 0.2825(5) 0.18675(17)
H14 H 0.6527 0.4281 0.2009
C10 C 0.61882(19) 0.1688(5) 0.26716(17)
C11 C 0.6896(2) 0.1512(5) 0.14091(16)
H15 H 0.7555 0.1305 0.1805
C12 C 0.6476(2) -0.0777(6) 0.11642(19)
H16 H 0.6937 -0.1555 0.0878
H17 H 0.5809 -0.0645 0.0800
H18 H 0.6413 -0.1597 0.1658
C13 C 0.7124(2) 0.2762(6) 0.06745(19)
H19 H 0.7566 0.1873 0.0404
H20 H 0.7463 0.4148 0.0862
H21 H 0.6490 0.3069 0.0284
loop_
_geom_bond_atom_site_label_1
_geom_bond_atom_site_label_2
_geom_bond_site_symmetry_1
_geom_bond_site_symmetry_2
N1 C3 1_555 1_555
O1 C1 1_555 1_555
O2 C2 1_555 1_555
O3 H1 1_555 1_555
O4 C10 1_555 1_555
C1 H2 1_555 1_555
H3 C1 1_555 1_555
H4 C1 1_555 1_555
C2 O1 1_555 1_555
C3 C2 1_555 1_555
H5 C3 1_555 1_555
C4 C3 1_555 1_555
H6 C4 1_555 1_555
H7 C4 1_555 1_555
C5 O3 1_555 1_555
H8 C5 1_555 1_555
C6 N1 1_555 1_555
H9 C6 1_555 1_555
C7 C6 1_555 1_555
H10 C7 1_555 1_555
H11 C7 1_555 1_555
C8 C7 1_555 1_555
H12 C8 1_555 1_555
H13 C8 1_555 1_555
C9 C8 1_555 1_555
H14 C9 1_555 1_555
C10 N1 1_555 1_555
C11 C9 1_555 1_555
H15 C11 1_555 1_555
C12 C11 1_555 1_555
H16 C12 1_555 1_555
H17 C12 1_555 1_555
H18 C12 1_555 1_555
C13 C11 1_555 1_555
H19 C13 1_555 1_555
H20 C13 1_555 1_555
H21 C13 1_555 1_555
C4 C5 1_555 1_555
C5 C6 1_555 1_555
C9 C10 1_555 1_555

#END
