
#######################################################################
#
#                 Cambridge Crystallographic Data Centre
#                                CCDC 
#
#######################################################################
#
# If this CIF has been generated from an entry in the Cambridge 
# Structural Database, then it will include bibliographic, chemical, 
# crystal, experimental, refinement or atomic coordinate data resulting 
# from the CCDC's data processing and validation procedures.
#
#######################################################################

data_VAWTAQ
_chemical_formula_moiety         'C32 H48 N6 O7,3(H2 O1)'
_chemical_name_systematic        
'Cyclo-(glycyl-prolyl-leucyl-threonyl-leucyl-phenylalanyl) trihydrate'
_symmetry_cell_setting           monoclinic
_symmetry_space_group_name_H-M   'P 21'
_symmetry_Int_Tables_number      4
_space_group_name_Hall           'P 2yb'
loop_
_symmetry_equiv_pos_site_id
_symmetry_equiv_pos_as_xyz
1 x,y,z
2 -x,1/2+y,-z
_cell_length_a                   15.056(5)
_cell_length_b                   7.346(5)
_cell_length_c                   16.666(5)
_cell_angle_alpha                90
_cell_angle_beta                 104.206(5)
_cell_angle_gamma                90
_cell_volume                     1786.91
_cell_formula_units_Z            2
loop_
_atom_site_label
_atom_site_type_symbol
_atom_site_fract_x
_atom_site_fract_y
_atom_site_fract_z
O1 O 0.11857(9) 0.2629(2) 0.71848(8)
O2 O 0.27306(9) 0.47809(19) 0.86805(8)
N1 N 0.36099(10) 0.3487(2) 1.14008(9)
H1 H 0.3255 0.2519 1.1329
O3 O 0.54306(9) 0.3292(3) 1.03241(9)
O4 O -0.06875(10) 0.5407(3) 0.84445(9)
N2 N 0.31571(10) 0.3482(2) 0.76146(9)
O5 O 0.20211(9) 0.1656(2) 0.95912(9)
H2 H 0.2195 0.0575 0.9569
N3 N 0.39115(10) 0.2866(2) 0.98576(9)
H3 H 0.3377 0.2842 0.9983
N4 N 0.07996(10) 0.4495(3) 0.87697(9)
H4 H 0.1318 0.4521 0.8615
C1 C 0.39469(12) 0.2567(3) 0.90093(11)
H5 H 0.3839 0.1263 0.8869
H6 H 0.4562 0.2894 0.8941
O6 O 0.36932(10) 0.6522(2) 1.16407(10)
N5 N 0.10612(10) 0.5706(3) 0.72687(9)
H7 H 0.1352 0.6739 0.7253
C2 C 0.32255(11) 0.3712(3) 0.84289(11)
N6 N 0.16646(10) 0.4029(3) 1.10143(10)
C3 C 0.14367(12) 0.4797(3) 1.02508(11)
C4 C 0.01345(13) 0.5806(3) 0.74019(12)
H8 H -0.0041 0.7122 0.7352
C5 C 0.46623(12) 0.3176(3) 1.04541(11)
O8 O 0.17252(13) 0.6291(2) 1.01209(10)
C6 C 0.45524(12) 0.3306(3) 1.13398(11)
H9 H 0.4895 0.4408 1.1600
C7 C 0.22821(12) 0.5021(3) 1.16843(11)
H10 H 0.2053 0.6299 1.1683
C8 C 0.10754(12) 0.1677(3) 0.95865(11)
H11 H 0.0998 0.1125 1.0113
C9 C 0.00564(13) 0.5202(3) 0.82614(12)
C10 C 0.32674(11) 0.5087(3) 1.15637(10)
C11 C -0.05837(14) 0.4806(4) 0.67400(12)
H12 H -0.1199 0.5193 0.6786
H13 H -0.0528 0.3485 0.6859
C12 C 0.24519(12) 0.4468(3) 0.70080(11)
H14 H 0.2602 0.5795 0.7015
C13 C 0.50885(14) 0.1733(3) 1.27420(13)
C14 C 0.08033(12) 0.3685(3) 0.95647(11)
H15 H 0.0168 0.3762 0.9645
C15 C 0.22608(13) 0.4144(3) 1.25150(12)
H16 H 0.1633 0.4257 1.2595
H17 H 0.2396 0.2830 1.2488
C16 C 0.29334(14) 0.4965(4) 1.32675(12)
H18 H 0.3571 0.4729 1.3215
C17 C 0.14959(12) 0.4177(3) 0.71699(10)
C18 C 0.37153(14) 0.2272(3) 0.72329(12)
H19 H 0.3548 0.0980 0.7282
H20 H 0.4376 0.2431 0.7493
C19 C 0.58059(17) 0.2661(3) 1.32666(15)
H21 H 0.6258 0.3236 1.3044
C20 C 0.58729(19) 0.2761(4) 1.41151(15)
H22 H 0.6362 0.3418 1.4463
C21 C 0.50130(15) 0.1625(4) 1.18222(13)
H23 H 0.4656 0.0527 1.1599
H24 H 0.5635 0.1487 1.1731
C22 C -0.05193(15) 0.5110(6) 0.58447(13)
H25 H 0.0065 0.4550 0.5782
C23 C 0.44532(16) 0.0876(4) 1.30900(14)
H26 H 0.3961 0.0221 1.2745
C24 C 0.2816(2) 0.4049(5) 1.40564(14)
H27 H 0.2219 0.4380 1.4150
H28 H 0.3304 0.4453 1.4527
H29 H 0.2849 0.2725 1.3998
C25 C 0.45266(18) 0.0961(4) 1.39384(15)
H30 H 0.4087 0.0361 1.4168
C26 C 0.52368(19) 0.1918(4) 1.44480(15)
H31 H 0.5282 0.1989 1.5026
C27 C 0.34832(18) 0.2878(4) 0.63311(14)
H32 H 0.3909 0.3841 0.6241
H33 H 0.3513 0.1841 0.5960
C28 C 0.05095(14) 0.0595(3) 0.88603(12)
H34 H 0.0634 0.1040 0.8344
H35 H -0.0143 0.0745 0.8837
H36 H 0.0673 -0.0696 0.8932
C29 C -0.1302(2) 0.4146(10) 0.52605(18)
H37 H -0.1245 0.2831 0.5358
H38 H -0.1286 0.4409 0.4688
H39 H -0.1885 0.4572 0.5356
C30 C 0.25178(15) 0.3599(4) 0.61823(12)
H40 H 0.2068 0.2599 0.6026
H41 H 0.2399 0.4517 0.5734
C31 C 0.2807(2) 0.7008(4) 1.33285(16)
H42 H 0.2978 0.7613 1.2864
H43 H 0.3196 0.7456 1.3851
H44 H 0.2164 0.7274 1.3309
C32 C -0.0500(3) 0.7125(8) 0.5631(3)
H45 H -0.1045 0.7725 0.5729
H46 H -0.0493 0.7258 0.5048
H47 H 0.0051 0.7688 0.5981
H52 H 0.147(3) 0.291(6) 1.109(2)
O7 O 0.20528(13) 0.9099(2) 0.74935(13)
H48 H 0.181(3) 1.010(4) 0.741(2)
H49 H 0.224(2) 0.884(6) 0.8004(13)
O9 O 0.27017(10) 0.8507(2) 0.92195(12)
H50 H 0.3278(13) 0.826(5) 0.936(2)
H51 H 0.245(2) 0.754(4) 0.937(2)
O10 O 0.26576(16) -0.0046(3) 1.14269(13)
H53 H 0.2986(18) -0.103(2) 1.129(2)
H54 H 0.2148(15) -0.033(4) 1.1104(19)
loop_
_geom_bond_atom_site_label_1
_geom_bond_atom_site_label_2
_geom_bond_site_symmetry_1
_geom_bond_site_symmetry_2
O1 C17 1_555 1_555
O2 C2 1_555 1_555
N1 H1 1_555 1_555
O3 C5 1_555 1_555
O4 C9 1_555 1_555
N2 C2 1_555 1_555
O5 H2 1_555 1_555
N3 H3 1_555 1_555
N4 H4 1_555 1_555
C1 N3 1_555 1_555
H5 C1 1_555 1_555
H6 C1 1_555 1_555
O6 C10 1_555 1_555
N5 H7 1_555 1_555
C2 C1 1_555 1_555
N6 C3 1_555 1_555
O7 H48 1_555 1_555
C3 O8 1_555 1_555
C4 N5 1_555 1_555
H8 C4 1_555 1_555
C5 N3 1_555 1_555
C6 N1 1_555 1_555
H9 C6 1_555 1_555
C7 N6 1_555 1_555
H10 C7 1_555 1_555
C8 O5 1_555 1_555
H11 C8 1_555 1_555
C9 N4 1_555 1_555
C10 N1 1_555 1_555
C11 C4 1_555 1_555
H12 C11 1_555 1_555
H13 C11 1_555 1_555
C12 N2 1_555 1_555
H14 C12 1_555 1_555
C13 C19 1_555 1_555
C14 N4 1_555 1_555
H15 C14 1_555 1_555
C15 C7 1_555 1_555
H16 C15 1_555 1_555
H17 C15 1_555 1_555
C16 C15 1_555 1_555
H18 C16 1_555 1_555
C17 N5 1_555 1_555
C18 N2 1_555 1_555
H19 C18 1_555 1_555
H20 C18 1_555 1_555
C19 H21 1_555 1_555
C20 C19 1_555 1_555
H22 C20 1_555 1_555
C21 C6 1_555 1_555
H23 C21 1_555 1_555
H24 C21 1_555 1_555
C22 C11 1_555 1_555
H25 C22 1_555 1_555
C23 C13 1_555 1_555
H26 C23 1_555 1_555
C24 C16 1_555 1_555
H27 C24 1_555 1_555
H28 C24 1_555 1_555
H29 C24 1_555 1_555
C25 C23 1_555 1_555
H30 C25 1_555 1_555
C26 C20 1_555 1_555
H31 C26 1_555 1_555
C27 C18 1_555 1_555
H32 C27 1_555 1_555
H33 C27 1_555 1_555
C28 C8 1_555 1_555
H34 C28 1_555 1_555
H35 C28 1_555 1_555
H36 C28 1_555 1_555
C29 C22 1_555 1_555
H37 C29 1_555 1_555
H38 C29 1_555 1_555
H39 C29 1_555 1_555
C30 C12 1_555 1_555
H40 C30 1_555 1_555
H41 C30 1_555 1_555
C31 C16 1_555 1_555
H42 C31 1_555 1_555
H43 C31 1_555 1_555
H44 C31 1_555 1_555
C32 C22 1_555 1_555
H45 C32 1_555 1_555
H46 C32 1_555 1_555
H47 C32 1_555 1_555
O9 H50 1_555 1_555
O10 H53 1_555 1_555
H49 O7 1_555 1_555
H51 O9 1_555 1_555
H52 N6 1_555 1_555
H54 O10 1_555 1_555
C3 C14 1_555 1_555
C4 C9 1_555 1_555
C5 C6 1_555 1_555
C7 C10 1_555 1_555
C8 C14 1_555 1_555
C12 C17 1_555 1_555
C13 C21 1_555 1_555
C25 C26 1_555 1_555
C27 C30 1_555 1_555

#END
