
#######################################################################
#
#                 Cambridge Crystallographic Data Centre
#                                CCDC 
#
#######################################################################
#
# If this CIF has been generated from an entry in the Cambridge 
# Structural Database, then it will include bibliographic, chemical, 
# crystal, experimental, refinement or atomic coordinate data resulting 
# from the CCDC's data processing and validation procedures.
#
#######################################################################

data_VAWTIY
_chemical_compound_source        'Juglan sinensis leaves and twigs'
_chemical_formula_moiety         'C15 H26 O2'
_chemical_name_systematic        
(4S,5S,7R,8S,14R)-8,11-Dihydroxy-2,4-cycloeudesmane
_chemical_properties_biological  
'tested for activity against various cancer cell lines'
_symmetry_cell_setting           orthorhombic
_symmetry_space_group_name_H-M   'P 21 21 21'
_symmetry_Int_Tables_number      19
_space_group_name_Hall           'P 2ac 2ab'
loop_
_symmetry_equiv_pos_site_id
_symmetry_equiv_pos_as_xyz
1 x,y,z
2 1/2-x,-y,1/2+z
3 1/2+x,1/2-y,-z
4 -x,1/2+y,1/2-z
_cell_length_a                   9.0394(10)
_cell_length_b                   8.6841(11)
_cell_length_c                   18.6187(14)
_cell_angle_alpha                90
_cell_angle_beta                 90
_cell_angle_gamma                90
_cell_volume                     1461.55
_exptl_crystal_colour            yellow
_exptl_crystal_description       needle
_cell_formula_units_Z            4
loop_
_atom_site_label
_atom_site_type_symbol
_atom_site_fract_x
_atom_site_fract_y
_atom_site_fract_z
O1 O 0.1612(3) 0.8502(4) 0.04072(15)
H1 H 0.2382 0.8321 0.0190
O2 O -0.1178(3) 0.7944(4) 0.03534(17)
H2 H -0.1854 0.7460 0.0166
C1 C -0.1561(5) 0.9543(6) 0.0382(2)
H3 H -0.1685 0.9913 -0.0112
C2 C -0.0243(5) 1.0398(5) 0.0716(2)
H4 H -0.0456 1.1498 0.0657
C3 C 0.1207(5) 1.0106(6) 0.0306(2)
C4 C -0.0141(5) 1.0122(5) 0.1531(2)
H5 H 0.0047 0.9042 0.1627
H6 H 0.0664 1.0721 0.1733
C5 C -0.2908(5) 0.9653(6) 0.1601(3)
C6 C -0.1615(5) 1.0610(6) 0.1871(2)
H7 H -0.1799 1.1663 0.1703
C7 C -0.3034(5) 0.9821(6) 0.0791(3)
H8 H -0.3385 1.0850 0.0681
H9 H -0.3767 0.9096 0.0616
C8 C 0.2497(6) 1.1059(6) 0.0600(3)
H10 H 0.2608 1.0862 0.1104
H11 H 0.2302 1.2134 0.0525
H12 H 0.3392 1.0778 0.0354
C9 C 0.1031(6) 1.0404(7) -0.0498(2)
H13 H 0.0223 0.9802 -0.0680
H14 H 0.1925 1.0120 -0.0742
H15 H 0.0833 1.1477 -0.0576
C10 C -0.1803(6) 1.0654(7) 0.2678(3)
C11 C -0.2760(7) 0.7947(7) 0.1806(3)
H16 H -0.2681 0.7856 0.2319
H17 H -0.1891 0.7525 0.1585
H18 H -0.3616 0.7395 0.1643
C12 C -0.4191(6) 1.0339(9) 0.2044(3)
H19 H -0.4515 1.1315 0.1845
H20 H -0.5026 0.9638 0.2062
C13 C -0.0702(7) 0.9897(8) 0.3161(3)
H21 H -0.0274 0.9028 0.2919
H22 H -0.1188 0.9557 0.3591
H23 H 0.0062 1.0619 0.3282
C14 C -0.2694(6) 1.2029(9) 0.2935(3)
H24 H -0.2577 1.2339 0.3432
H25 H -0.2837 1.2872 0.2601
C15 C -0.3509(7) 1.0557(9) 0.2790(4)
H26 H -0.3899 0.9962 0.3195
loop_
_geom_bond_atom_site_label_1
_geom_bond_atom_site_label_2
_geom_bond_site_symmetry_1
_geom_bond_site_symmetry_2
O1 H1 1_555 1_555
O2 H2 1_555 1_555
C1 O2 1_555 1_555
H3 C1 1_555 1_555
C2 C1 1_555 1_555
H4 C2 1_555 1_555
C3 O1 1_555 1_555
C4 C2 1_555 1_555
H5 C4 1_555 1_555
H6 C4 1_555 1_555
C5 C6 1_555 1_555
C6 C4 1_555 1_555
H7 C6 1_555 1_555
C7 C1 1_555 1_555
H8 C7 1_555 1_555
H9 C7 1_555 1_555
C8 C3 1_555 1_555
H10 C8 1_555 1_555
H11 C8 1_555 1_555
H12 C8 1_555 1_555
C9 C3 1_555 1_555
H13 C9 1_555 1_555
H14 C9 1_555 1_555
H15 C9 1_555 1_555
C10 C6 1_555 1_555
C11 C5 1_555 1_555
H16 C11 1_555 1_555
H17 C11 1_555 1_555
H18 C11 1_555 1_555
C12 C5 1_555 1_555
H19 C12 1_555 1_555
H20 C12 1_555 1_555
C13 C10 1_555 1_555
H21 C13 1_555 1_555
H22 C13 1_555 1_555
H23 C13 1_555 1_555
C14 C10 1_555 1_555
H24 C14 1_555 1_555
H25 C14 1_555 1_555
C15 C10 1_555 1_555
H26 C15 1_555 1_555
C2 C3 1_555 1_555
C5 C7 1_555 1_555
C12 C15 1_555 1_555
C14 C15 1_555 1_555

#END
