
#######################################################################
#
#                 Cambridge Crystallographic Data Centre
#                                CCDC 
#
#######################################################################
#
# If this CIF has been generated from an entry in the Cambridge 
# Structural Database, then it will include bibliographic, chemical, 
# crystal, experimental, refinement or atomic coordinate data resulting 
# from the CCDC's data processing and validation procedures.
#
#######################################################################

data_VAWVAR01
_chemical_formula_moiety         'C28 H32 N2 O6,H2 O1'
_chemical_name_systematic        
'2,3-Benzo-10-N-(4-hydroxy-3-(4-hydroxyphenyliminomethyl)benzyl)-1,4,7,13-tetraoxa-10-azacyclopentadecane monohydrate'
_symmetry_cell_setting           monoclinic
_symmetry_space_group_name_H-M   'P 21/n'
_symmetry_Int_Tables_number      14
_space_group_name_Hall           '-P 2yn'
loop_
_symmetry_equiv_pos_site_id
_symmetry_equiv_pos_as_xyz
1 x,y,z
2 1/2-x,1/2+y,1/2-z
3 -x,-y,-z
4 1/2+x,1/2-y,1/2+z
_cell_length_a                   12.424(7)
_cell_length_b                   19.945(7)
_cell_length_c                   12.556(7)
_cell_angle_alpha                90.00(4)
_cell_angle_beta                 116.54(5)
_cell_angle_gamma                90.00(4)
_cell_volume                     2783.47
_exptl_crystal_colour            yellow
_chemical_melting_point          95-97deg.C
_cell_formula_units_Z            4
loop_
_atom_site_label
_atom_site_type_symbol
_atom_site_fract_x
_atom_site_fract_y
_atom_site_fract_z
O1 O -0.0353(3) -0.14576(19) 0.6336(3)
H1 H -0.0467 -0.1855 0.6421
O2 O 0.6487(3) -0.15739(18) 0.8068(4)
H2 H 0.5777 -0.1537 0.7920
O3 O 0.5357(4) 0.1814(2) 0.5820(4)
O4 O 0.3855(3) 0.11472(17) 0.6584(3)
O5 O 0.5063(3) 0.08536(18) 0.8796(3)
O6 O 0.7377(3) 0.1364(2) 0.9606(4)
N1 N 0.4415(4) -0.1019(2) 0.7286(4)
N2 N 0.7824(4) 0.1458(3) 0.7491(5)
C1 C 0.0809(4) -0.1368(3) 0.6529(4)
C2 C 0.1660(5) -0.1865(3) 0.6894(5)
H3 H 0.1446 -0.2298 0.6995
C3 C 0.2822(5) -0.1733(3) 0.7111(4)
H4 H 0.3385 -0.2078 0.7356
C4 C 0.3168(4) -0.1092(3) 0.6971(4)
C5 C 0.2316(5) -0.0598(3) 0.6580(4)
H5 H 0.2526 -0.0168 0.6456
C6 C 0.1144(4) -0.0731(3) 0.6366(5)
H6 H 0.0577 -0.0388 0.6110
C7 C 0.4882(4) -0.0466(3) 0.7178(4)
H7 H 0.4400 -0.0087 0.6902
C8 C 0.6156(4) -0.0422(2) 0.7479(4)
C9 C 0.6657(4) 0.0179(2) 0.7327(4)
H8 H 0.6178 0.0560 0.7081
C10 C 0.7836(5) 0.0218(3) 0.7531(5)
C11 C 0.8546(5) -0.0354(3) 0.7925(6)
H9 H 0.9346 -0.0337 0.8063
C12 C 0.8085(5) -0.0943(3) 0.8113(6)
H10 H 0.8573 -0.1320 0.8389
C13 C 0.6905(5) -0.0973(3) 0.7893(5)
C14 C 0.8344(5) 0.0854(3) 0.7285(6)
H11 H 0.9206 0.0862 0.7787
H12 H 0.8213 0.0849 0.6463
C15 C 0.7484(7) 0.1959(3) 0.6536(7)
H13 H 0.8111 0.1992 0.6277
H14 H 0.7397 0.2395 0.6832
C16 C 0.6314(7) 0.1760(4) 0.5500(7)
H15 H 0.6158 0.2049 0.4825
H16 H 0.6369 0.1302 0.5269
C17 C 0.4314(6) 0.1458(3) 0.5032(5)
H17 H 0.4515 0.0993 0.4987
H18 H 0.4003 0.1650 0.4240
C18 C 0.3380(5) 0.1501(3) 0.5474(5)
H19 H 0.3224 0.1966 0.5588
H20 H 0.2634 0.1297 0.4908
C19 C 0.3234(4) 0.1200(2) 0.7239(5)
C20 C 0.2050(5) 0.1384(3) 0.6794(6)
H21 H 0.1615 0.1492 0.5993
C21 C 0.1505(6) 0.1408(3) 0.7536(7)
H22 H 0.0696 0.1521 0.7230
C22 C 0.2135(7) 0.1270(4) 0.8698(7)
H23 H 0.1763 0.1299 0.9196
C23 C 0.3335(6) 0.1083(3) 0.9166(6)
H24 H 0.3760 0.0982 0.9971
C24 C 0.3895(5) 0.1047(3) 0.8442(5)
C25 C 0.5858(5) 0.0901(3) 1.0030(5)
H25 H 0.5677 0.0554 1.0467
H26 H 0.5773 0.1334 1.0336
C26 C 0.7102(5) 0.0818(4) 1.0168(5)
H27 H 0.7667 0.0805 1.1006
H28 H 0.7166 0.0399 0.9807
C27 C 0.8556(5) 0.1371(4) 0.9638(7)
H29 H 0.8818 0.0917 0.9611
H30 H 0.9132 0.1579 1.0371
C28 C 0.8481(3) 0.17831(17) 0.8527(4)
H31 H 0.8122 0.2217 0.8507
H32 H 0.9288 0.1857 0.8613
O7 O 0.5816(3) 0.23184(17) 0.8133(4)
H33 H 0.5388 0.2304 0.7393
H34 H 0.6474 0.1907 0.8415
loop_
_geom_bond_atom_site_label_1
_geom_bond_atom_site_label_2
_geom_bond_site_symmetry_1
_geom_bond_site_symmetry_2
O1 H1 1_555 1_555
O2 H2 1_555 1_555
O3 C16 1_555 1_555
O4 C18 1_555 1_555
O5 C24 1_555 1_555
O6 C26 1_555 1_555
N1 C4 1_555 1_555
N2 C14 1_555 1_555
C1 O1 1_555 1_555
C2 C1 1_555 1_555
H3 C2 1_555 1_555
C3 C2 1_555 1_555
H4 C3 1_555 1_555
C4 C3 1_555 1_555
C5 C4 1_555 1_555
H5 C5 1_555 1_555
C6 C1 1_555 1_555
H6 C6 1_555 1_555
C7 N1 1_555 1_555
H7 C7 1_555 1_555
C8 C7 1_555 1_555
C9 C8 1_555 1_555
H8 C9 1_555 1_555
C10 C9 1_555 1_555
C11 C10 1_555 1_555
H9 C11 1_555 1_555
C12 C11 1_555 1_555
H10 C12 1_555 1_555
C13 O2 1_555 1_555
C14 C10 1_555 1_555
H11 C14 1_555 1_555
H12 C14 1_555 1_555
C15 N2 1_555 1_555
H13 C15 1_555 1_555
H14 C15 1_555 1_555
C16 C15 1_555 1_555
H15 C16 1_555 1_555
H16 C16 1_555 1_555
C17 O3 1_555 1_555
H17 C17 1_555 1_555
H18 C17 1_555 1_555
C18 C17 1_555 1_555
H19 C18 1_555 1_555
H20 C18 1_555 1_555
C19 O4 1_555 1_555
C20 C19 1_555 1_555
H21 C20 1_555 1_555
C21 C20 1_555 1_555
H22 C21 1_555 1_555
C22 C21 1_555 1_555
H23 C22 1_555 1_555
C23 C22 1_555 1_555
H24 C23 1_555 1_555
C24 C19 1_555 1_555
C25 O5 1_555 1_555
H25 C25 1_555 1_555
H26 C25 1_555 1_555
C26 C25 1_555 1_555
H27 C26 1_555 1_555
H28 C26 1_555 1_555
C27 O6 1_555 1_555
H29 C27 1_555 1_555
H30 C27 1_555 1_555
C28 N2 1_555 1_555
H31 C28 1_555 1_555
H32 C28 1_555 1_555
O7 H33 1_555 1_555
H34 O7 1_555 1_555
C5 C6 1_555 1_555
C8 C13 1_555 1_555
C12 C13 1_555 1_555
C23 C24 1_555 1_555
C27 C28 1_555 1_555

#END
