
#######################################################################
#
#                 Cambridge Crystallographic Data Centre
#                                CCDC 
#
#######################################################################
#
# If this CIF has been generated from an entry in the Cambridge 
# Structural Database, then it will include bibliographic, chemical, 
# crystal, experimental, refinement or atomic coordinate data resulting 
# from the CCDC's data processing and validation procedures.
#
#######################################################################

data_VAWVEX
_chemical_formula_moiety         'C30 H27 N3 O1 S2'
_chemical_name_systematic        
N-(2-(1-methyl-1H-benzimidazol-2-yl)propan-2-yl)-2,6-bis(phenylsulfanyl)benzamide
_symmetry_cell_setting           monoclinic
_symmetry_space_group_name_H-M   'P 21/n'
_symmetry_Int_Tables_number      14
_space_group_name_Hall           '-P 2yn'
loop_
_symmetry_equiv_pos_site_id
_symmetry_equiv_pos_as_xyz
1 x,y,z
2 1/2-x,1/2+y,1/2-z
3 -x,-y,-z
4 1/2+x,1/2-y,1/2+z
_cell_length_a                   9.0162(3)
_cell_length_b                   17.8621(5)
_cell_length_c                   16.8362(5)
_cell_angle_alpha                90
_cell_angle_beta                 103.7730(10)
_cell_angle_gamma                90
_cell_volume                     2633.48
_exptl_crystal_colour            colorless
_exptl_crystal_description       block
_cell_formula_units_Z            4
loop_
_atom_site_label
_atom_site_type_symbol
_atom_site_fract_x
_atom_site_fract_y
_atom_site_fract_z
C1 C -0.1186(4) 0.56417(13) 0.76242(16)
H1 H -0.1478 0.6104 0.7790
C2 C -0.2272(3) 0.51414(15) 0.72374(16)
H2 H -0.3301 0.5266 0.7140
C3 C -0.1845(2) 0.44515(12) 0.69913(12)
H3 H -0.2582 0.4115 0.6722
N1 N 0.6797(2) 0.41033(10) 0.93391(10)
C4 C -0.0316(2) 0.42669(10) 0.71483(11)
C5 C 0.1095(2) 0.35577(9) 0.60606(11)
C6 C 0.2589(2) 0.33177(9) 0.61084(10)
C7 C 0.3515(2) 0.29450(10) 0.68705(11)
C8 C 0.5291(2) 0.32387(10) 0.82243(11)
C9 C 0.5701(2) 0.39939(10) 0.86316(11)
C10 C 0.5762(3) 0.51780(11) 0.88511(12)
C11 C 0.5555(4) 0.59481(13) 0.88211(15)
H4 H 0.4809 0.6168 0.8410
C12 C 0.6484(4) 0.63758(16) 0.94158(19)
H5 H 0.6374 0.6894 0.9399
C13 C 0.6537(2) 0.41084(12) 0.33674(14)
H6 H 0.6836 0.4318 0.2924
C14 C 0.6533(2) 0.45338(11) 0.40390(13)
H7 H 0.6828 0.5033 0.4051
C15 C 0.6096(2) 0.42313(11) 0.46994(12)
H8 H 0.6106 0.4524 0.5158
C16 C 0.56406(19) 0.34898(10) 0.46796(11)
C17 C 0.32261(19) 0.34219(9) 0.54341(11)
C18 C 0.2386(2) 0.37745(10) 0.47346(11)
H9 H 0.2807 0.3843 0.4286
C19 C 0.0924(2) 0.40234(10) 0.47088(12)
H10 H 0.0374 0.4270 0.4246
C20 C 0.0273(2) 0.39110(11) 0.53568(12)
H11 H -0.0720 0.4071 0.5326
C21 C 0.7707(4) 0.35683(16) 0.99090(18)
H12 H 0.7403 0.3068 0.9735
H13 H 0.7548 0.3650 1.0446
H14 H 0.8768 0.3635 0.9921
C22 C 0.6857(3) 0.48653(12) 0.94800(13)
C23 C 0.7784(3) 0.52955(17) 1.00881(16)
H15 H 0.8513 0.5078 1.0510
C24 C 0.7574(4) 0.60530(18) 1.00363(19)
H16 H 0.8182 0.6359 1.0430
C25 C 0.4433(3) 0.27602(13) 0.87229(13)
H17 H 0.3493 0.3003 0.8743
H18 H 0.5051 0.2700 0.9268
H19 H 0.4218 0.2278 0.8470
C26 C 0.6693(2) 0.28282(12) 0.80751(15)
H20 H 0.6367 0.2411 0.7716
H21 H 0.7308 0.2651 0.8587
H22 H 0.7283 0.3166 0.7829
C27 C 0.0314(3) 0.54615(13) 0.77653(15)
H23 H 0.1048 0.5808 0.8015
C28 C 0.0763(3) 0.47726(12) 0.75429(14)
H24 H 0.1794 0.4648 0.7659
C29 C 0.5654(2) 0.30612(11) 0.39977(13)
H25 H 0.5360 0.2561 0.3981
C30 C 0.6100(3) 0.33701(12) 0.33460(14)
H26 H 0.6106 0.3079 0.2888
N2 N 0.42701(17) 0.34267(8) 0.74308(9)
H27 H 0.4146 0.3895 0.7315
N3 N 0.50588(19) 0.46167(9) 0.83241(9)
O1 O 0.35695(19) 0.22622(7) 0.69320(9)
S1 S 0.02318(7) 0.33599(3) 0.68863(4)
S2 S 0.51104(6) 0.30734(3) 0.55279(3)
loop_
_geom_bond_atom_site_label_1
_geom_bond_atom_site_label_2
_geom_bond_site_symmetry_1
_geom_bond_site_symmetry_2
C1 H1 1_555 1_555
C2 C1 1_555 1_555
H2 C2 1_555 1_555
C3 C2 1_555 1_555
H3 C3 1_555 1_555
N1 C9 1_555 1_555
C4 C3 1_555 1_555
C5 C6 1_555 1_555
C6 C7 1_555 1_555
C7 N2 1_555 1_555
C8 C9 1_555 1_555
C9 N3 1_555 1_555
C10 C11 1_555 1_555
C11 H4 1_555 1_555
C12 C11 1_555 1_555
H5 C12 1_555 1_555
C13 H6 1_555 1_555
C14 C13 1_555 1_555
H7 C14 1_555 1_555
C15 C14 1_555 1_555
H8 C15 1_555 1_555
C16 C15 1_555 1_555
C17 C6 1_555 1_555
C18 C17 1_555 1_555
H9 C18 1_555 1_555
C19 C18 1_555 1_555
H10 C19 1_555 1_555
C20 C5 1_555 1_555
H11 C20 1_555 1_555
C21 N1 1_555 1_555
H12 C21 1_555 1_555
H13 C21 1_555 1_555
H14 C21 1_555 1_555
C22 N1 1_555 1_555
C23 C22 1_555 1_555
H15 C23 1_555 1_555
C24 C12 1_555 1_555
H16 C24 1_555 1_555
C25 C8 1_555 1_555
H17 C25 1_555 1_555
H18 C25 1_555 1_555
H19 C25 1_555 1_555
C26 C8 1_555 1_555
H20 C26 1_555 1_555
H21 C26 1_555 1_555
H22 C26 1_555 1_555
C27 C1 1_555 1_555
H23 C27 1_555 1_555
C28 C4 1_555 1_555
H24 C28 1_555 1_555
C29 C16 1_555 1_555
H25 C29 1_555 1_555
C30 C13 1_555 1_555
H26 C30 1_555 1_555
N2 C8 1_555 1_555
H27 N2 1_555 1_555
N3 C10 1_555 1_555
O1 C7 1_555 1_555
S1 C4 1_555 1_555
S2 C16 1_555 1_555
C5 S1 1_555 1_555
C10 C22 1_555 1_555
C17 S2 1_555 1_555
C19 C20 1_555 1_555
C23 C24 1_555 1_555
C27 C28 1_555 1_555
C29 C30 1_555 1_555

#END
