
#######################################################################
#
#                 Cambridge Crystallographic Data Centre
#                                CCDC 
#
#######################################################################
#
# If this CIF has been generated from an entry in the Cambridge 
# Structural Database, then it will include bibliographic, chemical, 
# crystal, experimental, refinement or atomic coordinate data resulting 
# from the CCDC's data processing and validation procedures.
#
#######################################################################

data_VAWWEV
_chemical_formula_moiety         'C21 H26 N2 O7'
_chemical_name_systematic        
'Isopropyl 2-methoxyethyl 2,6-dimethyl-4-(3-nitrophenyl)-1,4-dihydro-3,5-pyridinedicarboxylate'
_chemical_properties_biological  'calcium channel antagonistic activity'
_symmetry_cell_setting           orthorhombic
_symmetry_space_group_name_H-M   'P 21 21 21'
_symmetry_Int_Tables_number      19
_space_group_name_Hall           'P 2ac 2ab'
loop_
_symmetry_equiv_pos_site_id
_symmetry_equiv_pos_as_xyz
1 x,y,z
2 1/2+x,1/2-y,-z
3 -x,1/2+y,1/2-z
4 1/2-x,-y,1/2+z
_cell_length_a                   12.5897(6)
_cell_length_b                   14.6410(9)
_cell_length_c                   11.636(1)
_cell_angle_alpha                90
_cell_angle_beta                 90
_cell_angle_gamma                90
_cell_volume                     2144.81
_cell_formula_units_Z            4
loop_
_atom_site_label
_atom_site_type_symbol
_atom_site_fract_x
_atom_site_fract_y
_atom_site_fract_z
N1 N 0.6318(2) 0.6269(2) 0.3325(3)
C1 C 0.6424(3) 0.5364(2) 0.3033(3)
C2 C 0.5554(3) 0.4774(3) 0.3522(4)
C3 C 0.7252(3) 0.5097(2) 0.2377(3)
C4 C 0.7353(3) 0.4147(2) 0.2014(3)
O1 O 0.6692(2) 0.3556(2) 0.2079(3)
O2 O 0.8327(2) 0.3979(2) 0.1578(2)
C5 C 0.8557(3) 0.3033(3) 0.1337(4)
C6 C 0.9738(4) 0.2943(3) 0.1219(3)
O3 O 1.0072(2) 0.3299(2) 0.0163(2)
C7 C 1.1167(3) 0.3180(4) -0.0035(5)
C8 C 0.8151(2) 0.5763(2) 0.2084(3)
C9 C 0.7761(3) 0.6750(2) 0.2174(3)
C10 C 0.8374(3) 0.7476(2) 0.1601(3)
O4 O 0.8219(2) 0.8285(2) 0.1692(3)
O5 O 0.9158(2) 0.7129(2) 0.0943(2)
C11 C 0.9848(4) 0.7794(3) 0.0360(4)
C12 C 1.0908(4) 0.7324(4) 0.0228(5)
C13 C 0.9347(5) 0.8063(4) -0.0762(4)
C14 C 0.6903(3) 0.6961(2) 0.2825(3)
C15 C 0.6450(3) 0.7892(2) 0.3049(3)
C16 C 0.9118(3) 0.5603(2) 0.2866(3)
C17 C 1.0121(3) 0.5468(2) 0.2370(3)
C18 C 1.0982(3) 0.5347(2) 0.3093(4)
N2 N 1.2041(3) 0.5221(3) 0.2547(4)
O6 O 1.2077(3) 0.5101(3) 0.1506(4)
O7 O 1.2817(2) 0.5229(3) 0.3155(4)
C19 C 1.0905(3) 0.5345(3) 0.4264(4)
C20 C 0.9916(4) 0.5468(3) 0.4740(3)
C21 C 0.9026(3) 0.5591(2) 0.4046(3)
loop_
_geom_bond_atom_site_label_1
_geom_bond_atom_site_label_2
_geom_bond_site_symmetry_1
_geom_bond_site_symmetry_2
N1 C1 1_555 1_555
C1 C2 1_555 1_555
C3 C1 1_555 1_555
C4 C3 1_555 1_555
O1 C4 1_555 1_555
O2 C4 1_555 1_555
C5 O2 1_555 1_555
C6 C5 1_555 1_555
O3 C6 1_555 1_555
C7 O3 1_555 1_555
C8 C3 1_555 1_555
C9 C8 1_555 1_555
C10 C9 1_555 1_555
O4 C10 1_555 1_555
O5 C10 1_555 1_555
C11 O5 1_555 1_555
C12 C11 1_555 1_555
C13 C11 1_555 1_555
C14 N1 1_555 1_555
C15 C14 1_555 1_555
C16 C8 1_555 1_555
C17 C16 1_555 1_555
C18 C17 1_555 1_555
N2 C18 1_555 1_555
O6 N2 1_555 1_555
O7 N2 1_555 1_555
C19 C18 1_555 1_555
C20 C19 1_555 1_555
C21 C16 1_555 1_555
C9 C14 1_555 1_555
C20 C21 1_555 1_555

#END
