
#######################################################################
#
#                 Cambridge Crystallographic Data Centre
#                                CCDC 
#
#######################################################################
#
# If this CIF has been generated from an entry in the Cambridge 
# Structural Database, then it will include bibliographic, chemical, 
# crystal, experimental, refinement or atomic coordinate data resulting 
# from the CCDC's data processing and validation procedures.
#
#######################################################################

data_VAWWEY
_chemical_formula_moiety         'C21 H20 Br1 N1 O3'
_chemical_name_systematic        
'tricyclo[3.3.1.1^3,7^]decan-1-yl 5-bromo-2-cyano-1-oxoindane-2-carboxylate'
_symmetry_cell_setting           orthorhombic
_symmetry_space_group_name_H-M   'P 21 21 21'
_symmetry_Int_Tables_number      19
_space_group_name_Hall           'P 2ac 2ab'
loop_
_symmetry_equiv_pos_site_id
_symmetry_equiv_pos_as_xyz
1 x,y,z
2 1/2-x,-y,1/2+z
3 1/2+x,1/2-y,-z
4 -x,1/2+y,1/2-z
_cell_length_a                   6.6452(9)
_cell_length_b                   11.8840(15)
_cell_length_c                   23.337(3)
_cell_angle_alpha                90
_cell_angle_beta                 90
_cell_angle_gamma                90
_cell_volume                     1842.96
_cell_formula_units_Z            4
loop_
_atom_site_label
_atom_site_type_symbol
_atom_site_fract_x
_atom_site_fract_y
_atom_site_fract_z
Br1 Br 0.2207(1) 0.0928 0.418
O1 O 0.7217(5) 0.7391(2) 0.3859(1)
O2 O 0.4677(5) 0.6274(3) 0.3559(2)
O3 O 0.9487(5) 0.5108(3) 0.4232(2)
C1 C 0.5892(6) 0.6564(3) 0.3904(2)
C2 C 0.4624(6) 0.4082(3) 0.4447(2)
C3 C 0.4234(6) 0.5288(3) 0.4636(2)
H1 H 0.3080 0.5601 0.4437
H2 H 0.3997 0.5326 0.5045
C4 C 0.6180(6) 0.5919(3) 0.4472(2)
N1 N 0.7705(7) 0.7105(3) 0.5302(2)
C5 C 0.3284(6) 0.3196(3) 0.4437(2)
H3 H 0.1951 0.3288 0.4550
C6 C 0.4002(7) 0.2165(3) 0.4252(2)
C7 C 0.7445(6) 0.8021(3) 0.3311(2)
C8 C 0.6592(6) 0.3911(3) 0.4275(2)
C9 C 0.7748(6) 0.4972(3) 0.4311(2)
C10 C 0.7298(7) 0.2879(3) 0.4097(2)
H4 H 0.8631 0.2790 0.3984
C11 C 0.7041(7) 0.6620(3) 0.4933(2)
C12 C 0.5988(7) 0.1984(3) 0.4089(2)
H5 H 0.6421 0.1273 0.3977
C13 C 0.7963(9) 0.7237(4) 0.2824(2)
H6 H 0.6859 0.6721 0.2755
H7 H 0.9150 0.6801 0.2919
C14 C 0.5958(8) 0.9390(5) 0.2625(2)
H8 H 0.4747 0.9820 0.2528
C15 C 0.8363(11) 0.7953(5) 0.2280(2)
H9 H 0.8691 0.7454 0.1959
C16 C 0.9177(9) 0.8818(5) 0.3420(2)
H10 H 1.0372 0.8395 0.3523
H11 H 0.8850 0.9317 0.3736
C17 C 0.9574(10) 0.9505(5) 0.2879(2)
H12 H 1.0689 1.0028 0.2947
C18 C 0.5566(8) 0.8673(5) 0.3170(2)
H13 H 0.5211 0.9160 0.3488
H14 H 0.4457 0.8159 0.3103
C19 C 0.649(1) 0.8610(6) 0.2141(2)
H15 H 0.5384 0.8094 0.2073
H16 H 0.6705 0.9043 0.1794
C20 C 0.7673(12) 1.0172(4) 0.2728(2)
H17 H 0.7344 1.0680 0.3039
H18 H 0.7913 1.0619 0.2387
C21 C 1.0097(9) 0.8739(6) 0.2387(3)
H19 H 1.0364 0.9181 0.2046
H20 H 1.1298 0.8310 0.2478
loop_
_geom_bond_atom_site_label_1
_geom_bond_atom_site_label_2
_geom_bond_site_symmetry_1
_geom_bond_site_symmetry_2
Br1 C6 1_555 1_555
O1 C1 1_555 1_555
O2 C1 1_555 1_555
O3 C9 1_555 1_555
C1 C4 1_555 1_555
C2 C3 1_555 1_555
C3 H1 1_555 1_555
H2 C3 1_555 1_555
C4 C3 1_555 1_555
N1 C11 1_555 1_555
C5 C2 1_555 1_555
H3 C5 1_555 1_555
C6 C5 1_555 1_555
C7 O1 1_555 1_555
C8 C2 1_555 1_555
C9 C4 1_555 1_555
C10 C8 1_555 1_555
H4 C10 1_555 1_555
C11 C4 1_555 1_555
C12 C6 1_555 1_555
H5 C12 1_555 1_555
C13 C7 1_555 1_555
H6 C13 1_555 1_555
H7 C13 1_555 1_555
C14 H8 1_555 1_555
C15 C13 1_555 1_555
H9 C15 1_555 1_555
C16 C7 1_555 1_555
H10 C16 1_555 1_555
H11 C16 1_555 1_555
C17 C16 1_555 1_555
H12 C17 1_555 1_555
C18 C7 1_555 1_555
H13 C18 1_555 1_555
H14 C18 1_555 1_555
C19 C14 1_555 1_555
H15 C19 1_555 1_555
H16 C19 1_555 1_555
C20 C14 1_555 1_555
H17 C20 1_555 1_555
H18 C20 1_555 1_555
C21 C15 1_555 1_555
H19 C21 1_555 1_555
H20 C21 1_555 1_555
C8 C9 1_555 1_555
C10 C12 1_555 1_555
C14 C18 1_555 1_555
C15 C19 1_555 1_555
C17 C20 1_555 1_555
C17 C21 1_555 1_555

#END
