
#######################################################################
#
#                 Cambridge Crystallographic Data Centre
#                                CCDC 
#
#######################################################################
#
# If this CIF has been generated from an entry in the Cambridge 
# Structural Database, then it will include bibliographic, chemical, 
# crystal, experimental, refinement or atomic coordinate data resulting 
# from the CCDC's data processing and validation procedures.
#
#######################################################################

data_VAWXUP
_chemical_name_common            CF2H-Aprepitant
_chemical_formula_moiety         'C23 H22 F6 N4 O3'
_chemical_name_systematic        
5-{[(2R,3S)-2-{(R)-1-[3-(difluoromethyl)-5-(trifluoromethyl)phenyl]ethoxy}-3-(4-fluorophenyl)morpholin-4-yl]methyl}-2,4-dihydro-3H-1,2,4-triazol-3-one
_symmetry_cell_setting           orthorhombic
_symmetry_space_group_name_H-M   'P 21 21 21'
_symmetry_Int_Tables_number      19
_space_group_name_Hall           'P 2ac 2ab'
loop_
_symmetry_equiv_pos_site_id
_symmetry_equiv_pos_as_xyz
1 x,y,z
2 1/2-x,-y,1/2+z
3 -x,1/2+y,1/2-z
4 1/2+x,1/2-y,-z
_cell_length_a                   7.327(2)
_cell_length_b                   7.766(2)
_cell_length_c                   41.055(8)
_cell_angle_alpha                90
_cell_angle_beta                 90
_cell_angle_gamma                90
_cell_volume                     2336.09
_exptl_crystal_colour            colorless
_exptl_crystal_description       prism
_cell_formula_units_Z            4
loop_
_atom_site_label
_atom_site_type_symbol
_atom_site_fract_x
_atom_site_fract_y
_atom_site_fract_z
C1 C 0.480(2) 0.7608(19) 0.4054(3)
H1 H 0.5502 0.8698 0.4086
C2 C 0.4116(16) 0.7571(13) 0.3701(3)
H2 H 0.5196 0.7539 0.3552
C3 C 0.1510(10) 0.9145(9) 0.3838(2)
H3 H 0.071 0.8144 0.3795
H4 H 0.081 1.0205 0.3789
C4 C 0.2060(10) 0.9150(10) 0.4194(2)
H5 H 0.2738 1.0222 0.4243
H6 H 0.0951 0.9131 0.4331
C5 C 0.370(4) 0.765(3) 0.4620(4)
H7 H 0.4358 0.656 0.4667
H8 H 0.2567 0.7644 0.475
C6 C 0.487(3) 0.912(3) 0.4732(9)
C7 C 0.567(3) 1.168(3) 0.4927(10)
C8 C 0.6073(15) 0.6120(13) 0.4116(4)
C9 C 0.7920(11) 0.6426(10) 0.4133(3)
H9 H 0.8355 0.7577 0.412
C10 C 0.9153(11) 0.5096(9) 0.4167(2)
H10 H 1.0428 0.5316 0.4173
C11 C 0.8500(10) 0.3464(10) 0.4194(2)
C12 C 0.6680(12) 0.3066(10) 0.4187(2)
H11 H 0.6264 0.1916 0.4214
C13 C 0.5455(12) 0.4435(13) 0.4139(3)
H12 H 0.4186 0.4203 0.4121
C14 C 0.2669(8) 0.5742(8) 0.33178(13)
H13 H 0.2317 0.6847 0.321
C15 C 0.1050(7) 0.4506(10) 0.33122(15)
H14 H 0.0775 0.4186 0.3087
H15 H -0.0017 0.5068 0.3409
H16 H 0.1353 0.3469 0.3437
C16 C 0.4294(15) 0.5005(15) 0.3152(3)
C17 C 0.4832(8) 0.3538(8) 0.32347(12)
H17 H 0.4227 0.3013 0.3414
C18 C 0.6229(7) 0.2609(7) 0.30900(11)
C19 C 0.7281(19) 0.3505(13) 0.2841(3)
H18 H 0.8386 0.3029 0.276
C20 C 0.6641(14) 0.5056(7) 0.27267(19)
C21 C 0.5094(7) 0.5755(7) 0.28782(14)
C22 C 0.6672(11) 0.0854(6) 0.32270(13)
H19 H 0.565 0.0504 0.3374
C23 C 0.7508(8) 0.5894(6) 0.24381(13)
F1 F 0.8174(13) 0.0920(7) 0.34008(18)
F2 F 0.6816(17) -0.0287(14) 0.3001(3)
F3 F 0.9512(6) 0.5363(9) 0.24531(17)
F4 F 0.7463(16) 0.4904(14) 0.21805(18)
F5 F 0.7559(6) 0.7345(4) 0.24089(8)
F6 F 0.9675(8) 0.2125(7) 0.42304(15)
O1 O 0.3088(14) 0.6065(8) 0.36541(17)
O2 O 0.3084(9) 0.9060(9) 0.3631(2)
O3 O 0.568(3) 1.3190(17) 0.5028(3)
N1 N 0.321(2) 0.766(2) 0.4273(4)
N2 N 0.665(3) 0.908(4) 0.4743(11)
N3 N 0.714(3) 1.070(3) 0.4851(8)
H20 H 0.8277 1.1049 0.4869
N4 N 0.421(3) 1.066(3) 0.4850(9)
H21 H 0.3056 1.0938 0.4872
C24? C 0.490(3) 0.760(3) 0.4059(5)
H22? H 0.5745 0.8572 0.4111
C25? C 0.434(3) 0.779(2) 0.3700(5)
H23? H 0.5459 0.7735 0.3562
C26? C 0.1861(16) 0.9550(16) 0.3839(3)
H24? H 0.1009 0.8602 0.3785
H25? H 0.1242 1.0656 0.3792
C27? C 0.2371(18) 0.9465(16) 0.4195(4)
H26? H 0.321 1.0423 0.4249
H27? H 0.1262 0.9586 0.433
C28? C 0.371(5) 0.765(4) 0.4614(6)
H28? H 0.4299 0.6527 0.4652
H29? H 0.255 0.7663 0.4739
C29? C 0.493(5) 0.904(5) 0.4746(14)
C30? C 0.577(5) 1.156(4) 0.4951(15)
C31? C 0.592(2) 0.5941(19) 0.4116(6)
C32? C 0.7802(19) 0.6008(15) 0.4156(5)
H30? H 0.8387 0.7098 0.4165
C33? C 0.8862(14) 0.4512(16) 0.4183(3)
H31? H 1.015 0.4554 0.4209
C34? C 0.7946(15) 0.3019(13) 0.4171(3)
C35? C 0.6104(15) 0.2902(15) 0.4139(3)
H32? H 0.5539 0.1803 0.4125
C36? C 0.5056(16) 0.4366(14) 0.4125(5)
H33? H 0.3762 0.4295 0.4122
C37? C 0.2923(13) 0.6297(12) 0.3261(2)
H34? H 0.2912 0.747 0.316
C38? C 0.1066(11) 0.5466(15) 0.3222(2)
H35? H 0.0781 0.535 0.299
H36? H 0.0139 0.6185 0.3327
H37? H 0.1077 0.4324 0.3324
C39? C 0.449(2) 0.520(2) 0.3110(5)
C40? C 0.5478(15) 0.5870(14) 0.2857(3)
H38? H 0.5295 0.7019 0.2785
C41? C 0.674(3) 0.4815(14) 0.2712(3)
C42? C 0.724(3) 0.320(2) 0.2818(5)
H39? H 0.7938 0.2436 0.2687
C43? C 0.6687(10) 0.2785(11) 0.31168(17)
C44? C 0.5190(14) 0.3491(13) 0.3274(2)
H40? H 0.5519 0.3732 0.3503
H41? H 0.4186 0.2639 0.3275
C45? C 0.7876(17) 0.5509(12) 0.2437(3)
H42? H 0.8725 0.4501 0.2434
C46? C 0.7553(12) 0.1135(9) 0.32283(16)
F7? F 0.7097(12) 0.5115(15) 0.2151(2)
F8? F 0.9024(11) 0.6508(13) 0.24962(16)
F9? F 0.7272(8) 0.0796(8) 0.35353(12)
F10? F 0.9345(7) 0.1172(7) 0.32092(15)
F11? F 0.722(2) -0.019(2) 0.3054(4)
F12? F 0.8939(11) 0.1543(10) 0.41899(19)
O4? O 0.318(2) 0.6445(14) 0.3611(3)
O5? O 0.3469(15) 0.9405(15) 0.3646(3)
O6? O 0.575(4) 1.301(3) 0.5083(6)
N5? N 0.327(4) 0.780(4) 0.4266(5)
N6? N 0.670(5) 0.905(6) 0.4720(17)
N7? N 0.721(4) 1.058(4) 0.4871(12)
H43? H 0.8352 1.0872 0.491
N8? N 0.429(4) 1.056(4) 0.4875(14)
H44? H 0.3135 1.0842 0.4903
H45? H 0.5407 0.6953 0.2939
H46? H 0.4132 0.5829 0.271
loop_
_geom_bond_atom_site_label_1
_geom_bond_atom_site_label_2
_geom_bond_site_symmetry_1
_geom_bond_site_symmetry_2
C1 H1 1_555 1_555
C2 C1 1_555 1_555
H2 C2 1_555 1_555
C3 H3 1_555 1_555
H4 C3 1_555 1_555
C4 C3 1_555 1_555
H5 C4 1_555 1_555
H6 C4 1_555 1_555
C5 H7 1_555 1_555
H8 C5 1_555 1_555
C6 C5 1_555 1_555
C7 O3 1_555 1_555
C8 C1 1_555 1_555
C9 C8 1_555 1_555
H9 C9 1_555 1_555
C10 C9 1_555 1_555
H10 C10 1_555 1_555
C11 C10 1_555 1_555
C12 C11 1_555 1_555
H11 C12 1_555 1_555
C13 C8 1_555 1_555
H12 C13 1_555 1_555
C14 H13 1_555 1_555
C15 C14 1_555 1_555
H14 C15 1_555 1_555
H15 C15 1_555 1_555
H16 C15 1_555 1_555
C16 C14 1_555 1_555
C17 C16 1_555 1_555
H17 C17 1_555 1_555
C18 C17 1_555 1_555
C19 C18 1_555 1_555
H18 C19 1_555 1_555
C20 C19 1_555 1_555
C21 C16 1_555 1_555
C22 C18 1_555 1_555
H19 C22 1_555 1_555
C23 C20 1_555 1_555
F1 C22 1_555 1_555
F2 C22 1_555 1_555
F3 C23 1_555 1_555
F4 C23 1_555 1_555
F5 C23 1_555 1_555
F6 C11 1_555 1_555
O1 C2 1_555 1_555
O2 C2 1_555 1_555
N1 C1 1_555 1_555
N2 C6 1_555 1_555
N3 C7 1_555 1_555
H20 N3 1_555 1_555
N4 C6 1_555 1_555
H21 N4 1_555 1_555
C3 O2 1_555 1_555
C4 N1 1_555 1_555
C5 N1 1_555 1_555
C7 N4 1_555 1_555
C12 C13 1_555 1_555
C14 O1 1_555 1_555
C20 C21 1_555 1_555
N2 N3 1_555 1_555

#END
