
#######################################################################
#
#                 Cambridge Crystallographic Data Centre
#                                CCDC 
#
#######################################################################
#
# If this CIF has been generated from an entry in the Cambridge 
# Structural Database, then it will include bibliographic, chemical, 
# crystal, experimental, refinement or atomic coordinate data resulting 
# from the CCDC's data processing and validation procedures.
#
#######################################################################

data_VAXCAY
_chemical_formula_moiety         'C12 H9 N1 O2 S1'
_chemical_name_systematic        3-(2-Cyanoethylthio)coumarin
_symmetry_cell_setting           monoclinic
_symmetry_space_group_name_H-M   'P 21/m'
_symmetry_Int_Tables_number      11
_space_group_name_Hall           '-P 2yb'
loop_
_symmetry_equiv_pos_site_id
_symmetry_equiv_pos_as_xyz
1 x,y,z
2 -x,1/2+y,-z
3 -x,-y,-z
4 x,1/2-y,z
_cell_length_a                   6.687(2)
_cell_length_b                   6.743(2)
_cell_length_c                   11.932(5)
_cell_angle_alpha                90
_cell_angle_beta                 92.57(3)
_cell_angle_gamma                90
_cell_volume                     537.478
_cell_formula_units_Z            2
loop_
_atom_site_label
_atom_site_type_symbol
_atom_site_fract_x
_atom_site_fract_y
_atom_site_fract_z
S1 S 1.0631(1) 0.2500 -0.3351(1)
O1 O 1.3078(3) 0.2500 -0.0283(2)
O2 O 1.4246(3) 0.2500 -0.1975(2)
N1 N 0.3920(5) 0.2500 -0.5587(3)
C1 C 1.2786(4) 0.2500 -0.1422(3)
C2 C 1.0726(4) 0.2500 -0.1888(3)
C3 C 0.9193(4) 0.2500 -0.1200(3)
C4 C 0.9553(4) 0.2500 -0.0009(2)
C5 C 0.8015(5) 0.2500 0.0754(3)
C6 C 0.8466(5) 0.2500 0.1892(3)
C7 C 1.0426(5) 0.2500 0.2291(3)
C8 C 1.1974(5) 0.2500 0.1566(3)
C9 C 1.1505(4) 0.2500 0.0427(3)
C10 C 0.7951(5) 0.2500 -0.3668(3)
C11 C 0.7684(5) 0.2500 -0.4929(3)
C12 C 0.555 0.2500 -0.528
loop_
_geom_bond_atom_site_label_1
_geom_bond_atom_site_label_2
_geom_bond_site_symmetry_1
_geom_bond_site_symmetry_2
S1 C2 1_555 1_555
O1 C1 1_555 1_555
O2 C1 1_555 1_555
N1 C12 1_555 1_555
C1 C2 1_555 1_555
C2 C3 1_555 1_555
C3 C4 1_555 1_555
C4 C5 1_555 1_555
C5 C6 1_555 1_555
C6 C7 1_555 1_555
C7 C8 1_555 1_555
C8 C9 1_555 1_555
C9 O1 1_555 1_555
C10 S1 1_555 1_555
C11 C10 1_555 1_555
C12 C11 1_555 1_555
C4 C9 1_555 1_555

#END
