
#######################################################################
#
#                 Cambridge Crystallographic Data Centre
#                                CCDC 
#
#######################################################################
#
# If this CIF has been generated from an entry in the Cambridge 
# Structural Database, then it will include bibliographic, chemical, 
# crystal, experimental, refinement or atomic coordinate data resulting 
# from the CCDC's data processing and validation procedures.
#
#######################################################################

data_VAXCEF
_chemical_formula_moiety         'C44 H36 N2 O6 P2'
_chemical_name_systematic        
2,5-bis(diphenylphosphoryl)-3,6-bis((4-methoxyphenyl)amino)-1,4-benzoquinone
_symmetry_cell_setting           monoclinic
_symmetry_space_group_name_H-M   'P 21/n'
_symmetry_Int_Tables_number      14
_space_group_name_Hall           '-P 2yn'
loop_
_symmetry_equiv_pos_site_id
_symmetry_equiv_pos_as_xyz
1 x,y,z
2 1/2-x,1/2+y,1/2-z
3 -x,-y,-z
4 1/2+x,1/2-y,1/2+z
_cell_length_a                   8.5729(6)
_cell_length_b                   19.8686(17)
_cell_length_c                   11.1249(9)
_cell_angle_alpha                90
_cell_angle_beta                 94.881(7)
_cell_angle_gamma                90
_cell_volume                     1888.05
_exptl_crystal_colour            black
_exptl_crystal_description       parallelepiped
_cell_formula_units_Z            2
loop_
_atom_site_label
_atom_site_type_symbol
_atom_site_fract_x
_atom_site_fract_y
_atom_site_fract_z
P1 P 0.01238(8) 0.12591(4) 0.68730(6)
O1 O 0.1226(2) 0.00956(10) 0.28950(16)
O2 O 0.0867(2) 0.18658(9) 0.63538(17)
O3 O 0.7486(3) 0.11183(11) 0.2418(2)
N1 N 0.1839(3) 0.11198(12) 0.4538(2)
H1 H 0.176(3) 0.1496(16) 0.499(3)
C1 C 0.0748(3) 0.00214(14) 0.3896(2)
C2 C 0.0952(3) 0.05910(13) 0.4802(2)
C3 C 0.0116(3) 0.05723(13) 0.5818(2)
C4 C -0.1897(3) 0.14205(14) 0.7119(3)
C5 C -0.2798(3) 0.17631(16) 0.6231(3)
H2 H -0.2339 0.1917 0.5533
C6 C -0.4374(4) 0.18842(17) 0.6351(3)
H3 H -0.4992 0.2116 0.5733
C7 C -0.5031(4) 0.16697(17) 0.7353(4)
H4 H -0.6108 0.1755 0.7434
C8 C -0.4153(4) 0.13316(19) 0.8250(4)
H5 H -0.4622 0.1186 0.8949
C9 C -0.2572(4) 0.12006(17) 0.8136(3)
H6 H -0.1964 0.0963 0.8751
C10 C 0.1122(3) 0.10181(14) 0.8294(2)
C11 C 0.1308(4) 0.15060(16) 0.9204(3)
H7 H 0.0873 0.1942 0.9066
C12 C 0.2117(4) 0.13590(18) 1.0299(3)
H8 H 0.2234 0.1693 1.0911
C13 C 0.2752(4) 0.07301(17) 1.0504(3)
H9 H 0.3296 0.0627 1.1262
C14 C 0.2598(3) 0.02491(16) 0.9607(3)
H10 H 0.3057 -0.0182 0.9745
C15 C 0.1783(3) 0.03892(15) 0.8510(3)
H11 H 0.1676 0.0053 0.7902
C16 C 0.3222(3) 0.11098(14) 0.3912(2)
C17 C 0.3675(3) 0.16904(14) 0.3352(2)
H12 H 0.3013 0.2075 0.3322
C18 C 0.5097(3) 0.17171(14) 0.2828(2)
H13 H 0.5404 0.2116 0.2441
C19 C 0.6053(3) 0.11550(15) 0.2882(3)
C20 C 0.5582(3) 0.05699(15) 0.3431(3)
H14 H 0.6232 0.0182 0.3451
C21 C 0.4187(3) 0.05497(15) 0.3943(3)
H15 H 0.3878 0.0149 0.4322
C22 C 0.8104(5) 0.1716(2) 0.1954(5)
H16 H 0.9123 0.1620 0.1654
H17 H 0.7385 0.1887 0.1292
H18 H 0.8233 0.2054 0.2595
P1B P -0.01238(8) -0.12591(4) 0.31270(6)
O1B O -0.1226(2) -0.00956(10) 0.71050(16)
O2B O -0.0867(2) -0.18658(9) 0.36462(17)
O3B O -0.7486(3) -0.11183(11) 0.7582(2)
N1B N -0.1839(3) -0.11198(12) 0.5462(2)
H1B H -0.176(3) -0.1496(16) 0.501(3)
C1B C -0.0748(3) -0.00214(14) 0.6104(2)
C2B C -0.0952(3) -0.05910(13) 0.5198(2)
C3B C -0.0116(3) -0.05723(13) 0.4182(2)
C4B C 0.1897(3) -0.14205(14) 0.2881(3)
C5B C 0.2798(3) -0.17631(16) 0.3769(3)
H2B H 0.2339 -0.1917 0.4467
C6B C 0.4374(4) -0.18842(17) 0.3649(3)
H3B H 0.4992 -0.2116 0.4267
C7B C 0.5031(4) -0.16697(17) 0.2647(4)
H4B H 0.6108 -0.1755 0.2566
C8B C 0.4153(4) -0.13316(19) 0.1750(4)
H5B H 0.4622 -0.1186 0.1051
C9B C 0.2572(4) -0.12006(17) 0.1864(3)
H6B H 0.1964 -0.0963 0.1249
C10B C -0.1122(3) -0.10181(14) 0.1706(2)
C11B C -0.1308(4) -0.15060(16) 0.0796(3)
H7B H -0.0873 -0.1942 0.0934
C12B C -0.2117(4) -0.13590(18) -0.0299(3)
H8B H -0.2234 -0.1693 -0.0911
C13B C -0.2752(4) -0.07301(17) -0.0504(3)
H9B H -0.3296 -0.0627 -0.1262
C14B C -0.2598(3) -0.02491(16) 0.0393(3)
H10B H -0.3057 0.0182 0.0255
C15B C -0.1783(3) -0.03892(15) 0.1490(3)
H11B H -0.1676 -0.0053 0.2098
C16B C -0.3222(3) -0.11098(14) 0.6088(2)
C17B C -0.3675(3) -0.16904(14) 0.6648(2)
H12B H -0.3013 -0.2075 0.6678
C18B C -0.5097(3) -0.17171(14) 0.7172(2)
H13B H -0.5404 -0.2116 0.7559
C19B C -0.6053(3) -0.11550(15) 0.7118(3)
C20B C -0.5582(3) -0.05699(15) 0.6569(3)
H14B H -0.6232 -0.0182 0.6549
C21B C -0.4187(3) -0.05497(15) 0.6057(3)
H15B H -0.3878 -0.0149 0.5678
C22B C -0.8104(5) -0.1716(2) 0.8046(5)
H16B H -0.9123 -0.1620 0.8346
H17B H -0.7385 -0.1887 0.8708
H18B H -0.8233 -0.2054 0.7405
loop_
_geom_bond_atom_site_label_1
_geom_bond_atom_site_label_2
_geom_bond_site_symmetry_1
_geom_bond_site_symmetry_2
P1 O2 1_555 1_555
O1 C1 1_555 1_555
O3 C19 1_555 1_555
N1 H1 1_555 1_555
C1 C2 1_555 1_555
C2 N1 1_555 1_555
C3 P1 1_555 1_555
C4 P1 1_555 1_555
C5 C4 1_555 1_555
H2 C5 1_555 1_555
C6 C5 1_555 1_555
H3 C6 1_555 1_555
C7 C6 1_555 1_555
H4 C7 1_555 1_555
C8 C7 1_555 1_555
H5 C8 1_555 1_555
C9 C4 1_555 1_555
H6 C9 1_555 1_555
C10 P1 1_555 1_555
C11 C10 1_555 1_555
H7 C11 1_555 1_555
C12 C11 1_555 1_555
H8 C12 1_555 1_555
C13 C12 1_555 1_555
H9 C13 1_555 1_555
C14 C13 1_555 1_555
H10 C14 1_555 1_555
C15 C10 1_555 1_555
H11 C15 1_555 1_555
C16 N1 1_555 1_555
C17 C16 1_555 1_555
H12 C17 1_555 1_555
C18 C17 1_555 1_555
H13 C18 1_555 1_555
C19 C18 1_555 1_555
C20 C19 1_555 1_555
H14 C20 1_555 1_555
C21 C16 1_555 1_555
H15 C21 1_555 1_555
C22 O3 1_555 1_555
H16 C22 1_555 1_555
H17 C22 1_555 1_555
H18 C22 1_555 1_555
P1B O2B 1_555 1_555
O1B C1B 1_555 1_555
O3B C19B 1_555 1_555
N1B H1B 1_555 1_555
C1B C3 1_555 1_555
C2B N1B 1_555 1_555
C3B C1 1_555 1_555
C4B P1B 1_555 1_555
C5B C4B 1_555 1_555
H2B C5B 1_555 1_555
C6B C5B 1_555 1_555
H3B C6B 1_555 1_555
C7B C6B 1_555 1_555
H4B C7B 1_555 1_555
C8B C7B 1_555 1_555
H5B C8B 1_555 1_555
C9B C4B 1_555 1_555
H6B C9B 1_555 1_555
C10B P1B 1_555 1_555
C11B C10B 1_555 1_555
H7B C11B 1_555 1_555
C12B C11B 1_555 1_555
H8B C12B 1_555 1_555
C13B C12B 1_555 1_555
H9B C13B 1_555 1_555
C14B C13B 1_555 1_555
H10B C14B 1_555 1_555
C15B C10B 1_555 1_555
H11B C15B 1_555 1_555
C16B N1B 1_555 1_555
C17B C16B 1_555 1_555
H12B C17B 1_555 1_555
C18B C17B 1_555 1_555
H13B C18B 1_555 1_555
C19B C18B 1_555 1_555
C20B C19B 1_555 1_555
H14B C20B 1_555 1_555
C21B C16B 1_555 1_555
H15B C21B 1_555 1_555
C22B O3B 1_555 1_555
H16B C22B 1_555 1_555
H17B C22B 1_555 1_555
H18B C22B 1_555 1_555
C2 C3 1_555 1_555
C8 C9 1_555 1_555
C14 C15 1_555 1_555
C20 C21 1_555 1_555
P1B C3B 1_555 1_555
C1B C2B 1_555 1_555
C2B C3B 1_555 1_555
C8B C9B 1_555 1_555
C14B C15B 1_555 1_555
C20B C21B 1_555 1_555

#END
