
#######################################################################
#
#                 Cambridge Crystallographic Data Centre
#                                CCDC 
#
#######################################################################
#
# If this CIF has been generated from an entry in the Cambridge 
# Structural Database, then it will include bibliographic, chemical, 
# crystal, experimental, refinement or atomic coordinate data resulting 
# from the CCDC's data processing and validation procedures.
#
#######################################################################

data_VAXCAB
_chemical_formula_moiety         'C50 H48 N2 O4 P2,2(C1 H2 Cl2)'
_chemical_name_systematic        
'2,5-bis((4-t-butylphenyl)amino)-3,6-bis(diphenylphosphoryl)-1,4-benzoquinone dichloromethane solvate'
_symmetry_cell_setting           triclinic
_symmetry_space_group_name_H-M   'P -1'
_symmetry_Int_Tables_number      2
_space_group_name_Hall           '-P 1'
loop_
_symmetry_equiv_pos_site_id
_symmetry_equiv_pos_as_xyz
1 x,y,z
2 -x,-y,-z
_cell_length_a                   9.0576(6)
_cell_length_b                   11.4389(8)
_cell_length_c                   11.6744(9)
_cell_angle_alpha                91.875(6)
_cell_angle_beta                 93.752(6)
_cell_angle_gamma                98.809(6)
_cell_volume                     1191.62
_exptl_crystal_colour            coffee
_exptl_crystal_description       parallelepiped
_cell_formula_units_Z            1
loop_
_atom_site_label
_atom_site_type_symbol
_atom_site_fract_x
_atom_site_fract_y
_atom_site_fract_z
P1 P 0.31377(6) 0.73247(5) 0.47858(5)
O1 O 0.27040(18) 0.94041(15) 0.34410(15)
O2 O 0.36584(19) 0.65697(15) 0.57206(15)
N1 N 0.5494(2) 0.84301(19) 0.67161(18)
H1 H 0.498(4) 0.774(3) 0.656(3)
C1 C 0.3818(2) 0.9627(2) 0.41212(19)
C2 C 0.4177(2) 0.8808(2) 0.4962(2)
C3 C 0.5227(2) 0.9158(2) 0.5880(2)
C4 C 0.1163(3) 0.7384(2) 0.4819(2)
C5 C 0.0635(3) 0.8334(2) 0.5353(2)
H2 H 0.1315 0.9022 0.5616
C6 C -0.0887(3) 0.8273(2) 0.5502(2)
H3 H -0.1247 0.8919 0.5864
C7 C -0.1877(3) 0.7269(2) 0.5122(2)
H4 H -0.2914 0.7228 0.5227
C8 C -0.1364(3) 0.6323(2) 0.4588(2)
H5 H -0.2048 0.5637 0.4330
C9 C 0.0153(3) 0.6383(2) 0.4433(2)
H6 H 0.0504 0.5738 0.4061
C10 C 0.3453(3) 0.6710(2) 0.3401(2)
C11 C 0.2754(3) 0.7011(3) 0.2378(2)
H7 H 0.2059 0.7554 0.2388
C12 C 0.3078(4) 0.6513(3) 0.1347(3)
H8 H 0.2608 0.6716 0.0646
C13 C 0.4087(4) 0.5721(4) 0.1334(3)
H9 H 0.4308 0.5385 0.0623
C14 C 0.4774(4) 0.5414(3) 0.2340(4)
H10 H 0.5467 0.4870 0.2319
C15 C 0.4460(3) 0.5895(2) 0.3380(3)
H11 H 0.4923 0.5674 0.4076
C16 C 0.6262(3) 0.8585(2) 0.7831(2)
C17 C 0.6921(3) 0.7638(2) 0.8215(2)
H12 H 0.6954 0.6980 0.7705
C18 C 0.7533(3) 0.7641(3) 0.9333(2)
H13 H 0.7983 0.6983 0.9572
C19 C 0.7507(3) 0.8579(3) 1.0113(2)
C20 C 0.6839(3) 0.9525(2) 0.9706(2)
H14 H 0.6810 1.0185 1.0215
C21 C 0.6224(3) 0.9537(2) 0.8597(2)
H15 H 0.5774 1.0194 0.8355
C22 C 0.8185(3) 0.8610(3) 1.1356(2)
C23 C 0.8707(4) 0.7424(4) 1.1643(3)
H16 H 0.9134 0.7470 1.2440
H17 H 0.7850 0.6784 1.1548
H18 H 0.9468 0.7265 1.1125
C24 C 0.9532(3) 0.9608(4) 1.1522(3)
H19 H 0.9968 0.9630 1.2315
H20 H 1.0287 0.9465 1.0992
H21 H 0.9202 1.0368 1.1366
C25 C 0.7028(3) 0.8832(3) 1.2207(2)
H22 H 0.7483 0.8849 1.2993
H23 H 0.6697 0.9594 1.2062
H24 H 0.6166 0.8197 1.2109
P1A P 0.68623(6) 1.26753(5) 0.52142(5)
O1A O 0.72960(18) 1.05959(15) 0.65590(15)
O2A O 0.63416(19) 1.34303(15) 0.42794(15)
N1A N 0.4506(2) 1.15699(19) 0.32839(18)
H1A H 0.502(4) 1.226(3) 0.344(3)
C1A C 0.6182(2) 1.0373(2) 0.58788(19)
C2A C 0.5823(2) 1.1192(2) 0.5038(2)
C3A C 0.4773(2) 1.0842(2) 0.4120(2)
C4A C 0.8837(3) 1.2616(2) 0.5181(2)
C5A C 0.9365(3) 1.1666(2) 0.4647(2)
H2A H 0.8685 1.0978 0.4384
C6A C 1.0887(3) 1.1727(2) 0.4498(2)
H3A H 1.1247 1.1081 0.4136
C7A C 1.1877(3) 1.2731(2) 0.4878(2)
H4A H 1.2914 1.2772 0.4773
C8A C 1.1364(3) 1.3677(2) 0.5412(2)
H5A H 1.2048 1.4363 0.5670
C9A C 0.9847(3) 1.3617(2) 0.5567(2)
H6A H 0.9496 1.4262 0.5939
C10A C 0.6547(3) 1.3290(2) 0.6599(2)
C11A C 0.7246(3) 1.2989(3) 0.7622(2)
H7A H 0.7941 1.2446 0.7612
C12A C 0.6922(4) 1.3487(3) 0.8653(3)
H8A H 0.7392 1.3284 0.9354
C13A C 0.5913(4) 1.4279(4) 0.8666(3)
H9A H 0.5692 1.4615 0.9377
C14A C 0.5226(4) 1.4586(3) 0.7660(4)
H10A H 0.4533 1.5130 0.7681
C15A C 0.5540(3) 1.4105(2) 0.6620(3)
H11A H 0.5077 1.4326 0.5924
C16A C 0.3738(3) 1.1415(2) 0.2169(2)
C17A C 0.3079(3) 1.2362(2) 0.1785(2)
H12A H 0.3046 1.3020 0.2295
C18A C 0.2467(3) 1.2359(3) 0.0667(2)
H13A H 0.2017 1.3017 0.0428
C19A C 0.2493(3) 1.1421(3) -0.0113(2)
C20A C 0.3161(3) 1.0475(2) 0.0294(2)
H14A H 0.3190 0.9815 -0.0215
C21A C 0.3776(3) 1.0463(2) 0.1403(2)
H15A H 0.4226 0.9806 0.1645
C22A C 0.1815(3) 1.1390(3) -0.1356(2)
C23A C 0.1293(4) 1.2576(4) -0.1643(3)
H16A H 0.0866 1.2530 -0.2440
H17A H 0.2150 1.3216 -0.1548
H18A H 0.0532 1.2735 -0.1125
C24A C 0.0468(3) 1.0392(4) -0.1522(3)
H19A H 0.0032 1.0370 -0.2315
H20A H -0.0287 1.0535 -0.0992
H21A H 0.0798 0.9632 -0.1366
C25A C 0.2972(3) 1.1168(3) -0.2207(2)
H22A H 0.2517 1.1151 -0.2993
H23A H 0.3303 1.0406 -0.2062
H24A H 0.3834 1.1803 -0.2109
C26 C 0.1014(4) 0.6648(4) 0.7704(3)
H25 H 0.0255 0.7169 0.7541
H26 H 0.1251 0.6306 0.6961
Cl1 Cl 0.26287(12) 0.74943(10) 0.83575(9)
Cl2 Cl 0.02636(14) 0.55145(8) 0.85372(10)
loop_
_geom_bond_atom_site_label_1
_geom_bond_atom_site_label_2
_geom_bond_site_symmetry_1
_geom_bond_site_symmetry_2
P1 O2 1_555 1_555
O1 C1 1_555 1_555
N1 H1 1_555 1_555
C1 C2 1_555 1_555
C2 P1 1_555 1_555
C3 N1 1_555 1_555
C4 P1 1_555 1_555
C5 C4 1_555 1_555
H2 C5 1_555 1_555
C6 C5 1_555 1_555
H3 C6 1_555 1_555
C7 C6 1_555 1_555
H4 C7 1_555 1_555
C8 C7 1_555 1_555
H5 C8 1_555 1_555
C9 C4 1_555 1_555
H6 C9 1_555 1_555
C10 P1 1_555 1_555
C11 C10 1_555 1_555
H7 C11 1_555 1_555
C12 C11 1_555 1_555
H8 C12 1_555 1_555
C13 C12 1_555 1_555
H9 C13 1_555 1_555
C14 C13 1_555 1_555
H10 C14 1_555 1_555
C15 C10 1_555 1_555
H11 C15 1_555 1_555
C16 N1 1_555 1_555
C17 C16 1_555 1_555
H12 C17 1_555 1_555
C18 C17 1_555 1_555
H13 C18 1_555 1_555
C19 C18 1_555 1_555
C20 C19 1_555 1_555
H14 C20 1_555 1_555
C21 C16 1_555 1_555
H15 C21 1_555 1_555
C22 C19 1_555 1_555
C23 C22 1_555 1_555
H16 C23 1_555 1_555
H17 C23 1_555 1_555
H18 C23 1_555 1_555
C24 C22 1_555 1_555
H19 C24 1_555 1_555
H20 C24 1_555 1_555
H21 C24 1_555 1_555
C25 C22 1_555 1_555
H22 C25 1_555 1_555
H23 C25 1_555 1_555
H24 C25 1_555 1_555
C26 H25 1_555 1_555
H26 C26 1_555 1_555
Cl1 C26 1_555 1_555
Cl2 C26 1_555 1_555
P1A O2A 1_555 1_555
O1A C1A 1_555 1_555
N1A H1A 1_555 1_555
C1A C3 1_555 1_555
C2A P1A 1_555 1_555
C3A C1 1_555 1_555
C4A P1A 1_555 1_555
C5A C4A 1_555 1_555
H2A C5A 1_555 1_555
C6A C5A 1_555 1_555
H3A C6A 1_555 1_555
C7A C6A 1_555 1_555
H4A C7A 1_555 1_555
C8A C7A 1_555 1_555
H5A C8A 1_555 1_555
C9A C4A 1_555 1_555
H6A C9A 1_555 1_555
C10A P1A 1_555 1_555
C11A C10A 1_555 1_555
H7A C11A 1_555 1_555
C12A C11A 1_555 1_555
H8A C12A 1_555 1_555
C13A C12A 1_555 1_555
H9A C13A 1_555 1_555
C14A C13A 1_555 1_555
H10A C14A 1_555 1_555
C15A C10A 1_555 1_555
H11A C15A 1_555 1_555
C16A N1A 1_555 1_555
C17A C16A 1_555 1_555
H12A C17A 1_555 1_555
C18A C17A 1_555 1_555
H13A C18A 1_555 1_555
C19A C18A 1_555 1_555
C20A C19A 1_555 1_555
H14A C20A 1_555 1_555
C21A C16A 1_555 1_555
H15A C21A 1_555 1_555
C22A C19A 1_555 1_555
C23A C22A 1_555 1_555
H16A C23A 1_555 1_555
H17A C23A 1_555 1_555
H18A C23A 1_555 1_555
C24A C22A 1_555 1_555
H19A C24A 1_555 1_555
H20A C24A 1_555 1_555
H21A C24A 1_555 1_555
C25A C22A 1_555 1_555
H22A C25A 1_555 1_555
H23A C25A 1_555 1_555
H24A C25A 1_555 1_555
C2 C3 1_555 1_555
C8 C9 1_555 1_555
C14 C15 1_555 1_555
C20 C21 1_555 1_555
N1A C3A 1_555 1_555
C1A C2A 1_555 1_555
C2A C3A 1_555 1_555
C8A C9A 1_555 1_555
C14A C15A 1_555 1_555
C20A C21A 1_555 1_555

#END
