
#######################################################################
#
#                 Cambridge Crystallographic Data Centre
#                                CCDC 
#
#######################################################################
#
# If this CIF has been generated from an entry in the Cambridge 
# Structural Database, then it will include bibliographic, chemical, 
# crystal, experimental, refinement or atomic coordinate data resulting 
# from the CCDC's data processing and validation procedures.
#
#######################################################################

data_VAXCOP
_chemical_formula_moiety         'C42 H30 F2 N2 O4 P2,C1 H2 Cl2'
_chemical_name_systematic        
'2,5-bis(diphenylphosphoryl)-3,6-bis((4-fluorophenyl)amino)-1,4-benzoquinone dichloromethane solvate'
_symmetry_cell_setting           monoclinic
_symmetry_space_group_name_H-M   'C 2/c'
_symmetry_Int_Tables_number      15
_space_group_name_Hall           '-C 2yn'
loop_
_symmetry_equiv_pos_site_id
_symmetry_equiv_pos_as_xyz
1 x,y,z
2 -x,y,1/2-z
3 1/2+x,1/2+y,z
4 1/2-x,1/2+y,1/2-z
5 -x,-y,-z
6 x,-y,1/2+z
7 1/2-x,1/2-y,-z
8 1/2+x,1/2-y,1/2+z
_cell_length_a                   24.1583(10)
_cell_length_b                   16.5267(8)
_cell_length_c                   10.2512(4)
_cell_angle_alpha                90
_cell_angle_beta                 107.067(4)
_cell_angle_gamma                90
_cell_volume                     3912.62
_exptl_crystal_colour            black
_exptl_crystal_description       parallelepiped
_cell_formula_units_Z            4
loop_
_atom_site_label
_atom_site_type_symbol
_atom_site_fract_x
_atom_site_fract_y
_atom_site_fract_z
P1 P 0.07889(2) 0.22696(4) 1.06656(5)
F1 F 0.26853(6) 0.39856(11) 0.60773(17)
O1 O 0.11118(6) 0.20729(9) 0.80587(14)
O2 O 0.04540(6) 0.25444(12) 1.16050(15)
N1 N 0.05254(8) 0.26772(13) 0.54807(19)
H1 H 0.0310(13) 0.2671(17) 0.470(3)
C1 C 0.03416(8) 0.23760(13) 0.8926(2)
C2 C 0.06104(8) 0.23006(12) 0.7861(2)
C3 C 0.02532(9) 0.25037(13) 0.6404(2)
C4 C 0.14265(9) 0.28728(15) 1.0833(2)
C5 C 0.13416(11) 0.36732(16) 1.0411(3)
H2 H 0.0960 0.3870 1.0009
C6 C 0.18103(13) 0.41875(18) 1.0573(3)
H3 H 0.1750 0.4733 1.0274
C7 C 0.23675(12) 0.3905(2) 1.1170(3)
H4 H 0.2689 0.4258 1.1290
C8 C 0.24544(11) 0.3114(2) 1.1588(3)
H5 H 0.2837 0.2921 1.1994
C9 C 0.19865(10) 0.25941(18) 1.1421(2)
H6 H 0.2050 0.2047 1.1711
C10 C 0.09773(10) 0.12168(16) 1.0936(2)
C11 C 0.13556(12) 0.08172(17) 1.0365(3)
H7 H 0.1550 0.1110 0.9833
C12 C 0.14515(15) -0.00063(19) 1.0566(3)
H8 H 0.1716 -0.0273 1.0185
C13 C 0.11649(14) -0.0438(2) 1.1314(3)
H9 H 0.1221 -0.1006 1.1422
C14 C 0.07980(14) -0.0048(2) 1.1905(4)
H10 H 0.0609 -0.0345 1.2442
C15 C 0.07014(11) 0.0776(2) 1.1724(3)
H11 H 0.0447 0.1041 1.2138
C16 C 0.10887(9) 0.30064(14) 0.5689(2)
C17 C 0.13375(10) 0.35270(15) 0.6758(2)
H12 H 0.1135 0.3663 0.7395
C18 C 0.18804(11) 0.38494(16) 0.6898(3)
H13 H 0.2061 0.4193 0.7644
C19 C 0.21519(10) 0.36619(16) 0.5938(2)
C20 C 0.19102(10) 0.31726(18) 0.4852(3)
H14 H 0.2106 0.3064 0.4192
C21 C 0.13719(10) 0.28372(18) 0.4731(2)
H15 H 0.1197 0.2490 0.3985
P1A P -0.07889(2) 0.22696(4) 0.43344(5)
F1A F -0.26853(6) 0.39856(11) 0.89227(17)
O1A O -0.11118(6) 0.20729(9) 0.69413(14)
O2A O -0.04540(6) 0.25444(12) 0.33950(15)
N1A N -0.05254(8) 0.26772(13) 0.95193(19)
H1A H -0.0310(13) 0.2671(17) 1.030(3)
C1A C -0.03416(8) 0.23760(13) 0.6074(2)
C2A C -0.06104(8) 0.23006(12) 0.7139(2)
C3A C -0.02532(9) 0.25037(13) 0.8596(2)
C4A C -0.14265(9) 0.28728(15) 0.4167(2)
C5A C -0.13416(11) 0.36732(16) 0.4589(3)
H2A H -0.0960 0.3870 0.4991
C6A C -0.18103(13) 0.41875(18) 0.4427(3)
H3A H -0.1750 0.4733 0.4726
C7A C -0.23675(12) 0.3905(2) 0.3830(3)
H4A H -0.2689 0.4258 0.3710
C8A C -0.24544(11) 0.3114(2) 0.3412(3)
H5A H -0.2837 0.2921 0.3006
C9A C -0.19865(10) 0.25941(18) 0.3579(2)
H6A H -0.2050 0.2047 0.3289
C10A C -0.09773(10) 0.12168(16) 0.4064(2)
C11A C -0.13556(12) 0.08172(17) 0.4635(3)
H7A H -0.1550 0.1110 0.5167
C12A C -0.14515(15) -0.00063(19) 0.4434(3)
H8A H -0.1716 -0.0273 0.4815
C13A C -0.11649(14) -0.0438(2) 0.3686(3)
H9A H -0.1221 -0.1006 0.3578
C14A C -0.07980(14) -0.0048(2) 0.3095(4)
H10A H -0.0609 -0.0345 0.2558
C15A C -0.07014(11) 0.0776(2) 0.3276(3)
H11A H -0.0447 0.1041 0.2862
C16A C -0.10887(9) 0.30064(14) 0.9311(2)
C17A C -0.13375(10) 0.35270(15) 0.8242(2)
H12A H -0.1135 0.3663 0.7605
C18A C -0.18804(11) 0.38494(16) 0.8102(3)
H13A H -0.2061 0.4193 0.7356
C19A C -0.21519(10) 0.36619(16) 0.9062(2)
C20A C -0.19102(10) 0.31726(18) 1.0148(3)
H14A H -0.2106 0.3064 1.0808
C21A C -0.13719(10) 0.28372(18) 1.0269(2)
H15A H -0.1197 0.2490 1.1015
Cl1 Cl 0.00864(14) 0.52458(19) 0.9019(4)
C22 C 0.0000 0.5778(4) 0.7500
Cl1A Cl -0.00864(14) 0.52458(19) 0.5981(4)
Cl2? Cl 0.06299(13) 0.52691(19) 0.7889(3)
loop_
_geom_bond_atom_site_label_1
_geom_bond_atom_site_label_2
_geom_bond_site_symmetry_1
_geom_bond_site_symmetry_2
P1 O2 1_555 1_555
F1 C19 1_555 1_555
O1 C2 1_555 1_555
N1 H1 1_555 1_555
C1 P1 1_555 1_555
C2 C1 1_555 1_555
C3 N1 1_555 1_555
C4 P1 1_555 1_555
C5 C4 1_555 1_555
H2 C5 1_555 1_555
C6 C5 1_555 1_555
H3 C6 1_555 1_555
C7 C6 1_555 1_555
H4 C7 1_555 1_555
C8 C7 1_555 1_555
H5 C8 1_555 1_555
C9 C4 1_555 1_555
H6 C9 1_555 1_555
C10 P1 1_555 1_555
C11 C10 1_555 1_555
H7 C11 1_555 1_555
C12 C11 1_555 1_555
H8 C12 1_555 1_555
C13 C12 1_555 1_555
H9 C13 1_555 1_555
C14 C13 1_555 1_555
H10 C14 1_555 1_555
C15 C10 1_555 1_555
H11 C15 1_555 1_555
C16 N1 1_555 1_555
C17 C16 1_555 1_555
H12 C17 1_555 1_555
C18 C17 1_555 1_555
H13 C18 1_555 1_555
C19 C18 1_555 1_555
C20 C19 1_555 1_555
H14 C20 1_555 1_555
C21 C16 1_555 1_555
H15 C21 1_555 1_555
Cl1 C22 1_555 1_555
C22 Cl1A 1_555 1_555
P1A O2A 1_555 1_555
F1A C19A 1_555 1_555
O1A C2A 1_555 1_555
N1A H1A 1_555 1_555
C1A C3 1_555 1_555
C2A C1A 1_555 1_555
C3A C1 1_555 1_555
C4A P1A 1_555 1_555
C5A C4A 1_555 1_555
H2A C5A 1_555 1_555
C6A C5A 1_555 1_555
H3A C6A 1_555 1_555
C7A C6A 1_555 1_555
H4A C7A 1_555 1_555
C8A C7A 1_555 1_555
H5A C8A 1_555 1_555
C9A C4A 1_555 1_555
H6A C9A 1_555 1_555
C10A P1A 1_555 1_555
C11A C10A 1_555 1_555
H7A C11A 1_555 1_555
C12A C11A 1_555 1_555
H8A C12A 1_555 1_555
C13A C12A 1_555 1_555
H9A C13A 1_555 1_555
C14A C13A 1_555 1_555
H10A C14A 1_555 1_555
C15A C10A 1_555 1_555
H11A C15A 1_555 1_555
C16A N1A 1_555 1_555
C17A C16A 1_555 1_555
H12A C17A 1_555 1_555
C18A C17A 1_555 1_555
H13A C18A 1_555 1_555
C19A C18A 1_555 1_555
C20A C19A 1_555 1_555
H14A C20A 1_555 1_555
C21A C16A 1_555 1_555
H15A C21A 1_555 1_555
C2 C3 1_555 1_555
C8 C9 1_555 1_555
C14 C15 1_555 1_555
C20 C21 1_555 1_555
P1A C1A 1_555 1_555
N1A C3A 1_555 1_555
C2A C3A 1_555 1_555
C8A C9A 1_555 1_555
C14A C15A 1_555 1_555
C20A C21A 1_555 1_555

#END
