
#######################################################################
#
#                 Cambridge Crystallographic Data Centre
#                                CCDC 
#
#######################################################################
#
# If this CIF has been generated from an entry in the Cambridge 
# Structural Database, then it will include bibliographic, chemical, 
# crystal, experimental, refinement or atomic coordinate data resulting 
# from the CCDC's data processing and validation procedures.
#
#######################################################################

data_VAXJIP
_chemical_formula_moiety         'C28 H32 N2 O5 S1'
_chemical_name_systematic        
't-Butyl 7-((2-methoxyphenyl)(((4-methylphenyl)sulfonyl)amino)methyl)indoline-1-carboxylate'
_symmetry_cell_setting           triclinic
_symmetry_space_group_name_H-M   'P -1'
_symmetry_Int_Tables_number      2
_space_group_name_Hall           '-P 1'
loop_
_symmetry_equiv_pos_site_id
_symmetry_equiv_pos_as_xyz
1 x,y,z
2 -x,-y,-z
_cell_length_a                   9.3140(19)
_cell_length_b                   11.586(2)
_cell_length_c                   12.331(3)
_cell_angle_alpha                81.45(3)
_cell_angle_beta                 86.99(3)
_cell_angle_gamma                79.06(3)
_cell_volume                     1291.56
_exptl_crystal_colour            colorless
_exptl_crystal_description       plate
_cell_formula_units_Z            2
loop_
_atom_site_label
_atom_site_type_symbol
_atom_site_fract_x
_atom_site_fract_y
_atom_site_fract_z
S1 S 0.01995(4) 0.81630(4) 0.62356(4)
O1 O 0.09876(14) 0.84851(11) 0.52335(11)
O2 O 0.09541(14) 0.78770(12) 0.72479(11)
O3 O -0.41013(13) 0.79501(11) 0.70312(12)
O4 O -0.15873(13) 0.76216(11) 0.92762(10)
O5 O -0.33843(17) 0.76787(13) 1.06001(11)
N1 N -0.11469(15) 0.92476(12) 0.62957(12)
H1 H -0.1332 0.9786 0.5712
N2 N -0.27779(16) 0.93737(13) 0.98050(12)
C1 C -0.2874(3) 0.4117(2) 0.5749(3)
H2 H -0.3063 0.4127 0.4973
H3 H -0.3806 0.4248 0.6160
H4 H -0.2296 0.3346 0.6040
C2 C -0.2042(2) 0.50866(16) 0.58628(19)
C3 C -0.1635(2) 0.52557(16) 0.68853(18)
H5 H -0.1853 0.4733 0.7516
C4 C -0.0915(2) 0.61737(15) 0.70066(16)
H6 H -0.0649 0.6283 0.7712
C5 C -0.05917(18) 0.69264(14) 0.60813(15)
C6 C -0.09473(19) 0.67529(15) 0.50490(16)
H7 H -0.0692 0.7257 0.4417
C7 C -0.1677(2) 0.58410(17) 0.49427(18)
H8 H -0.1931 0.5728 0.4235
C8 C -0.20878(17) 0.93813(14) 0.72870(13)
H9 H -0.2076 0.8577 0.7717
C9 C -0.36491(17) 0.98932(14) 0.69121(13)
C10 C -0.46116(18) 0.91425(15) 0.67608(14)
C11 C -0.59943(19) 0.96056(17) 0.63553(15)
H10 H -0.6647 0.9091 0.6265
C12 C -0.6418(2) 1.08169(18) 0.60842(16)
H11 H -0.7359 1.1131 0.5793
C13 C -0.5496(2) 1.15782(17) 0.62290(16)
H12 H -0.5800 1.2412 0.6049
C14 C -0.4113(2) 1.11103(15) 0.66426(14)
H13 H -0.3474 1.1633 0.6743
C15 C -0.5058(2) 0.71681(17) 0.68674(18)
H14 H -0.4576 0.6345 0.7093
H15 H -0.5295 0.7277 0.6090
H16 H -0.5959 0.7346 0.7307
C16 C -0.15641(17) 1.01618(14) 0.80189(14)
C17 C -0.19779(18) 1.01492(15) 0.91244(14)
C18 C -0.3378(2) 0.9956(2) 1.07776(17)
H17 H -0.3330 0.9368 1.1451
H18 H -0.4406 1.0361 1.0667
C19 C -0.2391(2) 1.08523(19) 1.08528(17)
H19 H -0.2964 1.1606 1.1052
H20 H -0.1625 1.0531 1.1402
C20 C -0.1730(2) 1.10341(16) 0.97171(16)
C21 C -0.0964(2) 1.18937(17) 0.92447(19)
H21 H -0.0789 1.2489 0.9648
C22 C -0.0455(2) 1.18756(17) 0.81727(19)
H22 H 0.0109 1.2444 0.7846
C23 C -0.0762(2) 1.10328(16) 0.75678(17)
H23 H -0.0417 1.1048 0.6828
C24 C -0.24895(19) 0.81655(16) 0.98465(14)
C25 C -0.3328(3) 0.63888(19) 1.07677(16)
C26 C -0.1878(3) 0.5752(2) 1.1216(3)
H24 H -0.1107 0.5849 1.0657
H25 H -0.1904 0.4905 1.1419
H26 H -0.1676 0.6085 1.1865
C27 C -0.3654(3) 0.5988(3) 0.97085(19)
H27 H -0.2844 0.6068 0.9179
H28 H -0.4558 0.6481 0.9408
H29 H -0.3771 0.5156 0.9852
C28 C -0.4565(4) 0.6257(3) 1.1605(2)
H30 H -0.4337 0.6512 1.2289
H31 H -0.4678 0.5424 1.1748
H32 H -0.5477 0.6750 1.1318
loop_
_geom_bond_atom_site_label_1
_geom_bond_atom_site_label_2
_geom_bond_site_symmetry_1
_geom_bond_site_symmetry_2
S1 O1 1_555 1_555
O2 S1 1_555 1_555
O3 C10 1_555 1_555
O4 C24 1_555 1_555
O5 C24 1_555 1_555
N1 S1 1_555 1_555
H1 N1 1_555 1_555
N2 C17 1_555 1_555
C1 H2 1_555 1_555
H3 C1 1_555 1_555
H4 C1 1_555 1_555
C2 C1 1_555 1_555
C3 C2 1_555 1_555
H5 C3 1_555 1_555
C4 C3 1_555 1_555
H6 C4 1_555 1_555
C5 S1 1_555 1_555
C6 C5 1_555 1_555
H7 C6 1_555 1_555
C7 C2 1_555 1_555
H8 C7 1_555 1_555
C8 N1 1_555 1_555
H9 C8 1_555 1_555
C9 C8 1_555 1_555
C10 C9 1_555 1_555
C11 C10 1_555 1_555
H10 C11 1_555 1_555
C12 C11 1_555 1_555
H11 C12 1_555 1_555
C13 C12 1_555 1_555
H12 C13 1_555 1_555
C14 C9 1_555 1_555
H13 C14 1_555 1_555
C15 O3 1_555 1_555
H14 C15 1_555 1_555
H15 C15 1_555 1_555
H16 C15 1_555 1_555
C16 C8 1_555 1_555
C17 C16 1_555 1_555
C18 N2 1_555 1_555
H17 C18 1_555 1_555
H18 C18 1_555 1_555
C19 C18 1_555 1_555
H19 C19 1_555 1_555
H20 C19 1_555 1_555
C20 C17 1_555 1_555
C21 C20 1_555 1_555
H21 C21 1_555 1_555
C22 C21 1_555 1_555
H22 C22 1_555 1_555
C23 C16 1_555 1_555
H23 C23 1_555 1_555
C24 N2 1_555 1_555
C25 O5 1_555 1_555
C26 C25 1_555 1_555
H24 C26 1_555 1_555
H25 C26 1_555 1_555
H26 C26 1_555 1_555
C27 C25 1_555 1_555
H27 C27 1_555 1_555
H28 C27 1_555 1_555
H29 C27 1_555 1_555
C28 C25 1_555 1_555
H30 C28 1_555 1_555
H31 C28 1_555 1_555
H32 C28 1_555 1_555
C4 C5 1_555 1_555
C6 C7 1_555 1_555
C13 C14 1_555 1_555
C19 C20 1_555 1_555
C22 C23 1_555 1_555

#END
