
#######################################################################
#
#                 Cambridge Crystallographic Data Centre
#                                CCDC 
#
#######################################################################
#
# If this CIF has been generated from an entry in the Cambridge 
# Structural Database, then it will include bibliographic, chemical, 
# crystal, experimental, refinement or atomic coordinate data resulting 
# from the CCDC's data processing and validation procedures.
#
#######################################################################

data_VAXLAJ
_chemical_formula_moiety         'C11 H13 N3 O6'
_chemical_name_systematic        't-Butyl (2,4-dinitrophenyl)carbamate'
_symmetry_cell_setting           monoclinic
_symmetry_space_group_name_H-M   'P 21/c'
_symmetry_Int_Tables_number      14
_space_group_name_Hall           '-P 2ybc'
loop_
_symmetry_equiv_pos_site_id
_symmetry_equiv_pos_as_xyz
1 x,y,z
2 -x,1/2+y,1/2-z
3 -x,-y,-z
4 x,1/2-y,1/2+z
_cell_length_a                   13.4412(5)
_cell_length_b                   6.0008(2)
_cell_length_c                   16.9685(6)
_cell_angle_alpha                90
_cell_angle_beta                 107.9330(10)
_cell_angle_gamma                90
_cell_volume                     1302.15
_exptl_crystal_colour            colorless
_exptl_crystal_description       needle
_chemical_melting_point          '393 K'
_cell_formula_units_Z            4
loop_
_atom_site_label
_atom_site_type_symbol
_atom_site_fract_x
_atom_site_fract_y
_atom_site_fract_z
O1 O 0.86810(7) 0.43896(17) 1.04488(6)
O2 O 0.27513(10) -0.0835(2) 0.84388(10)
O3 O 0.70352(8) 0.5569(2) 1.02960(8)
O4 O 0.80554(8) -0.0509(2) 0.87690(7)
O5 O 0.70273(10) -0.3141(2) 0.81799(10)
O6 O 0.34429(11) -0.3211(3) 0.78261(10)
N1 N 0.73957(9) 0.2610(2) 0.95748(7)
H1 H 0.7903 0.2053 0.9430
N2 N 0.34902(11) -0.1563(3) 0.82517(9)
N3 N 0.71922(10) -0.1389(2) 0.85539(7)
C1 C 0.90608(16) 0.8327(3) 1.07963(11)
H2 H 0.9272 0.8443 1.0306
H3 H 0.9469 0.9332 1.1211
H4 H 0.8334 0.8704 1.0665
C2 C 0.92295(11) 0.5971(2) 1.11212(8)
C3 C 0.76512(11) 0.4341(2) 1.01375(8)
C4 C 0.64279(10) 0.1667(2) 0.92165(8)
C5 C 0.63115(10) -0.0306(2) 0.87398(8)
C6 C 0.53571(11) -0.1337(2) 0.84225(8)
H5 H 0.5299 -0.2640 0.8115
C7 C 0.44936(11) -0.0423(2) 0.85644(8)
C8 C 1.03589(12) 0.5271(3) 1.12980(10)
H6 H 1.0433 0.3732 1.1461
H7 H 1.0795 0.6171 1.1737
H8 H 1.0565 0.5464 1.0808
C9 C 0.88577(13) 0.5600(3) 1.18634(9)
H9 H 0.8157 0.6154 1.1747
H10 H 0.9310 0.6374 1.2333
H11 H 0.8869 0.4034 1.1983
C10 C 0.55099(11) 0.2558(3) 0.93165(9)
H12 H 0.5548 0.3888 0.9606
C11 C 0.45611(12) 0.1538(3) 0.90031(9)
H13 H 0.3966 0.2158 0.9085
loop_
_geom_bond_atom_site_label_1
_geom_bond_atom_site_label_2
_geom_bond_site_symmetry_1
_geom_bond_site_symmetry_2
O1 C2 1_555 1_555
O2 N2 1_555 1_555
O3 C3 1_555 1_555
O4 N3 1_555 1_555
O5 N3 1_555 1_555
O6 N2 1_555 1_555
N1 H1 1_555 1_555
N2 C7 1_555 1_555
N3 C5 1_555 1_555
C1 H2 1_555 1_555
H3 C1 1_555 1_555
H4 C1 1_555 1_555
C2 C1 1_555 1_555
C3 O1 1_555 1_555
C4 N1 1_555 1_555
C5 C4 1_555 1_555
C6 C5 1_555 1_555
H5 C6 1_555 1_555
C7 C6 1_555 1_555
C8 C2 1_555 1_555
H6 C8 1_555 1_555
H7 C8 1_555 1_555
H8 C8 1_555 1_555
C9 C2 1_555 1_555
H9 C9 1_555 1_555
H10 C9 1_555 1_555
H11 C9 1_555 1_555
C10 C4 1_555 1_555
H12 C10 1_555 1_555
C11 C7 1_555 1_555
H13 C11 1_555 1_555
N1 C3 1_555 1_555
C10 C11 1_555 1_555

#END
