
#######################################################################
#
#                 Cambridge Crystallographic Data Centre
#                                CCDC 
#
#######################################################################
#
# If this CIF has been generated from an entry in the Cambridge 
# Structural Database, then it will include bibliographic, chemical, 
# crystal, experimental, refinement or atomic coordinate data resulting 
# from the CCDC's data processing and validation procedures.
#
#######################################################################

data_VAXLOX
_chemical_formula_moiety         'C18 H16 Cl2 N2 O2'
_chemical_name_systematic        
9,10-Dichloro-3,4-dimethoxy-6-methyl-5,6-dihydrobenzimidazo[2,1-a]isoquinoline
_symmetry_cell_setting           monoclinic
_symmetry_space_group_name_H-M   'P 21/c'
_symmetry_Int_Tables_number      14
_space_group_name_Hall           '-P 2ybc'
loop_
_symmetry_equiv_pos_site_id
_symmetry_equiv_pos_as_xyz
1 x,y,z
2 -x,1/2+y,1/2-z
3 -x,-y,-z
4 x,1/2-y,1/2+z
_cell_length_a                   6.7316(2)
_cell_length_b                   8.8114(2)
_cell_length_c                   28.6531(7)
_cell_angle_alpha                90
_cell_angle_beta                 92.4260(10)
_cell_angle_gamma                90
_cell_volume                     1698.03
_exptl_crystal_colour            colorless
_cell_formula_units_Z            4
loop_
_atom_site_label
_atom_site_type_symbol
_atom_site_fract_x
_atom_site_fract_y
_atom_site_fract_z
Cl1 Cl -0.13220(13) 0.00468(10) 0.06630(3)
Cl2 Cl 0.22403(14) 0.21155(9) 0.03883(2)
O1 O 0.5046(3) 0.1891(2) 0.44226(6)
O2 O 0.2719(3) -0.0341(2) 0.40637(6)
N1 N 0.1557(3) 0.07811(19) 0.23625(6)
N2 N 0.3991(3) 0.2387(2) 0.21651(7)
C1 C 0.6392(5) 0.2960(4) 0.46218(12)
H1 H 0.7647 0.2872 0.4477
H2 H 0.6572 0.2770 0.4951
H3 H 0.5872 0.3965 0.4573
C2 C 0.4613(4) 0.1955(3) 0.39549(9)
C3 C 0.3360(4) 0.0787(3) 0.37754(8)
C4 C 0.2861(3) 0.0710(2) 0.33058(8)
C5 C 0.1621(3) -0.0566(2) 0.30976(8)
H4 H 0.0798 -0.0984 0.3336
H5 H 0.2495 -0.1366 0.2997
C6 C 0.0296(3) -0.0056(2) 0.26849(8)
H6 H -0.0228 -0.0960 0.2523
C7 C 0.1378(3) 0.0939(2) 0.18840(8)
C8 C 0.0034(4) 0.0346(3) 0.15511(8)
H7 H -0.0999 -0.0288 0.1633
C9 C 0.0310(4) 0.0745(3) 0.10926(9)
C10 C 0.1876(4) 0.1694(3) 0.09705(9)
C11 C 0.3189(4) 0.2292(3) 0.13028(8)
H8 H 0.4222 0.2923 0.1218
C12 C 0.2926(3) 0.1927(2) 0.17683(8)
C13 C 0.3115(3) 0.1695(2) 0.25105(8)
C14 C 0.3610(3) 0.1817(2) 0.30067(8)
C15 C 0.4803(4) 0.2986(3) 0.31877(9)
H9 H 0.5273 0.3727 0.2989
C16 C 0.5290(4) 0.3053(3) 0.36555(9)
H10 H 0.6081 0.3842 0.3773
C17 C 0.1316(7) 0.0108(4) 0.43867(15)
H11 H 0.1952 0.0733 0.4623
H12 H 0.0767 -0.0775 0.4529
H13 H 0.0270 0.0672 0.4228
C18 C -0.1442(3) 0.0912(3) 0.28219(9)
H14 H -0.0963 0.1751 0.3008
H15 H -0.2333 0.0311 0.2998
H16 H -0.2133 0.1288 0.2546
loop_
_geom_bond_atom_site_label_1
_geom_bond_atom_site_label_2
_geom_bond_site_symmetry_1
_geom_bond_site_symmetry_2
Cl1 C9 1_555 1_555
Cl2 C10 1_555 1_555
O1 C1 1_555 1_555
O2 C3 1_555 1_555
N1 C6 1_555 1_555
N2 C12 1_555 1_555
C1 H1 1_555 1_555
H2 C1 1_555 1_555
H3 C1 1_555 1_555
C2 O1 1_555 1_555
C3 C2 1_555 1_555
C4 C3 1_555 1_555
C5 C4 1_555 1_555
H4 C5 1_555 1_555
H5 C5 1_555 1_555
C6 C5 1_555 1_555
H6 C6 1_555 1_555
C7 N1 1_555 1_555
C8 C7 1_555 1_555
H7 C8 1_555 1_555
C9 C8 1_555 1_555
C10 C9 1_555 1_555
C11 C10 1_555 1_555
H8 C11 1_555 1_555
C12 C7 1_555 1_555
C13 N1 1_555 1_555
C14 C4 1_555 1_555
C15 C14 1_555 1_555
H9 C15 1_555 1_555
C16 C2 1_555 1_555
H10 C16 1_555 1_555
C17 O2 1_555 1_555
H11 C17 1_555 1_555
H12 C17 1_555 1_555
H13 C17 1_555 1_555
C18 C6 1_555 1_555
H14 C18 1_555 1_555
H15 C18 1_555 1_555
H16 C18 1_555 1_555
N2 C13 1_555 1_555
C11 C12 1_555 1_555
C13 C14 1_555 1_555
C15 C16 1_555 1_555

#END
