
#######################################################################
#
#                 Cambridge Crystallographic Data Centre
#                                CCDC 
#
#######################################################################
#
# If this CIF has been generated from an entry in the Cambridge 
# Structural Database, then it will include bibliographic, chemical, 
# crystal, experimental, refinement or atomic coordinate data resulting 
# from the CCDC's data processing and validation procedures.
#
#######################################################################

data_VAXMEO
_chemical_formula_moiety         'C20 H22 N2 O2'
_chemical_name_systematic        
3,4-Dimethoxy-6,9,10-trimethyl-5,6-dihydrobenzimidazo[2,1-a]isoquinoline
_symmetry_cell_setting           monoclinic
_symmetry_space_group_name_H-M   'P 21/c'
_symmetry_Int_Tables_number      14
_space_group_name_Hall           '-P 2ybc'
loop_
_symmetry_equiv_pos_site_id
_symmetry_equiv_pos_as_xyz
1 x,y,z
2 -x,1/2+y,1/2-z
3 -x,-y,-z
4 x,1/2-y,1/2+z
_cell_length_a                   6.8421(2)
_cell_length_b                   8.7801(3)
_cell_length_c                   28.6827(9)
_cell_angle_alpha                90
_cell_angle_beta                 93.109(2)
_cell_angle_gamma                90
_cell_volume                     1720.56
_exptl_crystal_colour            colorless
_cell_formula_units_Z            4
loop_
_atom_site_label
_atom_site_type_symbol
_atom_site_fract_x
_atom_site_fract_y
_atom_site_fract_z
C1 C 0.2302(4) 0.4290(3) 0.04737(7)
H1 H 0.1158 0.3657 0.0445
H2 H 0.3398 0.3749 0.0360
H3 H 0.2081 0.5203 0.0294
C2 C 0.2726(3) 0.4701(2) 0.09821(7)
C3 C 0.1496(3) 0.4164(2) 0.13106(7)
H4 H 0.0437 0.3549 0.1220
C4 C 0.1848(2) 0.4545(2) 0.17772(6)
C5 C 0.0294(2) 0.3498(2) 0.31706(6)
H5 H -0.0233 0.2774 0.2963
C6 C 0.1812(2) 0.47982(19) 0.25161(6)
C7 C 0.1448(2) 0.46644(19) 0.30073(6)
C8 C 0.2314(2) 0.57303(19) 0.33184(6)
C9 C 0.1963(3) 0.5603(2) 0.37858(6)
C10 C 0.0737(3) 0.4459(2) 0.39457(6)
C11 C -0.0720(4) 0.3330(3) 0.45961(8)
H6 H -0.2010 0.3383 0.4448
H7 H -0.0796 0.3474 0.4926
H8 H -0.0158 0.2351 0.4538
C12 C 0.4407(4) 0.6057(4) 0.43649(10)
H9 H 0.4069 0.5103 0.4503
H10 H 0.4808 0.6766 0.4606
H11 H 0.5461 0.5903 0.4162
C13 C 0.3418(2) 0.55072(19) 0.19066(6)
C14 C 0.4668(2) 0.65136(19) 0.27149(6)
H12 H 0.5129 0.7430 0.2560
C15 C 0.3502(2) 0.70101(19) 0.31259(6)
H13 H 0.4397 0.7398 0.3372
H14 H 0.2629 0.7833 0.3027
C16 C 0.6434(2) 0.5541(2) 0.28554(7)
H15 H 0.6019 0.4658 0.3021
H16 H 0.7332 0.6121 0.3053
H17 H 0.7069 0.5227 0.2581
C17 C 0.4686(3) 0.6041(2) 0.15826(6)
H18 H 0.5734 0.6667 0.1674
C18 C 0.4355(3) 0.5620(2) 0.11208(7)
C19 C 0.5783(3) 0.6126(3) 0.07674(8)
H19 H 0.6746 0.6787 0.0916
H20 H 0.5090 0.6662 0.0518
H21 H 0.6419 0.5250 0.0644
C20 C -0.0073(3) 0.3405(2) 0.36369(6)
H22 H -0.0867 0.2633 0.3743
N1 N 0.33355(18) 0.56886(16) 0.23825(5)
N2 N 0.08610(19) 0.41079(17) 0.21645(5)
O1 O 0.0459(2) 0.44778(17) 0.44146(5)
O2 O 0.2756(2) 0.66458(16) 0.41033(5)
loop_
_geom_bond_atom_site_label_1
_geom_bond_atom_site_label_2
_geom_bond_site_symmetry_1
_geom_bond_site_symmetry_2
C1 H1 1_555 1_555
H2 C1 1_555 1_555
H3 C1 1_555 1_555
C2 C1 1_555 1_555
C3 C2 1_555 1_555
H4 C3 1_555 1_555
C4 C3 1_555 1_555
C5 H5 1_555 1_555
C6 C7 1_555 1_555
C7 C5 1_555 1_555
C8 C7 1_555 1_555
C9 C8 1_555 1_555
C10 C9 1_555 1_555
C11 H6 1_555 1_555
H7 C11 1_555 1_555
H8 C11 1_555 1_555
C12 H9 1_555 1_555
H10 C12 1_555 1_555
H11 C12 1_555 1_555
C13 C4 1_555 1_555
C14 H12 1_555 1_555
C15 C8 1_555 1_555
H13 C15 1_555 1_555
H14 C15 1_555 1_555
C16 C14 1_555 1_555
H15 C16 1_555 1_555
H16 C16 1_555 1_555
H17 C16 1_555 1_555
C17 C13 1_555 1_555
H18 C17 1_555 1_555
C18 C2 1_555 1_555
C19 C18 1_555 1_555
H19 C19 1_555 1_555
H20 C19 1_555 1_555
H21 C19 1_555 1_555
C20 C5 1_555 1_555
H22 C20 1_555 1_555
N1 C6 1_555 1_555
N2 C4 1_555 1_555
O1 C10 1_555 1_555
O2 C9 1_555 1_555
C6 N2 1_555 1_555
C10 C20 1_555 1_555
C11 O1 1_555 1_555
C12 O2 1_555 1_555
C13 N1 1_555 1_555
C14 C15 1_555 1_555
C14 N1 1_555 1_555
C17 C18 1_555 1_555

#END
