
#######################################################################
#
#                 Cambridge Crystallographic Data Centre
#                                CCDC 
#
#######################################################################
#
# If this CIF has been generated from an entry in the Cambridge 
# Structural Database, then it will include bibliographic, chemical, 
# crystal, experimental, refinement or atomic coordinate data resulting 
# from the CCDC's data processing and validation procedures.
#
#######################################################################

data_VAXPUH
_chemical_formula_moiety         'C11 H11 Br1 N2 O1 S1'
_chemical_name_systematic        5-Bromo-2-(morpholin-4-yl)-1,3-benzothiazole
_symmetry_cell_setting           monoclinic
_symmetry_space_group_name_H-M   'P 21/c'
_symmetry_Int_Tables_number      14
_space_group_name_Hall           '-P 2ybc'
loop_
_symmetry_equiv_pos_site_id
_symmetry_equiv_pos_as_xyz
1 x,y,z
2 -x,1/2+y,1/2-z
3 -x,-y,-z
4 x,1/2-y,1/2+z
_cell_length_a                   13.1884(18)
_cell_length_b                   6.0953(8)
_cell_length_c                   15.447(2)
_cell_angle_alpha                90
_cell_angle_beta                 112.049(7)
_cell_angle_gamma                90
_cell_volume                     1150.92
_cell_formula_units_Z            4
loop_
_atom_site_label
_atom_site_type_symbol
_atom_site_fract_x
_atom_site_fract_y
_atom_site_fract_z
Br1 Br 0.38737(4) 0.17047(9) 0.01329(4)
S1 S 0.30807(11) 0.82911(19) 0.30009(10)
C1 C 0.3434(4) 0.6702(7) 0.2222(3)
C2 C 0.3686(4) 0.3717(8) 0.1004(3)
C3 C 0.2809(3) 0.4739(7) 0.2027(3)
C4 C 0.4165(4) 0.7136(9) 0.1810(3)
H1 H 0.4569 0.8428 0.1945
C5 C 0.2945(4) 0.3228(7) 0.1412(3)
H2 H 0.2549 0.1925 0.1278
C6 C 0.4297(4) 0.5637(9) 0.1192(3)
H3 H 0.4789 0.5911 0.0903
C7 C 0.2135(3) 0.6251(7) 0.2991(3)
N1 N 0.2087(3) 0.4531(7) 0.2497(3)
N2 N 0.1467(3) 0.6582(6) 0.3479(3)
C8 C 0.0856(4) 0.4765(8) 0.3637(3)
H4 H 0.1305 0.3978 0.4195
H5 H 0.0659 0.3758 0.3113
C9 C 0.1688(4) 0.8341(8) 0.4154(4)
H6 H 0.2009 0.9578 0.3953
H7 H 0.2203 0.7849 0.4755
C10 C 0.0621(4) 0.9034(9) 0.4239(4)
H8 H 0.0771 1.0135 0.4724
H9 H 0.0143 0.9683 0.3655
C11 C -0.0158(4) 0.5583(8) 0.3749(3)
H10 H -0.0649 0.6192 0.3161
H11 H -0.0528 0.4364 0.3909
O1 O 0.0088(3) 0.7217(6) 0.4457(2)
loop_
_geom_bond_atom_site_label_1
_geom_bond_atom_site_label_2
_geom_bond_site_symmetry_1
_geom_bond_site_symmetry_2
Br1 C2 1_555 1_555
S1 C1 1_555 1_555
C1 C3 1_555 1_555
C2 C5 1_555 1_555
C3 C5 1_555 1_555
C4 C1 1_555 1_555
H1 C4 1_555 1_555
C5 H2 1_555 1_555
C6 C2 1_555 1_555
H3 C6 1_555 1_555
C7 S1 1_555 1_555
N1 C3 1_555 1_555
N2 C7 1_555 1_555
C8 N2 1_555 1_555
H4 C8 1_555 1_555
H5 C8 1_555 1_555
C9 N2 1_555 1_555
H6 C9 1_555 1_555
H7 C9 1_555 1_555
C10 C9 1_555 1_555
H8 C10 1_555 1_555
H9 C10 1_555 1_555
C11 C8 1_555 1_555
H10 C11 1_555 1_555
H11 C11 1_555 1_555
O1 C10 1_555 1_555
C4 C6 1_555 1_555
C7 N1 1_555 1_555
C11 O1 1_555 1_555

#END
