
#######################################################################
#
#                 Cambridge Crystallographic Data Centre
#                                CCDC 
#
#######################################################################
#
# If this CIF has been generated from an entry in the Cambridge 
# Structural Database, then it will include bibliographic, chemical, 
# crystal, experimental, refinement or atomic coordinate data resulting 
# from the CCDC's data processing and validation procedures.
#
#######################################################################

data_VAXPAL01
_chemical_compound_source        'Seed oil of Euonymus fortunei'
_chemical_name_common            
'5-Acetyl-8alpha-benzyl 1alpha,2alpha,6beta,9alpha,15-dihydroagarofuran-6 diester'
_chemical_formula_moiety         'C32 H40 O13'
_chemical_name_systematic        
3,5,6,12-tetrakis(Acetoxy)-4-acetoxymethyl-2-benzoyloxy-8,11,11-trimethyl-10-oxatricyclo(7.2.1.0^4,9^)dodecane
_chemical_properties_biological  'insect antifeedant activity'
_symmetry_cell_setting           monoclinic
_symmetry_space_group_name_H-M   'P 21'
_symmetry_Int_Tables_number      4
_space_group_name_Hall           'P 2yb'
loop_
_symmetry_equiv_pos_site_id
_symmetry_equiv_pos_as_xyz
1 x,y,z
2 -x,1/2+y,-z
_cell_length_a                   12.071(2)
_cell_length_b                   9.939(1)
_cell_length_c                   14.450(2)
_cell_angle_alpha                90
_cell_angle_beta                 104.82(2)
_cell_angle_gamma                90
_cell_volume                     1675.95
_chemical_melting_point          215deg.C
_cell_formula_units_Z            2
loop_
_atom_site_label
_atom_site_type_symbol
_atom_site_fract_x
_atom_site_fract_y
_atom_site_fract_z
C1 C 0.21891 0.21416 0.40867
C2 C 0.14079 0.19676 0.47451
C3 C 0.01650 0.19072 0.41952
C4 C -0.02177 0.30296 0.34501
C5 C 0.05917 0.30971 0.28011
C6 C 0.03014 0.41053 0.19585
C7 C 0.07890 0.33268 0.12282
C8 C 0.20788 0.34920 0.15537
C9 C 0.26085 0.30393 0.25926
C10 C 0.18951 0.32844 0.33363
C11 C 0.30528 0.51335 0.08930
C12 C 0.04046 0.18547 0.13309
C13 C 0.11624 0.07546 0.10684
C14 C -0.08182 0.15942 0.07953
C15 C 0.22143 0.46132 0.39073
C16 C 0.40470 0.13606 0.48440
C17 C 0.51796 0.17624 0.54969
C18 C 0.22668 0.28149 0.63295
C19 C 0.23257 0.40701 0.69460
C20 C -0.13017 0.55686 0.14699
C21 C -0.25773 0.55994 0.11639
C22 C 0.17817 0.69471 0.38616
C23 C 0.13341 0.81217 0.32433
C24 C 0.46350 0.29728 0.27880
C25 C 0.57318 0.36506 0.31307
C26 C -0.04726 0.43693 0.38824
C27 C 0.35595 0.65244 0.10311
C28 C 0.41638 0.69514 0.04079
C29 C 0.47093 0.82350 0.05801
C30 C 0.45519 0.90179 0.12607
C31 C 0.39329 0.85928 0.18961
C32 C 0.34700 0.73225 0.17619
O1 O 0.33435 0.23666 0.46532
O2 O 0.37788 0.02472 0.45808
O3 O 0.15484 0.30365 0.54541
O4 O 0.27283 0.17933 0.65830
O5 O 0.45113 0.19010 0.23915
O6 O 0.05427 0.17752 0.23656
O7 O -0.09153 0.42948 0.16270
O8 O -0.06650 0.65070 0.15415
O9 O 0.23842 0.48748 0.14652
O10 O 0.32595 0.43275 0.03451
O11 O 0.18581 0.58307 0.33361
O12 O 0.20584 0.69430 0.47247
O13 O 0.37318 0.36321 0.29236
loop_
_geom_bond_atom_site_label_1
_geom_bond_atom_site_label_2
_geom_bond_site_symmetry_1
_geom_bond_site_symmetry_2
C1 C2 1_555 1_555
C2 C3 1_555 1_555
C3 C4 1_555 1_555
C4 C5 1_555 1_555
C5 C6 1_555 1_555
C6 C7 1_555 1_555
C7 C8 1_555 1_555
C8 C9 1_555 1_555
C9 C10 1_555 1_555
C10 C1 1_555 1_555
C11 C27 1_555 1_555
C12 C7 1_555 1_555
C13 C12 1_555 1_555
C14 C12 1_555 1_555
C15 C10 1_555 1_555
C16 C17 1_555 1_555
C18 C19 1_555 1_555
C20 C21 1_555 1_555
C22 C23 1_555 1_555
C24 C25 1_555 1_555
C26 C4 1_555 1_555
C27 C28 1_555 1_555
C28 C29 1_555 1_555
C29 C30 1_555 1_555
C30 C31 1_555 1_555
C31 C32 1_555 1_555
C32 C27 1_555 1_555
O1 C1 1_555 1_555
O2 C16 1_555 1_555
O3 C2 1_555 1_555
O4 C18 1_555 1_555
O5 C24 1_555 1_555
O6 C5 1_555 1_555
O7 C6 1_555 1_555
O8 C20 1_555 1_555
O9 C8 1_555 1_555
O10 C11 1_555 1_555
O11 C15 1_555 1_555
O12 C22 1_555 1_555
O13 C9 1_555 1_555
C5 C10 1_555 1_555
C11 O9 1_555 1_555
C12 O6 1_555 1_555
C16 O1 1_555 1_555
C18 O3 1_555 1_555
C20 O7 1_555 1_555
C22 O11 1_555 1_555
C24 O13 1_555 1_555

#END
