
#######################################################################
#
#                 Cambridge Crystallographic Data Centre
#                                CCDC 
#
#######################################################################
#
# If this CIF has been generated from an entry in the Cambridge 
# Structural Database, then it will include bibliographic, chemical, 
# crystal, experimental, refinement or atomic coordinate data resulting 
# from the CCDC's data processing and validation procedures.
#
#######################################################################

data_VAXQOC
_chemical_formula_moiety         'C27 H26 O9,H2 O1'
_chemical_name_systematic        
'(5-(Benzoyloxy)-3,4-dihydroxy-6-(4-methoxyphenoxy)tetrahydro-2H-pyran-2-yl)methyl benzoate monohydrate'
_symmetry_cell_setting           orthorhombic
_symmetry_space_group_name_H-M   'P 21 21 21'
_symmetry_Int_Tables_number      19
_space_group_name_Hall           'P 2ac 2ab'
loop_
_symmetry_equiv_pos_site_id
_symmetry_equiv_pos_as_xyz
1 x,y,z
2 1/2+x,1/2-y,-z
3 -x,1/2+y,1/2-z
4 1/2-x,-y,1/2+z
_cell_length_a                   7.313(3)
_cell_length_b                   11.730(5)
_cell_length_c                   29.051(10)
_cell_angle_alpha                90
_cell_angle_beta                 90
_cell_angle_gamma                90
_cell_volume                     2492.04
_exptl_crystal_colour            colorless
_exptl_crystal_description       needle
_chemical_melting_point          '448 K'
_cell_formula_units_Z            4
loop_
_atom_site_label
_atom_site_type_symbol
_atom_site_fract_x
_atom_site_fract_y
_atom_site_fract_z
O1 O 0.1009(2) 0.25552(13) 0.86706(5)
O2 O 0.1084(2) 0.17414(12) 0.95636(5)
H1 H 0.1338 0.1557 0.9828
O3 O -0.0214(2) 0.38504(14) 0.99463(5)
H2 H 0.0572 0.3994 1.0139
O4 O -0.1869(2) 0.47833(12) 0.91421(5)
O5 O -0.4245(2) 0.40751(13) 0.95399(5)
O6 O -0.1681(2) 0.32173(13) 0.83872(5)
O7 O -0.0121(2) 0.32743(16) 0.65233(5)
O8 O 0.4305(2) 0.17720(13) 0.83938(5)
O9 O 0.6382(2) 0.04148(13) 0.85422(5)
C1 C 0.2555(3) 0.27591(18) 0.89568(7)
H3 H 0.3105 0.3492 0.8873
C2 C 0.1937(3) 0.28071(18) 0.94579(7)
H4 H 0.2994 0.2928 0.9660
C3 C 0.0596(3) 0.37966(17) 0.95063(7)
H5 H 0.1256 0.4511 0.9450
C4 C -0.0943(3) 0.36961(17) 0.91550(7)
H6 H -0.1794 0.3089 0.9243
C5 C -0.0213(3) 0.34949(17) 0.86723(7)
H7 H 0.0405 0.4181 0.8558
C6 C -0.3447(3) 0.48748(17) 0.93684(7)
C7 C -0.4111(3) 0.60703(18) 0.93877(7)
C8 C -0.5585(3) 0.63193(19) 0.96775(7)
H8 H -0.6156 0.5742 0.9843
C9 C -0.6187(4) 0.7438(2) 0.97154(8)
H9 H -0.7162 0.7609 0.9909
C10 C -0.5352(4) 0.8299(2) 0.94691(8)
H10 H -0.5760 0.9047 0.9499
C11 C -0.3913(4) 0.8052(2) 0.91783(8)
H11 H -0.3369 0.8632 0.9008
C12 C -0.3275(3) 0.69440(18) 0.91391(8)
H12 H -0.2291 0.6783 0.8947
C13 C -0.1260(3) 0.32535(19) 0.79158(7)
C14 C -0.1856(3) 0.41689(18) 0.76587(7)
H13 H -0.2493 0.4759 0.7800
C15 C -0.1507(3) 0.42122(18) 0.71881(7)
H14 H -0.1906 0.4829 0.7014
C16 C -0.0556(3) 0.3323(2) 0.69815(7)
C17 C 0.0030(3) 0.23968(19) 0.72445(8)
H15 H 0.0662 0.1802 0.7105
C18 C -0.0324(3) 0.23600(19) 0.77101(8)
H16 H 0.0061 0.1741 0.7885
C19 C -0.0744(4) 0.4180(3) 0.62403(8)
H17 H -0.0226 0.4885 0.6346
H18 H -0.2053 0.4224 0.6255
H19 H -0.0374 0.4045 0.5928
C20 C 0.3924(3) 0.18325(19) 0.88819(7)
H20 H 0.5037 0.1997 0.9051
H21 H 0.3440 0.1110 0.8990
C21 C 0.5539(3) 0.09978(17) 0.82704(7)
C22 C 0.5719(3) 0.08953(18) 0.77622(7)
C23 C 0.6558(3) -0.00797(19) 0.75852(7)
H22 H 0.6997 -0.0641 0.7783
C24 C 0.6731(3) -0.0205(2) 0.71151(8)
H23 H 0.7264 -0.0860 0.6995
C25 C 0.6115(3) 0.0642(2) 0.68224(7)
H24 H 0.6252 0.0557 0.6506
C26 C 0.5294(3) 0.1615(2) 0.69970(8)
H25 H 0.4891 0.2183 0.6798
C27 C 0.5076(3) 0.1742(2) 0.74690(8)
H26 H 0.4505 0.2387 0.7588
O10 O 0.7644(3) 0.07921(15) 0.94617(6)
H27 H 0.726(5) 0.059(3) 0.9176(13)
H28 H 0.880(5) 0.106(3) 0.9468(10)
loop_
_geom_bond_atom_site_label_1
_geom_bond_atom_site_label_2
_geom_bond_site_symmetry_1
_geom_bond_site_symmetry_2
O1 C1 1_555 1_555
O2 H1 1_555 1_555
O3 H2 1_555 1_555
O4 C4 1_555 1_555
O5 C6 1_555 1_555
O6 C5 1_555 1_555
O7 C16 1_555 1_555
O8 C20 1_555 1_555
O9 C21 1_555 1_555
O10 H27 1_555 1_555
C1 H3 1_555 1_555
C2 O2 1_555 1_555
H4 C2 1_555 1_555
C3 O3 1_555 1_555
H5 C3 1_555 1_555
C4 C3 1_555 1_555
H6 C4 1_555 1_555
C5 O1 1_555 1_555
H7 C5 1_555 1_555
C6 O4 1_555 1_555
C7 C6 1_555 1_555
C8 C7 1_555 1_555
H8 C8 1_555 1_555
C9 C8 1_555 1_555
H9 C9 1_555 1_555
C10 C9 1_555 1_555
H10 C10 1_555 1_555
C11 C10 1_555 1_555
H11 C11 1_555 1_555
C12 C7 1_555 1_555
H12 C12 1_555 1_555
C13 O6 1_555 1_555
C14 C13 1_555 1_555
H13 C14 1_555 1_555
C15 C14 1_555 1_555
H14 C15 1_555 1_555
C16 C15 1_555 1_555
C17 C16 1_555 1_555
H15 C17 1_555 1_555
C18 C13 1_555 1_555
H16 C18 1_555 1_555
C19 O7 1_555 1_555
H17 C19 1_555 1_555
H18 C19 1_555 1_555
H19 C19 1_555 1_555
C20 C1 1_555 1_555
H20 C20 1_555 1_555
H21 C20 1_555 1_555
C21 O8 1_555 1_555
C22 C21 1_555 1_555
C23 C22 1_555 1_555
H22 C23 1_555 1_555
C24 C23 1_555 1_555
H23 C24 1_555 1_555
C25 C24 1_555 1_555
H24 C25 1_555 1_555
C26 C25 1_555 1_555
H25 C26 1_555 1_555
C27 C22 1_555 1_555
H26 C27 1_555 1_555
H28 O10 1_555 1_555
C1 C2 1_555 1_555
C2 C3 1_555 1_555
C4 C5 1_555 1_555
C11 C12 1_555 1_555
C17 C18 1_555 1_555
C26 C27 1_555 1_555

#END
