
#######################################################################
#
#                 Cambridge Crystallographic Data Centre
#                                CCDC 
#
#######################################################################
#
# If this CIF has been generated from an entry in the Cambridge 
# Structural Database, then it will include bibliographic, chemical, 
# crystal, experimental, refinement or atomic coordinate data resulting 
# from the CCDC's data processing and validation procedures.
#
#######################################################################

data_VAXSIZ
_chemical_formula_moiety         'F15 N1 S3'
_chemical_name_systematic        
1,1,1,1,1-pentafluoro-N,N-bis(pentafluoro-\l^6^-sulfanyl)-\l^6^-sulfanamine
_symmetry_cell_setting           rhombohedral
_symmetry_space_group_name_H-M   'R -3 c'
_symmetry_Int_Tables_number      167
_space_group_name_Hall           '-R 3 2"c'
loop_
_symmetry_equiv_pos_site_id
_symmetry_equiv_pos_as_xyz
1 x,y,z
2 -y,x-y,z
3 -x+y,-x,z
4 y,x,1/2-z
5 x-y,-y,1/2-z
6 -x,-x+y,1/2-z
7 2/3+x,1/3+y,1/3+z
8 2/3-y,1/3+x-y,1/3+z
9 2/3-x+y,1/3-x,1/3+z
10 2/3+y,1/3+x,5/6-z
11 2/3+x-y,1/3-y,5/6-z
12 2/3-x,1/3-x+y,5/6-z
13 1/3+x,2/3+y,2/3+z
14 1/3-y,2/3+x-y,2/3+z
15 1/3-x+y,2/3-x,2/3+z
16 1/3+y,2/3+x,1/6-z
17 1/3+x-y,2/3-y,1/6-z
18 1/3-x,2/3-x+y,1/6-z
19 -x,-y,-z
20 y,-x+y,-z
21 x-y,x,-z
22 -y,-x,1/2+z
23 -x+y,y,1/2+z
24 x,x-y,1/2+z
25 1/3-x,2/3-y,2/3-z
26 1/3+y,2/3-x+y,2/3-z
27 1/3+x-y,2/3+x,2/3-z
28 1/3-y,2/3-x,1/6+z
29 1/3-x+y,2/3+y,1/6+z
30 1/3+x,2/3+x-y,1/6+z
31 2/3-x,1/3-y,1/3-z
32 2/3+y,1/3-x+y,1/3-z
33 2/3+x-y,1/3+x,1/3-z
34 2/3-y,1/3-x,5/6+z
35 2/3-x+y,1/3+y,5/6+z
36 2/3+x,1/3+x-y,5/6+z
_cell_length_a                   12.412(3)
_cell_length_b                   12.412(3)
_cell_length_c                   10.330(3)
_cell_angle_alpha                90
_cell_angle_beta                 90
_cell_angle_gamma                120
_cell_volume                     1378.21
_exptl_crystal_colour            colorless
_exptl_crystal_description       block
_cell_formula_units_Z            6
loop_
_atom_site_label
_atom_site_type_symbol
_atom_site_fract_x
_atom_site_fract_y
_atom_site_fract_z
N1 N 0.0000 0.0000 0.2500
S1 S 0.1472(2) 0.1472(2) 0.2500
F1 F 0.2737(5) 0.2737(5) 0.2500
F2 F 0.1809(4) 0.1179(5) 0.1147(4)
F3 F 0.2169(4) 0.0878(5) 0.3176(5)
S1A S -0.1472(2) 0.0000(3) 0.2500
F1A F -0.2737(5) 0.0000(7) 0.2500
F2A F -0.1179(5) 0.0630(6) 0.1147(4)
F3A F -0.0878(5) 0.1291(6) 0.3176(5)
S1B S 0.0000(3) -0.1472(2) 0.2500
F1B F 0.0000(7) -0.2737(5) 0.2500
F2B F -0.0630(6) -0.1809(4) 0.1147(4)
F3B F -0.1291(6) -0.2169(4) 0.3176(5)
F2C F 0.1179(5) 0.1809(4) 0.3853(4)
F3C F 0.0878(5) 0.2169(4) 0.1824(5)
F2D F 0.0630(6) -0.1179(5) 0.3853(4)
F3D F 0.1291(6) -0.0878(5) 0.1824(5)
F2E F -0.1809(4) -0.0630(6) 0.3853(4)
F3E F -0.2169(4) -0.1291(6) 0.1824(5)
loop_
_geom_bond_atom_site_label_1
_geom_bond_atom_site_label_2
_geom_bond_site_symmetry_1
_geom_bond_site_symmetry_2
N1 S1 1_555 1_555
S1 F1 1_555 1_555
F2 S1 1_555 1_555
F3 S1 1_555 1_555
S1A N1 1_555 1_555
F1A S1A 1_555 1_555
F2A S1A 1_555 1_555
F3A S1A 1_555 1_555
S1B N1 1_555 1_555
F1B S1B 1_555 1_555
F2B S1B 1_555 1_555
F3B S1B 1_555 1_555
F2C S1 1_555 1_555
F3C S1 1_555 1_555
F2D S1B 1_555 1_555
F3D S1B 1_555 1_555
F2E S1A 1_555 1_555
F3E S1A 1_555 1_555

#END
