
#######################################################################
#
#                 Cambridge Crystallographic Data Centre
#                                CCDC 
#
#######################################################################
#
# If this CIF has been generated from an entry in the Cambridge 
# Structural Database, then it will include bibliographic, chemical, 
# crystal, experimental, refinement or atomic coordinate data resulting 
# from the CCDC's data processing and validation procedures.
#
#######################################################################

data_VAXTIZ
_chemical_formula_moiety         'C22 H22 N2 O2'
_chemical_name_systematic        
2,15-Dioxa-7,10-diazatetracyclo[14.5.3.2^7,10^.0^19,23^]hexacosa-1(22),16,18,20,23-pentaene-4,12-diyne
_symmetry_cell_setting           tetragonal
_symmetry_space_group_name_H-M   'I 41/a'
_symmetry_Int_Tables_number      88
_space_group_name_Hall           '-I 4ad'
loop_
_symmetry_equiv_pos_site_id
_symmetry_equiv_pos_as_xyz
1 x,y,z
2 1/2-x,-y,1/2+z
3 3/4-y,1/4+x,1/4+z
4 3/4+y,3/4-x,3/4+z
5 1/2+x,1/2+y,1/2+z
6 -x,1/2-y,z
7 1/4-y,3/4+x,3/4+z
8 1/4+y,1/4-x,1/4+z
9 -x,-y,-z
10 1/2+x,y,1/2-z
11 1/4+y,3/4-x,3/4-z
12 1/4-y,1/4+x,1/4-z
13 1/2-x,1/2-y,1/2-z
14 x,1/2+y,-z
15 3/4+y,1/4-x,1/4-z
16 3/4-y,3/4+x,3/4-z
_cell_length_a                   27.9106(10)
_cell_length_b                   27.9106(10)
_cell_length_c                   9.8447(7)
_cell_angle_alpha                90
_cell_angle_beta                 90
_cell_angle_gamma                90
_cell_volume                     7669.04
_exptl_crystal_colour            colorless
_exptl_crystal_description       block
_cell_formula_units_Z            16
_exptl_crystal_recrystallization_method dichloromethane
loop_
_atom_site_label
_atom_site_type_symbol
_atom_site_fract_x
_atom_site_fract_y
_atom_site_fract_z
C1 C 0.88830(11) 0.51969(10) -0.1964(3)
C2 C 0.84072(14) 0.53131(13) -0.2303(4)
H1 H 0.8292 0.5249 -0.3170
C3 C 0.81182(12) 0.55183(14) -0.1367(5)
H2 H 0.7804 0.5592 -0.1601
C4 C 0.82808(10) 0.56218(10) -0.0054(4)
C5 C 0.79912(12) 0.58407(13) 0.0939(5)
H3 H 0.7677 0.5921 0.0720
C6 C 0.81550(12) 0.59370(13) 0.2196(5)
H4 H 0.7957 0.6087 0.2826
C7 C 0.86247(11) 0.58109(10) 0.2554(3)
C8 C 0.89246(10) 0.56080(10) 0.1620(3)
H5 H 0.9239 0.5535 0.1859
C9 C 0.87596(9) 0.55086(9) 0.0291(3)
C10 C 0.90553(10) 0.52919(10) -0.0702(3)
H6 H 0.9370 0.5214 -0.0488
C11 C 0.91739(14) 0.57498(13) 0.4408(4)
H7 H 0.9222 0.5418 0.4147
H8 H 0.9163 0.5763 0.5392
C12 C 0.95785(14) 0.60303(13) 0.3940(3)
C13 C 0.99160(14) 0.62349(13) 0.3512(4)
C14 C 1.03432(14) 0.64226(16) 0.2832(4)
H9 H 1.0351 0.6769 0.2908
H10 H 1.0629 0.6295 0.3259
C15 C 1.00019(13) 0.65798(13) 0.0620(4)
H11 H 1.0121 0.6906 0.0586
H12 H 0.9690 0.6584 0.1056
C16 C 0.99551(12) 0.63875(13) -0.0788(4)
H13 H 0.9813 0.6070 -0.0754
H14 H 0.9743 0.6593 -0.1309
C17 C 1.07543(12) 0.60872(15) -0.0636(4)
H15 H 1.1067 0.6092 -0.1065
H16 H 1.0649 0.5757 -0.0584
C18 C 1.07926(12) 0.62898(15) 0.0768(4)
H17 H 1.1017 0.6101 0.1298
H18 H 1.0911 0.6616 0.0724
C19 C 1.03747(15) 0.61715(15) -0.2831(4)
H19 H 1.0692 0.6148 -0.3225
H20 H 1.0192 0.6396 -0.3375
C20 C 1.01406(13) 0.56929(16) -0.2907(4)
C21 C 0.99262(13) 0.53271(14) -0.2853(4)
C22 C 0.96352(14) 0.48927(13) -0.2837(4)
H21 H 0.9743 0.4682 -0.3559
H22 H 0.9684 0.4728 -0.1981
N1 N 1.03303(10) 0.62836(10) 0.1407(3)
N2 N 1.04172(10) 0.63607(11) -0.1458(3)
O1 O 0.91322(9) 0.49839(9) -0.3008(2)
O2 O 0.87317(9) 0.59078(9) 0.3888(2)
loop_
_geom_bond_atom_site_label_1
_geom_bond_atom_site_label_2
_geom_bond_site_symmetry_1
_geom_bond_site_symmetry_2
C1 C2 1_555 1_555
C2 H1 1_555 1_555
C3 C2 1_555 1_555
H2 C3 1_555 1_555
C4 C3 1_555 1_555
C5 C4 1_555 1_555
H3 C5 1_555 1_555
C6 C5 1_555 1_555
H4 C6 1_555 1_555
C7 C6 1_555 1_555
C8 C7 1_555 1_555
H5 C8 1_555 1_555
C9 C4 1_555 1_555
C10 C1 1_555 1_555
H6 C10 1_555 1_555
C11 H7 1_555 1_555
H8 C11 1_555 1_555
C12 C11 1_555 1_555
C13 C12 1_555 1_555
C14 C13 1_555 1_555
H9 C14 1_555 1_555
H10 C14 1_555 1_555
C15 H11 1_555 1_555
H12 C15 1_555 1_555
C16 C15 1_555 1_555
H13 C16 1_555 1_555
H14 C16 1_555 1_555
C17 H15 1_555 1_555
H16 C17 1_555 1_555
C18 C17 1_555 1_555
H17 C18 1_555 1_555
H18 C18 1_555 1_555
C19 H19 1_555 1_555
H20 C19 1_555 1_555
C20 C19 1_555 1_555
C21 C20 1_555 1_555
C22 C21 1_555 1_555
H21 C22 1_555 1_555
H22 C22 1_555 1_555
N1 C14 1_555 1_555
N2 C16 1_555 1_555
O1 C1 1_555 1_555
O2 C7 1_555 1_555
C8 C9 1_555 1_555
C9 C10 1_555 1_555
C11 O2 1_555 1_555
C15 N1 1_555 1_555
C17 N2 1_555 1_555
C18 N1 1_555 1_555
C19 N2 1_555 1_555
C22 O1 1_555 1_555

#END
