
#######################################################################
#
#                 Cambridge Crystallographic Data Centre
#                                CCDC 
#
#######################################################################
#
# If this CIF has been generated from an entry in the Cambridge 
# Structural Database, then it will include bibliographic, chemical, 
# crystal, experimental, refinement or atomic coordinate data resulting 
# from the CCDC's data processing and validation procedures.
#
#######################################################################

data_VAXYAV
_chemical_formula_moiety         'C21 H20 N2 O4 S2'
_chemical_name_systematic        
'N-(2-Acetyl-1-(p-nitrophenyl)-2-(1,3-dithiolan-2-ylidene)ethyl) 2-phenylacetamide'
_symmetry_cell_setting           monoclinic
_symmetry_space_group_name_H-M   'P 21/n'
_symmetry_Int_Tables_number      14
_space_group_name_Hall           '-P 2yn'
loop_
_symmetry_equiv_pos_site_id
_symmetry_equiv_pos_as_xyz
1 x,y,z
2 1/2-x,1/2+y,1/2-z
3 -x,-y,-z
4 1/2+x,1/2-y,1/2+z
_cell_length_a                   10.825(2)
_cell_length_b                   11.232(2)
_cell_length_c                   17.885(4)
_cell_angle_alpha                90
_cell_angle_beta                 99.75(3)
_cell_angle_gamma                90
_cell_volume                     2143.16
_exptl_crystal_colour            yellow
_exptl_crystal_description       block
_cell_formula_units_Z            4
loop_
_atom_site_label
_atom_site_type_symbol
_atom_site_fract_x
_atom_site_fract_y
_atom_site_fract_z
S1 S 0.58977(7) 0.46124(7) 0.20370(4)
S2 S 0.50706(7) 0.22563(7) 0.14696(4)
O1 O 0.59092(18) 0.06705(16) 0.25227(11)
O2 O 0.92960(18) 0.2429(2) 0.42248(14)
O3 O 0.4482(3) 0.8280(3) 0.43476(17)
O4 O 0.3054(3) 0.7011(3) 0.45158(16)
N1 N 0.8312(2) 0.37615(18) 0.34156(11)
H1 H 0.8380 0.4307 0.3087
N2 N 0.4065(4) 0.7271(4) 0.43473(17)
C1 C 0.6536(3) 0.0864(2) 0.38451(16)
H2 H 0.6410 0.0018 0.3830
H3 H 0.5981 0.1224 0.4145
H4 H 0.7388 0.1037 0.4067
C2 C 0.6268(2) 0.1356(3) 0.30544(17)
C3 C 0.6380(2) 0.2632(2) 0.29157(14)
C4 C 0.5863(2) 0.3085(2) 0.22319(15)
C5 C 0.5300(3) 0.4517(3) 0.10424(15)
H5 H 0.4894 0.5258 0.0863
H6 H 0.5978 0.4369 0.0763
C6 C 0.4389(3) 0.3528(3) 0.09282(15)
H7 H 0.4194 0.3325 0.0394
H8 H 0.3618 0.3762 0.1097
C7 C 0.7068(2) 0.3418(2) 0.35484(14)
H9 H 0.7208 0.2915 0.4003
C8 C 0.9340(3) 0.3256(3) 0.37874(19)
C9 C 1.0592(3) 0.3757(3) 0.36486(19)
H10 H 1.0453 0.4244 0.3194
H11 H 1.0941 0.4262 0.4072
C10 C 1.1514(3) 0.2791(3) 0.3558(2)
C11 C 1.2094(3) 0.2156(3) 0.41713(19)
H12 H 1.1931 0.2340 0.4652
C12 C 1.2916(4) 0.1249(4) 0.4087(3)
H13 H 1.3314 0.0836 0.4512
C13 C 1.3142(4) 0.0961(4) 0.3406(4)
H14 H 1.3668 0.0325 0.3350
C14 C 1.2606(5) 0.1597(6) 0.2787(3)
H15 H 1.2796 0.1418 0.2312
C15 C 1.1773(4) 0.2516(4) 0.2866(2)
H16 H 1.1395 0.2940 0.2442
C16 C 0.6297(3) 0.4464(2) 0.37431(13)
C17 C 0.6781(3) 0.5599(3) 0.38572(15)
H17 H 0.7609 0.5746 0.3807
C18 C 0.6039(3) 0.6522(3) 0.40456(16)
H18 H 0.6361 0.7289 0.4113
C19 C 0.4841(3) 0.6296(3) 0.41303(15)
C20 C 0.4335(3) 0.5181(3) 0.40367(15)
H19 H 0.3516 0.5040 0.4109
C21 C 0.5065(3) 0.4264(2) 0.38325(15)
H20 H 0.4726 0.3504 0.3754
loop_
_geom_bond_atom_site_label_1
_geom_bond_atom_site_label_2
_geom_bond_site_symmetry_1
_geom_bond_site_symmetry_2
S1 C4 1_555 1_555
S2 C4 1_555 1_555
O1 C2 1_555 1_555
O2 C8 1_555 1_555
O3 N2 1_555 1_555
O4 N2 1_555 1_555
N1 H1 1_555 1_555
N2 C19 1_555 1_555
C1 H2 1_555 1_555
H3 C1 1_555 1_555
H4 C1 1_555 1_555
C2 C1 1_555 1_555
C3 C2 1_555 1_555
C4 C3 1_555 1_555
C5 S1 1_555 1_555
H5 C5 1_555 1_555
H6 C5 1_555 1_555
C6 S2 1_555 1_555
H7 C6 1_555 1_555
H8 C6 1_555 1_555
C7 N1 1_555 1_555
H9 C7 1_555 1_555
C8 N1 1_555 1_555
C9 C8 1_555 1_555
H10 C9 1_555 1_555
H11 C9 1_555 1_555
C10 C9 1_555 1_555
C11 C10 1_555 1_555
H12 C11 1_555 1_555
C12 C11 1_555 1_555
H13 C12 1_555 1_555
C13 C12 1_555 1_555
H14 C13 1_555 1_555
C14 C13 1_555 1_555
H15 C14 1_555 1_555
C15 C10 1_555 1_555
H16 C15 1_555 1_555
C16 C7 1_555 1_555
C17 C16 1_555 1_555
H17 C17 1_555 1_555
C18 C17 1_555 1_555
H18 C18 1_555 1_555
C19 C18 1_555 1_555
C20 C19 1_555 1_555
H19 C20 1_555 1_555
C21 C16 1_555 1_555
H20 C21 1_555 1_555
C3 C7 1_555 1_555
C5 C6 1_555 1_555
C14 C15 1_555 1_555
C20 C21 1_555 1_555

#END
