
#######################################################################
#
#                 Cambridge Crystallographic Data Centre
#                                CCDC 
#
#######################################################################
#
# If this CIF has been generated from an entry in the Cambridge 
# Structural Database, then it will include bibliographic, chemical, 
# crystal, experimental, refinement or atomic coordinate data resulting 
# from the CCDC's data processing and validation procedures.
#
#######################################################################

data_VAYJAG04
_chemical_formula_moiety         'C13 H11 N1 O2'
_chemical_name_systematic        2-(((2-Hydroxyphenyl)iminio)methyl)phenolate
_symmetry_cell_setting           triclinic
_symmetry_space_group_name_H-M   'P -1'
_symmetry_Int_Tables_number      2
_space_group_name_Hall           '-P 1'
loop_
_symmetry_equiv_pos_site_id
_symmetry_equiv_pos_as_xyz
1 x,y,z
2 -x,-y,-z
_cell_length_a                   9.058(2)
_cell_length_b                   10.179(2)
_cell_length_c                   12.382(3)
_cell_angle_alpha                69.503(3)
_cell_angle_beta                 89.843(4)
_cell_angle_gamma                76.925(3)
_cell_volume                     1037.97
_exptl_crystal_colour            brown
_exptl_crystal_description       prism
_cell_formula_units_Z            4
loop_
_atom_site_label
_atom_site_type_symbol
_atom_site_fract_x
_atom_site_fract_y
_atom_site_fract_z
N1 N 0.2293(3) 0.4711(3) 0.0308(3)
O1 O 0.3307(3) 0.6425(3) 0.1099(2)
O2 O 0.0876(3) 0.4038(3) 0.2234(2)
H1 H 0.0193 0.3961 0.2671
C1 C 0.3740(4) 0.7012(4) 0.0072(3)
C2 C 0.4436(5) 0.8188(4) -0.0203(4)
H2 H 0.4557 0.8585 0.0353
C3 C 0.4935(5) 0.8753(4) -0.1280(4)
H3 H 0.5373 0.9536 -0.1441
C4 C 0.4804(4) 0.8186(4) -0.2129(3)
H4 H 0.5174 0.8566 -0.2845
C5 C 0.4128(4) 0.7067(4) -0.1904(3)
H5 H 0.4024 0.6691 -0.2477
C6 C 0.3582(4) 0.6470(4) -0.0822(3)
C7 C 0.2862(4) 0.5321(4) -0.0648(3)
H6 H 0.2794 0.4987 -0.1251
C8 C 0.1571(4) 0.3535(4) 0.0569(3)
C9 C 0.0850(4) 0.3208(4) 0.1588(3)
C10 C 0.0164(4) 0.2064(4) 0.1898(3)
H7 H -0.0303 0.1826 0.2587
C11 C 0.0166(5) 0.1283(4) 0.1204(4)
H8 H -0.0302 0.0515 0.1420
C12 C 0.0862(5) 0.1623(5) 0.0174(4)
H9 H 0.0862 0.1090 -0.0301
C13 C 0.1559(5) 0.2769(4) -0.0138(3)
H10 H 0.2019 0.3014 -0.0830
H11 H 0.243(4) 0.513(4) 0.078(3)
N2 N 0.7088(4) 0.5361(3) 0.4632(3)
O3 O 0.8987(3) 0.3677(3) 0.3821(2)
O4 O 0.5354(3) 0.6049(3) 0.2696(2)
H12 H 0.4632 0.6121 0.2264
C14 C 0.9700(4) 0.3079(4) 0.4864(3)
C15 C 1.0967(5) 0.1897(4) 0.5127(4)
H13 H 1.1285 0.1509 0.4564
C16 C 1.1738(5) 0.1309(4) 0.6201(4)
H14 H 1.2567 0.0521 0.6356
C17 C 1.1312(5) 0.1858(4) 0.7059(3)
H15 H 1.1868 0.1460 0.7776
C18 C 1.0083(4) 0.2979(4) 0.6850(3)
H16 H 0.9787 0.3344 0.7429
C19 C 0.9249(4) 0.3596(4) 0.5761(3)
C20 C 0.7950(4) 0.4749(4) 0.5596(3)
H17 H 0.7707 0.5079 0.6201
C21 C 0.5762(4) 0.6523(4) 0.4379(3)
C22 C 0.4900(4) 0.6861(4) 0.3355(3)
C23 C 0.3611(4) 0.7990(4) 0.3053(3)
H18 H 0.3037 0.8234 0.2359
C24 C 0.3171(4) 0.8757(4) 0.3772(3)
H19 H 0.2292 0.9501 0.3570
C25 C 0.4033(5) 0.8418(5) 0.4786(4)
H20 H 0.3744 0.8941 0.5267
C26 C 0.5332(4) 0.7300(4) 0.5095(3)
H21 H 0.5914 0.7072 0.5783
H22 H 0.740(4) 0.503(3) 0.410(2)
loop_
_geom_bond_atom_site_label_1
_geom_bond_atom_site_label_2
_geom_bond_site_symmetry_1
_geom_bond_site_symmetry_2
N1 C7 1_555 1_555
O1 C1 1_555 1_555
O2 H1 1_555 1_555
C1 C2 1_555 1_555
C2 H2 1_555 1_555
C3 C2 1_555 1_555
H3 C3 1_555 1_555
C4 C3 1_555 1_555
H4 C4 1_555 1_555
C5 C4 1_555 1_555
H5 C5 1_555 1_555
C6 C1 1_555 1_555
C7 C6 1_555 1_555
H6 C7 1_555 1_555
C8 N1 1_555 1_555
C9 O2 1_555 1_555
C10 C9 1_555 1_555
H7 C10 1_555 1_555
C11 C10 1_555 1_555
H8 C11 1_555 1_555
C12 C11 1_555 1_555
H9 C12 1_555 1_555
C13 C8 1_555 1_555
H10 C13 1_555 1_555
H11 N1 1_555 1_555
N2 C20 1_555 1_555
O3 C14 1_555 1_555
O4 H12 1_555 1_555
C14 C15 1_555 1_555
C15 H13 1_555 1_555
C16 C15 1_555 1_555
H14 C16 1_555 1_555
C17 C16 1_555 1_555
H15 C17 1_555 1_555
C18 C17 1_555 1_555
H16 C18 1_555 1_555
C19 C14 1_555 1_555
C20 C19 1_555 1_555
H17 C20 1_555 1_555
C21 N2 1_555 1_555
C22 O4 1_555 1_555
C23 C22 1_555 1_555
H18 C23 1_555 1_555
C24 C23 1_555 1_555
H19 C24 1_555 1_555
C25 C24 1_555 1_555
H20 C25 1_555 1_555
C26 C21 1_555 1_555
H21 C26 1_555 1_555
H22 N2 1_555 1_555
C5 C6 1_555 1_555
C8 C9 1_555 1_555
C12 C13 1_555 1_555
C18 C19 1_555 1_555
C21 C22 1_555 1_555
C25 C26 1_555 1_555

#END
