
#######################################################################
#
#                 Cambridge Crystallographic Data Centre
#                                CCDC 
#
#######################################################################
#
# If this CIF has been generated from an entry in the Cambridge 
# Structural Database, then it will include bibliographic, chemical, 
# crystal, experimental, refinement or atomic coordinate data resulting 
# from the CCDC's data processing and validation procedures.
#
#######################################################################

data_VAYJAG01
_chemical_name_common            N-Salicylidene-2-hydroxyaniline
_chemical_formula_moiety         'C13 H11 N1 O2'
_chemical_name_systematic        
6-(N-(2-Hydroxyphenyl)aminomethylene)cyclohexa-2,4-dien-1-one
_symmetry_cell_setting           triclinic
_symmetry_space_group_name_H-M   'P -1'
_symmetry_Int_Tables_number      2
_space_group_name_Hall           '-P 1'
loop_
_symmetry_equiv_pos_site_id
_symmetry_equiv_pos_as_xyz
1 x,y,z
2 -x,-y,-z
_cell_length_a                   9.034(2)
_cell_length_b                   10.1550(10)
_cell_length_c                   12.368(2)
_cell_angle_alpha                110.350(10)
_cell_angle_beta                 89.90(2)
_cell_angle_gamma                103.020(10)
_cell_volume                     1032.83
_exptl_crystal_colour            orange-red
_exptl_crystal_description       prism
_cell_formula_units_Z            4
_exptl_crystal_recrystallization_method dichloromethane/n-hexane
loop_
_atom_site_label
_atom_site_type_symbol
_atom_site_fract_x
_atom_site_fract_y
_atom_site_fract_z
O1 O 0.58716(14) 0.09552(13) 0.72417(10)
O2 O 0.83069(13) -0.14304(12) 0.60901(9)
N1 N 0.72941(13) 0.02935(13) 0.53071(10)
C1 C 0.5857(2) 0.1789(2) 0.66010(12)
C2 C 0.5154(2) 0.2939(2) 0.69069(13)
C3 C 0.5154(2) 0.3718(2) 0.6197(2)
C4 C 0.5840(3) 0.3369(2) 0.5165(2)
C5 C 0.6553(2) 0.2237(2) 0.48518(14)
C6 C 0.6569(2) 0.14492(15) 0.55635(12)
C7 C 0.7863(2) -0.03097(15) 0.43462(12)
C8 C 0.8584(2) -0.14605(15) 0.41726(12)
C9 C 0.9132(2) -0.2059(2) 0.30808(12)
C10 C 0.9825(2) -0.3183(2) 0.28669(14)
C11 C 0.9954(2) -0.3753(2) 0.3727(2)
C12 C 0.9437(2) -0.3197(2) 0.4795(2)
C13 C 0.8746(2) -0.2013(2) 0.50734(12)
H1 H 0.5419 0.1244 0.7820
H2 H 0.7454 -0.0074 0.5805
H3 H 0.4674 0.3194 0.7630
H4 H 0.4705 0.4551 0.6424
H5 H 0.5835 0.3917 0.4677
H6 H 0.7019 0.1999 0.4161
H7 H 0.7749 -0.0004 0.3727
H8 H 0.9023 -0.1597 0.2534
H9 H 1.0197 -0.3567 0.2154
H10 H 1.0345 -0.4601 0.3544
H11 H 0.9534 -0.3606 0.5349
O3 O 0.96496(14) 0.10397(13) 1.23118(10)
O4 O 0.60168(13) -0.13305(12) 1.11688(9)
N2 N 0.79135(13) 0.03729(13) 1.03742(10)
C14 C 1.0112(2) 0.1862(2) 1.16588(12)
C15 C 1.1404(2) 0.2993(2) 1.19593(13)
C16 C 1.1830(2) 0.3758(2) 1.12338(15)
C17 C 1.0967(2) 0.3406(2) 1.0203(2)
C18 C 0.9669(2) 0.2289(2) 0.99000(14)
C19 C 0.9231(2) 0.1520(2) 1.06287(12)
C20 C 0.7054(2) -0.02493(15) 0.94074(12)
C21 C 0.5754(2) -0.1394(2) 0.92322(12)
C22 C 0.4908(2) -0.2016(2) 0.81447(13)
C23 C 0.3664(2) -0.3144(2) 0.79246(14)
C24 C 0.3240(2) -0.3696(2) 0.8797(2)
C25 C 0.4016(2) -0.3117(2) 0.9873(2)
C26 C 0.5296(2) -0.1929(2) 1.01461(13)
H12 H 1.0249 0.1326 1.2893
H13 H 0.7612 -0.0035 1.0873
H14 H 1.1990 0.3228 1.2653
H15 H 1.2707 0.4569 1.1470
H16 H 1.1264 0.3909 0.9712
H17 H 0.9084 0.2060 0.9213
H18 H 0.7274 0.0071 0.8788
H19 H 0.5207 -0.1651 0.7564
H20 H 0.3103 -0.3543 0.7209
H21 H 0.2411 -0.4489 0.8646
H22 H 0.3697 -0.3512 1.0431
loop_
_geom_bond_atom_site_label_1
_geom_bond_atom_site_label_2
_geom_bond_site_symmetry_1
_geom_bond_site_symmetry_2
O1 C1 1_555 1_555
O2 C13 1_555 1_555
N1 C6 1_555 1_555
C1 C2 1_555 1_555
C2 C3 1_555 1_555
C3 C4 1_555 1_555
C4 C5 1_555 1_555
C5 C6 1_555 1_555
C6 C1 1_555 1_555
C7 N1 1_555 1_555
C8 C7 1_555 1_555
C9 C8 1_555 1_555
C10 C9 1_555 1_555
C11 C10 1_555 1_555
C12 C11 1_555 1_555
C13 C8 1_555 1_555
H1 O1 1_555 1_555
H2 N1 1_555 1_555
H3 C2 1_555 1_555
H4 C3 1_555 1_555
H5 C4 1_555 1_555
H6 C5 1_555 1_555
H7 C7 1_555 1_555
H8 C9 1_555 1_555
H9 C10 1_555 1_555
H10 C11 1_555 1_555
H11 C12 1_555 1_555
O3 C14 1_555 1_555
O4 C26 1_555 1_555
N2 C19 1_555 1_555
C14 C15 1_555 1_555
C15 C16 1_555 1_555
C16 C17 1_555 1_555
C17 C18 1_555 1_555
C18 C19 1_555 1_555
C19 C14 1_555 1_555
C20 N2 1_555 1_555
C21 C20 1_555 1_555
C22 C21 1_555 1_555
C23 C22 1_555 1_555
C24 C23 1_555 1_555
C25 C24 1_555 1_555
C26 C21 1_555 1_555
H12 O3 1_555 1_555
H13 N2 1_555 1_555
H14 C15 1_555 1_555
H15 C16 1_555 1_555
H16 C17 1_555 1_555
H17 C18 1_555 1_555
H18 C20 1_555 1_555
H19 C22 1_555 1_555
H20 C23 1_555 1_555
H21 C24 1_555 1_555
H22 C25 1_555 1_555
C12 C13 1_555 1_555
C25 C26 1_555 1_555

#END
