
#######################################################################
#
#                 Cambridge Crystallographic Data Centre
#                                CCDC 
#
#######################################################################
#
# If this CIF has been generated from an entry in the Cambridge 
# Structural Database, then it will include bibliographic, chemical, 
# crystal, experimental, refinement or atomic coordinate data resulting 
# from the CCDC's data processing and validation procedures.
#
#######################################################################

data_VAYKEN
_chemical_formula_moiety         'C17 H19 N3 O2'
_chemical_name_systematic        
2-((3-Ethynylphenyl)imino)-1,3-diisopropylimidazolidine-4,5-dione
_symmetry_cell_setting           monoclinic
_symmetry_space_group_name_H-M   'P 21/n'
_symmetry_Int_Tables_number      14
_space_group_name_Hall           '-P 2yn'
loop_
_symmetry_equiv_pos_site_id
_symmetry_equiv_pos_as_xyz
1 x,y,z
2 1/2-x,1/2+y,1/2-z
3 -x,-y,-z
4 1/2+x,1/2-y,1/2+z
_cell_length_a                   11.082(2)
_cell_length_b                   8.7000(17)
_cell_length_c                   16.612(3)
_cell_angle_alpha                90
_cell_angle_beta                 100.67(3)
_cell_angle_gamma                90
_cell_volume                     1573.93
_cell_formula_units_Z            4
loop_
_atom_site_label
_atom_site_type_symbol
_atom_site_fract_x
_atom_site_fract_y
_atom_site_fract_z
C1 C -0.0445(3) 0.8605(4) 0.1995(2)
C2 C -0.2014(3) 0.7250(4) 0.2381(2)
C3 C -0.2370(3) 0.7602(4) 0.1458(2)
C4 C -0.0116(3) 0.7577(4) 0.3481(2)
H1 H 0.0699 0.8019 0.3487
C5 C -0.0650(3) 0.8373(4) 0.4149(2)
H2 H -0.0758 0.9447 0.4022
H3 H -0.0100 0.8254 0.4664
H4 H -0.1430 0.7923 0.4183
C6 C 0.0056(3) 0.5868(4) 0.3631(2)
H5 H -0.0732 0.5383 0.3584
H6 H 0.0522 0.5700 0.4172
H7 H 0.0487 0.5438 0.3234
C7 C -0.1223(3) 0.8892(4) 0.0457(2)
H8 H -0.0357 0.9152 0.0478
C8 C -0.1971(3) 1.0364(4) 0.0250(2)
H9 H -0.2823 1.0154 0.0247
H10 H -0.1875 1.0727 -0.0280
H11 H -0.1686 1.1135 0.0654
C9 C -0.1569(3) 0.7666(4) -0.0202(2)
H12 H -0.1084 0.6760 -0.0052
H13 H -0.1416 0.8049 -0.0716
H14 H -0.2424 0.7418 -0.0254
C10 C 0.1317(3) 0.9971(4) 0.2628(2)
C11 C 0.2541(3) 0.9570(4) 0.2724(2)
H15 H 0.2804 0.8900 0.2356
C12 C 0.3376(3) 1.0171(4) 0.3373(2)
C13 C 0.2981(3) 1.1198(4) 0.3907(2)
H16 H 0.3537 1.1599 0.4345
C14 C 0.1755(3) 1.1628(4) 0.3789(2)
H17 H 0.1491 1.2327 0.4143
C15 C 0.0937(3) 1.1023(4) 0.3153(2)
H18 H 0.0117 1.1321 0.3072
C16 C 0.4648(3) 0.9724(4) 0.3481(2)
C17 C 0.5670(4) 0.9320(5) 0.3557(3)
H19 H 0.6482 0.8999 0.3618
N1 N -0.0867(2) 0.7884(3) 0.26577(17)
N2 N -0.1348(2) 0.8307(3) 0.12797(17)
N3 N 0.0500(2) 0.9391(3) 0.19494(17)
O1 O -0.2644(2) 0.6523(3) 0.27757(15)
O2 O -0.3348(2) 0.7300(3) 0.10206(15)
loop_
_geom_bond_atom_site_label_1
_geom_bond_atom_site_label_2
_geom_bond_site_symmetry_1
_geom_bond_site_symmetry_2
C1 N1 1_555 1_555
C2 C3 1_555 1_555
C3 N2 1_555 1_555
C4 H1 1_555 1_555
C5 C4 1_555 1_555
H2 C5 1_555 1_555
H3 C5 1_555 1_555
H4 C5 1_555 1_555
C6 C4 1_555 1_555
H5 C6 1_555 1_555
H6 C6 1_555 1_555
H7 C6 1_555 1_555
C7 H8 1_555 1_555
C8 C7 1_555 1_555
H9 C8 1_555 1_555
H10 C8 1_555 1_555
H11 C8 1_555 1_555
C9 C7 1_555 1_555
H12 C9 1_555 1_555
H13 C9 1_555 1_555
H14 C9 1_555 1_555
C10 C11 1_555 1_555
C11 H15 1_555 1_555
C12 C11 1_555 1_555
C13 C12 1_555 1_555
H16 C13 1_555 1_555
C14 C13 1_555 1_555
H17 C14 1_555 1_555
C15 C10 1_555 1_555
H18 C15 1_555 1_555
C16 C12 1_555 1_555
C17 C16 1_555 1_555
H19 C17 1_555 1_555
N1 C2 1_555 1_555
N2 C1 1_555 1_555
N3 C1 1_555 1_555
O1 C2 1_555 1_555
O2 C3 1_555 1_555
C4 N1 1_555 1_555
C7 N2 1_555 1_555
C10 N3 1_555 1_555
C14 C15 1_555 1_555

#END
