
#######################################################################
#
#                 Cambridge Crystallographic Data Centre
#                                CCDC 
#
#######################################################################
#
# If this CIF has been generated from an entry in the Cambridge 
# Structural Database, then it will include bibliographic, chemical, 
# crystal, experimental, refinement or atomic coordinate data resulting 
# from the CCDC's data processing and validation procedures.
#
#######################################################################

data_VAYKOX
_chemical_formula_moiety         'C17 H16 Br1 N3 O1'
_chemical_name_systematic        
2-Bromo-4-(3,6,6-trimethyl-4-oxo-4,5,6,7-tetrahydro-2H-indazol-2-yl)benzonitrile
_symmetry_cell_setting           monoclinic
_symmetry_space_group_name_H-M   'P 21/c'
_symmetry_Int_Tables_number      14
_space_group_name_Hall           '-P 2ybc'
loop_
_symmetry_equiv_pos_site_id
_symmetry_equiv_pos_as_xyz
1 x,y,z
2 -x,1/2+y,1/2-z
3 -x,-y,-z
4 x,1/2-y,1/2+z
_cell_length_a                   11.0531(7)
_cell_length_b                   14.3809(9)
_cell_length_c                   10.6995(7)
_cell_angle_alpha                90
_cell_angle_beta                 107.9540(10)
_cell_angle_gamma                90
_cell_volume                     1617.91
_exptl_crystal_colour            colorless
_exptl_crystal_description       block
_cell_formula_units_Z            4
loop_
_atom_site_label
_atom_site_type_symbol
_atom_site_fract_x
_atom_site_fract_y
_atom_site_fract_z
Br1 Br 0.34127(2) 0.039854(18) 0.91188(3)
C1 C 0.1922(3) -0.01055(18) 0.6211(3)
C2 C 0.2001(2) 0.08773(14) 0.6487(2)
C3 C 0.26365(18) 0.12188(14) 0.7729(2)
C4 C 0.26919(18) 0.21582(14) 0.7977(2)
H1 H 0.3128 0.2384 0.8808
C5 C 0.20873(18) 0.27626(14) 0.6971(2)
C6 C 0.1456(2) 0.24426(16) 0.5727(2)
H2 H 0.1067 0.2857 0.5056
C7 C 0.1409(2) 0.14975(17) 0.5492(2)
H3 H 0.0977 0.1274 0.4658
C8 C 0.12058(19) 0.43648(14) 0.6991(2)
C9 C -0.0161(2) 0.41334(17) 0.6369(2)
H4 H -0.0352 0.4133 0.5430
H5 H -0.0680 0.4588 0.6618
H6 H -0.0334 0.3529 0.6656
C10 C 0.17836(19) 0.51991(14) 0.7475(2)
C11 C 0.1282(2) 0.61388(15) 0.74406(19)
C12 C 0.2272(2) 0.68658(15) 0.8070(2)
H7 H 0.2335 0.6913 0.8993
H8 H 0.1980 0.7462 0.7667
C13 C 0.3607(2) 0.66783(14) 0.7965(2)
C14 C 0.4531(2) 0.74314(17) 0.8704(3)
H9 H 0.5355 0.7322 0.8609
H10 H 0.4590 0.7414 0.9618
H11 H 0.4226 0.8030 0.8348
C15 C 0.3549(2) 0.66953(17) 0.6519(2)
H12 H 0.4379 0.6573 0.6449
H13 H 0.3265 0.7296 0.6153
H14 H 0.2966 0.6228 0.6047
C16 C 0.4068(2) 0.57286(15) 0.8583(2)
H15 H 0.4860 0.5568 0.8425
H16 H 0.4224 0.5760 0.9525
C17 C 0.30976(19) 0.50002(15) 0.8011(2)
N1 N 0.1842(3) -0.08794(17) 0.5978(3)
N2 N 0.21596(15) 0.37319(11) 0.72576(17)
N3 N 0.33414(16) 0.41109(12) 0.78989(18)
O1 O 0.01586(14) 0.63347(11) 0.69398(16)
loop_
_geom_bond_atom_site_label_1
_geom_bond_atom_site_label_2
_geom_bond_site_symmetry_1
_geom_bond_site_symmetry_2
Br1 C3 1_555 1_555
C1 C2 1_555 1_555
C2 C3 1_555 1_555
C3 C4 1_555 1_555
C4 H1 1_555 1_555
C5 C4 1_555 1_555
C6 C5 1_555 1_555
H2 C6 1_555 1_555
C7 C2 1_555 1_555
H3 C7 1_555 1_555
C8 C9 1_555 1_555
C9 H4 1_555 1_555
H5 C9 1_555 1_555
H6 C9 1_555 1_555
C10 C8 1_555 1_555
C11 C10 1_555 1_555
C12 C11 1_555 1_555
H7 C12 1_555 1_555
H8 C12 1_555 1_555
C13 C12 1_555 1_555
C14 C13 1_555 1_555
H9 C14 1_555 1_555
H10 C14 1_555 1_555
H11 C14 1_555 1_555
C15 C13 1_555 1_555
H12 C15 1_555 1_555
H13 C15 1_555 1_555
H14 C15 1_555 1_555
C16 C13 1_555 1_555
H15 C16 1_555 1_555
H16 C16 1_555 1_555
C17 C10 1_555 1_555
N1 C1 1_555 1_555
N2 C5 1_555 1_555
N3 C17 1_555 1_555
O1 C11 1_555 1_555
C6 C7 1_555 1_555
C8 N2 1_555 1_555
C16 C17 1_555 1_555
N2 N3 1_555 1_555

#END
