
#######################################################################
#
#                 Cambridge Crystallographic Data Centre
#                                CCDC 
#
#######################################################################
#
# If this CIF has been generated from an entry in the Cambridge 
# Structural Database, then it will include bibliographic, chemical, 
# crystal, experimental, refinement or atomic coordinate data resulting 
# from the CCDC's data processing and validation procedures.
#
#######################################################################

data_VAYMEQ
_chemical_formula_moiety         'C144 H192 N8 Si8'
_chemical_name_systematic        
'2^5^,2^8^,4^5^,4^8^,6^5^,6^8^,8^5^,8^8^-octakis((triisopropylsilyl)ethynyl)-2,4,6,8(2,3)-tetraquinoxalina-1,3,5,7(1,4)-tetrabenzaenacyclooctaphane unknown solvate'
_symmetry_cell_setting           monoclinic
_symmetry_space_group_name_H-M   'P 21/n'
_symmetry_Int_Tables_number      14
_space_group_name_Hall           '-P 2yn'
loop_
_symmetry_equiv_pos_site_id
_symmetry_equiv_pos_as_xyz
1 x,y,z
2 1/2-x,1/2+y,1/2-z
3 -x,-y,-z
4 1/2+x,1/2-y,1/2+z
_cell_length_a                   28.6319(9)
_cell_length_b                   21.4149(5)
_cell_length_c                   28.8535(11)
_cell_angle_alpha                90
_cell_angle_beta                 103.142(3)
_cell_angle_gamma                90
_cell_volume                     17228.2
_exptl_crystal_colour            yellow
_exptl_crystal_description       needle
_cell_formula_units_Z            4
loop_
_atom_site_label
_atom_site_type_symbol
_atom_site_fract_x
_atom_site_fract_y
_atom_site_fract_z
Si1 Si 0.28681(9) 0.11683(11) 0.55580(10)
Si2 Si 0.67485(9) 0.29487(17) 0.73596(12)
Si3 Si 0.10065(10) 0.72117(12) 0.71302(10)
Si4 Si 0.18551(10) 0.44946(13) 0.38652(11)
Si5 Si 0.47162(8) 0.61511(10) 1.05202(8)
Si6 Si 0.17353(10) 0.25969(16) 0.86617(12)
Si7 Si 0.55951(12) 0.71648(12) 0.54070(11)
Si8 Si 0.43279(8) 0.88852(10) 0.87761(9)
C1 C 0.3881(3) 0.1672(4) 0.5930(3)
C2 C 0.3485(3) 0.1472(4) 0.5755(3)
C3 C 0.5773(3) 0.2514(4) 0.6801(4)
C4 C 0.6173(3) 0.2658(4) 0.7001(4)
C5 C 0.3700(2) 0.3922(3) 0.6288(3)
C6 C 0.3651(2) 0.4411(3) 0.6590(3)
H1 H 0.3911 0.4517 0.6847
C7 C 0.3228(2) 0.4745(4) 0.6520(3)
H2 H 0.3204 0.5079 0.6730
C8 C 0.2839(2) 0.4606(3) 0.6155(3)
C9 C 0.2880(2) 0.4105(3) 0.5855(3)
H3 H 0.2619 0.3997 0.5600
C10 C 0.3305(2) 0.3769(4) 0.5934(3)
H4 H 0.3324 0.3419 0.5736
C11 C 0.4354(2) 0.1897(3) 0.6135(3)
C12 C 0.4436(2) 0.2539(3) 0.6275(3)
N1 N 0.4056(2) 0.2937(3) 0.6213(2)
C13 C 0.4136(2) 0.3527(3) 0.6341(3)
C14 C 0.4621(2) 0.3734(3) 0.6546(3)
N2 N 0.4986(2) 0.3353(3) 0.6612(3)
C15 C 0.4900(2) 0.2736(3) 0.6494(3)
C16 C 0.5295(2) 0.2318(3) 0.6569(4)
C17 C 0.5205(3) 0.1704(4) 0.6431(4)
H5 H 0.5463 0.1415 0.6477
C18 C 0.4736(3) 0.1502(4) 0.6223(4)
H6 H 0.4685 0.1074 0.6141
C19 C 0.1110(3) 0.6525(4) 0.6241(3)
C20 C 0.1042(3) 0.6781(4) 0.6588(3)
C21 C 0.1627(3) 0.5234(4) 0.4690(3)
C22 C 0.1714(3) 0.4979(4) 0.4345(3)
C23 C 0.2402(3) 0.5086(3) 0.6976(2)
C24 C 0.2526(2) 0.5575(3) 0.7295(2)
H7 H 0.2452 0.5991 0.7190
C25 C 0.2753(3) 0.5465(3) 0.7760(3)
H8 H 0.2858 0.5805 0.7969
C26 C 0.2831(2) 0.4856(3) 0.7925(2)
C27 C 0.2679(2) 0.4358(3) 0.7613(3)
H9 H 0.2718 0.3940 0.7726
C28 C 0.2475(2) 0.4475(3) 0.7143(3)
H10 H 0.2382 0.4136 0.6930
C29 C 0.1230(2) 0.6194(3) 0.5849(3)
C30 C 0.1619(2) 0.5762(3) 0.5934(2)
N3 N 0.1840(2) 0.5629(3) 0.6391(2)
C31 C 0.2195(2) 0.5233(3) 0.6465(2)
C32 C 0.2382(2) 0.4975(3) 0.6083(2)
N4 N 0.21504(19) 0.5065(3) 0.5637(2)
C33 C 0.1763(2) 0.5460(4) 0.5556(3)
C34 C 0.1487(3) 0.5547(4) 0.5078(3)
C35 C 0.1116(3) 0.5973(4) 0.5004(3)
H11 H 0.0947 0.6059 0.4687
C36 C 0.0981(3) 0.6286(4) 0.5384(3)
H12 H 0.0715 0.6564 0.5320
C37 C 0.3971(3) 0.5175(3) 1.0087(3)
C38 C 0.4269(2) 0.5572(3) 1.0247(3)
C39 C 0.2509(2) 0.3471(3) 0.9204(3)
C40 C 0.2204(3) 0.3118(4) 0.8996(3)
C41 C 0.3828(2) 0.5419(3) 0.8353(2)
C42 C 0.3835(2) 0.5261(3) 0.7883(2)
H13 H 0.3644 0.4924 0.7731
C43 C 0.4119(2) 0.5591(3) 0.7638(3)
H14 H 0.4122 0.5475 0.7321
C44 C 0.4397(2) 0.6088(3) 0.7848(2)
C45 C 0.4389(2) 0.6246(3) 0.8313(3)
H15 H 0.4578 0.6588 0.8460
C46 C 0.4115(2) 0.5919(3) 0.8565(3)
H16 H 0.4120 0.6033 0.8884
C47 C 0.3622(2) 0.4727(3) 0.9873(2)
C48 C 0.3477(2) 0.4696(3) 0.9366(2)
N5 N 0.3713(2) 0.5051(3) 0.9096(2)
C49 C 0.3539(2) 0.5058(3) 0.8632(2)
C50 C 0.3099(2) 0.4737(3) 0.8424(2)
N6 N 0.29089(19) 0.4337(3) 0.8675(2)
C51 C 0.3094(2) 0.4304(3) 0.9146(2)
C52 C 0.2886(2) 0.3880(3) 0.9429(2)
C53 C 0.3041(2) 0.3908(3) 0.9917(3)
H17 H 0.2907 0.3631 1.0110
C54 C 0.3396(2) 0.4341(3) 1.0137(3)
H18 H 0.3481 0.4368 1.0474
C55 C 0.5356(3) 0.7561(3) 0.6340(3)
C56 C 0.5438(4) 0.7395(4) 0.5968(3)
C57 C 0.4809(3) 0.8344(3) 0.8027(3)
C58 C 0.4646(3) 0.8545(4) 0.8349(3)
C59 C 0.4860(2) 0.5630(3) 0.7014(3)
C60 C 0.4671(3) 0.5501(3) 0.6544(3)
H19 H 0.4584 0.5836 0.6326
C61 C 0.4603(3) 0.4897(3) 0.6382(3)
H20 H 0.4460 0.4819 0.6056
C62 C 0.4743(2) 0.4397(3) 0.6692(3)
C63 C 0.4977(3) 0.4532(3) 0.7153(3)
H21 H 0.5106 0.4199 0.7361
C64 C 0.5029(3) 0.5127(3) 0.7319(3)
H22 H 0.5180 0.5203 0.7643
C65 C 0.5244(3) 0.7752(3) 0.6776(3)
C66 C 0.5074(3) 0.7306(3) 0.7064(3)
N7 N 0.5047(2) 0.6697(3) 0.6923(2)
C67 C 0.4869(2) 0.6292(3) 0.7182(3)
C68 C 0.4683(2) 0.6491(3) 0.7586(3)
N8 N 0.47282(19) 0.7075(3) 0.7738(2)
C69 C 0.4932(3) 0.7485(3) 0.7477(3)
C70 C 0.4979(3) 0.8122(3) 0.7628(3)
C71 C 0.5174(3) 0.8544(3) 0.7356(3)
H23 H 0.5235 0.8961 0.7466
C72 C 0.5283(3) 0.8368(3) 0.6924(3)
H24 H 0.5386 0.8675 0.6731
C73 C 0.2879(3) 0.0322(3) 0.5711(3)
H25 H 0.2539 0.0174 0.5633
C74 C 0.3153(4) -0.0071(5) 0.5410(4)
H26 H 0.3020 0.0009 0.5071
H27 H 0.3493 0.0044 0.5491
H28 H 0.3119 -0.0515 0.5477
C75 C 0.3073(3) 0.0212(4) 0.6237(3)
H29 H 0.2894 0.0467 0.6419
H30 H 0.3039 -0.0230 0.6309
H31 H 0.3413 0.0329 0.6323
C76 C 0.2516(3) 0.1617(4) 0.5928(4)
H32 H 0.2716 0.1613 0.6261
C77 C 0.2040(3) 0.1349(5) 0.5954(4)
H33 H 0.2080 0.0911 0.6052
H34 H 0.1909 0.1585 0.6186
H35 H 0.1820 0.1377 0.5640
C78 C 0.2468(5) 0.2299(4) 0.5776(6)
H36 H 0.2784 0.2464 0.5762
H37 H 0.2250 0.2333 0.5462
H38 H 0.2339 0.2540 0.6008
C79 C 0.2651(4) 0.1314(6) 0.4908(3)
H39 H 0.2552 0.1763 0.4874
C80 C 0.2201(4) 0.0931(7) 0.4687(5)
H40 H 0.1962 0.0983 0.4879
H41 H 0.2068 0.1077 0.4362
H42 H 0.2287 0.0489 0.4680
C81 C 0.3011(5) 0.1225(9) 0.4606(5)
H43 H 0.3301 0.1466 0.4742
H44 H 0.3093 0.0782 0.4600
H45 H 0.2874 0.1370 0.4282
C82 C 0.7262(3) 0.2624(5) 0.7139(4)
H46 H 0.7563 0.2788 0.7351
C83 C 0.7268(6) 0.1914(5) 0.7198(6)
H47 H 0.7266 0.1809 0.7528
H48 H 0.6984 0.1734 0.6985
H49 H 0.7557 0.1743 0.7119
C84 C 0.7264(4) 0.2824(7) 0.6637(4)
H50 H 0.7260 0.3281 0.6618
H51 H 0.7554 0.2664 0.6550
H52 H 0.6980 0.2656 0.6416
C85 C 0.6806(4) 0.2708(5) 0.7991(3)
H53 H 0.6762 0.2245 0.7983
C86 C 0.7301(4) 0.2823(7) 0.8324(5)
H54 H 0.7552 0.2660 0.8177
H55 H 0.7348 0.3272 0.8380
H56 H 0.7317 0.2610 0.8628
C87 C 0.6416(6) 0.2965(10) 0.8226(6)
H57 H 0.6100 0.2894 0.8016
H58 H 0.6434 0.2752 0.8530
H59 H 0.6465 0.3414 0.8282
C88 C 0.6711(3) 0.3851(4) 0.7265(5)
H60 H 0.6725 0.3917 0.6925
C89 C 0.7128(4) 0.4213(6) 0.7552(6)
H61 H 0.7429 0.4022 0.7516
H62 H 0.7112 0.4645 0.7439
H63 H 0.7114 0.4206 0.7888
C90 C 0.6234(4) 0.4131(6) 0.7310(6)
H64 H 0.5970 0.3886 0.7119
H65 H 0.6214 0.4124 0.7644
H66 H 0.6212 0.4563 0.7195
C91 C 0.0526(4) 0.6874(6) 0.7399(6)
H67 H 0.0492 0.7165 0.7659
C92 C 0.0045(5) 0.6891(10) 0.7032(7)
H68 H -0.0011 0.7313 0.6900
H69 H 0.0054 0.6595 0.6775
H70 H -0.0214 0.6775 0.7187
C93 C 0.0663(8) 0.6241(8) 0.7635(9)
H71 H 0.0974 0.6275 0.7862
H72 H 0.0418 0.6111 0.7803
H73 H 0.0686 0.5930 0.7392
C94 C 0.0858(3) 0.8043(3) 0.6947(3)
H74 H 0.0572 0.8017 0.6674
C95 C 0.0695(5) 0.8428(5) 0.7321(5)
H75 H 0.0448 0.8199 0.7436
H76 H 0.0969 0.8509 0.7587
H77 H 0.0563 0.8826 0.7182
C96 C 0.1242(3) 0.8359(5) 0.6745(4)
H78 H 0.1331 0.8087 0.6506
H79 H 0.1119 0.8755 0.6596
H80 H 0.1525 0.8439 0.7002
C97 C 0.1825(4) 0.3658(4) 0.4027(4)
H81 H 0.1900 0.3404 0.3763
C98 C 0.1321(4) 0.3478(6) 0.4074(6)
H82 H 0.1089 0.3582 0.3779
H83 H 0.1310 0.3029 0.4135
H84 H 0.1242 0.3709 0.4339
C99 C 0.2197(5) 0.3511(7) 0.4469(5)
H85 H 0.2514 0.3632 0.4425
H86 H 0.2126 0.3742 0.4738
H87 H 0.2194 0.3062 0.4534
C100 C 0.1420(4) 0.4683(5) 0.3284(3)
H88 H 0.1579 0.5027 0.3144
C101 C 0.0951(4) 0.4954(7) 0.3325(4)
H89 H 0.1006 0.5279 0.3570
H90 H 0.0790 0.5136 0.3019
H91 H 0.0749 0.4624 0.3412
C102 C 0.1333(5) 0.4174(6) 0.2900(4)
H92 H 0.1641 0.3995 0.2873
H93 H 0.1131 0.3845 0.2988
H94 H 0.1171 0.4357 0.2594
C103 C 0.2468(3) 0.4705(5) 0.3777(4)
H95 H 0.2695 0.4565 0.4075
C104 C 0.2577(5) 0.5388(5) 0.3736(5)
H96 H 0.2480 0.5620 0.3992
H97 H 0.2921 0.5443 0.3763
H98 H 0.2399 0.5547 0.3428
C105 C 0.2618(5) 0.4343(6) 0.3380(5)
H99 H 0.2546 0.3899 0.3407
H100 H 0.2441 0.4501 0.3071
H101 H 0.2963 0.4398 0.3406
C106 C 0.4861(3) 0.5992(3) 1.1176(2)
H102 H 0.5108 0.6301 1.1335
C107 C 0.4424(3) 0.6050(5) 1.1400(3)
H103 H 0.4285 0.6469 1.1339
H104 H 0.4183 0.5737 1.1259
H105 H 0.4524 0.5981 1.1744
C108 C 0.5074(3) 0.5333(4) 1.1274(3)
H106 H 0.5353 0.5292 1.1133
H107 H 0.5173 0.5266 1.1619
H108 H 0.4832 0.5022 1.1134
C109 C 0.5256(2) 0.6043(3) 1.0254(3)
H109 H 0.5398 0.5626 1.0360
C110 C 0.5643(3) 0.6533(4) 1.0428(3)
H110 H 0.5730 0.6532 1.0776
H111 H 0.5927 0.6435 1.0304
H112 H 0.5521 0.6946 1.0314
C111 C 0.5113(3) 0.6034(4) 0.9708(3)
H113 H 0.4864 0.5717 0.9602
H114 H 0.4988 0.6445 0.9591
H115 H 0.5394 0.5934 0.9582
C112 C 0.4456(3) 0.6957(3) 1.0376(3)
H116 H 0.4544 0.7083 1.0073
C113 C 0.4685(3) 0.7445(4) 1.0747(3)
H117 H 0.5035 0.7419 1.0802
H118 H 0.4579 0.7863 1.0630
H119 H 0.4588 0.7365 1.1046
C114 C 0.3909(3) 0.6973(5) 1.0274(5)
H120 H 0.3778 0.6655 1.0036
H121 H 0.3804 0.6888 1.0568
H122 H 0.3795 0.7386 1.0153
C115 C 0.1152(4) 0.2955(6) 0.8503(5)
H123 H 0.0916 0.2647 0.8323
C116 C 0.1150(5) 0.3528(7) 0.8207(6)
H124 H 0.1239 0.3416 0.7909
H125 H 0.0829 0.3713 0.8135
H126 H 0.1381 0.3830 0.8382
C117 C 0.1011(5) 0.3119(8) 0.8982(5)
H127 H 0.1014 0.2739 0.9172
H128 H 0.1242 0.3420 0.9161
H129 H 0.0689 0.3303 0.8914
C118 C 0.1745(3) 0.1839(4) 0.9012(4)
H130 H 0.1741 0.1967 0.9345
C119 C 0.1299(4) 0.1439(6) 0.8841(7)
H131 H 0.1012 0.1693 0.8831
H132 H 0.1294 0.1279 0.8522
H133 H 0.1304 0.1089 0.9060
C120 C 0.2217(4) 0.1502(7) 0.9045(6)
H134 H 0.2483 0.1793 0.9157
H135 H 0.2242 0.1153 0.9268
H136 H 0.2232 0.1343 0.8730
C121 C 0.1972(4) 0.2307(6) 0.8117(4)
H137 H 0.2241 0.2012 0.8244
C122 C 0.1590(5) 0.1933(8) 0.7760(6)
H138 H 0.1463 0.1599 0.7929
H139 H 0.1328 0.2212 0.7610
H140 H 0.1736 0.1750 0.7516
C123 C 0.2181(5) 0.2834(7) 0.7872(5)
H141 H 0.2421 0.3062 0.8108
H142 H 0.2332 0.2659 0.7628
H143 H 0.1924 0.3121 0.7722
C124 C 0.5305(4) 0.7746(4) 0.4947(4)
H144 H 0.5390 0.7633 0.4640
C125 C 0.5494(5) 0.8405(4) 0.5083(5)
H145 H 0.5844 0.8407 0.5136
H146 H 0.5357 0.8696 0.4825
H147 H 0.5401 0.8535 0.5375
C126 C 0.4755(4) 0.7747(6) 0.4864(6)
H148 H 0.4633 0.7326 0.4777
H149 H 0.4663 0.7877 0.5157
H150 H 0.4620 0.8038 0.4607
C127 C 0.6269(3) 0.7219(5) 0.5533(3)
H151 H 0.6356 0.7658 0.5633
C128 C 0.6469(4) 0.7089(6) 0.5092(4)
H152 H 0.6308 0.7359 0.4830
H153 H 0.6814 0.7174 0.5167
H154 H 0.6412 0.6651 0.4998
C129 C 0.6521(5) 0.6795(7) 0.5941(4)
H155 H 0.6394 0.6877 0.6223
H156 H 0.6464 0.6357 0.5846
H157 H 0.6866 0.6880 0.6014
C130 C 0.5389(4) 0.6345(4) 0.5264(4)
H158 H 0.5647 0.6076 0.5456
C131 C 0.5364(5) 0.6164(5) 0.4747(4)
H159 H 0.5661 0.6288 0.4659
H160 H 0.5321 0.5711 0.4711
H161 H 0.5092 0.6377 0.4540
C132 C 0.4938(5) 0.6164(6) 0.5419(6)
H162 H 0.4967 0.6287 0.5751
H163 H 0.4662 0.6377 0.5217
H164 H 0.4892 0.5711 0.5388
C133 C 0.4268(3) 0.9743(3) 0.8635(3)
H165 H 0.4081 0.9929 0.8855
C134 C 0.3984(4) 0.9877(5) 0.8127(4)
H166 H 0.3674 0.9662 0.8071
H167 H 0.3931 1.0328 0.8086
H168 H 0.4166 0.9727 0.7899
C135 C 0.4754(3) 1.0069(4) 0.8739(5)
H169 H 0.4927 0.9975 0.9065
H170 H 0.4941 0.9920 0.8516
H171 H 0.4706 1.0521 0.8702
C136 C 0.4698(3) 0.8743(4) 0.9396(3)
H172 H 0.5031 0.8871 0.9384
C137 C 0.4569(4) 0.9157(6) 0.9781(4)
H173 H 0.4546 0.9593 0.9674
H174 H 0.4260 0.9024 0.9839
H175 H 0.4818 0.9119 1.0075
C138 C 0.4740(4) 0.8059(4) 0.9536(4)
H176 H 0.4823 0.7815 0.9279
H177 H 0.4991 0.8009 0.9828
H178 H 0.4433 0.7913 0.9592
C139 C 0.3721(3) 0.8493(3) 0.8652(3)
H179 H 0.3542 0.8671 0.8342
C140 C 0.3426(3) 0.8665(4) 0.9008(4)
H180 H 0.3429 0.9119 0.9050
H181 H 0.3094 0.8523 0.8890
H182 H 0.3562 0.8464 0.9314
C141 C 0.3729(3) 0.7797(4) 0.8571(4)
H183 H 0.3923 0.7706 0.8340
H184 H 0.3869 0.7587 0.8873
H185 H 0.3401 0.7647 0.8449
C142 C 0.1626(5) 0.7117(8) 0.7534(6)
H186 H 0.1859 0.7207 0.7331
C143 C 0.1752(9) 0.7568(13) 0.7954(9)
H187 H 0.1698 0.7998 0.7838
H188 H 0.1550 0.7480 0.8177
H189 H 0.2090 0.7515 0.8115
C144 C 0.1698(8) 0.6429(8) 0.7675(8)
H190 H 0.1610 0.6168 0.7390
H191 H 0.2035 0.6357 0.7832
H192 H 0.1494 0.6322 0.7894
C145? C 0.1638(5) 0.7215(13) 0.7522(8)
H193? H 0.1699 0.6795 0.7674
C146? C 0.1691(14) 0.770(3) 0.7922(15)
H194? H 0.1444 0.7634 0.8102
H195? H 0.2009 0.7666 0.8135
H196? H 0.1654 0.8124 0.7783
C147? C 0.2028(8) 0.7334(15) 0.7245(12)
H197? H 0.1999 0.7026 0.6989
H198? H 0.1990 0.7755 0.7108
H199? H 0.2345 0.7297 0.7461
loop_
_geom_bond_atom_site_label_1
_geom_bond_atom_site_label_2
_geom_bond_site_symmetry_1
_geom_bond_site_symmetry_2
Si1 C2 1_555 1_555
Si2 C4 1_555 1_555
Si3 C20 1_555 1_555
Si4 C22 1_555 1_555
Si5 C38 1_555 1_555
Si6 C40 1_555 1_555
Si7 C56 1_555 1_555
Si8 C58 1_555 1_555
C1 C2 1_555 1_555
C3 C4 1_555 1_555
C5 C6 1_555 1_555
C6 H1 1_555 1_555
C7 C6 1_555 1_555
H2 C7 1_555 1_555
C8 C7 1_555 1_555
C9 C8 1_555 1_555
H3 C9 1_555 1_555
C10 C5 1_555 1_555
H4 C10 1_555 1_555
C11 C1 1_555 1_555
C12 C11 1_555 1_555
N1 C12 1_555 1_555
C13 C5 1_555 1_555
C14 C13 1_555 1_555
N2 C14 1_555 1_555
C15 C12 1_555 1_555
C16 C3 1_555 1_555
C17 C16 1_555 1_555
H5 C17 1_555 1_555
C18 C11 1_555 1_555
H6 C18 1_555 1_555
C19 C20 1_555 1_555
C21 C22 1_555 1_555
C23 C24 1_555 1_555
C24 H7 1_555 1_555
C25 C24 1_555 1_555
H8 C25 1_555 1_555
C26 C25 1_555 1_555
C27 C26 1_555 1_555
H9 C27 1_555 1_555
C28 C23 1_555 1_555
H10 C28 1_555 1_555
C29 C19 1_555 1_555
C30 C29 1_555 1_555
N3 C30 1_555 1_555
C31 C23 1_555 1_555
C32 C8 1_555 1_555
N4 C32 1_555 1_555
C33 C30 1_555 1_555
C34 C21 1_555 1_555
C35 C34 1_555 1_555
H11 C35 1_555 1_555
C36 C29 1_555 1_555
H12 C36 1_555 1_555
C37 C38 1_555 1_555
C39 C40 1_555 1_555
C41 C42 1_555 1_555
C42 H13 1_555 1_555
C43 C42 1_555 1_555
H14 C43 1_555 1_555
C44 C43 1_555 1_555
C45 C44 1_555 1_555
H15 C45 1_555 1_555
C46 C41 1_555 1_555
H16 C46 1_555 1_555
C47 C37 1_555 1_555
C48 C47 1_555 1_555
N5 C48 1_555 1_555
C49 C41 1_555 1_555
C50 C26 1_555 1_555
N6 C50 1_555 1_555
C51 C48 1_555 1_555
C52 C39 1_555 1_555
C53 C52 1_555 1_555
H17 C53 1_555 1_555
C54 C47 1_555 1_555
H18 C54 1_555 1_555
C55 C56 1_555 1_555
C57 C58 1_555 1_555
C59 C60 1_555 1_555
C60 H19 1_555 1_555
C61 C60 1_555 1_555
H20 C61 1_555 1_555
C62 C14 1_555 1_555
C63 C62 1_555 1_555
H21 C63 1_555 1_555
C64 C59 1_555 1_555
H22 C64 1_555 1_555
C65 C55 1_555 1_555
C66 C65 1_555 1_555
N7 C66 1_555 1_555
C67 C59 1_555 1_555
C68 C44 1_555 1_555
N8 C68 1_555 1_555
C69 C66 1_555 1_555
C70 C57 1_555 1_555
C71 C70 1_555 1_555
H23 C71 1_555 1_555
C72 C65 1_555 1_555
H24 C72 1_555 1_555
C73 Si1 1_555 1_555
H25 C73 1_555 1_555
C74 C73 1_555 1_555
H26 C74 1_555 1_555
H27 C74 1_555 1_555
H28 C74 1_555 1_555
C75 C73 1_555 1_555
H29 C75 1_555 1_555
H30 C75 1_555 1_555
H31 C75 1_555 1_555
C76 Si1 1_555 1_555
H32 C76 1_555 1_555
C77 C76 1_555 1_555
H33 C77 1_555 1_555
H34 C77 1_555 1_555
H35 C77 1_555 1_555
C78 C76 1_555 1_555
H36 C78 1_555 1_555
H37 C78 1_555 1_555
H38 C78 1_555 1_555
C79 Si1 1_555 1_555
H39 C79 1_555 1_555
C80 C79 1_555 1_555
H40 C80 1_555 1_555
H41 C80 1_555 1_555
H42 C80 1_555 1_555
C81 C79 1_555 1_555
H43 C81 1_555 1_555
H44 C81 1_555 1_555
H45 C81 1_555 1_555
C82 Si2 1_555 1_555
H46 C82 1_555 1_555
C83 C82 1_555 1_555
H47 C83 1_555 1_555
H48 C83 1_555 1_555
H49 C83 1_555 1_555
C84 C82 1_555 1_555
H50 C84 1_555 1_555
H51 C84 1_555 1_555
H52 C84 1_555 1_555
C85 Si2 1_555 1_555
H53 C85 1_555 1_555
C86 C85 1_555 1_555
H54 C86 1_555 1_555
H55 C86 1_555 1_555
H56 C86 1_555 1_555
C87 C85 1_555 1_555
H57 C87 1_555 1_555
H58 C87 1_555 1_555
H59 C87 1_555 1_555
C88 Si2 1_555 1_555
H60 C88 1_555 1_555
C89 C88 1_555 1_555
H61 C89 1_555 1_555
H62 C89 1_555 1_555
H63 C89 1_555 1_555
C90 C88 1_555 1_555
H64 C90 1_555 1_555
H65 C90 1_555 1_555
H66 C90 1_555 1_555
C91 Si3 1_555 1_555
H67 C91 1_555 1_555
C92 C91 1_555 1_555
H68 C92 1_555 1_555
H69 C92 1_555 1_555
H70 C92 1_555 1_555
C93 C91 1_555 1_555
H71 C93 1_555 1_555
H72 C93 1_555 1_555
H73 C93 1_555 1_555
C94 Si3 1_555 1_555
H74 C94 1_555 1_555
C95 C94 1_555 1_555
H75 C95 1_555 1_555
H76 C95 1_555 1_555
H77 C95 1_555 1_555
C96 C94 1_555 1_555
H78 C96 1_555 1_555
H79 C96 1_555 1_555
H80 C96 1_555 1_555
C97 Si4 1_555 1_555
H81 C97 1_555 1_555
C98 C97 1_555 1_555
H82 C98 1_555 1_555
H83 C98 1_555 1_555
H84 C98 1_555 1_555
C99 C97 1_555 1_555
H85 C99 1_555 1_555
H86 C99 1_555 1_555
H87 C99 1_555 1_555
C100 Si4 1_555 1_555
H88 C100 1_555 1_555
C101 C100 1_555 1_555
H89 C101 1_555 1_555
H90 C101 1_555 1_555
H91 C101 1_555 1_555
C102 C100 1_555 1_555
H92 C102 1_555 1_555
H93 C102 1_555 1_555
H94 C102 1_555 1_555
C103 Si4 1_555 1_555
H95 C103 1_555 1_555
C104 C103 1_555 1_555
H96 C104 1_555 1_555
H97 C104 1_555 1_555
H98 C104 1_555 1_555
C105 C103 1_555 1_555
H99 C105 1_555 1_555
H100 C105 1_555 1_555
H101 C105 1_555 1_555
C106 Si5 1_555 1_555
H102 C106 1_555 1_555
C107 C106 1_555 1_555
H103 C107 1_555 1_555
H104 C107 1_555 1_555
H105 C107 1_555 1_555
C108 C106 1_555 1_555
H106 C108 1_555 1_555
H107 C108 1_555 1_555
H108 C108 1_555 1_555
C109 Si5 1_555 1_555
H109 C109 1_555 1_555
C110 C109 1_555 1_555
H110 C110 1_555 1_555
H111 C110 1_555 1_555
H112 C110 1_555 1_555
C111 C109 1_555 1_555
H113 C111 1_555 1_555
H114 C111 1_555 1_555
H115 C111 1_555 1_555
C112 Si5 1_555 1_555
H116 C112 1_555 1_555
C113 C112 1_555 1_555
H117 C113 1_555 1_555
H118 C113 1_555 1_555
H119 C113 1_555 1_555
C114 C112 1_555 1_555
H120 C114 1_555 1_555
H121 C114 1_555 1_555
H122 C114 1_555 1_555
C115 Si6 1_555 1_555
H123 C115 1_555 1_555
C116 C115 1_555 1_555
H124 C116 1_555 1_555
H125 C116 1_555 1_555
H126 C116 1_555 1_555
C117 C115 1_555 1_555
H127 C117 1_555 1_555
H128 C117 1_555 1_555
H129 C117 1_555 1_555
C118 Si6 1_555 1_555
H130 C118 1_555 1_555
C119 C118 1_555 1_555
H131 C119 1_555 1_555
H132 C119 1_555 1_555
H133 C119 1_555 1_555
C120 C118 1_555 1_555
H134 C120 1_555 1_555
H135 C120 1_555 1_555
H136 C120 1_555 1_555
C121 Si6 1_555 1_555
H137 C121 1_555 1_555
C122 C121 1_555 1_555
H138 C122 1_555 1_555
H139 C122 1_555 1_555
H140 C122 1_555 1_555
C123 C121 1_555 1_555
H141 C123 1_555 1_555
H142 C123 1_555 1_555
H143 C123 1_555 1_555
C124 Si7 1_555 1_555
H144 C124 1_555 1_555
C125 C124 1_555 1_555
H145 C125 1_555 1_555
H146 C125 1_555 1_555
H147 C125 1_555 1_555
C126 C124 1_555 1_555
H148 C126 1_555 1_555
H149 C126 1_555 1_555
H150 C126 1_555 1_555
C127 Si7 1_555 1_555
H151 C127 1_555 1_555
C128 C127 1_555 1_555
H152 C128 1_555 1_555
H153 C128 1_555 1_555
H154 C128 1_555 1_555
C129 C127 1_555 1_555
H155 C129 1_555 1_555
H156 C129 1_555 1_555
H157 C129 1_555 1_555
C130 Si7 1_555 1_555
H158 C130 1_555 1_555
C131 C130 1_555 1_555
H159 C131 1_555 1_555
H160 C131 1_555 1_555
H161 C131 1_555 1_555
C132 C130 1_555 1_555
H162 C132 1_555 1_555
H163 C132 1_555 1_555
H164 C132 1_555 1_555
C133 Si8 1_555 1_555
H165 C133 1_555 1_555
C134 C133 1_555 1_555
H166 C134 1_555 1_555
H167 C134 1_555 1_555
H168 C134 1_555 1_555
C135 C133 1_555 1_555
H169 C135 1_555 1_555
H170 C135 1_555 1_555
H171 C135 1_555 1_555
C136 Si8 1_555 1_555
H172 C136 1_555 1_555
C137 C136 1_555 1_555
H173 C137 1_555 1_555
H174 C137 1_555 1_555
H175 C137 1_555 1_555
C138 C136 1_555 1_555
H176 C138 1_555 1_555
H177 C138 1_555 1_555
H178 C138 1_555 1_555
C139 Si8 1_555 1_555
H179 C139 1_555 1_555
C140 C139 1_555 1_555
H180 C140 1_555 1_555
H181 C140 1_555 1_555
H182 C140 1_555 1_555
C141 C139 1_555 1_555
H183 C141 1_555 1_555
H184 C141 1_555 1_555
H185 C141 1_555 1_555
C142 Si3 1_555 1_555
H186 C142 1_555 1_555
C143 C142 1_555 1_555
H187 C143 1_555 1_555
H188 C143 1_555 1_555
H189 C143 1_555 1_555
C144 C142 1_555 1_555
H190 C144 1_555 1_555
H191 C144 1_555 1_555
H192 C144 1_555 1_555
C9 C10 1_555 1_555
N1 C13 1_555 1_555
N2 C15 1_555 1_555
C15 C16 1_555 1_555
C17 C18 1_555 1_555
C27 C28 1_555 1_555
N3 C31 1_555 1_555
C31 C32 1_555 1_555
N4 C33 1_555 1_555
C33 C34 1_555 1_555
C35 C36 1_555 1_555
C45 C46 1_555 1_555
N5 C49 1_555 1_555
C49 C50 1_555 1_555
N6 C51 1_555 1_555
C51 C52 1_555 1_555
C53 C54 1_555 1_555
C61 C62 1_555 1_555
C63 C64 1_555 1_555
N7 C67 1_555 1_555
C67 C68 1_555 1_555
N8 C69 1_555 1_555
C69 C70 1_555 1_555
C71 C72 1_555 1_555

#END
