
#######################################################################
#
#                 Cambridge Crystallographic Data Centre
#                                CCDC 
#
#######################################################################
#
# If this CIF has been generated from an entry in the Cambridge 
# Structural Database, then it will include bibliographic, chemical, 
# crystal, experimental, refinement or atomic coordinate data resulting 
# from the CCDC's data processing and validation procedures.
#
#######################################################################

data_VAYMOA
_chemical_formula_moiety         'C44 H24 N4 O4,0.5(C4 H10 O1)'
_chemical_name_systematic        
'2,7(2,3)-diquinoxalina-1,3,6,8(1,4)-tetrabenzenacyclodecaphane-4,5,9,10-tetraone diethyl ether unknown solvate'
_symmetry_cell_setting           triclinic
_symmetry_space_group_name_H-M   'P -1'
_symmetry_Int_Tables_number      2
_space_group_name_Hall           '-P 1'
loop_
_symmetry_equiv_pos_site_id
_symmetry_equiv_pos_as_xyz
1 x,y,z
2 -x,-y,-z
_cell_length_a                   10.1784(4)
_cell_length_b                   16.4318(7)
_cell_length_c                   26.9488(11)
_cell_angle_alpha                106.285(2)
_cell_angle_beta                 92.906(3)
_cell_angle_gamma                105.787(3)
_cell_volume                     4123.62
_exptl_crystal_colour            yellow
_exptl_crystal_description       PLATE
_cell_formula_units_Z            4
loop_
_atom_site_label
_atom_site_type_symbol
_atom_site_fract_x
_atom_site_fract_y
_atom_site_fract_z
O1 O 0.7628(3) 1.16884(18) 0.80493(12)
C1 C 0.7106(6) 1.0175(3) 0.7982(2)
H1 H 0.6324 0.9655 0.7957
H2 H 0.7842 1.0226 0.8248
H3 H 0.7449 1.0109 0.7644
C2 C 0.6652(5) 1.0991(3) 0.81310(19)
H4 H 0.5762 1.0881 0.7920
H5 H 0.6517 1.1140 0.8503
C3 C 0.7307(5) 1.2481(3) 0.8181(2)
H6 H 0.7291 1.2691 0.8562
H7 H 0.6381 1.2389 0.8001
C4 C 0.8365(6) 1.3167(4) 0.8021(3)
H8 H 0.8886 1.2871 0.7772
H9 H 0.8998 1.3580 0.8331
H10 H 0.7900 1.3495 0.7858
O2 O 1.1100(3) 1.22423(17) 1.00785(9)
O3 O 0.8352(3) 1.23061(16) 0.95147(12)
O4 O 1.1124(2) 0.76364(15) 0.72542(10)
O5 O 0.8993(3) 0.82310(17) 0.66465(10)
N1 N 1.4276(3) 1.22785(17) 0.71361(10)
N2 N 1.4532(3) 1.35998(17) 0.80944(11)
N3 N 0.5452(3) 0.79340(18) 0.95900(11)
N4 N 0.6066(3) 0.65472(18) 0.88504(12)
C5 C 1.5211(3) 1.3093(2) 0.72423(13)
C6 C 1.6108(3) 1.3271(2) 0.68713(14)
H11 H 1.6039 1.2828 0.6549
C7 C 1.7055(4) 1.4073(2) 0.69824(15)
H12 H 1.7672 1.4186 0.6740
C8 C 1.7146(4) 1.4747(2) 0.74526(16)
H13 H 1.7811 1.5311 0.7519
C9 C 1.6303(4) 1.4604(2) 0.78101(15)
H14 H 1.6366 1.5067 0.8123
C10 C 1.5330(3) 1.3763(2) 0.77173(13)
C11 C 1.3656(3) 1.28018(19) 0.79910(12)
C12 C 1.2824(3) 1.26487(19) 0.84141(12)
C13 C 1.3492(3) 1.2884(2) 0.89204(13)
H15 H 1.4462 1.3155 0.8990
C14 C 1.2770(3) 1.2731(2) 0.93241(13)
H16 H 1.3242 1.2881 0.9666
C15 C 1.1336(3) 1.23509(19) 0.92232(12)
C16 C 1.3520(3) 1.2120(2) 0.75022(12)
C17 C 1.0659(3) 1.2142(2) 0.87211(12)
H17 H 0.9683 1.1902 0.8655
C18 C 1.1385(3) 1.2278(2) 0.83171(13)
H18 H 1.0912 1.2122 0.7975
C19 C 1.0562(3) 1.2142(2) 0.96410(13)
C20 C 0.8991(3) 1.1787(2) 0.95303(12)
C21 C 0.8329(3) 1.0842(2) 0.94752(11)
C22 C 0.9103(3) 1.0246(2) 0.94080(12)
H19 H 1.0070 1.0453 0.9408
C23 C 0.8476(3) 0.9360(2) 0.93414(12)
H20 H 0.9012 0.8959 0.9295
C24 C 0.7053(3) 0.9045(2) 0.93422(11)
C25 C 0.6284(3) 0.9653(2) 0.94269(12)
H21 H 0.5326 0.9454 0.9447
C26 C 0.6909(3) 1.0528(2) 0.94810(12)
H22 H 0.6373 1.0928 0.9523
C27 C 0.6337(3) 0.8097(2) 0.92652(12)
C28 C 0.4857(3) 0.7074(2) 0.95626(14)
C29 C 0.3921(4) 0.6870(3) 0.99106(17)
H23 H 0.3658 0.7330 1.0145
C30 C 0.3397(5) 0.6020(3) 0.9911(2)
H24 H 0.2789 0.5889 1.0153
C31 C 0.3744(5) 0.5329(3) 0.9557(2)
H25 H 0.3355 0.4736 0.9559
C32 C 0.4633(5) 0.5495(3) 0.92064(18)
H26 H 0.4860 0.5021 0.8969
C33 C 0.5204(4) 0.6372(2) 0.92025(13)
C34 C 0.7515(3) 0.7532(2) 0.84661(12)
C35 C 0.8419(3) 0.7031(2) 0.83297(13)
H27 H 0.8469 0.6603 0.8500
C36 C 0.9248(3) 0.71504(19) 0.79477(13)
H28 H 0.9860 0.6804 0.7858
C37 C 0.9191(3) 0.77670(19) 0.76971(12)
C38 C 0.8250(3) 0.8257(2) 0.78195(12)
H29 H 0.8175 0.8667 0.7639
C39 C 0.7431(3) 0.8140(2) 0.82054(12)
H30 H 0.6807 0.8478 0.8292
C40 C 1.0157(3) 0.79436(19) 0.73221(13)
C41 C 0.9932(3) 0.8537(2) 0.69953(12)
C42 C 1.0895(3) 0.94481(19) 0.71203(12)
C43 C 1.0903(3) 0.9918(2) 0.67709(13)
H31 H 1.0327 0.9651 0.6444
C44 C 1.1758(3) 1.0784(2) 0.68995(13)
H32 H 1.1776 1.1102 0.6654
C45 C 1.2591(3) 1.11994(19) 0.73792(12)
C46 C 1.2567(3) 1.0710(2) 0.77300(12)
H33 H 1.3124 1.0980 0.8061
C47 C 1.1741(3) 0.9836(2) 0.76009(13)
H34 H 1.1749 0.9504 0.7838
C48 C 0.6610(3) 0.7380(2) 0.88734(12)
O6 O 0.8578(3) 0.5832(2) 0.64703(10)
O7 O 0.7045(3) 0.67644(17) 0.58457(9)
O8 O 0.0734(4) 0.25970(18) 0.71352(12)
O9 O -0.1133(3) 0.2879(2) 0.62733(12)
N5 N 0.4044(3) 0.83728(18) 0.80426(11)
N6 N 0.2226(3) 0.72058(18) 0.84681(11)
C49 C 0.3389(3) 0.8691(2) 0.84517(12)
C50 C 0.3613(4) 0.9615(2) 0.86508(14)
H35 H 0.4203 1.0009 0.8501
C51 C 0.2961(4) 0.9940(2) 0.90667(14)
H36 H 0.3080 1.0559 0.9196
C52 C 0.2140(4) 0.9370(2) 0.92948(13)
H37 H 0.1718 0.9607 0.9585
C53 C 0.1919(4) 0.8473(2) 0.91129(13)
H38 H 0.1353 0.8092 0.9277
C54 C 0.2537(3) 0.8117(2) 0.86801(12)
C55 C 0.2771(3) 0.6913(2) 0.80470(12)
C56 C 0.2218(3) 0.5938(2) 0.77717(12)
C57 C 0.2234(4) 0.5321(2) 0.80203(14)
H39 H 0.2603 0.5512 0.8379
C58 C 0.1717(4) 0.4417(2) 0.77556(14)
H40 H 0.1749 0.3994 0.7931
C59 C 0.1151(3) 0.4134(2) 0.72313(13)
C60 C 0.1096(3) 0.4753(2) 0.69873(13)
H41 H 0.0683 0.4564 0.6634
C61 C 0.1636(4) 0.5657(2) 0.72508(13)
H42 H 0.1608 0.6081 0.7076
C62 C 0.0665(4) 0.3165(2) 0.69435(15)
C63 C 0.0053(4) 0.2878(2) 0.63725(16)
C64 C 0.0900(4) 0.2601(3) 0.5954(2)
C65 C 0.2244(4) 0.2595(3) 0.6084(2)
H43 H 0.2629 0.2765 0.6440
C66 C 0.3005(4) 0.2341(3) 0.5692(2)
H44 H 0.3912 0.2327 0.5782
C67 C 0.2468(4) 0.2102(3) 0.51666(18)
C68 C 0.1152(5) 0.2117(4) 0.50428(18)
H45 H 0.0774 0.1955 0.4687
C69 C 0.0372(5) 0.2367(4) 0.5431(2)
H46 H -0.0535 0.2378 0.5338
C70 C 0.3262(4) 0.1770(3) 0.47449(15)
N7 N 0.2597(4) 0.1018(2) 0.43824(13)
C71 C 0.3305(6) 0.0641(3) 0.40190(15)
C72 C 0.2663(8) -0.0184(4) 0.3644(2)
H47 H 0.1712 -0.0473 0.3633
C73 C 0.3416(9) -0.0575(4) 0.3292(2)
H48 H 0.2969 -0.1123 0.3031
C74 C 0.4813(10) -0.0180(5) 0.3312(2)
H49 H 0.5319 -0.0469 0.3072
C75 C 0.5475(7) 0.0630(4) 0.36754(19)
H50 H 0.6432 0.0901 0.3686
C76 C 0.4715(6) 0.1054(3) 0.40339(15)
N8 N 0.5405(4) 0.1871(2) 0.43963(13)
C77 C 0.4675(5) 0.2225(3) 0.47389(14)
C78 C 0.5408(4) 0.3129(3) 0.51016(16)
C79 C 0.6771(4) 0.3306(3) 0.53335(16)
H51 H 0.7214 0.2854 0.5256
C80 C 0.7465(4) 0.4141(3) 0.56741(19)
H52 H 0.8384 0.4262 0.5829
C81 C 0.6809(5) 0.4811(3) 0.57898(18)
C82 C 0.5486(4) 0.4638(3) 0.55430(17)
H53 H 0.5066 0.5101 0.5601
C83 C 0.4770(4) 0.3799(3) 0.52144(16)
H54 H 0.3845 0.3680 0.5066
C84 C 0.7524(3) 0.5681(3) 0.61734(12)
C85 C 0.6097(3) 0.6700(2) 0.66259(13)
C86 C 0.5630(4) 0.7433(2) 0.66727(14)
H55 H 0.5854 0.7771 0.6438
C87 C 0.4841(4) 0.7674(2) 0.70589(14)
H56 H 0.4519 0.8173 0.7086
C88 C 0.4515(3) 0.7189(2) 0.74093(12)
C89 C 0.4987(3) 0.6454(2) 0.73635(13)
H57 H 0.4771 0.6118 0.7599
C90 C 0.5781(3) 0.6211(2) 0.69697(13)
H58 H 0.6102 0.5710 0.6939
C91 C 0.3747(3) 0.7498(2) 0.78381(12)
C92 C 0.6889(3) 0.6422(2) 0.61919(12)
C93? C 0.089(3) 0.248(2) 0.6107(11)
C94? C 0.227(3) 0.260(3) 0.6285(12)
H59? H 0.2620 0.2825 0.6647
C95? C 0.310(3) 0.237(4) 0.5914(13)
H60? H 0.4046 0.2474 0.6020
C96? C 0.257(2) 0.200(2) 0.5381(12)
C97? C 0.118(2) 0.178(2) 0.5223(11)
H61? H 0.0794 0.1459 0.4872
C98? C 0.035(3) 0.205(2) 0.5589(11)
H62? H -0.0603 0.1938 0.5481
C99? C 0.344(2) 0.1584(18) 0.5022(14)
N9? N 0.279(2) 0.0783(14) 0.4698(10)
C100? C 0.355(2) 0.0425(16) 0.4350(11)
C101? C 0.294(3) -0.0441(16) 0.4018(12)
H63? H 0.2053 -0.0778 0.4053
C102? C 0.367(3) -0.080(3) 0.3637(17)
H64? H 0.3182 -0.1283 0.3342
C103? C 0.508(3) -0.046(2) 0.3676(16)
H65? H 0.5603 -0.0809 0.3482
C104? C 0.572(3) 0.039(2) 0.4005(14)
H66? H 0.6635 0.0700 0.3977
C105? C 0.499(2) 0.0791(16) 0.4385(12)
N10? N 0.562(3) 0.1659(16) 0.4694(13)
C106? C 0.487(2) 0.1992(15) 0.5036(13)
C107? C 0.559(3) 0.2967(15) 0.5290(17)
C108? C 0.691(4) 0.315(2) 0.557(3)
H67? H 0.7286 0.2687 0.5573
C109? C 0.765(3) 0.403(2) 0.5830(17)
H68? H 0.8484 0.4182 0.6056
C110? C 0.709(4) 0.469(2) 0.574(2)
C111? C 0.565(3) 0.4469(18) 0.5671(14)
H69? H 0.5194 0.4894 0.5823
C112? C 0.489(3) 0.3603(19) 0.537(2)
H70? H 0.3952 0.3459 0.5226
loop_
_geom_bond_atom_site_label_1
_geom_bond_atom_site_label_2
_geom_bond_site_symmetry_1
_geom_bond_site_symmetry_2
O1 C2 1_555 1_555
C1 H1 1_555 1_555
H2 C1 1_555 1_555
H3 C1 1_555 1_555
C2 C1 1_555 1_555
H4 C2 1_555 1_555
H5 C2 1_555 1_555
C3 O1 1_555 1_555
H6 C3 1_555 1_555
H7 C3 1_555 1_555
C4 C3 1_555 1_555
H8 C4 1_555 1_555
H9 C4 1_555 1_555
H10 C4 1_555 1_555
O2 C19 1_555 1_555
O3 C20 1_555 1_555
O4 C40 1_555 1_555
O5 C41 1_555 1_555
N1 C5 1_555 1_555
N2 C10 1_555 1_555
N3 C27 1_555 1_555
N4 C33 1_555 1_555
C5 C6 1_555 1_555
C6 H11 1_555 1_555
C7 C6 1_555 1_555
H12 C7 1_555 1_555
C8 C7 1_555 1_555
H13 C8 1_555 1_555
C9 C8 1_555 1_555
H14 C9 1_555 1_555
C10 C5 1_555 1_555
C11 N2 1_555 1_555
C12 C11 1_555 1_555
C13 C12 1_555 1_555
H15 C13 1_555 1_555
C14 C13 1_555 1_555
H16 C14 1_555 1_555
C15 C14 1_555 1_555
C16 N1 1_555 1_555
C17 C15 1_555 1_555
H17 C17 1_555 1_555
C18 C12 1_555 1_555
H18 C18 1_555 1_555
C19 C15 1_555 1_555
C20 C19 1_555 1_555
C21 C20 1_555 1_555
C22 C21 1_555 1_555
H19 C22 1_555 1_555
C23 C22 1_555 1_555
H20 C23 1_555 1_555
C24 C23 1_555 1_555
C25 C24 1_555 1_555
H21 C25 1_555 1_555
C26 C21 1_555 1_555
H22 C26 1_555 1_555
C27 C24 1_555 1_555
C28 N3 1_555 1_555
C29 C28 1_555 1_555
H23 C29 1_555 1_555
C30 C29 1_555 1_555
H24 C30 1_555 1_555
C31 C30 1_555 1_555
H25 C31 1_555 1_555
C32 C31 1_555 1_555
H26 C32 1_555 1_555
C33 C28 1_555 1_555
C34 C35 1_555 1_555
C35 H27 1_555 1_555
C36 C35 1_555 1_555
H28 C36 1_555 1_555
C37 C36 1_555 1_555
C38 C37 1_555 1_555
H29 C38 1_555 1_555
C39 C34 1_555 1_555
H30 C39 1_555 1_555
C40 C37 1_555 1_555
C41 C40 1_555 1_555
C42 C41 1_555 1_555
C43 C42 1_555 1_555
H31 C43 1_555 1_555
C44 C43 1_555 1_555
H32 C44 1_555 1_555
C45 C16 1_555 1_555
C46 C45 1_555 1_555
H33 C46 1_555 1_555
C47 C42 1_555 1_555
H34 C47 1_555 1_555
C48 N4 1_555 1_555
O6 C84 1_555 1_555
O7 C92 1_555 1_555
O8 C62 1_555 1_555
O9 C63 1_555 1_555
N5 C49 1_555 1_555
N6 C54 1_555 1_555
C49 C50 1_555 1_555
C50 H35 1_555 1_555
C51 C50 1_555 1_555
H36 C51 1_555 1_555
C52 C51 1_555 1_555
H37 C52 1_555 1_555
C53 C52 1_555 1_555
H38 C53 1_555 1_555
C54 C49 1_555 1_555
C55 N6 1_555 1_555
C56 C55 1_555 1_555
C57 C56 1_555 1_555
H39 C57 1_555 1_555
C58 C57 1_555 1_555
H40 C58 1_555 1_555
C59 C58 1_555 1_555
C60 C59 1_555 1_555
H41 C60 1_555 1_555
C61 C56 1_555 1_555
H42 C61 1_555 1_555
C62 C59 1_555 1_555
C63 C62 1_555 1_555
C64 C63 1_555 1_555
C65 C64 1_555 1_555
H43 C65 1_555 1_555
C66 C65 1_555 1_555
H44 C66 1_555 1_555
C67 C66 1_555 1_555
C68 C67 1_555 1_555
H45 C68 1_555 1_555
C69 C64 1_555 1_555
H46 C69 1_555 1_555
C70 C67 1_555 1_555
N7 C70 1_555 1_555
C71 N7 1_555 1_555
C72 C71 1_555 1_555
H47 C72 1_555 1_555
C73 C72 1_555 1_555
H48 C73 1_555 1_555
C74 C73 1_555 1_555
H49 C74 1_555 1_555
C75 C74 1_555 1_555
H50 C75 1_555 1_555
C76 C71 1_555 1_555
N8 C76 1_555 1_555
C77 C70 1_555 1_555
C78 C77 1_555 1_555
C79 C78 1_555 1_555
H51 C79 1_555 1_555
C80 C79 1_555 1_555
H52 C80 1_555 1_555
C81 C80 1_555 1_555
C82 C81 1_555 1_555
H53 C82 1_555 1_555
C83 C78 1_555 1_555
H54 C83 1_555 1_555
C84 C81 1_555 1_555
C85 C86 1_555 1_555
C86 H55 1_555 1_555
C87 C86 1_555 1_555
H56 C87 1_555 1_555
C88 C87 1_555 1_555
C89 C88 1_555 1_555
H57 C89 1_555 1_555
C90 C85 1_555 1_555
H58 C90 1_555 1_555
C91 N5 1_555 1_555
C92 C84 1_555 1_555
C9 C10 1_555 1_555
C11 C16 1_555 1_555
C17 C18 1_555 1_555
C25 C26 1_555 1_555
C27 C48 1_555 1_555
C32 C33 1_555 1_555
C34 C48 1_555 1_555
C38 C39 1_555 1_555
C44 C45 1_555 1_555
C46 C47 1_555 1_555
C53 C54 1_555 1_555
C55 C91 1_555 1_555
C60 C61 1_555 1_555
C68 C69 1_555 1_555
C75 C76 1_555 1_555
N8 C77 1_555 1_555
C82 C83 1_555 1_555
C85 C92 1_555 1_555
C88 C91 1_555 1_555
C89 C90 1_555 1_555

#END
