
#######################################################################
#
#                 Cambridge Crystallographic Data Centre
#                                CCDC 
#
#######################################################################
#
# If this CIF has been generated from an entry in the Cambridge 
# Structural Database, then it will include bibliographic, chemical, 
# crystal, experimental, refinement or atomic coordinate data resulting 
# from the CCDC's data processing and validation procedures.
#
#######################################################################

data_VAYMIU
_chemical_formula_moiety         'C160 H200 N8 Si8,5.4(C1 H1 Cl3)'
_chemical_name_systematic        
'2^5^,2^10^,4^5^,4^10^,6^5^,6^10^,8^5^,8^10^octakis((triisopropylsilyl)ethynyl)-2,4,6,8(2,3)-tetrabenzo[g]quinoxalina-1,3,5,7(1,4)-tetrabenzaenacyclooctaphane chloroform solvate'
_symmetry_cell_setting           tetragonal
_symmetry_space_group_name_H-M   'I 41/a'
_symmetry_Int_Tables_number      88
_space_group_name_Hall           '-I 4ad'
loop_
_symmetry_equiv_pos_site_id
_symmetry_equiv_pos_as_xyz
1 x,y,z
2 1/2-x,-y,1/2+z
3 3/4-y,1/4+x,1/4+z
4 3/4+y,3/4-x,3/4+z
5 1/2+x,1/2+y,1/2+z
6 -x,1/2-y,z
7 1/4-y,3/4+x,3/4+z
8 1/4+y,1/4-x,1/4+z
9 -x,-y,-z
10 1/2+x,y,1/2-z
11 1/4+y,3/4-x,3/4-z
12 1/4-y,1/4+x,1/4-z
13 1/2-x,1/2-y,1/2-z
14 x,1/2+y,-z
15 3/4+y,1/4-x,1/4-z
16 3/4-y,3/4+x,3/4-z
_cell_length_a                   30.5881(6)
_cell_length_b                   30.5881(6)
_cell_length_c                   19.2875(4)
_cell_angle_alpha                90
_cell_angle_beta                 90
_cell_angle_gamma                90
_cell_volume                     18046
_exptl_crystal_colour            orange
_exptl_crystal_description       polyhedron
_cell_formula_units_Z            4
loop_
_atom_site_label
_atom_site_type_symbol
_atom_site_fract_x
_atom_site_fract_y
_atom_site_fract_z
Si1 Si 0.60706(6) 1.04692(8) 0.24666(12)
Si2 Si 0.28202(5) 0.87537(5) 0.41361(8)
C1 C 0.53190(17) 0.99492(17) 0.3069(3)
C2 C 0.56314(19) 1.0155(2) 0.2855(4)
C3 C 0.37290(15) 0.91198(15) 0.3827(2)
C4 C 0.33691(17) 0.89631(17) 0.3953(3)
C5 C 0.49340(15) 0.97275(15) 0.3300(3)
C6 C 0.47926(14) 0.93567(14) 0.2946(3)
N1 N 0.50482(12) 0.91838(13) 0.2436(2)
C7 C 0.48938(15) 0.88471(15) 0.2080(3)
C8 C 0.44593(15) 0.86803(14) 0.2197(3)
N2 N 0.42226(11) 0.88245(11) 0.2720(2)
C9 C 0.43829(14) 0.91609(14) 0.3116(2)
C10 C 0.41389(14) 0.93141(14) 0.3669(2)
C11 C 0.42953(16) 0.96745(15) 0.4068(2)
C12 C 0.40663(19) 0.98337(17) 0.4653(3)
H1 H 0.3805 0.9694 0.4800
C13 C 0.4223(2) 1.01932(19) 0.5009(3)
H2 H 0.4075 1.0289 0.5415
C14 C 0.4596(2) 1.0419(2) 0.4782(3)
H3 H 0.4687 1.0676 0.5017
C15 C 0.48252(19) 1.02704(17) 0.4229(3)
H4 H 0.5082 1.0421 0.4086
C16 C 0.46873(16) 0.98941(15) 0.3862(3)
C17 C 0.6593(2) 1.0320(4) 0.2847(6)
H5 H 0.6627 1.0030 0.2613
C18 C 0.6585(4) 1.0164(5) 0.3547(6)
H6 H 0.6298 1.0037 0.3648
H7 H 0.6811 0.9940 0.3608
H8 H 0.6641 1.0408 0.3865
C19 C 0.6988(2) 1.0522(3) 0.2581(5)
H9 H 0.6941 1.0611 0.2098
H10 H 0.7059 1.0780 0.2861
H11 H 0.7230 1.0313 0.2604
C20 C 0.6001(4) 1.1044(3) 0.2826(7)
H12 H 0.6280 1.1204 0.2728
C21 C 0.5657(5) 1.1266(4) 0.2431(9)
H13 H 0.5719 1.1242 0.1934
H14 H 0.5374 1.1129 0.2531
H15 H 0.5646 1.1575 0.2564
C22 C 0.5930(6) 1.1065(5) 0.3614(7)
H16 H 0.6169 1.0913 0.3850
H17 H 0.5923 1.1372 0.3763
H18 H 0.5651 1.0925 0.3731
C23 C 0.6037(3) 1.0452(4) 0.1527(5)
H19 H 0.6225 1.0686 0.1320
C24 C 0.6195(6) 1.0002(6) 0.1292(10)
H20 H 0.6494 0.9954 0.1459
H21 H 0.6002 0.9777 0.1481
H22 H 0.6191 0.9988 0.0784
C25 C 0.5579(4) 1.0477(6) 0.1232(8)
H23 H 0.5447 1.0758 0.1356
H24 H 0.5591 1.0450 0.0726
H25 H 0.5402 1.0239 0.1423
C26 C 0.28563(18) 0.84791(18) 0.5000(3)
H26 H 0.2564 0.8345 0.5093
C27 C 0.2944(3) 0.8797(2) 0.5576(3)
H27 H 0.2724 0.9030 0.5565
H28 H 0.2929 0.8645 0.6022
H29 H 0.3236 0.8924 0.5517
C28 C 0.3188(2) 0.8109(2) 0.4993(4)
H30 H 0.3121 0.7909 0.4611
H31 H 0.3482 0.8230 0.4929
H32 H 0.3175 0.7951 0.5434
C29 C 0.24614(19) 0.9259(2) 0.4216(4)
H33 H 0.2591 0.9439 0.4597
C30 C 0.2471(3) 0.9542(3) 0.3579(4)
H34 H 0.2775 0.9602 0.3451
H35 H 0.2324 0.9390 0.3197
H36 H 0.2320 0.9818 0.3675
C31 C 0.2001(2) 0.9156(2) 0.4437(5)
H37 H 0.2007 0.8972 0.4852
H38 H 0.1846 0.9429 0.4540
H39 H 0.1850 0.9001 0.4062
C32 C 0.26464(19) 0.8394(2) 0.3422(3)
H40 H 0.2523 0.8590 0.3055
C33 C 0.3017(2) 0.8138(2) 0.3077(4)
H41 H 0.3253 0.8338 0.2949
H42 H 0.3129 0.7918 0.3401
H43 H 0.2906 0.7992 0.2660
C34 C 0.2283(2) 0.8082(3) 0.3618(4)
H44 H 0.2045 0.8244 0.3839
H45 H 0.2174 0.7936 0.3200
H46 H 0.2397 0.7862 0.3941
C35 C 0.51807(18) 0.86047(17) 0.1468(3)
C36 C 0.5512(2) 0.88560(14) 0.1179(3)
H47 H 0.5522 0.9162 0.1262
C37 C 0.58300(18) 0.86596(18) 0.0768(3)
H48 H 0.6057 0.8831 0.0570
C38 C 0.58159(18) 0.82119(19) 0.0647(3)
C39 C 0.54842(19) 0.79606(14) 0.0936(3)
C40 C 0.51666(17) 0.81569(16) 0.1347(3)
Si1K Si 0.20308(8) 0.85706(6) 0.00334(12)
Si2K Si 0.37463(5) 0.53202(5) -0.16361(8)
C1K C 0.25508(17) 0.78190(17) -0.0569(3)
C2K C 0.2345(2) 0.81314(19) -0.0355(4)
C3K C 0.33802(15) 0.62290(15) -0.1327(2)
C4K C 0.35369(17) 0.58691(17) -0.1453(3)
C5K C 0.27725(15) 0.74340(15) -0.0800(3)
C6K C 0.31433(14) 0.72926(14) -0.0446(3)
N1K N 0.33162(13) 0.75482(12) 0.0064(2)
C7K C 0.36529(15) 0.73938(15) 0.0420(3)
C8K C 0.38197(14) 0.69593(15) 0.0303(3)
N2K N 0.36755(11) 0.67226(11) -0.0220(2)
C9K C 0.33391(14) 0.68829(14) -0.0616(2)
C10K C 0.31859(14) 0.66389(14) -0.1169(2)
C11K C 0.28255(15) 0.67953(16) -0.1568(2)
C12K C 0.26663(17) 0.65663(19) -0.2153(3)
H1K H 0.2806 0.6305 -0.2300
C13K C 0.23068(19) 0.6723(2) -0.2509(3)
H2K H 0.2211 0.6575 -0.2915
C14K C 0.2081(2) 0.7096(2) -0.2282(3)
H3K H 0.1824 0.7187 -0.2517
C15K C 0.22296(17) 0.73252(19) -0.1729(3)
H4K H 0.2079 0.7582 -0.1586
C16K C 0.26059(15) 0.71873(16) -0.1362(3)
C17K C 0.2180(4) 0.9093(2) -0.0347(6)
H5K H 0.2470 0.9127 -0.0113
C18K C 0.2336(5) 0.9085(4) -0.1047(6)
H6K H 0.2463 0.8798 -0.1148
H7K H 0.2560 0.9311 -0.1108
H8K H 0.2092 0.9141 -0.1365
C19K C 0.1978(3) 0.9488(2) -0.0081(5)
H9K H 0.1889 0.9441 0.0402
H10K H 0.1720 0.9559 -0.0361
H11K H 0.2187 0.9730 -0.0104
C20K C 0.1456(3) 0.8501(4) -0.0326(7)
H12K H 0.1296 0.8780 -0.0228
C21K C 0.1234(4) 0.8157(5) 0.0069(9)
H13K H 0.1258 0.8219 0.0566
H14K H 0.1371 0.7874 -0.0031
H15K H 0.0925 0.8146 -0.0064
C22K C 0.1435(5) 0.8430(6) -0.1114(7)
H16K H 0.1587 0.8669 -0.1350
H17K H 0.1128 0.8423 -0.1263
H18K H 0.1575 0.8151 -0.1231
C23K C 0.2048(4) 0.8537(3) 0.0973(5)
H19K H 0.1814 0.8725 0.1180
C24K C 0.2498(6) 0.8695(6) 0.1208(10)
H20K H 0.2546 0.8994 0.1041
H21K H 0.2723 0.8502 0.1019
H22K H 0.2512 0.8691 0.1716
C25K C 0.2023(6) 0.8079(4) 0.1268(8)
H23K H 0.1742 0.7947 0.1144
H24K H 0.2050 0.8091 0.1774
H25K H 0.2261 0.7902 0.1077
C26K C 0.40209(18) 0.53563(18) -0.2500(3)
H26K H 0.4155 0.5064 -0.2593
C27K C 0.3703(2) 0.5444(3) -0.3076(3)
H27K H 0.3470 0.5224 -0.3065
H28K H 0.3855 0.5429 -0.3522
H29K H 0.3576 0.5736 -0.3017
C28K C 0.4391(2) 0.5688(2) -0.2493(4)
H30K H 0.4591 0.5621 -0.2111
H31K H 0.4270 0.5982 -0.2429
H32K H 0.4549 0.5675 -0.2934
C29K C 0.3241(2) 0.49614(19) -0.1716(4)
H33K H 0.3061 0.5091 -0.2097
C30K C 0.2958(3) 0.4971(3) -0.1079(4)
H34K H 0.2898 0.5275 -0.0951
H35K H 0.3110 0.4824 -0.0697
H36K H 0.2682 0.4820 -0.1175
C31K C 0.3344(2) 0.4501(2) -0.1937(5)
H37K H 0.3528 0.4507 -0.2352
H38K H 0.3071 0.4346 -0.2040
H39K H 0.3499 0.4350 -0.1562
C32K C 0.4106(2) 0.51464(19) -0.0922(3)
H40K H 0.3910 0.5023 -0.0555
C33K C 0.4362(2) 0.5517(2) -0.0577(4)
H41K H 0.4162 0.5753 -0.0449
H42K H 0.4582 0.5629 -0.0901
H43K H 0.4508 0.5406 -0.0160
C34K C 0.4418(3) 0.4783(2) -0.1118(4)
H44K H 0.4256 0.4545 -0.1339
H45K H 0.4564 0.4674 -0.0700
H46K H 0.4638 0.4897 -0.1441
C35K C 0.38953(17) 0.76807(18) 0.1032(3)
C36K C 0.36440(14) 0.8012(2) 0.1321(3)
H47K H 0.3338 0.8022 0.1238
C37K C 0.38404(18) 0.83300(18) 0.1732(3)
H48K H 0.3669 0.8557 0.1930
C38K C 0.42881(19) 0.83159(18) 0.1853(3)
C39K C 0.45394(14) 0.79842(19) 0.1564(3)
C40K C 0.43431(16) 0.76666(17) 0.1153(3)
Si1N Si 0.79692(8) 0.64294(6) 0.00334(12)
Si2N Si 0.62537(5) 0.96798(5) -0.16361(8)
C1N C 0.74492(17) 0.71810(17) -0.0569(3)
C2N C 0.7655(2) 0.68686(19) -0.0355(4)
C3N C 0.66198(15) 0.87710(15) -0.1327(2)
C4N C 0.64631(17) 0.91309(17) -0.1453(3)
C5N C 0.72275(15) 0.75660(15) -0.0800(3)
C6N C 0.68567(14) 0.77074(14) -0.0446(3)
N1N N 0.66838(13) 0.74518(12) 0.0064(2)
C7N C 0.63471(15) 0.76062(15) 0.0420(3)
C8N C 0.61803(14) 0.80407(15) 0.0303(3)
N2N N 0.63245(11) 0.82774(11) -0.0220(2)
C9N C 0.66609(14) 0.81171(14) -0.0616(2)
C10N C 0.68141(14) 0.83611(14) -0.1169(2)
C11N C 0.71745(15) 0.82047(16) -0.1568(2)
C12N C 0.73337(17) 0.84337(19) -0.2153(3)
H1N H 0.7194 0.8695 -0.2300
C13N C 0.76932(19) 0.8277(2) -0.2509(3)
H2N H 0.7789 0.8425 -0.2915
C14N C 0.7919(2) 0.7904(2) -0.2282(3)
H3N H 0.8176 0.7813 -0.2517
C15N C 0.77704(17) 0.76748(19) -0.1729(3)
H4N H 0.7921 0.7418 -0.1586
C16N C 0.73941(15) 0.78127(16) -0.1362(3)
C17N C 0.7820(4) 0.5907(2) -0.0347(6)
H5N H 0.7530 0.5873 -0.0113
C18N C 0.7664(5) 0.5915(4) -0.1047(6)
H6N H 0.7537 0.6202 -0.1148
H7N H 0.7440 0.5689 -0.1108
H8N H 0.7908 0.5859 -0.1365
C19N C 0.8022(3) 0.5512(2) -0.0081(5)
H9N H 0.8111 0.5559 0.0402
H10N H 0.8280 0.5441 -0.0361
H11N H 0.7813 0.5270 -0.0104
C20N C 0.8544(3) 0.6499(4) -0.0326(7)
H12N H 0.8704 0.6220 -0.0228
C21N C 0.8766(4) 0.6843(5) 0.0069(9)
H13N H 0.8742 0.6781 0.0566
H14N H 0.8629 0.7126 -0.0031
H15N H 0.9075 0.6854 -0.0064
C22N C 0.8565(5) 0.6570(6) -0.1114(7)
H16N H 0.8413 0.6331 -0.1350
H17N H 0.8872 0.6577 -0.1263
H18N H 0.8425 0.6849 -0.1231
C23N C 0.7952(4) 0.6463(3) 0.0973(5)
H19N H 0.8186 0.6275 0.1180
C24N C 0.7502(6) 0.6305(6) 0.1208(10)
H20N H 0.7454 0.6006 0.1041
H21N H 0.7277 0.6498 0.1019
H22N H 0.7488 0.6309 0.1716
C25N C 0.7977(6) 0.6921(4) 0.1268(8)
H23N H 0.8258 0.7053 0.1144
H24N H 0.7950 0.6909 0.1774
H25N H 0.7739 0.7098 0.1077
C26N C 0.59791(18) 0.96437(18) -0.2500(3)
H26N H 0.5845 0.9936 -0.2593
C27N C 0.6297(2) 0.9556(3) -0.3076(3)
H27N H 0.6530 0.9776 -0.3065
H28N H 0.6145 0.9571 -0.3522
H29N H 0.6424 0.9264 -0.3017
C28N C 0.5609(2) 0.9312(2) -0.2493(4)
H30N H 0.5409 0.9379 -0.2111
H31N H 0.5730 0.9018 -0.2429
H32N H 0.5451 0.9325 -0.2934
C29N C 0.6759(2) 1.00386(19) -0.1716(4)
H33N H 0.6939 0.9909 -0.2097
C30N C 0.7042(3) 1.0029(3) -0.1079(4)
H34N H 0.7102 0.9725 -0.0951
H35N H 0.6890 1.0176 -0.0697
H36N H 0.7318 1.0180 -0.1175
C31N C 0.6656(2) 1.0499(2) -0.1937(5)
H37N H 0.6472 1.0493 -0.2352
H38N H 0.6929 1.0654 -0.2040
H39N H 0.6501 1.0650 -0.1562
C32N C 0.5894(2) 0.98536(19) -0.0922(3)
H40N H 0.6090 0.9977 -0.0555
C33N C 0.5638(2) 0.9483(2) -0.0577(4)
H41N H 0.5838 0.9247 -0.0449
H42N H 0.5418 0.9371 -0.0901
H43N H 0.5492 0.9594 -0.0160
C34N C 0.5582(3) 1.0217(2) -0.1118(4)
H44N H 0.5744 1.0455 -0.1339
H45N H 0.5436 1.0326 -0.0700
H46N H 0.5362 1.0103 -0.1441
C35N C 0.61047(17) 0.73193(18) 0.1032(3)
C36N C 0.63560(14) 0.6988(2) 0.1321(3)
H47N H 0.6662 0.6978 0.1238
C37N C 0.61596(18) 0.66700(18) 0.1732(3)
H48N H 0.6331 0.6443 0.1930
C38N C 0.57119(19) 0.66841(18) 0.1853(3)
C39N C 0.54606(14) 0.70158(19) 0.1564(3)
C40N C 0.56569(16) 0.73334(17) 0.1153(3)
Si1E Si 0.39294(6) 0.45308(8) 0.24666(12)
Si2E Si 0.71798(5) 0.62463(5) 0.41361(8)
C1E C 0.46810(17) 0.50508(17) 0.3069(3)
C2E C 0.43686(19) 0.4845(2) 0.2855(4)
C3E C 0.62710(15) 0.58802(15) 0.3827(2)
C4E C 0.66309(17) 0.60369(17) 0.3953(3)
C5E C 0.50660(15) 0.52725(15) 0.3300(3)
C6E C 0.52074(14) 0.56433(14) 0.2946(3)
N1E N 0.49518(12) 0.58162(13) 0.2436(2)
C7E C 0.51062(15) 0.61529(15) 0.2080(3)
C8E C 0.55407(15) 0.63197(14) 0.2197(3)
N2E N 0.57774(11) 0.61755(11) 0.2720(2)
C9E C 0.56171(14) 0.58391(14) 0.3116(2)
C10E C 0.58611(14) 0.56859(14) 0.3669(2)
C11E C 0.57047(16) 0.53255(15) 0.4068(2)
C12E C 0.59337(19) 0.51663(17) 0.4653(3)
H1E H 0.6195 0.5306 0.4800
C13E C 0.5777(2) 0.48068(19) 0.5009(3)
H2E H 0.5925 0.4711 0.5415
C14E C 0.5404(2) 0.4581(2) 0.4782(3)
H3E H 0.5313 0.4324 0.5017
C15E C 0.51748(19) 0.47296(17) 0.4229(3)
H4E H 0.4918 0.4579 0.4086
C16E C 0.53127(16) 0.51059(15) 0.3862(3)
C17E C 0.3407(2) 0.4680(4) 0.2847(6)
H5E H 0.3373 0.4970 0.2613
C18E C 0.3415(4) 0.4836(5) 0.3547(6)
H6E H 0.3702 0.4963 0.3648
H7E H 0.3189 0.5060 0.3608
H8E H 0.3359 0.4592 0.3865
C19E C 0.3012(2) 0.4478(3) 0.2581(5)
H9E H 0.3059 0.4389 0.2098
H10E H 0.2941 0.4220 0.2861
H11E H 0.2770 0.4687 0.2604
C20E C 0.3999(4) 0.3956(3) 0.2826(7)
H12E H 0.3720 0.3796 0.2728
C21E C 0.4343(5) 0.3734(4) 0.2431(9)
H13E H 0.4281 0.3758 0.1934
H14E H 0.4626 0.3871 0.2531
H15E H 0.4354 0.3425 0.2564
C22E C 0.4070(6) 0.3935(5) 0.3614(7)
H16E H 0.3831 0.4087 0.3850
H17E H 0.4077 0.3628 0.3763
H18E H 0.4349 0.4075 0.3731
C23E C 0.3963(3) 0.4548(4) 0.1527(5)
H19E H 0.3775 0.4314 0.1320
C24E C 0.3805(6) 0.4998(6) 0.1292(10)
H20E H 0.3506 0.5046 0.1459
H21E H 0.3998 0.5223 0.1481
H22E H 0.3809 0.5012 0.0784
C25E C 0.4421(4) 0.4523(6) 0.1232(8)
H23E H 0.4553 0.4242 0.1356
H24E H 0.4409 0.4550 0.0726
H25E H 0.4598 0.4761 0.1423
C26E C 0.71437(18) 0.65209(18) 0.5000(3)
H26E H 0.7436 0.6655 0.5093
C27E C 0.7056(3) 0.6203(2) 0.5576(3)
H27E H 0.7276 0.5970 0.5565
H28E H 0.7071 0.6355 0.6022
H29E H 0.6764 0.6076 0.5517
C28E C 0.6812(2) 0.6891(2) 0.4993(4)
H30E H 0.6879 0.7091 0.4611
H31E H 0.6518 0.6770 0.4929
H32E H 0.6825 0.7049 0.5434
C29E C 0.75386(19) 0.5741(2) 0.4216(4)
H33E H 0.7409 0.5561 0.4597
C30E C 0.7529(3) 0.5458(3) 0.3579(4)
H34E H 0.7225 0.5398 0.3451
H35E H 0.7676 0.5610 0.3197
H36E H 0.7680 0.5182 0.3675
C31E C 0.7999(2) 0.5844(2) 0.4437(5)
H37E H 0.7993 0.6028 0.4852
H38E H 0.8154 0.5571 0.4540
H39E H 0.8150 0.5999 0.4062
C32E C 0.73536(19) 0.6606(2) 0.3422(3)
H40E H 0.7477 0.6410 0.3055
C33E C 0.6983(2) 0.6862(2) 0.3077(4)
H41E H 0.6747 0.6662 0.2949
H42E H 0.6871 0.7082 0.3401
H43E H 0.7094 0.7008 0.2660
C34E C 0.7717(2) 0.6918(3) 0.3618(4)
H44E H 0.7955 0.6756 0.3839
H45E H 0.7826 0.7064 0.3200
H46E H 0.7603 0.7138 0.3941
C35E C 0.48193(18) 0.63953(17) 0.1468(3)
C36E C 0.4488(2) 0.61440(14) 0.1179(3)
H47E H 0.4478 0.5838 0.1262
C37E C 0.41700(18) 0.63404(18) 0.0768(3)
H48E H 0.3943 0.6169 0.0570
C38E C 0.41841(18) 0.67881(19) 0.0647(3)
C39E C 0.45158(19) 0.70394(14) 0.0936(3)
C40E C 0.48334(17) 0.68431(16) 0.1347(3)
C41 C 0.5991(4) 0.8828(4) 0.2797(6)
H49 H 0.5755 0.8956 0.2502
Cl1 Cl 0.64948(16) 0.8995(2) 0.2470(3)
Cl2 Cl 0.59593(19) 0.82570(15) 0.2742(3)
Cl3 Cl 0.59070(14) 0.89915(14) 0.3645(2)
C42 C 0.4472(5) 0.8222(4) 0.4139(9)
H50 H 0.4249 0.8386 0.3862
Cl4 Cl 0.4948(2) 0.8187(4) 0.3636(6)
Cl5 Cl 0.4285(2) 0.77015(19) 0.4236(7)
Cl6 Cl 0.4530(3) 0.8495(4) 0.4936(6)
C43? C 0.52425(17) 0.8685(2) 0.1688(3)
C44? C 0.51867(17) 0.8686(2) 0.0973(3)
H51? H 0.4935 0.8818 0.0775
C45? C 0.5500(2) 0.8495(2) 0.0547(2)
H52? H 0.5462 0.8497 0.0059
C46? C 0.58684(17) 0.8302(2) 0.0837(3)
C47? C 0.59242(16) 0.8301(2) 0.1552(3)
H53? H 0.6176 0.8169 0.1750
C48? C 0.56112(19) 0.8492(2) 0.1978(2)
H54? H 0.5649 0.8490 0.2467
C49? C 0.4478(9) 0.8203(11) 0.4200(12)
H55? H 0.4265 0.8450 0.4169
Cl7? Cl 0.4454(6) 0.7953(9) 0.5013(11)
Cl8? Cl 0.5014(5) 0.8390(7) 0.4101(9)
Cl9? Cl 0.4356(7) 0.7801(7) 0.3595(11)
H56? H 0.4940 0.7985 0.1545
H57? H 0.5475 0.7655 0.0854
loop_
_geom_bond_atom_site_label_1
_geom_bond_atom_site_label_2
_geom_bond_site_symmetry_1
_geom_bond_site_symmetry_2
Si1 C2 1_555 1_555
Si2 C4 1_555 1_555
C1 C2 1_555 1_555
C3 C4 1_555 1_555
C5 C1 1_555 1_555
C6 C5 1_555 1_555
N1 C6 1_555 1_555
C7 N1 1_555 1_555
C8 C7 1_555 1_555
N2 C8 1_555 1_555
C9 C6 1_555 1_555
C10 C3 1_555 1_555
C11 C10 1_555 1_555
C12 C11 1_555 1_555
H1 C12 1_555 1_555
C13 C12 1_555 1_555
H2 C13 1_555 1_555
C14 C13 1_555 1_555
H3 C14 1_555 1_555
C15 C14 1_555 1_555
H4 C15 1_555 1_555
C16 C5 1_555 1_555
C17 Si1 1_555 1_555
H5 C17 1_555 1_555
C18 C17 1_555 1_555
H6 C18 1_555 1_555
H7 C18 1_555 1_555
H8 C18 1_555 1_555
C19 C17 1_555 1_555
H9 C19 1_555 1_555
H10 C19 1_555 1_555
H11 C19 1_555 1_555
C20 Si1 1_555 1_555
H12 C20 1_555 1_555
C21 C20 1_555 1_555
H13 C21 1_555 1_555
H14 C21 1_555 1_555
H15 C21 1_555 1_555
C22 C20 1_555 1_555
H16 C22 1_555 1_555
H17 C22 1_555 1_555
H18 C22 1_555 1_555
C23 Si1 1_555 1_555
H19 C23 1_555 1_555
C24 C23 1_555 1_555
H20 C24 1_555 1_555
H21 C24 1_555 1_555
H22 C24 1_555 1_555
C25 C23 1_555 1_555
H23 C25 1_555 1_555
H24 C25 1_555 1_555
H25 C25 1_555 1_555
C26 Si2 1_555 1_555
H26 C26 1_555 1_555
C27 C26 1_555 1_555
H27 C27 1_555 1_555
H28 C27 1_555 1_555
H29 C27 1_555 1_555
C28 C26 1_555 1_555
H30 C28 1_555 1_555
H31 C28 1_555 1_555
H32 C28 1_555 1_555
C29 Si2 1_555 1_555
H33 C29 1_555 1_555
C30 C29 1_555 1_555
H34 C30 1_555 1_555
H35 C30 1_555 1_555
H36 C30 1_555 1_555
C31 C29 1_555 1_555
H37 C31 1_555 1_555
H38 C31 1_555 1_555
H39 C31 1_555 1_555
C32 Si2 1_555 1_555
H40 C32 1_555 1_555
C33 C32 1_555 1_555
H41 C33 1_555 1_555
H42 C33 1_555 1_555
H43 C33 1_555 1_555
C34 C32 1_555 1_555
H44 C34 1_555 1_555
H45 C34 1_555 1_555
H46 C34 1_555 1_555
C35 C7 1_555 1_555
C36 C35 1_555 1_555
H47 C36 1_555 1_555
C37 C36 1_555 1_555
H48 C37 1_555 1_555
C38 C37 1_555 1_555
C39 C38 1_555 1_555
C40 C35 1_555 1_555
C41 H49 1_555 1_555
Cl1 C41 1_555 1_555
Cl2 C41 1_555 1_555
Cl3 C41 1_555 1_555
C42 H50 1_555 1_555
Cl4 C42 1_555 1_555
Cl5 C42 1_555 1_555
Cl6 C42 1_555 1_555
Si1K C2K 1_555 1_555
Si2K C4K 1_555 1_555
C1K C2K 1_555 1_555
C3K C4K 1_555 1_555
C5K C1K 1_555 1_555
C6K C5K 1_555 1_555
N1K C6K 1_555 1_555
C7K N1K 1_555 1_555
C8K C7K 1_555 1_555
N2K C8K 1_555 1_555
C9K C6K 1_555 1_555
C10K C3K 1_555 1_555
C11K C10K 1_555 1_555
C12K C11K 1_555 1_555
H1K C12K 1_555 1_555
C13K C12K 1_555 1_555
H2K C13K 1_555 1_555
C14K C13K 1_555 1_555
H3K C14K 1_555 1_555
C15K C14K 1_555 1_555
H4K C15K 1_555 1_555
C16K C5K 1_555 1_555
C17K Si1K 1_555 1_555
H5K C17K 1_555 1_555
C18K C17K 1_555 1_555
H6K C18K 1_555 1_555
H7K C18K 1_555 1_555
H8K C18K 1_555 1_555
C19K C17K 1_555 1_555
H9K C19K 1_555 1_555
H10K C19K 1_555 1_555
H11K C19K 1_555 1_555
C20K Si1K 1_555 1_555
H12K C20K 1_555 1_555
C21K C20K 1_555 1_555
H13K C21K 1_555 1_555
H14K C21K 1_555 1_555
H15K C21K 1_555 1_555
C22K C20K 1_555 1_555
H16K C22K 1_555 1_555
H17K C22K 1_555 1_555
H18K C22K 1_555 1_555
C23K Si1K 1_555 1_555
H19K C23K 1_555 1_555
C24K C23K 1_555 1_555
H20K C24K 1_555 1_555
H21K C24K 1_555 1_555
H22K C24K 1_555 1_555
C25K C23K 1_555 1_555
H23K C25K 1_555 1_555
H24K C25K 1_555 1_555
H25K C25K 1_555 1_555
C26K Si2K 1_555 1_555
H26K C26K 1_555 1_555
C27K C26K 1_555 1_555
H27K C27K 1_555 1_555
H28K C27K 1_555 1_555
H29K C27K 1_555 1_555
C28K C26K 1_555 1_555
H30K C28K 1_555 1_555
H31K C28K 1_555 1_555
H32K C28K 1_555 1_555
C29K Si2K 1_555 1_555
H33K C29K 1_555 1_555
C30K C29K 1_555 1_555
H34K C30K 1_555 1_555
H35K C30K 1_555 1_555
H36K C30K 1_555 1_555
C31K C29K 1_555 1_555
H37K C31K 1_555 1_555
H38K C31K 1_555 1_555
H39K C31K 1_555 1_555
C32K Si2K 1_555 1_555
H40K C32K 1_555 1_555
C33K C32K 1_555 1_555
H41K C33K 1_555 1_555
H42K C33K 1_555 1_555
H43K C33K 1_555 1_555
C34K C32K 1_555 1_555
H44K C34K 1_555 1_555
H45K C34K 1_555 1_555
H46K C34K 1_555 1_555
C35K C7K 1_555 1_555
C36K C35K 1_555 1_555
H47K C36K 1_555 1_555
C37K C36K 1_555 1_555
H48K C37K 1_555 1_555
C38K C8 1_555 1_555
C39K C38K 1_555 1_555
C40K C35K 1_555 1_555
Si1N C2N 1_555 1_555
Si2N C4N 1_555 1_555
C1N C2N 1_555 1_555
C3N C4N 1_555 1_555
C5N C1N 1_555 1_555
C6N C5N 1_555 1_555
N1N C6N 1_555 1_555
C7N N1N 1_555 1_555
C8N C38 1_555 1_555
N2N C8N 1_555 1_555
C9N C6N 1_555 1_555
C10N C3N 1_555 1_555
C11N C10N 1_555 1_555
C12N C11N 1_555 1_555
H1N C12N 1_555 1_555
C13N C12N 1_555 1_555
H2N C13N 1_555 1_555
C14N C13N 1_555 1_555
H3N C14N 1_555 1_555
C15N C14N 1_555 1_555
H4N C15N 1_555 1_555
C16N C5N 1_555 1_555
C17N Si1N 1_555 1_555
H5N C17N 1_555 1_555
C18N C17N 1_555 1_555
H6N C18N 1_555 1_555
H7N C18N 1_555 1_555
H8N C18N 1_555 1_555
C19N C17N 1_555 1_555
H9N C19N 1_555 1_555
H10N C19N 1_555 1_555
H11N C19N 1_555 1_555
C20N Si1N 1_555 1_555
H12N C20N 1_555 1_555
C21N C20N 1_555 1_555
H13N C21N 1_555 1_555
H14N C21N 1_555 1_555
H15N C21N 1_555 1_555
C22N C20N 1_555 1_555
H16N C22N 1_555 1_555
H17N C22N 1_555 1_555
H18N C22N 1_555 1_555
C23N Si1N 1_555 1_555
H19N C23N 1_555 1_555
C24N C23N 1_555 1_555
H20N C24N 1_555 1_555
H21N C24N 1_555 1_555
H22N C24N 1_555 1_555
C25N C23N 1_555 1_555
H23N C25N 1_555 1_555
H24N C25N 1_555 1_555
H25N C25N 1_555 1_555
C26N Si2N 1_555 1_555
H26N C26N 1_555 1_555
C27N C26N 1_555 1_555
H27N C27N 1_555 1_555
H28N C27N 1_555 1_555
H29N C27N 1_555 1_555
C28N C26N 1_555 1_555
H30N C28N 1_555 1_555
H31N C28N 1_555 1_555
H32N C28N 1_555 1_555
C29N Si2N 1_555 1_555
H33N C29N 1_555 1_555
C30N C29N 1_555 1_555
H34N C30N 1_555 1_555
H35N C30N 1_555 1_555
H36N C30N 1_555 1_555
C31N C29N 1_555 1_555
H37N C31N 1_555 1_555
H38N C31N 1_555 1_555
H39N C31N 1_555 1_555
C32N Si2N 1_555 1_555
H40N C32N 1_555 1_555
C33N C32N 1_555 1_555
H41N C33N 1_555 1_555
H42N C33N 1_555 1_555
H43N C33N 1_555 1_555
C34N C32N 1_555 1_555
H44N C34N 1_555 1_555
H45N C34N 1_555 1_555
H46N C34N 1_555 1_555
C35N C7N 1_555 1_555
C36N C35N 1_555 1_555
H47N C36N 1_555 1_555
C37N C36N 1_555 1_555
H48N C37N 1_555 1_555
C38N C37N 1_555 1_555
C39N C38N 1_555 1_555
C40N C35N 1_555 1_555
Si1E C2E 1_555 1_555
Si2E C4E 1_555 1_555
C1E C2E 1_555 1_555
C3E C4E 1_555 1_555
C5E C1E 1_555 1_555
C6E C5E 1_555 1_555
N1E C6E 1_555 1_555
C7E N1E 1_555 1_555
C8E C38N 1_555 1_555
N2E C8E 1_555 1_555
C9E C6E 1_555 1_555
C10E C3E 1_555 1_555
C11E C10E 1_555 1_555
C12E C11E 1_555 1_555
H1E C12E 1_555 1_555
C13E C12E 1_555 1_555
H2E C13E 1_555 1_555
C14E C13E 1_555 1_555
H3E C14E 1_555 1_555
C15E C14E 1_555 1_555
H4E C15E 1_555 1_555
C16E C5E 1_555 1_555
C17E Si1E 1_555 1_555
H5E C17E 1_555 1_555
C18E C17E 1_555 1_555
H6E C18E 1_555 1_555
H7E C18E 1_555 1_555
H8E C18E 1_555 1_555
C19E C17E 1_555 1_555
H9E C19E 1_555 1_555
H10E C19E 1_555 1_555
H11E C19E 1_555 1_555
C20E Si1E 1_555 1_555
H12E C20E 1_555 1_555
C21E C20E 1_555 1_555
H13E C21E 1_555 1_555
H14E C21E 1_555 1_555
H15E C21E 1_555 1_555
C22E C20E 1_555 1_555
H16E C22E 1_555 1_555
H17E C22E 1_555 1_555
H18E C22E 1_555 1_555
C23E Si1E 1_555 1_555
H19E C23E 1_555 1_555
C24E C23E 1_555 1_555
H20E C24E 1_555 1_555
H21E C24E 1_555 1_555
H22E C24E 1_555 1_555
C25E C23E 1_555 1_555
H23E C25E 1_555 1_555
H24E C25E 1_555 1_555
H25E C25E 1_555 1_555
C26E Si2E 1_555 1_555
H26E C26E 1_555 1_555
C27E C26E 1_555 1_555
H27E C27E 1_555 1_555
H28E C27E 1_555 1_555
H29E C27E 1_555 1_555
C28E C26E 1_555 1_555
H30E C28E 1_555 1_555
H31E C28E 1_555 1_555
H32E C28E 1_555 1_555
C29E Si2E 1_555 1_555
H33E C29E 1_555 1_555
C30E C29E 1_555 1_555
H34E C30E 1_555 1_555
H35E C30E 1_555 1_555
H36E C30E 1_555 1_555
C31E C29E 1_555 1_555
H37E C31E 1_555 1_555
H38E C31E 1_555 1_555
H39E C31E 1_555 1_555
C32E Si2E 1_555 1_555
H40E C32E 1_555 1_555
C33E C32E 1_555 1_555
H41E C33E 1_555 1_555
H42E C33E 1_555 1_555
H43E C33E 1_555 1_555
C34E C32E 1_555 1_555
H44E C34E 1_555 1_555
H45E C34E 1_555 1_555
H46E C34E 1_555 1_555
C35E C7E 1_555 1_555
C36E C35E 1_555 1_555
H47E C36E 1_555 1_555
C37E C36E 1_555 1_555
H48E C37E 1_555 1_555
C38E C8K 1_555 1_555
C39E C38E 1_555 1_555
C40E C35E 1_555 1_555
N2 C9 1_555 1_555
C9 C10 1_555 1_555
C11 C16 1_555 1_555
C15 C16 1_555 1_555
C39 C40 1_555 1_555
N2K C9K 1_555 1_555
C9K C10K 1_555 1_555
C11K C16K 1_555 1_555
C15K C16K 1_555 1_555
C37K C38K 1_555 1_555
C39K C40K 1_555 1_555
C7N C8N 1_555 1_555
N2N C9N 1_555 1_555
C9N C10N 1_555 1_555
C11N C16N 1_555 1_555
C15N C16N 1_555 1_555
C39N C40N 1_555 1_555
C7E C8E 1_555 1_555
N2E C9E 1_555 1_555
C9E C10E 1_555 1_555
C11E C16E 1_555 1_555
C15E C16E 1_555 1_555
C37E C38E 1_555 1_555
C39E C40E 1_555 1_555

#END
