
#######################################################################
#
#                 Cambridge Crystallographic Data Centre
#                                CCDC 
#
#######################################################################
#
# If this CIF has been generated from an entry in the Cambridge 
# Structural Database, then it will include bibliographic, chemical, 
# crystal, experimental, refinement or atomic coordinate data resulting 
# from the CCDC's data processing and validation procedures.
#
#######################################################################

data_VAYNER
_chemical_formula_moiety         'C48 H56 N4 Si2,0.5(C1 H1 Cl3)'
_chemical_name_systematic        
'2,3-diphenyl-5,12-bis{[triisopropylsilyl]ethynyl}pyrazino[2,3-b]phenazine chloroform solvate'
_symmetry_cell_setting           monoclinic
_symmetry_space_group_name_H-M   'C 2/c'
_symmetry_Int_Tables_number      15
_space_group_name_Hall           '-C 2yn'
loop_
_symmetry_equiv_pos_site_id
_symmetry_equiv_pos_as_xyz
1 x,y,z
2 -x,y,1/2-z
3 1/2+x,1/2+y,z
4 1/2-x,1/2+y,1/2-z
5 -x,-y,-z
6 x,-y,1/2+z
7 1/2-x,1/2-y,-z
8 1/2+x,1/2-y,1/2+z
_cell_length_a                   34.913(3)
_cell_length_b                   17.6720(14)
_cell_length_c                   17.0637(13)
_cell_angle_alpha                90
_cell_angle_beta                 118.8814(19)
_cell_angle_gamma                90
_cell_volume                     9218.55
_exptl_crystal_colour            orange
_exptl_crystal_description       plate
_cell_formula_units_Z            8
loop_
_atom_site_label
_atom_site_type_symbol
_atom_site_fract_x
_atom_site_fract_y
_atom_site_fract_z
Si1 Si 0.39535(5) 0.56836(17) 0.87048(10)
Si2 Si 0.10049(5) 0.46955(12) 0.14715(9)
C1 C 0.31787(17) 0.5322(4) 0.6898(3)
C2 C 0.34868(18) 0.5436(4) 0.7621(4)
C3 C 0.17378(16) 0.4854(4) 0.3374(3)
C4 C 0.14465(17) 0.4777(4) 0.2628(4)
C5 C 0.28117(16) 0.5198(4) 0.6017(3)
C6 C 0.24880(16) 0.5747(4) 0.5610(3)
N1 N 0.25165(14) 0.6406(3) 0.6063(3)
C7 C 0.21999(17) 0.6901(4) 0.5701(3)
C8 C 0.18208(17) 0.6761(4) 0.4816(4)
N2 N 0.17938(13) 0.6148(3) 0.4365(3)
C9 C 0.21222(16) 0.5621(4) 0.4741(3)
C10 C 0.20953(16) 0.4968(4) 0.4267(3)
C11 C 0.24246(16) 0.4402(4) 0.4657(3)
N3 N 0.24025(15) 0.3780(3) 0.4185(3)
C12 C 0.27137(19) 0.3269(4) 0.4586(4)
C13 C 0.2717(2) 0.2612(4) 0.4112(4)
H1 H 0.2497 0.2553 0.3506
C14 C 0.3024(2) 0.2066(4) 0.4499(4)
H2 H 0.3017 0.1627 0.4172
C15 C 0.3360(2) 0.2163(5) 0.5412(4)
H3 H 0.3576 0.1780 0.5685
C16 C 0.3378(2) 0.2773(4) 0.5885(4)
H4 H 0.3604 0.2817 0.6488
C17 C 0.30609(18) 0.3367(4) 0.5494(4)
N4 N 0.30871(14) 0.3978(3) 0.5963(3)
C18 C 0.27815(17) 0.4515(4) 0.5561(3)
C19 C 0.22474(17) 0.7589(4) 0.6239(3)
C20 C 0.19203(18) 0.7819(4) 0.6425(3)
H5 H 0.1652 0.7548 0.6182
C21 C 0.1985(2) 0.8442(4) 0.6966(4)
H6 H 0.1763 0.8592 0.7105
C22 C 0.2368(2) 0.8844(4) 0.7301(4)
H7 H 0.2408 0.9280 0.7657
C23 C 0.2694(2) 0.8621(4) 0.7126(4)
H8 H 0.2959 0.8901 0.7364
C24 C 0.26399(18) 0.7991(4) 0.6605(4)
H9 H 0.2870 0.7830 0.6496
C25 C 0.14536(18) 0.7306(4) 0.4388(3)
C26 C 0.10305(18) 0.7024(4) 0.3998(4)
H10 H 0.0982 0.6495 0.3999
C27 C 0.0677(2) 0.7520(5) 0.3605(4)
H11 H 0.0387 0.7330 0.3362
C28 C 0.0743(2) 0.8268(5) 0.3569(4)
H12 H 0.0499 0.8599 0.3301
C29 C 0.1160(2) 0.8560(5) 0.3915(4)
H13 H 0.1205 0.9085 0.3871
C30 C 0.1512(2) 0.8070(5) 0.4328(4)
H14 H 0.1801 0.8266 0.4575
C31 C 0.4403(2) 0.4999(7) 0.8925(5)
H15 H 0.4648 0.5108 0.9539
C32 C 0.4266(3) 0.4196(7) 0.8922(7)
H16 H 0.4015 0.4077 0.8338
H17 H 0.4183 0.4128 0.9390
H18 H 0.4509 0.3857 0.9036
C33 C 0.4581(2) 0.5120(6) 0.8260(6)
H19 H 0.4811 0.4748 0.8380
H20 H 0.4702 0.5632 0.8334
H21 H 0.4343 0.5057 0.7646
C34 C 0.3759(2) 0.5646(7) 0.9561(4)
H22 H 0.3646 0.6171 0.9535
C35 C 0.3388(2) 0.5196(5) 0.9363(4)
H23 H 0.3449 0.4668 0.9289
H24 H 0.3138 0.5377 0.8809
H25 H 0.3319 0.5233 0.9855
C36 C 0.4135(2) 0.5599(6) 1.0522(4)
H26 H 0.4016 0.5556 1.0935
H27 H 0.4314 0.6057 1.0662
H28 H 0.4315 0.5155 1.0584
C37 C 0.4111(2) 0.6676(5) 0.8578(4)
H29 H 0.4167 0.6662 0.8057
C38 C 0.3737(3) 0.7238(6) 0.8326(6)
H30 H 0.3679 0.7298 0.8830
H31 H 0.3474 0.7050 0.7804
H32 H 0.3819 0.7729 0.8182
C39 C 0.4537(3) 0.6945(6) 0.9376(5)
H33 H 0.4647 0.7387 0.9200
H34 H 0.4754 0.6537 0.9569
H35 H 0.4483 0.7082 0.9870
C40 C 0.05088(19) 0.5115(5) 0.1449(4)
H36 H 0.0261 0.5072 0.0824
C41 C 0.0382(2) 0.4677(6) 0.2071(5)
H37 H 0.0607 0.4751 0.2695
H38 H 0.0357 0.4137 0.1925
H39 H 0.0101 0.4864 0.1989
C42 C 0.0573(2) 0.5950(6) 0.1701(5)
H40 H 0.0316 0.6140 0.1728
H41 H 0.0610 0.6235 0.1250
H42 H 0.0833 0.6012 0.2287
C43 C 0.11773(18) 0.5288(4) 0.0789(3)
H43 H 0.1237 0.5805 0.1060
C44 C 0.0814(2) 0.5382(5) -0.0194(4)
H44 H 0.0924 0.5690 -0.0520
H45 H 0.0560 0.5633 -0.0208
H46 H 0.0727 0.4883 -0.0477
C45 C 0.1599(2) 0.5019(5) 0.0838(5)
H47 H 0.1555 0.4517 0.0564
H48 H 0.1827 0.4992 0.1466
H49 H 0.1688 0.5375 0.0516
C46 C 0.0948(2) 0.3684(4) 0.1117(4)
H50 H 0.1149 0.3606 0.0861
C47 C 0.0487(2) 0.3483(4) 0.0373(4)
H51 H 0.0484 0.2960 0.0181
H52 H 0.0405 0.3824 -0.0137
H53 H 0.0278 0.3538 0.0599
C48 C 0.1092(2) 0.3122(5) 0.1896(4)
H54 H 0.0902 0.3176 0.2168
H55 H 0.1395 0.3226 0.2346
H56 H 0.1070 0.2604 0.1672
C49? C 0.5012(8) 0.2709(13) 0.7453(12)
H57? H 0.5179 0.3055 0.7262
Cl1? Cl 0.5411(3) 0.2218(7) 0.8282(7)
Cl2? Cl 0.47357(16) 0.3302(3) 0.7725(4)
Cl3? Cl 0.4705(4) 0.2216(7) 0.6519(7)
loop_
_geom_bond_atom_site_label_1
_geom_bond_atom_site_label_2
_geom_bond_site_symmetry_1
_geom_bond_site_symmetry_2
Si1 C2 1_555 1_555
Si2 C4 1_555 1_555
C1 C2 1_555 1_555
C3 C4 1_555 1_555
C5 C1 1_555 1_555
C6 C5 1_555 1_555
N1 C6 1_555 1_555
C7 N1 1_555 1_555
C8 C7 1_555 1_555
N2 C8 1_555 1_555
C9 C6 1_555 1_555
C10 C3 1_555 1_555
C11 C10 1_555 1_555
N3 C11 1_555 1_555
C12 N3 1_555 1_555
C13 C12 1_555 1_555
H1 C13 1_555 1_555
C14 C13 1_555 1_555
H2 C14 1_555 1_555
C15 C14 1_555 1_555
H3 C15 1_555 1_555
C16 C15 1_555 1_555
H4 C16 1_555 1_555
C17 C12 1_555 1_555
N4 C17 1_555 1_555
C18 C5 1_555 1_555
C19 C7 1_555 1_555
C20 C19 1_555 1_555
H5 C20 1_555 1_555
C21 C20 1_555 1_555
H6 C21 1_555 1_555
C22 C21 1_555 1_555
H7 C22 1_555 1_555
C23 C22 1_555 1_555
H8 C23 1_555 1_555
C24 C19 1_555 1_555
H9 C24 1_555 1_555
C25 C8 1_555 1_555
C26 C25 1_555 1_555
H10 C26 1_555 1_555
C27 C26 1_555 1_555
H11 C27 1_555 1_555
C28 C27 1_555 1_555
H12 C28 1_555 1_555
C29 C28 1_555 1_555
H13 C29 1_555 1_555
C30 C25 1_555 1_555
H14 C30 1_555 1_555
C31 Si1 1_555 1_555
H15 C31 1_555 1_555
C32 C31 1_555 1_555
H16 C32 1_555 1_555
H17 C32 1_555 1_555
H18 C32 1_555 1_555
C33 C31 1_555 1_555
H19 C33 1_555 1_555
H20 C33 1_555 1_555
H21 C33 1_555 1_555
C34 Si1 1_555 1_555
H22 C34 1_555 1_555
C35 C34 1_555 1_555
H23 C35 1_555 1_555
H24 C35 1_555 1_555
H25 C35 1_555 1_555
C36 C34 1_555 1_555
H26 C36 1_555 1_555
H27 C36 1_555 1_555
H28 C36 1_555 1_555
C37 Si1 1_555 1_555
H29 C37 1_555 1_555
C38 C37 1_555 1_555
H30 C38 1_555 1_555
H31 C38 1_555 1_555
H32 C38 1_555 1_555
C39 C37 1_555 1_555
H33 C39 1_555 1_555
H34 C39 1_555 1_555
H35 C39 1_555 1_555
C40 Si2 1_555 1_555
H36 C40 1_555 1_555
C41 C40 1_555 1_555
H37 C41 1_555 1_555
H38 C41 1_555 1_555
H39 C41 1_555 1_555
C42 C40 1_555 1_555
H40 C42 1_555 1_555
H41 C42 1_555 1_555
H42 C42 1_555 1_555
C43 Si2 1_555 1_555
H43 C43 1_555 1_555
C44 C43 1_555 1_555
H44 C44 1_555 1_555
H45 C44 1_555 1_555
H46 C44 1_555 1_555
C45 C43 1_555 1_555
H47 C45 1_555 1_555
H48 C45 1_555 1_555
H49 C45 1_555 1_555
C46 Si2 1_555 1_555
H50 C46 1_555 1_555
C47 C46 1_555 1_555
H51 C47 1_555 1_555
H52 C47 1_555 1_555
H53 C47 1_555 1_555
C48 C46 1_555 1_555
H54 C48 1_555 1_555
H55 C48 1_555 1_555
H56 C48 1_555 1_555
N2 C9 1_555 1_555
C9 C10 1_555 1_555
C11 C18 1_555 1_555
C16 C17 1_555 1_555
N4 C18 1_555 1_555
C23 C24 1_555 1_555
C29 C30 1_555 1_555

#END
