
#######################################################################
#
#                 Cambridge Crystallographic Data Centre
#                                CCDC 
#
#######################################################################
#
# If this CIF has been generated from an entry in the Cambridge 
# Structural Database, then it will include bibliographic, chemical, 
# crystal, experimental, refinement or atomic coordinate data resulting 
# from the CCDC's data processing and validation procedures.
#
#######################################################################

data_VAYNAN
_chemical_formula_moiety         'C46 H56 N2 Si2'
_chemical_name_systematic        
2,3-diphenyl-5,10-bis{[triisopropylsilyl]ethynyl}benzo[g]quinoxaline
_symmetry_cell_setting           triclinic
_symmetry_space_group_name_H-M   'P -1'
_symmetry_Int_Tables_number      2
_space_group_name_Hall           '-P 1'
loop_
_symmetry_equiv_pos_site_id
_symmetry_equiv_pos_as_xyz
1 x,y,z
2 -x,-y,-z
_cell_length_a                   9.8834(8)
_cell_length_b                   12.7107(10)
_cell_length_c                   17.9979(14)
_cell_angle_alpha                80.938(2)
_cell_angle_beta                 85.614(2)
_cell_angle_gamma                71.440(2)
_cell_volume                     2115.8
_exptl_crystal_colour            yellow
_exptl_crystal_description       plate
_cell_formula_units_Z            2
loop_
_atom_site_label
_atom_site_type_symbol
_atom_site_fract_x
_atom_site_fract_y
_atom_site_fract_z
Si1 Si 0.06394(15) 0.44545(12) 0.77236(8)
Si2 Si 0.86887(16) 0.95098(13) 0.79745(10)
C1 C 0.2665(5) 0.5816(4) 0.7731(3)
C2 C 0.1845(5) 0.5289(4) 0.7725(3)
C3 C 0.6670(5) 0.8193(4) 0.7826(3)
C4 C 0.7512(6) 0.8678(5) 0.7880(3)
C5 C 0.3659(5) 0.6424(4) 0.7760(3)
C6 C 0.4253(5) 0.6850(4) 0.7096(3)
N1 N 0.3855(4) 0.6677(3) 0.6421(2)
C7 C 0.4418(5) 0.7062(4) 0.5800(3)
C8 C 0.5395(5) 0.7714(4) 0.5818(3)
N2 N 0.5804(4) 0.7865(3) 0.6457(2)
C9 C 0.5246(5) 0.7435(4) 0.7114(3)
C10 C 0.5644(5) 0.7607(4) 0.7805(3)
C11 C 0.5051(5) 0.7189(4) 0.8484(3)
C12 C 0.5417(6) 0.7347(5) 0.9192(3)
H1 H 0.6066 0.7754 0.9216
C13 C 0.4855(6) 0.6924(5) 0.9841(3)
H2 H 0.5127 0.7031 1.0312
C14 C 0.3873(6) 0.6330(5) 0.9822(3)
H3 H 0.3487 0.6037 1.0277
C15 C 0.3482(6) 0.6177(5) 0.9148(3)
H4 H 0.2810 0.5786 0.9139
C16 C 0.4053(5) 0.6588(4) 0.8461(3)
C17 C 0.4004(5) 0.6769(4) 0.5098(3)
C18 C 0.5013(6) 0.6376(4) 0.4548(3)
H5 H 0.5976 0.6344 0.4595
C19 C 0.4620(6) 0.6029(5) 0.3928(3)
H6 H 0.5312 0.5759 0.3549
C20 C 0.3221(6) 0.6079(5) 0.3865(3)
H7 H 0.2949 0.5841 0.3441
C21 C 0.2217(7) 0.6467(5) 0.4407(3)
H8 H 0.1253 0.6502 0.4357
C22 C 0.2612(6) 0.6809(5) 0.5026(3)
H9 H 0.1917 0.7073 0.5404
C23 C 0.5952(5) 0.8281(4) 0.5125(3)
C24 C 0.7328(5) 0.8321(4) 0.5109(3)
H10 H 0.7917 0.7965 0.5527
C25 C 0.7865(6) 0.8875(5) 0.4488(3)
H11 H 0.8819 0.8895 0.4479
C26 C 0.6999(6) 0.9398(5) 0.3881(3)
H12 H 0.7364 0.9770 0.3451
C27 C 0.5619(6) 0.9380(4) 0.3899(3)
H13 H 0.5025 0.9745 0.3484
C28 C 0.5089(6) 0.8828(4) 0.4524(3)
H14 H 0.4126 0.8826 0.4538
C29 C 0.0156(5) 0.4542(4) 0.6728(3)
H15 H -0.0396 0.4006 0.6723
C30 C -0.0813(7) 0.5710(5) 0.6418(3)
H16 H -0.1051 0.5714 0.5898
H17 H -0.0315 0.6263 0.6428
H18 H -0.1691 0.5901 0.6729
C31 C 0.1441(6) 0.4205(5) 0.6191(3)
H19 H 0.1111 0.4290 0.5679
H20 H 0.1999 0.3421 0.6347
H21 H 0.2039 0.4686 0.6203
C32 C -0.1009(5) 0.5111(5) 0.8289(3)
H22 H -0.1408 0.5904 0.8044
C33 C -0.2174(6) 0.4555(6) 0.8263(4)
H23 H -0.3041 0.4966 0.8525
H24 H -0.1839 0.3777 0.8511
H25 H -0.2384 0.4566 0.7738
C34 C -0.0728(7) 0.5162(6) 0.9098(3)
H26 H -0.1610 0.5592 0.9339
H27 H 0.0006 0.5528 0.9105
H28 H -0.0397 0.4400 0.9372
C35 C 0.172(2) 0.2977(9) 0.8076(11)
H29 H 0.2590 0.2863 0.7741
C36 C 0.232(4) 0.274(2) 0.8839(15)
H30 H 0.3055 0.2005 0.8898
H31 H 0.1560 0.2745 0.9222
H32 H 0.2751 0.3319 0.8900
C37 C 0.112(3) 0.2102(11) 0.7904(12)
H33 H 0.1863 0.1370 0.7971
H34 H 0.0811 0.2282 0.7383
H35 H 0.0308 0.2081 0.8245
C38 C 0.9477(6) 0.9795(5) 0.7015(3)
H36 H 0.9994 1.0348 0.7040
C39 C 0.8345(7) 1.0322(6) 0.6409(4)
H37 H 0.8817 1.0465 0.5922
H38 H 0.7694 1.1030 0.6546
H39 H 0.7804 0.9806 0.6375
C40 C 1.0566(7) 0.8750(5) 0.6767(4)
H40 H 1.0937 0.8938 0.6260
H41 H 1.0106 0.8172 0.6764
H42 H 1.1353 0.8469 0.7118
C41 C 1.0135(6) 0.8625(5) 0.8640(3)
H43 H 1.0646 0.7937 0.8406
C42 C 1.1253(7) 0.9204(6) 0.8719(4)
H44 H 1.2019 0.8695 0.9039
H45 H 1.0801 0.9887 0.8948
H46 H 1.1653 0.9399 0.8220
C43 C 0.9597(8) 0.8224(6) 0.9414(4)
H47 H 1.0399 0.7693 0.9699
H48 H 0.8887 0.7854 0.9357
H49 H 0.9159 0.8867 0.9685
C44 C 0.7603(13) 1.0780(8) 0.8424(7)
H50 H 0.8312 1.0997 0.8684
C45 C 0.6559(13) 1.0509(10) 0.9055(7)
H51 H 0.6105 1.1173 0.9304
H52 H 0.7087 0.9890 0.9424
H53 H 0.5826 1.0293 0.8836
C46 C 0.690(2) 1.1776(11) 0.7893(9)
H54 H 0.6333 1.2378 0.8174
H55 H 0.6279 1.1591 0.7572
H56 H 0.7630 1.2025 0.7580
C47? C 0.7453(18) 1.0816(13) 0.8293(15)
H57? H 0.7244 1.0549 0.8829
C48? C 0.803(3) 1.1723(17) 0.837(2)
H58? H 0.7251 1.2388 0.8477
H59? H 0.8537 1.1906 0.7903
H60? H 0.8700 1.1480 0.8787
C49? C 0.598(2) 1.125(3) 0.797(2)
H61? H 0.5521 1.2020 0.8062
H62? H 0.5411 1.0774 0.8205
H63? H 0.6065 1.1222 0.7424
C50? C 0.1520(19) 0.2998(9) 0.8220(9)
H64? H 0.0731 0.2762 0.8506
C51? C 0.254(3) 0.2995(19) 0.8816(15)
H65? H 0.2856 0.2251 0.9116
H66? H 0.2051 0.3554 0.9145
H67? H 0.3373 0.3179 0.8569
C52? C 0.222(3) 0.2105(12) 0.7740(9)
H68? H 0.2381 0.1367 0.8044
H69? H 0.3132 0.2188 0.7537
H70? H 0.1595 0.2174 0.7325
loop_
_geom_bond_atom_site_label_1
_geom_bond_atom_site_label_2
_geom_bond_site_symmetry_1
_geom_bond_site_symmetry_2
Si1 C2 1_555 1_555
Si2 C4 1_555 1_555
C1 C2 1_555 1_555
C3 C4 1_555 1_555
C5 C1 1_555 1_555
C6 C5 1_555 1_555
N1 C6 1_555 1_555
C7 N1 1_555 1_555
C8 C7 1_555 1_555
N2 C8 1_555 1_555
C9 C6 1_555 1_555
C10 C3 1_555 1_555
C11 C10 1_555 1_555
C12 C11 1_555 1_555
H1 C12 1_555 1_555
C13 C12 1_555 1_555
H2 C13 1_555 1_555
C14 C13 1_555 1_555
H3 C14 1_555 1_555
C15 C14 1_555 1_555
H4 C15 1_555 1_555
C16 C5 1_555 1_555
C17 C7 1_555 1_555
C18 C17 1_555 1_555
H5 C18 1_555 1_555
C19 C18 1_555 1_555
H6 C19 1_555 1_555
C20 C19 1_555 1_555
H7 C20 1_555 1_555
C21 C20 1_555 1_555
H8 C21 1_555 1_555
C22 C17 1_555 1_555
H9 C22 1_555 1_555
C23 C8 1_555 1_555
C24 C23 1_555 1_555
H10 C24 1_555 1_555
C25 C24 1_555 1_555
H11 C25 1_555 1_555
C26 C25 1_555 1_555
H12 C26 1_555 1_555
C27 C26 1_555 1_555
H13 C27 1_555 1_555
C28 C23 1_555 1_555
H14 C28 1_555 1_555
C29 Si1 1_555 1_555
H15 C29 1_555 1_555
C30 C29 1_555 1_555
H16 C30 1_555 1_555
H17 C30 1_555 1_555
H18 C30 1_555 1_555
C31 C29 1_555 1_555
H19 C31 1_555 1_555
H20 C31 1_555 1_555
H21 C31 1_555 1_555
C32 Si1 1_555 1_555
H22 C32 1_555 1_555
C33 C32 1_555 1_555
H23 C33 1_555 1_555
H24 C33 1_555 1_555
H25 C33 1_555 1_555
C34 C32 1_555 1_555
H26 C34 1_555 1_555
H27 C34 1_555 1_555
H28 C34 1_555 1_555
C35 Si1 1_555 1_555
H29 C35 1_555 1_555
C36 C35 1_555 1_555
H30 C36 1_555 1_555
H31 C36 1_555 1_555
H32 C36 1_555 1_555
C37 C35 1_555 1_555
H33 C37 1_555 1_555
H34 C37 1_555 1_555
H35 C37 1_555 1_555
C38 Si2 1_555 1_555
H36 C38 1_555 1_555
C39 C38 1_555 1_555
H37 C39 1_555 1_555
H38 C39 1_555 1_555
H39 C39 1_555 1_555
C40 C38 1_555 1_555
H40 C40 1_555 1_555
H41 C40 1_555 1_555
H42 C40 1_555 1_555
C41 Si2 1_555 1_555
H43 C41 1_555 1_555
C42 C41 1_555 1_555
H44 C42 1_555 1_555
H45 C42 1_555 1_555
H46 C42 1_555 1_555
C43 C41 1_555 1_555
H47 C43 1_555 1_555
H48 C43 1_555 1_555
H49 C43 1_555 1_555
C44 Si2 1_555 1_555
H50 C44 1_555 1_555
C45 C44 1_555 1_555
H51 C45 1_555 1_555
H52 C45 1_555 1_555
H53 C45 1_555 1_555
C46 C44 1_555 1_555
H54 C46 1_555 1_555
H55 C46 1_555 1_555
H56 C46 1_555 1_555
N2 C9 1_555 1_555
C9 C10 1_555 1_555
C11 C16 1_555 1_555
C15 C16 1_555 1_555
C21 C22 1_555 1_555
C27 C28 1_555 1_555

#END
