
#######################################################################
#
#                 Cambridge Crystallographic Data Centre
#                                CCDC 
#
#######################################################################
#
# If this CIF has been generated from an entry in the Cambridge 
# Structural Database, then it will include bibliographic, chemical, 
# crystal, experimental, refinement or atomic coordinate data resulting 
# from the CCDC's data processing and validation procedures.
#
#######################################################################

data_VAYNUF
_chemical_formula_moiety         'C28 H28 O4'
_chemical_name_systematic        
spiro[1,3-dioxolane-2,9'-tricyclo[6.2.2.0^1,6^]dodec[11]ene]-11',12'-diylbis(phenylmethanone)
_symmetry_cell_setting           triclinic
_symmetry_space_group_name_H-M   'P -1'
_symmetry_Int_Tables_number      2
_space_group_name_Hall           '-P 1'
loop_
_symmetry_equiv_pos_site_id
_symmetry_equiv_pos_as_xyz
1 x,y,z
2 -x,-y,-z
_cell_length_a                   9.186(2)
_cell_length_b                   11.417(4)
_cell_length_c                   12.118(3)
_cell_angle_alpha                73.302(6)
_cell_angle_beta                 73.658(4)
_cell_angle_gamma                66.352(4)
_cell_volume                     1094.92
_exptl_crystal_colour            colorless
_chemical_melting_point          '435-437 K'
_cell_formula_units_Z            2
loop_
_atom_site_label
_atom_site_type_symbol
_atom_site_fract_x
_atom_site_fract_y
_atom_site_fract_z
O1 O 0.50914(14) 0.27862(11) 0.26013(12)
O2 O 0.19160(18) 0.44929(13) 0.41535(11)
O3 O 0.08781(16) 0.10669(14) 0.12202(12)
C1 C 0.28707(19) 0.22019(15) 0.27525(14)
O4 O 0.27502(17) 0.20592(15) 0.04819(12)
C2 C 0.45917(19) 0.18913(15) 0.27811(14)
C3 C 0.17738(19) 0.33883(15) 0.28481(14)
C4 C 0.20933(19) 0.44568(15) 0.31307(15)
C5 C 0.21869(19) 0.12802(15) 0.25703(15)
H1 H 0.3028 0.0427 0.2501
C6 C 0.57310(19) 0.05195(15) 0.30370(14)
C7 C 0.0793(2) 0.11510(16) 0.36051(16)
H2 H 0.0229 0.0680 0.3439
H3 H 0.1228 0.0659 0.4310
C8 C -0.0402(2) 0.25087(17) 0.38070(16)
H4 H -0.0265 0.2635 0.4533
C9 C 0.0061(2) 0.35687(16) 0.27826(15)
C10 C 0.25156(19) 0.54837(15) 0.21653(16)
C11 C 0.7376(2) 0.02760(17) 0.25951(15)
H5 H 0.7721 0.0942 0.2097
C12 C 0.5246(2) -0.04887(16) 0.37822(15)
H6 H 0.4152 -0.0345 0.4081
C13 C 0.1489(2) 0.19226(18) 0.14531(15)
C14 C -0.2163(2) 0.2634(2) 0.3965(2)
H7 H -0.2297 0.2402 0.3299
H8 H -0.2422 0.2022 0.4664
C15 C 0.0172(2) 0.32456(18) 0.16050(16)
H9 H -0.0863 0.3229 0.1574
H10 H 0.0413 0.3921 0.0966
C16 C 0.8495(2) -0.09454(18) 0.28917(18)
H11 H 0.9590 -0.1103 0.2583
C17 C -0.1176(2) 0.49259(18) 0.2922(2)
H12 H -0.1077 0.5144 0.3607
H13 H -0.0934 0.5564 0.2242
C18 C 0.2792(2) 0.54203(18) 0.09965(17)
H14 H 0.2662 0.4743 0.0800
C19 C -0.3339(2) 0.4002(2) 0.4074(2)
H15 H -0.4427 0.4048 0.4108
H16 H -0.3317 0.4192 0.4798
C20 C 0.8000(2) -0.19336(18) 0.36432(18)
H17 H 0.8759 -0.2753 0.3852
C21 C 0.2691(2) 0.65071(18) 0.24499(19)
H18 H 0.2496 0.6567 0.3231
C22 C 0.6381(3) -0.17064(18) 0.40834(17)
H19 H 0.6047 -0.2375 0.4587
C23 C -0.2915(2) 0.5010(2) 0.3051(2)
H20 H -0.3649 0.5874 0.3168
H21 H -0.3049 0.4876 0.2336
C24 C 0.3259(3) 0.6354(2) 0.01186(19)
H22 H 0.3442 0.6305 -0.0665
C25 C 0.1222(3) 0.1173(2) -0.00054(19)
H23 H 0.0346 0.1856 -0.0361
H24 H 0.1401 0.0356 -0.0206
C26 C 0.3449(3) 0.7348(2) 0.0408(2)
H25 H 0.3779 0.7969 -0.0182
C27 C 0.3157(3) 0.7441(2) 0.1564(2)
H26 H 0.3273 0.8130 0.1750
C28 C 0.2712(3) 0.1498(3) -0.0388(2)
H27 H 0.3657 0.0717 -0.0475
H28 H 0.2694 0.2107 -0.1135
loop_
_geom_bond_atom_site_label_1
_geom_bond_atom_site_label_2
_geom_bond_site_symmetry_1
_geom_bond_site_symmetry_2
O1 C2 1_555 1_555
O2 C4 1_555 1_555
O3 C13 1_555 1_555
C1 C2 1_555 1_555
O4 C13 1_555 1_555
C2 C6 1_555 1_555
C3 C1 1_555 1_555
C4 C3 1_555 1_555
C5 C1 1_555 1_555
H1 C5 1_555 1_555
C6 C11 1_555 1_555
C7 C5 1_555 1_555
H2 C7 1_555 1_555
H3 C7 1_555 1_555
C8 C7 1_555 1_555
H4 C8 1_555 1_555
C9 C3 1_555 1_555
C10 C4 1_555 1_555
C11 H5 1_555 1_555
C12 C6 1_555 1_555
H6 C12 1_555 1_555
C13 C5 1_555 1_555
C14 C8 1_555 1_555
H7 C14 1_555 1_555
H8 C14 1_555 1_555
C15 C9 1_555 1_555
H9 C15 1_555 1_555
H10 C15 1_555 1_555
C16 C11 1_555 1_555
H11 C16 1_555 1_555
C17 C9 1_555 1_555
H12 C17 1_555 1_555
H13 C17 1_555 1_555
C18 C10 1_555 1_555
H14 C18 1_555 1_555
C19 C14 1_555 1_555
H15 C19 1_555 1_555
H16 C19 1_555 1_555
C20 C16 1_555 1_555
H17 C20 1_555 1_555
C21 C10 1_555 1_555
H18 C21 1_555 1_555
C22 C12 1_555 1_555
H19 C22 1_555 1_555
C23 C17 1_555 1_555
H20 C23 1_555 1_555
H21 C23 1_555 1_555
C24 C18 1_555 1_555
H22 C24 1_555 1_555
C25 O3 1_555 1_555
H23 C25 1_555 1_555
H24 C25 1_555 1_555
C26 C24 1_555 1_555
H25 C26 1_555 1_555
C27 C21 1_555 1_555
H26 C27 1_555 1_555
C28 O4 1_555 1_555
H27 C28 1_555 1_555
H28 C28 1_555 1_555
C8 C9 1_555 1_555
C13 C15 1_555 1_555
C19 C23 1_555 1_555
C20 C22 1_555 1_555
C25 C28 1_555 1_555
C26 C27 1_555 1_555

#END
