
#######################################################################
#
#                 Cambridge Crystallographic Data Centre
#                                CCDC 
#
#######################################################################
#
# If this CIF has been generated from an entry in the Cambridge 
# Structural Database, then it will include bibliographic, chemical, 
# crystal, experimental, refinement or atomic coordinate data resulting 
# from the CCDC's data processing and validation procedures.
#
#######################################################################

data_VAYNEO
_chemical_compound_source        'Zanthoxylum nitidum'
_chemical_formula_moiety         'C23 H23 N1 O5'
_chemical_name_systematic        6-Ethoxy-5,6-dihydrochelerythrine
_chemical_properties_biological  'antitumour activity'
_symmetry_cell_setting           triclinic
_symmetry_space_group_name_H-M   'P -1'
_symmetry_Int_Tables_number      2
_space_group_name_Hall           '-P 1'
loop_
_symmetry_equiv_pos_site_id
_symmetry_equiv_pos_as_xyz
1 x,y,z
2 -x,-y,-z
_cell_length_a                   7.659(3)
_cell_length_b                   10.183(10)
_cell_length_c                   13.396(2)
_cell_angle_alpha                92.21(7)
_cell_angle_beta                 100.86(2)
_cell_angle_gamma                108.16(7)
_cell_volume                     969.643
_exptl_crystal_colour            'light green'
_chemical_melting_point          200-210deg.C
_cell_formula_units_Z            2
loop_
_atom_site_label
_atom_site_type_symbol
_atom_site_fract_x
_atom_site_fract_y
_atom_site_fract_z
C1 C 0.4289(6) 1.0656(5) -0.3874(4)
C2 C 0.2849(6) 1.1175(5) -0.3982(4)
C3 C 0.1181(6) 1.0520(5) -0.3657(4)
C4 C 0.0902(6) 0.9334(5) -0.3204(4)
C5 C 0.2390(6) 0.8748(5) -0.3044(4)
C6 C 0.2220(6) 0.7516(4) -0.2575(4)
N1 N 0.0527(5) 0.6874(4) -0.2224(3)
C7 C 0.0012(6) 0.5386(4) -0.2257(4)
C8 C 0.1610(6) 0.4877(5) -0.1814(4)
C9 C 0.1310(6) 0.3690(5) -0.1321(4)
C10 C 0.2800(6) 0.3185(5) -0.0978(4)
C11 C 0.4571(6) 0.3910(5) -0.1137(4)
C12 C 0.4872(6) 0.5113(5) -0.1612(4)
C13 C 0.3408(6) 0.5641(5) -0.1965(4)
C14 C 0.3642(6) 0.6909(5) -0.2458(4)
C15 C 0.5288(6) 0.7594(5) -0.2821(4)
C16 C 0.5505(6) 0.8783(5) -0.3257(4)
C17 C 0.4080(6) 0.9418(5) -0.3385(4)
C18 C 0.0978(6) 1.2492(5) -0.4278(4)
C19 C 0.0504(6) 0.7552(5) -0.1233(4)
C20 C -0.2374(6) 0.4898(5) -0.3791(4)
C21 C -0.1480(7) 0.1768(5) -0.1750(4)
C22 C 0.3797(7) 0.1397(6) -0.0211(4)
C23 C -0.2867(7) 0.4180(5) -0.4856(4)
O1 O 0.2681(6) 1.2318(6) -0.4455(4)
O2 O 0.0036(6) 1.1256(5) -0.3885(4)
O3 O -0.0627(6) 0.4762(5) -0.3285(4)
O4 O -0.0443(6) 0.3043(5) -0.1136(4)
O5 O 0.2371(7) 0.2009(6) -0.0494(5)
loop_
_geom_bond_atom_site_label_1
_geom_bond_atom_site_label_2
_geom_bond_site_symmetry_1
_geom_bond_site_symmetry_2
C1 C2 1_555 1_555
C2 C3 1_555 1_555
C3 C4 1_555 1_555
C4 C5 1_555 1_555
C5 C6 1_555 1_555
C6 N1 1_555 1_555
N1 C7 1_555 1_555
C7 C8 1_555 1_555
C8 C9 1_555 1_555
C9 C10 1_555 1_555
C10 C11 1_555 1_555
C11 C12 1_555 1_555
C12 C13 1_555 1_555
C13 C8 1_555 1_555
C14 C6 1_555 1_555
C15 C14 1_555 1_555
C16 C15 1_555 1_555
C17 C1 1_555 1_555
C18 O1 1_555 1_555
C19 N1 1_555 1_555
C20 C23 1_555 1_555
C21 O4 1_555 1_555
C22 O5 1_555 1_555
O1 C2 1_555 1_555
O2 C3 1_555 1_555
O3 C7 1_555 1_555
O4 C9 1_555 1_555
O5 C10 1_555 1_555
C5 C17 1_555 1_555
C13 C14 1_555 1_555
C16 C17 1_555 1_555
C18 O2 1_555 1_555
C20 O3 1_555 1_555

#END
