
#######################################################################
#
#                 Cambridge Crystallographic Data Centre
#                                CCDC 
#
#######################################################################
#
# If this CIF has been generated from an entry in the Cambridge 
# Structural Database, then it will include bibliographic, chemical, 
# crystal, experimental, refinement or atomic coordinate data resulting 
# from the CCDC's data processing and validation procedures.
#
#######################################################################

data_VAYROF
_chemical_formula_moiety         'C14 H17 N1 O2'
_chemical_name_systematic        2-(morpholin-4-yl)-2-phenylbut-3-yn-1-ol
_symmetry_cell_setting           monoclinic
_symmetry_space_group_name_H-M   'P 21/c'
_symmetry_Int_Tables_number      14
_space_group_name_Hall           '-P 2ybc'
loop_
_symmetry_equiv_pos_site_id
_symmetry_equiv_pos_as_xyz
1 x,y,z
2 -x,1/2+y,1/2-z
3 -x,-y,-z
4 x,1/2-y,1/2+z
_cell_length_a                   7.927(3)
_cell_length_b                   14.292(5)
_cell_length_c                   22.707(8)
_cell_angle_alpha                90
_cell_angle_beta                 97.270(5)
_cell_angle_gamma                90
_cell_volume                     2551.86
_exptl_crystal_colour            white
_exptl_crystal_description       Block
_cell_formula_units_Z            8
loop_
_atom_site_label
_atom_site_type_symbol
_atom_site_fract_x
_atom_site_fract_y
_atom_site_fract_z
O1 O 0.90918(15) 0.31571(8) 0.12161(6)
H1 H 1.0007 0.3289 0.1104
O2 O 0.23009(14) 0.38601(9) 0.09633(5)
N1 N 0.57472(15) 0.42939(9) 0.13943(5)
C1 C 0.5313(2) 0.34776(12) 0.10160(8)
H2 H 0.6132 0.2981 0.1119
H3 H 0.5341 0.3643 0.0603
C2 C 0.3562(2) 0.31500(13) 0.11054(9)
H4 H 0.3270 0.2606 0.0857
H5 H 0.3562 0.2962 0.1516
C3 C 0.2761(2) 0.46854(14) 0.13002(9)
H6 H 0.2734 0.4555 0.1718
H7 H 0.1936 0.5173 0.1183
C4 C 0.4505(2) 0.50262(12) 0.12104(8)
H8 H 0.4535 0.5178 0.0795
H9 H 0.4779 0.5587 0.1443
C5 C 0.75307(19) 0.46123(11) 0.14319(7)
C6 C 0.78386(19) 0.53816(12) 0.19078(7)
C7 C 0.7177(2) 0.52789(13) 0.24410(7)
H10 H 0.6494 0.4766 0.2499
C8 C 0.7529(3) 0.59350(14) 0.28882(8)
H11 H 0.7059 0.5867 0.3241
C9 C 0.8563(2) 0.66826(15) 0.28153(9)
H12 H 0.8815 0.7115 0.3120
C10 C 0.9221(2) 0.67887(14) 0.22918(10)
H13 H 0.9916 0.7299 0.2240
C11 C 0.8867(2) 0.61457(12) 0.18373(8)
H14 H 0.9322 0.6227 0.1483
C12 C 0.7936(2) 0.49540(12) 0.08512(8)
C13 C 0.8150(3) 0.52254(16) 0.03818(10)
C14 C 0.8739(2) 0.37961(12) 0.16546(8)
H15 H 0.9805 0.4059 0.1839
H16 H 0.8238 0.3457 0.1959
H17 H 0.829(3) 0.5468(17) 0.0022(11)
O3 O 0.58649(15) 0.79379(9) 0.02449(5)
H18 H 0.6863 0.8084 0.0240
O4 O -0.07263(18) 0.83413(15) 0.03840(7)
N2 N 0.28158(17) 0.83623(10) 0.07755(6)
C15 C 0.6504(2) 0.92943(14) 0.17795(8)
H19 H 0.6659 0.8829 0.2068
C16 C 0.7400(3) 1.01235(15) 0.18654(9)
H20 H 0.8153 1.0209 0.2210
C17 C 0.7190(2) 1.08208(14) 0.14476(9)
H21 H 0.7798 1.1376 0.1507
C18 C 0.6066(2) 1.06904(13) 0.09383(8)
H22 H 0.5909 1.1162 0.0654
C19 C 0.5173(2) 0.98585(12) 0.08489(8)
H23 H 0.4427 0.9776 0.0502
C20 C 0.5372(2) 0.91478(12) 0.12670(7)
C21 C 0.4479(2) 0.82054(12) 0.11408(7)
C22 C 0.1589(2) 0.88271(14) 0.11052(8)
H24 H 0.2111 0.9371 0.1309
H25 H 0.1240 0.8403 0.1401
C23 C 0.0073(3) 0.91215(18) 0.06885(10)
H26 H -0.0733 0.9435 0.0909
H27 H 0.0423 0.9562 0.0402
C24 C 0.0450(3) 0.7843(2) 0.00768(11)
H28 H 0.0789 0.8238 -0.0235
H29 H -0.0106 0.7294 -0.0108
C25 C 0.2004(3) 0.75465(15) 0.04796(9)
H30 H 0.1687 0.7109 0.0773
H31 H 0.2792 0.7235 0.0251
C26 C 0.5648(2) 0.75820(13) 0.08091(8)
H32 H 0.6751 0.7530 0.1046
H33 H 0.5163 0.6959 0.0764
C27 C 0.4268(2) 0.77013(13) 0.16987(9)
C28 C 0.4058(3) 0.72720(16) 0.21221(11)
H34 H 0.387(3) 0.6901(17) 0.2454(11)
loop_
_geom_bond_atom_site_label_1
_geom_bond_atom_site_label_2
_geom_bond_site_symmetry_1
_geom_bond_site_symmetry_2
O1 H1 1_555 1_555
O2 C2 1_555 1_555
N1 C1 1_555 1_555
C1 H2 1_555 1_555
H3 C1 1_555 1_555
C2 C1 1_555 1_555
H4 C2 1_555 1_555
H5 C2 1_555 1_555
C3 O2 1_555 1_555
H6 C3 1_555 1_555
H7 C3 1_555 1_555
C4 N1 1_555 1_555
H8 C4 1_555 1_555
H9 C4 1_555 1_555
C5 N1 1_555 1_555
C6 C5 1_555 1_555
C7 C6 1_555 1_555
H10 C7 1_555 1_555
C8 C7 1_555 1_555
H11 C8 1_555 1_555
C9 C8 1_555 1_555
H12 C9 1_555 1_555
C10 C9 1_555 1_555
H13 C10 1_555 1_555
C11 C6 1_555 1_555
H14 C11 1_555 1_555
C12 C5 1_555 1_555
C13 C12 1_555 1_555
C14 O1 1_555 1_555
H15 C14 1_555 1_555
H16 C14 1_555 1_555
H17 C13 1_555 1_555
O3 H18 1_555 1_555
O4 C23 1_555 1_555
N2 C21 1_555 1_555
C15 H19 1_555 1_555
C16 C15 1_555 1_555
H20 C16 1_555 1_555
C17 C16 1_555 1_555
H21 C17 1_555 1_555
C18 C17 1_555 1_555
H22 C18 1_555 1_555
C19 C18 1_555 1_555
H23 C19 1_555 1_555
C20 C15 1_555 1_555
C21 C20 1_555 1_555
C22 N2 1_555 1_555
H24 C22 1_555 1_555
H25 C22 1_555 1_555
C23 C22 1_555 1_555
H26 C23 1_555 1_555
H27 C23 1_555 1_555
C24 O4 1_555 1_555
H28 C24 1_555 1_555
H29 C24 1_555 1_555
C25 N2 1_555 1_555
H30 C25 1_555 1_555
H31 C25 1_555 1_555
C26 O3 1_555 1_555
H32 C26 1_555 1_555
H33 C26 1_555 1_555
C27 C21 1_555 1_555
C28 C27 1_555 1_555
H34 C28 1_555 1_555
C3 C4 1_555 1_555
C5 C14 1_555 1_555
C10 C11 1_555 1_555
C19 C20 1_555 1_555
C21 C26 1_555 1_555
C24 C25 1_555 1_555

#END
