
#######################################################################
#
#                 Cambridge Crystallographic Data Centre
#                                CCDC 
#
#######################################################################
#
# If this CIF has been generated from an entry in the Cambridge 
# Structural Database, then it will include bibliographic, chemical, 
# crystal, experimental, refinement or atomic coordinate data resulting 
# from the CCDC's data processing and validation procedures.
#
#######################################################################

data_VAYTIZ
_chemical_formula_moiety         'C14 H14 N4 O1 S1'
_chemical_name_systematic        
N-(1-cyanocyclohexyl)-1,2,3-benzothiadiazole-7-carboxamide
_symmetry_cell_setting           triclinic
_symmetry_space_group_name_H-M   'P -1'
_symmetry_Int_Tables_number      2
_space_group_name_Hall           '-P 1'
loop_
_symmetry_equiv_pos_site_id
_symmetry_equiv_pos_as_xyz
1 x,y,z
2 -x,-y,-z
_cell_length_a                   11.0871(17)
_cell_length_b                   11.8713(19)
_cell_length_c                   12.0846(19)
_cell_angle_alpha                117.308(4)
_cell_angle_beta                 96.217(6)
_cell_angle_gamma                100.195(5)
_cell_volume                     1357.93
_exptl_crystal_colour            colorless
_exptl_crystal_description       Block
_chemical_melting_point          '490 K'
_cell_formula_units_Z            4
_exptl_crystal_recrystallization_method 'petroleum ether/ethyl acetate'
loop_
_atom_site_label
_atom_site_type_symbol
_atom_site_fract_x
_atom_site_fract_y
_atom_site_fract_z
S1 S 0.73990(5) -0.13567(6) 0.35918(6)
O1 O 0.82022(13) 0.03727(15) 0.27014(15)
N1 N 0.7359(2) -0.24191(19) 0.41824(19)
N2 N 0.8401(2) -0.27234(19) 0.42974(19)
N3 N 1.00561(17) 0.09071(18) 0.22254(18)
H1 H 1.082(2) 0.093(2) 0.230(2)
N4 N 0.74488(18) 0.0805(2) 0.03359(19)
C1 C 0.89242(19) -0.13062(18) 0.34791(18)
C2 C 0.9316(2) -0.21200(19) 0.39075(19)
C3 C 1.0536(2) -0.2270(2) 0.3930(2)
H3 H 1.0801 -0.2799 0.4232
C4 C 1.1338(2) -0.1624(2) 0.3500(2)
H4 H 1.2150 -0.1726 0.3497
C5 C 1.09472(19) -0.0811(2) 0.30635(19)
H5 H 1.1507 -0.0389 0.2769
C6 C 0.97565(18) -0.06193(18) 0.30586(18)
C7 C 0.92824(18) 0.02661(19) 0.26606(19)
C8 C 0.96996(18) 0.18185(19) 0.18343(19)
C9 C 1.0609(2) 0.2049(2) 0.1044(2)
H6 H 1.1460 0.2380 0.1547
H7 H 1.0556 0.1221 0.0295
C10 C 1.0320(2) 0.3020(2) 0.0628(2)
H8 H 0.9503 0.2648 0.0049
H9 H 1.0941 0.3173 0.0172
C11 C 1.0323(2) 0.4316(2) 0.1764(3)
H10 H 1.0075 0.4889 0.1463
H11 H 1.1165 0.4740 0.2289
C12 C 0.9427(2) 0.4109(2) 0.2562(2)
H12 H 0.8572 0.3783 0.2067
H13 H 0.9491 0.4941 0.3310
C13 C 0.9722(2) 0.3135(2) 0.2980(2)
H14 H 0.9110 0.2991 0.3449
H15 H 1.0545 0.3502 0.3547
C14 C 0.8416(2) 0.12084(19) 0.0996(2)
S2 S 0.25641(6) -0.36384(6) 0.07623(6)
O2 O 0.38484(15) -0.10516(15) 0.23785(15)
N5 N 0.2127(2) -0.5239(2) -0.0433(2)
N6 N 0.2910(2) -0.55335(19) -0.11525(19)
N7 N 0.53830(17) 0.02098(17) 0.20541(18)
H2 H 0.591(2) 0.026(2) 0.169(2)
N8 N 0.29984(18) 0.1679(2) 0.28081(19)
C15 C 0.38914(19) -0.3324(2) 0.02496(19)
C16 C 0.3935(2) -0.4482(2) -0.0805(2)
C17 C 0.4941(2) -0.4532(2) -0.1407(2)
H16 H 0.4974 -0.5305 -0.2106
C18 C 0.5880(2) -0.3409(2) -0.0938(2)
H17 H 0.6571 -0.3426 -0.1313
C19 C 0.5821(2) -0.2232(2) 0.0097(2)
H18 H 0.6468 -0.1482 0.0381
C20 C 0.48351(18) -0.21569(19) 0.07017(19)
C21 C 0.46578(19) -0.0955(2) 0.1788(2)
C22 C 0.53108(18) 0.14697(19) 0.30853(19)
C23 C 0.6132(2) 0.2560(2) 0.2945(2)
H19 H 0.6976 0.2442 0.2943
H20 H 0.5801 0.2488 0.2132
C24 C 0.6190(2) 0.3932(2) 0.4016(3)
H21 H 0.6752 0.4584 0.3911
H22 H 0.5362 0.4090 0.3971
C25 C 0.6651(2) 0.4057(3) 0.5302(3)
H23 H 0.6638 0.4914 0.5971
H24 H 0.7511 0.3988 0.5378
C26 C 0.5840(3) 0.3001(3) 0.5474(2)
H25 H 0.5002 0.3132 0.5494
H26 H 0.6187 0.3078 0.6286
C27 C 0.5760(2) 0.1624(2) 0.4402(2)
H27 H 0.5184 0.0984 0.4512
H28 H 0.6580 0.1449 0.4453
C28 C 0.3985(2) 0.1557(2) 0.29142(19)
loop_
_geom_bond_atom_site_label_1
_geom_bond_atom_site_label_2
_geom_bond_site_symmetry_1
_geom_bond_site_symmetry_2
S1 N1 1_555 1_555
S2 N5 1_555 1_555
O1 C7 1_555 1_555
O2 C21 1_555 1_555
N1 N2 1_555 1_555
N2 C2 1_555 1_555
N3 H1 1_555 1_555
N4 C14 1_555 1_555
N5 N6 1_555 1_555
N6 C16 1_555 1_555
N7 H2 1_555 1_555
N8 C28 1_555 1_555
C1 S1 1_555 1_555
C2 C1 1_555 1_555
C3 C2 1_555 1_555
H3 C3 1_555 1_555
C4 C3 1_555 1_555
H4 C4 1_555 1_555
C5 C4 1_555 1_555
H5 C5 1_555 1_555
C6 C1 1_555 1_555
C7 N3 1_555 1_555
C8 N3 1_555 1_555
C9 C8 1_555 1_555
H6 C9 1_555 1_555
H7 C9 1_555 1_555
C10 C9 1_555 1_555
H8 C10 1_555 1_555
H9 C10 1_555 1_555
C11 C10 1_555 1_555
H10 C11 1_555 1_555
H11 C11 1_555 1_555
C12 C11 1_555 1_555
H12 C12 1_555 1_555
H13 C12 1_555 1_555
C13 C8 1_555 1_555
H14 C13 1_555 1_555
H15 C13 1_555 1_555
C14 C8 1_555 1_555
C15 S2 1_555 1_555
C16 C15 1_555 1_555
C17 C16 1_555 1_555
H16 C17 1_555 1_555
C18 C17 1_555 1_555
H17 C18 1_555 1_555
C19 C18 1_555 1_555
H18 C19 1_555 1_555
C20 C15 1_555 1_555
C21 N7 1_555 1_555
C22 N7 1_555 1_555
C23 C22 1_555 1_555
H19 C23 1_555 1_555
H20 C23 1_555 1_555
C24 C23 1_555 1_555
H21 C24 1_555 1_555
H22 C24 1_555 1_555
C25 C24 1_555 1_555
H23 C25 1_555 1_555
H24 C25 1_555 1_555
C26 C25 1_555 1_555
H25 C26 1_555 1_555
H26 C26 1_555 1_555
C27 C22 1_555 1_555
H27 C27 1_555 1_555
H28 C27 1_555 1_555
C28 C22 1_555 1_555
C5 C6 1_555 1_555
C6 C7 1_555 1_555
C12 C13 1_555 1_555
C19 C20 1_555 1_555
C20 C21 1_555 1_555
C26 C27 1_555 1_555

#END
