
#######################################################################
#
#                 Cambridge Crystallographic Data Centre
#                                CCDC 
#
#######################################################################
#
# If this CIF has been generated from an entry in the Cambridge 
# Structural Database, then it will include bibliographic, chemical, 
# crystal, experimental, refinement or atomic coordinate data resulting 
# from the CCDC's data processing and validation procedures.
#
#######################################################################

data_VAYWAT
_chemical_formula_moiety         'C12 H15 N1 O4 S1'
_chemical_name_systematic        
L-(1-Benzyl-2-oxo-4-azetidinyl)methylmethanesulfonate
_symmetry_cell_setting           orthorhombic
_symmetry_space_group_name_H-M   'P 21 21 21'
_symmetry_Int_Tables_number      19
_space_group_name_Hall           'P 2ac 2ab'
loop_
_symmetry_equiv_pos_site_id
_symmetry_equiv_pos_as_xyz
1 x,y,z
2 1/2+x,1/2-y,-z
3 -x,1/2+y,1/2-z
4 1/2-x,-y,1/2+z
_cell_length_a                   5.828(1)
_cell_length_b                   13.263(1)
_cell_length_c                   17.387(2)
_cell_angle_alpha                90
_cell_angle_beta                 90
_cell_angle_gamma                90
_cell_volume                     1343.96
_exptl_crystal_colour            colorless
_cell_formula_units_Z            4
loop_
_atom_site_label
_atom_site_type_symbol
_atom_site_fract_x
_atom_site_fract_y
_atom_site_fract_z
N1 N 0.5906(6) 0.6051(2) 0.7102(3)
C1 C 0.7970(8) 0.6430(3) 0.7283(2)
C2 C 0.7675(12) 0.7299(3) 0.6726(3)
C3 C 0.5363(9) 0.6832(3) 0.6536(2)
C4 C 0.4953(10) 0.6461(4) 0.5728(3)
O1 O 0.6963(5) 0.5846(2) 0.5530(1)
S1 S 0.7379(2) 0.5562(1) 0.4668(1)
O2 O 0.9569(6) 0.5098(3) 0.4661(2)
O3 O 0.6999(7) 0.6410(2) 0.4200(2)
C5 C 0.5318(11) 0.4662(4) 0.4482(3)
C6 C 0.4594(10) 0.5231(4) 0.7421(3)
C7 C 0.4581(7) 0.4299(3) 0.6934(2)
C8 C 0.6426(9) 0.3649(4) 0.6937(3)
C9 C 0.6412(14) 0.2787(4) 0.6504(4)
C10 C 0.4587(16) 0.2559(5) 0.6055(4)
C11 C 0.2730(14) 0.3197(5) 0.6039(3)
C12 C 0.2723(9) 0.4061(4) 0.6480(3)
O4 O 0.9397(6) 0.6147(3) 0.7739(2)
H1 H 0.880(8) 0.723(4) 0.629(3)
H2 H 0.771(9) 0.788(4) 0.696(3)
H3 H 0.396(8) 0.718(3) 0.665(2)
H4 H 0.367(10) 0.599(4) 0.570(3)
H5 H 0.504(8) 0.700(4) 0.541(3)
H6 H 0.568(8) 0.441(3) 0.399(3)
H7 H 0.539(12) 0.423(5) 0.487(4)
H8 H 0.309(10) 0.551(4) 0.749(3)
H9 H 0.512(10) 0.511(4) 0.790(3)
H10 H 0.774(9) 0.383(4) 0.721(3)
H11 H 0.769(11) 0.237(5) 0.660(3)
H12 H 0.454(13) 0.191(6) 0.570(4)
H13 H 0.163(9) 0.313(4) 0.575(3)
H14 H 0.161(9) 0.450(4) 0.644(3)
loop_
_geom_bond_atom_site_label_1
_geom_bond_atom_site_label_2
_geom_bond_site_symmetry_1
_geom_bond_site_symmetry_2
N1 C1 1_555 1_555
C1 C2 1_555 1_555
C2 C3 1_555 1_555
C3 N1 1_555 1_555
C4 C3 1_555 1_555
O1 C4 1_555 1_555
S1 O1 1_555 1_555
O2 S1 1_555 1_555
O3 S1 1_555 1_555
C5 S1 1_555 1_555
C6 N1 1_555 1_555
C7 C6 1_555 1_555
C8 C7 1_555 1_555
C9 C8 1_555 1_555
C10 C9 1_555 1_555
C11 C10 1_555 1_555
C12 C7 1_555 1_555
O4 C1 1_555 1_555
H1 C2 1_555 1_555
H2 C2 1_555 1_555
H3 C3 1_555 1_555
H4 C4 1_555 1_555
H5 C4 1_555 1_555
H6 C5 1_555 1_555
H7 C5 1_555 1_555
H8 C6 1_555 1_555
H9 C6 1_555 1_555
H10 C8 1_555 1_555
H11 C9 1_555 1_555
H12 C10 1_555 1_555
H13 C11 1_555 1_555
H14 C12 1_555 1_555
C11 C12 1_555 1_555

#END
