
#######################################################################
#
#                 Cambridge Crystallographic Data Centre
#                                CCDC 
#
#######################################################################
#
# If this CIF has been generated from an entry in the Cambridge 
# Structural Database, then it will include bibliographic, chemical, 
# crystal, experimental, refinement or atomic coordinate data resulting 
# from the CCDC's data processing and validation procedures.
#
#######################################################################

data_VAYWAU
_chemical_formula_moiety         'C17 H12 F2 N4 O1 S1'
_chemical_name_systematic        
6-(2,4-difluorophenyl)-3-(4-methoxyphenyl)-7H-1,2,4-triazolo(3,4-b)(1,3,4)thiadiazine
_symmetry_cell_setting           monoclinic
_symmetry_space_group_name_H-M   'P 21/c'
_symmetry_Int_Tables_number      14
_space_group_name_Hall           '-P 2ybc'
loop_
_symmetry_equiv_pos_site_id
_symmetry_equiv_pos_as_xyz
1 x,y,z
2 -x,1/2+y,1/2-z
3 -x,-y,-z
4 x,1/2-y,1/2+z
_cell_length_a                   12.9203(7)
_cell_length_b                   13.9490(11)
_cell_length_c                   8.7609(10)
_cell_angle_alpha                90
_cell_angle_beta                 92.5020(10)
_cell_angle_gamma                90
_cell_volume                     1577.43
_exptl_crystal_colour            colorless
_exptl_crystal_description       Plate
_chemical_melting_point          '454-455 K'
_cell_formula_units_Z            4
_exptl_crystal_recrystallization_method ethanol
loop_
_atom_site_label
_atom_site_type_symbol
_atom_site_fract_x
_atom_site_fract_y
_atom_site_fract_z
S1 S 0.50405(5) 0.89092(5) 0.11850(7)
F1 F 0.83812(14) 1.27967(11) 0.5736(2)
F2 F 0.62500(13) 1.13043(11) 0.20091(17)
O1 O 0.97784(15) 0.55338(14) 0.7366(2)
N1 N 0.69686(14) 0.87487(13) 0.3473(2)
N2 N 0.64866(13) 0.79316(13) 0.2880(2)
N3 N 0.55762(16) 0.70096(15) 0.1280(2)
N4 N 0.63027(16) 0.64509(15) 0.2106(2)
C1 C 0.7883(2) 1.19999(18) 0.5198(3)
C2 C 0.7267(2) 1.20802(17) 0.3896(3)
H1 H 0.7170 1.2665 0.3399
C3 C 0.67985(19) 1.12580(17) 0.3356(3)
C4 C 0.69034(17) 1.03805(16) 0.4080(2)
C5 C 0.75317(18) 1.03556(17) 0.5411(3)
H2 H 0.7617 0.9778 0.5931
C6 C 0.8032(2) 1.11594(18) 0.5983(3)
H3 H 0.8454 1.1132 0.6869
C7 C 0.63962(17) 0.95010(16) 0.3477(2)
C8 C 0.52640(18) 0.94972(18) 0.3016(3)
H4 H 0.5012 1.0152 0.2951
H5 H 0.4883 0.9166 0.3786
C9 C 0.57016(18) 0.78853(17) 0.1772(3)
C10 C 0.68445(18) 0.70027(16) 0.3048(3)
C11 C 0.76342(17) 0.66464(16) 0.4163(3)
C12 C 0.83657(19) 0.72188(17) 0.4937(3)
H6 H 0.8379 0.7875 0.4747
C13 C 0.9071(2) 0.68237(19) 0.5983(3)
H7 H 0.9554 0.7216 0.6493
C14 C 0.90663(18) 0.58472(18) 0.6282(3)
C15 C 0.83532(19) 0.52712(18) 0.5505(3)
H8 H 0.8349 0.4614 0.5682
C16 C 0.76497(18) 0.56695(17) 0.4470(3)
H9 H 0.7170 0.5274 0.3961
C17 C 0.9809(2) 0.4538(2) 0.7717(4)
H10 H 0.9143 0.4336 0.8039
H11 H 1.0322 0.4424 0.8522
H12 H 0.9984 0.4183 0.6825
loop_
_geom_bond_atom_site_label_1
_geom_bond_atom_site_label_2
_geom_bond_site_symmetry_1
_geom_bond_site_symmetry_2
S1 C8 1_555 1_555
F1 C1 1_555 1_555
F2 C3 1_555 1_555
O1 C14 1_555 1_555
N1 N2 1_555 1_555
N2 C9 1_555 1_555
N3 N4 1_555 1_555
N4 C10 1_555 1_555
C1 C2 1_555 1_555
C2 H1 1_555 1_555
C3 C2 1_555 1_555
C4 C3 1_555 1_555
C5 C4 1_555 1_555
H2 C5 1_555 1_555
C6 C1 1_555 1_555
H3 C6 1_555 1_555
C7 N1 1_555 1_555
C8 C7 1_555 1_555
H4 C8 1_555 1_555
H5 C8 1_555 1_555
C9 S1 1_555 1_555
C10 N2 1_555 1_555
C11 C10 1_555 1_555
C12 C11 1_555 1_555
H6 C12 1_555 1_555
C13 C12 1_555 1_555
H7 C13 1_555 1_555
C14 C13 1_555 1_555
C15 C14 1_555 1_555
H8 C15 1_555 1_555
C16 C11 1_555 1_555
H9 C16 1_555 1_555
C17 O1 1_555 1_555
H10 C17 1_555 1_555
H11 C17 1_555 1_555
H12 C17 1_555 1_555
N3 C9 1_555 1_555
C4 C7 1_555 1_555
C5 C6 1_555 1_555
C15 C16 1_555 1_555

#END
