
#######################################################################
#
#                 Cambridge Crystallographic Data Centre
#                                CCDC 
#
#######################################################################
#
# If this CIF has been generated from an entry in the Cambridge 
# Structural Database, then it will include bibliographic, chemical, 
# crystal, experimental, refinement or atomic coordinate data resulting 
# from the CCDC's data processing and validation procedures.
#
#######################################################################

data_VAYWIC
_chemical_formula_moiety         'C20 H22 N4 2+,2(I1 1-),H2 O1'
_chemical_name_systematic        
"3,3'-(1,4-Naphthalenedimethylene)bis(1-methylimidazolium) diiodide monohydrate"
_symmetry_cell_setting           triclinic
_symmetry_space_group_name_H-M   'P -1'
_symmetry_Int_Tables_number      2
_space_group_name_Hall           '-P 1'
loop_
_symmetry_equiv_pos_site_id
_symmetry_equiv_pos_as_xyz
1 x,y,z
2 -x,-y,-z
_cell_length_a                   8.563(3)
_cell_length_b                   9.572(3)
_cell_length_c                   14.684(6)
_cell_angle_alpha                102.97(3)
_cell_angle_beta                 103.66(3)
_cell_angle_gamma                98.24(3)
_cell_volume                     1114.93
_exptl_crystal_colour            yellow
_exptl_crystal_description       Block
_cell_formula_units_Z            2
_exptl_crystal_recrystallization_method 'methanol/diethyl ether'
loop_
_atom_site_label
_atom_site_type_symbol
_atom_site_fract_x
_atom_site_fract_y
_atom_site_fract_z
N1 N 0.4114(4) 0.7267(4) 0.2456(3)
N2 N 0.3266(4) 0.6030(4) 0.3368(2)
N3 N 0.0560(4) 0.8516(4) -0.2294(2)
N4 N 0.1375(4) 0.8710(4) -0.3542(3)
C1 C 0.3350(5) 0.8589(4) 0.1186(3)
C2 C 0.2037(5) 0.7473(5) 0.0667(3)
H1 H 0.1875 0.6628 0.0876
C3 C 0.0922(6) 0.7582(5) -0.0181(3)
H2 H 0.0037 0.6807 -0.0515
C4 C 0.1106(5) 0.8793(5) -0.0524(3)
C5 C 0.2700(5) 1.1302(4) -0.0287(3)
H3 H 0.1974 1.1386 -0.0844
C6 C 0.3968(6) 1.2436(5) 0.0226(3)
H4 H 0.4095 1.3283 0.0017
C7 C 0.5086(5) 1.2350(4) 0.1064(3)
H5 H 0.5958 1.3131 0.1409
C8 C 0.4886(5) 1.1103(4) 0.1373(3)
H6 H 0.5623 1.1055 0.1937
C9 C 0.3585(5) 0.9889(4) 0.0855(3)
C10 C 0.2452(5) 0.9993(4) 0.0003(3)
C11 C 0.4573(5) 0.8514(4) 0.2083(3)
H7 H 0.5619 0.8471 0.1942
H8 H 0.4729 0.9410 0.2590
C12 C 0.3467(5) 0.7321(4) 0.3195(3)
H9 H 0.3197 0.8149 0.3539
C13 C 0.3805(6) 0.5097(5) 0.2723(4)
H10 H 0.3803 0.4114 0.2685
C14 C 0.4341(7) 0.5857(5) 0.2149(4)
H11 H 0.4780 0.5500 0.1643
C15 C 0.2605(7) 0.5651(5) 0.4142(3)
H12 H 0.1590 0.5975 0.4122
H13 H 0.3381 0.6122 0.4764
H14 H 0.2413 0.4608 0.4046
C16 C -0.0105(5) 0.8845(5) -0.1442(3)
H15 H -0.1113 0.8138 -0.1562
H16 H -0.0365 0.9811 -0.1356
C17 C 0.0822(5) 0.9400(5) -0.2834(3)
H17 H 0.0648 1.0353 -0.2735
C18 C 0.1421(6) 0.7319(5) -0.3460(3)
H18 H 0.1736 0.6590 -0.3870
C19 C 0.0927(5) 0.7207(4) -0.2677(3)
H19 H 0.0848 0.6387 -0.2437
C20 C 0.1792(7) 0.9319(6) -0.4308(4)
H20 H 0.1790 1.0348 -0.4155
H21 H 0.0996 0.8831 -0.4920
H22 H 0.2863 0.9177 -0.4349
O1 O 0.8353(9) 0.6125(7) 0.4395(4)
H23 H 0.825(8) 0.619(8) 0.382(2)
H24 H 0.763(10) 0.651(12) 0.460(5)
I1 I 0.65018(4) 0.84812(3) 0.59621(2)
I2 I 0.88424(4) 0.64775(4) 0.20982(3)
loop_
_geom_bond_atom_site_label_1
_geom_bond_atom_site_label_2
_geom_bond_site_symmetry_1
_geom_bond_site_symmetry_2
N1 C11 1_555 1_555
N2 C12 1_555 1_555
N3 C16 1_555 1_555
N4 C17 1_555 1_555
C1 C2 1_555 1_555
C2 H1 1_555 1_555
C3 C2 1_555 1_555
H2 C3 1_555 1_555
C4 C3 1_555 1_555
C5 H3 1_555 1_555
C6 C5 1_555 1_555
H4 C6 1_555 1_555
C7 C6 1_555 1_555
H5 C7 1_555 1_555
C8 C7 1_555 1_555
H6 C8 1_555 1_555
C9 C1 1_555 1_555
C10 C4 1_555 1_555
C11 C1 1_555 1_555
H7 C11 1_555 1_555
H8 C11 1_555 1_555
C12 N1 1_555 1_555
H9 C12 1_555 1_555
C13 N2 1_555 1_555
H10 C13 1_555 1_555
C14 N1 1_555 1_555
H11 C14 1_555 1_555
C15 N2 1_555 1_555
H12 C15 1_555 1_555
H13 C15 1_555 1_555
H14 C15 1_555 1_555
C16 C4 1_555 1_555
H15 C16 1_555 1_555
H16 C16 1_555 1_555
C17 N3 1_555 1_555
H17 C17 1_555 1_555
C18 N4 1_555 1_555
H18 C18 1_555 1_555
C19 N3 1_555 1_555
H19 C19 1_555 1_555
C20 N4 1_555 1_555
H20 C20 1_555 1_555
H21 C20 1_555 1_555
H22 C20 1_555 1_555
O1 H23 1_555 1_555
H24 O1 1_555 1_555
C5 C10 1_555 1_555
C8 C9 1_555 1_555
C9 C10 1_555 1_555
C13 C14 1_555 1_555
C18 C19 1_555 1_555

#END
