
#######################################################################
#
#                 Cambridge Crystallographic Data Centre
#                                CCDC 
#
#######################################################################
#
# If this CIF has been generated from an entry in the Cambridge 
# Structural Database, then it will include bibliographic, chemical, 
# crystal, experimental, refinement or atomic coordinate data resulting 
# from the CCDC's data processing and validation procedures.
#
#######################################################################

data_VAYXUP
_chemical_formula_moiety         'C14 H12 O4'
_chemical_name_systematic        'Dimethyl naphthalene-1,4-dicarboxylate'
_symmetry_cell_setting           triclinic
_symmetry_space_group_name_H-M   'P -1'
_symmetry_Int_Tables_number      2
_space_group_name_Hall           '-P 1'
loop_
_symmetry_equiv_pos_site_id
_symmetry_equiv_pos_as_xyz
1 x,y,z
2 -x,-y,-z
_cell_length_a                   7.979(6)
_cell_length_b                   9.222(4)
_cell_length_c                   9.653(5)
_cell_angle_alpha                75.54(4)
_cell_angle_beta                 69.18(5)
_cell_angle_gamma                65.39(4)
_cell_volume                     599.265
_exptl_crystal_colour            colorless
_exptl_crystal_description       Block
_cell_formula_units_Z            2
_exptl_crystal_recrystallization_method methanol
loop_
_atom_site_label
_atom_site_type_symbol
_atom_site_fract_x
_atom_site_fract_y
_atom_site_fract_z
O1 O 0.5779(4) 0.2688(3) 0.1447(3)
O2 O 0.7570(5) 0.4124(4) 0.0198(3)
O3 O -0.0250(3) 0.7539(3) 0.6618(3)
O4 O 0.1299(4) 0.9167(3) 0.6177(3)
C1 C 0.5049(4) 0.5036(3) 0.2404(3)
C2 C 0.3237(5) 0.5041(4) 0.3134(4)
C3 C 0.2014(5) 0.6039(4) 0.4232(4)
C4 C 0.2590(4) 0.7032(3) 0.4642(3)
C5 C 0.5195(5) 0.8058(4) 0.4289(4)
C6 C 0.6993(5) 0.8069(4) 0.3577(4)
C7 C 0.8201(6) 0.7115(4) 0.2437(4)
C8 C 0.7585(5) 0.6159(4) 0.2034(4)
C9 C 0.5720(4) 0.6084(3) 0.2752(3)
C10 C 0.4471(4) 0.7085(3) 0.3907(3)
C11 C 0.6294(5) 0.3933(4) 0.1240(4)
C12 C 0.6901(6) 0.1535(4) 0.0380(5)
H1 H 0.6978 0.2084 -0.0614
H2 H 0.6297 0.0772 0.0552
H3 H 0.8173 0.0983 0.0493
C13 C 0.1207(4) 0.8029(4) 0.5866(4)
C14 C -0.1693(6) 0.8400(5) 0.7834(5)
H4 H -0.1079 0.8531 0.8464
H5 H -0.2512 0.7807 0.8405
H6 H -0.2449 0.9437 0.7443
H7 H 0.288(5) 0.440(4) 0.283(4)
H8 H 0.073(5) 0.608(3) 0.474(3)
H9 H 0.433(5) 0.867(4) 0.515(4)
H10 H 0.747(6) 0.865(5) 0.397(4)
H11 H 0.950(5) 0.719(3) 0.190(3)
H12 H 0.832(4) 0.552(3) 0.132(4)
loop_
_geom_bond_atom_site_label_1
_geom_bond_atom_site_label_2
_geom_bond_site_symmetry_1
_geom_bond_site_symmetry_2
O1 C11 1_555 1_555
O2 C11 1_555 1_555
O3 C13 1_555 1_555
O4 C13 1_555 1_555
C1 C2 1_555 1_555
C2 C3 1_555 1_555
C3 C4 1_555 1_555
C4 C10 1_555 1_555
C5 C6 1_555 1_555
C6 C7 1_555 1_555
C7 C8 1_555 1_555
C8 C9 1_555 1_555
C9 C1 1_555 1_555
C10 C5 1_555 1_555
C11 C1 1_555 1_555
C12 O1 1_555 1_555
H1 C12 1_555 1_555
H2 C12 1_555 1_555
H3 C12 1_555 1_555
C13 C4 1_555 1_555
C14 O3 1_555 1_555
H4 C14 1_555 1_555
H5 C14 1_555 1_555
H6 C14 1_555 1_555
H7 C2 1_555 1_555
H8 C3 1_555 1_555
H9 C5 1_555 1_555
H10 C6 1_555 1_555
H11 C7 1_555 1_555
H12 C8 1_555 1_555
C9 C10 1_555 1_555

#END
