
#######################################################################
#
#                 Cambridge Crystallographic Data Centre
#                                CCDC 
#
#######################################################################
#
# If this CIF has been generated from an entry in the Cambridge 
# Structural Database, then it will include bibliographic, chemical, 
# crystal, experimental, refinement or atomic coordinate data resulting 
# from the CCDC's data processing and validation procedures.
#
#######################################################################

data_VAYXAV
_chemical_formula_moiety         'C20 H22 N4 O2'
_chemical_name_systematic        
(S,S)-N,N'-dicyanoethyl-1,2-bis(2-hydroxyphenyl)ethylenediamine
_symmetry_cell_setting           orthorhombic
_symmetry_space_group_name_H-M   'P 21 21 21'
_symmetry_Int_Tables_number      19
_space_group_name_Hall           'P 2ac 2ab'
loop_
_symmetry_equiv_pos_site_id
_symmetry_equiv_pos_as_xyz
1 x,y,z
2 1/2-x,-y,1/2+z
3 1/2+x,1/2-y,-z
4 -x,1/2+y,1/2-z
_cell_length_a                   8.4115(3)
_cell_length_b                   9.6525(3)
_cell_length_c                   23.3886(8)
_cell_angle_alpha                90
_cell_angle_beta                 90
_cell_angle_gamma                90
_cell_volume                     1898.97
_exptl_crystal_colour            colorless
_exptl_crystal_description       Plate
_cell_formula_units_Z            4
_exptl_crystal_recrystallization_method 'diethyl ether'
loop_
_atom_site_label
_atom_site_type_symbol
_atom_site_fract_x
_atom_site_fract_y
_atom_site_fract_z
O1 O 0.5974(2) 0.84380(17) 0.28914(6)
H1 H 0.687(4) 0.782(3) 0.3004(13)
O2 O 0.52324(19) 0.47199(19) 0.47935(7)
H2 H 0.498(4) 0.443(3) 0.5164(15)
N1 N 0.7940(2) 0.68421(19) 0.34787(8)
H3 H 0.827(3) 0.597(3) 0.3362(10)
N2 N 1.0145(3) 0.9727(2) 0.26327(8)
N3 N 0.6870(2) 0.41297(18) 0.36151(8)
H4 H 0.700(3) 0.393(3) 0.3992(11)
N4 N 0.9189(3) 0.1069(2) 0.40783(8)
C1 C 0.6538(2) 0.6564(2) 0.38481(9)
H5 H 0.6923 0.6344 0.4242
C2 C 0.9237(3) 0.7523(2) 0.37899(10)
H6 H 0.9586 0.6925 0.4110
H7 H 0.8853 0.8409 0.3952
C3 C 1.0632(3) 0.7798(2) 0.33927(10)
H8 H 1.1565 0.8067 0.3626
H9 H 1.0903 0.6927 0.3191
C4 C 1.0337(3) 0.8882(2) 0.29673(10)
C5 C 0.5469(3) 0.7833(2) 0.38799(9)
C6 C 0.5218(2) 0.8678(2) 0.34023(9)
C7 C 0.4201(3) 0.9813(2) 0.34352(11)
H10 H 0.4024 1.0373 0.3107
C8 C 0.3449(3) 1.0128(3) 0.39441(12)
H11 H 0.2754 1.0903 0.3965
C9 C 0.3703(3) 0.9322(3) 0.44228(12)
H12 H 0.3196 0.9544 0.4774
C10 C 0.4704(3) 0.8184(2) 0.43877(10)
H13 H 0.4873 0.7630 0.4718
C11 C 0.5701(2) 0.5272(2) 0.36031(9)
H14 H 0.5495 0.5474 0.3190
C12 C 0.6310(3) 0.2898(2) 0.33134(10)
H15 H 0.5771 0.3181 0.2956
H16 H 0.5526 0.2405 0.3554
C13 C 0.7680(3) 0.1925(2) 0.31711(9)
H17 H 0.7260 0.1115 0.2960
H18 H 0.8439 0.2412 0.2918
C14 C 0.8523(3) 0.1440(2) 0.36792(9)
C15 C 0.4105(2) 0.4900(2) 0.38622(9)
C16 C 0.3909(3) 0.4618(2) 0.44463(10)
C17 C 0.2435(3) 0.4247(3) 0.46626(10)
H19 H 0.2309 0.4099 0.5062
C18 C 0.1148(3) 0.4092(3) 0.43018(10)
H20 H 0.0141 0.3838 0.4453
C19 C 0.1328(3) 0.4306(2) 0.37198(10)
H21 H 0.0456 0.4175 0.3468
C20 C 0.2792(2) 0.4714(2) 0.35103(10)
H22 H 0.2904 0.4872 0.3111
loop_
_geom_bond_atom_site_label_1
_geom_bond_atom_site_label_2
_geom_bond_site_symmetry_1
_geom_bond_site_symmetry_2
O1 H1 1_555 1_555
O2 H2 1_555 1_555
N1 H3 1_555 1_555
N2 C4 1_555 1_555
N3 H4 1_555 1_555
N4 C14 1_555 1_555
C1 N1 1_555 1_555
H5 C1 1_555 1_555
C2 N1 1_555 1_555
H6 C2 1_555 1_555
H7 C2 1_555 1_555
C3 C2 1_555 1_555
H8 C3 1_555 1_555
H9 C3 1_555 1_555
C4 C3 1_555 1_555
C5 C1 1_555 1_555
C6 O1 1_555 1_555
C7 C6 1_555 1_555
H10 C7 1_555 1_555
C8 C7 1_555 1_555
H11 C8 1_555 1_555
C9 C8 1_555 1_555
H12 C9 1_555 1_555
C10 C5 1_555 1_555
H13 C10 1_555 1_555
C11 N3 1_555 1_555
H14 C11 1_555 1_555
C12 N3 1_555 1_555
H15 C12 1_555 1_555
H16 C12 1_555 1_555
C13 C12 1_555 1_555
H17 C13 1_555 1_555
H18 C13 1_555 1_555
C14 C13 1_555 1_555
C15 C11 1_555 1_555
C16 O2 1_555 1_555
C17 C16 1_555 1_555
H19 C17 1_555 1_555
C18 C17 1_555 1_555
H20 C18 1_555 1_555
C19 C18 1_555 1_555
H21 C19 1_555 1_555
C20 C15 1_555 1_555
H22 C20 1_555 1_555
C1 C11 1_555 1_555
C5 C6 1_555 1_555
C9 C10 1_555 1_555
C15 C16 1_555 1_555
C19 C20 1_555 1_555

#END
