
#######################################################################
#
#                 Cambridge Crystallographic Data Centre
#                                CCDC 
#
#######################################################################
#
# If this CIF has been generated from an entry in the Cambridge 
# Structural Database, then it will include bibliographic, chemical, 
# crystal, experimental, refinement or atomic coordinate data resulting 
# from the CCDC's data processing and validation procedures.
#
#######################################################################

data_VAZHUZ
_chemical_formula_moiety         'C11 H10 N2 O3'
_chemical_name_systematic        2-Vanilloyl-imidazole
_symmetry_cell_setting           monoclinic
_symmetry_space_group_name_H-M   'P 21/n'
_symmetry_Int_Tables_number      14
_space_group_name_Hall           '-P 2yn'
loop_
_symmetry_equiv_pos_site_id
_symmetry_equiv_pos_as_xyz
1 x,y,z
2 1/2-x,1/2+y,1/2-z
3 -x,-y,-z
4 1/2+x,1/2-y,1/2+z
_cell_length_a                   10.407(1)
_cell_length_b                   9.661(1)
_cell_length_c                   10.461(1)
_cell_angle_alpha                90
_cell_angle_beta                 102.51(9)
_cell_angle_gamma                90
_cell_volume                     1026.8
_cell_formula_units_Z            4
loop_
_atom_site_label
_atom_site_type_symbol
_atom_site_fract_x
_atom_site_fract_y
_atom_site_fract_z
C1 C 0.2193(2) 0.5850(2) 0.4738(2)
C2 C 0.2870(2) 0.6080(2) 0.3736(2)
C3 C 0.2291(2) 0.6856(2) 0.2659(2)
C4 C 0.1036(2) 0.7429(2) 0.2570(2)
C5 C 0.0390(2) 0.7230(2) 0.3575(2)
C6 C 0.0956(2) 0.6436(2) 0.4654(2)
C7 C 0.2790(2) 0.4893(2) 0.5808(2)
C8 C 0.4069(2) 0.6504(3) 0.1608(2)
O1 O 0.3571(1) 0.3988(1) 0.5650(1)
O2 O 0.2828(2) 0.7132(2) 0.1610(1)
O3 O 0.0440(2) 0.8179(2) 0.1513(2)
C9 C 0.2415(2) 0.4991(2) 0.7080(2)
C10 C 0.2110(2) 0.4321(2) 0.8985(2)
C11 C 0.1711(2) 0.5654(2) 0.8753(2)
N1 N 0.2577(2) 0.3917(2) 0.7930(2)
N2 N 0.1899(2) 0.6075(2) 0.7570(2)
H1 H 0.3733 0.5699 0.3799
H2 H -0.0457 0.7644 0.3527
H3 H 0.0494 0.6291 0.5344
H4 H 0.4251 0.6718 0.0768
H5 H 0.4009 0.5518 0.1697
H6 H 0.4765 0.6855 0.2286
H7 H 0.1027(25) 0.8314(26) 0.0907(25)
H8 H 0.2070 0.3776 0.9743
H9 H 0.1347 0.6217 0.9342
H10 H 0.2953 0.3033 0.7809
loop_
_geom_bond_atom_site_label_1
_geom_bond_atom_site_label_2
_geom_bond_site_symmetry_1
_geom_bond_site_symmetry_2
C1 C2 1_555 1_555
C2 C3 1_555 1_555
C3 C4 1_555 1_555
C4 C5 1_555 1_555
C5 C6 1_555 1_555
C6 C1 1_555 1_555
C7 C1 1_555 1_555
C8 O2 1_555 1_555
O1 C7 1_555 1_555
O2 C3 1_555 1_555
O3 C4 1_555 1_555
C9 C7 1_555 1_555
C10 C11 1_555 1_555
C11 N2 1_555 1_555
N1 C9 1_555 1_555
N2 C9 1_555 1_555
H1 C2 1_555 1_555
H2 C5 1_555 1_555
H3 C6 1_555 1_555
H4 C8 1_555 1_555
H5 C8 1_555 1_555
H6 C8 1_555 1_555
H7 O3 1_555 1_555
H8 C10 1_555 1_555
H9 C11 1_555 1_555
H10 N1 1_555 1_555
C10 N1 1_555 1_555

#END
