
#######################################################################
#
#                 Cambridge Crystallographic Data Centre
#                                CCDC 
#
#######################################################################
#
# If this CIF has been generated from an entry in the Cambridge 
# Structural Database, then it will include bibliographic, chemical, 
# crystal, experimental, refinement or atomic coordinate data resulting 
# from the CCDC's data processing and validation procedures.
#
#######################################################################

data_VAZKIS
_chemical_compound_source        'roots of Rubia cordifolia L'
_chemical_name_common            
'O-Seco-RA-XXIV acetone acetonitrile solvate monohydrate'
_chemical_formula_moiety         'C42 H53 N7 O10,C3 H6 O1,1.5(C2 H3 N1),H2 O1'
_chemical_name_systematic        
'cyclo-(D-Alanyl-L-glutaminyl-(N,O-dimethyl-L-tyrosyl)-L-alanyl-(N-methyl-L-tyrosyl)-(N-methyl-L-tyrosyl)) acetone acetonitrile solvate monohydrate'
_symmetry_cell_setting           orthorhombic
_symmetry_space_group_name_H-M   'C 2 2 21'
_symmetry_Int_Tables_number      20
_space_group_name_Hall           'C 2n 2'
loop_
_symmetry_equiv_pos_site_id
_symmetry_equiv_pos_as_xyz
1 x,y,z
2 -x,-y,1/2+z
3 -x,y,1/2-z
4 x,-y,-z
5 1/2+x,1/2+y,z
6 1/2-x,1/2-y,1/2+z
7 1/2-x,1/2+y,1/2-z
8 1/2+x,1/2-y,-z
_cell_length_a                   17.252(3)
_cell_length_b                   42.937(8)
_cell_length_c                   13.516(3)
_cell_angle_alpha                90
_cell_angle_beta                 90
_cell_angle_gamma                90
_cell_volume                     10012
_exptl_crystal_colour            colorless
_exptl_crystal_description       prism
_cell_formula_units_Z            8
loop_
_atom_site_label
_atom_site_type_symbol
_atom_site_fract_x
_atom_site_fract_y
_atom_site_fract_z
C1 C 0.8592(3) 0.74640(12) 0.2986(4)
C2 C 0.8678(3) 0.73469(12) 0.1899(4)
H1 H 0.8172 0.7371 0.1545
C3 C 0.9046(3) 0.78099(11) 0.0975(3)
C4 C 0.9723(3) 0.79990(11) 0.0528(3)
H2 H 1.0164 0.8003 0.1008
C5 C 0.9935(3) 0.85455(11) 0.0163(3)
C6 C 0.9504(3) 0.88535(11) -0.0125(3)
H3 H 0.8955 0.8802 -0.0294
C7 C 0.8885(3) 0.92367(11) 0.1031(3)
C8 C 0.8065(3) 0.91804(11) 0.0621(3)
H4 H 0.8104 0.9025 0.0073
C9 C 0.7647(3) 0.87239(11) 0.1515(3)
C10 C 0.7375(3) 0.85618(12) 0.2460(4)
H5 H 0.6834 0.8627 0.2624
C11 C 0.7039(3) 0.80299(12) 0.2887(4)
C12 C 0.7268(3) 0.76860(12) 0.2722(4)
H6 H 0.7373 0.7653 0.2002
C13 C 0.8918(3) 0.70071(12) 0.1892(4)
H7 H 0.8527 0.6881 0.2250
H8 H 0.9421 0.6983 0.2235
C14 C 0.8990(4) 0.68904(13) 0.0830(4)
H9 H 0.8494 0.6927 0.0482
H10 H 0.9396 0.7012 0.0487
C15 C 0.9191(3) 0.65466(14) 0.0767(4)
C16 C 0.9993(3) 0.78507(12) -0.0442(4)
H11 H 1.0367 0.7989 -0.0767
H12 H 0.9546 0.7818 -0.0877
H13 H 1.0240 0.7650 -0.0302
C17 C 0.9901(3) 0.89896(12) -0.1056(4)
H14 H 1.0447 0.9042 -0.0900
H15 H 0.9901 0.8832 -0.1589
C18 C 0.9482(3) 0.92798(11) -0.1409(3)
C19 C 0.9730(3) 0.95756(12) -0.1133(3)
H16 H 1.0170 0.9598 -0.0717
C20 C 0.9335(3) 0.98420(12) -0.1462(4)
H17 H 0.9500 1.0043 -0.1258
C21 C 0.8702(3) 0.98101(12) -0.2088(3)
C22 C 0.8451(3) 0.95135(12) -0.2364(4)
H18 H 0.8011 0.9491 -0.2780
C23 C 0.8843(3) 0.92526(12) -0.2030(3)
H19 H 0.8673 0.9052 -0.2228
C24 C 1.0257(3) 0.91602(14) 0.1127(4)
H20 H 1.0378 0.9022 0.1682
H21 H 1.0243 0.9376 0.1361
H22 H 1.0657 0.9139 0.0616
C25 C 0.7692(3) 0.94780(11) 0.0200(4)
H23 H 0.7658 0.9637 0.0728
H24 H 0.8024 0.9562 -0.0334
C26 C 0.6899(3) 0.94153(11) -0.0201(4)
C27 C 0.6758(3) 0.91859(11) -0.0917(4)
H25 H 0.7184 0.9074 -0.1186
C28 C 0.6020(3) 0.91180(12) -0.1239(4)
H26 H 0.5946 0.8961 -0.1726
C29 C 0.5391(3) 0.92740(12) -0.0867(4)
C30 C 0.5518(4) 0.95154(13) -0.0198(5)
H27 H 0.5093 0.9637 0.0027
C31 C 0.6249(3) 0.95788(12) 0.0136(4)
H28 H 0.6318 0.9739 0.0612
C32 C 0.7232(3) 0.92364(12) 0.2178(4)
H29 H 0.7627 0.9336 0.2594
H30 H 0.6888 0.9110 0.2593
H31 H 0.6929 0.9397 0.1839
C33 C 0.7926(5) 0.86472(14) 0.3312(4)
H32 H 0.8464 0.8624 0.3091
H33 H 0.7831 0.8509 0.3875
H34 H 0.7834 0.8863 0.3512
C34 C 0.6617(3) 0.74670(13) 0.3045(4)
H35 H 0.6543 0.7485 0.3769
H36 H 0.6128 0.7530 0.2720
C35 C 0.6793(3) 0.71344(13) 0.2785(4)
C36 C 0.7038(3) 0.69170(13) 0.3500(4)
H37 H 0.7076 0.6978 0.4174
C37 C 0.7221(4) 0.66193(13) 0.3235(4)
H38 H 0.7376 0.6475 0.3730
C38 C 0.7185(3) 0.65237(13) 0.2256(4)
C39 C 0.6929(3) 0.67370(13) 0.1545(4)
H39 H 0.6882 0.6675 0.0873
C40 C 0.6748(3) 0.70312(14) 0.1816(4)
H40 H 0.6583 0.7173 0.1320
C41 C 0.7382(4) 0.61224(15) 0.1059(5)
H41 H 0.7725 0.6253 0.0655
H42 H 0.6850 0.6140 0.0813
H43 H 0.7552 0.5905 0.1020
C42 C 0.7975(3) 0.77104(14) 0.4344(4)
H44 H 0.8347 0.7880 0.4449
H45 H 0.8118 0.7532 0.4756
H46 H 0.7454 0.7781 0.4525
N1 N 0.7984(2) 0.76175(10) 0.3291(3)
N2 N 0.9261(2) 0.75448(10) 0.1432(3)
H47 H 0.9753 0.7491 0.1449
N3 N 0.9442(2) 0.83113(10) 0.0376(3)
H48 H 0.8943 0.8350 0.0424
N4 N 0.9504(2) 0.90769(10) 0.0713(3)
N5 N 0.7611(3) 0.90360(10) 0.1442(3)
N6 N 0.7405(3) 0.82289(10) 0.2288(3)
H49 H 0.7668 0.8157 0.1780
N7 N 0.9105(3) 0.64262(12) -0.0131(4)
H50 H 0.9215 0.6229 -0.0238
H51 H 0.8937 0.6544 -0.0620
O1 O 0.9148(2) 0.74095(8) 0.3542(3)
O2 O 0.83865(19) 0.78861(8) 0.0888(2)
O3 O 1.0616(2) 0.85244(8) 0.0161(3)
O4 O 0.8965(2) 0.94275(9) 0.1705(3)
O5 O 0.7936(2) 0.85651(8) 0.0840(2)
O6 O 0.6592(3) 0.81076(9) 0.3535(3)
O7 O 0.9420(3) 0.63983(10) 0.1473(4)
O8 O 0.8302(3) 1.00604(8) -0.2444(3)
H52 H 0.8522 1.0225 -0.2263
O9 O 0.4646(3) 0.92105(11) -0.1137(4)
H53 H 0.4580 0.9017 -0.1157
O10 O 0.7412(3) 0.62254(10) 0.2074(3)
C43 C 0.1119(6) 0.6681(2) 1.0069(8)
H54 H 0.0784 0.6703 1.0651
H55 H 0.1660 0.6663 1.0282
H56 H 0.0970 0.6494 0.9699
C44 C 0.1041(7) 0.6931(3) 0.9493(9)
N9 N 0.0909(9) 0.7154(3) 0.8968(13)
C47 C 0.5567(15) 0.9715(6) 0.291(2)
O11 O 0.6305(9) 1.0216(4) 0.2796(12)
C48 C 0.6080(14) 0.9953(6) 0.308(2)
C49 C 0.641(2) 0.9798(9) 0.393(3)
O12 O 0.9537(10) 0.5952(4) 0.8358(14)
N8? N 0.8268(15) 1.0000 0.5000
C45? C 0.8113(14) 0.9733(4) 0.4780(15)
C46? C 0.7991(13) 0.9429(4) 0.4651(19)
H57? H 0.8210 0.9313 0.5211
H58? H 0.8241 0.9360 0.4037
H59? H 0.7432 0.9389 0.4611
loop_
_geom_bond_atom_site_label_1
_geom_bond_atom_site_label_2
_geom_bond_site_symmetry_1
_geom_bond_site_symmetry_2
C1 C2 1_555 1_555
C2 H1 1_555 1_555
C3 C4 1_555 1_555
C4 H2 1_555 1_555
C5 C6 1_555 1_555
C6 H3 1_555 1_555
C7 C8 1_555 1_555
C8 H4 1_555 1_555
C9 C10 1_555 1_555
C10 H5 1_555 1_555
C11 C12 1_555 1_555
C12 H6 1_555 1_555
C13 C2 1_555 1_555
H7 C13 1_555 1_555
H8 C13 1_555 1_555
C14 C13 1_555 1_555
H9 C14 1_555 1_555
H10 C14 1_555 1_555
C15 C14 1_555 1_555
C16 C4 1_555 1_555
H11 C16 1_555 1_555
H12 C16 1_555 1_555
H13 C16 1_555 1_555
C17 C6 1_555 1_555
H14 C17 1_555 1_555
H15 C17 1_555 1_555
C18 C17 1_555 1_555
C19 C18 1_555 1_555
H16 C19 1_555 1_555
C20 C19 1_555 1_555
H17 C20 1_555 1_555
C21 C20 1_555 1_555
C22 C21 1_555 1_555
H18 C22 1_555 1_555
C23 C18 1_555 1_555
H19 C23 1_555 1_555
C24 H20 1_555 1_555
H21 C24 1_555 1_555
H22 C24 1_555 1_555
C25 C8 1_555 1_555
H23 C25 1_555 1_555
H24 C25 1_555 1_555
C26 C25 1_555 1_555
C27 C26 1_555 1_555
H25 C27 1_555 1_555
C28 C27 1_555 1_555
H26 C28 1_555 1_555
C29 C28 1_555 1_555
C30 C29 1_555 1_555
H27 C30 1_555 1_555
C31 C26 1_555 1_555
H28 C31 1_555 1_555
C32 H29 1_555 1_555
H30 C32 1_555 1_555
H31 C32 1_555 1_555
C33 C10 1_555 1_555
H32 C33 1_555 1_555
H33 C33 1_555 1_555
H34 C33 1_555 1_555
C34 C12 1_555 1_555
H35 C34 1_555 1_555
H36 C34 1_555 1_555
C35 C34 1_555 1_555
C36 C35 1_555 1_555
H37 C36 1_555 1_555
C37 C36 1_555 1_555
H38 C37 1_555 1_555
C38 C37 1_555 1_555
C39 C38 1_555 1_555
H39 C39 1_555 1_555
C40 C35 1_555 1_555
H40 C40 1_555 1_555
C41 H41 1_555 1_555
H42 C41 1_555 1_555
H43 C41 1_555 1_555
C42 H44 1_555 1_555
H45 C42 1_555 1_555
H46 C42 1_555 1_555
N1 C1 1_555 1_555
N2 C2 1_555 1_555
H47 N2 1_555 1_555
N3 C4 1_555 1_555
H48 N3 1_555 1_555
N4 C6 1_555 1_555
N5 C8 1_555 1_555
N6 C10 1_555 1_555
H49 N6 1_555 1_555
N7 C15 1_555 1_555
H50 N7 1_555 1_555
H51 N7 1_555 1_555
O1 C1 1_555 1_555
O2 C3 1_555 1_555
O3 C5 1_555 1_555
O4 C7 1_555 1_555
O5 C9 1_555 1_555
O6 C11 1_555 1_555
O7 C15 1_555 1_555
O8 C21 1_555 1_555
H52 O8 1_555 1_555
O9 C29 1_555 1_555
H53 O9 1_555 1_555
O10 C38 1_555 1_555
C43 H54 1_555 1_555
H55 C43 1_555 1_555
H56 C43 1_555 1_555
C44 C43 1_555 1_555
C47 C48 1_555 1_555
O11 C48 1_555 1_555
C48 C49 1_555 1_555
N9 C44 1_555 1_555
C3 N2 1_555 1_555
C5 N3 1_555 1_555
C7 N4 1_555 1_555
C9 N5 1_555 1_555
C11 N6 1_555 1_555
C12 N1 1_555 1_555
C22 C23 1_555 1_555
C24 N4 1_555 1_555
C30 C31 1_555 1_555
C32 N5 1_555 1_555
C39 C40 1_555 1_555
C41 O10 1_555 1_555
C42 N1 1_555 1_555

#END
