
#######################################################################
#
#                 Cambridge Crystallographic Data Centre
#                                CCDC 
#
#######################################################################
#
# If this CIF has been generated from an entry in the Cambridge 
# Structural Database, then it will include bibliographic, chemical, 
# crystal, experimental, refinement or atomic coordinate data resulting 
# from the CCDC's data processing and validation procedures.
#
#######################################################################

data_VAZLAM
_chemical_name_common            
1,1'-bi(5,6-bis[2,6-di(propan-2-yl)phenoxy]-3-(dodecylsulfanyl)-1H-isoindol-1-ylidene)
_chemical_formula_moiety         'C88 H122 N2 O4 S2'
_chemical_name_systematic        
1-{5,6-bis[2,6-bis(propan-2-yl)phenoxy]-3-(dodecylsulfanyl)-1H-isoindol-1-ylidene}-5,6-bis[2,6-bis(propan-2-yl)phenoxy]-3-(dodecylsulfanyl)-1H-isoindole
_symmetry_cell_setting           triclinic
_symmetry_space_group_name_H-M   'P 1'
_symmetry_Int_Tables_number      1
_space_group_name_Hall           'P 1'
loop_
_symmetry_equiv_pos_site_id
_symmetry_equiv_pos_as_xyz
1 x,y,z
_cell_length_a                   8.9041(4)
_cell_length_b                   14.0916(7)
_cell_length_c                   16.2768(8)
_cell_angle_alpha                104.121(4)
_cell_angle_beta                 91.824(4)
_cell_angle_gamma                94.954(4)
_cell_volume                     1970.23
_exptl_crystal_colour            yellow
_exptl_crystal_description       block
_cell_formula_units_Z            1
loop_
_atom_site_label
_atom_site_type_symbol
_atom_site_fract_x
_atom_site_fract_y
_atom_site_fract_z
S1 S 0.97538(8) 0.87277(5) 0.64161(4)
S2 S 0.81442(8) 0.68453(5) 0.08150(4)
O1 O 1.3481(2) 1.13494(13) 0.49449(12)
O2 O 0.4608(2) 0.40957(13) 0.22066(12)
O3 O 1.2993(2) 1.06803(12) 0.33664(11)
O4 O 0.5240(2) 0.46443(13) 0.37854(12)
N1 N 0.9095(3) 0.75770(15) 0.24548(14)
C1 C 1.0838(3) 0.92109(18) 0.49536(17)
N2 N 0.9116(3) 0.78276(15) 0.47717(14)
C2 C 0.3950(3) 0.38641(19) 0.13807(17)
C3 C 0.7322(3) 0.62236(18) 0.22547(16)
C4 C 1.1250(3) 0.93138(18) 0.35099(17)
H1 H 1.1068 0.9074 0.2927
C5 C 0.7024(3) 0.60196(19) 0.36741(17)
H2 H 0.7253 0.6218 0.4256
C6 C 0.6289(3) 0.54198(18) 0.19002(17)
H3 H 0.6051 0.5227 0.1319
C7 C 0.5626(3) 0.49178(19) 0.24510(17)
C8 C 1.2510(3) 1.05101(18) 0.47269(17)
C9 C 1.1824(3) 1.00394(18) 0.52904(17)
H4 H 1.2019 1.0271 0.5873
C10 C 1.4106(3) 1.16937(19) 0.57773(18)
C11 C 1.2229(3) 1.01441(18) 0.38464(17)
C12 C 0.9463(3) 0.79813(18) 0.39747(17)
C13 C 0.8799(3) 0.73862(18) 0.32418(16)
C14 C 0.6006(3) 0.52201(18) 0.33295(17)
C15 C 0.8451(3) 0.7677(2) 0.64554(18)
H5 H 0.7891 0.7842 0.6964
H6 H 0.7734 0.7535 0.5970
C16 C 0.8242(3) 0.69169(19) 0.18907(17)
C17 C 0.9882(3) 0.85456(19) 0.53301(17)
C18 C 0.4584(3) 0.31763(19) 0.07590(19)
C19 C 0.7701(3) 0.65254(18) 0.31228(16)
C20 C 1.0541(3) 0.88475(18) 0.40819(17)
C21 C 1.3323(4) 1.23525(19) 0.63444(19)
C22 C 1.2987(3) 1.02624(19) 0.24952(17)
C23 C 0.9436(4) 0.7892(2) 0.07443(19)
H7 H 0.9252 0.8469 0.1181
H8 H 1.0472 0.7754 0.0823
C24 C 0.5396(3) 0.4909(2) 0.46697(18)
C25 C 1.1945(3) 1.0583(2) 0.19739(18)
C26 C 0.1938(4) 0.3983(2) 0.0435(2)
H9 H 0.1054 0.4245 0.0320
C27 C 1.4006(3) 0.9597(2) 0.21860(19)
C28 C 0.3849(4) 0.2918(2) -0.0044(2)
H10 H 0.4243 0.2467 -0.0480
C29 C 0.2619(3) 0.4268(2) 0.1247(2)
C30 C 0.7709(4) 0.8527(2) -0.02319(19)
H11 H 0.7823 0.9208 0.0091
H12 H 0.6909 0.8185 0.0007
C31 C 0.5980(4) 0.2715(2) 0.0949(2)
H13 H 0.6409 0.3088 0.1509
C32 C 0.5232(4) 0.8869(2) -0.2154(2)
H14 H 0.5162 0.8179 -0.2452
H15 H 0.5959 0.9221 -0.2430
C33 C 1.6300(4) 0.4885(2) 0.9081(2)
H16 H 1.6644 0.5008 0.9673
H17 H 1.5662 0.4268 0.8937
C34 C 0.5809(4) 0.8978(2) -0.1241(2)
H18 H 0.6000 0.9673 -0.0965
H19 H 0.5023 0.8701 -0.0944
C35 C 0.2542(4) 0.3322(2) -0.0203(2)
H20 H 0.2071 0.3145 -0.0744
C36 C 0.2147(4) 1.0731(2) -0.1873(2)
H21 H 0.2260 1.1444 -0.1709
H22 H 0.1671 1.0528 -0.2441
C37 C 0.4633(4) 0.5674(2) 0.5108(2)
C38 C 1.0944(4) 1.1367(2) 0.2369(2)
H23 H 1.0533 1.1187 0.2868
C39 C 1.1832(4) 1.2649(2) 0.6075(2)
H24 H 1.1287 1.2065 0.5695
C40 C 0.1951(4) 0.4994(3) 0.1954(2)
H25 H 0.2510 0.5013 0.2487
C41 C 1.5512(4) 1.1418(2) 0.5958(2)
C42 C 1.3962(4) 0.9215(2) 0.1303(2)
H26 H 1.4628 0.8762 0.1069
C43 C 1.5370(4) 0.5704(2) 0.8974(2)
H27 H 1.6023 0.6315 0.9096
H28 H 1.5001 0.5566 0.8385
C44 C 1.5428(4) 1.2476(2) 0.7355(2)
H29 H 1.5868 1.2736 0.7898
C45 C 0.4766(4) 0.5869(3) 0.5996(2)
H30 H 0.4308 0.6392 0.6321
C46 C 1.6297(4) 1.0693(2) 0.5306(2)
H31 H 1.5843 1.0676 0.4746
C47 C 0.6226(4) 0.4312(2) 0.50571(19)
C48 C 1.1959(4) 1.0178(2) 0.11077(19)
H32 H 1.1290 1.0367 0.0740
C49 C 0.7238(4) 0.8488(2) -0.11508(18)
H33 H 0.8053 0.8807 -0.1398
H34 H 0.7082 0.7806 -0.1469
C50 C 0.9169(4) 0.8076(2) -0.01332(18)
H35 H 1.0006 0.8510 -0.0239
H36 H 0.9152 0.7457 -0.0557
C51 C 0.6267(4) 0.4533(3) 0.5938(2)
H37 H 0.6783 0.4152 0.6224
C52 C 0.9243(4) 0.6768(2) 0.6454(2)
H38 H 0.9951 0.6674 0.6007
H39 H 0.8503 0.6199 0.6333
C53 C 1.4033(4) 1.2741(2) 0.7148(2)
H40 H 1.3559 1.3186 0.7552
C54 C 0.5561(5) 0.5301(3) 0.6393(2)
H41 H 0.5621 0.5441 0.6983
C55 C 1.0096(5) 0.6843(3) 0.7307(2)
H42 H 1.0812 0.7426 0.7435
H43 H 0.9381 0.6920 0.7750
C56 C 0.1118(4) 1.0356(3) -0.1268(2)
H44 H 0.1715 1.0360 -0.0758
H45 H 0.0746 0.9679 -0.1531
C57 C 1.2950(4) 0.9501(2) 0.0784(2)
H46 H 1.2930 0.9233 0.0202
C58 C 0.3713(4) 1.0359(2) -0.1890(2)
H47 H 0.4336 1.0681 -0.2240
H48 H 0.4176 1.0546 -0.1319
C59 C 0.3696(4) 0.9251(2) -0.2228(2)
H49 H 0.3340 0.9073 -0.2821
H50 H 0.2984 0.8929 -0.1920
C60 C 1.1568(4) 0.5943(3) 0.8185(2)
H51 H 1.2058 0.5344 0.8136
H52 H 1.0731 0.5915 0.8549
C61 C 0.3634(4) 0.6215(2) 0.4654(2)
H53 H 0.4064 0.6225 0.4109
C62 C 0.7178(6) 0.2761(5) 0.0319(4)
H54 H 0.6836 0.2338 -0.0223
H55 H 0.8092 0.2551 0.0513
H56 H 0.7365 0.3425 0.0266
C63 C 0.6043(5) 0.2665(2) 0.3959(3)
H57 H 0.5217 0.2444 0.4253
H58 H 0.6617 0.2125 0.3730
H59 H 0.5657 0.2919 0.3507
C64 C 1.4047(4) 0.5845(3) 0.9527(2)
H60 H 1.4393 0.5895 1.0109
H61 H 1.3321 0.5270 0.9352
C65 C 1.7653(4) 0.4787(3) 0.8541(2)
H62 H 1.8193 0.5432 0.8611
H63 H 1.7302 0.4551 0.7950
C66 C 1.3258(5) 0.6756(3) 0.9496(2)
H64 H 1.2407 0.6783 0.9856
H65 H 1.3955 0.7333 0.9735
C67 C 1.0936(4) 0.5955(2) 0.7315(2)
H66 H 1.0256 0.5365 0.7095
H67 H 1.1760 0.5940 0.6937
C68 C 1.5138(4) 0.9303(2) 0.2770(2)
H68 H 1.4974 0.9664 0.3351
C69 C 1.6752(4) 0.9602(3) 0.2582(3)
H69 H 1.6970 0.9231 0.2029
H70 H 1.7440 0.9473 0.2999
H71 H 1.6864 1.0291 0.2601
C70 C 1.6172(4) 1.1834(2) 0.6772(2)
H72 H 1.7119 1.1675 0.6918
C71 C 1.8742(4) 0.4096(3) 0.8750(3)
H73 H 1.9093 0.4321 0.9335
H74 H 1.9586 0.4086 0.8396
H75 H 1.8235 0.3446 0.8650
C72 C -0.0231(4) 1.0939(3) -0.1012(2)
H76 H -0.0814 1.0639 -0.0632
H77 H 0.0136 1.1602 -0.0703
C73 C 0.2100(5) 0.6017(3) 0.1814(4)
H78 H 0.3144 0.6218 0.1762
H79 H 0.1720 0.6465 0.2287
H80 H 0.1531 0.6020 0.1303
C74 C 1.7997(4) 1.0979(3) 0.5295(3)
H81 H 1.8491 1.0925 0.5812
H82 H 1.8163 1.1644 0.5244
H83 H 1.8401 1.0547 0.4821
C75 C 0.2057(4) 0.5660(3) 0.4470(3)
H84 H 0.2134 0.5000 0.4145
H85 H 0.1439 0.5988 0.4155
H86 H 0.1609 0.5643 0.4996
C76 C 0.5587(5) 0.1671(3) 0.1000(4)
H87 H 0.5005 0.1667 0.1486
H88 H 0.6498 0.1366 0.1051
H89 H 0.5008 0.1313 0.0495
C77 C 0.0287(5) 0.4670(3) 0.2042(3)
H90 H -0.0295 0.4693 0.1542
H91 H -0.0081 0.5104 0.2528
H92 H 0.0194 0.4011 0.2112
C78 C 1.6031(5) 0.9662(3) 0.5445(3)
H93 H 1.6478 0.9206 0.5005
H94 H 1.4965 0.9476 0.5431
H95 H 1.6481 0.9653 0.5987
C79 C 1.2690(4) 0.6811(2) 0.8621(2)
H96 H 1.3545 0.6836 0.8269
H97 H 1.2213 0.7414 0.8671
C80 C 0.7055(4) 0.3474(2) 0.4577(2)
H98 H 0.7468 0.3168 0.5003
C81 C 0.8407(4) 0.3829(3) 0.4138(3)
H99 H 0.8055 0.4065 0.3667
H100 H 0.9008 0.3294 0.3937
H101 H 0.9008 0.4351 0.4534
C82 C 1.0827(5) 1.3006(3) 0.6803(3)
H102 H 1.0753 1.2542 0.7148
H103 H 0.9839 1.3067 0.6579
H104 H 1.1254 1.3634 0.7140
C83 C -0.1247(5) 1.0990(3) -0.1749(2)
H105 H -0.0726 1.1376 -0.2081
H106 H -0.2137 1.1288 -0.1543
H107 H -0.1530 1.0338 -0.2093
C84 C 1.2088(4) 1.3427(3) 0.5563(3)
H108 H 1.2620 1.4012 0.5918
H109 H 1.1131 1.3577 0.5365
H110 H 1.2673 1.3176 0.5086
C85 C 1.1851(4) 1.2370(2) 0.2683(2)
H111 H 1.2669 1.2320 0.3064
H112 H 1.1207 1.2840 0.2974
H113 H 1.2248 1.2579 0.2207
C86 C 0.9604(4) 1.1441(3) 0.1789(3)
H114 H 0.9962 1.1670 0.1314
H115 H 0.8954 1.1894 0.2098
H116 H 0.9052 1.0805 0.1588
C87 C 1.4908(5) 0.8209(3) 0.2738(3)
H117 H 1.3901 0.8047 0.2888
H118 H 1.5621 0.8058 0.3132
H119 H 1.5057 0.7833 0.2175
C88 C 0.3512(6) 0.7278(3) 0.5138(4)
H120 H 0.2994 0.7286 0.5648
H121 H 0.2959 0.7603 0.4789
H122 H 0.4505 0.7614 0.5281
loop_
_geom_bond_atom_site_label_1
_geom_bond_atom_site_label_2
_geom_bond_site_symmetry_1
_geom_bond_site_symmetry_2
S1 C15 1_555 1_555
S2 C16 1_555 1_555
O1 C8 1_555 1_555
O2 C2 1_555 1_555
O3 C11 1_555 1_555
O4 C14 1_555 1_555
N1 C13 1_555 1_555
C1 C9 1_555 1_555
N2 C12 1_555 1_555
C2 C18 1_555 1_555
C3 C6 1_555 1_555
C4 H1 1_555 1_555
C5 H2 1_555 1_555
C6 H3 1_555 1_555
C7 O2 1_555 1_555
C8 C9 1_555 1_555
C9 H4 1_555 1_555
C10 O1 1_555 1_555
C11 C4 1_555 1_555
C12 C13 1_555 1_555
C13 C19 1_555 1_555
C14 C5 1_555 1_555
C15 H5 1_555 1_555
H6 C15 1_555 1_555
C16 N1 1_555 1_555
C17 S1 1_555 1_555
C18 C28 1_555 1_555
C19 C3 1_555 1_555
C20 C1 1_555 1_555
C21 C10 1_555 1_555
C22 O3 1_555 1_555
C23 S2 1_555 1_555
H7 C23 1_555 1_555
H8 C23 1_555 1_555
C24 O4 1_555 1_555
C25 C22 1_555 1_555
C26 H9 1_555 1_555
C27 C22 1_555 1_555
C28 H10 1_555 1_555
C29 C2 1_555 1_555
C30 H11 1_555 1_555
H12 C30 1_555 1_555
C31 C18 1_555 1_555
H13 C31 1_555 1_555
C32 H14 1_555 1_555
H15 C32 1_555 1_555
C33 H16 1_555 1_555
H17 C33 1_555 1_555
C34 C32 1_555 1_555
H18 C34 1_555 1_555
H19 C34 1_555 1_555
C35 C26 1_555 1_555
H20 C35 1_555 1_555
C36 H21 1_555 1_555
H22 C36 1_555 1_555
C37 C24 1_555 1_555
C38 C25 1_555 1_555
H23 C38 1_555 1_555
C39 C21 1_555 1_555
H24 C39 1_555 1_555
C40 C29 1_555 1_555
H25 C40 1_555 1_555
C41 C10 1_555 1_555
C42 C27 1_555 1_555
H26 C42 1_555 1_555
C43 C33 1_555 1_555
H27 C43 1_555 1_555
H28 C43 1_555 1_555
C44 H29 1_555 1_555
C45 C37 1_555 1_555
H30 C45 1_555 1_555
C46 C41 1_555 1_555
H31 C46 1_555 1_555
C47 C24 1_555 1_555
C48 C25 1_555 1_555
H32 C48 1_555 1_555
C49 C30 1_555 1_555
H33 C49 1_555 1_555
H34 C49 1_555 1_555
C50 C23 1_555 1_555
H35 C50 1_555 1_555
H36 C50 1_555 1_555
C51 C47 1_555 1_555
H37 C51 1_555 1_555
C52 C15 1_555 1_555
H38 C52 1_555 1_555
H39 C52 1_555 1_555
C53 C21 1_555 1_555
H40 C53 1_555 1_555
C54 C45 1_555 1_555
H41 C54 1_555 1_555
C55 C52 1_555 1_555
H42 C55 1_555 1_555
H43 C55 1_555 1_555
C56 C36 1_555 1_555
H44 C56 1_555 1_555
H45 C56 1_555 1_555
C57 C42 1_555 1_555
H46 C57 1_555 1_555
C58 C36 1_555 1_555
H47 C58 1_555 1_555
H48 C58 1_555 1_555
C59 C32 1_555 1_555
H49 C59 1_555 1_555
H50 C59 1_555 1_555
C60 H51 1_555 1_555
H52 C60 1_555 1_555
C61 C37 1_555 1_555
H53 C61 1_555 1_555
C62 C31 1_555 1_555
H54 C62 1_555 1_555
H55 C62 1_555 1_555
H56 C62 1_555 1_555
C63 H57 1_555 1_555
H58 C63 1_555 1_555
H59 C63 1_555 1_555
C64 C43 1_555 1_555
H60 C64 1_555 1_555
H61 C64 1_555 1_555
C65 C33 1_555 1_555
H62 C65 1_555 1_555
H63 C65 1_555 1_555
C66 C64 1_555 1_555
H64 C66 1_555 1_555
H65 C66 1_555 1_555
C67 C55 1_555 1_555
H66 C67 1_555 1_555
H67 C67 1_555 1_555
C68 C27 1_555 1_555
H68 C68 1_555 1_555
C69 C68 1_555 1_555
H69 C69 1_555 1_555
H70 C69 1_555 1_555
H71 C69 1_555 1_555
C70 C41 1_555 1_555
H72 C70 1_555 1_555
C71 C65 1_555 1_555
H73 C71 1_555 1_555
H74 C71 1_555 1_555
H75 C71 1_555 1_555
C72 C56 1_555 1_555
H76 C72 1_555 1_555
H77 C72 1_555 1_555
C73 C40 1_555 1_555
H78 C73 1_555 1_555
H79 C73 1_555 1_555
H80 C73 1_555 1_555
C74 C46 1_555 1_555
H81 C74 1_555 1_555
H82 C74 1_555 1_555
H83 C74 1_555 1_555
C75 C61 1_555 1_555
H84 C75 1_555 1_555
H85 C75 1_555 1_555
H86 C75 1_555 1_555
C76 C31 1_555 1_555
H87 C76 1_555 1_555
H88 C76 1_555 1_555
H89 C76 1_555 1_555
C77 C40 1_555 1_555
H90 C77 1_555 1_555
H91 C77 1_555 1_555
H92 C77 1_555 1_555
C78 C46 1_555 1_555
H93 C78 1_555 1_555
H94 C78 1_555 1_555
H95 C78 1_555 1_555
C79 C60 1_555 1_555
H96 C79 1_555 1_555
H97 C79 1_555 1_555
C80 C47 1_555 1_555
H98 C80 1_555 1_555
C81 C80 1_555 1_555
H99 C81 1_555 1_555
H100 C81 1_555 1_555
H101 C81 1_555 1_555
C82 C39 1_555 1_555
H102 C82 1_555 1_555
H103 C82 1_555 1_555
H104 C82 1_555 1_555
C83 C72 1_555 1_555
H105 C83 1_555 1_555
H106 C83 1_555 1_555
H107 C83 1_555 1_555
C84 C39 1_555 1_555
H108 C84 1_555 1_555
H109 C84 1_555 1_555
H110 C84 1_555 1_555
C85 C38 1_555 1_555
H111 C85 1_555 1_555
H112 C85 1_555 1_555
H113 C85 1_555 1_555
C86 C38 1_555 1_555
H114 C86 1_555 1_555
H115 C86 1_555 1_555
H116 C86 1_555 1_555
C87 C68 1_555 1_555
H117 C87 1_555 1_555
H118 C87 1_555 1_555
H119 C87 1_555 1_555
C88 C61 1_555 1_555
H120 C88 1_555 1_555
H121 C88 1_555 1_555
H122 C88 1_555 1_555
C1 C17 1_555 1_555
N2 C17 1_555 1_555
C3 C16 1_555 1_555
C4 C20 1_555 1_555
C5 C19 1_555 1_555
C6 C7 1_555 1_555
C7 C14 1_555 1_555
C8 C11 1_555 1_555
C12 C20 1_555 1_555
C26 C29 1_555 1_555
C28 C35 1_555 1_555
C30 C50 1_555 1_555
C34 C49 1_555 1_555
C44 C53 1_555 1_555
C44 C70 1_555 1_555
C48 C57 1_555 1_555
C51 C54 1_555 1_555
C58 C59 1_555 1_555
C60 C67 1_555 1_555
C63 C80 1_555 1_555
C66 C79 1_555 1_555

#END
