
#######################################################################
#
#                 Cambridge Crystallographic Data Centre
#                                CCDC 
#
#######################################################################
#
# If this CIF has been generated from an entry in the Cambridge 
# Structural Database, then it will include bibliographic, chemical, 
# crystal, experimental, refinement or atomic coordinate data resulting 
# from the CCDC's data processing and validation procedures.
#
#######################################################################

data_VAZMAK
_chemical_formula_moiety         'C16 H26 O5'
_chemical_name_systematic        
4,8:7,11:10,14-Trianhydro-2,3,6,9,12,13-hexadeoxy-12-methyl-7-C-methyl-D-erythro-D-allo-tetradec-12-enitol
_symmetry_cell_setting           monoclinic
_symmetry_space_group_name_H-M   'C 2'
_symmetry_Int_Tables_number      5
_space_group_name_Hall           'C 2y'
loop_
_symmetry_equiv_pos_site_id
_symmetry_equiv_pos_as_xyz
1 x,y,z
2 1/2+x,1/2+y,z
3 -x,y,-z
4 1/2-x,1/2+y,-z
_cell_length_a                   9.864(2)
_cell_length_b                   10.305(1)
_cell_length_c                   16.150(4)
_cell_angle_alpha                90
_cell_angle_beta                 92.26(2)
_cell_angle_gamma                90
_cell_volume                     1640.35
_exptl_crystal_colour            colorless
_chemical_melting_point          91-92deg.C
_cell_formula_units_Z            4
loop_
_atom_site_label
_atom_site_type_symbol
_atom_site_fract_x
_atom_site_fract_y
_atom_site_fract_z
C1 C 0.7281(8) 0.5000 0.0257(5)
C2 C 0.8028(8) 0.620(1) 0.0544(4)
C3 C 0.9116(7) 0.6171(8) 0.1036(4)
C4 C 0.9632(7) 0.4889(9) 0.1355(4)
C5 C 0.8546(7) 0.3861(9) 0.1267(5)
C6 C 0.9161(9) 0.2551(9) 0.1497(5)
C7 C 0.9694(8) 0.2682(9) 0.2385(4)
C8 C 1.0697(7) 0.3786(9) 0.2504(4)
C9 C 1.0891(8) 0.397(1) 0.3454(5)
C10 C 1.1365(7) 0.267(1) 0.3847(5)
C11 C 1.0524(8) 0.1553(9) 0.3557(5)
C12 C 1.1189(8) 0.021(1) 0.3771(5)
C13 C 1.0266(9) -0.090(1) 0.3563(5)
C14 C 1.092(1) -0.222(1) 0.3725(5)
C15 C 1.2038(7) 0.358(1) 0.2116(5)
C16 C 0.9941(8) 0.735(1) 0.1260(5)
O1 O 0.8025(5) 0.3832(6) 0.0432(3)
O2 O 1.0074(5) 0.4974(6) 0.2206(3)
O3 O 1.0313(5) 0.1513(6) 0.2679(3)
O4 O 1.1310(6) 0.2751(7) 0.4727(3)
O5 O 1.1192(6) -0.2454(8) 0.4581(4)
H1 H 1.0407 0.4693 0.1010
H2 H 0.7844 0.4014 0.1639
H3 H 0.8876 0.2885 0.2705
H4 H 1.2320 0.2490 0.3671
H5 H 0.9695 0.1727 0.3818
H6 H 0.6436 0.4957 0.0536
H7 H 0.7078 0.5061 -0.0322
H8 H 0.8308 0.6615 0.0056
H9 H 0.8495 0.1848 0.1435
H10 H 0.9895 0.2319 0.1149
H11 H 1.1614 0.4637 0.3549
H12 H 1.0119 0.4264 0.3696
H13 H 1.2035 0.0102 0.3501
H14 H 1.1431 0.0169 0.4372
H15 H 0.9454 -0.0848 0.3873
H16 H 0.9985 -0.0849 0.2982
H17 H 1.0363 -0.2941 0.3507
H18 H 1.1779 -0.2298 0.3458
H19 H 1.1660 0.3612 0.1445
H20 H 1.2695 0.4240 0.2204
H21 H 1.2473 0.2750 0.2206
H22 H 1.0000 0.7500 0.1875
H23 H 1.0829 0.7232 0.1059
H24 H 0.9534 0.8086 0.0991
H25 H 1.1933 0.3613 0.5000
H26 H 1.0292 -0.2207 0.4804
loop_
_geom_bond_atom_site_label_1
_geom_bond_atom_site_label_2
_geom_bond_site_symmetry_1
_geom_bond_site_symmetry_2
C1 C2 1_555 1_555
C2 C3 1_555 1_555
C3 C4 1_555 1_555
C4 C5 1_555 1_555
C5 C6 1_555 1_555
C6 C7 1_555 1_555
C7 C8 1_555 1_555
C8 C9 1_555 1_555
C9 C10 1_555 1_555
C10 C11 1_555 1_555
C11 C12 1_555 1_555
C12 C13 1_555 1_555
C13 C14 1_555 1_555
C14 O5 1_555 1_555
C15 C8 1_555 1_555
C16 C3 1_555 1_555
O1 C1 1_555 1_555
O2 C4 1_555 1_555
O3 C7 1_555 1_555
O4 C10 1_555 1_555
O5 H26 1_555 1_555
H1 C4 1_555 1_555
H2 C5 1_555 1_555
H3 C7 1_555 1_555
H4 C10 1_555 1_555
H5 C11 1_555 1_555
H6 C1 1_555 1_555
H7 C1 1_555 1_555
H8 C2 1_555 1_555
H9 C6 1_555 1_555
H10 C6 1_555 1_555
H11 C9 1_555 1_555
H12 C9 1_555 1_555
H13 C12 1_555 1_555
H14 C12 1_555 1_555
H15 C13 1_555 1_555
H16 C13 1_555 1_555
H17 C14 1_555 1_555
H18 C14 1_555 1_555
H19 C15 1_555 1_555
H20 C15 1_555 1_555
H21 C15 1_555 1_555
H22 C16 1_555 1_555
H23 C16 1_555 1_555
H24 C16 1_555 1_555
H25 O4 1_555 1_555
C5 O1 1_555 1_555
C8 O2 1_555 1_555
C11 O3 1_555 1_555

#END
