
#######################################################################
#
#                 Cambridge Crystallographic Data Centre
#                                CCDC 
#
#######################################################################
#
# If this CIF has been generated from an entry in the Cambridge 
# Structural Database, then it will include bibliographic, chemical, 
# crystal, experimental, refinement or atomic coordinate data resulting 
# from the CCDC's data processing and validation procedures.
#
#######################################################################

data_VAZTEY
_chemical_formula_moiety         'C27 H17 N3 O6,C2 H6 O1 S1'
_chemical_name_systematic        
"N'-((3',6'-dihydroxy-3-oxo-3H-spiro[2-benzofuran-1,9'-xanthen]-4'-yl)methylidene)pyridine-4-carbohydrazide dimethyl sulfoxide solvate"
_symmetry_cell_setting           triclinic
_symmetry_space_group_name_H-M   'P -1'
_symmetry_Int_Tables_number      2
_space_group_name_Hall           '-P 1'
loop_
_symmetry_equiv_pos_site_id
_symmetry_equiv_pos_as_xyz
1 x,y,z
2 -x,-y,-z
_cell_length_a                   7.7595(16)
_cell_length_b                   13.126(4)
_cell_length_c                   14.358(3)
_cell_angle_alpha                106.59(2)
_cell_angle_beta                 94.664(19)
_cell_angle_gamma                105.99(2)
_cell_volume                     1326.82
_exptl_crystal_colour            'dark red'
_exptl_crystal_description       block
_cell_formula_units_Z            2
loop_
_atom_site_label
_atom_site_type_symbol
_atom_site_fract_x
_atom_site_fract_y
_atom_site_fract_z
O1 O 0.8957(5) 1.2061(3) -0.0500(3)
H1 H 0.9736 1.2665 -0.0401
O2 O 0.6996(4) 0.9209(3) 0.0863(3)
O3 O 0.5067(5) 0.5906(3) 0.1747(3)
H2 H 0.4411 0.5686 0.1206
O4 O 0.9250(4) 1.1065(3) 0.3439(3)
O5 O 1.0407(6) 1.2224(4) 0.4980(3)
O6 O 0.1098(5) 0.4085(3) -0.0405(3)
N1 N 0.3627(5) 0.6088(4) 0.0149(3)
N2 N 0.2421(5) 0.5674(4) -0.0734(3)
H3 H 0.2478 0.6046 -0.1142
N3 N -0.2765(7) 0.3649(5) -0.3584(4)
C1 C 0.8276(6) 1.0220(4) 0.0960(4)
C2 C 0.8033(7) 1.0660(5) 0.0210(4)
H4 H 0.7048 1.0293 -0.0304
C3 C 0.9270(7) 1.1647(4) 0.0238(4)
C4 C 1.0805(7) 1.2162(5) 0.0979(4)
H5 H 1.1693 1.2797 0.0966
C5 C 1.0995(7) 1.1717(5) 0.1735(4)
H6 H 1.1995 1.2077 0.2241
C6 C 0.9718(7) 1.0741(4) 0.1751(4)
C7 C 0.9818(6) 1.0302(4) 0.2611(3)
C8 C 0.8519(6) 0.9148(4) 0.2364(4)
C9 C 0.8553(7) 0.8523(5) 0.3014(4)
H7 H 0.9395 0.8836 0.3598
C10 C 0.7375(8) 0.7467(5) 0.2801(4)
H8 H 0.7412 0.7078 0.3248
C11 C 0.6124(7) 0.6968(4) 0.1928(4)
C12 C 0.6012(6) 0.7564(4) 0.1269(4)
C13 C 0.7220(6) 0.8665(4) 0.1521(4)
C14 C 1.0597(8) 1.1571(5) 0.4237(4)
C15 C 1.2175(7) 1.1179(5) 0.4015(4)
C16 C 1.3844(8) 1.1445(5) 0.4617(4)
H9 H 1.4124 1.1947 0.5255
C17 C 1.5065(8) 1.0926(6) 0.4217(5)
H10 H 1.6196 1.1080 0.4593
C18 C 1.4634(7) 1.0183(5) 0.3268(5)
H11 H 1.5482 0.9846 0.3019
C19 C 1.2960(7) 0.9926(4) 0.2673(4)
H12 H 1.2687 0.9428 0.2033
C20 C 1.1720(7) 1.0431(5) 0.3061(4)
C21 C 0.4747(6) 0.7074(4) 0.0356(4)
H13 H 0.4741 0.7472 -0.0085
C22 C 0.1148(6) 0.4666(4) -0.0933(4)
C23 C -0.0217(7) 0.4323(5) -0.1868(4)
C24 C -0.0566(8) 0.5093(5) -0.2275(5)
H14 H 0.0053 0.5853 -0.1986
C25 C -0.1856(9) 0.4711(6) -0.3121(5)
H15 H -0.2100 0.5239 -0.3381
C26 C -0.2442(8) 0.2915(6) -0.3173(5)
H16 H -0.3090 0.2161 -0.3475
C27 C -0.1203(7) 0.3211(5) -0.2326(4)
H17 H -0.1032 0.2668 -0.2064
S1 S 0.5933(3) 0.3405(2) 0.3086(2)
O7 O 0.6297(8) 0.3201(6) 0.2038(4)
C28 C 0.6476(14) 0.4902(9) 0.3656(10)
H18 H 0.7681 0.5270 0.3576
H19 H 0.6418 0.5067 0.4346
H20 H 0.5617 0.5163 0.3348
C29 C 0.7755(11) 0.3304(8) 0.3803(8)
H21 H 0.7953 0.2601 0.3506
H22 H 0.7490 0.3352 0.4453
H23 H 0.8830 0.3905 0.3847
loop_
_geom_bond_atom_site_label_1
_geom_bond_atom_site_label_2
_geom_bond_site_symmetry_1
_geom_bond_site_symmetry_2
O1 H1 1_555 1_555
O2 C1 1_555 1_555
O3 H2 1_555 1_555
O4 C7 1_555 1_555
O5 C14 1_555 1_555
O6 C22 1_555 1_555
N1 N2 1_555 1_555
N2 H3 1_555 1_555
N3 C25 1_555 1_555
C1 C2 1_555 1_555
C2 H4 1_555 1_555
C3 O1 1_555 1_555
C4 C3 1_555 1_555
H5 C4 1_555 1_555
C5 C4 1_555 1_555
H6 C5 1_555 1_555
C6 C1 1_555 1_555
C7 C6 1_555 1_555
C8 C7 1_555 1_555
C9 C8 1_555 1_555
H7 C9 1_555 1_555
C10 C9 1_555 1_555
H8 C10 1_555 1_555
C11 O3 1_555 1_555
C12 C11 1_555 1_555
C13 O2 1_555 1_555
C14 O4 1_555 1_555
C15 C14 1_555 1_555
C16 C15 1_555 1_555
H9 C16 1_555 1_555
C17 C16 1_555 1_555
H10 C17 1_555 1_555
C18 C17 1_555 1_555
H11 C18 1_555 1_555
C19 C18 1_555 1_555
H12 C19 1_555 1_555
C20 C7 1_555 1_555
C21 N1 1_555 1_555
H13 C21 1_555 1_555
C22 N2 1_555 1_555
C23 C22 1_555 1_555
C24 C23 1_555 1_555
H14 C24 1_555 1_555
C25 C24 1_555 1_555
H15 C25 1_555 1_555
C26 N3 1_555 1_555
H16 C26 1_555 1_555
C27 C23 1_555 1_555
H17 C27 1_555 1_555
S1 O7 1_555 1_555
C28 S1 1_555 1_555
H18 C28 1_555 1_555
H19 C28 1_555 1_555
H20 C28 1_555 1_555
C29 S1 1_555 1_555
H21 C29 1_555 1_555
H22 C29 1_555 1_555
H23 C29 1_555 1_555
C2 C3 1_555 1_555
C5 C6 1_555 1_555
C8 C13 1_555 1_555
C10 C11 1_555 1_555
C12 C13 1_555 1_555
C12 C21 1_555 1_555
C15 C20 1_555 1_555
C19 C20 1_555 1_555
C26 C27 1_555 1_555

#END
