
#######################################################################
#
#                 Cambridge Crystallographic Data Centre
#                                CCDC 
#
#######################################################################
#
# If this CIF has been generated from an entry in the Cambridge 
# Structural Database, then it will include bibliographic, chemical, 
# crystal, experimental, refinement or atomic coordinate data resulting 
# from the CCDC's data processing and validation procedures.
#
#######################################################################

data_VEBCIO
_chemical_name_common            3,3':4,4'-Bicoumarin
_chemical_formula_moiety         'C18 H12 O4'
_chemical_name_systematic        syn-Coumarin(3,4-c)cyclobutane(1,2-c)coumarin
_symmetry_cell_setting           monoclinic
_symmetry_space_group_name_H-M   'P 21/c'
_symmetry_Int_Tables_number      14
_space_group_name_Hall           '-P 2ybc'
loop_
_symmetry_equiv_pos_site_id
_symmetry_equiv_pos_as_xyz
1 x,y,z
2 -x,1/2+y,1/2-z
3 -x,-y,-z
4 x,1/2-y,1/2+z
_cell_length_a                   10.461(3)
_cell_length_b                   11.785(2)
_cell_length_c                   10.974(2)
_cell_angle_alpha                90
_cell_angle_beta                 91.12(2)
_cell_angle_gamma                90
_cell_volume                     1352.65
_exptl_crystal_colour            colorless
_cell_formula_units_Z            4
loop_
_atom_site_label
_atom_site_type_symbol
_atom_site_fract_x
_atom_site_fract_y
_atom_site_fract_z
C1 C 0.3983(3) 0.0491(3) 0.8902(3)
C2 C 0.3437(3) -0.0579(3) 0.8793(3)
C3 C 0.2342(3) -0.0784(3) 0.9482(3)
C4 C 0.1843(3) 0.0067(4) 1.0214(3)
C5 C 0.2407(4) 0.1125(3) 1.0285(3)
C6 C 0.3499(3) 0.1343(3) 0.9633(3)
C7 C 0.1175(3) -0.0676(3) 0.6501(3)
C8 C 0.1734(3) -0.1692(3) 0.6830(3)
C9 C 0.0932(3) -0.2591(3) 0.7112(3)
C10 C -0.0380(3) -0.2465(3) 0.7063(4)
C11 C -0.0907(3) -0.1444(4) 0.6733(3)
C12 C -0.0144(3) -0.0530(3) 0.6451(3)
C13 C 0.3992(3) -0.1468(2) 0.7983(3)
C14 C 0.3149(3) -0.1793(2) 0.6839(3)
C15 C 0.3845(3) -0.0873(3) 0.6111(3)
C16 C 0.4947(3) -0.0927(3) 0.7084(3)
C17 C 0.5621(3) 0.0153(3) 0.7417(3)
C18 C 0.3183(3) 0.0262(3) 0.6067(3)
O1 O 0.6576(2) 0.0490(2) 0.6949(2)
O2 O 0.3714(2) 0.1143(2) 0.5882(2)
O3 O 0.5116(2) 0.0803(2) 0.8313(2)
O4 O 0.1893(2) 0.0294(2) 0.6208(2)
H1 H 0.191(3) -0.161(3) 0.937(3)
H2 H 0.114(4) -0.009(4) 1.068(4)
H3 H 0.213(4) 0.175(3) 1.090(3)
H4 H 0.402(3) 0.216(3) 0.971(3)
H5 H 0.133(3) -0.324(3) 0.733(3)
H6 H -0.093(3) -0.304(3) 0.715(3)
H7 H -0.177(3) -0.141(3) 0.663(3)
H8 H -0.048(3) 0.025(3) 0.612(3)
H9 H 0.428(3) -0.212(3) 0.843(3)
H10 H 0.339(3) -0.252(2) 0.653(3)
H11 H 0.405(3) -0.108(3) 0.530(3)
H12 H 0.557(3) -0.149(3) 0.681(3)
loop_
_geom_bond_atom_site_label_1
_geom_bond_atom_site_label_2
_geom_bond_site_symmetry_1
_geom_bond_site_symmetry_2
C1 C2 1_555 1_555
C2 C3 1_555 1_555
C3 C4 1_555 1_555
C4 C5 1_555 1_555
C5 C6 1_555 1_555
C6 C1 1_555 1_555
C7 C8 1_555 1_555
C8 C9 1_555 1_555
C9 C10 1_555 1_555
C10 C11 1_555 1_555
C11 C12 1_555 1_555
C12 C7 1_555 1_555
C13 C2 1_555 1_555
C14 C8 1_555 1_555
C15 C14 1_555 1_555
C16 C13 1_555 1_555
C17 C16 1_555 1_555
C18 C15 1_555 1_555
O1 C17 1_555 1_555
O2 C18 1_555 1_555
O3 C1 1_555 1_555
O4 C7 1_555 1_555
H1 C3 1_555 1_555
H2 C4 1_555 1_555
H3 C5 1_555 1_555
H4 C6 1_555 1_555
H5 C9 1_555 1_555
H6 C10 1_555 1_555
H7 C11 1_555 1_555
H8 C12 1_555 1_555
H9 C13 1_555 1_555
H10 C14 1_555 1_555
H11 C15 1_555 1_555
H12 C16 1_555 1_555
C13 C14 1_555 1_555
C15 C16 1_555 1_555
C17 O3 1_555 1_555
C18 O4 1_555 1_555

#END
