
#######################################################################
#
#                 Cambridge Crystallographic Data Centre
#                                CCDC 
#
#######################################################################
#
# If this CIF has been generated from an entry in the Cambridge 
# Structural Database, then it will include bibliographic, chemical, 
# crystal, experimental, refinement or atomic coordinate data resulting 
# from the CCDC's data processing and validation procedures.
#
#######################################################################

data_VEBHAL01
_chemical_name_common            
Tetra-aqua-(4-pyridinecarboxylato-N)-(4-pyridinecarboxylato-O,O')-calcium(ii)
_chemical_formula_moiety         'C12 H16 Ca1 N2 O8'
_chemical_name_systematic        
Tetra-aqua-(isonicotinato-N)-(isonicotinato-O,O')-calcium(ii)
_symmetry_cell_setting           monoclinic
_symmetry_space_group_name_H-M   'P 21/c'
_symmetry_Int_Tables_number      14
_space_group_name_Hall           '-P 2ybc'
loop_
_symmetry_equiv_pos_site_id
_symmetry_equiv_pos_as_xyz
1 x,y,z
2 -x,1/2+y,1/2-z
3 -x,-y,-z
4 x,1/2-y,1/2+z
_cell_length_a                   6.1600(9)
_cell_length_b                   36.389(5)
_cell_length_c                   7.2288(10)
_cell_angle_alpha                90
_cell_angle_beta                 104.803(2)
_cell_angle_gamma                90
_cell_volume                     1566.6
_exptl_crystal_colour            colorless
_exptl_crystal_description       needle-like
_cell_formula_units_Z            4
loop_
_atom_site_label
_atom_site_type_symbol
_atom_site_fract_x
_atom_site_fract_y
_atom_site_fract_z
Ca1 Ca 0.73712(13) 0.12769(2) 0.67530(12)
O1 O 0.3967(5) 0.16803(8) 0.6115(5)
O2 O 0.9826(5) 0.13677(9) 0.4772(5)
H1 H 1.1106 0.1455 0.5329
H2 H 1.0044 0.1177 0.4166
O3 O 0.7323(5) 0.19283(8) 0.7026(5)
O4 O 1.0675(5) 0.13000(7) 0.9412(4)
H3 H 1.0700 0.1153 1.0332
H4 H 1.1226 0.1504 0.9876
O5 O 0.9296(5) -0.07918(8) 0.7596(5)
O6 O 1.2840(5) -0.05966(8) 0.8268(4)
O7 O 0.5370(5) 0.10919(9) 0.8959(5)
H5 H 0.5942 0.0937 0.9825
H6 H 0.4078 0.1151 0.9079
O8 O 0.5122(5) 0.09981(9) 0.3981(5)
H7 H 0.3738 0.0946 0.3556
H8 H 0.5855 0.0880 0.3325
N1 N 0.2423(7) 0.30403(10) 0.5794(6)
N2 N 0.8674(6) 0.05882(9) 0.7119(5)
C1 C 0.5577(8) 0.26416(12) 0.6751(6)
H9 H 0.7121 0.2616 0.7229
C2 C 0.4619(9) 0.29852(12) 0.6467(7)
H10 H 0.5553 0.3189 0.6759
C3 C 0.1138(8) 0.27457(13) 0.5438(8)
H11 H -0.0403 0.2780 0.4993
C4 C 0.1925(8) 0.23894(12) 0.5680(7)
H12 H 0.0940 0.2191 0.5422
C5 C 0.4213(7) 0.23352(10) 0.6316(6)
C6 C 0.5213(7) 0.19560(11) 0.6504(6)
C7 C 1.1537(7) 0.01314(11) 0.7775(7)
H13 H 1.3062 0.0077 0.8072
C8 C 1.0830(8) 0.04889(12) 0.7516(7)
H14 H 1.1908 0.0672 0.7622
C9 C 0.7200(7) 0.03191(12) 0.6958(7)
H15 H 0.5686 0.0381 0.6680
C10 C 0.7763(7) -0.00505(12) 0.7178(6)
H16 H 0.6655 -0.0229 0.7045
C11 C 0.9992(7) -0.01470(10) 0.7595(5)
C12 C 1.0767(7) -0.05431(11) 0.7837(6)
loop_
_geom_bond_atom_site_label_1
_geom_bond_atom_site_label_2
_geom_bond_site_symmetry_1
_geom_bond_site_symmetry_2
Ca1 O1 1_555 1_555
O1 C6 1_555 1_555
O2 Ca1 1_555 1_555
H1 O2 1_555 1_555
H2 O2 1_555 1_555
O3 Ca1 1_555 1_555
O4 Ca1 1_555 1_555
H3 O4 1_555 1_555
H4 O4 1_555 1_555
O5 C12 1_555 1_555
O6 C12 1_555 1_555
O7 Ca1 1_555 1_555
H5 O7 1_555 1_555
H6 O7 1_555 1_555
O8 Ca1 1_555 1_555
H7 O8 1_555 1_555
H8 O8 1_555 1_555
N1 C2 1_555 1_555
N2 Ca1 1_555 1_555
C1 H9 1_555 1_555
C2 C1 1_555 1_555
H10 C2 1_555 1_555
C3 N1 1_555 1_555
H11 C3 1_555 1_555
C4 C3 1_555 1_555
H12 C4 1_555 1_555
C5 C1 1_555 1_555
C6 O3 1_555 1_555
C7 H13 1_555 1_555
C8 N2 1_555 1_555
H14 C8 1_555 1_555
C9 N2 1_555 1_555
H15 C9 1_555 1_555
C10 C9 1_555 1_555
H16 C10 1_555 1_555
C11 C7 1_555 1_555
C12 C11 1_555 1_555
C4 C5 1_555 1_555
C5 C6 1_555 1_555
C7 C8 1_555 1_555
C10 C11 1_555 1_555

#END
