
#######################################################################
#
#                 Cambridge Crystallographic Data Centre
#                                CCDC 
#
#######################################################################
#
# If this CIF has been generated from an entry in the Cambridge 
# Structural Database, then it will include bibliographic, chemical, 
# crystal, experimental, refinement or atomic coordinate data resulting 
# from the CCDC's data processing and validation procedures.
#
#######################################################################

data_VEBKUL
_chemical_formula_moiety         'C22 H20 N2 O1'
_chemical_name_systematic        
2-phenyl-N-(quinolin-8-yl)bicyclo[3.1.0]hexane-2-carboxamide
_symmetry_cell_setting           monoclinic
_symmetry_space_group_name_H-M   'P 21/n'
_symmetry_Int_Tables_number      14
_space_group_name_Hall           '-P 2yn'
loop_
_symmetry_equiv_pos_site_id
_symmetry_equiv_pos_as_xyz
1 x,y,z
2 1/2-x,1/2+y,1/2-z
3 -x,-y,-z
4 1/2+x,1/2-y,1/2+z
_cell_length_a                   9.0281(5)
_cell_length_b                   19.9858(17)
_cell_length_c                   10.0464(8)
_cell_angle_alpha                90
_cell_angle_beta                 100.096(6)
_cell_angle_gamma                90
_cell_volume                     1784.64
_exptl_crystal_colour            'light yellow'
_exptl_crystal_description       block
_cell_formula_units_Z            4
loop_
_atom_site_label
_atom_site_type_symbol
_atom_site_fract_x
_atom_site_fract_y
_atom_site_fract_z
O1 O 0.10681(18) 0.10498(9) 0.55412(16)
N1 N 0.0639(2) 0.10494(9) 1.03011(19)
N2 N 0.06378(17) 0.11569(8) 0.76780(16)
H1 H 0.0152 0.1394 0.8172
C1 C 0.0616(3) 0.09932(15) 1.1607(3)
H2 H 0.0035 0.1295 1.1996
C2 C 0.1422(3) 0.05015(17) 1.2447(3)
H3 H 0.1369 0.0483 1.3362
C3 C 0.2259(3) 0.00637(15) 1.1906(3)
H4 H 0.2799 -0.0262 1.2449
C4 C 0.2333(2) 0.00896(11) 1.0536(2)
C5 C 0.1497(2) 0.05937(10) 0.9763(2)
C6 C 0.1524(2) 0.06429(9) 0.8357(2)
C7 C 0.2379(2) 0.02061(11) 0.7768(2)
H5 H 0.2417 0.0241 0.6852
C8 C 0.3198(3) -0.02941(12) 0.8550(3)
H6 H 0.3769 -0.0591 0.8138
C9 C 0.3182(3) -0.03570(13) 0.9883(3)
H7 H 0.3733 -0.0696 1.0375
C10 C 0.0438(2) 0.13328(10) 0.6362(2)
C11 C -0.06429(19) 0.19170(9) 0.59648(19)
C12 C -0.0377(2) 0.22419(11) 0.4635(2)
H8 H 0.0678 0.2217 0.4556
H9 H -0.0969 0.2020 0.3862
C13 C -0.0870(3) 0.29696(12) 0.4717(3)
H10 H -0.0314 0.3259 0.4205
H11 H -0.1937 0.3018 0.4371
C14 C -0.0524(3) 0.31348(11) 0.6188(3)
H12 H -0.1027 0.3517 0.6529
C15 C -0.0376(2) 0.24881(10) 0.6972(2)
H13 H -0.0789 0.2459 0.7809
C16 C 0.0987(3) 0.29099(12) 0.6945(3)
H14 H 0.1719 0.2750 0.6419
H15 H 0.1409 0.3150 0.7763
C17 C -0.2267(2) 0.16545(10) 0.5778(2)
C18 C -0.2641(2) 0.10635(10) 0.5092(2)
H16 H -0.1890 0.0813 0.4801
C19 C -0.4103(3) 0.08371(13) 0.4830(2)
H17 H -0.4327 0.0439 0.4359
C20 C -0.5215(3) 0.11864(17) 0.5248(3)
H18 H -0.6200 0.1030 0.5075
C21 C -0.4876(3) 0.17710(19) 0.5926(3)
H19 H -0.5638 0.2015 0.6216
C22 C -0.3405(2) 0.20095(14) 0.6193(3)
H20 H -0.3193 0.2411 0.6654
loop_
_geom_bond_atom_site_label_1
_geom_bond_atom_site_label_2
_geom_bond_site_symmetry_1
_geom_bond_site_symmetry_2
O1 C10 1_555 1_555
N1 C1 1_555 1_555
N2 H1 1_555 1_555
C1 H2 1_555 1_555
C2 C1 1_555 1_555
H3 C2 1_555 1_555
C3 C2 1_555 1_555
H4 C3 1_555 1_555
C4 C3 1_555 1_555
C5 N1 1_555 1_555
C6 N2 1_555 1_555
C7 C6 1_555 1_555
H5 C7 1_555 1_555
C8 C7 1_555 1_555
H6 C8 1_555 1_555
C9 C4 1_555 1_555
H7 C9 1_555 1_555
C10 N2 1_555 1_555
C11 C10 1_555 1_555
C12 C11 1_555 1_555
H8 C12 1_555 1_555
H9 C12 1_555 1_555
C13 C12 1_555 1_555
H10 C13 1_555 1_555
H11 C13 1_555 1_555
C14 C13 1_555 1_555
H12 C14 1_555 1_555
C15 C11 1_555 1_555
H13 C15 1_555 1_555
C16 C14 1_555 1_555
H14 C16 1_555 1_555
H15 C16 1_555 1_555
C17 C11 1_555 1_555
C18 C17 1_555 1_555
H16 C18 1_555 1_555
C19 C18 1_555 1_555
H17 C19 1_555 1_555
C20 C19 1_555 1_555
H18 C20 1_555 1_555
C21 C20 1_555 1_555
H19 C21 1_555 1_555
C22 C17 1_555 1_555
H20 C22 1_555 1_555
C4 C5 1_555 1_555
C5 C6 1_555 1_555
C8 C9 1_555 1_555
C14 C15 1_555 1_555
C15 C16 1_555 1_555
C21 C22 1_555 1_555

#END
