
#######################################################################
#
#                 Cambridge Crystallographic Data Centre
#                                CCDC 
#
#######################################################################
#
# If this CIF has been generated from an entry in the Cambridge 
# Structural Database, then it will include bibliographic, chemical, 
# crystal, experimental, refinement or atomic coordinate data resulting 
# from the CCDC's data processing and validation procedures.
#
#######################################################################

data_VEBMAQ
_chemical_formula_moiety         'C22 H14 N2 Se2'
_chemical_name_systematic        
9-(1,1-Dicyanomethylene)-10-(4,5-dimethyl-1,3-diselenol-2-ylidene)-9,10-dihydroanthracene
_symmetry_cell_setting           monoclinic
_symmetry_space_group_name_H-M   'P 21/c'
_symmetry_Int_Tables_number      14
_space_group_name_Hall           '-P 2ybc'
loop_
_symmetry_equiv_pos_site_id
_symmetry_equiv_pos_as_xyz
1 x,y,z
2 x,1/2-y,1/2+z
3 -x,-y,-z
4 -x,1/2+y,1/2-z
_cell_length_a                   15.795(1)
_cell_length_b                   8.685(1)
_cell_length_c                   14.368(1)
_cell_angle_alpha                90
_cell_angle_beta                 112.39(1)
_cell_angle_gamma                90
_cell_volume                     1822.41
_exptl_crystal_colour            purple
_exptl_crystal_description       plate
_chemical_melting_point          'above 523K'
_cell_formula_units_Z            4
loop_
_atom_site_label
_atom_site_type_symbol
_atom_site_fract_x
_atom_site_fract_y
_atom_site_fract_z
Se1 Se 0.06035(2) 0.43276(3) 0.32954(2)
Se2 Se 0.170096(15) 0.36604(3) 0.19092(2)
N1 N 0.4427(2) 1.0459(2) 0.3480(2)
N2 N 0.2897(2) 1.1327(3) 0.5250(2)
C1 C 0.20822(15) 0.4920(3) 0.5423(2)
H1 H 0.1792(17) 0.3937(30) 0.5229(19)
C2 C 0.2089(2) 0.5588(3) 0.6304(2)
H2 H 0.1781(18) 0.5080(33) 0.6686(20)
C3 C 0.2570(2) 0.6949(3) 0.6662(2)
H3 H 0.2610(18) 0.7367(33) 0.7265(21)
C4 C 0.30543(15) 0.7634(3) 0.6145(2)
H4 H 0.3408(19) 0.8492(35) 0.6397(22)
C5 C 0.30428(13) 0.6986(2) 0.52460(15)
C6 C 0.47850(14) 0.6721(3) 0.4085(2)
H5 H 0.5145(17) 0.7558(30) 0.4361(18)
C7 C 0.51075(15) 0.5646(3) 0.3583(2)
H6 H 0.5697(18) 0.5797(31) 0.3545(20)
C8 C 0.4589(2) 0.4338(3) 0.3176(2)
H7 H 0.4788(19) 0.3614(33) 0.2840(21)
C9 C 0.37590(14) 0.4091(3) 0.3277(2)
H8 H 0.3420(16) 0.3099(30) 0.3029(18)
C10 C 0.34142(13) 0.5165(2) 0.37737(15)
C11 C 0.25408(13) 0.4962(2) 0.39138(15)
C12 C 0.25423(13) 0.5614(2) 0.48687(15)
C13 C 0.35536(13) 0.7646(2) 0.46696(15)
C14 C 0.39341(13) 0.6510(2) 0.41712(15)
C15 C 0.17707(14) 0.4370(2) 0.3191(2)
C16 C -0.0066(2) 0.3854(3) 0.1916(2)
C17 C 0.0399(2) 0.3533(3) 0.1336(2)
C18 C -0.1087(2) 0.3824(4) 0.1622(2)
H9 H -0.1296(25) 0.4785(49) 0.1745(29)
H10 H -0.1215(24) 0.3031(44) 0.2017(28)
H11 H -0.1383(25) 0.3547(43) 0.0879(29)
C19 C 0.0008(2) 0.3011(4) 0.0253(2)
H12 H 0.0091(21) 0.1925(41) 0.0270(24)
H13 H 0.0289(21) 0.3484(37) -0.0139(24)
H14 H -0.0631(25) 0.3292(41) -0.0082(26)
C20 C 0.36258(14) 0.9199(3) 0.4554(2)
C21 C 0.40763(15) 0.9867(3) 0.3938(2)
C22 C 0.3208(2) 1.0368(3) 0.4972(2)
loop_
_geom_bond_atom_site_label_1
_geom_bond_atom_site_label_2
_geom_bond_site_symmetry_1
_geom_bond_site_symmetry_2
Se1 C15 1_555 1_555
Se2 C15 1_555 1_555
N1 C21 1_555 1_555
N2 C22 1_555 1_555
C1 H1 1_555 1_555
C2 C1 1_555 1_555
H2 C2 1_555 1_555
C3 C2 1_555 1_555
H3 C3 1_555 1_555
C4 C3 1_555 1_555
H4 C4 1_555 1_555
C5 C4 1_555 1_555
C6 H5 1_555 1_555
C7 C6 1_555 1_555
H6 C7 1_555 1_555
C8 C7 1_555 1_555
H7 C8 1_555 1_555
C9 C8 1_555 1_555
H8 C9 1_555 1_555
C10 C9 1_555 1_555
C11 C10 1_555 1_555
C12 C1 1_555 1_555
C13 C5 1_555 1_555
C14 C6 1_555 1_555
C15 C11 1_555 1_555
C16 Se1 1_555 1_555
C17 Se2 1_555 1_555
C18 C16 1_555 1_555
H9 C18 1_555 1_555
H10 C18 1_555 1_555
H11 C18 1_555 1_555
C19 C17 1_555 1_555
H12 C19 1_555 1_555
H13 C19 1_555 1_555
H14 C19 1_555 1_555
C20 C13 1_555 1_555
C21 C20 1_555 1_555
C22 C20 1_555 1_555
C5 C12 1_555 1_555
C10 C14 1_555 1_555
C11 C12 1_555 1_555
C13 C14 1_555 1_555
C16 C17 1_555 1_555

#END
