
#######################################################################
#
#                 Cambridge Crystallographic Data Centre
#                                CCDC 
#
#######################################################################
#
# If this CIF has been generated from an entry in the Cambridge 
# Structural Database, then it will include bibliographic, chemical, 
# crystal, experimental, refinement or atomic coordinate data resulting 
# from the CCDC's data processing and validation procedures.
#
#######################################################################

data_VEBPIE
_chemical_formula_moiety         'C30 H52 O4,H2 O1'
_chemical_name_systematic        
"10-(hydroxymethyl)-4,4,7a,10,13a,15b-hexamethyldocosahydro-6aH-cyclohepta[1,2-a:5,4-a']dinaphthalene-3,6a,11-triol monohydrate"
_symmetry_cell_setting           triclinic
_symmetry_space_group_name_H-M   'P 1'
_symmetry_Int_Tables_number      1
_space_group_name_Hall           'P 1'
loop_
_symmetry_equiv_pos_site_id
_symmetry_equiv_pos_as_xyz
1 x,y,z
_cell_length_a                   6.4538(5)
_cell_length_b                   7.0997(6)
_cell_length_c                   31.503(3)
_cell_angle_alpha                89.645(3)
_cell_angle_beta                 88.378(3)
_cell_angle_gamma                68.169(4)
_cell_volume                     1339.4
_exptl_crystal_colour            colorless
_exptl_crystal_description       block
_cell_formula_units_Z            2
_exptl_crystal_recrystallization_method methanol/dichloromethane
loop_
_atom_site_label
_atom_site_type_symbol
_atom_site_fract_x
_atom_site_fract_y
_atom_site_fract_z
O1 O 0.4989(11) 0.2940(10) 0.9864(2)
H1 H 0.6241 0.2917 0.9925
O2 O 0.3311(13) -0.0626(12) 0.5780(2)
H2 H 0.2796 -0.0385 0.5539
O3 O -0.1716(11) 0.4341(12) 0.8081(2)
H3 H -0.1363 0.3133 0.8149
O4 O 0.7549(13) 0.2448(11) 0.5324(2)
H4 H 0.8142 0.1244 0.5247
C1 C 0.3753(15) 0.2786(12) 0.6306(3)
H5 H 0.2331 0.2555 0.6306
C2 C 0.0019(16) 0.6451(12) 0.8686(3)
H6 H -0.1288 0.6145 0.8776
H7 H -0.0106 0.7728 0.8822
C3 C 0.6970(17) 0.2537(14) 0.5762(3)
H8 H 0.6766 0.3884 0.5872
H9 H 0.8201 0.1536 0.5913
C4 C 0.0285(15) 0.4996(13) 0.7488(3)
H10 H -0.0681 0.6410 0.7436
H11 H -0.0501 0.4163 0.7379
C5 C 0.4776(15) 0.3038(13) 0.9414(3)
H12 H 0.5995 0.3407 0.9288
C6 C 0.4953(16) 0.1041(13) 0.9231(3)
H13 H 0.3821 0.0615 0.9370
H14 H 0.6423 0.0021 0.9294
C7 C 0.2375(15) 0.4567(13) 0.7187(3)
C8 C 0.5299(16) -0.0176(14) 0.5796(3)
H15 H 0.6162 -0.0634 0.5526
C9 C 0.2491(15) 0.4773(13) 0.9315(3)
C10 C 0.7291(14) 0.1733(12) 0.6768(3)
H16 H 0.8451 0.0784 0.6588
H17 H 0.7670 0.1452 0.7063
H18 H 0.7163 0.3107 0.6701
C11 C 0.5044(14) 0.1506(12) 0.6690(3)
C12 C 0.0292(14) 0.4738(12) 0.7970(3)
C13 C 0.4435(16) 0.0848(13) 0.7484(3)
H19 H 0.5053 -0.0577 0.7393
H20 H 0.5678 0.1197 0.7580
C14 C 0.4803(16) 0.2119(14) 0.5853(3)
C15 C 0.6647(16) -0.1432(13) 0.6152(3)
H21 H 0.8113 -0.1315 0.6151
H22 H 0.6883 -0.2861 0.6105
C16 C 0.0034(17) 0.6699(14) 0.8211(3)
H23 H 0.1266 0.7122 0.8125
H24 H -0.1363 0.7777 0.8130
C17 C 0.4646(16) 0.1111(14) 0.8757(3)
H25 H 0.4806 -0.0242 0.8657
H26 H 0.5826 0.1466 0.8618
C18 C 0.3423(15) 0.2175(12) 0.7092(3)
H27 H 0.2128 0.1820 0.7021
C19 C 0.4024(16) 0.5406(14) 0.7356(3)
H28 H 0.3229 0.6770 0.7464
H29 H 0.5056 0.5441 0.7129
H30 H 0.4847 0.4548 0.7583
C20 C 0.3044(18) 0.5079(14) 0.6393(3)
H31 H 0.4356 0.5408 0.6450
H32 H 0.2304 0.5859 0.6146
C21 C 0.5476(16) -0.0751(12) 0.6589(3)
H33 H 0.6404 -0.1610 0.6810
H34 H 0.4048 -0.0942 0.6595
C22 C 0.2357(14) 0.2652(12) 0.8627(3)
C23 C 0.1457(16) 0.5601(12) 0.6775(3)
H35 H 0.0922 0.7071 0.6821
H36 H 0.0160 0.5269 0.6707
C24 C 0.2130(14) 0.4756(12) 0.8833(3)
H37 H 0.3371 0.5075 0.8701
C25 C 0.2809(17) 0.1050(12) 0.7863(3)
H38 H 0.3427 -0.0148 0.8044
H39 H 0.1392 0.1064 0.7756
C26 C 0.2338(14) 0.2963(11) 0.8137(3)
H40 H 0.3621 0.3375 0.8074
C27 C 0.3070(18) 0.3287(17) 0.5523(3)
H41 H 0.1598 0.3362 0.5618
H42 H 0.3455 0.2585 0.5252
H43 H 0.3068 0.4648 0.5491
C28 C 0.277(2) 0.6797(15) 0.9424(3)
H44 H 0.3220 0.6763 0.9716
H45 H 0.1361 0.7921 0.9388
H46 H 0.3902 0.6971 0.9237
C29 C 0.0540(17) 0.1863(14) 0.8775(3)
H47 H 0.0515 0.0818 0.8580
H48 H -0.0902 0.2973 0.8779
H49 H 0.0859 0.1300 0.9058
C30 C 0.0604(16) 0.4618(17) 0.9597(3)
H50 H 0.0543 0.3282 0.9565
H51 H -0.0803 0.5641 0.9513
H52 H 0.0869 0.4834 0.9891
O5 O 0.5654(11) 0.5184(10) 0.2337(2)
H53 H 0.5641 0.5312 0.2599
O6 O 0.8194(11) 0.5532(11) 0.4951(2)
O7 O 0.3191(13) 1.0748(10) 0.0364(2)
H54 H 0.3350 0.9724 0.0221
O8 O 0.4057(11) 0.8417(11) 0.4795(2)
H55 H 0.4921 0.7806 0.4983
C31 C 0.7372(14) 0.7334(11) 0.3067(3)
H56 H 0.6030 0.7060 0.2993
C32 C 0.7098(14) 0.7712(12) 0.3549(3)
C33 C 0.6914(15) 0.5802(12) 0.3769(3)
H57 H 0.5559 0.5685 0.3652
C34 C 0.8588(16) 0.5050(14) 0.4512(3)
H58 H 0.9218 0.3571 0.4478
H59 H 0.9690 0.5583 0.4399
C35 C 0.4859(15) 0.8596(12) 0.1656(3)
C36 C 0.4926(17) 0.7850(14) 0.0823(3)
C37 C 0.6489(15) 0.5909(13) 0.4259(3)
C38 C 0.3707(17) 0.9476(14) 0.4073(3)
H60 H 0.3008 1.0870 0.4180
H61 H 0.2518 0.8949 0.4037
C39 C 0.4798(17) 0.9524(13) 0.3640(3)
H62 H 0.5042 1.0803 0.3614
H63 H 0.3758 0.9515 0.3420
C40 C 0.6602(18) 0.5030(14) 0.1379(3)
H64 H 0.7257 0.4180 0.1129
H65 H 0.5233 0.4820 0.1465
C41 C 0.3165(18) 1.1413(14) 0.1112(3)
H66 H 0.1711 1.1280 0.1147
H67 H 0.2891 1.2840 0.1051
C42 C 0.6544(16) 0.7995(12) 0.2029(3)
H68 H 0.7875 0.8230 0.1917
C43 C 0.7408(14) 0.5746(12) 0.2148(3)
C44 C 0.9028(16) 0.3605(12) 0.3151(3)
H69 H 0.7663 0.3481 0.3050
H70 H 1.0279 0.2347 0.3077
C45 C 0.6048(15) 0.7242(13) 0.1268(3)
H71 H 0.7509 0.7392 0.1236
C46 C 0.8846(15) 0.3824(12) 0.3627(3)
H72 H 1.0255 0.3831 0.3734
H73 H 0.8592 0.2656 0.3751
C47 C 0.4404(17) 1.0830(12) 0.1528(3)
H74 H 0.3518 1.1736 0.1754
H75 H 0.5829 1.1020 0.1498
C48 C 0.7240(18) 0.9162(13) 0.2789(3)
H76 H 0.6730 1.0387 0.2967
H77 H 0.8741 0.8962 0.2678
C49 C 0.5673(17) 0.9492(11) 0.2417(3)
H78 H 0.5321 1.0877 0.2312
H79 H 0.4274 0.9403 0.2525
C50 C 0.9374(15) 0.5351(12) 0.2924(3)
C51 C 0.4392(17) 1.0158(14) 0.0746(3)
H80 H 0.5826 1.0355 0.0706
C52 C 0.8257(17) 0.4415(13) 0.1741(3)
H81 H 0.9668 0.4510 0.1642
H82 H 0.8560 0.2995 0.1814
C53 C 1.1701(16) 0.5327(16) 0.3023(3)
H83 H 1.1823 0.6585 0.2928
H84 H 1.2832 0.4193 0.2878
H85 H 1.1916 0.5189 0.3327
C54 C 0.5278(16) 0.8211(13) 0.4401(3)
H86 H 0.6445 0.8783 0.4441
C55 C 0.8974(16) 0.8352(14) 0.3723(3)
H87 H 1.0348 0.7171 0.3738
H88 H 0.8539 0.8938 0.4004
H89 H 0.9205 0.9347 0.3535
C56 C 0.4934(17) 0.4771(14) 0.4367(3)
H90 H 0.3475 0.5502 0.4251
H91 H 0.4790 0.4674 0.4672
H92 H 0.5553 0.3419 0.4244
C57 C 0.2848(19) 0.7353(15) 0.0773(3)
H93 H 0.3160 0.5961 0.0858
H94 H 0.2416 0.7523 0.0479
H95 H 0.1640 0.8259 0.0951
C58 C 0.9487(14) 0.5054(13) 0.2432(3)
H96 H 1.0473 0.5717 0.2319
H97 H 1.0265 0.3597 0.2380
C59 C 0.2604(16) 0.8447(14) 0.1790(3)
H98 H 0.2778 0.7031 0.1804
H99 H 0.1493 0.9138 0.1583
H100 H 0.2126 0.9078 0.2066
C60 C 0.6632(19) 0.6652(17) 0.0482(3)
H101 H 0.8100 0.6616 0.0553
H102 H 0.6219 0.7302 0.0209
H103 H 0.6659 0.5279 0.0469
H104 H 0.809(18) 0.490(16) 0.514(3)
O9 O -0.0168(15) 0.8701(12) 0.5023(4)
H105 H 0.1063 0.8247 0.4876
H106 H -0.0474 0.7644 0.5079
O10 O -0.0866(15) 0.0782(16) 1.0133(4)
H107 H -0.0514 0.0985 0.9876
H108 H 0.0269 0.0721 1.0277
loop_
_geom_bond_atom_site_label_1
_geom_bond_atom_site_label_2
_geom_bond_site_symmetry_1
_geom_bond_site_symmetry_2
O1 H1 1_555 1_555
O2 H2 1_555 1_555
O3 H3 1_555 1_555
O4 H4 1_555 1_555
C1 H5 1_555 1_555
C2 H6 1_555 1_555
H7 C2 1_555 1_555
C3 O4 1_555 1_555
H8 C3 1_555 1_555
H9 C3 1_555 1_555
C4 H10 1_555 1_555
H11 C4 1_555 1_555
C5 O1 1_555 1_555
H12 C5 1_555 1_555
C6 C5 1_555 1_555
H13 C6 1_555 1_555
H14 C6 1_555 1_555
C7 C4 1_555 1_555
C8 O2 1_555 1_555
H15 C8 1_555 1_555
C9 C5 1_555 1_555
C10 H16 1_555 1_555
H17 C10 1_555 1_555
H18 C10 1_555 1_555
C11 C1 1_555 1_555
C12 O3 1_555 1_555
C13 H19 1_555 1_555
H20 C13 1_555 1_555
C14 C1 1_555 1_555
C15 C8 1_555 1_555
H21 C15 1_555 1_555
H22 C15 1_555 1_555
C16 C2 1_555 1_555
H23 C16 1_555 1_555
H24 C16 1_555 1_555
C17 C6 1_555 1_555
H25 C17 1_555 1_555
H26 C17 1_555 1_555
C18 C7 1_555 1_555
H27 C18 1_555 1_555
C19 C7 1_555 1_555
H28 C19 1_555 1_555
H29 C19 1_555 1_555
H30 C19 1_555 1_555
C20 C1 1_555 1_555
H31 C20 1_555 1_555
H32 C20 1_555 1_555
C21 C11 1_555 1_555
H33 C21 1_555 1_555
H34 C21 1_555 1_555
C22 C17 1_555 1_555
C23 C7 1_555 1_555
H35 C23 1_555 1_555
H36 C23 1_555 1_555
C24 C2 1_555 1_555
H37 C24 1_555 1_555
C25 C13 1_555 1_555
H38 C25 1_555 1_555
H39 C25 1_555 1_555
C26 C12 1_555 1_555
H40 C26 1_555 1_555
C27 C14 1_555 1_555
H41 C27 1_555 1_555
H42 C27 1_555 1_555
H43 C27 1_555 1_555
C28 C9 1_555 1_555
H44 C28 1_555 1_555
H45 C28 1_555 1_555
H46 C28 1_555 1_555
C29 C22 1_555 1_555
H47 C29 1_555 1_555
H48 C29 1_555 1_555
H49 C29 1_555 1_555
C30 C9 1_555 1_555
H50 C30 1_555 1_555
H51 C30 1_555 1_555
H52 C30 1_555 1_555
O5 H53 1_555 1_555
O6 C34 1_555 1_555
O7 H54 1_555 1_555
O8 H55 1_555 1_555
C31 H56 1_555 1_555
C32 C31 1_555 1_555
C33 C32 1_555 1_555
H57 C33 1_555 1_555
C34 H58 1_555 1_555
H59 C34 1_555 1_555
C35 C42 1_555 1_555
C36 C45 1_555 1_555
C37 C33 1_555 1_555
C38 H60 1_555 1_555
H61 C38 1_555 1_555
C39 C32 1_555 1_555
H62 C39 1_555 1_555
H63 C39 1_555 1_555
C40 H64 1_555 1_555
H65 C40 1_555 1_555
C41 H66 1_555 1_555
H67 C41 1_555 1_555
C42 H68 1_555 1_555
C43 O5 1_555 1_555
C44 H69 1_555 1_555
H70 C44 1_555 1_555
C45 C35 1_555 1_555
H71 C45 1_555 1_555
C46 C33 1_555 1_555
H72 C46 1_555 1_555
H73 C46 1_555 1_555
C47 C35 1_555 1_555
H74 C47 1_555 1_555
H75 C47 1_555 1_555
C48 C31 1_555 1_555
H76 C48 1_555 1_555
H77 C48 1_555 1_555
C49 C42 1_555 1_555
H78 C49 1_555 1_555
H79 C49 1_555 1_555
C50 C31 1_555 1_555
C51 O7 1_555 1_555
H80 C51 1_555 1_555
C52 C40 1_555 1_555
H81 C52 1_555 1_555
H82 C52 1_555 1_555
C53 C50 1_555 1_555
H83 C53 1_555 1_555
H84 C53 1_555 1_555
H85 C53 1_555 1_555
C54 O8 1_555 1_555
H86 C54 1_555 1_555
C55 C32 1_555 1_555
H87 C55 1_555 1_555
H88 C55 1_555 1_555
H89 C55 1_555 1_555
C56 C37 1_555 1_555
H90 C56 1_555 1_555
H91 C56 1_555 1_555
H92 C56 1_555 1_555
C57 C36 1_555 1_555
H93 C57 1_555 1_555
H94 C57 1_555 1_555
H95 C57 1_555 1_555
C58 C43 1_555 1_555
H96 C58 1_555 1_555
H97 C58 1_555 1_555
C59 C35 1_555 1_555
H98 C59 1_555 1_555
H99 C59 1_555 1_555
H100 C59 1_555 1_555
C60 C36 1_555 1_555
H101 C60 1_555 1_555
H102 C60 1_555 1_555
H103 C60 1_555 1_555
H104 O6 1_555 1_555
O9 H105 1_555 1_555
H106 O9 1_555 1_555
O10 H107 1_555 1_555
H108 O10 1_555 1_555
C3 C14 1_555 1_555
C4 C12 1_555 1_555
C8 C14 1_555 1_555
C9 C24 1_555 1_555
C10 C11 1_555 1_555
C11 C18 1_555 1_555
C12 C16 1_555 1_555
C13 C18 1_555 1_555
C15 C21 1_555 1_555
C20 C23 1_555 1_555
C22 C24 1_555 1_555
C22 C26 1_555 1_555
C25 C26 1_555 1_555
C34 C37 1_555 1_555
C36 C51 1_555 1_555
C37 C54 1_555 1_555
C38 C39 1_555 1_555
C38 C54 1_555 1_555
C40 C45 1_555 1_555
C41 C47 1_555 1_555
C41 C51 1_555 1_555
C42 C43 1_555 1_555
C43 C52 1_555 1_555
C44 C46 1_555 1_555
C44 C50 1_555 1_555
C48 C49 1_555 1_555
C50 C58 1_555 1_555

#END
