
#######################################################################
#
#                 Cambridge Crystallographic Data Centre
#                                CCDC 
#
#######################################################################
#
# If this CIF has been generated from an entry in the Cambridge 
# Structural Database, then it will include bibliographic, chemical, 
# crystal, experimental, refinement or atomic coordinate data resulting 
# from the CCDC's data processing and validation procedures.
#
#######################################################################

data_VEBQAV
_chemical_formula_moiety         'C19 H11 Br2 N1'
_chemical_name_systematic        2,7-Dibromo-9-(4-pyridylmethylene)fluorene
_symmetry_cell_setting           orthorhombic
_symmetry_space_group_name_H-M   'P c a 21'
_symmetry_Int_Tables_number      29
_space_group_name_Hall           'P 2c -2ac'
loop_
_symmetry_equiv_pos_site_id
_symmetry_equiv_pos_as_xyz
1 x,y,z
2 -x,-y,1/2+z
3 1/2+x,-y,z
4 1/2-x,y,1/2+z
_cell_length_a                   33.409(3)
_cell_length_b                   3.9299(3)
_cell_length_c                   11.4001(9)
_cell_angle_alpha                90
_cell_angle_beta                 90
_cell_angle_gamma                90
_cell_volume                     1496.77
_exptl_crystal_colour            yellow
_exptl_crystal_description       prism
_cell_formula_units_Z            4
loop_
_atom_site_label
_atom_site_type_symbol
_atom_site_fract_x
_atom_site_fract_y
_atom_site_fract_z
Br1 Br 0.305391(6) -0.26492(5) 0.02328(2)
Br2 Br 0.399236(6) 0.87988(5) 0.81572(2)
C1 C 0.34950(6) 0.0502(5) 0.20565(18)
H1 H 0.3708(10) 0.006(9) 0.155(3)
C2 C 0.31142(6) -0.0539(5) 0.17176(18)
C3 C 0.27774(6) -0.0027(6) 0.2418(2)
H2 H 0.2541(8) -0.080(6) 0.213(2)
C4 C 0.28232(6) 0.1485(6) 0.35034(19)
H3 H 0.2619(11) 0.174(9) 0.402(3)
C5 C 0.31117(6) 0.4956(6) 0.59660(19)
H4 H 0.2833(8) 0.463(7) 0.603(2)
C6 C 0.33139(7) 0.6381(6) 0.69162(19)
H5 H 0.3179(10) 0.706(7) 0.761(3)
C7 C 0.37246(6) 0.6882(5) 0.68479(18)
C8 C 0.39463(6) 0.6024(5) 0.58601(18)
H6 H 0.4220(9) 0.647(7) 0.584(3)
C9 C 0.38961(6) 0.3400(5) 0.37708(17)
C10 C 0.35390(5) 0.2076(4) 0.3140(2)
C11 C 0.31999(6) 0.2517(5) 0.38681(18)
C12 C 0.33261(6) 0.4064(5) 0.49711(17)
C13 C 0.37431(6) 0.4576(5) 0.49214(16)
C14 C 0.42864(6) 0.3513(5) 0.34835(17)
H7 H 0.4457(8) 0.435(7) 0.404(2)
C15 C 0.44903(6) 0.2625(5) 0.23822(18)
C16 C 0.43593(6) 0.3640(5) 0.12745(19)
H8 H 0.4107(9) 0.481(8) 0.115(3)
C17 C 0.45923(6) 0.2914(5) 0.0298(2)
H9 H 0.4515(8) 0.355(7) -0.043(2)
N1 N 0.49385(5) 0.1188(4) 0.03413(17)
C18 C 0.50572(6) 0.0170(6) 0.14046(19)
H10 H 0.5273(9) -0.108(7) 0.141(3)
C19 C 0.48519(6) 0.0861(5) 0.24386(19)
H11 H 0.4960(8) 0.009(7) 0.312(3)
loop_
_geom_bond_atom_site_label_1
_geom_bond_atom_site_label_2
_geom_bond_site_symmetry_1
_geom_bond_site_symmetry_2
Br1 C2 1_555 1_555
Br2 C7 1_555 1_555
C1 H1 1_555 1_555
C2 C1 1_555 1_555
C3 C2 1_555 1_555
H2 C3 1_555 1_555
C4 C3 1_555 1_555
H3 C4 1_555 1_555
C5 H4 1_555 1_555
C6 C5 1_555 1_555
H5 C6 1_555 1_555
C7 C6 1_555 1_555
C8 C7 1_555 1_555
H6 C8 1_555 1_555
C9 C10 1_555 1_555
C10 C1 1_555 1_555
C11 C4 1_555 1_555
C12 C5 1_555 1_555
C13 C8 1_555 1_555
C14 C9 1_555 1_555
H7 C14 1_555 1_555
C15 C14 1_555 1_555
C16 C15 1_555 1_555
H8 C16 1_555 1_555
C17 C16 1_555 1_555
H9 C17 1_555 1_555
N1 C17 1_555 1_555
C18 N1 1_555 1_555
H10 C18 1_555 1_555
C19 C15 1_555 1_555
H11 C19 1_555 1_555
C9 C13 1_555 1_555
C10 C11 1_555 1_555
C11 C12 1_555 1_555
C12 C13 1_555 1_555
C18 C19 1_555 1_555

#END
