
#######################################################################
#
#                 Cambridge Crystallographic Data Centre
#                                CCDC 
#
#######################################################################
#
# If this CIF has been generated from an entry in the Cambridge 
# Structural Database, then it will include bibliographic, chemical, 
# crystal, experimental, refinement or atomic coordinate data resulting 
# from the CCDC's data processing and validation procedures.
#
#######################################################################

data_VEBSUQ
_chemical_name_common            
"N,N'-bis(2,6-Diisopropylphenyl)isophthalamide acetonitrile solvate"
_chemical_formula_moiety         'C32 H40 N2 O2,C2 H3 N1'
_chemical_name_systematic        
'1,3-bis((2,6-Diisopropylanilino)carbonyl)benzene acetonitrile solvate'
_symmetry_cell_setting           monoclinic
_symmetry_space_group_name_H-M   'P 21/n'
_symmetry_Int_Tables_number      14
_space_group_name_Hall           '-P 2yn'
loop_
_symmetry_equiv_pos_site_id
_symmetry_equiv_pos_as_xyz
1 x,y,z
2 1/2-x,1/2+y,1/2-z
3 -x,-y,-z
4 1/2+x,1/2-y,1/2+z
_cell_length_a                   8.526(6)
_cell_length_b                   24.674(6)
_cell_length_c                   14.963(9)
_cell_angle_alpha                90
_cell_angle_beta                 93.25(3)
_cell_angle_gamma                90
_cell_volume                     3142.71
_exptl_crystal_colour            colorless
_exptl_crystal_description       prism
_cell_formula_units_Z            4
_exptl_crystal_recrystallization_method acetonitrile/ethanol
loop_
_atom_site_label
_atom_site_type_symbol
_atom_site_fract_x
_atom_site_fract_y
_atom_site_fract_z
O1 O 0.8322(2) 0.10913(7) 0.02671(10)
O2 O 0.4127(2) 0.22418(6) -0.27673(10)
N1 N 0.8870(2) 0.17286(8) 0.13071(11)
N2 N 0.4438(2) 0.13843(8) -0.23045(12)
C1 C 0.8196(2) 0.15625(9) 0.05204(13)
C2 C 0.7277(2) 0.19657(8) -0.00448(13)
C3 C 0.6464(2) 0.17688(8) -0.08097(13)
C4 C 0.5612(2) 0.21100(8) -0.13900(13)
C5 C 0.5598(3) 0.26601(9) -0.1200(2)
C6 C 0.6388(4) 0.28570(10) -0.0444(2)
C7 C 0.7218(3) 0.25148(9) 0.0138(2)
C8 C 0.9889(2) 0.13765(8) 0.18383(13)
C9 C 0.9226(3) 0.09863(9) 0.23794(14)
C10 C 1.0253(3) 0.06409(10) 0.2863(2)
C11 C 1.1846(3) 0.06887(11) 0.2815(2)
C12 C 1.2474(3) 0.10836(10) 0.2295(2)
C13 C 1.1510(3) 0.14395(9) 0.17937(14)
C14 C 0.7466(3) 0.09601(10) 0.2473(2)
C15 C 0.7001(3) 0.13752(14) 0.3160(2)
C16 C 0.6858(4) 0.04055(13) 0.2711(3)
C17 C 1.2211(3) 0.18738(10) 0.1218(2)
C18 C 1.2521(5) 0.1667(2) 0.0306(2)
C19 C 1.3655(4) 0.2133(2) 0.1649(3)
C20 C 0.4676(2) 0.19186(9) -0.22093(13)
C21 C 0.3450(3) 0.11606(8) -0.30263(13)
C22 C 0.4122(3) 0.10201(9) -0.38241(14)
C23 C 0.3118(3) 0.08213(10) -0.4519(2)
C24 C 0.1544(3) 0.07531(10) -0.4415(2)
C25 C 0.0926(3) 0.08801(10) -0.3614(2)
C26 C 0.1859(3) 0.10842(9) -0.28992(14)
C27 C 0.5856(3) 0.10719(13) -0.3946(2)
C28 C 0.6527(4) 0.05896(14) -0.4429(2)
C29 C 0.6206(5) 0.15930(15) -0.4433(3)
C30 C 0.1140(3) 0.12214(11) -0.2022(2)
C31 C 0.0002(4) 0.07930(14) -0.1729(2)
C32 C 0.0341(4) 0.17700(13) -0.2084(3)
H1 H 0.8780(26) 0.2053(11) 0.1475(15)
H2 H 0.4761(27) 0.1168(10) -0.1904(17)
H3 H 0.6495(2) 0.13958(8) -0.09356(13)
H4 H 0.5044(3) 0.28995(9) -0.1592(2)
H5 H 0.6362(4) 0.32304(10) -0.0321(2)
H6 H 0.7743(3) 0.26543(9) 0.0658(2)
H7 H 0.9845(3) 0.03709(10) 0.3227(2)
H8 H 1.2516(3) 0.04489(11) 0.3141(2)
H9 H 1.3571(3) 0.11141(10) 0.2278(2)
H10 H 0.6948(3) 0.10644(10) 0.1889(2)
H11 H 0.5874(5) 0.1362(5) 0.3216(9)
H12 H 0.7299(20) 0.1735(2) 0.2969(6)
H13 H 0.7534(17) 0.1294(5) 0.3735(3)
H14 H 0.7170(20) 0.0143(2) 0.2273(8)
H15 H 0.5721(4) 0.0416(2) 0.2714(13)
H16 H 0.7293(17) 0.0302(4) 0.3300(6)
H17 H 1.1411(3) 0.21630(10) 0.1136(2)
H18 H 1.1591(10) 0.1485(8) 0.0052(7)
H19 H 1.3392(18) 0.1414(7) 0.0349(3)
H20 H 1.2781(27) 0.1968(2) -0.0075(5)
H21 H 1.3947(16) 0.2443(6) 0.1296(9)
H22 H 1.4509(8) 0.1873(3) 0.1680(14)
H23 H 1.3442(9) 0.2252(8) 0.2248(6)
H24 H 0.3531(3) 0.07324(10) -0.5069(2)
H25 H 0.0889(3) 0.06196(10) -0.4892(2)
H26 H -0.0153(3) 0.08278(10) -0.3548(2)
H27 H 0.6396(3) 0.10913(13) -0.3343(2)
H28 H 0.6292(19) 0.0259(2) -0.4113(7)
H29 H 0.7657(5) 0.0630(4) -0.4447(11)
H30 H 0.6062(17) 0.0572(5) -0.5035(5)
H31 H 0.5869(28) 0.1900(2) -0.4087(9)
H32 H 0.5647(24) 0.1594(5) -0.5016(8)
H33 H 0.7326(6) 0.1619(5) -0.4507(15)
H34 H 0.2007(3) 0.12462(11) -0.1555(2)
H35 H 0.0508(8) 0.0441(2) -0.1726(12)
H36 H -0.0918(10) 0.0787(5) -0.2142(7)
H37 H -0.0313(17) 0.0877(4) -0.1132(5)
H38 H -0.0045(22) 0.1864(4) -0.1507(4)
H39 H -0.0531(15) 0.1755(3) -0.2529(10)
H40 H 0.1089(8) 0.2042(2) -0.2257(14)
C33 C 0.7698(4) -0.01246(13) -0.0289(2)
C34 C 0.6511(5) 0.01710(13) -0.0807(3)
N3 N 0.5543(5) 0.04110(12) -0.1197(3)
H41 H 0.8286(17) -0.0349(7) -0.0685(3)
H42 H 0.7203(5) -0.0353(7) 0.0141(10)
H43 H 0.8405(16) 0.01283(13) 0.0024(12)
loop_
_geom_bond_atom_site_label_1
_geom_bond_atom_site_label_2
_geom_bond_site_symmetry_1
_geom_bond_site_symmetry_2
O1 C1 1_555 1_555
O2 C20 1_555 1_555
N1 C1 1_555 1_555
N2 C20 1_555 1_555
C1 C2 1_555 1_555
C2 C3 1_555 1_555
C3 C4 1_555 1_555
C4 C5 1_555 1_555
C5 C6 1_555 1_555
C6 C7 1_555 1_555
C7 C2 1_555 1_555
C8 N1 1_555 1_555
C9 C8 1_555 1_555
C10 C9 1_555 1_555
C11 C10 1_555 1_555
C12 C11 1_555 1_555
C13 C8 1_555 1_555
C14 C9 1_555 1_555
C15 C14 1_555 1_555
C16 C14 1_555 1_555
C17 C13 1_555 1_555
C18 C17 1_555 1_555
C19 C17 1_555 1_555
C20 C4 1_555 1_555
C21 N2 1_555 1_555
C22 C21 1_555 1_555
C23 C22 1_555 1_555
C24 C23 1_555 1_555
C25 C24 1_555 1_555
C26 C21 1_555 1_555
C27 C22 1_555 1_555
C28 C27 1_555 1_555
C29 C27 1_555 1_555
C30 C26 1_555 1_555
C31 C30 1_555 1_555
C32 C30 1_555 1_555
C33 C34 1_555 1_555
C34 N3 1_555 1_555
H1 N1 1_555 1_555
H2 N2 1_555 1_555
H3 C3 1_555 1_555
H4 C5 1_555 1_555
H5 C6 1_555 1_555
H6 C7 1_555 1_555
H7 C10 1_555 1_555
H8 C11 1_555 1_555
H9 C12 1_555 1_555
H10 C14 1_555 1_555
H11 C15 1_555 1_555
H12 C15 1_555 1_555
H13 C15 1_555 1_555
H14 C16 1_555 1_555
H15 C16 1_555 1_555
H16 C16 1_555 1_555
H17 C17 1_555 1_555
H18 C18 1_555 1_555
H19 C18 1_555 1_555
H20 C18 1_555 1_555
H21 C19 1_555 1_555
H22 C19 1_555 1_555
H23 C19 1_555 1_555
H24 C23 1_555 1_555
H25 C24 1_555 1_555
H26 C25 1_555 1_555
H27 C27 1_555 1_555
H28 C28 1_555 1_555
H29 C28 1_555 1_555
H30 C28 1_555 1_555
H31 C29 1_555 1_555
H32 C29 1_555 1_555
H33 C29 1_555 1_555
H34 C30 1_555 1_555
H35 C31 1_555 1_555
H36 C31 1_555 1_555
H37 C31 1_555 1_555
H38 C32 1_555 1_555
H39 C32 1_555 1_555
H40 C32 1_555 1_555
H41 C33 1_555 1_555
H42 C33 1_555 1_555
H43 C33 1_555 1_555
C12 C13 1_555 1_555
C25 C26 1_555 1_555

#END
