
#######################################################################
#
#                 Cambridge Crystallographic Data Centre
#                                CCDC 
#
#######################################################################
#
# If this CIF has been generated from an entry in the Cambridge 
# Structural Database, then it will include bibliographic, chemical, 
# crystal, experimental, refinement or atomic coordinate data resulting 
# from the CCDC's data processing and validation procedures.
#
#######################################################################

data_VEBTII
_chemical_formula_moiety         'C23 H22 N2 O2 S1'
_chemical_name_systematic        
'4-methyl-N-[1-methyl-3-(4-methylphenyl)-1H-indol-2-yl]benzene-1-sulfonamide unknown solvate'
_symmetry_cell_setting           monoclinic
_symmetry_space_group_name_H-M   'C 2/c'
_symmetry_Int_Tables_number      15
_space_group_name_Hall           '-C 2yn'
loop_
_symmetry_equiv_pos_site_id
_symmetry_equiv_pos_as_xyz
1 x,y,z
2 -x,y,1/2-z
3 1/2+x,1/2+y,z
4 1/2-x,1/2+y,1/2-z
5 -x,-y,-z
6 x,-y,1/2+z
7 1/2-x,1/2-y,-z
8 1/2+x,1/2-y,1/2+z
_cell_length_a                   28.1291(17)
_cell_length_b                   11.3338(5)
_cell_length_c                   14.8299(8)
_cell_angle_alpha                90
_cell_angle_beta                 91.255(5)
_cell_angle_gamma                90
_cell_volume                     4726.78
_exptl_crystal_colour            colorless
_exptl_crystal_description       block
_cell_formula_units_Z            8
loop_
_atom_site_label
_atom_site_type_symbol
_atom_site_fract_x
_atom_site_fract_y
_atom_site_fract_z
S1 S 0.210605(19) 0.67034(4) 0.11808(3)
O1 O 0.23718(5) 0.77588(12) 0.10304(9)
O2 O 0.21195(6) 0.61748(13) 0.20483(9)
N1 N 0.22893(6) 0.37273(13) 0.09734(10)
N2 N 0.23131(6) 0.57411(14) 0.04680(11)
C1 C 0.20233(7) 0.27222(16) 0.08111(13)
C2 C 0.20713(9) 0.16045(18) 0.11932(15)
H1 H 0.2306 0.1443 0.1628
C3 C 0.17590(11) 0.07542(19) 0.09020(18)
H2 H 0.1783 -0.0002 0.1142
C4 C 0.14068(10) 0.09934(19) 0.02562(18)
H3 H 0.1196 0.0398 0.0083
C5 C 0.13616(8) 0.20918(17) -0.01341(16)
H4 H 0.1128 0.2238 -0.0573
C6 C 0.16762(7) 0.29822(16) 0.01459(13)
C7 C 0.17357(7) 0.41953(15) -0.01088(12)
C8 C 0.21092(7) 0.46026(15) 0.04158(12)
C9 C 0.14674(7) 0.48395(15) -0.08132(12)
C10 C 0.16993(7) 0.55246(17) -0.14470(12)
H5 H 0.2029 0.5577 -0.1424
C11 C 0.14463(8) 0.61287(19) -0.21103(13)
H6 H 0.1609 0.6600 -0.2513
C12 C 0.09569(8) 0.60489(19) -0.21899(14)
C13 C 0.07288(8) 0.5366(2) -0.15645(16)
H7 H 0.0399 0.5300 -0.1600
C14 C 0.09735(7) 0.47792(18) -0.08905(14)
H8 H 0.0806 0.4333 -0.0477
C15 C 0.06886(11) 0.6672(3) -0.2938(2)
H9 H 0.0425 0.7093 -0.2693
H10 H 0.0573 0.6103 -0.3370
H11 H 0.0896 0.7218 -0.3229
C16 C 0.15092(7) 0.69780(16) 0.08854(13)
C17 C 0.11537(10) 0.6514(2) 0.14083(19)
H12 H 0.1229 0.6073 0.1921
C18 C 0.06894(11) 0.6713(3) 0.1159(2)
H13 H 0.0450 0.6396 0.1507
C19 C 0.05663(10) 0.7369(3) 0.0408(3)
C20 C 0.09279(10) 0.7825(2) -0.01064(19)
H14 H 0.0852 0.8270 -0.0617
C21 C 0.13974(9) 0.76313(18) 0.01261(16)
H15 H 0.1637 0.7938 -0.0226
C22 C 0.00506(12) 0.7589(4) 0.0134(4)
H16 H 0.0018 0.8373 -0.0105
H17 H -0.0146 0.7508 0.0652
H18 H -0.0047 0.7027 -0.0317
C23 C 0.26893(8) 0.3813(2) 0.15937(15)
H19 H 0.2873 0.4499 0.1453
H20 H 0.2884 0.3122 0.1543
H21 H 0.2577 0.3876 0.2199
H22 H 0.2386(7) 0.6068(17) 0.0024(11)
loop_
_geom_bond_atom_site_label_1
_geom_bond_atom_site_label_2
_geom_bond_site_symmetry_1
_geom_bond_site_symmetry_2
S1 O1 1_555 1_555
O2 S1 1_555 1_555
N1 C1 1_555 1_555
N2 S1 1_555 1_555
C1 C2 1_555 1_555
C2 H1 1_555 1_555
C3 C2 1_555 1_555
H2 C3 1_555 1_555
C4 C3 1_555 1_555
H3 C4 1_555 1_555
C5 C4 1_555 1_555
H4 C5 1_555 1_555
C6 C1 1_555 1_555
C7 C6 1_555 1_555
C8 N1 1_555 1_555
C9 C7 1_555 1_555
C10 C9 1_555 1_555
H5 C10 1_555 1_555
C11 C10 1_555 1_555
H6 C11 1_555 1_555
C12 C11 1_555 1_555
C13 C12 1_555 1_555
H7 C13 1_555 1_555
C14 C9 1_555 1_555
H8 C14 1_555 1_555
C15 C12 1_555 1_555
H9 C15 1_555 1_555
H10 C15 1_555 1_555
H11 C15 1_555 1_555
C16 S1 1_555 1_555
C17 C16 1_555 1_555
H12 C17 1_555 1_555
C18 C17 1_555 1_555
H13 C18 1_555 1_555
C19 C18 1_555 1_555
C20 C19 1_555 1_555
H14 C20 1_555 1_555
C21 C16 1_555 1_555
H15 C21 1_555 1_555
C22 C19 1_555 1_555
H16 C22 1_555 1_555
H17 C22 1_555 1_555
H18 C22 1_555 1_555
C23 N1 1_555 1_555
H19 C23 1_555 1_555
H20 C23 1_555 1_555
H21 C23 1_555 1_555
H22 N2 1_555 1_555
N2 C8 1_555 1_555
C5 C6 1_555 1_555
C7 C8 1_555 1_555
C13 C14 1_555 1_555
C20 C21 1_555 1_555

#END
