
#######################################################################
#
#                 Cambridge Crystallographic Data Centre
#                                CCDC 
#
#######################################################################
#
# If this CIF has been generated from an entry in the Cambridge 
# Structural Database, then it will include bibliographic, chemical, 
# crystal, experimental, refinement or atomic coordinate data resulting 
# from the CCDC's data processing and validation procedures.
#
#######################################################################

data_VEBWIL
_chemical_compound_source        'root barks of Walsura robusta'
_chemical_name_common            'Walrobsin B'
_chemical_formula_moiety         'C33 H44 O8'
_chemical_name_systematic        
'4-(acetyloxy)-9-(furan-3-yl)-6-hydroxy-8a,11b-dimethyl-1-oxo-3-(propan-2-yl)-1,2,3,5,6,7a,8,8a,9,10,11b,11c-dodecahydro-4H-3a,6-methanocyclopenta[3,4]naphtho[1,8-bc]oxepin-5-yl 2-methylbutanoate'
_symmetry_cell_setting           orthorhombic
_symmetry_space_group_name_H-M   'P 21 21 21'
_symmetry_Int_Tables_number      19
_space_group_name_Hall           'P 2ac 2ab'
loop_
_symmetry_equiv_pos_site_id
_symmetry_equiv_pos_as_xyz
1 x,y,z
2 1/2-x,-y,1/2+z
3 -x,1/2+y,1/2-z
4 1/2+x,1/2-y,-z
_cell_length_a                   9.43400(10)
_cell_length_b                   16.40280(10)
_cell_length_c                   19.41280(10)
_cell_angle_alpha                90
_cell_angle_beta                 90
_cell_angle_gamma                90
_cell_volume                     3004.01
_exptl_crystal_colour            colorless
_exptl_crystal_description       block
_cell_formula_units_Z            4
_exptl_crystal_recrystallization_method 'dichloromethane / methanol (1:1)'
loop_
_atom_site_label
_atom_site_type_symbol
_atom_site_fract_x
_atom_site_fract_y
_atom_site_fract_z
O1 O 0.21731(15) 0.56475(9) 0.53381(8)
O2 O 0.09796(17) 0.53437(9) 0.66597(9)
O3 O 0.06674(17) 0.66875(9) 0.55437(10)
H1 H -0.0007 0.6375 0.5580
O4 O 0.3487(2) 0.64379(11) 0.74389(8)
O5 O 0.5760(3) 0.14419(12) 0.42344(12)
O6 O 0.81741(19) 0.58082(14) 0.54990(13)
C1 C 0.3324(2) 0.51282(11) 0.55467(11)
H2 H 0.3012 0.4818 0.5951
C2 C 0.1880(2) 0.63123(12) 0.57894(12)
C3 C 0.6064(2) 0.49322(13) 0.48268(11)
C4 C 0.3332(2) 0.60028(13) 0.67976(11)
H3 H 0.3587 0.5429 0.6862
C5 C 0.5730(2) 0.57513(13) 0.51588(11)
C6 C 0.5088(2) 0.42039(12) 0.49339(11)
C7 C 0.3123(2) 0.68987(12) 0.58120(12)
H4 H 0.2890 0.7391 0.6064
H5 H 0.3441 0.7043 0.5353
C8 C 0.1792(2) 0.60708(12) 0.65523(12)
H6 H 0.1337 0.6517 0.6805
C9 C 0.4657(2) 0.56196(12) 0.57549(10)
H7 H 0.5157 0.5263 0.6079
C10 C 0.4240(2) 0.63832(12) 0.61958(11)
C11 C 0.5422(3) 0.36866(13) 0.42713(11)
H8 H 0.4778 0.3874 0.3908
C12 C 0.5262(3) 0.27761(14) 0.43203(12)
O7 O -0.0590(3) 0.60151(14) 0.73053(17)
C13 C 0.5592(2) 0.68302(13) 0.64530(12)
H9 H 0.6002 0.6482 0.6812
C14 C 0.3561(2) 0.45230(12) 0.49561(11)
H10 H 0.3343 0.4788 0.4522
H11 H 0.2917 0.4067 0.5010
C15 C 0.5465(2) 0.37237(13) 0.55917(11)
H12 H 0.6428 0.3536 0.5563
H13 H 0.4842 0.3264 0.5636
H14 H 0.5362 0.4072 0.5986
C16 C -0.0201(3) 0.53958(15) 0.70513(13)
C17 C 0.7054(3) 0.47830(15) 0.43614(13)
H15 H 0.7748 0.5156 0.4235
C18 C 0.5239(3) 0.63276(14) 0.45718(12)
H16 H 0.5922 0.6317 0.4205
H17 H 0.5155 0.6873 0.4746
H18 H 0.4336 0.6149 0.4401
C19 C 0.7022(2) 0.61265(15) 0.55105(14)
C20 C 0.5332(3) 0.76792(15) 0.67975(13)
H19 H 0.4394 0.7658 0.7014
C21 C 0.6931(3) 0.39427(15) 0.40593(13)
H20 H 0.7636 0.3578 0.4252
H21 H 0.7032 0.3955 0.3562
C22 C 0.4444(3) 0.15228(15) 0.45250(15)
H22 H 0.3866 0.1093 0.4663
C23 C -0.0924(3) 0.45829(15) 0.71076(13)
H23 H -0.0913 0.4327 0.6652
C24 C 0.4116(3) 0.23163(15) 0.45801(14)
H24 H 0.3278 0.2527 0.4759
C25 C 0.6738(3) 0.69091(16) 0.58867(15)
H25 H 0.6439 0.7319 0.5557
H26 H 0.7613 0.7097 0.6096
C26 C 0.6215(3) 0.22165(16) 0.41183(16)
H27 H 0.7086 0.2344 0.3922
C27 C 0.5330(4) 0.84095(17) 0.63077(19)
H28 H 0.6270 0.8494 0.6132
H29 H 0.5025 0.8887 0.6552
H30 H 0.4694 0.8305 0.5932
C28 C -0.0108(4) 0.4042(2) 0.7597(2)
H31 H -0.0143 0.4280 0.8054
H32 H 0.0877 0.4029 0.7454
C29 C 0.6414(4) 0.7812(2) 0.7374(2)
H33 H 0.6368 0.7366 0.7693
H34 H 0.6203 0.8312 0.7610
H35 H 0.7348 0.7843 0.7180
C30 C -0.2458(4) 0.4695(2) 0.7323(2)
H36 H -0.2494 0.4871 0.7795
H37 H -0.2953 0.4186 0.7277
H38 H -0.2896 0.5098 0.7035
C31 C 0.3864(5) 0.6547(3) 0.86213(16)
H39 H 0.4594 0.6948 0.8560
H40 H 0.4092 0.6208 0.9009
H41 H 0.2975 0.6815 0.8702
C32 C -0.0661(5) 0.3169(2) 0.7635(3)
H42 H -0.0627 0.2926 0.7185
H43 H -0.1623 0.3173 0.7797
H44 H -0.0083 0.2859 0.7946
C33 C 0.3758(6) 0.6037(2) 0.79940(17)
O8 O 0.4554(8) 0.5403(4) 0.7938(3)
O9? O 0.3100(9) 0.5349(4) 0.8037(3)
loop_
_geom_bond_atom_site_label_1
_geom_bond_atom_site_label_2
_geom_bond_site_symmetry_1
_geom_bond_site_symmetry_2
O1 C1 1_555 1_555
O2 C8 1_555 1_555
O3 H1 1_555 1_555
O4 C4 1_555 1_555
O5 C22 1_555 1_555
O6 C19 1_555 1_555
C1 H2 1_555 1_555
C2 O1 1_555 1_555
C3 C5 1_555 1_555
C4 H3 1_555 1_555
C5 C9 1_555 1_555
C6 C3 1_555 1_555
C7 C2 1_555 1_555
H4 C7 1_555 1_555
H5 C7 1_555 1_555
C8 C2 1_555 1_555
H6 C8 1_555 1_555
C9 C1 1_555 1_555
H7 C9 1_555 1_555
C10 C4 1_555 1_555
C11 C6 1_555 1_555
H8 C11 1_555 1_555
C12 C11 1_555 1_555
O7 C16 1_555 1_555
C13 C10 1_555 1_555
H9 C13 1_555 1_555
C14 C1 1_555 1_555
H10 C14 1_555 1_555
H11 C14 1_555 1_555
C15 C6 1_555 1_555
H12 C15 1_555 1_555
H13 C15 1_555 1_555
H14 C15 1_555 1_555
C16 O2 1_555 1_555
C17 C3 1_555 1_555
H15 C17 1_555 1_555
C18 C5 1_555 1_555
H16 C18 1_555 1_555
H17 C18 1_555 1_555
H18 C18 1_555 1_555
C19 C5 1_555 1_555
C20 C13 1_555 1_555
H19 C20 1_555 1_555
C21 C11 1_555 1_555
H20 C21 1_555 1_555
H21 C21 1_555 1_555
C22 H22 1_555 1_555
C23 C16 1_555 1_555
H23 C23 1_555 1_555
C24 C12 1_555 1_555
H24 C24 1_555 1_555
C25 C13 1_555 1_555
H25 C25 1_555 1_555
H26 C25 1_555 1_555
C26 O5 1_555 1_555
H27 C26 1_555 1_555
C27 C20 1_555 1_555
H28 C27 1_555 1_555
H29 C27 1_555 1_555
H30 C27 1_555 1_555
C28 C23 1_555 1_555
H31 C28 1_555 1_555
H32 C28 1_555 1_555
C29 C20 1_555 1_555
H33 C29 1_555 1_555
H34 C29 1_555 1_555
H35 C29 1_555 1_555
C30 C23 1_555 1_555
H36 C30 1_555 1_555
H37 C30 1_555 1_555
H38 C30 1_555 1_555
C31 H39 1_555 1_555
H40 C31 1_555 1_555
H41 C31 1_555 1_555
C32 C28 1_555 1_555
H42 C32 1_555 1_555
H43 C32 1_555 1_555
H44 C32 1_555 1_555
C33 O4 1_555 1_555
O8 C33 1_555 1_555
O3 C2 1_555 1_555
C4 C8 1_555 1_555
C6 C14 1_555 1_555
C7 C10 1_555 1_555
C9 C10 1_555 1_555
C12 C26 1_555 1_555
C17 C21 1_555 1_555
C19 C25 1_555 1_555
C22 C24 1_555 1_555
C31 C33 1_555 1_555

#END
