
#######################################################################
#
#                 Cambridge Crystallographic Data Centre
#                                CCDC 
#
#######################################################################
#
# If this CIF has been generated from an entry in the Cambridge 
# Structural Database, then it will include bibliographic, chemical, 
# crystal, experimental, refinement or atomic coordinate data resulting 
# from the CCDC's data processing and validation procedures.
#
#######################################################################

data_VEBXOS
_chemical_formula_moiety         'C12 H14 Cl1 N1 O2'
_chemical_name_systematic        
(R,R)-2-amino-2-(2-chlorophenyl)-4-hydroxycyclohexan-1-one
_symmetry_cell_setting           orthorhombic
_symmetry_space_group_name_H-M   'P 21 21 21'
_symmetry_Int_Tables_number      19
_space_group_name_Hall           'P 2ac 2ab'
loop_
_symmetry_equiv_pos_site_id
_symmetry_equiv_pos_as_xyz
1 x,y,z
2 1/2-x,-y,1/2+z
3 -x,1/2+y,1/2-z
4 1/2+x,1/2-y,-z
_cell_length_a                   8.1094(2)
_cell_length_b                   8.6923(2)
_cell_length_c                   33.1247(7)
_cell_angle_alpha                90
_cell_angle_beta                 90
_cell_angle_gamma                90
_cell_volume                     2334.94
_exptl_crystal_colour            colorless
_exptl_crystal_description       Plate
_cell_formula_units_Z            8
loop_
_atom_site_label
_atom_site_type_symbol
_atom_site_fract_x
_atom_site_fract_y
_atom_site_fract_z
Cl1 Cl 0.78207(10) 0.74488(12) 0.57609(3)
O1 O 0.5360(3) 0.7763(3) 0.50235(8)
O2 O 0.7824(3) 0.2131(3) 0.54216(7)
H1 H 0.804(6) 0.138(5) 0.5234(13)
N1 N 0.3323(4) 0.4922(4) 0.52382(9)
H2 H 0.275(5) 0.434(4) 0.5425(10)
H3 H 0.261(5) 0.572(4) 0.5181(12)
C1 C 0.5810(4) 0.7444(5) 0.59601(11)
C2 C 0.5557(6) 0.8369(5) 0.62973(13)
H4 H 0.643954 0.895326 0.640731
C3 C 0.4011(6) 0.8429(5) 0.64701(12)
H5 H 0.381877 0.906196 0.669922
C4 C 0.2742(5) 0.7565(5) 0.63084(11)
H6 H 0.167603 0.760189 0.642707
C5 C 0.3020(5) 0.6640(4) 0.59726(10)
H7 H 0.213723 0.604524 0.586679
C6 C 0.4559(4) 0.6566(4) 0.57877(11)
C7 C 0.4857(4) 0.5505(4) 0.54250(11)
C8 C 0.5643(4) 0.6406(4) 0.50681(10)
C9 C 0.6606(5) 0.5494(4) 0.47649(11)
H8 H 0.728779 0.620838 0.460261
H9 H 0.582542 0.497803 0.457925
C10 C 0.7730(4) 0.4279(4) 0.49544(11)
H10 H 0.826242 0.366887 0.473836
H11 H 0.860770 0.479362 0.511222
C11 C 0.6759(4) 0.3220(4) 0.52275(10)
H12 H 0.591129 0.265896 0.506498
C12 C 0.5910(4) 0.4119(4) 0.55630(10)
H13 H 0.676567 0.449688 0.575177
H14 H 0.519200 0.340297 0.571503
Cl2 Cl 0.58807(11) 0.22963(12) 0.66287(3)
O3 O 0.8735(4) 0.1687(4) 0.72858(8)
O4 O 1.0844(3) 0.3111(3) 0.57500(7)
H15 H 0.980(4) 0.285(6) 0.5658(13)
N2 N 1.0873(4) 0.4349(5) 0.70005(10)
H16 H 1.078(7) 0.439(6) 0.7280(8)
H17 H 1.101(7) 0.533(4) 0.6898(16)
C13 C 0.6190(5) 0.4015(5) 0.68959(11)
C14 C 0.4801(5) 0.4764(6) 0.70292(14)
H18 H 0.373926 0.435184 0.697409
C15 C 0.4955(6) 0.6120(7) 0.72439(14)
H19 H 0.400139 0.663287 0.734181
C16 C 0.6489(6) 0.6722(7) 0.73149(15)
H20 H 0.660488 0.766084 0.745886
C17 C 0.7873(6) 0.5949(6) 0.71748(13)
H21 H 0.892731 0.638892 0.722258
C18 C 0.7787(5) 0.4574(5) 0.69697(11)
C19 C 0.9329(5) 0.3747(5) 0.68244(10)
C20 C 0.9373(5) 0.2063(5) 0.69697(11)
C21 C 1.0459(6) 0.0961(5) 0.67386(12)
H22 H 1.010397 -0.010371 0.679929
H23 H 1.160738 0.107687 0.683521
C22 C 1.0431(6) 0.1195(5) 0.62790(12)
H24 H 1.127060 0.052712 0.615118
H25 H 0.933634 0.090221 0.617133
C23 C 1.0789(4) 0.2880(5) 0.61770(10)
H26 H 1.188295 0.316707 0.629405
C24 C 0.9475(4) 0.3893(5) 0.63639(10)
H27 H 0.839718 0.363065 0.624150
H28 H 0.971894 0.497800 0.629584
loop_
_geom_bond_atom_site_label_1
_geom_bond_atom_site_label_2
_geom_bond_site_symmetry_1
_geom_bond_site_symmetry_2
Cl1 C1 1_555 1_555
O1 C8 1_555 1_555
O2 H1 1_555 1_555
N1 H2 1_555 1_555
H3 N1 1_555 1_555
C1 C2 1_555 1_555
C2 H4 1_555 1_555
C3 C2 1_555 1_555
H5 C3 1_555 1_555
C4 C3 1_555 1_555
H6 C4 1_555 1_555
C5 C4 1_555 1_555
H7 C5 1_555 1_555
C6 C1 1_555 1_555
C7 N1 1_555 1_555
C8 C7 1_555 1_555
C9 C8 1_555 1_555
H8 C9 1_555 1_555
H9 C9 1_555 1_555
C10 C9 1_555 1_555
H10 C10 1_555 1_555
H11 C10 1_555 1_555
C11 O2 1_555 1_555
H12 C11 1_555 1_555
C12 C7 1_555 1_555
H13 C12 1_555 1_555
H14 C12 1_555 1_555
Cl2 C13 1_555 1_555
O3 C20 1_555 1_555
O4 H15 1_555 1_555
N2 H16 1_555 1_555
H17 N2 1_555 1_555
C13 C14 1_555 1_555
C14 H18 1_555 1_555
C15 C14 1_555 1_555
H19 C15 1_555 1_555
C16 C15 1_555 1_555
H20 C16 1_555 1_555
C17 C16 1_555 1_555
H21 C17 1_555 1_555
C18 C13 1_555 1_555
C19 N2 1_555 1_555
C20 C19 1_555 1_555
C21 C20 1_555 1_555
H22 C21 1_555 1_555
H23 C21 1_555 1_555
C22 C21 1_555 1_555
H24 C22 1_555 1_555
H25 C22 1_555 1_555
C23 O4 1_555 1_555
H26 C23 1_555 1_555
C24 C19 1_555 1_555
H27 C24 1_555 1_555
H28 C24 1_555 1_555
C5 C6 1_555 1_555
C6 C7 1_555 1_555
C10 C11 1_555 1_555
C11 C12 1_555 1_555
C17 C18 1_555 1_555
C18 C19 1_555 1_555
C22 C23 1_555 1_555
C23 C24 1_555 1_555

#END
