
#######################################################################
#
#                 Cambridge Crystallographic Data Centre
#                                CCDC 
#
#######################################################################
#
# If this CIF has been generated from an entry in the Cambridge 
# Structural Database, then it will include bibliographic, chemical, 
# crystal, experimental, refinement or atomic coordinate data resulting 
# from the CCDC's data processing and validation procedures.
#
#######################################################################

data_VEBXIM
_chemical_formula_moiety         'C12 H14 Cl1 N1 O2'
_chemical_name_systematic        
(S,S)-2-amino-2-(2-chlorophenyl)-4-hydroxycyclohexan-1-one
_symmetry_cell_setting           orthorhombic
_symmetry_space_group_name_H-M   'P 21 21 21'
_symmetry_Int_Tables_number      19
_space_group_name_Hall           'P 2ac 2ab'
loop_
_symmetry_equiv_pos_site_id
_symmetry_equiv_pos_as_xyz
1 x,y,z
2 1/2-x,-y,1/2+z
3 -x,1/2+y,1/2-z
4 1/2+x,1/2-y,-z
_cell_length_a                   8.1621(2)
_cell_length_b                   8.6928(3)
_cell_length_c                   33.1313(10)
_cell_angle_alpha                90
_cell_angle_beta                 90
_cell_angle_gamma                90
_cell_volume                     2350.72
_exptl_crystal_colour            colorless
_exptl_crystal_description       Block
_cell_formula_units_Z            8
loop_
_atom_site_label
_atom_site_type_symbol
_atom_site_fract_x
_atom_site_fract_y
_atom_site_fract_z
Cl1 Cl 0.77919(8) 0.25440(8) 0.57625(2)
O1 O 0.5338(2) 0.2230(2) 0.50230(5)
O2 O 0.7808(2) 0.78679(19) 0.54251(5)
H1 H 0.799(4) 0.860(3) 0.5242(8)
N1 N 0.3321(3) 0.5086(2) 0.52369(7)
H2 H 0.263(3) 0.430(3) 0.5168(8)
H3 H 0.275(3) 0.573(3) 0.5419(7)
C1 C 0.5798(3) 0.2545(3) 0.59625(7)
C2 C 0.5537(4) 0.1619(3) 0.62981(8)
H4 H 0.641071 0.103140 0.640812
C3 C 0.3990(4) 0.1559(3) 0.64719(8)
H5 H 0.379392 0.092397 0.670008
C4 C 0.2743(3) 0.2430(3) 0.63101(7)
H6 H 0.168381 0.239629 0.642882
C5 C 0.3015(3) 0.3358(3) 0.59750(8)
H7 H 0.213710 0.395192 0.586963
C6 C 0.4555(3) 0.3437(3) 0.57891(7)
C7 C 0.4847(3) 0.4493(3) 0.54240(8)
C8 C 0.5625(3) 0.3590(3) 0.50680(7)
C9 C 0.6584(3) 0.4509(3) 0.47649(8)
H8 H 0.580893 0.503442 0.458111
H9 H 0.725520 0.379619 0.460051
C10 C 0.7711(3) 0.5712(3) 0.49558(8)
H10 H 0.857404 0.519102 0.511511
H11 H 0.825102 0.631994 0.474091
C11 C 0.6737(3) 0.6779(3) 0.52284(7)
H12 H 0.589859 0.734325 0.506551
C12 C 0.5893(3) 0.5875(3) 0.55638(7)
H13 H 0.517903 0.658866 0.571658
H14 H 0.674215 0.549350 0.575217
Cl2 Cl 0.58892(8) 0.77042(8) 0.66285(2)
O3 O 0.8737(2) 0.8294(2) 0.72895(5)
O4 O 1.0832(2) 0.6894(2) 0.57463(5)
H15 H 0.984(3) 0.714(4) 0.5654(10)
N2 N 1.0855(3) 0.5641(3) 0.70003(7)
H16 H 1.115(4) 0.474(3) 0.6888(9)
H17 H 1.077(4) 0.549(4) 0.7269(7)
C13 C 0.6197(3) 0.5979(3) 0.68950(8)
C14 C 0.4802(3) 0.5233(4) 0.70263(9)
H18 H 0.375069 0.564862 0.696928
C15 C 0.4948(4) 0.3868(4) 0.72428(9)
H19 H 0.399897 0.335592 0.734003
C16 C 0.6482(4) 0.3266(4) 0.73148(9)
H20 H 0.659199 0.232721 0.745915
C17 C 0.7865(4) 0.4029(4) 0.71766(8)
H21 H 0.891167 0.358780 0.722481
C18 C 0.7772(3) 0.5422(3) 0.69694(7)
C19 C 0.9324(3) 0.6239(3) 0.68243(7)
C20 C 0.9371(3) 0.7927(3) 0.69720(7)
C21 C 1.0437(4) 0.9029(3) 0.67392(8)
H22 H 1.157789 0.892682 0.683677
H23 H 1.007269 1.009193 0.679840
C22 C 1.0423(4) 0.8795(3) 0.62804(8)
H24 H 0.933932 0.909044 0.617111
H25 H 1.126111 0.946387 0.615454
C23 C 1.0777(3) 0.7123(3) 0.61758(7)
H26 H 1.186441 0.683479 0.629236
C24 C 0.9466(3) 0.6096(3) 0.63623(7)
H27 H 0.971310 0.501269 0.629346
H28 H 0.839433 0.635633 0.624021
loop_
_geom_bond_atom_site_label_1
_geom_bond_atom_site_label_2
_geom_bond_site_symmetry_1
_geom_bond_site_symmetry_2
Cl1 C1 1_555 1_555
O1 C8 1_555 1_555
O2 H1 1_555 1_555
N1 H2 1_555 1_555
H3 N1 1_555 1_555
C1 C2 1_555 1_555
C2 H4 1_555 1_555
C3 C2 1_555 1_555
H5 C3 1_555 1_555
C4 C3 1_555 1_555
H6 C4 1_555 1_555
C5 C4 1_555 1_555
H7 C5 1_555 1_555
C6 C1 1_555 1_555
C7 N1 1_555 1_555
C8 C7 1_555 1_555
C9 C8 1_555 1_555
H8 C9 1_555 1_555
H9 C9 1_555 1_555
C10 C9 1_555 1_555
H10 C10 1_555 1_555
H11 C10 1_555 1_555
C11 O2 1_555 1_555
H12 C11 1_555 1_555
C12 C7 1_555 1_555
H13 C12 1_555 1_555
H14 C12 1_555 1_555
Cl2 C13 1_555 1_555
O3 C20 1_555 1_555
O4 H15 1_555 1_555
N2 H16 1_555 1_555
H17 N2 1_555 1_555
C13 C14 1_555 1_555
C14 H18 1_555 1_555
C15 C14 1_555 1_555
H19 C15 1_555 1_555
C16 C15 1_555 1_555
H20 C16 1_555 1_555
C17 C16 1_555 1_555
H21 C17 1_555 1_555
C18 C13 1_555 1_555
C19 N2 1_555 1_555
C20 C19 1_555 1_555
C21 C20 1_555 1_555
H22 C21 1_555 1_555
H23 C21 1_555 1_555
C22 C21 1_555 1_555
H24 C22 1_555 1_555
H25 C22 1_555 1_555
C23 O4 1_555 1_555
H26 C23 1_555 1_555
C24 C19 1_555 1_555
H27 C24 1_555 1_555
H28 C24 1_555 1_555
C5 C6 1_555 1_555
C6 C7 1_555 1_555
C10 C11 1_555 1_555
C11 C12 1_555 1_555
C17 C18 1_555 1_555
C18 C19 1_555 1_555
C22 C23 1_555 1_555
C23 C24 1_555 1_555

#END
