
#######################################################################
#
#                 Cambridge Crystallographic Data Centre
#                                CCDC 
#
#######################################################################
#
# If this CIF has been generated from an entry in the Cambridge 
# Structural Database, then it will include bibliographic, chemical, 
# crystal, experimental, refinement or atomic coordinate data resulting 
# from the CCDC's data processing and validation procedures.
#
#######################################################################

data_VEBYUZ
_chemical_formula_moiety         'C12 H14 Cl1 N1 O2'
_chemical_name_systematic        
(S,R)-2-amino-2-(2-chlorophenyl)-6-hydroxycyclohexan-1-one
_symmetry_cell_setting           orthorhombic
_symmetry_space_group_name_H-M   'P 21 21 21'
_symmetry_Int_Tables_number      19
_space_group_name_Hall           'P 2ac 2ab'
loop_
_symmetry_equiv_pos_site_id
_symmetry_equiv_pos_as_xyz
1 x,y,z
2 1/2-x,-y,1/2+z
3 -x,1/2+y,1/2-z
4 1/2+x,1/2-y,-z
_cell_length_a                   7.2478(4)
_cell_length_b                   8.2707(4)
_cell_length_c                   18.9058(10)
_cell_angle_alpha                90
_cell_angle_beta                 90
_cell_angle_gamma                90
_cell_volume                     1133.3
_exptl_crystal_colour            colorless
_exptl_crystal_description       prism
_cell_formula_units_Z            4
loop_
_atom_site_label
_atom_site_type_symbol
_atom_site_fract_x
_atom_site_fract_y
_atom_site_fract_z
C1 C 0.4115(3) 0.7197(2) 0.36890(10)
C2 C 0.2288(3) 0.7460(2) 0.40904(9)
C3 C 0.1121(3) 0.8892(3) 0.38470(10)
H1 H 0.180510 0.991271 0.395524
C4 C 0.0806(3) 0.8799(3) 0.30500(10)
H2 H 0.008642 0.781500 0.293649
H3 H 0.008622 0.975041 0.289307
C5 C 0.2643(3) 0.8753(3) 0.26578(10)
H4 H 0.333555 0.975952 0.275649
H5 H 0.240903 0.870165 0.214241
C6 C 0.3809(3) 0.7297(3) 0.28792(10)
H6 H 0.502327 0.736029 0.264098
H7 H 0.319232 0.629487 0.271760
C7 C 0.5005(3) 0.5580(2) 0.39014(9)
C8 C 0.6798(3) 0.5570(2) 0.41827(10)
H8 H 0.744165 0.656569 0.422607
C9 C 0.7664(3) 0.4160(2) 0.43995(10)
H9 H 0.886986 0.420503 0.459517
C10 C 0.6779(3) 0.2692(2) 0.43320(11)
H10 H 0.736499 0.172399 0.448263
C11 C 0.5028(3) 0.2648(2) 0.40421(11)
H11 H 0.441295 0.164265 0.398407
C12 C 0.4170(3) 0.4066(3) 0.38365(10)
N1 N 0.5173(2) 0.8634(2) 0.38930(9)
H12 H 0.548681 0.857162 0.435111
H13 H 0.617375 0.874949 0.362645
O1 O 0.1852(2) 0.66589(16) 0.45998(7)
O2 O -0.06099(19) 0.89505(19) 0.41866(7)
H14 H -0.045603 0.896134 0.462694
Cl1 Cl 0.19509(7) 0.38520(6) 0.34799(3)
loop_
_geom_bond_atom_site_label_1
_geom_bond_atom_site_label_2
_geom_bond_site_symmetry_1
_geom_bond_site_symmetry_2
C1 C2 1_555 1_555
C2 C3 1_555 1_555
C3 H1 1_555 1_555
C4 C3 1_555 1_555
H2 C4 1_555 1_555
H3 C4 1_555 1_555
C5 C4 1_555 1_555
H4 C5 1_555 1_555
H5 C5 1_555 1_555
C6 C1 1_555 1_555
H6 C6 1_555 1_555
H7 C6 1_555 1_555
C7 C1 1_555 1_555
C8 C7 1_555 1_555
H8 C8 1_555 1_555
C9 C8 1_555 1_555
H9 C9 1_555 1_555
C10 C9 1_555 1_555
H10 C10 1_555 1_555
C11 C10 1_555 1_555
H11 C11 1_555 1_555
C12 C7 1_555 1_555
N1 C1 1_555 1_555
H12 N1 1_555 1_555
H13 N1 1_555 1_555
O1 C2 1_555 1_555
O2 C3 1_555 1_555
H14 O2 1_555 1_555
Cl1 C12 1_555 1_555
C5 C6 1_555 1_555
C11 C12 1_555 1_555

#END
