
#######################################################################
#
#                 Cambridge Crystallographic Data Centre
#                                CCDC 
#
#######################################################################
#
# If this CIF has been generated from an entry in the Cambridge 
# Structural Database, then it will include bibliographic, chemical, 
# crystal, experimental, refinement or atomic coordinate data resulting 
# from the CCDC's data processing and validation procedures.
#
#######################################################################

data_VEBYOT
_chemical_formula_moiety         'C12 H8 F4 O2 S1'
_chemical_name_systematic        
5-(4-fluorophenyl)-3-methyl-4-[(trifluoromethyl)sulfanyl]furan-2(5H)-one
_symmetry_cell_setting           monoclinic
_symmetry_space_group_name_H-M   'P 21/c'
_symmetry_Int_Tables_number      14
_space_group_name_Hall           '-P 2ybc'
loop_
_symmetry_equiv_pos_site_id
_symmetry_equiv_pos_as_xyz
1 x,y,z
2 -x,1/2+y,1/2-z
3 -x,-y,-z
4 x,1/2-y,1/2+z
_cell_length_a                   9.297(4)
_cell_length_b                   17.317(7)
_cell_length_c                   8.272(3)
_cell_angle_alpha                90
_cell_angle_beta                 107.959(7)
_cell_angle_gamma                90
_cell_volume                     1266.87
_exptl_crystal_colour            colorless
_exptl_crystal_description       prismatic
_cell_formula_units_Z            4
loop_
_atom_site_label
_atom_site_type_symbol
_atom_site_fract_x
_atom_site_fract_y
_atom_site_fract_z
S1 S 0.38603(8) 0.08802(5) -0.08629(8)
F1 F 1.0916(2) 0.15896(11) 0.2227(3)
F2 F 0.1883(6) 0.1975(5) -0.0855(9)
F3 F 0.2115(6) 0.1712(3) -0.3265(7)
F4 F 0.0982(9) 0.0952(6) -0.2078(10)
O1 O 0.3665(2) 0.05323(12) 0.5195(2)
O2 O 0.4809(2) 0.14118(10) 0.4058(2)
C1 C 0.3952(3) 0.07746(15) 0.3979(3)
C2 C 0.3479(3) 0.04723(14) 0.2219(3)
C3 C 0.4014(2) 0.09506(13) 0.1305(3)
C4 C 0.4935(3) 0.15862(13) 0.2395(3)
H1 H 0.4460 0.2086 0.2009
C5 C 0.6563(3) 0.16069(13) 0.2429(3)
C6 C 0.7573(3) 0.10366(14) 0.3247(3)
H2 H 0.7257 0.0649 0.3839
C7 C 0.9043(3) 0.10366(15) 0.3194(4)
H3 H 0.9721 0.0657 0.3755
C8 C 0.9484(3) 0.16014(16) 0.2307(4)
C9 C 0.8533(4) 0.21699(18) 0.1488(4)
H4 H 0.8860 0.2549 0.0887
C10 C 0.7063(3) 0.21760(16) 0.1564(4)
H5 H 0.6407 0.2568 0.1026
C11 C 0.2565(4) -0.02445(18) 0.1762(4)
H6 H 0.2446 -0.0376 0.0601
H7 H 0.1588 -0.0162 0.1900
H8 H 0.3069 -0.0658 0.2490
C12 C 0.2184(4) 0.1432(2) -0.1715(4)
F5? F 0.2529(10) 0.2143(6) -0.0966(14)
F6? F 0.1674(10) 0.1379(6) -0.3275(12)
F7? F 0.0986(9) 0.1144(6) -0.1318(8)
loop_
_geom_bond_atom_site_label_1
_geom_bond_atom_site_label_2
_geom_bond_site_symmetry_1
_geom_bond_site_symmetry_2
S1 C3 1_555 1_555
F1 C8 1_555 1_555
F2 C12 1_555 1_555
F3 C12 1_555 1_555
F4 C12 1_555 1_555
O1 C1 1_555 1_555
O2 C1 1_555 1_555
C1 C2 1_555 1_555
C2 C3 1_555 1_555
C3 C4 1_555 1_555
C4 O2 1_555 1_555
H1 C4 1_555 1_555
C5 C4 1_555 1_555
C6 C5 1_555 1_555
H2 C6 1_555 1_555
C7 C6 1_555 1_555
H3 C7 1_555 1_555
C8 C7 1_555 1_555
C9 C8 1_555 1_555
H4 C9 1_555 1_555
C10 C5 1_555 1_555
H5 C10 1_555 1_555
C11 C2 1_555 1_555
H6 C11 1_555 1_555
H7 C11 1_555 1_555
H8 C11 1_555 1_555
C12 S1 1_555 1_555
C9 C10 1_555 1_555

#END
