
#######################################################################
#
#                 Cambridge Crystallographic Data Centre
#                                CCDC 
#
#######################################################################
#
# If this CIF has been generated from an entry in the Cambridge 
# Structural Database, then it will include bibliographic, chemical, 
# crystal, experimental, refinement or atomic coordinate data resulting 
# from the CCDC's data processing and validation procedures.
#
#######################################################################

data_VEBYAF
_chemical_formula_moiety         'C12 H14 Cl1 N1 O2'
_chemical_name_systematic        
(R,S)-2-amino-2-(2-chlorophenyl)-5-hydroxycyclohexan-1-one
_symmetry_cell_setting           orthorhombic
_symmetry_space_group_name_H-M   'P 21 21 21'
_symmetry_Int_Tables_number      19
_space_group_name_Hall           'P 2ac 2ab'
loop_
_symmetry_equiv_pos_site_id
_symmetry_equiv_pos_as_xyz
1 x,y,z
2 1/2-x,-y,1/2+z
3 -x,1/2+y,1/2-z
4 1/2+x,1/2-y,-z
_cell_length_a                   7.2205(6)
_cell_length_b                   7.3718(5)
_cell_length_c                   21.3401(15)
_cell_angle_alpha                90
_cell_angle_beta                 90
_cell_angle_gamma                90
_cell_volume                     1135.89
_exptl_crystal_colour            colorless
_exptl_crystal_description       Block
_cell_formula_units_Z            4
loop_
_atom_site_label
_atom_site_type_symbol
_atom_site_fract_x
_atom_site_fract_y
_atom_site_fract_z
Cl1 Cl 0.35756(8) 0.44214(9) 0.56599(3)
O1 O 0.4671(2) 0.3922(2) 0.71411(8)
O2 O 0.9142(2) -0.0236(2) 0.66858(8)
H1 H 0.824(4) -0.111(4) 0.6706(14)
N1 N 0.6376(3) 0.6991(3) 0.66740(10)
H2 H 0.533(4) 0.726(4) 0.6453(13)
H3 H 0.601(4) 0.701(4) 0.7096(10)
C1 C 0.5844(3) 0.3642(3) 0.67398(11)
C2 C 0.6466(4) 0.1769(3) 0.65642(11)
H4 H 0.657841 0.166228 0.610330
H5 H 0.555624 0.085899 0.671194
C3 C 0.8363(3) 0.1445(3) 0.68780(11)
H6 H 0.819007 0.142464 0.734286
C4 C 0.9704(3) 0.2944(3) 0.67128(11)
H7 H 1.003698 0.284535 0.626399
H8 H 1.085165 0.278953 0.696119
C5 C 0.8902(3) 0.4826(3) 0.68380(10)
H9 H 0.982002 0.575127 0.670855
H10 H 0.869557 0.496531 0.729412
C6 C 0.7050(3) 0.5190(3) 0.64891(10)
C7 C 0.7266(3) 0.5200(3) 0.57716(10)
C8 C 0.5780(3) 0.4893(3) 0.53660(11)
C9 C 0.5952(4) 0.5002(3) 0.47208(11)
H11 H 0.490660 0.479997 0.445945
C10 C 0.7648(4) 0.5406(4) 0.44604(11)
H12 H 0.778378 0.546219 0.401807
C11 C 0.9147(4) 0.5728(3) 0.48444(11)
H13 H 1.031885 0.600884 0.466689
C12 C 0.8944(3) 0.5641(3) 0.54896(10)
H14 H 0.998547 0.588994 0.574775
loop_
_geom_bond_atom_site_label_1
_geom_bond_atom_site_label_2
_geom_bond_site_symmetry_1
_geom_bond_site_symmetry_2
Cl1 C8 1_555 1_555
O1 C1 1_555 1_555
O2 H1 1_555 1_555
N1 H2 1_555 1_555
H3 N1 1_555 1_555
C1 C2 1_555 1_555
C2 H4 1_555 1_555
H5 C2 1_555 1_555
C3 O2 1_555 1_555
H6 C3 1_555 1_555
C4 C3 1_555 1_555
H7 C4 1_555 1_555
H8 C4 1_555 1_555
C5 C4 1_555 1_555
H9 C5 1_555 1_555
H10 C5 1_555 1_555
C6 N1 1_555 1_555
C7 C6 1_555 1_555
C8 C7 1_555 1_555
C9 C8 1_555 1_555
H11 C9 1_555 1_555
C10 C9 1_555 1_555
H12 C10 1_555 1_555
C11 C10 1_555 1_555
H13 C11 1_555 1_555
C12 C7 1_555 1_555
H14 C12 1_555 1_555
C1 C6 1_555 1_555
C2 C3 1_555 1_555
C5 C6 1_555 1_555
C11 C12 1_555 1_555

#END
