
#######################################################################
#
#                 Cambridge Crystallographic Data Centre
#                                CCDC 
#
#######################################################################
#
# If this CIF has been generated from an entry in the Cambridge 
# Structural Database, then it will include bibliographic, chemical, 
# crystal, experimental, refinement or atomic coordinate data resulting 
# from the CCDC's data processing and validation procedures.
#
#######################################################################

data_VEBYIN
_chemical_formula_moiety         'C12 H15 Cl1 N1 O2 1+,H2 O1,Cl1 1-'
_chemical_name_systematic        
'(S,R)-1-(2-chlorophenyl)-5-hydroxy-2-oxocyclohexan-1-aminium chloride monohydrate'
_symmetry_cell_setting           monoclinic
_symmetry_space_group_name_H-M   'P 21'
_symmetry_Int_Tables_number      4
_space_group_name_Hall           'P 2yb'
loop_
_symmetry_equiv_pos_site_id
_symmetry_equiv_pos_as_xyz
1 x,y,z
2 -x,1/2+y,-z
_cell_length_a                   7.4051(6)
_cell_length_b                   8.6895(8)
_cell_length_c                   11.7644(11)
_cell_angle_alpha                90
_cell_angle_beta                 107.588(2)
_cell_angle_gamma                90
_cell_volume                     721.613
_exptl_crystal_colour            colorless
_exptl_crystal_description       Plank
_cell_formula_units_Z            2
loop_
_atom_site_label
_atom_site_type_symbol
_atom_site_fract_x
_atom_site_fract_y
_atom_site_fract_z
Cl1 Cl 0.89188(8) 0.69297(8) 0.67481(5)
O1 O 0.9032(2) 0.6263(2) 0.94623(15)
O2 O 0.3213(2) 0.3114(2) 0.89979(15)
H1 H 0.288(4) 0.218(3) 0.869(3)
N1 N 0.6060(3) 0.7964(2) 0.84827(18)
H2 H 0.491(3) 0.847(3) 0.817(2)
H3 H 0.633(4) 0.800(3) 0.9312(19)
H4 H 0.713(3) 0.842(3) 0.837(2)
C1 C 0.6552(3) 0.6460(3) 0.6054(2)
C2 C 0.5995(4) 0.6346(3) 0.4825(2)
H5 H 0.689106 0.647528 0.440043
C3 C 0.4110(4) 0.6041(3) 0.4219(2)
H6 H 0.371169 0.594686 0.337478
C4 C 0.2819(4) 0.5876(3) 0.4840(2)
H7 H 0.152204 0.569640 0.442387
C5 C 0.3407(3) 0.5972(3) 0.6071(2)
H8 H 0.250041 0.584764 0.648842
C6 C 0.5297(3) 0.6246(3) 0.6718(2)
C7 C 0.5916(3) 0.6323(3) 0.8081(2)
C8 C 0.7843(3) 0.5560(3) 0.8703(2)
C9 C 0.7942(3) 0.3882(3) 0.8458(2)
H9 H 0.923425 0.348552 0.884891
H10 H 0.762168 0.369709 0.758975
C10 C 0.6492(3) 0.3071(3) 0.8968(2)
H11 H 0.645710 0.195874 0.878203
H12 H 0.689315 0.318716 0.984647
C11 C 0.4515(3) 0.3756(3) 0.8441(2)
H13 H 0.405526 0.354088 0.756540
C12 C 0.4545(3) 0.5488(3) 0.8645(2)
H14 H 0.493892 0.569651 0.951324
H15 H 0.325055 0.590420 0.829662
Cl2 Cl 0.24903(8) 0.00178(7) 0.76720(5)
O3 O 0.8793(2) 1.0005(2) 0.83838(15)
H16 H 0.932(4) 1.037(4) 0.911(2)
H17 H 0.975(4) 0.985(4) 0.807(3)
loop_
_geom_bond_atom_site_label_1
_geom_bond_atom_site_label_2
_geom_bond_site_symmetry_1
_geom_bond_site_symmetry_2
Cl1 C1 1_555 1_555
O1 C8 1_555 1_555
O2 H1 1_555 1_555
N1 H2 1_555 1_555
H3 N1 1_555 1_555
H4 N1 1_555 1_555
C1 C2 1_555 1_555
C2 H5 1_555 1_555
C3 C2 1_555 1_555
H6 C3 1_555 1_555
C4 C3 1_555 1_555
H7 C4 1_555 1_555
C5 C4 1_555 1_555
H8 C5 1_555 1_555
C6 C1 1_555 1_555
C7 N1 1_555 1_555
C8 C7 1_555 1_555
C9 C8 1_555 1_555
H9 C9 1_555 1_555
H10 C9 1_555 1_555
C10 C9 1_555 1_555
H11 C10 1_555 1_555
H12 C10 1_555 1_555
C11 O2 1_555 1_555
H13 C11 1_555 1_555
C12 C7 1_555 1_555
H14 C12 1_555 1_555
H15 C12 1_555 1_555
O3 H16 1_555 1_555
H17 O3 1_555 1_555
C5 C6 1_555 1_555
C6 C7 1_555 1_555
C10 C11 1_555 1_555
C11 C12 1_555 1_555

#END
