
#######################################################################
#
#                 Cambridge Crystallographic Data Centre
#                                CCDC 
#
#######################################################################
#
# If this CIF has been generated from an entry in the Cambridge 
# Structural Database, then it will include bibliographic, chemical, 
# crystal, experimental, refinement or atomic coordinate data resulting 
# from the CCDC's data processing and validation procedures.
#
#######################################################################

data_VEBYEJ
_chemical_formula_moiety         'C12 H14 Cl1 N1 O2'
_chemical_name_systematic        
(R,R)-2-amino-2-(2-chlorophenyl)-5-hydroxycyclohexan-1-one
_symmetry_cell_setting           orthorhombic
_symmetry_space_group_name_H-M   'P 21 21 21'
_symmetry_Int_Tables_number      19
_space_group_name_Hall           'P 2ac 2ab'
loop_
_symmetry_equiv_pos_site_id
_symmetry_equiv_pos_as_xyz
1 x,y,z
2 1/2-x,-y,1/2+z
3 -x,1/2+y,1/2-z
4 1/2+x,1/2-y,-z
_cell_length_a                   7.4095(7)
_cell_length_b                   7.4183(7)
_cell_length_c                   20.1227(18)
_cell_angle_alpha                90
_cell_angle_beta                 90
_cell_angle_gamma                90
_cell_volume                     1106.06
_exptl_crystal_colour            colorless
_exptl_crystal_description       Block
_cell_formula_units_Z            4
loop_
_atom_site_label
_atom_site_type_symbol
_atom_site_fract_x
_atom_site_fract_y
_atom_site_fract_z
Cl1 Cl 0.49521(9) 0.29770(9) 0.54460(3)
O1 O 0.4674(2) 0.3425(2) 0.70429(8)
O2 O 0.9939(3) -0.0074(2) 0.68056(8)
H1 H 1.060(4) 0.028(4) 0.7175(13)
N1 N 0.7887(3) 0.6143(3) 0.71077(10)
H2 H 0.852(3) 0.710(3) 0.6956(12)
H3 H 0.697(3) 0.654(4) 0.7375(12)
C1 C 0.6276(3) 0.3446(3) 0.69144(11)
C2 C 0.7528(3) 0.1961(3) 0.71382(11)
H4 H 0.680554 0.089222 0.726443
H5 H 0.819953 0.236630 0.753653
C3 C 0.8877(3) 0.1427(3) 0.65947(12)
H6 H 0.816821 0.103969 0.619662
C4 C 0.9979(3) 0.3078(3) 0.63974(11)
H7 H 1.090289 0.272907 0.606596
H8 H 1.060818 0.356455 0.679269
C5 C 0.8740(3) 0.4536(3) 0.61015(12)
H9 H 0.825863 0.409340 0.567258
H10 H 0.947203 0.562339 0.600812
C6 C 0.7134(3) 0.5080(3) 0.65524(11)
C7 C 0.5645(3) 0.6059(4) 0.61611(11)
C8 C 0.4582(3) 0.5225(4) 0.56775(11)
C9 C 0.3157(3) 0.6098(4) 0.53586(12)
H11 H 0.247307 0.549103 0.502770
C10 C 0.2752(3) 0.7854(4) 0.55300(13)
H12 H 0.176931 0.845605 0.532343
C11 C 0.3776(4) 0.8731(4) 0.60012(13)
H13 H 0.349961 0.993954 0.611970
C12 C 0.5214(3) 0.7850(3) 0.63033(11)
H14 H 0.592752 0.848774 0.661721
loop_
_geom_bond_atom_site_label_1
_geom_bond_atom_site_label_2
_geom_bond_site_symmetry_1
_geom_bond_site_symmetry_2
Cl1 C8 1_555 1_555
O1 C1 1_555 1_555
O2 H1 1_555 1_555
N1 H2 1_555 1_555
H3 N1 1_555 1_555
C1 C2 1_555 1_555
C2 H4 1_555 1_555
H5 C2 1_555 1_555
C3 O2 1_555 1_555
H6 C3 1_555 1_555
C4 C3 1_555 1_555
H7 C4 1_555 1_555
H8 C4 1_555 1_555
C5 C4 1_555 1_555
H9 C5 1_555 1_555
H10 C5 1_555 1_555
C6 N1 1_555 1_555
C7 C6 1_555 1_555
C8 C7 1_555 1_555
C9 C8 1_555 1_555
H11 C9 1_555 1_555
C10 C9 1_555 1_555
H12 C10 1_555 1_555
C11 C10 1_555 1_555
H13 C11 1_555 1_555
C12 C7 1_555 1_555
H14 C12 1_555 1_555
C1 C6 1_555 1_555
C2 C3 1_555 1_555
C5 C6 1_555 1_555
C11 C12 1_555 1_555

#END
