
#######################################################################
#
#                 Cambridge Crystallographic Data Centre
#                                CCDC 
#
#######################################################################
#
# If this CIF has been generated from an entry in the Cambridge 
# Structural Database, then it will include bibliographic, chemical, 
# crystal, experimental, refinement or atomic coordinate data resulting 
# from the CCDC's data processing and validation procedures.
#
#######################################################################

data_VEBZIO
_chemical_formula_moiety         'C12 H14 Cl1 N1 O2'
_chemical_name_systematic        
(R,S)-2-amino-2-(2-chlorophenyl)-6-hydroxycyclohexan-1-one
_symmetry_cell_setting           orthorhombic
_symmetry_space_group_name_H-M   'P 21 21 21'
_symmetry_Int_Tables_number      19
_space_group_name_Hall           'P 2ac 2ab'
loop_
_symmetry_equiv_pos_site_id
_symmetry_equiv_pos_as_xyz
1 x,y,z
2 1/2-x,-y,1/2+z
3 -x,1/2+y,1/2-z
4 1/2+x,1/2-y,-z
_cell_length_a                   7.2604(2)
_cell_length_b                   8.2772(2)
_cell_length_c                   18.9206(4)
_cell_angle_alpha                90
_cell_angle_beta                 90
_cell_angle_gamma                90
_cell_volume                     1137.05
_exptl_crystal_colour            colorless
_exptl_crystal_description       Block
_cell_formula_units_Z            4
loop_
_atom_site_label
_atom_site_type_symbol
_atom_site_fract_x
_atom_site_fract_y
_atom_site_fract_z
Cl1 Cl 0.19502(6) 0.38523(6) 0.65201(2)
O1 O 0.18519(19) 0.66613(15) 0.54000(6)
O2 O -0.06106(17) 0.89516(18) 0.58132(7)
H1 H -0.042(3) 0.893(3) 0.5359(10)
N1 N 0.5172(2) 0.8636(2) 0.61075(9)
H2 H 0.549(3) 0.859(3) 0.5640(10)
H3 H 0.622(3) 0.871(3) 0.6385(12)
C1 C 0.2286(2) 0.7461(2) 0.59093(9)
C2 C 0.1123(2) 0.8893(3) 0.61539(9)
H4 H 0.1807 0.9913 0.6046
C3 C 0.0809(3) 0.8799(3) 0.69499(9)
H5 H 0.0091 0.7815 0.7063
H6 H 0.0089 0.9749 0.7107
C4 C 0.2644(3) 0.8754(3) 0.73421(9)
H7 H 0.2411 0.8704 0.7857
H8 H 0.3335 0.9760 0.7243
C5 C 0.3809(3) 0.7299(2) 0.71213(9)
H9 H 0.3194 0.6297 0.7283
H10 H 0.5022 0.7363 0.7359
C6 C 0.4113(3) 0.7199(2) 0.63121(9)
C7 C 0.5003(3) 0.5580(2) 0.60983(9)
C8 C 0.4168(2) 0.4068(2) 0.61647(9)
C9 C 0.5025(3) 0.2649(2) 0.59585(10)
H11 H 0.4410 0.1645 0.6016
C10 C 0.6779(3) 0.2691(2) 0.56678(10)
H12 H 0.7363 0.1724 0.5517
C11 C 0.7665(3) 0.4162(2) 0.56000(9)
H13 H 0.8870 0.4206 0.5405
C12 C 0.6800(3) 0.5572(2) 0.58163(9)
H14 H 0.7442 0.6568 0.5773
loop_
_geom_bond_atom_site_label_1
_geom_bond_atom_site_label_2
_geom_bond_site_symmetry_1
_geom_bond_site_symmetry_2
Cl1 C8 1_555 1_555
O1 C1 1_555 1_555
O2 H1 1_555 1_555
N1 H2 1_555 1_555
H3 N1 1_555 1_555
C1 C2 1_555 1_555
C2 O2 1_555 1_555
H4 C2 1_555 1_555
C3 C2 1_555 1_555
H5 C3 1_555 1_555
H6 C3 1_555 1_555
C4 C3 1_555 1_555
H7 C4 1_555 1_555
H8 C4 1_555 1_555
C5 C4 1_555 1_555
H9 C5 1_555 1_555
H10 C5 1_555 1_555
C6 N1 1_555 1_555
C7 C6 1_555 1_555
C8 C7 1_555 1_555
C9 C8 1_555 1_555
H11 C9 1_555 1_555
C10 C9 1_555 1_555
H12 C10 1_555 1_555
C11 C10 1_555 1_555
H13 C11 1_555 1_555
C12 C7 1_555 1_555
H14 C12 1_555 1_555
C1 C6 1_555 1_555
C5 C6 1_555 1_555
C11 C12 1_555 1_555

#END
