
#######################################################################
#
#                 Cambridge Crystallographic Data Centre
#                                CCDC 
#
#######################################################################
#
# If this CIF has been generated from an entry in the Cambridge 
# Structural Database, then it will include bibliographic, chemical, 
# crystal, experimental, refinement or atomic coordinate data resulting 
# from the CCDC's data processing and validation procedures.
#
#######################################################################

data_VECBUD
_chemical_formula_moiety         'C33 H24 N1 O2 P1'
_chemical_name_systematic        
'N-[2-(1-oxo-1,3-diphenyl-1H-1\l^5^-phosphindol-2-yl)phenyl]benzamide unknown solvate'
_symmetry_cell_setting           monoclinic
_symmetry_space_group_name_H-M   'C 2/c'
_symmetry_Int_Tables_number      15
_space_group_name_Hall           '-C 2yn'
loop_
_symmetry_equiv_pos_site_id
_symmetry_equiv_pos_as_xyz
1 x,y,z
2 -x,y,1/2-z
3 1/2+x,1/2+y,z
4 1/2-x,1/2+y,1/2-z
5 -x,-y,-z
6 x,-y,1/2+z
7 1/2-x,1/2-y,-z
8 1/2+x,1/2-y,1/2+z
_cell_length_a                   15.2424(15)
_cell_length_b                   18.1764(16)
_cell_length_c                   23.330(2)
_cell_angle_alpha                90
_cell_angle_beta                 90.1420(10)
_cell_angle_gamma                90
_cell_volume                     6463.6
_exptl_crystal_colour            white
_exptl_crystal_description       block
_cell_formula_units_Z            8
loop_
_atom_site_label
_atom_site_type_symbol
_atom_site_fract_x
_atom_site_fract_y
_atom_site_fract_z
N1 N 0.19896(19) -0.08472(14) 0.36564(11)
H1 H 0.1835 -0.0539 0.3917
O1 O 0.18850(15) 0.03992(12) 0.44568(9)
O2 O 0.15044(18) -0.17081(15) 0.30327(12)
P1 P 0.25050(6) 0.08771(5) 0.41374(4)
C1 C 0.28926(19) 0.05245(17) 0.34610(13)
C2 C 0.2802(2) 0.10338(17) 0.30504(13)
C3 C 0.2348(2) 0.17305(17) 0.32378(14)
C4 C 0.2129(2) 0.17158(17) 0.38268(14)
C5 C 0.1690(2) 0.2308(2) 0.40680(16)
H2 H 0.1543 0.2304 0.4455
C6 C 0.1472(2) 0.2906(2) 0.37275(19)
H3 H 0.1178 0.3304 0.3887
C7 C 0.1686(2) 0.29152(19) 0.31566(19)
H4 H 0.1537 0.3321 0.2934
C8 C 0.2124(2) 0.23264(19) 0.29051(15)
H5 H 0.2263 0.2336 0.2517
C9 C 0.3469(2) 0.10815(18) 0.45451(13)
C10 C 0.3735(3) 0.0614(2) 0.49815(15)
H6 H 0.3393 0.0206 0.5070
C11 C 0.4493(3) 0.0742(2) 0.52857(17)
H7 H 0.4656 0.0423 0.5579
C12 C 0.5008(3) 0.1333(3) 0.51592(18)
H8 H 0.5525 0.1412 0.5363
C13 C 0.4767(3) 0.1811(2) 0.47326(18)
H9 H 0.5114 0.2218 0.4651
C14 C 0.4002(3) 0.1685(2) 0.44214(15)
H10 H 0.3844 0.2005 0.4128
C15 C 0.3340(2) -0.01952(17) 0.34099(12)
C16 C 0.2891(2) -0.08571(18) 0.34907(13)
C17 C 0.3336(3) -0.15199(18) 0.34230(14)
H11 H 0.3042 -0.1962 0.3478
C18 C 0.4214(3) -0.1523(2) 0.32745(15)
H12 H 0.4505 -0.1968 0.3225
C19 C 0.4658(2) -0.0875(2) 0.32000(14)
H13 H 0.5251 -0.0879 0.3106
C20 C 0.4222(2) -0.02180(18) 0.32652(13)
H14 H 0.4525 0.0221 0.3211
C21 C 0.3108(2) 0.09513(18) 0.24431(13)
C22 C 0.3645(2) 0.14860(19) 0.21985(15)
H15 H 0.3807 0.1899 0.2409
C23 C 0.3936(3) 0.1398(2) 0.16387(18)
H16 H 0.4292 0.1756 0.1475
C24 C 0.3704(3) 0.0791(3) 0.13269(17)
H17 H 0.3901 0.0740 0.0952
C25 C 0.3183(3) 0.0261(2) 0.15631(17)
H18 H 0.3030 -0.0151 0.1349
C26 C 0.2879(2) 0.03332(19) 0.21247(15)
H19 H 0.2525 -0.0029 0.2285
C27 C 0.1360(3) -0.12904(19) 0.34319(17)
C28 C 0.0463(3) -0.12261(18) 0.36916(17)
C29 C -0.0235(3) -0.1502(2) 0.3379(2)
H20 H -0.0137 -0.1711 0.3021
C30 C -0.1075(3) -0.1471(3) 0.3596(3)
H21 H -0.1543 -0.1651 0.3382
C31 C -0.1219(3) -0.1173(3) 0.4129(3)
H22 H -0.1786 -0.1158 0.4275
C32 C -0.0543(3) -0.0899(2) 0.4443(2)
H23 H -0.0643 -0.0698 0.4803
C33 C 0.0303(3) -0.0924(2) 0.42188(17)
H24 H 0.0767 -0.0732 0.4431
loop_
_geom_bond_atom_site_label_1
_geom_bond_atom_site_label_2
_geom_bond_site_symmetry_1
_geom_bond_site_symmetry_2
N1 H1 1_555 1_555
O1 P1 1_555 1_555
O2 C27 1_555 1_555
P1 C1 1_555 1_555
C1 C2 1_555 1_555
C2 C3 1_555 1_555
C3 C4 1_555 1_555
C4 P1 1_555 1_555
C5 C4 1_555 1_555
H2 C5 1_555 1_555
C6 C5 1_555 1_555
H3 C6 1_555 1_555
C7 C6 1_555 1_555
H4 C7 1_555 1_555
C8 C3 1_555 1_555
H5 C8 1_555 1_555
C9 P1 1_555 1_555
C10 C9 1_555 1_555
H6 C10 1_555 1_555
C11 C10 1_555 1_555
H7 C11 1_555 1_555
C12 C11 1_555 1_555
H8 C12 1_555 1_555
C13 C12 1_555 1_555
H9 C13 1_555 1_555
C14 C9 1_555 1_555
H10 C14 1_555 1_555
C15 C1 1_555 1_555
C16 N1 1_555 1_555
C17 C16 1_555 1_555
H11 C17 1_555 1_555
C18 C17 1_555 1_555
H12 C18 1_555 1_555
C19 C18 1_555 1_555
H13 C19 1_555 1_555
C20 C15 1_555 1_555
H14 C20 1_555 1_555
C21 C2 1_555 1_555
C22 C21 1_555 1_555
H15 C22 1_555 1_555
C23 C22 1_555 1_555
H16 C23 1_555 1_555
C24 C23 1_555 1_555
H17 C24 1_555 1_555
C25 C24 1_555 1_555
H18 C25 1_555 1_555
C26 C21 1_555 1_555
H19 C26 1_555 1_555
C27 N1 1_555 1_555
C28 C27 1_555 1_555
C29 C28 1_555 1_555
H20 C29 1_555 1_555
C30 C29 1_555 1_555
H21 C30 1_555 1_555
C31 C30 1_555 1_555
H22 C31 1_555 1_555
C32 C31 1_555 1_555
H23 C32 1_555 1_555
C33 C28 1_555 1_555
H24 C33 1_555 1_555
C7 C8 1_555 1_555
C13 C14 1_555 1_555
C15 C16 1_555 1_555
C19 C20 1_555 1_555
C25 C26 1_555 1_555
C32 C33 1_555 1_555

#END
