
#######################################################################
#
#                 Cambridge Crystallographic Data Centre
#                                CCDC 
#
#######################################################################
#
# If this CIF has been generated from an entry in the Cambridge 
# Structural Database, then it will include bibliographic, chemical, 
# crystal, experimental, refinement or atomic coordinate data resulting 
# from the CCDC's data processing and validation procedures.
#
#######################################################################

data_VECCAK
_chemical_formula_moiety         'C26 H16 Cl1 O1 P1,0.5(H2 O1)'
_chemical_name_systematic        
'6-chloro-9-phenyl-9H-9\l^5^-tribenzo[b,e,g]phosphindol-9-one hemihydrate'
_symmetry_cell_setting           tetragonal
_symmetry_space_group_name_H-M   'I 41/a'
_symmetry_Int_Tables_number      88
_space_group_name_Hall           '-I 4ad'
loop_
_symmetry_equiv_pos_site_id
_symmetry_equiv_pos_as_xyz
1 x,y,z
2 1/2-x,-y,1/2+z
3 3/4-y,1/4+x,1/4+z
4 3/4+y,3/4-x,3/4+z
5 1/2+x,1/2+y,1/2+z
6 -x,1/2-y,z
7 1/4-y,3/4+x,3/4+z
8 1/4+y,1/4-x,1/4+z
9 -x,-y,-z
10 1/2+x,y,1/2-z
11 1/4+y,3/4-x,3/4-z
12 1/4-y,1/4+x,1/4-z
13 1/2-x,1/2-y,1/2-z
14 x,1/2+y,-z
15 3/4+y,1/4-x,1/4-z
16 3/4-y,3/4+x,3/4-z
_cell_length_a                   14.084(6)
_cell_length_b                   14.084(6)
_cell_length_c                   39.70(3)
_cell_angle_alpha                90
_cell_angle_beta                 90
_cell_angle_gamma                90
_cell_volume                     7874.85
_exptl_crystal_colour            yellow
_exptl_crystal_description       block
_cell_formula_units_Z            16
loop_
_atom_site_label
_atom_site_type_symbol
_atom_site_fract_x
_atom_site_fract_y
_atom_site_fract_z
P1 P 0.22738(6) 0.38444(6) 0.05050(2)
Cl1 Cl 0.52130(8) 0.38063(8) -0.09673(3)
O1 O 0.16095(15) 0.32058(16) 0.03252(6)
C1 C 0.3518(2) 0.3794(2) 0.04018(8)
C2 C 0.3914(2) 0.38155(19) 0.00718(9)
C3 C 0.3338(3) 0.3860(2) -0.02192(9)
H1 H 0.2682 0.3895 -0.0196
C4 C 0.3730(3) 0.3854(2) -0.05359(10)
H2 H 0.3346 0.3884 -0.0726
C5 C 0.4711(3) 0.3801(2) -0.05664(9)
C6 C 0.5295(3) 0.3743(2) -0.02926(9)
H3 H 0.5948 0.3700 -0.0323
C7 C 0.4917(2) 0.3747(2) 0.00332(8)
C8 C 0.5513(2) 0.3730(2) 0.03342(9)
C9 C 0.6520(2) 0.3682(2) 0.03077(10)
H4 H 0.6798 0.3625 0.0096
C10 C 0.7083(3) 0.3719(3) 0.05872(12)
H5 H 0.7738 0.3663 0.0566
C11 C 0.6683(3) 0.3840(3) 0.09014(11)
H6 H 0.7071 0.3913 0.1089
C12 C 0.5719(3) 0.3854(2) 0.09372(9)
H7 H 0.5462 0.3921 0.1152
C13 C 0.5101(2) 0.3769(2) 0.06590(9)
C14 C 0.4073(2) 0.3742(2) 0.06887(8)
C15 C 0.3496(2) 0.3600(2) 0.10033(8)
C16 C 0.3779(3) 0.3362(3) 0.13280(10)
H8 H 0.4423 0.3330 0.1379
C17 C 0.3121(3) 0.3171(3) 0.15748(10)
H9 H 0.3326 0.3019 0.1791
C18 C 0.2170(3) 0.3201(3) 0.15076(10)
H10 H 0.1735 0.3069 0.1677
C19 C 0.1855(3) 0.3427(2) 0.11895(10)
H11 H 0.1208 0.3443 0.1143
C20 C 0.2508(2) 0.3628(2) 0.09399(8)
C21 C 0.1916(2) 0.5062(2) 0.04605(9)
C22 C 0.2282(3) 0.5773(3) 0.06610(9)
H12 H 0.2708 0.5623 0.0832
C23 C 0.2018(3) 0.6711(3) 0.06091(12)
H13 H 0.2272 0.7187 0.0744
C24 C 0.1384(4) 0.6940(3) 0.03591(14)
H14 H 0.1207 0.7569 0.0326
C25 C 0.1014(3) 0.6242(4) 0.01597(12)
H15 H 0.0583 0.6397 -0.0009
C26 C 0.1277(3) 0.5305(3) 0.02067(10)
H16 H 0.1026 0.4835 0.0068
O2 O 0.0000 0.2500 0.18443(10)
H17 H 0.0197 0.2051 0.1969
H17E H -0.0197 0.2949 0.1969
loop_
_geom_bond_atom_site_label_1
_geom_bond_atom_site_label_2
_geom_bond_site_symmetry_1
_geom_bond_site_symmetry_2
P1 O1 1_555 1_555
Cl1 C5 1_555 1_555
C1 P1 1_555 1_555
C2 C1 1_555 1_555
C3 C2 1_555 1_555
H1 C3 1_555 1_555
C4 C3 1_555 1_555
H2 C4 1_555 1_555
C5 C4 1_555 1_555
C6 C5 1_555 1_555
H3 C6 1_555 1_555
C7 C2 1_555 1_555
C8 C7 1_555 1_555
C9 C8 1_555 1_555
H4 C9 1_555 1_555
C10 C9 1_555 1_555
H5 C10 1_555 1_555
C11 C10 1_555 1_555
H6 C11 1_555 1_555
C12 C11 1_555 1_555
H7 C12 1_555 1_555
C13 C8 1_555 1_555
C14 C1 1_555 1_555
C15 C14 1_555 1_555
C16 C15 1_555 1_555
H8 C16 1_555 1_555
C17 C16 1_555 1_555
H9 C17 1_555 1_555
C18 C17 1_555 1_555
H10 C18 1_555 1_555
C19 C18 1_555 1_555
H11 C19 1_555 1_555
C20 P1 1_555 1_555
C21 P1 1_555 1_555
C22 C21 1_555 1_555
H12 C22 1_555 1_555
C23 C22 1_555 1_555
H13 C23 1_555 1_555
C24 C23 1_555 1_555
H14 C24 1_555 1_555
C25 C24 1_555 1_555
H15 C25 1_555 1_555
C26 C21 1_555 1_555
H16 C26 1_555 1_555
O2 H17 1_555 1_555
H17E O2 1_555 1_555
C6 C7 1_555 1_555
C12 C13 1_555 1_555
C13 C14 1_555 1_555
C15 C20 1_555 1_555
C19 C20 1_555 1_555
C25 C26 1_555 1_555

#END
