
#######################################################################
#
#                 Cambridge Crystallographic Data Centre
#                                CCDC 
#
#######################################################################
#
# If this CIF has been generated from an entry in the Cambridge 
# Structural Database, then it will include bibliographic, chemical, 
# crystal, experimental, refinement or atomic coordinate data resulting 
# from the CCDC's data processing and validation procedures.
#
#######################################################################

data_VECFER
_chemical_formula_moiety         'C30 H49 N1 O6 S1 Si1'
_chemical_name_systematic        
3'-(2-{[t-butyl(dimethyl)silyl]oxy}ethyl)-5'-(methoxymethoxy)-3a'-methyl-1'-[(4-methylphenyl)sulfonyl]octahydro-2H-spiro[cyclopentane-1,4'-indol]-2-one
_symmetry_cell_setting           triclinic
_symmetry_space_group_name_H-M   'P -1'
_symmetry_Int_Tables_number      2
_space_group_name_Hall           '-P 1'
loop_
_symmetry_equiv_pos_site_id
_symmetry_equiv_pos_as_xyz
1 x,y,z
2 -x,-y,-z
_cell_length_a                   12.6657(5)
_cell_length_b                   13.8437(7)
_cell_length_c                   19.3886(9)
_cell_angle_alpha                101.972(4)
_cell_angle_beta                 99.482(4)
_cell_angle_gamma                91.091(4)
_cell_volume                     3275.23
_exptl_crystal_colour            colorless
_exptl_crystal_description       block
_cell_formula_units_Z            4
loop_
_atom_site_label
_atom_site_type_symbol
_atom_site_fract_x
_atom_site_fract_y
_atom_site_fract_z
S1 S 0.69463(11) 1.27566(12) 0.25584(9)
Si1 Si 0.25207(16) 0.92376(17) 0.17631(11)
O1 O 0.7108(2) 1.1646(2) 0.4359(2)
O2 O 0.6744(2) 1.3377(2) 0.57218(18)
O3 O 0.6113(3) 1.4633(3) 0.6530(2)
O4 O 0.7655(3) 1.3595(3) 0.2895(2)
O5 O 0.7377(3) 1.1847(3) 0.2258(3)
C1 C 0.1797(8) 0.8318(7) 0.2175(5)
H1 H 0.149371 0.867486 0.256860
H2 H 0.230123 0.787335 0.234319
H3 H 0.123704 0.794728 0.181888
C2 C 0.1507(7) 1.0001(8) 0.1356(4)
H4 H 0.105669 0.959343 0.094957
H5 H 0.186422 1.052026 0.120692
H6 H 0.107698 1.028543 0.170283
N1 N 0.6240(3) 1.2507(3) 0.3127(2)
O6 O 0.3232(3) 1.0039(3) 0.24089(19)
C3 C 0.4936(3) 1.2636(3) 0.3897(2)
C4 C 0.5567(3) 1.3251(3) 0.3496(3)
H7 H 0.504933 1.345778 0.312744
C5 C 0.6169(4) 1.4171(3) 0.3967(3)
H8 H 0.662259 1.445527 0.369523
H9 H 0.565884 1.465476 0.411072
C6 C 0.6852(4) 1.3957(3) 0.4628(3)
H10 H 0.737787 1.348671 0.448997
H11 H 0.723207 1.456070 0.491262
C7 C 0.6149(3) 1.3539(3) 0.5061(3)
H12 H 0.561424 1.402014 0.517806
C8 C 0.5541(3) 1.2542(3) 0.4664(2)
C9 C 0.6385(3) 1.1755(3) 0.4695(3)
C10 C 0.6230(4) 1.1165(4) 0.5244(3)
H13 H 0.688930 1.118742 0.558358
H14 H 0.602950 1.048056 0.501371
C11 C 0.5346(4) 1.1620(4) 0.5627(3)
H15 H 0.564447 1.203270 0.608923
H16 H 0.486304 1.111007 0.569619
C12 C 0.4765(3) 1.2237(3) 0.5130(3)
H17 H 0.451211 1.282285 0.541085
H18 H 0.414887 1.185504 0.482476
C13 C 0.4702(4) 1.1657(3) 0.3326(3)
H19 H 0.412121 1.178662 0.296080
C14 C 0.5687(4) 1.1508(4) 0.2964(3)
H20 H 0.614707 1.104077 0.315719
H21 H 0.547913 1.126635 0.245146
C15 C 0.6996(4) 1.4226(4) 0.6267(3)
H22 H 0.749147 1.406172 0.665758
H23 H 0.735808 1.471895 0.608483
C16 C 0.5645(6) 1.4098(5) 0.6953(4)
H24 H 0.521994 1.354095 0.664965
H25 H 0.519618 1.451717 0.722460
H26 H 0.619742 1.387037 0.727281
C17 C 0.6085(5) 1.3112(5) 0.1867(3)
C18 C 0.5509(7) 1.2416(6) 0.1287(4)
H27 H 0.559270 1.174448 0.126067
C19 C 0.4818(7) 1.2726(9) 0.0754(4)
H28 H 0.443057 1.225802 0.037877
C20 C 0.4698(7) 1.3720(9) 0.0773(5)
C21 C 0.5279(7) 1.4366(6) 0.1320(4)
H29 H 0.522356 1.503794 0.133134
C22 C 0.5941(5) 1.4089(5) 0.1856(3)
H30 H 0.631073 1.457330 0.222739
C23 C 0.3925(7) 1.4006(9) 0.0168(5)
H31 H 0.322136 1.371948 0.014802
H32 H 0.416425 1.376453 -0.027842
H33 H 0.390233 1.471256 0.025149
C24 C 0.4330(4) 1.0724(3) 0.3542(3)
H34 H 0.488753 1.056171 0.390072
H35 H 0.369806 1.086153 0.376086
C25 C 0.4069(4) 0.9835(4) 0.2929(3)
H36 H 0.470096 0.967470 0.271465
H37 H 0.385331 0.926929 0.310681
C26 C 0.3256(7) 0.8538(8) 0.1119(5)
C27 C 0.3987(8) 0.9375(9) 0.0920(6)
H38 H 0.353408 0.983710 0.072744
H39 H 0.440336 0.906807 0.057172
H40 H 0.445926 0.971687 0.134383
C28 C 0.2445(9) 0.7942(8) 0.0458(5)
H41 H 0.187887 0.763237 0.062361
H42 H 0.281334 0.744448 0.018127
H43 H 0.214763 0.838531 0.016636
C29 C 0.3938(7) 0.7755(7) 0.1441(5)
H44 H 0.453283 0.808536 0.178764
H45 H 0.420013 0.731055 0.106461
H46 H 0.349959 0.738771 0.166731
C30 C 0.3870(3) 1.3152(4) 0.3996(3)
H47 H 0.336634 1.269636 0.409762
H48 H 0.357568 1.336049 0.356484
H49 H 0.401099 1.371812 0.438606
S2 S 0.67632(10) 0.75813(11) 0.26838(8)
Si2 Si 1.0420(3) 0.4560(2) 0.16670(13)
O7 O 0.7610(2) 0.6578(2) 0.45064(18)
O8 O 0.8717(2) 0.8347(2) 0.58317(17)
O9 O 0.9734(3) 0.9690(3) 0.6607(2)
O10 O 0.6131(3) 0.8299(3) 0.3051(2)
O11 O 0.6269(3) 0.6624(3) 0.2331(2)
C31 C 1.1208(12) 0.5379(9) 0.1237(5)
H50 H 1.090205 0.601302 0.127552
H51 H 1.118036 0.507652 0.074159
H52 H 1.194031 0.546161 0.147721
C32 C 0.8886(8) 0.4470(9) 0.1167(5)
H53 H 0.842030 0.457440 0.151616
H54 H 0.871977 0.382622 0.086112
H55 H 0.878587 0.496484 0.088464
N2 N 0.7785(3) 0.7396(3) 0.3238(2)
O12 O 1.0479(3) 0.5189(3) 0.24722(18)
C33 C 0.9513(3) 0.7647(3) 0.3998(2)
C34 C 0.9342(3) 0.7548(3) 0.4769(2)
C35 C 0.8930(3) 0.8526(3) 0.5161(2)
H56 H 0.950432 0.904545 0.525941
C36 C 0.7953(4) 0.8861(3) 0.4736(3)
H57 H 0.770055 0.944585 0.501891
H58 H 0.738344 0.834523 0.461712
C37 C 0.8235(4) 0.9094(3) 0.4056(3)
H59 H 0.760642 0.931326 0.378443
H60 H 0.878505 0.962722 0.417886
C38 C 0.8631(3) 0.8202(3) 0.3604(3)
H61 H 0.893379 0.842930 0.322797
C39 C 0.8523(3) 0.6725(3) 0.4819(2)
C40 C 0.9011(4) 0.6148(3) 0.5355(3)
H62 H 0.909938 0.547265 0.511708
H63 H 0.854983 0.613296 0.570622
C41 C 1.0095(4) 0.6654(3) 0.5720(3)
H64 H 1.062803 0.616926 0.577657
H65 H 1.004886 0.705230 0.618726
C42 C 1.0381(3) 0.7302(3) 0.5222(2)
H66 H 1.084203 0.695702 0.491052
H67 H 1.076316 0.790823 0.550105
C43 C 0.9466(3) 0.6681(3) 0.3427(2)
H68 H 0.980914 0.684759 0.304600
C44 C 0.8280(3) 0.6433(3) 0.3100(3)
H69 H 0.819466 0.615658 0.258990
H70 H 0.796517 0.596588 0.332816
C45 C 0.8728(4) 0.9209(4) 0.6376(3)
H71 H 0.823290 0.966228 0.619585
H72 H 0.847602 0.902898 0.678036
C46 C 1.0486(5) 0.9198(5) 0.7006(3)
H73 H 1.066526 0.860540 0.670204
H74 H 1.018562 0.902918 0.739183
H75 H 1.112041 0.962155 0.719640
C47 C 0.7250(4) 0.8122(4) 0.2041(3)
C48 C 0.7821(7) 0.7606(6) 0.1577(4)
H76 H 0.795111 0.694996 0.158773
C49 C 0.8217(8) 0.8042(7) 0.1086(4)
H77 H 0.861998 0.767485 0.077528
C50 C 0.8035(6) 0.8979(7) 0.1046(4)
C51 C 0.7469(7) 0.9500(5) 0.1520(4)
H78 H 0.733414 1.015484 0.150710
C52 C 0.7095(5) 0.9077(5) 0.2017(4)
H79 H 0.672641 0.945517 0.234445
C53 C 0.8481(9) 0.9463(8) 0.0502(5)
H80 H 0.795455 0.938925 0.007450
H81 H 0.911827 0.914890 0.038654
H82 H 0.865079 1.015320 0.070324
C54 C 1.0027(4) 0.5791(3) 0.3631(3)
H83 H 1.077059 0.598926 0.383318
H84 H 0.969661 0.558825 0.399935
C55 C 0.9988(4) 0.4919(4) 0.3016(3)
H85 H 1.035777 0.438193 0.318324
H86 H 0.924805 0.469137 0.282410
C56 C 1.0816(12) 0.3439(12) 0.1562(8)
C57 C 0.9897(13) 0.2757(9) 0.1708(7)
H87 H 0.996087 0.279655 0.221349
H88 H 0.996128 0.208498 0.147040
H89 H 0.921088 0.297535 0.152840
C58 C 1.0844(12) 0.3019(10) 0.0675(6)
H90 H 1.017731 0.313911 0.039855
H91 H 1.094772 0.232162 0.058408
H92 H 1.142217 0.335861 0.054358
C59 C 1.1950(10) 0.3505(10) 0.2018(7)
H93 H 1.235863 0.406042 0.195320
H94 H 1.230391 0.290884 0.186978
H95 H 1.189212 0.358542 0.251406
C60 C 1.0601(3) 0.8225(3) 0.4064(3)
H96 H 1.064277 0.881747 0.442960
H97 H 1.065392 0.839552 0.361557
H98 H 1.117750 0.781940 0.418913
loop_
_geom_bond_atom_site_label_1
_geom_bond_atom_site_label_2
_geom_bond_site_symmetry_1
_geom_bond_site_symmetry_2
S1 O4 1_555 1_555
Si1 C1 1_555 1_555
O1 C9 1_555 1_555
O2 C7 1_555 1_555
O3 C15 1_555 1_555
O5 S1 1_555 1_555
C1 H1 1_555 1_555
H2 C1 1_555 1_555
H3 C1 1_555 1_555
C2 Si1 1_555 1_555
H4 C2 1_555 1_555
H5 C2 1_555 1_555
H6 C2 1_555 1_555
N1 S1 1_555 1_555
O6 Si1 1_555 1_555
C3 C4 1_555 1_555
C4 N1 1_555 1_555
H7 C4 1_555 1_555
C5 C4 1_555 1_555
H8 C5 1_555 1_555
H9 C5 1_555 1_555
C6 C5 1_555 1_555
H10 C6 1_555 1_555
H11 C6 1_555 1_555
C7 C6 1_555 1_555
H12 C7 1_555 1_555
C8 C3 1_555 1_555
C9 C8 1_555 1_555
C10 C9 1_555 1_555
H13 C10 1_555 1_555
H14 C10 1_555 1_555
C11 C10 1_555 1_555
H15 C11 1_555 1_555
H16 C11 1_555 1_555
C12 C8 1_555 1_555
H17 C12 1_555 1_555
H18 C12 1_555 1_555
C13 C3 1_555 1_555
H19 C13 1_555 1_555
C14 N1 1_555 1_555
H20 C14 1_555 1_555
H21 C14 1_555 1_555
C15 O2 1_555 1_555
H22 C15 1_555 1_555
H23 C15 1_555 1_555
C16 O3 1_555 1_555
H24 C16 1_555 1_555
H25 C16 1_555 1_555
H26 C16 1_555 1_555
C17 S1 1_555 1_555
C18 C17 1_555 1_555
H27 C18 1_555 1_555
C19 C18 1_555 1_555
H28 C19 1_555 1_555
C20 C19 1_555 1_555
C21 C20 1_555 1_555
H29 C21 1_555 1_555
C22 C17 1_555 1_555
H30 C22 1_555 1_555
C23 C20 1_555 1_555
H31 C23 1_555 1_555
H32 C23 1_555 1_555
H33 C23 1_555 1_555
C24 C13 1_555 1_555
H34 C24 1_555 1_555
H35 C24 1_555 1_555
C25 O6 1_555 1_555
H36 C25 1_555 1_555
H37 C25 1_555 1_555
C26 Si1 1_555 1_555
C27 C26 1_555 1_555
H38 C27 1_555 1_555
H39 C27 1_555 1_555
H40 C27 1_555 1_555
C28 C26 1_555 1_555
H41 C28 1_555 1_555
H42 C28 1_555 1_555
H43 C28 1_555 1_555
C29 C26 1_555 1_555
H44 C29 1_555 1_555
H45 C29 1_555 1_555
H46 C29 1_555 1_555
C30 C3 1_555 1_555
H47 C30 1_555 1_555
H48 C30 1_555 1_555
H49 C30 1_555 1_555
S2 O10 1_555 1_555
Si2 C31 1_555 1_555
O7 C39 1_555 1_555
O8 C35 1_555 1_555
O9 C45 1_555 1_555
O11 S2 1_555 1_555
C31 H50 1_555 1_555
H51 C31 1_555 1_555
H52 C31 1_555 1_555
C32 Si2 1_555 1_555
H53 C32 1_555 1_555
H54 C32 1_555 1_555
H55 C32 1_555 1_555
N2 S2 1_555 1_555
O12 Si2 1_555 1_555
C33 C34 1_555 1_555
C34 C35 1_555 1_555
C35 H56 1_555 1_555
C36 C35 1_555 1_555
H57 C36 1_555 1_555
H58 C36 1_555 1_555
C37 C36 1_555 1_555
H59 C37 1_555 1_555
H60 C37 1_555 1_555
C38 N2 1_555 1_555
H61 C38 1_555 1_555
C39 C34 1_555 1_555
C40 C39 1_555 1_555
H62 C40 1_555 1_555
H63 C40 1_555 1_555
C41 C40 1_555 1_555
H64 C41 1_555 1_555
H65 C41 1_555 1_555
C42 C34 1_555 1_555
H66 C42 1_555 1_555
H67 C42 1_555 1_555
C43 C33 1_555 1_555
H68 C43 1_555 1_555
C44 N2 1_555 1_555
H69 C44 1_555 1_555
H70 C44 1_555 1_555
C45 O8 1_555 1_555
H71 C45 1_555 1_555
H72 C45 1_555 1_555
C46 O9 1_555 1_555
H73 C46 1_555 1_555
H74 C46 1_555 1_555
H75 C46 1_555 1_555
C47 S2 1_555 1_555
C48 C47 1_555 1_555
H76 C48 1_555 1_555
C49 C48 1_555 1_555
H77 C49 1_555 1_555
C50 C49 1_555 1_555
C51 C50 1_555 1_555
H78 C51 1_555 1_555
C52 C47 1_555 1_555
H79 C52 1_555 1_555
C53 C50 1_555 1_555
H80 C53 1_555 1_555
H81 C53 1_555 1_555
H82 C53 1_555 1_555
C54 C43 1_555 1_555
H83 C54 1_555 1_555
H84 C54 1_555 1_555
C55 O12 1_555 1_555
H85 C55 1_555 1_555
H86 C55 1_555 1_555
C56 Si2 1_555 1_555
C57 C56 1_555 1_555
H87 C57 1_555 1_555
H88 C57 1_555 1_555
H89 C57 1_555 1_555
C58 C56 1_555 1_555
H90 C58 1_555 1_555
H91 C58 1_555 1_555
H92 C58 1_555 1_555
C59 C56 1_555 1_555
H93 C59 1_555 1_555
H94 C59 1_555 1_555
H95 C59 1_555 1_555
C60 C33 1_555 1_555
H96 C60 1_555 1_555
H97 C60 1_555 1_555
H98 C60 1_555 1_555
C7 C8 1_555 1_555
C11 C12 1_555 1_555
C13 C14 1_555 1_555
C21 C22 1_555 1_555
C24 C25 1_555 1_555
C33 C38 1_555 1_555
C37 C38 1_555 1_555
C41 C42 1_555 1_555
C43 C44 1_555 1_555
C51 C52 1_555 1_555
C54 C55 1_555 1_555

#END
