
#######################################################################
#
#                 Cambridge Crystallographic Data Centre
#                                CCDC 
#
#######################################################################
#
# If this CIF has been generated from an entry in the Cambridge 
# Structural Database, then it will include bibliographic, chemical, 
# crystal, experimental, refinement or atomic coordinate data resulting 
# from the CCDC's data processing and validation procedures.
#
#######################################################################

data_VECHOB
_chemical_formula_moiety         'C14 H10 F2'
_chemical_name_systematic        (Z)-1,2-Difluoro-1,2-diphenylethylene
_symmetry_cell_setting           monoclinic
_symmetry_space_group_name_H-M   'P 21/c'
_symmetry_Int_Tables_number      14
_space_group_name_Hall           '-P 2ybc'
loop_
_symmetry_equiv_pos_site_id
_symmetry_equiv_pos_as_xyz
1 x,y,z
2 -x,1/2+y,1/2-z
3 -x,-y,-z
4 x,1/2-y,1/2+z
_cell_length_a                   5.746(3)
_cell_length_b                   17.267(5)
_cell_length_c                   7.261(3)
_cell_angle_alpha                90
_cell_angle_beta                 117.33(2)
_cell_angle_gamma                90
_cell_volume                     639.994
_exptl_crystal_colour            colorless
_exptl_crystal_description       prism
_cell_formula_units_Z            2
loop_
_atom_site_label
_atom_site_type_symbol
_atom_site_fract_x
_atom_site_fract_y
_atom_site_fract_z
C1 C 0.3798(8) 0.0878(2) 0.3075(7)
C2 C 0.1236(7) 0.0955(3) 0.1638(6)
H1 H -0.0009 0.0605 0.1615
C3 C 0.0455(7) 0.1578(2) 0.0251(5)
H2 H -0.1290 0.1630 -0.0731
C4 C 0.2309(7) 0.2100(2) 0.0266(6)
H3 H 0.1807 0.2511 -0.0664
C5 C 0.4924(7) 0.2008(2) 0.1689(5)
H4 H 0.6170 0.2352 0.1693
C6 C 0.5716(7) 0.1411(2) 0.3156(6)
H5 H 0.7467 0.1351 0.4116
C7 C 0.4343(9) 0.0348(3) 0.4865(8)
F1 F 0.3276(8) 0.0481(3) 0.6339(7)
C1B C 0.6202(8) -0.0878(2) 0.6925(7)
C2B C 0.8764(7) -0.0955(3) 0.8362(6)
H1B H 1.0009 -0.0605 0.8385
C3B C 0.9545(7) -0.1578(2) 0.9749(5)
H2B H 1.1290 -0.1630 1.0731
C4B C 0.7691(7) -0.2100(2) 0.9734(6)
H3B H 0.8193 -0.2511 1.0664
C5B C 0.5076(7) -0.2008(2) 0.8311(5)
H4B H 0.3830 -0.2352 0.8307
C6B C 0.4284(7) -0.1411(2) 0.6844(6)
H5B H 0.2533 -0.1351 0.5884
C7B C 0.5657(9) -0.0348(3) 0.5135(8)
F1B F 0.6724(8) -0.0481(3) 0.3661(7)
I1? I 0.33237(5) 0.067422(16) 0.71941(4)
C8? C 0.5049(15) 0.0080(5) 0.4061(12)
loop_
_geom_bond_atom_site_label_1
_geom_bond_atom_site_label_2
_geom_bond_site_symmetry_1
_geom_bond_site_symmetry_2
C1 C2 1_555 1_555
C2 H1 1_555 1_555
C3 C2 1_555 1_555
H2 C3 1_555 1_555
C4 C3 1_555 1_555
H3 C4 1_555 1_555
C5 C4 1_555 1_555
H4 C5 1_555 1_555
C6 C1 1_555 1_555
H5 C6 1_555 1_555
C7 C1 1_555 1_555
F1 C7 1_555 1_555
C1B C2B 1_555 1_555
C2B H1B 1_555 1_555
C3B C2B 1_555 1_555
H2B C3B 1_555 1_555
C4B C3B 1_555 1_555
H3B C4B 1_555 1_555
C5B C4B 1_555 1_555
H4B C5B 1_555 1_555
C6B C1B 1_555 1_555
H5B C6B 1_555 1_555
C7B C7 1_555 1_555
F1B C7B 1_555 1_555
C5 C6 1_555 1_555
C1B C7B 1_555 1_555
C5B C6B 1_555 1_555

#END
