
#######################################################################
#
#                 Cambridge Crystallographic Data Centre
#                                CCDC 
#
#######################################################################
#
# If this CIF has been generated from an entry in the Cambridge 
# Structural Database, then it will include bibliographic, chemical, 
# crystal, experimental, refinement or atomic coordinate data resulting 
# from the CCDC's data processing and validation procedures.
#
#######################################################################

data_VECJOF
_chemical_formula_moiety         'C24 H20 Br1 N1 O2'
_chemical_name_systematic        
(4-bromophenyl)[3-ethenyl-2-(4-methoxyphenyl)-2,3-dihydro-1H-indol-1-yl]methanone
_symmetry_cell_setting           orthorhombic
_symmetry_space_group_name_H-M   'P 21 21 21'
_symmetry_Int_Tables_number      19
_space_group_name_Hall           'P 2ac 2ab'
loop_
_symmetry_equiv_pos_site_id
_symmetry_equiv_pos_as_xyz
1 x,y,z
2 1/2-x,-y,1/2+z
3 -x,1/2+y,1/2-z
4 1/2+x,1/2-y,-z
_cell_length_a                   6.6297(15)
_cell_length_b                   15.443(4)
_cell_length_c                   20.287(5)
_cell_angle_alpha                90
_cell_angle_beta                 90
_cell_angle_gamma                90
_cell_volume                     2077.03
_exptl_crystal_colour            colorless
_cell_formula_units_Z            4
loop_
_atom_site_label
_atom_site_type_symbol
_atom_site_fract_x
_atom_site_fract_y
_atom_site_fract_z
Br1 Br 1.02232(5) -0.01096(2) 0.970669(15)
O1 O 0.0117(3) 0.33007(11) 0.94479(8)
C1 C 0.5570(4) 0.01081(14) 0.80007(11)
C2 C 0.8343(4) -0.00091(17) 0.90099(13)
N1 N 0.3459(4) 0.08231(12) 0.71664(10)
C3 C 0.5181(5) 0.04681(15) 0.86067(12)
H1 H 0.3968 0.0756 0.8677
C4 C 0.2517(4) 0.16669(17) 0.62994(13)
C5 C 0.6557(5) 0.04085(17) 0.91098(13)
H2 H 0.6272 0.0653 0.9518
C6 C 0.0053(4) 0.22588(15) 0.85536(12)
H3 H -0.1252 0.2082 0.8655
C7 C 0.0955(4) 0.29005(16) 0.89119(12)
C8 C 0.2877(4) 0.31652(16) 0.87456(13)
H4 H 0.3489 0.3611 0.8980
C9 C 0.3033(4) 0.21112(14) 0.78824(11)
C10 C 0.4221(4) 0.16930(13) 0.73356(11)
H5 H 0.5644 0.1655 0.7463
O2 O 0.3376(4) -0.06288(12) 0.72813(11)
C11 C 0.8784(4) -0.03640(17) 0.84065(15)
H6 H 1.0012 -0.0641 0.8338
C12 C 0.1086(4) 0.18735(17) 0.80399(13)
H7 H 0.0453 0.1444 0.7794
C13 C 0.4047(4) 0.00705(17) 0.74606(13)
C14 C 0.3892(4) 0.27743(15) 0.82359(12)
H8 H 0.5183 0.2962 0.8128
C15 C 0.7406(4) -0.03080(17) 0.79064(14)
H9 H 0.7701 -0.0551 0.7498
C16 C 0.4028(4) 0.22008(16) 0.66745(12)
H10 H 0.3474 0.2779 0.6759
C17 C 0.0199(6) 0.1249(2) 0.54614(15)
H11 H -0.0491 0.1368 0.5073
C18 C 0.2239(4) 0.08731(17) 0.65960(12)
C19 C -0.0075(5) 0.0466(2) 0.57701(14)
H12 H -0.0970 0.0066 0.5592
C20 C 0.0946(5) 0.02635(19) 0.63347(14)
H13 H 0.0774 -0.0272 0.6537
C21 C 0.1489(5) 0.1859(2) 0.57241(14)
H14 H 0.1665 0.2392 0.5518
C22 C -0.1836(5) 0.3059(3) 0.96325(17)
H15 H -0.1878 0.2446 0.9709
H16 H -0.2762 0.3206 0.9286
H17 H -0.2208 0.3360 1.0029
C23 C 0.5987(5) 0.22774(19) 0.63206(13)
H18 H 0.6654 0.1767 0.6212
C24 C 0.6828(6) 0.2995(2) 0.61532(16)
H19 H 0.6206 0.3519 0.6253
H20 H 0.8057 0.2990 0.5932
loop_
_geom_bond_atom_site_label_1
_geom_bond_atom_site_label_2
_geom_bond_site_symmetry_1
_geom_bond_site_symmetry_2
Br1 C2 1_555 1_555
O1 C7 1_555 1_555
C1 C3 1_555 1_555
C2 C5 1_555 1_555
N1 C10 1_555 1_555
C3 H1 1_555 1_555
C4 C16 1_555 1_555
C5 C3 1_555 1_555
H2 C5 1_555 1_555
C6 H3 1_555 1_555
C7 C6 1_555 1_555
C8 C7 1_555 1_555
H4 C8 1_555 1_555
C9 C10 1_555 1_555
C10 H5 1_555 1_555
O2 C13 1_555 1_555
C11 C2 1_555 1_555
H6 C11 1_555 1_555
C12 C6 1_555 1_555
H7 C12 1_555 1_555
C13 C1 1_555 1_555
C14 C8 1_555 1_555
H8 C14 1_555 1_555
C15 C1 1_555 1_555
H9 C15 1_555 1_555
C16 C10 1_555 1_555
H10 C16 1_555 1_555
C17 H11 1_555 1_555
C18 N1 1_555 1_555
C19 C17 1_555 1_555
H12 C19 1_555 1_555
C20 C18 1_555 1_555
H13 C20 1_555 1_555
C21 C4 1_555 1_555
H14 C21 1_555 1_555
C22 O1 1_555 1_555
H15 C22 1_555 1_555
H16 C22 1_555 1_555
H17 C22 1_555 1_555
C23 C16 1_555 1_555
H18 C23 1_555 1_555
C24 C23 1_555 1_555
H19 C24 1_555 1_555
H20 C24 1_555 1_555
N1 C13 1_555 1_555
C4 C18 1_555 1_555
C9 C12 1_555 1_555
C9 C14 1_555 1_555
C11 C15 1_555 1_555
C17 C21 1_555 1_555
C19 C20 1_555 1_555

#END
