
#######################################################################
#
#                 Cambridge Crystallographic Data Centre
#                                CCDC 
#
#######################################################################
#
# If this CIF has been generated from an entry in the Cambridge 
# Structural Database, then it will include bibliographic, chemical, 
# crystal, experimental, refinement or atomic coordinate data resulting 
# from the CCDC's data processing and validation procedures.
#
#######################################################################

data_VECLAS
_chemical_formula_moiety         'C10 H14,C8 H18 Si2'
_chemical_name_systematic        
'5-Methylene-1,2,3,4-tetramethylcyclopenta-2,4-diene 1,2-bis(trimethylsilyl)acetylene'
_symmetry_cell_setting           orthorhombic
_symmetry_space_group_name_H-M   'C m c m'
_symmetry_Int_Tables_number      63
_space_group_name_Hall           '-C 2n 2'
loop_
_symmetry_equiv_pos_site_id
_symmetry_equiv_pos_as_xyz
1 x,y,z
2 -x,-y,1/2+z
3 x,-y,-z
4 -x,y,1/2-z
5 1/2+x,1/2+y,z
6 1/2-x,1/2-y,1/2+z
7 1/2+x,1/2-y,-z
8 1/2-x,1/2+y,1/2-z
9 -x,-y,-z
10 x,y,1/2-z
11 -x,y,z
12 x,-y,1/2+z
13 1/2-x,1/2-y,-z
14 1/2+x,1/2+y,1/2-z
15 1/2-x,1/2+y,z
16 1/2+x,1/2-y,1/2+z
_cell_length_a                   13.6654(8)
_cell_length_b                   12.8647(7)
_cell_length_c                   11.4138(5)
_cell_angle_alpha                90
_cell_angle_beta                 90
_cell_angle_gamma                90
_cell_volume                     2006.56
_exptl_crystal_colour            yellow
_exptl_crystal_description       prism
_cell_formula_units_Z            4
loop_
_atom_site_label
_atom_site_type_symbol
_atom_site_fract_x
_atom_site_fract_y
_atom_site_fract_z
C1 C 0.54393(10) 0.18235(13) 0.2500
C2 C 0.71978(14) 0.32231(17) 0.2500
C3 C 0.72330(11) 0.11769(15) 0.11646(14)
Si1 Si 0.67918(3) 0.18497(4) 0.2500
H1 H 0.787(2) 0.3272(19) 0.2500
H2 H 0.6953(13) 0.3580(15) 0.1803(15)
H3 H 0.6962(13) 0.1514(14) 0.0484(15)
H4 H 0.7019(14) 0.0478(17) 0.1140(16)
H5 H 0.7884(16) 0.1193(15) 0.1151(17)
C1C C 0.45607(10) 0.18235(13) 0.2500
C2C C 0.28022(14) 0.32231(17) 0.2500
C3C C 0.27670(11) 0.11769(15) 0.38354(14)
C3J C 0.27670(11) 0.11769(15) 0.11646(14)
C3I C 0.72330(11) 0.11769(15) 0.38354(14)
Si1C Si 0.32082(3) 0.18497(4) 0.2500
H1C H 0.213(2) 0.3272(19) 0.2500
H2C H 0.3047(13) 0.3580(15) 0.3197(15)
H2J H 0.3047(13) 0.3580(15) 0.1803(15)
H2I H 0.6953(13) 0.3580(15) 0.3197(15)
H3C H 0.3038(13) 0.1514(14) 0.4516(15)
H3J H 0.3038(13) 0.1514(14) 0.0484(15)
H3I H 0.6962(13) 0.1514(14) 0.4516(15)
H4C H 0.2981(14) 0.0478(17) 0.3860(16)
H4J H 0.2981(14) 0.0478(17) 0.1140(16)
H4I H 0.7019(14) 0.0478(17) 0.3860(16)
H5C H 0.2116(16) 0.1193(15) 0.3849(17)
H5J H 0.2116(16) 0.1193(15) 0.1151(17)
H5I H 0.7884(16) 0.1193(15) 0.3849(17)
C4 C 0.0000 0.30334(14) 0.18503(15)
C5 C 0.0000 0.19978(13) 0.14880(14)
C6 C 0.0000 0.1355(2) 0.2500
C7 C 0.0000 0.39379(19) 0.1147(2)
C8 C 0.0000 0.16110(19) 0.02540(16)
C9 C 0.0000 0.0212(2) 0.2500
C4C C 0.0000 0.30334(14) 0.31497(15)
C5C C 0.0000 0.19978(13) 0.35120(14)
C7C C 0.0000 0.39379(19) 0.3853(2)
C8C C 0.0000 0.16110(19) 0.47460(16)
H6? H 0.0000 0.379(2) 0.029(3)
H7? H 0.0000 0.459(4) 0.166(4)
H8? H 0.057(2) 0.436(3) 0.125(3)
H9? H 0.063(2) 0.112(2) 0.008(3)
H10? H 0.0000 0.219(4) -0.031(5)
H11? H 0.059(3) 0.193(3) -0.017(4)
H12? H 0.0000 0.085(5) 0.017(5)
H13? H 0.0000 -0.013(3) 0.177(4)
H14? H -0.061(2) 0.000(2) 0.199(3)
loop_
_geom_bond_atom_site_label_1
_geom_bond_atom_site_label_2
_geom_bond_site_symmetry_1
_geom_bond_site_symmetry_2
C1 Si1 1_555 1_555
C2 Si1 1_555 1_555
C3 Si1 1_555 1_555
C4 C5 1_555 1_555
C5 C6 1_555 1_555
C6 C9 1_555 1_555
C7 C4 1_555 1_555
C8 C5 1_555 1_555
Si1 C3I 1_555 1_555
H1 C2 1_555 1_555
H2 C2 1_555 1_555
H3 C3 1_555 1_555
H4 C3 1_555 1_555
H5 C3 1_555 1_555
C1C C1 1_555 1_555
C2C Si1C 1_555 1_555
C3C Si1C 1_555 1_555
C3J Si1C 1_555 1_555
C3I H3I 1_555 1_555
C4C C4 1_555 1_555
C5C C6 1_555 1_555
C7C C4C 1_555 1_555
C8C C5C 1_555 1_555
Si1C C1C 1_555 1_555
H1C C2C 1_555 1_555
H2C C2C 1_555 1_555
H2J C2C 1_555 1_555
H2I C2 1_555 1_555
H3C C3C 1_555 1_555
H3J C3J 1_555 1_555
H4C C3C 1_555 1_555
H4J C3J 1_555 1_555
H4I C3I 1_555 1_555
H5C C3C 1_555 1_555
H5J C3J 1_555 1_555
H5I C3I 1_555 1_555
C4C C5C 1_555 1_555

#END
