
#######################################################################
#
#                 Cambridge Crystallographic Data Centre
#                                CCDC 
#
#######################################################################
#
# If this CIF has been generated from an entry in the Cambridge 
# Structural Database, then it will include bibliographic, chemical, 
# crystal, experimental, refinement or atomic coordinate data resulting 
# from the CCDC's data processing and validation procedures.
#
#######################################################################

data_VECQUR
_chemical_formula_moiety         'C21 H27 N3 O2,C1 H2 Cl2'
_chemical_name_systematic        
"6-Butyl-2-isopropyl-2,3,6,7,12,12a-hexahydropyrazino[1',2':1,6]pyrido[3,4-b]indole-1,4-dione dichloromethane solvate"
_symmetry_cell_setting           orthorhombic
_symmetry_space_group_name_H-M   'P 21 21 21'
_symmetry_Int_Tables_number      19
_space_group_name_Hall           'P 2ac 2ab'
loop_
_symmetry_equiv_pos_site_id
_symmetry_equiv_pos_as_xyz
1 x,y,z
2 1/2-x,-y,1/2+z
3 -x,1/2+y,1/2-z
4 1/2+x,1/2-y,-z
_cell_length_a                   8.8353(2)
_cell_length_b                   14.8932(3)
_cell_length_c                   18.6279(4)
_cell_angle_alpha                90
_cell_angle_beta                 90
_cell_angle_gamma                90
_cell_volume                     2451.17
_cell_formula_units_Z            4
loop_
_atom_site_label
_atom_site_type_symbol
_atom_site_fract_x
_atom_site_fract_y
_atom_site_fract_z
O1 O 0.5553(4) 0.8244(2) 0.4364(2)
O2 O 0.4378(3) 0.8233(2) 0.1619(1)
N1 N 0.6152(3) 0.8310(2) 0.2503(2)
N2 N 0.3940(3) 0.7812(2) 0.3476(2)
N3 N 0.0513(4) 0.6648(2) 0.4122(2)
C1 C 0.5309(4) 0.8030(1) 0.3730(2)
C2 C 0.6572(5) 0.7999(4) 0.3204(2)
C3 C 0.4805(4) 0.8039(2) 0.2232(2)
C4 C 0.3853(4) 0.7466(2) 0.2722(2)
C5 C 0.2217(4) 0.7433(3) 0.2440(2)
C6 C 0.1224(4) 0.7004(2) 0.3001(2)
C7 C -0.0030(4) 0.6392(2) 0.2962(2)
C8 C -0.0841(4) 0.5995(3) 0.2400(2)
C9 C -0.2029(5) 0.5415(3) 0.2583(3)
C10 C -0.2377(5) 0.5214(3) 0.3285(3)
C11 C -0.1584(5) 0.5586(3) 0.3858(3)
C12 C -0.0424(4) 0.6189(2) 0.3675(2)
C13 C 0.1509(4) 0.7139(3) 0.3701(2)
C14 C 0.2656(5) 0.7783(3) 0.3984(2)
C15 C 0.1976(5) 0.8720(3) 0.4057(2)
C16 C 0.0697(5) 0.8776(3) 0.4602(3)
C17 C 0.0170(7) 0.9748(4) 0.4730(3)
C18 C -0.1133(10) 0.9755(6) 0.5282(5)
C19 C 0.7111(4) 0.8947(3) 0.2099(3)
C20 C 0.8751(5) 0.8683(4) 0.2116(3)
C21 C 0.6881(7) 0.9872(3) 0.2409(5)
C22 C 0.0407(9) 0.8179(6) -0.0414(4)
Cl1 Cl -0.0636(8) 0.9060(4) -0.0410(5)
Cl2 Cl 0.2176(13) 0.8191(11) -0.0801(7)
Cl3? Cl 0.1166(8) 0.8059(4) 0.0439(2)
Cl4? Cl 0.1617(14) 0.8471(8) -0.1102(5)
loop_
_geom_bond_atom_site_label_1
_geom_bond_atom_site_label_2
_geom_bond_site_symmetry_1
_geom_bond_site_symmetry_2
O1 C1 1_555 1_555
O2 C3 1_555 1_555
N1 C2 1_555 1_555
N2 C1 1_555 1_555
N3 C12 1_555 1_555
C1 C2 1_555 1_555
C3 N1 1_555 1_555
C4 N2 1_555 1_555
C5 C4 1_555 1_555
C6 C5 1_555 1_555
C7 C6 1_555 1_555
C8 C7 1_555 1_555
C9 C8 1_555 1_555
C10 C9 1_555 1_555
C11 C10 1_555 1_555
C12 C7 1_555 1_555
C13 N3 1_555 1_555
C14 N2 1_555 1_555
C15 C14 1_555 1_555
C16 C15 1_555 1_555
C17 C16 1_555 1_555
C18 C17 1_555 1_555
C19 N1 1_555 1_555
C20 C19 1_555 1_555
C21 C19 1_555 1_555
C22 Cl1 1_555 1_555
Cl2 C22 1_555 1_555
C3 C4 1_555 1_555
C6 C13 1_555 1_555
C11 C12 1_555 1_555
C13 C14 1_555 1_555

#END
