
#######################################################################
#
#                 Cambridge Crystallographic Data Centre
#                                CCDC 
#
#######################################################################
#
# If this CIF has been generated from an entry in the Cambridge 
# Structural Database, then it will include bibliographic, chemical, 
# crystal, experimental, refinement or atomic coordinate data resulting 
# from the CCDC's data processing and validation procedures.
#
#######################################################################

data_VECRUQ
_chemical_formula_moiety         'C19 H20 O3'
_chemical_name_systematic        
4,5-Dibenzyl-4,5-dimethyl-1,3-dioxacyclopentan-2-one
_symmetry_cell_setting           monoclinic
_symmetry_space_group_name_H-M   'C 2/c'
_symmetry_Int_Tables_number      15
_space_group_name_Hall           '-C 2yn'
loop_
_symmetry_equiv_pos_site_id
_symmetry_equiv_pos_as_xyz
1 x,y,z
2 1/2+x,1/2+y,z
3 -x,y,1/2-z
4 1/2-x,1/2+y,1/2-z
5 -x,-y,-z
6 1/2-x,1/2-y,-z
7 x,-y,1/2+z
8 1/2+x,1/2-y,1/2+z
_cell_length_a                   9.721(3)
_cell_length_b                   16.361(5)
_cell_length_c                   10.606(3)
_cell_angle_alpha                90
_cell_angle_beta                 107.354(24)
_cell_angle_gamma                90
_cell_volume                     1610.05
_exptl_crystal_colour            white
_chemical_melting_point          95.5-96.5deg.C
_cell_formula_units_Z            4
loop_
_atom_site_label
_atom_site_type_symbol
_atom_site_fract_x
_atom_site_fract_y
_atom_site_fract_z
O1 O 0.89090(16) 0.49787(10) 0.17739(16)
O2 O 1.00000 0.61671(17) 0.25000
C1 C 1.00000 0.54389(24) 0.25000
C2 C 0.91685(21) 0.41336(13) 0.22453(21)
C3 C 0.85428(24) 0.35512(17) 0.1108(3)
C4 C 0.69186(23) 0.35296(15) 0.05836(23)
C5 C 0.6188(3) 0.40544(22) -0.0379(3)
C6 C 0.4692(4) 0.4042(3) -0.0866(4)
C7 C 0.3922(3) 0.34838(23) -0.0387(3)
C8 C 0.4629(3) 0.29520(20) 0.0557(3)
C9 C 0.6124(3) 0.29670(16) 0.1053(3)
C10 C 0.8454(3) 0.40421(20) 0.3340(3)
H1 H 0.8914(24) 0.2992(14) 0.1428(22)
H2 H 0.8920(24) 0.3726(14) 0.0369(23)
H3 H 0.671(3) 0.4543(20) -0.067(3)
H4 H 0.411(4) 0.4449(24) -0.154(4)
H5 H 0.283(3) 0.3459(17) -0.084(3)
H6 H 0.414(3) 0.2469(19) 0.092(3)
H7 H 0.665(3) 0.2537(16) 0.1688(25)
H8 H 0.741(3) 0.4176(14) 0.2963(23)
H9 H 0.855(3) 0.3402(16) 0.3683(24)
H10 H 0.892(3) 0.4415(15) 0.4092(24)
O1B O 1.10910(16) 0.49787(10) 0.32261(16)
C2B C 1.08315(21) 0.41336(13) 0.27547(21)
C3B C 1.14572(24) 0.35512(17) 0.3892(3)
C4B C 1.30814(23) 0.35296(15) 0.44164(23)
C5B C 1.3812(3) 0.40544(22) 0.5379(3)
C6B C 1.5308(4) 0.4042(3) 0.5866(4)
C7B C 1.6078(3) 0.34838(23) 0.5387(3)
C8B C 1.5371(3) 0.29520(20) 0.4443(3)
C9B C 1.3876(3) 0.29670(16) 0.3947(3)
H7B H 1.335(3) 0.2537(16) 0.3312(25)
H6B H 1.586(3) 0.2469(19) 0.408(3)
H5B H 1.717(3) 0.3459(17) 0.584(3)
H4B H 1.589(4) 0.4449(24) 0.654(4)
H3B H 1.329(3) 0.4543(20) 0.567(3)
H1B H 1.1086(24) 0.2992(14) 0.3572(22)
H2B H 1.1080(24) 0.3726(14) 0.4631(23)
C10B C 1.1546(3) 0.40421(20) 0.1660(3)
H8B H 1.259(3) 0.4176(14) 0.2037(23)
H9B H 1.145(3) 0.3402(16) 0.1317(24)
H10B H 1.108(3) 0.4415(15) 0.0908(24)
loop_
_geom_bond_atom_site_label_1
_geom_bond_atom_site_label_2
_geom_bond_site_symmetry_1
_geom_bond_site_symmetry_2
O1 C1 1_555 1_555
O2 C1 1_555 1_555
C1 O1B 1_555 1_555
C2 O1 1_555 1_555
C3 C2 1_555 1_555
C4 C3 1_555 1_555
C5 C4 1_555 1_555
C6 C5 1_555 1_555
C7 C6 1_555 1_555
C8 C7 1_555 1_555
C9 C4 1_555 1_555
C10 C2 1_555 1_555
H1 C3 1_555 1_555
H2 C3 1_555 1_555
H3 C5 1_555 1_555
H4 C6 1_555 1_555
H5 C7 1_555 1_555
H6 C8 1_555 1_555
H7 C9 1_555 1_555
H8 C10 1_555 1_555
H9 C10 1_555 1_555
H10 C10 1_555 1_555
O1B C2B 1_555 1_555
C2B C2 1_555 1_555
C3B C2B 1_555 1_555
C4B C3B 1_555 1_555
C5B C4B 1_555 1_555
C6B C5B 1_555 1_555
C7B C6B 1_555 1_555
C8B C7B 1_555 1_555
C9B C4B 1_555 1_555
H7B C9B 1_555 1_555
H6B C8B 1_555 1_555
H5B C7B 1_555 1_555
H4B C6B 1_555 1_555
H3B C5B 1_555 1_555
H1B C3B 1_555 1_555
H2B C3B 1_555 1_555
C10B C2B 1_555 1_555
H8B C10B 1_555 1_555
H9B C10B 1_555 1_555
H10B C10B 1_555 1_555
C8 C9 1_555 1_555
C8B C9B 1_555 1_555

#END
