
#######################################################################
#
#                 Cambridge Crystallographic Data Centre
#                                CCDC 
#
#######################################################################
#
# If this CIF has been generated from an entry in the Cambridge 
# Structural Database, then it will include bibliographic, chemical, 
# crystal, experimental, refinement or atomic coordinate data resulting 
# from the CCDC's data processing and validation procedures.
#
#######################################################################

data_VECTOM
_chemical_formula_moiety         'C21 H36 O3'
_chemical_name_systematic        
"cis-4,4'-Di-t-butyl-1,1'-bicyclohexyl-1,1'-diol cyclic carbonate"
_symmetry_cell_setting           monoclinic
_symmetry_space_group_name_H-M   'P 21/c'
_symmetry_Int_Tables_number      14
_space_group_name_Hall           '-P 2ybc'
loop_
_symmetry_equiv_pos_site_id
_symmetry_equiv_pos_as_xyz
1 x,y,z
2 -x,1/2+y,1/2-z
3 -x,-y,-z
4 x,1/2-y,1/2+z
_cell_length_a                   25.195(6)
_cell_length_b                   6.6689(19)
_cell_length_c                   12.224(3)
_cell_angle_alpha                90
_cell_angle_beta                 91.595(24)
_cell_angle_gamma                90
_cell_volume                     2053.12
_exptl_crystal_colour            white
_chemical_melting_point          171-172deg.C
_cell_formula_units_Z            4
loop_
_atom_site_label
_atom_site_type_symbol
_atom_site_fract_x
_atom_site_fract_y
_atom_site_fract_z
O1 O 0.7459(3) 0.5454(10) 0.7267(4)
O2 O 0.70473(21) 0.4019(9) 0.8682(4)
O3 O 0.79173(21) 0.3450(9) 0.8477(4)
C1 C 0.7490(4) 0.4314(13) 0.8089(6)
C2 C 0.7237(3) 0.2955(13) 0.9718(6)
C3 C 0.7328(3) 0.4639(14) 1.0550(6)
C4 C 0.6828(3) 0.5791(14) 1.0813(6)
C5 C 0.6398(3) 0.4403(14) 1.1214(6)
C6 C 0.6298(4) 0.2776(14) 1.0362(7)
C7 C 0.6797(3) 0.1659(14) 1.0059(6)
C8 C 0.7749(3) 0.2006(13) 0.9303(6)
C9 C 0.7675(4) 0.0028(16) 0.8738(7)
C10 C 0.8169(3) -0.0720(14) 0.8192(7)
C11 C 0.8624(4) -0.0971(15) 0.9014(7)
C12 C 0.8715(4) 0.1005(16) 0.9640(7)
C13 C 0.8208(3) 0.1825(15) 1.0154(6)
C14 C 0.5903(4) 0.5539(15) 1.1610(7)
C15 C 0.5622(5) 0.6689(18) 1.0674(8)
C16 C 0.6053(4) 0.7040(21) 1.2517(8)
C17 C 0.5504(5) 0.4056(20) 1.2058(9)
C18 C 0.9142(4) -0.1801(17) 0.8535(8)
C19 C 0.9417(5) -0.0403(23) 0.7831(11)
C20 C 0.9025(5) -0.3693(21) 0.7837(12)
C21 C 0.9522(6) -0.248(3) 0.9468(12)
H1 H 0.752 0.388 1.109
H2 H 0.761 0.542 1.026
H3 H 0.669 0.664 1.027
H4 H 0.690 0.695 1.126
H5 H 0.655 0.352 1.175
H6 H 0.606 0.173 1.057
H7 H 0.614 0.353 0.979
H8 H 0.675 0.050 0.962
H9 H 0.692 0.079 1.062
H10 H 0.747 -0.077 0.921
H11 H 0.735 0.024 0.834
H12 H 0.836 0.028 0.781
H13 H 0.811 -0.204 0.792
H14 H 0.853 -0.222 0.935
H15 H 0.881 0.214 0.921
H16 H 0.901 0.089 1.013
H17 H 0.812 0.066 1.053
H18 H 0.833 0.317 1.025
H19 H 0.536 0.760 1.096
H20 H 0.577 0.801 1.058
H21 H 0.548 0.562 1.027
H22 H 0.575 0.789 1.261
H23 H 0.632 0.656 1.300
H24 H 0.623 0.819 1.219
H25 H 0.517 0.446 1.235
H26 H 0.538 0.280 1.175
H27 H 0.563 0.300 1.251
H28 H 0.977 -0.060 0.754
H29 H 0.913 0.030 0.748
H30 H 0.959 0.072 0.818
H31 H 0.936 -0.410 0.760
H32 H 0.873 -0.423 0.825
H33 H 0.869 -0.358 0.745
H34 H 0.983 -0.312 0.917
H35 H 0.968 -0.132 0.973
H36 H 0.947 -0.393 0.948
loop_
_geom_bond_atom_site_label_1
_geom_bond_atom_site_label_2
_geom_bond_site_symmetry_1
_geom_bond_site_symmetry_2
O1 C1 1_555 1_555
O2 C1 1_555 1_555
O3 C1 1_555 1_555
C2 O2 1_555 1_555
C3 C2 1_555 1_555
C4 C3 1_555 1_555
C5 C4 1_555 1_555
C6 C5 1_555 1_555
C7 C2 1_555 1_555
C8 O3 1_555 1_555
C9 C8 1_555 1_555
C10 C9 1_555 1_555
C11 C10 1_555 1_555
C12 C11 1_555 1_555
C13 C8 1_555 1_555
C14 C5 1_555 1_555
C15 C14 1_555 1_555
C16 C14 1_555 1_555
C17 C14 1_555 1_555
C18 C11 1_555 1_555
C19 C18 1_555 1_555
C20 C18 1_555 1_555
C21 C18 1_555 1_555
H1 C3 1_555 1_555
H2 C3 1_555 1_555
H3 C4 1_555 1_555
H4 C4 1_555 1_555
H5 C5 1_555 1_555
H6 C6 1_555 1_555
H7 C6 1_555 1_555
H8 C7 1_555 1_555
H9 C7 1_555 1_555
H10 C9 1_555 1_555
H11 C9 1_555 1_555
H12 C10 1_555 1_555
H13 C10 1_555 1_555
H14 C11 1_555 1_555
H15 C12 1_555 1_555
H16 C12 1_555 1_555
H17 C13 1_555 1_555
H18 C13 1_555 1_555
H19 C15 1_555 1_555
H20 C15 1_555 1_555
H21 C15 1_555 1_555
H22 C16 1_555 1_555
H23 C16 1_555 1_555
H24 C16 1_555 1_555
H25 C17 1_555 1_555
H26 C17 1_555 1_555
H27 C17 1_555 1_555
H28 C19 1_555 1_555
H29 C19 1_555 1_555
H30 C19 1_555 1_555
H31 C20 1_555 1_555
H32 C20 1_555 1_555
H33 C20 1_555 1_555
H34 C21 1_555 1_555
H35 C21 1_555 1_555
H36 C21 1_555 1_555
C2 C8 1_555 1_555
C6 C7 1_555 1_555
C12 C13 1_555 1_555

#END
