
#######################################################################
#
#                 Cambridge Crystallographic Data Centre
#                                CCDC 
#
#######################################################################
#
# If this CIF has been generated from an entry in the Cambridge 
# Structural Database, then it will include bibliographic, chemical, 
# crystal, experimental, refinement or atomic coordinate data resulting 
# from the CCDC's data processing and validation procedures.
#
#######################################################################

data_VECVII
_chemical_formula_moiety         'C21 H36 O3'
_chemical_name_systematic        
"trans-4,4'-Di-t-butyl-1,1'-bicyclohexyl-1,1'-diol cyclic carbonate"
_symmetry_cell_setting           monoclinic
_symmetry_space_group_name_H-M   'P 21/c'
_symmetry_Int_Tables_number      14
_space_group_name_Hall           '-P 2ybc'
loop_
_symmetry_equiv_pos_site_id
_symmetry_equiv_pos_as_xyz
1 x,y,z
2 -x,1/2+y,1/2-z
3 -x,-y,-z
4 x,1/2-y,1/2+z
_cell_length_a                   9.878(3)
_cell_length_b                   7.975(4)
_cell_length_c                   25.940(7)
_cell_angle_alpha                90
_cell_angle_beta                 96.258(23)
_cell_angle_gamma                90
_cell_volume                     2031.3
_exptl_crystal_colour            white
_chemical_melting_point          175-176deg.C
_cell_formula_units_Z            4
loop_
_atom_site_label
_atom_site_type_symbol
_atom_site_fract_x
_atom_site_fract_y
_atom_site_fract_z
O1 O 0.7272(3) 0.7152(3) 0.20157(12)
O2 O 0.70070(22) 0.4374(3) 0.18987(9)
O3 O 0.79806(23) 0.5342(3) 0.26488(10)
C1 C 0.7411(4) 0.5745(5) 0.21724(18)
C2 C 0.7569(3) 0.2881(4) 0.21815(13)
C3 C 0.8910(3) 0.2464(4) 0.19710(14)
C4 C 0.8739(3) 0.2040(4) 0.13957(14)
C5 C 0.7757(3) 0.0578(4) 0.12713(13)
C6 C 0.6407(3) 0.1037(4) 0.14721(13)
C7 C 0.6561(3) 0.1467(4) 0.20474(13)
C8 C 0.7733(3) 0.3547(4) 0.27432(14)
C9 C 0.8953(3) 0.2967(4) 0.31066(14)
C10 C 0.8712(3) 0.1274(4) 0.33556(13)
C11 C 0.7497(3) 0.1334(4) 0.36755(13)
C12 C 0.6246(3) 0.1840(4) 0.33068(13)
C13 C 0.6456(3) 0.3489(4) 0.30262(13)
C14 C 0.7623(4) 0.0005(5) 0.07024(14)
C15 C 0.7165(5) 0.1398(7) 0.03243(16)
C16 C 0.8989(4) -0.0624(7) 0.05628(15)
C17 C 0.6621(5) -0.1427(6) 0.06161(16)
C18 C 0.7312(4) -0.0244(5) 0.40022(14)
C19 C 0.7167(4) -0.1828(5) 0.36694(15)
C20 C 0.8544(4) -0.0438(5) 0.44074(14)
C21 C 0.6051(4) -0.0063(5) 0.42900(14)
H1 H 0.934 0.151 0.216
H2 H 0.953 0.339 0.203
H3 H 0.960 0.179 0.128
H4 H 0.837 0.301 0.121
H5 H 0.813 -0.036 0.149
H6 H 0.603 0.199 0.128
H7 H 0.578 0.012 0.140
H8 H 0.685 0.049 0.224
H9 H 0.568 0.179 0.215
H10 H 0.975 0.294 0.293
H11 H 0.913 0.379 0.339
H12 H 0.854 0.046 0.308
H13 H 0.953 0.092 0.357
H14 H 0.767 0.226 0.392
H15 H 0.546 0.192 0.349
H16 H 0.608 0.097 0.305
H17 H 0.566 0.369 0.278
H18 H 0.648 0.438 0.328
H19 H 0.708 0.107 -0.003
H20 H 0.630 0.188 0.040
H21 H 0.781 0.235 0.036
H22 H 0.896 -0.103 0.022
H23 H 0.970 0.018 0.062
H24 H 0.930 -0.161 0.079
H25 H 0.652 -0.182 0.026
H26 H 0.693 -0.241 0.083
H27 H 0.573 -0.115 0.071
H28 H 0.705 -0.280 0.388
H29 H 0.639 -0.175 0.341
H30 H 0.796 -0.200 0.349
H31 H 0.847 -0.141 0.462
H32 H 0.938 -0.051 0.425
H33 H 0.862 0.052 0.464
H34 H 0.591 -0.103 0.450
H35 H 0.615 0.089 0.453
H36 H 0.524 0.014 0.406
loop_
_geom_bond_atom_site_label_1
_geom_bond_atom_site_label_2
_geom_bond_site_symmetry_1
_geom_bond_site_symmetry_2
O1 C1 1_555 1_555
O2 C1 1_555 1_555
O3 C1 1_555 1_555
C2 O2 1_555 1_555
C3 C2 1_555 1_555
C4 C3 1_555 1_555
C5 C4 1_555 1_555
C6 C5 1_555 1_555
C7 C2 1_555 1_555
C8 O3 1_555 1_555
C9 C8 1_555 1_555
C10 C9 1_555 1_555
C11 C10 1_555 1_555
C12 C11 1_555 1_555
C13 C8 1_555 1_555
C14 C5 1_555 1_555
C15 C14 1_555 1_555
C16 C14 1_555 1_555
C17 C14 1_555 1_555
C18 C11 1_555 1_555
C19 C18 1_555 1_555
C20 C18 1_555 1_555
C21 C18 1_555 1_555
H1 C3 1_555 1_555
H2 C3 1_555 1_555
H3 C4 1_555 1_555
H4 C4 1_555 1_555
H5 C5 1_555 1_555
H6 C6 1_555 1_555
H7 C6 1_555 1_555
H8 C7 1_555 1_555
H9 C7 1_555 1_555
H10 C9 1_555 1_555
H11 C9 1_555 1_555
H12 C10 1_555 1_555
H13 C10 1_555 1_555
H14 C11 1_555 1_555
H15 C12 1_555 1_555
H16 C12 1_555 1_555
H17 C13 1_555 1_555
H18 C13 1_555 1_555
H19 C15 1_555 1_555
H20 C15 1_555 1_555
H21 C15 1_555 1_555
H22 C16 1_555 1_555
H23 C16 1_555 1_555
H24 C16 1_555 1_555
H25 C17 1_555 1_555
H26 C17 1_555 1_555
H27 C17 1_555 1_555
H28 C19 1_555 1_555
H29 C19 1_555 1_555
H30 C19 1_555 1_555
H31 C20 1_555 1_555
H32 C20 1_555 1_555
H33 C20 1_555 1_555
H34 C21 1_555 1_555
H35 C21 1_555 1_555
H36 C21 1_555 1_555
C2 C8 1_555 1_555
C6 C7 1_555 1_555
C12 C13 1_555 1_555

#END
