
#######################################################################
#
#                 Cambridge Crystallographic Data Centre
#                                CCDC 
#
#######################################################################
#
# If this CIF has been generated from an entry in the Cambridge 
# Structural Database, then it will include bibliographic, chemical, 
# crystal, experimental, refinement or atomic coordinate data resulting 
# from the CCDC's data processing and validation procedures.
#
#######################################################################

data_VECXEI
_chemical_formula_moiety         'C13 H10 N2 O2'
_chemical_name_systematic        
4-(1H-Indol-3-ylmethylene)-3-methyl-1,2-oxazol-5(4H)-one
_symmetry_cell_setting           orthorhombic
_symmetry_space_group_name_H-M   'C m c a'
_symmetry_Int_Tables_number      64
_space_group_name_Hall           '-C 2ac 2'
loop_
_symmetry_equiv_pos_site_id
_symmetry_equiv_pos_as_xyz
1 x,y,z
2 -x,1/2-y,1/2+z
3 x,-y,-z
4 -x,1/2+y,1/2-z
5 1/2+x,1/2+y,z
6 1/2-x,-y,1/2+z
7 1/2+x,1/2-y,-z
8 1/2-x,y,1/2-z
9 -x,-y,-z
10 x,1/2+y,1/2-z
11 -x,y,z
12 x,1/2-y,1/2+z
13 1/2-x,1/2-y,-z
14 1/2+x,y,1/2-z
15 1/2-x,1/2+y,z
16 1/2+x,-y,1/2+z
_cell_length_a                   6.6348(15)
_cell_length_b                   19.189(4)
_cell_length_c                   18.074(4)
_cell_angle_alpha                90
_cell_angle_beta                 90
_cell_angle_gamma                90
_cell_volume                     2301.09
_exptl_crystal_colour            orange
_exptl_crystal_description       needle
_chemical_melting_point          239-241deg.C
_cell_formula_units_Z            8
loop_
_atom_site_label
_atom_site_type_symbol
_atom_site_fract_x
_atom_site_fract_y
_atom_site_fract_z
O1 O 0.0000 0.30507(7) 0.13959(9)
O2 O 0.0000 0.29223(7) 0.01739(8)
N1 N 0.0000 0.18340(8) 0.33005(8)
H1 H 0.0000 0.2112 0.3673
N2 N 0.0000 0.23607(10) -0.03458(8)
C1 C 0.0000 0.11127(10) 0.33454(9)
C2 C 0.0000 0.06869(13) 0.39696(12)
H2 H 0.0000 0.0869 0.4446
C3 C 0.0000 -0.00148(15) 0.38413(15)
H3 H 0.0000 -0.0319 0.4242
C4 C 0.0000 -0.02892(12) 0.31303(16)
H4 H 0.0000 -0.0769 0.3068
C5 C 0.0000 0.01334(9) 0.25173(13)
H5 H 0.0000 -0.0056 0.2044
C6 C 0.0000 0.08536(8) 0.26237(9)
C7 C 0.0000 0.14490(8) 0.21317(9)
C8 C 0.0000 0.20312(9) 0.25933(9)
H6 H 0.0000 0.2491 0.2432
C9 C 0.0000 0.14076(8) 0.13531(9)
H7 H 0.0000 0.0954 0.1172
C10 C 0.0000 0.19076(9) 0.08138(9)
C11 C 0.0000 0.26548(10) 0.08795(10)
C12 C 0.0000 0.17882(10) 0.00318(10)
C13 C 0.0000 0.11101(13) -0.03635(11)
H8 H -0.1332 0.0915 -0.0355
H8J H 0.1332 0.0915 -0.0355
H9? H 0.0919 0.0796 -0.0124
H10? H 0.0413 0.1180 -0.0867
loop_
_geom_bond_atom_site_label_1
_geom_bond_atom_site_label_2
_geom_bond_site_symmetry_1
_geom_bond_site_symmetry_2
O1 C11 1_555 1_555
O2 N2 1_555 1_555
N1 H1 1_555 1_555
N2 C12 1_555 1_555
C1 N1 1_555 1_555
C2 C1 1_555 1_555
H2 C2 1_555 1_555
C3 C2 1_555 1_555
H3 C3 1_555 1_555
C4 C3 1_555 1_555
H4 C4 1_555 1_555
C5 C4 1_555 1_555
H5 C5 1_555 1_555
C6 C1 1_555 1_555
C7 C6 1_555 1_555
C8 N1 1_555 1_555
H6 C8 1_555 1_555
C9 C7 1_555 1_555
H7 C9 1_555 1_555
C10 C9 1_555 1_555
C11 O2 1_555 1_555
C12 C10 1_555 1_555
C13 C12 1_555 1_555
H8 C13 1_555 1_555
H8J C13 1_555 1_555
C5 C6 1_555 1_555
C7 C8 1_555 1_555
C10 C11 1_555 1_555

#END
