
#######################################################################
#
#                 Cambridge Crystallographic Data Centre
#                                CCDC 
#
#######################################################################
#
# If this CIF has been generated from an entry in the Cambridge 
# Structural Database, then it will include bibliographic, chemical, 
# crystal, experimental, refinement or atomic coordinate data resulting 
# from the CCDC's data processing and validation procedures.
#
#######################################################################

data_VECZUA
_chemical_formula_moiety         'C36 H60 Mg1 N4 O1 Si2'
_chemical_name_systematic        
"bis(N-Cyclohexyl-N'-trimethylsilylbenzamidinato)-(diethyl ether)-magnesium"
_symmetry_cell_setting           monoclinic
_symmetry_space_group_name_H-M   'C 2/c'
_symmetry_Int_Tables_number      15
_space_group_name_Hall           '-C 2yn'
loop_
_symmetry_equiv_pos_site_id
_symmetry_equiv_pos_as_xyz
1 x,y,z
2 -x,y,1/2-z
3 1/2+x,1/2+y,z
4 1/2-x,1/2+y,1/2-z
5 -x,-y,-z
6 x,-y,1/2+z
7 1/2-x,1/2-y,-z
8 1/2+x,1/2-y,1/2+z
_cell_length_a                   19.456(17)
_cell_length_b                   9.444(8)
_cell_length_c                   21.882(20)
_cell_angle_alpha                90
_cell_angle_beta                 93.237(17)
_cell_angle_gamma                90
_cell_volume                     4014.24
_exptl_crystal_colour            colorless
_exptl_crystal_description       block
_cell_formula_units_Z            4
loop_
_atom_site_label
_atom_site_type_symbol
_atom_site_fract_x
_atom_site_fract_y
_atom_site_fract_z
Mg1 Mg 0.0000 0.21991(18) 0.2500
N1 N 0.04906(15) 0.2456(3) 0.34025(13)
N2 N 0.09096(14) 0.3407(3) 0.25511(13)
Si1 Si 0.04375(6) 0.18662(13) 0.41415(5)
C1 C 0.09399(17) 0.3347(4) 0.31541(16)
C2 C 0.14410(19) 0.4224(4) 0.35452(16)
C3 C 0.2132(2) 0.3869(5) 0.3618(2)
H1 H 0.2295 0.3081 0.3408
C4 C 0.2587(2) 0.4646(6) 0.3993(2)
H2 H 0.3052 0.4376 0.4039
C5 C 0.2360(3) 0.5804(6) 0.4296(2)
H3 H 0.2670 0.6340 0.4546
C6 C 0.1680(3) 0.6188(6) 0.4234(3)
H4 H 0.1524 0.6980 0.4447
C7 C 0.1215(2) 0.5397(5) 0.3854(2)
H5 H 0.0750 0.5668 0.3809
C8 C 0.1251(3) 0.1129(7) 0.4479(2)
H6 H 0.1416 0.0399 0.4212
H7 H 0.1173 0.0724 0.4876
H8 H 0.1592 0.1877 0.4526
C9 C 0.0137(4) 0.3180(7) 0.4695(2)
H9 H 0.0476 0.3930 0.4750
H10 H 0.0077 0.2720 0.5085
H11 H -0.0298 0.3579 0.4541
C10 C -0.0244(3) 0.0499(7) 0.4105(2)
H12 H -0.0633 0.0832 0.3848
H13 H -0.0390 0.0314 0.4514
H14 H -0.0066 -0.0365 0.3935
C11 C 0.13174(18) 0.4393(4) 0.22028(17)
H15 H 0.1593 0.5000 0.2493
C12 C 0.1803(2) 0.3592(5) 0.1805(2)
H16 H 0.1537 0.2915 0.1548
H17 H 0.2133 0.3055 0.2068
C13 C 0.2199(2) 0.4596(5) 0.1392(2)
H18 H 0.2507 0.5201 0.1648
H19 H 0.2482 0.4036 0.1126
C14 C 0.1703(2) 0.5521(5) 0.1000(2)
H20 H 0.1966 0.6194 0.0765
H21 H 0.1433 0.4924 0.0710
C15 C 0.1225(2) 0.6320(5) 0.1395(2)
H22 H 0.0894 0.6857 0.1132
H23 H 0.1492 0.6997 0.1651
C16 C 0.0837(2) 0.5328(4) 0.18028(19)
H24 H 0.0530 0.4725 0.1545
H25 H 0.0552 0.5892 0.2066
C17 C 0.0485(5) -0.1153(9) 0.2668(6)
H26 H 0.0416 -0.1984 0.2403
H27 H 0.0464 -0.1434 0.3098
C18 C 0.1138(5) -0.0364(11) 0.2549(5)
H28 H 0.1117 -0.0030 0.2129
H29 H 0.1529 -0.0993 0.2616
H30 H 0.1188 0.0437 0.2825
O1 O 0.0000 -0.0001(4) 0.2500
N1A N -0.04906(15) 0.2456(3) 0.15975(13)
N2A N -0.09096(14) 0.3407(3) 0.24489(13)
Si1A Si -0.04375(6) 0.18662(13) 0.08585(5)
C1A C -0.09399(17) 0.3347(4) 0.18459(16)
C2A C -0.14410(19) 0.4224(4) 0.14548(16)
C3A C -0.2132(2) 0.3869(5) 0.1382(2)
H1A H -0.2295 0.3081 0.1592
C4A C -0.2587(2) 0.4646(6) 0.1007(2)
H2A H -0.3052 0.4376 0.0961
C5A C -0.2360(3) 0.5804(6) 0.0704(2)
H3A H -0.2670 0.6340 0.0454
C6A C -0.1680(3) 0.6188(6) 0.0766(3)
H4A H -0.1524 0.6980 0.0553
C7A C -0.1215(2) 0.5397(5) 0.1146(2)
H5A H -0.0750 0.5668 0.1191
C8A C -0.1251(3) 0.1129(7) 0.0521(2)
H6A H -0.1416 0.0399 0.0788
H7A H -0.1173 0.0724 0.0124
H8A H -0.1592 0.1877 0.0474
C9A C -0.0137(4) 0.3180(7) 0.0305(2)
H9A H -0.0476 0.3930 0.0250
H10A H -0.0077 0.2720 -0.0085
H11A H 0.0298 0.3579 0.0459
C10A C 0.0244(3) 0.0499(7) 0.0895(2)
H12A H 0.0633 0.0832 0.1152
H13A H 0.0390 0.0314 0.0486
H14A H 0.0066 -0.0365 0.1065
C11A C -0.13174(18) 0.4393(4) 0.27972(17)
H15A H -0.1593 0.5000 0.2507
C12A C -0.1803(2) 0.3592(5) 0.3195(2)
H16A H -0.1537 0.2915 0.3452
H17A H -0.2133 0.3055 0.2932
C13A C -0.2199(2) 0.4596(5) 0.3608(2)
H18A H -0.2507 0.5201 0.3352
H19A H -0.2482 0.4036 0.3874
C14A C -0.1703(2) 0.5521(5) 0.4000(2)
H20A H -0.1966 0.6194 0.4235
H21A H -0.1433 0.4924 0.4290
C15A C -0.1225(2) 0.6320(5) 0.3605(2)
H22A H -0.0894 0.6857 0.3868
H23A H -0.1492 0.6997 0.3349
C16A C -0.0837(2) 0.5328(4) 0.31972(19)
H24A H -0.0530 0.4725 0.3455
H25A H -0.0552 0.5892 0.2934
C17A C -0.0485(5) -0.1153(9) 0.2332(6)
H26A H -0.0416 -0.1984 0.2597
H27A H -0.0464 -0.1434 0.1902
C18A C -0.1138(5) -0.0364(11) 0.2451(5)
H28A H -0.1117 -0.0030 0.2871
H29A H -0.1529 -0.0993 0.2384
H30A H -0.1188 0.0437 0.2175
C19? C 0.0748(5) -0.0562(17) 0.2471(7)
H31? H 0.0774 -0.1066 0.2082
H32? H 0.1050 0.0265 0.2453
C20? C 0.1060(8) -0.1538(16) 0.2974(7)
H33? H 0.1096 -0.1029 0.3360
H34? H 0.1513 -0.1842 0.2867
H35? H 0.0766 -0.2359 0.3014
loop_
_geom_bond_atom_site_label_1
_geom_bond_atom_site_label_2
_geom_bond_site_symmetry_1
_geom_bond_site_symmetry_2
Mg1 N1 1_555 1_555
N1 Si1 1_555 1_555
N2 Mg1 1_555 1_555
Si1 C8 1_555 1_555
C1 N1 1_555 1_555
C2 C1 1_555 1_555
C3 C2 1_555 1_555
H1 C3 1_555 1_555
C4 C3 1_555 1_555
H2 C4 1_555 1_555
C5 C4 1_555 1_555
H3 C5 1_555 1_555
C6 C5 1_555 1_555
H4 C6 1_555 1_555
C7 C2 1_555 1_555
H5 C7 1_555 1_555
C8 H6 1_555 1_555
H7 C8 1_555 1_555
H8 C8 1_555 1_555
C9 Si1 1_555 1_555
H9 C9 1_555 1_555
H10 C9 1_555 1_555
H11 C9 1_555 1_555
C10 Si1 1_555 1_555
H12 C10 1_555 1_555
H13 C10 1_555 1_555
H14 C10 1_555 1_555
C11 N2 1_555 1_555
H15 C11 1_555 1_555
C12 C11 1_555 1_555
H16 C12 1_555 1_555
H17 C12 1_555 1_555
C13 C12 1_555 1_555
H18 C13 1_555 1_555
H19 C13 1_555 1_555
C14 C13 1_555 1_555
H20 C14 1_555 1_555
H21 C14 1_555 1_555
C15 C14 1_555 1_555
H22 C15 1_555 1_555
H23 C15 1_555 1_555
C16 C11 1_555 1_555
H24 C16 1_555 1_555
H25 C16 1_555 1_555
C17 H26 1_555 1_555
H27 C17 1_555 1_555
C18 C17 1_555 1_555
H28 C18 1_555 1_555
H29 C18 1_555 1_555
H30 C18 1_555 1_555
O1 Mg1 1_555 1_555
N1A Mg1 1_555 1_555
N2A Mg1 1_555 1_555
Si1A N1A 1_555 1_555
C1A N1A 1_555 1_555
C2A C1A 1_555 1_555
C3A C2A 1_555 1_555
H1A C3A 1_555 1_555
C4A C3A 1_555 1_555
H2A C4A 1_555 1_555
C5A C4A 1_555 1_555
H3A C5A 1_555 1_555
C6A C5A 1_555 1_555
H4A C6A 1_555 1_555
C7A C2A 1_555 1_555
H5A C7A 1_555 1_555
C8A Si1A 1_555 1_555
H6A C8A 1_555 1_555
H7A C8A 1_555 1_555
H8A C8A 1_555 1_555
C9A Si1A 1_555 1_555
H9A C9A 1_555 1_555
H10A C9A 1_555 1_555
H11A C9A 1_555 1_555
C10A Si1A 1_555 1_555
H12A C10A 1_555 1_555
H13A C10A 1_555 1_555
H14A C10A 1_555 1_555
C11A N2A 1_555 1_555
H15A C11A 1_555 1_555
C12A C11A 1_555 1_555
H16A C12A 1_555 1_555
H17A C12A 1_555 1_555
C13A C12A 1_555 1_555
H18A C13A 1_555 1_555
H19A C13A 1_555 1_555
C14A C13A 1_555 1_555
H20A C14A 1_555 1_555
H21A C14A 1_555 1_555
C15A C14A 1_555 1_555
H22A C15A 1_555 1_555
H23A C15A 1_555 1_555
C16A C11A 1_555 1_555
H24A C16A 1_555 1_555
H25A C16A 1_555 1_555
C17A O1 1_555 1_555
H26A C17A 1_555 1_555
H27A C17A 1_555 1_555
C18A C17A 1_555 1_555
H28A C18A 1_555 1_555
H29A C18A 1_555 1_555
H30A C18A 1_555 1_555
N2 C1 1_555 1_555
C6 C7 1_555 1_555
C15 C16 1_555 1_555
C17 O1 1_555 1_555
N2A C1A 1_555 1_555
C6A C7A 1_555 1_555
C15A C16A 1_555 1_555

#END
