
#######################################################################
#
#                 Cambridge Crystallographic Data Centre
#                                CCDC 
#
#######################################################################
#
# If this CIF has been generated from an entry in the Cambridge 
# Structural Database, then it will include bibliographic, chemical, 
# crystal, experimental, refinement or atomic coordinate data resulting 
# from the CCDC's data processing and validation procedures.
#
#######################################################################

data_VEDBAJ
_chemical_formula_moiety         'C22 H41 Li1 N4 Si1'
_chemical_name_systematic        
(N-Cyclohexyl-N'-trimethylsilylbenzamidinato)-(N,N,N',N'-tetramethylethylenediamine)-lithium
_symmetry_cell_setting           orthorhombic
_symmetry_space_group_name_H-M   'P 21 21 21'
_symmetry_Int_Tables_number      19
_space_group_name_Hall           'P 2ac 2ab'
loop_
_symmetry_equiv_pos_site_id
_symmetry_equiv_pos_as_xyz
1 x,y,z
2 1/2-x,-y,1/2+z
3 -x,1/2+y,1/2-z
4 1/2+x,1/2-y,-z
_cell_length_a                   10.240(3)
_cell_length_b                   12.316(4)
_cell_length_c                   20.617(6)
_cell_angle_alpha                90
_cell_angle_beta                 90
_cell_angle_gamma                90
_cell_volume                     2600.13
_exptl_crystal_colour            colorless
_exptl_crystal_description       block
_cell_formula_units_Z            4
loop_
_atom_site_label
_atom_site_type_symbol
_atom_site_fract_x
_atom_site_fract_y
_atom_site_fract_z
Li1 Li 0.3065(4) 0.4996(5) 0.9004(2)
N1 N 0.2923(2) 0.4922(3) 0.80493(10)
N2 N 0.4851(2) 0.4960(2) 0.85958(10)
N3 N 0.2509(3) 0.6380(2) 0.95352(14)
N4 N 0.2045(4) 0.4096(3) 0.97049(16)
Si1 Si 0.64833(7) 0.49413(8) 0.87529(4)
C1 C 0.2138(3) 0.4981(3) 0.74573(13)
H1 H 0.2728 0.5065 0.7080
C2 C 0.1378(5) 0.3925(3) 0.7386(2)
H2 H 0.0816 0.3824 0.7766
H3 H 0.1990 0.3315 0.7368
C3 C 0.0538(5) 0.3932(5) 0.6772(2)
H4 H 0.1105 0.3968 0.6390
H5 H 0.0035 0.3257 0.6748
C4 C -0.0371(4) 0.4872(5) 0.67674(19)
H6 H -0.1014 0.4782 0.7115
H7 H -0.0844 0.4886 0.6354
C5 C 0.0333(5) 0.5941(5) 0.6858(2)
H8 H -0.0309 0.6528 0.6896
H9 H 0.0876 0.6088 0.6477
C6 C 0.1202(4) 0.5921(3) 0.74725(18)
H10 H 0.1695 0.6602 0.7501
H11 H 0.0648 0.5865 0.7858
C7 C 0.4191(2) 0.5050(3) 0.80354(12)
C8 C 0.4904(3) 0.5341(2) 0.74209(13)
C9 C 0.5110(4) 0.6431(3) 0.72657(16)
H12 H 0.4784 0.6974 0.7542
C10 C 0.5785(4) 0.6726(3) 0.67122(18)
H13 H 0.5911 0.7464 0.6616
C11 C 0.6273(3) 0.5944(3) 0.63024(16)
H14 H 0.6744 0.6142 0.5930
C12 C 0.6060(3) 0.4867(3) 0.64456(15)
H15 H 0.6377 0.4326 0.6165
C13 C 0.5389(3) 0.4574(3) 0.69965(15)
H16 H 0.5257 0.3834 0.7086
C14 C 0.7426(4) 0.6183(4) 0.8512(2)
H17 H 0.7515 0.6204 0.8044
H18 H 0.8285 0.6162 0.8710
H19 H 0.6964 0.6826 0.8658
C15 C 0.7357(4) 0.3755(4) 0.8387(2)
H20 H 0.6920 0.3088 0.8512
H21 H 0.8252 0.3741 0.8540
H22 H 0.7350 0.3821 0.7918
C16 C 0.6658(4) 0.4815(3) 0.96557(16)
H23 H 0.6268 0.5442 0.9864
H24 H 0.7577 0.4777 0.9768
H25 H 0.6221 0.4161 0.9802
C17 C 0.1743(9) 0.4904(5) 1.0199(4)
H26 H 0.0882 0.4719 1.0374
H27 H 0.2372 0.4800 1.0552
C18 C 0.1722(8) 0.5976(4) 1.0066(3)
H28 H 0.1991 0.6363 1.0459
H29 H 0.0814 0.6180 0.9979
C19 C 0.3648(5) 0.6952(4) 0.9787(3)
H30 H 0.4171 0.7219 0.9428
H31 H 0.4167 0.6459 1.0048
H32 H 0.3365 0.7559 1.0052
C20 C 0.1747(5) 0.7132(4) 0.9138(2)
H33 H 0.0952 0.6777 0.8995
H34 H 0.2257 0.7347 0.8763
H35 H 0.1528 0.7769 0.9392
C21 C 0.2936(8) 0.3343(5) 1.0039(3)
H36 H 0.3674 0.3743 1.0211
H37 H 0.3245 0.2800 0.9734
H38 H 0.2476 0.2988 1.0391
C22 C 0.1007(6) 0.3472(7) 0.9418(4)
H39 H 0.0620 0.3005 0.9744
H40 H 0.1355 0.3031 0.9069
H41 H 0.0347 0.3959 0.9247
loop_
_geom_bond_atom_site_label_1
_geom_bond_atom_site_label_2
_geom_bond_site_symmetry_1
_geom_bond_site_symmetry_2
Li1 N1 1_555 1_555
N1 C1 1_555 1_555
N2 Li1 1_555 1_555
N3 Li1 1_555 1_555
N4 Li1 1_555 1_555
Si1 N2 1_555 1_555
C1 H1 1_555 1_555
C2 C1 1_555 1_555
H2 C2 1_555 1_555
H3 C2 1_555 1_555
C3 C2 1_555 1_555
H4 C3 1_555 1_555
H5 C3 1_555 1_555
C4 C3 1_555 1_555
H6 C4 1_555 1_555
H7 C4 1_555 1_555
C5 C4 1_555 1_555
H8 C5 1_555 1_555
H9 C5 1_555 1_555
C6 C1 1_555 1_555
H10 C6 1_555 1_555
H11 C6 1_555 1_555
C7 N1 1_555 1_555
C8 C7 1_555 1_555
C9 C8 1_555 1_555
H12 C9 1_555 1_555
C10 C9 1_555 1_555
H13 C10 1_555 1_555
C11 C10 1_555 1_555
H14 C11 1_555 1_555
C12 C11 1_555 1_555
H15 C12 1_555 1_555
C13 C8 1_555 1_555
H16 C13 1_555 1_555
C14 Si1 1_555 1_555
H17 C14 1_555 1_555
H18 C14 1_555 1_555
H19 C14 1_555 1_555
C15 Si1 1_555 1_555
H20 C15 1_555 1_555
H21 C15 1_555 1_555
H22 C15 1_555 1_555
C16 Si1 1_555 1_555
H23 C16 1_555 1_555
H24 C16 1_555 1_555
H25 C16 1_555 1_555
C17 N4 1_555 1_555
H26 C17 1_555 1_555
H27 C17 1_555 1_555
C18 N3 1_555 1_555
H28 C18 1_555 1_555
H29 C18 1_555 1_555
C19 N3 1_555 1_555
H30 C19 1_555 1_555
H31 C19 1_555 1_555
H32 C19 1_555 1_555
C20 N3 1_555 1_555
H33 C20 1_555 1_555
H34 C20 1_555 1_555
H35 C20 1_555 1_555
C21 N4 1_555 1_555
H36 C21 1_555 1_555
H37 C21 1_555 1_555
H38 C21 1_555 1_555
C22 N4 1_555 1_555
H39 C22 1_555 1_555
H40 C22 1_555 1_555
H41 C22 1_555 1_555
N2 C7 1_555 1_555
C5 C6 1_555 1_555
C12 C13 1_555 1_555
C17 C18 1_555 1_555

#END
