
#######################################################################
#
#                 Cambridge Crystallographic Data Centre
#                                CCDC 
#
#######################################################################
#
# If this CIF has been generated from an entry in the Cambridge 
# Structural Database, then it will include bibliographic, chemical, 
# crystal, experimental, refinement or atomic coordinate data resulting 
# from the CCDC's data processing and validation procedures.
#
#######################################################################

data_VEDFAO
_chemical_formula_moiety         'C28 H40 N2 O7 S1'
_chemical_name_systematic        
't-butyl 3-{1-[(t-butylsulfinyl)amino]-2-(2,2-dimethyl-4-oxo-2H,4H-1,3-dioxin-6-yl)butyl}-6-methoxy-1H-indole-1-carboxylate'
_symmetry_cell_setting           orthorhombic
_symmetry_space_group_name_H-M   'P 21 21 21'
_symmetry_Int_Tables_number      19
_space_group_name_Hall           'P 2ac 2ab'
loop_
_symmetry_equiv_pos_site_id
_symmetry_equiv_pos_as_xyz
1 x,y,z
2 1/2+x,1/2-y,-z
3 -x,1/2+y,1/2-z
4 1/2-x,-y,1/2+z
_cell_length_a                   9.9329(15)
_cell_length_b                   12.1853(18)
_cell_length_c                   24.392(4)
_cell_angle_alpha                90
_cell_angle_beta                 90
_cell_angle_gamma                90
_cell_volume                     2952.29
_exptl_crystal_colour            colorless
_exptl_crystal_description       prism
_cell_formula_units_Z            4
loop_
_atom_site_label
_atom_site_type_symbol
_atom_site_fract_x
_atom_site_fract_y
_atom_site_fract_z
S1 S 0.14102(7) 0.55131(6) 0.77656(3)
O1 O -0.28061(18) 0.53562(16) 0.71030(8)
O2 O -0.40241(19) 0.47842(17) 0.78852(8)
O3 O -0.3643(2) 0.31678(19) 0.82621(9)
C1 C -0.1598(3) 0.4641(2) 0.60921(11)
H1 H -0.1963 0.5396 0.6114
H2 H -0.0822 0.4653 0.5837
O4 O 0.0584(2) 0.65057(16) 0.78875(9)
O5 O 0.4597(2) 0.57664(17) 0.52609(9)
O6 O 0.4301(2) 0.16635(17) 0.54413(10)
N1 N 0.2814(2) 0.54444(18) 0.58321(9)
C2 C -0.5158(3) 0.4887(3) 0.70059(13)
H3 H -0.4948 0.4111 0.6943
H4 H -0.5164 0.5279 0.6655
H5 H -0.6044 0.4950 0.7179
C3 C -0.4353(3) 0.6546(3) 0.75257(15)
H6 H -0.5202 0.6603 0.7728
H7 H -0.4407 0.6990 0.7191
H8 H -0.3614 0.6815 0.7756
C4 C -0.4103(3) 0.5383(3) 0.73773(11)
C5 C -0.2214(2) 0.4355(2) 0.70769(11)
C6 C -0.1107(2) 0.4292(2) 0.66622(11)
H9 H -0.0802 0.3512 0.6639
C7 C 0.0101(3) 0.4996(2) 0.68524(11)
H10 H -0.0197 0.5777 0.6881
C8 C 0.1264(2) 0.4935(2) 0.64582(11)
C9 C 0.1812(3) 0.5804(2) 0.61974(11)
H11 H 0.1558 0.6547 0.6252
C10 C 0.3633(3) 0.6115(2) 0.55071(12)
O7 O 0.31671(18) 0.71350(15) 0.55188(8)
C11 C 0.3954(3) 0.8045(2) 0.52691(12)
C12 C 0.5296(3) 0.8150(3) 0.55633(13)
H12 H 0.5139 0.8245 0.5957
H13 H 0.5785 0.8787 0.5420
H14 H 0.5830 0.7485 0.5502
C13 C -0.3450(3) 0.3773(2) 0.78785(12)
C14 C -0.2556(3) 0.3554(2) 0.74212(11)
H15 H -0.2213 0.2834 0.7367
C15 C -0.2673(3) 0.3884(3) 0.58627(13)
H16 H -0.2328 0.3131 0.5850
H17 H -0.2915 0.4121 0.5492
H18 H -0.3472 0.3911 0.6098
N2 N 0.0513(2) 0.46105(19) 0.74033(9)
H19 H 0.0301 0.3957 0.7530
C16 C 0.1473(3) 0.4714(2) 0.84079(12)
C17 C 0.2271(4) 0.5448(3) 0.88010(14)
H20 H 0.1825 0.6163 0.8832
H21 H 0.3186 0.5551 0.8659
H22 H 0.2314 0.5100 0.9163
C18 C 0.2229(3) 0.3651(3) 0.83004(14)
H23 H 0.2370 0.3262 0.8647
H24 H 0.3103 0.3817 0.8133
H25 H 0.1702 0.3188 0.8052
C19 C 0.0048(3) 0.4531(3) 0.86237(14)
H26 H -0.0383 0.3941 0.8415
H27 H -0.0475 0.5208 0.8583
H28 H 0.0087 0.4327 0.9012
C20 C 0.3057(3) 0.9022(2) 0.53756(13)
H29 H 0.2186 0.8910 0.5195
H30 H 0.3484 0.9686 0.5230
H31 H 0.2919 0.9105 0.5771
C21 C 0.4145(3) 0.7844(3) 0.46609(12)
H32 H 0.4741 0.7212 0.4607
H33 H 0.4547 0.8495 0.4491
H34 H 0.3270 0.7695 0.4491
C22 C 0.2896(3) 0.4297(2) 0.58657(11)
C23 C 0.1945(3) 0.3955(2) 0.62551(11)
C24 C 0.1843(3) 0.2827(2) 0.63664(12)
H35 H 0.1226 0.2566 0.6634
C25 C 0.2644(3) 0.2111(2) 0.60857(13)
H36 H 0.2576 0.1347 0.6160
C26 C 0.3566(3) 0.2476(2) 0.56898(13)
C27 C 0.5228(3) 0.1974(3) 0.50290(15)
H37 H 0.4750 0.2361 0.4735
H38 H 0.5663 0.1318 0.4879
H39 H 0.5912 0.2460 0.5187
C28 C 0.3717(3) 0.3575(2) 0.55723(12)
H40 H 0.4345 0.3827 0.5307
loop_
_geom_bond_atom_site_label_1
_geom_bond_atom_site_label_2
_geom_bond_site_symmetry_1
_geom_bond_site_symmetry_2
S1 O4 1_555 1_555
O1 C4 1_555 1_555
O2 C4 1_555 1_555
O3 C13 1_555 1_555
C1 H1 1_555 1_555
H2 C1 1_555 1_555
O5 C10 1_555 1_555
O6 C26 1_555 1_555
N1 C9 1_555 1_555
C2 H3 1_555 1_555
H4 C2 1_555 1_555
H5 C2 1_555 1_555
C3 H6 1_555 1_555
H7 C3 1_555 1_555
H8 C3 1_555 1_555
C4 C2 1_555 1_555
C5 O1 1_555 1_555
C6 C1 1_555 1_555
H9 C6 1_555 1_555
C7 C6 1_555 1_555
H10 C7 1_555 1_555
C8 C7 1_555 1_555
C9 C8 1_555 1_555
H11 C9 1_555 1_555
C10 N1 1_555 1_555
O7 C10 1_555 1_555
C11 O7 1_555 1_555
C12 C11 1_555 1_555
H12 C12 1_555 1_555
H13 C12 1_555 1_555
H14 C12 1_555 1_555
C13 O2 1_555 1_555
C14 C5 1_555 1_555
H15 C14 1_555 1_555
C15 C1 1_555 1_555
H16 C15 1_555 1_555
H17 C15 1_555 1_555
H18 C15 1_555 1_555
N2 S1 1_555 1_555
H19 N2 1_555 1_555
C16 S1 1_555 1_555
C17 C16 1_555 1_555
H20 C17 1_555 1_555
H21 C17 1_555 1_555
H22 C17 1_555 1_555
C18 C16 1_555 1_555
H23 C18 1_555 1_555
H24 C18 1_555 1_555
H25 C18 1_555 1_555
C19 C16 1_555 1_555
H26 C19 1_555 1_555
H27 C19 1_555 1_555
H28 C19 1_555 1_555
C20 C11 1_555 1_555
H29 C20 1_555 1_555
H30 C20 1_555 1_555
H31 C20 1_555 1_555
C21 C11 1_555 1_555
H32 C21 1_555 1_555
H33 C21 1_555 1_555
H34 C21 1_555 1_555
C22 N1 1_555 1_555
C23 C8 1_555 1_555
C24 C23 1_555 1_555
H35 C24 1_555 1_555
C25 C24 1_555 1_555
H36 C25 1_555 1_555
C26 C25 1_555 1_555
C27 O6 1_555 1_555
H37 C27 1_555 1_555
H38 C27 1_555 1_555
H39 C27 1_555 1_555
C28 C22 1_555 1_555
H40 C28 1_555 1_555
C3 C4 1_555 1_555
C5 C6 1_555 1_555
C7 N2 1_555 1_555
C13 C14 1_555 1_555
C22 C23 1_555 1_555
C26 C28 1_555 1_555

#END
