
#######################################################################
#
#                 Cambridge Crystallographic Data Centre
#                                CCDC 
#
#######################################################################
#
# If this CIF has been generated from an entry in the Cambridge 
# Structural Database, then it will include bibliographic, chemical, 
# crystal, experimental, refinement or atomic coordinate data resulting 
# from the CCDC's data processing and validation procedures.
#
#######################################################################

data_VEDHAP
_chemical_formula_moiety         'C21 H26 N2 O5'
_chemical_name_systematic        
'Methyl 4-((4-amino-2-isopropoxybenzoyl)amino)-2-isopropoxybenzoate'
_symmetry_cell_setting           monoclinic
_symmetry_space_group_name_H-M   'P 21/c'
_symmetry_Int_Tables_number      14
_space_group_name_Hall           '-P 2ybc'
loop_
_symmetry_equiv_pos_site_id
_symmetry_equiv_pos_as_xyz
1 x,y,z
2 -x,1/2+y,1/2-z
3 -x,-y,-z
4 x,1/2-y,1/2+z
_cell_length_a                   9.0441(7)
_cell_length_b                   13.9383(10)
_cell_length_c                   17.5956(12)
_cell_angle_alpha                90
_cell_angle_beta                 99.421(4)
_cell_angle_gamma                90
_cell_volume                     2188.17
_exptl_crystal_colour            colorless
_cell_formula_units_Z            4
loop_
_atom_site_label
_atom_site_type_symbol
_atom_site_fract_x
_atom_site_fract_y
_atom_site_fract_z
C1 C 0.0864(3) 0.8611(2) 0.15999(16)
H1 H 0.117(4) 1.001(2) 0.139(2)
C2 C 0.1545(3) 0.8192(2) 0.10039(16)
H2 H 0.1915 0.8594 0.0641
C3 C 0.1674(3) 0.7192(2) 0.09475(15)
H3 H 0.191(4) 0.544(2) 0.0530(16)
H4 H 0.040(5) 0.980(3) 0.2065(16)
C4 C 0.1198(3) 0.6558(2) 0.15056(14)
C5 C 0.0556(3) 0.7008(2) 0.21024(15)
H5 H 0.0241 0.6613 0.2486
C6 C 0.0368(3) 0.7993(2) 0.21524(16)
H6 H -0.0091 0.8255 0.2555
N1 N 0.0688(4) 0.9598(2) 0.16367(18)
O1 O 0.2297(3) 0.67593(16) 0.03583(12)
C7 C 0.2841(4) 0.7316(2) -0.02464(18)
H7 H 0.3497 0.7847 -0.0003
C8 C 0.1538(5) 0.7744(3) -0.0805(2)
H8 H 0.0854 0.7231 -0.1019
H9 H 0.1925 0.8073 -0.1224
H10 H 0.0997 0.8204 -0.0530
C9 C 0.3781(5) 0.6614(3) -0.0621(2)
H11 H 0.4520 0.6311 -0.0224
H12 H 0.4302 0.6957 -0.0985
H13 H 0.3131 0.6120 -0.0896
O2 O 0.1080(3) 0.49993(16) 0.20932(13)
N2 N 0.1762(3) 0.50410(18) 0.08964(13)
C10 C 0.1343(3) 0.5476(2) 0.15299(15)
C11 C 0.1992(3) 0.4050(2) 0.07443(15)
C12 C 0.1908(3) 0.3789(2) -0.00405(15)
H14 H 0.1669 0.4257 -0.0434
C13 C 0.2178(3) 0.2840(2) -0.02313(16)
H15 H 0.2118 0.2671 -0.0758
C14 C 0.2537(3) 0.2123(2) 0.03384(15)
C15 C 0.2643(3) 0.2391(2) 0.11302(15)
C16 C 0.2351(3) 0.3351(2) 0.13275(15)
H16 H 0.2396 0.3524 0.1853
O3 O 0.2438(3) 0.03687(17) 0.03996(13)
C17 C 0.2762(4) 0.1108(2) 0.00810(17)
O4 O 0.3380(3) 0.11019(15) -0.05753(13)
C18 C 0.3504(5) 0.0163(3) -0.0945(2)
H17 H 0.4033 -0.0288 -0.0568
H18 H 0.4063 0.0237 -0.1374
H19 H 0.2499 -0.0085 -0.1140
O5 O 0.3051(3) 0.16750(16) 0.16695(12)
C19 C 0.3519(4) 0.1929(3) 0.24908(17)
H20 H 0.2725 0.2334 0.2665
C20 C 0.3623(5) 0.0960(3) 0.2924(2)
H21 H 0.2645 0.0641 0.2831
H22 H 0.3921 0.1074 0.3478
H23 H 0.4370 0.0551 0.2739
C21 C 0.5004(4) 0.2477(3) 0.2619(2)
H24 H 0.5787 0.2079 0.2455
H25 H 0.5282 0.2632 0.3167
H26 H 0.4894 0.3072 0.2318
loop_
_geom_bond_atom_site_label_1
_geom_bond_atom_site_label_2
_geom_bond_site_symmetry_1
_geom_bond_site_symmetry_2
C1 C2 1_555 1_555
H1 N1 1_555 1_555
C2 H2 1_555 1_555
C3 C2 1_555 1_555
H3 N2 1_555 1_555
H4 N1 1_555 1_555
C4 C3 1_555 1_555
C5 C4 1_555 1_555
H5 C5 1_555 1_555
C6 C1 1_555 1_555
H6 C6 1_555 1_555
N1 C1 1_555 1_555
O1 C3 1_555 1_555
C7 O1 1_555 1_555
H7 C7 1_555 1_555
C8 C7 1_555 1_555
H8 C8 1_555 1_555
H9 C8 1_555 1_555
H10 C8 1_555 1_555
C9 C7 1_555 1_555
H11 C9 1_555 1_555
H12 C9 1_555 1_555
H13 C9 1_555 1_555
O2 C10 1_555 1_555
N2 C10 1_555 1_555
C10 C4 1_555 1_555
C11 N2 1_555 1_555
C12 C11 1_555 1_555
H14 C12 1_555 1_555
C13 C12 1_555 1_555
H15 C13 1_555 1_555
C14 C13 1_555 1_555
C15 C14 1_555 1_555
C16 C11 1_555 1_555
H16 C16 1_555 1_555
O3 C17 1_555 1_555
C17 C14 1_555 1_555
O4 C17 1_555 1_555
C18 O4 1_555 1_555
H17 C18 1_555 1_555
H18 C18 1_555 1_555
H19 C18 1_555 1_555
O5 C15 1_555 1_555
C19 O5 1_555 1_555
H20 C19 1_555 1_555
C20 C19 1_555 1_555
H21 C20 1_555 1_555
H22 C20 1_555 1_555
H23 C20 1_555 1_555
C21 C19 1_555 1_555
H24 C21 1_555 1_555
H25 C21 1_555 1_555
H26 C21 1_555 1_555
C5 C6 1_555 1_555
C15 C16 1_555 1_555

#END
