
#######################################################################
#
#                 Cambridge Crystallographic Data Centre
#                                CCDC 
#
#######################################################################
#
# If this CIF has been generated from an entry in the Cambridge 
# Structural Database, then it will include bibliographic, chemical, 
# crystal, experimental, refinement or atomic coordinate data resulting 
# from the CCDC's data processing and validation procedures.
#
#######################################################################

data_VEDHUK
_chemical_formula_moiety         'C39 H36 N2'
_chemical_name_systematic        
1-hexyl-2-(4-(triphenylvinyl)phenyl)-1H-benzimidazole
_symmetry_cell_setting           triclinic
_symmetry_space_group_name_H-M   'P -1'
_symmetry_Int_Tables_number      2
_space_group_name_Hall           '-P 1'
loop_
_symmetry_equiv_pos_site_id
_symmetry_equiv_pos_as_xyz
1 x,y,z
2 -x,-y,-z
_cell_length_a                   9.208(5)
_cell_length_b                   12.401(7)
_cell_length_c                   15.267(9)
_cell_angle_alpha                112.695(10)
_cell_angle_beta                 103.060(11)
_cell_angle_gamma                92.558(10)
_cell_volume                     1549.79
_exptl_crystal_colour            colorless
_exptl_crystal_description       Block
_cell_formula_units_Z            2
loop_
_atom_site_label
_atom_site_type_symbol
_atom_site_fract_x
_atom_site_fract_y
_atom_site_fract_z
C1 C 0.2505(3) 0.5234(3) 0.0131(3)
C2 C 0.1480(3) 0.5998(3) 0.0358(3)
H1 H 0.0854 0.6151 -0.0138
C3 C 0.1366(3) 0.6534(3) 0.1298(3)
H2 H 0.0649 0.7037 0.1428
C4 C 0.2279(3) 0.6355(3) 0.2061(2)
C5 C 0.3345(3) 0.5604(3) 0.1827(3)
H3 H 0.3997 0.5470 0.2325
C6 C 0.3448(3) 0.5068(3) 0.0893(3)
H4 H 0.4175 0.4574 0.0760
C7 C 0.2146(3) 0.6946(3) 0.3078(2)
C8 C 0.2177(3) 0.6396(3) 0.3683(3)
C9 C 0.2187(4) 0.5102(3) 0.3333(3)
C10 C 0.1070(4) 0.4321(3) 0.2560(3)
H5 H 0.0274 0.4604 0.2260
C11 C 0.1104(6) 0.3133(4) 0.2222(4)
H6 H 0.0331 0.2611 0.1700
C12 C 0.2272(9) 0.2717(4) 0.2651(5)
H7 H 0.2314 0.1910 0.2407
C13 C 0.3372(7) 0.3469(5) 0.3429(4)
H8 H 0.4159 0.3176 0.3727
C14 C 0.3330(5) 0.4672(4) 0.3784(3)
H9 H 0.4078 0.5188 0.4328
C15 C 0.2203(4) 0.7013(3) 0.4731(3)
C16 C 0.3207(4) 0.8017(4) 0.5355(3)
H10 H 0.3883 0.8330 0.5115
C17 C 0.3220(5) 0.8553(4) 0.6320(4)
H11 H 0.3912 0.9224 0.6737
C18 C 0.2224(7) 0.8114(5) 0.6679(4)
H12 H 0.2219 0.8495 0.7335
C19 C 0.1231(6) 0.7109(5) 0.6071(4)
H13 H 0.0559 0.6798 0.6314
C20 C 0.1233(5) 0.6570(4) 0.5109(3)
H14 H 0.0560 0.5885 0.4699
C21 C 0.1904(3) 0.8202(3) 0.3367(2)
C22 C 0.0644(4) 0.8569(3) 0.3652(3)
H15 H -0.0028 0.8048 0.3725
C23 C 0.0362(4) 0.9696(4) 0.3830(3)
H16 H -0.0505 0.9934 0.4017
C24 C 0.1347(5) 1.0475(3) 0.3735(3)
H17 H 0.1151 1.1241 0.3851
C25 C 0.2603(5) 1.0123(3) 0.3471(3)
H18 H 0.3289 1.0655 0.3420
C26 C 0.2881(4) 0.8992(3) 0.3277(3)
H19 H 0.3743 0.8757 0.3081
C27 C 0.2622(3) 0.4705(3) -0.0881(3)
C28 C 0.2726(4) 0.4496(6) -0.2299(3)
C29 C 0.2750(5) 0.4622(6) -0.3168(4)
H20 H 0.2600 0.5330 -0.3227
C30 C 0.2998(6) 0.3681(7) -0.3924(4)
H21 H 0.3031 0.3758 -0.4502
C31 C 0.3191(6) 0.2668(7) -0.3865(5)
H22 H 0.3342 0.2051 -0.4408
C32 C 0.3180(5) 0.2476(5) -0.3043(4)
H23 H 0.3325 0.1754 -0.3010
C33 C 0.2939(4) 0.3432(5) -0.2257(3)
C34 C 0.2893(5) 0.2644(4) -0.1019(4)
H24 H 0.2250 0.1942 -0.1533
H25 H 0.2504 0.2867 -0.0443
C35 C 0.4459(6) 0.2377(4) -0.0771(5)
H26 H 0.4830 0.2146 -0.1354
H27 H 0.5099 0.3093 -0.0275
C36 C 0.4597(9) 0.1463(7) -0.0413(7)
H28 H 0.4038 0.0726 -0.0931
H29 H 0.4147 0.1657 0.0135
C37 C 0.6262(11) 0.1287(8) -0.0073(8)
H30 H 0.6845 0.2056 0.0361
H31 H 0.6290 0.0820 0.0313
C38 C 0.6958(13) 0.0758(8) -0.0794(8)
H32 H 0.6950 0.1241 -0.1165
H33 H 0.6347 0.0005 -0.1239
C39 C 0.8534(11) 0.0534(7) -0.0509(7)
H34 H 0.9176 0.1271 -0.0094
H35 H 0.8873 0.0154 -0.1090
H36 H 0.8571 0.0034 -0.0160
N1 N 0.2858(3) 0.3575(3) -0.1342(3)
N2 N 0.2531(3) 0.5286(3) -0.1440(3)
loop_
_geom_bond_atom_site_label_1
_geom_bond_atom_site_label_2
_geom_bond_site_symmetry_1
_geom_bond_site_symmetry_2
C1 C2 1_555 1_555
C2 H1 1_555 1_555
C3 C2 1_555 1_555
H2 C3 1_555 1_555
C4 C3 1_555 1_555
C5 C4 1_555 1_555
H3 C5 1_555 1_555
C6 C1 1_555 1_555
H4 C6 1_555 1_555
C7 C4 1_555 1_555
C8 C7 1_555 1_555
C9 C8 1_555 1_555
C10 C9 1_555 1_555
H5 C10 1_555 1_555
C11 C10 1_555 1_555
H6 C11 1_555 1_555
C12 C11 1_555 1_555
H7 C12 1_555 1_555
C13 C12 1_555 1_555
H8 C13 1_555 1_555
C14 C9 1_555 1_555
H9 C14 1_555 1_555
C15 C8 1_555 1_555
C16 C15 1_555 1_555
H10 C16 1_555 1_555
C17 C16 1_555 1_555
H11 C17 1_555 1_555
C18 C17 1_555 1_555
H12 C18 1_555 1_555
C19 C18 1_555 1_555
H13 C19 1_555 1_555
C20 C15 1_555 1_555
H14 C20 1_555 1_555
C21 C7 1_555 1_555
C22 C21 1_555 1_555
H15 C22 1_555 1_555
C23 C22 1_555 1_555
H16 C23 1_555 1_555
C24 C23 1_555 1_555
H17 C24 1_555 1_555
C25 C24 1_555 1_555
H18 C25 1_555 1_555
C26 C21 1_555 1_555
H19 C26 1_555 1_555
C27 C1 1_555 1_555
C28 C29 1_555 1_555
C29 H20 1_555 1_555
C30 C29 1_555 1_555
H21 C30 1_555 1_555
C31 C30 1_555 1_555
H22 C31 1_555 1_555
C32 C31 1_555 1_555
H23 C32 1_555 1_555
C33 C28 1_555 1_555
C34 H24 1_555 1_555
H25 C34 1_555 1_555
C35 C34 1_555 1_555
H26 C35 1_555 1_555
H27 C35 1_555 1_555
C36 C35 1_555 1_555
H28 C36 1_555 1_555
H29 C36 1_555 1_555
C37 C36 1_555 1_555
H30 C37 1_555 1_555
H31 C37 1_555 1_555
C38 C37 1_555 1_555
H32 C38 1_555 1_555
H33 C38 1_555 1_555
C39 C38 1_555 1_555
H34 C39 1_555 1_555
H35 C39 1_555 1_555
H36 C39 1_555 1_555
N1 C27 1_555 1_555
N2 C27 1_555 1_555
C5 C6 1_555 1_555
C13 C14 1_555 1_555
C19 C20 1_555 1_555
C25 C26 1_555 1_555
C28 N2 1_555 1_555
C32 C33 1_555 1_555
C33 N1 1_555 1_555
C34 N1 1_555 1_555

#END
