
#######################################################################
#
#                 Cambridge Crystallographic Data Centre
#                                CCDC 
#
#######################################################################
#
# If this CIF has been generated from an entry in the Cambridge 
# Structural Database, then it will include bibliographic, chemical, 
# crystal, experimental, refinement or atomic coordinate data resulting 
# from the CCDC's data processing and validation procedures.
#
#######################################################################

data_VEDJAS
_chemical_formula_moiety         'C50 H42 N4 O2'
_chemical_name_systematic        
2,5-dibutyl-3,6-bis[4-(9H-carbazol-9-yl)phenyl]-2,5-dihydropyrrolo[3,4-c]pyrrole-1,4-dione
_symmetry_cell_setting           triclinic
_symmetry_space_group_name_H-M   'P -1'
_symmetry_Int_Tables_number      2
_space_group_name_Hall           '-P 1'
loop_
_symmetry_equiv_pos_site_id
_symmetry_equiv_pos_as_xyz
1 x,y,z
2 -x,-y,-z
_cell_length_a                   8.606(3)
_cell_length_b                   14.053(2)
_cell_length_c                   15.764(4)
_cell_angle_alpha                84.21(2)
_cell_angle_beta                 88.17(3)
_cell_angle_gamma                82.75(3)
_cell_volume                     1881.25
_exptl_crystal_description       rod
_cell_formula_units_Z            2
loop_
_atom_site_label
_atom_site_type_symbol
_atom_site_fract_x
_atom_site_fract_y
_atom_site_fract_z
O1 O -0.6803(3) 1.15469(16) 0.08616(16)
N1 N -0.4272(3) 1.07882(19) 0.09519(18)
N2 N 0.2572(3) 0.8472(2) 0.1781(2)
C1 C -0.0709(4) 1.0240(2) 0.1034(2)
H1 H -0.0959 1.0906 0.0964
C2 C -0.5801(4) 1.0956(2) 0.0617(2)
C3 C -0.1815(4) 0.9662(2) 0.0860(2)
C4 C 0.3681(4) 0.7821(2) 0.1431(3)
C5 C 0.0744(4) 0.9856(2) 0.1307(2)
H2 H 0.1482 1.0256 0.1415
C6 C -0.3388(4) 1.0034(2) 0.0600(2)
C7 C 0.1104(4) 0.8876(3) 0.1421(2)
C8 C 0.0065(4) 0.8290(2) 0.1213(2)
H3 H 0.0337 0.7625 0.1261
C9 C 0.4440(4) 0.8036(2) 0.2754(3)
C10 C -0.1381(4) 0.8685(2) 0.0933(2)
H4 H -0.2088 0.8282 0.0788
C11 C -0.5737(4) 1.0277(2) -0.0016(2)
C12 C -0.3977(4) 1.1206(2) 0.1717(3)
H5 H -0.4630 1.1819 0.1729
H6 H -0.2892 1.1327 0.1711
C13 C 0.6125(5) 0.6902(3) 0.1809(3)
H7 H 0.6915 0.6693 0.2198
C14 C 0.4869(4) 0.7546(2) 0.2018(3)
C15 C 0.3016(4) 0.8618(2) 0.2587(3)
C16 C 0.3760(5) 0.7489(3) 0.0645(3)
H8 H 0.2968 0.7683 0.0254
C17 C 0.5036(5) 0.6866(3) 0.0449(3)
H9 H 0.5118 0.6635 -0.0085
C18 C 0.4423(6) 0.8637(3) 0.4101(3)
H10 H 0.4900 0.8660 0.4618
C19 C 0.6197(5) 0.6574(3) 0.1024(3)
H11 H 0.7051 0.6144 0.0876
C20 C 0.2292(5) 0.9177(3) 0.3175(3)
H12 H 0.1330 0.9544 0.3064
C21 C 0.5133(5) 0.8062(3) 0.3533(3)
H13 H 0.6081 0.7686 0.3661
C22 C 0.3023(5) 0.9185(3) 0.3936(3)
H14 H 0.2556 0.9569 0.4344
C23 C -0.4302(6) 1.0565(3) 0.2510(3)
H15 H -0.5423 1.0543 0.2563
H16 H -0.3811 0.9917 0.2440
C24 C -0.3753(7) 1.0859(4) 0.3311(4)
H17 H -0.3811 1.1556 0.3265
H18 H -0.4447 1.0665 0.3775
C25 C -0.2199(7) 1.0454(4) 0.3505(4)
H19 H -0.1880 1.0701 0.4009
H20 H -0.1511 1.0620 0.3037
H21 H -0.2152 0.9765 0.3601
O1A O -0.3197(3) 0.84531(16) -0.08616(16)
N1A N -0.5728(3) 0.92118(19) -0.09519(18)
N2A N -1.2572(3) 1.1528(2) -0.1781(2)
C1A C -0.9291(4) 0.9760(2) -0.1034(2)
H1A H -0.9041 0.9094 -0.0964
C2A C -0.4199(4) 0.9044(2) -0.0617(2)
C3A C -0.8185(4) 1.0338(2) -0.0860(2)
C4A C -1.3681(4) 1.2179(2) -0.1431(3)
C5A C -1.0744(4) 1.0144(2) -0.1307(2)
H2A H -1.1482 0.9744 -0.1415
C6A C -0.6612(4) 0.9966(2) -0.0600(2)
C7A C -1.1104(4) 1.1124(3) -0.1421(2)
C8A C -1.0065(4) 1.1710(2) -0.1213(2)
H3A H -1.0337 1.2375 -0.1261
C9A C -1.4440(4) 1.1964(2) -0.2754(3)
C10A C -0.8619(4) 1.1315(2) -0.0933(2)
H4A H -0.7912 1.1718 -0.0788
C11A C -0.4263(4) 0.9723(2) 0.0016(2)
C12A C -0.6023(4) 0.8794(2) -0.1717(3)
H5A H -0.5370 0.8181 -0.1729
H6A H -0.7108 0.8673 -0.1711
C13A C -1.6125(5) 1.3098(3) -0.1809(3)
H7A H -1.6915 1.3307 -0.2198
C14A C -1.4869(4) 1.2454(2) -0.2018(3)
C15A C -1.3016(4) 1.1382(2) -0.2587(3)
C16A C -1.3760(5) 1.2511(3) -0.0645(3)
H8A H -1.2968 1.2317 -0.0254
C17A C -1.5036(5) 1.3134(3) -0.0449(3)
H9A H -1.5118 1.3365 0.0085
C18A C -1.4423(6) 1.1363(3) -0.4101(3)
H10A H -1.4900 1.1340 -0.4618
C19A C -1.6197(5) 1.3426(3) -0.1024(3)
H11A H -1.7051 1.3856 -0.0876
C20A C -1.2292(5) 1.0823(3) -0.3175(3)
H12A H -1.1330 1.0456 -0.3064
C21A C -1.5133(5) 1.1938(3) -0.3533(3)
H13A H -1.6081 1.2314 -0.3661
C22A C -1.3023(5) 1.0815(3) -0.3936(3)
H14A H -1.2556 1.0431 -0.4344
C23A C -0.5698(6) 0.9435(3) -0.2510(3)
H15A H -0.4577 0.9457 -0.2563
H16A H -0.6189 1.0083 -0.2440
C24A C -0.6247(7) 0.9141(4) -0.3311(4)
H17A H -0.6189 0.8444 -0.3265
H18A H -0.5553 0.9335 -0.3775
C25A C -0.7801(7) 0.9546(4) -0.3505(4)
H19A H -0.8120 0.9299 -0.4009
H20A H -0.8489 0.9380 -0.3037
H21A H -0.7848 1.0235 -0.3601
O2 O -0.1747(3) 0.63674(15) 0.37496(15)
N3 N 0.0795(3) 0.56566(18) 0.3825(2)
N4 N 0.7744(3) 0.3436(2) 0.3449(2)
C26 C 0.6260(4) 0.3854(3) 0.3757(2)
C27 C 0.3302(4) 0.4638(3) 0.4193(2)
C28 C 0.1675(4) 0.4976(2) 0.4384(3)
C29 C 0.3793(4) 0.3672(2) 0.4410(2)
H22 H 0.3123 0.3284 0.4711
C30 C 0.4355(5) 0.5201(3) 0.3820(2)
H23 H 0.4060 0.5861 0.3716
C31 C 0.0754(4) 0.4749(2) 0.5055(3)
C32 C -0.0743(4) 0.5828(2) 0.4139(3)
C33 C 0.5848(4) 0.4823(2) 0.3591(2)
H24 H 0.6553 0.5217 0.3332
C34 C 0.8869(5) 0.2850(3) 0.3924(3)
C35 C 1.0023(5) 0.2484(3) 0.3370(4)
C36 C 0.5269(5) 0.3290(3) 0.4181(3)
H25 H 0.5595 0.2638 0.4318
C37 C 0.1149(4) 0.5934(2) 0.2940(3)
H26 H 0.2212 0.6098 0.2891
H27 H 0.0450 0.6506 0.2748
C38 C 0.8142(5) 0.3405(3) 0.2594(3)
C39 C 1.1304(6) 0.1884(3) 0.3700(4)
H28 H 1.2090 0.1617 0.3345
C40 C 1.1374(6) 0.1695(3) 0.4569(5)
H29 H 1.2239 0.1302 0.4801
C41 C 0.8922(5) 0.2660(2) 0.4787(3)
H30 H 0.8126 0.2919 0.5141
C42 C 0.9579(5) 0.2819(3) 0.2528(4)
C43 C 1.0215(6) 0.2062(3) 0.5117(3)
H31 H 1.0302 0.1910 0.5703
C44 C 1.0203(6) 0.2657(3) 0.1728(4)
H32 H 1.1138 0.2256 0.1672
C45 C 0.7382(5) 0.3835(3) 0.1887(3)
H33 H 0.6444 0.4236 0.1934
C46 C 0.9442(8) 0.3087(4) 0.1037(4)
H34 H 0.9873 0.2996 0.0498
C47 C 0.0994(7) 0.5172(3) 0.2376(3)
H35 H 0.1549 0.4573 0.2631
H36 H -0.0105 0.5085 0.2363
C48 C 0.8029(7) 0.3663(4) 0.1107(4)
H37 H 0.7511 0.3938 0.0617
C49 C 0.1557(9) 0.5330(4) 0.1507(4)
H38 H 0.0699 0.5288 0.1134
H39 H 0.1816 0.5985 0.1417
C50 C 0.2808(7) 0.4738(4) 0.1254(5)
H40 H 0.3070 0.4928 0.0670
H41 H 0.2561 0.4087 0.1306
H42 H 0.3684 0.4778 0.1606
O2A O 0.1747(3) 0.36326(15) 0.62504(15)
N3A N -0.0795(3) 0.43434(18) 0.6175(2)
N4A N -0.7744(3) 0.6564(2) 0.6551(2)
C26A C -0.6260(4) 0.6146(3) 0.6243(2)
C27A C -0.3302(4) 0.5362(3) 0.5807(2)
C28A C -0.1675(4) 0.5024(2) 0.5616(3)
C29A C -0.3793(4) 0.6328(2) 0.5590(2)
H22A H -0.3123 0.6716 0.5289
C30A C -0.4355(5) 0.4799(3) 0.6180(2)
H23A H -0.4060 0.4139 0.6284
C31A C -0.0754(4) 0.5251(2) 0.4945(3)
C32A C 0.0743(4) 0.4172(2) 0.5861(3)
C33A C -0.5848(4) 0.5177(2) 0.6409(2)
H24A H -0.6553 0.4783 0.6668
C34A C -0.8869(5) 0.7150(3) 0.6076(3)
C35A C -1.0023(5) 0.7516(3) 0.6630(4)
C36A C -0.5269(5) 0.6710(3) 0.5819(3)
H25A H -0.5595 0.7362 0.5682
C37A C -0.1149(4) 0.4066(2) 0.7060(3)
H26A H -0.2212 0.3902 0.7109
H27A H -0.0450 0.3494 0.7252
C38A C -0.8142(5) 0.6595(3) 0.7406(3)
C39A C -1.1304(6) 0.8116(3) 0.6300(4)
H28A H -1.2090 0.8383 0.6655
C40A C -1.1374(6) 0.8305(3) 0.5431(5)
H29A H -1.2239 0.8698 0.5199
C41A C -0.8922(5) 0.7340(2) 0.5213(3)
H30A H -0.8126 0.7081 0.4859
C42A C -0.9579(5) 0.7181(3) 0.7472(4)
C43A C -1.0215(6) 0.7938(3) 0.4883(3)
H31A H -1.0302 0.8090 0.4297
C44A C -1.0203(6) 0.7343(3) 0.8272(4)
H32A H -1.1138 0.7744 0.8328
C45A C -0.7382(5) 0.6165(3) 0.8113(3)
H33A H -0.6444 0.5764 0.8066
C46A C -0.9442(8) 0.6913(4) 0.8963(4)
H34A H -0.9873 0.7004 0.9502
C47A C -0.0994(7) 0.4828(3) 0.7624(3)
H35A H -0.1549 0.5427 0.7369
H36A H 0.0105 0.4915 0.7637
C48A C -0.8029(7) 0.6337(4) 0.8893(4)
H37A H -0.7511 0.6062 0.9383
C49A C -0.1557(9) 0.4670(4) 0.8493(4)
H38A H -0.0699 0.4712 0.8866
H39A H -0.1816 0.4015 0.8583
C50A C -0.2808(7) 0.5262(4) 0.8746(5)
H40A H -0.3070 0.5072 0.9330
H41A H -0.2561 0.5913 0.8694
H42A H -0.3684 0.5222 0.8394
loop_
_geom_bond_atom_site_label_1
_geom_bond_atom_site_label_2
_geom_bond_site_symmetry_1
_geom_bond_site_symmetry_2
O1 C2 1_555 1_555
N1 C2 1_555 1_555
N2 C4 1_555 1_555
C1 H1 1_555 1_555
C2 C11 1_555 1_555
C3 C1 1_555 1_555
C4 C14 1_555 1_555
C5 C1 1_555 1_555
H2 C5 1_555 1_555
C6 N1 1_555 1_555
C7 N2 1_555 1_555
C8 C7 1_555 1_555
H3 C8 1_555 1_555
C9 C14 1_555 1_555
C10 C3 1_555 1_555
H4 C10 1_555 1_555
C11 C6A 1_555 1_555
C12 N1 1_555 1_555
H5 C12 1_555 1_555
H6 C12 1_555 1_555
C13 H7 1_555 1_555
C14 C13 1_555 1_555
C15 N2 1_555 1_555
C16 C4 1_555 1_555
H8 C16 1_555 1_555
C17 C16 1_555 1_555
H9 C17 1_555 1_555
C18 H10 1_555 1_555
C19 C13 1_555 1_555
H11 C19 1_555 1_555
C20 C15 1_555 1_555
H12 C20 1_555 1_555
C21 C9 1_555 1_555
H13 C21 1_555 1_555
C22 C18 1_555 1_555
H14 C22 1_555 1_555
C23 C12 1_555 1_555
H15 C23 1_555 1_555
H16 C23 1_555 1_555
C24 C23 1_555 1_555
H17 C24 1_555 1_555
H18 C24 1_555 1_555
C25 C24 1_555 1_555
H19 C25 1_555 1_555
H20 C25 1_555 1_555
H21 C25 1_555 1_555
O2 C32 1_555 1_555
N3 C28 1_555 1_555
N4 C26 1_555 1_555
C26 C33 1_555 1_555
C27 C28 1_555 1_555
C28 C31 1_555 1_555
C29 C27 1_555 1_555
H22 C29 1_555 1_555
C30 C27 1_555 1_555
H23 C30 1_555 1_555
C31 C31A 1_555 1_555
C32 N3 1_555 1_555
C33 C30 1_555 1_555
H24 C33 1_555 1_555
C34 N4 1_555 1_555
C35 C34 1_555 1_555
C36 C26 1_555 1_555
H25 C36 1_555 1_555
C37 N3 1_555 1_555
H26 C37 1_555 1_555
H27 C37 1_555 1_555
C38 N4 1_555 1_555
C39 C35 1_555 1_555
H28 C39 1_555 1_555
C40 C39 1_555 1_555
H29 C40 1_555 1_555
C41 C34 1_555 1_555
H30 C41 1_555 1_555
C42 C35 1_555 1_555
C43 C40 1_555 1_555
H31 C43 1_555 1_555
C44 C42 1_555 1_555
H32 C44 1_555 1_555
C45 C38 1_555 1_555
H33 C45 1_555 1_555
C46 C44 1_555 1_555
H34 C46 1_555 1_555
C47 C37 1_555 1_555
H35 C47 1_555 1_555
H36 C47 1_555 1_555
C48 C45 1_555 1_555
H37 C48 1_555 1_555
C49 C47 1_555 1_555
H38 C49 1_555 1_555
H39 C49 1_555 1_555
C50 C49 1_555 1_555
H40 C50 1_555 1_555
H41 C50 1_555 1_555
H42 C50 1_555 1_555
O1A C2A 1_555 1_555
N1A C2A 1_555 1_555
N2A C4A 1_555 1_555
C1A H1A 1_555 1_555
C2A C11A 1_555 1_555
C3A C1A 1_555 1_555
C4A C14A 1_555 1_555
C5A C1A 1_555 1_555
H2A C5A 1_555 1_555
C6A N1A 1_555 1_555
C7A N2A 1_555 1_555
C8A C7A 1_555 1_555
H3A C8A 1_555 1_555
C9A C14A 1_555 1_555
C10A C3A 1_555 1_555
H4A C10A 1_555 1_555
C11A C6 1_555 1_555
C12A N1A 1_555 1_555
H5A C12A 1_555 1_555
H6A C12A 1_555 1_555
C13A H7A 1_555 1_555
C14A C13A 1_555 1_555
C15A N2A 1_555 1_555
C16A C4A 1_555 1_555
H8A C16A 1_555 1_555
C17A C16A 1_555 1_555
H9A C17A 1_555 1_555
C18A H10A 1_555 1_555
C19A C13A 1_555 1_555
H11A C19A 1_555 1_555
C20A C15A 1_555 1_555
H12A C20A 1_555 1_555
C21A C9A 1_555 1_555
H13A C21A 1_555 1_555
C22A C18A 1_555 1_555
H14A C22A 1_555 1_555
C23A C12A 1_555 1_555
H15A C23A 1_555 1_555
H16A C23A 1_555 1_555
C24A C23A 1_555 1_555
H17A C24A 1_555 1_555
H18A C24A 1_555 1_555
C25A C24A 1_555 1_555
H19A C25A 1_555 1_555
H20A C25A 1_555 1_555
H21A C25A 1_555 1_555
O2A C32A 1_555 1_555
N3A C28A 1_555 1_555
N4A C26A 1_555 1_555
C26A C33A 1_555 1_555
C27A C28A 1_555 1_555
C28A C31A 1_555 1_555
C29A C27A 1_555 1_555
H22A C29A 1_555 1_555
C30A C27A 1_555 1_555
H23A C30A 1_555 1_555
C31A C32 1_555 1_555
C32A C31 1_555 1_555
C33A C30A 1_555 1_555
H24A C33A 1_555 1_555
C34A N4A 1_555 1_555
C35A C34A 1_555 1_555
C36A C26A 1_555 1_555
H25A C36A 1_555 1_555
C37A N3A 1_555 1_555
H26A C37A 1_555 1_555
H27A C37A 1_555 1_555
C38A N4A 1_555 1_555
C39A C35A 1_555 1_555
H28A C39A 1_555 1_555
C40A C39A 1_555 1_555
H29A C40A 1_555 1_555
C41A C34A 1_555 1_555
H30A C41A 1_555 1_555
C42A C35A 1_555 1_555
C43A C40A 1_555 1_555
H31A C43A 1_555 1_555
C44A C42A 1_555 1_555
H32A C44A 1_555 1_555
C45A C38A 1_555 1_555
H33A C45A 1_555 1_555
C46A C44A 1_555 1_555
H34A C46A 1_555 1_555
C47A C37A 1_555 1_555
H35A C47A 1_555 1_555
H36A C47A 1_555 1_555
C48A C45A 1_555 1_555
H37A C48A 1_555 1_555
C49A C47A 1_555 1_555
H38A C49A 1_555 1_555
H39A C49A 1_555 1_555
C50A C49A 1_555 1_555
H40A C50A 1_555 1_555
H41A C50A 1_555 1_555
H42A C50A 1_555 1_555
C3 C6 1_555 1_555
C5 C7 1_555 1_555
C8 C10 1_555 1_555
C9 C15 1_555 1_555
C11 C11A 1_555 1_555
C17 C19 1_555 1_555
C18 C21 1_555 1_555
C20 C22 1_555 1_555
C29 C36 1_555 1_555
C38 C42 1_555 1_555
C41 C43 1_555 1_555
C46 C48 1_555 1_555
C3A C6A 1_555 1_555
C5A C7A 1_555 1_555
C8A C10A 1_555 1_555
C9A C15A 1_555 1_555
C17A C19A 1_555 1_555
C18A C21A 1_555 1_555
C20A C22A 1_555 1_555
N3A C32A 1_555 1_555
C29A C36A 1_555 1_555
C38A C42A 1_555 1_555
C41A C43A 1_555 1_555
C46A C48A 1_555 1_555

#END
