
#######################################################################
#
#                 Cambridge Crystallographic Data Centre
#                                CCDC 
#
#######################################################################
#
# If this CIF has been generated from an entry in the Cambridge 
# Structural Database, then it will include bibliographic, chemical, 
# crystal, experimental, refinement or atomic coordinate data resulting 
# from the CCDC's data processing and validation procedures.
#
#######################################################################

data_VEDKEX
_chemical_formula_moiety         'C37 H32 N2'
_chemical_name_systematic        
1-butyl-2-(4-(triphenylethenyl)phenyl)-1H-benzimidazole
_symmetry_cell_setting           monoclinic
_symmetry_space_group_name_H-M   'P 21'
_symmetry_Int_Tables_number      4
_space_group_name_Hall           'P 2yb'
loop_
_symmetry_equiv_pos_site_id
_symmetry_equiv_pos_as_xyz
1 x,y,z
2 -x,1/2+y,-z
_cell_length_a                   9.536(4)
_cell_length_b                   9.317(4)
_cell_length_c                   15.912(6)
_cell_angle_alpha                90
_cell_angle_beta                 90.960(7)
_cell_angle_gamma                90
_cell_volume                     1413.53
_exptl_crystal_colour            colorless
_exptl_crystal_description       Block
_cell_formula_units_Z            2
loop_
_atom_site_label
_atom_site_type_symbol
_atom_site_fract_x
_atom_site_fract_y
_atom_site_fract_z
N1 N 0.6000(2) 0.4744(3) 1.06258(13)
N2 N 0.3732(2) 0.4419(3) 1.09332(13)
C1 C 0.4249(3) 0.4664(3) 0.94372(15)
C2 C 0.4814(3) 0.5674(3) 0.89023(15)
H1 H 0.5463 0.6334 0.9111
C3 C 0.4433(3) 0.5713(3) 0.80732(15)
H2 H 0.4836 0.6391 0.7723
C4 C 0.3457(3) 0.4762(3) 0.77447(15)
C5 C 0.2851(3) 0.3797(4) 0.82842(18)
H3 H 0.2163 0.3174 0.8081
C6 C 0.3247(3) 0.3738(4) 0.91188(17)
H4 H 0.2834 0.3068 0.9471
C7 C 0.3138(3) 0.4782(3) 0.68241(15)
C8 C 0.1862(3) 0.5036(3) 0.64955(16)
C9 C 0.0676(3) 0.5520(3) 0.70318(16)
C10 C -0.0631(3) 0.4890(4) 0.69658(17)
H5 H -0.0763 0.4125 0.6597
C11 C -0.1739(3) 0.5359(4) 0.7428(2)
H6 H -0.2607 0.4909 0.7376
C12 C -0.1565(4) 0.6493(4) 0.79671(19)
H7 H -0.2315 0.6823 0.8279
C13 C -0.0282(4) 0.7137(4) 0.80430(19)
H8 H -0.0159 0.7902 0.8413
C14 C 0.0826(3) 0.6666(3) 0.75782(19)
H9 H 0.1690 0.7123 0.7631
C15 C 0.1529(3) 0.4913(3) 0.55801(15)
C16 C 0.0686(3) 0.5920(3) 0.51944(17)
H10 H 0.0344 0.6684 0.5506
C17 C 0.0337(3) 0.5813(4) 0.43451(19)
H11 H -0.0231 0.6508 0.4094
C18 C 0.0821(3) 0.4697(5) 0.38779(19)
H12 H 0.0585 0.4623 0.3310
C19 C 0.1654(3) 0.3691(4) 0.4255(2)
H13 H 0.1989 0.2927 0.3940
C20 C 0.2006(3) 0.3787(4) 0.50939(18)
H14 H 0.2573 0.3085 0.5339
C21 C 0.4401(3) 0.4486(3) 0.63054(15)
C22 C 0.4884(3) 0.5444(3) 0.57248(16)
H15 H 0.4404 0.6300 0.5634
C23 C 0.6066(3) 0.5156(4) 0.52771(17)
H16 H 0.6383 0.5827 0.4891
C24 C 0.6781(3) 0.3909(4) 0.53869(19)
H17 H 0.7570 0.3711 0.5071
C25 C 0.6323(3) 0.2956(4) 0.59662(19)
H18 H 0.6808 0.2101 0.6051
C26 C 0.5159(3) 0.3234(3) 0.64261(18)
H19 H 0.4871 0.2574 0.6826
C27 C 0.4646(3) 0.4589(3) 1.03324(15)
C28 C 0.4517(3) 0.4467(3) 1.16663(16)
C29 C 0.5927(3) 0.4651(4) 1.14949(16)
C30 C 0.6944(3) 0.4721(4) 1.21244(18)
H20 H 0.7887 0.4858 1.2006
C31 C 0.6485(4) 0.4578(4) 1.29340(19)
H21 H 0.7141 0.4606 1.3373
C32 C 0.5096(4) 0.4396(4) 1.31212(19)
H22 H 0.4833 0.4305 1.3679
C33 C 0.4091(4) 0.4348(4) 1.24950(18)
H23 H 0.3149 0.4238 1.2621
C34 C 0.7301(3) 0.4626(4) 1.01606(18)
H24 H 0.8072 0.4945 1.0520
H25 H 0.7250 0.5268 0.9681
C35 C 0.7610(4) 0.3163(5) 0.9859(3)
H26 H 0.6877 0.2867 0.9466
H27 H 0.7602 0.2506 1.0332
C36 C 0.9012(4) 0.3062(5) 0.9434(3)
H28 H 0.9099 0.3864 0.9049
H29 H 0.9750 0.3153 0.9857
C37 C 0.9227(6) 0.1732(8) 0.8969(4)
H30 H 0.9352 0.0952 0.9357
H31 H 1.0046 0.1821 0.8630
H32 H 0.8424 0.1547 0.8613
loop_
_geom_bond_atom_site_label_1
_geom_bond_atom_site_label_2
_geom_bond_site_symmetry_1
_geom_bond_site_symmetry_2
N1 C27 1_555 1_555
N2 C27 1_555 1_555
C1 C2 1_555 1_555
C2 H1 1_555 1_555
C3 C2 1_555 1_555
H2 C3 1_555 1_555
C4 C3 1_555 1_555
C5 C4 1_555 1_555
H3 C5 1_555 1_555
C6 C1 1_555 1_555
H4 C6 1_555 1_555
C7 C4 1_555 1_555
C8 C7 1_555 1_555
C9 C8 1_555 1_555
C10 C9 1_555 1_555
H5 C10 1_555 1_555
C11 C10 1_555 1_555
H6 C11 1_555 1_555
C12 C11 1_555 1_555
H7 C12 1_555 1_555
C13 C12 1_555 1_555
H8 C13 1_555 1_555
C14 C9 1_555 1_555
H9 C14 1_555 1_555
C15 C8 1_555 1_555
C16 C15 1_555 1_555
H10 C16 1_555 1_555
C17 C16 1_555 1_555
H11 C17 1_555 1_555
C18 C17 1_555 1_555
H12 C18 1_555 1_555
C19 C18 1_555 1_555
H13 C19 1_555 1_555
C20 C15 1_555 1_555
H14 C20 1_555 1_555
C21 C7 1_555 1_555
C22 C21 1_555 1_555
H15 C22 1_555 1_555
C23 C22 1_555 1_555
H16 C23 1_555 1_555
C24 C23 1_555 1_555
H17 C24 1_555 1_555
C25 C24 1_555 1_555
H18 C25 1_555 1_555
C26 C21 1_555 1_555
H19 C26 1_555 1_555
C27 C1 1_555 1_555
C28 N2 1_555 1_555
C29 N1 1_555 1_555
C30 C29 1_555 1_555
H20 C30 1_555 1_555
C31 C30 1_555 1_555
H21 C31 1_555 1_555
C32 C31 1_555 1_555
H22 C32 1_555 1_555
C33 C28 1_555 1_555
H23 C33 1_555 1_555
C34 N1 1_555 1_555
H24 C34 1_555 1_555
H25 C34 1_555 1_555
C35 C34 1_555 1_555
H26 C35 1_555 1_555
H27 C35 1_555 1_555
C36 C35 1_555 1_555
H28 C36 1_555 1_555
H29 C36 1_555 1_555
C37 C36 1_555 1_555
H30 C37 1_555 1_555
H31 C37 1_555 1_555
H32 C37 1_555 1_555
C5 C6 1_555 1_555
C13 C14 1_555 1_555
C19 C20 1_555 1_555
C25 C26 1_555 1_555
C28 C29 1_555 1_555
C32 C33 1_555 1_555

#END
