
#######################################################################
#
#                 Cambridge Crystallographic Data Centre
#                                CCDC 
#
#######################################################################
#
# If this CIF has been generated from an entry in the Cambridge 
# Structural Database, then it will include bibliographic, chemical, 
# crystal, experimental, refinement or atomic coordinate data resulting 
# from the CCDC's data processing and validation procedures.
#
#######################################################################

data_VEDMEZ
_chemical_formula_moiety         'C17 H17 N4 1+,C7 H3 N2 O7 1-'
_chemical_name_systematic        
'1-(3-(1H-benzimidazol-1-yl)propyl)-1H-benzimidazol-3-ium 2-hydroxy-3,5-dinitrobenzoate'
_symmetry_cell_setting           triclinic
_symmetry_space_group_name_H-M   'P -1'
_symmetry_Int_Tables_number      2
_space_group_name_Hall           '-P 1'
loop_
_symmetry_equiv_pos_site_id
_symmetry_equiv_pos_as_xyz
1 x,y,z
2 -x,-y,-z
_cell_length_a                   7.5617(7)
_cell_length_b                   22.1146(11)
_cell_length_c                   22.4008(12)
_cell_angle_alpha                113.684(5)
_cell_angle_beta                 93.725(6)
_cell_angle_gamma                99.628(6)
_cell_volume                     3345.7
_exptl_crystal_colour            colorless
_exptl_crystal_description       block
_cell_formula_units_Z            6
loop_
_atom_site_label
_atom_site_type_symbol
_atom_site_fract_x
_atom_site_fract_y
_atom_site_fract_z
N1 N 0.0877(4) 0.49216(13) 0.16165(13)
N2 N -0.0342(4) 0.38430(14) 0.12079(14)
H1 H -0.0569 0.3429 0.1155
N3 N 0.5717(4) 0.52412(12) 0.18717(13)
N4 N 0.6653(4) 0.45356(13) 0.22377(14)
C1 C 0.1979(5) 0.55807(16) 0.20737(16)
H2 H 0.2587 0.5531 0.2441
H3 H 0.1182 0.5891 0.2247
C2 C 0.3392(5) 0.58852(16) 0.17651(16)
H4 H 0.2765 0.5988 0.1437
H5 H 0.4077 0.6310 0.2105
C3 C 0.4722(5) 0.54597(17) 0.14407(17)
H6 H 0.4067 0.5063 0.1060
H7 H 0.5586 0.5717 0.1284
C4 C 0.0849(5) 0.43409(17) 0.16713(18)
H8 H 0.1576 0.4295 0.1995
C5 C -0.1168(5) 0.41028(17) 0.08196(17)
C6 C -0.0419(5) 0.47897(16) 0.10842(15)
C7 C -0.0979(5) 0.52091(18) 0.08268(17)
H9 H -0.0478 0.5670 0.1007
C8 C -0.2315(5) 0.4909(2) 0.02910(18)
H10 H -0.2736 0.5173 0.0102
C9 C -0.3068(5) 0.4211(2) 0.00188(18)
H11 H -0.3969 0.4026 -0.0346
C10 C -0.2502(5) 0.37970(19) 0.02787(18)
H12 H -0.2993 0.3336 0.0099
C11 C 0.5566(5) 0.45938(16) 0.17909(17)
H13 H 0.4778 0.4229 0.1455
C12 C 0.7597(5) 0.51873(16) 0.26474(16)
C13 C 0.7025(5) 0.56372(15) 0.24212(16)
C14 C 0.7736(5) 0.63220(17) 0.27159(18)
H14 H 0.7362 0.6616 0.2557
C15 C 0.9035(6) 0.65443(19) 0.3261(2)
H15 H 0.9552 0.7003 0.3475
C16 C 0.9600(6) 0.6111(2) 0.35019(19)
H16 H 1.0465 0.6286 0.3877
C17 C 0.8906(5) 0.5422(2) 0.31971(18)
H17 H 0.9299 0.5130 0.3354
N5 N 0.0356(4) 0.18410(13) 0.14817(14)
N6 N -0.0622(4) 0.25644(14) 0.11432(15)
N7 N 0.5141(4) 0.21864(13) 0.17102(14)
N8 N 0.6331(4) 0.32752(14) 0.21730(15)
H18 H 0.6530 0.3696 0.2251
C18 C 0.1390(5) 0.16033(19) 0.18865(18)
H19 H 0.0550 0.1330 0.2035
H20 H 0.2054 0.1991 0.2274
C19 C 0.2712(5) 0.11933(18) 0.15305(19)
H21 H 0.2027 0.0777 0.1180
H22 H 0.3377 0.1073 0.1837
C20 C 0.4068(5) 0.15393(17) 0.12355(17)
H23 H 0.4880 0.1243 0.1037
H24 H 0.3419 0.1608 0.0888
C21 C 0.0450(5) 0.24914(17) 0.15820(18)
H25 H 0.1207 0.2854 0.1931
C22 C -0.1508(5) 0.19107(17) 0.07182(17)
C23 C -0.0923(5) 0.14528(16) 0.09292(17)
C24 C -0.1603(6) 0.07674(18) 0.0608(2)
H26 H -0.1222 0.0467 0.0756
C25 C -0.2862(6) 0.0551(2) 0.0062(2)
H27 H -0.3345 0.0091 -0.0167
C26 C -0.3452(6) 0.0995(2) -0.0165(2)
H28 H -0.4303 0.0826 -0.0543
C27 C -0.2789(6) 0.1682(2) 0.01637(19)
H29 H -0.3189 0.1981 0.0017
C28 C 0.5162(5) 0.27866(18) 0.16957(19)
H30 H 0.4434 0.2850 0.1384
C29 C 0.7183(5) 0.29928(16) 0.25267(17)
C30 C 0.6433(5) 0.22969(15) 0.22338(16)
C31 C 0.7050(5) 0.18597(17) 0.24591(17)
H31 H 0.6579 0.1397 0.2259
C32 C 0.8400(5) 0.21476(18) 0.29945(17)
H32 H 0.8846 0.1871 0.3162
C33 C 0.9117(6) 0.2841(2) 0.32924(18)
H33 H 1.0019 0.3013 0.3656
C34 C 0.8534(5) 0.32769(18) 0.30672(18)
H34 H 0.9020 0.3739 0.3267
N9 N 0.7442(4) 0.11985(13) 0.46963(13)
N10 N 0.6440(4) 0.01092(14) 0.44248(14)
N11 N 1.2234(4) 0.15939(13) 0.49081(13)
N12 N 1.3392(4) 0.10099(13) 0.53730(14)
H35 H 1.3592 0.0675 0.5450
C35 C 0.8455(5) 0.18903(16) 0.50836(16)
H36 H 0.9117 0.1911 0.5479
H37 H 0.7600 0.2185 0.5219
C36 C 0.9778(5) 0.21545(16) 0.47218(17)
H38 H 0.9090 0.2200 0.4367
H39 H 1.0435 0.2603 0.5024
C37 C 1.1144(5) 0.17303(17) 0.44334(16)
H40 H 1.0503 0.1303 0.4086
H41 H 1.1950 0.1960 0.4235
C38 C 0.7557(5) 0.06680(18) 0.48348(18)
H42 H 0.8346 0.0694 0.5185
C39 C 0.5493(5) 0.02740(17) 0.39796(17)
C40 C 0.6123(5) 0.09652(16) 0.41504(16)
C41 C 0.5391(5) 0.12914(19) 0.38156(17)
H43 H 0.5783 0.1752 0.3940
C42 C 0.4059(6) 0.0903(2) 0.32909(19)
H44 H 0.3552 0.1105 0.3048
C43 C 0.3442(6) 0.0212(2) 0.31112(19)
H45 H 0.2533 -0.0035 0.2753
C44 C 0.4150(6) -0.0110(2) 0.34513(19)
H46 H 0.3738 -0.0570 0.3330
C45 C 1.2237(5) 0.09826(17) 0.48998(18)
H47 H 1.1496 0.0584 0.4590
C46 C 1.4238(5) 0.16828(17) 0.57276(17)
C47 C 1.3532(5) 0.20602(16) 0.54350(16)
C48 C 1.4138(5) 0.27502(17) 0.56738(18)
H48 H 1.3682 0.3002 0.5477
C49 C 1.5446(6) 0.30426(19) 0.62151(19)
H49 H 1.5882 0.3507 0.6391
C50 C 1.6149(6) 0.2678(2) 0.65120(19)
H50 H 1.7037 0.2902 0.6880
C51 C 1.5563(5) 0.19897(19) 0.62734(17)
H51 H 1.6038 0.1742 0.6471
N13 N 1.1357(5) 0.7678(2) 0.19523(17)
N14 N 0.9761(7) 0.92006(18) 0.1028(2)
O1 O 0.6629(4) 0.68297(14) -0.06604(13)
O2 O 0.7404(4) 0.61491(12) -0.02447(13)
O3 O 0.9318(7) 0.6600(2) 0.0813(2)
H52 H 0.8681 0.6332 0.0466
O4 O 1.1186(6) 0.7108(2) 0.19311(17)
O5 O 1.2257(5) 0.81789(19) 0.24030(16)
O6 O 1.0732(6) 0.96660(16) 0.14928(19)
O7 O 0.8847(6) 0.92839(17) 0.0599(2)
C52 C 0.7427(5) 0.67306(18) -0.02182(17)
C53 C 0.8514(5) 0.73194(16) 0.03612(16)
C54 C 0.9424(5) 0.72071(17) 0.08644(17)
C55 C 1.0431(5) 0.77646(18) 0.14089(17)
C56 C 1.0579(5) 0.84111(18) 0.14525(18)
H53 H 1.1292 0.8776 0.1811
C57 C 0.9658(6) 0.85110(17) 0.09597(19)
C58 C 0.8615(5) 0.79743(18) 0.04121(18)
H54 H 0.7995 0.8050 0.0085
N15 N 0.8275(5) 0.5560(2) 0.51607(19)
N16 N 0.5586(7) 0.3158(2) 0.4258(2)
O9 O 0.3524(4) 0.51172(15) 0.32229(15)
O10 O 0.2551(5) 0.40091(16) 0.27516(15)
O11 O 0.5779(6) 0.56489(19) 0.4200(2)
H57 H 0.5062 0.5597 0.3884
O12 O 0.8524(7) 0.6094(2) 0.5112(2)
O13 O 0.9047(5) 0.5482(2) 0.56143(16)
O14 O 0.6674(6) 0.3113(2) 0.46492(19)
O15 O 0.4366(7) 0.2687(2) 0.3884(3)
C59 C 0.3492(6) 0.4528(2) 0.31898(19)
C60 C 0.4701(5) 0.44795(16) 0.37149(16)
C61 C 0.5881(5) 0.50616(17) 0.41873(17)
C62 C 0.7002(5) 0.4982(2) 0.46620(17)
C63 C 0.6904(6) 0.4363(2) 0.46866(19)
H58 H 0.7641 0.4322 0.5011
C64 C 0.5695(6) 0.3808(2) 0.42228(19)
C65 C 0.4608(5) 0.38536(18) 0.37299(18)
H59 H 0.3825 0.3471 0.3413
N17 N 0.0501(6) 0.1081(2) 0.64215(19)
N18 N 0.2656(7) -0.0073(2) 0.7716(2)
O17 O 0.5567(5) 0.23238(17) 0.90086(17)
O18 O 0.4508(6) 0.28907(17) 0.85710(16)
O19 O 0.2495(5) 0.22895(15) 0.74334(16)
H62 H 0.1811 0.2197 0.7095
O20 O 0.0483(4) 0.16567(14) 0.64007(13)
O21 O -0.0303(4) 0.05290(15) 0.59863(14)
O22 O 0.1620(6) -0.05903(17) 0.73155(19)
O23 O 0.3664(6) -0.00585(17) 0.81713(18)
C66 C 0.4643(5) 0.23559(19) 0.85695(17)
C67 C 0.3636(5) 0.17413(18) 0.80420(17)
C68 C 0.2593(5) 0.17450(16) 0.74987(17)
C69 C 0.1608(5) 0.11195(16) 0.70226(16)
C70 C 0.1617(5) 0.05221(18) 0.70836(18)
H63 H 0.0950 0.0113 0.6765
C71 C 0.2661(6) 0.05516(18) 0.76377(18)
C72 C 0.3676(5) 0.11436(19) 0.81032(18)
H64 H 0.4390 0.1147 0.8459
O8? O 0.7677(10) 0.8082(3) -0.0030(3)
H55? H 0.7131 0.7720 -0.0321
H56? H 0.9354 0.6772 0.0834
O16? O 0.3488(12) 0.3328(4) 0.3277(4)
H60? H 0.2949 0.3445 0.3026
H61? H 0.5916 0.5483 0.4185
loop_
_geom_bond_atom_site_label_1
_geom_bond_atom_site_label_2
_geom_bond_site_symmetry_1
_geom_bond_site_symmetry_2
N1 C1 1_555 1_555
N2 H1 1_555 1_555
N3 C3 1_555 1_555
N4 C11 1_555 1_555
C1 H2 1_555 1_555
H3 C1 1_555 1_555
C2 C1 1_555 1_555
H4 C2 1_555 1_555
H5 C2 1_555 1_555
C3 C2 1_555 1_555
H6 C3 1_555 1_555
H7 C3 1_555 1_555
C4 N1 1_555 1_555
H8 C4 1_555 1_555
C5 N2 1_555 1_555
C6 N1 1_555 1_555
C7 C6 1_555 1_555
H9 C7 1_555 1_555
C8 C7 1_555 1_555
H10 C8 1_555 1_555
C9 C8 1_555 1_555
H11 C9 1_555 1_555
C10 C5 1_555 1_555
H12 C10 1_555 1_555
C11 N3 1_555 1_555
H13 C11 1_555 1_555
C12 N4 1_555 1_555
C13 N3 1_555 1_555
C14 C13 1_555 1_555
H14 C14 1_555 1_555
C15 C14 1_555 1_555
H15 C15 1_555 1_555
C16 C15 1_555 1_555
H16 C16 1_555 1_555
C17 C12 1_555 1_555
H17 C17 1_555 1_555
N5 C18 1_555 1_555
N6 C21 1_555 1_555
N7 C20 1_555 1_555
N8 H18 1_555 1_555
C18 H19 1_555 1_555
H20 C18 1_555 1_555
C19 C18 1_555 1_555
H21 C19 1_555 1_555
H22 C19 1_555 1_555
C20 C19 1_555 1_555
H23 C20 1_555 1_555
H24 C20 1_555 1_555
C21 N5 1_555 1_555
H25 C21 1_555 1_555
C22 N6 1_555 1_555
C23 N5 1_555 1_555
C24 C23 1_555 1_555
H26 C24 1_555 1_555
C25 C24 1_555 1_555
H27 C25 1_555 1_555
C26 C25 1_555 1_555
H28 C26 1_555 1_555
C27 C22 1_555 1_555
H29 C27 1_555 1_555
C28 N7 1_555 1_555
H30 C28 1_555 1_555
C29 N8 1_555 1_555
C30 N7 1_555 1_555
C31 C30 1_555 1_555
H31 C31 1_555 1_555
C32 C31 1_555 1_555
H32 C32 1_555 1_555
C33 C32 1_555 1_555
H33 C33 1_555 1_555
C34 C29 1_555 1_555
H34 C34 1_555 1_555
N9 C35 1_555 1_555
N10 C38 1_555 1_555
N11 C37 1_555 1_555
N12 H35 1_555 1_555
C35 H36 1_555 1_555
H37 C35 1_555 1_555
C36 C35 1_555 1_555
H38 C36 1_555 1_555
H39 C36 1_555 1_555
C37 C36 1_555 1_555
H40 C37 1_555 1_555
H41 C37 1_555 1_555
C38 N9 1_555 1_555
H42 C38 1_555 1_555
C39 N10 1_555 1_555
C40 N9 1_555 1_555
C41 C40 1_555 1_555
H43 C41 1_555 1_555
C42 C41 1_555 1_555
H44 C42 1_555 1_555
C43 C42 1_555 1_555
H45 C43 1_555 1_555
C44 C39 1_555 1_555
H46 C44 1_555 1_555
C45 N11 1_555 1_555
H47 C45 1_555 1_555
C46 N12 1_555 1_555
C47 N11 1_555 1_555
C48 C47 1_555 1_555
H48 C48 1_555 1_555
C49 C48 1_555 1_555
H49 C49 1_555 1_555
C50 C49 1_555 1_555
H50 C50 1_555 1_555
C51 C46 1_555 1_555
H51 C51 1_555 1_555
N13 O4 1_555 1_555
N14 O6 1_555 1_555
O1 C52 1_555 1_555
O2 C52 1_555 1_555
O3 H52 1_555 1_555
O5 N13 1_555 1_555
O7 N14 1_555 1_555
C52 C53 1_555 1_555
C53 C54 1_555 1_555
C54 O3 1_555 1_555
C55 N13 1_555 1_555
C56 C55 1_555 1_555
H53 C56 1_555 1_555
C57 N14 1_555 1_555
C58 C53 1_555 1_555
H54 C58 1_555 1_555
N15 O12 1_555 1_555
N16 O14 1_555 1_555
O9 C59 1_555 1_555
O10 C59 1_555 1_555
O11 H57 1_555 1_555
O13 N15 1_555 1_555
O15 N16 1_555 1_555
C59 C60 1_555 1_555
C60 C61 1_555 1_555
C61 O11 1_555 1_555
C62 N15 1_555 1_555
C63 C62 1_555 1_555
H58 C63 1_555 1_555
C64 N16 1_555 1_555
C65 C60 1_555 1_555
H59 C65 1_555 1_555
N17 O20 1_555 1_555
N18 O22 1_555 1_555
O17 C66 1_555 1_555
O18 C66 1_555 1_555
O19 H62 1_555 1_555
O21 N17 1_555 1_555
O23 N18 1_555 1_555
C66 C67 1_555 1_555
C67 C68 1_555 1_555
C68 O19 1_555 1_555
C69 N17 1_555 1_555
C70 C69 1_555 1_555
H63 C70 1_555 1_555
C71 N18 1_555 1_555
C72 C67 1_555 1_555
H64 C72 1_555 1_555
N2 C4 1_555 1_555
C5 C6 1_555 1_555
C9 C10 1_555 1_555
C12 C13 1_555 1_555
C16 C17 1_555 1_555
N8 C28 1_555 1_555
C22 C23 1_555 1_555
C26 C27 1_555 1_555
C29 C30 1_555 1_555
C33 C34 1_555 1_555
N12 C45 1_555 1_555
C39 C40 1_555 1_555
C43 C44 1_555 1_555
C46 C47 1_555 1_555
C50 C51 1_555 1_555
C54 C55 1_555 1_555
C56 C57 1_555 1_555
C57 C58 1_555 1_555
C61 C62 1_555 1_555
C63 C64 1_555 1_555
C64 C65 1_555 1_555
C68 C69 1_555 1_555
C70 C71 1_555 1_555
C71 C72 1_555 1_555

#END
