
#######################################################################
#
#                 Cambridge Crystallographic Data Centre
#                                CCDC 
#
#######################################################################
#
# If this CIF has been generated from an entry in the Cambridge 
# Structural Database, then it will include bibliographic, chemical, 
# crystal, experimental, refinement or atomic coordinate data resulting 
# from the CCDC's data processing and validation procedures.
#
#######################################################################

data_VEDQEB
_chemical_formula_moiety         'C57 H63 Mg2 N3 O8,3(C4 H8 O1)'
_chemical_name_systematic        
"(\m~2~-4-Nitrophenoxo)-(\m~2~-2,6-bis(2-(oxy(diphenyl)methyl)-pyrrolidin-1-ylmethyl)-4-methylphenolato-N,N',O,O,O',O'')-bis(tetrahydrofuran)-di-magnesium tetrahydrofuran solvate"
_symmetry_cell_setting           trigonal
_symmetry_space_group_name_H-M   'P 32'
_symmetry_Int_Tables_number      145
_space_group_name_Hall           'P 32'
loop_
_symmetry_equiv_pos_site_id
_symmetry_equiv_pos_as_xyz
1 x,y,z
2 -y,x-y,2/3+z
3 -x+y,-x,1/3+z
_cell_length_a                   17.6827(10)
_cell_length_b                   17.6827(10)
_cell_length_c                   19.4624(16)
_cell_angle_alpha                90
_cell_angle_beta                 90
_cell_angle_gamma                120
_cell_volume                     5270.16
_exptl_crystal_colour            yellow
_exptl_crystal_description       block
_cell_formula_units_Z            3
loop_
_atom_site_label
_atom_site_type_symbol
_atom_site_fract_x
_atom_site_fract_y
_atom_site_fract_z
Mg1 Mg 0.67697(16) 1.02696(17) 0.08115(14)
Mg2 Mg 0.64993(16) 0.97280(17) 0.23475(14)
O1 O 0.7337(3) 1.0003(4) 0.1584(3)
O2 O 0.5903(3) 1.0005(3) 0.1586(3)
O3 O 0.6822(4) 1.1272(4) 0.0414(3)
O4 O 0.5553(3) 0.8738(4) 0.2742(3)
O5 O 0.6006(3) 0.9095(4) 0.0343(3)
O6 O 0.6922(4) 1.0898(4) 0.2816(3)
O7 O 0.2607(7) 1.0312(10) 0.1079(7)
O8 O 0.2293(7) 0.9660(9) 0.2061(7)
N1 N 0.7979(4) 1.0724(4) 0.0167(3)
N2 N 0.7254(4) 0.9277(4) 0.2982(3)
N3 N 0.2758(6) 0.9989(8) 0.1591(8)
C1 C 0.8116(5) 1.0008(6) 0.1586(4)
C2 C 0.8234(5) 0.9457(5) 0.2023(4)
C3 C 0.9034(6) 0.9456(6) 0.2023(5)
H1 H 0.9116 0.9094 0.2322
C4 C 0.9693(6) 0.9996(8) 0.1576(5)
C5 C 0.9598(5) 1.0550(6) 0.1154(5)
H2 H 1.0050 1.0921 0.0864
C6 C 0.8782(5) 1.0560(5) 0.1160(4)
C7 C 1.0555(5) 0.9988(7) 0.1570(6)
H3 H 1.0461 0.9449 0.1375
H4 H 1.0767 1.0041 0.2032
H5 H 1.0977 1.0468 0.1300
C8 C 0.8680(5) 1.1193(6) 0.0697(4)
H6 H 0.8536 1.1559 0.0974
H7 H 0.9231 1.1568 0.0468
C9 C 0.8118(6) 1.0131(6) -0.0253(5)
H8 H 0.7939 0.9588 -0.0011
H9 H 0.8729 1.0390 -0.0378
C10 C 0.7575(7) 0.9978(7) -0.0869(5)
H10 H 0.7055 0.9406 -0.0848
H11 H 0.7899 1.0009 -0.1280
C11 C 0.7332(7) 1.0676(7) -0.0878(4)
H12 H 0.6718 1.0436 -0.0771
H13 H 0.7450 1.0956 -0.1325
C12 C 0.7899(6) 1.1317(6) -0.0332(4)
H14 H 0.8473 1.1734 -0.0522
C13 C 0.7461(6) 1.1809(6) -0.0007(5)
C14 C 0.8161(7) 1.2657(6) 0.0392(5)
C15 C 0.7898(8) 1.2899(8) 0.0949(6)
H15 H 0.7326 1.2554 0.1099
C16 C 0.8457(12) 1.3655(10) 0.1312(7)
H16 H 0.8250 1.3815 0.1693
C17 C 0.9271(14) 1.4139(10) 0.1121(8)
H17 H 0.9629 1.4663 0.1346
C18 C 0.9576(8) 1.3900(8) 0.0629(9)
H18 H 1.0173 1.4209 0.0540
C19 C 0.9014(7) 1.3158(7) 0.0206(5)
H19 H 0.9229 1.3025 -0.0183
C20 C 0.7147(6) 1.2152(6) -0.0589(5)
C21 C 0.7633(7) 1.2723(7) -0.1102(6)
H20 H 0.8236 1.2967 -0.1092
C22 C 0.7285(8) 1.2938(8) -0.1602(5)
H21 H 0.7648 1.3280 -0.1956
C23 C 0.6437(8) 1.2697(9) -0.1636(7)
H22 H 0.6212 1.2889 -0.1984
C24 C 0.5920(11) 1.2144(10) -0.1122(7)
H23 H 0.5322 1.1938 -0.1125
C25 C 0.6275(6) 1.1894(8) -0.0607(6)
H24 H 0.5914 1.1538 -0.0258
C26 C 0.5196(8) 0.8876(9) 0.0045(8)
H25 H 0.5280 0.9244 -0.0351
H26 H 0.4829 0.8953 0.0375
C27 C 0.4797(11) 0.7971(11) -0.0162(8)
H27 H 0.4204 0.7651 0.0013
H28 H 0.4771 0.7932 -0.0659
C28 C 0.5273(10) 0.7602(10) 0.0088(8)
H29 H 0.5497 0.7413 -0.0289
H30 H 0.4906 0.7099 0.0373
C29 C 0.6021(7) 0.8297(7) 0.0509(8)
H31 H 0.5926 0.8168 0.0997
H32 H 0.6572 0.8345 0.0378
C30 C 0.7498(5) 0.8830(5) 0.2494(4)
H33 H 0.6993 0.8446 0.2217
H34 H 0.7682 0.8471 0.2738
C31 C 0.8000(6) 0.9861(7) 0.3425(5)
H35 H 0.8371 1.0410 0.3193
H36 H 0.8347 0.9591 0.3536
C32 C 0.7614(8) 1.0011(7) 0.4075(6)
H37 H 0.7905 0.9959 0.4480
H38 H 0.7673 1.0586 0.4071
C33 C 0.6674(8) 0.9315(8) 0.4068(6)
H39 H 0.6304 0.9562 0.3969
H40 H 0.6503 0.9019 0.4509
C34 C 0.6599(6) 0.8685(6) 0.3503(5)
H41 H 0.6774 0.8277 0.3683
C35 C 0.5654(5) 0.8157(6) 0.3179(5)
C36 C 0.4972(6) 0.7832(6) 0.3750(5)
C37 C 0.4388(9) 0.8102(8) 0.3764(7)
H42 H 0.4373 0.8459 0.3420
C38 C 0.3815(12) 0.7834(11) 0.4300(9)
H43 H 0.3401 0.8012 0.4300
C39 C 0.3797(10) 0.7318(9) 0.4846(7)
H44 H 0.3406 0.7172 0.5209
C40 C 0.4374(9) 0.7045(8) 0.4815(7)
H45 H 0.4390 0.6688 0.5159
C41 C 0.4941(7) 0.7292(7) 0.4277(5)
H46 H 0.5332 0.7085 0.4262
C42 C 0.5527(6) 0.7355(6) 0.2759(5)
C43 C 0.5869(6) 0.6806(7) 0.2975(5)
H47 H 0.6198 0.6920 0.3373
C44 C 0.5679(10) 0.6088(8) 0.2550(8)
H48 H 0.5928 0.5747 0.2654
C45 C 0.5165(10) 0.5882(10) 0.2014(7)
H49 H 0.5026 0.5377 0.1770
C46 C 0.4842(10) 0.6372(10) 0.1815(7)
H50 H 0.4500 0.6217 0.1420
C47 C 0.4996(8) 0.7123(8) 0.2180(6)
H51 H 0.4751 0.7455 0.2037
C48 C 0.7720(6) 1.1709(6) 0.2627(6)
H52 H 0.7760 1.1786 0.2132
H53 H 0.8234 1.1700 0.2790
C49 C 0.7642(10) 1.2423(10) 0.2967(8)
H54 H 0.8084 1.2698 0.3321
H55 H 0.7719 1.2863 0.2633
C50 C 0.6799(13) 1.2038(13) 0.3259(10)
H56 H 0.6489 1.2315 0.3072
H57 H 0.6849 1.2134 0.3752
C51 C 0.6296(9) 1.1090(9) 0.3118(7)
H58 H 0.6060 1.0762 0.3540
H59 H 0.5820 1.0953 0.2803
C52 C 0.5135(5) 0.9999(5) 0.1591(4)
C53 C 0.4982(5) 1.0476(6) 0.1088(5)
H60 H 0.5399 1.0785 0.0754
C54 C 0.4213(6) 1.0481(6) 0.1097(5)
H61 H 0.4106 1.0801 0.0772
C55 C 0.3593(5) 1.0006(7) 0.1594(6)
C56 C 0.3730(6) 0.9519(6) 0.2075(4)
H62 H 0.3304 0.9199 0.2401
C57 C 0.4482(5) 0.9511(5) 0.2070(4)
H63 H 0.4572 0.9174 0.2391
O9 O 0.0093(11) 0.2110(11) 0.2736(9)
C58 C 0.0155(14) 0.2903(13) 0.2447(10)
C59 C 0.0002(10) 0.3372(10) 0.3118(8)
C60 C -0.0109(13) 0.2878(12) 0.3811(9)
C61 C -0.0045(11) 0.2073(11) 0.3502(8)
O10 O 0.334(3) 0.215(4) 1.005(2)
C62 C 0.312(3) 0.154(2) 0.950(3)
C63 C 0.338(3) 0.213(3) 0.888(2)
C64 C 0.412(2) 0.296(2) 0.919(2)
C65 C 0.429(2) 0.281(2) 0.995(2)
O11 O 0.095(4) 0.814(4) 0.315(2)
C66 C 0.135(3) 0.819(2) 0.3828(18)
C67 C 0.137(5) 0.728(3) 0.386(3)
C68 C 0.126(3) 0.683(3) 0.311(2)
C69 C 0.128(3) 0.764(3) 0.2752(17)
loop_
_geom_bond_atom_site_label_1
_geom_bond_atom_site_label_2
_geom_bond_site_symmetry_1
_geom_bond_site_symmetry_2
Mg1 O1 1_555 1_555
Mg2 O1 1_555 1_555
O1 C1 1_555 1_555
O2 Mg1 1_555 1_555
O3 Mg1 1_555 1_555
O4 Mg2 1_555 1_555
O5 Mg1 1_555 1_555
O6 Mg2 1_555 1_555
O7 N3 1_555 1_555
O8 N3 1_555 1_555
O9 C58 1_555 1_555
O10 C62 1_555 1_555
O11 C66 1_555 1_555
N1 Mg1 1_555 1_555
N2 Mg2 1_555 1_555
N3 C55 1_555 1_555
C1 C2 1_555 1_555
C2 C3 1_555 1_555
C3 H1 1_555 1_555
C4 C3 1_555 1_555
C5 C4 1_555 1_555
H2 C5 1_555 1_555
C6 C1 1_555 1_555
C7 C4 1_555 1_555
H3 C7 1_555 1_555
H4 C7 1_555 1_555
H5 C7 1_555 1_555
C8 N1 1_555 1_555
H6 C8 1_555 1_555
H7 C8 1_555 1_555
C9 N1 1_555 1_555
H8 C9 1_555 1_555
H9 C9 1_555 1_555
C10 C9 1_555 1_555
H10 C10 1_555 1_555
H11 C10 1_555 1_555
C11 C10 1_555 1_555
H12 C11 1_555 1_555
H13 C11 1_555 1_555
C12 N1 1_555 1_555
H14 C12 1_555 1_555
C13 O3 1_555 1_555
C14 C13 1_555 1_555
C15 C14 1_555 1_555
H15 C15 1_555 1_555
C16 C15 1_555 1_555
H16 C16 1_555 1_555
C17 C16 1_555 1_555
H17 C17 1_555 1_555
C18 C17 1_555 1_555
H18 C18 1_555 1_555
C19 C14 1_555 1_555
H19 C19 1_555 1_555
C20 C13 1_555 1_555
C21 C20 1_555 1_555
H20 C21 1_555 1_555
C22 C21 1_555 1_555
H21 C22 1_555 1_555
C23 C22 1_555 1_555
H22 C23 1_555 1_555
C24 C23 1_555 1_555
H23 C24 1_555 1_555
C25 C20 1_555 1_555
H24 C25 1_555 1_555
C26 O5 1_555 1_555
H25 C26 1_555 1_555
H26 C26 1_555 1_555
C27 C26 1_555 1_555
H27 C27 1_555 1_555
H28 C27 1_555 1_555
C28 C27 1_555 1_555
H29 C28 1_555 1_555
H30 C28 1_555 1_555
C29 O5 1_555 1_555
H31 C29 1_555 1_555
H32 C29 1_555 1_555
C30 N2 1_555 1_555
H33 C30 1_555 1_555
H34 C30 1_555 1_555
C31 N2 1_555 1_555
H35 C31 1_555 1_555
H36 C31 1_555 1_555
C32 C31 1_555 1_555
H37 C32 1_555 1_555
H38 C32 1_555 1_555
C33 C32 1_555 1_555
H39 C33 1_555 1_555
H40 C33 1_555 1_555
C34 N2 1_555 1_555
H41 C34 1_555 1_555
C35 O4 1_555 1_555
C36 C35 1_555 1_555
C37 C36 1_555 1_555
H42 C37 1_555 1_555
C38 C37 1_555 1_555
H43 C38 1_555 1_555
C39 C38 1_555 1_555
H44 C39 1_555 1_555
C40 C39 1_555 1_555
H45 C40 1_555 1_555
C41 C36 1_555 1_555
H46 C41 1_555 1_555
C42 C35 1_555 1_555
C43 C42 1_555 1_555
H47 C43 1_555 1_555
C44 C43 1_555 1_555
H48 C44 1_555 1_555
C45 C44 1_555 1_555
H49 C45 1_555 1_555
C46 C45 1_555 1_555
H50 C46 1_555 1_555
C47 C42 1_555 1_555
H51 C47 1_555 1_555
C48 O6 1_555 1_555
H52 C48 1_555 1_555
H53 C48 1_555 1_555
C49 C48 1_555 1_555
H54 C49 1_555 1_555
H55 C49 1_555 1_555
C50 C49 1_555 1_555
H56 C50 1_555 1_555
H57 C50 1_555 1_555
C51 O6 1_555 1_555
H58 C51 1_555 1_555
H59 C51 1_555 1_555
C52 O2 1_555 1_555
C53 C52 1_555 1_555
H60 C53 1_555 1_555
C54 C53 1_555 1_555
H61 C54 1_555 1_555
C55 C54 1_555 1_555
C56 C55 1_555 1_555
H62 C56 1_555 1_555
C57 C52 1_555 1_555
H63 C57 1_555 1_555
C58 C59 1_555 1_555
C59 C60 1_555 1_555
C60 C61 1_555 1_555
C61 O9 1_555 1_555
C62 C63 1_555 1_555
C63 C64 1_555 1_555
C64 C65 1_555 1_555
C65 O10 1_555 1_555
C66 C67 1_555 1_555
C67 C68 1_555 1_555
C68 C69 1_555 1_555
C69 O11 1_555 1_555
Mg2 O2 1_555 1_555
C2 C30 1_555 1_555
C5 C6 1_555 1_555
C6 C8 1_555 1_555
C11 C12 1_555 1_555
C12 C13 1_555 1_555
C18 C19 1_555 1_555
C24 C25 1_555 1_555
C28 C29 1_555 1_555
C33 C34 1_555 1_555
C34 C35 1_555 1_555
C40 C41 1_555 1_555
C46 C47 1_555 1_555
C50 C51 1_555 1_555
C56 C57 1_555 1_555

#END
