
#######################################################################
#
#                 Cambridge Crystallographic Data Centre
#                                CCDC 
#
#######################################################################
#
# If this CIF has been generated from an entry in the Cambridge 
# Structural Database, then it will include bibliographic, chemical, 
# crystal, experimental, refinement or atomic coordinate data resulting 
# from the CCDC's data processing and validation procedures.
#
#######################################################################

data_VEDVEI
_chemical_formula_moiety         'C26 H30 N2 O6 S1'
_chemical_name_systematic        
'diethyl 3-methylidene-4-[(2,4,6-trimethylphenyl)sulfonyl]-3,3a,4,8b-tetrahydropyrrolo[3,2-b]indole-2,2(1H)-dicarboxylate'
_symmetry_cell_setting           triclinic
_symmetry_space_group_name_H-M   'P -1'
_symmetry_Int_Tables_number      2
_space_group_name_Hall           '-P 1'
loop_
_symmetry_equiv_pos_site_id
_symmetry_equiv_pos_as_xyz
1 x,y,z
2 -x,-y,-z
_cell_length_a                   8.6760(8)
_cell_length_b                   10.2291(11)
_cell_length_c                   15.0456(19)
_cell_angle_alpha                88.703(8)
_cell_angle_beta                 82.757(7)
_cell_angle_gamma                70.564(6)
_cell_volume                     1248.86
_exptl_crystal_colour            colorless
_exptl_crystal_description       Prism
_cell_formula_units_Z            2
loop_
_atom_site_label
_atom_site_type_symbol
_atom_site_fract_x
_atom_site_fract_y
_atom_site_fract_z
S1 S 0.70855(3) 0.59884(3) 0.331842(18)
O1 O 0.71162(11) 0.49900(9) 0.26553(6)
O2 O 0.84840(11) 0.56760(9) 0.38002(6)
O3 O 0.23323(10) 1.12851(9) 0.08790(6)
O4 O 0.26403(10) 1.25021(8) 0.20368(6)
O5 O 0.63720(11) 1.11885(9) 0.25995(6)
O6 O 0.62622(11) 1.18175(9) 0.11540(6)
N1 N 0.68828(11) 0.75158(10) 0.28463(6)
N2 N 0.54565(11) 0.93763(9) 0.09261(6)
C1 C 0.52231(14) 0.64196(12) 0.40635(7)
C2 C 0.50416(16) 0.73568(13) 0.47780(8)
C3 C 0.35454(17) 0.77769(14) 0.53360(8)
H1 H 0.3398 0.8414 0.5815
C4 C 0.22652(16) 0.72975(14) 0.52171(9)
C5 C 0.25010(15) 0.63506(14) 0.45287(9)
H2 H 0.1638 0.5999 0.4457
C6 C 0.39612(15) 0.58872(12) 0.39316(8)
C7 C 0.40252(17) 0.48623(14) 0.32079(9)
H3 H 0.2991 0.4658 0.3276
H4 H 0.4946 0.4005 0.3260
H5 H 0.4181 0.5260 0.2618
C8 C 0.63392(19) 0.79542(17) 0.49732(10)
H6 H 0.5889 0.8636 0.5467
H7 H 0.6674 0.8406 0.4438
H8 H 0.7298 0.7208 0.5142
C9 C 0.06449(19) 0.78118(18) 0.58208(11)
H9 H 0.0810 0.8196 0.6378
H10 H 0.0230 0.7039 0.5959
H11 H -0.0156 0.8534 0.5517
C10 C 0.83353(14) 0.77696(11) 0.24165(8)
C11 C 0.96966(15) 0.77671(13) 0.28174(9)
H12 H 0.9793 0.7519 0.3425
C12 C 1.09107(16) 0.81443(14) 0.22874(10)
H13 H 1.1866 0.8136 0.2538
C13 C 1.07673(15) 0.85334(13) 0.14023(10)
H14 H 1.1609 0.8800 0.1062
C14 C 0.93906(15) 0.85334(12) 0.10116(8)
H15 H 0.9284 0.8796 0.0407
C15 C 0.81766(14) 0.81394(11) 0.15297(8)
C16 C 0.65456(13) 0.81064(11) 0.12834(7)
H16 H 0.6710 0.7284 0.0890
C17 C 0.56175(13) 0.79826(11) 0.22150(7)
H17 H 0.4994 0.7322 0.2194
C18 C 0.44603(13) 0.94554(11) 0.24439(7)
C19 C 0.33940(14) 0.98540(12) 0.31750(8)
H18 H 0.2707 1.0796 0.3255
H19 H 0.3314 0.9199 0.3621
C20 C 0.47380(13) 1.03723(11) 0.16705(7)
C21 C 0.31011(13) 1.14249(11) 0.14594(7)
C22 C 0.10624(15) 1.35752(12) 0.19495(8)
H20 H 0.0649 1.4118 0.2518
H21 H 0.0248 1.3135 0.1832
C23 C 0.1240(2) 1.45295(14) 0.11978(10)
H22 H 0.2111 1.4907 0.1289
H23 H 0.0197 1.5291 0.1188
H24 H 0.1530 1.4012 0.0626
C24 C 0.58806(13) 1.11704(11) 0.18916(7)
C25 C 0.73971(17) 1.25783(14) 0.12204(9)
H25 H 0.8543 1.1978 0.1026
H26 H 0.7323 1.2887 0.1848
C26 C 0.6923(2) 1.38079(17) 0.06256(11)
H27 H 0.6913 1.3495 0.0016
H28 H 0.7723 1.4297 0.0617
H29 H 0.5824 1.4436 0.0855
H30 H 0.5935(18) 0.9723(15) 0.0456(8)
loop_
_geom_bond_atom_site_label_1
_geom_bond_atom_site_label_2
_geom_bond_site_symmetry_1
_geom_bond_site_symmetry_2
S1 O1 1_555 1_555
O2 S1 1_555 1_555
O3 C21 1_555 1_555
O4 C21 1_555 1_555
O5 C24 1_555 1_555
O6 C24 1_555 1_555
N1 S1 1_555 1_555
N2 C16 1_555 1_555
C1 S1 1_555 1_555
C2 C1 1_555 1_555
C3 C2 1_555 1_555
H1 C3 1_555 1_555
C4 C3 1_555 1_555
C5 C4 1_555 1_555
H2 C5 1_555 1_555
C6 C1 1_555 1_555
C7 C6 1_555 1_555
H3 C7 1_555 1_555
H4 C7 1_555 1_555
H5 C7 1_555 1_555
C8 C2 1_555 1_555
H6 C8 1_555 1_555
H7 C8 1_555 1_555
H8 C8 1_555 1_555
C9 C4 1_555 1_555
H9 C9 1_555 1_555
H10 C9 1_555 1_555
H11 C9 1_555 1_555
C10 N1 1_555 1_555
C11 C10 1_555 1_555
H12 C11 1_555 1_555
C12 C11 1_555 1_555
H13 C12 1_555 1_555
C13 C12 1_555 1_555
H14 C13 1_555 1_555
C14 C13 1_555 1_555
H15 C14 1_555 1_555
C15 C10 1_555 1_555
C16 C15 1_555 1_555
H16 C16 1_555 1_555
C17 N1 1_555 1_555
H17 C17 1_555 1_555
C18 C17 1_555 1_555
C19 C18 1_555 1_555
H18 C19 1_555 1_555
H19 C19 1_555 1_555
C20 N2 1_555 1_555
C21 C20 1_555 1_555
C22 O4 1_555 1_555
H20 C22 1_555 1_555
H21 C22 1_555 1_555
C23 C22 1_555 1_555
H22 C23 1_555 1_555
H23 C23 1_555 1_555
H24 C23 1_555 1_555
C24 C20 1_555 1_555
C25 O6 1_555 1_555
H25 C25 1_555 1_555
H26 C25 1_555 1_555
C26 C25 1_555 1_555
H27 C26 1_555 1_555
H28 C26 1_555 1_555
H29 C26 1_555 1_555
H30 N2 1_555 1_555
C5 C6 1_555 1_555
C14 C15 1_555 1_555
C16 C17 1_555 1_555
C18 C20 1_555 1_555

#END
