
#######################################################################
#
#                 Cambridge Crystallographic Data Centre
#                                CCDC 
#
#######################################################################
#
# If this CIF has been generated from an entry in the Cambridge 
# Structural Database, then it will include bibliographic, chemical, 
# crystal, experimental, refinement or atomic coordinate data resulting 
# from the CCDC's data processing and validation procedures.
#
#######################################################################

data_VEDWIN
_chemical_formula_moiety         'C16 H23 N1 O2'
_chemical_name_systematic        
5,9,9-trimethyl-3-(2-methylpropylidene)-3,5,6,7,8,8a-hexahydro-2H-5,8-methano-1,4-benzoxazin-2-one
_symmetry_cell_setting           monoclinic
_symmetry_space_group_name_H-M   'P 21'
_symmetry_Int_Tables_number      4
_space_group_name_Hall           'P 2yb'
loop_
_symmetry_equiv_pos_site_id
_symmetry_equiv_pos_as_xyz
1 x,y,z
2 -x,1/2+y,-z
_cell_length_a                   9.80751(15)
_cell_length_b                   6.84454(11)
_cell_length_c                   11.2630(2)
_cell_angle_alpha                90
_cell_angle_beta                 105.8327(18)
_cell_angle_gamma                90
_cell_volume                     727.378
_exptl_crystal_colour            colorless
_exptl_crystal_description       block
_cell_formula_units_Z            2
loop_
_atom_site_label
_atom_site_type_symbol
_atom_site_fract_x
_atom_site_fract_y
_atom_site_fract_z
O1 O 0.45882(11) 0.24677(17) 0.43141(10)
O2 O 0.68094(11) 0.28505(18) 0.42681(11)
N1 N 0.36318(13) 0.5087(2) 0.22893(12)
C1 C 0.28069(16) 0.4469(2) 0.29074(14)
C2 C 0.50987(16) 0.4874(2) 0.28910(14)
C3 C 0.55933(16) 0.3373(2) 0.38837(15)
C4 C 0.12337(15) 0.1916(3) 0.28196(14)
C5 C 0.60673(16) 0.5880(3) 0.25000(14)
H1 H 0.701598 0.561848 0.288348
C6 C 0.57527(15) 0.7383(3) 0.15016(14)
H2 H 0.475940 0.725385 0.102378
C7 C 0.19781(15) 0.2329(3) 0.42047(14)
H3 H 0.217842 0.117257 0.473739
C8 C 0.32818(15) 0.3566(3) 0.41763(14)
H4 H 0.343088 0.459123 0.480634
C9 C 0.12370(16) 0.4124(2) 0.24301(14)
C10 C 0.09697(17) 0.3839(3) 0.45348(15)
H5 H 0.145028 0.459689 0.525513
H6 H 0.014747 0.320848 0.468645
C11 C -0.02592(16) 0.1072(3) 0.25823(15)
H7 H -0.021060 -0.018790 0.296659
H8 H -0.067517 0.094177 0.170967
H9 H -0.082963 0.193093 0.292167
C12 C 0.05467(16) 0.5135(3) 0.33622(15)
H10 H 0.090704 0.645299 0.354382
H11 H -0.047553 0.519038 0.303445
C13 C 0.20846(17) 0.0566(3) 0.22023(15)
H12 H 0.301102 0.110798 0.229626
H13 H 0.160449 0.044479 0.134040
H14 H 0.217136 -0.069878 0.258361
C14 C 0.05965(16) 0.4651(3) 0.10919(15)
H15 H 0.068718 0.603195 0.098460
H16 H -0.038800 0.429750 0.085192
H17 H 0.108327 0.395910 0.058835
C15 C 0.59757(18) 0.9417(3) 0.20751(17)
H18 H 0.535335 0.959785 0.259249
H19 H 0.577299 1.038316 0.143282
H20 H 0.694117 0.955026 0.256089
C16 C 0.67005(18) 0.7074(3) 0.06336(16)
H21 H 0.767274 0.728906 0.107911
H22 H 0.643270 0.797728 -0.004207
H23 H 0.658835 0.576119 0.032150
loop_
_geom_bond_atom_site_label_1
_geom_bond_atom_site_label_2
_geom_bond_site_symmetry_1
_geom_bond_site_symmetry_2
O1 C3 1_555 1_555
O2 C3 1_555 1_555
N1 C1 1_555 1_555
C1 C8 1_555 1_555
C2 N1 1_555 1_555
C3 C2 1_555 1_555
C4 C7 1_555 1_555
C5 C2 1_555 1_555
H1 C5 1_555 1_555
C6 C5 1_555 1_555
H2 C6 1_555 1_555
C7 H3 1_555 1_555
C8 O1 1_555 1_555
H4 C8 1_555 1_555
C9 C1 1_555 1_555
C10 C7 1_555 1_555
H5 C10 1_555 1_555
H6 C10 1_555 1_555
C11 C4 1_555 1_555
H7 C11 1_555 1_555
H8 C11 1_555 1_555
H9 C11 1_555 1_555
C12 C9 1_555 1_555
H10 C12 1_555 1_555
H11 C12 1_555 1_555
C13 C4 1_555 1_555
H12 C13 1_555 1_555
H13 C13 1_555 1_555
H14 C13 1_555 1_555
C14 C9 1_555 1_555
H15 C14 1_555 1_555
H16 C14 1_555 1_555
H17 C14 1_555 1_555
C15 C6 1_555 1_555
H18 C15 1_555 1_555
H19 C15 1_555 1_555
H20 C15 1_555 1_555
C16 C6 1_555 1_555
H21 C16 1_555 1_555
H22 C16 1_555 1_555
H23 C16 1_555 1_555
C4 C9 1_555 1_555
C7 C8 1_555 1_555
C10 C12 1_555 1_555

#END
