
#######################################################################
#
#                 Cambridge Crystallographic Data Centre
#                                CCDC 
#
#######################################################################
#
# If this CIF has been generated from an entry in the Cambridge 
# Structural Database, then it will include bibliographic, chemical, 
# crystal, experimental, refinement or atomic coordinate data resulting 
# from the CCDC's data processing and validation procedures.
#
#######################################################################

data_VEDYUB
_chemical_formula_moiety         'C20 H15 Br2 N1 O3 S1'
_chemical_name_systematic        
'ethyl 2-amino-4-(4-bromobenzene-1-carbonyl)-5-(4-bromophenyl)thiophene-3-carboxylate'
_symmetry_cell_setting           triclinic
_symmetry_space_group_name_H-M   'P -1'
_symmetry_Int_Tables_number      2
_space_group_name_Hall           '-P 1'
loop_
_symmetry_equiv_pos_site_id
_symmetry_equiv_pos_as_xyz
1 x,y,z
2 -x,-y,-z
_cell_length_a                   8.24(4)
_cell_length_b                   10.18(6)
_cell_length_c                   13.48(7)
_cell_angle_alpha                103.86(16)
_cell_angle_beta                 92.63(11)
_cell_angle_gamma                113.20(12)
_cell_volume                     996.507
_exptl_crystal_colour            yellow
_exptl_crystal_description       block
_chemical_melting_point          '187.5-188.5 deg.C'
_cell_formula_units_Z            2
loop_
_atom_site_label
_atom_site_type_symbol
_atom_site_fract_x
_atom_site_fract_y
_atom_site_fract_z
Br1 Br 0.60045(17) 0.84441(15) -0.02132(9)
Br2 Br 1.06240(12) 1.07785(11) 0.74624(8)
C1 C 0.3002(9) 0.7324(7) 0.5085(5)
C2 C 0.2376(8) 0.6489(7) 0.4096(5)
C3 C 0.0473(9) 0.6005(8) 0.3802(6)
C4 C -0.0594(10) 0.5022(8) 0.2843(6)
C5 C -0.0767(12) 0.3412(10) 0.1236(7)
H1 H -0.1398 0.3866 0.0912
H2 H -0.1647 0.2527 0.1366
C6 C 0.0373(16) 0.2994(15) 0.0537(10)
H3 H 0.1042 0.3814 0.0276
H4 H -0.0361 0.2149 -0.0029
H5 H 0.1183 0.2745 0.0908
C7 C 0.3532(9) 0.5994(7) 0.3413(5)
C8 C 0.4100(9) 0.6583(7) 0.2542(5)
C9 C 0.3691(9) 0.7719(8) 0.2344(6)
H6 H 0.3032 0.8107 0.2766
C10 C 0.5058(9) 0.6025(8) 0.1888(6)
H7 H 0.5326 0.5261 0.2000
C11 C 0.5620(9) 0.6581(8) 0.1075(6)
H8 H 0.6285 0.6211 0.0645
C12 C 0.5201(10) 0.7672(8) 0.0904(6)
C13 C 0.4262(10) 0.8248(8) 0.1533(6)
H9 H 0.4008 0.9011 0.1407
C14 C 0.4858(9) 0.8081(7) 0.5640(5)
C15 C 0.5297(9) 0.7970(8) 0.6611(6)
H10 H 0.4413 0.7364 0.6910
C16 C 0.7004(9) 0.8733(8) 0.7139(6)
H11 H 0.7275 0.8647 0.7791
C17 C 0.8301(9) 0.9618(8) 0.6705(6)
C18 C 0.7924(9) 0.9733(7) 0.5730(6)
H12 H 0.8822 1.0326 0.5432
C19 C 0.6211(9) 0.8964(7) 0.5207(6)
H13 H 0.5953 0.9037 0.4549
C20 C -0.0267(9) 0.6493(7) 0.4630(5)
N1 N -0.2002(7) 0.6232(7) 0.4634(5)
H14 H -0.2768 0.5714 0.4080
H15 H -0.2343 0.6583 0.5190
O1 O -0.2175(6) 0.4691(6) 0.2602(4)
O2 O 0.0299(7) 0.4452(6) 0.2212(5)
O3 O 0.4057(7) 0.5129(6) 0.3650(4)
S1 S 0.1306(2) 0.7545(2) 0.57119(14)
loop_
_geom_bond_atom_site_label_1
_geom_bond_atom_site_label_2
_geom_bond_site_symmetry_1
_geom_bond_site_symmetry_2
Br1 C12 1_555 1_555
Br2 C17 1_555 1_555
C1 C2 1_555 1_555
C2 C3 1_555 1_555
C3 C4 1_555 1_555
C4 O1 1_555 1_555
C5 H1 1_555 1_555
H2 C5 1_555 1_555
C6 C5 1_555 1_555
H3 C6 1_555 1_555
H4 C6 1_555 1_555
H5 C6 1_555 1_555
C7 C2 1_555 1_555
C8 C7 1_555 1_555
C9 C8 1_555 1_555
H6 C9 1_555 1_555
C10 C8 1_555 1_555
H7 C10 1_555 1_555
C11 C10 1_555 1_555
H8 C11 1_555 1_555
C12 C11 1_555 1_555
C13 C9 1_555 1_555
H9 C13 1_555 1_555
C14 C1 1_555 1_555
C15 C14 1_555 1_555
H10 C15 1_555 1_555
C16 C15 1_555 1_555
H11 C16 1_555 1_555
C17 C16 1_555 1_555
C18 C17 1_555 1_555
H12 C18 1_555 1_555
C19 C14 1_555 1_555
H13 C19 1_555 1_555
C20 C3 1_555 1_555
N1 C20 1_555 1_555
H14 N1 1_555 1_555
H15 N1 1_555 1_555
O2 C4 1_555 1_555
O3 C7 1_555 1_555
S1 C1 1_555 1_555
C5 O2 1_555 1_555
C12 C13 1_555 1_555
C18 C19 1_555 1_555
C20 S1 1_555 1_555

#END
