
#######################################################################
#
#                 Cambridge Crystallographic Data Centre
#                                CCDC 
#
#######################################################################
#
# If this CIF has been generated from an entry in the Cambridge 
# Structural Database, then it will include bibliographic, chemical, 
# crystal, experimental, refinement or atomic coordinate data resulting 
# from the CCDC's data processing and validation procedures.
#
#######################################################################

data_VEFBIR
_chemical_formula_moiety         'C32 H36 N4 O6'
_chemical_name_systematic        
8,11,14,27,30,33-Hexaoxa-39,40,41,42-tetra-azapentacyclo(33.3.1.1^2,6^.1^16,20^.1^21,25^)dotetraconta-1(39),2,4,6(40),16,18,20(41),21,23,25(42),35,37-dodecaene
_symmetry_cell_setting           monoclinic
_symmetry_space_group_name_H-M   'P 21/c'
_symmetry_Int_Tables_number      14
_space_group_name_Hall           '-P 2ybc'
loop_
_symmetry_equiv_pos_site_id
_symmetry_equiv_pos_as_xyz
1 x,y,z
2 -x,1/2+y,1/2-z
3 -x,-y,-z
4 x,1/2-y,1/2+z
_cell_length_a                   4.666(2)
_cell_length_b                   14.536(2)
_cell_length_c                   21.936(4)
_cell_angle_alpha                90
_cell_angle_beta                 91.80(2)
_cell_angle_gamma                90
_cell_volume                     1487.07
_exptl_crystal_colour            colorless
_chemical_melting_point          145-146deg.C
_cell_formula_units_Z            2
loop_
_atom_site_label
_atom_site_type_symbol
_atom_site_fract_x
_atom_site_fract_y
_atom_site_fract_z
O1 O 1.1659(5) -0.1932(1) 0.7872(1)
O2 O 1.4556(5) -0.3517(1) 0.82692(9)
O3 O 1.3035(5) -0.4118(1) 0.95786(9)
N1 N 0.8168(5) 0.1968(2) 0.9649(1)
N2 N 1.0489(5) 0.0293(2) 0.8537(1)
C1 C 0.8486(7) 0.2862(2) 0.9797(1)
C2 C 1.0161(7) 0.3450(2) 0.9455(1)
C3 C 1.1561(7) 0.3100(2) 0.8955(1)
C4 C 1.1290(7) 0.2184(2) 0.8804(1)
C5 C 0.9558(6) 0.1636(2) 0.9162(1)
C6 C 0.9119(7) 0.0642(2) 0.9021(1)
C7 C 0.7439(8) 0.0111(2) 0.9390(2)
C8 C 0.7104(8) -0.0807(2) 0.9262(6)
C9 C 0.8509(7) -0.1181(2) 0.8775(1)
C10 C 1.0169(7) -0.0608(2) 0.8419(1)
C11 C 1.1789(8) -0.0971(2) 0.7877(1)
C12 C 1.3694(8) -0.2380(2) 0.7506(1)
C13 C 1.3511(8) -0.3383(2) 0.7650(1)
C14 C 1.4154(8) -0.4417(2) 0.8491(2)
C15 C 1.5057(8) -0.4477(2) 0.9164(1)
C16 C 0.6893(7) 0.3151(2) 1.0361(1)
H1 H 1.0346 0.4081 0.9562
H2 H 1.2706 0.3493 0.8717
H3 H 1.2252 0.1934 0.8467
H4 H 0.6525 0.0379 0.9728
H5 H 0.5923 -0.1181 0.9505
H6 H 0.8345 -0.1818 0.8684
H7 H 1.3734 -0.0780 0.7910
H8 H 1.0939 -0.0738 0.7509
H9 H 1.5568 -0.2157 0.7601
H10 H 1.3244 -0.2278 0.7086
H11 H 1.4655 -0.3724 0.7379
H12 H 1.1576 -0.3583 0.7609
H13 H 1.5276 -0.4833 0.8265
H14 H 1.2186 -0.4577 0.8444
H15 H 1.6799 -0.4145 0.9221
H16 H 1.5373 -0.5106 0.9261
H17 H 0.7787 0.2876 1.0710
H18 H 0.4959 0.2950 1.0323
C16B C 1.3107(7) -0.3151(2) 0.9639(1)
O3B O 0.6965(5) 0.4118(1) 1.04214(9)
C1B C 1.1514(7) -0.2862(2) 1.0203(1)
H17B H 1.2213 -0.2876 0.9290
H18B H 1.5041 -0.2950 0.9677
C15B C 0.4943(8) 0.4477(2) 1.0836(1)
N1B N 1.1832(5) -0.1968(2) 1.0351(1)
C2B C 0.9839(7) -0.3450(2) 1.0545(1)
C14B C 0.5846(8) 0.4417(2) 1.1509(2)
H15B H 0.3201 0.4145 1.0779
H16B H 0.4627 0.5106 1.0739
C5B C 1.0442(6) -0.1636(2) 1.0838(1)
C3B C 0.8439(7) -0.3100(2) 1.1045(1)
H1B H 0.9654 -0.4081 1.0438
O2B O 0.5444(5) 0.3517(1) 1.17308(9)
H13B H 0.4724 0.4833 1.1735
H14B H 0.7814 0.4577 1.1556
C4B C 0.8710(7) -0.2184(2) 1.1196(1)
C6B C 1.0881(7) -0.0642(2) 1.0979(1)
H2B H 0.7294 -0.3493 1.1283
C13B C 0.6489(8) 0.3383(2) 1.2350(1)
H3B H 0.7748 -0.1934 1.1533
N2B N 0.9511(5) -0.0293(2) 1.1463(1)
C7B C 1.2561(8) -0.0111(2) 1.0610(2)
C12B C 0.6306(8) 0.2380(2) 1.2494(1)
H11B H 0.5345 0.3724 1.2621
H12B H 0.8424 0.3583 1.2391
C10B C 0.9831(7) 0.0608(2) 1.1581(1)
C8B C 1.2896(8) 0.0807(2) 1.0738(6)
H4B H 1.3475 -0.0379 1.0272
O1B O 0.8341(5) 0.1932(1) 1.2128(1)
H9B H 0.4432 0.2157 1.2399
H10B H 0.6756 0.2278 1.2914
C9B C 1.1491(7) 0.1181(2) 1.1225(1)
C11B C 0.8211(8) 0.0971(2) 1.2123(1)
H5B H 1.4077 0.1181 1.0495
H6B H 1.1655 0.1818 1.1316
H7B H 0.6266 0.0780 1.2090
H8B H 0.9061 0.0738 1.2491
loop_
_geom_bond_atom_site_label_1
_geom_bond_atom_site_label_2
_geom_bond_site_symmetry_1
_geom_bond_site_symmetry_2
O1 C11 1_555 1_555
O2 C13 1_555 1_555
O3 C15 1_555 1_555
N1 C1 1_555 1_555
N2 C6 1_555 1_555
C1 C2 1_555 1_555
C2 C3 1_555 1_555
C3 C4 1_555 1_555
C4 C5 1_555 1_555
C5 N1 1_555 1_555
C6 C5 1_555 1_555
C7 C6 1_555 1_555
C8 C7 1_555 1_555
C9 C8 1_555 1_555
C10 N2 1_555 1_555
C11 C10 1_555 1_555
C12 O1 1_555 1_555
C13 C12 1_555 1_555
C14 O2 1_555 1_555
C15 C14 1_555 1_555
C16 C1 1_555 1_555
H1 C2 1_555 1_555
H2 C3 1_555 1_555
H3 C4 1_555 1_555
H4 C7 1_555 1_555
H5 C8 1_555 1_555
H6 C9 1_555 1_555
H7 C11 1_555 1_555
H8 C11 1_555 1_555
H9 C12 1_555 1_555
H10 C12 1_555 1_555
H11 C13 1_555 1_555
H12 C13 1_555 1_555
H13 C14 1_555 1_555
H14 C14 1_555 1_555
H15 C15 1_555 1_555
H16 C15 1_555 1_555
H17 C16 1_555 1_555
H18 C16 1_555 1_555
C16B O3 1_555 1_555
O3B C16 1_555 1_555
C1B C16B 1_555 1_555
H17B C16B 1_555 1_555
H18B C16B 1_555 1_555
C15B O3B 1_555 1_555
N1B C1B 1_555 1_555
C2B C1B 1_555 1_555
C14B C15B 1_555 1_555
H15B C15B 1_555 1_555
H16B C15B 1_555 1_555
C5B N1B 1_555 1_555
C3B C2B 1_555 1_555
H1B C2B 1_555 1_555
O2B C14B 1_555 1_555
H13B C14B 1_555 1_555
H14B C14B 1_555 1_555
C4B C5B 1_555 1_555
C6B C5B 1_555 1_555
H2B C3B 1_555 1_555
C13B O2B 1_555 1_555
H3B C4B 1_555 1_555
N2B C6B 1_555 1_555
C7B C6B 1_555 1_555
C12B C13B 1_555 1_555
H11B C13B 1_555 1_555
H12B C13B 1_555 1_555
C10B N2B 1_555 1_555
C8B C7B 1_555 1_555
H4B C7B 1_555 1_555
O1B C12B 1_555 1_555
H9B C12B 1_555 1_555
H10B C12B 1_555 1_555
C9B C10B 1_555 1_555
C11B C10B 1_555 1_555
H5B C8B 1_555 1_555
H6B C9B 1_555 1_555
H7B C11B 1_555 1_555
H8B C11B 1_555 1_555
C9 C10 1_555 1_555
C3B C4B 1_555 1_555
C8B C9B 1_555 1_555
O1B C11B 1_555 1_555

#END
