
#######################################################################
#
#                 Cambridge Crystallographic Data Centre
#                                CCDC 
#
#######################################################################
#
# If this CIF has been generated from an entry in the Cambridge 
# Structural Database, then it will include bibliographic, chemical, 
# crystal, experimental, refinement or atomic coordinate data resulting 
# from the CCDC's data processing and validation procedures.
#
#######################################################################

data_VEFHOG
_chemical_formula_moiety         'C70 H86 B2 N6 2+,8(C2 H3 N1),2(Br1 1-)'
_chemical_name_systematic        
"2,2'-[5,10-bis(methylcyano)-5,10-dihydro-5,10-boranthrene-5,10-diylidene]bis{1,3-bis[2,6-bis(propan-2-yl)phenyl]-1H-3-imidazole} bis(bromide) acetonitrile solvate"
_symmetry_cell_setting           triclinic
_symmetry_space_group_name_H-M   'P -1'
_symmetry_Int_Tables_number      2
_space_group_name_Hall           '-P 1'
loop_
_symmetry_equiv_pos_site_id
_symmetry_equiv_pos_as_xyz
1 x,y,z
2 -x,-y,-z
_cell_length_a                   10.9914(4)
_cell_length_b                   12.4217(4)
_cell_length_c                   16.6359(6)
_cell_angle_alpha                90.8263(5)
_cell_angle_beta                 105.4512(5)
_cell_angle_gamma                100.8307(5)
_cell_volume                     2145.25
_exptl_crystal_colour            colorless
_exptl_crystal_description       'prism fragment'
_cell_formula_units_Z            1
loop_
_atom_site_label
_atom_site_type_symbol
_atom_site_fract_x
_atom_site_fract_y
_atom_site_fract_z
Br1 Br 0.50601(2) 0.53392(2) 0.70014(2)
B1 B 0.45440(13) 0.00446(11) 0.90245(9)
C1 C 0.35586(11) -0.00832(10) 0.95955(8)
C2 C 0.22287(12) -0.02409(11) 0.92030(9)
H1 H 0.1948 -0.0217 0.8613
C3 C 0.13115(12) -0.04299(11) 0.96472(9)
H2 H 0.0421 -0.0528 0.9365
C4 C 0.17117(13) -0.04743(12) 1.05086(9)
H3 H 0.1100 -0.0591 1.0824
C5 C 0.30177(13) -0.03460(11) 1.09033(9)
H4 H 0.3285 -0.0387 1.1492
C6 C 0.39600(12) -0.01582(10) 1.04646(8)
N1 N 0.41626(10) 0.08983(9) 0.74779(7)
C7 C 0.44072(11) 0.09984(10) 0.83290(8)
N2 N 0.47341(10) 0.21052(9) 0.85225(7)
C8 C 0.47181(13) 0.26741(11) 0.78096(9)
H5 H 0.4919 0.3449 0.7786
C9 C 0.43669(13) 0.19255(11) 0.71621(9)
H6 H 0.4274 0.2070 0.6592
C10 C 0.35778(13) -0.00432(11) 0.68741(8)
C11 C 0.43688(14) -0.05594(11) 0.65288(8)
C12 C 0.37644(15) -0.13928(12) 0.58978(9)
H7 H 0.4274 -0.1769 0.5659
C13 C 0.24348(16) -0.16779(13) 0.56159(9)
H8 H 0.2041 -0.2249 0.5188
C14 C 0.16762(15) -0.11352(12) 0.59541(9)
H9 H 0.0765 -0.1339 0.5754
C15 C 0.22247(13) -0.02936(12) 0.65837(9)
C16 C 0.58278(14) -0.02243(12) 0.67808(9)
H10 H 0.6082 0.0394 0.7222
C17 C 0.64668(15) -0.11717(13) 0.71496(10)
H11 H 0.6152 -0.1424 0.7627
H12 H 0.7403 -0.0916 0.7336
H13 H 0.6253 -0.1780 0.6722
C18 C 0.63092(16) 0.01921(14) 0.60334(10)
H14 H 0.6119 -0.0413 0.5606
H15 H 0.7241 0.0472 0.6220
H16 H 0.5875 0.0783 0.5797
C19 C 0.13669(14) 0.03569(13) 0.68838(9)
H17 H 0.1884 0.0771 0.7424
C20 C 0.09490(18) 0.11992(16) 0.62500(12)
H18 H 0.1714 0.1689 0.6174
H19 H 0.0425 0.1632 0.6459
H20 H 0.0442 0.0812 0.5713
C21 C 0.01710(15) -0.03738(16) 0.70388(11)
H21 H -0.0428 -0.0686 0.6503
H22 H -0.0253 0.0068 0.7330
H23 H 0.0430 -0.0969 0.7383
C22 C 0.49815(12) 0.27142(10) 0.93242(8)
C23 C 0.39110(13) 0.28748(11) 0.95933(9)
C24 C 0.41651(14) 0.35077(11) 1.03385(9)
H24 H 0.3469 0.3599 1.0554
C25 C 0.54101(14) 0.40080(12) 1.07742(9)
H25 H 0.5561 0.4434 1.1283
C26 C 0.64303(14) 0.38852(11) 1.04671(9)
H26 H 0.7277 0.4245 1.0763
C27 C 0.62459(12) 0.32436(10) 0.97310(8)
C28 C 0.25341(13) 0.24658(12) 0.90648(11)
H27 H 0.2491 0.1734 0.8788
C29 C 0.21401(15) 0.32474(14) 0.83708(12)
H28 H 0.2126 0.3960 0.8625
H29 H 0.1282 0.2930 0.8008
H30 H 0.2763 0.3348 0.8039
C30 C 0.15619(16) 0.23138(15) 0.95797(14)
H31 H 0.1848 0.1871 1.0050
H32 H 0.0718 0.1939 0.9227
H33 H 0.1495 0.3034 0.9793
C31 C 0.73873(12) 0.32254(11) 0.93836(9)
H34 H 0.7164 0.2582 0.8966
C32 C 0.85976(14) 0.31222(13) 1.00693(10)
H35 H 0.8934 0.3816 1.0414
H36 H 0.9252 0.2955 0.9812
H37 H 0.8381 0.2529 1.0420
C33 C 0.76875(14) 0.42839(12) 0.89408(10)
H38 H 0.6925 0.4354 0.8493
H39 H 0.8405 0.4251 0.8702
H40 H 0.7924 0.4920 0.9346
N3 N 0.41132(10) -0.10926(9) 0.84684(7)
C34 C 0.36694(12) -0.19087(11) 0.80911(8)
C35 C 0.30546(14) -0.29056(11) 0.75635(9)
H41 H 0.2489 -0.3382 0.7835
H42 H 0.3714 -0.3290 0.7474
H43 H 0.2544 -0.2719 0.7024
B1A B 0.54560(13) -0.00446(11) 1.09755(9)
C1A C 0.64414(11) 0.00832(10) 1.04045(8)
C2A C 0.77713(12) 0.02409(11) 1.07970(9)
H1A H 0.8052 0.0217 1.1387
C3A C 0.86885(12) 0.04299(11) 1.03528(9)
H2A H 0.9579 0.0528 1.0635
C4A C 0.82883(13) 0.04743(12) 0.94914(9)
H3A H 0.8900 0.0591 0.9176
C5A C 0.69823(13) 0.03460(11) 0.90967(9)
H4A H 0.6715 0.0387 0.8508
C6A C 0.60400(12) 0.01582(10) 0.95354(8)
N1A N 0.58374(10) -0.08983(9) 1.25221(7)
C7A C 0.55928(11) -0.09984(10) 1.16710(8)
N2A N 0.52659(10) -0.21052(9) 1.14775(7)
C8A C 0.52819(13) -0.26741(11) 1.21904(9)
H5A H 0.5081 -0.3449 1.2214
C9A C 0.56331(13) -0.19255(11) 1.28379(9)
H6A H 0.5726 -0.2070 1.3408
C10A C 0.64222(13) 0.00432(11) 1.31259(8)
C11A C 0.56312(14) 0.05594(11) 1.34712(8)
C12A C 0.62356(15) 0.13928(12) 1.41022(9)
H7A H 0.5726 0.1769 1.4341
C13A C 0.75652(16) 0.16779(13) 1.43841(9)
H8A H 0.7959 0.2249 1.4812
C14A C 0.83238(15) 0.11352(12) 1.40459(9)
H9A H 0.9235 0.1339 1.4246
C15A C 0.77753(13) 0.02936(12) 1.34163(9)
C16A C 0.41722(14) 0.02243(12) 1.32192(9)
H10A H 0.3918 -0.0394 1.2778
C17A C 0.35332(15) 0.11717(13) 1.28504(10)
H11A H 0.3848 0.1424 1.2373
H12A H 0.2597 0.0916 1.2664
H13A H 0.3747 0.1780 1.3278
C18A C 0.36908(16) -0.01921(14) 1.39666(10)
H14A H 0.3881 0.0413 1.4394
H15A H 0.2759 -0.0472 1.3780
H16A H 0.4125 -0.0783 1.4203
C19A C 0.86331(14) -0.03569(13) 1.31162(9)
H17A H 0.8116 -0.0771 1.2576
C20A C 0.90510(18) -0.11992(16) 1.37500(12)
H18A H 0.8286 -0.1689 1.3826
H19A H 0.9575 -0.1632 1.3541
H20A H 0.9558 -0.0812 1.4287
C21A C 0.98290(15) 0.03738(16) 1.29612(11)
H21A H 1.0428 0.0686 1.3497
H22A H 1.0253 -0.0068 1.2670
H23A H 0.9570 0.0969 1.2617
C22A C 0.50185(12) -0.27142(10) 1.06758(8)
C23A C 0.60890(13) -0.28748(11) 1.04067(9)
C24A C 0.58349(14) -0.35077(11) 0.96615(9)
H24A H 0.6531 -0.3599 0.9446
C25A C 0.45899(14) -0.40080(12) 0.92258(9)
H25A H 0.4439 -0.4434 0.8717
C26A C 0.35697(14) -0.38852(11) 0.95329(9)
H26A H 0.2723 -0.4245 0.9237
C27A C 0.37541(12) -0.32436(10) 1.02690(8)
C28A C 0.74659(13) -0.24658(12) 1.09352(11)
H27A H 0.7509 -0.1734 1.1212
C29A C 0.78599(15) -0.32474(14) 1.16292(12)
H28A H 0.7874 -0.3960 1.1375
H29A H 0.8718 -0.2930 1.1992
H30A H 0.7237 -0.3348 1.1961
C30A C 0.84381(16) -0.23138(15) 1.04203(14)
H31A H 0.8152 -0.1871 0.9950
H32A H 0.9282 -0.1939 1.0773
H33A H 0.8505 -0.3034 1.0207
C31A C 0.26127(12) -0.32254(11) 1.06164(9)
H34A H 0.2836 -0.2582 1.1034
C32A C 0.14024(14) -0.31222(13) 0.99307(10)
H35A H 0.1066 -0.3816 0.9586
H36A H 0.0748 -0.2955 1.0188
H37A H 0.1619 -0.2529 0.9580
C33A C 0.23125(14) -0.42839(12) 1.10592(10)
H38A H 0.3075 -0.4354 1.1507
H39A H 0.1595 -0.4251 1.1298
H40A H 0.2076 -0.4920 1.0654
N3A N 0.58868(10) 0.10926(9) 1.15316(7)
C34A C 0.63306(12) 0.19087(11) 1.19089(8)
C35A C 0.69454(14) 0.29056(11) 1.24365(9)
H41A H 0.7511 0.3382 1.2165
H42A H 0.6286 0.3290 1.2526
H43A H 0.7456 0.2719 1.2976
N4 N 0.85055(16) 0.20828(14) 0.76461(11)
C36 C 0.80485(16) 0.26798(15) 0.72066(11)
C37 C 0.74548(18) 0.34391(16) 0.66386(12)
H44 H 0.8127 0.3963 0.6484
H45 H 0.6975 0.3839 0.6917
H46 H 0.6865 0.3025 0.6135
N5 N 1.01133(18) 0.56248(18) 0.78034(13)
C38 C 0.94009(18) 0.61699(17) 0.78333(12)
C39 C 0.8499(2) 0.68586(19) 0.7919(2)
H47 H 0.7618 0.6427 0.7737
H48 H 0.8580 0.7485 0.7572
H49 H 0.8694 0.7127 0.8505
N6 N 0.01567(19) 0.61368(15) 0.57350(12)
C40 C 0.06580(19) 0.54369(16) 0.60024(12)
C41 C 0.12936(19) 0.45616(18) 0.63435(12)
H50 H 0.2228 0.4813 0.6467
H51 H 0.1017 0.3926 0.5936
H52 H 0.1067 0.4352 0.6859
N7 N 0.4227(2) 0.25405(15) 0.51844(10)
C42 C 0.38084(18) 0.32988(16) 0.49808(10)
C43 C 0.33007(18) 0.42783(17) 0.47262(12)
H53 H 0.3598 0.4838 0.5195
H54 H 0.2357 0.4093 0.4559
H55 H 0.3605 0.4564 0.4253
loop_
_geom_bond_atom_site_label_1
_geom_bond_atom_site_label_2
_geom_bond_site_symmetry_1
_geom_bond_site_symmetry_2
B1 C1 1_555 1_555
C1 C2 1_555 1_555
C2 H1 1_555 1_555
C3 C2 1_555 1_555
H2 C3 1_555 1_555
C4 C3 1_555 1_555
H3 C4 1_555 1_555
C5 C4 1_555 1_555
H4 C5 1_555 1_555
C6 C1 1_555 1_555
N1 C7 1_555 1_555
C7 B1 1_555 1_555
N2 C7 1_555 1_555
C8 N2 1_555 1_555
H5 C8 1_555 1_555
C9 N1 1_555 1_555
H6 C9 1_555 1_555
C10 N1 1_555 1_555
C11 C10 1_555 1_555
C12 C11 1_555 1_555
H7 C12 1_555 1_555
C13 C12 1_555 1_555
H8 C13 1_555 1_555
C14 C13 1_555 1_555
H9 C14 1_555 1_555
C15 C10 1_555 1_555
C16 C11 1_555 1_555
H10 C16 1_555 1_555
C17 C16 1_555 1_555
H11 C17 1_555 1_555
H12 C17 1_555 1_555
H13 C17 1_555 1_555
C18 C16 1_555 1_555
H14 C18 1_555 1_555
H15 C18 1_555 1_555
H16 C18 1_555 1_555
C19 C15 1_555 1_555
H17 C19 1_555 1_555
C20 C19 1_555 1_555
H18 C20 1_555 1_555
H19 C20 1_555 1_555
H20 C20 1_555 1_555
C21 C19 1_555 1_555
H21 C21 1_555 1_555
H22 C21 1_555 1_555
H23 C21 1_555 1_555
C22 N2 1_555 1_555
C23 C22 1_555 1_555
C24 C23 1_555 1_555
H24 C24 1_555 1_555
C25 C24 1_555 1_555
H25 C25 1_555 1_555
C26 C25 1_555 1_555
H26 C26 1_555 1_555
C27 C22 1_555 1_555
C28 C23 1_555 1_555
H27 C28 1_555 1_555
C29 C28 1_555 1_555
H28 C29 1_555 1_555
H29 C29 1_555 1_555
H30 C29 1_555 1_555
C30 C28 1_555 1_555
H31 C30 1_555 1_555
H32 C30 1_555 1_555
H33 C30 1_555 1_555
C31 C27 1_555 1_555
H34 C31 1_555 1_555
C32 C31 1_555 1_555
H35 C32 1_555 1_555
H36 C32 1_555 1_555
H37 C32 1_555 1_555
C33 C31 1_555 1_555
H38 C33 1_555 1_555
H39 C33 1_555 1_555
H40 C33 1_555 1_555
N3 B1 1_555 1_555
C34 N3 1_555 1_555
C35 C34 1_555 1_555
H41 C35 1_555 1_555
H42 C35 1_555 1_555
H43 C35 1_555 1_555
N4 C36 1_555 1_555
C36 C37 1_555 1_555
C37 H44 1_555 1_555
H45 C37 1_555 1_555
H46 C37 1_555 1_555
N5 C38 1_555 1_555
C38 C39 1_555 1_555
C39 H47 1_555 1_555
H48 C39 1_555 1_555
H49 C39 1_555 1_555
N6 C40 1_555 1_555
C40 C41 1_555 1_555
C41 H50 1_555 1_555
H51 C41 1_555 1_555
H52 C41 1_555 1_555
N7 C42 1_555 1_555
C42 C43 1_555 1_555
C43 H53 1_555 1_555
H54 C43 1_555 1_555
H55 C43 1_555 1_555
B1A C6 1_555 1_555
C1A B1A 1_555 1_555
C2A C1A 1_555 1_555
H1A C2A 1_555 1_555
C3A C2A 1_555 1_555
H2A C3A 1_555 1_555
C4A C3A 1_555 1_555
H3A C4A 1_555 1_555
C5A C4A 1_555 1_555
H4A C5A 1_555 1_555
C6A B1 1_555 1_555
N1A C7A 1_555 1_555
C7A B1A 1_555 1_555
N2A C7A 1_555 1_555
C8A N2A 1_555 1_555
H5A C8A 1_555 1_555
C9A N1A 1_555 1_555
H6A C9A 1_555 1_555
C10A N1A 1_555 1_555
C11A C10A 1_555 1_555
C12A C11A 1_555 1_555
H7A C12A 1_555 1_555
C13A C12A 1_555 1_555
H8A C13A 1_555 1_555
C14A C13A 1_555 1_555
H9A C14A 1_555 1_555
C15A C10A 1_555 1_555
C16A C11A 1_555 1_555
H10A C16A 1_555 1_555
C17A C16A 1_555 1_555
H11A C17A 1_555 1_555
H12A C17A 1_555 1_555
H13A C17A 1_555 1_555
C18A C16A 1_555 1_555
H14A C18A 1_555 1_555
H15A C18A 1_555 1_555
H16A C18A 1_555 1_555
C19A C15A 1_555 1_555
H17A C19A 1_555 1_555
C20A C19A 1_555 1_555
H18A C20A 1_555 1_555
H19A C20A 1_555 1_555
H20A C20A 1_555 1_555
C21A C19A 1_555 1_555
H21A C21A 1_555 1_555
H22A C21A 1_555 1_555
H23A C21A 1_555 1_555
C22A N2A 1_555 1_555
C23A C22A 1_555 1_555
C24A C23A 1_555 1_555
H24A C24A 1_555 1_555
C25A C24A 1_555 1_555
H25A C25A 1_555 1_555
C26A C25A 1_555 1_555
H26A C26A 1_555 1_555
C27A C22A 1_555 1_555
C28A C23A 1_555 1_555
H27A C28A 1_555 1_555
C29A C28A 1_555 1_555
H28A C29A 1_555 1_555
H29A C29A 1_555 1_555
H30A C29A 1_555 1_555
C30A C28A 1_555 1_555
H31A C30A 1_555 1_555
H32A C30A 1_555 1_555
H33A C30A 1_555 1_555
C31A C27A 1_555 1_555
H34A C31A 1_555 1_555
C32A C31A 1_555 1_555
H35A C32A 1_555 1_555
H36A C32A 1_555 1_555
H37A C32A 1_555 1_555
C33A C31A 1_555 1_555
H38A C33A 1_555 1_555
H39A C33A 1_555 1_555
H40A C33A 1_555 1_555
N3A B1A 1_555 1_555
C34A N3A 1_555 1_555
C35A C34A 1_555 1_555
H41A C35A 1_555 1_555
H42A C35A 1_555 1_555
H43A C35A 1_555 1_555
C5 C6 1_555 1_555
C8 C9 1_555 1_555
C14 C15 1_555 1_555
C26 C27 1_555 1_555
C1A C6A 1_555 1_555
C5A C6A 1_555 1_555
C8A C9A 1_555 1_555
C14A C15A 1_555 1_555
C26A C27A 1_555 1_555

#END
