
#######################################################################
#
#                 Cambridge Crystallographic Data Centre
#                                CCDC 
#
#######################################################################
#
# If this CIF has been generated from an entry in the Cambridge 
# Structural Database, then it will include bibliographic, chemical, 
# crystal, experimental, refinement or atomic coordinate data resulting 
# from the CCDC's data processing and validation procedures.
#
#######################################################################

data_VEFHOF
_chemical_formula_moiety         'C19 H14 Br1 N3 O3'
_chemical_name_systematic        
7-((2-(4-Bromobenzyl)-2H-1,2,3-triazol-4-yl)methoxy)-4H-chromen-4-one
_symmetry_cell_setting           monoclinic
_symmetry_space_group_name_H-M   'P 21/n'
_symmetry_Int_Tables_number      14
_space_group_name_Hall           '-P 2yn'
loop_
_symmetry_equiv_pos_site_id
_symmetry_equiv_pos_as_xyz
1 x,y,z
2 1/2-x,1/2+y,1/2-z
3 -x,-y,-z
4 1/2+x,1/2-y,1/2+z
_cell_length_a                   8.354(3)
_cell_length_b                   6.932(2)
_cell_length_c                   29.415(9)
_cell_angle_alpha                90
_cell_angle_beta                 93.533(4)
_cell_angle_gamma                90
_cell_volume                     1700.18
_cell_formula_units_Z            4
loop_
_atom_site_label
_atom_site_type_symbol
_atom_site_fract_x
_atom_site_fract_y
_atom_site_fract_z
Br1 Br 1.60052(7) 1.25182(8) 0.767002(19)
N1 N 0.9145(5) 1.1923(6) 0.62496(14)
N2 N 0.9544(6) 1.2718(6) 0.58617(15)
N3 N 0.8682(6) 1.0027(8) 0.61746(17)
O1 O 0.6998(4) 0.8322(6) 0.51724(13)
O2 O 0.7596(5) 0.2465(5) 0.43628(14)
O3 O 0.3582(5) 0.3567(6) 0.35466(13)
C1 C 1.3941(6) 1.2656(6) 0.73622(16)
C2 C 1.2586(6) 1.2458(6) 0.76114(16)
H1 H 1.2691 1.2282 0.7925
C3 C 1.1096(6) 1.2526(6) 0.73898(16)
H2 H 1.0188 1.2386 0.7554
C4 C 1.0928(6) 1.2809(6) 0.69144(17)
C5 C 1.2305(7) 1.3072(8) 0.66866(17)
H3 H 1.2215 1.3314 0.6375
C6 C 1.3808(6) 1.2988(7) 0.69046(17)
H4 H 1.4719 1.3155 0.6742
C7 C 0.9280(7) 1.2939(8) 0.66795(18)
H5 H 0.8506 1.2410 0.6879
H6 H 0.9014 1.4286 0.6627
C8 C 0.9359(5) 1.1468(7) 0.55402(14)
H7 H 0.9564 1.1681 0.5237
C9 C 0.8828(6) 0.9823(8) 0.57081(15)
C10 C 0.8520(7) 0.8035(7) 0.54251(18)
H8 H 0.9367 0.7849 0.5218
H9 H 0.8474 0.6908 0.5619
C11 C 0.6549(6) 0.7037(7) 0.48528(16)
C12 C 0.5141(6) 0.7485(7) 0.45906(18)
H10 H 0.4573 0.8601 0.4651
C13 C 0.4597(6) 0.6276(8) 0.42444(17)
H11 H 0.3690 0.6619 0.4063
C14 C 0.5377(6) 0.4542(7) 0.41584(15)
C15 C 0.6750(6) 0.4120(7) 0.44217(16)
C16 C 0.7358(6) 0.5352(8) 0.47709(17)
H12 H 0.8291 0.5034 0.4944
C17 C 0.7041(7) 0.1243(9) 0.4036(2)
H13 H 0.7607 0.0105 0.3998
C18 C 0.5739(7) 0.1542(9) 0.37614(19)
H14 H 0.5436 0.0621 0.3543
C19 C 0.4805(6) 0.3235(8) 0.37956(17)
loop_
_geom_bond_atom_site_label_1
_geom_bond_atom_site_label_2
_geom_bond_site_symmetry_1
_geom_bond_site_symmetry_2
Br1 C1 1_555 1_555
N1 N2 1_555 1_555
N2 C8 1_555 1_555
N3 N1 1_555 1_555
O1 C10 1_555 1_555
O2 C15 1_555 1_555
O3 C19 1_555 1_555
C1 C2 1_555 1_555
C2 H1 1_555 1_555
C3 C2 1_555 1_555
H2 C3 1_555 1_555
C4 C3 1_555 1_555
C5 C4 1_555 1_555
H3 C5 1_555 1_555
C6 C1 1_555 1_555
H4 C6 1_555 1_555
C7 N1 1_555 1_555
H5 C7 1_555 1_555
H6 C7 1_555 1_555
C8 H7 1_555 1_555
C9 N3 1_555 1_555
C10 C9 1_555 1_555
H8 C10 1_555 1_555
H9 C10 1_555 1_555
C11 O1 1_555 1_555
C12 C11 1_555 1_555
H10 C12 1_555 1_555
C13 C12 1_555 1_555
H11 C13 1_555 1_555
C14 C13 1_555 1_555
C15 C14 1_555 1_555
C16 C11 1_555 1_555
H12 C16 1_555 1_555
C17 O2 1_555 1_555
H13 C17 1_555 1_555
C18 C17 1_555 1_555
H14 C18 1_555 1_555
C19 C14 1_555 1_555
C4 C7 1_555 1_555
C5 C6 1_555 1_555
C8 C9 1_555 1_555
C15 C16 1_555 1_555
C18 C19 1_555 1_555

#END
