
#######################################################################
#
#                 Cambridge Crystallographic Data Centre
#                                CCDC 
#
#######################################################################
#
# If this CIF has been generated from an entry in the Cambridge 
# Structural Database, then it will include bibliographic, chemical, 
# crystal, experimental, refinement or atomic coordinate data resulting 
# from the CCDC's data processing and validation procedures.
#
#######################################################################

data_VEFHET
_chemical_compound_source        'Whole plants of Ajuga decumbens'
_chemical_name_common            'Ajugacumbin A'
_chemical_formula_moiety         'C27 H38 O7'
_chemical_name_systematic        
6\a-Acetoxy-4,17-epoxy-18-tigloyloxy-neo-cleroda-13-en-15,16-olide
_chemical_properties_biological  'insect antifeedant activity'
_symmetry_cell_setting           monoclinic
_symmetry_space_group_name_H-M   'P 21'
_symmetry_Int_Tables_number      4
_space_group_name_Hall           'P 2yb'
loop_
_symmetry_equiv_pos_site_id
_symmetry_equiv_pos_as_xyz
1 x,y,z
2 -x,1/2+y,-z
_cell_length_a                   9.207(2)
_cell_length_b                   12.131(4)
_cell_length_c                   12.030(3)
_cell_angle_alpha                90
_cell_angle_beta                 102.01(2)
_cell_angle_gamma                90
_cell_volume                     1314.22
_exptl_crystal_colour            colorless
_chemical_melting_point          185-186deg.C
_cell_formula_units_Z            2
loop_
_atom_site_label
_atom_site_type_symbol
_atom_site_fract_x
_atom_site_fract_y
_atom_site_fract_z
C1 C 1.0819(5) 0.4231(4) 0.2008(4)
C2 C 1.1701(7) 0.4503(5) 0.1113(5)
C3 C 1.2444(5) 0.5626(5) 0.1322(4)
C4 C 1.1306(5) 0.6471(4) 0.1427(4)
C5 C 1.0555(5) 0.6279(4) 0.2437(4)
C6 C 0.9386(4) 0.7165(4) 0.2528(4)
C7 C 0.8411 0.6882 0.3353
C8 C 0.7595(5) 0.5773(4) 0.3036(4)
C9 C 0.8652(5) 0.4806(4) 0.2963(4)
C10 C 0.9734(5) 0.5145(4) 0.2178(4)
C11 C 0.7721(5) 0.3786(4) 0.2439(4)
C12 C 0.6888(5) 0.3878(4) 0.1209(4)
C13 C 0.5726 0.3019 0.0857
C14 C 0.5258 0.2228 0.1446
C15 C 0.4087 0.1612 0.0706
C16 C 0.4880 0.2945 -0.0326
C17 C 1.0509 0.6981 0.0367
C18 C 1.1726 0.6249 0.3556
C19 C 0.9463(5) 0.4440(5) 0.4156(4)
C20 C 0.6525(7) 0.5578(6) 0.3841(7)
C21 C 0.9631 0.9122 0.2339
C22 C 1.0676(8) 1.0072(5) 0.2702(5)
C23 C 1.3670 0.7400 0.4528
C24 C 1.4816 0.8203 0.4401
C25 C 1.4727 0.8774 0.3448
C26 C 1.5778(9) 0.9658(7) 0.3254(8)
C27 C 1.6034(6) 0.8322(6) 0.5450(5)
O1 O 1.1643 0.7583 0.1157
O2 O 1.0152 0.8196 0.2899
O3 O 0.3305 0.0852 0.0904
O4 O 0.3875 0.2040 -0.0339
O5 O 1.2878 0.7030 0.3506
O6 O 1.3445 0.7058 0.5417
O7 O 0.8512 0.9150 0.1621
H1 H 1.0265 0.3567 0.1790
H2 H 1.1502 0.4115 0.2718
H3 H 1.1044 0.4502 0.0379
H4 H 1.2453 0.3951 0.1130
H5 H 1.2897 0.5814 0.0697
H6 H 1.3189 0.5605 0.2011
H7 H 0.8742 0.7220 0.1792
H8 H 0.9018 0.6827 0.4103
H9 H 0.7687 0.7454 0.3339
H10 H 0.7016 0.5814 0.2275
H11 H 0.9049 0.5253 0.1468
H12 H 0.7004 0.3639 0.2897
H13 H 0.8392 0.3174 0.2486
H14 H 0.7596 0.3821 0.0727
H15 H 0.6417 0.4588 0.1107
H16 H 0.5631 0.2081 0.2238
H17 H 0.5536 0.2806 -0.0835
H18 H 0.4341 0.3615 -0.0543
H19 H 0.9353 0.7297 0.0295
H20 H 1.0732 0.6779 -0.0303
H21 H 1.2147 0.5523 0.3664
H22 H 1.1268 0.6429 0.4180
H23 H 0.9979 0.5048 0.4571
H24 H 1.0162 0.3837 0.4075
H25 H 0.8750 0.4151 0.4559
H26 H 0.6019 0.4885 0.3684
H27 H 0.5811 0.6165 0.3743
H28 H 0.7085 0.5579 0.4609
H29 H 1.0107 1.0713 0.2418
H30 H 1.1530 1.0023 0.2362
H31 H 1.0993 1.0126 0.3512
H32 H 1.3897 0.8620 0.2839
H33 H 1.5418 0.9902 0.2486
H34 H 1.6760 0.9362 0.3327
H35 H 1.5804 1.0271 0.3763
H36 H 1.6786 0.8809 0.5290
H37 H 1.6449 0.7601 0.5624
H38 H 1.5668 0.8597 0.6088
loop_
_geom_bond_atom_site_label_1
_geom_bond_atom_site_label_2
_geom_bond_site_symmetry_1
_geom_bond_site_symmetry_2
C1 C2 1_555 1_555
C2 C3 1_555 1_555
C3 C4 1_555 1_555
C4 C5 1_555 1_555
C5 C6 1_555 1_555
C6 C7 1_555 1_555
C7 C8 1_555 1_555
C8 C9 1_555 1_555
C9 C10 1_555 1_555
C10 C1 1_555 1_555
C11 C9 1_555 1_555
C12 C11 1_555 1_555
C13 C12 1_555 1_555
C14 C13 1_555 1_555
C15 C14 1_555 1_555
C16 C13 1_555 1_555
C17 C4 1_555 1_555
C18 C5 1_555 1_555
C19 C9 1_555 1_555
C20 C8 1_555 1_555
C21 C22 1_555 1_555
C22 H29 1_555 1_555
C23 C24 1_555 1_555
C24 C25 1_555 1_555
C25 C26 1_555 1_555
C26 H33 1_555 1_555
C27 C24 1_555 1_555
O1 C4 1_555 1_555
O2 C6 1_555 1_555
O3 C15 1_555 1_555
O4 C15 1_555 1_555
O5 C18 1_555 1_555
O6 C23 1_555 1_555
O7 C21 1_555 1_555
H1 C1 1_555 1_555
H2 C1 1_555 1_555
H3 C2 1_555 1_555
H4 C2 1_555 1_555
H5 C3 1_555 1_555
H6 C3 1_555 1_555
H7 C6 1_555 1_555
H8 C7 1_555 1_555
H9 C7 1_555 1_555
H10 C8 1_555 1_555
H11 C10 1_555 1_555
H12 C11 1_555 1_555
H13 C11 1_555 1_555
H14 C12 1_555 1_555
H15 C12 1_555 1_555
H16 C14 1_555 1_555
H17 C16 1_555 1_555
H18 C16 1_555 1_555
H19 C17 1_555 1_555
H20 C17 1_555 1_555
H21 C18 1_555 1_555
H22 C18 1_555 1_555
H23 C19 1_555 1_555
H24 C19 1_555 1_555
H25 C19 1_555 1_555
H26 C20 1_555 1_555
H27 C20 1_555 1_555
H28 C20 1_555 1_555
H30 C22 1_555 1_555
H31 C22 1_555 1_555
H32 C25 1_555 1_555
H34 C26 1_555 1_555
H35 C26 1_555 1_555
H36 C27 1_555 1_555
H37 C27 1_555 1_555
H38 C27 1_555 1_555
C5 C10 1_555 1_555
C16 O4 1_555 1_555
C17 O1 1_555 1_555
C21 O2 1_555 1_555
C23 O5 1_555 1_555

#END
