
#######################################################################
#
#                 Cambridge Crystallographic Data Centre
#                                CCDC 
#
#######################################################################
#
# If this CIF has been generated from an entry in the Cambridge 
# Structural Database, then it will include bibliographic, chemical, 
# crystal, experimental, refinement or atomic coordinate data resulting 
# from the CCDC's data processing and validation procedures.
#
#######################################################################

data_VEFHAS
_chemical_formula_moiety         'C66 H80 B2 N4'
_chemical_name_systematic        
2,2'-(5,10-boranthrene-5,10-diylidene)bis{1,3-bis[2,6-bis(propan-2-yl)phenyl]-2,3-dihydro-1H-imidazole}
_symmetry_cell_setting           orthorhombic
_symmetry_space_group_name_H-M   'P 21 21 21'
_symmetry_Int_Tables_number      19
_space_group_name_Hall           'P 2ac 2ab'
loop_
_symmetry_equiv_pos_site_id
_symmetry_equiv_pos_as_xyz
1 x,y,z
2 1/2-x,-y,1/2+z
3 -x,1/2+y,1/2-z
4 1/2+x,1/2-y,-z
_cell_length_a                   12.2145(7)
_cell_length_b                   19.8453(11)
_cell_length_c                   23.3976(13)
_cell_angle_alpha                90
_cell_angle_beta                 90
_cell_angle_gamma                90
_cell_volume                     5671.59
_exptl_crystal_colour            black
_exptl_crystal_description       'prism fragment'
_cell_formula_units_Z            4
loop_
_atom_site_label
_atom_site_type_symbol
_atom_site_fract_x
_atom_site_fract_y
_atom_site_fract_z
B1 B 0.22218(12) 0.52239(7) 0.12863(6)
C1 C 0.10714(11) 0.51811(6) 0.15288(5)
C2 C 0.04300(11) 0.45774(7) 0.15176(6)
H1 H 0.0700 0.4201 0.1310
C3 C -0.05587(11) 0.45164(7) 0.17938(6)
H2 H -0.0957 0.4106 0.1775
C4 C -0.09795(11) 0.50704(7) 0.21074(6)
H3 H -0.1651 0.5030 0.2309
C5 C -0.04084(11) 0.56652(7) 0.21168(5)
H4 H -0.0714 0.6037 0.2317
C6 C 0.06224(11) 0.57518(6) 0.18406(5)
B2 B 0.12534(12) 0.64085(7) 0.18663(6)
C7 C 0.24267(11) 0.64402(7) 0.16504(5)
C8 C 0.31175(12) 0.70119(7) 0.17399(6)
H5 H 0.2801 0.7410 0.1894
C9 C 0.42163(12) 0.70136(8) 0.16146(7)
H6 H 0.4655 0.7395 0.1703
C10 C 0.46860(12) 0.64399(8) 0.13529(6)
H7 H 0.5445 0.6432 0.1264
C11 C 0.40370(12) 0.58943(7) 0.12289(6)
H8 H 0.4353 0.5527 0.1027
C12 C 0.29135(11) 0.58513(7) 0.13878(5)
N1 N 0.36020(9) 0.42060(6) 0.11171(5)
C13 C 0.27117(11) 0.45895(7) 0.09683(5)
N2 N 0.23061(9) 0.42771(6) 0.04884(5)
C14 C 0.29288(11) 0.37100(7) 0.03545(6)
H9 H 0.2811 0.3411 0.0043
C15 C 0.37264(11) 0.36654(7) 0.07470(6)
H10 H 0.4274 0.3327 0.0768
C16 C 0.43945(11) 0.43443(7) 0.15611(6)
C17 C 0.54739(12) 0.44885(8) 0.13858(6)
C18 C 0.62425(14) 0.46133(12) 0.18111(8)
H11 H 0.6982 0.4700 0.1708
C19 C 0.59447(16) 0.46125(15) 0.23833(8)
H12 H 0.6476 0.4712 0.2668
C20 C 0.48832(16) 0.44685(13) 0.25424(7)
H13 H 0.4694 0.4471 0.2936
C21 C 0.40816(13) 0.43196(9) 0.21372(6)
C22 C 0.58345(12) 0.45071(8) 0.07636(6)
H14 H 0.5165 0.4505 0.0518
C23 C 0.65116(15) 0.51315(9) 0.06137(8)
H15 H 0.6091 0.5538 0.0704
H16 H 0.6686 0.5127 0.0205
H17 H 0.7192 0.5129 0.0836
C24 C 0.65171(14) 0.38801(9) 0.06201(8)
H18 H 0.6100 0.3474 0.0718
H19 H 0.7199 0.3888 0.0840
H20 H 0.6687 0.3878 0.0211
C25 C 0.29497(13) 0.41085(8) 0.23386(6)
H21 H 0.2480 0.4033 0.1994
C26 C 0.30320(16) 0.34422(10) 0.26697(8)
H22 H 0.3373 0.3099 0.2427
H23 H 0.2297 0.3293 0.2781
H24 H 0.3478 0.3509 0.3013
C27 C 0.24137(15) 0.46543(10) 0.27067(7)
H25 H 0.2370 0.5075 0.2489
H26 H 0.2853 0.4727 0.3052
H27 H 0.1675 0.4510 0.2815
C28 C 0.14142(11) 0.44936(7) 0.01250(6)
C29 C 0.05428(12) 0.40395(7) 0.00357(6)
C30 C -0.02722(14) 0.42257(9) -0.03509(7)
H28 H -0.0866 0.3928 -0.0421
C31 C -0.02300(16) 0.48379(9) -0.06343(9)
H29 H -0.0795 0.4958 -0.0894
C32 C 0.06341(16) 0.52743(8) -0.05393(8)
H30 H 0.0649 0.5694 -0.0735
C33 C 0.14879(13) 0.51152(7) -0.01636(6)
C34 C 0.04609(12) 0.33502(7) 0.03194(6)
H31 H 0.1039 0.3324 0.0621
C35 C 0.06637(14) 0.27785(8) -0.01077(7)
H32 H 0.1375 0.2845 -0.0293
H33 H 0.0084 0.2779 -0.0397
H34 H 0.0662 0.2346 0.0095
C36 C -0.06539(13) 0.32339(9) 0.06081(7)
H35 H -0.0794 0.3596 0.0884
H36 H -0.0647 0.2799 0.0807
H37 H -0.1232 0.3233 0.0317
C37 C 0.24280(13) 0.56122(7) -0.01066(6)
H38 H 0.2955 0.5429 0.0181
C38 C 0.20232(16) 0.62988(8) 0.01090(7)
H39 H 0.1632 0.6239 0.0471
H40 H 0.1529 0.6497 -0.0175
H41 H 0.2651 0.6599 0.0168
C39 C 0.30448(17) 0.57021(9) -0.06739(7)
H42 H 0.3303 0.5263 -0.0809
H43 H 0.3673 0.6002 -0.0615
H44 H 0.2552 0.5899 -0.0959
N3 N 0.03950(10) 0.72175(6) 0.26698(5)
C40 C 0.07161(11) 0.70740(7) 0.21228(5)
N4 N 0.05147(10) 0.76528(6) 0.18262(5)
C41 C 0.00909(12) 0.81488(7) 0.21811(6)
H45 H -0.0112 0.8593 0.2073
C42 C 0.00226(12) 0.78790(7) 0.27085(6)
H46 H -0.0232 0.8099 0.3044
C43 C 0.04074(12) 0.67757(7) 0.31627(5)
C44 C -0.06003(13) 0.65991(7) 0.34065(6)
C45 C -0.05724(16) 0.61943(8) 0.38985(6)
H47 H -0.1240 0.6067 0.4077
C46 C 0.04069(18) 0.59784(9) 0.41275(7)
H48 H 0.0406 0.5699 0.4457
C47 C 0.13903(16) 0.61652(9) 0.38803(7)
H49 H 0.2057 0.6011 0.4043
C48 C 0.14211(13) 0.65769(7) 0.33952(6)
C49 C -0.17097(12) 0.68254(8) 0.31800(6)
H50 H -0.1595 0.7030 0.2794
C50 C -0.25296(14) 0.62426(9) 0.31163(8)
H51 H -0.2217 0.5895 0.2868
H52 H -0.3210 0.6412 0.2947
H53 H -0.2685 0.6049 0.3493
C51 C -0.22155(16) 0.73663(9) 0.35704(7)
H54 H -0.1757 0.7771 0.3564
H55 H -0.2260 0.7194 0.3962
H56 H -0.2952 0.7478 0.3434
C52 C 0.25023(13) 0.68187(8) 0.31503(6)
H57 H 0.2435 0.6804 0.2725
C53 C 0.27208(16) 0.75529(9) 0.33163(8)
H58 H 0.2128 0.7838 0.3171
H59 H 0.3418 0.7699 0.3151
H60 H 0.2755 0.7591 0.3733
C54 C 0.34874(16) 0.63839(11) 0.33129(9)
H61 H 0.3342 0.5914 0.3209
H62 H 0.3614 0.6416 0.3726
H63 H 0.4137 0.6544 0.3108
C55 C 0.05565(12) 0.77396(7) 0.12101(5)
C56 C 0.12830(13) 0.82156(7) 0.09800(6)
C57 C 0.12587(14) 0.83128(8) 0.03875(6)
H64 H 0.1753 0.8623 0.0218
C58 C 0.05284(15) 0.79654(9) 0.00439(6)
H65 H 0.0527 0.8038 -0.0357
C59 C -0.01980(14) 0.75143(8) 0.02838(6)
H66 H -0.0702 0.7283 0.0044
C60 C -0.02089(12) 0.73898(7) 0.08725(6)
C61 C 0.20451(13) 0.86512(8) 0.13338(6)
H67 H 0.2044 0.8477 0.1735
C62 C 0.32262(14) 0.86313(9) 0.11082(8)
H68 H 0.3451 0.8162 0.1052
H69 H 0.3715 0.8847 0.1386
H70 H 0.3266 0.8873 0.0743
C63 C 0.16283(16) 0.93825(8) 0.13420(8)
H71 H 0.0883 0.9394 0.1496
H72 H 0.1627 0.9563 0.0952
H73 H 0.2110 0.9657 0.1583
C64 C -0.10786(14) 0.69272(8) 0.11130(7)
H74 H -0.0893 0.6834 0.1522
C65 C -0.21929(15) 0.72797(12) 0.10978(9)
H75 H -0.2142 0.7713 0.1296
H76 H -0.2740 0.6996 0.1288
H77 H -0.2411 0.7355 0.0700
C66 C -0.1111(2) 0.62512(9) 0.07948(8)
H78 H -0.0372 0.6061 0.0777
H79 H -0.1388 0.6322 0.0406
H80 H -0.1595 0.5939 0.0998
loop_
_geom_bond_atom_site_label_1
_geom_bond_atom_site_label_2
_geom_bond_site_symmetry_1
_geom_bond_site_symmetry_2
B1 C1 1_555 1_555
C1 C2 1_555 1_555
C2 H1 1_555 1_555
C3 C2 1_555 1_555
H2 C3 1_555 1_555
C4 C3 1_555 1_555
H3 C4 1_555 1_555
C5 C4 1_555 1_555
H4 C5 1_555 1_555
C6 C1 1_555 1_555
B2 C6 1_555 1_555
C7 B2 1_555 1_555
C8 C7 1_555 1_555
H5 C8 1_555 1_555
C9 C8 1_555 1_555
H6 C9 1_555 1_555
C10 C9 1_555 1_555
H7 C10 1_555 1_555
C11 C10 1_555 1_555
H8 C11 1_555 1_555
C12 B1 1_555 1_555
N1 C13 1_555 1_555
C13 B1 1_555 1_555
N2 C13 1_555 1_555
C14 N2 1_555 1_555
H9 C14 1_555 1_555
C15 N1 1_555 1_555
H10 C15 1_555 1_555
C16 N1 1_555 1_555
C17 C16 1_555 1_555
C18 C17 1_555 1_555
H11 C18 1_555 1_555
C19 C18 1_555 1_555
H12 C19 1_555 1_555
C20 C19 1_555 1_555
H13 C20 1_555 1_555
C21 C16 1_555 1_555
C22 C17 1_555 1_555
H14 C22 1_555 1_555
C23 C22 1_555 1_555
H15 C23 1_555 1_555
H16 C23 1_555 1_555
H17 C23 1_555 1_555
C24 C22 1_555 1_555
H18 C24 1_555 1_555
H19 C24 1_555 1_555
H20 C24 1_555 1_555
C25 C21 1_555 1_555
H21 C25 1_555 1_555
C26 C25 1_555 1_555
H22 C26 1_555 1_555
H23 C26 1_555 1_555
H24 C26 1_555 1_555
C27 C25 1_555 1_555
H25 C27 1_555 1_555
H26 C27 1_555 1_555
H27 C27 1_555 1_555
C28 N2 1_555 1_555
C29 C28 1_555 1_555
C30 C29 1_555 1_555
H28 C30 1_555 1_555
C31 C30 1_555 1_555
H29 C31 1_555 1_555
C32 C31 1_555 1_555
H30 C32 1_555 1_555
C33 C28 1_555 1_555
C34 C29 1_555 1_555
H31 C34 1_555 1_555
C35 C34 1_555 1_555
H32 C35 1_555 1_555
H33 C35 1_555 1_555
H34 C35 1_555 1_555
C36 C34 1_555 1_555
H35 C36 1_555 1_555
H36 C36 1_555 1_555
H37 C36 1_555 1_555
C37 C33 1_555 1_555
H38 C37 1_555 1_555
C38 C37 1_555 1_555
H39 C38 1_555 1_555
H40 C38 1_555 1_555
H41 C38 1_555 1_555
C39 C37 1_555 1_555
H42 C39 1_555 1_555
H43 C39 1_555 1_555
H44 C39 1_555 1_555
N3 C40 1_555 1_555
C40 B2 1_555 1_555
N4 C40 1_555 1_555
C41 N4 1_555 1_555
H45 C41 1_555 1_555
C42 N3 1_555 1_555
H46 C42 1_555 1_555
C43 N3 1_555 1_555
C44 C43 1_555 1_555
C45 C44 1_555 1_555
H47 C45 1_555 1_555
C46 C45 1_555 1_555
H48 C46 1_555 1_555
C47 C46 1_555 1_555
H49 C47 1_555 1_555
C48 C43 1_555 1_555
C49 C44 1_555 1_555
H50 C49 1_555 1_555
C50 C49 1_555 1_555
H51 C50 1_555 1_555
H52 C50 1_555 1_555
H53 C50 1_555 1_555
C51 C49 1_555 1_555
H54 C51 1_555 1_555
H55 C51 1_555 1_555
H56 C51 1_555 1_555
C52 C48 1_555 1_555
H57 C52 1_555 1_555
C53 C52 1_555 1_555
H58 C53 1_555 1_555
H59 C53 1_555 1_555
H60 C53 1_555 1_555
C54 C52 1_555 1_555
H61 C54 1_555 1_555
H62 C54 1_555 1_555
H63 C54 1_555 1_555
C55 N4 1_555 1_555
C56 C55 1_555 1_555
C57 C56 1_555 1_555
H64 C57 1_555 1_555
C58 C57 1_555 1_555
H65 C58 1_555 1_555
C59 C58 1_555 1_555
H66 C59 1_555 1_555
C60 C55 1_555 1_555
C61 C56 1_555 1_555
H67 C61 1_555 1_555
C62 C61 1_555 1_555
H68 C62 1_555 1_555
H69 C62 1_555 1_555
H70 C62 1_555 1_555
C63 C61 1_555 1_555
H71 C63 1_555 1_555
H72 C63 1_555 1_555
H73 C63 1_555 1_555
C64 C60 1_555 1_555
H74 C64 1_555 1_555
C65 C64 1_555 1_555
H75 C65 1_555 1_555
H76 C65 1_555 1_555
H77 C65 1_555 1_555
C66 C64 1_555 1_555
H78 C66 1_555 1_555
H79 C66 1_555 1_555
H80 C66 1_555 1_555
C5 C6 1_555 1_555
C7 C12 1_555 1_555
C11 C12 1_555 1_555
C14 C15 1_555 1_555
C20 C21 1_555 1_555
C32 C33 1_555 1_555
C41 C42 1_555 1_555
C47 C48 1_555 1_555
C59 C60 1_555 1_555

#END
