
#######################################################################
#
#                 Cambridge Crystallographic Data Centre
#                                CCDC 
#
#######################################################################
#
# If this CIF has been generated from an entry in the Cambridge 
# Structural Database, then it will include bibliographic, chemical, 
# crystal, experimental, refinement or atomic coordinate data resulting 
# from the CCDC's data processing and validation procedures.
#
#######################################################################

data_VEFJEY
_chemical_formula_moiety         'C66 H80 B2 N4 O2'
_chemical_name_systematic        
2,2'-(5,10-dihydro-5,10-epidioxy-5,10-boranthrene-5,10-diylidene)bis{1,3-bis[2,6-bis(propan-2-yl)phenyl]-1H-3-imidazole}
_symmetry_cell_setting           triclinic
_symmetry_space_group_name_H-M   'P -1'
_symmetry_Int_Tables_number      2
_space_group_name_Hall           '-P 1'
loop_
_symmetry_equiv_pos_site_id
_symmetry_equiv_pos_as_xyz
1 x,y,z
2 -x,-y,-z
_cell_length_a                   12.2955(9)
_cell_length_b                   13.3751(10)
_cell_length_c                   20.8112(15)
_cell_angle_alpha                99.6469(13)
_cell_angle_beta                 93.4959(13)
_cell_angle_gamma                117.3094(12)
_cell_volume                     2960.65
_exptl_crystal_colour            'light yellow'
_exptl_crystal_description       'prism fragment'
_cell_formula_units_Z            2
loop_
_atom_site_label
_atom_site_type_symbol
_atom_site_fract_x
_atom_site_fract_y
_atom_site_fract_z
B1 B 0.22206(15) 1.02621(14) 0.28750(8)
O1 O 0.24189(10) 1.00417(9) 0.21708(5)
C1 C 0.32821(13) 1.02719(12) 0.33828(7)
C2 C 0.39721(14) 1.10866(13) 0.39574(7)
H1 H 0.3864 1.1749 0.4077
C3 C 0.48183(15) 1.09544(14) 0.43622(8)
H2 H 0.5266 1.1508 0.4760
C4 C 0.49969(15) 1.00072(14) 0.41765(8)
H3 H 0.5595 0.9922 0.4439
C5 C 0.43083(14) 0.91816(13) 0.36088(8)
H4 H 0.4452 0.8540 0.3489
C6 C 0.34159(13) 0.92575(12) 0.32086(7)
C7 C 0.24602(13) 1.16004(12) 0.29375(7)
N1 N 0.19771(11) 1.22136(10) 0.32858(6)
C8 C 0.26407(15) 1.33722(13) 0.32856(8)
H5 H 0.2486 1.3969 0.3499
C9 C 0.35374(16) 1.34925(13) 0.29299(8)
H6 H 0.4145 1.4195 0.2843
N2 N 0.34253(11) 1.24118(10) 0.27092(6)
C10 C 0.07942(14) 1.17856(12) 0.35218(7)
C11 C -0.02573(15) 1.14615(14) 0.30644(8)
C12 C -0.13822(16) 1.10738(15) 0.32970(9)
H7 H -0.2120 1.0823 0.2999
C13 C -0.14477(16) 1.10458(16) 0.39538(10)
H8 H -0.2229 1.0770 0.4102
C14 C -0.03922(16) 1.14132(15) 0.43946(9)
H9 H -0.0451 1.1406 0.4847
C15 C 0.07627(15) 1.17957(13) 0.41896(8)
C16 C -0.02015(17) 1.15208(17) 0.23437(9)
H10 H 0.0693 1.1949 0.2298
C17 C -0.0738(2) 1.0334(2) 0.18970(10)
H11 H -0.0276 0.9946 0.2022
H12 H -0.0677 1.0408 0.1438
H13 H -0.1611 0.9881 0.1941
C18 C -0.0825(2) 1.2196(2) 0.21266(11)
H14 H -0.1723 1.1750 0.2109
H15 H -0.0643 1.2336 0.1688
H16 H -0.0507 1.2935 0.2443
C19 C 0.19115(16) 1.21997(14) 0.46867(8)
H17 H 0.2637 1.2435 0.4444
C20 C 0.18416(18) 1.12316(17) 0.50081(9)
H18 H 0.1164 1.1011 0.5269
H19 H 0.2626 1.1498 0.5297
H20 H 0.1690 1.0564 0.4665
C21 C 0.2130(2) 1.32572(17) 0.52048(9)
H21 H 0.2190 1.3870 0.4985
H22 H 0.2904 1.3531 0.5505
H23 H 0.1438 1.3048 0.5456
C22 C 0.42104(15) 1.23043(13) 0.22334(8)
C23 C 0.54487(16) 1.26688(14) 0.24652(9)
C24 C 0.62246(19) 1.27537(18) 0.19888(11)
H24 H 0.7076 1.2999 0.2126
C25 C 0.5782(2) 1.2491(2) 0.13294(12)
H25 H 0.6328 1.2562 0.1016
C26 C 0.4555(2) 1.21257(19) 0.11193(10)
H26 H 0.4264 1.1939 0.0660
C27 C 0.37267(18) 1.20208(16) 0.15613(9)
C28 C 0.59719(16) 1.29743(15) 0.31870(9)
H27 H 0.5263 1.2752 0.3442
C29 C 0.6836(2) 1.42694(18) 0.34314(13)
H28 H 0.7558 1.4503 0.3202
H29 H 0.7111 1.4442 0.3908
H30 H 0.6393 1.4693 0.3341
C30 C 0.66578(19) 1.23138(19) 0.33308(12)
H31 H 0.6110 1.1485 0.3164
H32 H 0.6911 1.2472 0.3808
H33 H 0.7393 1.2560 0.3112
C31 C 0.23907(19) 1.16489(17) 0.13112(9)
H34 H 0.1927 1.1480 0.1692
C32 C 0.2260(3) 1.2623(2) 0.10845(14)
H35 H 0.2613 1.3306 0.1448
H36 H 0.1381 1.2377 0.0951
H37 H 0.2701 1.2810 0.0709
C33 C 0.1796(2) 1.0548(2) 0.07730(11)
H38 H 0.2214 1.0687 0.0386
H39 H 0.0917 1.0312 0.0650
H40 H 0.1875 0.9935 0.0937
B2 B 0.24254(16) 0.84268(14) 0.25472(8)
O2 O 0.27107(10) 0.90845(9) 0.20129(5)
C34 C 0.10501(14) 0.81461(12) 0.27256(7)
C35 C 0.00366(14) 0.70737(13) 0.26900(8)
H41 H 0.0088 0.6398 0.2511
C36 C -0.10485(15) 0.69636(15) 0.29086(9)
H42 H -0.1733 0.6222 0.2877
C37 C -0.11207(15) 0.79400(15) 0.31719(9)
H43 H -0.1841 0.7876 0.3346
C38 C -0.01410(15) 0.90201(14) 0.31841(8)
H44 H -0.0216 0.9686 0.3356
C39 C 0.09446(14) 0.91613(13) 0.29533(7)
C40 C 0.22982(13) 0.71789(13) 0.21807(7)
N3 N 0.23353(11) 0.63180(10) 0.24385(6)
C41 C 0.18166(15) 0.52956(13) 0.19642(8)
H45 H 0.1723 0.4574 0.2025
C42 C 0.14730(16) 0.55149(14) 0.14066(8)
H46 H 0.1091 0.4978 0.0996
N4 N 0.17755(12) 0.66692(11) 0.15359(6)
C43 C 0.31029(14) 0.64150(12) 0.30348(7)
C44 C 0.43030(14) 0.65978(13) 0.29655(8)
C45 C 0.50304(15) 0.66374(14) 0.35184(9)
H47 H 0.5848 0.6757 0.3488
C46 C 0.45899(16) 0.65066(15) 0.41081(9)
H48 H 0.5105 0.6545 0.4481
C47 C 0.34053(16) 0.63200(14) 0.41571(8)
H49 H 0.3113 0.6230 0.4567
C48 C 0.26218(15) 0.62585(13) 0.36220(8)
C49 C 0.48604(15) 0.68213(14) 0.23382(9)
H50 H 0.4188 0.6696 0.1989
C50 C 0.5360(2) 0.59964(19) 0.20892(11)
H51 H 0.5996 0.6075 0.2432
H52 H 0.5724 0.6183 0.1691
H53 H 0.4682 0.5202 0.1985
C51 C 0.58755(18) 0.80779(17) 0.24463(11)
H54 H 0.5514 0.8592 0.2552
H55 H 0.6246 0.8202 0.2044
H56 H 0.6516 0.8243 0.2813
C52 C 0.13277(17) 0.60486(16) 0.37115(9)
H57 H 0.0898 0.6005 0.3276
C53 C 0.05727(19) 0.4905(2) 0.39118(13)
H58 H 0.0524 0.4272 0.3576
H59 H -0.0265 0.4790 0.3951
H60 H 0.0974 0.4920 0.4337
C54 C 0.1363(2) 0.7045(2) 0.42035(11)
H61 H 0.1744 0.7086 0.4642
H62 H 0.0516 0.6921 0.4221
H63 H 0.1851 0.7768 0.4066
C55 C 0.16505(17) 0.71875(15) 0.09904(8)
C56 C 0.27191(19) 0.78195(16) 0.07291(8)
C57 C 0.2551(2) 0.81677(19) 0.01526(9)
H64 H 0.3252 0.8599 -0.0041
C58 C 0.1386(3) 0.7897(2) -0.01409(10)
H65 H 0.1291 0.8133 -0.0537
C59 C 0.0367(2) 0.7293(2) 0.01334(10)
H66 H -0.0427 0.7122 -0.0074
C60 C 0.04610(19) 0.69205(16) 0.07107(8)
C61 C 0.40089(18) 0.81211(16) 0.10318(9)
H67 H 0.3965 0.7995 0.1492
C62 C 0.4426(2) 0.7301(2) 0.06592(11)
H68 H 0.3854 0.6506 0.0682
H69 H 0.5264 0.7508 0.0861
H70 H 0.4427 0.7363 0.0197
C63 C 0.4933(2) 0.9378(2) 0.10833(14)
H71 H 0.5060 0.9519 0.0640
H72 H 0.5724 0.9559 0.1337
H73 H 0.4613 0.9869 0.1307
C64 C -0.06898(19) 0.63030(18) 0.10056(10)
H74 H -0.0443 0.6110 0.1415
C65 C -0.1639(2) 0.5174(2) 0.05384(13)
H75 H -0.1890 0.5339 0.0130
H76 H -0.2368 0.4793 0.0750
H77 H -0.1269 0.4666 0.0436
C66 C -0.1255(2) 0.7098(2) 0.12044(12)
H78 H -0.0630 0.7815 0.1502
H79 H -0.1962 0.6711 0.1430
H80 H -0.1536 0.7276 0.0809
loop_
_geom_bond_atom_site_label_1
_geom_bond_atom_site_label_2
_geom_bond_site_symmetry_1
_geom_bond_site_symmetry_2
B1 O1 1_555 1_555
O1 O2 1_555 1_555
C1 B1 1_555 1_555
C2 C1 1_555 1_555
H1 C2 1_555 1_555
C3 C2 1_555 1_555
H2 C3 1_555 1_555
C4 C3 1_555 1_555
H3 C4 1_555 1_555
C5 C4 1_555 1_555
H4 C5 1_555 1_555
C6 C1 1_555 1_555
C7 B1 1_555 1_555
N1 C7 1_555 1_555
C8 N1 1_555 1_555
H5 C8 1_555 1_555
C9 C8 1_555 1_555
H6 C9 1_555 1_555
N2 C7 1_555 1_555
C10 N1 1_555 1_555
C11 C10 1_555 1_555
C12 C11 1_555 1_555
H7 C12 1_555 1_555
C13 C12 1_555 1_555
H8 C13 1_555 1_555
C14 C13 1_555 1_555
H9 C14 1_555 1_555
C15 C10 1_555 1_555
C16 C11 1_555 1_555
H10 C16 1_555 1_555
C17 C16 1_555 1_555
H11 C17 1_555 1_555
H12 C17 1_555 1_555
H13 C17 1_555 1_555
C18 C16 1_555 1_555
H14 C18 1_555 1_555
H15 C18 1_555 1_555
H16 C18 1_555 1_555
C19 C15 1_555 1_555
H17 C19 1_555 1_555
C20 C19 1_555 1_555
H18 C20 1_555 1_555
H19 C20 1_555 1_555
H20 C20 1_555 1_555
C21 C19 1_555 1_555
H21 C21 1_555 1_555
H22 C21 1_555 1_555
H23 C21 1_555 1_555
C22 N2 1_555 1_555
C23 C22 1_555 1_555
C24 C23 1_555 1_555
H24 C24 1_555 1_555
C25 C24 1_555 1_555
H25 C25 1_555 1_555
C26 C25 1_555 1_555
H26 C26 1_555 1_555
C27 C22 1_555 1_555
C28 C23 1_555 1_555
H27 C28 1_555 1_555
C29 C28 1_555 1_555
H28 C29 1_555 1_555
H29 C29 1_555 1_555
H30 C29 1_555 1_555
C30 C28 1_555 1_555
H31 C30 1_555 1_555
H32 C30 1_555 1_555
H33 C30 1_555 1_555
C31 C27 1_555 1_555
H34 C31 1_555 1_555
C32 C31 1_555 1_555
H35 C32 1_555 1_555
H36 C32 1_555 1_555
H37 C32 1_555 1_555
C33 C31 1_555 1_555
H38 C33 1_555 1_555
H39 C33 1_555 1_555
H40 C33 1_555 1_555
B2 C6 1_555 1_555
O2 B2 1_555 1_555
C34 B2 1_555 1_555
C35 C34 1_555 1_555
H41 C35 1_555 1_555
C36 C35 1_555 1_555
H42 C36 1_555 1_555
C37 C36 1_555 1_555
H43 C37 1_555 1_555
C38 C37 1_555 1_555
H44 C38 1_555 1_555
C39 B1 1_555 1_555
C40 B2 1_555 1_555
N3 C40 1_555 1_555
C41 N3 1_555 1_555
H45 C41 1_555 1_555
C42 C41 1_555 1_555
H46 C42 1_555 1_555
N4 C40 1_555 1_555
C43 N3 1_555 1_555
C44 C43 1_555 1_555
C45 C44 1_555 1_555
H47 C45 1_555 1_555
C46 C45 1_555 1_555
H48 C46 1_555 1_555
C47 C46 1_555 1_555
H49 C47 1_555 1_555
C48 C43 1_555 1_555
C49 C44 1_555 1_555
H50 C49 1_555 1_555
C50 C49 1_555 1_555
H51 C50 1_555 1_555
H52 C50 1_555 1_555
H53 C50 1_555 1_555
C51 C49 1_555 1_555
H54 C51 1_555 1_555
H55 C51 1_555 1_555
H56 C51 1_555 1_555
C52 C48 1_555 1_555
H57 C52 1_555 1_555
C53 C52 1_555 1_555
H58 C53 1_555 1_555
H59 C53 1_555 1_555
H60 C53 1_555 1_555
C54 C52 1_555 1_555
H61 C54 1_555 1_555
H62 C54 1_555 1_555
H63 C54 1_555 1_555
C55 N4 1_555 1_555
C56 C55 1_555 1_555
C57 C56 1_555 1_555
H64 C57 1_555 1_555
C58 C57 1_555 1_555
H65 C58 1_555 1_555
C59 C58 1_555 1_555
H66 C59 1_555 1_555
C60 C55 1_555 1_555
C61 C56 1_555 1_555
H67 C61 1_555 1_555
C62 C61 1_555 1_555
H68 C62 1_555 1_555
H69 C62 1_555 1_555
H70 C62 1_555 1_555
C63 C61 1_555 1_555
H71 C63 1_555 1_555
H72 C63 1_555 1_555
H73 C63 1_555 1_555
C64 C60 1_555 1_555
H74 C64 1_555 1_555
C65 C64 1_555 1_555
H75 C65 1_555 1_555
H76 C65 1_555 1_555
H77 C65 1_555 1_555
C66 C64 1_555 1_555
H78 C66 1_555 1_555
H79 C66 1_555 1_555
H80 C66 1_555 1_555
C5 C6 1_555 1_555
C9 N2 1_555 1_555
C14 C15 1_555 1_555
C26 C27 1_555 1_555
C34 C39 1_555 1_555
C38 C39 1_555 1_555
C42 N4 1_555 1_555
C47 C48 1_555 1_555
C59 C60 1_555 1_555

#END
