
#######################################################################
#
#                 Cambridge Crystallographic Data Centre
#                                CCDC 
#
#######################################################################
#
# If this CIF has been generated from an entry in the Cambridge 
# Structural Database, then it will include bibliographic, chemical, 
# crystal, experimental, refinement or atomic coordinate data resulting 
# from the CCDC's data processing and validation procedures.
#
#######################################################################

data_VEFJAU
_chemical_formula_moiety         'C67 H80 B2 N4 O2,0.38(C4 H8 O1),0.12(C5 H12)'
_chemical_name_systematic        
'5,10-bis{1,3-bis[2,6-bis(propan-2-yl)phenyl]-1H-3-imidazol-2-ylidene}-5,10-dihydro-5,10-(epoxymethano)-5,10-boranthren-11-one tetrahydrofuran pentane solvate'
_symmetry_cell_setting           monoclinic
_symmetry_space_group_name_H-M   'P 21/c'
_symmetry_Int_Tables_number      14
_space_group_name_Hall           '-P 2ybc'
loop_
_symmetry_equiv_pos_site_id
_symmetry_equiv_pos_as_xyz
1 x,y,z
2 -x,1/2+y,1/2-z
3 -x,-y,-z
4 x,1/2-y,1/2+z
_cell_length_a                   37.9259(11)
_cell_length_b                   12.4199(3)
_cell_length_c                   25.2260(7)
_cell_angle_alpha                90
_cell_angle_beta                 93.9393(5)
_cell_angle_gamma                90
_cell_volume                     11854.3
_exptl_crystal_colour            colorless
_exptl_crystal_description       'needle fragment'
_cell_formula_units_Z            8
loop_
_atom_site_label
_atom_site_type_symbol
_atom_site_fract_x
_atom_site_fract_y
_atom_site_fract_z
B3 B 0.11176(4) 0.48468(12) 0.25405(6)
C68 C 0.08043(4) 0.44073(11) 0.21158(5)
C69 C 0.05152(4) 0.37433(12) 0.21922(6)
H81 H 0.0503 0.3388 0.2524
C70 C 0.02430(4) 0.35825(14) 0.17997(6)
H82 H 0.0051 0.3121 0.1863
C71 C 0.02562(4) 0.41013(13) 0.13183(6)
H83 H 0.0071 0.4007 0.1049
C72 C 0.05425(4) 0.47640(12) 0.12287(5)
H84 H 0.0547 0.5122 0.0896
C73 C 0.08216(3) 0.49207(11) 0.16089(5)
B4 B 0.11480(4) 0.57843(12) 0.15819(6)
C74 C 0.10413(3) 0.66207(11) 0.20430(5)
C75 C 0.09046(4) 0.76524(11) 0.19739(5)
H85 H 0.0901 0.7975 0.1632
C76 C 0.07721(4) 0.82305(12) 0.23915(6)
H86 H 0.0681 0.8937 0.2333
C77 C 0.07736(4) 0.77683(12) 0.28910(6)
H87 H 0.0689 0.8160 0.3180
C78 C 0.09001(4) 0.67233(11) 0.29658(5)
H88 H 0.0897 0.6405 0.3308
C79 C 0.10308(3) 0.61311(11) 0.25522(5)
C80 C 0.14958(3) 0.51211(10) 0.18164(5)
O3 O 0.14653(2) 0.46780(8) 0.22969(4)
O4 O 0.17695(3) 0.49656(8) 0.15985(4)
N5 N 0.10118(3) 0.39125(9) 0.35228(4)
C81 C 0.12080(4) 0.43959(10) 0.31560(5)
N6 N 0.15211(3) 0.46335(9) 0.34364(4)
C82 C 0.11957(4) 0.38724(12) 0.40157(5)
H89 H 0.1113 0.3580 0.4332
C83 C 0.15109(4) 0.43200(12) 0.39636(5)
H90 H 0.1694 0.4408 0.4236
C84 C 0.06883(4) 0.32864(11) 0.34485(5)
C85 C 0.07234(4) 0.21973(12) 0.33148(6)
C86 C 0.04112(4) 0.15924(13) 0.32565(6)
H91 H 0.0423 0.0855 0.3159
C87 C 0.00866(4) 0.20490(14) 0.33375(7)
H92 H -0.0123 0.1631 0.3285
C88 C 0.00659(4) 0.31137(13) 0.34952(7)
H93 H -0.0158 0.3411 0.3560
C89 C 0.03671(4) 0.37591(12) 0.35604(6)
C90 C 0.10763(4) 0.16846(12) 0.32248(7)
H94 H 0.1265 0.2217 0.3337
C91 C 0.11402(6) 0.06723(15) 0.35639(10)
H95 H 0.1119 0.0851 0.3939
H96 H 0.1378 0.0395 0.3517
H97 H 0.0965 0.0123 0.3453
C92 C 0.11063(6) 0.14525(18) 0.26336(8)
H98 H 0.0916 0.0965 0.2506
H99 H 0.1335 0.1115 0.2583
H100 H 0.1087 0.2128 0.2433
C93 C 0.03408(5) 0.49117(13) 0.37611(8)
H101 H 0.0581 0.5242 0.3753
C94 C 0.00907(6) 0.55817(17) 0.34039(11)
H102 H 0.0160 0.5536 0.3037
H103 H 0.0101 0.6334 0.3522
H104 H -0.0151 0.5309 0.3421
C95 C 0.02432(6) 0.49141(18) 0.43412(9)
H105 H 0.0014 0.4558 0.4366
H106 H 0.0228 0.5658 0.4467
H107 H 0.0425 0.4528 0.4561
C96 C 0.18644(3) 0.49868(11) 0.32700(5)
C97 C 0.19811(4) 0.60233(11) 0.34059(5)
C98 C 0.23379(4) 0.62558(12) 0.33549(5)
H108 H 0.2427 0.6949 0.3452
C99 C 0.25636(4) 0.54933(12) 0.31654(6)
H109 H 0.2807 0.5656 0.3143
C100 C 0.24338(4) 0.44907(12) 0.30078(5)
H110 H 0.2588 0.3987 0.2859
C101 C 0.20827(4) 0.42047(11) 0.30632(5)
C102 C 0.17388(4) 0.68864(12) 0.36004(6)
H111 H 0.1495 0.6579 0.3594
C103 C 0.17271(4) 0.78663(13) 0.32315(7)
H112 H 0.1963 0.8186 0.3232
H113 H 0.1561 0.8399 0.3357
H114 H 0.1649 0.7641 0.2870
C104 C 0.18484(5) 0.72101(15) 0.41748(7)
H115 H 0.1855 0.6569 0.4402
H116 H 0.1677 0.7726 0.4300
H117 H 0.2083 0.7542 0.4190
C105 C 0.19501(4) 0.30826(11) 0.29143(5)
H118 H 0.1686 0.3114 0.2869
C106 C 0.20850(4) 0.27209(12) 0.23860(6)
H119 H 0.2036 0.3282 0.2118
H120 H 0.1965 0.2054 0.2270
H121 H 0.2340 0.2594 0.2431
C107 C 0.20498(4) 0.22727(12) 0.33583(6)
H122 H 0.2308 0.2242 0.3419
H123 H 0.1959 0.1559 0.3254
H124 H 0.1946 0.2500 0.3686
N7 N 0.15234(3) 0.70516(9) 0.09426(4)
C108 C 0.12877(3) 0.62301(10) 0.10079(5)
N8 N 0.12973(3) 0.56606(9) 0.05442(4)
C109 C 0.16803(4) 0.69555(11) 0.04660(5)
H125 H 0.1855 0.7418 0.0339
C110 C 0.15395(4) 0.60903(11) 0.02173(5)
H126 H 0.1595 0.5822 -0.0120
C111 C 0.16177(4) 0.79658(10) 0.12839(5)
C112 C 0.14055(4) 0.88938(11) 0.12360(6)
C113 C 0.15001(4) 0.97482(12) 0.15730(6)
H127 H 0.1358 1.0379 0.1564
C114 C 0.17980(4) 0.96950(13) 0.19221(7)
H128 H 0.1850 1.0269 0.2164
C115 C 0.20189(4) 0.88136(12) 0.19207(6)
H129 H 0.2229 0.8805 0.2148
C116 C 0.19382(4) 0.79329(11) 0.15906(5)
C117 C 0.11005(4) 0.90001(12) 0.08132(6)
H130 H 0.0995 0.8270 0.0750
C118 C 0.12397(5) 0.93947(15) 0.02887(7)
H131 H 0.1345 1.0111 0.0341
H132 H 0.1044 0.9433 0.0015
H133 H 0.1419 0.8892 0.0176
C119 C 0.08069(4) 0.97579(13) 0.09670(7)
H134 H 0.0733 0.9560 0.1319
H135 H 0.0605 0.9699 0.0705
H136 H 0.0894 1.0501 0.0975
C120 C 0.22116(4) 0.70558(11) 0.15375(6)
H137 H 0.2099 0.6456 0.1322
C121 C 0.23494(4) 0.66028(13) 0.20729(6)
H138 H 0.2459 0.7182 0.2291
H139 H 0.2526 0.6043 0.2018
H140 H 0.2153 0.6292 0.2254
C122 C 0.25181(4) 0.75138(13) 0.12376(7)
H141 H 0.2633 0.8099 0.1446
H142 H 0.2426 0.7792 0.0892
H143 H 0.2691 0.6943 0.1185
C123 C 0.10525(4) 0.48676(11) 0.03110(5)
C124 C 0.11318(4) 0.37758(11) 0.03669(5)
C125 C 0.08921(4) 0.30552(12) 0.01154(6)
H144 H 0.0931 0.2303 0.0157
C126 C 0.05988(4) 0.34105(12) -0.01932(6)
H145 H 0.0439 0.2904 -0.0358
C127 C 0.05384(4) 0.45088(12) -0.02617(6)
H146 H 0.0341 0.4746 -0.0483
C128 C 0.07640(4) 0.52648(11) -0.00095(5)
C129 C 0.14713(4) 0.33839(11) 0.06570(6)
H147 H 0.1597 0.4024 0.0819
C130 C 0.14006(5) 0.26021(13) 0.11037(7)
H148 H 0.1246 0.2946 0.1350
H149 H 0.1625 0.2404 0.1295
H150 H 0.1285 0.1954 0.0953
C131 C 0.17114(4) 0.28748(15) 0.02594(7)
H151 H 0.1600 0.2219 0.0111
H152 H 0.1940 0.2695 0.0442
H153 H 0.1747 0.3386 -0.0028
C132 C 0.06986(4) 0.64659(12) -0.00923(6)
H154 H 0.0885 0.6862 0.0130
C133 C 0.03382(4) 0.68190(14) 0.00864(6)
H155 H 0.0150 0.6439 -0.0124
H156 H 0.0310 0.7597 0.0034
H157 H 0.0324 0.6646 0.0463
C134 C 0.07356(4) 0.67798(14) -0.06734(6)
H158 H 0.0971 0.6580 -0.0776
H159 H 0.0703 0.7559 -0.0715
H160 H 0.0556 0.6401 -0.0901
O5 O 0.26832(6) 0.88559(17) 0.30940(11)
C135 C 0.27132(10) 0.9992(3) 0.29782(18)
H161 H 0.2609 1.0430 0.3256
H162 H 0.2590 1.0165 0.2630
C136 C 0.30986(8) 1.0210(2) 0.29695(14)
H163 H 0.3201 1.0443 0.3323
H164 H 0.3147 1.0767 0.2703
C137 C 0.32422(10) 0.9130(3) 0.28177(18)
H165 H 0.3211 0.9015 0.2429
H166 H 0.3496 0.9063 0.2934
C138 C 0.30267(8) 0.8363(2) 0.31045(13)
H167 H 0.3015 0.7656 0.2924
H168 H 0.3126 0.8262 0.3474
B1 B 0.35931(4) 0.23003(13) 0.01805(6)
C1 C 0.39605(4) 0.16081(13) 0.02018(6)
C2 C 0.40605(4) 0.06719(15) -0.00552(8)
H1 H 0.3884 0.0248 -0.0241
C3 C 0.44125(5) 0.03428(18) -0.00457(9)
H2 H 0.4472 -0.0309 -0.0215
C4 C 0.46742(5) 0.09641(18) 0.02102(9)
H3 H 0.4916 0.0772 0.0197
C5 C 0.45788(4) 0.18735(15) 0.04867(7)
H4 H 0.4759 0.2300 0.0663
C6 C 0.42272(4) 0.21777(12) 0.05121(6)
B2 B 0.40974(4) 0.32409(14) 0.08181(6)
C7 C 0.39705(4) 0.40131(12) 0.03127(6)
C8 C 0.40959(4) 0.50058(13) 0.01531(6)
H5 H 0.4268 0.5371 0.0378
C9 C 0.39771(5) 0.54822(14) -0.03284(7)
H6 H 0.4065 0.6168 -0.0423
C10 C 0.37326(4) 0.49579(14) -0.06676(6)
H7 H 0.3655 0.5268 -0.1000
C11 C 0.36010(4) 0.39648(13) -0.05145(6)
H8 H 0.3432 0.3606 -0.0747
C12 C 0.37101(4) 0.34829(12) -0.00319(6)
C13 C 0.37265(4) 0.29247(11) 0.10800(6)
O1 O 0.34883(3) 0.24366(8) 0.07436(4)
O2 O 0.36443(3) 0.30800(9) 0.15391(4)
N1 N 0.31502(3) 0.13588(9) -0.06020(5)
C14 C 0.32191(4) 0.19527(11) -0.01512(5)
N2 N 0.29012(3) 0.24191(9) -0.00670(4)
C15 C 0.27992(4) 0.14598(12) -0.07914(6)
H9 H 0.2690 0.1124 -0.1098
C16 C 0.26458(4) 0.21200(12) -0.04586(6)
H10 H 0.2406 0.2344 -0.0485
C17 C 0.33476(4) 0.04677(12) -0.08101(6)
C18 C 0.32944(4) -0.05427(12) -0.05831(6)
C19 C 0.34600(5) -0.14256(14) -0.08039(7)
H11 H 0.3432 -0.2123 -0.0658
C20 C 0.36637(5) -0.12928(16) -0.12321(8)
H12 H 0.3774 -0.1900 -0.1379
C21 C 0.37079(5) -0.02858(16) -0.14491(8)
H13 H 0.3851 -0.0211 -0.1742
C22 C 0.35471(4) 0.06274(14) -0.12489(7)
C23 C 0.30679(4) -0.07084(12) -0.01154(6)
H14 H 0.3003 0.0020 0.0016
C24 C 0.27241(5) -0.12924(14) -0.02919(7)
H15 H 0.2590 -0.0860 -0.0561
H16 H 0.2583 -0.1397 0.0015
H17 H 0.2780 -0.1994 -0.0443
C25 C 0.32688(5) -0.12960(15) 0.03453(7)
H18 H 0.3325 -0.2029 0.0235
H19 H 0.3122 -0.1327 0.0650
H20 H 0.3488 -0.0908 0.0447
C26 C 0.35982(5) 0.17219(16) -0.15030(7)
H21 H 0.3436 0.2243 -0.1341
C27 C 0.35034(6) 0.16981(19) -0.21052(8)
H22 H 0.3667 0.1220 -0.2276
H23 H 0.3521 0.2427 -0.2250
H24 H 0.3261 0.1433 -0.2174
C28 C 0.39776(6) 0.2113(2) -0.13779(9)
H25 H 0.4033 0.2103 -0.0993
H26 H 0.4002 0.2848 -0.1511
H27 H 0.4141 0.1637 -0.1550
C29 C 0.27843(4) 0.30732(12) 0.03675(5)
C30 C 0.26860(4) 0.41409(12) 0.02585(6)
C31 C 0.25175(4) 0.46976(13) 0.06512(6)
H28 H 0.2446 0.5422 0.0588
C32 C 0.24530(4) 0.42197(14) 0.11267(6)
H29 H 0.2339 0.4613 0.1389
C33 C 0.25543(4) 0.31661(14) 0.12199(6)
H30 H 0.2513 0.2848 0.1552
C34 C 0.27149(4) 0.25550(13) 0.08428(6)
C35 C 0.27406(4) 0.47081(12) -0.02631(6)
H31 H 0.2874 0.4211 -0.0489
C36 C 0.29602(5) 0.57316(14) -0.01675(8)
H32 H 0.2830 0.6242 0.0042
H33 H 0.3006 0.6058 -0.0510
H34 H 0.3185 0.5550 0.0027
C37 C 0.23847(5) 0.49730(16) -0.05618(7)
H35 H 0.2253 0.4305 -0.0638
H36 H 0.2426 0.5339 -0.0896
H37 H 0.2247 0.5444 -0.0342
C38 C 0.27822(4) 0.13646(13) 0.09406(6)
H38 H 0.2981 0.1139 0.0724
C39 C 0.24538(5) 0.07124(14) 0.07520(8)
H39 H 0.2254 0.0927 0.0956
H40 H 0.2502 -0.0057 0.0806
H41 H 0.2396 0.0851 0.0374
C40 C 0.28890(5) 0.11193(17) 0.15240(7)
H42 H 0.3086 0.1588 0.1648
H43 H 0.2963 0.0365 0.1560
H44 H 0.2687 0.1248 0.1738
N3 N 0.43513(3) 0.45943(10) 0.16022(5)
C41 C 0.43479(4) 0.36173(11) 0.13535(6)
N4 N 0.44951(3) 0.29308(10) 0.17392(5)
C42 C 0.44802(4) 0.45125(13) 0.21277(6)
H45 H 0.4502 0.5081 0.2380
C43 C 0.45679(4) 0.34795(13) 0.22125(6)
H46 H 0.4663 0.3178 0.2538
C44 C 0.42874(4) 0.56573(12) 0.13723(6)
C45 C 0.45733(4) 0.61869(12) 0.11569(6)
C46 C 0.45118(5) 0.72172(13) 0.09520(7)
H47 H 0.4699 0.7599 0.0806
C47 C 0.41824(5) 0.76938(14) 0.09581(7)
H48 H 0.4143 0.8387 0.0806
C48 C 0.39105(5) 0.71649(14) 0.11837(7)
H49 H 0.3687 0.7507 0.1189
C49 C 0.39559(4) 0.61364(13) 0.14046(6)
C50 C 0.49364(4) 0.56791(14) 0.11335(7)
H50 H 0.4906 0.4880 0.1148
C51 C 0.51800(5) 0.60096(19) 0.16114(9)
H51 H 0.5211 0.6793 0.1611
H52 H 0.5410 0.5658 0.1592
H53 H 0.5075 0.5790 0.1939
C52 C 0.51095(5) 0.59441(19) 0.06205(9)
H54 H 0.4946 0.5768 0.0315
H55 H 0.5327 0.5521 0.0603
H56 H 0.5167 0.6713 0.0614
C53 C 0.36539(4) 0.55928(14) 0.16579(6)
H57 H 0.3739 0.4879 0.1799
C54 C 0.33440(4) 0.53972(16) 0.12479(8)
H58 H 0.3251 0.6090 0.1115
H59 H 0.3157 0.5002 0.1415
H60 H 0.3425 0.4974 0.0952
C55 C 0.35334(6) 0.62663(17) 0.21246(8)
H61 H 0.3734 0.6382 0.2384
H62 H 0.3346 0.5882 0.2295
H63 H 0.3444 0.6963 0.1992
C56 C 0.46517(4) 0.18606(12) 0.16864(6)
C57 C 0.44480(4) 0.09348(13) 0.17287(6)
C58 C 0.46156(5) -0.00540(13) 0.16690(7)
H64 H 0.4483 -0.0699 0.1692
C59 C 0.49692(5) -0.01192(14) 0.15775(7)
H65 H 0.5075 -0.0799 0.1520
C60 C 0.51694(5) 0.08078(14) 0.15696(7)
H66 H 0.5415 0.0756 0.1519
C61 C 0.50186(4) 0.18205(13) 0.16337(6)
C62 C 0.40649(4) 0.09719(13) 0.18573(7)
H67 H 0.3977 0.1721 0.1787
C63 C 0.38326(5) 0.02092(16) 0.15143(9)
H68 H 0.3869 0.0338 0.1139
H69 H 0.3584 0.0336 0.1578
H70 H 0.3895 -0.0537 0.1606
C64 C 0.40351(6) 0.07375(18) 0.24475(9)
H71 H 0.4123 0.0011 0.2529
H72 H 0.3787 0.0788 0.2531
H73 H 0.4176 0.1264 0.2661
C65 C 0.52564(4) 0.28051(14) 0.16575(7)
H74 H 0.5104 0.3453 0.1700
C66 C 0.54552(5) 0.29605(19) 0.11582(9)
H75 H 0.5588 0.2305 0.1088
H76 H 0.5619 0.3567 0.1210
H77 H 0.5286 0.3109 0.0856
C67 C 0.55173(5) 0.27281(17) 0.21493(9)
H78 H 0.5386 0.2664 0.2469
H79 H 0.5664 0.3377 0.2174
H80 H 0.5668 0.2094 0.2119
C139? C 0.3275(3) 0.8753(8) 0.2405(4)
H169? H 0.3522 0.8576 0.2348
H170? H 0.3231 0.9512 0.2317
H171? H 0.3118 0.8298 0.2177
C140? C 0.3209(4) 0.8567(12) 0.2957(4)
H172? H 0.3408 0.8894 0.3175
H173? H 0.3223 0.7780 0.3017
C141? C 0.2885(4) 0.8940(10) 0.3170(6)
H174? H 0.2693 0.8488 0.3003
H175? H 0.2904 0.8752 0.3552
C142? C 0.2760(4) 1.0020(10) 0.3139(9)
H176? H 0.2630 1.0080 0.2786
H177? H 0.2579 1.0069 0.3403
C143? C 0.2960(3) 1.0984(10) 0.3200(5)
H178? H 0.2849 1.1547 0.2972
H179? H 0.3201 1.0854 0.3098
H180? H 0.2968 1.1217 0.3572
loop_
_geom_bond_atom_site_label_1
_geom_bond_atom_site_label_2
_geom_bond_site_symmetry_1
_geom_bond_site_symmetry_2
B1 C1 1_555 1_555
C1 C2 1_555 1_555
C2 H1 1_555 1_555
C3 C2 1_555 1_555
H2 C3 1_555 1_555
C4 C3 1_555 1_555
H3 C4 1_555 1_555
C5 C4 1_555 1_555
H4 C5 1_555 1_555
C6 C1 1_555 1_555
B2 C6 1_555 1_555
C7 B2 1_555 1_555
C8 C7 1_555 1_555
H5 C8 1_555 1_555
C9 C8 1_555 1_555
H6 C9 1_555 1_555
C10 C9 1_555 1_555
H7 C10 1_555 1_555
C11 C10 1_555 1_555
H8 C11 1_555 1_555
C12 B1 1_555 1_555
C13 B2 1_555 1_555
O1 B1 1_555 1_555
O2 C13 1_555 1_555
N1 C14 1_555 1_555
C14 B1 1_555 1_555
N2 C14 1_555 1_555
C15 N1 1_555 1_555
H9 C15 1_555 1_555
C16 N2 1_555 1_555
H10 C16 1_555 1_555
C17 N1 1_555 1_555
C18 C17 1_555 1_555
C19 C18 1_555 1_555
H11 C19 1_555 1_555
C20 C19 1_555 1_555
H12 C20 1_555 1_555
C21 C20 1_555 1_555
H13 C21 1_555 1_555
C22 C17 1_555 1_555
C23 C18 1_555 1_555
H14 C23 1_555 1_555
C24 C23 1_555 1_555
H15 C24 1_555 1_555
H16 C24 1_555 1_555
H17 C24 1_555 1_555
C25 C23 1_555 1_555
H18 C25 1_555 1_555
H19 C25 1_555 1_555
H20 C25 1_555 1_555
C26 C22 1_555 1_555
H21 C26 1_555 1_555
C27 C26 1_555 1_555
H22 C27 1_555 1_555
H23 C27 1_555 1_555
H24 C27 1_555 1_555
C28 C26 1_555 1_555
H25 C28 1_555 1_555
H26 C28 1_555 1_555
H27 C28 1_555 1_555
C29 N2 1_555 1_555
C30 C29 1_555 1_555
C31 C30 1_555 1_555
H28 C31 1_555 1_555
C32 C31 1_555 1_555
H29 C32 1_555 1_555
C33 C32 1_555 1_555
H30 C33 1_555 1_555
C34 C29 1_555 1_555
C35 C30 1_555 1_555
H31 C35 1_555 1_555
C36 C35 1_555 1_555
H32 C36 1_555 1_555
H33 C36 1_555 1_555
H34 C36 1_555 1_555
C37 C35 1_555 1_555
H35 C37 1_555 1_555
H36 C37 1_555 1_555
H37 C37 1_555 1_555
C38 C34 1_555 1_555
H38 C38 1_555 1_555
C39 C38 1_555 1_555
H39 C39 1_555 1_555
H40 C39 1_555 1_555
H41 C39 1_555 1_555
C40 C38 1_555 1_555
H42 C40 1_555 1_555
H43 C40 1_555 1_555
H44 C40 1_555 1_555
N3 C41 1_555 1_555
C41 B2 1_555 1_555
N4 C41 1_555 1_555
C42 N3 1_555 1_555
H45 C42 1_555 1_555
C43 N4 1_555 1_555
H46 C43 1_555 1_555
C44 N3 1_555 1_555
C45 C44 1_555 1_555
C46 C45 1_555 1_555
H47 C46 1_555 1_555
C47 C46 1_555 1_555
H48 C47 1_555 1_555
C48 C47 1_555 1_555
H49 C48 1_555 1_555
C49 C44 1_555 1_555
C50 C45 1_555 1_555
H50 C50 1_555 1_555
C51 C50 1_555 1_555
H51 C51 1_555 1_555
H52 C51 1_555 1_555
H53 C51 1_555 1_555
C52 C50 1_555 1_555
H54 C52 1_555 1_555
H55 C52 1_555 1_555
H56 C52 1_555 1_555
C53 C49 1_555 1_555
H57 C53 1_555 1_555
C54 C53 1_555 1_555
H58 C54 1_555 1_555
H59 C54 1_555 1_555
H60 C54 1_555 1_555
C55 C53 1_555 1_555
H61 C55 1_555 1_555
H62 C55 1_555 1_555
H63 C55 1_555 1_555
C56 N4 1_555 1_555
C57 C56 1_555 1_555
C58 C57 1_555 1_555
H64 C58 1_555 1_555
C59 C58 1_555 1_555
H65 C59 1_555 1_555
C60 C59 1_555 1_555
H66 C60 1_555 1_555
C61 C56 1_555 1_555
C62 C57 1_555 1_555
H67 C62 1_555 1_555
C63 C62 1_555 1_555
H68 C63 1_555 1_555
H69 C63 1_555 1_555
H70 C63 1_555 1_555
C64 C62 1_555 1_555
H71 C64 1_555 1_555
H72 C64 1_555 1_555
H73 C64 1_555 1_555
C65 C61 1_555 1_555
H74 C65 1_555 1_555
C66 C65 1_555 1_555
H75 C66 1_555 1_555
H76 C66 1_555 1_555
H77 C66 1_555 1_555
C67 C65 1_555 1_555
H78 C67 1_555 1_555
H79 C67 1_555 1_555
H80 C67 1_555 1_555
B3 C68 1_555 1_555
C68 C69 1_555 1_555
C69 H81 1_555 1_555
C70 C69 1_555 1_555
H82 C70 1_555 1_555
C71 C70 1_555 1_555
H83 C71 1_555 1_555
C72 C71 1_555 1_555
H84 C72 1_555 1_555
C73 C68 1_555 1_555
B4 C73 1_555 1_555
C74 B4 1_555 1_555
C75 C74 1_555 1_555
H85 C75 1_555 1_555
C76 C75 1_555 1_555
H86 C76 1_555 1_555
C77 C76 1_555 1_555
H87 C77 1_555 1_555
C78 C77 1_555 1_555
H88 C78 1_555 1_555
C79 B3 1_555 1_555
C80 B4 1_555 1_555
O3 B3 1_555 1_555
O4 C80 1_555 1_555
N5 C81 1_555 1_555
C81 B3 1_555 1_555
N6 C81 1_555 1_555
C82 N5 1_555 1_555
H89 C82 1_555 1_555
C83 N6 1_555 1_555
H90 C83 1_555 1_555
C84 N5 1_555 1_555
C85 C84 1_555 1_555
C86 C85 1_555 1_555
H91 C86 1_555 1_555
C87 C86 1_555 1_555
H92 C87 1_555 1_555
C88 C87 1_555 1_555
H93 C88 1_555 1_555
C89 C84 1_555 1_555
C90 C85 1_555 1_555
H94 C90 1_555 1_555
C91 C90 1_555 1_555
H95 C91 1_555 1_555
H96 C91 1_555 1_555
H97 C91 1_555 1_555
C92 C90 1_555 1_555
H98 C92 1_555 1_555
H99 C92 1_555 1_555
H100 C92 1_555 1_555
C93 C89 1_555 1_555
H101 C93 1_555 1_555
C94 C93 1_555 1_555
H102 C94 1_555 1_555
H103 C94 1_555 1_555
H104 C94 1_555 1_555
C95 C93 1_555 1_555
H105 C95 1_555 1_555
H106 C95 1_555 1_555
H107 C95 1_555 1_555
C96 N6 1_555 1_555
C97 C96 1_555 1_555
C98 C97 1_555 1_555
H108 C98 1_555 1_555
C99 C98 1_555 1_555
H109 C99 1_555 1_555
C100 C99 1_555 1_555
H110 C100 1_555 1_555
C101 C96 1_555 1_555
C102 C97 1_555 1_555
H111 C102 1_555 1_555
C103 C102 1_555 1_555
H112 C103 1_555 1_555
H113 C103 1_555 1_555
H114 C103 1_555 1_555
C104 C102 1_555 1_555
H115 C104 1_555 1_555
H116 C104 1_555 1_555
H117 C104 1_555 1_555
C105 C101 1_555 1_555
H118 C105 1_555 1_555
C106 C105 1_555 1_555
H119 C106 1_555 1_555
H120 C106 1_555 1_555
H121 C106 1_555 1_555
C107 C105 1_555 1_555
H122 C107 1_555 1_555
H123 C107 1_555 1_555
H124 C107 1_555 1_555
N7 C108 1_555 1_555
C108 B4 1_555 1_555
N8 C108 1_555 1_555
C109 N7 1_555 1_555
H125 C109 1_555 1_555
C110 N8 1_555 1_555
H126 C110 1_555 1_555
C111 N7 1_555 1_555
C112 C111 1_555 1_555
C113 C112 1_555 1_555
H127 C113 1_555 1_555
C114 C113 1_555 1_555
H128 C114 1_555 1_555
C115 C114 1_555 1_555
H129 C115 1_555 1_555
C116 C111 1_555 1_555
C117 C112 1_555 1_555
H130 C117 1_555 1_555
C118 C117 1_555 1_555
H131 C118 1_555 1_555
H132 C118 1_555 1_555
H133 C118 1_555 1_555
C119 C117 1_555 1_555
H134 C119 1_555 1_555
H135 C119 1_555 1_555
H136 C119 1_555 1_555
C120 C116 1_555 1_555
H137 C120 1_555 1_555
C121 C120 1_555 1_555
H138 C121 1_555 1_555
H139 C121 1_555 1_555
H140 C121 1_555 1_555
C122 C120 1_555 1_555
H141 C122 1_555 1_555
H142 C122 1_555 1_555
H143 C122 1_555 1_555
C123 N8 1_555 1_555
C124 C123 1_555 1_555
C125 C124 1_555 1_555
H144 C125 1_555 1_555
C126 C125 1_555 1_555
H145 C126 1_555 1_555
C127 C126 1_555 1_555
H146 C127 1_555 1_555
C128 C123 1_555 1_555
C129 C124 1_555 1_555
H147 C129 1_555 1_555
C130 C129 1_555 1_555
H148 C130 1_555 1_555
H149 C130 1_555 1_555
H150 C130 1_555 1_555
C131 C129 1_555 1_555
H151 C131 1_555 1_555
H152 C131 1_555 1_555
H153 C131 1_555 1_555
C132 C128 1_555 1_555
H154 C132 1_555 1_555
C133 C132 1_555 1_555
H155 C133 1_555 1_555
H156 C133 1_555 1_555
H157 C133 1_555 1_555
C134 C132 1_555 1_555
H158 C134 1_555 1_555
H159 C134 1_555 1_555
H160 C134 1_555 1_555
O5 C135 1_555 1_555
C135 H161 1_555 1_555
H162 C135 1_555 1_555
C136 C135 1_555 1_555
H163 C136 1_555 1_555
H164 C136 1_555 1_555
C137 C136 1_555 1_555
H165 C137 1_555 1_555
H166 C137 1_555 1_555
C138 O5 1_555 1_555
H167 C138 1_555 1_555
H168 C138 1_555 1_555
C5 C6 1_555 1_555
C7 C12 1_555 1_555
C11 C12 1_555 1_555
C13 O1 1_555 1_555
C15 C16 1_555 1_555
C21 C22 1_555 1_555
C33 C34 1_555 1_555
C42 C43 1_555 1_555
C48 C49 1_555 1_555
C60 C61 1_555 1_555
C72 C73 1_555 1_555
C74 C79 1_555 1_555
C78 C79 1_555 1_555
C80 O3 1_555 1_555
C82 C83 1_555 1_555
C88 C89 1_555 1_555
C100 C101 1_555 1_555
C109 C110 1_555 1_555
C115 C116 1_555 1_555
C127 C128 1_555 1_555
C137 C138 1_555 1_555

#END
