
#######################################################################
#
#                 Cambridge Crystallographic Data Centre
#                                CCDC 
#
#######################################################################
#
# If this CIF has been generated from an entry in the Cambridge 
# Structural Database, then it will include bibliographic, chemical, 
# crystal, experimental, refinement or atomic coordinate data resulting 
# from the CCDC's data processing and validation procedures.
#
#######################################################################

data_VEFKEZ
_chemical_formula_moiety         'C10 H9 F3 O1 S1'
_chemical_name_systematic        
2-[4-(methylsulfanyl)phenyl]-2-(trifluoromethyl)oxirane
_symmetry_cell_setting           monoclinic
_symmetry_space_group_name_H-M   'P 21'
_symmetry_Int_Tables_number      4
_space_group_name_Hall           'P 2yb'
loop_
_symmetry_equiv_pos_site_id
_symmetry_equiv_pos_as_xyz
1 x,y,z
2 -x,1/2+y,-z
_cell_length_a                   8.1870(13)
_cell_length_b                   5.4348(8)
_cell_length_c                   11.5306(18)
_cell_angle_alpha                90
_cell_angle_beta                 98.017(3)
_cell_angle_gamma                90
_cell_volume                     508.036
_exptl_crystal_colour            colorless
_exptl_crystal_description       needle
_cell_formula_units_Z            2
loop_
_atom_site_label
_atom_site_type_symbol
_atom_site_fract_x
_atom_site_fract_y
_atom_site_fract_z
O1 O 0.49807(14) 0.5172(4) 0.13954(11)
C1 C 0.4323(2) 0.7628(4) 0.11478(17)
H1 H 0.4010 0.8102 0.0318
H2 H 0.4766 0.8981 0.1675
C2 C 0.3345(2) 0.5709(4) 0.16285(15)
C3 C 0.2050(2) 0.4390(4) 0.07932(16)
F1 F 0.19286(18) 0.2024(3) 0.10939(11)
F2 F 0.05622(13) 0.5411(3) 0.08090(10)
F3 F 0.23546(16) 0.4440(3) -0.03160(10)
C4 C 0.3068(2) 0.5661(3) 0.28868(15)
C5 C 0.3736(2) 0.3757(4) 0.36150(16)
H3 H 0.4378 0.2517 0.3313
C6 C 0.3470(2) 0.3659(4) 0.47771(16)
H4 H 0.3928 0.2354 0.5266
C7 C 0.25257(19) 0.5482(4) 0.52309(14)
C8 C 0.1859(2) 0.7393(4) 0.45044(16)
H5 H 0.1216 0.8635 0.4804
C9 C 0.2136(2) 0.7477(4) 0.33383(16)
H6 H 0.1685 0.8785 0.2848
S1 S 0.22700(5) 0.51552(9) 0.67154(3)
C10 C 0.1287(3) 0.7967(4) 0.70485(18)
H7 H 0.1964 0.9367 0.6872
H8 H 0.1160 0.7991 0.7881
H9 H 0.0198 0.8078 0.6574
loop_
_geom_bond_atom_site_label_1
_geom_bond_atom_site_label_2
_geom_bond_site_symmetry_1
_geom_bond_site_symmetry_2
O1 C1 1_555 1_555
C1 H1 1_555 1_555
H2 C1 1_555 1_555
C2 O1 1_555 1_555
C3 C2 1_555 1_555
F1 C3 1_555 1_555
F2 C3 1_555 1_555
F3 C3 1_555 1_555
C4 C2 1_555 1_555
C5 C4 1_555 1_555
H3 C5 1_555 1_555
C6 C5 1_555 1_555
H4 C6 1_555 1_555
C7 C6 1_555 1_555
C8 C7 1_555 1_555
H5 C8 1_555 1_555
C9 C4 1_555 1_555
H6 C9 1_555 1_555
S1 C7 1_555 1_555
C10 S1 1_555 1_555
H7 C10 1_555 1_555
H8 C10 1_555 1_555
H9 C10 1_555 1_555
C1 C2 1_555 1_555
C8 C9 1_555 1_555

#END
