
#######################################################################
#
#                 Cambridge Crystallographic Data Centre
#                                CCDC 
#
#######################################################################
#
# If this CIF has been generated from an entry in the Cambridge 
# Structural Database, then it will include bibliographic, chemical, 
# crystal, experimental, refinement or atomic coordinate data resulting 
# from the CCDC's data processing and validation procedures.
#
#######################################################################

data_VEFNOM
_chemical_formula_moiety         'C17 H22 N2 O2'
_chemical_name_systematic        
3-(2,2-dimethylpropyl)-6-methoxy-2,3-dihydropyrrolo[2,1-b]quinazolin-9(1H)-one
_symmetry_cell_setting           monoclinic
_symmetry_space_group_name_H-M   'P 21/n'
_symmetry_Int_Tables_number      14
_space_group_name_Hall           '-P 2yn'
loop_
_symmetry_equiv_pos_site_id
_symmetry_equiv_pos_as_xyz
1 x,y,z
2 1/2-x,1/2+y,1/2-z
3 -x,-y,-z
4 1/2+x,1/2-y,1/2+z
_cell_length_a                   6.0777(7)
_cell_length_b                   22.245(3)
_cell_length_c                   11.8606(15)
_cell_angle_alpha                90
_cell_angle_beta                 96.163(2)
_cell_angle_gamma                90
_cell_volume                     1594.27
_cell_formula_units_Z            4
loop_
_atom_site_label
_atom_site_type_symbol
_atom_site_fract_x
_atom_site_fract_y
_atom_site_fract_z
C1 C -0.3444(6) 0.34220(19) 0.4197(3)
H1 H -0.3597 0.3675 0.4840
H2 H -0.4839 0.3396 0.3736
H3 H -0.2355 0.3590 0.3759
C2 C -0.0825(6) 0.27796(16) 0.5243(3)
C3 C -0.0281(6) 0.21877(16) 0.5574(3)
H4 H -0.1234 0.1874 0.5342
C4 C 0.1659(6) 0.20733(15) 0.6240(3)
H5 H 0.2030 0.1680 0.6445
C5 C 0.3082(5) 0.25411(14) 0.6614(3)
C6 C 0.2521(5) 0.31358(14) 0.6306(3)
C7 C 0.0558(5) 0.32486(15) 0.5599(3)
H6 H 0.0193 0.3639 0.5372
C8 C 0.5133(5) 0.24192(14) 0.7334(3)
C9 C 0.8417(6) 0.29329(16) 0.8375(3)
H7 H 0.9576 0.2763 0.7971
H8 H 0.8323 0.2706 0.9066
C10 C 0.8836(7) 0.35890(19) 0.8629(4)
H9 H 0.8511 0.3681 0.9393
H10 H 1.0374 0.3686 0.8568
C11 C 0.7356(6) 0.39459(16) 0.7783(3)
H11 H 0.8241 0.4029 0.7157
C12 C 0.5619(5) 0.34964(14) 0.7321(3)
C13 C 0.7698(8) 0.5109(2) 0.7741(5)
C14 C 1.0079(9) 0.5100(3) 0.8189(6)
H12 H 1.0730 0.5484 0.8063
H13 H 1.0828 0.4794 0.7806
H14 H 1.0216 0.5016 0.8987
C15 C 0.6572(10) 0.5617(3) 0.8300(6)
H15 H 0.6708 0.5555 0.9105
H16 H 0.5034 0.5629 0.8013
H17 H 0.7258 0.5992 0.8137
C16 C 0.7401(13) 0.5224(3) 0.6499(6)
H18 H 0.8217 0.5577 0.6333
H19 H 0.5859 0.5285 0.6255
H20 H 0.7934 0.4886 0.6107
N1 N 0.3828(5) 0.36241(12) 0.6671(2)
N2 N 0.6283(4) 0.29355(12) 0.7662(2)
O1 O 0.5841(4) 0.19240(11) 0.7637(2)
C17 C 0.6493(9) 0.4540(2) 0.8111(5)
H21 H 0.6528 0.4549 0.8930
H22 H 0.4953 0.4567 0.7800
O2 O -0.2768(4) 0.28414(12) 0.4574(2)
loop_
_geom_bond_atom_site_label_1
_geom_bond_atom_site_label_2
_geom_bond_site_symmetry_1
_geom_bond_site_symmetry_2
C1 H1 1_555 1_555
H2 C1 1_555 1_555
H3 C1 1_555 1_555
C2 C3 1_555 1_555
C3 H4 1_555 1_555
C4 C3 1_555 1_555
H5 C4 1_555 1_555
C5 C4 1_555 1_555
C6 C5 1_555 1_555
C7 C2 1_555 1_555
H6 C7 1_555 1_555
C8 C5 1_555 1_555
C9 H7 1_555 1_555
H8 C9 1_555 1_555
C10 C9 1_555 1_555
H9 C10 1_555 1_555
H10 C10 1_555 1_555
C11 C10 1_555 1_555
H11 C11 1_555 1_555
C12 C11 1_555 1_555
C13 C14 1_555 1_555
C14 H12 1_555 1_555
H13 C14 1_555 1_555
H14 C14 1_555 1_555
C15 C13 1_555 1_555
H15 C15 1_555 1_555
H16 C15 1_555 1_555
H17 C15 1_555 1_555
C16 C13 1_555 1_555
H18 C16 1_555 1_555
H19 C16 1_555 1_555
H20 C16 1_555 1_555
N1 C6 1_555 1_555
N2 C8 1_555 1_555
O1 C8 1_555 1_555
C17 C11 1_555 1_555
H21 C17 1_555 1_555
H22 C17 1_555 1_555
O2 C1 1_555 1_555
C2 O2 1_555 1_555
C6 C7 1_555 1_555
C9 N2 1_555 1_555
C12 N1 1_555 1_555
C12 N2 1_555 1_555
C13 C17 1_555 1_555

#END
