
#######################################################################
#
#                 Cambridge Crystallographic Data Centre
#                                CCDC 
#
#######################################################################
#
# If this CIF has been generated from an entry in the Cambridge 
# Structural Database, then it will include bibliographic, chemical, 
# crystal, experimental, refinement or atomic coordinate data resulting 
# from the CCDC's data processing and validation procedures.
#
#######################################################################

data_VEFRUU
_chemical_formula_moiety         'C22 H14 N4 O2'
_chemical_name_systematic        
2,3-bis(4-Methoxyphenyl)buta-1,3-diene-1,1,4,4-tetracarbonitrile
_symmetry_cell_setting           monoclinic
_symmetry_space_group_name_H-M   'C 2/c'
_symmetry_Int_Tables_number      15
_space_group_name_Hall           '-C 2yn'
loop_
_symmetry_equiv_pos_site_id
_symmetry_equiv_pos_as_xyz
1 x,y,z
2 1/2+x,1/2+y,z
3 -x,y,1/2-z
4 1/2-x,1/2+y,1/2-z
5 -x,-y,-z
6 1/2-x,1/2-y,-z
7 x,-y,1/2+z
8 1/2+x,1/2-y,1/2+z
_cell_length_a                   14.9643(3)
_cell_length_b                   12.8404(3)
_cell_length_c                   19.4643(4)
_cell_angle_alpha                90
_cell_angle_beta                 92.113(1)
_cell_angle_gamma                90
_cell_volume                     3737.48
_exptl_crystal_colour            yellow
_cell_formula_units_Z            8
_exptl_crystal_recrystallization_method hexane/dichloromethane
loop_
_atom_site_label
_atom_site_type_symbol
_atom_site_fract_x
_atom_site_fract_y
_atom_site_fract_z
C1 C 0.50125(7) 0.96469(9) -0.28862(5)
C2 C 0.45016(7) 0.88166(9) -0.32363(6)
C3 C 0.39020(8) 0.82220(9) -0.28549(6)
H1 H 0.3831 0.8379 -0.2388
C4 C 0.34196(8) 0.74191(10) -0.31498(7)
H2 H 0.3020 0.7036 -0.2887
C5 C 0.35220(9) 0.71711(10) -0.38415(7)
C6 C 0.40993(9) 0.77488(10) -0.42320(6)
H3 H 0.4164 0.7590 -0.4699
C7 C 0.45797(9) 0.85599(10) -0.39314(6)
H4 H 0.4968 0.8949 -0.4200
O1 O 0.30377(8) 0.63491(9) -0.40755(6)
C8 C 0.31515(17) 0.60085(17) -0.47655(10)
H5 H 0.2981 0.6564 -0.5082
H6 H 0.2778 0.5404 -0.4859
H7 H 0.3773 0.5826 -0.4825
C9 C 0.55206(8) 1.04014(9) -0.31755(6)
C10 C 0.59933(8) 1.11594(10) -0.27563(6)
N1 N 0.63596(8) 1.17815(10) -0.24323(7)
C11 C 0.56333(9) 1.05446(10) -0.38984(6)
N2 N 0.57368(10) 1.06917(10) -0.44690(6)
C1B C 0.49875(7) 0.96469(9) -0.21138(5)
C2B C 0.54984(7) 0.88166(9) -0.17637(6)
C3B C 0.60980(8) 0.82220(9) -0.21451(6)
H1B H 0.6169 0.8379 -0.2612
C4B C 0.65804(8) 0.74191(10) -0.18502(7)
H2B H 0.6980 0.7036 -0.2113
C5B C 0.64780(9) 0.71711(10) -0.11585(7)
C6B C 0.59007(9) 0.77488(10) -0.07680(6)
H3B H 0.5836 0.7590 -0.0301
C7B C 0.54203(9) 0.85599(10) -0.10686(6)
H4B H 0.5032 0.8949 -0.0800
O1B O 0.69623(8) 0.63491(9) -0.09245(6)
C8B C 0.68485(17) 0.60085(17) -0.02345(10)
H5B H 0.7019 0.6564 0.0082
H6B H 0.7222 0.5404 -0.0141
H7B H 0.6227 0.5826 -0.0175
C9B C 0.44794(8) 1.04014(9) -0.18245(6)
C10B C 0.40067(8) 1.11594(10) -0.22437(6)
N1B N 0.36404(8) 1.17815(10) -0.25677(7)
C11B C 0.43667(9) 1.05446(10) -0.11016(6)
N2B N 0.42632(10) 1.06917(10) -0.05310(6)
C12 C 0.94998(8) 0.95323(9) -0.25487(7)
C13 C 0.89754(8) 1.00307(10) -0.20207(7)
C14 C 0.93082(9) 1.09181(11) -0.16818(7)
H8 H 0.9879 1.1170 -0.1780
C15 C 0.88095(10) 1.14235(12) -0.12074(8)
H9 H 0.9037 1.2027 -0.0991
C16 C 0.79708(9) 1.10524(11) -0.10437(7)
C17 C 0.76447(9) 1.01522(11) -0.13548(7)
H10 H 0.7087 0.9883 -0.1237
C18 C 0.81416(8) 0.96525(11) -0.18379(7)
H11 H 0.7915 0.9044 -0.2049
O2 O 0.75420(7) 1.16088(9) -0.05676(6)
C19 C 0.66247(10) 1.13788(15) -0.04611(10)
H12 H 0.6290 1.1406 -0.0897
H13 H 0.6384 1.1887 -0.0149
H14 H 0.6576 1.0688 -0.0265
C20 C 0.91381(9) 0.90775(10) -0.31261(7)
C21 C 0.96778(10) 0.85676(12) -0.36223(8)
N3 N 1.00851(11) 0.81672(13) -0.40311(9)
C22 C 0.81923(9) 0.90629(11) -0.33046(7)
N4 N 0.74537(9) 0.90343(12) -0.34734(7)
C12B C 1.05002(8) 0.95323(9) -0.24513(7)
C13B C 1.10246(8) 1.00307(10) -0.29793(7)
C14B C 1.06918(9) 1.09181(11) -0.33182(7)
H8B H 1.0121 1.1170 -0.3220
C15B C 1.11905(10) 1.14235(12) -0.37926(8)
H9B H 1.0963 1.2027 -0.4009
C16B C 1.20292(9) 1.10524(11) -0.39563(7)
C17B C 1.23553(9) 1.01522(11) -0.36452(7)
H10B H 1.2913 0.9883 -0.3763
C18B C 1.18584(8) 0.96525(11) -0.31621(7)
H11B H 1.2085 0.9044 -0.2951
O2B O 1.24580(7) 1.16088(9) -0.44324(6)
C19B C 1.33753(10) 1.13788(15) -0.45389(10)
H12B H 1.3710 1.1406 -0.4103
H13B H 1.3616 1.1887 -0.4851
H14B H 1.3424 1.0688 -0.4735
C20B C 1.08619(9) 0.90775(10) -0.18739(7)
C21B C 1.03222(10) 0.85676(12) -0.13777(8)
N3B N 0.99149(11) 0.81672(13) -0.09689(9)
C22B C 1.18077(9) 0.90629(11) -0.16954(7)
N4B N 1.25463(9) 0.90343(12) -0.15266(7)
loop_
_geom_bond_atom_site_label_1
_geom_bond_atom_site_label_2
_geom_bond_site_symmetry_1
_geom_bond_site_symmetry_2
C1 C2 1_555 1_555
C2 C3 1_555 1_555
C3 H1 1_555 1_555
C4 C3 1_555 1_555
H2 C4 1_555 1_555
C5 C4 1_555 1_555
C6 C5 1_555 1_555
H3 C6 1_555 1_555
C7 C2 1_555 1_555
H4 C7 1_555 1_555
O1 C5 1_555 1_555
C8 O1 1_555 1_555
H5 C8 1_555 1_555
H6 C8 1_555 1_555
H7 C8 1_555 1_555
C9 C1 1_555 1_555
C10 C9 1_555 1_555
N1 C10 1_555 1_555
C11 C9 1_555 1_555
N2 C11 1_555 1_555
C12 C13 1_555 1_555
C13 C14 1_555 1_555
C14 H8 1_555 1_555
C15 C14 1_555 1_555
H9 C15 1_555 1_555
C16 C15 1_555 1_555
C17 C16 1_555 1_555
H10 C17 1_555 1_555
C18 C13 1_555 1_555
H11 C18 1_555 1_555
O2 C16 1_555 1_555
C19 O2 1_555 1_555
H12 C19 1_555 1_555
H13 C19 1_555 1_555
H14 C19 1_555 1_555
C20 C12 1_555 1_555
C21 C20 1_555 1_555
N3 C21 1_555 1_555
C22 C20 1_555 1_555
N4 C22 1_555 1_555
C1B C1 1_555 1_555
C2B C1B 1_555 1_555
C3B C2B 1_555 1_555
H1B C3B 1_555 1_555
C4B C3B 1_555 1_555
H2B C4B 1_555 1_555
C5B C4B 1_555 1_555
C6B C5B 1_555 1_555
H3B C6B 1_555 1_555
C7B C2B 1_555 1_555
H4B C7B 1_555 1_555
O1B C5B 1_555 1_555
C8B O1B 1_555 1_555
H5B C8B 1_555 1_555
H6B C8B 1_555 1_555
H7B C8B 1_555 1_555
C9B C1B 1_555 1_555
C10B C9B 1_555 1_555
N1B C10B 1_555 1_555
C11B C9B 1_555 1_555
N2B C11B 1_555 1_555
C12B C12 1_555 1_555
C13B C12B 1_555 1_555
C14B C13B 1_555 1_555
H8B C14B 1_555 1_555
C15B C14B 1_555 1_555
H9B C15B 1_555 1_555
C16B C15B 1_555 1_555
C17B C16B 1_555 1_555
H10B C17B 1_555 1_555
C18B C13B 1_555 1_555
H11B C18B 1_555 1_555
O2B C16B 1_555 1_555
C19B O2B 1_555 1_555
H12B C19B 1_555 1_555
H13B C19B 1_555 1_555
H14B C19B 1_555 1_555
C20B C12B 1_555 1_555
C21B C20B 1_555 1_555
N3B C21B 1_555 1_555
C22B C20B 1_555 1_555
N4B C22B 1_555 1_555
C6 C7 1_555 1_555
C17 C18 1_555 1_555
C6B C7B 1_555 1_555
C17B C18B 1_555 1_555

#END
