
#######################################################################
#
#                 Cambridge Crystallographic Data Centre
#                                CCDC 
#
#######################################################################
#
# If this CIF has been generated from an entry in the Cambridge 
# Structural Database, then it will include bibliographic, chemical, 
# crystal, experimental, refinement or atomic coordinate data resulting 
# from the CCDC's data processing and validation procedures.
#
#######################################################################

data_VEFROO
_chemical_formula_moiety         'C15 H8 N4 O1'
_chemical_name_systematic        
2-(4-Methoxyphenyl)buta-1,3-diene-1,1,4,4-tetracarbonitrile
_symmetry_cell_setting           monoclinic
_symmetry_space_group_name_H-M   'P 21/c'
_symmetry_Int_Tables_number      14
_space_group_name_Hall           '-P 2ybc'
loop_
_symmetry_equiv_pos_site_id
_symmetry_equiv_pos_as_xyz
1 x,y,z
2 -x,1/2+y,1/2-z
3 -x,-y,-z
4 x,1/2-y,1/2+z
_cell_length_a                   13.4460(7)
_cell_length_b                   13.3106(5)
_cell_length_c                   7.4402(3)
_cell_angle_alpha                90
_cell_angle_beta                 99.396(1)
_cell_angle_gamma                90
_cell_volume                     1313.74
_exptl_crystal_colour            red
_cell_formula_units_Z            4
_exptl_crystal_recrystallization_method hexane/dichloromethane
loop_
_atom_site_label
_atom_site_type_symbol
_atom_site_fract_x
_atom_site_fract_y
_atom_site_fract_z
C1 C 0.15061(19) 0.45321(18) -0.1539(3)
C2 C 0.24786(18) 0.40870(18) -0.0763(3)
C3 C 0.27080(19) 0.30827(19) -0.1042(3)
H1 H 0.2225 0.2671 -0.1741
C4 C 0.3635(2) 0.26827(19) -0.0306(3)
H2 H 0.3783 0.2007 -0.0517
C5 C 0.43466(18) 0.32879(19) 0.0748(3)
C6 C 0.4125(2) 0.4285(2) 0.1055(4)
H3 H 0.4605 0.4689 0.1783
C7 C 0.3213(2) 0.4684(2) 0.0304(3)
H4 H 0.3076 0.5364 0.0504
O1 O 0.52801(14) 0.29706(14) 0.1521(3)
C8 C 0.5516(2) 0.1935(2) 0.1326(5)
H5 H 0.5046 0.1523 0.1862
H6 H 0.6197 0.1804 0.1941
H7 H 0.5466 0.1773 0.0043
C9 C 0.14911(19) 0.55376(19) -0.2353(4)
H8 H 0.0959 0.5969 -0.2193
C10 C 0.21812(19) 0.58853(18) -0.3307(3)
C11 C 0.2998(2) 0.5307(2) -0.3790(4)
N1 N 0.36441(19) 0.48897(19) -0.4276(4)
C12 C 0.2118(2) 0.6900(2) -0.3991(4)
N2 N 0.2091(2) 0.7707(2) -0.4518(4)
C13 C 0.06110(19) 0.4067(2) -0.1515(3)
C14 C 0.0519(2) 0.3116(2) -0.0644(4)
N3 N 0.0397(2) 0.2374(2) 0.0056(5)
C15 C -0.0325(2) 0.4516(2) -0.2337(4)
N4 N -0.1071(2) 0.4886(2) -0.2942(4)
loop_
_geom_bond_atom_site_label_1
_geom_bond_atom_site_label_2
_geom_bond_site_symmetry_1
_geom_bond_site_symmetry_2
C1 C2 1_555 1_555
C2 C3 1_555 1_555
C3 H1 1_555 1_555
C4 C3 1_555 1_555
H2 C4 1_555 1_555
C5 C4 1_555 1_555
C6 C5 1_555 1_555
H3 C6 1_555 1_555
C7 C2 1_555 1_555
H4 C7 1_555 1_555
O1 C5 1_555 1_555
C8 O1 1_555 1_555
H5 C8 1_555 1_555
H6 C8 1_555 1_555
H7 C8 1_555 1_555
C9 C1 1_555 1_555
H8 C9 1_555 1_555
C10 C9 1_555 1_555
C11 C10 1_555 1_555
N1 C11 1_555 1_555
C12 C10 1_555 1_555
N2 C12 1_555 1_555
C13 C1 1_555 1_555
C14 C13 1_555 1_555
N3 C14 1_555 1_555
C15 C13 1_555 1_555
N4 C15 1_555 1_555
C6 C7 1_555 1_555

#END
