
#######################################################################
#
#                 Cambridge Crystallographic Data Centre
#                                CCDC 
#
#######################################################################
#
# If this CIF has been generated from an entry in the Cambridge 
# Structural Database, then it will include bibliographic, chemical, 
# crystal, experimental, refinement or atomic coordinate data resulting 
# from the CCDC's data processing and validation procedures.
#
#######################################################################

data_VEFYUD
_chemical_formula_moiety         'C20 H16 N2 O5,C4 H8 O1'
_chemical_name_systematic        
'2-(((bis(2-hydroxyphenyl)methyl)iminio)methyl)-4-nitrophenolate tetrahydrofuran solvate'
_symmetry_cell_setting           monoclinic
_symmetry_space_group_name_H-M   'C 2/c'
_symmetry_Int_Tables_number      15
_space_group_name_Hall           '-C 2yn'
loop_
_symmetry_equiv_pos_site_id
_symmetry_equiv_pos_as_xyz
1 x,y,z
2 -x,y,1/2-z
3 1/2+x,1/2+y,z
4 1/2-x,1/2+y,1/2-z
5 -x,-y,-z
6 x,-y,1/2+z
7 1/2-x,1/2-y,-z
8 1/2+x,1/2-y,1/2+z
_cell_length_a                   17.9282(6)
_cell_length_b                   11.5903(4)
_cell_length_c                   21.7086(7)
_cell_angle_alpha                90
_cell_angle_beta                 94.6330(19)
_cell_angle_gamma                90
_cell_volume                     4496.16
_exptl_crystal_colour            yellow
_exptl_crystal_description       platy
_cell_formula_units_Z            8
loop_
_atom_site_label
_atom_site_type_symbol
_atom_site_fract_x
_atom_site_fract_y
_atom_site_fract_z
N1 N 0.13555(7) 0.15709(10) 0.10696(6)
O1 O 0.23299(6) 0.07769(9) 0.03376(5)
O2 O 0.18123(7) 0.34452(10) 0.04699(5)
O3 O -0.01394(7) 0.05012(11) 0.10097(6)
O4 O 0.28183(8) -0.25624(11) 0.25875(6)
O5 O 0.38243(9) -0.29081(13) 0.21258(7)
N2 N 0.32235(10) -0.23933(13) 0.21643(8)
C1 C 0.21672(8) -0.00312(12) 0.13234(7)
C2 C 0.23964(9) -0.08456(13) 0.17746(7)
H1 H 0.2141 -0.0905 0.2140
C3 C 0.15683(8) 0.07397(12) 0.14370(7)
H2 H 0.1316 0.0632 0.1801
C4 C 0.07520(8) 0.24003(13) 0.11776(7)
H3 H 0.0512 0.2139 0.1554
C5 C 0.10741(8) 0.35883(13) 0.13123(7)
C6 C 0.01631(8) 0.23346(13) 0.06356(7)
C7 C 0.00343(8) 0.32140(14) 0.02036(7)
H4 H 0.0326 0.3898 0.0243
C8 C 0.16100(8) 0.40748(13) 0.09570(7)
C9 C 0.29917(9) -0.15621(14) 0.16892(8)
C10 C -0.02765(9) 0.13341(14) 0.05732(8)
C11 C 0.31568(10) -0.07158(15) 0.07024(9)
H5 H 0.3419 -0.0684 0.0340
C12 C 0.19120(9) 0.51589(14) 0.11096(8)
H6 H 0.2286 0.5482 0.0875
C13 C 0.25414(8) 0.00497(13) 0.07605(7)
C14 C -0.05123(9) 0.31095(15) -0.02842(8)
H7 H -0.0592 0.3713 -0.0578
C15 C 0.08330(10) 0.42186(15) 0.18050(8)
H8 H 0.0463 0.3899 0.2045
C16 C 0.33773(10) -0.14897(15) 0.11535(9)
H9 H 0.3793 -0.1981 0.1105
C17 C -0.08280(10) 0.12290(16) 0.00837(9)
H10 H -0.1124 0.0549 0.0041
C18 C 0.16614(11) 0.57598(16) 0.16063(9)
H11 H 0.1865 0.6498 0.1710
C19 C -0.09411(10) 0.21125(16) -0.03368(9)
H12 H -0.1318 0.2039 -0.0668
C20 C 0.11200(12) 0.52997(17) 0.19525(9)
H13 H 0.0947 0.5722 0.2288
H14 H 0.1631(19) 0.165(3) 0.0694(16)
H15 H 0.211(2) 0.382(3) 0.0202(15)
H16 H -0.0544(19) -0.002(3) 0.1025(15)
O6 O 0.87173(7) 0.90904(11) 0.11100(6)
C21 C 0.86360(13) 0.90596(18) 0.17547(9)
H17 H 0.8100 0.9036 0.1834
H18 H 0.8868 0.9749 0.1960
C22 C 0.90224(19) 0.7995(3) 0.19851(12)
H19 H 0.9549 0.8162 0.2129
H20 H 0.8769 0.7659 0.2332
C23 C 0.87460(13) 0.79241(18) 0.09004(10)
H21 H 0.9110 0.7849 0.0583
H22 H 0.8248 0.7676 0.0717
C24 C 0.8983(2) 0.7201(2) 0.14535(13)
H23 H 0.8614 0.6581 0.1507
H24 H 0.9477 0.6845 0.1408
loop_
_geom_bond_atom_site_label_1
_geom_bond_atom_site_label_2
_geom_bond_site_symmetry_1
_geom_bond_site_symmetry_2
N1 C3 1_555 1_555
O1 C13 1_555 1_555
O2 C8 1_555 1_555
O3 C10 1_555 1_555
O4 N2 1_555 1_555
O5 N2 1_555 1_555
N2 C9 1_555 1_555
C1 C2 1_555 1_555
C2 H1 1_555 1_555
C3 C1 1_555 1_555
H2 C3 1_555 1_555
C4 N1 1_555 1_555
H3 C4 1_555 1_555
C5 C4 1_555 1_555
C6 C4 1_555 1_555
C7 C6 1_555 1_555
H4 C7 1_555 1_555
C8 C5 1_555 1_555
C9 C2 1_555 1_555
C10 C6 1_555 1_555
C11 H5 1_555 1_555
C12 C8 1_555 1_555
H6 C12 1_555 1_555
C13 C1 1_555 1_555
C14 C7 1_555 1_555
H7 C14 1_555 1_555
C15 C5 1_555 1_555
H8 C15 1_555 1_555
C16 C9 1_555 1_555
H9 C16 1_555 1_555
C17 C10 1_555 1_555
H10 C17 1_555 1_555
C18 C12 1_555 1_555
H11 C18 1_555 1_555
C19 C14 1_555 1_555
H12 C19 1_555 1_555
C20 C15 1_555 1_555
H13 C20 1_555 1_555
H14 N1 1_555 1_555
H15 O2 1_555 1_555
H16 O3 1_555 1_555
O6 C21 1_555 1_555
C21 H17 1_555 1_555
H18 C21 1_555 1_555
C22 C21 1_555 1_555
H19 C22 1_555 1_555
H20 C22 1_555 1_555
C23 O6 1_555 1_555
H21 C23 1_555 1_555
H22 C23 1_555 1_555
C24 C22 1_555 1_555
H23 C24 1_555 1_555
H24 C24 1_555 1_555
C11 C13 1_555 1_555
C11 C16 1_555 1_555
C17 C19 1_555 1_555
C18 C20 1_555 1_555
C23 C24 1_555 1_555

#END
