
#######################################################################
#
#                 Cambridge Crystallographic Data Centre
#                                CCDC 
#
#######################################################################
#
# If this CIF has been generated from an entry in the Cambridge 
# Structural Database, then it will include bibliographic, chemical, 
# crystal, experimental, refinement or atomic coordinate data resulting 
# from the CCDC's data processing and validation procedures.
#
#######################################################################

data_VEGDOC
_chemical_formula_moiety         'C18 H30 O5'
_chemical_name_systematic        
'7,7-Diethoxy-4a,8-dimethyl-4-oxodecahydronaphthalen-1-yl acetate'
_symmetry_cell_setting           triclinic
_symmetry_space_group_name_H-M   'P -1'
_symmetry_Int_Tables_number      2
_space_group_name_Hall           '-P 1'
loop_
_symmetry_equiv_pos_site_id
_symmetry_equiv_pos_as_xyz
1 x,y,z
2 -x,-y,-z
_cell_length_a                   8.331(2)
_cell_length_b                   8.783(2)
_cell_length_c                   13.724(4)
_cell_angle_alpha                93.330(6)
_cell_angle_beta                 106.838(6)
_cell_angle_gamma                101.942(6)
_cell_volume                     932.848
_exptl_crystal_colour            colorless
_exptl_crystal_description       plate
_cell_formula_units_Z            2
loop_
_atom_site_label
_atom_site_type_symbol
_atom_site_fract_x
_atom_site_fract_y
_atom_site_fract_z
C1 C -0.1621(3) 0.8399(3) 0.14569(18)
C2 C -0.2735(3) 0.7486(3) 0.2032(2)
H1 H -0.3867 0.7007 0.1556
H2 H -0.2879 0.8203 0.2548
C3 C -0.1931(3) 0.6213(3) 0.2549(2)
H3 H -0.1891 0.5444 0.2026
H4 H -0.2658 0.5683 0.2925
C4 C -0.0099(3) 0.6865(3) 0.32913(19)
C5 C 0.0743(4) 0.5520(3) 0.3629(2)
C6 C 0.2643(4) 0.5945(4) 0.4195(3)
H5 H 0.3064 0.4993 0.4255
H6 H 0.2824 0.6431 0.4883
C7 C 0.3694(4) 0.7066(3) 0.3668(2)
H7 H 0.4858 0.7462 0.4129
H8 H 0.3764 0.6500 0.3059
C8 C 0.2882(3) 0.8429(3) 0.33698(18)
H9 H 0.2955 0.9095 0.3987
C9 C 0.1003(3) 0.7853(3) 0.27051(17)
H10 H 0.1024 0.7111 0.2150
C10 C 0.0215(3) 0.9144(3) 0.21632(17)
H11 H 0.0897 0.9512 0.1713
C11 C -0.0174(4) 0.7744(3) 0.4283(2)
H12 H -0.0884 0.7050 0.4589
H13 H -0.0655 0.8634 0.4118
H14 H 0.0969 0.8090 0.4757
C12 C 0.0305(4) 1.0591(3) 0.2870(2)
H15 H -0.0208 1.1325 0.2467
H16 H 0.1488 1.1074 0.3240
H17 H -0.0310 1.0284 0.3347
C13 C 0.5029(4) 1.0596(4) 0.3196(2)
C14 C 0.5695(4) 1.1511(4) 0.2476(2)
H18 H 0.6590 1.2401 0.2852
H19 H 0.4777 1.1865 0.2017
H20 H 0.6155 1.0866 0.2089
C15 C -0.2889(4) 0.6467(3) -0.0074(2)
H21 H -0.3767 0.7059 -0.0285
H22 H -0.3350 0.5567 0.0222
C16 C -0.2398(5) 0.5942(4) -0.0971(2)
H23 H -0.3393 0.5284 -0.1475
H24 H -0.1526 0.5362 -0.0755
H25 H -0.1959 0.6840 -0.1265
C17 C -0.1854(4) 1.0445(3) 0.0346(2)
H26 H -0.2062 0.9803 -0.0298
H27 H -0.0619 1.0843 0.0650
C18 C -0.2711(4) 1.1776(4) 0.0156(3)
H28 H -0.2268 1.2396 -0.0303
H29 H -0.2486 1.2415 0.0794
H30 H -0.3933 1.1374 -0.0146
O1 O -0.1369(2) 0.74361(19) 0.06677(12)
O2 O -0.2533(2) 0.9524(2) 0.10237(13)
O3 O -0.0083(3) 0.4172(2) 0.3470(2)
O4 O 0.3787(2) 0.9337(2) 0.27518(12)
O5 O 0.5539(5) 1.0917(5) 0.40867(19)
loop_
_geom_bond_atom_site_label_1
_geom_bond_atom_site_label_2
_geom_bond_site_symmetry_1
_geom_bond_site_symmetry_2
C1 C2 1_555 1_555
C2 H1 1_555 1_555
H2 C2 1_555 1_555
C3 C2 1_555 1_555
H3 C3 1_555 1_555
H4 C3 1_555 1_555
C4 C3 1_555 1_555
C5 C4 1_555 1_555
C6 C5 1_555 1_555
H5 C6 1_555 1_555
H6 C6 1_555 1_555
C7 C6 1_555 1_555
H7 C7 1_555 1_555
H8 C7 1_555 1_555
C8 C7 1_555 1_555
H9 C8 1_555 1_555
C9 C4 1_555 1_555
H10 C9 1_555 1_555
C10 C1 1_555 1_555
H11 C10 1_555 1_555
C11 C4 1_555 1_555
H12 C11 1_555 1_555
H13 C11 1_555 1_555
H14 C11 1_555 1_555
C12 C10 1_555 1_555
H15 C12 1_555 1_555
H16 C12 1_555 1_555
H17 C12 1_555 1_555
C13 C14 1_555 1_555
C14 H18 1_555 1_555
H19 C14 1_555 1_555
H20 C14 1_555 1_555
C15 H21 1_555 1_555
H22 C15 1_555 1_555
C16 C15 1_555 1_555
H23 C16 1_555 1_555
H24 C16 1_555 1_555
H25 C16 1_555 1_555
C17 H26 1_555 1_555
H27 C17 1_555 1_555
C18 C17 1_555 1_555
H28 C18 1_555 1_555
H29 C18 1_555 1_555
H30 C18 1_555 1_555
O1 C1 1_555 1_555
O2 C1 1_555 1_555
O3 C5 1_555 1_555
O4 C8 1_555 1_555
O5 C13 1_555 1_555
C8 C9 1_555 1_555
C9 C10 1_555 1_555
C13 O4 1_555 1_555
C15 O1 1_555 1_555
C17 O2 1_555 1_555

#END
