
#######################################################################
#
#                 Cambridge Crystallographic Data Centre
#                                CCDC 
#
#######################################################################
#
# If this CIF has been generated from an entry in the Cambridge 
# Structural Database, then it will include bibliographic, chemical, 
# crystal, experimental, refinement or atomic coordinate data resulting 
# from the CCDC's data processing and validation procedures.
#
#######################################################################

data_VEGFAQ
_chemical_formula_moiety         'C20 H36 O3 Si1'
_chemical_name_systematic        
4-((t-Butyl(dimethyl)silyl)oxy)-7-(hydroxymethyl)-1,5,6-trimethyl-8-vinylbicyclo[3.2.1]oct-2-en-6-ol
_symmetry_cell_setting           monoclinic
_symmetry_space_group_name_H-M   'P 21'
_symmetry_Int_Tables_number      4
_space_group_name_Hall           'P 2yb'
loop_
_symmetry_equiv_pos_site_id
_symmetry_equiv_pos_as_xyz
1 x,y,z
2 -x,1/2+y,-z
_cell_length_a                   11.6292(15)
_cell_length_b                   7.7435(11)
_cell_length_c                   12.2967(16)
_cell_angle_alpha                90
_cell_angle_beta                 90.516(3)
_cell_angle_gamma                90
_cell_volume                     1107.28
_exptl_crystal_colour            colorless
_exptl_crystal_description       block
_cell_formula_units_Z            2
loop_
_atom_site_label
_atom_site_type_symbol
_atom_site_fract_x
_atom_site_fract_y
_atom_site_fract_z
Si1 Si 0.78936(5) 0.25033(7) 0.95683(4)
O1 O 0.92149(17) 0.1552(2) 1.44619(14)
H1 H 0.9286 0.1948 1.5086
O2 O 0.9295(2) 0.3859(3) 1.60809(15)
H2 H 0.9706 0.4681 1.5893
O3 O 0.75809(12) 0.2565(2) 1.08707(11)
C1 C 0.8986(2) 0.2943(3) 1.37105(18)
C2 C 0.8290(2) 0.4354(3) 1.43403(19)
H3 H 0.8678 0.5480 1.4241
C3 C 0.7103(2) 0.4422(4) 1.3749(2)
C4 C 0.7240(3) 0.5631(3) 1.2790(2)
H4 H 0.6930 0.6749 1.2835
C5 C 0.7779(2) 0.5170(3) 1.1890(2)
H5 H 0.7884 0.5993 1.1338
C6 C 0.82253(19) 0.3377(3) 1.17310(16)
H6 H 0.9041 0.3448 1.1511
C7 C 0.81502(19) 0.2260(3) 1.27815(17)
C8 C 0.69711(19) 0.2554(4) 1.33278(17)
H7 H 0.6942 0.1790 1.3972
C9 C 1.0140(2) 0.3618(4) 1.3312(2)
H8 H 1.0595 0.4014 1.3928
H9 H 1.0012 0.4569 1.2813
H10 H 1.0546 0.2698 1.2943
C10 C 0.8197(3) 0.3999(5) 1.5564(2)
H11 H 0.7764 0.4937 1.5905
H12 H 0.7769 0.2924 1.5674
C11 C 0.6093(3) 0.5016(6) 1.4450(3)
H13 H 0.5394 0.5018 1.4015
H14 H 0.6243 0.6173 1.4719
H15 H 0.6005 0.4233 1.5059
C12 C 0.9391(3) 0.1697(5) 0.9375(3)
H16 H 0.9932 0.2511 0.9693
H17 H 0.9542 0.1579 0.8604
H18 H 0.9478 0.0583 0.9727
C13 C 0.7808(3) 0.4682(3) 0.8936(2)
H19 H 0.8391 0.5425 0.9257
H20 H 0.7054 0.5173 0.9062
H21 H 0.7935 0.4586 0.8160
C14 C 0.6778(2) 0.1011(3) 0.8968(2)
C15 C 0.6874(3) 0.0979(6) 0.7723(2)
H22 H 0.6297 0.0206 0.7422
H23 H 0.7633 0.0578 0.7522
H24 H 0.6753 0.2134 0.7438
C16 C 0.5583(2) 0.1622(5) 0.9264(3)
H25 H 0.5015 0.0841 0.8955
H26 H 0.5459 0.2775 0.8978
H27 H 0.5508 0.1641 1.0049
C17 C 0.6947(3) -0.0811(4) 0.9403(3)
H28 H 0.6367 -0.1567 0.9091
H29 H 0.6878 -0.0805 1.0188
H30 H 0.7705 -0.1224 0.9207
C18 C 0.8374(3) 0.0374(3) 1.2495(2)
H31 H 0.7843 0.0013 1.1926
H32 H 0.8265 -0.0339 1.3134
H33 H 0.9157 0.0247 1.2242
C19 C 0.5916(2) 0.2199(4) 1.2662(2)
H34 H 0.5754 0.2940 1.2075
C20 C 0.5202(3) 0.0923(6) 1.2844(3)
H35 H 0.5339 0.0159 1.3425
H36 H 0.4552 0.0772 1.2393
loop_
_geom_bond_atom_site_label_1
_geom_bond_atom_site_label_2
_geom_bond_site_symmetry_1
_geom_bond_site_symmetry_2
Si1 O3 1_555 1_555
O1 H1 1_555 1_555
O2 H2 1_555 1_555
O3 C6 1_555 1_555
C1 O1 1_555 1_555
C2 C1 1_555 1_555
H3 C2 1_555 1_555
C3 C2 1_555 1_555
C4 C3 1_555 1_555
H4 C4 1_555 1_555
C5 C4 1_555 1_555
H5 C5 1_555 1_555
C6 C5 1_555 1_555
H6 C6 1_555 1_555
C7 C1 1_555 1_555
C8 C3 1_555 1_555
H7 C8 1_555 1_555
C9 C1 1_555 1_555
H8 C9 1_555 1_555
H9 C9 1_555 1_555
H10 C9 1_555 1_555
C10 O2 1_555 1_555
H11 C10 1_555 1_555
H12 C10 1_555 1_555
C11 C3 1_555 1_555
H13 C11 1_555 1_555
H14 C11 1_555 1_555
H15 C11 1_555 1_555
C12 Si1 1_555 1_555
H16 C12 1_555 1_555
H17 C12 1_555 1_555
H18 C12 1_555 1_555
C13 Si1 1_555 1_555
H19 C13 1_555 1_555
H20 C13 1_555 1_555
H21 C13 1_555 1_555
C14 Si1 1_555 1_555
C15 C14 1_555 1_555
H22 C15 1_555 1_555
H23 C15 1_555 1_555
H24 C15 1_555 1_555
C16 C14 1_555 1_555
H25 C16 1_555 1_555
H26 C16 1_555 1_555
H27 C16 1_555 1_555
C17 C14 1_555 1_555
H28 C17 1_555 1_555
H29 C17 1_555 1_555
H30 C17 1_555 1_555
C18 C7 1_555 1_555
H31 C18 1_555 1_555
H32 C18 1_555 1_555
H33 C18 1_555 1_555
C19 C8 1_555 1_555
H34 C19 1_555 1_555
C20 C19 1_555 1_555
H35 C20 1_555 1_555
H36 C20 1_555 1_555
C2 C10 1_555 1_555
C6 C7 1_555 1_555
C7 C8 1_555 1_555

#END
