
#######################################################################
#
#                 Cambridge Crystallographic Data Centre
#                                CCDC 
#
#######################################################################
#
# If this CIF has been generated from an entry in the Cambridge 
# Structural Database, then it will include bibliographic, chemical, 
# crystal, experimental, refinement or atomic coordinate data resulting 
# from the CCDC's data processing and validation procedures.
#
#######################################################################

data_VEGGUK
_chemical_formula_moiety         'C9 H9 Br2 N1 O2'
_chemical_name_systematic        1,2-Dibromo-4,5,6-trimethyl-3-nitrobenzene
_symmetry_cell_setting           orthorhombic
_symmetry_space_group_name_H-M   'P n m a'
_symmetry_Int_Tables_number      62
_space_group_name_Hall           '-P 2ac 2n'
loop_
_symmetry_equiv_pos_site_id
_symmetry_equiv_pos_as_xyz
1 x,y,z
2 1/2-x,-y,1/2+z
3 -x,1/2+y,-z
4 1/2+x,1/2-y,1/2-z
5 -x,-y,-z
6 1/2+x,y,1/2-z
7 x,1/2-y,z
8 1/2-x,1/2+y,1/2+z
_cell_length_a                   8.9730(3)
_cell_length_b                   7.1165(2)
_cell_length_c                   15.2972(5)
_cell_angle_alpha                90
_cell_angle_beta                 90
_cell_angle_gamma                90
_cell_volume                     976.823
_exptl_crystal_colour            colorless
_exptl_crystal_description       rod
_chemical_melting_point          '381-390 K'
_cell_formula_units_Z            4
_exptl_crystal_recrystallization_method ethanol
loop_
_atom_site_label
_atom_site_type_symbol
_atom_site_fract_x
_atom_site_fract_y
_atom_site_fract_z
C1 C 0.6963(5) 0.2500 0.4618(3)
N1 N 0.8300(4) 0.2500 0.4048(2)
O1 O 0.8807(3) 0.0978(4) 0.38353(17)
C2 C 0.5567(5) 0.2500 0.4221(2)
Br1 Br 0.54155(5) 0.2500 0.29954(3)
C3 C 0.4341(4) 0.2500 0.4764(3)
Br2 Br 0.23875(5) 0.2500 0.42946(3)
C4 C 0.4506(5) 0.2500 0.5661(3)
C5 C 0.3033(12) 0.2500 0.6320(8)
H2 H 0.2119 0.2500 0.5969
H3 H 0.3063 0.3616 0.6695
C6 C 0.5912(5) 0.2500 0.6050(3)
C7 C 0.6091(6) 0.2500 0.7037(3)
H4 H 0.6604 0.1350 0.7220
H5 H 0.5106 0.2500 0.7313
C8 C 0.7192(5) 0.2500 0.5512(3)
C9 C 0.8780(5) 0.2500 0.5900(3)
H6 H 0.8847 0.1545 0.6360
O1F O 0.8807(3) 0.4022(4) 0.38353(17)
H3F H 0.3063 0.1384 0.6695
H4F H 0.6604 0.3650 0.7220
H6F H 0.8847 0.3455 0.6360
H1? H 0.3644 0.2500 0.6021
H7? H 0.8998 0.3739 0.6148
H8? H 0.9502 0.2216 0.5438
loop_
_geom_bond_atom_site_label_1
_geom_bond_atom_site_label_2
_geom_bond_site_symmetry_1
_geom_bond_site_symmetry_2
C1 N1 1_555 1_555
N1 O1 1_555 1_555
C2 C1 1_555 1_555
Br1 C2 1_555 1_555
C3 C2 1_555 1_555
Br2 C3 1_555 1_555
C4 C3 1_555 1_555
C5 C4 1_555 1_555
H2 C5 1_555 1_555
H3 C5 1_555 1_555
C6 C4 1_555 1_555
C7 C6 1_555 1_555
H4 C7 1_555 1_555
H5 C7 1_555 1_555
C8 C1 1_555 1_555
C9 C8 1_555 1_555
H6 C9 1_555 1_555
O1F N1 1_555 1_555
H3F C5 1_555 1_555
H4F C7 1_555 1_555
H6F C9 1_555 1_555
C6 C8 1_555 1_555

#END
