
#######################################################################
#
#                 Cambridge Crystallographic Data Centre
#                                CCDC 
#
#######################################################################
#
# If this CIF has been generated from an entry in the Cambridge 
# Structural Database, then it will include bibliographic, chemical, 
# crystal, experimental, refinement or atomic coordinate data resulting 
# from the CCDC's data processing and validation procedures.
#
#######################################################################

data_VEGHIY01
_chemical_formula_moiety         'C11 H10 S8 1+,Cl2 I1 1-'
_chemical_name_systematic        
"4,5-Ethylenedithio-4',5'-propylenedithiotetrathiafulvalene dichloroiodide"
_symmetry_cell_setting           triclinic
_symmetry_space_group_name_H-M   'P -1'
_symmetry_Int_Tables_number      2
_space_group_name_Hall           '-P 1'
loop_
_symmetry_equiv_pos_site_id
_symmetry_equiv_pos_as_xyz
1 x,y,z
2 -x,-y,-z
_cell_length_a                   6.880(2)
_cell_length_b                   10.925(3)
_cell_length_c                   12.048(3)
_cell_angle_alpha                87.32(2)
_cell_angle_beta                 100.30(2)
_cell_angle_gamma                100.54(2)
_cell_volume                     875.857
_cell_formula_units_Z            2
loop_
_atom_site_label
_atom_site_type_symbol
_atom_site_fract_x
_atom_site_fract_y
_atom_site_fract_z
I1 I 0.0000 0.00000 0.00000
Cl1 Cl 0.0936(1) 0.2017(1) -0.10925(8)
Cl1A Cl -0.0936(1) -0.2017(1) 0.10925(8)
S1 S 0.5957(1) 0.30199(7) 0.47696(6)
S2 S 0.9725(1) 0.22118(7) 0.45806(6)
S3 S 0.8323(1) 0.48876(7) 0.67623(6)
S4 S 1.2105(1) 0.41206(7) 0.65475(6)
S5 S 0.3461(1) 0.13899(7) 0.29542(7)
S6 S 0.7914(1) 0.05070(7) 0.26772(7)
S7 S 1.0036(1) 0.65367(8) 0.86932(7)
S8 S 1.4590(1) 0.56156(8) 0.84006(7)
C1 C 0.8538(4) 0.3183(2) 0.5238(2)
C2 C 0.9534(4) 0.3979(2) 0.6067(2)
C3 C 0.5832(4) 0.1901(2) 0.3755(2)
C4 C 0.7576(4) 0.1542(3) 0.3658(2)
C5 C 1.0451(4) 0.5519(3) 0.7722(2)
C6 C 1.2199(4) 0.5171(2) 0.7613(2)
C7 C 0.3065(4) -0.0272(3) 0.3219(3)
C8 C 0.4153(5) -0.1026(3) 0.2594(3)
C9 C 0.6376(5) -0.0919(3) 0.3036(3)
C10 C 1.2276(5) 0.6531(3) 0.9745(3)
C11 C 1.4216(5) 0.6851(3) 0.9243(3)
loop_
_geom_bond_atom_site_label_1
_geom_bond_atom_site_label_2
_geom_bond_site_symmetry_1
_geom_bond_site_symmetry_2
I1 Cl1 1_555 1_555
S1 C1 1_555 1_555
S2 C1 1_555 1_555
S3 C2 1_555 1_555
S4 C2 1_555 1_555
S5 C3 1_555 1_555
S6 C4 1_555 1_555
S7 C5 1_555 1_555
S8 C6 1_555 1_555
C1 C2 1_555 1_555
C3 S1 1_555 1_555
C4 S2 1_555 1_555
C5 S3 1_555 1_555
C6 S4 1_555 1_555
C7 S5 1_555 1_555
C8 C7 1_555 1_555
C9 S6 1_555 1_555
C10 S7 1_555 1_555
C11 S8 1_555 1_555
Cl1A I1 1_555 1_555
C3 C4 1_555 1_555
C5 C6 1_555 1_555
C8 C9 1_555 1_555
C10 C11 1_555 1_555

#END
