
#######################################################################
#
#                 Cambridge Crystallographic Data Centre
#                                CCDC 
#
#######################################################################
#
# If this CIF has been generated from an entry in the Cambridge 
# Structural Database, then it will include bibliographic, chemical, 
# crystal, experimental, refinement or atomic coordinate data resulting 
# from the CCDC's data processing and validation procedures.
#
#######################################################################

data_VEGHIY
_chemical_formula_moiety         'C11 H10 S8 1+,Cl2 I1 1-'
_chemical_name_systematic        
"4,5-Ethylenedithio-4',5'-propylenedithiotetrathiafulvalene dichloroiodide"
_symmetry_cell_setting           monoclinic
_symmetry_space_group_name_H-M   'P 2/c'
_symmetry_Int_Tables_number      13
_space_group_name_Hall           '-P 2yc'
loop_
_symmetry_equiv_pos_site_id
_symmetry_equiv_pos_as_xyz
1 x,y,z
2 -x,y,1/2-z
3 -x,-y,-z
4 x,-y,1/2+z
_cell_length_a                   15.752(6)
_cell_length_b                   6.780(2)
_cell_length_c                   16.910(9)
_cell_angle_alpha                90
_cell_angle_beta                 101.34(4)
_cell_angle_gamma                90
_cell_volume                     1770.71
_cell_formula_units_Z            4
loop_
_atom_site_label
_atom_site_type_symbol
_atom_site_fract_x
_atom_site_fract_y
_atom_site_fract_z
I1 I 0.0000 0.1875 0.2500
Cl1 Cl 0.0371(2) 0.1869(7) 0.1110(2)
Cl1A Cl -0.0371(2) 0.1869(7) 0.3890(2)
S1 S 0.6255(2) 0.6529(5) 0.4695(2)
S2 S 0.5807(2) 0.2360(5) 0.4413(2)
S3 S 0.4528(2) 0.7753(5) 0.3408(2)
S4 S 0.4081(2) 0.3573(5) 0.3160(2)
S5 S 0.7875(2) 0.5724(5) 0.5881(2)
S6 S 0.7297(2) 0.0863(5) 0.5601(2)
S7 S 0.3127(3) 0.9179(6) 0.2126(2)
S8 S 0.2536(2) 0.4273(6) 0.1879(2)
C1 C 0.5524(7) 0.480(2) 0.4188(6)
C2 C 0.4814(6) 0.533(2) 0.3652(7)
C3 C 0.6950(7) 0.479(2) 0.5234(7)
C4 C 0.6737(6) 0.290(2) 0.5100(7)
C5 C 0.3635(7) 0.717(2) 0.2660(7)
C6 C 0.3424(7) 0.526(2) 0.2550(7)
C7 C 0.8725(9) 0.451(3) 0.5534(9)
C8 C 0.891(1) 0.254(3) 0.578(1)
C9 C 0.8308(9) 0.104(2) 0.538(1)
C10 C 0.197(1) 0.799(4) 0.158(2)
C11 C 0.1719(8) 0.621(3) 0.186(1)
C12? C 0.202(2) 0.874(6) 0.209(3)
loop_
_geom_bond_atom_site_label_1
_geom_bond_atom_site_label_2
_geom_bond_site_symmetry_1
_geom_bond_site_symmetry_2
I1 Cl1 1_555 1_555
S1 C1 1_555 1_555
S2 C1 1_555 1_555
S3 C2 1_555 1_555
S4 C2 1_555 1_555
S5 C3 1_555 1_555
S6 C4 1_555 1_555
S7 C5 1_555 1_555
S8 C6 1_555 1_555
C1 C2 1_555 1_555
C3 S1 1_555 1_555
C4 S2 1_555 1_555
C5 S3 1_555 1_555
C6 S4 1_555 1_555
C7 S5 1_555 1_555
C8 C7 1_555 1_555
C9 S6 1_555 1_555
C10 S7 1_555 1_555
C11 S8 1_555 1_555
Cl1A I1 1_555 1_555
C3 C4 1_555 1_555
C5 C6 1_555 1_555
C8 C9 1_555 1_555
C10 C11 1_555 1_555

#END
