
#######################################################################
#
#                 Cambridge Crystallographic Data Centre
#                                CCDC 
#
#######################################################################
#
# If this CIF has been generated from an entry in the Cambridge 
# Structural Database, then it will include bibliographic, chemical, 
# crystal, experimental, refinement or atomic coordinate data resulting 
# from the CCDC's data processing and validation procedures.
#
#######################################################################

data_VEGJIC
_chemical_formula_moiety         'C20 H12 O2 S3'
_chemical_name_systematic        
"2,6-Diphenylbisthieno[3,2-b:2',3'-d]thiophene 4,4-dioxide"
_symmetry_cell_setting           monoclinic
_symmetry_space_group_name_H-M   'C 2/c'
_symmetry_Int_Tables_number      15
_space_group_name_Hall           '-C 2yn'
loop_
_symmetry_equiv_pos_site_id
_symmetry_equiv_pos_as_xyz
1 x,y,z
2 -x,y,1/2-z
3 1/2+x,1/2+y,z
4 1/2-x,1/2+y,1/2-z
5 -x,-y,-z
6 x,-y,1/2+z
7 1/2-x,1/2-y,-z
8 1/2+x,1/2-y,1/2+z
_cell_length_a                   16.192(3)
_cell_length_b                   15.167(3)
_cell_length_c                   13.658(3)
_cell_angle_alpha                90
_cell_angle_beta                 96.209(3)
_cell_angle_gamma                90
_cell_volume                     3334.51
_exptl_crystal_colour            orange
_exptl_crystal_description       block
_cell_formula_units_Z            8
loop_
_atom_site_label
_atom_site_type_symbol
_atom_site_fract_x
_atom_site_fract_y
_atom_site_fract_z
S1 S 0.37817(3) 0.40739(3) 0.53941(3)
S2 S 0.59443(3) 0.45747(3) 0.68106(3)
S3 S 0.58490(3) 0.28835(3) 0.43983(3)
O1 O 0.61638(9) 0.31926(9) 0.35173(10)
O2 O 0.59347(9) 0.19528(9) 0.46058(11)
C1 C 0.34058(11) 0.34266(11) 0.43849(13)
C2 C 0.40430(11) 0.30209(12) 0.39654(13)
C3 C 0.48190(11) 0.32336(12) 0.44747(13)
C4 C 0.47821(11) 0.37893(12) 0.52662(13)
C5 C 0.55908(11) 0.39515(11) 0.58160(13)
C6 C 0.62313(11) 0.35212(12) 0.54358(13)
C7 C 0.70252(11) 0.36860(12) 0.59418(13)
C8 C 0.69711(11) 0.42539(12) 0.67203(13)
C9 C 0.25064(11) 0.33520(12) 0.40961(13)
C10 C 0.19377(13) 0.37583(16) 0.46405(16)
C11 C 0.10889(13) 0.36578(18) 0.43751(17)
C12 C 0.07967(12) 0.31779(14) 0.35624(15)
C13 C 0.13581(12) 0.27650(13) 0.30190(16)
C14 C 0.22067(12) 0.28479(13) 0.32855(16)
C15 C 0.76448(11) 0.45960(12) 0.74286(13)
C16 C 0.84313(12) 0.42088(14) 0.75141(14)
C17 C 0.90658(12) 0.45460(15) 0.81748(14)
C18 C 0.89191(13) 0.52673(14) 0.87562(15)
C19 C 0.81421(13) 0.56477(13) 0.86826(15)
C20 C 0.75061(12) 0.53166(12) 0.80255(14)
H1 H 0.3968 0.2646 0.3405
H2 H 0.7528 0.3438 0.5768
H3 H 0.2129 0.4107 0.5197
H4 H 0.0707 0.3926 0.4764
H5 H 0.0216 0.3129 0.3374
H6 H 0.1162 0.2422 0.2460
H7 H 0.2586 0.2557 0.2910
H8 H 0.8533 0.3713 0.7119
H9 H 0.9601 0.4282 0.8228
H10 H 0.9354 0.5499 0.9205
H11 H 0.8042 0.6139 0.9084
H12 H 0.6972 0.5582 0.7981
loop_
_geom_bond_atom_site_label_1
_geom_bond_atom_site_label_2
_geom_bond_site_symmetry_1
_geom_bond_site_symmetry_2
S1 C1 1_555 1_555
S2 C5 1_555 1_555
S3 O1 1_555 1_555
O2 S3 1_555 1_555
C1 C2 1_555 1_555
C2 C3 1_555 1_555
C3 S3 1_555 1_555
C4 S1 1_555 1_555
C5 C4 1_555 1_555
C6 S3 1_555 1_555
C7 C6 1_555 1_555
C8 S2 1_555 1_555
C9 C1 1_555 1_555
C10 C9 1_555 1_555
C11 C10 1_555 1_555
C12 C11 1_555 1_555
C13 C12 1_555 1_555
C14 C9 1_555 1_555
C15 C8 1_555 1_555
C16 C15 1_555 1_555
C17 C16 1_555 1_555
C18 C17 1_555 1_555
C19 C18 1_555 1_555
C20 C15 1_555 1_555
H1 C2 1_555 1_555
H2 C7 1_555 1_555
H3 C10 1_555 1_555
H4 C11 1_555 1_555
H5 C12 1_555 1_555
H6 C13 1_555 1_555
H7 C14 1_555 1_555
H8 C16 1_555 1_555
H9 C17 1_555 1_555
H10 C18 1_555 1_555
H11 C19 1_555 1_555
H12 C20 1_555 1_555
C3 C4 1_555 1_555
C5 C6 1_555 1_555
C7 C8 1_555 1_555
C13 C14 1_555 1_555
C19 C20 1_555 1_555

#END
