
#######################################################################
#
#                 Cambridge Crystallographic Data Centre
#                                CCDC 
#
#######################################################################
#
# If this CIF has been generated from an entry in the Cambridge 
# Structural Database, then it will include bibliographic, chemical, 
# crystal, experimental, refinement or atomic coordinate data resulting 
# from the CCDC's data processing and validation procedures.
#
#######################################################################

data_VEGKAU
_chemical_formula_moiety         'C14 H11 Br1 N2 O1'
_chemical_name_systematic        
2-(3-Bromo-4-methoxyphenyl)imidazo(1,2-a)pyridine
_symmetry_cell_setting           triclinic
_symmetry_space_group_name_H-M   'P -1'
_symmetry_Int_Tables_number      2
_space_group_name_Hall           '-P 1'
loop_
_symmetry_equiv_pos_site_id
_symmetry_equiv_pos_as_xyz
1 x,y,z
2 -x,-y,-z
_cell_length_a                   9.766(3)
_cell_length_b                   10.355(3)
_cell_length_c                   13.017(4)
_cell_angle_alpha                81.669(4)
_cell_angle_beta                 74.176(4)
_cell_angle_gamma                81.141(4)
_cell_volume                     1244.02
_exptl_crystal_colour            colorless
_exptl_crystal_description       block
_cell_formula_units_Z            4
_exptl_crystal_recrystallization_method methanol
loop_
_atom_site_label
_atom_site_type_symbol
_atom_site_fract_x
_atom_site_fract_y
_atom_site_fract_z
Br1 Br 0.16798(5) 0.38439(6) 0.46179(3)
C1 C 0.2877(4) 0.3834(4) 0.2379(3)
H1 H 0.1928 0.4022 0.2341
O2 O 0.4796(3) 0.3439(4) 0.4451(2)
N1 N 0.2251(4) 0.4110(4) 0.0306(3)
N2 N 0.3704(4) 0.3486(3) -0.1241(3)
C3 C 0.3610(4) 0.3694(4) 0.0421(3)
C4 C 0.5358(4) 0.3427(4) 0.1536(3)
H2 H 0.6098 0.3316 0.0919
C5 C 0.3965(4) 0.3655(4) 0.1452(3)
C6 C 0.4510(4) 0.3306(4) -0.0516(3)
H3 H 0.5477 0.2984 -0.0634
C7 C 0.4597(4) 0.3504(4) 0.3453(3)
C8 C 0.5695(4) 0.3358(5) 0.2518(3)
H4 H 0.6647 0.3215 0.2550
C10 C 0.3202(4) 0.3735(4) 0.3362(3)
C15 C 0.1269(5) 0.4277(5) -0.1299(4)
H6 H 0.0340 0.4621 -0.0972
C16 C 0.4051(5) 0.3270(5) -0.2304(3)
H7 H 0.4979 0.2937 -0.2642
C18 C 0.1634(5) 0.4045(6) -0.2344(4)
H9 H 0.0943 0.4221 -0.2732
C19 C 0.3035(5) 0.3545(5) -0.2850(4)
H10 H 0.3264 0.3401 -0.3569
C21 C 0.2328(4) 0.3985(4) -0.0715(3)
C24 C 0.6214(5) 0.3229(6) 0.4580(4)
H14 H 0.6182 0.3199 0.5327
H15 H 0.6733 0.3934 0.4180
H16 H 0.6686 0.2411 0.4321
Br2 Br 0.85501(6) 0.28204(5) -0.34266(4)
O1 O 0.6708(3) 0.0753(3) -0.3225(2)
C2 C 0.7955(4) 0.1591(4) -0.2220(3)
C9 C 0.8377(4) 0.1629(5) -0.1300(4)
H5 H 0.8980 0.2236 -0.1287
N3 N 0.9227(4) 0.1339(4) 0.1827(3)
C11 C 0.8329(5) 0.0819(5) 0.0598(3)
C12 C 0.7057(4) 0.0692(4) -0.2276(3)
C13 C 0.7911(4) 0.0772(4) -0.0395(3)
C14 C 0.8389(5) 0.0327(5) 0.2243(4)
N4 N 0.7830(4) 0.0000(4) 0.1507(3)
C17 C 0.7018(5) -0.0114(5) -0.0449(4)
H8 H 0.6694 -0.0697 0.0152
C20 C 0.6593(5) -0.0159(5) -0.1369(4)
H11 H 0.5990 -0.0768 -0.1379
C22 C 0.8249(6) -0.0169(6) 0.3322(4)
H12 H 0.7708 -0.0858 0.3628
C23 C 0.8915(6) 0.0370(6) 0.3910(4)
H13 H 0.8808 0.0057 0.4631
C25 C 0.9188(5) 0.1646(5) 0.0775(4)
H17 H 0.9649 0.2286 0.0282
C26 C 0.5736(6) -0.0117(6) -0.3286(5)
H18 H 0.5568 0.0022 -0.3989
H19 H 0.4845 0.0052 -0.2758
H20 H 0.6142 -0.1011 -0.3152
C27 C 0.9913(6) 0.1858(6) 0.2427(5)
H21 H 1.0478 0.2530 0.2121
C28 C 0.9764(6) 0.1393(6) 0.3458(5)
H22 H 1.0220 0.1743 0.3876
loop_
_geom_bond_atom_site_label_1
_geom_bond_atom_site_label_2
_geom_bond_site_symmetry_1
_geom_bond_site_symmetry_2
Br1 C10 1_555 1_555
Br2 C2 1_555 1_555
O1 C12 1_555 1_555
C1 H1 1_555 1_555
C2 C9 1_555 1_555
O2 C7 1_555 1_555
N1 C3 1_555 1_555
N2 C6 1_555 1_555
C3 C5 1_555 1_555
C4 H2 1_555 1_555
C5 C1 1_555 1_555
C6 C3 1_555 1_555
H3 C6 1_555 1_555
C7 C8 1_555 1_555
C8 C4 1_555 1_555
H4 C8 1_555 1_555
C9 H5 1_555 1_555
N3 C14 1_555 1_555
C10 C1 1_555 1_555
C11 C13 1_555 1_555
C12 C2 1_555 1_555
C13 C9 1_555 1_555
C14 N4 1_555 1_555
N4 C11 1_555 1_555
C15 H6 1_555 1_555
C16 N2 1_555 1_555
H7 C16 1_555 1_555
C17 C13 1_555 1_555
H8 C17 1_555 1_555
C18 C15 1_555 1_555
H9 C18 1_555 1_555
C19 C16 1_555 1_555
H10 C19 1_555 1_555
C20 C12 1_555 1_555
H11 C20 1_555 1_555
C21 N1 1_555 1_555
C22 C14 1_555 1_555
H12 C22 1_555 1_555
C23 C22 1_555 1_555
H13 C23 1_555 1_555
C24 O2 1_555 1_555
H14 C24 1_555 1_555
H15 C24 1_555 1_555
H16 C24 1_555 1_555
C25 N3 1_555 1_555
H17 C25 1_555 1_555
C26 O1 1_555 1_555
H18 C26 1_555 1_555
H19 C26 1_555 1_555
H20 C26 1_555 1_555
C27 N3 1_555 1_555
H21 C27 1_555 1_555
C28 C23 1_555 1_555
H22 C28 1_555 1_555
N2 C21 1_555 1_555
C4 C5 1_555 1_555
C7 C10 1_555 1_555
C11 C25 1_555 1_555
C15 C21 1_555 1_555
C17 C20 1_555 1_555
C18 C19 1_555 1_555
C27 C28 1_555 1_555

#END
