
#######################################################################
#
#                 Cambridge Crystallographic Data Centre
#                                CCDC 
#
#######################################################################
#
# If this CIF has been generated from an entry in the Cambridge 
# Structural Database, then it will include bibliographic, chemical, 
# crystal, experimental, refinement or atomic coordinate data resulting 
# from the CCDC's data processing and validation procedures.
#
#######################################################################

data_VEGLEZ01
_chemical_formula_moiety         'C2 H10 N2 2+,2(C7 H4 N1 O3 S1 1-)'
_chemical_name_systematic        '1,2-Ethylenediammonium bis(saccharinate)'
_symmetry_cell_setting           triclinic
_symmetry_space_group_name_H-M   'P -1'
_symmetry_Int_Tables_number      2
_space_group_name_Hall           '-P 1'
loop_
_symmetry_equiv_pos_site_id
_symmetry_equiv_pos_as_xyz
1 x,y,z
2 -x,-y,-z
_cell_length_a                   7.1684(19)
_cell_length_b                   9.964(3)
_cell_length_c                   13.185(4)
_cell_angle_alpha                84.557(4)
_cell_angle_beta                 86.387(4)
_cell_angle_gamma                76.149(4)
_cell_volume                     909.452
_exptl_crystal_colour            colorless
_exptl_crystal_description       block
_cell_formula_units_Z            2
_exptl_crystal_recrystallization_method methanol
loop_
_atom_site_label
_atom_site_type_symbol
_atom_site_fract_x
_atom_site_fract_y
_atom_site_fract_z
S1 S 1.00098(11) 0.55402(8) 0.63461(6)
O1 O 0.7398(3) 0.9162(2) 0.60423(16)
O2 O 1.1932(3) 0.5163(2) 0.58962(17)
O3 O 0.9016(3) 0.4433(2) 0.64721(17)
N1 N 0.8778(3) 0.6908(3) 0.57465(18)
C1 C 0.8326(4) 0.8001(3) 0.6335(2)
C2 C 0.9067(4) 0.7618(3) 0.7398(2)
C3 C 0.8867(4) 0.8437(3) 0.8203(2)
H1 H 0.8221 0.9389 0.8130
C4 C 0.9638(4) 0.7831(4) 0.9126(2)
H2 H 0.9519 0.8381 0.9688
C5 C 1.0575(4) 0.6444(4) 0.9241(2)
H3 H 1.1085 0.6055 0.9880
C6 C 1.0780(4) 0.5613(3) 0.8433(2)
H4 H 1.1409 0.4657 0.8506
C7 C 1.0029(4) 0.6238(3) 0.7518(2)
S2 S 0.24528(11) 1.07048(8) 0.80957(5)
O4 O 0.2940(3) 0.8525(2) 0.59627(15)
O5 O 0.0572(3) 1.1122(2) 0.85781(16)
O6 O 0.3704(3) 1.1634(2) 0.81506(16)
N2 N 0.2282(3) 1.0397(3) 0.69197(17)
C8 C 0.3005(4) 0.9043(3) 0.6775(2)
C9 C 0.3867(4) 0.8197(3) 0.7706(2)
C10 C 0.4789(4) 0.6808(3) 0.7814(3)
H5 H 0.4947 0.6250 0.7255
C11 C 0.5483(5) 0.6245(4) 0.8769(3)
H6 H 0.6137 0.5295 0.8857
C12 C 0.5229(5) 0.7052(4) 0.9583(3)
H7 H 0.5716 0.6647 1.0223
C13 C 0.4271(4) 0.8454(4) 0.9487(2)
H8 H 0.4069 0.9006 1.0051
C14 C 0.3633(4) 0.8997(3) 0.8534(2)
N3 N 0.5623(4) 0.7663(3) 0.4382(2)
H9 H 0.490(4) 0.809(3) 0.486(3)
H10 H 0.670(5) 0.709(3) 0.465(2)
H11 H 0.595(5) 0.838(4) 0.398(3)
N4 N 0.1159(4) 0.8237(3) 0.4154(2)
H12 H 0.148(5) 0.869(4) 0.468(3)
H13 H 0.008(3) 0.876(3) 0.387(2)
H14 H 0.087(5) 0.745(4) 0.443(3)
C15 C 0.4502(4) 0.6947(3) 0.3801(2)
H15 H 0.4110 0.6205 0.4256
H16 H 0.5331 0.6505 0.3238
C16 C 0.2744(4) 0.7914(3) 0.3368(2)
H17 H 0.3073 0.8786 0.3078
H18 H 0.2304 0.7485 0.2808
loop_
_geom_bond_atom_site_label_1
_geom_bond_atom_site_label_2
_geom_bond_site_symmetry_1
_geom_bond_site_symmetry_2
S1 O2 1_555 1_555
O1 C1 1_555 1_555
O3 S1 1_555 1_555
N1 S1 1_555 1_555
C1 N1 1_555 1_555
C2 C1 1_555 1_555
C3 C2 1_555 1_555
H1 C3 1_555 1_555
C4 C3 1_555 1_555
H2 C4 1_555 1_555
C5 C4 1_555 1_555
H3 C5 1_555 1_555
C6 C5 1_555 1_555
H4 C6 1_555 1_555
C7 S1 1_555 1_555
S2 O5 1_555 1_555
O4 C8 1_555 1_555
O6 S2 1_555 1_555
N2 S2 1_555 1_555
C8 N2 1_555 1_555
C9 C8 1_555 1_555
C10 C9 1_555 1_555
H5 C10 1_555 1_555
C11 C10 1_555 1_555
H6 C11 1_555 1_555
C12 C11 1_555 1_555
H7 C12 1_555 1_555
C13 C12 1_555 1_555
H8 C13 1_555 1_555
C14 S2 1_555 1_555
N3 H9 1_555 1_555
H10 N3 1_555 1_555
H11 N3 1_555 1_555
N4 H12 1_555 1_555
H13 N4 1_555 1_555
H14 N4 1_555 1_555
C15 N3 1_555 1_555
H15 C15 1_555 1_555
H16 C15 1_555 1_555
C16 N4 1_555 1_555
H17 C16 1_555 1_555
H18 C16 1_555 1_555
C2 C7 1_555 1_555
C6 C7 1_555 1_555
C9 C14 1_555 1_555
C13 C14 1_555 1_555
C15 C16 1_555 1_555

#END
