
#######################################################################
#
#                 Cambridge Crystallographic Data Centre
#                                CCDC 
#
#######################################################################
#
# If this CIF has been generated from an entry in the Cambridge 
# Structural Database, then it will include bibliographic, chemical, 
# crystal, experimental, refinement or atomic coordinate data resulting 
# from the CCDC's data processing and validation procedures.
#
#######################################################################

data_VEGMEC
_chemical_formula_moiety         'C18 H20 O10 S4'
_chemical_name_systematic        
"tetramethyl 2,2',2'',2'''-((3,6-dioxocyclohexa-1,4-diene-1,2,4,5-tetrayl)tetrasulfanediyl)tetraacetate"
_symmetry_cell_setting           monoclinic
_symmetry_space_group_name_H-M   'P 21/c'
_symmetry_Int_Tables_number      14
_space_group_name_Hall           '-P 2ybc'
loop_
_symmetry_equiv_pos_site_id
_symmetry_equiv_pos_as_xyz
1 x,y,z
2 -x,1/2+y,1/2-z
3 -x,-y,-z
4 x,1/2-y,1/2+z
_cell_length_a                   8.7253(4)
_cell_length_b                   31.2090(14)
_cell_length_c                   9.1641(4)
_cell_angle_alpha                90
_cell_angle_beta                 109.945(2)
_cell_angle_gamma                90
_cell_volume                     2345.78
_exptl_crystal_description       block
_cell_formula_units_Z            4
loop_
_atom_site_label
_atom_site_type_symbol
_atom_site_fract_x
_atom_site_fract_y
_atom_site_fract_z
S1 S 0.59974(13) 0.20172(4) 0.62588(13)
S2 S -0.06746(13) 0.19956(4) 0.43961(13)
S3 S 0.61198(14) 0.10765(4) 0.75859(14)
S4 S -0.06158(14) 0.10737(4) 0.57868(15)
O1 O 0.2656(3) 0.23947(9) 0.5983(3)
O2 O 0.5822(4) 0.29978(10) 0.6487(4)
O3 O 0.2883(4) 0.08932(10) 0.8000(3)
O4 O 0.3658(4) 0.30569(11) 0.4293(4)
O5 O -0.0458(4) 0.18896(12) 0.0595(4)
C1 C 0.1157(5) 0.17519(13) 0.5491(4)
O6 O 0.1866(4) 0.17747(11) 0.2616(4)
C2 C 0.2681(5) 0.20039(13) 0.5929(4)
C3 C 0.4232(5) 0.17591(12) 0.6308(4)
C4 C 0.1197(5) 0.13522(13) 0.6069(4)
C5 C 0.2800(5) 0.11776(13) 0.7085(5)
O7 O 0.3384(4) 0.06403(11) 0.4515(4)
C6 C 0.4285(5) 0.13558(12) 0.6875(4)
O8 O 0.1551(5) 0.00142(11) 0.7547(4)
O9 O -0.0162(5) 0.03911(13) 0.8387(5)
C7 C -0.0051(6) 0.05178(13) 0.5852(5)
H1 H -0.0959 0.0359 0.5146
H2 H 0.0857 0.0492 0.5475
C8 C 0.4798(6) 0.28474(16) 0.5139(5)
C9 C 0.0418(7) 0.03139(17) 0.7419(6)
C10 C 0.4965(7) 0.05395(15) 0.5100(7)
C11 C 0.5243(5) 0.24096(14) 0.4701(5)
H3 H 0.6069 0.2447 0.4222
H4 H 0.4287 0.2290 0.3920
C12 C 0.5544(6) 0.05413(14) 0.6818(6)
H5 H 0.6476 0.0352 0.7211
H6 H 0.4687 0.0434 0.7171
O10 O 0.5767(5) 0.04597(14) 0.4319(5)
C13 C 0.0557(6) 0.19526(16) 0.2041(5)
C14 C -0.0094(6) 0.22732(15) 0.2923(5)
H7 H -0.1033 0.2420 0.2213
H8 H 0.0735 0.2485 0.3409
C15 C 0.2649(8) 0.06788(19) 0.2823(6)
H9 H 0.3468 0.0763 0.2398
H10 H 0.1801 0.0891 0.2571
H11 H 0.2197 0.0408 0.2391
C16 C 0.0078(7) 0.1589(2) -0.0291(6)
H12 H 0.1088 0.1685 -0.0379
H13 H -0.0728 0.1564 -0.1308
H14 H 0.0235 0.1315 0.0214
C17 C 0.5478(6) 0.34288(16) 0.6856(6)
H15 H 0.5401 0.3615 0.5999
H16 H 0.6339 0.3526 0.7763
H17 H 0.4465 0.3433 0.7051
C18 C 0.2129(8) -0.0207(2) 0.9021(8)
H18 H 0.3021 -0.0050 0.9730
H19 H 0.2490 -0.0489 0.8875
H20 H 0.1261 -0.0228 0.9438
loop_
_geom_bond_atom_site_label_1
_geom_bond_atom_site_label_2
_geom_bond_site_symmetry_1
_geom_bond_site_symmetry_2
S1 C3 1_555 1_555
S2 C1 1_555 1_555
S3 C6 1_555 1_555
S4 C4 1_555 1_555
O1 C2 1_555 1_555
O2 C8 1_555 1_555
O3 C5 1_555 1_555
O4 C8 1_555 1_555
O5 C13 1_555 1_555
C1 C2 1_555 1_555
O6 C13 1_555 1_555
C2 C3 1_555 1_555
C3 C6 1_555 1_555
C4 C1 1_555 1_555
C5 C4 1_555 1_555
O7 C10 1_555 1_555
C6 C5 1_555 1_555
O8 C9 1_555 1_555
O9 C9 1_555 1_555
C7 S4 1_555 1_555
H1 C7 1_555 1_555
H2 C7 1_555 1_555
C8 C11 1_555 1_555
C9 C7 1_555 1_555
C10 C12 1_555 1_555
C11 S1 1_555 1_555
H3 C11 1_555 1_555
H4 C11 1_555 1_555
C12 S3 1_555 1_555
H5 C12 1_555 1_555
H6 C12 1_555 1_555
O10 C10 1_555 1_555
C13 C14 1_555 1_555
C14 S2 1_555 1_555
H7 C14 1_555 1_555
H8 C14 1_555 1_555
C15 O7 1_555 1_555
H9 C15 1_555 1_555
H10 C15 1_555 1_555
H11 C15 1_555 1_555
C16 O5 1_555 1_555
H12 C16 1_555 1_555
H13 C16 1_555 1_555
H14 C16 1_555 1_555
C17 O2 1_555 1_555
H15 C17 1_555 1_555
H16 C17 1_555 1_555
H17 C17 1_555 1_555
C18 O8 1_555 1_555
H18 C18 1_555 1_555
H19 C18 1_555 1_555
H20 C18 1_555 1_555

#END
