
#######################################################################
#
#                 Cambridge Crystallographic Data Centre
#                                CCDC 
#
#######################################################################
#
# If this CIF has been generated from an entry in the Cambridge 
# Structural Database, then it will include bibliographic, chemical, 
# crystal, experimental, refinement or atomic coordinate data resulting 
# from the CCDC's data processing and validation procedures.
#
#######################################################################

data_VEGPIJ
_chemical_formula_moiety         'C17 H20 N3 1+,Cl1 1-'
_chemical_name_systematic        
'1,3-bis(pyridin-2-yl)octahydrocyclopenta[c]pyrrol-2-ium chloride'
_symmetry_cell_setting           monoclinic
_symmetry_space_group_name_H-M   'P 21/n'
_symmetry_Int_Tables_number      14
_space_group_name_Hall           '-P 2yn'
loop_
_symmetry_equiv_pos_site_id
_symmetry_equiv_pos_as_xyz
1 x,y,z
2 1/2-x,1/2+y,1/2-z
3 -x,-y,-z
4 1/2+x,1/2-y,1/2+z
_cell_length_a                   9.9001(4)
_cell_length_b                   11.3075(3)
_cell_length_c                   14.4510(5)
_cell_angle_alpha                90
_cell_angle_beta                 107.127(2)
_cell_angle_gamma                90
_cell_volume                     1545.98
_exptl_crystal_colour            colorless
_exptl_crystal_description       block
_cell_formula_units_Z            4
loop_
_atom_site_label
_atom_site_type_symbol
_atom_site_fract_x
_atom_site_fract_y
_atom_site_fract_z
N1 N 0.6449(2) 0.49168(16) 0.41574(14)
H1 H 0.5742 0.4666 0.4371
H2 H 0.6877 0.5513 0.4532
N2 N 0.3612(2) 0.5155(2) 0.34033(15)
N3 N 0.5770(2) 0.28980(18) 0.48154(17)
C1 C 0.4378(2) 0.5732(2) 0.29318(17)
C2 C 0.5883(2) 0.5329(2) 0.31348(17)
H3 H 0.6459 0.5991 0.3030
C3 C 0.7074(2) 0.2886(2) 0.47280(17)
C4 C 0.7482(3) 0.3927(2) 0.42109(19)
H4 H 0.8430 0.4195 0.4577
C5 C 0.3815(3) 0.6611(2) 0.22643(19)
H5 H 0.4374 0.6990 0.1939
C6 C 0.6111(3) 0.4260(2) 0.25376(19)
H6 H 0.5312 0.3711 0.2410
C7 C 0.8014(3) 0.1981(2) 0.50732(19)
H7 H 0.8919 0.2001 0.5006
C8 C 0.2255(3) 0.5453(3) 0.3217(2)
H8 H 0.1705 0.5048 0.3535
C9 C 0.1635(3) 0.6328(3) 0.2578(2)
H9 H 0.0690 0.6520 0.2478
C10 C 0.2417(3) 0.6917(2) 0.2087(2)
H10 H 0.2015 0.7509 0.1646
C11 C 0.7575(3) 0.1042(2) 0.5523(2)
H11 H 0.8179 0.0409 0.5755
C12 C 0.6242(3) 0.1049(2) 0.5627(2)
H12 H 0.5936 0.0430 0.5939
C13 C 0.5374(3) 0.1984(2) 0.5264(2)
H13 H 0.4468 0.1985 0.5330
C14 C 0.7451(3) 0.3689(3) 0.3168(2)
H14 H 0.7455 0.2838 0.3042
C15 C 0.6424(3) 0.4606(3) 0.1597(2)
H15 H 0.6073 0.4011 0.1101
H16 H 0.5995 0.5361 0.1360
C16 C 0.8021(4) 0.4684(4) 0.1878(3)
H17 H 0.8369 0.4181 0.1454
H18 H 0.8299 0.5491 0.1797
C17 C 0.8635(4) 0.4328(4) 0.2855(3)
H19 H 0.8975 0.5010 0.3264
H20 H 0.9422 0.3796 0.2906
Cl1 Cl 0.84683(7) 0.68989(6) 0.49823(5)
loop_
_geom_bond_atom_site_label_1
_geom_bond_atom_site_label_2
_geom_bond_site_symmetry_1
_geom_bond_site_symmetry_2
N1 H1 1_555 1_555
H2 N1 1_555 1_555
N2 C1 1_555 1_555
N3 C3 1_555 1_555
C1 C2 1_555 1_555
C2 N1 1_555 1_555
H3 C2 1_555 1_555
C3 C4 1_555 1_555
C4 N1 1_555 1_555
H4 C4 1_555 1_555
C5 C1 1_555 1_555
H5 C5 1_555 1_555
C6 C2 1_555 1_555
H6 C6 1_555 1_555
C7 C3 1_555 1_555
H7 C7 1_555 1_555
C8 N2 1_555 1_555
H8 C8 1_555 1_555
C9 C8 1_555 1_555
H9 C9 1_555 1_555
C10 C5 1_555 1_555
H10 C10 1_555 1_555
C11 C7 1_555 1_555
H11 C11 1_555 1_555
C12 C11 1_555 1_555
H12 C12 1_555 1_555
C13 N3 1_555 1_555
H13 C13 1_555 1_555
C14 C4 1_555 1_555
H14 C14 1_555 1_555
C15 C6 1_555 1_555
H15 C15 1_555 1_555
H16 C15 1_555 1_555
C16 C15 1_555 1_555
H17 C16 1_555 1_555
H18 C16 1_555 1_555
C17 C14 1_555 1_555
H19 C17 1_555 1_555
H20 C17 1_555 1_555
C6 C14 1_555 1_555
C9 C10 1_555 1_555
C12 C13 1_555 1_555
C16 C17 1_555 1_555

#END
