
#######################################################################
#
#                 Cambridge Crystallographic Data Centre
#                                CCDC 
#
#######################################################################
#
# If this CIF has been generated from an entry in the Cambridge 
# Structural Database, then it will include bibliographic, chemical, 
# crystal, experimental, refinement or atomic coordinate data resulting 
# from the CCDC's data processing and validation procedures.
#
#######################################################################

data_VEHDES
_chemical_formula_moiety         'C10 F8,C13 H10'
_chemical_name_systematic        'Octafluoronaphthalene fluorene'
_symmetry_cell_setting           triclinic
_symmetry_space_group_name_H-M   'P -1'
_symmetry_Int_Tables_number      2
_space_group_name_Hall           '-P 1'
loop_
_symmetry_equiv_pos_site_id
_symmetry_equiv_pos_as_xyz
1 x,y,z
2 -x,-y,-z
_cell_length_a                   6.798(2)
_cell_length_b                   7.872(3)
_cell_length_c                   9.414(4)
_cell_angle_alpha                101.74(1)
_cell_angle_beta                 105.96(1)
_cell_angle_gamma                103.89(1)
_cell_volume                     450.172
_exptl_crystal_colour            colorless
_exptl_crystal_description       blade
_chemical_melting_point          '406 K'
_cell_formula_units_Z            1
loop_
_atom_site_label
_atom_site_type_symbol
_atom_site_fract_x
_atom_site_fract_y
_atom_site_fract_z
H4 H 0.1436 0.8649 0.0759
C10 C 0.0608(11) 0.4634(10) 0.2139(9)
C11 C 0.1612(10) 0.6174(12) 0.3539(7)
H6 H 0.1877 0.5881 0.4490
C12 C 0.2213(8) 0.8005(9) 0.3606(7)
H7 H 0.2806 0.8927 0.4569
C13 C 0.1900(10) 0.8404(9) 0.2215(10)
H8 H 0.2342 0.9642 0.2209
C14 C 0.0428(9) 0.7130(7) -0.0804(6)
H9 H -0.0596 0.7829 -0.1019
C17 C 0.0339(8) 0.5176(8) 0.0834(6)
C18 C 0.0952(9) 0.6998(10) 0.0830(6)
H4A H -0.1436 0.1351 -0.0759
C10A C -0.0608(11) 0.5366(10) -0.2139(9)
C11A C -0.1612(10) 0.3826(12) -0.3539(7)
H6A H -0.1877 0.4119 -0.4490
C12A C -0.2213(8) 0.1995(9) -0.3606(7)
H7A H -0.2806 0.1073 -0.4569
C13A C -0.1900(10) 0.1596(9) -0.2215(10)
H8A H -0.2342 0.0358 -0.2209
C14A C -0.0428(9) 0.2870(7) 0.0804(6)
H9A H 0.0596 0.2171 0.1019
C17A C -0.0339(8) 0.4824(8) -0.0834(6)
C18A C -0.0952(9) 0.3002(10) -0.0830(6)
C1 C 0.4329(4) 0.4967(4) 0.7936(3)
C2 C 0.3430(4) 0.3144(4) 0.7212(3)
C3 C 0.3268(5) 0.1914(4) 0.8050(4)
C4 C 0.3973(5) 0.2486(4) 0.9627(3)
C5 C 0.5077(4) 0.5634(4) 0.9572(3)
F1 F 0.4457(3) 0.6130(3) 0.7086(2)
F2 F 0.2706(3) 0.2541(3) 0.56645(19)
F3 F 0.2361(3) 0.0117(2) 0.7306(3)
F4 F 0.3759(3) 0.1236(2) 1.0388(2)
C1A C 0.5671(4) 0.5033(4) 1.2064(3)
C2A C 0.6570(4) 0.6856(4) 1.2788(3)
C3A C 0.6732(5) 0.8086(4) 1.1950(4)
C4A C 0.6027(5) 0.7514(4) 1.0373(3)
C5A C 0.4923(4) 0.4366(4) 1.0428(3)
F1A F 0.5543(3) 0.3870(3) 1.2914(2)
F2A F 0.7294(3) 0.7459(3) 1.43355(19)
F3A F 0.7639(3) 0.9883(2) 1.2694(3)
F4A F 0.6241(3) 0.8764(2) 0.9612(2)
C6? C 0.1331(9) 0.5434(9) 0.3375(6)
H1? H 0.1276 0.4633 0.4004
C7? C 0.2155(8) 0.7328(9) 0.3916(6)
H2? H 0.2727 0.7840 0.5006
C8? C 0.2239(10) 0.8552(9) 0.3059(10)
H3? H 0.2832 0.9829 0.3557
C9? C 0.1411(12) 0.7850(12) 0.1391(11)
H5? H -0.0188 0.6605 -0.2144
H10? H -0.1747 0.2286 0.1003
C15? C 0.0598(10) 0.4883(9) 0.1772(9)
C16? C 0.0616(8) 0.6009(9) 0.0818(5)
loop_
_geom_bond_atom_site_label_1
_geom_bond_atom_site_label_2
_geom_bond_site_symmetry_1
_geom_bond_site_symmetry_2
C1 C2 1_555 1_555
C2 C3 1_555 1_555
C3 C4 1_555 1_555
C4 F4 1_555 1_555
C5 C1 1_555 1_555
F1 C1 1_555 1_555
F2 C2 1_555 1_555
F3 C3 1_555 1_555
H4 C18 1_555 1_555
C10 C11 1_555 1_555
C11 H6 1_555 1_555
C12 C11 1_555 1_555
H7 C12 1_555 1_555
C13 C12 1_555 1_555
H8 C13 1_555 1_555
C14 H9 1_555 1_555
C17 C10 1_555 1_555
C18 C13 1_555 1_555
C1A C2A 1_555 1_555
C2A C3A 1_555 1_555
C3A C4A 1_555 1_555
C4A C5 1_555 1_555
C5A C4 1_555 1_555
F1A C1A 1_555 1_555
F2A C2A 1_555 1_555
F3A C3A 1_555 1_555
F4A C4A 1_555 1_555
H4A C18A 1_555 1_555
C10A C14 1_555 1_555
C11A C10A 1_555 1_555
H6A C11A 1_555 1_555
C12A C11A 1_555 1_555
H7A C12A 1_555 1_555
C13A C12A 1_555 1_555
H8A C13A 1_555 1_555
C14A C10 1_555 1_555
H9A C14A 1_555 1_555
C17A C14 1_555 1_555
C18A C13A 1_555 1_555
C5 C5A 1_555 1_555
C14 C18 1_555 1_555
C17 C18 1_555 1_555
C17 C14A 1_555 1_555
C17 C17A 1_555 1_555
C1A C5A 1_555 1_555
C10A C17A 1_555 1_555
C14A C18A 1_555 1_555
C17A C18A 1_555 1_555

#END
