
#######################################################################
#
#                 Cambridge Crystallographic Data Centre
#                                CCDC 
#
#######################################################################
#
# If this CIF has been generated from an entry in the Cambridge 
# Structural Database, then it will include bibliographic, chemical, 
# crystal, experimental, refinement or atomic coordinate data resulting 
# from the CCDC's data processing and validation procedures.
#
#######################################################################

data_VEHFOG
_chemical_name_common            'ilamycin B!2$'
_chemical_formula_moiety         'C54 H77 N9 O11'
_chemical_name_systematic        
15-(but-2-en-1-yl)-6-(4-hydroxy-3-nitrobenzyl)-9,18,21-tri-isobutyl-1,3,10-trimethyl-12-((1-(2-(oxiran-2-yl)propan-2-yl)-1H-indol-3-yl)methyl)-1,4,7,10,13,16,19-hepta-azacyclohenicosane-2,5,8,11,14,17,20-heptone
_chemical_properties_biological  'anti-mycobacterial activity'
_symmetry_cell_setting           orthorhombic
_symmetry_space_group_name_H-M   'P 21 21 2'
_symmetry_Int_Tables_number      18
_space_group_name_Hall           'P 2 2ab'
loop_
_symmetry_equiv_pos_site_id
_symmetry_equiv_pos_as_xyz
1 x,y,z
2 -x,-y,z
3 1/2-x,1/2+y,-z
4 1/2+x,1/2-y,-z
_cell_length_a                   18.3538(2)
_cell_length_b                   28.2850(3)
_cell_length_c                   13.32010(10)
_cell_angle_alpha                90
_cell_angle_beta                 90
_cell_angle_gamma                90
_cell_volume                     6914.96
_exptl_crystal_colour            yellow
_exptl_crystal_description       block
_cell_formula_units_Z            4
loop_
_atom_site_label
_atom_site_type_symbol
_atom_site_fract_x
_atom_site_fract_y
_atom_site_fract_z
N1 N 0.89313(19) 0.33102(12) 0.5765(2)
H1 H 0.935284 0.335254 0.549814
N2 N 0.8165(2) 0.24007(12) 0.4158(3)
H2 H 0.776986 0.239028 0.450308
N3 N 0.7338(2) 0.15355(13) 0.4146(3)
H3 H 0.706798 0.171854 0.450284
N4 N 0.6245(2) 0.10455(14) 0.5276(3)
N5 N 0.5918(2) 0.21807(13) 0.6457(3)
H4 H 0.561725 0.229081 0.689363
N6 N 0.65666(19) 0.31833(12) 0.6457(3)
H5 H 0.697323 0.303460 0.651275
N7 N 0.75461(19) 0.40769(12) 0.6550(3)
N8 N 0.8843(2) 0.47799(12) 0.8892(3)
N9 N 0.4258(3) 0.25500(18) 0.2411(4)
O1 O 0.8475(2) 0.42511(13) 0.5546(3)
O2 O 0.79231(16) 0.28571(10) 0.5833(2)
O3 O 0.8857(3) 0.20498(15) 0.2963(4)
O4 O 0.7837(3) 0.08130(15) 0.4027(4)
O5 O 0.52336(16) 0.14881(13) 0.5344(3)
O6 O 0.65427(17) 0.23056(10) 0.5031(2)
O7 O 0.58810(18) 0.37953(12) 0.6991(3)
O8 O 0.4779(4) 0.2313(2) 0.2111(4)
O9 O 0.3675(3) 0.24802(19) 0.2003(4)
O10 O 0.3133(3) 0.31455(18) 0.3155(5)
H6 H 0.313490 0.300009 0.262288
O11 O 0.9000(2) 0.54867(12) 1.0896(3)
C1 C 0.8215(2) 0.39999(15) 0.6209(3)
C2 C 0.8708(2) 0.36028(14) 0.6623(3)
H7 H 0.843983 0.341117 0.711193
C3 C 0.9373(3) 0.38262(18) 0.7115(3)
H8 H 0.969892 0.357843 0.734124
H9 H 0.963046 0.401539 0.662244
C4 C 0.9025(3) 0.45988(16) 0.7955(3)
H10 H 0.904482 0.477786 0.736974
C5 C 0.9168(2) 0.41346(15) 0.7997(3)
C6 C 0.9080(2) 0.39959(15) 0.9025(3)
C7 C 0.9171(3) 0.35698(16) 0.9546(3)
H11 H 0.929924 0.329558 0.920343
C8 C 0.9067(3) 0.35610(16) 1.0578(3)
H12 H 0.911956 0.327816 1.092682
C9 C 0.8886(3) 0.39723(16) 1.1096(3)
H13 H 0.883151 0.395822 1.178960
C10 C 0.8783(2) 0.43990(16) 1.0619(3)
H14 H 0.865420 0.466972 1.097307
C11 C 0.8882(2) 0.44072(14) 0.9567(3)
C12 C 0.8632(3) 0.52741(15) 0.9122(3)
C13 C 0.9176(3) 0.54722(16) 0.9840(4)
H15 H 0.968418 0.539438 0.968871
C14 C 0.9069(4) 0.59238(18) 1.0354(4)
H16 H 0.949549 0.611681 1.048323
H17 H 0.862712 0.609933 1.020976
C15 C 0.8696(5) 0.5575(2) 0.8146(4)
H18 H 0.856009 0.589612 0.828819
H19 H 0.918886 0.556665 0.790734
H20 H 0.837689 0.544829 0.764234
C16 C 0.7853(3) 0.52862(18) 0.9505(4)
H21 H 0.771813 0.560654 0.965371
H22 H 0.753262 0.516119 0.900142
H23 H 0.781607 0.509835 1.010360
C17 C 0.8491(2) 0.29817(14) 0.5399(3)
C18 C 0.8679(2) 0.27755(14) 0.4365(3)
H24 H 0.917165 0.264245 0.438813
C19 C 0.8654(2) 0.31658(15) 0.3567(3)
H25 H 0.903375 0.339459 0.370918
H26 H 0.875596 0.302740 0.291607
C20 C 0.7927(3) 0.34203(14) 0.3519(3)
H27 H 0.777084 0.358361 0.408595
C21 C 0.7504(3) 0.34229(15) 0.2718(3)
H28 H 0.765181 0.324720 0.216447
C22 C 0.6803(3) 0.3689(2) 0.2641(4)
H29 H 0.659194 0.363748 0.199043
H30 H 0.647250 0.357971 0.314931
H31 H 0.689375 0.402023 0.273315
C23 C 0.8273(3) 0.20681(16) 0.3455(4)
C24 C 0.7663(3) 0.17244(17) 0.3227(4)
H32 H 0.787312 0.145848 0.285445
C25 C 0.7079(4) 0.1950(2) 0.2564(4)
H33 H 0.686580 0.221351 0.292497
H34 H 0.669669 0.171960 0.244992
C26 C 0.7350(5) 0.2128(2) 0.1545(5)
H35 H 0.769392 0.238694 0.166873
C27 C 0.7746(6) 0.1750(3) 0.0938(6)
H36 H 0.814759 0.162922 0.132281
H37 H 0.741549 0.149766 0.078475
H38 H 0.792559 0.188615 0.032585
C28 C 0.6715(8) 0.2327(3) 0.0962(7)
H39 H 0.647419 0.256336 0.135705
H40 H 0.688890 0.246547 0.034938
H41 H 0.637880 0.207698 0.080828
C29 C 0.7442(3) 0.10920(16) 0.4456(4)
C30 C 0.7033(2) 0.09618(15) 0.5426(3)
H42 H 0.719829 0.117890 0.595181
C31 C 0.7228(4) 0.04596(18) 0.5763(5)
H43 H 0.695395 0.023878 0.535326
H44 H 0.774055 0.040768 0.562306
C32 C 0.7099(4) 0.0347(2) 0.6793(5)
H45 H 0.658122 0.039075 0.694578
C33 C 0.7576(4) 0.0652(2) 0.7559(4)
H46 H 0.746407 0.055979 0.823501
H47 H 0.808444 0.059915 0.743035
H48 H 0.746739 0.098188 0.747227
C34 C 0.7308(7) -0.0175(2) 0.6960(6)
H49 H 0.722532 -0.025871 0.764907
H50 H 0.701484 -0.037276 0.653444
H51 H 0.781309 -0.021993 0.679909
C35 C 0.5846(2) 0.14058(16) 0.5659(3)
C36 C 0.6147(2) 0.16919(16) 0.6526(3)
H52 H 0.668031 0.167517 0.652405
C37 C 0.5853(4) 0.14775(17) 0.7501(3)
H53 H 0.600382 0.115331 0.754914
H54 H 0.603975 0.165121 0.806378
H55 H 0.533031 0.149341 0.750049
C38 C 0.6161(2) 0.24620(14) 0.5735(3)
C39 C 0.5990(2) 0.29864(15) 0.5852(3)
H56 H 0.552356 0.302396 0.620133
C40 C 0.5955(2) 0.32390(17) 0.4828(4)
H57 H 0.608632 0.356874 0.491387
H58 H 0.630626 0.309658 0.437482
C41 C 0.5210(3) 0.32078(16) 0.4373(3)
C42 C 0.5101(3) 0.28918(16) 0.3662(4)
H59 H 0.546943 0.268970 0.344816
C43 C 0.4335(3) 0.28756(17) 0.3208(3)
C44 C 0.3799(3) 0.3156(2) 0.3528(5)
C45 C 0.3974(3) 0.3482(2) 0.4270(5)
H60 H 0.361854 0.369615 0.447383
C46 C 0.4648(3) 0.35040(18) 0.4716(4)
H61 H 0.473231 0.371337 0.524148
C47 C 0.6473(2) 0.35986(16) 0.6935(3)
C48 C 0.7173(2) 0.38153(15) 0.7366(3)
H62 H 0.749236 0.355645 0.758081
C49 C 0.7031(3) 0.41324(17) 0.8272(3)
H63 H 0.673106 0.439641 0.805790
H64 H 0.749206 0.426000 0.850115
C50 C 0.6654(3) 0.38881(19) 0.9162(3)
H65 H 0.618564 0.376378 0.892532
C51 C 0.7087(3) 0.3483(2) 0.9568(4)
H66 H 0.717873 0.325967 0.904106
H67 H 0.754203 0.359843 0.982662
H68 H 0.681887 0.333243 1.009719
C52 C 0.6499(4) 0.4249(2) 0.9978(4)
H69 H 0.622073 0.450553 0.970270
H70 H 0.622777 0.410209 1.050961
H71 H 0.695092 0.436809 1.023904
C53 C 0.7141(3) 0.44782(18) 0.6102(4)
H72 H 0.666752 0.449950 0.640427
H73 H 0.740384 0.476647 0.621878
H74 H 0.708979 0.442852 0.539239
C54 C 0.5919(3) 0.0767(2) 0.4465(4)
H75 H 0.625305 0.052442 0.426056
H76 H 0.547550 0.062458 0.469878
H77 H 0.581468 0.096970 0.390528
loop_
_geom_bond_atom_site_label_1
_geom_bond_atom_site_label_2
_geom_bond_site_symmetry_1
_geom_bond_site_symmetry_2
N1 H1 1_555 1_555
N2 H2 1_555 1_555
N3 H3 1_555 1_555
N4 C30 1_555 1_555
N5 H4 1_555 1_555
N6 H5 1_555 1_555
N7 C1 1_555 1_555
N8 C4 1_555 1_555
N9 O8 1_555 1_555
O1 C1 1_555 1_555
O2 C17 1_555 1_555
O3 C23 1_555 1_555
O4 C29 1_555 1_555
O5 C35 1_555 1_555
O6 C38 1_555 1_555
O7 C47 1_555 1_555
O9 N9 1_555 1_555
O10 H6 1_555 1_555
O11 C13 1_555 1_555
C1 C2 1_555 1_555
C2 N1 1_555 1_555
H7 C2 1_555 1_555
C3 C2 1_555 1_555
H8 C3 1_555 1_555
H9 C3 1_555 1_555
C4 H10 1_555 1_555
C5 C3 1_555 1_555
C6 C5 1_555 1_555
C7 C6 1_555 1_555
H11 C7 1_555 1_555
C8 C7 1_555 1_555
H12 C8 1_555 1_555
C9 C8 1_555 1_555
H13 C9 1_555 1_555
C10 C9 1_555 1_555
H14 C10 1_555 1_555
C11 N8 1_555 1_555
C12 N8 1_555 1_555
C13 C12 1_555 1_555
H15 C13 1_555 1_555
C14 O11 1_555 1_555
H16 C14 1_555 1_555
H17 C14 1_555 1_555
C15 C12 1_555 1_555
H18 C15 1_555 1_555
H19 C15 1_555 1_555
H20 C15 1_555 1_555
C16 C12 1_555 1_555
H21 C16 1_555 1_555
H22 C16 1_555 1_555
H23 C16 1_555 1_555
C17 N1 1_555 1_555
C18 N2 1_555 1_555
H24 C18 1_555 1_555
C19 C18 1_555 1_555
H25 C19 1_555 1_555
H26 C19 1_555 1_555
C20 C19 1_555 1_555
H27 C20 1_555 1_555
C21 C20 1_555 1_555
H28 C21 1_555 1_555
C22 C21 1_555 1_555
H29 C22 1_555 1_555
H30 C22 1_555 1_555
H31 C22 1_555 1_555
C23 N2 1_555 1_555
C24 N3 1_555 1_555
H32 C24 1_555 1_555
C25 C24 1_555 1_555
H33 C25 1_555 1_555
H34 C25 1_555 1_555
C26 C25 1_555 1_555
H35 C26 1_555 1_555
C27 C26 1_555 1_555
H36 C27 1_555 1_555
H37 C27 1_555 1_555
H38 C27 1_555 1_555
C28 C26 1_555 1_555
H39 C28 1_555 1_555
H40 C28 1_555 1_555
H41 C28 1_555 1_555
C29 N3 1_555 1_555
C30 C29 1_555 1_555
H42 C30 1_555 1_555
C31 C30 1_555 1_555
H43 C31 1_555 1_555
H44 C31 1_555 1_555
C32 C31 1_555 1_555
H45 C32 1_555 1_555
C33 C32 1_555 1_555
H46 C33 1_555 1_555
H47 C33 1_555 1_555
H48 C33 1_555 1_555
C34 C32 1_555 1_555
H49 C34 1_555 1_555
H50 C34 1_555 1_555
H51 C34 1_555 1_555
C35 N4 1_555 1_555
C36 N5 1_555 1_555
H52 C36 1_555 1_555
C37 C36 1_555 1_555
H53 C37 1_555 1_555
H54 C37 1_555 1_555
H55 C37 1_555 1_555
C38 N5 1_555 1_555
C39 N6 1_555 1_555
H56 C39 1_555 1_555
C40 C39 1_555 1_555
H57 C40 1_555 1_555
H58 C40 1_555 1_555
C41 C40 1_555 1_555
C42 C41 1_555 1_555
H59 C42 1_555 1_555
C43 N9 1_555 1_555
C44 O10 1_555 1_555
C45 C44 1_555 1_555
H60 C45 1_555 1_555
C46 C41 1_555 1_555
H61 C46 1_555 1_555
C47 N6 1_555 1_555
C48 N7 1_555 1_555
H62 C48 1_555 1_555
C49 C48 1_555 1_555
H63 C49 1_555 1_555
H64 C49 1_555 1_555
C50 C49 1_555 1_555
H65 C50 1_555 1_555
C51 C50 1_555 1_555
H66 C51 1_555 1_555
H67 C51 1_555 1_555
H68 C51 1_555 1_555
C52 C50 1_555 1_555
H69 C52 1_555 1_555
H70 C52 1_555 1_555
H71 C52 1_555 1_555
C53 N7 1_555 1_555
H72 C53 1_555 1_555
H73 C53 1_555 1_555
H74 C53 1_555 1_555
C54 N4 1_555 1_555
H75 C54 1_555 1_555
H76 C54 1_555 1_555
H77 C54 1_555 1_555
C4 C5 1_555 1_555
C6 C11 1_555 1_555
C10 C11 1_555 1_555
C13 C14 1_555 1_555
C17 C18 1_555 1_555
C23 C24 1_555 1_555
C35 C36 1_555 1_555
C38 C39 1_555 1_555
C42 C43 1_555 1_555
C43 C44 1_555 1_555
C45 C46 1_555 1_555
C47 C48 1_555 1_555

#END
