
#######################################################################
#
#                 Cambridge Crystallographic Data Centre
#                                CCDC 
#
#######################################################################
#
# If this CIF has been generated from an entry in the Cambridge 
# Structural Database, then it will include bibliographic, chemical, 
# crystal, experimental, refinement or atomic coordinate data resulting 
# from the CCDC's data processing and validation procedures.
#
#######################################################################

data_VEHGEX
_chemical_name_common            'ilamycin F'
_chemical_formula_moiety         'C54 H75 N9 O12'
_chemical_name_systematic        
'3-(8-(but-2-en-1-yl)-17-(4-hydroxy-3-nitrobenzyl)-5,14-di-isobutyl-1,13,20-trimethyl-11-((1-(2-methylbut-3-en-2-yl)-1H-indol-3-yl)methyl)-3,6,9,12,15,18,21-heptaoxo-1,4,7,10,13,16,19-hepta-azacyclohenicosan-2-yl)-2-methylpropanoic acid'
_chemical_properties_biological  'anti-mycobacterial activity'
_symmetry_cell_setting           orthorhombic
_symmetry_space_group_name_H-M   'P 21 21 21'
_symmetry_Int_Tables_number      19
_space_group_name_Hall           'P 2ac 2ab'
loop_
_symmetry_equiv_pos_site_id
_symmetry_equiv_pos_as_xyz
1 x,y,z
2 1/2-x,-y,1/2+z
3 -x,1/2+y,1/2-z
4 1/2+x,1/2-y,-z
_cell_length_a                   17.10632(12)
_cell_length_b                   18.5208(2)
_cell_length_c                   39.2320(3)
_cell_angle_alpha                90
_cell_angle_beta                 90
_cell_angle_gamma                90
_cell_volume                     12429.6
_exptl_crystal_colour            yellow
_exptl_crystal_description       block
_cell_formula_units_Z            8
loop_
_atom_site_label
_atom_site_type_symbol
_atom_site_fract_x
_atom_site_fract_y
_atom_site_fract_z
O1 O 0.2453(2) 0.4559(2) 0.20074(9)
O2 O 0.42782(19) 0.39594(18) 0.26432(8)
O3 O 0.6628(2) 0.4867(3) 0.21472(10)
O4 O 0.7795(2) 0.3867(3) 0.29492(10)
O5 O 0.6218(2) 0.33078(18) 0.39717(8)
O6 O 0.6298(2) 0.45130(18) 0.39341(8)
H1 H 0.5961 0.4505 0.4082
O7 O 0.6426(2) 0.1198(2) 0.29833(10)
O8 O 0.5396(2) 0.2535(2) 0.26091(10)
O9 O 0.6400(3) 0.0443(3) 0.16845(13)
O10 O 0.5931(3) -0.0612(3) 0.15733(14)
O11 O 0.4505(3) -0.0917(2) 0.17348(11)
H2 H 0.4954 -0.1030 0.1685
O12 O 0.2519(2) 0.1925(2) 0.25424(12)
N1 N 0.0268(3) 0.5089(3) 0.25329(11)
N2 N 0.3678(2) 0.4954(2) 0.24523(9)
H3 H 0.3741 0.5376 0.2366
N3 N 0.5631(2) 0.4216(2) 0.23562(9)
H4 H 0.5496 0.3823 0.2457
N4 N 0.6816(2) 0.3310(3) 0.26624(10)
H5 H 0.6443 0.3000 0.2678
N5 N 0.7016(2) 0.2211(3) 0.31563(11)
N6 N 0.4954(3) 0.1846(3) 0.30397(11)
H6 H 0.4619 0.1531 0.3106
N7 N 0.5884(3) 0.0047(3) 0.16833(11)
N8 N 0.3597(2) 0.2595(2) 0.26438(13)
H7 H 0.3788 0.2995 0.2717
N9 N 0.2315(2) 0.3589(2) 0.23428(10)
C1 C 0.2539(3) 0.4266(3) 0.22926(11)
C2 C 0.2902(3) 0.4742(3) 0.25708(11)
H8 H 0.2942 0.4473 0.2785
C3 C 0.2398(3) 0.5408(3) 0.26192(12)
H9 H 0.2586 0.5669 0.2817
H10 H 0.2465 0.5720 0.2423
C4 C 0.1539(3) 0.5266(3) 0.26649(12)
C5 C 0.0999(3) 0.5271(3) 0.24129(13)
H11 H 0.1108 0.5382 0.2187
C6 C 0.1126(3) 0.5069(3) 0.29707(12)
C7 C 0.1356(3) 0.5001(3) 0.33119(13)
H12 H 0.1874 0.5069 0.3375
C8 C 0.0795(3) 0.4831(4) 0.35514(14)
H13 H 0.0934 0.4802 0.3780
C9 C 0.0029(3) 0.4704(3) 0.34554(13)
H14 H -0.0328 0.4569 0.3622
C10 C -0.0228(3) 0.4770(3) 0.31239(14)
H15 H -0.0747 0.4689 0.3065
C11 C 0.0336(3) 0.4966(3) 0.28795(12)
C12 C -0.0467(4) 0.5061(5) 0.23295(17)
C13 C -0.1042(4) 0.5569(7) 0.2462(2)
H16 H -0.1563 0.5494 0.2405
C14 C -0.0870(7) 0.6152(7) 0.2665(3)
H17 H -0.0355 0.6244 0.2727
H18 H -0.1268 0.6454 0.2740
C15 C -0.0286(5) 0.5282(6) 0.19583(18)
H19 H 0.0024 0.5714 0.1958
H20 H -0.0767 0.5368 0.1839
H21 H -0.0003 0.4901 0.1848
C16 C -0.0779(6) 0.4288(6) 0.2333(2)
H22 H -0.0410 0.3974 0.2223
H23 H -0.1269 0.4269 0.2214
H24 H -0.0853 0.4134 0.2565
C17 C 0.4291(3) 0.4515(3) 0.24738(10)
C18 C 0.5024(3) 0.4731(3) 0.22781(11)
H25 H 0.5191 0.5210 0.2355
C19 C 0.4848(3) 0.4764(3) 0.18870(11)
H26 H 0.4433 0.5112 0.1849
H27 H 0.5310 0.4938 0.1770
C20 C 0.4615(4) 0.4071(4) 0.17348(13)
H28 H 0.4951 0.3690 0.1783
C21 C 0.4044(5) 0.3909(5) 0.15524(18)
H29 H 0.3642 0.4242 0.1526
C22 C 0.3982(8) 0.3170(5) 0.13685(18)
H30 H 0.3839 0.3246 0.1135
H31 H 0.3590 0.2880 0.1478
H32 H 0.4477 0.2927 0.1379
C23 C 0.6383(3) 0.4306(3) 0.22826(12)
C24 C 0.6928(3) 0.3673(4) 0.23373(13)
H33 H 0.7466 0.3854 0.2329
C25 C 0.6817(4) 0.3137(4) 0.20409(14)
H34 H 0.6925 0.3392 0.1830
H35 H 0.6270 0.2999 0.2036
C26 C 0.7309(5) 0.2437(4) 0.20413(19)
H36 H 0.7143 0.2134 0.2233
C27 C 0.7149(5) 0.2035(4) 0.1709(2)
H37 H 0.6611 0.1889 0.1702
H38 H 0.7478 0.1616 0.1697
H39 H 0.7258 0.2347 0.1520
C28 C 0.8172(5) 0.2598(5) 0.2078(2)
H40 H 0.8320 0.2963 0.1917
H41 H 0.8467 0.2166 0.2035
H42 H 0.8277 0.2765 0.2305
C29 C 0.7257(3) 0.3427(3) 0.29375(13)
C30 C 0.7035(3) 0.2976(3) 0.32485(12)
H43 H 0.6501 0.3113 0.3313
C31 C 0.7558(3) 0.3117(3) 0.35595(14)
H44 H 0.8102 0.3107 0.3489
H45 H 0.7482 0.2734 0.3725
C32 C 0.7378(3) 0.3851(3) 0.37285(12)
H46 H 0.7412 0.4237 0.3558
C33 C 0.7962(3) 0.3999(4) 0.40202(14)
H47 H 0.7953 0.3603 0.4178
H48 H 0.7817 0.4436 0.4136
H49 H 0.8479 0.4050 0.3928
C34 C 0.6572(3) 0.3842(3) 0.38844(10)
C35 C 0.6385(3) 0.1795(3) 0.31181(12)
C36 C 0.5603(3) 0.2047(3) 0.32640(14)
H50 H 0.5611 0.2573 0.3291
C37 C 0.5493(4) 0.1695(5) 0.36099(14)
H51 H 0.4999 0.1838 0.3704
H52 H 0.5906 0.1845 0.3760
H53 H 0.5507 0.1180 0.3585
C38 C 0.4881(3) 0.2145(3) 0.27361(14)
C39 C 0.4109(3) 0.2012(3) 0.25506(13)
H54 H 0.3884 0.1556 0.2631
C40 C 0.4225(3) 0.1970(3) 0.21601(14)
H55 H 0.3773 0.2175 0.2047
H56 H 0.4680 0.2252 0.2096
C41 C 0.4333(3) 0.1212(3) 0.20463(12)
C42 C 0.5017(3) 0.0972(4) 0.19250(12)
H57 H 0.5436 0.1292 0.1915
C43 C 0.5136(3) 0.0234(3) 0.18079(11)
C44 C 0.4484(3) -0.0243(3) 0.18214(12)
C45 C 0.3767(3) 0.0022(3) 0.19480(13)
H58 H 0.3335 -0.0283 0.1956
C46 C 0.3697(3) 0.0723(3) 0.20595(12)
H59 H 0.3220 0.0881 0.2146
C47 C 0.2817(3) 0.2511(3) 0.26154(14)
C48 C 0.2342(3) 0.3192(3) 0.26698(12)
H60 H 0.2608 0.3494 0.2839
C49 C 0.1501(3) 0.3048(3) 0.27926(17)
H61 H 0.1238 0.3508 0.2820
H62 H 0.1227 0.2783 0.2616
C50 C 0.1428(5) 0.2626(4) 0.31267(18)
H63 H 0.1653 0.2145 0.3092
C51 C 0.1867(7) 0.2987(4) 0.34141(18)
H64 H 0.2415 0.2880 0.3394
H65 H 0.1676 0.2810 0.3628
H66 H 0.1791 0.3500 0.3402
C52 C 0.0553(6) 0.2538(5) 0.3205(3)
H67 H 0.0333 0.2999 0.3261
H68 H 0.0488 0.2213 0.3394
H69 H 0.0292 0.2345 0.3008
C53 C 0.1971(4) 0.3214(4) 0.20521(15)
H70 H 0.1473 0.3424 0.1999
H71 H 0.1903 0.2713 0.2107
H72 H 0.2311 0.3258 0.1859
C54 C 0.7765(3) 0.1895(4) 0.30368(17)
H73 H 0.7820 0.1977 0.2796
H74 H 0.7767 0.1385 0.3081
H75 H 0.8192 0.2118 0.3156
O13 O 0.48204(16) -0.04428(17) 0.06081(7)
O14 O 0.54813(16) 0.11217(17) 0.00576(8)
O15 O 0.71410(15) 0.27666(17) 0.06465(7)
O16 O 0.69937(16) 0.40143(19) -0.03507(8)
O17 O 0.6902(3) 0.2160(3) -0.12375(10)
O18 O 0.5768(3) 0.2699(2) -0.13273(10)
H76 H 0.5667 0.2322 -0.1428
O19 O 0.37970(18) 0.4274(2) -0.05833(9)
O20 O 0.47118(16) 0.26245(17) -0.01982(9)
O21 O 0.0876(2) 0.3162(2) 0.06233(10)
O22 O 0.0963(2) 0.4328(2) 0.06734(11)
O23 O 0.2176(2) 0.5022(2) 0.04325(11)
H77 H 0.1867 0.5040 0.0592
O24 O 0.30683(18) 0.06981(18) -0.04553(9)
N10 N 0.4549(2) -0.2490(2) -0.00254(11)
N11 N 0.61652(19) 0.0209(2) 0.02915(9)
H78 H 0.6557 0.0079 0.0414
N12 N 0.62973(18) 0.21758(19) 0.03066(8)
H79 H 0.5955 0.2207 0.0147
N13 N 0.60034(18) 0.3473(2) -0.00585(8)
H80 H 0.5554 0.3269 -0.0077
N14 N 0.5094(2) 0.4116(2) -0.06044(9)
N15 N 0.37402(18) 0.2701(2) -0.05828(9)
H81 H 0.3262 0.2601 -0.0632
N16 N 0.1248(2) 0.3729(2) 0.05975(10)
N17 N 0.39208(19) 0.12359(19) -0.00933(10)
H82 H 0.4334 0.1171 0.0028
N18 N 0.42137(17) -0.01972(19) 0.01142(8)
C55 C 0.4858(2) -0.0311(2) 0.02987(10)
C56 C 0.5676(2) -0.0336(2) 0.01333(11)
H83 H 0.5636 -0.0248 -0.0112
C57 C 0.6019(3) -0.1085(3) 0.01988(14)
H84 H 0.6538 -0.1111 0.0100
H85 H 0.6069 -0.1159 0.0443
C58 C 0.4888(3) -0.2003(3) 0.01969(12)
H86 H 0.4711 -0.1910 0.0417
C59 C 0.5519(3) -0.1678(3) 0.00499(14)
C60 C 0.5588(3) -0.1980(3) -0.02860(14)
C61 C 0.6108(4) -0.1849(4) -0.05558(19)
H87 H 0.6518 -0.1522 -0.0532
C62 C 0.5994(5) -0.2218(4) -0.08557(19)
H88 H 0.6326 -0.2135 -0.1039
C63 C 0.5388(5) -0.2715(4) -0.08871(17)
H89 H 0.5334 -0.2967 -0.1091
C64 C 0.4879(4) -0.2843(3) -0.06345(15)
H90 H 0.4472 -0.3170 -0.0662
C65 C 0.4980(3) -0.2466(3) -0.03273(13)
C66 C 0.3823(3) -0.2908(3) 0.00356(15)
C67 C 0.3203(4) -0.2620(4) -0.0226(2)
H91 H 0.3115 -0.2124 -0.0230
C68 C 0.2789(5) -0.3023(6) -0.0444(3)
H92 H 0.2858 -0.3521 -0.0448
H93 H 0.2432 -0.2806 -0.0590
C69 C 0.3975(5) -0.3717(3) -0.00069(18)
H94 H 0.4281 -0.3797 -0.0208
H95 H 0.3485 -0.3967 -0.0027
H96 H 0.4253 -0.3895 0.0188
C70 C 0.3523(6) -0.2769(5) 0.0391(2)
H97 H 0.3931 -0.2865 0.0553
H98 H 0.3087 -0.3081 0.0436
H99 H 0.3361 -0.2275 0.0410
C71 C 0.6014(2) 0.0916(2) 0.02485(10)
C72 C 0.6485(2) 0.1463(2) 0.04490(10)
H100 H 0.7044 0.1365 0.0420
C73 C 0.6268(3) 0.1405(3) 0.08335(11)
H101 H 0.6374 0.0918 0.0912
H102 H 0.6597 0.1731 0.0963
C74 C 0.5426(3) 0.1582(3) 0.09021(11)
H103 H 0.5263 0.2055 0.0868
C75 C 0.4901(3) 0.1110(3) 0.10070(11)
H104 H 0.5069 0.0637 0.1039
C76 C 0.5196(3) 0.4875(3) -0.05070(12)
H105 H 0.4948 0.4960 -0.0291
H106 H 0.4963 0.5180 -0.0677
H107 H 0.5744 0.4983 -0.0489
C77 C 0.4060(3) 0.1268(3) 0.10796(11)
H108 H 0.3736 0.0980 0.0933
H109 H 0.3958 0.1770 0.1039
H110 H 0.3947 0.1155 0.1313
C78 C 0.6640(2) 0.2767(2) 0.04171(10)
C79 C 0.6369(2) 0.3506(2) 0.02783(10)
H111 H 0.6831 0.3817 0.0260
C80 C 0.5819(2) 0.3844(3) 0.05438(10)
H112 H 0.5362 0.3537 0.0565
H113 H 0.6084 0.3845 0.0762
C81 C 0.5543(3) 0.4612(3) 0.04689(13)
H114 H 0.5217 0.4592 0.0264
C82 C 0.6216(4) 0.5111(3) 0.03944(18)
H115 H 0.6543 0.5150 0.0593
H116 H 0.6018 0.5580 0.0335
H117 H 0.6516 0.4923 0.0208
C83 C 0.5023(4) 0.4880(4) 0.07638(15)
H118 H 0.4586 0.4559 0.0791
H119 H 0.4837 0.5357 0.0713
H120 H 0.5323 0.4890 0.0971
C84 C 0.6335(2) 0.3747(2) -0.03414(10)
C85 C 0.5814(2) 0.3698(2) -0.06616(10)
H121 H 0.5666 0.3191 -0.0693
C86 C 0.6219(3) 0.3956(3) -0.09909(11)
H122 H 0.5819 0.4044 -0.1161
H123 H 0.6473 0.4413 -0.0944
C87 C 0.6815(3) 0.3449(3) -0.11402(11)
H124 H 0.7230 0.3380 -0.0971
C88 C 0.7184(3) 0.3781(4) -0.14631(13)
H125 H 0.6779 0.3910 -0.1621
H126 H 0.7527 0.3435 -0.1567
H127 H 0.7476 0.4204 -0.1402
C89 C 0.6491(3) 0.2699(4) -0.12379(12)
C90 C 0.4360(2) 0.3881(3) -0.06562(10)
C91 C 0.4203(2) 0.3138(3) -0.08180(11)
H128 H 0.4701 0.2896 -0.0865
C92 C 0.3758(3) 0.3243(3) -0.11470(12)
H129 H 0.3606 0.2782 -0.1236
H130 H 0.4085 0.3487 -0.1309
H131 H 0.3300 0.3529 -0.1104
C93 C 0.4045(2) 0.2455(2) -0.02944(11)
C94 C 0.3550(2) 0.1944(2) -0.00815(11)
H132 H 0.3023 0.1914 -0.0178
C95 C 0.3503(2) 0.2207(3) 0.02866(11)
H133 H 0.3199 0.1865 0.0418
H134 H 0.4026 0.2219 0.0382
C96 C 0.3138(3) 0.2948(3) 0.03206(11)
C97 C 0.2375(3) 0.3024(3) 0.04297(11)
H135 H 0.2080 0.2614 0.0477
C98 C 0.2037(3) 0.3711(3) 0.04710(11)
C99 C 0.2458(3) 0.4329(3) 0.04000(14)
C100 C 0.3211(3) 0.4265(3) 0.02777(18)
H136 H 0.3494 0.4675 0.0220
C101 C 0.3546(3) 0.3587(3) 0.02409(16)
H137 H 0.4056 0.3553 0.0161
C102 C 0.3664(2) 0.0680(2) -0.02797(10)
C103 C 0.4170(2) -0.0009(2) -0.02497(9)
H138 H 0.4699 0.0103 -0.0331
C104 C 0.3853(2) -0.0639(3) -0.04572(11)
H139 H 0.3306 -0.0704 -0.0398
H140 H 0.4127 -0.1073 -0.0387
C105 C 0.3912(3) -0.0579(3) -0.08457(12)
H141 H 0.3658 -0.0131 -0.0919
C106 C 0.3492(5) -0.1211(5) -0.10054(18)
H142 H 0.3590 -0.1639 -0.0874
H143 H 0.3679 -0.1281 -0.1234
H144 H 0.2940 -0.1116 -0.1010
C107 C 0.4742(4) -0.0578(4) -0.09689(14)
H145 H 0.5007 -0.0161 -0.0881
H146 H 0.4748 -0.0566 -0.1214
H147 H 0.5001 -0.1007 -0.0891
C108 C 0.3456(2) -0.0264(3) 0.02890(11)
H148 H 0.3396 -0.0747 0.0373
H149 H 0.3042 -0.0157 0.0132
H150 H 0.3436 0.0070 0.0476
loop_
_geom_bond_atom_site_label_1
_geom_bond_atom_site_label_2
_geom_bond_site_symmetry_1
_geom_bond_site_symmetry_2
O1 C1 1_555 1_555
O2 C17 1_555 1_555
O3 C23 1_555 1_555
O4 C29 1_555 1_555
O5 C34 1_555 1_555
O6 H1 1_555 1_555
O7 C35 1_555 1_555
O8 C38 1_555 1_555
O9 N7 1_555 1_555
O10 N7 1_555 1_555
O11 H2 1_555 1_555
O12 C47 1_555 1_555
N1 C5 1_555 1_555
N2 H3 1_555 1_555
N3 H4 1_555 1_555
N4 H5 1_555 1_555
N5 C30 1_555 1_555
N6 H6 1_555 1_555
N7 C43 1_555 1_555
N8 H7 1_555 1_555
N9 C1 1_555 1_555
C1 C2 1_555 1_555
C2 N2 1_555 1_555
H8 C2 1_555 1_555
C3 C2 1_555 1_555
H9 C3 1_555 1_555
H10 C3 1_555 1_555
C4 C3 1_555 1_555
C5 C4 1_555 1_555
H11 C5 1_555 1_555
C6 C4 1_555 1_555
C7 C6 1_555 1_555
H12 C7 1_555 1_555
C8 C7 1_555 1_555
H13 C8 1_555 1_555
C9 C8 1_555 1_555
H14 C9 1_555 1_555
C10 C9 1_555 1_555
H15 C10 1_555 1_555
C11 N1 1_555 1_555
C12 N1 1_555 1_555
C13 C12 1_555 1_555
H16 C13 1_555 1_555
C14 C13 1_555 1_555
H17 C14 1_555 1_555
H18 C14 1_555 1_555
C15 C12 1_555 1_555
H19 C15 1_555 1_555
H20 C15 1_555 1_555
H21 C15 1_555 1_555
C16 C12 1_555 1_555
H22 C16 1_555 1_555
H23 C16 1_555 1_555
H24 C16 1_555 1_555
C17 N2 1_555 1_555
C18 N3 1_555 1_555
H25 C18 1_555 1_555
C19 C18 1_555 1_555
H26 C19 1_555 1_555
H27 C19 1_555 1_555
C20 C19 1_555 1_555
H28 C20 1_555 1_555
C21 C20 1_555 1_555
H29 C21 1_555 1_555
C22 C21 1_555 1_555
H30 C22 1_555 1_555
H31 C22 1_555 1_555
H32 C22 1_555 1_555
C23 N3 1_555 1_555
C24 N4 1_555 1_555
H33 C24 1_555 1_555
C25 C24 1_555 1_555
H34 C25 1_555 1_555
H35 C25 1_555 1_555
C26 C25 1_555 1_555
H36 C26 1_555 1_555
C27 C26 1_555 1_555
H37 C27 1_555 1_555
H38 C27 1_555 1_555
H39 C27 1_555 1_555
C28 C26 1_555 1_555
H40 C28 1_555 1_555
H41 C28 1_555 1_555
H42 C28 1_555 1_555
C29 N4 1_555 1_555
C30 C29 1_555 1_555
H43 C30 1_555 1_555
C31 C30 1_555 1_555
H44 C31 1_555 1_555
H45 C31 1_555 1_555
C32 C31 1_555 1_555
H46 C32 1_555 1_555
C33 C32 1_555 1_555
H47 C33 1_555 1_555
H48 C33 1_555 1_555
H49 C33 1_555 1_555
C34 O6 1_555 1_555
C35 N5 1_555 1_555
C36 N6 1_555 1_555
H50 C36 1_555 1_555
C37 C36 1_555 1_555
H51 C37 1_555 1_555
H52 C37 1_555 1_555
H53 C37 1_555 1_555
C38 N6 1_555 1_555
C39 N8 1_555 1_555
H54 C39 1_555 1_555
C40 C39 1_555 1_555
H55 C40 1_555 1_555
H56 C40 1_555 1_555
C41 C40 1_555 1_555
C42 C41 1_555 1_555
H57 C42 1_555 1_555
C43 C42 1_555 1_555
C44 O11 1_555 1_555
C45 C44 1_555 1_555
H58 C45 1_555 1_555
C46 C41 1_555 1_555
H59 C46 1_555 1_555
C47 N8 1_555 1_555
C48 N9 1_555 1_555
H60 C48 1_555 1_555
C49 C48 1_555 1_555
H61 C49 1_555 1_555
H62 C49 1_555 1_555
C50 C49 1_555 1_555
H63 C50 1_555 1_555
C51 C50 1_555 1_555
H64 C51 1_555 1_555
H65 C51 1_555 1_555
H66 C51 1_555 1_555
C52 C50 1_555 1_555
H67 C52 1_555 1_555
H68 C52 1_555 1_555
H69 C52 1_555 1_555
C53 N9 1_555 1_555
H70 C53 1_555 1_555
H71 C53 1_555 1_555
H72 C53 1_555 1_555
C54 N5 1_555 1_555
H73 C54 1_555 1_555
H74 C54 1_555 1_555
H75 C54 1_555 1_555
O13 C55 1_555 1_555
O14 C71 1_555 1_555
O15 C78 1_555 1_555
O16 C84 1_555 1_555
O17 C89 1_555 1_555
O18 H76 1_555 1_555
O19 C90 1_555 1_555
O20 C93 1_555 1_555
O21 N16 1_555 1_555
O22 N16 1_555 1_555
O23 H77 1_555 1_555
O24 C102 1_555 1_555
N10 C58 1_555 1_555
N11 H78 1_555 1_555
N12 H79 1_555 1_555
N13 H80 1_555 1_555
N14 C76 1_555 1_555
N15 H81 1_555 1_555
N16 C98 1_555 1_555
N17 H82 1_555 1_555
N18 C55 1_555 1_555
C55 C56 1_555 1_555
C56 N11 1_555 1_555
H83 C56 1_555 1_555
C57 C56 1_555 1_555
H84 C57 1_555 1_555
H85 C57 1_555 1_555
C58 H86 1_555 1_555
C59 C57 1_555 1_555
C60 C59 1_555 1_555
C61 C60 1_555 1_555
H87 C61 1_555 1_555
C62 C61 1_555 1_555
H88 C62 1_555 1_555
C63 C62 1_555 1_555
H89 C63 1_555 1_555
C64 C63 1_555 1_555
H90 C64 1_555 1_555
C65 N10 1_555 1_555
C66 N10 1_555 1_555
C67 C66 1_555 1_555
H91 C67 1_555 1_555
C68 C67 1_555 1_555
H92 C68 1_555 1_555
H93 C68 1_555 1_555
C69 C66 1_555 1_555
H94 C69 1_555 1_555
H95 C69 1_555 1_555
H96 C69 1_555 1_555
C70 C66 1_555 1_555
H97 C70 1_555 1_555
H98 C70 1_555 1_555
H99 C70 1_555 1_555
C71 N11 1_555 1_555
C72 N12 1_555 1_555
H100 C72 1_555 1_555
C73 C72 1_555 1_555
H101 C73 1_555 1_555
H102 C73 1_555 1_555
C74 C73 1_555 1_555
H103 C74 1_555 1_555
C75 C74 1_555 1_555
H104 C75 1_555 1_555
C76 H105 1_555 1_555
H106 C76 1_555 1_555
H107 C76 1_555 1_555
C77 C75 1_555 1_555
H108 C77 1_555 1_555
H109 C77 1_555 1_555
H110 C77 1_555 1_555
C78 N12 1_555 1_555
C79 N13 1_555 1_555
H111 C79 1_555 1_555
C80 C79 1_555 1_555
H112 C80 1_555 1_555
H113 C80 1_555 1_555
C81 C80 1_555 1_555
H114 C81 1_555 1_555
C82 C81 1_555 1_555
H115 C82 1_555 1_555
H116 C82 1_555 1_555
H117 C82 1_555 1_555
C83 C81 1_555 1_555
H118 C83 1_555 1_555
H119 C83 1_555 1_555
H120 C83 1_555 1_555
C84 N13 1_555 1_555
C85 N14 1_555 1_555
H121 C85 1_555 1_555
C86 C85 1_555 1_555
H122 C86 1_555 1_555
H123 C86 1_555 1_555
C87 C86 1_555 1_555
H124 C87 1_555 1_555
C88 C87 1_555 1_555
H125 C88 1_555 1_555
H126 C88 1_555 1_555
H127 C88 1_555 1_555
C89 O18 1_555 1_555
C90 N14 1_555 1_555
C91 N15 1_555 1_555
H128 C91 1_555 1_555
C92 C91 1_555 1_555
H129 C92 1_555 1_555
H130 C92 1_555 1_555
H131 C92 1_555 1_555
C93 N15 1_555 1_555
C94 N17 1_555 1_555
H132 C94 1_555 1_555
C95 C94 1_555 1_555
H133 C95 1_555 1_555
H134 C95 1_555 1_555
C96 C95 1_555 1_555
C97 C96 1_555 1_555
H135 C97 1_555 1_555
C98 C97 1_555 1_555
C99 O23 1_555 1_555
C100 C99 1_555 1_555
H136 C100 1_555 1_555
C101 C96 1_555 1_555
H137 C101 1_555 1_555
C102 N17 1_555 1_555
C103 N18 1_555 1_555
H138 C103 1_555 1_555
C104 C103 1_555 1_555
H139 C104 1_555 1_555
H140 C104 1_555 1_555
C105 C104 1_555 1_555
H141 C105 1_555 1_555
C106 C105 1_555 1_555
H142 C106 1_555 1_555
H143 C106 1_555 1_555
H144 C106 1_555 1_555
C107 C105 1_555 1_555
H145 C107 1_555 1_555
H146 C107 1_555 1_555
H147 C107 1_555 1_555
C108 N18 1_555 1_555
H148 C108 1_555 1_555
H149 C108 1_555 1_555
H150 C108 1_555 1_555
C6 C11 1_555 1_555
C10 C11 1_555 1_555
C17 C18 1_555 1_555
C23 C24 1_555 1_555
C32 C34 1_555 1_555
C35 C36 1_555 1_555
C38 C39 1_555 1_555
C43 C44 1_555 1_555
C45 C46 1_555 1_555
C47 C48 1_555 1_555
C58 C59 1_555 1_555
C60 C65 1_555 1_555
C64 C65 1_555 1_555
C71 C72 1_555 1_555
C78 C79 1_555 1_555
C84 C85 1_555 1_555
C87 C89 1_555 1_555
C90 C91 1_555 1_555
C93 C94 1_555 1_555
C98 C99 1_555 1_555
C100 C101 1_555 1_555
C102 C103 1_555 1_555

#END
