
#######################################################################
#
#                 Cambridge Crystallographic Data Centre
#                                CCDC 
#
#######################################################################
#
# If this CIF has been generated from an entry in the Cambridge 
# Structural Database, then it will include bibliographic, chemical, 
# crystal, experimental, refinement or atomic coordinate data resulting 
# from the CCDC's data processing and validation procedures.
#
#######################################################################

data_VEHJAT
_chemical_formula_moiety         'C14 H20 O7'
_chemical_name_systematic        
'Methyl 5,5,11,11-tetramethyl-8-oxo-4,6,10,12-tetraoxatricyclo(7.3.0.0^3,7^)dodecylcarboxylate'
_symmetry_cell_setting           orthorhombic
_symmetry_space_group_name_H-M   'P 21 21 21'
_symmetry_Int_Tables_number      19
_space_group_name_Hall           'P 2ac 2ab'
loop_
_symmetry_equiv_pos_site_id
_symmetry_equiv_pos_as_xyz
1 x,y,z
2 1/2-x,-y,1/2+z
3 1/2+x,1/2-y,-z
4 -x,1/2+y,1/2-z
_cell_length_a                   8.2942(4)
_cell_length_b                   8.3016(3)
_cell_length_c                   21.4508(9)
_cell_angle_alpha                90
_cell_angle_beta                 90
_cell_angle_gamma                90
_cell_volume                     1477
_cell_formula_units_Z            4
loop_
_atom_site_label
_atom_site_type_symbol
_atom_site_fract_x
_atom_site_fract_y
_atom_site_fract_z
O1 O 0.7621(2) 0.9475(2) 0.1206(1)
O2 O 0.9080(2) 0.7450(2) 0.0787(1)
O3 O 1.2448(3) 0.7385(2) 0.1634(1)
O4 O 1.3038(2) 1.0507(2) 0.1185(1)
O5 O 1.1711(2) 1.1790(2) 0.1987(1)
O6 O 0.9685(2) 1.2331(2) 0.0670(1)
O7 O 0.8674(3) 1.3293(3) 0.1571(1)
C1 C 0.8446(4) 0.8779(3) 0.1732(1)
C2 C 0.9600(4) 0.7535(4) 0.1423(1)
C3 C 1.1322(4) 0.8151(3) 0.1436(1)
C4 C 1.1449(3) 0.9876(3) 0.1192(1)
C5 C 1.0470(3) 1.1015(3) 0.1626(1)
C6 C 0.9357(4) 1.0100(3) 0.2074(1)
C7 C 0.7405(5) 0.9022(4) 0.0110(1)
C8 C 0.6171(4) 0.7056(4) 0.0886(2)
C9 C 0.7533(4) 0.8240(4) 0.0744(1)
C10 C 1.3257(4) 1.1631(4) 0.1694(1)
C11 C 1.3754(6) 1.3243(4) 0.1422(2)
C12 C 1.4423(4) 1.0944(6) 0.2162(2)
C13 C 0.9505(3) 1.2345(4) 0.1292(1)
C14 C 0.8648(5) 1.3456(4) 0.0337(1)
H1 H 0.7667(4) 0.8229(3) 0.2017(1)
H2 H 0.9515(4) 0.6460(4) 0.1630(1)
H3 H 1.0990(3) 0.9925(3) 0.0762(1)
H4 H 1.0006(4) 0.9618(3) 0.2414(1)
H5 H 0.8578(4) 1.0860(3) 0.2264(1)
H6 H 0.7343(5) 0.8186(4) -0.0211(1)
H7 H 0.8356(5) 0.9696(4) 0.0037(1)
H8 H 0.6432(5) 0.9391(4) 0.0094(1)
H9 H 0.6139(4) 0.6224(4) 0.0562(2)
H10 H 0.5141(4) 0.7634(4) 0.0893(2)
H11 H 0.6360(4) 0.6552(4) 0.1292(2)
H12 H 1.4810(6) 1.3138(4) 0.1222(2)
H13 H 1.3818(6) 1.4046(4) 0.1756(2)
H14 H 1.2955(6) 1.3587(4) 0.1113(2)
H15 H 1.5487(4) 1.0827(6) 0.1968(2)
H16 H 1.4040(4) 0.9886(6) 0.2301(2)
H17 H 1.4503(4) 1.1669(6) 0.2521(2)
H18 H 0.8852(5) 1.3370(4) -0.0112(1)
H19 H 0.8878(5) 1.4557(4) 0.0476(1)
H20 H 0.7517(5) 1.3198(4) 0.0422(1)
loop_
_geom_bond_atom_site_label_1
_geom_bond_atom_site_label_2
_geom_bond_site_symmetry_1
_geom_bond_site_symmetry_2
O1 C1 1_555 1_555
O2 C2 1_555 1_555
O3 C3 1_555 1_555
O4 C4 1_555 1_555
O5 C5 1_555 1_555
O6 C13 1_555 1_555
O7 C13 1_555 1_555
C1 C2 1_555 1_555
C2 C3 1_555 1_555
C3 C4 1_555 1_555
C4 C5 1_555 1_555
C5 C6 1_555 1_555
C6 C1 1_555 1_555
C7 C9 1_555 1_555
C8 C9 1_555 1_555
C9 O1 1_555 1_555
C10 O4 1_555 1_555
C11 C10 1_555 1_555
C12 C10 1_555 1_555
C13 C5 1_555 1_555
C14 O6 1_555 1_555
H1 C1 1_555 1_555
H2 C2 1_555 1_555
H3 C4 1_555 1_555
H4 C6 1_555 1_555
H5 C6 1_555 1_555
H6 C7 1_555 1_555
H7 C7 1_555 1_555
H8 C7 1_555 1_555
H9 C8 1_555 1_555
H10 C8 1_555 1_555
H11 C8 1_555 1_555
H12 C11 1_555 1_555
H13 C11 1_555 1_555
H14 C11 1_555 1_555
H15 C12 1_555 1_555
H16 C12 1_555 1_555
H17 C12 1_555 1_555
H18 C14 1_555 1_555
H19 C14 1_555 1_555
H20 C14 1_555 1_555
O2 C9 1_555 1_555
O5 C10 1_555 1_555

#END
