
#######################################################################
#
#                 Cambridge Crystallographic Data Centre
#                                CCDC 
#
#######################################################################
#
# If this CIF has been generated from an entry in the Cambridge 
# Structural Database, then it will include bibliographic, chemical, 
# crystal, experimental, refinement or atomic coordinate data resulting 
# from the CCDC's data processing and validation procedures.
#
#######################################################################

data_VEHLEC
_chemical_compound_source        'roots of Pieris formosa (Wall) D. Don'
_chemical_name_common            
'Pieristoxinlactone K methanol solvate monohydrate'
_chemical_formula_moiety         'C31 H42 O14,C1 H4 O1,H2 O1'
_chemical_name_systematic        
'8,9,11,12-tetrakis(acetyloxy)-4-hydroxy-4,8-dimethyl-11a-(2-methyloxiran-2-yl)-2-oxododecahydro-4H-7,9a-methanoheptaleno[3,2-b]furan-10-yl propanoate methanol solvate monohydrate'
_chemical_properties_biological  'significant analgesic activity'
_symmetry_cell_setting           monoclinic
_symmetry_space_group_name_H-M   'P 21'
_symmetry_Int_Tables_number      4
_space_group_name_Hall           'P 2yb'
loop_
_symmetry_equiv_pos_site_id
_symmetry_equiv_pos_as_xyz
1 x,y,z
2 -x,1/2+y,-z
_cell_length_a                   12.8374(3)
_cell_length_b                   10.8913(3)
_cell_length_c                   24.3599(6)
_cell_angle_alpha                90
_cell_angle_beta                 99.441(2)
_cell_angle_gamma                90
_cell_volume                     3359.77
_cell_formula_units_Z            4
loop_
_atom_site_label
_atom_site_type_symbol
_atom_site_fract_x
_atom_site_fract_y
_atom_site_fract_z
O1 O -0.07548(16) -0.9928(2) -0.20044(8)
O2 O 0.31181(16) -0.9290(2) -0.15655(9)
O3 O 0.17501(15) -0.9409(2) -0.09071(8)
O4 O -0.01637(16) -0.9761(2) -0.08409(8)
O5 O -0.25895(16) -1.1067(2) -0.18615(9)
O6 O 0.27577(19) -1.1270(3) -0.04327(9)
O7 O 0.44442(18) -1.0460(3) -0.08824(10)
O8 O 0.39263(19) -0.9048(2) -0.23121(10)
O9 O 0.06423(18) -1.3373(2) -0.13339(11)
H1 H 0.0298 -1.4009 -0.1346
O10 O 0.1083(2) -0.7746(2) -0.13823(10)
O11 O 0.0497(2) -1.0677(3) -0.00303(10)
O12 O -0.11797(18) -0.9532(3) -0.29099(10)
C1 C 0.4044(2) -1.1296(3) -0.13410(13)
C2 C 0.1589(2) -1.2112(3) -0.19309(12)
H2 H 0.1392 -1.1594 -0.2260
C3 C -0.0476(2) -1.2121(3) -0.20060(13)
H3 H -0.1045 -1.2697 -0.1965
C4 C 0.2061(2) -1.1199(3) -0.14473(11)
C5 C 0.0247(2) -1.0721(3) -0.11534(12)
H4 H 0.0412 -1.1454 -0.0922
C6 C 0.1261(2) -1.0210(3) -0.13473(12)
H5 H 0.1059 -0.9730 -0.1689
C7 C -0.0927(2) -1.0272(4) -0.25481(12)
C8 C 0.3573(2) -0.8616(3) -0.19225(13)
C9 C 0.3055(2) -1.0600(3) -0.16526(13)
H6 H 0.3003 -1.0759 -0.2052
C10 C 0.0049(3) -0.9825(4) -0.02800(13)
C11 C 0.2506(2) -1.2947(3) -0.20681(13)
H7 H 0.2199 -1.3639 -0.2288
H8 H 0.2918 -1.2481 -0.2296
C12 C 0.1610(2) -0.8204(3) -0.09809(13)
O13 O 0.5656(2) -1.1778(3) -0.04382(13)
C13 C 0.3254(3) -1.3443(3) -0.15595(14)
H9 H 0.3887 -1.3762 -0.1678
H10 H 0.2913 -1.4115 -0.1398
C14 C -0.0644(2) -1.0989(3) -0.16380(12)
C15 C 0.2546(2) -1.1995(3) -0.09405(12)
H11 H 0.2081 -1.2688 -0.0893
C16 C 0.4905(3) -1.1512(4) -0.16932(15)
H12 H 0.5443 -1.2029 -0.1494
H13 H 0.5209 -1.0739 -0.1772
H14 H 0.4605 -1.1902 -0.2036
C17 C -0.1698(2) -1.1131(3) -0.14171(12)
C18 C 0.0566(2) -1.2877(3) -0.18788(14)
C19 C 0.3566(2) -1.2449(3) -0.11151(13)
H15 H 0.4044 -1.2785 -0.0795
C20 C 0.2232(3) -0.7510(4) -0.04954(15)
H16 H 0.2095 -0.7880 -0.0152
H17 H 0.2979 -0.7605 -0.0508
C21 C -0.2420(2) -1.0094(4) -0.14394(13)
H18 H -0.2176 -0.9302 -0.1549
H19 H -0.2893 -1.0063 -0.1167
C22 C -0.0742(3) -1.1615(4) -0.25999(14)
H20 H -0.0162 -1.1759 -0.2802
H21 H -0.1370 -1.2011 -0.2798
C23 C 0.5186(3) -1.0828(5) -0.04571(18)
O14 O 0.2755(3) -1.3032(4) 0.00680(13)
C24 C -0.1745(3) -1.2121(4) -0.09898(15)
H22 H -0.1598 -1.2902 -0.1143
H23 H -0.2437 -1.2136 -0.0889
H24 H -0.1231 -1.1955 -0.0666
C25 C 0.0407(3) -1.3944(4) -0.2299(2)
H25 H -0.0289 -1.4278 -0.2314
H26 H 0.0922 -1.4571 -0.2183
H27 H 0.0490 -1.3647 -0.2660
C26 C 0.2818(3) -1.1941(5) 0.00538(15)
C27 C -0.0360(3) -0.8707(5) -0.00333(18)
H28 H -0.1117 -0.8727 -0.0095
H29 H -0.0124 -0.7988 -0.0205
H30 H -0.0100 -0.8686 0.0359
C28 C 0.3581(3) -0.7291(4) -0.17809(18)
H31 H 0.4079 -0.7147 -0.1448
H32 H 0.2890 -0.7046 -0.1723
H33 H 0.3781 -0.6822 -0.2081
C29 C 0.1988(4) -0.6196(5) -0.0484(2)
H34 H 0.2419 -0.5821 -0.0169
H35 H 0.1257 -0.6090 -0.0456
H36 H 0.2130 -0.5817 -0.0820
C30 C 0.5342(4) -0.9852(6) -0.0018(2)
H37 H 0.4692 -0.9414 -0.0020
H38 H 0.5879 -0.9291 -0.0091
H39 H 0.5554 -1.0224 0.0340
C31 C 0.3024(4) -1.1093(8) 0.05449(17)
H40 H 0.2971 -1.0257 0.0418
H41 H 0.3720 -1.1240 0.0747
H42 H 0.2512 -1.1240 0.0784
O15 O 0.48246(17) -1.5812(2) -0.39125(9)
O16 O 0.09747(17) -1.9074(2) -0.42161(10)
O17 O 0.56130(18) -1.9460(2) -0.42286(9)
H43 H 0.5580 -2.0098 -0.4409
O18 O 0.26213(17) -1.8093(2) -0.46907(10)
O19 O 0.19781(18) -1.8252(2) -0.33210(9)
O20 O 0.45094(19) -1.6060(2) -0.48448(9)
O21 O 0.5728(2) -1.6874(2) -0.28797(9)
O22 O 0.13622(18) -1.9516(3) -0.27208(10)
O23 O 0.30519(18) -1.6720(2) -0.38443(10)
O24 O 0.0181(2) -2.0260(3) -0.49278(13)
C32 C 0.4597(2) -1.5406(3) -0.44394(13)
O25 O 0.2988(2) -1.8754(3) -0.55118(11)
C33 C 0.3524(2) -1.8861(3) -0.37794(12)
C34 C 0.4891(2) -1.7132(3) -0.38272(13)
H44 H 0.4939 -1.7545 -0.4180
C35 C 0.5554(2) -1.9741(3) -0.36551(13)
C36 C 0.3904(3) -2.1168(3) -0.36675(14)
H45 H 0.4474 -2.1762 -0.3618
H46 H 0.3450 -2.1355 -0.3397
O26 O 0.7740(2) -1.6627(3) -0.31356(13)
C37 C 0.4386(2) -1.9861(3) -0.35389(13)
H47 H 0.4450 -1.9781 -0.3134
O27 O 0.6090(2) -1.7357(3) -0.19813(11)
C38 C 0.6067(3) -1.7663(4) -0.24568(14)
C39 C 0.2510(2) -1.9258(3) -0.35286(13)
H48 H 0.2735 -1.9826 -0.3220
O28 O 0.3091(3) -1.5702(3) -0.30444(16)
C40 C 0.6176(3) -2.0936(4) -0.34975(16)
H49 H 0.6914 -2.0794 -0.3499
H50 H 0.5926 -2.1566 -0.3762
H51 H 0.6076 -2.1193 -0.3133
C41 C 0.3884(3) -1.7556(3) -0.36092(13)
H52 H 0.3998 -1.7490 -0.3203
C42 C 0.1403(2) -1.8517(4) -0.29191(13)
C43 C 0.4484(3) -1.4045(3) -0.44444(16)
H53 H 0.5154 -1.3674 -0.4467
H54 H 0.4249 -1.3782 -0.4109
H55 H 0.3978 -1.3802 -0.4760
C44 C 0.5900(3) -1.7347(3) -0.34147(14)
C45 C 0.6214(3) -1.8738(3) -0.33158(13)
H56 H 0.6926 -1.8813 -0.3408
C46 C 0.0222(3) -1.9337(4) -0.46534(15)
C47 C 0.3261(3) -2.1329(3) -0.42546(15)
H57 H 0.3743 -2.1418 -0.4520
H58 H 0.2848 -2.2077 -0.4264
C48 C 0.3207(2) -1.9107(3) -0.44135(13)
H59 H 0.3835 -1.9275 -0.4582
C49 C 0.1781(3) -1.9977(3) -0.39984(14)
C50 C 0.2737(4) -1.5855(4) -0.3530(2)
C51 C 0.2578(3) -1.8034(4) -0.52428(15)
C52 C 0.1968(3) -1.6919(4) -0.54778(16)
H60 H 0.2435 -1.6226 -0.5458
H61 H 0.1416 -1.6751 -0.5266
H62 H 0.1665 -1.7069 -0.5859
C53 C 0.6846(3) -1.6643(4) -0.35794(15)
C54 C 0.0826(3) -1.7397(4) -0.27635(16)
H63 H 0.0120 -1.7394 -0.2968
H64 H 0.1189 -1.6671 -0.2851
H65 H 0.0801 -1.7413 -0.2372
C55 C 0.2520(3) -2.0252(3) -0.44302(13)
H66 H 0.2113 -2.0383 -0.4803
C56 C 0.6345(3) -1.8868(4) -0.26830(14)
H67 H 0.5883 -1.9507 -0.2584
H68 H 0.7068 -1.9085 -0.2532
C57 C 0.1241(3) -2.1103(4) -0.37992(16)
H69 H 0.0936 -2.1586 -0.4114
H70 H 0.0696 -2.0844 -0.3598
H71 H 0.1752 -2.1586 -0.3560
C58 C -0.0567(3) -1.8307(5) -0.47451(19)
H72 H -0.0218 -1.7563 -0.4824
H73 H -0.0880 -1.8196 -0.4416
H74 H -0.1108 -1.8503 -0.5054
C59 C 0.7101(3) -1.6921(4) -0.41452(16)
H75 H 0.7163 -1.7793 -0.4188
H76 H 0.7757 -1.6535 -0.4186
H77 H 0.6548 -1.6612 -0.4424
C60 C 0.7180(4) -1.5485(5) -0.33025(19)
H78 H 0.6739 -1.5139 -0.3054
H79 H 0.7527 -1.4887 -0.3506
C61 C 0.1869(5) -1.5108(6) -0.3857(3)
H80 H 0.2217 -1.4565 -0.4086
H81 H 0.1464 -1.5683 -0.4112
C62 C 0.1143(10) -1.4403(13) -0.3664(4)
H82 H 0.1485 -1.3911 -0.3360
H83 H 0.0624 -1.4919 -0.3538
H84 H 0.0806 -1.3877 -0.3957
O29 O -0.0787(3) -1.5177(4) -0.11753(16)
C63 C -0.0261(7) -1.5767(8) -0.1485(4)
O30 O 0.4456(4) -1.3583(4) -0.28930(17)
O31 O 0.8763(4) -1.6986(8) -0.1907(3)
O32 O 0.6611(6) -1.3332(8) -0.2337(4)
C64 C 0.6691(9) -1.4478(13) -0.1814(4)
loop_
_geom_bond_atom_site_label_1
_geom_bond_atom_site_label_2
_geom_bond_site_symmetry_1
_geom_bond_site_symmetry_2
O1 C7 1_555 1_555
O2 C8 1_555 1_555
O3 C6 1_555 1_555
O4 C5 1_555 1_555
O5 C17 1_555 1_555
O6 C15 1_555 1_555
O7 C1 1_555 1_555
O8 C8 1_555 1_555
O9 H1 1_555 1_555
O10 C12 1_555 1_555
O11 C10 1_555 1_555
O12 C7 1_555 1_555
C1 C9 1_555 1_555
C2 H2 1_555 1_555
C3 H3 1_555 1_555
C4 C2 1_555 1_555
C5 H4 1_555 1_555
C6 C4 1_555 1_555
H5 C6 1_555 1_555
C7 C22 1_555 1_555
C8 C28 1_555 1_555
C9 O2 1_555 1_555
H6 C9 1_555 1_555
C10 O4 1_555 1_555
C11 C2 1_555 1_555
H7 C11 1_555 1_555
H8 C11 1_555 1_555
C12 O3 1_555 1_555
O13 C23 1_555 1_555
C13 C11 1_555 1_555
H9 C13 1_555 1_555
H10 C13 1_555 1_555
C14 O1 1_555 1_555
C15 C4 1_555 1_555
H11 C15 1_555 1_555
C16 C1 1_555 1_555
H12 C16 1_555 1_555
H13 C16 1_555 1_555
H14 C16 1_555 1_555
C17 C14 1_555 1_555
C18 O9 1_555 1_555
C19 C1 1_555 1_555
H15 C19 1_555 1_555
C20 C12 1_555 1_555
H16 C20 1_555 1_555
H17 C20 1_555 1_555
C21 O5 1_555 1_555
H18 C21 1_555 1_555
H19 C21 1_555 1_555
C22 C3 1_555 1_555
H20 C22 1_555 1_555
H21 C22 1_555 1_555
C23 O7 1_555 1_555
O14 C26 1_555 1_555
C24 C17 1_555 1_555
H22 C24 1_555 1_555
H23 C24 1_555 1_555
H24 C24 1_555 1_555
C25 C18 1_555 1_555
H25 C25 1_555 1_555
H26 C25 1_555 1_555
H27 C25 1_555 1_555
C26 O6 1_555 1_555
C27 C10 1_555 1_555
H28 C27 1_555 1_555
H29 C27 1_555 1_555
H30 C27 1_555 1_555
C28 H31 1_555 1_555
H32 C28 1_555 1_555
H33 C28 1_555 1_555
C29 C20 1_555 1_555
H34 C29 1_555 1_555
H35 C29 1_555 1_555
H36 C29 1_555 1_555
C30 C23 1_555 1_555
H37 C30 1_555 1_555
H38 C30 1_555 1_555
H39 C30 1_555 1_555
C31 C26 1_555 1_555
H40 C31 1_555 1_555
H41 C31 1_555 1_555
H42 C31 1_555 1_555
O15 C32 1_555 1_555
O16 C46 1_555 1_555
O17 H43 1_555 1_555
O18 C48 1_555 1_555
O19 C39 1_555 1_555
O20 C32 1_555 1_555
O21 C38 1_555 1_555
O22 C42 1_555 1_555
O23 C41 1_555 1_555
O24 C46 1_555 1_555
C32 C43 1_555 1_555
O25 C51 1_555 1_555
C33 C37 1_555 1_555
C34 O15 1_555 1_555
H44 C34 1_555 1_555
C35 O17 1_555 1_555
C36 H45 1_555 1_555
H46 C36 1_555 1_555
O26 C53 1_555 1_555
C37 C35 1_555 1_555
H47 C37 1_555 1_555
O27 C38 1_555 1_555
C38 C56 1_555 1_555
C39 C33 1_555 1_555
H48 C39 1_555 1_555
O28 C50 1_555 1_555
C40 C35 1_555 1_555
H49 C40 1_555 1_555
H50 C40 1_555 1_555
H51 C40 1_555 1_555
C41 C33 1_555 1_555
H52 C41 1_555 1_555
C42 O19 1_555 1_555
C43 H53 1_555 1_555
H54 C43 1_555 1_555
H55 C43 1_555 1_555
C44 O21 1_555 1_555
C45 C35 1_555 1_555
H56 C45 1_555 1_555
C46 C58 1_555 1_555
C47 C36 1_555 1_555
H57 C47 1_555 1_555
H58 C47 1_555 1_555
C48 C33 1_555 1_555
H59 C48 1_555 1_555
C49 O16 1_555 1_555
C50 O23 1_555 1_555
C51 O18 1_555 1_555
C52 C51 1_555 1_555
H60 C52 1_555 1_555
H61 C52 1_555 1_555
H62 C52 1_555 1_555
C53 C44 1_555 1_555
C54 C42 1_555 1_555
H63 C54 1_555 1_555
H64 C54 1_555 1_555
H65 C54 1_555 1_555
C55 C47 1_555 1_555
H66 C55 1_555 1_555
C56 C45 1_555 1_555
H67 C56 1_555 1_555
H68 C56 1_555 1_555
C57 C49 1_555 1_555
H69 C57 1_555 1_555
H70 C57 1_555 1_555
H71 C57 1_555 1_555
C58 H72 1_555 1_555
H73 C58 1_555 1_555
H74 C58 1_555 1_555
C59 C53 1_555 1_555
H75 C59 1_555 1_555
H76 C59 1_555 1_555
H77 C59 1_555 1_555
C60 O26 1_555 1_555
H78 C60 1_555 1_555
H79 C60 1_555 1_555
C61 C50 1_555 1_555
H80 C61 1_555 1_555
H81 C61 1_555 1_555
C62 C61 1_555 1_555
H82 C62 1_555 1_555
H83 C62 1_555 1_555
H84 C62 1_555 1_555
O29 C63 1_555 1_555
O32 C64 1_555 1_555
C2 C18 1_555 1_555
C3 C14 1_555 1_555
C3 C18 1_555 1_555
C4 C9 1_555 1_555
C5 C6 1_555 1_555
C5 C14 1_555 1_555
C13 C19 1_555 1_555
C15 C19 1_555 1_555
C17 C21 1_555 1_555
C34 C41 1_555 1_555
C34 C44 1_555 1_555
C36 C37 1_555 1_555
C39 C49 1_555 1_555
C44 C45 1_555 1_555
C48 C55 1_555 1_555
C49 C55 1_555 1_555
C53 C60 1_555 1_555

#END
