
#######################################################################
#
#                 Cambridge Crystallographic Data Centre
#                                CCDC 
#
#######################################################################
#
# If this CIF has been generated from an entry in the Cambridge 
# Structural Database, then it will include bibliographic, chemical, 
# crystal, experimental, refinement or atomic coordinate data resulting 
# from the CCDC's data processing and validation procedures.
#
#######################################################################

data_VEHLIG
_chemical_compound_source        'roots of Pieris formosa (Wall) D. Don'
_chemical_name_common            'Pieristoxinlactone N monohydrate'
_chemical_formula_moiety         'C31 H44 O15,H2 O1'
_chemical_name_systematic        
'9,10,11-tris(acetyloxy)-11a-[1-(acetyloxy)-2-hydroxypropan-2-yl]-4,8-dihydroxy-4,8-dimethyl-2-oxododecahydro-4H-7,9a-methanoheptaleno[3,2-b]furan-12-yl propanoate monohydrate'
_symmetry_cell_setting           orthorhombic
_symmetry_space_group_name_H-M   'P 21 21 21'
_symmetry_Int_Tables_number      19
_space_group_name_Hall           'P 2ac 2ab'
loop_
_symmetry_equiv_pos_site_id
_symmetry_equiv_pos_as_xyz
1 x,y,z
2 1/2-x,-y,1/2+z
3 1/2+x,1/2-y,-z
4 -x,1/2+y,1/2-z
_cell_length_a                   11.0687(2)
_cell_length_b                   12.2272(4)
_cell_length_c                   23.8020(5)
_cell_angle_alpha                90
_cell_angle_beta                 90
_cell_angle_gamma                90
_cell_volume                     3221.34
_cell_formula_units_Z            4
loop_
_atom_site_label
_atom_site_type_symbol
_atom_site_fract_x
_atom_site_fract_y
_atom_site_fract_z
O1 O 0.27679(17) 0.00543(16) 0.23527(7)
O2 O 0.22966(16) -0.04346(14) 0.32392(7)
O3 O -0.04042(17) 0.17470(14) 0.30302(7)
H1 H -0.0261 0.2286 0.2837
O4 O 0.24494(15) 0.01174(14) 0.48169(7)
O5 O 0.12398(17) -0.11215(14) 0.41046(7)
O6 O -0.2973(2) 0.03836(16) 0.50909(8)
O7 O -0.07276(15) -0.15888(14) 0.36446(7)
O8 O 0.41101(15) 0.00317(15) 0.40091(7)
H2 H 0.4211 -0.0236 0.4322
O9 O -0.34920(16) 0.00521(15) 0.23816(7)
O10 O -0.21662(15) -0.02623(15) 0.43028(7)
C1 C 0.2726(2) -0.0614(2) 0.27170(10)
C2 C 0.1287(2) 0.0785(2) 0.39365(9)
O11 O 0.03907(19) -0.17894(16) 0.48825(8)
O12 O -0.00426(18) -0.17283(16) 0.27617(7)
C3 C -0.2832(2) -0.0159(2) 0.33402(10)
C4 C -0.2436(2) 0.0113(2) 0.27412(9)
H3 H -0.2091 0.0842 0.2727
H4 H -0.1828 -0.0404 0.2616
O13 O -0.37803(16) 0.05687(15) 0.34876(8)
H5 H -0.4315 0.0229 0.3651
O14 O 0.11947(19) 0.10399(16) 0.53914(8)
C5 C -0.0541(2) -0.04221(19) 0.36335(9)
H6 H -0.0254 -0.0201 0.3261
O15 O -0.2317(2) 0.0634(2) 0.16761(8)
C6 C -0.1754(2) 0.0133(2) 0.37570(9)
C7 C 0.4376(2) 0.1881(2) 0.43340(11)
H7 H 0.4629 0.1611 0.4694
H8 H 0.3970 0.2569 0.4381
H9 H 0.5070 0.1980 0.4098
C8 C -0.0371(2) -0.2163(2) 0.31937(10)
C9 C -0.2450(2) 0.0556(2) 0.46538(10)
C10 C 0.3087(2) 0.1391(2) 0.34686(10)
H10 H 0.3714 0.1237 0.3189
C11 C -0.3292(2) -0.1338(2) 0.33832(11)
H11 H -0.4045 -0.1403 0.3186
H12 H -0.3409 -0.1525 0.3771
H13 H -0.2709 -0.1825 0.3220
C12 C 0.3127(2) -0.1797(2) 0.26666(12)
H14 H 0.2427 -0.2247 0.2585
H15 H 0.3454 -0.2033 0.3025
C13 C -0.0961(2) 0.3280(2) 0.36318(10)
H16 H -0.0460 0.3716 0.3390
H17 H -0.0891 0.3538 0.4011
H18 H -0.1787 0.3334 0.3512
C14 C 0.1884(2) 0.0299(2) 0.53127(10)
C15 C -0.3302(3) 0.0387(2) 0.18529(11)
C16 C 0.2630(2) 0.2569(2) 0.34111(11)
H19 H 0.2350 0.2683 0.3029
H20 H 0.3298 0.3067 0.3477
C17 C -0.1665(2) 0.1414(2) 0.38171(10)
H21 H -0.2347 0.1697 0.3599
C18 C 0.0641(2) 0.19302(19) 0.39425(9)
H22 H 0.0406 0.2044 0.4335
C19 C 0.0457(2) -0.01783(19) 0.40823(9)
H23 H 0.0083 -0.0058 0.4450
C20 C -0.0550(2) 0.20727(19) 0.36022(9)
C21 C 0.2207(3) -0.2626(2) 0.45032(14)
H24 H 0.2028 -0.3181 0.4230
H25 H 0.2318 -0.2958 0.4865
H26 H 0.2933 -0.2249 0.4397
C22 C 0.4071(3) -0.1981(3) 0.22131(12)
H27 H 0.3781 -0.1696 0.1862
H28 H 0.4224 -0.2750 0.2175
H29 H 0.4806 -0.1614 0.2315
C23 C 0.1973(2) 0.0680(2) 0.33654(9)
H30 H 0.1486 0.0988 0.3060
C24 C -0.0463(2) -0.3371(2) 0.32895(11)
H31 H -0.0442 -0.3519 0.3685
H32 H 0.0202 -0.3733 0.3109
H33 H -0.1209 -0.3637 0.3135
C25 C -0.4456(3) 0.0430(3) 0.15180(13)
H34 H -0.4556 -0.0243 0.1316
H35 H -0.4420 0.1028 0.1257
H36 H -0.5127 0.0532 0.1768
C26 C 0.1601(2) 0.2850(2) 0.38188(10)
H37 H 0.1176 0.3482 0.3671
H38 H 0.1959 0.3068 0.4174
C27 C 0.3519(2) 0.1063(2) 0.40630(10)
C28 C -0.2008(2) 0.1629(2) 0.44311(10)
H39 H -0.1312 0.1880 0.4643
H40 H -0.2637 0.2179 0.4455
C29 C 0.1171(2) -0.1820(2) 0.45308(11)
C30 C 0.2232(2) -0.0547(2) 0.57390(11)
H41 H 0.1660 -0.1137 0.5730
H42 H 0.2236 -0.0223 0.6106
H43 H 0.3024 -0.0822 0.5654
C31 C 0.2319(2) 0.09414(19) 0.43925(10)
H44 H 0.2167 0.1637 0.4584
O16 O -0.0098(2) -0.4091(2) 0.50077(10)
H45 H 0.0627 -0.4357 0.4984
H46 H -0.0006 -0.3388 0.4998
loop_
_geom_bond_atom_site_label_1
_geom_bond_atom_site_label_2
_geom_bond_site_symmetry_1
_geom_bond_site_symmetry_2
O1 C1 1_555 1_555
O2 C1 1_555 1_555
O3 H1 1_555 1_555
O4 C14 1_555 1_555
O5 C19 1_555 1_555
O6 C9 1_555 1_555
O7 C5 1_555 1_555
O8 H2 1_555 1_555
O9 C4 1_555 1_555
O10 C6 1_555 1_555
C1 C12 1_555 1_555
C2 C18 1_555 1_555
O11 C29 1_555 1_555
O12 C8 1_555 1_555
C3 C4 1_555 1_555
C4 H3 1_555 1_555
H4 C4 1_555 1_555
O13 C3 1_555 1_555
H5 O13 1_555 1_555
O14 C14 1_555 1_555
C5 H6 1_555 1_555
O15 C15 1_555 1_555
C6 C3 1_555 1_555
C7 H7 1_555 1_555
H8 C7 1_555 1_555
H9 C7 1_555 1_555
C8 O7 1_555 1_555
C9 O10 1_555 1_555
C10 H10 1_555 1_555
C11 C3 1_555 1_555
H11 C11 1_555 1_555
H12 C11 1_555 1_555
H13 C11 1_555 1_555
C12 H14 1_555 1_555
H15 C12 1_555 1_555
C13 H16 1_555 1_555
H17 C13 1_555 1_555
H18 C13 1_555 1_555
C14 C30 1_555 1_555
C15 O9 1_555 1_555
C16 C10 1_555 1_555
H19 C16 1_555 1_555
H20 C16 1_555 1_555
C17 C6 1_555 1_555
H21 C17 1_555 1_555
C18 H22 1_555 1_555
C19 C2 1_555 1_555
H23 C19 1_555 1_555
C20 O3 1_555 1_555
C21 H24 1_555 1_555
H25 C21 1_555 1_555
H26 C21 1_555 1_555
C22 C12 1_555 1_555
H27 C22 1_555 1_555
H28 C22 1_555 1_555
H29 C22 1_555 1_555
C23 O2 1_555 1_555
H30 C23 1_555 1_555
C24 C8 1_555 1_555
H31 C24 1_555 1_555
H32 C24 1_555 1_555
H33 C24 1_555 1_555
C25 C15 1_555 1_555
H34 C25 1_555 1_555
H35 C25 1_555 1_555
H36 C25 1_555 1_555
C26 C16 1_555 1_555
H37 C26 1_555 1_555
H38 C26 1_555 1_555
C27 O8 1_555 1_555
C28 C9 1_555 1_555
H39 C28 1_555 1_555
H40 C28 1_555 1_555
C29 O5 1_555 1_555
C30 H41 1_555 1_555
H42 C30 1_555 1_555
H43 C30 1_555 1_555
C31 O4 1_555 1_555
H44 C31 1_555 1_555
O16 H45 1_555 1_555
H46 O16 1_555 1_555
C2 C23 1_555 1_555
C2 C31 1_555 1_555
C5 C6 1_555 1_555
C5 C19 1_555 1_555
C7 C27 1_555 1_555
C10 C23 1_555 1_555
C10 C27 1_555 1_555
C13 C20 1_555 1_555
C17 C20 1_555 1_555
C17 C28 1_555 1_555
C18 C20 1_555 1_555
C18 C26 1_555 1_555
C21 C29 1_555 1_555
C27 C31 1_555 1_555

#END
