
#######################################################################
#
#                 Cambridge Crystallographic Data Centre
#                                CCDC 
#
#######################################################################
#
# If this CIF has been generated from an entry in the Cambridge 
# Structural Database, then it will include bibliographic, chemical, 
# crystal, experimental, refinement or atomic coordinate data resulting 
# from the CCDC's data processing and validation procedures.
#
#######################################################################

data_VEHNAY
_chemical_formula_moiety         'C16 H14 Cl1 N1 O1'
_chemical_name_systematic        
(3S,4R)-4-(4-Chlorophenyl)-3-methyl-1-phenylazetidin-2-one
_symmetry_cell_setting           orthorhombic
_symmetry_space_group_name_H-M   'P 21 21 21'
_symmetry_Int_Tables_number      19
_space_group_name_Hall           'P 2ac 2ab'
loop_
_symmetry_equiv_pos_site_id
_symmetry_equiv_pos_as_xyz
1 x,y,z
2 1/2-x,-y,1/2+z
3 1/2+x,1/2-y,-z
4 -x,1/2+y,1/2-z
_cell_length_a                   9.4633(2)
_cell_length_b                   10.1486(3)
_cell_length_c                   14.4977(5)
_cell_angle_alpha                90
_cell_angle_beta                 90
_cell_angle_gamma                90
_cell_volume                     1392.35
_exptl_crystal_colour            colorless
_exptl_crystal_description       block
_cell_formula_units_Z            4
loop_
_atom_site_label
_atom_site_type_symbol
_atom_site_fract_x
_atom_site_fract_y
_atom_site_fract_z
C1 C 0.3002(3) 0.2124(2) 0.48138(19)
C2 C 0.3030(3) 0.3324(2) 0.41861(17)
H1 H 0.3997 0.3643 0.4094
C3 C 0.2252(4) 0.3200(3) 0.3279(2)
H2 H 0.1286 0.2966 0.3394
H3 H 0.2691 0.253 0.291
H4 H 0.2287 0.4026 0.2957
C4 C 0.2287(3) 0.4067(2) 0.49926(16)
H5 H 0.1306 0.4281 0.4838
C5 C 0.3033(2) 0.5232(2) 0.54131(15)
C6 C 0.4305(3) 0.5099(3) 0.5851(2)
H6 H 0.4727 0.4273 0.5887
C7 C 0.4972(3) 0.6171(3) 0.6241(2)
H7 H 0.5834 0.6069 0.654
C8 C 0.4356(3) 0.7380(2) 0.61831(16)
C9 C 0.3112(3) 0.7547(3) 0.57343(19)
H8 H 0.2712 0.838 0.5683
C10 C 0.2444(3) 0.6464(2) 0.53545(17)
H9 H 0.1584 0.6573 0.5055
C11 C 0.1890(3) 0.2488(2) 0.64043(17)
C12 C 0.1198(3) 0.3410(3) 0.69400(19)
H10 H 0.1036 0.4253 0.6712
C13 C 0.0747(3) 0.3077(3) 0.7814(2)
H11 H 0.0284 0.37 0.8175
C14 C 0.0979(4) 0.1831(4) 0.8155(2)
H12 H 0.0684 0.1615 0.8748
C15 C 0.1639(3) 0.0916(3) 0.7623(2)
H13 H 0.1772 0.0068 0.7851
C16 C 0.2113(3) 0.1224(2) 0.6753(2)
H14 H 0.2579 0.0594 0.64
N1 N 0.2379(2) 0.28160(18) 0.55186(14)
O1 O 0.3342(3) 0.09802(19) 0.47504(16)
Cl1 Cl 0.51639(9) 0.87166(7) 0.67268(5)
loop_
_geom_bond_atom_site_label_1
_geom_bond_atom_site_label_2
_geom_bond_site_symmetry_1
_geom_bond_site_symmetry_2
C1 C2 1_555 1_555
C2 H1 1_555 1_555
C3 C2 1_555 1_555
H2 C3 1_555 1_555
H3 C3 1_555 1_555
H4 C3 1_555 1_555
C4 C2 1_555 1_555
H5 C4 1_555 1_555
C5 C4 1_555 1_555
C6 C5 1_555 1_555
H6 C6 1_555 1_555
C7 C6 1_555 1_555
H7 C7 1_555 1_555
C8 C7 1_555 1_555
C9 C8 1_555 1_555
H8 C9 1_555 1_555
C10 C5 1_555 1_555
H9 C10 1_555 1_555
C11 C12 1_555 1_555
C12 H10 1_555 1_555
C13 C12 1_555 1_555
H11 C13 1_555 1_555
C14 C13 1_555 1_555
H12 C14 1_555 1_555
C15 C14 1_555 1_555
H13 C15 1_555 1_555
C16 C11 1_555 1_555
H14 C16 1_555 1_555
N1 C1 1_555 1_555
O1 C1 1_555 1_555
Cl1 C8 1_555 1_555
C4 N1 1_555 1_555
C9 C10 1_555 1_555
C11 N1 1_555 1_555
C15 C16 1_555 1_555

#END
