
#######################################################################
#
#                 Cambridge Crystallographic Data Centre
#                                CCDC 
#
#######################################################################
#
# If this CIF has been generated from an entry in the Cambridge 
# Structural Database, then it will include bibliographic, chemical, 
# crystal, experimental, refinement or atomic coordinate data resulting 
# from the CCDC's data processing and validation procedures.
#
#######################################################################

data_VEHRUY
_chemical_formula_moiety         'C12 H16 N2 O4'
_chemical_name_systematic        'dimethyl 2,5-bis(methylamino)terephthalate'
_symmetry_cell_setting           triclinic
_symmetry_space_group_name_H-M   'P -1'
_symmetry_Int_Tables_number      2
_space_group_name_Hall           '-P 1'
loop_
_symmetry_equiv_pos_site_id
_symmetry_equiv_pos_as_xyz
1 x,y,z
2 -x,-y,-z
_cell_length_a                   6.4391(13)
_cell_length_b                   6.4663(13)
_cell_length_c                   8.0199(16)
_cell_angle_alpha                80.07(3)
_cell_angle_beta                 71.96(3)
_cell_angle_gamma                80.14(3)
_cell_volume                     310.268
_exptl_crystal_colour            brown
_exptl_crystal_description       block
_cell_formula_units_Z            1
loop_
_atom_site_label
_atom_site_type_symbol
_atom_site_fract_x
_atom_site_fract_y
_atom_site_fract_z
O1 O 0.1462(2) 0.46963(18) 0.66526(14)
O2 O 0.31030(19) 0.44101(16) 0.87656(13)
C1 C 0.0828(2) 0.18404(19) 0.90204(16)
N1 N -0.1388(2) 0.1843(2) 0.70191(17)
H1 H -0.0985 0.3040 0.6473
C2 C 0.1452(2) 0.0889(2) 1.05129(17)
H2 H 0.2434 0.1512 1.0849
C3 C -0.0682(2) 0.0958(2) 0.84625(17)
C4 C 0.1779(2) 0.3783(2) 0.80081(17)
C5 C -0.2773(3) 0.0843(3) 0.6389(2)
H3 H -0.2065 -0.0540 0.6116
H4 H -0.3028 0.1681 0.5343
H5 H -0.4153 0.0719 0.7285
C6 C 0.4225(3) 0.6210(2) 0.7837(2)
H6 H 0.5107 0.5907 0.6679
H7 H 0.5154 0.6496 0.8482
H8 H 0.3160 0.7424 0.7734
O1A O -0.1462(2) -0.46963(18) 1.33474(14)
O2A O -0.31030(19) -0.44101(16) 1.12344(13)
C1A C -0.0828(2) -0.18404(19) 1.09796(16)
N1A N 0.1388(2) -0.1843(2) 1.29809(17)
H1A H 0.0985 -0.3040 1.3527
C2A C -0.1452(2) -0.0889(2) 0.94871(17)
H2A H -0.2434 -0.1512 0.9151
C3A C 0.0682(2) -0.0958(2) 1.15375(17)
C4A C -0.1779(2) -0.3783(2) 1.19919(17)
C5A C 0.2773(3) -0.0843(3) 1.3611(2)
H3A H 0.2065 0.0540 1.3884
H4A H 0.3028 -0.1681 1.4657
H5A H 0.4153 -0.0719 1.2715
C6A C -0.4225(3) -0.6210(2) 1.2163(2)
H6A H -0.5107 -0.5907 1.3321
H7A H -0.5154 -0.6496 1.1518
H8A H -0.3160 -0.7424 1.2266
loop_
_geom_bond_atom_site_label_1
_geom_bond_atom_site_label_2
_geom_bond_site_symmetry_1
_geom_bond_site_symmetry_2
O1 C4 1_555 1_555
O2 C4 1_555 1_555
C1 C2 1_555 1_555
N1 H1 1_555 1_555
C2 H2 1_555 1_555
C3 C1 1_555 1_555
C4 C1 1_555 1_555
C5 N1 1_555 1_555
H3 C5 1_555 1_555
H4 C5 1_555 1_555
H5 C5 1_555 1_555
C6 O2 1_555 1_555
H6 C6 1_555 1_555
H7 C6 1_555 1_555
H8 C6 1_555 1_555
O1A C4A 1_555 1_555
O2A C4A 1_555 1_555
C1A C2A 1_555 1_555
N1A H1A 1_555 1_555
C2A C3 1_555 1_555
H2A C2A 1_555 1_555
C3A C2 1_555 1_555
C4A C1A 1_555 1_555
C5A N1A 1_555 1_555
H3A C5A 1_555 1_555
H4A C5A 1_555 1_555
H5A C5A 1_555 1_555
C6A O2A 1_555 1_555
H6A C6A 1_555 1_555
H7A C6A 1_555 1_555
H8A C6A 1_555 1_555
N1 C3 1_555 1_555
C1A C3A 1_555 1_555
N1A C3A 1_555 1_555

#END
