
#######################################################################
#
#                 Cambridge Crystallographic Data Centre
#                                CCDC 
#
#######################################################################
#
# If this CIF has been generated from an entry in the Cambridge 
# Structural Database, then it will include bibliographic, chemical, 
# crystal, experimental, refinement or atomic coordinate data resulting 
# from the CCDC's data processing and validation procedures.
#
#######################################################################

data_VEHROS
_chemical_formula_moiety         'C24 H16 Br1 N1 O2'
_chemical_name_systematic        
4-(2-bromobenzoyl)-5-hydroxy-3,5-diphenylpenta-2,4-dienenitrile
_symmetry_cell_setting           monoclinic
_symmetry_space_group_name_H-M   'P 21/n'
_symmetry_Int_Tables_number      14
_space_group_name_Hall           '-P 2yn'
loop_
_symmetry_equiv_pos_site_id
_symmetry_equiv_pos_as_xyz
1 x,y,z
2 1/2-x,1/2+y,1/2-z
3 -x,-y,-z
4 1/2+x,1/2-y,1/2+z
_cell_length_a                   22.550(3)
_cell_length_b                   7.7792(10)
_cell_length_c                   23.043(3)
_cell_angle_alpha                90
_cell_angle_beta                 99.843(3)
_cell_angle_gamma                90
_cell_volume                     3982.72
_exptl_crystal_colour            colorless
_exptl_crystal_description       prismatic
_cell_formula_units_Z            8
loop_
_atom_site_label
_atom_site_type_symbol
_atom_site_fract_x
_atom_site_fract_y
_atom_site_fract_z
Br1 Br 0.77620(2) 0.97293(6) 0.14612(2)
N1 N 0.72066(16) 0.6868(5) 0.00992(17)
O1 O 0.65148(12) 1.2602(3) 0.08868(11)
O2 O 0.60991(12) 1.1472(3) -0.01022(11)
H1 H 0.6241 1.2166 0.0152
C1 C 0.71998(18) 1.0165(5) 0.19648(18)
C2 C 0.7358(2) 0.9783(6) 0.2557(2)
H2 H 0.7723 0.9255 0.2703
C3 C 0.6959(3) 1.0210(6) 0.2925(2)
H3 H 0.7054 0.9952 0.3324
C4 C 0.6427(2) 1.1004(6) 0.2712(2)
H4 H 0.6170 1.1318 0.2970
C5 C 0.62681(19) 1.1341(5) 0.21282(19)
H5 H 0.5903 1.1877 0.1988
C6 C 0.66501(17) 1.0886(4) 0.17408(17)
C7 C 0.64531(15) 1.1139(5) 0.10965(17)
C8 C 0.62063(14) 0.9719(4) 0.07411(15)
C9 C 0.60273(15) 0.9977(4) 0.01450(17)
C10 C 0.57468(15) 0.8703(5) -0.02901(15)
C11 C 0.59212(16) 0.8620(6) -0.08348(18)
H6 H 0.6222 0.9352 -0.0917
C12 C 0.56613(19) 0.7484(6) -0.12566(18)
H7 H 0.5786 0.7434 -0.1621
C13 C 0.5215(2) 0.6424(6) -0.1134(2)
H8 H 0.5036 0.5647 -0.1418
C14 C 0.50286(17) 0.6492(5) -0.06028(19)
H9 H 0.4721 0.5771 -0.0529
C15 C 0.52937(16) 0.7623(5) -0.01727(16)
H10 H 0.5169 0.7658 0.0192
C16 C 0.61889(14) 0.8006(4) 0.10191(14)
C17 C 0.58200(15) 0.7751(4) 0.14827(15)
C18 C 0.60110(17) 0.6714(5) 0.19657(18)
H11 H 0.6382 0.6168 0.2003
C19 C 0.5661(2) 0.6478(6) 0.23914(19)
H12 H 0.5798 0.5764 0.2710
C20 C 0.5123(2) 0.7264(6) 0.2357(2)
H13 H 0.4888 0.7087 0.2646
C21 C 0.49285(19) 0.8325(6) 0.1889(2)
H14 H 0.4561 0.8888 0.1864
C22 C 0.52712(17) 0.8565(5) 0.14568(17)
H15 H 0.5132 0.9287 0.1141
C23 C 0.65088(15) 0.6698(4) 0.08622(16)
H16 H 0.6476 0.5640 0.1042
C24 C 0.68953(17) 0.6812(5) 0.0439(2)
Br2 Br 0.82996(2) 0.43714(6) 0.72890(2)
N2 N 0.99061(17) 0.2300(5) 0.77679(17)
O3 O 0.88229(11) 0.7444(3) 0.85013(11)
O4 O 0.98779(11) 0.6723(3) 0.88896(12)
H17 H 0.9586 0.7294 0.8740
C25 C 0.78019(18) 0.4698(5) 0.78577(17)
C26 C 0.7207(2) 0.4210(5) 0.7726(2)
H18 H 0.7055 0.3724 0.7362
C27 C 0.6838(2) 0.4452(6) 0.8140(3)
H19 H 0.6438 0.4099 0.8058
C28 C 0.7059(2) 0.5212(6) 0.8671(2)
H20 H 0.6807 0.5390 0.8945
C29 C 0.76530(18) 0.5710(5) 0.87977(17)
H21 H 0.7798 0.6240 0.9156
C30 C 0.80353(16) 0.5431(4) 0.84002(16)
C31 C 0.86847(16) 0.5893(5) 0.85627(15)
C32 C 0.91223(15) 0.4630(4) 0.87840(14)
C33 C 0.97095(16) 0.5132(4) 0.89567(15)
C34 C 1.02136(16) 0.4019(5) 0.92321(16)
C35 C 1.07759(18) 0.4300(6) 0.90844(17)
H22 H 1.0829 0.5170 0.8821
C36 C 1.1255(2) 0.3291(7) 0.9327(2)
H23 H 1.1629 0.3447 0.9216
C37 C 1.1183(2) 0.2068(7) 0.9729(2)
H24 H 1.1510 0.1403 0.9897
C38 C 1.0634(2) 0.1802(6) 0.9891(2)
H25 H 1.0590 0.0970 1.0170
C39 C 1.01459(18) 0.2777(5) 0.96370(17)
H26 H 0.9771 0.2589 0.9741
C40 C 0.89285(15) 0.2802(4) 0.87824(14)
C41 C 0.84816(15) 0.2287(4) 0.91454(15)
C42 C 0.80465(16) 0.1057(5) 0.89633(17)
H27 H 0.8033 0.0540 0.8597
C43 C 0.76376(18) 0.0581(6) 0.9304(2)
H28 H 0.7351 -0.0252 0.9168
C44 C 0.76434(19) 0.1309(6) 0.9839(2)
H29 H 0.7361 0.0982 1.0068
C45 C 0.80692(19) 0.2536(6) 1.00426(19)
H30 H 0.8081 0.3024 1.0413
C46 C 0.84800(16) 0.3038(5) 0.96896(17)
H31 H 0.8759 0.3894 0.9821
C47 C 0.91435(16) 0.1650(5) 0.84454(16)
H32 H 0.9009 0.0522 0.8454
C48 C 0.95670(18) 0.2041(5) 0.80725(18)
loop_
_geom_bond_atom_site_label_1
_geom_bond_atom_site_label_2
_geom_bond_site_symmetry_1
_geom_bond_site_symmetry_2
Br1 C1 1_555 1_555
N1 C24 1_555 1_555
O1 C7 1_555 1_555
O2 H1 1_555 1_555
C1 C2 1_555 1_555
C2 H2 1_555 1_555
C3 C2 1_555 1_555
H3 C3 1_555 1_555
C4 C3 1_555 1_555
H4 C4 1_555 1_555
C5 C4 1_555 1_555
H5 C5 1_555 1_555
C6 C1 1_555 1_555
C7 C6 1_555 1_555
C8 C7 1_555 1_555
C9 O2 1_555 1_555
C10 C9 1_555 1_555
C11 C10 1_555 1_555
H6 C11 1_555 1_555
C12 C11 1_555 1_555
H7 C12 1_555 1_555
C13 C12 1_555 1_555
H8 C13 1_555 1_555
C14 C13 1_555 1_555
H9 C14 1_555 1_555
C15 C10 1_555 1_555
H10 C15 1_555 1_555
C16 C8 1_555 1_555
C17 C16 1_555 1_555
C18 C17 1_555 1_555
H11 C18 1_555 1_555
C19 C18 1_555 1_555
H12 C19 1_555 1_555
C20 C19 1_555 1_555
H13 C20 1_555 1_555
C21 C20 1_555 1_555
H14 C21 1_555 1_555
C22 C17 1_555 1_555
H15 C22 1_555 1_555
C23 C16 1_555 1_555
H16 C23 1_555 1_555
C24 C23 1_555 1_555
Br2 C25 1_555 1_555
N2 C48 1_555 1_555
O3 C31 1_555 1_555
O4 H17 1_555 1_555
C25 C26 1_555 1_555
C26 H18 1_555 1_555
C27 C26 1_555 1_555
H19 C27 1_555 1_555
C28 C27 1_555 1_555
H20 C28 1_555 1_555
C29 C28 1_555 1_555
H21 C29 1_555 1_555
C30 C25 1_555 1_555
C31 C30 1_555 1_555
C32 C31 1_555 1_555
C33 O4 1_555 1_555
C34 C33 1_555 1_555
C35 C34 1_555 1_555
H22 C35 1_555 1_555
C36 C35 1_555 1_555
H23 C36 1_555 1_555
C37 C36 1_555 1_555
H24 C37 1_555 1_555
C38 C37 1_555 1_555
H25 C38 1_555 1_555
C39 C34 1_555 1_555
H26 C39 1_555 1_555
C40 C32 1_555 1_555
C41 C40 1_555 1_555
C42 C41 1_555 1_555
H27 C42 1_555 1_555
C43 C42 1_555 1_555
H28 C43 1_555 1_555
C44 C43 1_555 1_555
H29 C44 1_555 1_555
C45 C44 1_555 1_555
H30 C45 1_555 1_555
C46 C41 1_555 1_555
H31 C46 1_555 1_555
C47 C40 1_555 1_555
H32 C47 1_555 1_555
C48 C47 1_555 1_555
C5 C6 1_555 1_555
C8 C9 1_555 1_555
C14 C15 1_555 1_555
C21 C22 1_555 1_555
C29 C30 1_555 1_555
C32 C33 1_555 1_555
C38 C39 1_555 1_555
C45 C46 1_555 1_555

#END
