
#######################################################################
#
#                 Cambridge Crystallographic Data Centre
#                                CCDC 
#
#######################################################################
#
# If this CIF has been generated from an entry in the Cambridge 
# Structural Database, then it will include bibliographic, chemical, 
# crystal, experimental, refinement or atomic coordinate data resulting 
# from the CCDC's data processing and validation procedures.
#
#######################################################################

data_VEHROQ
_chemical_formula_moiety         'C20 H40 O2 Si2'
_chemical_name_systematic        
(Z)-3,8-Diethyl-4,7-bis(trimethylsilyl)deca-4,5,6-triene-3,8-diol
_symmetry_cell_setting           monoclinic
_symmetry_space_group_name_H-M   'P 21/n'
_symmetry_Int_Tables_number      14
_space_group_name_Hall           '-P 2yn'
loop_
_symmetry_equiv_pos_site_id
_symmetry_equiv_pos_as_xyz
1 x,y,z
2 1/2-x,1/2+y,1/2-z
3 -x,-y,-z
4 1/2+x,1/2-y,1/2+z
_cell_length_a                   9.2385(9)
_cell_length_b                   21.4243(19)
_cell_length_c                   12.7528(12)
_cell_angle_alpha                90
_cell_angle_beta                 101.580(2)
_cell_angle_gamma                90
_cell_volume                     2472.76
_exptl_crystal_colour            colorless
_cell_formula_units_Z            4
loop_
_atom_site_label
_atom_site_type_symbol
_atom_site_fract_x
_atom_site_fract_y
_atom_site_fract_z
Si1 Si 0.62386(9) 0.55865(4) 0.31152(6)
Si2 Si 0.68721(10) 0.75617(3) 0.01625(8)
O1 O 0.9248(3) 0.50279(8) 0.12137(17)
H1 H 0.9495 0.4699 0.0971
O2 O 0.9522(3) 0.60141(8) -0.03641(16)
H2 H 0.9198 0.5862 0.0132
C1 C 0.7488(3) 0.54651(10) 0.21337(19)
C2 C 0.7562(3) 0.59358(10) 0.14895(19)
C3 C 0.7676(3) 0.63866(10) 0.08635(19)
C4 C 0.7928(3) 0.68116(10) 0.01778(19)
C5 C 0.8449(3) 0.48978(11) 0.2030(2)
C6 C 0.7496(4) 0.43137(13) 0.1727(3)
H3 H 0.8138 0.3967 0.1643
H4 H 0.7010 0.4212 0.2313
C7 C 0.6334(5) 0.43782(19) 0.0714(3)
H5 H 0.5614 0.4682 0.0822
H6 H 0.5858 0.3983 0.0537
H7 H 0.6793 0.4511 0.0140
C8 C 0.9543(4) 0.47794(16) 0.3082(3)
H8 H 0.8994 0.4715 0.3647
H9 H 1.0085 0.4399 0.3014
C9 C 1.0646(5) 0.5311(2) 0.3408(4)
H10 H 1.1204 0.5375 0.2858
H11 H 1.1305 0.5206 0.4067
H12 H 1.0121 0.5687 0.3504
C10 C 0.9068(3) 0.66486(11) -0.0505(2)
C11 C 1.0440(4) 0.70502(15) -0.0179(3)
H13 H 1.1141 0.6939 -0.0621
H14 H 1.0168 0.7483 -0.0325
C12 C 1.1192(5) 0.6991(2) 0.0977(4)
H15 H 1.0607 0.7195 0.1419
H16 H 1.2149 0.7183 0.1083
H17 H 1.1299 0.6558 0.1168
C13 C 0.8428(4) 0.67356(15) -0.1691(2)
H18 H 0.8106 0.7165 -0.1808
H19 H 0.9210 0.6668 -0.2085
C14 C 0.7150(5) 0.6314(2) -0.2150(3)
H20 H 0.7373 0.5895 -0.1905
H21 H 0.6985 0.6325 -0.2917
H22 H 0.6278 0.6455 -0.1919
C15 C 0.5646(6) 0.4850(2) 0.3670(4)
H23 H 0.4997 0.4944 0.4149
H24 H 0.6498 0.4631 0.4052
H25 H 0.5138 0.4593 0.3096
C16 C 0.7213(6) 0.6056(2) 0.4250(4)
H26 H 0.7337 0.6474 0.4013
H27 H 0.8163 0.5875 0.4526
H28 H 0.6644 0.6064 0.4803
C17 C 0.4557(5) 0.5988(3) 0.2416(4)
H29 H 0.3983 0.6117 0.2927
H30 H 0.3984 0.5709 0.1908
H31 H 0.4828 0.6347 0.2049
C18 C 0.6323(11) 0.7646(3) 0.1450(5)
H32 H 0.7188 0.7685 0.2006
H33 H 0.5770 0.7286 0.1582
H34 H 0.5721 0.8012 0.1439
C19 C 0.7877(7) 0.82526(17) -0.0117(7)
H35 H 0.8842 0.8254 0.0335
H36 H 0.7349 0.8620 0.0019
H37 H 0.7970 0.8248 -0.0854
C20 C 0.5159(8) 0.7510(3) -0.0863(7)
H38 H 0.4416 0.7296 -0.0571
H39 H 0.5349 0.7285 -0.1471
H40 H 0.4819 0.7923 -0.1079
loop_
_geom_bond_atom_site_label_1
_geom_bond_atom_site_label_2
_geom_bond_site_symmetry_1
_geom_bond_site_symmetry_2
Si1 C1 1_555 1_555
Si2 C4 1_555 1_555
O1 H1 1_555 1_555
O2 H2 1_555 1_555
C1 C2 1_555 1_555
C2 C3 1_555 1_555
C3 C4 1_555 1_555
C4 C10 1_555 1_555
C5 O1 1_555 1_555
C6 C5 1_555 1_555
H3 C6 1_555 1_555
H4 C6 1_555 1_555
C7 C6 1_555 1_555
H5 C7 1_555 1_555
H6 C7 1_555 1_555
H7 C7 1_555 1_555
C8 C5 1_555 1_555
H8 C8 1_555 1_555
H9 C8 1_555 1_555
C9 C8 1_555 1_555
H10 C9 1_555 1_555
H11 C9 1_555 1_555
H12 C9 1_555 1_555
C10 O2 1_555 1_555
C11 C10 1_555 1_555
H13 C11 1_555 1_555
H14 C11 1_555 1_555
C12 C11 1_555 1_555
H15 C12 1_555 1_555
H16 C12 1_555 1_555
H17 C12 1_555 1_555
C13 C10 1_555 1_555
H18 C13 1_555 1_555
H19 C13 1_555 1_555
C14 C13 1_555 1_555
H20 C14 1_555 1_555
H21 C14 1_555 1_555
H22 C14 1_555 1_555
C15 Si1 1_555 1_555
H23 C15 1_555 1_555
H24 C15 1_555 1_555
H25 C15 1_555 1_555
C16 Si1 1_555 1_555
H26 C16 1_555 1_555
H27 C16 1_555 1_555
H28 C16 1_555 1_555
C17 Si1 1_555 1_555
H29 C17 1_555 1_555
H30 C17 1_555 1_555
H31 C17 1_555 1_555
C18 Si2 1_555 1_555
H32 C18 1_555 1_555
H33 C18 1_555 1_555
H34 C18 1_555 1_555
C19 Si2 1_555 1_555
H35 C19 1_555 1_555
H36 C19 1_555 1_555
H37 C19 1_555 1_555
C20 Si2 1_555 1_555
H38 C20 1_555 1_555
H39 C20 1_555 1_555
H40 C20 1_555 1_555
C1 C5 1_555 1_555

#END
