
#######################################################################
#
#                 Cambridge Crystallographic Data Centre
#                                CCDC 
#
#######################################################################
#
# If this CIF has been generated from an entry in the Cambridge 
# Structural Database, then it will include bibliographic, chemical, 
# crystal, experimental, refinement or atomic coordinate data resulting 
# from the CCDC's data processing and validation procedures.
#
#######################################################################

data_VEHXOY
_chemical_name_common            
11-Methyl-13-phenyl-2-propylbenzo[5,6]chromeno[4,3-d]pyrazolo[3,4-b]pyridin-3(13H)-one
_chemical_formula_moiety         'C27 H21 N3 O2'
_chemical_name_systematic        
11-methyl-13-phenyl-2-propylnaphtho[1',2':5,6]pyrano[4,3-d]pyrazolo[3,4-b]pyridin-3(13H)-one
_symmetry_cell_setting           monoclinic
_symmetry_space_group_name_H-M   'P 21/c'
_symmetry_Int_Tables_number      14
_space_group_name_Hall           '-P 2ybc'
loop_
_symmetry_equiv_pos_site_id
_symmetry_equiv_pos_as_xyz
1 x,y,z
2 -x,1/2+y,1/2-z
3 -x,-y,-z
4 x,1/2-y,1/2+z
_cell_length_a                   10.0070(9)
_cell_length_b                   11.0039(11)
_cell_length_c                   18.1201(16)
_cell_angle_alpha                90
_cell_angle_beta                 105.024(2)
_cell_angle_gamma                90
_cell_volume                     1927.11
_exptl_crystal_colour            white
_chemical_melting_point          '198-200 deg.C'
_cell_formula_units_Z            4
loop_
_atom_site_label
_atom_site_type_symbol
_atom_site_fract_x
_atom_site_fract_y
_atom_site_fract_z
N1 N 0.5021(5) 0.6382(4) 0.3942(2)
N2 N 0.5167(5) 0.5779(4) 0.3327(2)
N3 N 0.6085(5) 0.6427(4) 0.5253(3)
O1 O 1.0194(4) 0.4162(4) 0.5866(2)
O2 O 0.9789(5) 0.5333(4) 0.6721(3)
C1 C 0.9332(6) 0.4886(6) 0.6119(4)
C2 C 0.8010(6) 0.5113(5) 0.5604(3)
C3 C 0.7669(5) 0.4506(5) 0.4919(3)
C4 C 0.8420(6) 0.3440(5) 0.4847(3)
C5 C 0.9720(6) 0.3359(5) 0.5305(3)
C6 C 1.0630(6) 0.2485(6) 0.5224(3)
H1 H 1.1542 0.2504 0.5517
C7 C 1.0196(7) 0.1612(6) 0.4723(3)
H2 H 1.0827 0.1039 0.4644
C8 C 0.8830(7) 0.1523(5) 0.4313(3)
C9 C 0.7910(6) 0.2433(5) 0.4388(3)
C10 C 0.6527(6) 0.2239(5) 0.4079(3)
H3 H 0.5890 0.2807 0.4158
C11 C 0.6078(7) 0.1239(6) 0.3661(3)
H4 H 0.5135 0.1123 0.3452
C12 C 0.6994(8) 0.0396(6) 0.3541(4)
H5 H 0.6678 -0.0272 0.3231
C13 C 0.8325(8) 0.0523(6) 0.3862(3)
H6 H 0.8938 -0.0070 0.3785
C14 C 0.7150(6) 0.5986(6) 0.5763(3)
C15 C 0.7196(10) 0.6362(11) 0.6565(8)
H7 H 0.6265 0.6443 0.6625
H8 H 0.7679 0.5753 0.6924
C16 C 0.7939(11) 0.7554(12) 0.6717(8)
H9 H 0.7451 0.8159 0.6358
H10 H 0.8866 0.7470 0.6651
C17 C 0.801(3) 0.796(2) 0.7529(11)
H11 H 0.7096 0.7997 0.7599
H12 H 0.8438 0.8744 0.7617
H13 H 0.8554 0.7384 0.7883
C18 C 0.5943(6) 0.5983(5) 0.4565(3)
C19 C 0.6635(5) 0.5038(5) 0.4357(3)
C20 C 0.6119(5) 0.4968(5) 0.3561(3)
C21 C 0.6563(6) 0.4277(5) 0.2985(3)
H14 H 0.6094 0.3507 0.2911
H15 H 0.7543 0.4145 0.3150
H16 H 0.6343 0.4720 0.2512
C22 C 0.4025(6) 0.7270(5) 0.3846(3)
C23 C 0.4241(7) 0.8278(6) 0.4299(3)
H17 H 0.5065 0.8375 0.4675
C24 C 0.3229(8) 0.9147(6) 0.4192(4)
H18 H 0.3365 0.9835 0.4500
C25 C 0.2025(8) 0.9012(7) 0.3638(4)
H19 H 0.1341 0.9605 0.3567
C26 C 0.1831(7) 0.8000(6) 0.3188(4)
H20 H 0.1013 0.7908 0.2806
C27 C 0.2823(6) 0.7122(5) 0.3292(3)
H21 H 0.2681 0.6429 0.2988
C28? C 0.766(4) 0.699(4) 0.635(2)
H22? H 0.8655 0.7070 0.6460
H23? H 0.7245 0.7765 0.6151
C29? C 0.723(3) 0.665(3) 0.707(3)
H24? H 0.6226 0.6631 0.6950
H25? H 0.7560 0.5835 0.7220
C30? C 0.776(7) 0.749(5) 0.774(3)
H26? H 0.8749 0.7522 0.7865
H27? H 0.7466 0.7199 0.8174
H28? H 0.7390 0.8294 0.7611
loop_
_geom_bond_atom_site_label_1
_geom_bond_atom_site_label_2
_geom_bond_site_symmetry_1
_geom_bond_site_symmetry_2
N1 N2 1_555 1_555
N2 C20 1_555 1_555
N3 C14 1_555 1_555
O1 C1 1_555 1_555
O2 C1 1_555 1_555
C1 C2 1_555 1_555
C2 C3 1_555 1_555
C3 C4 1_555 1_555
C4 C5 1_555 1_555
C5 O1 1_555 1_555
C6 C5 1_555 1_555
H1 C6 1_555 1_555
C7 C6 1_555 1_555
H2 C7 1_555 1_555
C8 C7 1_555 1_555
C9 C4 1_555 1_555
C10 C9 1_555 1_555
H3 C10 1_555 1_555
C11 C10 1_555 1_555
H4 C11 1_555 1_555
C12 C11 1_555 1_555
H5 C12 1_555 1_555
C13 C8 1_555 1_555
H6 C13 1_555 1_555
C14 C2 1_555 1_555
C15 C14 1_555 1_555
H7 C15 1_555 1_555
H8 C15 1_555 1_555
C16 C15 1_555 1_555
H9 C16 1_555 1_555
H10 C16 1_555 1_555
C17 C16 1_555 1_555
H11 C17 1_555 1_555
H12 C17 1_555 1_555
H13 C17 1_555 1_555
C18 N1 1_555 1_555
C19 C3 1_555 1_555
C20 C19 1_555 1_555
C21 C20 1_555 1_555
H14 C21 1_555 1_555
H15 C21 1_555 1_555
H16 C21 1_555 1_555
C22 N1 1_555 1_555
C23 C22 1_555 1_555
H17 C23 1_555 1_555
C24 C23 1_555 1_555
H18 C24 1_555 1_555
C25 C24 1_555 1_555
H19 C25 1_555 1_555
C26 C25 1_555 1_555
H20 C26 1_555 1_555
C27 C22 1_555 1_555
H21 C27 1_555 1_555
N3 C18 1_555 1_555
C8 C9 1_555 1_555
C12 C13 1_555 1_555
C18 C19 1_555 1_555
C26 C27 1_555 1_555

#END
