
#######################################################################
#
#                 Cambridge Crystallographic Data Centre
#                                CCDC 
#
#######################################################################
#
# If this CIF has been generated from an entry in the Cambridge 
# Structural Database, then it will include bibliographic, chemical, 
# crystal, experimental, refinement or atomic coordinate data resulting 
# from the CCDC's data processing and validation procedures.
#
#######################################################################

data_VEHYOZ
_chemical_name_common            
'2,7-bis(1-methylphenothiazine-10-yl)-9,9-dimethylthioxanthene-S,S-dioxide hexane dichloromethane solvate'
_chemical_formula_moiety         'C41 H32 N2 O2 S3,0.5(C6 H14),0.75(C1 H2 Cl2)'
_chemical_name_systematic        
'9,9-dimethyl-2,7-bis(1-methyl-10H-phenothiazin-10-yl)-10\l^6^-thioxanthene-10,10(9H)-dione hexane dichloromethane solvate'
_symmetry_cell_setting           triclinic
_symmetry_space_group_name_H-M   'P -1'
_symmetry_Int_Tables_number      2
_space_group_name_Hall           '-P 1'
loop_
_symmetry_equiv_pos_site_id
_symmetry_equiv_pos_as_xyz
1 x,y,z
2 -x,-y,-z
_cell_length_a                   8.3539(4)
_cell_length_b                   13.0290(7)
_cell_length_c                   19.1842(11)
_cell_angle_alpha                90.392(3)
_cell_angle_beta                 102.212(3)
_cell_angle_gamma                103.529(2)
_cell_volume                     1980.7
_exptl_crystal_colour            colorless
_exptl_crystal_description       arrowhead
_chemical_melting_point          '572 K'
_cell_formula_units_Z            2
_exptl_crystal_recrystallization_method dichloromethane/hexane
loop_
_atom_site_label
_atom_site_type_symbol
_atom_site_fract_x
_atom_site_fract_y
_atom_site_fract_z
S1 S 0.52669(7) 0.35503(4) 0.40146(3)
S2 S 0.81005(11) 0.91120(8) 0.26931(5)
O1 O 0.3494(2) 0.35357(13) 0.38610(10)
O2 O 0.5892(2) 0.30597(13) 0.46547(10)
N1 N 0.8985(2) 0.80261(15) 0.40081(12)
C1 C 0.5719(3) 0.29789(18) 0.32711(14)
C2 C 0.4445(3) 0.21882(19) 0.28644(15)
H1 H 0.3404 0.1960 0.3008
C3 C 0.4675(3) 0.1734(2) 0.22577(16)
H2 H 0.3811 0.1176 0.1992
C4 C 0.6183(3) 0.20922(19) 0.20304(14)
C5 C 0.7459(3) 0.28940(18) 0.24447(14)
H3 H 0.8486 0.3135 0.2292
C6 C 0.7271(3) 0.33486(17) 0.30723(13)
C7 C 0.8694(3) 0.42101(18) 0.35354(13)
C8 C 0.7939(3) 0.50889(17) 0.37771(13)
C9 C 0.8746(3) 0.61466(18) 0.37748(13)
H4 H 0.9763 0.6326 0.3607
C10 C 0.8114(3) 0.69618(17) 0.40113(13)
C11 C 0.6598(3) 0.66988(18) 0.42442(13)
H5 H 0.6148 0.7238 0.4407
C12 C 0.5763(3) 0.56499(17) 0.42364(13)
H6 H 0.4719 0.5471 0.4382
C13 C 0.6427(3) 0.48523(17) 0.40185(13)
C14 C 1.0088(3) 0.46536(19) 0.31276(14)
H7 H 1.0551 0.4078 0.2987
H8 H 1.0992 0.5186 0.3436
H9 H 0.9609 0.4980 0.2700
C15 C 0.9536(3) 0.3718(2) 0.42027(14)
H10 H 0.8689 0.3412 0.4476
H11 H 1.0429 0.4265 0.4503
H12 H 1.0027 0.3161 0.4054
C16 C 0.8193(3) 0.88646(18) 0.41104(16)
C17 C 0.7703(3) 0.9433(2) 0.35255(17)
C18 C 0.6938(3) 1.0262(2) 0.3597(2)
H13 H 0.6644 1.0666 0.3201
C19 C 0.6617(3) 1.0485(2) 0.4246(2)
H14 H 0.6046 1.1023 0.4294
C20 C 0.7117(3) 0.99340(19) 0.48274(19)
H15 H 0.6876 1.0098 0.5272
C21 C 0.7971(3) 0.91378(18) 0.47839(16)
C22 C 1.0321(3) 0.82862(19) 0.36312(16)
C23 C 1.0064(4) 0.8801(2) 0.30067(18)
C24 C 1.1349(4) 0.9056(3) 0.2628(2)
H16 H 1.1184 0.9416 0.2200
C25 C 1.2851(4) 0.8784(3) 0.2879(2)
H17 H 1.3706 0.8934 0.2612
C26 C 1.3129(3) 0.8297(2) 0.35101(19)
H18 H 1.4182 0.8125 0.3682
C27 C 1.1881(3) 0.80550(19) 0.38982(17)
H19 H 1.2083 0.7735 0.4342
C28 C 0.8630(3) 0.8629(2) 0.54428(16)
H20 H 0.7889 0.7927 0.5454
H21 H 0.8661 0.9066 0.5866
H22 H 0.9771 0.8558 0.5441
S3 S 0.4636(3) 0.2584(2) 0.02454(11)
N2 N 0.6493(17) 0.1622(16) 0.1433(6)
C29 C 0.7556(8) 0.2277(6) 0.1015(4)
C30 C 0.6872(10) 0.2786(9) 0.0473(6)
C31 C 0.7869(13) 0.3401(8) 0.0088(6)
H23 H 0.7412 0.3757 -0.0308
C32 C 0.9614(14) 0.3485(9) 0.0304(6)
H24 H 1.0324 0.3951 0.0056
C33 C 1.0391(12) 0.2957(8) 0.0842(6)
H25 H 1.1578 0.3036 0.0942
C34 C 0.9331(18) 0.227(2) 0.1255(15)
C35 C 0.5030(9) 0.0890(5) 0.1016(4)
C36 C 0.4022(9) 0.1272(6) 0.0445(4)
C37 C 0.2540(11) 0.0595(8) 0.0058(5)
H26 H 0.1858 0.0853 -0.0329
C38 C 0.2054(9) -0.0436(8) 0.0227(5)
H27 H 0.1020 -0.0879 -0.0029
C39 C 0.3094(7) -0.0839(6) 0.0784(4)
H28 H 0.2834 -0.1555 0.0908
C40 C 0.4492(9) -0.0117(6) 0.1125(4)
H29 H 0.5196 -0.0378 0.1502
C41 C 0.9967(7) 0.1622(5) 0.1823(4)
H30 H 0.9041 0.1226 0.2026
H31 H 1.0500 0.1128 0.1626
H32 H 1.0804 0.2091 0.2198
S4? S 0.5543(4) 0.3141(2) 0.02206(12)
N3? N 0.6377(18) 0.1686(17) 0.1363(7)
C42? C 0.4937(10) 0.1232(6) 0.0797(4)
C43? C 0.4367(9) 0.1833(7) 0.0255(4)
C44? C 0.2930(9) 0.1409(8) -0.0252(5)
H33? H 0.2525 0.1818 -0.0626
C45? C 0.2079(10) 0.0369(8) -0.0206(5)
H34? H 0.1044 0.0093 -0.0539
C46? C 0.2659(9) -0.0289(8) 0.0301(5)
H35? H 0.2094 -0.1009 0.0317
C47? C 0.4137(8) 0.0195(6) 0.0784(4)
C48? C 0.7868(9) 0.2215(6) 0.1116(4)
C49? C 0.7585(11) 0.2934(10) 0.0563(6)
C50? C 0.8901(16) 0.3513(10) 0.0249(6)
H36? H 0.8704 0.3975 -0.0123
C51? C 1.0492(14) 0.3349(9) 0.0529(6)
H37? H 1.1414 0.3719 0.0341
C52? C 1.0805(13) 0.2656(9) 0.1082(6)
H38? H 1.1911 0.2576 0.1276
C53? C 0.9459(19) 0.211(3) 0.1321(16)
H39? H 0.9658 0.1616 0.1668
C54? C 0.4774(9) -0.0503(6) 0.1298(4)
H40? H 0.5791 -0.0110 0.1635
H41? H 0.3944 -0.0862 0.1564
H42? H 0.5067 -0.1028 0.1012
loop_
_geom_bond_atom_site_label_1
_geom_bond_atom_site_label_2
_geom_bond_site_symmetry_1
_geom_bond_site_symmetry_2
S1 O1 1_555 1_555
S2 C17 1_555 1_555
O2 S1 1_555 1_555
N1 C10 1_555 1_555
C1 S1 1_555 1_555
C2 C1 1_555 1_555
H1 C2 1_555 1_555
C3 C2 1_555 1_555
H2 C3 1_555 1_555
C4 C3 1_555 1_555
C5 C4 1_555 1_555
H3 C5 1_555 1_555
C6 C1 1_555 1_555
C7 C6 1_555 1_555
C8 C7 1_555 1_555
C9 C8 1_555 1_555
H4 C9 1_555 1_555
C10 C9 1_555 1_555
C11 C10 1_555 1_555
H5 C11 1_555 1_555
C12 C11 1_555 1_555
H6 C12 1_555 1_555
C13 S1 1_555 1_555
C14 C7 1_555 1_555
H7 C14 1_555 1_555
H8 C14 1_555 1_555
H9 C14 1_555 1_555
C15 C7 1_555 1_555
H10 C15 1_555 1_555
H11 C15 1_555 1_555
H12 C15 1_555 1_555
C16 N1 1_555 1_555
C17 C16 1_555 1_555
C18 C17 1_555 1_555
H13 C18 1_555 1_555
C19 C18 1_555 1_555
H14 C19 1_555 1_555
C20 C19 1_555 1_555
H15 C20 1_555 1_555
C21 C16 1_555 1_555
C22 N1 1_555 1_555
C23 S2 1_555 1_555
C24 C23 1_555 1_555
H16 C24 1_555 1_555
C25 C24 1_555 1_555
H17 C25 1_555 1_555
C26 C25 1_555 1_555
H18 C26 1_555 1_555
C27 C22 1_555 1_555
H19 C27 1_555 1_555
C28 C21 1_555 1_555
H20 C28 1_555 1_555
H21 C28 1_555 1_555
H22 C28 1_555 1_555
S3 C30 1_555 1_555
N2 C4 1_555 1_555
C29 N2 1_555 1_555
C30 C29 1_555 1_555
C31 C30 1_555 1_555
H23 C31 1_555 1_555
C32 C31 1_555 1_555
H24 C32 1_555 1_555
C33 C32 1_555 1_555
H25 C33 1_555 1_555
C34 C29 1_555 1_555
C35 N2 1_555 1_555
C36 S3 1_555 1_555
C37 C36 1_555 1_555
H26 C37 1_555 1_555
C38 C37 1_555 1_555
H27 C38 1_555 1_555
C39 C38 1_555 1_555
H28 C39 1_555 1_555
C40 C35 1_555 1_555
H29 C40 1_555 1_555
C41 C34 1_555 1_555
H30 C41 1_555 1_555
H31 C41 1_555 1_555
H32 C41 1_555 1_555
C5 C6 1_555 1_555
C8 C13 1_555 1_555
C12 C13 1_555 1_555
C20 C21 1_555 1_555
C22 C23 1_555 1_555
C26 C27 1_555 1_555
C33 C34 1_555 1_555
C35 C36 1_555 1_555
C39 C40 1_555 1_555

#END
