
#######################################################################
#
#                 Cambridge Crystallographic Data Centre
#                                CCDC 
#
#######################################################################
#
# If this CIF has been generated from an entry in the Cambridge 
# Structural Database, then it will include bibliographic, chemical, 
# crystal, experimental, refinement or atomic coordinate data resulting 
# from the CCDC's data processing and validation procedures.
#
#######################################################################

data_VEHYIT
_chemical_name_common            
'2,7-bis(phenothiazin-10-yl)-9,9-dimethylthioxanthene-S,S-dioxide dichloromethane solvate'
_chemical_formula_moiety         'C39 H28 N2 O2 S3,C1 H2 Cl2'
_chemical_name_systematic        
'9,9-dimethyl-2,7-bis(10H-phenothiazin-10-yl)-10-thioxanthene-10,10(9H)-dione dichloromethane solvate'
_symmetry_cell_setting           triclinic
_symmetry_space_group_name_H-M   'P -1'
_symmetry_Int_Tables_number      2
_space_group_name_Hall           '-P 1'
loop_
_symmetry_equiv_pos_site_id
_symmetry_equiv_pos_as_xyz
1 x,y,z
2 -x,-y,-z
_cell_length_a                   9.4500(8)
_cell_length_b                   10.5221(8)
_cell_length_c                   17.6153(14)
_cell_angle_alpha                89.199(3)
_cell_angle_beta                 76.830(3)
_cell_angle_gamma                79.149(3)
_cell_volume                     1674.23
_exptl_crystal_colour            'pale yellow'
_exptl_crystal_description       arrowhead
_cell_formula_units_Z            2
_exptl_crystal_recrystallization_method dichloromethane/hexane
loop_
_atom_site_label
_atom_site_type_symbol
_atom_site_fract_x
_atom_site_fract_y
_atom_site_fract_z
S1 S 0.04009(3) 0.34967(2) 0.32934(2)
S2 S -0.78968(3) 0.94333(3) 0.49916(2)
S3 S 0.68654(4) 0.79039(3) 0.04287(2)
O1 O 0.00162(9) 0.25238(8) 0.28503(5)
O2 O 0.10762(9) 0.30575(8) 0.39311(5)
N1 N -0.49368(10) 0.75408(9) 0.44418(6)
N2 N 0.46925(10) 0.62385(10) 0.12559(6)
C1 C -0.11525(11) 0.47179(10) 0.36358(6)
C2 C -0.25375(12) 0.43755(10) 0.37633(7)
H1 H -0.2622 0.3512 0.3661
C3 C -0.37955(12) 0.53108(11) 0.40423(7)
H2 H -0.4752 0.5097 0.4134
C4 C -0.36334(11) 0.65590(10) 0.41837(6)
C5 C -0.22358(12) 0.68892(10) 0.40550(6)
H3 H -0.2160 0.7753 0.4162
C6 C -0.09459(11) 0.59761(10) 0.37718(6)
C7 C 0.05910(11) 0.63463(10) 0.36157(6)
C8 C 0.16155(11) 0.56371(10) 0.28779(6)
C9 C 0.26851(12) 0.62214(10) 0.23905(6)
H4 H 0.2777 0.7072 0.2517
C10 C 0.36159(12) 0.55796(11) 0.17243(6)
C11 C 0.35016(13) 0.43424(11) 0.15100(6)
H5 H 0.4117 0.3926 0.1043
C12 C 0.24747(12) 0.37282(11) 0.19894(7)
H6 H 0.2387 0.2878 0.1858
C13 C 0.15705(11) 0.43683(10) 0.26662(6)
C14 C 0.04310(13) 0.78170(10) 0.35329(7)
H7 H -0.0062 0.8088 0.3108
H8 H 0.1414 0.8048 0.3416
H9 H -0.0161 0.8254 0.4022
C15 C 0.13104(13) 0.59911(12) 0.43181(6)
H10 H 0.0676 0.6453 0.4790
H11 H 0.2284 0.6240 0.4215
H12 H 0.1426 0.5056 0.4394
C16 C -0.53231(11) 0.79197(10) 0.52427(6)
C17 C -0.66282(12) 0.88074(10) 0.55556(7)
C18 C -0.70213(13) 0.91390(11) 0.63480(7)
H13 H -0.7889 0.9766 0.6548
C19 C -0.61673(14) 0.85686(13) 0.68498(7)
H14 H -0.6460 0.8778 0.7393
C20 C -0.48766(13) 0.76858(12) 0.65447(7)
H15 H -0.4282 0.7284 0.6882
C21 C -0.44469(12) 0.73847(11) 0.57491(7)
H16 H -0.3541 0.6805 0.5547
C22 C -0.54350(12) 0.83242(10) 0.38610(7)
C23 C -0.67299(12) 0.92786(10) 0.40525(7)
C24 C -0.72108(14) 1.00477(11) 0.34787(8)
H17 H -0.8064 1.0713 0.3620
C25 C -0.64608(15) 0.98563(12) 0.27035(8)
H18 H -0.6805 1.0376 0.2313
C26 C -0.52018(15) 0.88967(12) 0.25040(7)
H19 H -0.4689 0.8751 0.1973
C27 C -0.46857(13) 0.81457(11) 0.30768(7)
H20 H -0.3812 0.7503 0.2933
C28 C 0.61994(12) 0.57601(12) 0.12529(6)
C29 C 0.73046(13) 0.63907(13) 0.08394(7)
C30 C 0.87912(15) 0.58879(16) 0.08056(8)
H21 H 0.9533 0.6301 0.0503
C31 C 0.91979(16) 0.47929(18) 0.12079(9)
H22 H 1.0214 0.4449 0.1179
C32 C 0.81141(16) 0.42060(16) 0.16509(9)
H23 H 0.8386 0.3474 0.1945
C33 C 0.66256(14) 0.46736(13) 0.16732(8)
H24 H 0.5893 0.4251 0.1976
C34 C 0.42603(13) 0.69793(11) 0.06417(6)
C35 C 0.51763(14) 0.77677(11) 0.02090(7)
C36 C 0.47295(17) 0.85144(12) -0.03866(7)
H25 H 0.5367 0.9031 -0.0682
C37 C 0.33654(18) 0.85085(13) -0.05498(8)
H26 H 0.3058 0.9030 -0.0949
C38 C 0.24551(17) 0.77366(14) -0.01255(9)
H27 H 0.1517 0.7731 -0.0235
C39 C 0.28975(15) 0.69689(13) 0.04590(8)
H28 H 0.2267 0.6431 0.0738
Cl1 Cl -0.09619(4) 0.90407(4) 0.16658(2)
Cl2 Cl 0.10506(5) 1.08149(4) 0.10671(2)
C40 C 0.0468(2) 0.97937(18) 0.18233(9)
H29 H 0.0117 1.0306 0.2320
H30 H 0.1323 0.9119 0.1874
C41? C -0.0107(18) 1.0261(15) 0.1892(9)
H31? H 0.0492 0.9938 0.2273
H32? H -0.0877 1.1000 0.2144
loop_
_geom_bond_atom_site_label_1
_geom_bond_atom_site_label_2
_geom_bond_site_symmetry_1
_geom_bond_site_symmetry_2
S1 O1 1_555 1_555
S2 C17 1_555 1_555
S3 C29 1_555 1_555
O2 S1 1_555 1_555
N1 C4 1_555 1_555
N2 C10 1_555 1_555
C1 S1 1_555 1_555
C2 C1 1_555 1_555
H1 C2 1_555 1_555
C3 C2 1_555 1_555
H2 C3 1_555 1_555
C4 C3 1_555 1_555
C5 C4 1_555 1_555
H3 C5 1_555 1_555
C6 C1 1_555 1_555
C7 C6 1_555 1_555
C8 C7 1_555 1_555
C9 C8 1_555 1_555
H4 C9 1_555 1_555
C10 C9 1_555 1_555
C11 C10 1_555 1_555
H5 C11 1_555 1_555
C12 C11 1_555 1_555
H6 C12 1_555 1_555
C13 S1 1_555 1_555
C14 C7 1_555 1_555
H7 C14 1_555 1_555
H8 C14 1_555 1_555
H9 C14 1_555 1_555
C15 C7 1_555 1_555
H10 C15 1_555 1_555
H11 C15 1_555 1_555
H12 C15 1_555 1_555
C16 N1 1_555 1_555
C17 C16 1_555 1_555
C18 C17 1_555 1_555
H13 C18 1_555 1_555
C19 C18 1_555 1_555
H14 C19 1_555 1_555
C20 C19 1_555 1_555
H15 C20 1_555 1_555
C21 C16 1_555 1_555
H16 C21 1_555 1_555
C22 N1 1_555 1_555
C23 S2 1_555 1_555
C24 C23 1_555 1_555
H17 C24 1_555 1_555
C25 C24 1_555 1_555
H18 C25 1_555 1_555
C26 C25 1_555 1_555
H19 C26 1_555 1_555
C27 C22 1_555 1_555
H20 C27 1_555 1_555
C28 N2 1_555 1_555
C29 C28 1_555 1_555
C30 C29 1_555 1_555
H21 C30 1_555 1_555
C31 C30 1_555 1_555
H22 C31 1_555 1_555
C32 C31 1_555 1_555
H23 C32 1_555 1_555
C33 C28 1_555 1_555
H24 C33 1_555 1_555
C34 N2 1_555 1_555
C35 S3 1_555 1_555
C36 C35 1_555 1_555
H25 C36 1_555 1_555
C37 C36 1_555 1_555
H26 C37 1_555 1_555
C38 C37 1_555 1_555
H27 C38 1_555 1_555
C39 C34 1_555 1_555
H28 C39 1_555 1_555
Cl1 C40 1_555 1_555
Cl2 C40 1_555 1_555
C40 H29 1_555 1_555
H30 C40 1_555 1_555
C5 C6 1_555 1_555
C8 C13 1_555 1_555
C12 C13 1_555 1_555
C20 C21 1_555 1_555
C22 C23 1_555 1_555
C26 C27 1_555 1_555
C32 C33 1_555 1_555
C34 C35 1_555 1_555
C38 C39 1_555 1_555

#END
