
#######################################################################
#
#                 Cambridge Crystallographic Data Centre
#                                CCDC 
#
#######################################################################
#
# If this CIF has been generated from an entry in the Cambridge 
# Structural Database, then it will include bibliographic, chemical, 
# crystal, experimental, refinement or atomic coordinate data resulting 
# from the CCDC's data processing and validation procedures.
#
#######################################################################

data_VEJFUN
_chemical_formula_moiety         
'C16 H36 N1 1+,C60 H44 N4 S16,Cl1 1-,2(C1 H2 Cl2),C1 H1 Cl3'
_chemical_name_systematic        
'Tetra-n-butylammonium (2-(14,22,30-tris(1,3-benzodithiol-2-ylidene)-2,2,10,10,18,18,26,26-octamethyl-5,7,13,15,21,23,29,31-octathia-33,34,35,36-tetraazanonacyclo-[25.5.1.1^3,9^.1^11,17^.1^19,25^.0^4,8^.0^12,16^.0^20,24^.0^28,32^]-hexatriaconta-1(32),3,8,11,16,19,24,27-octaen-6-ylidene)-1,3-benzodithiol-1-ium) chloride chloroform dichloromethane solvate'
_symmetry_cell_setting           orthorhombic
_symmetry_space_group_name_H-M   'P n n m'
_symmetry_Int_Tables_number      58
_space_group_name_Hall           '-P 2 2n'
loop_
_symmetry_equiv_pos_site_id
_symmetry_equiv_pos_as_xyz
1 x,y,z
2 -x,-y,z
3 1/2-x,1/2+y,1/2-z
4 1/2+x,1/2-y,1/2-z
5 -x,-y,-z
6 x,y,-z
7 1/2+x,1/2-y,1/2+z
8 1/2-x,1/2+y,1/2+z
_cell_length_a                   29.858(6)
_cell_length_b                   14.168(3)
_cell_length_c                   21.609(4)
_cell_angle_alpha                90
_cell_angle_beta                 90
_cell_angle_gamma                90
_cell_volume                     9141.22
_exptl_crystal_colour            colorless
_exptl_crystal_description       plate
_cell_formula_units_Z            4
loop_
_atom_site_label
_atom_site_type_symbol
_atom_site_fract_x
_atom_site_fract_y
_atom_site_fract_z
Cl1 Cl 0.18110(12) 0.1436(3) 0.0000
N4 N 0.2414(3) 0.8040(7) 0.0000
C33 C 0.2874(5) 0.8279(12) 0.0243(6)
H25 H 0.2934 0.7874 0.0607
C34 C 0.3269(6) 0.8173(15) -0.0209(7)
H27 H 0.3312 0.7499 -0.0313
C35 C 0.3694(5) 0.8566(13) 0.0095(18)
H28 H 0.3709 0.8361 0.0533
C36 C 0.3684(7) 0.9648(13) 0.006(4)
H32 H 0.3972 0.9900 -0.0202
C37 C 0.2426(5) 0.7071(10) -0.0305(6)
H33 H 0.2129 0.6954 -0.0494
H34 H 0.2647 0.7093 -0.0646
C38 C 0.2540(7) 0.6225(10) 0.0107(9)
H36 H 0.2299 0.6126 0.0415
C39 C 0.2590(8) 0.5341(10) 0.0299(7)
H37 H 0.2855 0.5407 0.0571
H38 H 0.2321 0.5263 0.0563
C40 C 0.2646(7) 0.4477(10) 0.0123(10)
C42 C 0.1831(7) 0.8675(18) 0.0812(12)
H44 H 0.1594 0.8753 0.0496
H45 H 0.1798 0.8042 0.1000
C44 C 0.1340(6) 0.9277(18) 0.1662(11)
H48 H 0.1096 0.9188 0.1365
H50 H 0.1367 0.8715 0.1924
C45 C 0.2069(5) 0.8056(12) 0.0501(7)
H51 H 0.1778 0.7851 0.0327
H52 H 0.2155 0.7599 0.0826
C47 C 0.1626(8) 0.8998(17) 0.1263(12)
H55 H 0.1709 0.8567 0.1604
H56 H 0.1358 0.8734 0.1057
H57 H 0.1215 0.9888 0.1708
C33E C 0.2874(5) 0.8279(12) -0.0243(6)
H25E H 0.2934 0.7874 -0.0607
C34E C 0.3269(6) 0.8173(15) 0.0209(7)
H27E H 0.3312 0.7499 0.0313
C35E C 0.3694(5) 0.8566(13) -0.0095(18)
H28E H 0.3709 0.8361 -0.0533
C36E C 0.3684(7) 0.9648(13) -0.006(4)
H32E H 0.3972 0.9900 0.0202
C37E C 0.2426(5) 0.7071(10) 0.0305(6)
H33E H 0.2129 0.6954 0.0494
H34E H 0.2647 0.7093 0.0646
C38E C 0.2540(7) 0.6225(10) -0.0107(9)
H36E H 0.2299 0.6126 -0.0415
C39E C 0.2590(8) 0.5341(10) -0.0299(7)
H37E H 0.2855 0.5407 -0.0571
H38E H 0.2321 0.5263 -0.0563
C40E C 0.2646(7) 0.4477(10) -0.0123(10)
C42E C 0.1831(7) 0.8675(18) -0.0812(12)
H44E H 0.1594 0.8753 -0.0496
H45E H 0.1798 0.8042 -0.1000
C44E C 0.1340(6) 0.9277(18) -0.1662(11)
H48E H 0.1096 0.9188 -0.1365
H50E H 0.1367 0.8715 -0.1924
C45E C 0.2069(5) 0.8056(12) -0.0501(7)
H51E H 0.1778 0.7851 -0.0327
H52E H 0.2155 0.7599 -0.0826
C47E C 0.1626(8) 0.8998(17) -0.1263(12)
H55E H 0.1709 0.8567 -0.1604
H56E H 0.1358 0.8734 -0.1057
H57E H 0.1215 0.9888 -0.1708
Cl4 Cl 0.0088(3) 0.2942(7) 0.2064(5)
Cl5 Cl -0.0855(3) 0.3033(8) 0.2268(6)
Cl6 Cl -0.0269(5) 0.3829(13) 0.3150(7)
C50 C -0.0353(4) 0.390(2) 0.2260(10)
C1 C 0.1888(3) 0.3613(8) -0.1326(5)
C2 C 0.2213(4) 0.4202(7) -0.1596(5)
C3 C 0.2622(3) 0.3757(8) -0.1577(4)
C4 C 0.2570(3) 0.2866(8) -0.1297(4)
C5 C 0.2796(3) 0.5443(9) -0.1943(4)
C6 C 0.3015(3) 0.6241(8) -0.2027(5)
C7 C 0.3634(4) 0.7489(8) -0.1910(5)
C8 C 0.3243(3) 0.7995(8) -0.1929(5)
C9 C 0.3229(4) 0.8967(9) -0.1835(5)
H1 H 0.2958 0.9313 -0.1865
C10 C 0.3646(5) 0.9418(10) -0.1690(5)
H2 H 0.3650 1.0080 -0.1618
C11 C 0.4049(5) 0.8911(10) -0.1653(5)
H3 H 0.4322 0.9219 -0.1551
C12 C 0.4039(4) 0.7945(10) -0.1770(5)
H4 H 0.4309 0.7590 -0.1755
C13 C 0.2909(3) 0.2080(8) -0.1164(5)
C14 C 0.2679(3) 0.1100(7) -0.1213(5)
H5 H 0.2412 0.1091 -0.0950
H6 H 0.2592 0.0982 -0.1643
H7 H 0.2888 0.0609 -0.1076
C15 C 0.3295(3) 0.2114(7) -0.1649(5)
H8 H 0.3509 0.1605 -0.1564
H9 H 0.3171 0.2033 -0.2066
H10 H 0.3449 0.2724 -0.1623
C16 C 0.1404(3) 0.3756(8) -0.1169(5)
C17 C 0.1188(3) 0.4434(8) -0.1654(5)
H11 H 0.1196 0.4139 -0.2064
H12 H 0.0877 0.4562 -0.1537
H13 H 0.1356 0.5028 -0.1664
C18 C 0.1149(3) 0.2816(8) -0.1200(5)
H14 H 0.1271 0.2379 -0.0892
H15 H 0.0831 0.2927 -0.1114
H16 H 0.1182 0.2542 -0.1614
C19 C 0.1363(3) 0.4197(9) -0.0522(5)
C20 C 0.1286(3) 0.5089(8) -0.0329(5)
C21 C 0.0985(6) 0.6718(13) 0.0000
C22 C 0.0691(5) 0.7485(13) 0.0000
C23 C 0.0029(4) 0.8479(8) -0.0336(6)
C24 C -0.0314(4) 0.8919(9) -0.0660(8)
H17 H -0.0317 0.8952 -0.1099
C25 C -0.0655(5) 0.9310(9) -0.0300(7)
H18 H -0.0901 0.9593 -0.0507
C26 C 0.3108(4) 0.2171(7) -0.0519(5)
C27 C 0.3532(3) 0.2381(9) -0.0321(5)
C28 C 0.4351(6) 0.2776(16) 0.0000
C29 C 0.4763(7) 0.3165(17) 0.0000
C30 C 0.5472(4) 0.4040(13) 0.0325(6)
C31 C 0.5812(5) 0.4561(14) 0.0670(8)
H19 H 0.5803 0.4614 0.1108
C32 C 0.6157(5) 0.4987(12) 0.0310(7)
H20 H 0.6398 0.5285 0.0520
N1 N 0.2860(4) 0.2069(9) 0.0000
H21 H 0.2571 0.1950 0.0000
N2 N 0.2127(3) 0.2826(6) -0.1157(4)
H22 H 0.2004 0.2337 -0.0973
N3 N 0.1405(3) 0.3663(8) 0.0000
H23 H 0.1453 0.3050 0.0000
S1 S 0.30827(9) 0.4341(2) -0.19116(13)
S2 S 0.22005(9) 0.5350(2) -0.19139(13)
S3 S 0.27525(10) 0.7355(2) -0.21104(14)
S4 S 0.36045(10) 0.6284(2) -0.20800(15)
S5 S 0.40605(11) 0.2502(3) -0.06942(16)
S6 S 0.50531(12) 0.3398(4) 0.06855(18)
S7 S 0.11849(10) 0.6194(2) -0.06908(14)
S8 S 0.04925(11) 0.7964(2) -0.06807(18)
C1E C 0.1888(3) 0.3613(8) 0.1326(5)
C2E C 0.2213(4) 0.4202(7) 0.1596(5)
C3E C 0.2622(3) 0.3757(8) 0.1577(4)
C4E C 0.2570(3) 0.2866(8) 0.1297(4)
C5E C 0.2796(3) 0.5443(9) 0.1943(4)
C6E C 0.3015(3) 0.6241(8) 0.2027(5)
C7E C 0.3634(4) 0.7489(8) 0.1910(5)
C8E C 0.3243(3) 0.7995(8) 0.1929(5)
C9E C 0.3229(4) 0.8967(9) 0.1835(5)
H1E H 0.2958 0.9313 0.1865
C10E C 0.3646(5) 0.9418(10) 0.1690(5)
H2E H 0.3650 1.0080 0.1618
C11E C 0.4049(5) 0.8911(10) 0.1653(5)
H3E H 0.4322 0.9219 0.1551
C12E C 0.4039(4) 0.7945(10) 0.1770(5)
H4E H 0.4309 0.7590 0.1755
C13E C 0.2909(3) 0.2080(8) 0.1164(5)
C14E C 0.2679(3) 0.1100(7) 0.1213(5)
H5E H 0.2412 0.1091 0.0950
H6E H 0.2592 0.0982 0.1643
H7E H 0.2888 0.0609 0.1076
C15E C 0.3295(3) 0.2114(7) 0.1649(5)
H8E H 0.3509 0.1605 0.1564
H9E H 0.3171 0.2033 0.2066
H10E H 0.3449 0.2724 0.1623
C16E C 0.1404(3) 0.3756(8) 0.1169(5)
C17E C 0.1188(3) 0.4434(8) 0.1654(5)
H11E H 0.1196 0.4139 0.2064
H12E H 0.0877 0.4562 0.1537
H13E H 0.1356 0.5028 0.1664
C18E C 0.1149(3) 0.2816(8) 0.1200(5)
H14E H 0.1271 0.2379 0.0892
H15E H 0.0831 0.2927 0.1114
H16E H 0.1182 0.2542 0.1614
C19E C 0.1363(3) 0.4197(9) 0.0522(5)
C20E C 0.1286(3) 0.5089(8) 0.0329(5)
C23E C 0.0029(4) 0.8479(8) 0.0336(6)
C24E C -0.0314(4) 0.8919(9) 0.0660(8)
H17E H -0.0317 0.8952 0.1099
C25E C -0.0655(5) 0.9310(9) 0.0300(7)
H18E H -0.0901 0.9593 0.0507
C26E C 0.3108(4) 0.2171(7) 0.0519(5)
C27E C 0.3532(3) 0.2381(9) 0.0321(5)
C30E C 0.5472(4) 0.4040(13) -0.0325(6)
C31E C 0.5812(5) 0.4561(14) -0.0670(8)
H19E H 0.5803 0.4614 -0.1108
C32E C 0.6157(5) 0.4987(12) -0.0310(7)
H20E H 0.6398 0.5285 -0.0520
N2E N 0.2127(3) 0.2826(6) 0.1157(4)
H22E H 0.2004 0.2337 0.0973
S1E S 0.30827(9) 0.4341(2) 0.19116(13)
S2E S 0.22005(9) 0.5350(2) 0.19139(13)
S3E S 0.27525(10) 0.7355(2) 0.21104(14)
S4E S 0.36045(10) 0.6284(2) 0.20800(15)
S5E S 0.40605(11) 0.2502(3) 0.06942(16)
S6E S 0.50531(12) 0.3398(4) -0.06855(18)
S7E S 0.11849(10) 0.6194(2) 0.06908(14)
S8E S 0.04925(11) 0.7964(2) 0.06807(18)
H24? H 0.2869 0.8941 0.0390
H26? H 0.3205 0.8522 0.0596
H29? H 0.3962 0.8323 0.0122
H30? H 0.3630 0.9845 0.0367
H31? H 0.3444 0.9888 -0.0327
H35? H 0.2823 0.6346 -0.0333
H39? H 0.2359 0.4331 -0.0321
H40? H 0.2744 0.3935 0.0124
H41? H 0.2870 0.4614 0.0441
C41? C 0.2292(6) 0.8758(11) -0.0505(6)
H42? H 0.2521 0.8716 -0.0834
H43? H 0.2315 0.9397 -0.0322
C43? C 0.1781(8) 0.9434(19) -0.1311(13)
H46? H 0.1781 1.0067 0.1117
H47? H 0.2037 0.9401 -0.1602
H49? H 0.1277 0.9829 0.1922
C46? C 0.2012(8) 0.9031(14) 0.0794(13)
H53? H 0.2292 0.9219 -0.1006
H54? H 0.1946 0.9504 0.0470
C48? C 0.1514(10) 0.992(2) 0.1521(14)
H58? H 0.1734 1.0086 0.1838
H59? H 0.1516 1.0391 0.1192
Cl2? Cl -0.0229(4) 0.6009(7) -0.0132(10)
Cl3? Cl -0.0020(4) 0.5470(7) 0.0708(6)
C49? C 0.0176(9) 0.5350(13) -0.0142(11)
Cl7? Cl 0.0304(5) 0.0662(10) 0.2611(8)
C51? C 0.0540(13) -0.0616(18) 0.271(2)
Cl8? Cl 0.4950(6) 1.0461(9) -0.0648(8)
C52? C 0.5051(9) 1.0738(18) 0.0203(15)
loop_
_geom_bond_atom_site_label_1
_geom_bond_atom_site_label_2
_geom_bond_site_symmetry_1
_geom_bond_site_symmetry_2
C1 C2 1_555 1_555
C2 C3 1_555 1_555
C3 C4 1_555 1_555
C4 C13 1_555 1_555
C5 C6 1_555 1_555
C6 S3 1_555 1_555
C7 C8 1_555 1_555
C8 C9 1_555 1_555
C9 H1 1_555 1_555
C10 C9 1_555 1_555
H2 C10 1_555 1_555
C11 C10 1_555 1_555
H3 C11 1_555 1_555
C12 C7 1_555 1_555
H4 C12 1_555 1_555
C13 C14 1_555 1_555
C14 H5 1_555 1_555
H6 C14 1_555 1_555
H7 C14 1_555 1_555
C15 C13 1_555 1_555
H8 C15 1_555 1_555
H9 C15 1_555 1_555
H10 C15 1_555 1_555
C16 C1 1_555 1_555
C17 C16 1_555 1_555
H11 C17 1_555 1_555
H12 C17 1_555 1_555
H13 C17 1_555 1_555
C18 C16 1_555 1_555
H14 C18 1_555 1_555
H15 C18 1_555 1_555
H16 C18 1_555 1_555
C19 C16 1_555 1_555
C20 C19 1_555 1_555
C21 C22 1_555 1_555
C22 S8 1_555 1_555
C23 C24 1_555 1_555
C24 H17 1_555 1_555
C25 C24 1_555 1_555
H18 C25 1_555 1_555
C26 C13 1_555 1_555
C27 C26 1_555 1_555
C28 C29 1_555 1_555
C29 S6 1_555 1_555
C30 C31 1_555 1_555
C31 H19 1_555 1_555
C32 C31 1_555 1_555
H20 C32 1_555 1_555
N1 C26 1_555 1_555
H21 N1 1_555 1_555
N2 C1 1_555 1_555
H22 N2 1_555 1_555
N3 C19 1_555 1_555
H23 N3 1_555 1_555
S1 C3 1_555 1_555
S2 C2 1_555 1_555
S3 C8 1_555 1_555
S4 C6 1_555 1_555
S5 C27 1_555 1_555
S6 C30 1_555 1_555
S7 C20 1_555 1_555
S8 C23 1_555 1_555
N4 C33 1_555 1_555
C33 H25 1_555 1_555
C34 C33 1_555 1_555
H27 C34 1_555 1_555
C35 C34 1_555 1_555
H28 C35 1_555 1_555
C36 C35 1_555 1_555
H32 C36 1_555 1_555
C37 N4 1_555 1_555
H33 C37 1_555 1_555
H34 C37 1_555 1_555
C38 C37 1_555 1_555
H36 C38 1_555 1_555
C39 C38 1_555 1_555
H37 C39 1_555 1_555
H38 C39 1_555 1_555
C40 C39 1_555 1_555
C42 H44 1_555 1_555
H45 C42 1_555 1_555
C44 H48 1_555 1_555
H50 C44 1_555 1_555
C45 N4 1_555 1_555
H51 C45 1_555 1_555
H52 C45 1_555 1_555
C47 C42 1_555 1_555
H55 C47 1_555 1_555
H56 C47 1_555 1_555
H57 C44 1_555 1_555
Cl4 C50 1_555 1_555
Cl5 C50 1_555 1_555
Cl6 C50 1_555 1_555
C1E C2E 1_555 1_555
C2E C3E 1_555 1_555
C3E C4E 1_555 1_555
C4E C13E 1_555 1_555
C5E C6E 1_555 1_555
C6E S3E 1_555 1_555
C7E C8E 1_555 1_555
C8E C9E 1_555 1_555
C9E H1E 1_555 1_555
C10E C9E 1_555 1_555
H2E C10E 1_555 1_555
C11E C10E 1_555 1_555
H3E C11E 1_555 1_555
C12E C7E 1_555 1_555
H4E C12E 1_555 1_555
C13E C14E 1_555 1_555
C14E H5E 1_555 1_555
H6E C14E 1_555 1_555
H7E C14E 1_555 1_555
C15E C13E 1_555 1_555
H8E C15E 1_555 1_555
H9E C15E 1_555 1_555
H10E C15E 1_555 1_555
C16E C1E 1_555 1_555
C17E C16E 1_555 1_555
H11E C17E 1_555 1_555
H12E C17E 1_555 1_555
H13E C17E 1_555 1_555
C18E C16E 1_555 1_555
H14E C18E 1_555 1_555
H15E C18E 1_555 1_555
H16E C18E 1_555 1_555
C19E N3 1_555 1_555
C20E C20 1_555 1_555
C23E C23 1_555 1_555
C24E C23E 1_555 1_555
H17E C24E 1_555 1_555
C25E C25 1_555 1_555
H18E C25E 1_555 1_555
C26E N1 1_555 1_555
C27E C27 1_555 1_555
C30E C30 1_555 1_555
C31E C30E 1_555 1_555
H19E C31E 1_555 1_555
C32E C32 1_555 1_555
H20E C32E 1_555 1_555
N2E C1E 1_555 1_555
H22E N2E 1_555 1_555
S1E C3E 1_555 1_555
S2E C2E 1_555 1_555
S3E C8E 1_555 1_555
S4E C6E 1_555 1_555
S5E C28 1_555 1_555
S6E C29 1_555 1_555
S7E C21 1_555 1_555
S8E C22 1_555 1_555
C33E N4 1_555 1_555
H25E C33E 1_555 1_555
C34E C33 1_555 1_555
H27E C34E 1_555 1_555
C35E C34 1_555 1_555
H28E C35E 1_555 1_555
C36E C35 1_555 1_555
H32E C36 1_555 1_555
C37E N4 1_555 1_555
H33E C37E 1_555 1_555
H34E C37E 1_555 1_555
C38E C37 1_555 1_555
H36E C38E 1_555 1_555
C39E C38 1_555 1_555
H37E C39E 1_555 1_555
H38E C39E 1_555 1_555
C40E C39 1_555 1_555
C42E H44E 1_555 1_555
H45E C42E 1_555 1_555
C44E H48E 1_555 1_555
H50E C44E 1_555 1_555
C45E N4 1_555 1_555
H51E C45E 1_555 1_555
H52E C45E 1_555 1_555
C47E C42E 1_555 1_555
H55E C47E 1_555 1_555
H56E C47E 1_555 1_555
H57E C44E 1_555 1_555
C4 N2 1_555 1_555
C5 S1 1_555 1_555
C5 S2 1_555 1_555
C7 S4 1_555 1_555
C11 C12 1_555 1_555
C21 S7 1_555 1_555
C28 S5 1_555 1_555
C33 C33E 1_555 1_555
C34 C33E 1_555 1_555
C34 C34E 1_555 1_555
C35 C34E 1_555 1_555
C35 C35E 1_555 1_555
C36 C35E 1_555 1_555
C36 C36E 1_555 1_555
H32 C36E 1_555 1_555
C37 C37E 1_555 1_555
C38 C37E 1_555 1_555
C38 C38E 1_555 1_555
C39 C38E 1_555 1_555
C39 C39E 1_555 1_555
C40 C39E 1_555 1_555
C40 C40E 1_555 1_555
C42 C45 1_555 1_555
C44 C47 1_555 1_555
C4E N2E 1_555 1_555
C5E S1E 1_555 1_555
C5E S2E 1_555 1_555
C7E S4E 1_555 1_555
C11E C12E 1_555 1_555
C13E C26E 1_555 1_555
C16E C19E 1_555 1_555
C19E C20E 1_555 1_555
C20E S7E 1_555 1_555
C23E S8E 1_555 1_555
C24E C25E 1_555 1_555
C26E C27E 1_555 1_555
C27E S5E 1_555 1_555
C30E S6E 1_555 1_555
C31E C32E 1_555 1_555
C33E C34E 1_555 1_555
C34E C35E 1_555 1_555
C35E C36E 1_555 1_555
C36E H32E 1_555 1_555
C37E C38E 1_555 1_555
C38E C39E 1_555 1_555
C39E C40E 1_555 1_555
C42E C45E 1_555 1_555
C44E C47E 1_555 1_555

#END
