
#######################################################################
#
#                 Cambridge Crystallographic Data Centre
#                                CCDC 
#
#######################################################################
#
# If this CIF has been generated from an entry in the Cambridge 
# Structural Database, then it will include bibliographic, chemical, 
# crystal, experimental, refinement or atomic coordinate data resulting 
# from the CCDC's data processing and validation procedures.
#
#######################################################################

data_VEJFAR
_chemical_name_common            'FD-594 octaacetate'
_chemical_formula_moiety         'C63 H72 O28'
_chemical_name_systematic        
(3R,6S,7S)-12-(3-O-Acetyl-4-O-(3-O-acetyl-4-O-(4-O-acetyl-2,6-dideoxy-3-O-methyl-\b-D-arabino-hexopyranosyl)-2,6-dideoxy-\b-D-arabino-hexopyranosyl)-2,6-dideoxy-\b-D-arabino-hexopyranosyl)-6,7,13,15,16-pentaacetoxy-3-n-butyl-8-methoxy-1H,14H-3,4,6,7-tetrahydro-2,9-dioxahexaphene-1,14-dione
_chemical_properties_biological  
'FD-564 is a cytotoxic antibiotic with activity against several tumour lines and antibacterial activity against gram-positive bacteria'
_symmetry_cell_setting           monoclinic
_symmetry_space_group_name_H-M   'C 2'
_symmetry_Int_Tables_number      5
_space_group_name_Hall           'C 2y'
loop_
_symmetry_equiv_pos_site_id
_symmetry_equiv_pos_as_xyz
1 x,y,z
2 -x,y,-z
3 1/2+x,1/2+y,z
4 1/2-x,1/2+y,-z
_cell_length_a                   37.507(3)
_cell_length_b                   8.447(3)
_cell_length_c                   24.579(3)
_cell_angle_alpha                90
_cell_angle_beta                 117.213(6)
_cell_angle_gamma                90
_cell_volume                     6925.22
_exptl_crystal_description       prism
_cell_formula_units_Z            4
_exptl_crystal_recrystallization_method chloroform/methanol
loop_
_atom_site_label
_atom_site_type_symbol
_atom_site_fract_x
_atom_site_fract_y
_atom_site_fract_z
O1 O -0.2323(1) 0.2755(5) 0.3921(2)
O2 O -0.3067(1) 0.1740(5) 0.4425(2)
O3 O -0.3359(1) 0.3992(6) 0.4478(2)
O4 O -0.2398(2) 0.3002(5) 0.5521(2)
O5 O -0.1645(1) 0.2935(5) 0.4424(1)
O6 O -0.0932(1) 0.0797(5) 0.4059(2)
O7 O -0.1850(1) 0.3980(7) 0.3188(2)
O8 O -0.1759(3) 0.6294(10) 0.3688(4)
O9 O -0.0731(1) 0.1164(5) 0.3323(1)
O10 O 0.0269(1) 0.0868(5) 0.3453(1)
O11 O -0.0349(1) -0.1747(5) 0.4083(1)
O12 O -0.0731(2) -0.3634(7) 0.3504(2)
O13 O 0.0629(1) -0.1242(5) 0.3401(1)
O14 O 0.0534(1) -0.2335(5) 0.2297(2)
O15 O 0.1020(2) -0.4069(7) 0.2795(3)
O16 O 0.1460(1) 0.1712(5) 0.2346(1)
O17 O 0.0879(1) -0.2348(5) 0.1536(2)
O18 O 0.0986(1) -0.1623(5) 0.0562(1)
O19 O 0.1531(2) -0.3098(7) 0.1045(3)
O20 O 0.1941(1) 0.3243(5) 0.1982(2)
O21 O 0.1812(1) 0.3753(4) 0.0487(1)
O22 O 0.2423(1) 0.4812(6) 0.0836(2)
O23 O 0.2322(1) 0.0011(5) 0.1088(1)
O24 O 0.2711(2) -0.0731(8) 0.0677(3)
O25 O 0.0709(1) 0.0082(5) -0.0477(1)
O26 O 0.0573(2) -0.2410(9) -0.0819(2)
O27 O 0.0790(1) -0.1051(5) -0.2069(1)
O28 O 0.0417(1) 0.0156(6) -0.1732(1)
C1 C -0.2679(2) 0.2060(8) 0.3887(3)
C2 C -0.2731(2) 0.2580(7) 0.4443(3)
C3 C -0.2366(2) 0.2207(7) 0.5035(3)
C4 C -0.1989(1) 0.2794(7) 0.5015(2)
C5 C -0.1972(1) 0.2249(7) 0.4450(2)
C6 C -0.3027(2) 0.2637(11) 0.3295(3)
C7 C -0.3362(2) 0.2573(9) 0.4457(3)
C8 C -0.3672(2) 0.1526(10) 0.4480(4)
C9 C -0.2441(3) 0.2139(10) 0.5942(3)
C10 C -0.0876(2) 0.1945(8) 0.3677(2)
C11 C -0.1267(2) 0.2688(8) 0.3252(2)
C12 C -0.1468(2) 0.3412(8) 0.3612(2)
C13 C -0.1504(1) 0.2187(7) 0.4033(2)
C14 C -0.1090(2) 0.1477(9) 0.4437(2)
C15 C -0.1088(2) 0.0174(12) 0.4860(3)
C16 C -0.1971(3) 0.5429(13) 0.3270(4)
C17 C -0.2379(3) 0.5755(18) 0.2804(4)
C18 C 0.0239(1) -0.0721(7) 0.3266(2)
C19 C 0.0098(1) -0.1706(7) 0.3630(2)
C20 C -0.0298(1) -0.1115(7) 0.3577(2)
C21 C -0.0317(1) 0.0678(7) 0.3615(2)
C22 C -0.0120(2) 0.1527(7) 0.3277(2)
C23 C -0.0062(2) 0.3276(9) 0.3420(3)
C24 C -0.0589(2) -0.2966(8) 0.3985(3)
C25 C -0.0617(2) -0.3430(9) 0.4556(3)
C26 C 0.0813(1) -0.0451(7) 0.3102(2)
C27 C 0.0788(1) -0.1069(7) 0.2568(2)
C28 C 0.1007(1) -0.0381(7) 0.2287(2)
C29 C 0.1227(1) 0.0943(7) 0.2563(2)
C30 C 0.1246(2) 0.1622(8) 0.3095(2)
C31 C 0.1036(2) 0.0900(8) 0.3362(2)
C32 C 0.0685(2) -0.3832(9) 0.2425(3)
C33 C 0.0371(2) -0.4973(12) 0.2044(4)
C34 C 0.1016(1) -0.1034(7) 0.1741(2)
C35 C 0.1208(1) -0.0011(6) 0.1465(2)
C36 C 0.1432(1) 0.1271(6) 0.1794(2)
C37 C 0.1678(1) 0.2148(6) 0.1612(2)
C38 C 0.1799(3) 0.4561(9) 0.2167(4)
C39 C 0.1676(1) 0.1773(6) 0.1065(2)
C40 C 0.1414(1) 0.0591(6) 0.0674(2)
C41 C 0.1203(1) -0.0328(6) 0.0896(2)
C42 C 0.1184(2) -0.3049(9) 0.0718(3)
C43 C 0.0887(3) -0.4388(10) 0.0418(4)
C44 C 0.1989(1) 0.2464(6) 0.0915(2)
C45 C 0.2135(1) 0.1215(6) 0.0621(2)
C46 C 0.1784(1) 0.0560(5) 0.0059(2)
C47 C 0.1422(1) 0.0345(6) 0.0079(2)
C48 C 0.2073(2) 0.4874(7) 0.0498(2)
C49 C 0.1857(2) 0.6145(8) 0.0042(3)
C50 C 0.2620(2) -0.0817(9) 0.1089(3)
C51 C 0.2800(2) -0.1922(10) 0.1613(3)
C52 C 0.1812(1) 0.0296(5) -0.0473(2)
C53 C 0.1484(1) -0.0119(6) -0.1005(2)
C54 C 0.1105(1) -0.0162(6) -0.1015(2)
C55 C 0.1080(1) 0.0038(6) -0.0471(2)
C56 C 0.0467(2) -0.1166(14) -0.0690(3)
C57 C 0.0058(2) -0.0730(2) -0.0759(3)
C58 C 0.0744(1) -0.0346(7) -0.1615(2)
C59 C 0.1187(2) -0.1698(7) -0.1950(2)
C60 C 0.1502(2) -0.0512(7) -0.1593(2)
C61 C 0.1241(2) -0.3312(8) -0.1660(3)
C62 C 0.0929(3) -0.4506(10) -0.2013(3)
C63 C 0.0993(4) -0.6095(11) -0.1706(5)
H1 H -0.2660 0.0880 0.3881
H2 H -0.2785 0.3744 0.4419
H3 H -0.2347 0.1039 0.5109
H4 H -0.1983 0.3965 0.5029
H5 H -0.1750 0.2400 0.5379
H6 H -0.1949 0.1069 0.4451
H7 H -0.2987 0.2286 0.2946
H8 H -0.3038 0.3796 0.3298
H9 H -0.3278 0.2200 0.3259
H10 H -0.3603 0.0418 0.4453
H11 H -0.3933 0.1770 0.4136
H12 H -0.3684 0.1694 0.4865
H13 H -0.2450 0.2842 0.6253
H14 H -0.2213 0.1413 0.6137
H15 H -0.2690 0.1529 0.5747
H16 H -0.0682 0.2775 0.3934
H17 H -0.1446 0.1877 0.2967
H18 H -0.1222 0.3521 0.3008
H19 H -0.1302 0.4318 0.3862
H20 H -0.1694 0.1334 0.3787
H21 H -0.0907 0.2341 0.4688
H22 H -0.0813 -0.0207 0.5105
H23 H -0.1258 -0.0702 0.4618
H24 H -0.1192 0.0586 0.5132
H25 H -0.2478 0.4856 0.2521
H26 H -0.2380 0.6710 0.2576
H27 H -0.2552 0.5917 0.3000
H28 H 0.0054 -0.0824 0.2818
H29 H 0.0302 -0.1688 0.4065
H30 H 0.0067 -0.2815 0.3486
H31 H -0.0521 -0.1491 0.3184
H32 H -0.0188 0.1016 0.4054
H33 H -0.0289 0.1383 0.2827
H34 H 0.0061 0.3766 0.3186
H35 H 0.0113 0.3424 0.3859
H36 H -0.0322 0.3772 0.3309
H37 H -0.0447 -0.2729 0.4892
H38 H -0.0527 -0.4527 0.4663
H39 H -0.0896 -0.3336 0.4483
H40 H 0.1399 0.2552 0.3267
H41 H 0.1045 0.1328 0.3724
H42 H 0.0122 -0.4402 0.1791
H43 H 0.0324 -0.5723 0.2309
H44 H 0.0458 -0.5551 0.1780
H45 H 0.2025 0.5236 0.2430
H46 H 0.1657 0.4209 0.2396
H47 H 0.1615 0.5162 0.1807
H48 H 0.0619 -0.3946 0.0176
H49 H 0.0886 -0.5088 0.0735
H50 H 0.0967 -0.4992 0.0151
H51 H 0.2219 0.2867 0.1296
H52 H 0.2336 0.1684 0.0507
H53 H 0.1569 0.5909 -0.0164
H54 H 0.1958 0.6194 -0.0261
H55 H 0.1901 0.7166 0.0253
H56 H 0.2678 -0.1758 0.1885
H57 H 0.3089 -0.1725 0.1838
H58 H 0.2754 -0.3014 0.1462
H59 H 0.2065 0.0404 -0.0470
H60 H 0.0064 0.0356 -0.0615
H61 H -0.0016 -0.1458 -0.0517
H62 H -0.0140 -0.0805 -0.1191
H63 H 0.1187 -0.1835 -0.2354
H64 H 0.1459 0.0462 -0.1839
H65 H 0.1769 -0.0943 -0.1498
H66 H 0.1505 -0.3733 -0.1591
H67 H 0.1249 -0.3184 -0.1254
H68 H 0.0923 -0.4648 -0.2417
H69 H 0.0665 -0.4091 -0.2084
H70 H 0.0774 -0.6809 -0.1962
H71 H 0.0997 -0.5971 -0.1307
H72 H 0.1249 -0.6540 -0.1649
loop_
_geom_bond_atom_site_label_1
_geom_bond_atom_site_label_2
_geom_bond_site_symmetry_1
_geom_bond_site_symmetry_2
O1 C1 1_555 1_555
O2 C2 1_555 1_555
O3 C7 1_555 1_555
O4 C3 1_555 1_555
O5 C5 1_555 1_555
O6 C10 1_555 1_555
O7 C12 1_555 1_555
O8 C16 1_555 1_555
O9 C10 1_555 1_555
O10 C18 1_555 1_555
O11 C20 1_555 1_555
O12 C24 1_555 1_555
O13 C18 1_555 1_555
O14 C27 1_555 1_555
O15 C32 1_555 1_555
O16 C29 1_555 1_555
O17 C34 1_555 1_555
O18 C41 1_555 1_555
O19 C42 1_555 1_555
O20 C37 1_555 1_555
O21 C44 1_555 1_555
O22 C48 1_555 1_555
O23 C45 1_555 1_555
O24 C50 1_555 1_555
O25 C55 1_555 1_555
O26 C56 1_555 1_555
O27 C58 1_555 1_555
O28 C58 1_555 1_555
C1 C2 1_555 1_555
C2 C3 1_555 1_555
C3 C4 1_555 1_555
C4 C5 1_555 1_555
C5 O1 1_555 1_555
C6 C1 1_555 1_555
C7 O2 1_555 1_555
C8 C7 1_555 1_555
C9 O4 1_555 1_555
C10 C11 1_555 1_555
C11 C12 1_555 1_555
C12 C13 1_555 1_555
C13 O5 1_555 1_555
C14 O6 1_555 1_555
C15 C14 1_555 1_555
C16 O7 1_555 1_555
C17 C16 1_555 1_555
C18 C19 1_555 1_555
C19 C20 1_555 1_555
C20 C21 1_555 1_555
C21 O9 1_555 1_555
C22 O10 1_555 1_555
C23 C22 1_555 1_555
C24 O11 1_555 1_555
C25 C24 1_555 1_555
C26 O13 1_555 1_555
C27 C26 1_555 1_555
C28 C27 1_555 1_555
C29 C28 1_555 1_555
C30 C29 1_555 1_555
C31 C26 1_555 1_555
C32 O14 1_555 1_555
C33 C32 1_555 1_555
C34 C28 1_555 1_555
C35 C34 1_555 1_555
C36 O16 1_555 1_555
C37 C36 1_555 1_555
C38 O20 1_555 1_555
C39 C37 1_555 1_555
C40 C39 1_555 1_555
C41 C35 1_555 1_555
C42 O18 1_555 1_555
C43 C42 1_555 1_555
C44 C39 1_555 1_555
C45 C44 1_555 1_555
C46 C45 1_555 1_555
C47 C40 1_555 1_555
C48 O21 1_555 1_555
C49 C48 1_555 1_555
C50 O23 1_555 1_555
C51 C50 1_555 1_555
C52 C46 1_555 1_555
C53 C52 1_555 1_555
C54 C53 1_555 1_555
C55 C47 1_555 1_555
C56 O25 1_555 1_555
C57 C56 1_555 1_555
C58 C54 1_555 1_555
C59 O27 1_555 1_555
C60 C53 1_555 1_555
C61 C59 1_555 1_555
C62 C61 1_555 1_555
C63 C62 1_555 1_555
H1 C1 1_555 1_555
H2 C2 1_555 1_555
H3 C3 1_555 1_555
H4 C4 1_555 1_555
H5 C4 1_555 1_555
H6 C5 1_555 1_555
H7 C6 1_555 1_555
H8 C6 1_555 1_555
H9 C6 1_555 1_555
H10 C8 1_555 1_555
H11 C8 1_555 1_555
H12 C8 1_555 1_555
H13 C9 1_555 1_555
H14 C9 1_555 1_555
H15 C9 1_555 1_555
H16 C10 1_555 1_555
H17 C11 1_555 1_555
H18 C11 1_555 1_555
H19 C12 1_555 1_555
H20 C13 1_555 1_555
H21 C14 1_555 1_555
H22 C15 1_555 1_555
H23 C15 1_555 1_555
H24 C15 1_555 1_555
H25 C17 1_555 1_555
H26 C17 1_555 1_555
H27 C17 1_555 1_555
H28 C18 1_555 1_555
H29 C19 1_555 1_555
H30 C19 1_555 1_555
H31 C20 1_555 1_555
H32 C21 1_555 1_555
H33 C22 1_555 1_555
H34 C23 1_555 1_555
H35 C23 1_555 1_555
H36 C23 1_555 1_555
H37 C25 1_555 1_555
H38 C25 1_555 1_555
H39 C25 1_555 1_555
H40 C30 1_555 1_555
H41 C31 1_555 1_555
H42 C33 1_555 1_555
H43 C33 1_555 1_555
H44 C33 1_555 1_555
H45 C38 1_555 1_555
H46 C38 1_555 1_555
H47 C38 1_555 1_555
H48 C43 1_555 1_555
H49 C43 1_555 1_555
H50 C43 1_555 1_555
H51 C44 1_555 1_555
H52 C45 1_555 1_555
H53 C49 1_555 1_555
H54 C49 1_555 1_555
H55 C49 1_555 1_555
H56 C51 1_555 1_555
H57 C51 1_555 1_555
H58 C51 1_555 1_555
H59 C52 1_555 1_555
H60 C57 1_555 1_555
H61 C57 1_555 1_555
H62 C57 1_555 1_555
H63 C59 1_555 1_555
H64 C60 1_555 1_555
H65 C60 1_555 1_555
H66 C61 1_555 1_555
H67 C61 1_555 1_555
H68 C62 1_555 1_555
H69 C62 1_555 1_555
H70 C63 1_555 1_555
H71 C63 1_555 1_555
H72 C63 1_555 1_555
C13 C14 1_555 1_555
C21 C22 1_555 1_555
C30 C31 1_555 1_555
C35 C36 1_555 1_555
C40 C41 1_555 1_555
C46 C47 1_555 1_555
C54 C55 1_555 1_555
C59 C60 1_555 1_555

#END
