
#######################################################################
#
#                 Cambridge Crystallographic Data Centre
#                                CCDC 
#
#######################################################################
#
# If this CIF has been generated from an entry in the Cambridge 
# Structural Database, then it will include bibliographic, chemical, 
# crystal, experimental, refinement or atomic coordinate data resulting 
# from the CCDC's data processing and validation procedures.
#
#######################################################################

data_VEJFOH
_chemical_formula_moiety         
'C24 H52 N1 1+,C75 H55 N5 S20,Cl1 1-,2(C5 H12),C1 H2 Cl2'
_chemical_name_systematic        
'Tetra-n-hexylammonium (2-(14,22,30,38-tetrakis(1,3-benzodithiol-2-ylidene)-2,2,10,10,18,18,26,26,34,34-decamethyl-5,7,13,15,21,23,29,31,37,39-decathia-41,42,43,44,45-pentaazaundecacyclo-[33.5.1.1^3,9^.1^11,17^.1^19,25^.1^27,33^.0^4,8^.0^12,16^.0^20,24^.-0^28,32^.0^36,40^]-pentatetraconta-1(40),3,8,11,16,19,24,27,32,35-decaen-6-ylidene)-1,3-benzodithiol-1-ium) chloride pentane dichloromethane solvate'
_symmetry_cell_setting           orthorhombic
_symmetry_space_group_name_H-M   'P n m a'
_symmetry_Int_Tables_number      62
_space_group_name_Hall           '-P 2ac 2n'
loop_
_symmetry_equiv_pos_site_id
_symmetry_equiv_pos_as_xyz
1 x,y,z
2 1/2-x,-y,1/2+z
3 1/2+x,1/2-y,1/2-z
4 -x,1/2+y,-z
5 -x,-y,-z
6 1/2+x,y,1/2-z
7 1/2-x,1/2+y,1/2+z
8 x,1/2-y,z
_cell_length_a                   28.3045(9)
_cell_length_b                   24.6469(8)
_cell_length_c                   17.5652(6)
_cell_angle_alpha                90
_cell_angle_beta                 90
_cell_angle_gamma                90
_cell_volume                     12253.8
_cell_formula_units_Z            4
loop_
_atom_site_label
_atom_site_type_symbol
_atom_site_fract_x
_atom_site_fract_y
_atom_site_fract_z
Cl1 Cl 0.09702(7) 0.2500 0.11249(13)
N4 N 0.3088(2) 0.2478(11) 0.2478(4)
C41 C 0.2974(3) 0.2417(12) 0.3304(4)
H32 H 0.2763 0.2281 0.3457
C42 C 0.3402(3) 0.2411(10) 0.3839(4)
H34 H 0.3586 0.2075 0.3754
C43 C 0.3253(3) 0.2441(15) 0.4680(4)
H36 H 0.3038 0.2866 0.4791
H37 H 0.3074 0.2219 0.4762
C44 C 0.3661(3) 0.2424(10) 0.5235(4)
C45 C 0.3536(4) 0.2623(7) 0.6034(6)
H48 H 0.2806 0.3599 0.2384
H49 H 0.3296 0.4404 0.2253
H51 H 0.3286 0.3716 0.0941
C53 C 0.2627(3) 0.2535(17) 0.2057(5)
H59 H 0.2441 0.2172 0.2297
C54 C 0.2679(5) 0.2660(7) 0.1207(6)
H61 H 0.2642 0.3056 0.1130
C55 C 0.2324(5) 0.2366(7) 0.0707(5)
H62 H 0.2002 0.2522 0.0861
H63 H 0.2352 0.1972 0.0801
C56 C 0.2380(4) 0.2468(13) -0.0140(5)
H65 H 0.2467 0.2878 -0.0390
C57 C 0.1943(5) 0.2696(7) -0.0534(7)
H67 H 0.1664 0.2486 -0.0365
C58 C 0.1963(6) 0.2684(10) -0.1394(7)
C59 C 0.3417(9) 0.2942(8) 0.2313(19)
H71 H 0.3720 0.2883 0.2583
H72 H 0.3484 0.2955 0.1760
C60 C 0.3204(9) 0.3482(8) 0.2564(11)
H74 H 0.3276 0.3540 0.3110
C61 C 0.3387(10) 0.3969(9) 0.2109(11)
H75 H 0.3730 0.3920 0.2015
C62 C 0.3138(7) 0.4045(9) 0.1349(10)
H77 H 0.2800 0.4117 0.1449
C63 C 0.3329(7) 0.4497(9) 0.0849(10)
H79 H 0.3318 0.4842 0.1138
H80 H 0.3664 0.4420 0.0728
C64 C 0.3053(7) 0.4568(10) 0.0103(9)
H81 H 0.2739 0.4715 0.0214
H82 H 0.3224 0.4818 -0.0233
H83 H 0.3020 0.4215 -0.0149
C41G C 0.2974(3) 0.2583(12) 0.3304(4)
H32G H 0.2763 0.2719 0.3457
C42G C 0.3402(3) 0.2589(10) 0.3839(4)
H34G H 0.3586 0.2925 0.3754
C43G C 0.3253(3) 0.2559(15) 0.4680(4)
H36G H 0.3038 0.2134 0.4791
H37G H 0.3074 0.2781 0.4762
C44G C 0.3661(3) 0.2576(10) 0.5235(4)
C45G C 0.3536(4) 0.2377(7) 0.6034(6)
H48G H 0.2806 0.1401 0.2384
H49G H 0.3296 0.0596 0.2253
H51G H 0.3286 0.1284 0.0941
C53G C 0.2627(3) 0.2465(17) 0.2057(5)
H59G H 0.2441 0.2828 0.2297
C54G C 0.2679(5) 0.2340(7) 0.1207(6)
H61G H 0.2642 0.1944 0.1130
C55G C 0.2324(5) 0.2634(7) 0.0707(5)
H63G H 0.2352 0.3028 0.0801
C56G C 0.2380(4) 0.2532(13) -0.0140(5)
H65G H 0.2467 0.2122 -0.0390
C57G C 0.1943(5) 0.2304(7) -0.0534(7)
C58G C 0.1963(6) 0.2316(10) -0.1394(7)
C59G C 0.3417(9) 0.2058(8) 0.2313(19)
H71G H 0.3720 0.2117 0.2583
H72G H 0.3484 0.2045 0.1760
C60G C 0.3204(9) 0.1518(8) 0.2564(11)
H74G H 0.3276 0.1460 0.3110
C61G C 0.3387(10) 0.1031(9) 0.2109(11)
H75G H 0.3730 0.1080 0.2015
C62G C 0.3138(7) 0.0955(9) 0.1349(10)
H77G H 0.2800 0.0883 0.1449
C63G C 0.3329(7) 0.0503(9) 0.0849(10)
H79G H 0.3318 0.0158 0.1138
H80G H 0.3664 0.0580 0.0728
C64G C 0.3053(7) 0.0432(10) 0.0103(9)
H81G H 0.2739 0.0285 0.0214
H82G H 0.3224 0.0182 -0.0233
H83G H 0.3020 0.0785 -0.0149
C65 C 0.1990(4) 0.5929(5) 0.2724(7)
H84 H 0.2044 0.6197 0.3127
H85 H 0.1852 0.5600 0.2945
H86 H 0.1774 0.6080 0.2344
C66 C 0.2461(3) 0.5788(4) 0.2344(6)
H87 H 0.2668 0.5602 0.2715
H88 H 0.2404 0.5537 0.1913
C67 C 0.2704(3) 0.6299(5) 0.2055(6)
H89 H 0.2496 0.6482 0.1681
H90 H 0.2755 0.6551 0.2486
C68 C 0.3168(3) 0.6173(4) 0.1688(6)
H91 H 0.3115 0.5940 0.1237
H92 H 0.3368 0.5970 0.2051
C69 C 0.3424(4) 0.6691(5) 0.1444(6)
H93 H 0.3192 0.6960 0.1273
H94 H 0.3642 0.6607 0.1027
H95 H 0.3602 0.6837 0.1876
S1 S 0.21600(5) 0.14718(8) 0.43959(9)
S2 S 0.22096(6) 0.05711(8) 0.32593(10)
S3 S 0.31032(6) 0.00701(8) 0.41119(11)
S4 S 0.30752(6) 0.09527(8) 0.52554(10)
S5 S 0.07441(6) -0.00349(8) 0.26003(10)
S6 S -0.02546(6) 0.02262(8) 0.21952(10)
S7 S -0.06230(6) -0.04646(9) 0.35933(11)
S8 S 0.03502(6) -0.06404(9) 0.41529(10)
S9 S -0.03458(5) 0.18914(8) 0.30164(9)
S10 S -0.08646(6) 0.18964(8) 0.46566(10)
N1 N 0.14459(17) 0.1796(2) 0.2518(3)
H1 H 0.1260 0.1978 0.2208
N2 N 0.06487(17) 0.1275(2) 0.1318(3)
H2 H 0.0748 0.1554 0.1049
N3 N -0.0198(2) 0.2500 0.0960(4)
H3 H -0.0169 0.2500 0.0462
C1 C 0.1591(2) 0.1988(3) 0.3229(4)
C2 C 0.1883(2) 0.1594(3) 0.3519(3)
C3 C 0.1908(2) 0.1157(3) 0.2982(4)
C4 C 0.1628(2) 0.1286(3) 0.2355(4)
C5 C 0.2449(2) 0.0885(3) 0.4063(3)
C6 C 0.2831(2) 0.0669(3) 0.4420(4)
C7 C 0.3604(2) 0.0160(3) 0.4690(4)
C8 C 0.3994(3) -0.0200(3) 0.4639(4)
H4 H 0.3995 -0.0492 0.4287
C9 C 0.4369(3) -0.0110(4) 0.5116(5)
H5 H 0.4637 -0.0342 0.5087
C10 C 0.4367(3) 0.0310(4) 0.5638(4)
H6 H 0.4631 0.0362 0.5962
C11 C 0.3979(2) 0.0657(3) 0.5691(4)
H7 H 0.3977 0.0946 0.6050
C12 C 0.3597(2) 0.0575(3) 0.5215(4)
C13 C 0.1480(2) 0.0972(3) 0.1666(4)
C14 C 0.1635(2) 0.1249(3) 0.0912(3)
H8 H 0.1980 0.1229 0.0863
H9 H 0.1488 0.1063 0.0480
H10 H 0.1536 0.1630 0.0917
C15 C 0.1705(2) 0.0402(3) 0.1691(4)
H11 H 0.1603 0.0214 0.2154
H12 H 0.1605 0.0195 0.1243
H13 H 0.2050 0.0437 0.1692
C16 C 0.0943(2) 0.0907(3) 0.1694(4)
C17 C 0.0650(2) 0.0546(3) 0.2049(4)
C18 C 0.0176(2) 0.0677(3) 0.1869(3)
C19 C 0.0177(2) 0.1137(3) 0.1428(3)
C20 C 0.0139(2) -0.0084(3) 0.2840(4)
C21 C -0.0012(2) -0.0360(3) 0.3442(4)
C22 C -0.0560(2) -0.0664(3) 0.4551(4)
C23 C -0.0945(2) -0.0749(3) 0.5037(4)
H14 H -0.1258 -0.0705 0.4853
C24 C -0.0870(2) -0.0893(3) 0.5773(4)
H15 H -0.1130 -0.0951 0.6106
C25 C -0.0412(2) -0.0955(3) 0.6036(4)
H16 H -0.0361 -0.1060 0.6550
C26 C -0.0023(2) -0.0868(3) 0.5561(4)
H17 H 0.0290 -0.0905 0.5751
C27 C -0.0102(2) -0.0727(3) 0.4815(4)
C28 C -0.0208(2) 0.1473(3) 0.1052(3)
C29 C -0.0109(2) 0.1500(3) 0.0193(3)
H18 H 0.0194 0.1682 0.0105
H19 H -0.0096 0.1131 -0.0015
H20 H -0.0362 0.1703 -0.0060
C30 C -0.0686(2) 0.1195(3) 0.1177(4)
H21 H -0.0931 0.1387 0.0890
H22 H -0.0668 0.0818 0.1001
H23 H -0.0765 0.1201 0.1720
C31 C -0.0223(2) 0.2039(3) 0.1394(4)
C32 C -0.02898(19) 0.2216(2) 0.2119(3)
C33 C -0.0506(3) 0.2500 0.3490(5)
C34 C -0.0717(3) 0.2500 0.4169(5)
C35 C -0.1180(5) 0.2225(9) 0.5387(11)
C36 C -0.1393(4) 0.1926(6) 0.5946(7)
H24 H -0.1385 0.1541 0.5950
C37 C -0.1627(4) 0.2229(4) 0.6518(7)
H25 H -0.1788 0.2042 0.6913
C38 C 0.1385(3) 0.2500 0.3560(5)
C39 C 0.0847(3) 0.2500 0.3448(5)
H26 H 0.0708 0.2197 0.3730
C40 C 0.1491(3) 0.2500 0.4428(5)
H29 H 0.1290 0.2231 0.4681
S1G S 0.21600(5) 0.35282(8) 0.43959(9)
S2G S 0.22096(6) 0.44289(8) 0.32593(10)
S3G S 0.31032(6) 0.49299(8) 0.41119(11)
S4G S 0.30752(6) 0.40473(8) 0.52554(10)
S5G S 0.07441(6) 0.50349(8) 0.26003(10)
S6G S -0.02546(6) 0.47738(8) 0.21952(10)
S7G S -0.06230(6) 0.54646(9) 0.35933(11)
S8G S 0.03502(6) 0.56404(9) 0.41529(10)
S9G S -0.03458(5) 0.31086(8) 0.30164(9)
S10G S -0.08646(6) 0.31036(8) 0.46566(10)
N1G N 0.14459(17) 0.3204(2) 0.2518(3)
H1G H 0.1260 0.3022 0.2208
N2G N 0.06487(17) 0.3725(2) 0.1318(3)
H2G H 0.0748 0.3446 0.1049
C1G C 0.1591(2) 0.3012(3) 0.3229(4)
C2G C 0.1883(2) 0.3406(3) 0.3519(3)
C3G C 0.1908(2) 0.3843(3) 0.2982(4)
C4G C 0.1628(2) 0.3714(3) 0.2355(4)
C5G C 0.2449(2) 0.4115(3) 0.4063(3)
C6G C 0.2831(2) 0.4331(3) 0.4420(4)
C7G C 0.3604(2) 0.4840(3) 0.4690(4)
C8G C 0.3994(3) 0.5200(3) 0.4639(4)
H4G H 0.3995 0.5492 0.4287
C9G C 0.4369(3) 0.5110(4) 0.5116(5)
H5G H 0.4637 0.5342 0.5087
C10G C 0.4367(3) 0.4690(4) 0.5638(4)
H6G H 0.4631 0.4638 0.5962
C11G C 0.3979(2) 0.4343(3) 0.5691(4)
H7G H 0.3977 0.4054 0.6050
C12G C 0.3597(2) 0.4425(3) 0.5215(4)
C13G C 0.1480(2) 0.4028(3) 0.1666(4)
C14G C 0.1635(2) 0.3751(3) 0.0912(3)
H8G H 0.1980 0.3771 0.0863
H9G H 0.1488 0.3937 0.0480
H10G H 0.1536 0.3370 0.0917
C15G C 0.1705(2) 0.4598(3) 0.1691(4)
H11G H 0.1603 0.4786 0.2154
H12G H 0.1605 0.4805 0.1243
H13G H 0.2050 0.4563 0.1692
C16G C 0.0943(2) 0.4093(3) 0.1694(4)
C17G C 0.0650(2) 0.4454(3) 0.2049(4)
C18G C 0.0176(2) 0.4323(3) 0.1869(3)
C19G C 0.0177(2) 0.3863(3) 0.1428(3)
C20G C 0.0139(2) 0.5084(3) 0.2840(4)
C21G C -0.0012(2) 0.5360(3) 0.3442(4)
C22G C -0.0560(2) 0.5664(3) 0.4551(4)
C23G C -0.0945(2) 0.5749(3) 0.5037(4)
H14G H -0.1258 0.5705 0.4853
C24G C -0.0870(2) 0.5893(3) 0.5773(4)
H15G H -0.1130 0.5951 0.6106
C25G C -0.0412(2) 0.5955(3) 0.6036(4)
H16G H -0.0361 0.6060 0.6550
C26G C -0.0023(2) 0.5868(3) 0.5561(4)
H17G H 0.0290 0.5905 0.5751
C27G C -0.0102(2) 0.5727(3) 0.4815(4)
C28G C -0.0208(2) 0.3527(3) 0.1052(3)
C29G C -0.0109(2) 0.3500(3) 0.0193(3)
H18G H 0.0194 0.3318 0.0105
H19G H -0.0096 0.3869 -0.0015
H20G H -0.0362 0.3297 -0.0060
C30G C -0.0686(2) 0.3805(3) 0.1177(4)
H21G H -0.0931 0.3613 0.0890
H22G H -0.0668 0.4182 0.1001
H23G H -0.0765 0.3799 0.1720
C31G C -0.0223(2) 0.2961(3) 0.1394(4)
C32G C -0.02898(19) 0.2784(2) 0.2119(3)
C35G C -0.1180(5) 0.2775(9) 0.5387(11)
C36G C -0.1393(4) 0.3074(6) 0.5946(7)
H24G H -0.1385 0.3459 0.5950
C37G C -0.1627(4) 0.2771(4) 0.6518(7)
H25G H -0.1788 0.2958 0.6913
H26G H 0.0708 0.2803 0.3730
H29G H 0.1290 0.2769 0.4681
H27? H 0.0774 0.2461 0.2905
H28? H 0.0715 0.2842 0.3636
H30? H 0.1425 0.2861 0.4638
H31? H 0.1823 0.2408 0.4513
H33? H 0.2796 0.2925 0.3375
H35? H 0.3609 0.2276 0.3719
H38? H 0.3778 0.2954 0.5270
H39? H 0.3922 0.2351 0.5032
H40? H 0.3814 0.2421 0.6370
H41? H 0.3459 0.3015 0.6011
C46? C 0.3116(6) 0.2317(8) 0.6382(8)
H42? H 0.2820 0.2527 0.6193
H43? H 0.3133 0.1933 0.6236
H44? H 0.3127 0.2652 0.6937
C47? C 0.3341(8) 0.1966(8) 0.2254(16)
H45? H 0.3373 0.3027 0.1693
H46? H 0.3664 0.3008 0.2465
C48? C 0.3152(8) 0.1406(8) 0.2465(10)
H47? H 0.3211 0.3658 0.3014
C49? C 0.3376(9) 0.0945(8) 0.2007(9)
H50? H 0.3724 0.4014 0.2021
C50? C 0.3214(7) 0.0929(9) 0.1179(8)
H52? H 0.2867 0.4119 0.1168
C51? C 0.3439(7) 0.0484(9) 0.0702(9)
H53? H 0.3785 0.4456 0.0684
H54? H 0.3384 0.4870 0.0954
C52? C 0.3251(7) 0.0455(10) -0.0114(9)
H55? H 0.3254 0.4182 -0.0341
H56? H 0.3451 0.0212 -0.0416
H57? H 0.2926 0.4685 -0.0109
H58? H 0.2446 0.2807 0.2114
H60? H 0.3001 0.2441 0.1042
H64? H 0.2645 0.2275 -0.0216
H66? H 0.1898 0.3076 -0.0367
H68? H 0.2289 0.2385 -0.1558
H69? H 0.1757 0.2606 -0.1584
H70? H 0.1857 0.3034 -0.1596
H73? H 0.2856 0.1537 0.2510
H76? H 0.3347 0.0698 0.2417
H78? H 0.3158 0.1300 0.1062
C70? C -0.1037(9) 0.2787(16) 0.549(2)
C71? C -0.1124(7) 0.3055(10) 0.6177(12)
C72? C -0.1245(7) 0.2781(7) 0.6815(11)
H96? H -0.1098 0.3439 0.6196
H97? H -0.1330 0.2974 0.7263
loop_
_geom_bond_atom_site_label_1
_geom_bond_atom_site_label_2
_geom_bond_site_symmetry_1
_geom_bond_site_symmetry_2
S1 C2 1_555 1_555
S2 C3 1_555 1_555
S3 C6 1_555 1_555
S4 C6 1_555 1_555
S5 C17 1_555 1_555
S6 C18 1_555 1_555
S7 C21 1_555 1_555
S8 C21 1_555 1_555
S9 C32 1_555 1_555
S10 C34 1_555 1_555
N1 H1 1_555 1_555
N2 H2 1_555 1_555
N3 H3 1_555 1_555
C1 N1 1_555 1_555
C2 C1 1_555 1_555
C3 C2 1_555 1_555
C4 N1 1_555 1_555
C5 S1 1_555 1_555
C6 C5 1_555 1_555
C7 S3 1_555 1_555
C8 C7 1_555 1_555
H4 C8 1_555 1_555
C9 C8 1_555 1_555
H5 C9 1_555 1_555
C10 C9 1_555 1_555
H6 C10 1_555 1_555
C11 C10 1_555 1_555
H7 C11 1_555 1_555
C12 S4 1_555 1_555
C13 C4 1_555 1_555
C14 C13 1_555 1_555
H8 C14 1_555 1_555
H9 C14 1_555 1_555
H10 C14 1_555 1_555
C15 C13 1_555 1_555
H11 C15 1_555 1_555
H12 C15 1_555 1_555
H13 C15 1_555 1_555
C16 N2 1_555 1_555
C17 C16 1_555 1_555
C18 C17 1_555 1_555
C19 N2 1_555 1_555
C20 S5 1_555 1_555
C21 C20 1_555 1_555
C22 S7 1_555 1_555
C23 C22 1_555 1_555
H14 C23 1_555 1_555
C24 C23 1_555 1_555
H15 C24 1_555 1_555
C25 C24 1_555 1_555
H16 C25 1_555 1_555
C26 C25 1_555 1_555
H17 C26 1_555 1_555
C27 S8 1_555 1_555
C28 C19 1_555 1_555
C29 C28 1_555 1_555
H18 C29 1_555 1_555
H19 C29 1_555 1_555
H20 C29 1_555 1_555
C30 C28 1_555 1_555
H21 C30 1_555 1_555
H22 C30 1_555 1_555
H23 C30 1_555 1_555
C31 N3 1_555 1_555
C32 C31 1_555 1_555
C33 S9 1_555 1_555
C34 C33 1_555 1_555
C35 S10 1_555 1_555
C36 C35 1_555 1_555
H24 C36 1_555 1_555
C37 C36 1_555 1_555
H25 C37 1_555 1_555
C38 C1 1_555 1_555
C39 C38 1_555 1_555
H26 C39 1_555 1_555
C40 C38 1_555 1_555
H29 C40 1_555 1_555
N4 C41 1_555 1_555
C41 H32 1_555 1_555
H32 C41G 1_555 1_555
C42 C41 1_555 1_555
H34 C42 1_555 1_555
C43 C42 1_555 1_555
H36 C43 1_555 1_555
H37 C43 1_555 1_555
C44 C43 1_555 1_555
C45 C44 1_555 1_555
H48 C60 1_555 1_555
H49 C61 1_555 1_555
H51 C62 1_555 1_555
C53 N4 1_555 1_555
H59 C53 1_555 1_555
C54 C53 1_555 1_555
H61 C54 1_555 1_555
C55 C54 1_555 1_555
H62 C55 1_555 1_555
H63 C55 1_555 1_555
C56 C55 1_555 1_555
H65 C56 1_555 1_555
C57 C56 1_555 1_555
H67 C57 1_555 1_555
C58 C57 1_555 1_555
C59 N4 1_555 1_555
H71 C59 1_555 1_555
H72 C59 1_555 1_555
C60 C59 1_555 1_555
H74 C60 1_555 1_555
C61 C60 1_555 1_555
H75 C61 1_555 1_555
C62 C61 1_555 1_555
H77 C62 1_555 1_555
C63 C62 1_555 1_555
H79 C63 1_555 1_555
H80 C63 1_555 1_555
C64 C63 1_555 1_555
H81 C64 1_555 1_555
H82 C64 1_555 1_555
H83 C64 1_555 1_555
C65 H84 1_555 1_555
H85 C65 1_555 1_555
H86 C65 1_555 1_555
C66 C65 1_555 1_555
H87 C66 1_555 1_555
H88 C66 1_555 1_555
C67 C66 1_555 1_555
H89 C67 1_555 1_555
H90 C67 1_555 1_555
C68 C67 1_555 1_555
H91 C68 1_555 1_555
H92 C68 1_555 1_555
C69 C68 1_555 1_555
H93 C69 1_555 1_555
H94 C69 1_555 1_555
H95 C69 1_555 1_555
S1G C2G 1_555 1_555
S2G C3G 1_555 1_555
S3G C6G 1_555 1_555
S4G C6G 1_555 1_555
S5G C17G 1_555 1_555
S6G C18G 1_555 1_555
S7G C21G 1_555 1_555
S8G C21G 1_555 1_555
S9G C33 1_555 1_555
S10G C34 1_555 1_555
N1G H1G 1_555 1_555
N2G H2G 1_555 1_555
C1G C38 1_555 1_555
C2G C1G 1_555 1_555
C3G C2G 1_555 1_555
C4G N1G 1_555 1_555
C5G S1G 1_555 1_555
C6G C5G 1_555 1_555
C7G S3G 1_555 1_555
C8G C7G 1_555 1_555
H4G C8G 1_555 1_555
C9G C8G 1_555 1_555
H5G C9G 1_555 1_555
C10G C9G 1_555 1_555
H6G C10G 1_555 1_555
C11G C10G 1_555 1_555
H7G C11G 1_555 1_555
C12G S4G 1_555 1_555
C13G C4G 1_555 1_555
C14G C13G 1_555 1_555
H8G C14G 1_555 1_555
H9G C14G 1_555 1_555
H10G C14G 1_555 1_555
C15G C13G 1_555 1_555
H11G C15G 1_555 1_555
H12G C15G 1_555 1_555
H13G C15G 1_555 1_555
C16G N2G 1_555 1_555
C17G C16G 1_555 1_555
C18G C17G 1_555 1_555
C19G N2G 1_555 1_555
C20G S5G 1_555 1_555
C21G C20G 1_555 1_555
C22G S7G 1_555 1_555
C23G C22G 1_555 1_555
H14G C23G 1_555 1_555
C24G C23G 1_555 1_555
H15G C24G 1_555 1_555
C25G C24G 1_555 1_555
H16G C25G 1_555 1_555
C26G C25G 1_555 1_555
H17G C26G 1_555 1_555
C27G S8G 1_555 1_555
C28G C19G 1_555 1_555
C29G C28G 1_555 1_555
H18G C29G 1_555 1_555
H19G C29G 1_555 1_555
H20G C29G 1_555 1_555
C30G C28G 1_555 1_555
H21G C30G 1_555 1_555
H22G C30G 1_555 1_555
H23G C30G 1_555 1_555
C31G N3 1_555 1_555
C32G C32 1_555 1_555
C35G C35 1_555 1_555
C36G C35G 1_555 1_555
H24G C36G 1_555 1_555
C37G C37 1_555 1_555
H25G C37G 1_555 1_555
H26G C39 1_555 1_555
H29G C40 1_555 1_555
C41G N4 1_555 1_555
H32G C41 1_555 1_555
C42G C41 1_555 1_555
H34G C42G 1_555 1_555
C43G C42 1_555 1_555
H36G C43 1_555 1_555
H37G C43 1_555 1_555
C44G C43 1_555 1_555
C45G C44 1_555 1_555
H48G C60G 1_555 1_555
H49G C61G 1_555 1_555
H51G C62G 1_555 1_555
C53G N4 1_555 1_555
H59G C53 1_555 1_555
C54G C53 1_555 1_555
H61G C54G 1_555 1_555
C55G C54 1_555 1_555
H63G C55G 1_555 1_555
C56G C55 1_555 1_555
H65G C56 1_555 1_555
C57G C56 1_555 1_555
C58G C58 1_555 1_555
C59G N4 1_555 1_555
H71G C59G 1_555 1_555
H72G C59G 1_555 1_555
C60G C59G 1_555 1_555
H74G C60G 1_555 1_555
C61G C60G 1_555 1_555
H75G C61G 1_555 1_555
C62G C61G 1_555 1_555
H77G C62G 1_555 1_555
C63G C62G 1_555 1_555
H79G C63G 1_555 1_555
H80G C63G 1_555 1_555
C64G C63G 1_555 1_555
H81G C64G 1_555 1_555
H82G C64G 1_555 1_555
H83G C64G 1_555 1_555
S2 C5 1_555 1_555
S6 C20 1_555 1_555
C3 C4 1_555 1_555
C7 C12 1_555 1_555
C11 C12 1_555 1_555
C13 C16 1_555 1_555
C18 C19 1_555 1_555
C22 C27 1_555 1_555
C26 C27 1_555 1_555
C28 C31 1_555 1_555
C41 C41G 1_555 1_555
C42 C41G 1_555 1_555
C42 C42G 1_555 1_555
C43 C42G 1_555 1_555
C43 C43G 1_555 1_555
H36 C43G 1_555 1_555
H36 H37G 1_555 1_555
H37 C43G 1_555 1_555
H37 H36G 1_555 1_555
C44 C43G 1_555 1_555
C44 C44G 1_555 1_555
C45 C44G 1_555 1_555
C45 C45G 1_555 1_555
C53 C53G 1_555 1_555
H59 C53G 1_555 1_555
C54 C53G 1_555 1_555
C54 C54G 1_555 1_555
C55 C54G 1_555 1_555
C55 C55G 1_555 1_555
H62 C55G 1_555 1_555
C56 C55G 1_555 1_555
C56 C56G 1_555 1_555
H65 C56G 1_555 1_555
C57 C56G 1_555 1_555
C57 C57G 1_555 1_555
H67 C57G 1_555 1_555
S2G C5G 1_555 1_555
S6G C20G 1_555 1_555
S9G C32G 1_555 1_555
S10G C35G 1_555 1_555
N1G C1G 1_555 1_555
C3G C4G 1_555 1_555
C7G C12G 1_555 1_555
C11G C12G 1_555 1_555
C13G C16G 1_555 1_555
C18G C19G 1_555 1_555
C22G C27G 1_555 1_555
C26G C27G 1_555 1_555
C28G C31G 1_555 1_555
C31G C32G 1_555 1_555
C36G C37G 1_555 1_555
C41G H32G 1_555 1_555
C41G C42G 1_555 1_555
C42G C43G 1_555 1_555
C43G H36G 1_555 1_555
C43G H37G 1_555 1_555
C43G C44G 1_555 1_555
C44G C45G 1_555 1_555
C53G H59G 1_555 1_555
C53G C54G 1_555 1_555
C54G C55G 1_555 1_555
C55G C56G 1_555 1_555
C56G H65G 1_555 1_555
C56G C57G 1_555 1_555
C57G C58G 1_555 1_555

#END
