
#######################################################################
#
#                 Cambridge Crystallographic Data Centre
#                                CCDC 
#
#######################################################################
#
# If this CIF has been generated from an entry in the Cambridge 
# Structural Database, then it will include bibliographic, chemical, 
# crystal, experimental, refinement or atomic coordinate data resulting 
# from the CCDC's data processing and validation procedures.
#
#######################################################################

data_VEJQIL
_chemical_formula_moiety         'C28 H34 N2 O3 S2'
_chemical_name_systematic        
(R~S~,1R,3S)-syn-N-(t-Butylsulfinyl)-1-phenyl-3-(2-phenylvinyl)-3-(p-toluenesulfonylamino)propylamine
_symmetry_cell_setting           monoclinic
_symmetry_space_group_name_H-M   'C 2'
_symmetry_Int_Tables_number      5
_space_group_name_Hall           'C 2y'
loop_
_symmetry_equiv_pos_site_id
_symmetry_equiv_pos_as_xyz
1 x,y,z
2 -x,y,-z
3 1/2+x,1/2+y,z
4 1/2-x,1/2+y,-z
_cell_length_a                   24.3114(16)
_cell_length_b                   11.7896(7)
_cell_length_c                   10.3552(7)
_cell_angle_alpha                90
_cell_angle_beta                 105.9490(19)
_cell_angle_gamma                90
_cell_volume                     2853.78
_chemical_melting_point          '81-82 deg.C'
_cell_formula_units_Z            4
loop_
_atom_site_label
_atom_site_type_symbol
_atom_site_fract_x
_atom_site_fract_y
_atom_site_fract_z
S1 S 0.05321(3) -0.37997(11) 0.17993(9)
S2 S -0.15286(3) -0.68452(10) -0.06120(8)
O1 O 0.07971(11) -0.3928(2) 0.0681(2)
O2 O -0.14657(9) -0.6638(3) -0.1912(2)
O3 O -0.14081(9) -0.7948(2) -0.0031(3)
N1 N 0.05604(10) -0.5027(3) 0.2610(3)
H1 H 0.0842 -0.5195 0.3290
N2 N -0.11234(11) -0.5952(3) 0.0350(3)
H2 H -0.0966 -0.5430 -0.0007
C1 C 0.0803(3) -0.2883(7) 0.4268(5)
H3 H 0.1062 -0.2457 0.4964
H4 H 0.0750 -0.3624 0.4598
H5 H 0.0441 -0.2499 0.3995
C2 C 0.16221(16) -0.3556(4) 0.3420(5)
H6 H 0.1888 -0.3114 0.4087
H7 H 0.1755 -0.3613 0.2630
H8 H 0.1592 -0.4301 0.3768
C3 C 0.10731(19) -0.1848(4) 0.2418(5)
H9 H 0.1341 -0.1367 0.3033
H10 H 0.0701 -0.1504 0.2194
H11 H 0.1194 -0.1947 0.1617
C4 C 0.10484(15) -0.2995(3) 0.3069(4)
C5 C 0.00767(13) -0.5808(3) 0.2099(4)
H12 H 0.0004 -0.5880 0.1124
C6 C 0.02329(12) -0.6962(3) 0.2736(4)
C7 C 0.05130(15) -0.7071(3) 0.4075(4)
H13 H 0.0613 -0.6426 0.4606
C8 C 0.06459(17) -0.8120(4) 0.4632(5)
H14 H 0.0836 -0.8176 0.5541
C9 C 0.05082(17) -0.9085(4) 0.3895(6)
H15 H 0.0600 -0.9794 0.4290
C10 C 0.02321(19) -0.8987(4) 0.2560(7)
H16 H 0.0139 -0.9637 0.2036
C11 C 0.00888(16) -0.7932(4) 0.1980(5)
H17 H -0.0106 -0.7878 0.1073
C12 C -0.04595(11) -0.5313(3) 0.2408(3)
H18 H -0.0393 -0.5278 0.3375
H19 H -0.0515 -0.4543 0.2067
C13 C -0.10055(12) -0.5980(3) 0.1816(3)
H20 H -0.0940 -0.6770 0.2114
C14 C -0.14902(12) -0.5512(3) 0.2302(3)
H21 H -0.1611 -0.4775 0.2061
C15 C -0.17517(12) -0.6084(3) 0.3045(3)
H22 H -0.1638 -0.6835 0.3224
C16 C -0.22006(12) -0.5681(3) 0.3623(3)
C17 C -0.22664(14) -0.6195(4) 0.4771(4)
H23 H -0.2044 -0.6822 0.5125
C18 C -0.26590(15) -0.5786(4) 0.5395(4)
H24 H -0.2697 -0.6140 0.6168
C19 C -0.29919(14) -0.4872(4) 0.4899(4)
H25 H -0.3248 -0.4592 0.5342
C20 C -0.29468(15) -0.4366(4) 0.3741(4)
H26 H -0.3181 -0.3756 0.3378
C21 C -0.25535(14) -0.4766(4) 0.3121(4)
H27 H -0.2523 -0.4414 0.2341
C22 C -0.22562(12) -0.6554(3) -0.0694(3)
C23 C -0.25955(14) -0.7403(4) -0.0444(4)
H28 H -0.2444 -0.8115 -0.0167
C24 C -0.31732(16) -0.7178(4) -0.0612(5)
H29 H -0.3409 -0.7754 -0.0461
C25 C -0.34019(16) -0.6132(5) -0.0994(5)
C26 C -0.30501(17) -0.5300(4) -0.1221(4)
H30 H -0.3200 -0.4583 -0.1477
C27 C -0.24715(15) -0.5495(4) -0.1079(4)
H31 H -0.2237 -0.4921 -0.1241
C28 C -0.40321(18) -0.5895(7) -0.1183(6)
H32 H -0.4114 -0.5121 -0.1460
H33 H -0.4124 -0.6019 -0.0351
H34 H -0.4257 -0.6393 -0.1858
loop_
_geom_bond_atom_site_label_1
_geom_bond_atom_site_label_2
_geom_bond_site_symmetry_1
_geom_bond_site_symmetry_2
S1 O1 1_555 1_555
S2 O2 1_555 1_555
O3 S2 1_555 1_555
N1 S1 1_555 1_555
H1 N1 1_555 1_555
N2 S2 1_555 1_555
H2 N2 1_555 1_555
C1 H3 1_555 1_555
H4 C1 1_555 1_555
H5 C1 1_555 1_555
C2 H6 1_555 1_555
H7 C2 1_555 1_555
H8 C2 1_555 1_555
C3 H9 1_555 1_555
H10 C3 1_555 1_555
H11 C3 1_555 1_555
C4 S1 1_555 1_555
C5 N1 1_555 1_555
H12 C5 1_555 1_555
C6 C5 1_555 1_555
C7 C6 1_555 1_555
H13 C7 1_555 1_555
C8 C7 1_555 1_555
H14 C8 1_555 1_555
C9 C8 1_555 1_555
H15 C9 1_555 1_555
C10 C9 1_555 1_555
H16 C10 1_555 1_555
C11 C6 1_555 1_555
H17 C11 1_555 1_555
C12 C5 1_555 1_555
H18 C12 1_555 1_555
H19 C12 1_555 1_555
C13 N2 1_555 1_555
H20 C13 1_555 1_555
C14 C13 1_555 1_555
H21 C14 1_555 1_555
C15 C14 1_555 1_555
H22 C15 1_555 1_555
C16 C15 1_555 1_555
C17 C16 1_555 1_555
H23 C17 1_555 1_555
C18 C17 1_555 1_555
H24 C18 1_555 1_555
C19 C18 1_555 1_555
H25 C19 1_555 1_555
C20 C19 1_555 1_555
H26 C20 1_555 1_555
C21 C16 1_555 1_555
H27 C21 1_555 1_555
C22 S2 1_555 1_555
C23 C22 1_555 1_555
H28 C23 1_555 1_555
C24 C23 1_555 1_555
H29 C24 1_555 1_555
C25 C24 1_555 1_555
C26 C25 1_555 1_555
H30 C26 1_555 1_555
C27 C22 1_555 1_555
H31 C27 1_555 1_555
C28 C25 1_555 1_555
H32 C28 1_555 1_555
H33 C28 1_555 1_555
H34 C28 1_555 1_555
C1 C4 1_555 1_555
C2 C4 1_555 1_555
C3 C4 1_555 1_555
C10 C11 1_555 1_555
C12 C13 1_555 1_555
C20 C21 1_555 1_555
C26 C27 1_555 1_555

#END
