
#######################################################################
#
#                 Cambridge Crystallographic Data Centre
#                                CCDC 
#
#######################################################################
#
# If this CIF has been generated from an entry in the Cambridge 
# Structural Database, then it will include bibliographic, chemical, 
# crystal, experimental, refinement or atomic coordinate data resulting 
# from the CCDC's data processing and validation procedures.
#
#######################################################################

data_VEJQIN
_chemical_formula_moiety         'C5 H6 N2 O2,C4 H6 N4'
_chemical_name_systematic        'thymine pyrimidine-2,4-diamine'
_symmetry_cell_setting           triclinic
_symmetry_space_group_name_H-M   'P -1'
_symmetry_Int_Tables_number      2
_space_group_name_Hall           '-P 1'
loop_
_symmetry_equiv_pos_site_id
_symmetry_equiv_pos_as_xyz
1 x,y,z
2 -x,-y,-z
_cell_length_a                   7.3027(14)
_cell_length_b                   7.7089(15)
_cell_length_c                   10.368(2)
_cell_angle_alpha                93.184(3)
_cell_angle_beta                 98.654(3)
_cell_angle_gamma                107.390(3)
_cell_volume                     547.521
_exptl_crystal_colour            colorless
_exptl_crystal_description       prism
_cell_formula_units_Z            2
loop_
_atom_site_label
_atom_site_type_symbol
_atom_site_fract_x
_atom_site_fract_y
_atom_site_fract_z
O1 O 0.60833(12) -0.19879(10) 0.58735(8)
O2 O 0.94239(13) 0.28802(9) 0.40194(8)
N1 N 0.77700(12) 0.04596(10) 0.49810(8)
H1 H 0.7810 -0.0267 0.4333
N2 N 0.85153(13) 0.33910(11) 0.59659(8)
H2 H 0.8999 0.4555 0.5971
C1 C 0.68483(14) -0.03224(13) 0.59761(10)
C2 C 0.86217(14) 0.22881(12) 0.49406(10)
C3 C 0.76604(15) 0.27152(14) 0.69998(10)
H3 H 0.7648 0.3537 0.7687
C4 C 0.68414(14) 0.09242(14) 0.70660(10)
C5 C 0.59492(18) 0.01670(17) 0.82021(11)
H4 H 0.4603 -0.0518 0.7903
H5 H 0.6044 0.1153 0.8843
H6 H 0.6627 -0.0620 0.8590
N3 N 0.13272(15) 0.22413(13) 0.94733(9)
N4 N 0.06561(15) -0.05649(12) 0.83404(9)
H7 H 0.0156 -0.1044 0.8987
H8 H 0.0674 -0.1254 0.7664
N5 N 0.21776(12) 0.19239(11) 0.73451(8)
N6 N 0.37544(16) 0.44229(12) 0.63915(10)
H9 H 0.3748 0.3700 0.5728
H10 H 0.4270 0.5584 0.6401
C6 C 0.14056(14) 0.12516(13) 0.83869(9)
C7 C 0.29613(15) 0.37420(13) 0.74098(10)
C8 C 0.2924(2) 0.48909(15) 0.84936(12)
H11 H 0.3440 0.6156 0.8539
C9 C 0.2088(2) 0.40496(17) 0.94782(12)
H12 H 0.2043 0.4788 1.0206
loop_
_geom_bond_atom_site_label_1
_geom_bond_atom_site_label_2
_geom_bond_site_symmetry_1
_geom_bond_site_symmetry_2
O1 C1 1_555 1_555
O2 C2 1_555 1_555
N1 H1 1_555 1_555
N2 H2 1_555 1_555
C1 N1 1_555 1_555
C2 N1 1_555 1_555
C3 N2 1_555 1_555
H3 C3 1_555 1_555
C4 C1 1_555 1_555
C5 C4 1_555 1_555
H4 C5 1_555 1_555
H5 C5 1_555 1_555
H6 C5 1_555 1_555
N3 C6 1_555 1_555
N4 H7 1_555 1_555
H8 N4 1_555 1_555
N5 C6 1_555 1_555
N6 H9 1_555 1_555
H10 N6 1_555 1_555
C6 N4 1_555 1_555
C7 N5 1_555 1_555
C8 C7 1_555 1_555
H11 C8 1_555 1_555
C9 N3 1_555 1_555
H12 C9 1_555 1_555
N2 C2 1_555 1_555
C3 C4 1_555 1_555
N6 C7 1_555 1_555
C8 C9 1_555 1_555

#END
