
#######################################################################
#
#                 Cambridge Crystallographic Data Centre
#                                CCDC 
#
#######################################################################
#
# If this CIF has been generated from an entry in the Cambridge 
# Structural Database, then it will include bibliographic, chemical, 
# crystal, experimental, refinement or atomic coordinate data resulting 
# from the CCDC's data processing and validation procedures.
#
#######################################################################

data_VEJQUZ
_chemical_formula_moiety         'C5 H6 N2 O2,C4 H6 N4 O1,3(H2 O1)'
_chemical_name_systematic        
'thymine 2,6-diaminopyrimidin-4(3H)-one trihydrate'
_symmetry_cell_setting           triclinic
_symmetry_space_group_name_H-M   'P -1'
_symmetry_Int_Tables_number      2
_space_group_name_Hall           '-P 1'
loop_
_symmetry_equiv_pos_site_id
_symmetry_equiv_pos_as_xyz
1 x,y,z
2 -x,-y,-z
_cell_length_a                   6.9654(5)
_cell_length_b                   6.9947(5)
_cell_length_c                   15.4852(10)
_cell_angle_alpha                83.219(2)
_cell_angle_beta                 87.719(2)
_cell_angle_gamma                73.739(2)
_cell_volume                     719.187
_exptl_crystal_colour            colorless
_exptl_crystal_description       prism
_cell_formula_units_Z            2
loop_
_atom_site_label
_atom_site_type_symbol
_atom_site_fract_x
_atom_site_fract_y
_atom_site_fract_z
O1 O 0.3817(2) 0.8704(2) 0.08246(10)
H1 H 0.500(5) 0.829(4) 0.058(2)
H2 H 0.341(5) 0.986(5) 0.059(2)
O2 O 0.3155(2) 0.1672(2) 0.42883(9)
O3 O 0.9736(2) -0.1112(2) 0.37087(9)
N1 N 0.6450(2) 0.0289(2) 0.39786(11)
N2 N 0.4351(2) 0.2354(2) 0.29365(11)
C1 C 0.4569(3) 0.1454(3) 0.37605(13)
C2 C 0.8114(3) -0.0038(3) 0.34287(13)
C3 C 0.5908(3) 0.2098(3) 0.23507(13)
C4 C 0.7762(3) 0.0948(3) 0.25494(13)
C5 C 0.9467(3) 0.0642(4) 0.19123(15)
H3 H 0.555(3) 0.282(4) 0.1785(16)
H4 H 0.321(4) 0.314(4) 0.2797(15)
H5 H 1.005(4) -0.081(4) 0.1835(17)
H6 H 0.899(4) 0.138(4) 0.1357(18)
H7 H 0.664(4) -0.034(4) 0.4523(18)
H8 H 1.057(4) 0.110(4) 0.2113(17)
O4 O 0.7613(2) 0.7406(2) 0.00240(10)
H9 H 0.881(5) 0.718(5) 0.026(2)
H10 H 0.772(5) 0.633(5) -0.023(2)
O5 O 1.0862(2) 0.4812(2) 0.23857(9)
N3 N 0.3905(3) 0.7670(3) 0.27691(12)
N4 N 0.9275(2) 0.4285(2) 0.36624(11)
N5 N 0.5824(2) 0.5702(2) 0.38895(11)
C6 C 0.7378(3) 0.6295(3) 0.24939(13)
N6 N 0.7786(3) 0.3725(3) 0.49889(12)
C7 C 0.7608(3) 0.4589(3) 0.41732(12)
C8 C 0.5714(3) 0.6546(3) 0.30465(12)
C9 C 0.9223(3) 0.5149(3) 0.28086(13)
H11 H 0.727(3) 0.687(3) 0.1906(16)
H12 H 0.894(4) 0.288(4) 0.5198(17)
H13 H 1.037(4) 0.354(4) 0.3867(17)
H14 H 0.285(4) 0.784(4) 0.3089(18)
H15 H 0.378(4) 0.819(4) 0.220(2)
H16 H 0.674(4) 0.396(4) 0.5311(18)
O6 O 0.1441(2) 0.6120(2) 0.07402(10)
H17 H 0.125(4) 0.574(4) 0.129(2)
H18 H 0.216(4) 0.691(4) 0.0749(18)
loop_
_geom_bond_atom_site_label_1
_geom_bond_atom_site_label_2
_geom_bond_site_symmetry_1
_geom_bond_site_symmetry_2
O1 H1 1_555 1_555
H2 O1 1_555 1_555
O2 C1 1_555 1_555
O3 C2 1_555 1_555
N1 C1 1_555 1_555
N2 C1 1_555 1_555
C2 N1 1_555 1_555
C3 N2 1_555 1_555
C4 C2 1_555 1_555
C5 C4 1_555 1_555
H3 C3 1_555 1_555
H4 N2 1_555 1_555
H5 C5 1_555 1_555
H6 C5 1_555 1_555
H7 N1 1_555 1_555
H8 C5 1_555 1_555
O4 H9 1_555 1_555
H10 O4 1_555 1_555
O5 C9 1_555 1_555
N3 C8 1_555 1_555
N4 C7 1_555 1_555
N5 C7 1_555 1_555
C6 C8 1_555 1_555
N6 C7 1_555 1_555
C8 N5 1_555 1_555
C9 N4 1_555 1_555
H11 C6 1_555 1_555
H12 N6 1_555 1_555
H13 N4 1_555 1_555
H14 N3 1_555 1_555
H15 N3 1_555 1_555
H16 N6 1_555 1_555
O6 H17 1_555 1_555
H18 O6 1_555 1_555
C3 C4 1_555 1_555
C6 C9 1_555 1_555

#END
