
#######################################################################
#
#                 Cambridge Crystallographic Data Centre
#                                CCDC 
#
#######################################################################
#
# If this CIF has been generated from an entry in the Cambridge 
# Structural Database, then it will include bibliographic, chemical, 
# crystal, experimental, refinement or atomic coordinate data resulting 
# from the CCDC's data processing and validation procedures.
#
#######################################################################

data_VEJRIO
_chemical_name_common            'DDT benzene solvate'
_chemical_formula_moiety         'C14 H9 Cl5,0.5(C6 H6)'
_chemical_name_systematic        
'1,1,1-trichloro-2,2-bis(4-chlorophenyl)ethane benzene solvate'
_symmetry_cell_setting           orthorhombic
_symmetry_space_group_name_H-M   'P b c n'
_symmetry_Int_Tables_number      60
_space_group_name_Hall           '-P 2n 2ab'
loop_
_symmetry_equiv_pos_site_id
_symmetry_equiv_pos_as_xyz
1 x,y,z
2 1/2-x,1/2-y,1/2+z
3 -x,y,1/2-z
4 1/2+x,1/2-y,-z
5 -x,-y,-z
6 1/2+x,1/2+y,1/2-z
7 x,-y,1/2+z
8 1/2-x,1/2+y,z
_cell_length_a                   43.257(4)
_cell_length_b                   9.7388(10)
_cell_length_c                   7.9594(8)
_cell_angle_alpha                90
_cell_angle_beta                 90
_cell_angle_gamma                90
_cell_volume                     3353.07
_exptl_crystal_colour            colorless
_exptl_crystal_description       plate
_cell_formula_units_Z            8
_chemical_properties_physical    air-sensitive
loop_
_atom_site_label
_atom_site_type_symbol
_atom_site_fract_x
_atom_site_fract_y
_atom_site_fract_z
Cl1 Cl 0.34278(2) 0.77214(4) 0.03376(5)
Cl2 Cl 0.34880(2) 0.55436(4) 0.27572(5)
Cl3 Cl 0.40326(2) 0.69312(4) 0.14821(5)
Cl4 Cl 0.23025(2) 0.86145(5) 0.60019(6)
Cl5 Cl 0.46213(2) 0.80501(4) 0.88471(5)
C1 C 0.36419(4) 0.71624(16) 0.2128(2)
C2 C 0.36223(4) 0.82702(15) 0.3534(2)
H1 H 0.366388 0.916535 0.296145
C3 C 0.32938(4) 0.83880(16) 0.4229(2)
C4 C 0.31883(4) 0.75372(17) 0.5522(2)
H2 H 0.332679 0.690325 0.602817
C5 C 0.28850(4) 0.76028(18) 0.6077(2)
H3 H 0.281402 0.700799 0.694082
C6 C 0.26876(4) 0.85490(18) 0.5352(2)
C7 C 0.27881(4) 0.94426(18) 0.4118(2)
H4 H 0.265174 1.011109 0.366344
C8 C 0.30905(4) 0.93497(17) 0.3553(2)
H5 H 0.316008 0.995064 0.269256
C9 C 0.38702(4) 0.81412(16) 0.4885(2)
C10 C 0.39592(4) 0.69101(17) 0.5643(2)
H6 H 0.386138 0.607852 0.531649
C11 C 0.41874(4) 0.68795(17) 0.6863(2)
H7 H 0.424572 0.603442 0.736747
C12 C 0.43300(4) 0.80917(17) 0.7339(2)
C13 C 0.42467(4) 0.93351(17) 0.6625(2)
H8 H 0.434473 1.016322 0.696310
C14 C 0.40168(4) 0.93475(16) 0.5403(2)
H9 H 0.395803 1.019626 0.490847
C15 C 0.500000 0.5488(3) 0.250000
H10 H 0.500001 0.451270 0.250004
C16 C 0.47873(4) 0.6200(2) 0.3466(2)
H11 H 0.464170 0.571159 0.413059
C17 C 0.47867(4) 0.7620(2) 0.3466(2)
H12 H 0.464010 0.810625 0.412674
C18 C 0.500000 0.8337(3) 0.250000
H13 H 0.500001 0.931281 0.250004
C16B C 0.52127(4) 0.6200(2) 0.1534(2)
H11B H 0.535830 0.571159 0.086941
C17B C 0.52133(4) 0.7620(2) 0.1534(2)
H12B H 0.535990 0.810625 0.087326
loop_
_geom_bond_atom_site_label_1
_geom_bond_atom_site_label_2
_geom_bond_site_symmetry_1
_geom_bond_site_symmetry_2
Cl1 C1 1_555 1_555
Cl2 C1 1_555 1_555
Cl3 C1 1_555 1_555
Cl4 C6 1_555 1_555
Cl5 C12 1_555 1_555
C1 C2 1_555 1_555
C2 H1 1_555 1_555
C3 C2 1_555 1_555
C4 C3 1_555 1_555
H2 C4 1_555 1_555
C5 C4 1_555 1_555
H3 C5 1_555 1_555
C6 C5 1_555 1_555
C7 C6 1_555 1_555
H4 C7 1_555 1_555
C8 C3 1_555 1_555
H5 C8 1_555 1_555
C9 C2 1_555 1_555
C10 C9 1_555 1_555
H6 C10 1_555 1_555
C11 C10 1_555 1_555
H7 C11 1_555 1_555
C12 C11 1_555 1_555
C13 C12 1_555 1_555
H8 C13 1_555 1_555
C14 C9 1_555 1_555
H9 C14 1_555 1_555
C15 H10 1_555 1_555
C16 C15 1_555 1_555
H11 C16 1_555 1_555
C17 C16 1_555 1_555
H12 C17 1_555 1_555
C18 C17 1_555 1_555
H13 C18 1_555 1_555
C16B C15 1_555 1_555
H11B C16B 1_555 1_555
C17B C18 1_555 1_555
H12B C17B 1_555 1_555
C7 C8 1_555 1_555
C13 C14 1_555 1_555
C16B C17B 1_555 1_555

#END
