
#######################################################################
#
#                 Cambridge Crystallographic Data Centre
#                                CCDC 
#
#######################################################################
#
# If this CIF has been generated from an entry in the Cambridge 
# Structural Database, then it will include bibliographic, chemical, 
# crystal, experimental, refinement or atomic coordinate data resulting 
# from the CCDC's data processing and validation procedures.
#
#######################################################################

data_VEJSUB
_chemical_formula_moiety         'C47 H41 B1'
_chemical_name_systematic        dipyren-1-yl(2,4,6-tri-isopropylphenyl)borane
_symmetry_cell_setting           monoclinic
_symmetry_space_group_name_H-M   'C 2/c'
_symmetry_Int_Tables_number      15
_space_group_name_Hall           '-C 2yn'
loop_
_symmetry_equiv_pos_site_id
_symmetry_equiv_pos_as_xyz
1 x,y,z
2 -x,y,1/2-z
3 1/2+x,1/2+y,z
4 1/2-x,1/2+y,1/2-z
5 -x,-y,-z
6 x,-y,1/2+z
7 1/2-x,1/2-y,-z
8 1/2+x,1/2-y,1/2+z
_cell_length_a                   10.3419(12)
_cell_length_b                   16.4056(15)
_cell_length_c                   20.936(2)
_cell_angle_alpha                90
_cell_angle_beta                 100.537(11)
_cell_angle_gamma                90
_cell_volume                     3492.21
_cell_formula_units_Z            4
loop_
_atom_site_label
_atom_site_type_symbol
_atom_site_fract_x
_atom_site_fract_y
_atom_site_fract_z
C1 C 0.5448(3) 0.60152(16) 0.34014(13)
C2 C 0.6258(3) 0.56615(16) 0.39495(13)
C3 C 0.5792(3) 0.67443(17) 0.31259(14)
C4 C 0.4711(3) 0.45460(17) 0.39892(14)
C5 C 0.5916(3) 0.49289(17) 0.42412(14)
C6 C 0.4217(3) 0.55938(18) 0.31598(15)
H1 H 0.3650 0.5803 0.2801
C7 C 0.3884(3) 0.49127(18) 0.34422(14)
H2 H 0.3083 0.4668 0.3276
C8 C 0.5000 0.8133(2) 0.2500
C9 C 0.4173(3) 0.85711(18) 0.28404(15)
C10 C 0.7477(3) 0.60500(19) 0.42216(15)
C11 C 0.6761(4) 0.45943(19) 0.47868(15)
C12 C 0.6959(3) 0.7112(2) 0.34290(16)
H3 H 0.7189 0.7610 0.3271
C13 C 0.7783(3) 0.6776(2) 0.39482(17)
H4 H 0.8565 0.7040 0.4120
C14 C 0.4200(4) 0.9410(2) 0.28307(17)
H5 H 0.3652 0.9695 0.3058
C15 C 0.3279(4) 0.8130(2) 0.32149(18)
H6 H 0.3306 0.7551 0.3104
C16 C 0.6377(5) 0.3880(2) 0.50602(17)
H7 H 0.6928 0.3650 0.5415
C17 C 0.4377(4) 0.3837(2) 0.42854(17)
H8 H 0.3584 0.3580 0.4123
B1 B 0.5000 0.7170(3) 0.2500
C18 C 0.5197(5) 0.3510(2) 0.48135(19)
H9 H 0.4953 0.3036 0.5005
C19 C 0.1843(4) 0.8406(3) 0.3034(2)
H10 H 0.1790 0.8983 0.3101
H11 H 0.1325 0.8126 0.3302
H12 H 0.1513 0.8281 0.2586
C20 C 0.7962(4) 0.5000(3) 0.50315(18)
H13 H 0.8525 0.4781 0.5387
C21 C 0.5000 0.9847(3) 0.2500
C22 C 0.8301(4) 0.5677(3) 0.47694(19)
H14 H 0.9098 0.5922 0.4944
C23 C 0.3791(5) 0.8205(3) 0.3946(2)
H15 H 0.4659 0.7978 0.4050
H16 H 0.3216 0.7915 0.4178
H17 H 0.3818 0.8769 0.4069
C24 C 0.5000 1.0775(3) 0.2500
C25 C 0.5484(7) 1.1128(3) 0.3109(3)
H18 H 0.4947 1.0961 0.3415
H19 H 0.5461 1.1711 0.3070
H20 H 0.6373 1.0953 0.3259
C1A C 0.4552(3) 0.60152(16) 0.15986(13)
C2A C 0.3742(3) 0.56615(16) 0.10505(13)
C3A C 0.4208(3) 0.67443(17) 0.18741(14)
C4A C 0.5289(3) 0.45460(17) 0.10108(14)
C5A C 0.4084(3) 0.49289(17) 0.07588(14)
C6A C 0.5783(3) 0.55938(18) 0.18402(15)
H1A H 0.6350 0.5803 0.2199
C7A C 0.6116(3) 0.49127(18) 0.15578(14)
H2A H 0.6917 0.4668 0.1724
C9A C 0.5827(3) 0.85711(18) 0.21596(15)
C10A C 0.2523(3) 0.60500(19) 0.07784(15)
C11A C 0.3239(4) 0.45943(19) 0.02132(15)
C12A C 0.3041(3) 0.7112(2) 0.15710(16)
H3A H 0.2811 0.7610 0.1729
C13A C 0.2217(3) 0.6776(2) 0.10518(17)
H4A H 0.1435 0.7040 0.0880
C14A C 0.5800(4) 0.9410(2) 0.21693(17)
H5A H 0.6348 0.9695 0.1942
C15A C 0.6721(4) 0.8130(2) 0.17851(18)
H6A H 0.6694 0.7551 0.1896
C16A C 0.3623(5) 0.3880(2) -0.00602(17)
H7A H 0.3072 0.3650 -0.0415
C17A C 0.5623(4) 0.3837(2) 0.07146(17)
H8A H 0.6416 0.3580 0.0877
C18A C 0.4803(5) 0.3510(2) 0.01865(19)
H9A H 0.5047 0.3036 -0.0005
C19A C 0.8157(4) 0.8406(3) 0.1966(2)
H10A H 0.8210 0.8983 0.1899
H11A H 0.8675 0.8126 0.1698
H12A H 0.8487 0.8281 0.2414
C20A C 0.2038(4) 0.5000(3) -0.00315(18)
H13A H 0.1475 0.4781 -0.0387
C22A C 0.1699(4) 0.5677(3) 0.02306(19)
H14A H 0.0902 0.5922 0.0056
C23A C 0.6209(5) 0.8205(3) 0.1054(2)
H15A H 0.5341 0.7978 0.0950
H16A H 0.6784 0.7915 0.0822
H17A H 0.6182 0.8769 0.0931
C25A C 0.4516(7) 1.1128(3) 0.1891(3)
H18A H 0.5053 1.0961 0.1585
H19A H 0.4539 1.1711 0.1930
H20A H 0.3627 1.0953 0.1741
loop_
_geom_bond_atom_site_label_1
_geom_bond_atom_site_label_2
_geom_bond_site_symmetry_1
_geom_bond_site_symmetry_2
C1 C2 1_555 1_555
C2 C5 1_555 1_555
C3 C1 1_555 1_555
C4 C5 1_555 1_555
C5 C11 1_555 1_555
C6 C1 1_555 1_555
H1 C6 1_555 1_555
C7 C4 1_555 1_555
H2 C7 1_555 1_555
C8 C9 1_555 1_555
C9 C14 1_555 1_555
C10 C2 1_555 1_555
C11 C16 1_555 1_555
C12 C3 1_555 1_555
H3 C12 1_555 1_555
C13 C10 1_555 1_555
H4 C13 1_555 1_555
C14 H5 1_555 1_555
C15 C9 1_555 1_555
H6 C15 1_555 1_555
C16 H7 1_555 1_555
C17 C4 1_555 1_555
H8 C17 1_555 1_555
B1 C3 1_555 1_555
C18 C16 1_555 1_555
H9 C18 1_555 1_555
C19 C15 1_555 1_555
H10 C19 1_555 1_555
H11 C19 1_555 1_555
H12 C19 1_555 1_555
C20 C11 1_555 1_555
H13 C20 1_555 1_555
C21 C14 1_555 1_555
C22 C10 1_555 1_555
H14 C22 1_555 1_555
C23 C15 1_555 1_555
H15 C23 1_555 1_555
H16 C23 1_555 1_555
H17 C23 1_555 1_555
C24 C21 1_555 1_555
C25 C24 1_555 1_555
H18 C25 1_555 1_555
H19 C25 1_555 1_555
H20 C25 1_555 1_555
C1A C2A 1_555 1_555
C2A C5A 1_555 1_555
C3A B1 1_555 1_555
C4A C5A 1_555 1_555
C5A C11A 1_555 1_555
C6A C1A 1_555 1_555
H1A C6A 1_555 1_555
C7A C4A 1_555 1_555
H2A C7A 1_555 1_555
C9A C8 1_555 1_555
C10A C2A 1_555 1_555
C11A C16A 1_555 1_555
C12A C3A 1_555 1_555
H3A C12A 1_555 1_555
C13A C10A 1_555 1_555
H4A C13A 1_555 1_555
C14A C21 1_555 1_555
H5A C14A 1_555 1_555
C15A C9A 1_555 1_555
H6A C15A 1_555 1_555
C16A H7A 1_555 1_555
C17A C4A 1_555 1_555
H8A C17A 1_555 1_555
C18A C16A 1_555 1_555
H9A C18A 1_555 1_555
C19A C15A 1_555 1_555
H10A C19A 1_555 1_555
H11A C19A 1_555 1_555
H12A C19A 1_555 1_555
C20A C11A 1_555 1_555
H13A C20A 1_555 1_555
C22A C10A 1_555 1_555
H14A C22A 1_555 1_555
C23A C15A 1_555 1_555
H15A C23A 1_555 1_555
H16A C23A 1_555 1_555
H17A C23A 1_555 1_555
C25A C24 1_555 1_555
H18A C25A 1_555 1_555
H19A C25A 1_555 1_555
H20A C25A 1_555 1_555
C6 C7 1_555 1_555
C8 B1 1_555 1_555
C12 C13 1_555 1_555
C17 C18 1_555 1_555
C20 C22 1_555 1_555
C1A C3A 1_555 1_555
C6A C7A 1_555 1_555
C9A C14A 1_555 1_555
C12A C13A 1_555 1_555
C17A C18A 1_555 1_555
C20A C22A 1_555 1_555

#END
