
#######################################################################
#
#                 Cambridge Crystallographic Data Centre
#                                CCDC 
#
#######################################################################
#
# If this CIF has been generated from an entry in the Cambridge 
# Structural Database, then it will include bibliographic, chemical, 
# crystal, experimental, refinement or atomic coordinate data resulting 
# from the CCDC's data processing and validation procedures.
#
#######################################################################

data_VEJWUD
_chemical_formula_moiety         'C40 H69 N3 O8,C1 H4 O1'
_chemical_name_systematic        
'Methyl 3\a,7\a,12\a-tris((t-butoxycarbonyl)amino)-5\a-cholan-24-oate methanol unknown solvate'
_symmetry_cell_setting           hexagonal
_symmetry_space_group_name_H-M   'P 65'
_symmetry_Int_Tables_number      170
_space_group_name_Hall           'P 65'
loop_
_symmetry_equiv_pos_site_id
_symmetry_equiv_pos_as_xyz
1 x,y,z
2 -y,x-y,2/3+z
3 -x+y,-x,1/3+z
4 -x,-y,1/2+z
5 y,-x+y,1/6+z
6 x-y,x,5/6+z
_cell_length_a                   27.007(4)
_cell_length_b                   27.007(4)
_cell_length_c                   11.473(2)
_cell_angle_alpha                90
_cell_angle_beta                 90
_cell_angle_gamma                120
_cell_volume                     7247.03
_exptl_crystal_colour            colorless
_exptl_crystal_description       block
_cell_formula_units_Z            6
_exptl_crystal_recrystallization_method dichloromethane/methanol
loop_
_atom_site_label
_atom_site_type_symbol
_atom_site_fract_x
_atom_site_fract_y
_atom_site_fract_z
C1 C 0.8923(4) 0.5869(4) 0.7129(8)
H1 H 0.8663 0.5471 0.6848
C2 C 0.8760(4) 0.6281(4) 0.6480(9)
H2 H 0.8725 0.6179 0.5634
C3 C 0.8210(4) 0.6213(4) 0.6831(9)
H3 H 0.7903 0.5848 0.6507
H4 H 0.8170 0.6525 0.6472
C4 C 0.8114(4) 0.6215(4) 0.8127(10)
H5 H 0.8436 0.6587 0.8416
C5 C 0.7577(4) 0.6218(4) 0.8467(12)
H6 H 0.7244 0.5870 0.8146
H7 H 0.7583 0.6553 0.8104
C6 C 0.7492(4) 0.6237(4) 0.9793(11)
H8 H 0.7098 0.6170 0.9938
C7 C 0.7554(4) 0.5777(5) 1.0407(12)
H9 H 0.7224 0.5398 1.0207
H10 H 0.7550 0.5829 1.1260
C8 C 0.8118(4) 0.5788(4) 1.0063(9)
H11 H 0.8447 0.6144 1.0367
H12 H 0.8125 0.5461 1.0437
C9 C 0.8188(3) 0.5759(3) 0.8726(8)
C10 C 0.7727(5) 0.5154(4) 0.8321(12)
H13 H 0.7351 0.5126 0.8326
H14 H 0.7722 0.4867 0.8851
H15 H 0.7816 0.5085 0.7530
C11 C 0.8810(4) 0.5893(3) 0.8504(8)
H16 H 0.9074 0.6293 0.8777
C12 C 0.8980(4) 0.5492(4) 0.9150(9)
H17 H 0.8934 0.5519 1.0000
H18 H 0.8716 0.5092 0.8912
C13 C 0.9586(4) 0.5632(4) 0.8907(8)
H19 H 0.9641 0.5331 0.9291
C14 C 0.9696(4) 0.5614(4) 0.7572(9)
C15 C 0.9320(4) 0.4981(4) 0.7207(11)
H20 H 0.9372 0.4941 0.6374
H21 H 0.8917 0.4856 0.7362
H22 H 0.9432 0.4743 0.7656
C16 C 1.0319(4) 0.5848(4) 0.7176(9)
H23 H 1.0554 0.6224 0.7576
C17 C 1.0279(4) 0.5983(4) 0.5844(8)
H24 H 1.0622 0.6345 0.5611
H25 H 1.0251 0.5671 0.5344
C18 C 0.9738(4) 0.6032(4) 0.5725(8)
H26 H 0.9828 0.6399 0.5355
H27 H 0.9444 0.5713 0.5253
C19 C 0.9532(4) 0.6003(4) 0.6978(8)
H28 H 0.9779 0.6391 0.7321
C20 C 0.9338(4) 0.7244(4) 0.5681(10)
C21 C 1.0113(4) 0.8182(4) 0.5023(8)
C22 C 1.0595(4) 0.8666(4) 0.5726(9)
H29 H 1.0837 0.8529 0.6072
H30 H 1.0429 0.8787 0.6347
H31 H 1.0826 0.8990 0.5210
C23 C 1.0334(4) 0.7924(4) 0.4189(9)
H32 H 1.0661 0.7914 0.4534
H33 H 1.0455 0.8152 0.3473
H34 H 1.0032 0.7533 0.4005
C24 C 0.9743(4) 0.8405(5) 0.4505(10)
H35 H 0.9977 0.8735 0.4004
H36 H 0.9577 0.8521 0.5135
H37 H 0.9434 0.8103 0.4042
C25 C 0.7768(4) 0.7173(5) 1.0567(8)
C26 C 0.8093(4) 0.8083(4) 1.1716(10)
C27 C 0.8156(5) 0.8459(5) 1.0735(11)
H38 H 0.8506 0.8553 1.0303
H39 H 0.8180 0.8810 1.1030
H40 H 0.7825 0.8263 1.0216
C28 C 0.7528(5) 0.7867(5) 1.2349(12)
H41 H 0.7505 0.7620 1.2996
H42 H 0.7212 0.7649 1.1806
H43 H 0.7502 0.8193 1.2652
C29 C 0.8583(4) 0.8352(5) 1.2567(10)
H44 H 0.8926 0.8382 1.2207
H45 H 0.8486 0.8114 1.3268
H46 H 0.8656 0.8734 1.2781
C30 C 1.0214(5) 0.6220(5) 1.0487(10)
C31 C 1.0853(5) 0.6915(4) 1.1964(9)
C32 C 1.0436(7) 0.6678(5) 1.2926(10)
H47 H 1.0202 0.6861 1.2934
H48 H 1.0640 0.6749 1.3669
H49 H 1.0189 0.6265 1.2813
C33 C 1.1299(5) 0.6716(5) 1.1946(13)
H50 H 1.1103 0.6300 1.1851
H51 H 1.1512 0.6822 1.2681
H52 H 1.1564 0.6899 1.1296
C34 C 1.1132(5) 0.7548(4) 1.2006(11)
H53 H 1.1420 0.7714 1.1388
H54 H 1.1316 0.7685 1.2765
H55 H 1.0844 0.7662 1.1891
C35 C 1.0642(6) 0.5370(5) 0.8647(14)
H56 H 1.0840 0.5150 0.8713
H57 H 1.0252 0.5141 0.8945
H58 H 1.0848 0.5722 0.9102
C36 C 1.0623(4) 0.5524(4) 0.7320(11)
H59 H 1.0425 0.5164 0.6852
C37 C 1.1241(5) 0.5871(5) 0.6928(11)
H60 H 1.1449 0.6189 0.7487
H61 H 1.1251 0.6043 0.6161
C38 C 1.1562(4) 0.5539(4) 0.6823(15)
H62 H 1.1506 0.5327 0.7562
H63 H 1.1374 0.5249 0.6201
C39 C 1.2175(7) 0.5851(7) 0.658(2)
C40 C 1.3046(7) 0.5816(7) 0.627(3)
H64 H 1.3178 0.5538 0.6272
H65 H 1.3254 0.6107 0.6869
H66 H 1.3117 0.6000 0.5505
N1 N 0.9227(3) 0.6884(3) 0.6570(7)
H67 H 0.9432 0.7005 0.7213
N2 N 0.7904(3) 0.6783(3) 1.0304(8)
H68 H 0.8254 0.6854 1.0441
N3 N 1.0002(3) 0.6191(3) 0.9443(7)
H69 H 1.0108 0.6509 0.9051
O1 O 0.9089(3) 0.7124(3) 0.4769(6)
O2 O 0.9790(3) 0.7767(2) 0.5979(5)
O3 O 0.7332(3) 0.7173(2) 1.0209(6)
O4 O 0.8142(3) 0.7588(3) 1.1285(7)
O5 O 1.0138(4) 0.5813(3) 1.1087(7)
O6 O 1.0553(3) 0.6780(3) 1.0814(5)
O7 O 1.2472(6) 0.6348(5) 0.663(2)
O8 O 1.2435(5) 0.5525(5) 0.6523(15)
C41 C 0.8716(8) 0.5989(7) 0.2865(15)
H70 H 0.9062 0.6018 0.3209
H71 H 0.8620 0.5761 0.2149
H72 H 0.8400 0.5803 0.3420
O9 O 0.8819(4) 0.6564(4) 0.2591(7)
H73 H 0.885(4) 0.672(5) 0.339(6)
loop_
_geom_bond_atom_site_label_1
_geom_bond_atom_site_label_2
_geom_bond_site_symmetry_1
_geom_bond_site_symmetry_2
C1 H1 1_555 1_555
C2 C1 1_555 1_555
H2 C2 1_555 1_555
C3 C2 1_555 1_555
H3 C3 1_555 1_555
H4 C3 1_555 1_555
C4 C3 1_555 1_555
H5 C4 1_555 1_555
C5 C4 1_555 1_555
H6 C5 1_555 1_555
H7 C5 1_555 1_555
C6 C5 1_555 1_555
H8 C6 1_555 1_555
C7 C6 1_555 1_555
H9 C7 1_555 1_555
H10 C7 1_555 1_555
C8 C7 1_555 1_555
H11 C8 1_555 1_555
H12 C8 1_555 1_555
C9 C4 1_555 1_555
C10 C9 1_555 1_555
H13 C10 1_555 1_555
H14 C10 1_555 1_555
H15 C10 1_555 1_555
C11 C1 1_555 1_555
H16 C11 1_555 1_555
C12 C11 1_555 1_555
H17 C12 1_555 1_555
H18 C12 1_555 1_555
C13 C12 1_555 1_555
H19 C13 1_555 1_555
C14 C13 1_555 1_555
C15 C14 1_555 1_555
H20 C15 1_555 1_555
H21 C15 1_555 1_555
H22 C15 1_555 1_555
C16 C14 1_555 1_555
H23 C16 1_555 1_555
C17 C16 1_555 1_555
H24 C17 1_555 1_555
H25 C17 1_555 1_555
C18 C17 1_555 1_555
H26 C18 1_555 1_555
H27 C18 1_555 1_555
C19 C1 1_555 1_555
H28 C19 1_555 1_555
C20 N1 1_555 1_555
C21 C22 1_555 1_555
C22 H29 1_555 1_555
H30 C22 1_555 1_555
H31 C22 1_555 1_555
C23 C21 1_555 1_555
H32 C23 1_555 1_555
H33 C23 1_555 1_555
H34 C23 1_555 1_555
C24 C21 1_555 1_555
H35 C24 1_555 1_555
H36 C24 1_555 1_555
H37 C24 1_555 1_555
C25 N2 1_555 1_555
C26 C27 1_555 1_555
C27 H38 1_555 1_555
H39 C27 1_555 1_555
H40 C27 1_555 1_555
C28 C26 1_555 1_555
H41 C28 1_555 1_555
H42 C28 1_555 1_555
H43 C28 1_555 1_555
C29 C26 1_555 1_555
H44 C29 1_555 1_555
H45 C29 1_555 1_555
H46 C29 1_555 1_555
C30 N3 1_555 1_555
C31 C32 1_555 1_555
C32 H47 1_555 1_555
H48 C32 1_555 1_555
H49 C32 1_555 1_555
C33 C31 1_555 1_555
H50 C33 1_555 1_555
H51 C33 1_555 1_555
H52 C33 1_555 1_555
C34 C31 1_555 1_555
H53 C34 1_555 1_555
H54 C34 1_555 1_555
H55 C34 1_555 1_555
C35 H56 1_555 1_555
H57 C35 1_555 1_555
H58 C35 1_555 1_555
C36 C16 1_555 1_555
H59 C36 1_555 1_555
C37 C36 1_555 1_555
H60 C37 1_555 1_555
H61 C37 1_555 1_555
C38 C37 1_555 1_555
H62 C38 1_555 1_555
H63 C38 1_555 1_555
C39 C38 1_555 1_555
C40 H64 1_555 1_555
H65 C40 1_555 1_555
H66 C40 1_555 1_555
N1 C2 1_555 1_555
H67 N1 1_555 1_555
N2 C6 1_555 1_555
H68 N2 1_555 1_555
N3 C13 1_555 1_555
H69 N3 1_555 1_555
O1 C20 1_555 1_555
O2 C20 1_555 1_555
O3 C25 1_555 1_555
O4 C25 1_555 1_555
O5 C30 1_555 1_555
O6 C30 1_555 1_555
O7 C39 1_555 1_555
O8 C39 1_555 1_555
C41 H70 1_555 1_555
H71 C41 1_555 1_555
H72 C41 1_555 1_555
O9 C41 1_555 1_555
H73 O9 1_555 1_555
C8 C9 1_555 1_555
C9 C11 1_555 1_555
C14 C19 1_555 1_555
C18 C19 1_555 1_555
C21 O2 1_555 1_555
C26 O4 1_555 1_555
C31 O6 1_555 1_555
C35 C36 1_555 1_555
C40 O8 1_555 1_555

#END
