
#######################################################################
#
#                 Cambridge Crystallographic Data Centre
#                                CCDC 
#
#######################################################################
#
# If this CIF has been generated from an entry in the Cambridge 
# Structural Database, then it will include bibliographic, chemical, 
# crystal, experimental, refinement or atomic coordinate data resulting 
# from the CCDC's data processing and validation procedures.
#
#######################################################################

data_VEKGUN
_chemical_formula_moiety         'C26 H24 N4 O9'
_chemical_name_systematic        
sym-(4-Cyano-2,6-dinitroanilino)dibenzo-16-crown-5
_symmetry_cell_setting           monoclinic
_symmetry_space_group_name_H-M   'P 21/n'
_symmetry_Int_Tables_number      14
_space_group_name_Hall           '-P 2yn'
loop_
_symmetry_equiv_pos_site_id
_symmetry_equiv_pos_as_xyz
1 x,y,z
2 1/2-x,1/2+y,1/2-z
3 -x,-y,-z
4 1/2+x,1/2-y,1/2+z
_cell_length_a                   11.8045(5)
_cell_length_b                   8.2221(3)
_cell_length_c                   25.9905(9)
_cell_angle_alpha                90
_cell_angle_beta                 93.7270(10)
_cell_angle_gamma                90
_cell_volume                     2517.25
_exptl_crystal_colour            yellow
_exptl_crystal_description       plate
_chemical_melting_point          '208-210 deg.C'
_cell_formula_units_Z            4
loop_
_atom_site_label
_atom_site_type_symbol
_atom_site_fract_x
_atom_site_fract_y
_atom_site_fract_z
O1 O 0.3534(3) 0.5129(5) 0.1494(2)
O2 O 0.2539(4) 0.4219(5) 0.2401(2)
O3 O 0.0116(3) 0.4656(5) 0.2087(2)
O4 O -0.0745(3) 0.7329(5) 0.1591(2)
O5 O 0.2438(3) 0.7324(6) 0.1028(2)
O6 O 0.0953(4) 0.3357(6) 0.1022(2)
O7 O -0.0378(4) 0.1644(6) 0.1174(2)
O8 O -0.0664(3) 0.8425(6) -0.0082(2)
O9 O -0.2241(4) 0.9097(6) 0.0234(2)
N1 N 0.0352(4) 0.6345(6) 0.0724(2)
N2 N -0.0054(5) 0.2942(7) 0.0992(2)
N3 N -0.1494(4) 0.8104(7) 0.0158(2)
N4 N -0.4891(5) 0.2957(8) 0.0351(2)
C1 C 0.4046(5) 0.3970(8) 0.1847(3)
C2 C 0.3091(5) 0.3087(8) 0.2084(2)
C3 C 0.1653(5) 0.3496(8) 0.2667(2)
C4 C 0.0583(5) 0.3196(8) 0.2330(2)
C5 C -0.0543(5) 0.5665(7) 0.2365(2)
C6 C -0.0976(5) 0.7047(8) 0.2097(2)
C7 C 0.0391(5) 0.7878(7) 0.1525(2)
C8 C 0.0523(5) 0.7989(7) 0.0947(2)
C9 C 0.1689(5) 0.8570(8) 0.0826(2)
C10 C 0.3584(5) 0.7548(8) 0.1027(2)
C11 C 0.4202(5) 0.6289(7) 0.1294(2)
C12 C 0.5379(5) 0.6364(8) 0.1343(2)
C13 C 0.5927(5) 0.7666(8) 0.1120(2)
C14 C 0.5328(5) 0.8856(8) 0.0850(2)
C15 C 0.4143(5) 0.8803(8) 0.0806(2)
C16 C -0.1698(5) 0.8092(8) 0.2331(2)
C17 C -0.2000(5) 0.7808(9) 0.2831(3)
C18 C -0.1539(5) 0.6476(9) 0.3100(3)
C19 C -0.0812(5) 0.5431(8) 0.2867(2)
C20 C -0.0670(5) 0.5640(8) 0.0613(2)
C21 C -0.0913(5) 0.3985(8) 0.0726(2)
C22 C -0.1971(5) 0.3281(8) 0.0638(2)
C23 C -0.2872(5) 0.4179(5) 0.0416(2)
C24 C -0.2682(5) 0.5786(8) 0.0275(2)
C25 C -0.1615(5) 0.6446(7) 0.0365(2)
C26 C -0.4002(6) 0.3483(8) 0.0367(2)
H1 H 0.1018(4) 0.5624(6) 0.0844(2)
H2 H 0.4533(5) 0.4526(8) 0.2116(3)
H3 H 0.4518(5) 0.3195(8) 0.1663(3)
H4 H 0.2547(5) 0.2660(8) 0.1811(2)
H5 H 0.3393(5) 0.2161(8) 0.2295(2)
H6 H 0.1471(5) 0.4213(8) 0.2956(2)
H7 H 0.1926(5) 0.2447(8) 0.2815(2)
H8 H 0.0748(5) 0.2401(8) 0.2059(2)
H9 H 0.0005(5) 0.2708(8) 0.2543(2)
H10 H 0.0948(5) 0.7101(7) 0.1686(2)
H11 H 0.0518(5) 0.8956(7) 0.1688(2)
H12 H -0.0063(5) 0.8746(7) 0.0788(2)
H13 H 0.1742(5) 0.8691(8) 0.0449(2)
H14 H 0.1868(5) 0.9627(8) 0.0995(2)
H15 H 0.5805(5) 0.5543(8) 0.1526(2)
H16 H 0.6732(5) 0.7729(8) 0.1155(2)
H17 H 0.5718(5) 0.9714(8) 0.0692(2)
H18 H 0.3726(5) 0.9633(8) 0.0624(2)
H19 H -0.1992(5) 0.9016(8) 0.2148(2)
H20 H -0.2514(5) 0.8514(9) 0.2988(3)
H21 H -0.1725(5) 0.6283(9) 0.3445(3)
H22 H -0.0493(5) 0.4536(8) 0.3056(2)
H23 H -0.2083(5) 0.2177(8) 0.0730(2)
H24 H -0.3283(5) 0.6421(8) 0.0119(2)
loop_
_geom_bond_atom_site_label_1
_geom_bond_atom_site_label_2
_geom_bond_site_symmetry_1
_geom_bond_site_symmetry_2
O1 C1 1_555 1_555
O2 C2 1_555 1_555
O3 C4 1_555 1_555
O4 C6 1_555 1_555
O5 C9 1_555 1_555
O6 N2 1_555 1_555
O7 N2 1_555 1_555
O8 N3 1_555 1_555
O9 N3 1_555 1_555
N1 C8 1_555 1_555
N2 C21 1_555 1_555
N3 C25 1_555 1_555
N4 C26 1_555 1_555
C1 C2 1_555 1_555
C2 H4 1_555 1_555
C3 O2 1_555 1_555
C4 C3 1_555 1_555
C5 O3 1_555 1_555
C6 C5 1_555 1_555
C7 O4 1_555 1_555
C8 C7 1_555 1_555
C9 C8 1_555 1_555
C10 O5 1_555 1_555
C11 O1 1_555 1_555
C12 C11 1_555 1_555
C13 C12 1_555 1_555
C14 C13 1_555 1_555
C15 C10 1_555 1_555
C16 C6 1_555 1_555
C17 C16 1_555 1_555
C18 C17 1_555 1_555
C19 C5 1_555 1_555
C20 N1 1_555 1_555
C21 C20 1_555 1_555
C22 C21 1_555 1_555
C23 C22 1_555 1_555
C24 C23 1_555 1_555
C25 C20 1_555 1_555
C26 C23 1_555 1_555
H1 N1 1_555 1_555
H2 C1 1_555 1_555
H3 C1 1_555 1_555
H5 C2 1_555 1_555
H6 C3 1_555 1_555
H7 C3 1_555 1_555
H8 C4 1_555 1_555
H9 C4 1_555 1_555
H10 C7 1_555 1_555
H11 C7 1_555 1_555
H12 C8 1_555 1_555
H13 C9 1_555 1_555
H14 C9 1_555 1_555
H15 C12 1_555 1_555
H16 C13 1_555 1_555
H17 C14 1_555 1_555
H18 C15 1_555 1_555
H19 C16 1_555 1_555
H20 C17 1_555 1_555
H21 C18 1_555 1_555
H22 C19 1_555 1_555
H23 C22 1_555 1_555
H24 C24 1_555 1_555
C10 C11 1_555 1_555
C14 C15 1_555 1_555
C18 C19 1_555 1_555
C24 C25 1_555 1_555

#END
