
#######################################################################
#
#                 Cambridge Crystallographic Data Centre
#                                CCDC 
#
#######################################################################
#
# If this CIF has been generated from an entry in the Cambridge 
# Structural Database, then it will include bibliographic, chemical, 
# crystal, experimental, refinement or atomic coordinate data resulting 
# from the CCDC's data processing and validation procedures.
#
#######################################################################

data_VEKHUR
_chemical_formula_moiety         'C16 H15 N1 O1'
_chemical_name_systematic        N-(1,2-diphenylethenyl)acetamide
_symmetry_cell_setting           monoclinic
_symmetry_space_group_name_H-M   'P 21'
_symmetry_Int_Tables_number      4
_space_group_name_Hall           'P 2yb'
loop_
_symmetry_equiv_pos_site_id
_symmetry_equiv_pos_as_xyz
1 x,y,z
2 -x,1/2+y,-z
_cell_length_a                   6.9086(8)
_cell_length_b                   9.5831(7)
_cell_length_c                   19.453(2)
_cell_angle_alpha                90
_cell_angle_beta                 96.737(10)
_cell_angle_gamma                90
_cell_volume                     1279.01
_exptl_crystal_colour            'light yellow'
_exptl_crystal_description       block
_cell_formula_units_Z            4
loop_
_atom_site_label
_atom_site_type_symbol
_atom_site_fract_x
_atom_site_fract_y
_atom_site_fract_z
O1 O 0.0354(11) 0.5380(8) 0.0016(4)
N1 N 0.0256(12) 0.3189(8) 0.0442(4)
H1 H -0.019163 0.233587 0.036685
C1 C 0.4104(15) 0.2034(11) 0.0646(6)
H2 H 0.345935 0.217239 0.019250
C2 C 0.5800(14) 0.1282(11) 0.0730(6)
H3 H 0.632892 0.093540 0.033378
C3 C 0.6745(16) 0.1021(13) 0.1377(7)
H4 H 0.792425 0.050187 0.143590
C4 C 0.5923(19) 0.1541(16) 0.1943(8)
H5 H 0.653504 0.135822 0.239705
C5 C 0.4204(18) 0.2331(12) 0.1854(6)
H6 H 0.366287 0.268238 0.224649
C6 C 0.3303(15) 0.2597(10) 0.1199(6)
C7 C 0.1495(15) 0.3461(12) 0.1094(5)
C8 C 0.1043(15) 0.4435(12) 0.1522(5)
H7 H 0.200577 0.459900 0.190333
C9 C -0.0705(14) 0.5314(12) 0.1509(5)
C10 C -0.0520(15) 0.6578(12) 0.1882(5)
H8 H 0.070525 0.684726 0.211768
C11 C -0.2117(18) 0.7414(12) 0.1901(5)
H9 H -0.199000 0.826007 0.215676
C12 C -0.3896(16) 0.7060(12) 0.1559(5)
H10 H -0.497199 0.767614 0.156296
C13 C -0.4123(15) 0.5821(11) 0.1214(5)
H11 H -0.537601 0.556370 0.099753
C14 C -0.2567(13) 0.4936(10) 0.1174(5)
H12 H -0.273969 0.408411 0.092436
C15 C -0.0240(14) 0.4157(10) -0.0047(5)
C16 C -0.1537(17) 0.3651(12) -0.0655(5)
H13 H -0.289178 0.387647 -0.059740
H14 H -0.139504 0.263836 -0.069659
H15 H -0.118244 0.410426 -0.107458
O2 O 0.5210(10) 0.7710(7) 0.4932(4)
N2 N 0.4901(12) 0.5481(8) 0.4566(4)
H16 H 0.443621 0.465221 0.465146
C17 C 0.8700(13) 0.4364(10) 0.4450(5)
H17 H 0.838116 0.464284 0.489167
C18 C 1.0352(14) 0.3557(10) 0.4406(6)
H18 H 1.117871 0.331847 0.481425
C19 C 1.0788(17) 0.3106(12) 0.3775(6)
H19 H 1.190310 0.253927 0.374618
C20 C 0.9610(17) 0.3474(12) 0.3179(6)
H20 H 0.990922 0.316475 0.273965
C21 C 0.7976(15) 0.4304(11) 0.3231(5)
H21 H 0.716284 0.455675 0.282235
C22 C 0.7516(13) 0.4766(10) 0.3864(5)
C23 C 0.5784(14) 0.5649(11) 0.3933(5)
C24 C 0.5079(16) 0.6566(12) 0.3444(5)
H22 H 0.577405 0.661508 0.305085
C25 C 0.3387(14) 0.7505(12) 0.3427(5)
C26 C 0.3399(16) 0.8719(11) 0.3023(5)
H23 H 0.447055 0.889491 0.277079
C27 C 0.1897(19) 0.9650(12) 0.2988(6)
H24 H 0.197315 1.049196 0.273519
C28 C 0.0292(15) 0.9387(12) 0.3310(5)
H25 H -0.074419 1.004433 0.328260
C29 C 0.0172(14) 0.8157(12) 0.3679(6)
H26 H -0.095677 0.795132 0.389614
C30 C 0.1727(16) 0.7233(11) 0.3725(5)
H27 H 0.163849 0.638359 0.397195
C31 C 0.4740(14) 0.6479(11) 0.5026(5)
C32 C 0.3856(16) 0.6039(11) 0.5659(5)
H28 H 0.440112 0.660540 0.605441
H29 H 0.414893 0.505243 0.575480
H30 H 0.244058 0.617054 0.558187
loop_
_geom_bond_atom_site_label_1
_geom_bond_atom_site_label_2
_geom_bond_site_symmetry_1
_geom_bond_site_symmetry_2
O1 C15 1_555 1_555
N1 H1 1_555 1_555
C1 H2 1_555 1_555
C2 C1 1_555 1_555
H3 C2 1_555 1_555
C3 C2 1_555 1_555
H4 C3 1_555 1_555
C4 C3 1_555 1_555
H5 C4 1_555 1_555
C5 C4 1_555 1_555
H6 C5 1_555 1_555
C6 C1 1_555 1_555
C7 N1 1_555 1_555
C8 C7 1_555 1_555
H7 C8 1_555 1_555
C9 C8 1_555 1_555
C10 C9 1_555 1_555
H8 C10 1_555 1_555
C11 C10 1_555 1_555
H9 C11 1_555 1_555
C12 C11 1_555 1_555
H10 C12 1_555 1_555
C13 C12 1_555 1_555
H11 C13 1_555 1_555
C14 C9 1_555 1_555
H12 C14 1_555 1_555
C15 N1 1_555 1_555
C16 C15 1_555 1_555
H13 C16 1_555 1_555
H14 C16 1_555 1_555
H15 C16 1_555 1_555
O2 C31 1_555 1_555
N2 H16 1_555 1_555
C17 H17 1_555 1_555
C18 C17 1_555 1_555
H18 C18 1_555 1_555
C19 C18 1_555 1_555
H19 C19 1_555 1_555
C20 C19 1_555 1_555
H20 C20 1_555 1_555
C21 C20 1_555 1_555
H21 C21 1_555 1_555
C22 C17 1_555 1_555
C23 N2 1_555 1_555
C24 C23 1_555 1_555
H22 C24 1_555 1_555
C25 C24 1_555 1_555
C26 C25 1_555 1_555
H23 C26 1_555 1_555
C27 C26 1_555 1_555
H24 C27 1_555 1_555
C28 C27 1_555 1_555
H25 C28 1_555 1_555
C29 C28 1_555 1_555
H26 C29 1_555 1_555
C30 C25 1_555 1_555
H27 C30 1_555 1_555
C31 N2 1_555 1_555
C32 C31 1_555 1_555
H28 C32 1_555 1_555
H29 C32 1_555 1_555
H30 C32 1_555 1_555
C5 C6 1_555 1_555
C6 C7 1_555 1_555
C13 C14 1_555 1_555
C21 C22 1_555 1_555
C22 C23 1_555 1_555
C29 C30 1_555 1_555

#END
