
#######################################################################
#
#                 Cambridge Crystallographic Data Centre
#                                CCDC 
#
#######################################################################
#
# If this CIF has been generated from an entry in the Cambridge 
# Structural Database, then it will include bibliographic, chemical, 
# crystal, experimental, refinement or atomic coordinate data resulting 
# from the CCDC's data processing and validation procedures.
#
#######################################################################

data_VEKKUU
_chemical_formula_moiety         'C10 H12 N3 1+,C7 H4 Cl1 O3 1-,H2 O1'
_chemical_name_systematic        
'7-amino-2,4-dimethyl-1,8-naphthyridin-8-ium 5-chloro-2-hydroxybenzoate monohydrate'
_symmetry_cell_setting           orthorhombic
_symmetry_space_group_name_H-M   'I b c a'
_symmetry_Int_Tables_number      73
_space_group_name_Hall           '-I 2b 2c'
loop_
_symmetry_equiv_pos_site_id
_symmetry_equiv_pos_as_xyz
1 x,y,z
2 1/2-x,-y,1/2+z
3 -x,1/2+y,1/2-z
4 1/2+x,1/2-y,-z
5 1/2+x,1/2+y,1/2+z
6 -x,1/2-y,z
7 1/2-x,y,-z
8 x,-y,1/2-z
9 -x,-y,-z
10 1/2+x,y,1/2-z
11 x,1/2-y,1/2+z
12 1/2-x,1/2+y,z
13 1/2-x,1/2-y,1/2-z
14 x,1/2+y,-z
15 1/2+x,-y,z
16 -x,y,1/2+z
_cell_length_a                   13.5500(12)
_cell_length_b                   17.3889(19)
_cell_length_c                   28.896(3)
_cell_angle_alpha                90
_cell_angle_beta                 90
_cell_angle_gamma                90
_cell_volume                     6808.46
_exptl_crystal_colour            colorless
_exptl_crystal_description       block
_cell_formula_units_Z            16
loop_
_atom_site_label
_atom_site_type_symbol
_atom_site_fract_x
_atom_site_fract_y
_atom_site_fract_z
Cl1 Cl 0.36503(19) 0.18224(10) 0.31635(6)
O1 O 0.3651(3) 0.3907(2) 0.44999(11)
O2 O 0.3379(3) 0.5034(2) 0.41657(12)
O3 O 0.3181(3) 0.5146(2) 0.32985(13)
H1 H 0.3199 0.5292 0.3568
C1 C 0.3509(4) 0.4315(3) 0.41519(17)
C2 C 0.3486(4) 0.3941(3) 0.36849(16)
C3 C 0.3324(4) 0.4380(3) 0.32830(17)
C4 C 0.3292(5) 0.4019(3) 0.28518(18)
H2 H 0.3194 0.4310 0.2586
C5 C 0.3405(5) 0.3244(4) 0.28180(19)
H3 H 0.3376 0.3006 0.2530
C6 C 0.3563(5) 0.2806(3) 0.32125(18)
C7 C 0.3603(4) 0.3157(3) 0.36394(17)
H4 H 0.3711 0.2859 0.3902
N1 N 0.3800(3) 0.4497(2) 0.53807(13)
H5 H 0.3705 0.4289 0.5114
N2 N 0.3718(3) 0.3275(2) 0.56834(14)
N3 N 0.3784(3) 0.5688(2) 0.50298(14)
H6 H 0.3671 0.5470 0.4768
H7 H 0.3835 0.6180 0.5046
C8 C 0.3879(4) 0.5270(3) 0.54037(17)
C9 C 0.4081(4) 0.5607(3) 0.58431(17)
H8 H 0.4146 0.6138 0.5870
C10 C 0.4177(4) 0.5161(3) 0.62172(17)
H9 H 0.4321 0.5389 0.6501
C11 C 0.4065(4) 0.4348(3) 0.61941(15)
C12 C 0.3862(4) 0.4028(3) 0.57595(16)
C13 C 0.3747(4) 0.2812(3) 0.6052(2)
C14 C 0.3964(4) 0.3089(3) 0.64954(19)
H10 H 0.3992 0.2745 0.6742
C15 C 0.4135(4) 0.3849(3) 0.65745(17)
C16 C 0.3550(5) 0.1974(3) 0.5970(2)
H11 H 0.3002 0.1919 0.5762
H12 H 0.3397 0.1728 0.6259
H13 H 0.4124 0.1738 0.5837
C17 C 0.4381(5) 0.4152(4) 0.70493(18)
H14 H 0.4429 0.3731 0.7263
H15 H 0.3872 0.4498 0.7149
H16 H 0.5000 0.4420 0.7038
O4 O 0.3896(6) 0.7342(3) 0.51984(19)
H17 H 0.3835 0.7744 0.5363
H18 H 0.3865 0.7478 0.4916
loop_
_geom_bond_atom_site_label_1
_geom_bond_atom_site_label_2
_geom_bond_site_symmetry_1
_geom_bond_site_symmetry_2
Cl1 C6 1_555 1_555
O1 C1 1_555 1_555
O2 C1 1_555 1_555
O3 H1 1_555 1_555
C1 C2 1_555 1_555
C2 C3 1_555 1_555
C3 O3 1_555 1_555
C4 C3 1_555 1_555
H2 C4 1_555 1_555
C5 C4 1_555 1_555
H3 C5 1_555 1_555
C6 C5 1_555 1_555
C7 C2 1_555 1_555
H4 C7 1_555 1_555
N1 H5 1_555 1_555
N2 C12 1_555 1_555
N3 H6 1_555 1_555
H7 N3 1_555 1_555
C8 N1 1_555 1_555
C9 C8 1_555 1_555
H8 C9 1_555 1_555
C10 C9 1_555 1_555
H9 C10 1_555 1_555
C11 C10 1_555 1_555
C12 N1 1_555 1_555
C13 N2 1_555 1_555
C14 C13 1_555 1_555
H10 C14 1_555 1_555
C15 C11 1_555 1_555
C16 C13 1_555 1_555
H11 C16 1_555 1_555
H12 C16 1_555 1_555
H13 C16 1_555 1_555
C17 C15 1_555 1_555
H14 C17 1_555 1_555
H15 C17 1_555 1_555
H16 C17 1_555 1_555
O4 H17 1_555 1_555
H18 O4 1_555 1_555
C6 C7 1_555 1_555
N3 C8 1_555 1_555
C11 C12 1_555 1_555
C14 C15 1_555 1_555

#END
