
#######################################################################
#
#                 Cambridge Crystallographic Data Centre
#                                CCDC 
#
#######################################################################
#
# If this CIF has been generated from an entry in the Cambridge 
# Structural Database, then it will include bibliographic, chemical, 
# crystal, experimental, refinement or atomic coordinate data resulting 
# from the CCDC's data processing and validation procedures.
#
#######################################################################

data_VEKLAB
_chemical_formula_moiety         
'C10 H12 N3 1+,C10 H11 N3,C14 H13 O3 1-,3(H2 O1)'
_chemical_name_systematic        
'7-amino-2,4-dimethyl-1,8-naphthyridin-8-ium 7-amino-2,4-dimethyl-1,8-naphthyridine 2-methyl-2-(2-naphthyloxy)propanoate trihydrate'
_symmetry_cell_setting           monoclinic
_symmetry_space_group_name_H-M   'P 21/c'
_symmetry_Int_Tables_number      14
_space_group_name_Hall           '-P 2ybc'
loop_
_symmetry_equiv_pos_site_id
_symmetry_equiv_pos_as_xyz
1 x,y,z
2 -x,1/2+y,1/2-z
3 -x,-y,-z
4 x,1/2-y,1/2+z
_cell_length_a                   15.5001(13)
_cell_length_b                   15.8560(15)
_cell_length_c                   27.189(2)
_cell_angle_alpha                90
_cell_angle_beta                 107.6200(10)
_cell_angle_gamma                90
_cell_volume                     6368.73
_exptl_crystal_colour            colorless
_exptl_crystal_description       block
_cell_formula_units_Z            8
loop_
_atom_site_label
_atom_site_type_symbol
_atom_site_fract_x
_atom_site_fract_y
_atom_site_fract_z
N1 N 0.6178(5) 0.4511(5) 0.0507(3)
N2 N 0.5743(5) 0.5811(6) 0.0694(3)
N3 N 0.6625(5) 0.3231(5) 0.0310(3)
H1 H 0.6677 0.3428 0.0025
H2 H 0.6747 0.2710 0.0389
C1 C 0.6361(7) 0.3727(7) 0.0625(4)
C2 C 0.6297(7) 0.3355(7) 0.1094(4)
H3 H 0.6419 0.2786 0.1165
C3 C 0.6058(7) 0.3851(7) 0.1423(4)
H4 H 0.6013 0.3623 0.1729
C4 C 0.5868(6) 0.4714(7) 0.1321(3)
C5 C 0.5930(7) 0.5022(7) 0.0846(4)
C6 C 0.5504(7) 0.6353(7) 0.1013(4)
C7 C 0.5457(7) 0.6082(7) 0.1493(4)
H5 H 0.5303 0.6468 0.1710
C8 C 0.5625(7) 0.5287(8) 0.1649(4)
C9 C 0.5320(8) 0.7235(7) 0.0828(4)
H6 H 0.5880 0.7512 0.0849
H7 H 0.5022 0.7529 0.1040
H8 H 0.4938 0.7234 0.0477
C10 C 0.5582(8) 0.5001(7) 0.2170(3)
H9 H 0.5391 0.5462 0.2341
H10 H 0.6170 0.4813 0.2374
H11 H 0.5157 0.4546 0.2126
N4 N 0.3623(5) 0.4785(6) 0.0477(3)
H12 H 0.3664 0.4979 0.0189
N5 N 0.3201(5) 0.6117(5) 0.0650(3)
N6 N 0.4054(5) 0.3500(5) 0.0265(3)
H13 H 0.4083 0.3696 -0.0025
H14 H 0.4181 0.2979 0.0342
C11 C 0.3815(7) 0.3998(7) 0.0590(3)
C12 C 0.3737(7) 0.3645(7) 0.1062(4)
H15 H 0.3857 0.3077 0.1137
C13 C 0.3488(7) 0.4148(7) 0.1392(4)
H16 H 0.3428 0.3924 0.1696
C14 C 0.3317(6) 0.5006(7) 0.1286(3)
C15 C 0.3353(7) 0.5323(7) 0.0806(3)
C16 C 0.2960(7) 0.6649(7) 0.0967(4)
C17 C 0.2905(7) 0.6397(7) 0.1448(4)
H17 H 0.2752 0.6789 0.1662
C18 C 0.3069(7) 0.5590(7) 0.1606(4)
C19 C 0.2782(8) 0.7537(7) 0.0790(4)
H18 H 0.3334 0.7793 0.0775
H19 H 0.2550 0.7844 0.1027
H20 H 0.2345 0.7547 0.0453
C20 C 0.3039(7) 0.5329(7) 0.2138(3)
H21 H 0.3641 0.5208 0.2354
H22 H 0.2668 0.4835 0.2108
H23 H 0.2788 0.5780 0.2287
N7 N 0.1245(5) 0.4321(6) 0.0449(3)
H24 H 0.1257 0.4529 0.0159
N8 N 0.0817(5) 0.5622(6) 0.0643(3)
N9 N 0.1754(5) 0.3076(5) 0.0229(3)
H25 H 0.1775 0.3285 -0.0059
H26 H 0.1911 0.2560 0.0305
C21 C 0.1486(7) 0.3540(7) 0.0551(4)
C22 C 0.1357(7) 0.3140(7) 0.1006(4)
H27 H 0.1449 0.2564 0.1062
C23 C 0.1107(7) 0.3615(7) 0.1337(4)
H28 H 0.1052 0.3372 0.1637
C24 C 0.0921(7) 0.4477(8) 0.1250(4)
C25 C 0.0973(7) 0.4827(7) 0.0782(4)
C26 C 0.0567(7) 0.6143(7) 0.0970(4)
C27 C 0.0503(7) 0.5844(8) 0.1435(4)
H29 H 0.0335 0.6218 0.1652
C28 C 0.0672(7) 0.5039(8) 0.1588(4)
C29 C 0.0378(7) 0.7020(7) 0.0806(4)
H30 H 0.0454 0.7093 0.0471
H31 H 0.0790 0.7385 0.1049
H32 H -0.0232 0.7159 0.0790
C30 C 0.0617(8) 0.4735(8) 0.2104(4)
H33 H 0.0494 0.5204 0.2296
H34 H 0.1182 0.4480 0.2294
H35 H 0.0140 0.4327 0.2051
N10 N 0.1442(5) -0.0098(6) 0.4482(3)
N11 N 0.1847(5) 0.1214(5) 0.4268(3)
N12 N 0.1018(5) -0.1374(5) 0.4698(3)
H36 H 0.0981 -0.1165 0.4983
H37 H 0.0896 -0.1898 0.4629
C31 C 0.1258(7) -0.0898(7) 0.4372(4)
C32 C 0.1342(7) -0.1273(6) 0.3907(4)
H38 H 0.1246 -0.1848 0.3847
C33 C 0.1562(7) -0.0784(7) 0.3560(4)
H39 H 0.1595 -0.1019 0.3253
C34 C 0.1743(6) 0.0080(7) 0.3655(4)
C35 C 0.1690(7) 0.0418(7) 0.4127(4)
C36 C 0.2085(7) 0.1730(7) 0.3937(4)
C37 C 0.2123(7) 0.1444(8) 0.3471(4)
H40 H 0.2270 0.1826 0.3249
C38 C 0.1962(7) 0.0663(8) 0.3320(4)
C39 C 0.2233(8) 0.2650(6) 0.4117(4)
H41 H 0.1686 0.2869 0.4164
H42 H 0.2394 0.2979 0.3861
H43 H 0.2712 0.2679 0.4437
C40 C 0.1979(8) 0.0367(7) 0.2789(4)
H44 H 0.1374 0.0241 0.2579
H45 H 0.2347 -0.0130 0.2826
H46 H 0.2228 0.0804 0.2628
O1 O 0.7504(7) 0.1727(6) 0.0676(3)
O2 O 0.6412(9) 0.1114(8) 0.0933(4)
O3 O 0.8756(8) 0.0792(6) 0.1396(4)
C41 C 0.7262(15) 0.1192(11) 0.0904(6)
C42 C 0.7768(13) 0.0486(9) 0.1181(5)
C43 C 0.8027(10) -0.0089(9) 0.0744(5)
H47 H 0.7500 -0.0392 0.0545
H48 H 0.8495 -0.0482 0.0911
H49 H 0.8237 0.0271 0.0520
C44 C 0.7573(9) -0.0036(8) 0.1557(5)
H50 H 0.7494 0.0308 0.1830
H51 H 0.8064 -0.0422 0.1693
H52 H 0.7027 -0.0348 0.1400
C45 C 0.8260(13) 0.1778(10) 0.1947(6)
H53 H 0.7652 0.1632 0.1819
C46 C 0.8903(17) 0.1445(10) 0.1785(6)
C47 C 0.9845(15) 0.1601(11) 0.1968(7)
H54 H 1.0265 0.1318 0.1846
C48 C 1.0067(13) 0.2183(12) 0.2325(7)
H55 H 1.0678 0.2322 0.2436
C49 C 0.9546(17) 0.2611(10) 0.2555(6)
C50 C 0.8616(17) 0.2399(11) 0.2347(7)
C51 C 0.8140(13) 0.2822(11) 0.2565(6)
H56 H 0.7519 0.2731 0.2441
C52 C 0.8417(14) 0.3399(10) 0.2961(6)
H57 H 0.7989 0.3638 0.3096
C53 C 0.9351(16) 0.3642(10) 0.3169(6)
H58 H 0.9564 0.4043 0.3427
C54 C 0.9887(12) 0.3203(11) 0.2937(6)
H59 H 1.0506 0.3310 0.3042
O4 O 0.2900(7) 0.1602(6) 0.0525(3)
O5 O 0.1846(8) 0.0826(8) 0.0598(4)
O6 O 0.4171(6) 0.0701(5) 0.1244(3)
C55 C 0.2637(14) 0.1003(12) 0.0688(6)
C56 C 0.3280(10) 0.0304(8) 0.0976(5)
C57 C 0.3537(9) -0.0258(8) 0.0577(5)
H60 H 0.3727 0.0091 0.0341
H61 H 0.3022 -0.0586 0.0390
H62 H 0.4023 -0.0629 0.0753
C58 C 0.2951(8) -0.0204(7) 0.1342(4)
H63 H 0.3437 -0.0547 0.1549
H64 H 0.2462 -0.0560 0.1153
H65 H 0.2743 0.0166 0.1562
C59 C 0.3562(10) 0.1647(8) 0.1779(4)
H66 H 0.2965 0.1487 0.1618
C60 C 0.4218(12) 0.1302(8) 0.1615(5)
C61 C 0.5128(10) 0.1559(8) 0.1840(5)
H67 H 0.5590 0.1327 0.1731
C62 C 0.5311(10) 0.2142(8) 0.2214(5)
H68 H 0.5909 0.2310 0.2360
C63 C 0.4650(12) 0.2507(9) 0.2395(5)
C64 C 0.3735(11) 0.2226(8) 0.2174(5)
C65 C 0.3065(10) 0.2584(8) 0.2340(5)
H69 H 0.2468 0.2421 0.2185
C66 C 0.3248(12) 0.3173(9) 0.2725(5)
H70 H 0.2789 0.3399 0.2838
C67 C 0.4123(14) 0.3417(9) 0.2937(5)
H71 H 0.4254 0.3817 0.3200
C68 C 0.4797(12) 0.3110(9) 0.2785(5)
H72 H 0.5383 0.3302 0.2943
O7 O 0.4651(6) 0.1757(5) 0.0359(3)
H73 H 0.5115 0.1527 0.0566
H74 H 0.4195 0.1653 0.0460
O8 O 0.0801(7) 0.6832(5) 0.4518(3)
H75 H 0.1306 0.6804 0.4456
H76 H 0.0852 0.6575 0.4800
O9 O 0.5762(11) 0.9232(10) 0.0672(7)
H77 H 0.5942 0.9740 0.0686
H78 H 0.5680 0.9047 0.0368
O10 O 0.1085(10) 0.9007(9) 0.0445(5)
H79 H 0.1107 0.9536 0.0496
H80 H 0.0573 0.8823 0.0451
O11 O 0.0538(9) 0.0681(9) 0.1036(5)
H81 H 0.0970 0.0717 0.0905
H82 H 0.0123 0.1019 0.0876
O12 O 0.9469(11) 0.9019(9) 0.0362(6)
H83 H 0.9061 0.9128 0.0080
H84 H 0.9681 0.9482 0.0507
loop_
_geom_bond_atom_site_label_1
_geom_bond_atom_site_label_2
_geom_bond_site_symmetry_1
_geom_bond_site_symmetry_2
N1 C1 1_555 1_555
N2 C5 1_555 1_555
N3 H1 1_555 1_555
H2 N3 1_555 1_555
C1 N3 1_555 1_555
C2 C1 1_555 1_555
H3 C2 1_555 1_555
C3 C2 1_555 1_555
H4 C3 1_555 1_555
C4 C3 1_555 1_555
C5 N1 1_555 1_555
C6 N2 1_555 1_555
C7 C6 1_555 1_555
H5 C7 1_555 1_555
C8 C4 1_555 1_555
C9 C6 1_555 1_555
H6 C9 1_555 1_555
H7 C9 1_555 1_555
H8 C9 1_555 1_555
C10 C8 1_555 1_555
H9 C10 1_555 1_555
H10 C10 1_555 1_555
H11 C10 1_555 1_555
N4 H12 1_555 1_555
N5 C15 1_555 1_555
N6 H13 1_555 1_555
H14 N6 1_555 1_555
C11 N4 1_555 1_555
C12 C11 1_555 1_555
H15 C12 1_555 1_555
C13 C12 1_555 1_555
H16 C13 1_555 1_555
C14 C13 1_555 1_555
C15 N4 1_555 1_555
C16 N5 1_555 1_555
C17 C16 1_555 1_555
H17 C17 1_555 1_555
C18 C14 1_555 1_555
C19 C16 1_555 1_555
H18 C19 1_555 1_555
H19 C19 1_555 1_555
H20 C19 1_555 1_555
C20 C18 1_555 1_555
H21 C20 1_555 1_555
H22 C20 1_555 1_555
H23 C20 1_555 1_555
N7 H24 1_555 1_555
N8 C25 1_555 1_555
N9 H25 1_555 1_555
H26 N9 1_555 1_555
C21 N7 1_555 1_555
C22 C21 1_555 1_555
H27 C22 1_555 1_555
C23 C22 1_555 1_555
H28 C23 1_555 1_555
C24 C23 1_555 1_555
C25 N7 1_555 1_555
C26 N8 1_555 1_555
C27 C26 1_555 1_555
H29 C27 1_555 1_555
C28 C24 1_555 1_555
C29 C26 1_555 1_555
H30 C29 1_555 1_555
H31 C29 1_555 1_555
H32 C29 1_555 1_555
C30 C28 1_555 1_555
H33 C30 1_555 1_555
H34 C30 1_555 1_555
H35 C30 1_555 1_555
N10 C31 1_555 1_555
N11 C35 1_555 1_555
N12 H36 1_555 1_555
H37 N12 1_555 1_555
C31 N12 1_555 1_555
C32 C31 1_555 1_555
H38 C32 1_555 1_555
C33 C32 1_555 1_555
H39 C33 1_555 1_555
C34 C33 1_555 1_555
C35 N10 1_555 1_555
C36 N11 1_555 1_555
C37 C36 1_555 1_555
H40 C37 1_555 1_555
C38 C34 1_555 1_555
C39 C36 1_555 1_555
H41 C39 1_555 1_555
H42 C39 1_555 1_555
H43 C39 1_555 1_555
C40 C38 1_555 1_555
H44 C40 1_555 1_555
H45 C40 1_555 1_555
H46 C40 1_555 1_555
O1 C41 1_555 1_555
O2 C41 1_555 1_555
O3 C42 1_555 1_555
C41 C42 1_555 1_555
C42 C43 1_555 1_555
C43 H47 1_555 1_555
H48 C43 1_555 1_555
H49 C43 1_555 1_555
C44 C42 1_555 1_555
H50 C44 1_555 1_555
H51 C44 1_555 1_555
H52 C44 1_555 1_555
C45 H53 1_555 1_555
C46 O3 1_555 1_555
C47 C46 1_555 1_555
H54 C47 1_555 1_555
C48 C47 1_555 1_555
H55 C48 1_555 1_555
C49 C48 1_555 1_555
C50 C45 1_555 1_555
C51 C50 1_555 1_555
H56 C51 1_555 1_555
C52 C51 1_555 1_555
H57 C52 1_555 1_555
C53 C52 1_555 1_555
H58 C53 1_555 1_555
C54 C49 1_555 1_555
H59 C54 1_555 1_555
O4 C55 1_555 1_555
O5 C55 1_555 1_555
O6 C56 1_555 1_555
C55 C56 1_555 1_555
C56 C57 1_555 1_555
C57 H60 1_555 1_555
H61 C57 1_555 1_555
H62 C57 1_555 1_555
C58 C56 1_555 1_555
H63 C58 1_555 1_555
H64 C58 1_555 1_555
H65 C58 1_555 1_555
C59 H66 1_555 1_555
C60 O6 1_555 1_555
C61 C60 1_555 1_555
H67 C61 1_555 1_555
C62 C61 1_555 1_555
H68 C62 1_555 1_555
C63 C62 1_555 1_555
C64 C59 1_555 1_555
C65 C64 1_555 1_555
H69 C65 1_555 1_555
C66 C65 1_555 1_555
H70 C66 1_555 1_555
C67 C66 1_555 1_555
H71 C67 1_555 1_555
C68 C63 1_555 1_555
H72 C68 1_555 1_555
O7 H73 1_555 1_555
H74 O7 1_555 1_555
O8 H75 1_555 1_555
H76 O8 1_555 1_555
O9 H77 1_555 1_555
H78 O9 1_555 1_555
O10 H79 1_555 1_555
H80 O10 1_555 1_555
O11 H81 1_555 1_555
H82 O11 1_555 1_555
O12 H83 1_555 1_555
H84 O12 1_555 1_555
C4 C5 1_555 1_555
C7 C8 1_555 1_555
N6 C11 1_555 1_555
C14 C15 1_555 1_555
C17 C18 1_555 1_555
N9 C21 1_555 1_555
C24 C25 1_555 1_555
C27 C28 1_555 1_555
C34 C35 1_555 1_555
C37 C38 1_555 1_555
C45 C46 1_555 1_555
C49 C50 1_555 1_555
C53 C54 1_555 1_555
C59 C60 1_555 1_555
C63 C64 1_555 1_555
C67 C68 1_555 1_555

#END
