
#######################################################################
#
#                 Cambridge Crystallographic Data Centre
#                                CCDC 
#
#######################################################################
#
# If this CIF has been generated from an entry in the Cambridge 
# Structural Database, then it will include bibliographic, chemical, 
# crystal, experimental, refinement or atomic coordinate data resulting 
# from the CCDC's data processing and validation procedures.
#
#######################################################################

data_VEKLUV
_chemical_formula_moiety         'C10 H12 N3 1+,C7 H3 N2 O7 1-'
_chemical_name_systematic        
'7-amino-2,4-dimethyl-1,8-naphthyridin-8-ium 2-hydroxy-3,5-dinitrobenzoate'
_symmetry_cell_setting           monoclinic
_symmetry_space_group_name_H-M   'P 21'
_symmetry_Int_Tables_number      4
_space_group_name_Hall           'P 2yb'
loop_
_symmetry_equiv_pos_site_id
_symmetry_equiv_pos_as_xyz
1 x,y,z
2 -x,1/2+y,-z
_cell_length_a                   7.5800(6)
_cell_length_b                   7.0710(5)
_cell_length_c                   16.5951(13)
_cell_angle_alpha                90
_cell_angle_beta                 91.6490(10)
_cell_angle_gamma                90
_cell_volume                     889.099
_exptl_crystal_colour            colorless
_exptl_crystal_description       block
_cell_formula_units_Z            2
loop_
_atom_site_label
_atom_site_type_symbol
_atom_site_fract_x
_atom_site_fract_y
_atom_site_fract_z
N1 N 0.9068(4) 0.8900(5) 0.69870(19)
H1 H 0.9584 0.9960 0.7088
N2 N 0.8811(5) 0.8587(6) 0.8358(2)
N3 N 0.9396(5) 0.9498(6) 0.5640(2)
H2 H 0.9902 1.0551 0.5764
H3 H 0.9255 0.9179 0.5142
C1 C 0.8832(6) 0.8368(7) 0.6214(2)
C2 C 0.7988(6) 0.6612(7) 0.6039(3)
H4 H 0.7804 0.6228 0.5507
C3 C 0.7452(6) 0.5503(7) 0.6651(3)
H5 H 0.6901 0.4359 0.6530
C4 C 0.7710(5) 0.6037(7) 0.7477(3)
C5 C 0.8516(5) 0.7810(6) 0.7630(2)
C6 C 0.8306(6) 0.7560(8) 0.8994(3)
C7 C 0.7488(6) 0.5780(8) 0.8901(3)
H6 H 0.7133 0.5134 0.9356
C8 C 0.7199(6) 0.4973(7) 0.8157(3)
C9 C 0.8596(8) 0.8434(9) 0.9811(3)
H7 H 0.9611 0.9246 0.9805
H8 H 0.8787 0.7455 1.0204
H9 H 0.7576 0.9160 0.9946
C10 C 0.6389(7) 0.3058(8) 0.8083(3)
H10 H 0.6126 0.2592 0.8610
H11 H 0.7198 0.2213 0.7832
H12 H 0.5319 0.3135 0.7760
N4 N 0.4412(5) 0.9404(6) 0.5955(2)
N5 N 0.3272(5) 0.8220(7) 0.8796(2)
O1 O 0.1284(4) 0.2965(5) 0.59360(16)
O2 O 0.0932(4) 0.2301(5) 0.72510(18)
O3 O 0.1809(4) 0.4574(5) 0.83114(16)
H13 H 0.1435 0.3608 0.8093
O4 O 0.3162(7) 0.7140(7) 0.9334(2)
O5 O 0.3554(7) 0.9867(7) 0.8887(2)
O6 O 0.5205(5) 1.0849(6) 0.6188(2)
O7 O 0.4212(5) 0.8962(6) 0.5247(2)
C11 C 0.1467(6) 0.3385(7) 0.6670(3)
C12 C 0.2297(5) 0.5207(6) 0.6924(2)
C13 C 0.2404(5) 0.5746(7) 0.7758(2)
C14 C 0.3130(6) 0.7525(7) 0.7949(2)
C15 C 0.3770(6) 0.8715(7) 0.7371(3)
H14 H 0.4257 0.9878 0.7515
C16 C 0.3678(5) 0.8153(7) 0.6572(2)
C17 C 0.2954(6) 0.6426(6) 0.6343(3)
H15 H 0.2906 0.6080 0.5802
loop_
_geom_bond_atom_site_label_1
_geom_bond_atom_site_label_2
_geom_bond_site_symmetry_1
_geom_bond_site_symmetry_2
N1 H1 1_555 1_555
N2 C5 1_555 1_555
N3 H2 1_555 1_555
H3 N3 1_555 1_555
C1 N1 1_555 1_555
C2 C1 1_555 1_555
H4 C2 1_555 1_555
C3 C2 1_555 1_555
H5 C3 1_555 1_555
C4 C3 1_555 1_555
C5 N1 1_555 1_555
C6 N2 1_555 1_555
C7 C6 1_555 1_555
H6 C7 1_555 1_555
C8 C4 1_555 1_555
C9 C6 1_555 1_555
H7 C9 1_555 1_555
H8 C9 1_555 1_555
H9 C9 1_555 1_555
C10 C8 1_555 1_555
H10 C10 1_555 1_555
H11 C10 1_555 1_555
H12 C10 1_555 1_555
N4 O6 1_555 1_555
N5 O4 1_555 1_555
O1 C11 1_555 1_555
O2 C11 1_555 1_555
O3 H13 1_555 1_555
O5 N5 1_555 1_555
O7 N4 1_555 1_555
C11 C12 1_555 1_555
C12 C13 1_555 1_555
C13 O3 1_555 1_555
C14 N5 1_555 1_555
C15 C14 1_555 1_555
H14 C15 1_555 1_555
C16 N4 1_555 1_555
C17 C12 1_555 1_555
H15 C17 1_555 1_555
N3 C1 1_555 1_555
C4 C5 1_555 1_555
C7 C8 1_555 1_555
C13 C14 1_555 1_555
C15 C16 1_555 1_555
C16 C17 1_555 1_555

#END
