
#######################################################################
#
#                 Cambridge Crystallographic Data Centre
#                                CCDC 
#
#######################################################################
#
# If this CIF has been generated from an entry in the Cambridge 
# Structural Database, then it will include bibliographic, chemical, 
# crystal, experimental, refinement or atomic coordinate data resulting 
# from the CCDC's data processing and validation procedures.
#
#######################################################################

data_VEKLOP
_chemical_formula_moiety         'C10 H12 N3 1+,C10 H11 N3,C8 H5 O4 1-,H2 O1'
_chemical_name_systematic        
'7-amino-2,4-dimethyl-1,8-naphthyridin-8-ium 7-amino-2,4-dimethyl-1,8-naphthyridine 2H-1,3-benzodioxole-5-carboxylate monohydrate'
_symmetry_cell_setting           triclinic
_symmetry_space_group_name_H-M   'P -1'
_symmetry_Int_Tables_number      2
_space_group_name_Hall           '-P 1'
loop_
_symmetry_equiv_pos_site_id
_symmetry_equiv_pos_as_xyz
1 x,y,z
2 -x,-y,-z
_cell_length_a                   8.7520(7)
_cell_length_b                   12.2549(12)
_cell_length_c                   12.3101(13)
_cell_angle_alpha                92.5110(10)
_cell_angle_beta                 105.034(2)
_cell_angle_gamma                93.9290(10)
_cell_volume                     1269.53
_exptl_crystal_colour            colorless
_exptl_crystal_description       block
_cell_formula_units_Z            2
loop_
_atom_site_label
_atom_site_type_symbol
_atom_site_fract_x
_atom_site_fract_y
_atom_site_fract_z
N1 N 0.3347(3) -0.05778(19) 0.5546(2)
H1 H 0.3721 -0.1000 0.5119
N2 N 0.2108(3) 0.0238(2) 0.3940(2)
N3 N 0.4608(3) -0.1499(2) 0.7061(2)
H2 H 0.4941 -0.1925 0.6614
H3 H 0.4853 -0.1589 0.7772
C1 C 0.3730(3) -0.0716(2) 0.6660(3)
C2 C 0.3141(4) -0.0002(2) 0.7368(3)
H4 H 0.3416 -0.0066 0.8143
C3 C 0.2192(4) 0.0762(2) 0.6920(3)
H5 H 0.1807 0.1218 0.7394
C4 C 0.1753(3) 0.0899(2) 0.5739(3)
C5 C 0.2387(3) 0.0208(2) 0.5057(3)
C6 C 0.1161(4) 0.0981(3) 0.3438(3)
C7 C 0.0469(4) 0.1690(2) 0.4042(3)
H6 H -0.0191 0.2192 0.3662
C8 C 0.0742(3) 0.1665(2) 0.5197(3)
C9 C 0.0852(4) 0.0995(3) 0.2182(3)
H7 H 0.1844 0.1046 0.1984
H8 H 0.0276 0.1614 0.1925
H9 H 0.0238 0.0332 0.1834
C10 C -0.0037(4) 0.2416(3) 0.5854(3)
H10 H -0.0672 0.1985 0.6234
H11 H -0.0700 0.2869 0.5348
H12 H 0.0765 0.2870 0.6399
N4 N 0.5540(3) 0.21835(19) 0.5937(2)
N5 N 0.4378(3) 0.30479(19) 0.4349(2)
N6 N 0.6732(3) 0.1327(2) 0.7522(2)
H13 H 0.7129 0.0897 0.7116
H14 H 0.6924 0.1260 0.8236
C11 C 0.5821(4) 0.2096(2) 0.7045(3)
C12 C 0.5191(4) 0.2794(3) 0.7750(3)
H15 H 0.5414 0.2708 0.8521
C13 C 0.4276(4) 0.3574(3) 0.7291(3)
H16 H 0.3859 0.4031 0.7744
C14 C 0.3939(4) 0.3706(2) 0.6114(3)
C15 C 0.4612(3) 0.2983(2) 0.5477(3)
C16 C 0.3497(4) 0.3811(3) 0.3834(3)
C17 C 0.2786(4) 0.4547(3) 0.4413(3)
H17 H 0.2168 0.5065 0.4023
C18 C 0.2998(4) 0.4506(3) 0.5555(3)
C19 C 0.2258(4) 0.5314(3) 0.6186(3)
H18 H 0.3079 0.5789 0.6691
H19 H 0.1643 0.4923 0.6608
H20 H 0.1581 0.5743 0.5658
C20 C 0.3277(4) 0.3861(3) 0.2593(3)
H21 H 0.4068 0.3466 0.2369
H22 H 0.3383 0.4612 0.2412
H23 H 0.2240 0.3537 0.2201
O1 O 0.5610(3) 0.80783(19) -0.0657(2)
O2 O 0.7744(3) 0.9087(2) 0.0388(2)
O3 O 0.7013(3) 0.4178(2) 0.0379(2)
O4 O 0.9579(3) 0.4289(2) 0.1476(2)
C21 C 0.6995(5) 0.8203(3) 0.0011(3)
C22 C 0.7761(4) 0.7169(3) 0.0393(3)
C23 C 0.6885(4) 0.6150(3) 0.0131(3)
H24 H 0.5833 0.6087 -0.0295
C24 C 0.7635(4) 0.5255(3) 0.0524(3)
C25 C 0.9171(4) 0.5318(3) 0.1165(3)
C26 C 1.0050(4) 0.6292(3) 0.1423(3)
H25 H 1.1101 0.6338 0.1851
C27 C 0.9324(4) 0.7218(3) 0.1026(3)
H26 H 0.9907 0.7896 0.1191
C28 C 0.8219(5) 0.3564(3) 0.0973(3)
H27 H 0.8475 0.3022 0.0464
H28 H 0.7866 0.3183 0.1551
O5 O 0.6853(3) 0.11005(19) -0.0155(2)
H29 H 0.6107 0.1294 0.0117
H30 H 0.7073 0.0463 0.0049
loop_
_geom_bond_atom_site_label_1
_geom_bond_atom_site_label_2
_geom_bond_site_symmetry_1
_geom_bond_site_symmetry_2
N1 H1 1_555 1_555
N2 C5 1_555 1_555
N3 H2 1_555 1_555
H3 N3 1_555 1_555
C1 N1 1_555 1_555
C2 C1 1_555 1_555
H4 C2 1_555 1_555
C3 C2 1_555 1_555
H5 C3 1_555 1_555
C4 C3 1_555 1_555
C5 N1 1_555 1_555
C6 N2 1_555 1_555
C7 C6 1_555 1_555
H6 C7 1_555 1_555
C8 C4 1_555 1_555
C9 C6 1_555 1_555
H7 C9 1_555 1_555
H8 C9 1_555 1_555
H9 C9 1_555 1_555
C10 C8 1_555 1_555
H10 C10 1_555 1_555
H11 C10 1_555 1_555
H12 C10 1_555 1_555
N4 C11 1_555 1_555
N5 C15 1_555 1_555
N6 H13 1_555 1_555
H14 N6 1_555 1_555
C11 N6 1_555 1_555
C12 C11 1_555 1_555
H15 C12 1_555 1_555
C13 C12 1_555 1_555
H16 C13 1_555 1_555
C14 C13 1_555 1_555
C15 N4 1_555 1_555
C16 N5 1_555 1_555
C17 C16 1_555 1_555
H17 C17 1_555 1_555
C18 C14 1_555 1_555
C19 C18 1_555 1_555
H18 C19 1_555 1_555
H19 C19 1_555 1_555
H20 C19 1_555 1_555
C20 C16 1_555 1_555
H21 C20 1_555 1_555
H22 C20 1_555 1_555
H23 C20 1_555 1_555
O1 C21 1_555 1_555
O2 C21 1_555 1_555
O3 C24 1_555 1_555
O4 C25 1_555 1_555
C21 C22 1_555 1_555
C22 C23 1_555 1_555
C23 H24 1_555 1_555
C24 C23 1_555 1_555
C25 C24 1_555 1_555
C26 C25 1_555 1_555
H25 C26 1_555 1_555
C27 C22 1_555 1_555
H26 C27 1_555 1_555
C28 O3 1_555 1_555
H27 C28 1_555 1_555
H28 C28 1_555 1_555
O5 H29 1_555 1_555
H30 O5 1_555 1_555
N3 C1 1_555 1_555
C4 C5 1_555 1_555
C7 C8 1_555 1_555
C14 C15 1_555 1_555
C17 C18 1_555 1_555
O4 C28 1_555 1_555
C26 C27 1_555 1_555

#END
