
#######################################################################
#
#                 Cambridge Crystallographic Data Centre
#                                CCDC 
#
#######################################################################
#
# If this CIF has been generated from an entry in the Cambridge 
# Structural Database, then it will include bibliographic, chemical, 
# crystal, experimental, refinement or atomic coordinate data resulting 
# from the CCDC's data processing and validation procedures.
#
#######################################################################

data_VEKMOO
_chemical_formula_moiety         'C14 H6 F5 N1 O3'
_chemical_name_systematic        
2-(2-Nitrophenyl)-3-(pentafluorophenyl)oxirane
_symmetry_cell_setting           monoclinic
_symmetry_space_group_name_H-M   'P 21/n'
_symmetry_Int_Tables_number      14
_space_group_name_Hall           '-P 2yn'
loop_
_symmetry_equiv_pos_site_id
_symmetry_equiv_pos_as_xyz
1 x,y,z
2 1/2-x,1/2+y,1/2-z
3 -x,-y,-z
4 1/2+x,1/2-y,1/2+z
_cell_length_a                   7.2975(12)
_cell_length_b                   12.616(2)
_cell_length_c                   13.957(2)
_cell_angle_alpha                90
_cell_angle_beta                 95.331(3)
_cell_angle_gamma                90
_cell_volume                     1279.4
_exptl_crystal_colour            colorless
_cell_formula_units_Z            4
loop_
_atom_site_label
_atom_site_type_symbol
_atom_site_fract_x
_atom_site_fract_y
_atom_site_fract_z
O1 O 0.8586(2) 0.41363(11) 0.73258(10)
O2 O 0.6634(2) 0.45540(13) 0.44931(12)
O3 O 0.5035(3) 0.34390(15) 0.36271(12)
N1 N 0.6081(3) 0.36573(16) 0.43322(13)
F1 F 1.15562(19) 0.54626(10) 0.82457(10)
F2 F 1.2040(2) 0.75474(11) 0.86044(11)
F3 F 1.06227(19) 0.89979(10) 0.73128(11)
F4 F 0.8669(2) 0.83514(10) 0.56667(10)
F5 F 0.8238(2) 0.62793(10) 0.52875(9)
C1 C 1.0831(3) 0.61680(17) 0.75956(15)
C2 C 1.1094(3) 0.72241(19) 0.77800(17)
C3 C 1.0369(3) 0.79573(17) 0.71381(17)
C4 C 0.9391(3) 0.76317(17) 0.62990(17)
C5 C 0.9156(3) 0.65667(17) 0.61301(16)
C6 C 0.9848(3) 0.58000(16) 0.67654(15)
C7 C 0.9587(4) 0.46304(17) 0.66211(15)
C8 C 0.7814(3) 0.41345(17) 0.63416(14)
C9 C 0.7650(3) 0.30500(16) 0.58985(14)
C10 C 0.8325(3) 0.21875(19) 0.64374(18)
C11 C 0.8114(4) 0.11618(19) 0.6113(2)
C12 C 0.7183(4) 0.0959(2) 0.5227(2)
C13 C 0.6486(3) 0.1786(2) 0.46704(19)
C14 C 0.6745(3) 0.28140(16) 0.49930(15)
H1 H 1.064(3) 0.4253(15) 0.6479(13)
H2 H 0.672(3) 0.4562(14) 0.6234(13)
H3 H 0.897(3) 0.2359(17) 0.7026(17)
H4 H 0.864(3) 0.0573(17) 0.6502(16)
H5 H 0.697(3) 0.022(2) 0.5011(17)
H6 H 0.584(3) 0.1704(18) 0.4038(17)
loop_
_geom_bond_atom_site_label_1
_geom_bond_atom_site_label_2
_geom_bond_site_symmetry_1
_geom_bond_site_symmetry_2
O1 C7 1_555 1_555
O2 N1 1_555 1_555
O3 N1 1_555 1_555
N1 C14 1_555 1_555
F1 C1 1_555 1_555
F2 C2 1_555 1_555
F3 C3 1_555 1_555
F4 C4 1_555 1_555
F5 C5 1_555 1_555
C1 C2 1_555 1_555
C2 C3 1_555 1_555
C3 C4 1_555 1_555
C4 C5 1_555 1_555
C5 C6 1_555 1_555
C6 C1 1_555 1_555
C7 C6 1_555 1_555
C8 O1 1_555 1_555
C9 C8 1_555 1_555
C10 C9 1_555 1_555
C11 C10 1_555 1_555
C12 C11 1_555 1_555
C13 C12 1_555 1_555
C14 C9 1_555 1_555
H1 C7 1_555 1_555
H2 C8 1_555 1_555
H3 C10 1_555 1_555
H4 C11 1_555 1_555
H5 C12 1_555 1_555
H6 C13 1_555 1_555
C7 C8 1_555 1_555
C13 C14 1_555 1_555

#END
