
#######################################################################
#
#                 Cambridge Crystallographic Data Centre
#                                CCDC 
#
#######################################################################
#
# If this CIF has been generated from an entry in the Cambridge 
# Structural Database, then it will include bibliographic, chemical, 
# crystal, experimental, refinement or atomic coordinate data resulting 
# from the CCDC's data processing and validation procedures.
#
#######################################################################

data_VEKMUU
_chemical_formula_moiety         'C37 H24 O1,C2 H6 O1'
_chemical_name_systematic        
"syn-2-(5-Benzo(b)fluorenyl)-2'-hydroxy-1,1'-binaphthyl ethanol solvate"
_symmetry_cell_setting           triclinic
_symmetry_space_group_name_H-M   'P -1'
_symmetry_Int_Tables_number      2
_space_group_name_Hall           '-P 1'
loop_
_symmetry_equiv_pos_site_id
_symmetry_equiv_pos_as_xyz
1 x,y,z
2 -x,-y,-z
_cell_length_a                   12.0785(11)
_cell_length_b                   12.1769(11)
_cell_length_c                   12.3268(11)
_cell_angle_alpha                117.835(2)
_cell_angle_beta                 92.914(2)
_cell_angle_gamma                112.266(2)
_cell_volume                     1425.07
_cell_formula_units_Z            2
_exptl_crystal_recrystallization_method ethanol/dichloromethane
loop_
_atom_site_label
_atom_site_type_symbol
_atom_site_fract_x
_atom_site_fract_y
_atom_site_fract_z
O1 O 0.07940(17) 0.5006(2) 0.15066(19)
H1 H 0.0309 0.5322 0.1482
C1 C 0.3556(2) 0.6755(3) 0.3751(2)
C2 C 0.3831(2) 0.7009(3) 0.5022(2)
C3 C 0.4070(3) 0.6081(3) 0.5259(3)
H3 H 0.4034 0.5274 0.4579
C4 C 0.4354(3) 0.6351(4) 0.6475(3)
H4 H 0.4494 0.5718 0.6608
C5 C 0.4434(3) 0.7552(4) 0.7506(3)
H5 H 0.4629 0.7722 0.8327
C6 C 0.4230(3) 0.8482(4) 0.7325(3)
H6 H 0.4297 0.9292 0.8029
C7 C 0.3917(2) 0.8245(3) 0.6086(2)
C8 C 0.3707(2) 0.9207(3) 0.5877(3)
H7 H 0.3760 1.0018 0.6567
C9 C 0.3431(2) 0.8956(3) 0.4682(3)
C10 C 0.3152(3) 0.9817(3) 0.4251(3)
H8 H 0.2394 0.9872 0.4426
H9 H 0.3833 1.0754 0.4669
C11 C 0.2999(2) 0.9033(3) 0.2840(3)
C12 C 0.2741(3) 0.9360(4) 0.1951(4)
H10 H 0.2625 1.0148 0.2200
C13 C 0.2658(3) 0.8499(4) 0.0694(4)
H11 H 0.2486 0.8708 0.0089
C14 C 0.2829(3) 0.7322(4) 0.0321(3)
H12 H 0.2781 0.6758 -0.0529
C15 C 0.3068(2) 0.6980(3) 0.1192(3)
H13 H 0.3179 0.6188 0.0934
C16 C 0.3141(2) 0.7830(3) 0.2467(3)
C17 C 0.3385(2) 0.7747(3) 0.3608(2)
C18 C 0.3524(2) 0.5480(3) 0.2644(2)
C19 C 0.4603(2) 0.5611(3) 0.2199(3)
H14 H 0.5297 0.6481 0.2597
C20 C 0.4646(2) 0.4496(3) 0.1206(3)
H15 H 0.5375 0.4612 0.0955
C21 C 0.3603(2) 0.3170(3) 0.0552(2)
C22 C 0.3601(3) 0.1981(4) -0.0497(3)
H16 H 0.4322 0.2062 -0.0758
C23 C 0.2578(3) 0.0741(4) -0.1118(3)
H17 H 0.2599 -0.0025 -0.1799
C24 C 0.1488(3) 0.0596(3) -0.0748(3)
H18 H 0.0778 -0.0262 -0.1199
C25 C 0.1447(3) 0.1699(3) 0.0269(3)
H19 H 0.0712 0.1581 0.0508
C26 C 0.2506(2) 0.3018(3) 0.0966(2)
C27 C 0.2481(2) 0.4188(3) 0.2040(2)
C28 C 0.1350(2) 0.3989(3) 0.2510(2)
C29 C 0.1048(3) 0.3283(3) 0.3190(2)
C30 C 0.1774(3) 0.2695(3) 0.3426(3)
H20 H 0.2487 0.2780 0.3148
C31 C 0.1436(4) 0.2007(4) 0.4057(3)
H21 H 0.1922 0.1627 0.4204
C32 C 0.0369(4) 0.1861(4) 0.4488(3)
H22 H 0.0148 0.1380 0.4910
C33 C -0.0343(3) 0.2419(4) 0.4293(3)
H23 H -0.1046 0.2326 0.4590
C34 C -0.0029(3) 0.3144(3) 0.3642(2)
C35 C -0.0764(3) 0.3708(3) 0.3414(3)
H24 H -0.1450 0.3652 0.3738
C36 C -0.0499(3) 0.4332(3) 0.2736(3)
H25 H -0.1008 0.4687 0.2584
C37 C 0.0549(2) 0.4446(3) 0.2255(2)
O2 O 0.9366(3) 0.6094(3) 0.1178(2)
H2 H 0.9103 0.5896 0.0451
C38 C 0.9456(4) 0.7424(5) 0.2081(4)
H26 H 0.9705 0.8029 0.1740
H27 H 1.0088 0.7853 0.2864
C39 C 0.8264(4) 0.7280(6) 0.2357(5)
H28 H 0.7643 0.6879 0.1586
H29 H 0.8347 0.8181 0.2972
H30 H 0.8018 0.6683 0.2695
loop_
_geom_bond_atom_site_label_1
_geom_bond_atom_site_label_2
_geom_bond_site_symmetry_1
_geom_bond_site_symmetry_2
O1 H1 1_555 1_555
O2 H2 1_555 1_555
C1 C2 1_555 1_555
C2 C3 1_555 1_555
C3 H3 1_555 1_555
C4 C3 1_555 1_555
H4 C4 1_555 1_555
C5 C4 1_555 1_555
H5 C5 1_555 1_555
C6 C5 1_555 1_555
H6 C6 1_555 1_555
C7 C2 1_555 1_555
C8 C7 1_555 1_555
H7 C8 1_555 1_555
C9 C8 1_555 1_555
C10 C9 1_555 1_555
H8 C10 1_555 1_555
H9 C10 1_555 1_555
C11 C10 1_555 1_555
C12 C11 1_555 1_555
H10 C12 1_555 1_555
C13 C12 1_555 1_555
H11 C13 1_555 1_555
C14 C13 1_555 1_555
H12 C14 1_555 1_555
C15 C14 1_555 1_555
H13 C15 1_555 1_555
C16 C11 1_555 1_555
C17 C1 1_555 1_555
C18 C1 1_555 1_555
C19 C18 1_555 1_555
H14 C19 1_555 1_555
C20 C19 1_555 1_555
H15 C20 1_555 1_555
C21 C20 1_555 1_555
C22 C21 1_555 1_555
H16 C22 1_555 1_555
C23 C22 1_555 1_555
H17 C23 1_555 1_555
C24 C23 1_555 1_555
H18 C24 1_555 1_555
C25 C24 1_555 1_555
H19 C25 1_555 1_555
C26 C21 1_555 1_555
C27 C18 1_555 1_555
C28 C27 1_555 1_555
C29 C28 1_555 1_555
C30 C29 1_555 1_555
H20 C30 1_555 1_555
C31 C30 1_555 1_555
H21 C31 1_555 1_555
C32 C31 1_555 1_555
H22 C32 1_555 1_555
C33 C32 1_555 1_555
H23 C33 1_555 1_555
C34 C29 1_555 1_555
C35 C34 1_555 1_555
H24 C35 1_555 1_555
C36 C35 1_555 1_555
H25 C36 1_555 1_555
C37 O1 1_555 1_555
C38 O2 1_555 1_555
H26 C38 1_555 1_555
H27 C38 1_555 1_555
C39 C38 1_555 1_555
H28 C39 1_555 1_555
H29 C39 1_555 1_555
H30 C39 1_555 1_555
C6 C7 1_555 1_555
C9 C17 1_555 1_555
C15 C16 1_555 1_555
C16 C17 1_555 1_555
C25 C26 1_555 1_555
C26 C27 1_555 1_555
C28 C37 1_555 1_555
C33 C34 1_555 1_555
C36 C37 1_555 1_555

#END
