
#######################################################################
#
#                 Cambridge Crystallographic Data Centre
#                                CCDC 
#
#######################################################################
#
# If this CIF has been generated from an entry in the Cambridge 
# Structural Database, then it will include bibliographic, chemical, 
# crystal, experimental, refinement or atomic coordinate data resulting 
# from the CCDC's data processing and validation procedures.
#
#######################################################################

data_VEKNEF
_chemical_formula_moiety         'C46 H36 O1'
_chemical_name_systematic        
7-t-Butyl-13-(2'-methoxy-1,1'-binaphthalen-2-yl)-8H-indeno(2,1-b)phenanthrene
_symmetry_cell_setting           monoclinic
_symmetry_space_group_name_H-M   'P 21/c'
_symmetry_Int_Tables_number      14
_space_group_name_Hall           '-P 2ybc'
loop_
_symmetry_equiv_pos_site_id
_symmetry_equiv_pos_as_xyz
1 x,y,z
2 -x,1/2+y,1/2-z
3 -x,-y,-z
4 x,1/2-y,1/2+z
_cell_length_a                   17.7678(14)
_cell_length_b                   9.6294(8)
_cell_length_c                   19.9213(17)
_cell_angle_alpha                90
_cell_angle_beta                 105.625(2)
_cell_angle_gamma                90
_cell_volume                     3282.44
_cell_formula_units_Z            4
_exptl_crystal_recrystallization_method dichloromethane/hexanes
loop_
_atom_site_label
_atom_site_type_symbol
_atom_site_fract_x
_atom_site_fract_y
_atom_site_fract_z
O1 O 0.20157(10) 0.72019(18) 0.20064(10)
C1 C 0.19297(11) 1.0107(2) 0.27201(11)
C2 C 0.12022(11) 0.9461(2) 0.26318(11)
C3 C 0.05963(12) 0.9135(2) 0.19819(13)
C4 C 0.05578(14) 0.9280(3) 0.12742(13)
H1 H 0.0972 0.9672 0.1139
C5 C -0.00987(16) 0.8836(3) 0.07797(15)
H2 H -0.0125 0.8954 0.0311
C6 C -0.07126(16) 0.8228(4) 0.09564(17)
H3 H -0.1146 0.7934 0.0610
C7 C -0.06904(15) 0.8051(3) 0.16458(16)
H4 H -0.1106 0.7635 0.1769
C8 C -0.00393(13) 0.8502(3) 0.21547(14)
C9 C 0.01147(13) 0.8373(3) 0.29224(14)
H5 H 0.0100 0.7409 0.3059
H6 H -0.0265 0.8897 0.3090
C10 C 0.09504(12) 0.8991(2) 0.32077(12)
C11 C 0.14276(13) 0.9010(2) 0.38725(12)
C12 C 0.22091(13) 0.9534(2) 0.39628(12)
C13 C 0.28216(14) 0.9276(3) 0.45824(14)
H7 H 0.2725 0.8693 0.4922
C14 C 0.35232(15) 0.9846(3) 0.46845(15)
H8 H 0.3916 0.9595 0.5078
C15 C 0.36983(12) 1.0839(3) 0.42087(13)
C16 C 0.44074(14) 1.1595(3) 0.43824(17)
H9 H 0.4778 1.1423 0.4802
C17 C 0.45499(16) 1.2574(3) 0.39396(19)
H10 H 0.5024 1.3046 0.4048
C18 C 0.39855(18) 1.2862(3) 0.33262(18)
H11 H 0.4076 1.3553 0.3031
C19 C 0.32930(14) 1.2138(3) 0.31493(15)
H12 H 0.2917 1.2363 0.2740
C20 C 0.31404(12) 1.1074(2) 0.35688(12)
C21 C 0.24173(11) 1.0249(2) 0.34008(11)
C22 C 0.21872(11) 1.0487(2) 0.20848(11)
C23 C 0.18513(12) 1.1658(2) 0.16878(13)
H13 H 0.1485 1.2185 0.1832
C24 C 0.20496(13) 1.2034(3) 0.11015(13)
H14 H 0.1833 1.2829 0.0861
C25 C 0.25822(12) 1.1229(2) 0.08536(11)
C26 C 0.27773(13) 1.1567(3) 0.02250(13)
H15 H 0.2577 1.2372 -0.0015
C27 C 0.32455(14) 1.0739(3) -0.00267(13)
H16 H 0.3365 1.0972 -0.0439
C28 C 0.35557(14) 0.9519(3) 0.03335(13)
H17 H 0.3866 0.8937 0.0148
C29 C 0.34068(12) 0.9181(3) 0.09525(12)
H18 H 0.3630 0.8387 0.1190
C30 C 0.29166(11) 1.0027(2) 0.12339(11)
C31 C 0.27338(10) 0.9693(2) 0.18751(11)
C32 C 0.31535(12) 0.8539(2) 0.23305(11)
C33 C 0.39618(13) 0.8700(2) 0.27130(11)
C34 C 0.44193(13) 0.9836(3) 0.26180(12)
H19 H 0.4194 1.0529 0.2302
C35 C 0.51940(15) 0.9943(3) 0.29834(14)
H20 H 0.5481 1.0711 0.2915
C36 C 0.55543(19) 0.8918(4) 0.34544(18)
H21 H 0.6082 0.8991 0.3688
C37 C 0.5136(2) 0.7822(4) 0.35691(16)
H22 H 0.5379 0.7148 0.3889
C38 C 0.43249(17) 0.7668(3) 0.32094(13)
C39 C 0.3876(2) 0.6542(3) 0.33125(15)
H23 H 0.4101 0.5895 0.3654
C40 C 0.3119(2) 0.6349(3) 0.29326(16)
H24 H 0.2842 0.5570 0.3004
C41 C 0.27651(14) 0.7355(2) 0.24295(13)
C42 C 0.11676(14) 0.8474(3) 0.45202(13)
C43 C 0.14680(18) 0.6994(3) 0.46979(17)
H25 H 0.2026 0.6981 0.4786
H26 H 0.1239 0.6390 0.4314
H27 H 0.1327 0.6682 0.5106
C44 C 0.1420(2) 0.9481(4) 0.51397(15)
H28 H 0.1980 0.9512 0.5296
H29 H 0.1216 0.9166 0.5513
H30 H 0.1222 1.0392 0.4997
C45 C 0.02696(16) 0.8449(4) 0.44008(16)
H31 H 0.0150 0.8262 0.4834
H32 H 0.0047 0.7736 0.4070
H33 H 0.0055 0.9333 0.4224
C46 C 0.1541(2) 0.6085(3) 0.2133(2)
H34 H 0.1762 0.5217 0.2045
H35 H 0.1023 0.6174 0.1830
H36 H 0.1520 0.6116 0.2610
loop_
_geom_bond_atom_site_label_1
_geom_bond_atom_site_label_2
_geom_bond_site_symmetry_1
_geom_bond_site_symmetry_2
O1 C41 1_555 1_555
C1 C2 1_555 1_555
C2 C3 1_555 1_555
C3 C4 1_555 1_555
C4 H1 1_555 1_555
C5 C4 1_555 1_555
H2 C5 1_555 1_555
C6 C5 1_555 1_555
H3 C6 1_555 1_555
C7 C6 1_555 1_555
H4 C7 1_555 1_555
C8 C3 1_555 1_555
C9 C8 1_555 1_555
H5 C9 1_555 1_555
H6 C9 1_555 1_555
C10 C2 1_555 1_555
C11 C10 1_555 1_555
C12 C11 1_555 1_555
C13 C12 1_555 1_555
H7 C13 1_555 1_555
C14 C13 1_555 1_555
H8 C14 1_555 1_555
C15 C14 1_555 1_555
C16 C15 1_555 1_555
H9 C16 1_555 1_555
C17 C16 1_555 1_555
H10 C17 1_555 1_555
C18 C17 1_555 1_555
H11 C18 1_555 1_555
C19 C18 1_555 1_555
H12 C19 1_555 1_555
C20 C15 1_555 1_555
C21 C1 1_555 1_555
C22 C1 1_555 1_555
C23 C22 1_555 1_555
H13 C23 1_555 1_555
C24 C23 1_555 1_555
H14 C24 1_555 1_555
C25 C24 1_555 1_555
C26 C25 1_555 1_555
H15 C26 1_555 1_555
C27 C26 1_555 1_555
H16 C27 1_555 1_555
C28 C27 1_555 1_555
H17 C28 1_555 1_555
C29 C28 1_555 1_555
H18 C29 1_555 1_555
C30 C25 1_555 1_555
C31 C22 1_555 1_555
C32 C31 1_555 1_555
C33 C32 1_555 1_555
C34 C33 1_555 1_555
H19 C34 1_555 1_555
C35 C34 1_555 1_555
H20 C35 1_555 1_555
C36 C35 1_555 1_555
H21 C36 1_555 1_555
C37 C36 1_555 1_555
H22 C37 1_555 1_555
C38 C33 1_555 1_555
C39 C38 1_555 1_555
H23 C39 1_555 1_555
C40 C39 1_555 1_555
H24 C40 1_555 1_555
C41 C32 1_555 1_555
C42 C11 1_555 1_555
C43 C42 1_555 1_555
H25 C43 1_555 1_555
H26 C43 1_555 1_555
H27 C43 1_555 1_555
C44 C42 1_555 1_555
H28 C44 1_555 1_555
H29 C44 1_555 1_555
H30 C44 1_555 1_555
C45 C42 1_555 1_555
H31 C45 1_555 1_555
H32 C45 1_555 1_555
H33 C45 1_555 1_555
C46 O1 1_555 1_555
H34 C46 1_555 1_555
H35 C46 1_555 1_555
H36 C46 1_555 1_555
C7 C8 1_555 1_555
C9 C10 1_555 1_555
C12 C21 1_555 1_555
C19 C20 1_555 1_555
C20 C21 1_555 1_555
C29 C30 1_555 1_555
C30 C31 1_555 1_555
C37 C38 1_555 1_555
C40 C41 1_555 1_555

#END
