
#######################################################################
#
#                 Cambridge Crystallographic Data Centre
#                                CCDC 
#
#######################################################################
#
# If this CIF has been generated from an entry in the Cambridge 
# Structural Database, then it will include bibliographic, chemical, 
# crystal, experimental, refinement or atomic coordinate data resulting 
# from the CCDC's data processing and validation procedures.
#
#######################################################################

data_VEKPIL
_chemical_formula_moiety         'C42 H32 N4 O8,2(C6 H6)'
_chemical_name_systematic        
"(N,N'-bis(2-(1,3-Dioxo-1,3-dihydroisoindol-2-yl)cyclohexyl)-1,8:4,5-naphthalenetetracarboxylic di-imide) benzene solvate"
_symmetry_cell_setting           monoclinic
_symmetry_space_group_name_H-M   'P 21'
_symmetry_Int_Tables_number      4
_space_group_name_Hall           'P 2yb'
loop_
_symmetry_equiv_pos_site_id
_symmetry_equiv_pos_as_xyz
1 x,y,z
2 -x,1/2+y,-z
_cell_length_a                   11.354(2)
_cell_length_b                   16.712(3)
_cell_length_c                   11.413(2)
_cell_angle_alpha                90
_cell_angle_beta                 90.50(3)
_cell_angle_gamma                90
_cell_volume                     2165.51
_exptl_crystal_colour            yellow
_exptl_crystal_description       prism
_cell_formula_units_Z            2
loop_
_atom_site_label
_atom_site_type_symbol
_atom_site_fract_x
_atom_site_fract_y
_atom_site_fract_z
C1 C 0.6131(4) 0.2258(2) 0.4375(4)
C2 C 0.5609(4) 0.2021(2) 0.3222(4)
C3 C 0.5736(4) 0.2507(3) 0.2261(4)
H1 H 0.6169 0.2998 0.2331
C4 C 0.5230(4) 0.2296(3) 0.1187(4)
H2 H 0.5343 0.2631 0.0513
C5 C 0.4572(4) 0.1607(2) 0.1080(4)
C6 C 0.4045(4) 0.1376(3) -0.0074(4)
C7 C 0.3169(4) 0.0175(3) 0.0858(4)
C8 C 0.3742(4) 0.0398(3) 0.1975(4)
C9 C 0.3632(4) -0.0102(3) 0.2933(4)
H3 H 0.3151 -0.0573 0.2875
C10 C 0.4209(4) 0.0088(3) 0.3982(4)
H4 H 0.4148 -0.0268 0.4639
C11 C 0.4857(4) 0.0775(2) 0.4088(4)
C12 C 0.5468(4) 0.0959(2) 0.5209(4)
C13 C 0.4961(4) 0.1299(3) 0.3132(4)
C14 C 0.4419(4) 0.1099(2) 0.2057(4)
C15 C 0.6644(4) 0.1874(2) 0.6431(4)
H5 H 0.6548 0.1410 0.6917
C16 C 0.7973(4) 0.1998(3) 0.6300(4)
H6 H 0.8089 0.2471 0.5837
C17 C 0.8554(4) 0.2140(3) 0.7502(4)
H7 H 0.9380 0.2244 0.7412
H8 H 0.8470 0.1667 0.7970
C18 C 0.7965(4) 0.2837(3) 0.8123(4)
H9 H 0.8086 0.3316 0.7674
H10 H 0.8323 0.2912 0.8880
C19 C 0.6640(4) 0.2697(3) 0.8257(4)
H11 H 0.6288 0.3148 0.8640
H12 H 0.6519 0.2234 0.8739
C20 C 0.6052(4) 0.2566(3) 0.7073(4)
H13 H 0.5231 0.2448 0.7174
H14 H 0.6114 0.3044 0.6611
C21 C 0.9019(4) 0.1391(3) 0.4579(4)
C22 C 0.9419(4) 0.0577(3) 0.4259(5)
C23 C 0.9977(5) 0.0322(4) 0.3244(5)
H15 H 1.0192 0.0691 0.2638
C24 C 1.0204(6) -0.0489(5) 0.3164(6)
H16 H 1.0583 -0.0690 0.2475
C25 C 0.9906(6) -0.1010(4) 0.4044(8)
H17 H 1.0068 -0.1568 0.3936
C26 C 0.9365(5) -0.0751(3) 0.5076(6)
H18 H 0.9180 -0.1110 0.5705
C27 C 0.9132(4) 0.0058(3) 0.5143(5)
C28 C 0.8552(4) 0.0528(3) 0.6096(5)
C29 C 0.2706(4) 0.0457(3) -0.1199(4)
H19 H 0.2072 0.0108 -0.0984
C30 C 0.2152(4) 0.1141(3) -0.1906(4)
H20 H 0.2786 0.1433 -0.2259
C31 C 0.1418(4) 0.0783(3) -0.2899(4)
H21 H 0.1039 0.1202 -0.3337
H22 H 0.0820 0.0445 -0.2575
C32 C 0.2205(4) 0.0289(3) -0.3699(4)
H23 H 0.2771 0.0637 -0.4055
H24 H 0.1739 0.0051 -0.4312
C33 C 0.2860(4) -0.0362(3) -0.3014(4)
H25 H 0.3395 -0.0635 -0.3524
H26 H 0.2297 -0.0746 -0.2739
C34 C 0.3535(4) -0.0024(3) -0.1968(4)
H27 H 0.3879 -0.0451 -0.1520
H28 H 0.4158 0.0315 -0.2240
C35 C 0.0783(4) 0.1528(3) -0.0224(4)
C36 C 0.0417(4) 0.2312(3) 0.0274(4)
C37 C -0.0250(5) 0.2483(4) 0.1248(5)
H29 H -0.0594 0.2066 0.1710
C38 C -0.0392(5) 0.3286(4) 0.1530(5)
H30 H -0.0854 0.3427 0.2200
C39 C 0.0081(5) 0.3890(4) 0.0853(5)
H31 H -0.0028 0.4438 0.1082
C40 C 0.0749(5) 0.3714(3) -0.0129(5)
H32 H 0.1077 0.4131 -0.0605
C41 C 0.0908(4) 0.2916(3) -0.0405(4)
C42 C 0.1576(4) 0.2532(3) -0.1359(4)
N1 N 0.6073(3) 0.1692(2) 0.5289(3)
N2 N 0.8522(3) 0.1319(2) 0.5684(3)
N3 N 0.3303(3) 0.0711(2) -0.0088(3)
N4 N 0.1500(3) 0.1702(2) -0.1171(3)
O1 O 0.6592(3) 0.29036(18) 0.4527(3)
O2 O 0.4265(3) 0.1750(2) -0.0952(3)
O3 O 0.2609(3) -0.04377(19) 0.0738(3)
O4 O 0.5435(3) 0.0500(2) 0.6036(3)
O5 O 0.9087(4) 0.2006(3) 0.4021(3)
O6 O 0.8199(3) 0.0303(2) 0.7032(3)
O7 O 0.0522(3) 0.0864(2) 0.0117(3)
O8 O 0.2087(3) 0.2834(2) -0.2162(3)
C43 C 0.7368(6) 0.0479(4) 0.1517(6)
H33 H 0.7798 0.0844 0.2009
C44 C 0.7237(5) 0.0631(4) 0.0342(6)
H34 H 0.7580 0.1103 0.0011
C45 C 0.6623(6) 0.0115(5) -0.0358(6)
H35 H 0.6517 0.0228 -0.1177
C46 C 0.6144(6) -0.0559(4) 0.0108(7)
H36 H 0.5719 -0.0927 -0.0383
C47 C 0.6277(6) -0.0717(4) 0.1273(7)
H37 H 0.5929 -0.1190 0.1600
C48 C 0.6909(6) -0.0206(5) 0.1987(6)
H38 H 0.7008 -0.0322 0.2806
C49 C 0.3006(7) 0.2660(7) 0.5082(6)
H39 H 0.3102 0.2483 0.5878
C50 C 0.2389(6) 0.2220(5) 0.4296(7)
H40 H 0.2026 0.1734 0.4557
C51 C 0.2267(7) 0.2446(5) 0.3199(7)
H41 H 0.1830 0.2116 0.2661
C52 C 0.2749(7) 0.3122(5) 0.2807(7)
H42 H 0.2638 0.3275 0.2003
C53 C 0.3392(6) 0.3603(4) 0.3546(10)
H43 H 0.3752 0.4084 0.3260
C54 C 0.3521(7) 0.3367(6) 0.4706(9)
H44 H 0.3941 0.3696 0.5257
loop_
_geom_bond_atom_site_label_1
_geom_bond_atom_site_label_2
_geom_bond_site_symmetry_1
_geom_bond_site_symmetry_2
C1 C2 1_555 1_555
C2 C3 1_555 1_555
C3 H1 1_555 1_555
C4 C3 1_555 1_555
H2 C4 1_555 1_555
C5 C4 1_555 1_555
C6 C5 1_555 1_555
C7 C8 1_555 1_555
C8 C9 1_555 1_555
C9 H3 1_555 1_555
C10 C9 1_555 1_555
H4 C10 1_555 1_555
C11 C10 1_555 1_555
C12 C11 1_555 1_555
C13 C2 1_555 1_555
C14 C5 1_555 1_555
C15 H5 1_555 1_555
C16 C15 1_555 1_555
H6 C16 1_555 1_555
C17 C16 1_555 1_555
H7 C17 1_555 1_555
H8 C17 1_555 1_555
C18 C17 1_555 1_555
H9 C18 1_555 1_555
H10 C18 1_555 1_555
C19 C18 1_555 1_555
H11 C19 1_555 1_555
H12 C19 1_555 1_555
C20 C15 1_555 1_555
H13 C20 1_555 1_555
H14 C20 1_555 1_555
C21 C22 1_555 1_555
C22 C23 1_555 1_555
C23 H15 1_555 1_555
C24 C23 1_555 1_555
H16 C24 1_555 1_555
C25 C24 1_555 1_555
H17 C25 1_555 1_555
C26 C25 1_555 1_555
H18 C26 1_555 1_555
C27 C22 1_555 1_555
C28 C27 1_555 1_555
C29 H19 1_555 1_555
C30 C29 1_555 1_555
H20 C30 1_555 1_555
C31 C30 1_555 1_555
H21 C31 1_555 1_555
H22 C31 1_555 1_555
C32 C31 1_555 1_555
H23 C32 1_555 1_555
H24 C32 1_555 1_555
C33 C32 1_555 1_555
H25 C33 1_555 1_555
H26 C33 1_555 1_555
C34 C29 1_555 1_555
H27 C34 1_555 1_555
H28 C34 1_555 1_555
C35 C36 1_555 1_555
C36 C37 1_555 1_555
C37 H29 1_555 1_555
C38 C37 1_555 1_555
H30 C38 1_555 1_555
C39 C38 1_555 1_555
H31 C39 1_555 1_555
C40 C39 1_555 1_555
H32 C40 1_555 1_555
C41 C36 1_555 1_555
C42 C41 1_555 1_555
N1 C1 1_555 1_555
N2 C16 1_555 1_555
N3 C6 1_555 1_555
N4 C30 1_555 1_555
O1 C1 1_555 1_555
O2 C6 1_555 1_555
O3 C7 1_555 1_555
O4 C12 1_555 1_555
O5 C21 1_555 1_555
O6 C28 1_555 1_555
O7 C35 1_555 1_555
O8 C42 1_555 1_555
C43 H33 1_555 1_555
C44 C43 1_555 1_555
H34 C44 1_555 1_555
C45 C44 1_555 1_555
H35 C45 1_555 1_555
C46 C45 1_555 1_555
H36 C46 1_555 1_555
C47 C46 1_555 1_555
H37 C47 1_555 1_555
C48 C43 1_555 1_555
H38 C48 1_555 1_555
C49 H39 1_555 1_555
C50 C49 1_555 1_555
H40 C50 1_555 1_555
C51 C50 1_555 1_555
H41 C51 1_555 1_555
C52 C51 1_555 1_555
H42 C52 1_555 1_555
C53 C52 1_555 1_555
H43 C53 1_555 1_555
C54 C49 1_555 1_555
H44 C54 1_555 1_555
C7 N3 1_555 1_555
C8 C14 1_555 1_555
C11 C13 1_555 1_555
C12 N1 1_555 1_555
C13 C14 1_555 1_555
C15 N1 1_555 1_555
C19 C20 1_555 1_555
C21 N2 1_555 1_555
C26 C27 1_555 1_555
C28 N2 1_555 1_555
C29 N3 1_555 1_555
C33 C34 1_555 1_555
C35 N4 1_555 1_555
C40 C41 1_555 1_555
C42 N4 1_555 1_555
C47 C48 1_555 1_555
C53 C54 1_555 1_555

#END
