
#######################################################################
#
#                 Cambridge Crystallographic Data Centre
#                                CCDC 
#
#######################################################################
#
# If this CIF has been generated from an entry in the Cambridge 
# Structural Database, then it will include bibliographic, chemical, 
# crystal, experimental, refinement or atomic coordinate data resulting 
# from the CCDC's data processing and validation procedures.
#
#######################################################################

data_VEKPUX
_chemical_formula_moiety         'C22 H22 Br1 F1 N2 O2'
_chemical_name_systematic        
rac-(1S,3aS,4R,8aS,8bR)/(1R,3aR,4S,8aR,8bS)-4-(4-Bromophenyl)-2-((4-fluorophenyl)methyl)-1-hydroxyoctahydrodipyrrolo(1,2-a:3',4'-c)pyrrol-3(2H)-one
_symmetry_cell_setting           triclinic
_symmetry_space_group_name_H-M   'P -1'
_symmetry_Int_Tables_number      2
_space_group_name_Hall           '-P 1'
loop_
_symmetry_equiv_pos_site_id
_symmetry_equiv_pos_as_xyz
1 x,y,z
2 -x,-y,-z
_cell_length_a                   9.4567(2)
_cell_length_b                   10.5163(2)
_cell_length_c                   10.6619(2)
_cell_angle_alpha                78.900(1)
_cell_angle_beta                 89.899(1)
_cell_angle_gamma                66.981(1)
_cell_volume                     954.458
_exptl_crystal_colour            colorless
_cell_formula_units_Z            2
loop_
_atom_site_label
_atom_site_type_symbol
_atom_site_fract_x
_atom_site_fract_y
_atom_site_fract_z
C1 C 0.4416(2) 0.94499(19) 0.76657(18)
H1 H 0.3505 1.0375 0.7454
N1 N 0.44530(18) 0.86615(15) 0.66752(14)
C2 C 0.5740(2) 0.83263(17) 0.60349(16)
C3 C 0.6863(2) 0.87696(17) 0.66563(16)
H2 H 0.7287 0.9302 0.5990
C4 C 0.5909(2) 0.97331(18) 0.75393(16)
H3 H 0.5673 1.0750 0.7171
C5 C 0.8200(2) 0.75477(18) 0.75629(15)
H4 H 0.9139 0.7766 0.7483
N2 N 0.76854(16) 0.76753(15) 0.88682(13)
C6 C 0.6901(2) 0.92203(18) 0.87998(16)
H5 H 0.6233 0.9405 0.9528
C7 C 0.8185(2) 0.9739(2) 0.89126(19)
H6 H 0.7824 1.0599 0.9279
H7 H 0.8573 0.9945 0.8067
C8 C 0.9430(3) 0.8488(2) 0.9824(2)
H8 H 0.9428 0.8680 1.0698
H9 H 1.0464 0.8313 0.9514
C9 C 0.9017(2) 0.7202(2) 0.98313(17)
H10 H 0.9904 0.6416 0.9604
H11 H 0.8740 0.6870 1.0692
C10 C 0.86268(19) 0.60750(17) 0.73230(15)
C11 C 0.7655(2) 0.53558(18) 0.75857(16)
H12 H 0.6733 0.5768 0.7984
C12 C 0.8018(2) 0.40497(19) 0.72729(17)
H13 H 0.7353 0.3567 0.7450
C13 C 0.9373(2) 0.34622(18) 0.66960(16)
C14 C 1.0385(2) 0.41158(18) 0.64641(16)
H14 H 1.1324 0.3682 0.6096
C15 C 0.9997(2) 0.54291(18) 0.67838(16)
H15 H 1.0683 0.5892 0.6630
Br1 Br 0.98301(2) 0.172403(19) 0.616548(19)
O1 O 0.59366(17) 0.77763(14) 0.50988(12)
O2 O 0.42827(18) 0.87099(18) 0.88791(14)
H16 H 0.5152 0.8091 0.9183
C16 C 0.3163(2) 0.82971(19) 0.63757(19)
H17 H 0.2987 0.8461 0.5432
H18 H 0.2220 0.8939 0.6692
C17 C 0.34088(19) 0.67837(18) 0.69511(17)
C18 C 0.37498(19) 0.57965(19) 0.61787(17)
H19 H 0.3829 0.6080 0.5289
C19 C 0.3979(2) 0.44003(19) 0.66778(17)
H20 H 0.4213 0.3728 0.6145
C20 C 0.3854(2) 0.40287(19) 0.79650(18)
C21 C 0.3492(2) 0.4967(2) 0.87687(18)
H21 H 0.3395 0.4676 0.9653
C22 C 0.3272(2) 0.6354(2) 0.82512(18)
H22 H 0.3025 0.7020 0.8790
F1 F 0.40661(16) 0.26630(12) 0.84684(12)
loop_
_geom_bond_atom_site_label_1
_geom_bond_atom_site_label_2
_geom_bond_site_symmetry_1
_geom_bond_site_symmetry_2
C1 H1 1_555 1_555
N1 C1 1_555 1_555
C2 N1 1_555 1_555
C3 C2 1_555 1_555
H2 C3 1_555 1_555
C4 C1 1_555 1_555
H3 C4 1_555 1_555
C5 C3 1_555 1_555
H4 C5 1_555 1_555
N2 C5 1_555 1_555
C6 C4 1_555 1_555
H5 C6 1_555 1_555
C7 C6 1_555 1_555
H6 C7 1_555 1_555
H7 C7 1_555 1_555
C8 C7 1_555 1_555
H8 C8 1_555 1_555
H9 C8 1_555 1_555
C9 N2 1_555 1_555
H10 C9 1_555 1_555
H11 C9 1_555 1_555
C10 C5 1_555 1_555
C11 C10 1_555 1_555
H12 C11 1_555 1_555
C12 C11 1_555 1_555
H13 C12 1_555 1_555
C13 C12 1_555 1_555
C14 C13 1_555 1_555
H14 C14 1_555 1_555
C15 C10 1_555 1_555
H15 C15 1_555 1_555
Br1 C13 1_555 1_555
O1 C2 1_555 1_555
O2 C1 1_555 1_555
H16 O2 1_555 1_555
C16 N1 1_555 1_555
H17 C16 1_555 1_555
H18 C16 1_555 1_555
C17 C16 1_555 1_555
C18 C17 1_555 1_555
H19 C18 1_555 1_555
C19 C18 1_555 1_555
H20 C19 1_555 1_555
C20 C19 1_555 1_555
C21 C20 1_555 1_555
H21 C21 1_555 1_555
C22 C17 1_555 1_555
H22 C22 1_555 1_555
F1 C20 1_555 1_555
C3 C4 1_555 1_555
N2 C6 1_555 1_555
C8 C9 1_555 1_555
C14 C15 1_555 1_555
C21 C22 1_555 1_555

#END
