
#######################################################################
#
#                 Cambridge Crystallographic Data Centre
#                                CCDC 
#
#######################################################################
#
# If this CIF has been generated from an entry in the Cambridge 
# Structural Database, then it will include bibliographic, chemical, 
# crystal, experimental, refinement or atomic coordinate data resulting 
# from the CCDC's data processing and validation procedures.
#
#######################################################################

data_VEKPUY
_chemical_formula_moiety         'C12 H14 N2 O5,H2 O1'
_chemical_name_systematic        
'5-((4-Hydroxy-5-(hydroxymethyl)tetrahydrofuran-2-yl)ethynyl)-1-methylpyrimidine-2,4(1H,3H)-dione monohydrate'
_symmetry_cell_setting           monoclinic
_symmetry_space_group_name_H-M   'P 21'
_symmetry_Int_Tables_number      4
_space_group_name_Hall           'P 2yb'
loop_
_symmetry_equiv_pos_site_id
_symmetry_equiv_pos_as_xyz
1 x,y,z
2 -x,1/2+y,-z
_cell_length_a                   10.3322(4)
_cell_length_b                   5.3618(2)
_cell_length_c                   23.9597(9)
_cell_angle_alpha                90
_cell_angle_beta                 98.930(2)
_cell_angle_gamma                90
_cell_volume                     1311.26
_exptl_crystal_colour            colorless
_chemical_melting_point          '192-194 deg.C'
_cell_formula_units_Z            4
_exptl_crystal_recrystallization_method ethanol/water
loop_
_atom_site_label
_atom_site_type_symbol
_atom_site_fract_x
_atom_site_fract_y
_atom_site_fract_z
O1 O -0.3049(2) 0.3563(5) -0.47566(8)
O2 O -0.63820(19) 0.8220(4) -0.40808(7)
O3 O -0.4211(2) 0.3977(4) -0.37687(8)
O4 O -0.1033(2) -0.0473(4) -0.27467(8)
O5 O 0.0194(2) -0.2923(4) -0.09269(8)
N1 N -0.1097(2) 0.0520(5) -0.10867(10)
N2 N -0.0438(2) -0.1629(5) -0.18332(9)
C1 C -0.3427(3) 0.5884(6) -0.45530(13)
C2 C -0.4562(3) 0.5615(5) -0.42410(12)
C3 C -0.4987(3) 0.8054(6) -0.40018(12)
C4 C -0.4452(3) 0.7905(6) -0.33808(12)
C5 C -0.4486(3) 0.5105(6) -0.32613(12)
C6 C -0.3537(3) 0.4175(7) -0.27952(13)
C7 C -0.2757(3) 0.3210(6) -0.24323(13)
C8 C -0.1908(2) 0.1817(5) -0.20309(12)
C9 C -0.1102(3) -0.0113(6) -0.22361(12)
C10 C -0.0395(3) -0.1460(6) -0.12598(13)
C11 C -0.1014(3) 0.0944(7) -0.04842(11)
C12 C -0.1814(2) 0.2067(6) -0.14665(12)
H1 H -0.2777 0.2028 -0.4899
H3 H 0.0075 -0.2920 -0.1960
H5 H -0.3682 0.6978 -0.4862
H6 H -0.2709 0.6583 -0.4308
H7 H -0.5281 0.4901 -0.4483
H8 H -0.4621 0.9435 -0.4171
H9 H -0.5000 0.8791 -0.3166
H10 H -0.3587 0.8551 -0.3303
H11 H -0.5340 0.4626 -0.3202
H12 H -0.0349 0.2145 -0.0371
H13 H -0.1828 0.1552 -0.0403
H14 H -0.0800 -0.0568 -0.0284
H15 H -0.2289 0.3377 -0.1324
H27 H -0.7310 0.8351 -0.4130
O6 O 0.3445(2) -0.9756(5) -0.03274(8)
O7 O 0.6475(2) -1.3646(5) -0.08206(8)
O8 O 0.32033(18) -1.2337(4) -0.13760(7)
O9 O 0.09673(19) -0.5494(4) -0.22921(7)
O10 O -0.0010(2) -0.2585(4) -0.40885(8)
N3 N 0.1235(2) -0.6087(5) -0.39464(9)
N4 N 0.0498(2) -0.4111(4) -0.31936(9)
C13 C 0.3587(3) -1.2325(7) -0.03799(13)
C14 C 0.4117(3) -1.3090(6) -0.08990(11)
C15 C 0.5418(2) -1.2019(6) -0.09940(11)
C16 C 0.5278(3) -1.1515(8) -0.16168(12)
C17 C 0.3888(2) -1.2369(6) -0.18486(11)
C18 C 0.3161(3) -1.0723(6) -0.22847(12)
C19 C 0.2589(3) -0.9341(6) -0.26220(12)
C20 C 0.1876(2) -0.7610(6) -0.30096(12)
C21 C 0.1910(2) -0.7699(6) -0.35690(11)
C22 C 0.1217(2) -0.6359(7) -0.45510(10)
C23 C 0.0533(3) -0.4150(6) -0.37598(12)
C24 C 0.1112(2) -0.5719(6) -0.27914(11)
H2 H 0.3338 -0.8008 -0.0287
H4 H -0.0022 -0.2835 -0.3065
H16 H 0.2756 -1.3094 -0.0385
H17 H 0.4174 -1.2905 -0.0062
H18 H 0.4173 -1.4858 -0.0904
H19 H 0.5560 -1.0480 -0.0798
H20 H 0.5890 -1.2475 -0.1782
H21 H 0.5400 -0.9796 -0.1689
H22 H 0.3889 -1.4013 -0.1996
H23 H 0.2391 -0.9001 -0.3711
H24 H 0.0452 -0.7249 -0.4708
H25 H 0.1210 -0.4756 -0.4720
H26 H 0.1971 -0.7250 -0.4620
H28 H 0.7194 -1.4726 -0.0702
O11 O 0.1673(2) -0.7392(5) -0.11295(11)
H29 H 0.176(3) -0.752(7) -0.1527(13)
H30 H 0.119(3) -0.610(9) -0.1106(16)
O12 O -0.1502(2) 0.1527(5) -0.39006(10)
H31 H -0.087(3) 0.014(7) -0.3919(13)
H32 H -0.196(6) 0.059(14) -0.367(2)
loop_
_geom_bond_atom_site_label_1
_geom_bond_atom_site_label_2
_geom_bond_site_symmetry_1
_geom_bond_site_symmetry_2
O1 C1 1_555 1_555
O2 C3 1_555 1_555
O3 C2 1_555 1_555
O4 C9 1_555 1_555
O5 C10 1_555 1_555
O6 C13 1_555 1_555
O7 C15 1_555 1_555
O8 C14 1_555 1_555
O9 C24 1_555 1_555
O10 C23 1_555 1_555
O11 H29 1_555 1_555
O12 H31 1_555 1_555
N1 C10 1_555 1_555
N2 C9 1_555 1_555
N3 C21 1_555 1_555
N4 C23 1_555 1_555
C1 C2 1_555 1_555
C2 C3 1_555 1_555
C3 C4 1_555 1_555
C4 C5 1_555 1_555
C5 O3 1_555 1_555
C6 C5 1_555 1_555
C7 C6 1_555 1_555
C8 C7 1_555 1_555
C9 C8 1_555 1_555
C10 N2 1_555 1_555
C11 N1 1_555 1_555
C12 N1 1_555 1_555
C13 C14 1_555 1_555
C14 C15 1_555 1_555
C15 C16 1_555 1_555
C16 C17 1_555 1_555
C17 O8 1_555 1_555
C18 C17 1_555 1_555
C19 C18 1_555 1_555
C20 C19 1_555 1_555
C21 C20 1_555 1_555
C22 N3 1_555 1_555
C23 N3 1_555 1_555
C24 N4 1_555 1_555
H1 O1 1_555 1_555
H2 O6 1_555 1_555
H3 N2 1_555 1_555
H4 N4 1_555 1_555
H5 C1 1_555 1_555
H6 C1 1_555 1_555
H7 C2 1_555 1_555
H8 C3 1_555 1_555
H9 C4 1_555 1_555
H10 C4 1_555 1_555
H11 C5 1_555 1_555
H12 C11 1_555 1_555
H13 C11 1_555 1_555
H14 C11 1_555 1_555
H15 C12 1_555 1_555
H16 C13 1_555 1_555
H17 C13 1_555 1_555
H18 C14 1_555 1_555
H19 C15 1_555 1_555
H20 C16 1_555 1_555
H21 C16 1_555 1_555
H22 C17 1_555 1_555
H23 C21 1_555 1_555
H24 C22 1_555 1_555
H25 C22 1_555 1_555
H26 C22 1_555 1_555
H27 O2 1_555 1_555
H28 O7 1_555 1_555
H30 O11 1_555 1_555
H32 O12 1_555 1_555
C8 C12 1_555 1_555
C20 C24 1_555 1_555

#END
