
#######################################################################
#
#                 Cambridge Crystallographic Data Centre
#                                CCDC 
#
#######################################################################
#
# If this CIF has been generated from an entry in the Cambridge 
# Structural Database, then it will include bibliographic, chemical, 
# crystal, experimental, refinement or atomic coordinate data resulting 
# from the CCDC's data processing and validation procedures.
#
#######################################################################

data_VEKQEJ
_chemical_formula_moiety         'C35 H45 N3 O2'
_chemical_name_systematic        
2,4-Di-t-butyl-6-(((6'-methoxycinchonan-9-yl)imino)methyl)phenol
_symmetry_cell_setting           monoclinic
_symmetry_space_group_name_H-M   'P 21'
_symmetry_Int_Tables_number      4
_space_group_name_Hall           'P 2yb'
loop_
_symmetry_equiv_pos_site_id
_symmetry_equiv_pos_as_xyz
1 x,y,z
2 -x,1/2+y,-z
_cell_length_a                   10.1507(11)
_cell_length_b                   11.7645(13)
_cell_length_c                   13.6901(16)
_cell_angle_alpha                90
_cell_angle_beta                 103.845(2)
_cell_angle_gamma                90
_cell_volume                     1587.35
_cell_formula_units_Z            2
loop_
_atom_site_label
_atom_site_type_symbol
_atom_site_fract_x
_atom_site_fract_y
_atom_site_fract_z
N1 N -0.0552(2) 0.5137(2) 0.21888(15)
N2 N 0.0283(2) 0.5670(2) 0.02469(17)
N3 N -0.4537(4) 0.7785(3) 0.2086(3)
O1 O -0.09850(17) 0.33370(17) 0.31895(14)
H1 H -0.1164 0.3921 0.2857
O2 O -0.5205(2) 0.3324(3) 0.0881(2)
C1 C -0.1053(4) 0.0895(3) 0.3721(3)
H2 H -0.1615 0.1465 0.3324
H3 H -0.1600 0.0413 0.4030
H4 H -0.0629 0.0446 0.3296
C2 C -0.0643(3) 0.2160(4) 0.5231(2)
H5 H -0.1208 0.2736 0.4846
H6 H 0.0038 0.2512 0.5752
H7 H -0.1188 0.1664 0.5529
C3 C 0.0883(4) 0.0539(3) 0.5175(3)
H8 H 0.0302 0.0072 0.5467
H9 H 0.1568 0.0879 0.5700
H10 H 0.1306 0.0080 0.4757
C4 C 0.0043(3) 0.1471(3) 0.4539(2)
C5 C 0.0929(3) 0.2278(3) 0.40916(19)
C6 C 0.2334(3) 0.2166(3) 0.4317(2)
H11 H 0.2712 0.1547 0.4707
C7 C 0.3218(3) 0.2907(3) 0.4004(2)
C8 C 0.2648(3) 0.3826(3) 0.3445(2)
H12 H 0.3209 0.4360 0.3248
C9 C 0.1239(3) 0.3982(2) 0.31651(19)
C10 C 0.0381(2) 0.3202(2) 0.34746(18)
C11 C 0.4739(3) 0.2677(3) 0.4254(3)
C12 C 0.4978(8) 0.1632(16) 0.3619(13)
H13 H 0.5934 0.1496 0.3725
H14 H 0.4596 0.1781 0.2919
H15 H 0.4550 0.0974 0.3821
C13 C 0.5552(10) 0.3639(13) 0.3943(16)
H16 H 0.5458 0.4311 0.4318
H17 H 0.5219 0.3788 0.3237
H18 H 0.6491 0.3427 0.4076
C14 C 0.5229(15) 0.2387(18) 0.5356(10)
H19 H 0.6201 0.2336 0.5529
H20 H 0.4850 0.1671 0.5487
H21 H 0.4946 0.2969 0.5753
C15 C 0.0711(3) 0.4965(2) 0.25482(18)
H22 H 0.1324 0.5493 0.2410
C16 C -0.0959(3) 0.6136(2) 0.15451(19)
H23 H -0.0232 0.6701 0.1724
C17 C -0.1082(3) 0.5779(3) 0.04356(19)
H24 H -0.1498 0.5023 0.0350
C18 C -0.1973(3) 0.6561(3) -0.0354(2)
H25 H -0.2890 0.6265 -0.0550
H26 H -0.2006 0.7317 -0.0079
C19 C -0.1352(3) 0.6606(3) -0.1264(2)
H27 H -0.1983 0.6966 -0.1835
C20 C -0.0051(3) 0.7285(3) -0.0968(2)
H28 H -0.0252 0.8079 -0.0879
H29 H 0.0448 0.7232 -0.1489
C21 C 0.0791(3) 0.6790(3) 0.0020(2)
H30 H 0.1728 0.6716 -0.0023
H31 H 0.0769 0.7311 0.0565
C22 C 0.0143(3) 0.4974(3) -0.0658(2)
H32 H -0.0063 0.4199 -0.0505
H33 H 0.1001 0.4967 -0.0852
C23 C -0.0978(3) 0.5407(3) -0.1550(2)
H34 H -0.0574 0.5483 -0.2130
C24 C -0.2132(4) 0.4602(4) -0.1839(3)
H35 H -0.2685 0.4520 -0.1391
C25 C -0.2437(6) 0.4008(6) -0.2648(4)
H36 H -0.1912 0.4062 -0.3117
H37 H -0.3182 0.3524 -0.2764
C26 C -0.2238(3) 0.6654(3) 0.1745(2)
C27 C -0.2190(4) 0.7766(3) 0.2053(3)
H38 H -0.1383 0.8173 0.2153
C28 C -0.3359(5) 0.8287(4) 0.2215(3)
H39 H -0.3293 0.9040 0.2429
C29 C -0.4607(3) 0.6674(4) 0.1789(2)
C30 C -0.5863(4) 0.6134(4) 0.1642(3)
H40 H -0.6596 0.6531 0.1771
C31 C -0.6038(3) 0.5065(5) 0.1324(3)
H41 H -0.6895 0.4736 0.1205
C32 C -0.4920(3) 0.4419(4) 0.1163(2)
C33 C -0.3679(3) 0.4913(3) 0.1312(2)
H42 H -0.2948 0.4491 0.1211
C34 C -0.3482(3) 0.6062(3) 0.1618(2)
C35 C -0.4106(4) 0.2631(4) 0.0755(4)
H43 H -0.3766 0.2917 0.0205
H44 H -0.4416 0.1864 0.0614
H45 H -0.3395 0.2646 0.1360
C36? C 0.5444(18) 0.3847(18) 0.459(3)
C37? C 0.5156(17) 0.236(3) 0.3310(15)
C38? C 0.523(3) 0.184(3) 0.507(3)
H46? H 0.6408 0.3767 0.4683
H47? H 0.5242 0.4086 0.5205
H48? H 0.5115 0.4405 0.4074
H49? H 0.5027 0.3002 0.2862
H50? H 0.4613 0.1737 0.2989
H51? H 0.6095 0.2146 0.3474
H52? H 0.4943 0.1096 0.4828
H53? H 0.4864 0.2027 0.5632
H54? H 0.6203 0.1870 0.5266
loop_
_geom_bond_atom_site_label_1
_geom_bond_atom_site_label_2
_geom_bond_site_symmetry_1
_geom_bond_site_symmetry_2
N1 C15 1_555 1_555
N2 C17 1_555 1_555
N3 C28 1_555 1_555
O1 H1 1_555 1_555
O2 C32 1_555 1_555
C1 H2 1_555 1_555
H3 C1 1_555 1_555
H4 C1 1_555 1_555
C2 H5 1_555 1_555
H6 C2 1_555 1_555
H7 C2 1_555 1_555
C3 H8 1_555 1_555
H9 C3 1_555 1_555
H10 C3 1_555 1_555
C4 C1 1_555 1_555
C5 C4 1_555 1_555
C6 C5 1_555 1_555
H11 C6 1_555 1_555
C7 C6 1_555 1_555
C8 C7 1_555 1_555
H12 C8 1_555 1_555
C9 C8 1_555 1_555
C10 O1 1_555 1_555
C11 C7 1_555 1_555
C12 C11 1_555 1_555
H13 C12 1_555 1_555
H14 C12 1_555 1_555
H15 C12 1_555 1_555
C13 C11 1_555 1_555
H16 C13 1_555 1_555
H17 C13 1_555 1_555
H18 C13 1_555 1_555
C14 C11 1_555 1_555
H19 C14 1_555 1_555
H20 C14 1_555 1_555
H21 C14 1_555 1_555
C15 C9 1_555 1_555
H22 C15 1_555 1_555
C16 N1 1_555 1_555
H23 C16 1_555 1_555
C17 C16 1_555 1_555
H24 C17 1_555 1_555
C18 C17 1_555 1_555
H25 C18 1_555 1_555
H26 C18 1_555 1_555
C19 C18 1_555 1_555
H27 C19 1_555 1_555
C20 C19 1_555 1_555
H28 C20 1_555 1_555
H29 C20 1_555 1_555
C21 N2 1_555 1_555
H30 C21 1_555 1_555
H31 C21 1_555 1_555
C22 N2 1_555 1_555
H32 C22 1_555 1_555
H33 C22 1_555 1_555
C23 C19 1_555 1_555
H34 C23 1_555 1_555
C24 C23 1_555 1_555
H35 C24 1_555 1_555
C25 C24 1_555 1_555
H36 C25 1_555 1_555
H37 C25 1_555 1_555
C26 C16 1_555 1_555
C27 C26 1_555 1_555
H38 C27 1_555 1_555
C28 C27 1_555 1_555
H39 C28 1_555 1_555
C29 N3 1_555 1_555
C30 C29 1_555 1_555
H40 C30 1_555 1_555
C31 C30 1_555 1_555
H41 C31 1_555 1_555
C32 C31 1_555 1_555
C33 C32 1_555 1_555
H42 C33 1_555 1_555
C34 C26 1_555 1_555
C35 O2 1_555 1_555
H43 C35 1_555 1_555
H44 C35 1_555 1_555
H45 C35 1_555 1_555
C2 C4 1_555 1_555
C3 C4 1_555 1_555
C5 C10 1_555 1_555
C9 C10 1_555 1_555
C20 C21 1_555 1_555
C22 C23 1_555 1_555
C29 C34 1_555 1_555
C33 C34 1_555 1_555

#END
