
#######################################################################
#
#                 Cambridge Crystallographic Data Centre
#                                CCDC 
#
#######################################################################
#
# If this CIF has been generated from an entry in the Cambridge 
# Structural Database, then it will include bibliographic, chemical, 
# crystal, experimental, refinement or atomic coordinate data resulting 
# from the CCDC's data processing and validation procedures.
#
#######################################################################

data_VEKSOT01
_chemical_formula_moiety         'C19 H17 N3'
_chemical_name_systematic        Triphenylguanidine
_symmetry_cell_setting           orthorhombic
_symmetry_space_group_name_H-M   'P n a 21'
_symmetry_Int_Tables_number      33
_space_group_name_Hall           'P 2c -2n'
loop_
_symmetry_equiv_pos_site_id
_symmetry_equiv_pos_as_xyz
1 x,y,z
2 -x,-y,1/2+z
3 1/2+x,1/2-y,z
4 1/2-x,1/2+y,1/2+z
_cell_length_a                   9.2637(13)
_cell_length_b                   10.8060(13)
_cell_length_c                   16.121(2)
_cell_angle_alpha                90
_cell_angle_beta                 90
_cell_angle_gamma                90
_cell_volume                     1613.77
_exptl_crystal_colour            'pale yellow'
_exptl_crystal_description       irregular
_cell_formula_units_Z            4
loop_
_atom_site_label
_atom_site_type_symbol
_atom_site_fract_x
_atom_site_fract_y
_atom_site_fract_z
N1 N 0.5716(3) 0.1672(2) 0.48810(17)
N2 N 0.4345(3) 0.3294(3) 0.53717(19)
H1 H 0.361(3) 0.377(3) 0.526(2)
N3 N 0.3196(3) 0.1861(3) 0.45657(17)
H2 H 0.228(4) 0.235(3) 0.472(2)
C1 C 0.4465(4) 0.2215(3) 0.4931(2)
C2 C 0.5836(4) 0.0394(3) 0.4717(2)
C3 C 0.7013(4) -0.0020(4) 0.4252(2)
H3 H 0.7631 0.0564 0.3991
C4 C 0.7278(4) -0.1279(4) 0.4163(3)
H4 H 0.8081 -0.1552 0.3846
C5 C 0.6388(5) -0.2126(4) 0.4539(2)
H5 H 0.6587 -0.2985 0.4489
C6 C 0.5194(4) -0.1734(3) 0.4987(2)
H6 H 0.4565 -0.2325 0.5231
C7 C 0.4931(4) -0.0482(3) 0.5084(2)
H7 H 0.4124 -0.0219 0.5402
C8 C 0.5385(4) 0.3781(3) 0.5928(2)
C9 C 0.6154(4) 0.3020(4) 0.6459(2)
H8 H 0.5995 0.2152 0.6456
C10 C 0.7159(5) 0.3543(5) 0.6991(3)
H9 H 0.7701 0.3019 0.7347
C11 C 0.7384(5) 0.4792(6) 0.7010(3)
H10 H 0.8089 0.5129 0.7374
C12 C 0.6580(5) 0.5566(5) 0.6503(3)
H11 H 0.6707 0.6437 0.6528
C13 C 0.5582(4) 0.5053(4) 0.5946(2)
H12 H 0.5042 0.5570 0.5584
C14 C 0.3080(4) 0.1282(3) 0.3776(2)
C15 C 0.1844(4) 0.0608(3) 0.3609(2)
H13 H 0.1136 0.0494 0.4028
C16 C 0.1626(5) 0.0094(4) 0.2831(3)
H14 H 0.0783 -0.0381 0.2724
C17 C 0.2629(5) 0.0265(4) 0.2218(3)
H15 H 0.2474 -0.0083 0.1684
C18 C 0.3865(5) 0.0947(4) 0.2378(3)
H16 H 0.4553 0.1070 0.1949
C19 C 0.4103(4) 0.1452(3) 0.3153(2)
H17 H 0.4959 0.1907 0.3262
loop_
_geom_bond_atom_site_label_1
_geom_bond_atom_site_label_2
_geom_bond_site_symmetry_1
_geom_bond_site_symmetry_2
N1 C1 1_555 1_555
N2 H1 1_555 1_555
N3 H2 1_555 1_555
C1 N2 1_555 1_555
C2 N1 1_555 1_555
C3 C2 1_555 1_555
H3 C3 1_555 1_555
C4 C3 1_555 1_555
H4 C4 1_555 1_555
C5 C4 1_555 1_555
H5 C5 1_555 1_555
C6 C5 1_555 1_555
H6 C6 1_555 1_555
C7 C2 1_555 1_555
H7 C7 1_555 1_555
C8 N2 1_555 1_555
C9 C8 1_555 1_555
H8 C9 1_555 1_555
C10 C9 1_555 1_555
H9 C10 1_555 1_555
C11 C10 1_555 1_555
H10 C11 1_555 1_555
C12 C11 1_555 1_555
H11 C12 1_555 1_555
C13 C8 1_555 1_555
H12 C13 1_555 1_555
C14 N3 1_555 1_555
C15 C14 1_555 1_555
H13 C15 1_555 1_555
C16 C15 1_555 1_555
H14 C16 1_555 1_555
C17 C16 1_555 1_555
H15 C17 1_555 1_555
C18 C17 1_555 1_555
H16 C18 1_555 1_555
C19 C14 1_555 1_555
H17 C19 1_555 1_555
N3 C1 1_555 1_555
C6 C7 1_555 1_555
C12 C13 1_555 1_555
C18 C19 1_555 1_555

#END
