
#######################################################################
#
#                 Cambridge Crystallographic Data Centre
#                                CCDC 
#
#######################################################################
#
# If this CIF has been generated from an entry in the Cambridge 
# Structural Database, then it will include bibliographic, chemical, 
# crystal, experimental, refinement or atomic coordinate data resulting 
# from the CCDC's data processing and validation procedures.
#
#######################################################################

data_VEKTOW
_chemical_formula_moiety         'C29 H27 N3 O5'
_chemical_name_systematic        
(2,4-Dihydroxy-6-(4-hydroxy-3-methoxyphenyl)-2,4-bis(pyridin-2-yl)cyclohexyl)(pyridin-2-yl)methanone
_symmetry_cell_setting           monoclinic
_symmetry_space_group_name_H-M   'P 21/n'
_symmetry_Int_Tables_number      14
_space_group_name_Hall           '-P 2yn'
loop_
_symmetry_equiv_pos_site_id
_symmetry_equiv_pos_as_xyz
1 x,y,z
2 1/2-x,1/2+y,1/2-z
3 -x,-y,-z
4 1/2+x,1/2-y,1/2+z
_cell_length_a                   10.9658(3)
_cell_length_b                   19.6631(6)
_cell_length_c                   12.0754(3)
_cell_angle_alpha                90
_cell_angle_beta                 105.6870(10)
_cell_angle_gamma                90
_cell_volume                     2506.74
_exptl_crystal_colour            colorless
_cell_formula_units_Z            4
loop_
_atom_site_label
_atom_site_type_symbol
_atom_site_fract_x
_atom_site_fract_y
_atom_site_fract_z
O1 O 0.89649(10) 0.32277(5) 0.54330(9)
O2 O 1.08928(10) 0.28048(5) 0.71984(8)
H1 H 1.0497 0.3175 0.7094
O3 O 0.91812(10) 0.02757(5) 0.14097(8)
H2 H 0.9520 0.0230 0.0868
O4 O 1.11685(9) 0.14025(6) 0.25833(9)
O5 O 0.75516(10) -0.03101(5) 0.25202(9)
H3 H 0.8212 -0.0307 0.2294
N1 N 0.49823(11) 0.08622(6) 0.23940(10)
N2 N 0.91938(11) 0.08929(7) -0.04654(10)
N3 N 0.91752(12) 0.27623(7) 0.14483(11)
C1 C 0.31217(15) 0.02181(8) 0.23758(13)
H4 H 0.2258 0.0212 0.2385
C2 C 0.37628(14) 0.08249(8) 0.23941(12)
H5 H 0.3315 0.1237 0.2407
C3 C 0.56121(13) 0.02769(8) 0.23763(11)
C4 C 0.69954(13) 0.03544(7) 0.23835(12)
C5 C 0.76739(13) 0.08057(8) 0.34036(12)
H6 H 0.7145 0.1212 0.3415
H7 H 0.7744 0.0551 0.4125
C6 C 0.90036(13) 0.10408(8) 0.33821(12)
H8 H 0.9568 0.0634 0.3460
C7 C 0.89099(13) 0.13836(7) 0.22184(12)
H9 H 0.8287 0.1765 0.2125
C8 C 1.01628(13) 0.16802(8) 0.21498(12)
C9 C 1.01348(13) 0.23300(8) 0.14849(12)
C10 C 1.10659(15) 0.24511(9) 0.09312(13)
H10 H 1.1738 0.2136 0.0990
C11 C 1.09984(16) 0.30395(10) 0.02909(14)
H11 H 1.1616 0.3133 -0.0109
C12 C 1.00207(16) 0.34866(9) 0.02430(14)
H12 H 0.9952 0.3896 -0.0189
C13 C 0.95362(13) 0.15180(8) 0.43852(12)
C14 C 0.90092(13) 0.21649(8) 0.43987(12)
H13 H 0.8343 0.2310 0.3762
C15 C 0.94442(13) 0.25946(8) 0.53257(12)
C16 C 0.80937(16) 0.35078(9) 0.44423(14)
H14 H 0.8482 0.3514 0.3800
H15 H 0.7875 0.3973 0.4610
H16 H 0.7325 0.3229 0.4235
C17 C 1.04374(13) 0.23914(8) 0.62672(11)
C18 C 1.09627(13) 0.17557(8) 0.62526(12)
H17 H 1.1637 0.1613 0.6884
C19 C 1.05149(13) 0.13213(8) 0.53219(12)
H18 H 1.0885 0.0884 0.5328
C20 C 0.83976(13) 0.08679(8) 0.12170(12)
C21 C 0.84092(13) 0.11875(8) 0.00687(12)
C22 C 0.77067(13) 0.17665(8) -0.03538(12)
H19 H 0.7139 0.1954 0.0035
C23 C 0.78499(14) 0.20629(8) -0.13473(12)
H20 H 0.7398 0.2465 -0.1645
C24 C 0.86654(14) 0.17635(8) -0.19036(13)
H21 H 0.8781 0.1956 -0.2590
C25 C 0.93039(14) 0.11823(8) -0.14438(13)
H22 H 0.9850 0.0975 -0.1837
C26 C 0.70559(13) 0.06629(8) 0.12293(11)
H23 H 0.6725 0.0327 0.0609
H24 H 0.6502 0.1069 0.1065
C27 C 0.91378(16) 0.33302(8) 0.08350(14)
H25 H 0.8470 0.3644 0.0803
C28 C 0.50305(14) -0.03487(8) 0.23355(13)
H26 H 0.5489 -0.0755 0.2303
C29 C 0.37706(15) -0.03779(9) 0.23431(14)
H27 H 0.3359 -0.0804 0.2326
loop_
_geom_bond_atom_site_label_1
_geom_bond_atom_site_label_2
_geom_bond_site_symmetry_1
_geom_bond_site_symmetry_2
O1 C15 1_555 1_555
O2 H1 1_555 1_555
O3 H2 1_555 1_555
O4 C8 1_555 1_555
O5 H3 1_555 1_555
N1 C2 1_555 1_555
N2 C21 1_555 1_555
N3 C9 1_555 1_555
C1 H4 1_555 1_555
C2 C1 1_555 1_555
H5 C2 1_555 1_555
C3 N1 1_555 1_555
C4 O5 1_555 1_555
C5 C4 1_555 1_555
H6 C5 1_555 1_555
H7 C5 1_555 1_555
C6 C5 1_555 1_555
H8 C6 1_555 1_555
C7 C6 1_555 1_555
H9 C7 1_555 1_555
C8 C7 1_555 1_555
C9 C8 1_555 1_555
C10 C9 1_555 1_555
H10 C10 1_555 1_555
C11 C10 1_555 1_555
H11 C11 1_555 1_555
C12 C11 1_555 1_555
H12 C12 1_555 1_555
C13 C6 1_555 1_555
C14 C13 1_555 1_555
H13 C14 1_555 1_555
C15 C14 1_555 1_555
C16 O1 1_555 1_555
H14 C16 1_555 1_555
H15 C16 1_555 1_555
H16 C16 1_555 1_555
C17 O2 1_555 1_555
C18 C17 1_555 1_555
H17 C18 1_555 1_555
C19 C13 1_555 1_555
H18 C19 1_555 1_555
C20 O3 1_555 1_555
C21 C20 1_555 1_555
C22 C21 1_555 1_555
H19 C22 1_555 1_555
C23 C22 1_555 1_555
H20 C23 1_555 1_555
C24 C23 1_555 1_555
H21 C24 1_555 1_555
C25 N2 1_555 1_555
H22 C25 1_555 1_555
C26 C4 1_555 1_555
H23 C26 1_555 1_555
H24 C26 1_555 1_555
C27 N3 1_555 1_555
H25 C27 1_555 1_555
C28 C3 1_555 1_555
H26 C28 1_555 1_555
C29 C1 1_555 1_555
H27 C29 1_555 1_555
C3 C4 1_555 1_555
C7 C20 1_555 1_555
C12 C27 1_555 1_555
C15 C17 1_555 1_555
C18 C19 1_555 1_555
C20 C26 1_555 1_555
C24 C25 1_555 1_555
C28 C29 1_555 1_555

#END
