
#######################################################################
#
#                 Cambridge Crystallographic Data Centre
#                                CCDC 
#
#######################################################################
#
# If this CIF has been generated from an entry in the Cambridge 
# Structural Database, then it will include bibliographic, chemical, 
# crystal, experimental, refinement or atomic coordinate data resulting 
# from the CCDC's data processing and validation procedures.
#
#######################################################################

data_VEKZER
_chemical_formula_moiety         'C35 H26 O20 S5 4-,C22 H22 N4 4+,12.25(H2 O1)'
_chemical_name_systematic        
"Ethane-1,2-bis(4,4'-bipyridinium) hydrogen 5,11,17,23,29-pentasulfonato-31,32,33,34,35-pentahydroxycalix(5)arene clathrate hydrate"
_symmetry_cell_setting           triclinic
_symmetry_space_group_name_H-M   'P -1'
_symmetry_Int_Tables_number      2
_space_group_name_Hall           '-P 1'
loop_
_symmetry_equiv_pos_site_id
_symmetry_equiv_pos_as_xyz
1 x,y,z
2 -x,-y,-z
_cell_length_a                   13.4122(13)
_cell_length_b                   15.3616(15)
_cell_length_c                   19.3740(18)
_cell_angle_alpha                68.031(2)
_cell_angle_beta                 85.944(2)
_cell_angle_gamma                65.8540(10)
_cell_volume                     3361.93
_exptl_crystal_colour            yellow
_cell_formula_units_Z            2
loop_
_atom_site_label
_atom_site_type_symbol
_atom_site_fract_x
_atom_site_fract_y
_atom_site_fract_z
S1 S 0.40356(13) 0.78148(14) 1.00337(10)
S2 S 1.11785(11) 0.37495(10) 0.85248(7)
S3 S 1.16391(10) 0.84571(11) 0.62372(7)
S4 S 0.69764(10) 0.88889(10) 0.36842(7)
S5 S 0.67265(15) 0.44292(13) 0.62859(10)
O1 O 0.6926(3) 0.4441(3) 0.90953(19)
H1 H 0.7299 0.3942 0.9462
O2 O 0.3022(3) 0.8361(3) 0.9562(3)
O3 O 0.3850(6) 0.7291(6) 1.0794(3)
O4 O 0.4596(6) 0.8422(6) 0.9988(6)
O5 O 0.7952(3) 0.6936(3) 0.9512(2)
H2 H 0.7946 0.6706 0.9968
O6 O 1.2160(3) 0.3374(3) 0.9011(2)
O7 O 1.1319(3) 0.4276(3) 0.7751(2)
O8 O 1.0797(4) 0.2965(3) 0.8612(3)
O9 O 0.7537(3) 0.8547(3) 0.75960(18)
H3 H 0.7024 0.8755 0.7285
O10 O 1.2339(4) 0.7374(4) 0.6400(3)
O11 O 1.1364(4) 0.9030(5) 0.5444(2)
O12 O 1.2088(3) 0.8887(3) 0.6607(3)
O13 O 0.5818(3) 0.8992(3) 0.66588(18)
H4 H 0.5167 0.9114 0.6705
O14 O 0.8124(3) 0.8662(3) 0.3645(2)
O15 O 0.6296(3) 0.9941(3) 0.31719(19)
O16 O 0.6676(4) 0.8140(4) 0.3582(2)
O17 O 0.4062(3) 0.7564(3) 0.75057(19)
H5 H 0.3490 0.7954 0.7232
O18 O 0.7510(4) 0.4761(4) 0.5835(3)
O19 O 0.5938(5) 0.4454(6) 0.5813(5)
O20 O 0.7261(6) 0.3459(4) 0.6896(3)
C1 C 0.4687(4) 0.5516(4) 0.8462(3)
H6 H 0.4892 0.4778 0.8664
H7 H 0.3893 0.5855 0.8424
C2 C 0.5152(4) 0.5777(4) 0.9014(3)
C3 C 0.4473(4) 0.6570(4) 0.9237(3)
H8 H 0.3738 0.6938 0.9049
C4 C 0.4891(4) 0.6815(4) 0.9742(3)
C5 C 0.5984(4) 0.6274(4) 1.0028(3)
H9 H 0.6250 0.6445 1.0366
C6 C 0.6687(4) 0.5480(4) 0.9815(3)
C7 C 0.6242(4) 0.5234(3) 0.9317(2)
C8 C 0.7887(4) 0.4916(4) 1.0119(3)
H10 H 0.7976 0.5069 1.0547
H11 H 0.8091 0.4180 1.0293
C9 C 0.8667(4) 0.5185(4) 0.9560(3)
C10 C 0.9433(4) 0.4450(4) 0.9314(3)
H12 H 0.9468 0.3784 0.9499
C11 C 1.0148(4) 0.4695(4) 0.8797(3)
C12 C 1.0102(4) 0.5687(4) 0.8524(2)
H13 H 1.0563 0.5854 0.8167
C13 C 0.9383(4) 0.6431(4) 0.8775(2)
C14 C 0.8670(4) 0.6170(4) 0.9292(2)
C15 C 0.9429(4) 0.7470(4) 0.8538(2)
H14 H 1.0081 0.7380 0.8793
H15 H 0.8797 0.7919 0.8700
C16 C 0.9445(4) 0.7996(3) 0.7701(2)
C17 C 1.0411(4) 0.7971(4) 0.7383(3)
H16 H 1.1075 0.7600 0.7682
C18 C 1.0392(4) 0.8495(4) 0.6623(3)
C19 C 0.9403(4) 0.9055(3) 0.6174(3)
H17 H 0.9398 0.9404 0.5664
C20 C 0.8417(4) 0.9103(3) 0.6478(2)
C21 C 0.8454(4) 0.8553(3) 0.7241(2)
C22 C 0.7341(4) 0.9800(4) 0.5979(3)
H18 H 0.6797 1.0112 0.6271
H19 H 0.7452 1.0353 0.5577
C23 C 0.6870(3) 0.9292(3) 0.5633(2)
C24 C 0.7177(4) 0.9226(4) 0.4947(3)
H20 H 0.7728 0.9424 0.4725
C25 C 0.6661(4) 0.8863(4) 0.4594(3)
C26 C 0.5835(4) 0.8565(4) 0.4919(3)
H21 H 0.5486 0.8339 0.4669
C27 C 0.5525(4) 0.8601(3) 0.5611(2)
C28 C 0.6054(3) 0.8962(3) 0.5958(2)
C29 C 0.4621(4) 0.8274(4) 0.5964(3)
H22 H 0.4218 0.8700 0.6241
H23 H 0.4112 0.8403 0.5569
C30 C 0.5024(4) 0.7154(4) 0.6485(3)
C31 C 0.5664(4) 0.6392(4) 0.6231(3)
H24 H 0.5881 0.6575 0.5750
C32 C 0.5991(4) 0.5362(4) 0.6676(3)
C33 C 0.5681(4) 0.5081(4) 0.7402(3)
H25 H 0.5900 0.4386 0.7701
C34 C 0.5055(4) 0.5818(4) 0.7684(2)
C35 C 0.4707(4) 0.6857(3) 0.7213(2)
N1 N -0.2130(4) 0.5171(4) 0.7845(3)
H26 H -0.2435 0.4941 0.8236
N2 N 0.0248(4) 0.7133(3) 0.4694(2)
N3 N 0.0854(4) 0.9111(3) 0.3096(3)
N4 N 0.2911(7) 1.0833(5) -0.0292(4)
H27 H 0.3145 1.1065 -0.0717
C36 C -0.2328(5) 0.6157(5) 0.7575(3)
H28 H -0.2793 0.6589 0.7802
C37 C -0.1844(4) 0.6545(4) 0.6956(3)
H29 H -0.1967 0.7237 0.6765
C38 C -0.1162(4) 0.5880(4) 0.6619(3)
C39 C -0.0986(5) 0.4852(4) 0.6915(3)
H30 H -0.0543 0.4401 0.6695
C40 C -0.1482(5) 0.4514(5) 0.7543(3)
H31 H -0.1364 0.3823 0.7758
C41 C -0.0654(4) 0.6296(4) 0.5942(3)
C42 C 0.0004(5) 0.6788(5) 0.5970(3)
H32 H 0.0137 0.6843 0.6414
C43 C 0.0460(5) 0.7194(5) 0.5333(3)
H33 H 0.0915 0.7510 0.5351
C44 C -0.0359(4) 0.6652(4) 0.4654(3)
H34 H -0.0475 0.6604 0.4204
C45 C -0.0820(5) 0.6222(4) 0.5276(3)
H35 H -0.1243 0.5882 0.5245
C46 C 0.0743(5) 0.7581(4) 0.4008(3)
H36 H 0.0497 0.7490 0.3591
H37 H 0.1536 0.7218 0.4090
C47 C 0.0418(5) 0.8717(4) 0.3817(3)
H38 H -0.0374 0.9082 0.3772
H39 H 0.0727 0.8815 0.4206
C48 C 0.1937(5) 0.8889(4) 0.3087(3)
H40 H 0.2394 0.8512 0.3532
C49 C 0.2366(5) 0.9216(4) 0.2425(3)
H41 H 0.3113 0.9060 0.2420
C50 C 0.1678(5) 0.9784(4) 0.1757(3)
C51 C 0.0574(5) 1.0009(4) 0.1792(3)
H42 H 0.0097 1.0395 0.1357
C52 C 0.0175(5) 0.9668(5) 0.2465(4)
H43 H -0.0571 0.9824 0.2483
C53 C 0.2131(5) 1.0149(4) 0.1028(3)
C54 C 0.2976(6) 1.0444(6) 0.0992(4)
H44 H 0.3285 1.0404 0.1424
C55 C 0.3371(8) 1.0803(6) 0.0307(5)
H45 H 0.3937 1.1015 0.0269
C56 C 0.2117(9) 1.0530(6) -0.0276(4)
H46 H 0.1840 1.0551 -0.0711
C57 C 0.1712(7) 1.0186(5) 0.0383(4)
H47 H 0.1150 0.9975 0.0401
O21 O 0.8282(5) 0.6265(4) 0.3523(3)
O22 O 0.2266(5) 0.9843(5) 0.8086(3)
O23 O 0.0580(5) 0.2172(6) 0.7537(4)
O24 O 0.3044(6) 0.7362(6) 0.4834(4)
O25 O 0.8459(9) 0.2497(9) 0.0161(6)
O26 O 0.2136(8) 0.7611(6) 0.1617(5)
O27 O 0.7454(9) 0.4994(8) 0.4374(5)
O28 O 0.9611(8) 0.1674(8) 0.9239(7)
O29 O 0.3690(10) 0.1545(8) 0.8406(5)
O30 O 0.7133(12) 0.4788(13) 0.2534(9)
O31 O 0.5399(12) 0.7019(12) 0.1967(8)
O32 O 0.5660(12) 0.8151(12) 0.8276(7)
O33 O 0.4882(11) 0.9482(13) 0.2344(8)
O34 O 0.4832(15) 0.7744(18) 0.3228(12)
O35 O 0.676(2) 0.4469(19) 0.3489(16)
O36? O 0.6455(17) 0.5831(17) 0.2086(12)
O37? O 0.5108(17) 1.0173(17) 0.1869(12)
loop_
_geom_bond_atom_site_label_1
_geom_bond_atom_site_label_2
_geom_bond_site_symmetry_1
_geom_bond_site_symmetry_2
S1 O2 1_555 1_555
S2 O6 1_555 1_555
S3 O10 1_555 1_555
S4 O14 1_555 1_555
S5 O18 1_555 1_555
O1 H1 1_555 1_555
O3 S1 1_555 1_555
O4 S1 1_555 1_555
O5 H2 1_555 1_555
O7 S2 1_555 1_555
O8 S2 1_555 1_555
O9 H3 1_555 1_555
O11 S3 1_555 1_555
O12 S3 1_555 1_555
O13 H4 1_555 1_555
O15 S4 1_555 1_555
O16 S4 1_555 1_555
O17 H5 1_555 1_555
O19 S5 1_555 1_555
O20 S5 1_555 1_555
C1 H6 1_555 1_555
H7 C1 1_555 1_555
C2 C1 1_555 1_555
C3 C2 1_555 1_555
H8 C3 1_555 1_555
C4 S1 1_555 1_555
C5 C4 1_555 1_555
H9 C5 1_555 1_555
C6 C5 1_555 1_555
C7 O1 1_555 1_555
C8 C6 1_555 1_555
H10 C8 1_555 1_555
H11 C8 1_555 1_555
C9 C8 1_555 1_555
C10 C9 1_555 1_555
H12 C10 1_555 1_555
C11 S2 1_555 1_555
C12 C11 1_555 1_555
H13 C12 1_555 1_555
C13 C12 1_555 1_555
C14 O5 1_555 1_555
C15 C13 1_555 1_555
H14 C15 1_555 1_555
H15 C15 1_555 1_555
C16 C15 1_555 1_555
C17 C16 1_555 1_555
H16 C17 1_555 1_555
C18 S3 1_555 1_555
C19 C18 1_555 1_555
H17 C19 1_555 1_555
C20 C19 1_555 1_555
C21 O9 1_555 1_555
C22 C20 1_555 1_555
H18 C22 1_555 1_555
H19 C22 1_555 1_555
C23 C22 1_555 1_555
C24 C23 1_555 1_555
H20 C24 1_555 1_555
C25 S4 1_555 1_555
C26 C25 1_555 1_555
H21 C26 1_555 1_555
C27 C26 1_555 1_555
C28 O13 1_555 1_555
C29 C27 1_555 1_555
H22 C29 1_555 1_555
H23 C29 1_555 1_555
C30 C29 1_555 1_555
C31 C30 1_555 1_555
H24 C31 1_555 1_555
C32 S5 1_555 1_555
C33 C32 1_555 1_555
H25 C33 1_555 1_555
C34 C1 1_555 1_555
C35 O17 1_555 1_555
N1 H26 1_555 1_555
N2 C43 1_555 1_555
N3 C47 1_555 1_555
N4 H27 1_555 1_555
C36 N1 1_555 1_555
H28 C36 1_555 1_555
C37 C36 1_555 1_555
H29 C37 1_555 1_555
C38 C37 1_555 1_555
C39 C38 1_555 1_555
H30 C39 1_555 1_555
C40 N1 1_555 1_555
H31 C40 1_555 1_555
C41 C38 1_555 1_555
C42 C41 1_555 1_555
H32 C42 1_555 1_555
C43 C42 1_555 1_555
H33 C43 1_555 1_555
C44 N2 1_555 1_555
H34 C44 1_555 1_555
C45 C41 1_555 1_555
H35 C45 1_555 1_555
C46 N2 1_555 1_555
H36 C46 1_555 1_555
H37 C46 1_555 1_555
C47 C46 1_555 1_555
H38 C47 1_555 1_555
H39 C47 1_555 1_555
C48 N3 1_555 1_555
H40 C48 1_555 1_555
C49 C48 1_555 1_555
H41 C49 1_555 1_555
C50 C49 1_555 1_555
C51 C50 1_555 1_555
H42 C51 1_555 1_555
C52 N3 1_555 1_555
H43 C52 1_555 1_555
C53 C50 1_555 1_555
C54 C53 1_555 1_555
H44 C54 1_555 1_555
C55 N4 1_555 1_555
H45 C55 1_555 1_555
C56 N4 1_555 1_555
H46 C56 1_555 1_555
C57 C53 1_555 1_555
H47 C57 1_555 1_555
C2 C7 1_555 1_555
C3 C4 1_555 1_555
C6 C7 1_555 1_555
C9 C14 1_555 1_555
C10 C11 1_555 1_555
C13 C14 1_555 1_555
C16 C21 1_555 1_555
C17 C18 1_555 1_555
C20 C21 1_555 1_555
C23 C28 1_555 1_555
C24 C25 1_555 1_555
C27 C28 1_555 1_555
C30 C35 1_555 1_555
C31 C32 1_555 1_555
C33 C34 1_555 1_555
C34 C35 1_555 1_555
C39 C40 1_555 1_555
C44 C45 1_555 1_555
C51 C52 1_555 1_555
C54 C55 1_555 1_555
C56 C57 1_555 1_555

#END
