
#######################################################################
#
#                 Cambridge Crystallographic Data Centre
#                                CCDC 
#
#######################################################################
#
# If this CIF has been generated from an entry in the Cambridge 
# Structural Database, then it will include bibliographic, chemical, 
# crystal, experimental, refinement or atomic coordinate data resulting 
# from the CCDC's data processing and validation procedures.
#
#######################################################################

data_VELBIZ
_chemical_formula_moiety         'C28 H23 N1 O3 S1'
_chemical_name_systematic        
2-((4-Methylphenyl)sulfonyl)-3,5,5-triphenyl-2,5-dihydro-1,2-oxazole
_symmetry_cell_setting           orthorhombic
_symmetry_space_group_name_H-M   'P c a 21'
_symmetry_Int_Tables_number      29
_space_group_name_Hall           'P 2c -2ac'
loop_
_symmetry_equiv_pos_site_id
_symmetry_equiv_pos_as_xyz
1 x,y,z
2 -x,-y,1/2+z
3 1/2-x,y,1/2+z
4 1/2+x,-y,z
_cell_length_a                   19.0372(7)
_cell_length_b                   11.0788(3)
_cell_length_c                   21.4548(7)
_cell_angle_alpha                90
_cell_angle_beta                 90
_cell_angle_gamma                90
_cell_volume                     4525.02
_exptl_crystal_colour            colorless
_exptl_crystal_description       block
_cell_formula_units_Z            8
loop_
_atom_site_label
_atom_site_type_symbol
_atom_site_fract_x
_atom_site_fract_y
_atom_site_fract_z
S1 S 0.42465(4) -0.01642(6) -0.07210(4)
O1 O 0.46487(10) 0.09939(14) -0.16670(10)
O2 O 0.39284(12) 0.09555(17) -0.05635(11)
O3 O 0.38894(12) -0.12592(16) -0.05898(10)
N1 N 0.43067(12) -0.01323(17) -0.15174(13)
C1 C 0.46374(17) 0.2303(3) -0.27349(15)
H1 H 0.4365 0.2510 -0.2391
C2 C 0.4534(2) 0.2897(3) -0.32963(18)
H2 H 0.4200 0.3508 -0.3327
C3 C 0.4927(2) 0.2576(3) -0.38075(17)
H3 H 0.4853 0.2960 -0.4187
C4 C 0.5421(2) 0.1704(3) -0.37595(16)
H4 H 0.5689 0.1495 -0.4105
C5 C 0.55277(19) 0.1122(3) -0.31963(15)
H5 H 0.5869 0.0525 -0.3167
C6 C 0.51345(15) 0.1417(2) -0.26782(12)
C7 C 0.52614(15) 0.0768(2) -0.20615(14)
C8 C 0.59070(16) 0.1272(2) -0.17397(13)
C9 C 0.64874(16) 0.0570(3) -0.16130(15)
H6 H 0.6489 -0.0236 -0.1733
C10 C 0.70615(18) 0.1039(3) -0.13135(17)
H7 H 0.7454 0.0557 -0.1247
C11 C 0.7063(2) 0.2211(3) -0.11121(16)
H8 H 0.7448 0.2520 -0.0899
C12 C 0.6480(2) 0.2932(3) -0.12302(16)
H9 H 0.6474 0.3731 -0.1096
C13 C 0.59143(19) 0.2466(2) -0.15443(16)
H10 H 0.5530 0.2957 -0.1628
C14 C 0.52406(14) -0.0570(2) -0.21324(14)
H11 H 0.5564 -0.1011 -0.2364
C15 C 0.47099(14) -0.1051(2) -0.18289(14)
C16 C 0.44618(15) -0.2312(2) -0.18533(13)
C17 C 0.49301(19) -0.3204(2) -0.20212(16)
H12 H 0.5400 -0.3014 -0.2085
C18 C 0.4705(2) -0.4374(3) -0.20950(19)
H13 H 0.5023 -0.4969 -0.2212
C19 C 0.4012(2) -0.4671(3) -0.19975(18)
H14 H 0.3862 -0.5465 -0.2043
C20 C 0.35489(19) -0.3797(3) -0.18349(16)
H15 H 0.3081 -0.3997 -0.1767
C21 C 0.37644(17) -0.2614(2) -0.17693(15)
H16 H 0.3439 -0.2019 -0.1668
C22 C 0.50962(17) -0.0226(2) -0.04213(14)
C23 C 0.54471(19) -0.1324(2) -0.03863(15)
H17 H 0.5234 -0.2027 -0.0530
C24 C 0.6104(2) -0.1360(3) -0.01406(16)
H18 H 0.6331 -0.2100 -0.0111
C25 C 0.6445(2) -0.0340(3) 0.00661(16)
C26 C 0.6089(2) 0.0743(3) 0.00247(17)
H19 H 0.6307 0.1444 0.0165
C27 C 0.5425(2) 0.0814(2) -0.02164(14)
H20 H 0.5197 0.1555 -0.0242
C28 C 0.7179(2) -0.0397(4) 0.0321(2)
H21 H 0.7295 0.0359 0.0514
H22 H 0.7503 -0.0555 -0.0012
H23 H 0.7209 -0.1032 0.0625
S2 S 0.18678(4) 0.52727(6) 0.05812(4)
O4 O 0.22559(10) 0.40791(14) 0.15233(9)
O5 O 0.14798(12) 0.42185(18) 0.04206(11)
O6 O 0.15821(12) 0.64306(17) 0.04559(10)
N2 N 0.19245(12) 0.52205(17) 0.13763(12)
C29 C 0.41060(16) 0.4450(3) 0.14926(15)
H24 H 0.4110 0.5257 0.1611
C30 C 0.46945(18) 0.3958(3) 0.12105(17)
H25 H 0.5090 0.4433 0.1140
C31 C 0.46915(19) 0.2778(3) 0.10367(17)
H26 H 0.5087 0.2444 0.0849
C32 C 0.4110(2) 0.2078(3) 0.11371(17)
H27 H 0.4110 0.1276 0.1010
C33 C 0.3523(2) 0.2551(2) 0.14252(16)
H28 H 0.3134 0.2065 0.1502
C34 C 0.35166(16) 0.3766(2) 0.16005(12)
C35 C 0.28688(15) 0.4290(2) 0.19264(14)
C36 C 0.27433(15) 0.3636(2) 0.25398(13)
C37 C 0.22399(17) 0.2752(2) 0.25974(15)
H29 H 0.1963 0.2549 0.2256
C38 C 0.21426(18) 0.2164(3) 0.31613(17)
H30 H 0.1801 0.1568 0.3197
C39 C 0.2546(2) 0.2457(3) 0.36613(18)
H31 H 0.2479 0.2063 0.4039
C40 C 0.3050(2) 0.3327(3) 0.36111(17)
H32 H 0.3327 0.3523 0.3954
C41 C 0.31500(17) 0.3919(3) 0.30484(14)
H33 H 0.3494 0.4511 0.3015
C42 C 0.28588(15) 0.5617(2) 0.19978(14)
H34 H 0.3185 0.6047 0.2232
C43 C 0.23364(15) 0.6119(2) 0.16919(14)
C44 C 0.20917(15) 0.7376(2) 0.17297(13)
C45 C 0.25650(19) 0.8277(2) 0.18900(16)
H35 H 0.3039 0.8093 0.1936
C46 C 0.2335(2) 0.9442(3) 0.19810(18)
H36 H 0.2654 1.0037 0.2097
C47 C 0.1645(2) 0.9730(3) 0.19033(18)
H37 H 0.1494 1.0520 0.1961
C48 C 0.11764(19) 0.8857(3) 0.17408(15)
H38 H 0.0706 0.9054 0.1682
C49 C 0.13950(16) 0.7688(2) 0.16630(14)
H39 H 0.1068 0.7095 0.1564
C50 C 0.27111(17) 0.5160(2) 0.02768(15)
C51 C 0.31272(19) 0.6181(2) 0.02244(15)
H40 H 0.2958 0.6932 0.0346
C52 C 0.3794(2) 0.6061(3) -0.00108(17)
H41 H 0.4071 0.6748 -0.0050
C53 C 0.4067(2) 0.4972(3) -0.01893(17)
C54 C 0.3639(2) 0.3972(3) -0.01474(17)
H42 H 0.3805 0.3228 -0.0283
C55 C 0.29680(19) 0.4053(2) 0.00923(16)
H43 H 0.2691 0.3366 0.0129
C56 C 0.4803(2) 0.4867(4) -0.0427(2)
H44 H 0.4995 0.4101 -0.0306
H45 H 0.5084 0.5504 -0.0255
H46 H 0.4802 0.4927 -0.0874
loop_
_geom_bond_atom_site_label_1
_geom_bond_atom_site_label_2
_geom_bond_site_symmetry_1
_geom_bond_site_symmetry_2
S1 O2 1_555 1_555
S2 O5 1_555 1_555
O1 N1 1_555 1_555
O3 S1 1_555 1_555
O4 N2 1_555 1_555
O6 S2 1_555 1_555
N1 S1 1_555 1_555
N2 S2 1_555 1_555
C1 H1 1_555 1_555
C2 C1 1_555 1_555
H2 C2 1_555 1_555
C3 C2 1_555 1_555
H3 C3 1_555 1_555
C4 C3 1_555 1_555
H4 C4 1_555 1_555
C5 C4 1_555 1_555
H5 C5 1_555 1_555
C6 C1 1_555 1_555
C7 O1 1_555 1_555
C8 C7 1_555 1_555
C9 C8 1_555 1_555
H6 C9 1_555 1_555
C10 C9 1_555 1_555
H7 C10 1_555 1_555
C11 C10 1_555 1_555
H8 C11 1_555 1_555
C12 C11 1_555 1_555
H9 C12 1_555 1_555
C13 C8 1_555 1_555
H10 C13 1_555 1_555
C14 C7 1_555 1_555
H11 C14 1_555 1_555
C15 N1 1_555 1_555
C16 C15 1_555 1_555
C17 C16 1_555 1_555
H12 C17 1_555 1_555
C18 C17 1_555 1_555
H13 C18 1_555 1_555
C19 C18 1_555 1_555
H14 C19 1_555 1_555
C20 C19 1_555 1_555
H15 C20 1_555 1_555
C21 C16 1_555 1_555
H16 C21 1_555 1_555
C22 S1 1_555 1_555
C23 C22 1_555 1_555
H17 C23 1_555 1_555
C24 C23 1_555 1_555
H18 C24 1_555 1_555
C25 C24 1_555 1_555
C26 C25 1_555 1_555
H19 C26 1_555 1_555
C27 C22 1_555 1_555
H20 C27 1_555 1_555
C28 C25 1_555 1_555
H21 C28 1_555 1_555
H22 C28 1_555 1_555
H23 C28 1_555 1_555
C29 H24 1_555 1_555
C30 C29 1_555 1_555
H25 C30 1_555 1_555
C31 C30 1_555 1_555
H26 C31 1_555 1_555
C32 C31 1_555 1_555
H27 C32 1_555 1_555
C33 C32 1_555 1_555
H28 C33 1_555 1_555
C34 C29 1_555 1_555
C35 O4 1_555 1_555
C36 C35 1_555 1_555
C37 C36 1_555 1_555
H29 C37 1_555 1_555
C38 C37 1_555 1_555
H30 C38 1_555 1_555
C39 C38 1_555 1_555
H31 C39 1_555 1_555
C40 C39 1_555 1_555
H32 C40 1_555 1_555
C41 C36 1_555 1_555
H33 C41 1_555 1_555
C42 C35 1_555 1_555
H34 C42 1_555 1_555
C43 N2 1_555 1_555
C44 C43 1_555 1_555
C45 C44 1_555 1_555
H35 C45 1_555 1_555
C46 C45 1_555 1_555
H36 C46 1_555 1_555
C47 C46 1_555 1_555
H37 C47 1_555 1_555
C48 C47 1_555 1_555
H38 C48 1_555 1_555
C49 C44 1_555 1_555
H39 C49 1_555 1_555
C50 S2 1_555 1_555
C51 C50 1_555 1_555
H40 C51 1_555 1_555
C52 C51 1_555 1_555
H41 C52 1_555 1_555
C53 C52 1_555 1_555
C54 C53 1_555 1_555
H42 C54 1_555 1_555
C55 C50 1_555 1_555
H43 C55 1_555 1_555
C56 C53 1_555 1_555
H44 C56 1_555 1_555
H45 C56 1_555 1_555
H46 C56 1_555 1_555
C5 C6 1_555 1_555
C6 C7 1_555 1_555
C12 C13 1_555 1_555
C14 C15 1_555 1_555
C20 C21 1_555 1_555
C26 C27 1_555 1_555
C33 C34 1_555 1_555
C34 C35 1_555 1_555
C40 C41 1_555 1_555
C42 C43 1_555 1_555
C48 C49 1_555 1_555
C54 C55 1_555 1_555

#END
