
#######################################################################
#
#                 Cambridge Crystallographic Data Centre
#                                CCDC 
#
#######################################################################
#
# If this CIF has been generated from an entry in the Cambridge 
# Structural Database, then it will include bibliographic, chemical, 
# crystal, experimental, refinement or atomic coordinate data resulting 
# from the CCDC's data processing and validation procedures.
#
#######################################################################

data_VELGEY
_chemical_formula_moiety         'C21 H23 N1 O3'
_chemical_name_systematic        
1-(\a-Phenylbenzylimino)-1-t-butyloxycarbonyl-2-methoxyethene
_symmetry_cell_setting           orthorhombic
_symmetry_space_group_name_H-M   'P c a b'
_symmetry_Int_Tables_number      61
_space_group_name_Hall           '-P 2bc 2ac'
loop_
_symmetry_equiv_pos_site_id
_symmetry_equiv_pos_as_xyz
1 x,y,z
2 1/2-x,y,1/2+z
3 1/2+x,1/2-y,z
4 -x,1/2-y,1/2+z
5 -x,-y,-z
6 1/2+x,-y,1/2-z
7 1/2-x,1/2+y,-z
8 x,1/2+y,1/2-z
_cell_length_a                   17.979(11)
_cell_length_b                   9.811(5)
_cell_length_c                   20.187(10)
_cell_angle_alpha                90
_cell_angle_beta                 90
_cell_angle_gamma                90
_cell_volume                     3560.82
_exptl_crystal_colour            colorless
_cell_formula_units_Z            8
loop_
_atom_site_label
_atom_site_type_symbol
_atom_site_fract_x
_atom_site_fract_y
_atom_site_fract_z
C1 C 0.0814(4) 0.0216(2) 0.2418(4)
N1 N 0.1393(3) -0.0558(5) 0.2482(3)
C2 C 0.1813(4) -0.1097(7) 0.1954(3)
C3 C 0.1907(4) -0.0489(7) 0.1287(4)
O1 O 0.2096(2) 0.0848(4) 0.1340(2)
C4 C 0.2287(4) 0.1667(7) 0.0743(3)
C5 C 0.1649(4) 0.1732(8) 0.0268(4)
C6 C 0.2981(4) 0.1089(7) 0.0425(3)
C7 C 0.2465(5) 0.3056(7) 0.1051(4)
O2 O 0.1878(3) -0.1103(5) 0.0769(2)
C8 C 0.0435(4) 0.0620(6) 0.3047(3)
C9 C -0.0324(4) 0.0860(7) 0.3066(3)
C10 C -0.0683(4) 0.1144(7) 0.3649(4)
C11 C -0.0299(4) 0.1212(7) 0.4233(4)
C12 C 0.0463(4) 0.0998(7) 0.4221(3)
C13 C 0.0825(4) 0.0716(7) 0.3645(4)
C14 C 0.0432(4) 0.0580(7) 0.1802(3)
C15 C 0.0254(4) 0.1951(7) 0.1664(3)
C16 C -0.0170(4) 0.2281(7) 0.1121(4)
C17 C -0.0434(4) 0.1270(7) 0.0695(3)
C18 C -0.0245(4) -0.0088(7) 0.0827(4)
C19 C 0.0189(4) -0.0409(7) 0.1371(3)
C20 C 0.2201(4) -0.2230(7) 0.2109(3)
O3 O 0.2633(3) -0.2891(5) 0.1672(2)
C21 C 0.3109(4) -0.3918(7) 0.1966(4)
H1 H 0.120(5) 0.204(9) 0.048(5)
H2 H 0.185(5) 0.250(11) -0.013(4)
H3 H 0.150(6) 0.103(11) 0.009(5)
H4 H 0.289(4) 0.030(8) 0.021(3)
H5 H 0.314(4) 0.165(8) 0.003(4)
H6 H 0.342(5) 0.111(9) 0.077(4)
H7 H 0.292(6) 0.308(10) 0.139(5)
H8 H 0.256(5) 0.367(9) 0.069(4)
H9 H 0.202(6) 0.343(11) 0.126(5)
H10 H -0.066(4) 0.084(7) 0.266(4)
H11 H -0.113(3) 0.127(6) 0.365(3)
H12 H -0.051(4) 0.136(7) 0.468(4)
H13 H 0.074(4) 0.105(7) 0.463(3)
H14 H 0.135(3) 0.063(6) 0.364(3)
H15 H 0.041(4) 0.264(8) 0.199(4)
H16 H -0.029(4) 0.319(8) 0.103(4)
H17 H -0.078(4) 0.149(7) 0.027(3)
H18 H -0.041(4) -0.074(7) 0.056(3)
H19 H 0.034(5) -0.130(9) 0.147(4)
H20 H 0.219(3) -0.261(6) 0.257(3)
H21 H 0.280(5) -0.462(10) 0.218(4)
H22 H 0.333(4) -0.435(7) 0.157(3)
H23 H 0.337(6) -0.353(11) 0.235(6)
loop_
_geom_bond_atom_site_label_1
_geom_bond_atom_site_label_2
_geom_bond_site_symmetry_1
_geom_bond_site_symmetry_2
C1 N1 1_555 1_555
N1 C2 1_555 1_555
C2 C3 1_555 1_555
C3 O1 1_555 1_555
O1 C4 1_555 1_555
C4 C5 1_555 1_555
C5 H1 1_555 1_555
C6 C4 1_555 1_555
C7 C4 1_555 1_555
O2 C3 1_555 1_555
C8 C1 1_555 1_555
C9 C8 1_555 1_555
C10 C9 1_555 1_555
C11 C10 1_555 1_555
C12 C11 1_555 1_555
C13 C8 1_555 1_555
C14 C1 1_555 1_555
C15 C14 1_555 1_555
C16 C15 1_555 1_555
C17 C16 1_555 1_555
C18 C17 1_555 1_555
C19 C14 1_555 1_555
C20 C2 1_555 1_555
O3 C20 1_555 1_555
C21 O3 1_555 1_555
H2 C5 1_555 1_555
H3 C5 1_555 1_555
H4 C6 1_555 1_555
H5 C6 1_555 1_555
H6 C6 1_555 1_555
H7 C7 1_555 1_555
H8 C7 1_555 1_555
H9 C7 1_555 1_555
H10 C9 1_555 1_555
H11 C10 1_555 1_555
H12 C11 1_555 1_555
H13 C12 1_555 1_555
H14 C13 1_555 1_555
H15 C15 1_555 1_555
H16 C16 1_555 1_555
H17 C17 1_555 1_555
H18 C18 1_555 1_555
H19 C19 1_555 1_555
H20 C20 1_555 1_555
H21 C21 1_555 1_555
H22 C21 1_555 1_555
H23 C21 1_555 1_555
C12 C13 1_555 1_555
C18 C19 1_555 1_555

#END
