
#######################################################################
#
#                 Cambridge Crystallographic Data Centre
#                                CCDC 
#
#######################################################################
#
# If this CIF has been generated from an entry in the Cambridge 
# Structural Database, then it will include bibliographic, chemical, 
# crystal, experimental, refinement or atomic coordinate data resulting 
# from the CCDC's data processing and validation procedures.
#
#######################################################################

data_VELGAU
_chemical_formula_moiety         'C19 H24 O2'
_chemical_name_systematic        Androsta-4,8(14)-diene-3,17-dione
_symmetry_cell_setting           orthorhombic
_symmetry_space_group_name_H-M   'P 21 21 21'
_symmetry_Int_Tables_number      19
_space_group_name_Hall           'P 2ac 2ab'
loop_
_symmetry_equiv_pos_site_id
_symmetry_equiv_pos_as_xyz
1 x,y,z
2 1/2+x,1/2-y,-z
3 -x,1/2+y,1/2-z
4 1/2-x,-y,1/2+z
_cell_length_a                   8.994(3)
_cell_length_b                   10.483(2)
_cell_length_c                   16.680(4)
_cell_angle_alpha                90
_cell_angle_beta                 90
_cell_angle_gamma                90
_cell_volume                     1572.66
_chemical_melting_point          141-142deg.C
_cell_formula_units_Z            4
loop_
_atom_site_label
_atom_site_type_symbol
_atom_site_fract_x
_atom_site_fract_y
_atom_site_fract_z
C1 C 0.3045(13) 1.3552(9) 1.2470(6)
C2 C 0.2653(14) 1.4791(11) 1.2868(6)
C3 C 0.2882(12) 1.5899(10) 1.2331(6)
C4 C 0.2620(13) 1.5627(9) 1.1481(5)
C5 C 0.2305(12) 1.4496(9) 1.1181(6)
C6 C 0.1846(12) 1.4359(9) 1.0328(6)
C7 C 0.2651(13) 1.3254(8) 0.9886(6)
C8 C 0.2554(12) 1.2036(8) 1.0372(5)
C9 C 0.3085(11) 1.2203(8) 1.1212(5)
C10 C 0.2259(13) 1.3260(10) 1.1678(5)
C11 C 0.3092(13) 1.0921(10) 1.1709(6)
C12 C 0.3421(12) 0.9771(9) 1.1186(6)
C13 C 0.2345(12) 0.9674(9) 1.0486(6)
C14 C 0.2211(11) 1.0928(9) 1.0045(5)
C15 C 0.1809(13) 1.0637(10) 0.9182(6)
C16 C 0.2468(17) 0.9300(11) 0.9046(7)
C17 C 0.2768(15) 0.8754(9) 0.9842(6)
C18 C 0.0803(13) 0.9226(10) 1.0804(7)
C19 C 0.0629(13) 1.2914(11) 1.1854(6)
O1 O 0.3217(9) 1.6929(7) 1.2586(4)
O2 O 0.3302(11) 0.7713(7) 0.9962(5)
H1 H 0.282 1.276 1.287
H2 H 0.416 1.350 1.241
H3 H 0.308 1.490 1.344
H4 H 0.146 1.478 1.300
H5 H 0.282 1.638 1.108
H6 H 0.202 1.521 1.001
H7 H 0.071 1.421 1.027
H8 H 0.218 1.315 0.933
H9 H 0.370 1.355 0.980
H10 H 0.420 1.250 1.120
H11 H 0.205 1.082 1.197
H12 H 0.380 1.101 1.221
H13 H 0.355 0.898 1.152
H14 H 0.451 0.994 1.095
H15 H 0.068 1.069 0.910
H16 H 0.226 1.128 0.879
H17 H 0.328 0.932 0.865
H18 H 0.160 0.876 0.874
H19 H 0.040 0.854 1.047
H20 H 0.009 1.001 1.075
H21 H 0.091 0.900 1.139
H22 H 0.024 1.330 1.238
H23 H 0.043 1.196 1.189
H24 H 0.001 1.328 1.139
loop_
_geom_bond_atom_site_label_1
_geom_bond_atom_site_label_2
_geom_bond_site_symmetry_1
_geom_bond_site_symmetry_2
C1 C2 1_555 1_555
C2 C3 1_555 1_555
C3 C4 1_555 1_555
C4 C5 1_555 1_555
C5 C6 1_555 1_555
C6 C7 1_555 1_555
C7 C8 1_555 1_555
C8 C9 1_555 1_555
C9 C10 1_555 1_555
C10 C1 1_555 1_555
C11 C9 1_555 1_555
C12 C11 1_555 1_555
C13 C12 1_555 1_555
C14 C8 1_555 1_555
C15 C14 1_555 1_555
C16 C15 1_555 1_555
C17 C13 1_555 1_555
C18 C13 1_555 1_555
C19 C10 1_555 1_555
O1 C3 1_555 1_555
O2 C17 1_555 1_555
H1 C1 1_555 1_555
H2 C1 1_555 1_555
H3 C2 1_555 1_555
H4 C2 1_555 1_555
H5 C4 1_555 1_555
H6 C6 1_555 1_555
H7 C6 1_555 1_555
H8 C7 1_555 1_555
H9 C7 1_555 1_555
H10 C9 1_555 1_555
H11 C11 1_555 1_555
H12 C11 1_555 1_555
H13 C12 1_555 1_555
H14 C12 1_555 1_555
H15 C15 1_555 1_555
H16 C15 1_555 1_555
H17 C16 1_555 1_555
H18 C16 1_555 1_555
H19 C18 1_555 1_555
H20 C18 1_555 1_555
H21 C18 1_555 1_555
H22 C19 1_555 1_555
H23 C19 1_555 1_555
H24 C19 1_555 1_555
C5 C10 1_555 1_555
C13 C14 1_555 1_555
C16 C17 1_555 1_555

#END
