
#######################################################################
#
#                 Cambridge Crystallographic Data Centre
#                                CCDC 
#
#######################################################################
#
# If this CIF has been generated from an entry in the Cambridge 
# Structural Database, then it will include bibliographic, chemical, 
# crystal, experimental, refinement or atomic coordinate data resulting 
# from the CCDC's data processing and validation procedures.
#
#######################################################################

data_VELLII
_chemical_compound_source        'roots of Salvia yunnanensis'
_chemical_name_common            'Danshenol A'
_chemical_formula_moiety         'C21 H20 O4'
_chemical_name_systematic        
10-(Acetylmethyl)-10-hydroxy-1,6-dimethyl-1,2,10,11-tetrahydrophenanthro(1,2-b)furan-11-one
_chemical_properties_biological  'strong aldose reductase inhibitory activity'
_symmetry_cell_setting           monoclinic
_symmetry_space_group_name_H-M   'P 21'
_symmetry_Int_Tables_number      4
_space_group_name_Hall           'P 2yb'
loop_
_symmetry_equiv_pos_site_id
_symmetry_equiv_pos_as_xyz
1 x,y,z
2 -x,1/2+y,-z
_cell_length_a                   7.5180(15)
_cell_length_b                   6.7150(13)
_cell_length_c                   17.161(3)
_cell_angle_alpha                90
_cell_angle_beta                 102.75(3)
_cell_angle_gamma                90
_cell_volume                     844.983
_exptl_crystal_colour            colorless
_exptl_crystal_description       column
_cell_formula_units_Z            2
_exptl_crystal_recrystallization_method ethanol
loop_
_atom_site_label
_atom_site_type_symbol
_atom_site_fract_x
_atom_site_fract_y
_atom_site_fract_z
O1 O 0.8139(3) -0.1269(4) 0.25560(16)
O2 O 0.1522(3) 0.0997(5) 0.27739(14)
H1 H 0.0550 0.1287 0.2472
O3 O -0.0940(6) 0.2250(12) 0.1253(3)
O4 O 0.1899(3) -0.1879(5) 0.17424(19)
C1 C 0.2721(5) 0.4906(6) 0.3341(2)
H2 H 0.1644 0.4337 0.3057
C2 C 0.2657(6) 0.6661(8) 0.3733(2)
H3 H 0.1539 0.7289 0.3697
C3 C 0.4236(6) 0.7535(7) 0.4187(2)
H4 H 0.4146 0.8723 0.4454
C4 C 0.5921(6) 0.6672(7) 0.4247(2)
C5 C 0.6041(5) 0.4828(6) 0.3837(2)
C6 C 0.7749(5) 0.3887(8) 0.3876(2)
H5 H 0.8793 0.4447 0.4192
C7 C 0.7902(5) 0.2187(7) 0.3463(2)
H6 H 0.9037 0.1595 0.3503
C8 C 0.6319(4) 0.1320(6) 0.29697(18)
C9 C 0.4595(4) 0.2136(5) 0.29251(18)
C10 C 0.4427(4) 0.3920(6) 0.33581(19)
C11 C 0.2953(4) 0.1210(6) 0.23669(18)
C12 C 0.3269(4) -0.0894(6) 0.2029(2)
C13 C 0.5092(5) -0.1473(6) 0.20540(19)
C14 C 0.6469(4) -0.0454(6) 0.2510(2)
C15 C 0.7868(5) -0.3021(8) 0.2027(3)
H7 H 0.8367 -0.4200 0.2323
H8 H 0.8482 -0.2829 0.1591
C16 C 0.5818(5) -0.3271(7) 0.1700(2)
H9 H 0.5408 -0.4475 0.1932
C17 C 0.7590(7) 0.7632(10) 0.4740(3)
H10 H 0.7246 0.8801 0.4993
H11 H 0.8398 0.8000 0.4402
H12 H 0.8195 0.6714 0.5140
C18 C 0.2410(5) 0.2579(8) 0.1611(2)
H13 H 0.2319 0.3943 0.1785
H14 H 0.3374 0.2530 0.1317
C19 C 0.0595(8) 0.1996(11) 0.1043(3)
C20 C 0.0820(13) 0.1231(13) 0.0285(3)
H15 H -0.0350 0.0875 -0.0037
H16 H 0.1590 0.0076 0.0373
H17 H 0.1369 0.2233 0.0016
C21 C 0.5262(7) -0.3411(14) 0.0797(3)
H18 H 0.3964 -0.3570 0.0637
H19 H 0.5853 -0.4536 0.0618
H20 H 0.5619 -0.2217 0.0565
loop_
_geom_bond_atom_site_label_1
_geom_bond_atom_site_label_2
_geom_bond_site_symmetry_1
_geom_bond_site_symmetry_2
O1 C14 1_555 1_555
O2 H1 1_555 1_555
O3 C19 1_555 1_555
O4 C12 1_555 1_555
C1 H2 1_555 1_555
C2 C1 1_555 1_555
H3 C2 1_555 1_555
C3 C2 1_555 1_555
H4 C3 1_555 1_555
C4 C3 1_555 1_555
C5 C4 1_555 1_555
C6 C5 1_555 1_555
H5 C6 1_555 1_555
C7 C6 1_555 1_555
H6 C7 1_555 1_555
C8 C7 1_555 1_555
C9 C8 1_555 1_555
C10 C1 1_555 1_555
C11 O2 1_555 1_555
C12 C11 1_555 1_555
C13 C12 1_555 1_555
C14 C8 1_555 1_555
C15 O1 1_555 1_555
H7 C15 1_555 1_555
H8 C15 1_555 1_555
C16 C13 1_555 1_555
H9 C16 1_555 1_555
C17 C4 1_555 1_555
H10 C17 1_555 1_555
H11 C17 1_555 1_555
H12 C17 1_555 1_555
C18 C11 1_555 1_555
H13 C18 1_555 1_555
H14 C18 1_555 1_555
C19 C18 1_555 1_555
C20 C19 1_555 1_555
H15 C20 1_555 1_555
H16 C20 1_555 1_555
H17 C20 1_555 1_555
C21 C16 1_555 1_555
H18 C21 1_555 1_555
H19 C21 1_555 1_555
H20 C21 1_555 1_555
C5 C10 1_555 1_555
C9 C10 1_555 1_555
C9 C11 1_555 1_555
C13 C14 1_555 1_555
C15 C16 1_555 1_555

#END
