
#######################################################################
#
#                 Cambridge Crystallographic Data Centre
#                                CCDC 
#
#######################################################################
#
# If this CIF has been generated from an entry in the Cambridge 
# Structural Database, then it will include bibliographic, chemical, 
# crystal, experimental, refinement or atomic coordinate data resulting 
# from the CCDC's data processing and validation procedures.
#
#######################################################################

data_VELMAC
_chemical_formula_moiety         'C20 H29 N1 O2'
_chemical_name_systematic        
3-Hydroxy-9-azapentacyclo[9.7.3.0^1,10^.0^3,9^.0^13,18^]henicos-13(18)-en-8-one
_symmetry_cell_setting           monoclinic
_symmetry_space_group_name_H-M   'C c'
_symmetry_Int_Tables_number      9
_space_group_name_Hall           'C -2yc'
loop_
_symmetry_equiv_pos_site_id
_symmetry_equiv_pos_as_xyz
1 x,y,z
2 x,-y,1/2+z
3 1/2+x,1/2+y,z
4 1/2+x,1/2-y,1/2+z
_cell_length_a                   9.4370(8)
_cell_length_b                   22.9717(19)
_cell_length_c                   8.1870(7)
_cell_angle_alpha                90
_cell_angle_beta                 108.720(2)
_cell_angle_gamma                90
_cell_volume                     1680.92
_exptl_crystal_colour            colorless
_exptl_crystal_description       prism
_cell_formula_units_Z            4
loop_
_atom_site_label
_atom_site_type_symbol
_atom_site_fract_x
_atom_site_fract_y
_atom_site_fract_z
O1 O 0.71648(15) 0.47772(5) 0.46470(17)
O2 O 0.56393(14) 0.59876(6) 0.71545(16)
H1 H 0.6072 0.5755 0.7931
N1 N 0.73188(14) 0.57000(6) 0.56140(17)
C1 C 0.65364(18) 0.52412(8) 0.4766(2)
C2 C 0.4864(2) 0.53011(8) 0.3920(2)
H2 H 0.4391 0.5303 0.4825
H3 H 0.4499 0.4957 0.3202
C3 C 0.4351(2) 0.58424(9) 0.2802(2)
H4 H 0.5034 0.5907 0.2137
H5 H 0.3355 0.5768 0.1980
C4 C 0.4283(2) 0.63957(8) 0.3797(2)
H6 H 0.3655 0.6323 0.4524
H7 H 0.3800 0.6702 0.2971
C5 C 0.58053(19) 0.66173(8) 0.4935(2)
H8 H 0.5659 0.6983 0.5476
H9 H 0.6423 0.6702 0.4203
C6 C 0.66526(17) 0.61925(7) 0.6348(2)
C7 C 0.80598(19) 0.64523(7) 0.7688(2)
H10 H 0.7963 0.6875 0.7762
H11 H 0.8208 0.6283 0.8830
C8 C 0.93679(18) 0.62997(7) 0.70509(19)
C9 C 1.0922(2) 0.62818(8) 0.8438(2)
H12 H 1.1214 0.6674 0.8892
H13 H 1.0892 0.6031 0.9394
C10 C 1.2063(2) 0.60443(8) 0.7628(2)
H14 H 1.2232 0.6336 0.6838
H15 H 1.3017 0.5977 0.8541
C11 C 1.15456(19) 0.54751(8) 0.6640(2)
H16 H 1.1647 0.5161 0.7481
H17 H 1.2221 0.5386 0.5981
C12 C 0.99238(18) 0.54723(7) 0.5389(2)
H18 H 0.9647 0.5067 0.5011
C13 C 0.89545(17) 0.56734(7) 0.64451(19)
H19 H 0.9167 0.5421 0.7476
C14 C 0.9657(2) 0.58529(8) 0.3795(2)
H20 H 1.0486 0.5795 0.3335
H21 H 0.8739 0.5722 0.2913
C15 C 0.95163(19) 0.64938(8) 0.4098(2)
C16 C 0.94120(17) 0.67001(7) 0.5575(2)
C17 C 0.9467(3) 0.68836(10) 0.2601(3)
H22 H 0.8763 0.6720 0.1545
H23 H 1.0460 0.6891 0.2460
C18 C 0.8998(2) 0.75043(10) 0.2827(3)
H24 H 0.9213 0.7759 0.1975
H25 H 0.7920 0.7518 0.2643
C19 C 0.9846(2) 0.77133(9) 0.4627(3)
H26 H 0.9618 0.8124 0.4750
H27 H 1.0925 0.7677 0.4839
C20 C 0.9390(2) 0.73475(8) 0.5921(2)
H28 H 1.0071 0.7429 0.7082
H29 H 0.8379 0.7460 0.5888
loop_
_geom_bond_atom_site_label_1
_geom_bond_atom_site_label_2
_geom_bond_site_symmetry_1
_geom_bond_site_symmetry_2
O1 C1 1_555 1_555
O2 H1 1_555 1_555
N1 C1 1_555 1_555
C1 C2 1_555 1_555
C2 H2 1_555 1_555
H3 C2 1_555 1_555
C3 C2 1_555 1_555
H4 C3 1_555 1_555
H5 C3 1_555 1_555
C4 C3 1_555 1_555
H6 C4 1_555 1_555
H7 C4 1_555 1_555
C5 C4 1_555 1_555
H8 C5 1_555 1_555
H9 C5 1_555 1_555
C6 O2 1_555 1_555
C7 C6 1_555 1_555
H10 C7 1_555 1_555
H11 C7 1_555 1_555
C8 C7 1_555 1_555
C9 C8 1_555 1_555
H12 C9 1_555 1_555
H13 C9 1_555 1_555
C10 C9 1_555 1_555
H14 C10 1_555 1_555
H15 C10 1_555 1_555
C11 C10 1_555 1_555
H16 C11 1_555 1_555
H17 C11 1_555 1_555
C12 C11 1_555 1_555
H18 C12 1_555 1_555
C13 N1 1_555 1_555
H19 C13 1_555 1_555
C14 C12 1_555 1_555
H20 C14 1_555 1_555
H21 C14 1_555 1_555
C15 C14 1_555 1_555
C16 C8 1_555 1_555
C17 C15 1_555 1_555
H22 C17 1_555 1_555
H23 C17 1_555 1_555
C18 C17 1_555 1_555
H24 C18 1_555 1_555
H25 C18 1_555 1_555
C19 C18 1_555 1_555
H26 C19 1_555 1_555
H27 C19 1_555 1_555
C20 C16 1_555 1_555
H28 C20 1_555 1_555
H29 C20 1_555 1_555
N1 C6 1_555 1_555
C5 C6 1_555 1_555
C8 C13 1_555 1_555
C12 C13 1_555 1_555
C15 C16 1_555 1_555
C19 C20 1_555 1_555

#END
