
#######################################################################
#
#                 Cambridge Crystallographic Data Centre
#                                CCDC 
#
#######################################################################
#
# If this CIF has been generated from an entry in the Cambridge 
# Structural Database, then it will include bibliographic, chemical, 
# crystal, experimental, refinement or atomic coordinate data resulting 
# from the CCDC's data processing and validation procedures.
#
#######################################################################

data_VELQUA
_chemical_formula_moiety         'C29 H28 Br2 N2 O6 S2'
_chemical_name_systematic        
'1-(((4-Bromophenyl)sulfonyl)((1-((4-bromophenyl)sulfonyl)-3-phenylaziridin-2-yl)methyl)amino)-4-methylpenta-2,3-dien-2-yl acetate'
_symmetry_cell_setting           monoclinic
_symmetry_space_group_name_H-M   'P 21/n'
_symmetry_Int_Tables_number      14
_space_group_name_Hall           '-P 2yn'
loop_
_symmetry_equiv_pos_site_id
_symmetry_equiv_pos_as_xyz
1 x,y,z
2 1/2-x,1/2+y,1/2-z
3 -x,-y,-z
4 1/2+x,1/2-y,1/2+z
_cell_length_a                   14.6715(16)
_cell_length_b                   11.4067(13)
_cell_length_c                   18.823(2)
_cell_angle_alpha                90
_cell_angle_beta                 98.450(2)
_cell_angle_gamma                90
_cell_volume                     3115.9
_exptl_crystal_colour            colorless
_exptl_crystal_description       prismatic
_cell_formula_units_Z            4
loop_
_atom_site_label
_atom_site_type_symbol
_atom_site_fract_x
_atom_site_fract_y
_atom_site_fract_z
Br1 Br 1.34136(5) 1.21135(8) 0.16234(5)
Br2 Br 0.28977(6) 0.82555(8) 0.14416(5)
S1 S 0.95403(10) 0.95295(12) 0.14990(10)
S2 S 0.67441(10) 0.63372(12) 0.07040(8)
N1 N 0.9649(4) 0.8252(4) 0.1126(4)
N2 N 0.7528(3) 0.6473(3) 0.1394(2)
O1 O 0.9356(3) 0.9446(5) 0.2204(3)
O2 O 0.8898(3) 1.0103(4) 0.0985(3)
O3 O 0.6991(3) 0.7127(3) 0.0180(2)
O4 O 0.6627(3) 0.5122(3) 0.0539(2)
O5 O 0.8860(2) 0.4777(3) 0.21571(19)
O6 O 0.7875(3) 0.3295(3) 0.2143(3)
C1 C 0.9802(4) 0.7166(5) 0.1437(4)
H1 H 0.9836 0.7172 0.1961
C2 C 0.8919(4) 0.7360(5) 0.1071(4)
H2 H 0.8775 0.6972 0.0603
C3 C 0.8101(3) 0.7551(4) 0.1483(3)
H3 H 0.8319 0.7690 0.1987
H4 H 0.7742 0.8224 0.1291
C4 C 1.0500(4) 0.6363(5) 0.1170(4)
C5 C 1.0829(4) 0.5454(6) 0.1620(4)
H5 H 1.0642 0.5372 0.2068
C6 C 1.1448(4) 0.4659(6) 0.1390(4)
H6 H 1.1659 0.4035 0.1687
C7 C 1.1747(5) 0.4772(6) 0.0749(4)
H7 H 1.2166 0.4239 0.0609
C8 C 1.1429(5) 0.5667(8) 0.0317(4)
H8 H 1.1632 0.5753 -0.0125
C9 C 1.0785(5) 0.6487(6) 0.0528(4)
H9 H 1.0565 0.7100 0.0225
C10 C 0.7378(3) 0.5837(4) 0.2062(3)
H10 H 0.7033 0.6337 0.2344
H11 H 0.7012 0.5140 0.1931
C11 C 0.8259(4) 0.5492(4) 0.2506(3)
C12 C 0.8544(4) 0.5867(5) 0.3154(4)
C13 C 0.8729(4) 0.6319(6) 0.3782(4)
C14 C 0.8441(5) 0.5783(7) 0.4437(4)
H12 H 0.8034 0.5137 0.4301
H13 H 0.8128 0.6360 0.4684
H14 H 0.8975 0.5509 0.4749
C15 C 0.9261(5) 0.7469(6) 0.3892(4)
H15 H 0.9432 0.7721 0.3443
H16 H 0.9805 0.7355 0.4235
H17 H 0.8879 0.8055 0.4066
C16 C 1.0621(3) 1.0187(4) 0.1514(3)
C17 C 1.1167(4) 1.0349(5) 0.2158(3)
H18 H 1.0981 1.0064 0.2577
C18 C 1.1996(4) 1.0937(5) 0.2190(3)
H19 H 1.2367 1.1062 0.2628
C19 C 1.2258(4) 1.1328(5) 0.1569(3)
C20 C 1.1737(4) 1.1161(5) 0.0924(3)
H20 H 1.1941 1.1420 0.0506
C21 C 1.0915(4) 1.0611(5) 0.0893(3)
H21 H 1.0542 1.0516 0.0453
C22 C 0.5697(4) 0.6823(4) 0.0954(3)
C23 C 0.5618(4) 0.7954(5) 0.1180(3)
H22 H 0.6131 0.8442 0.1230
C24 C 0.4785(4) 0.8383(5) 0.1336(3)
H23 H 0.4737 0.9150 0.1494
C25 C 0.4042(4) 0.7661(5) 0.1253(3)
C26 C 0.4105(4) 0.6530(6) 0.1032(4)
H24 H 0.3589 0.6048 0.0978
C27 C 0.4932(4) 0.6106(5) 0.0887(3)
H25 H 0.4978 0.5331 0.0744
C28 C 0.8560(4) 0.3683(5) 0.1998(3)
C29 C 0.9242(5) 0.3018(5) 0.1619(4)
H26 H 0.8937 0.2370 0.1359
H27 H 0.9735 0.2730 0.1968
H28 H 0.9487 0.3533 0.1291
loop_
_geom_bond_atom_site_label_1
_geom_bond_atom_site_label_2
_geom_bond_site_symmetry_1
_geom_bond_site_symmetry_2
Br1 C19 1_555 1_555
Br2 C25 1_555 1_555
S1 N1 1_555 1_555
S2 N2 1_555 1_555
N1 C1 1_555 1_555
N2 C3 1_555 1_555
O1 S1 1_555 1_555
O2 S1 1_555 1_555
O3 S2 1_555 1_555
O4 S2 1_555 1_555
O5 C11 1_555 1_555
O6 C28 1_555 1_555
C1 H1 1_555 1_555
C2 N1 1_555 1_555
H2 C2 1_555 1_555
C3 C2 1_555 1_555
H3 C3 1_555 1_555
H4 C3 1_555 1_555
C4 C1 1_555 1_555
C5 C4 1_555 1_555
H5 C5 1_555 1_555
C6 C5 1_555 1_555
H6 C6 1_555 1_555
C7 C6 1_555 1_555
H7 C7 1_555 1_555
C8 C7 1_555 1_555
H8 C8 1_555 1_555
C9 C4 1_555 1_555
H9 C9 1_555 1_555
C10 N2 1_555 1_555
H10 C10 1_555 1_555
H11 C10 1_555 1_555
C11 C10 1_555 1_555
C12 C11 1_555 1_555
C13 C12 1_555 1_555
C14 C13 1_555 1_555
H12 C14 1_555 1_555
H13 C14 1_555 1_555
H14 C14 1_555 1_555
C15 C13 1_555 1_555
H15 C15 1_555 1_555
H16 C15 1_555 1_555
H17 C15 1_555 1_555
C16 S1 1_555 1_555
C17 C16 1_555 1_555
H18 C17 1_555 1_555
C18 C17 1_555 1_555
H19 C18 1_555 1_555
C19 C18 1_555 1_555
C20 C19 1_555 1_555
H20 C20 1_555 1_555
C21 C16 1_555 1_555
H21 C21 1_555 1_555
C22 S2 1_555 1_555
C23 C22 1_555 1_555
H22 C23 1_555 1_555
C24 C23 1_555 1_555
H23 C24 1_555 1_555
C25 C24 1_555 1_555
C26 C25 1_555 1_555
H24 C26 1_555 1_555
C27 C22 1_555 1_555
H25 C27 1_555 1_555
C28 O5 1_555 1_555
C29 C28 1_555 1_555
H26 C29 1_555 1_555
H27 C29 1_555 1_555
H28 C29 1_555 1_555
C1 C2 1_555 1_555
C8 C9 1_555 1_555
C20 C21 1_555 1_555
C26 C27 1_555 1_555

#END
