
#######################################################################
#
#                 Cambridge Crystallographic Data Centre
#                                CCDC 
#
#######################################################################
#
# If this CIF has been generated from an entry in the Cambridge 
# Structural Database, then it will include bibliographic, chemical, 
# crystal, experimental, refinement or atomic coordinate data resulting 
# from the CCDC's data processing and validation procedures.
#
#######################################################################

data_VELQIO
_chemical_formula_moiety         'C24 H17 N1 O2'
_chemical_name_systematic        
1-(((2-Benzoylphenyl)iminio)methyl)naphthalen-2-olate
_symmetry_cell_setting           monoclinic
_symmetry_space_group_name_H-M   'P 21/c'
_symmetry_Int_Tables_number      14
_space_group_name_Hall           '-P 2ybc'
loop_
_symmetry_equiv_pos_site_id
_symmetry_equiv_pos_as_xyz
1 x,y,z
2 -x,1/2+y,1/2-z
3 -x,-y,-z
4 x,1/2-y,1/2+z
_cell_length_a                   9.5110(15)
_cell_length_b                   15.598(2)
_cell_length_c                   12.7904(12)
_cell_angle_alpha                90
_cell_angle_beta                 109.683(13)
_cell_angle_gamma                90
_cell_volume                     1786.62
_exptl_crystal_colour            brown
_exptl_crystal_description       rectangular
_chemical_melting_point          '501.2 K'
_cell_formula_units_Z            4
loop_
_atom_site_label
_atom_site_type_symbol
_atom_site_fract_x
_atom_site_fract_y
_atom_site_fract_z
N1 N 0.07200(15) 0.24804(8) 0.63079(11)
O1 O -0.07971(16) 0.16875(9) 0.72979(11)
C1 C 0.5610(2) 0.22906(11) 0.83643(15)
C2 C 0.31190(19) 0.28757(10) 0.82941(14)
C3 C 0.6938(2) 0.18871(12) 0.89354(18)
C4 C 0.7258(2) 0.16785(12) 1.00390(18)
C5 C 0.01543(19) 0.19789(11) 0.54593(14)
O2 O 0.21000(14) 0.28308(9) 0.86707(10)
H1 H 0.535(2) 0.2447(11) 0.7595(18)
H2 H 0.767(2) 0.1781(12) 0.8572(16)
H3 H 0.829(2) 0.1401(11) 1.0482(16)
H4 H 0.0472(18) 0.2052(10) 0.4830(14)
H5 H 0.010(4) 0.2287(18) 0.698(3)
C6 C -0.08767(18) 0.13179(10) 0.54620(13)
C7 C 0.29010(19) 0.33441(10) 0.72267(13)
C8 C 0.16797(19) 0.31670(10) 0.62777(13)
C9 C -0.14533(18) 0.07516(10) 0.45226(14)
C10 C 0.45913(18) 0.24881(10) 0.88979(13)
C11 C -0.1004(2) 0.07899(11) 0.35789(15)
C12 C 0.1448(2) 0.36671(11) 0.53322(15)
C13 C -0.1335(2) 0.12104(12) 0.63903(16)
C14 C -0.24957(19) 0.01111(11) 0.45517(16)
C15 C 0.3886(2) 0.39939(11) 0.71978(15)
C16 C 0.3635(2) 0.44957(11) 0.62609(16)
C17 C 0.2414(3) 0.43273(12) 0.53392(17)
C18 C -0.2391(2) 0.05669(14) 0.6381(2)
C19 C 0.6261(2) 0.18776(13) 1.05752(17)
C20 C -0.3042(2) -0.04602(12) 0.3645(2)
C21 C -0.2940(2) 0.00483(13) 0.5500(2)
C22 C 0.4937(2) 0.22727(13) 1.00084(15)
C23 C -0.1562(3) 0.02141(13) 0.27187(17)
C24 C -0.2579(3) -0.04130(13) 0.2753(2)
H6 H -0.269(2) 0.0535(12) 0.7027(17)
H7 H -0.028(2) 0.1219(13) 0.3527(16)
H8 H 0.058(2) 0.3548(12) 0.4676(16)
H9 H 0.474(2) 0.4107(11) 0.7877(17)
H10 H 0.439(2) 0.4959(12) 0.6244(15)
H11 H 0.225(2) 0.4670(12) 0.4698(17)
H12 H 0.645(2) 0.1713(12) 1.1350(17)
H13 H -0.378(2) -0.0901(13) 0.3692(16)
H14 H -0.362(2) -0.0351(12) 0.5503(16)
H15 H 0.418(2) 0.2401(12) 1.0337(17)
H16 H -0.113(2) 0.0257(13) 0.2146(17)
H17 H -0.299(2) -0.0827(12) 0.2130(17)
loop_
_geom_bond_atom_site_label_1
_geom_bond_atom_site_label_2
_geom_bond_site_symmetry_1
_geom_bond_site_symmetry_2
N1 C5 1_555 1_555
O1 C13 1_555 1_555
C1 C3 1_555 1_555
C2 O2 1_555 1_555
C3 C4 1_555 1_555
C4 H3 1_555 1_555
C5 H4 1_555 1_555
H1 C1 1_555 1_555
H2 C3 1_555 1_555
H5 N1 1_555 1_555
C6 C5 1_555 1_555
C7 C2 1_555 1_555
C8 N1 1_555 1_555
C9 C6 1_555 1_555
C10 C1 1_555 1_555
C11 C9 1_555 1_555
C12 C8 1_555 1_555
C13 C6 1_555 1_555
C14 C9 1_555 1_555
C15 C7 1_555 1_555
C16 C15 1_555 1_555
C17 C12 1_555 1_555
C18 C13 1_555 1_555
C19 C4 1_555 1_555
C20 C14 1_555 1_555
C21 C14 1_555 1_555
C22 C10 1_555 1_555
C23 C11 1_555 1_555
C24 C20 1_555 1_555
H6 C18 1_555 1_555
H7 C11 1_555 1_555
H8 C12 1_555 1_555
H9 C15 1_555 1_555
H10 C16 1_555 1_555
H11 C17 1_555 1_555
H12 C19 1_555 1_555
H13 C20 1_555 1_555
H14 C21 1_555 1_555
H15 C22 1_555 1_555
H16 C23 1_555 1_555
H17 C24 1_555 1_555
C2 C10 1_555 1_555
C7 C8 1_555 1_555
C16 C17 1_555 1_555
C18 C21 1_555 1_555
C19 C22 1_555 1_555
C23 C24 1_555 1_555

#END
