
#######################################################################
#
#                 Cambridge Crystallographic Data Centre
#                                CCDC 
#
#######################################################################
#
# If this CIF has been generated from an entry in the Cambridge 
# Structural Database, then it will include bibliographic, chemical, 
# crystal, experimental, refinement or atomic coordinate data resulting 
# from the CCDC's data processing and validation procedures.
#
#######################################################################

data_VELQIP
_chemical_formula_moiety         'C20 H23 F2 N3 O2'
_chemical_name_systematic        
4',4'-difluoro-1-methyl-5'-oxo-1'-(propan-2-yl)-2-{[(prop-2-en-1-yl)oxy]methyl}-1,2-dihydrospiro[indole-3,3'-pyrrolidine]-2-carbonitrile
_symmetry_cell_setting           triclinic
_symmetry_space_group_name_H-M   'P -1'
_symmetry_Int_Tables_number      2
_space_group_name_Hall           '-P 1'
loop_
_symmetry_equiv_pos_site_id
_symmetry_equiv_pos_as_xyz
1 x,y,z
2 -x,-y,-z
_cell_length_a                   7.6951(11)
_cell_length_b                   11.0390(13)
_cell_length_c                   12.1430(13)
_cell_angle_alpha                67.624(5)
_cell_angle_beta                 83.737(9)
_cell_angle_gamma                89.848(9)
_cell_volume                     947.294
_exptl_crystal_colour            colorless
_exptl_crystal_description       Prism
_cell_formula_units_Z            2
loop_
_atom_site_label
_atom_site_type_symbol
_atom_site_fract_x
_atom_site_fract_y
_atom_site_fract_z
F1 F 1.30704(8) 0.28286(6) 0.84101(6)
F2 F 1.07469(9) 0.19081(6) 0.96224(5)
O1 O 0.76595(9) 0.13788(7) 0.80826(6)
O2 O 1.19767(10) 0.02063(7) 0.84464(7)
N1 N 0.83851(11) 0.42302(8) 0.88489(8)
N2 N 0.66907(12) 0.48100(10) 0.62452(9)
N3 N 1.12657(11) 0.19161(8) 0.67748(7)
C1 C 0.97427(13) 0.51892(9) 0.83277(9)
C2 C 1.09455(12) 0.48293(9) 0.75685(9)
C3 C 1.24159(13) 0.56175(10) 0.69707(10)
H1 H 1.3233 0.5375 0.6453
C4 C 1.26707(14) 0.67790(11) 0.71460(11)
H2 H 1.3668 0.7339 0.6739
C5 C 1.14810(15) 0.71251(10) 0.79103(11)
H3 H 1.1686 0.7915 0.8025
C6 C 0.99974(14) 0.63388(10) 0.85100(10)
H4 H 0.9183 0.6581 0.9029
C7 C 0.67184(14) 0.45946(11) 0.93092(11)
H5 H 0.6926 0.5024 0.9859
H6 H 0.5961 0.3806 0.9738
H7 H 0.6150 0.5199 0.8640
C8 C 0.74381(12) 0.42072(9) 0.70239(9)
C9 C 0.83700(12) 0.34670(9) 0.80920(8)
C10 C 1.03722(12) 0.34968(9) 0.76137(8)
C11 C 1.07576(13) 0.32791(9) 0.64276(9)
H8 H 0.9704 0.3425 0.6000
H9 H 1.1718 0.3886 0.5898
C12 C 1.15494(12) 0.13287(9) 0.79192(9)
C13 C 1.13891(13) 0.23823(10) 0.84512(9)
C14 C 0.73891(13) 0.21454(9) 0.87815(9)
H10 H 0.7835 0.1701 0.9566
H11 H 0.6124 0.2275 0.8927
C15 C 0.66559(13) 0.01633(10) 0.86481(10)
H12 H 0.5399 0.0320 0.8573
H13 H 0.6804 -0.0227 0.9512
C16 C 0.72628(15) -0.07510(10) 0.80633(10)
H14 H 0.8486 -0.0835 0.7915
C17 C 0.61940(19) -0.14475(12) 0.77423(12)
H15 H 0.4965 -0.1381 0.7881
H16 H 0.6649 -0.2018 0.7371
C18 C 1.16128(15) 0.12679(10) 0.59238(9)
H17 H 1.1400 0.0303 0.6381
C19 C 1.35288(17) 0.15045(14) 0.53964(12)
H18 H 1.3766 0.2442 0.4923
H19 H 1.3779 0.1011 0.4880
H20 H 1.4273 0.1213 0.6047
C20 C 1.03737(18) 0.17042(12) 0.49660(11)
H21 H 0.9162 0.1558 0.5349
H22 H 1.0559 0.1197 0.4457
H23 H 1.0600 0.2639 0.4474
loop_
_geom_bond_atom_site_label_1
_geom_bond_atom_site_label_2
_geom_bond_site_symmetry_1
_geom_bond_site_symmetry_2
F1 C13 1_555 1_555
F2 C13 1_555 1_555
O1 C14 1_555 1_555
O2 C12 1_555 1_555
N1 C1 1_555 1_555
N2 C8 1_555 1_555
N3 C11 1_555 1_555
C1 C2 1_555 1_555
C2 C3 1_555 1_555
C3 H1 1_555 1_555
C4 C3 1_555 1_555
H2 C4 1_555 1_555
C5 C4 1_555 1_555
H3 C5 1_555 1_555
C6 C1 1_555 1_555
H4 C6 1_555 1_555
C7 N1 1_555 1_555
H5 C7 1_555 1_555
H6 C7 1_555 1_555
H7 C7 1_555 1_555
C8 C9 1_555 1_555
C9 N1 1_555 1_555
C10 C2 1_555 1_555
C11 C10 1_555 1_555
H8 C11 1_555 1_555
H9 C11 1_555 1_555
C12 N3 1_555 1_555
C13 C10 1_555 1_555
C14 C9 1_555 1_555
H10 C14 1_555 1_555
H11 C14 1_555 1_555
C15 O1 1_555 1_555
H12 C15 1_555 1_555
H13 C15 1_555 1_555
C16 C15 1_555 1_555
H14 C16 1_555 1_555
C17 C16 1_555 1_555
H15 C17 1_555 1_555
H16 C17 1_555 1_555
C18 N3 1_555 1_555
H17 C18 1_555 1_555
C19 C18 1_555 1_555
H18 C19 1_555 1_555
H19 C19 1_555 1_555
H20 C19 1_555 1_555
C20 C18 1_555 1_555
H21 C20 1_555 1_555
H22 C20 1_555 1_555
H23 C20 1_555 1_555
C5 C6 1_555 1_555
C9 C10 1_555 1_555
C12 C13 1_555 1_555

#END
