
#######################################################################
#
#                 Cambridge Crystallographic Data Centre
#                                CCDC 
#
#######################################################################
#
# If this CIF has been generated from an entry in the Cambridge 
# Structural Database, then it will include bibliographic, chemical, 
# crystal, experimental, refinement or atomic coordinate data resulting 
# from the CCDC's data processing and validation procedures.
#
#######################################################################

data_VELQUB
_chemical_formula_moiety         'C18 H19 F2 N3 O3'
_chemical_name_systematic        
"methyl 2-cyano-4',4'-difluoro-1-methyl-5'-oxo-1'-(propan-2-yl)-1,2-dihydrospiro[indole-3,3'-pyrrolidine]-2-carboxylate"
_symmetry_cell_setting           monoclinic
_symmetry_space_group_name_H-M   'P 21/c'
_symmetry_Int_Tables_number      14
_space_group_name_Hall           '-P 2ybc'
loop_
_symmetry_equiv_pos_site_id
_symmetry_equiv_pos_as_xyz
1 x,y,z
2 -x,1/2+y,1/2-z
3 -x,-y,-z
4 x,1/2-y,1/2+z
_cell_length_a                   16.239(3)
_cell_length_b                   10.0972(16)
_cell_length_c                   11.252(2)
_cell_angle_alpha                90
_cell_angle_beta                 103.760(3)
_cell_angle_gamma                90
_cell_volume                     1792.02
_exptl_crystal_colour            colorless
_exptl_crystal_description       Prism
_chemical_melting_point          '135-136 deg.C'
_cell_formula_units_Z            4
loop_
_atom_site_label
_atom_site_type_symbol
_atom_site_fract_x
_atom_site_fract_y
_atom_site_fract_z
F1 F 0.19620(5) 0.55180(7) 0.22312(7)
F2 F 0.31012(5) 0.43916(8) 0.30258(6)
O1 O 0.41308(6) 0.63649(9) 0.22648(9)
O2 O 0.45286(6) 0.42761(9) 0.19965(8)
O3 O 0.14282(5) 0.30360(9) 0.29314(7)
N1 N 0.29537(7) 0.63143(10) 0.00377(9)
N2 N 0.39419(8) 0.38023(12) -0.10943(11)
N3 N 0.21030(6) 0.22434(9) 0.14848(8)
C1 C 0.18374(7) 0.48605(11) -0.01287(10)
C2 C 0.10099(8) 0.44334(12) -0.05462(11)
H1 H 0.0830 0.3618 -0.0272
C3 C 0.04439(8) 0.52237(14) -0.13789(12)
H2 H -0.0126 0.4943 -0.1680
C4 C 0.07103(9) 0.64128(14) -0.17652(12)
H3 H 0.0317 0.6945 -0.2325
C5 C 0.15391(9) 0.68483(13) -0.13542(12)
H4 H 0.1718 0.7664 -0.1630
C6 C 0.21025(8) 0.60550(12) -0.05237(11)
C7 C 0.34521(10) 0.71537(13) -0.05900(13)
H5 H 0.3427 0.6793 -0.1406
H6 H 0.4043 0.7176 -0.0118
H7 H 0.3220 0.8054 -0.0666
C8 C 0.36932(8) 0.43263(12) -0.03513(11)
C9 C 0.33380(8) 0.50804(11) 0.05627(11)
C10 C 0.25730(7) 0.42597(10) 0.08151(10)
C11 C 0.23857(8) 0.44012(11) 0.20840(10)
C12 C 0.18902(7) 0.31498(11) 0.22240(9)
C13 C 0.26565(7) 0.27429(11) 0.07324(10)
H8 H 0.2464 0.2434 -0.0124
H9 H 0.3250 0.2456 0.1062
C14 C 0.18077(7) 0.08572(11) 0.14625(10)
H10 H 0.1742 0.0633 0.2301
C15 C 0.09455(9) 0.07126(14) 0.05833(12)
H11 H 0.0542 0.1315 0.0826
H12 H 0.0747 -0.0202 0.0603
H13 H 0.0991 0.0931 -0.0247
C16 C 0.24579(9) -0.00791(12) 0.11625(13)
H14 H 0.2516 0.0093 0.0329
H15 H 0.2273 -0.0996 0.1222
H16 H 0.3006 0.0059 0.1742
C17 C 0.40493(8) 0.53475(12) 0.17166(11)
C18 C 0.51551(9) 0.43502(15) 0.31529(14)
H17 H 0.5452 0.5201 0.3210
H18 H 0.5564 0.3627 0.3202
H19 H 0.4872 0.4273 0.3828
loop_
_geom_bond_atom_site_label_1
_geom_bond_atom_site_label_2
_geom_bond_site_symmetry_1
_geom_bond_site_symmetry_2
F1 C11 1_555 1_555
F2 C11 1_555 1_555
O1 C17 1_555 1_555
O2 C17 1_555 1_555
O3 C12 1_555 1_555
N1 C6 1_555 1_555
N2 C8 1_555 1_555
N3 C12 1_555 1_555
C1 C2 1_555 1_555
C2 H1 1_555 1_555
C3 C2 1_555 1_555
H2 C3 1_555 1_555
C4 C3 1_555 1_555
H3 C4 1_555 1_555
C5 C4 1_555 1_555
H4 C5 1_555 1_555
C6 C1 1_555 1_555
C7 N1 1_555 1_555
H5 C7 1_555 1_555
H6 C7 1_555 1_555
H7 C7 1_555 1_555
C8 C9 1_555 1_555
C9 N1 1_555 1_555
C10 C1 1_555 1_555
C11 C10 1_555 1_555
C12 C11 1_555 1_555
C13 N3 1_555 1_555
H8 C13 1_555 1_555
H9 C13 1_555 1_555
C14 N3 1_555 1_555
H10 C14 1_555 1_555
C15 C14 1_555 1_555
H11 C15 1_555 1_555
H12 C15 1_555 1_555
H13 C15 1_555 1_555
C16 C14 1_555 1_555
H14 C16 1_555 1_555
H15 C16 1_555 1_555
H16 C16 1_555 1_555
C17 C9 1_555 1_555
C18 O2 1_555 1_555
H17 C18 1_555 1_555
H18 C18 1_555 1_555
H19 C18 1_555 1_555
C5 C6 1_555 1_555
C9 C10 1_555 1_555
C10 C13 1_555 1_555

#END
