
#######################################################################
#
#                 Cambridge Crystallographic Data Centre
#                                CCDC 
#
#######################################################################
#
# If this CIF has been generated from an entry in the Cambridge 
# Structural Database, then it will include bibliographic, chemical, 
# crystal, experimental, refinement or atomic coordinate data resulting 
# from the CCDC's data processing and validation procedures.
#
#######################################################################

data_VELRUB
_chemical_formula_moiety         'C27 H18 Br1 Cl1 N2 O3'
_chemical_name_systematic        
4-Bromo-8-(4-chlorobenzoyl)-10-phenyl-11a,11b-dihydro-8H-pyrrolo[3',4':3,4]pyrrolo[2,1-a]isoquinoline-9,11(8aH,10H)-dione
_symmetry_cell_setting           triclinic
_symmetry_space_group_name_H-M   'P -1'
_symmetry_Int_Tables_number      2
_space_group_name_Hall           '-P 1'
loop_
_symmetry_equiv_pos_site_id
_symmetry_equiv_pos_as_xyz
1 x,y,z
2 -x,-y,-z
_cell_length_a                   9.4865(9)
_cell_length_b                   12.2929(11)
_cell_length_c                   13.2632(15)
_cell_angle_alpha                102.569(6)
_cell_angle_beta                 110.788(5)
_cell_angle_gamma                100.488(5)
_cell_volume                     1353.2
_exptl_crystal_colour            yellow
_exptl_crystal_description       needle
_chemical_melting_point          '137 deg.C'
_cell_formula_units_Z            2
_exptl_crystal_recrystallization_method Chloroform/Methanol
loop_
_atom_site_label
_atom_site_type_symbol
_atom_site_fract_x
_atom_site_fract_y
_atom_site_fract_z
Br1 Br 0.3243(3) 0.4351(2) 0.1755(2)
Cl1 Cl 0.4154(8) 1.0511(7) 0.8370(6)
O1 O 1.045(2) 0.9079(18) 0.8186(15)
O2 O 0.9222(17) 0.5597(11) 0.3729(13)
O3 O 1.1643(15) 0.9494(10) 0.5246(11)
N1 N 1.0343(16) 0.7527(11) 0.4205(12)
N2 N 0.7769(14) 0.7712(9) 0.5533(10)
C1 C 0.564(2) 1.0115(18) 0.8050(19)
C2 C 0.678(3) 0.988(2) 0.890(3)
H1 H 0.6779 0.9995 0.9618
C3 C 0.796(3) 0.9478(18) 0.865(2)
H2 H 0.8694 0.9255 0.9182
C4 C 0.801(2) 0.9413(14) 0.7622(13)
C5 C 0.935(2) 0.9022(15) 0.7434(18)
C6 C 0.916(2) 0.8633(15) 0.6171(14)
H3 H 0.9096 0.9287 0.5863
C7 C 1.055(2) 0.8205(13) 0.6100(18)
H4 H 1.1469 0.8479 0.6829
C8 C 1.093(2) 0.8485(14) 0.5186(19)
C9 C 1.034(2) 0.7542(14) 0.3156(17)
C10 C 0.904(3) 0.787(2) 0.2451(19)
H5 H 0.8268 0.8060 0.2681
C11 C 0.902(4) 0.789(3) 0.140(2)
H6 H 0.8318 0.8229 0.0981
C12 C 0.994(3) 0.746(3) 0.092(2)
H7 H 0.9719 0.7305 0.0154
C13 C 0.682(2) 0.9667(14) 0.6790(13)
H8 H 0.6827 0.9605 0.6079
C14 C 0.5654(19) 1.0013(17) 0.7055(16)
H9 H 0.4860 1.0178 0.6509
C15 C 0.992(2) 0.6886(15) 0.5655(16)
H10 H 1.0597 0.6507 0.6117
C16 C 0.9727(19) 0.6533(14) 0.4463(16)
C17 C 1.131(4) 0.726(2) 0.174(3)
H11 H 1.2101 0.7071 0.1538
C18 C 1.140(3) 0.7356(17) 0.2777(19)
H12 H 1.2315 0.7282 0.3292
C19 C 0.8194(14) 0.6627(13) 0.5660(12)
H13 H 0.8353 0.6632 0.6433
C20 C 0.6867(19) 0.7638(12) 0.4461(13)
H14 H 0.6882 0.8321 0.4266
C21 C 0.587(2) 0.6549(16) 0.3596(19)
H15 H 0.5251 0.6544 0.2872
C22 C 0.586(3) 0.5538(18) 0.385(2)
C23 C 0.4727(17) 0.4511(17) 0.3050(14)
C24 C 0.487(3) 0.3413(15) 0.336(2)
H16 H 0.4190 0.2703 0.2849
C25 C 0.602(3) 0.3438(19) 0.440(3)
H17 H 0.6080 0.2752 0.4581
C26 C 0.706(2) 0.4511(13) 0.5169(17)
H18 H 0.7779 0.4522 0.5866
C27 C 0.705(2) 0.5548(15) 0.4928(14)
loop_
_geom_bond_atom_site_label_1
_geom_bond_atom_site_label_2
_geom_bond_site_symmetry_1
_geom_bond_site_symmetry_2
Br1 C23 1_555 1_555
Cl1 C1 1_555 1_555
O1 C5 1_555 1_555
O2 C16 1_555 1_555
O3 C8 1_555 1_555
N1 C8 1_555 1_555
N2 C6 1_555 1_555
C1 C2 1_555 1_555
C2 H1 1_555 1_555
C3 C2 1_555 1_555
H2 C3 1_555 1_555
C4 C3 1_555 1_555
C5 C4 1_555 1_555
C6 C5 1_555 1_555
H3 C6 1_555 1_555
C7 C6 1_555 1_555
H4 C7 1_555 1_555
C8 C7 1_555 1_555
C9 N1 1_555 1_555
C10 C9 1_555 1_555
H5 C10 1_555 1_555
C11 C10 1_555 1_555
H6 C11 1_555 1_555
C12 C11 1_555 1_555
H7 C12 1_555 1_555
C13 C4 1_555 1_555
H8 C13 1_555 1_555
C14 C1 1_555 1_555
H9 C14 1_555 1_555
C15 C7 1_555 1_555
H10 C15 1_555 1_555
C16 N1 1_555 1_555
C17 C12 1_555 1_555
H11 C17 1_555 1_555
C18 C9 1_555 1_555
H12 C18 1_555 1_555
C19 N2 1_555 1_555
H13 C19 1_555 1_555
C20 N2 1_555 1_555
H14 C20 1_555 1_555
C21 C20 1_555 1_555
H15 C21 1_555 1_555
C22 C21 1_555 1_555
C23 C22 1_555 1_555
C24 C23 1_555 1_555
H16 C24 1_555 1_555
C25 C24 1_555 1_555
H17 C25 1_555 1_555
C26 C25 1_555 1_555
H18 C26 1_555 1_555
C27 C19 1_555 1_555
C13 C14 1_555 1_555
C15 C16 1_555 1_555
C15 C19 1_555 1_555
C17 C18 1_555 1_555
C22 C27 1_555 1_555
C26 C27 1_555 1_555

#END
