
#######################################################################
#
#                 Cambridge Crystallographic Data Centre
#                                CCDC 
#
#######################################################################
#
# If this CIF has been generated from an entry in the Cambridge 
# Structural Database, then it will include bibliographic, chemical, 
# crystal, experimental, refinement or atomic coordinate data resulting 
# from the CCDC's data processing and validation procedures.
#
#######################################################################

data_VELRIO
_chemical_formula_moiety         'C20 H29 N1 O3,H2 O1'
_chemical_name_systematic        
'10-Hydroxy-3,3,6,6-tetramethyl-9-propyl-1,2,3,4,5,6,7,8,9,10-decahydroacridine-1,8-dione monohydrate'
_symmetry_cell_setting           orthorhombic
_symmetry_space_group_name_H-M   'P 21 21 21'
_symmetry_Int_Tables_number      19
_space_group_name_Hall           'P 2ac 2ab'
loop_
_symmetry_equiv_pos_site_id
_symmetry_equiv_pos_as_xyz
1 x,y,z
2 1/2-x,-y,1/2+z
3 -x,1/2+y,1/2-z
4 1/2+x,1/2-y,-z
_cell_length_a                   9.3550(10)
_cell_length_b                   13.046(3)
_cell_length_c                   16.033(3)
_cell_angle_alpha                90
_cell_angle_beta                 90
_cell_angle_gamma                90
_cell_volume                     1956.75
_exptl_crystal_colour            colorless
_exptl_crystal_description       block
_chemical_melting_point          '425-426 K'
_cell_formula_units_Z            4
_exptl_crystal_recrystallization_method ethanol
loop_
_atom_site_label
_atom_site_type_symbol
_atom_site_fract_x
_atom_site_fract_y
_atom_site_fract_z
O1 O 0.4491(2) 0.43636(15) 0.60694(11)
H1 H 0.3686 0.4565 0.6187
O2 O 0.4700(2) 0.50688(13) 0.24421(11)
O3 O 0.6940(2) 0.78341(13) 0.41740(11)
N1 N 0.4963(2) 0.48567(15) 0.53452(12)
C1 C 0.4594(3) 0.44401(18) 0.45906(15)
C2 C 0.3709(3) 0.34747(18) 0.46010(16)
H2 H 0.2723 0.3652 0.4721
H3 H 0.4047 0.3033 0.5046
C3 C 0.3769(3) 0.28875(18) 0.37760(17)
C4 C 0.3495(3) 0.36454(19) 0.30699(16)
H4 H 0.3630 0.3294 0.2543
H5 H 0.2505 0.3864 0.3097
C5 C 0.4443(3) 0.45881(19) 0.30824(16)
C6 C 0.5016(3) 0.49160(17) 0.38777(15)
C7 C 0.6046(3) 0.58114(18) 0.38874(15)
H6 H 0.5711 0.6312 0.3476
C8 C 0.6012(3) 0.63206(18) 0.47299(15)
C9 C 0.6491(3) 0.73664(19) 0.47910(16)
C10 C 0.6392(4) 0.7893(2) 0.56249(15)
H7 H 0.5457 0.8209 0.5675
H8 H 0.7101 0.8436 0.5646
C11 C 0.6621(3) 0.7180(2) 0.63655(16)
C12 C 0.5575(3) 0.6283(2) 0.62867(16)
H9 H 0.5842 0.5755 0.6682
H10 H 0.4623 0.6519 0.6431
C13 C 0.5540(3) 0.58273(19) 0.54250(15)
C14 C 0.7548(3) 0.5474(2) 0.36301(17)
H11 H 0.7492 0.5155 0.3084
H12 H 0.8144 0.6079 0.3578
C15 C 0.8267(3) 0.4736(2) 0.42210(19)
H13 H 0.7664 0.4136 0.4286
H14 H 0.8354 0.5059 0.4763
C16 C 0.9736(3) 0.4395(3) 0.3936(2)
H15 H 0.9657 0.4045 0.3411
H16 H 1.0140 0.3939 0.4343
H17 H 1.0343 0.4983 0.3873
C17 C 0.2624(3) 0.2056(2) 0.3768(2)
H18 H 0.1699 0.2365 0.3830
H19 H 0.2788 0.1589 0.4221
H20 H 0.2665 0.1690 0.3250
C18 C 0.5236(3) 0.2385(2) 0.36596(19)
H21 H 0.5415 0.1922 0.4113
H22 H 0.5962 0.2905 0.3651
H23 H 0.5250 0.2014 0.3143
C19 C 0.6326(4) 0.7763(2) 0.71780(17)
H24 H 0.6922 0.8361 0.7203
H25 H 0.6531 0.7327 0.7645
H26 H 0.5340 0.7965 0.7195
C20 C 0.8163(3) 0.6798(2) 0.6364(2)
H27 H 0.8363 0.6466 0.5842
H28 H 0.8296 0.6319 0.6812
H29 H 0.8800 0.7368 0.6436
O4 O 0.6886(3) 0.99217(17) 0.39912(15)
H30 H 0.701(4) 0.9308(10) 0.409(2)
H31 H 0.648(4) 0.999(3) 0.3535(13)
loop_
_geom_bond_atom_site_label_1
_geom_bond_atom_site_label_2
_geom_bond_site_symmetry_1
_geom_bond_site_symmetry_2
O1 H1 1_555 1_555
O2 C5 1_555 1_555
O3 C9 1_555 1_555
N1 O1 1_555 1_555
C1 N1 1_555 1_555
C2 C1 1_555 1_555
H2 C2 1_555 1_555
H3 C2 1_555 1_555
C3 C2 1_555 1_555
C4 C3 1_555 1_555
H4 C4 1_555 1_555
H5 C4 1_555 1_555
C5 C4 1_555 1_555
C6 C1 1_555 1_555
C7 C6 1_555 1_555
H6 C7 1_555 1_555
C8 C7 1_555 1_555
C9 C8 1_555 1_555
C10 C9 1_555 1_555
H7 C10 1_555 1_555
H8 C10 1_555 1_555
C11 C10 1_555 1_555
C12 C11 1_555 1_555
H9 C12 1_555 1_555
H10 C12 1_555 1_555
C13 N1 1_555 1_555
C14 C7 1_555 1_555
H11 C14 1_555 1_555
H12 C14 1_555 1_555
C15 C14 1_555 1_555
H13 C15 1_555 1_555
H14 C15 1_555 1_555
C16 C15 1_555 1_555
H15 C16 1_555 1_555
H16 C16 1_555 1_555
H17 C16 1_555 1_555
C17 C3 1_555 1_555
H18 C17 1_555 1_555
H19 C17 1_555 1_555
H20 C17 1_555 1_555
C18 C3 1_555 1_555
H21 C18 1_555 1_555
H22 C18 1_555 1_555
H23 C18 1_555 1_555
C19 C11 1_555 1_555
H24 C19 1_555 1_555
H25 C19 1_555 1_555
H26 C19 1_555 1_555
C20 C11 1_555 1_555
H27 C20 1_555 1_555
H28 C20 1_555 1_555
H29 C20 1_555 1_555
O4 H30 1_555 1_555
H31 O4 1_555 1_555
C5 C6 1_555 1_555
C8 C13 1_555 1_555
C12 C13 1_555 1_555

#END
