
#######################################################################
#
#                 Cambridge Crystallographic Data Centre
#                                CCDC 
#
#######################################################################
#
# If this CIF has been generated from an entry in the Cambridge 
# Structural Database, then it will include bibliographic, chemical, 
# crystal, experimental, refinement or atomic coordinate data resulting 
# from the CCDC's data processing and validation procedures.
#
#######################################################################

data_VELSOX
_chemical_formula_moiety         'C27 H32 B1 N1 O1'
_chemical_name_systematic        
2-[bis(2,4,6-trimethylphenyl)boranyl]-5-(dimethylamino)benzaldehyde
_symmetry_cell_setting           monoclinic
_symmetry_space_group_name_H-M   'P 21/n'
_symmetry_Int_Tables_number      14
_space_group_name_Hall           '-P 2yn'
loop_
_symmetry_equiv_pos_site_id
_symmetry_equiv_pos_as_xyz
1 x,y,z
2 1/2-x,1/2+y,1/2-z
3 -x,-y,-z
4 1/2+x,1/2-y,1/2+z
_cell_length_a                   12.3452(6)
_cell_length_b                   9.0371(5)
_cell_length_c                   20.4924(10)
_cell_angle_alpha                90
_cell_angle_beta                 91.199(2)
_cell_angle_gamma                90
_cell_volume                     2285.73
_exptl_crystal_colour            yellow
_exptl_crystal_description       block
_cell_formula_units_Z            4
loop_
_atom_site_label
_atom_site_type_symbol
_atom_site_fract_x
_atom_site_fract_y
_atom_site_fract_z
B1 B 0.70241(13) 0.32460(17) 0.43380(7)
O1 O 0.75696(12) 0.58648(13) 0.60783(6)
N1 N 0.83940(12) 0.06156(15) 0.68021(6)
C1 C 0.73005(13) 0.50669(16) 0.56331(7)
H1 H 0.6922 0.5502 0.5273
C2 C 0.75170(11) 0.34545(15) 0.56067(6)
C3 C 0.73013(11) 0.26259(15) 0.50309(6)
C4 C 0.74672(12) 0.10897(15) 0.50961(7)
H2 H 0.7302 0.0477 0.4731
C5 C 0.78552(12) 0.04260(16) 0.56585(7)
H3 H 0.7987 -0.0610 0.5662
C6 C 0.80591(11) 0.12619(16) 0.62286(7)
C7 C 0.78729(11) 0.27984(16) 0.61849(7)
H4 H 0.7994 0.3399 0.6560
C8 C 0.87047(16) 0.1495(2) 0.73644(8)
H5 H 0.9306 0.2148 0.7252
H6 H 0.8933 0.0840 0.7723
H7 H 0.8086 0.2092 0.7500
C9 C 0.85819(17) -0.09588(19) 0.68356(9)
H8 H 0.7940 -0.1485 0.6668
H9 H 0.8725 -0.1247 0.7290
H10 H 0.9208 -0.1214 0.6572
C10 C 0.74993(11) 0.47986(15) 0.41350(6)
C11 C 0.68141(11) 0.59715(15) 0.39334(6)
C12 C 0.56089(12) 0.57477(19) 0.38403(8)
H11 H 0.5255 0.6710 0.3779
H12 H 0.5319 0.5260 0.4227
H13 H 0.5470 0.5128 0.3455
C13 C 0.72427(12) 0.73714(16) 0.38222(7)
H14 H 0.6766 0.8164 0.3714
C14 C 0.83493(13) 0.76379(16) 0.38658(7)
C15 C 0.88072(16) 0.91363(19) 0.37072(10)
H15 H 0.9109 0.9117 0.3269
H16 H 0.9380 0.9388 0.4027
H17 H 0.8230 0.9880 0.3723
C16 C 0.90276(12) 0.64688(16) 0.40351(7)
H18 H 0.9788 0.6630 0.4054
C17 C 0.86290(11) 0.50681(15) 0.41788(6)
C18 C 0.94315(12) 0.38592(17) 0.43466(8)
H19 H 0.9215 0.2944 0.4123
H20 H 0.9446 0.3695 0.4819
H21 H 1.0154 0.4154 0.4206
C19 C 0.63282(11) 0.22607(15) 0.38542(6)
C20 C 0.66780(12) 0.19531(15) 0.32151(6)
C21 C 0.76999(14) 0.2601(2) 0.29427(7)
H22 H 0.7887 0.2073 0.2543
H23 H 0.8293 0.2501 0.3265
H24 H 0.7584 0.3651 0.2843
C22 C 0.60870(12) 0.10007(15) 0.28114(7)
H25 H 0.6342 0.0796 0.2387
C23 C 0.51375(12) 0.03417(16) 0.30108(7)
C24 C 0.45158(15) -0.0711(2) 0.25717(9)
H26 H 0.4531 -0.0350 0.2121
H27 H 0.3763 -0.0772 0.2713
H28 H 0.4849 -0.1694 0.2596
C25 C 0.47692(12) 0.06793(16) 0.36292(7)
H29 H 0.4108 0.0258 0.3769
C26 C 0.53426(11) 0.16178(16) 0.40494(7)
C27 C 0.48396(13) 0.19743(19) 0.46977(8)
H30 H 0.4969 0.3017 0.4805
H31 H 0.5166 0.1347 0.5039
H32 H 0.4058 0.1789 0.4669
loop_
_geom_bond_atom_site_label_1
_geom_bond_atom_site_label_2
_geom_bond_site_symmetry_1
_geom_bond_site_symmetry_2
B1 C3 1_555 1_555
O1 C1 1_555 1_555
N1 C6 1_555 1_555
C1 H1 1_555 1_555
C2 C1 1_555 1_555
C3 C2 1_555 1_555
C4 C3 1_555 1_555
H2 C4 1_555 1_555
C5 C4 1_555 1_555
H3 C5 1_555 1_555
C6 C5 1_555 1_555
C7 C2 1_555 1_555
H4 C7 1_555 1_555
C8 N1 1_555 1_555
H5 C8 1_555 1_555
H6 C8 1_555 1_555
H7 C8 1_555 1_555
C9 N1 1_555 1_555
H8 C9 1_555 1_555
H9 C9 1_555 1_555
H10 C9 1_555 1_555
C10 B1 1_555 1_555
C11 C10 1_555 1_555
C12 C11 1_555 1_555
H11 C12 1_555 1_555
H12 C12 1_555 1_555
H13 C12 1_555 1_555
C13 C11 1_555 1_555
H14 C13 1_555 1_555
C14 C13 1_555 1_555
C15 C14 1_555 1_555
H15 C15 1_555 1_555
H16 C15 1_555 1_555
H17 C15 1_555 1_555
C16 C14 1_555 1_555
H18 C16 1_555 1_555
C17 C10 1_555 1_555
C18 C17 1_555 1_555
H19 C18 1_555 1_555
H20 C18 1_555 1_555
H21 C18 1_555 1_555
C19 B1 1_555 1_555
C20 C19 1_555 1_555
C21 C20 1_555 1_555
H22 C21 1_555 1_555
H23 C21 1_555 1_555
H24 C21 1_555 1_555
C22 C20 1_555 1_555
H25 C22 1_555 1_555
C23 C22 1_555 1_555
C24 C23 1_555 1_555
H26 C24 1_555 1_555
H27 C24 1_555 1_555
H28 C24 1_555 1_555
C25 C23 1_555 1_555
H29 C25 1_555 1_555
C26 C19 1_555 1_555
C27 C26 1_555 1_555
H30 C27 1_555 1_555
H31 C27 1_555 1_555
H32 C27 1_555 1_555
C6 C7 1_555 1_555
C16 C17 1_555 1_555
C25 C26 1_555 1_555

#END
