
#######################################################################
#
#                 Cambridge Crystallographic Data Centre
#                                CCDC 
#
#######################################################################
#
# If this CIF has been generated from an entry in the Cambridge 
# Structural Database, then it will include bibliographic, chemical, 
# crystal, experimental, refinement or atomic coordinate data resulting 
# from the CCDC's data processing and validation procedures.
#
#######################################################################

data_VELSUC
_chemical_compound_source        
'endophytic fungus Fusarium sp. LN12, isolated from Melia azedarach'
_chemical_name_common            'Fusarimine ethanol solvate'
_chemical_formula_moiety         'C17 H21 N1 O5,0.4(C2 H6 O1)'
_chemical_name_systematic        
'3-sec-Butyl-6,8-dihydroxy-2-(2-hydroxyethyl)-4-methylisoquinolinium-7-carboxylate ethanol solvate'
_symmetry_cell_setting           orthorhombic
_symmetry_space_group_name_H-M   'P 21 21 2'
_symmetry_Int_Tables_number      18
_space_group_name_Hall           'P 2 2ab'
loop_
_symmetry_equiv_pos_site_id
_symmetry_equiv_pos_as_xyz
1 x,y,z
2 -x,-y,z
3 1/2-x,1/2+y,-z
4 1/2+x,1/2-y,-z
_cell_length_a                   20.724(1)
_cell_length_b                   21.923(3)
_cell_length_c                   7.120(3)
_cell_angle_alpha                90
_cell_angle_beta                 90
_cell_angle_gamma                90
_cell_volume                     3234.85
_exptl_crystal_colour            colorless
_exptl_crystal_description       needle
_cell_formula_units_Z            8
loop_
_atom_site_label
_atom_site_type_symbol
_atom_site_fract_x
_atom_site_fract_y
_atom_site_fract_z
O1 O 0.3804(2) 0.0086(2) 0.6729(5)
O2 O 0.30190(10) 0.19910(10) 0.8992(4)
O3 O 0.26170(10) 0.0230(2) 0.7350(5)
O4 O 0.22680(10) 0.1117(2) 0.8546(5)
O5 O 0.40500(10) 0.3786(2) 0.6929(6)
N1 N 0.48180(10) 0.2737(2) 0.8510(5)
C1 C 0.4237(2) 0.2481(2) 0.8727(6)
C2 C 0.5342(2) 0.2410(2) 0.7764(6)
C3 C 0.5264(2) 0.1802(2) 0.7382(7)
C4 C 0.4645(2) 0.1508(2) 0.7581(6)
C5 C 0.4531(2) 0.0894(2) 0.7115(7)
C6 C 0.3905(2) 0.0662(2) 0.7209(6)
C7 C 0.3385(2) 0.1027(2) 0.7845(7)
C8 C 0.3485(2) 0.1625(2) 0.8367(7)
C9 C 0.4123(2) 0.1883(2) 0.8214(7)
C10 C 0.5960(2) 0.2773(3) 0.7409(7)
C11 C 0.6536(2) 0.2594(2) 0.8644(7)
C12 C 0.6376(2) 0.2555(3) 1.0747(6)
C13 C 0.6135(2) 0.2771(2) 0.5300(6)
C14 C 0.5808(2) 0.1405(2) 0.6672(8)
C15 C 0.2708(2) 0.0770(3) 0.7916(7)
C16 C 0.4857(2) 0.3381(3) 0.9057(8)
C17 C 0.4710(2) 0.3798(3) 0.7435(9)
H1 H 0.3844(2) 0.2753(2) 0.9275(6)
H2 H 0.4925(2) 0.0605(2) 0.6661(7)
H3 H 0.3347(2) 0.0006(2) 0.6708(5)
H4 H 0.26140(10) 0.17760(10) 0.8977(4)
H5 H 0.5848(2) 0.3246(3) 0.7767(7)
H6 H 0.6713(2) 0.2148(2) 0.8183(7)
H7 H 0.6926(2) 0.2924(2) 0.8441(7)
H8 H 0.6185(2) 0.2994(3) 1.1212(6)
H9 H 0.6812(2) 0.2448(3) 1.1541(6)
H10 H 0.6016(2) 0.2200(3) 1.0980(6)
H11 H 0.6252(2) 0.2307(2) 0.4865(6)
H12 H 0.6552(2) 0.3066(2) 0.5063(6)
H13 H 0.5726(2) 0.2938(2) 0.4484(6)
H14 H 0.5706(2) 0.1268(2) 0.5231(8)
H15 H 0.5847(2) 0.1000(2) 0.7554(8)
H16 H 0.6261(2) 0.1657(2) 0.6715(8)
H17 H 0.5336(2) 0.3479(3) 0.9600(8)
H18 H 0.4510(2) 0.3471(3) 1.0171(8)
H19 H 0.40000(10) 0.3645(2) 0.5659(6)
H20 H 0.4855(2) 0.4265(3) 0.7791(9)
H21 H 0.4996(2) 0.3651(3) 0.6222(9)
O6 O 0.21720(10) 0.7053(2) 0.5750(4)
O7 O 0.00080(10) 0.6669(2) 0.7647(5)
O8 O 0.13420(10) 0.7874(2) 0.5476(5)
O9 O 0.03450(10) 0.7719(2) 0.6593(5)
O10 O 0.3759(2) 0.5836(2) 0.9228(8)
N2 N 0.26780(10) 0.5301(2) 0.7051(6)
C18 C 0.2507(2) 0.5876(2) 0.6663(7)
C19 C 0.2239(2) 0.4867(2) 0.7655(7)
C20 C 0.1593(2) 0.5040(2) 0.7855(6)
C21 C 0.1397(2) 0.5668(2) 0.7521(6)
C22 C 0.0767(2) 0.5873(2) 0.7763(7)
C23 C 0.0618(2) 0.6480(2) 0.7388(7)
C24 C 0.1086(2) 0.6898(2) 0.6698(7)
C25 C 0.1714(2) 0.6698(2) 0.6413(7)
C26 C 0.1880(2) 0.6079(2) 0.6891(7)
C27 C 0.2490(2) 0.4230(2) 0.8024(7)
C28 C 0.2313(2) 0.3978(2) 0.9976(7)
C29 C 0.2832(2) 0.3535(3) 1.0728(9)
C30 C 0.2327(2) 0.3797(3) 0.6374(7)
C31 C 0.1063(2) 0.4598(2) 0.8359(7)
C32 C 0.0911(2) 0.7538(2) 0.6220(7)
C33 C 0.3377(2) 0.5165(3) 0.6773(10)
C34 C 0.3752(2) 0.5222(3) 0.8562(12)
H22 H 0.2868(2) 0.6191(2) 0.6145(7)
H23 H 0.0394(2) 0.5566(2) 0.8249(7)
H24 H 0.20040(10) 0.7458(2) 0.5571(4)
H25 H -0.00330(10) 0.7086(2) 0.7246(5)
H26 H 0.3015(2) 0.4274(2) 0.8018(7)
H27 H 0.2251(2) 0.4355(2) 1.0967(7)
H28 H 0.1853(2) 0.3735(2) 0.9882(7)
H29 H 0.2692(2) 0.3378(3) 1.2124(9)
H30 H 0.3294(2) 0.3772(3) 1.0812(9)
H31 H 0.2877(2) 0.3144(3) 0.9788(9)
H32 H 0.2524(2) 0.3983(3) 0.5074(7)
H33 H 0.1804(2) 0.3751(3) 0.6245(7)
H34 H 0.2540(2) 0.3350(3) 0.6641(7)
H35 H 0.0682(2) 0.4620(2) 0.7304(7)
H36 H 0.0863(2) 0.4712(2) 0.9731(7)
H37 H 0.1262(2) 0.4138(2) 0.8398(7)
H38 H 0.3425(2) 0.4701(3) 0.6250(10)
H39 H 0.3578(2) 0.5471(3) 0.5720(10)
H40 H 0.3326(2) 0.5979(2) 0.9404(8)
H41 H 0.3539(2) 0.4928(3) 0.9643(12)
H42 H 0.4247(2) 0.5066(3) 0.8314(12)
O11 O 0.54070 0.59327 0.29244
C35 C 0.55899 0.53085 0.26995
C36 C 0.63104 0.52594 0.30263
H43 H 0.49600 0.59805 0.25987
H44 H 0.54699 0.51520 0.12796
H45 H 0.53928 0.51334 0.32016
H46 H 0.64695 0.47954 0.27201
H47 H 0.64186 0.53688 0.44881
H48 H 0.65621 0.55786 0.21063
O12? O 0.52757 0.48766 0.44779
C37? C 0.52963 0.43604 0.32533
C38? C 0.59930 0.42506 0.27047
H49? H 0.48864 0.51031 0.42544
H50? H 0.50045 0.44476 0.19975
H51? H 0.51013 0.39578 0.39684
H52? H 0.60235 0.38449 0.18205
H53? H 0.62827 0.41832 0.39678
H54? H 0.61748 0.46444 0.19307
loop_
_geom_bond_atom_site_label_1
_geom_bond_atom_site_label_2
_geom_bond_site_symmetry_1
_geom_bond_site_symmetry_2
O1 C6 1_555 1_555
O2 C8 1_555 1_555
O3 C15 1_555 1_555
O4 C15 1_555 1_555
O5 C17 1_555 1_555
N1 C1 1_555 1_555
C1 C9 1_555 1_555
C2 N1 1_555 1_555
C3 C2 1_555 1_555
C4 C3 1_555 1_555
C5 C4 1_555 1_555
C6 C5 1_555 1_555
C7 C6 1_555 1_555
C8 C7 1_555 1_555
C9 C4 1_555 1_555
C10 C2 1_555 1_555
C11 C10 1_555 1_555
C12 C11 1_555 1_555
C13 C10 1_555 1_555
C14 C3 1_555 1_555
C15 C7 1_555 1_555
C16 N1 1_555 1_555
C17 C16 1_555 1_555
H1 C1 1_555 1_555
H2 C5 1_555 1_555
H3 O1 1_555 1_555
H4 O2 1_555 1_555
H5 C10 1_555 1_555
H6 C11 1_555 1_555
H7 C11 1_555 1_555
H8 C12 1_555 1_555
H9 C12 1_555 1_555
H10 C12 1_555 1_555
H11 C13 1_555 1_555
H12 C13 1_555 1_555
H13 C13 1_555 1_555
H14 C14 1_555 1_555
H15 C14 1_555 1_555
H16 C14 1_555 1_555
H17 C16 1_555 1_555
H18 C16 1_555 1_555
H19 O5 1_555 1_555
H20 C17 1_555 1_555
H21 C17 1_555 1_555
O6 C25 1_555 1_555
O7 C23 1_555 1_555
O8 C32 1_555 1_555
O9 C32 1_555 1_555
O10 C34 1_555 1_555
N2 C18 1_555 1_555
C18 C26 1_555 1_555
C19 N2 1_555 1_555
C20 C19 1_555 1_555
C21 C20 1_555 1_555
C22 C21 1_555 1_555
C23 C22 1_555 1_555
C24 C23 1_555 1_555
C25 C24 1_555 1_555
C26 C21 1_555 1_555
C27 C19 1_555 1_555
C28 C27 1_555 1_555
C29 C28 1_555 1_555
C30 C27 1_555 1_555
C31 C20 1_555 1_555
C32 C24 1_555 1_555
C33 N2 1_555 1_555
C34 C33 1_555 1_555
H22 C18 1_555 1_555
H23 C22 1_555 1_555
H24 O6 1_555 1_555
H25 O7 1_555 1_555
H26 C27 1_555 1_555
H27 C28 1_555 1_555
H28 C28 1_555 1_555
H29 C29 1_555 1_555
H30 C29 1_555 1_555
H31 C29 1_555 1_555
H32 C30 1_555 1_555
H33 C30 1_555 1_555
H34 C30 1_555 1_555
H35 C31 1_555 1_555
H36 C31 1_555 1_555
H37 C31 1_555 1_555
H38 C33 1_555 1_555
H39 C33 1_555 1_555
H40 O10 1_555 1_555
H41 C34 1_555 1_555
H42 C34 1_555 1_555
O11 C35 1_555 1_555
C35 C36 1_555 1_555
C36 H46 1_555 1_555
H43 O11 1_555 1_555
H44 C35 1_555 1_555
H45 C35 1_555 1_555
H47 C36 1_555 1_555
H48 C36 1_555 1_555
C8 C9 1_555 1_555
C25 C26 1_555 1_555

#END
