
#######################################################################
#
#                 Cambridge Crystallographic Data Centre
#                                CCDC 
#
#######################################################################
#
# If this CIF has been generated from an entry in the Cambridge 
# Structural Database, then it will include bibliographic, chemical, 
# crystal, experimental, refinement or atomic coordinate data resulting 
# from the CCDC's data processing and validation procedures.
#
#######################################################################

data_VELTAK
_chemical_formula_moiety         'C18 H16 F1 N1 O3'
_chemical_name_systematic        
'ethyl 7-fluoro-1-methyl-2-oxo-3-phenyl-2,3-dihydro-1H-indole-3-carboxylate'
_symmetry_cell_setting           orthorhombic
_symmetry_space_group_name_H-M   'P n a 21'
_symmetry_Int_Tables_number      33
_space_group_name_Hall           'P 2c -2n'
loop_
_symmetry_equiv_pos_site_id
_symmetry_equiv_pos_as_xyz
1 x,y,z
2 -x,-y,1/2+z
3 1/2+x,1/2-y,z
4 1/2-x,1/2+y,1/2+z
_cell_length_a                   15.9821(3)
_cell_length_b                   7.75020(10)
_cell_length_c                   24.5328(5)
_cell_angle_alpha                90
_cell_angle_beta                 90
_cell_angle_gamma                90
_cell_volume                     3038.74
_exptl_crystal_colour            colorless
_exptl_crystal_description       plane
_cell_formula_units_Z            8
loop_
_atom_site_label
_atom_site_type_symbol
_atom_site_fract_x
_atom_site_fract_y
_atom_site_fract_z
F1 F 0.6086(2) 0.75256(18) 0.44438(12)
O1 O 0.35630(10) 0.4814(2) 0.55035(8)
O2 O 0.56477(11) 0.3865(2) 0.66164(8)
O3 O 0.46712(19) 0.25044(19) 0.61319(16)
N1 N 0.47532(11) 0.5906(2) 0.51069(8)
C1 C 0.42707(13) 0.5375(3) 0.55328(10)
C2 C 0.47895(12) 0.5613(3) 0.60628(9)
C3 C 0.55605(13) 0.6551(3) 0.58570(10)
C4 C 0.6236(2) 0.7247(4) 0.61291(18)
H1 H 0.6273 0.7169 0.6507
C5 C 0.68582(15) 0.8066(4) 0.58313(12)
H2 H 0.7311 0.8558 0.6011
C6 C 0.68110(16) 0.8158(4) 0.52697(12)
H3 H 0.7231 0.8699 0.5071
C7 C 0.6134(3) 0.7437(3) 0.5008(2)
C8 C 0.54996(14) 0.6645(3) 0.52891(10)
C9 C 0.44636(19) 0.5799(4) 0.45408(10)
H4 H 0.3930 0.5230 0.4530
H5 H 0.4861 0.5156 0.4329
H6 H 0.4410 0.6941 0.4393
C10 C 0.50166(13) 0.3801(3) 0.62722(10)
C11 C 0.5963(2) 0.2237(4) 0.67999(16)
H7 H 0.5900 0.1378 0.6515
H8 H 0.5653 0.1854 0.7117
C12 C 0.6866(3) 0.2448(4) 0.6941(3)
H9 H 0.7087 0.1365 0.7065
H10 H 0.6923 0.3293 0.7224
H11 H 0.7169 0.2820 0.6624
C13 C 0.42700(18) 0.6573(3) 0.64798(14)
C14 C 0.4264(2) 0.8398(3) 0.64813(15)
H12 H 0.4594 0.9007 0.6236
C15 C 0.37640(19) 0.9275(5) 0.68487(17)
H13 H 0.3765 1.0475 0.6853
C16 C 0.3259(2) 0.8367(4) 0.72127(17)
H14 H 0.2917 0.8960 0.7455
C17 C 0.3267(2) 0.6620(4) 0.72123(17)
H15 H 0.2932 0.6021 0.7458
C18 C 0.37695(18) 0.5709(5) 0.68508(15)
H16 H 0.3770 0.4509 0.6858
F2 F 0.64062(19) 0.24901(17) 0.55488(12)
O4 O 0.89402(10) 0.5172(2) 0.44949(8)
O5 O 0.68529(11) 0.61266(19) 0.33827(8)
O6 O 0.7841(2) 0.74846(19) 0.38475(17)
N2 N 0.77521(11) 0.4100(2) 0.48967(8)
C19 C 0.82318(13) 0.4628(2) 0.44665(10)
C20 C 0.77117(13) 0.4379(3) 0.39372(9)
C21 C 0.69408(13) 0.3455(3) 0.41500(10)
C22 C 0.6270(3) 0.2758(4) 0.38783(19)
H17 H 0.6236 0.2821 0.3500
C23 C 0.56379(15) 0.1955(4) 0.41790(12)
H18 H 0.5180 0.1474 0.4001
C24 C 0.56904(16) 0.1870(4) 0.47394(11)
H19 H 0.5267 0.1336 0.4937
C25 C 0.6363(3) 0.2570(3) 0.5007(2)
C26 C 0.70044(14) 0.3364(3) 0.47146(10)
C27 C 0.8043(2) 0.4213(3) 0.54594(10)
H20 H 0.8578 0.4776 0.5469
H21 H 0.8095 0.3073 0.5609
H22 H 0.7649 0.4864 0.5671
C28 C 0.74881(13) 0.6185(3) 0.37264(10)
C29 C 0.6536(3) 0.7773(5) 0.3167(2)
H23 H 0.6634 0.8692 0.3428
H24 H 0.6822 0.8061 0.2830
C30 C 0.5648(3) 0.7583(4) 0.3068(3)
H25 H 0.5426 0.8648 0.2930
H26 H 0.5371 0.7293 0.3403
H27 H 0.5557 0.6682 0.2806
C31 C 0.82250(17) 0.3367(3) 0.35119(14)
C32 C 0.87481(18) 0.4224(5) 0.31487(16)
H28 H 0.8769 0.5423 0.3152
C33 C 0.9233(2) 0.3329(4) 0.27858(17)
H29 H 0.9559 0.3918 0.2533
C34 C 0.9237(2) 0.1521(4) 0.27979(17)
H30 H 0.9564 0.0898 0.2554
C35 C 0.87516(19) 0.0685(5) 0.31740(17)
H31 H 0.8771 -0.0511 0.3198
C36 C 0.82314(19) 0.1608(4) 0.35195(16)
H32 H 0.7883 0.1020 0.3759
loop_
_geom_bond_atom_site_label_1
_geom_bond_atom_site_label_2
_geom_bond_site_symmetry_1
_geom_bond_site_symmetry_2
F1 C7 1_555 1_555
O1 C1 1_555 1_555
O2 C10 1_555 1_555
O3 C10 1_555 1_555
N1 C1 1_555 1_555
C1 C2 1_555 1_555
C2 C3 1_555 1_555
C3 C4 1_555 1_555
C4 H1 1_555 1_555
C5 C4 1_555 1_555
H2 C5 1_555 1_555
C6 C5 1_555 1_555
H3 C6 1_555 1_555
C7 C6 1_555 1_555
C8 N1 1_555 1_555
C9 N1 1_555 1_555
H4 C9 1_555 1_555
H5 C9 1_555 1_555
H6 C9 1_555 1_555
C10 C2 1_555 1_555
C11 O2 1_555 1_555
H7 C11 1_555 1_555
H8 C11 1_555 1_555
C12 C11 1_555 1_555
H9 C12 1_555 1_555
H10 C12 1_555 1_555
H11 C12 1_555 1_555
C13 C2 1_555 1_555
C14 C13 1_555 1_555
H12 C14 1_555 1_555
C15 C14 1_555 1_555
H13 C15 1_555 1_555
C16 C15 1_555 1_555
H14 C16 1_555 1_555
C17 C16 1_555 1_555
H15 C17 1_555 1_555
C18 C13 1_555 1_555
H16 C18 1_555 1_555
F2 C25 1_555 1_555
O4 C19 1_555 1_555
O5 C28 1_555 1_555
O6 C28 1_555 1_555
N2 C19 1_555 1_555
C19 C20 1_555 1_555
C20 C21 1_555 1_555
C21 C22 1_555 1_555
C22 H17 1_555 1_555
C23 C22 1_555 1_555
H18 C23 1_555 1_555
C24 C23 1_555 1_555
H19 C24 1_555 1_555
C25 C24 1_555 1_555
C26 N2 1_555 1_555
C27 N2 1_555 1_555
H20 C27 1_555 1_555
H21 C27 1_555 1_555
H22 C27 1_555 1_555
C28 C20 1_555 1_555
C29 O5 1_555 1_555
H23 C29 1_555 1_555
H24 C29 1_555 1_555
C30 C29 1_555 1_555
H25 C30 1_555 1_555
H26 C30 1_555 1_555
H27 C30 1_555 1_555
C31 C20 1_555 1_555
C32 C31 1_555 1_555
H28 C32 1_555 1_555
C33 C32 1_555 1_555
H29 C33 1_555 1_555
C34 C33 1_555 1_555
H30 C34 1_555 1_555
C35 C34 1_555 1_555
H31 C35 1_555 1_555
C36 C31 1_555 1_555
H32 C36 1_555 1_555
C3 C8 1_555 1_555
C7 C8 1_555 1_555
C17 C18 1_555 1_555
C21 C26 1_555 1_555
C25 C26 1_555 1_555
C35 C36 1_555 1_555

#END
