
#######################################################################
#
#                 Cambridge Crystallographic Data Centre
#                                CCDC 
#
#######################################################################
#
# If this CIF has been generated from an entry in the Cambridge 
# Structural Database, then it will include bibliographic, chemical, 
# crystal, experimental, refinement or atomic coordinate data resulting 
# from the CCDC's data processing and validation procedures.
#
#######################################################################

data_VELTUC
_chemical_compound_source        'Chrysanthenum indicum L'
_chemical_name_common            
'(3beta,5alpha,6beta,7beta,14beta)-Eudesmen-3,5,6,11-tetrol methanol solvate'
_chemical_formula_moiety         'C15 H26 O4,C1 H4 O1'
_chemical_name_systematic        
'(3S,5S,6R,7R,10S)-7-(2-Hydroxy-2-propyl)-10-methyl-4-methyleneperhydronaphthalene-3,5,6-triol methanol solvate'
_symmetry_cell_setting           hexagonal
_symmetry_space_group_name_H-M   'P 61'
_symmetry_Int_Tables_number      169
_space_group_name_Hall           'P 61'
loop_
_symmetry_equiv_pos_site_id
_symmetry_equiv_pos_as_xyz
1 x,y,z
2 -y,x-y,1/3+z
3 -x+y,-x,2/3+z
4 -x,-y,1/2+z
5 y,-x+y,5/6+z
6 x-y,x,1/6+z
_cell_length_a                   9.9315(8)
_cell_length_b                   9.9315(8)
_cell_length_c                   29.113(5)
_cell_angle_alpha                90
_cell_angle_beta                 90
_cell_angle_gamma                120
_cell_volume                     2486.84
_exptl_crystal_colour            colorless
_exptl_crystal_description       prism
_chemical_melting_point          '470-473 K'
_cell_formula_units_Z            6
loop_
_atom_site_label
_atom_site_type_symbol
_atom_site_fract_x
_atom_site_fract_y
_atom_site_fract_z
O1 O 0.1023(2) -0.1275(2) -0.00378(6)
O2 O 0.35992(18) 0.27657(18) 0.07951(5)
O3 O 0.55770(19) 0.44747(19) -0.02950(5)
O4 O 0.7805(2) 0.7433(2) -0.01151(6)
C1 C 0.4649(3) 0.0612(3) 0.06914(8)
H1 H 0.5401 0.0284 0.0754
H2 H 0.4237 0.0715 0.0983
C2 C 0.3333(3) -0.0623(3) 0.04038(9)
H3 H 0.3763 -0.0814 0.0129
H4 H 0.2813 -0.1585 0.0577
C3 C 0.2152(3) -0.0150(3) 0.02672(8)
H5 H 0.1598 -0.0169 0.0548
C4 C 0.2887(2) 0.1497(3) 0.00746(8)
C5 C 0.4257(2) 0.2718(2) 0.03506(7)
C6 C 0.4999(2) 0.4388(2) 0.01634(7)
H6 H 0.4186 0.4672 0.0149
C7 C 0.6289(2) 0.5552(2) 0.04837(7)
H7 H 0.5792 0.5493 0.0780
C8 C 0.7500(3) 0.5065(3) 0.05744(8)
H8 H 0.8044 0.5130 0.0291
H9 H 0.8257 0.5771 0.0795
C9 C 0.6740(3) 0.3409(3) 0.07602(9)
H10 H 0.6292 0.3382 0.1059
H11 H 0.7536 0.3128 0.0804
C10 C 0.5467(2) 0.2195(2) 0.04493(7)
C11 C 0.6998(3) 0.7257(3) 0.03157(8)
C12 C 0.5747(3) 0.7659(3) 0.02096(10)
H12 H 0.6223 0.8733 0.0123
H13 H 0.5114 0.7479 0.0477
H14 H 0.5111 0.7018 -0.0038
C13 C 0.8120(3) 0.8405(3) 0.06685(9)
H15 H 0.8907 0.8145 0.0740
H16 H 0.7560 0.8353 0.0943
H17 H 0.8600 0.9439 0.0545
C14 C 0.6205(3) 0.2028(3) 0.00014(8)
H18 H 0.6792 0.1522 0.0067
H19 H 0.6883 0.3040 -0.0125
H20 H 0.5400 0.1420 -0.0216
C15 C 0.2262(3) 0.1830(3) -0.02738(9)
H21 H 0.2656 0.2858 -0.0364
H22 H 0.1425 0.1036 -0.0431
H26 H 0.306(2) 0.317(2) 0.0763(8)
H27 H 0.148(3) -0.125(3) -0.0270(6)
H28 H 0.633(2) 0.5345(17) -0.0339(9)
H29 H 0.8731(14) 0.777(3) -0.0070(11)
O5 O 0.2077(3) 0.4610(3) 0.06041(7)
C16 C 0.1028(4) 0.4442(5) 0.02632(11)
H23 H 0.0832 0.5295 0.0278
H24 H 0.0072 0.3483 0.0308
H25 H 0.1454 0.4433 -0.0032
H30 H 0.184(5) 0.491(4) 0.0838(8)
loop_
_geom_bond_atom_site_label_1
_geom_bond_atom_site_label_2
_geom_bond_site_symmetry_1
_geom_bond_site_symmetry_2
O1 C3 1_555 1_555
O2 C5 1_555 1_555
O3 C6 1_555 1_555
O4 C11 1_555 1_555
O5 C16 1_555 1_555
C1 H1 1_555 1_555
H2 C1 1_555 1_555
C2 C1 1_555 1_555
H3 C2 1_555 1_555
H4 C2 1_555 1_555
C3 C2 1_555 1_555
H5 C3 1_555 1_555
C4 C3 1_555 1_555
C5 C4 1_555 1_555
C6 C5 1_555 1_555
H6 C6 1_555 1_555
C7 C6 1_555 1_555
H7 C7 1_555 1_555
C8 C7 1_555 1_555
H8 C8 1_555 1_555
H9 C8 1_555 1_555
C9 C8 1_555 1_555
H10 C9 1_555 1_555
H11 C9 1_555 1_555
C10 C1 1_555 1_555
C11 C7 1_555 1_555
C12 C11 1_555 1_555
H12 C12 1_555 1_555
H13 C12 1_555 1_555
H14 C12 1_555 1_555
C13 C11 1_555 1_555
H15 C13 1_555 1_555
H16 C13 1_555 1_555
H17 C13 1_555 1_555
C14 C10 1_555 1_555
H18 C14 1_555 1_555
H19 C14 1_555 1_555
H20 C14 1_555 1_555
C15 C4 1_555 1_555
H21 C15 1_555 1_555
H22 C15 1_555 1_555
C16 H23 1_555 1_555
H24 C16 1_555 1_555
H25 C16 1_555 1_555
H26 O2 1_555 1_555
H27 O1 1_555 1_555
H28 O3 1_555 1_555
H29 O4 1_555 1_555
H30 O5 1_555 1_555
C5 C10 1_555 1_555
C9 C10 1_555 1_555

#END
