
#######################################################################
#
#                 Cambridge Crystallographic Data Centre
#                                CCDC 
#
#######################################################################
#
# If this CIF has been generated from an entry in the Cambridge 
# Structural Database, then it will include bibliographic, chemical, 
# crystal, experimental, refinement or atomic coordinate data resulting 
# from the CCDC's data processing and validation procedures.
#
#######################################################################

data_VELTEL
_chemical_formula_moiety         'C23 H20 N4 O2'
_chemical_name_systematic        5-(bis(3-Indolyl)methyl)-1,3-dimethyluracil
_symmetry_cell_setting           monoclinic
_symmetry_space_group_name_H-M   'P 21/n'
_symmetry_Int_Tables_number      14
_space_group_name_Hall           '-P 2yn'
loop_
_symmetry_equiv_pos_site_id
_symmetry_equiv_pos_as_xyz
1 x,y,z
2 1/2-x,1/2+y,1/2-z
3 -x,-y,-z
4 1/2+x,1/2-y,1/2+z
_cell_length_a                   10.831(1)
_cell_length_b                   9.650(2)
_cell_length_c                   19.355(2)
_cell_angle_alpha                90
_cell_angle_beta                 102.65(1)
_cell_angle_gamma                90
_cell_volume                     1973.86
_exptl_crystal_colour            colorless
_chemical_melting_point          276-277deg.C
_cell_formula_units_Z            4
loop_
_atom_site_label
_atom_site_type_symbol
_atom_site_fract_x
_atom_site_fract_y
_atom_site_fract_z
C1 C 1.0372(4) -0.0283(5) 0.2391(2)
C2 C 0.9956(4) 0.0332(5) 0.1647(2)
C3 C 0.8947(4) -0.0389(5) 0.1155(2)
N1 N 0.8579 0.0238(4) 0.0492(2)
C4 C 0.9135(5) 0.1411(5) 0.0282(2)
N2 N 1.0057(4) 0.2011(4) 0.0770(2)
C5 C 1.0442(4) 0.1506(5) 0.1432(3)
O1 O 0.8446(3) -0.1463(4) 0.1283(2)
C6 C 0.7506(5) -0.0396(6) -0.0017(3)
O2 O 0.8795(3) 0.1849(4) -0.0330(2)
C7 C 1.0611(6) 0.3275(7) 0.0572(3)
C8 C 1.1697(4) 0.0181(5) 0.2747(3)
C9 C 1.2847(4) -0.0024(5) 0.2509(2)
C10 C 1.3158(4) -0.0642(6) 0.1921(3)
C11 C 1.4396(5) -0.0648(6) 0.1851(3)
C12 C 1.5346(4) -0.0032(6) 0.2367(3)
C13 C 1.5066(5) 0.0598(6) 0.2952(3)
C14 C 1.3815(4) 0.0613(5) 0.3013(3)
N3 N 1.3289(4) 0.1151(4) 0.3534(2)
C15 C 1.2016(5) 0.0904(6) 0.3365(3)
C16 C 0.9444(4) 0.0111(5) 0.2843(2)
C17 C 0.9275(4) -0.0646(6) 0.3453(3)
C18 C 0.9723(6) -0.1917(6) 0.3753(3)
C19 C 0.9374(6) -0.2340(8) 0.4367(3)
C20 C 0.8596(6) -0.1540(8) 0.4679(3)
C21 C 0.8158(5) -0.0267(8) 0.4413(3)
C22 C 0.8505(5) 0.0175(6) 0.3785(3)
N4 N 0.8224(4) 0.1369(5) 0.3386(3)
C23 C 0.8788(5) 0.1310(6) 0.2815(3)
loop_
_geom_bond_atom_site_label_1
_geom_bond_atom_site_label_2
_geom_bond_site_symmetry_1
_geom_bond_site_symmetry_2
C1 C2 1_555 1_555
C2 C3 1_555 1_555
C3 N1 1_555 1_555
N1 C4 1_555 1_555
C4 N2 1_555 1_555
N2 C5 1_555 1_555
C5 C2 1_555 1_555
O1 C3 1_555 1_555
C6 N1 1_555 1_555
O2 C4 1_555 1_555
C7 N2 1_555 1_555
C8 C1 1_555 1_555
C9 C8 1_555 1_555
C10 C9 1_555 1_555
C11 C10 1_555 1_555
C12 C11 1_555 1_555
C13 C12 1_555 1_555
C14 C9 1_555 1_555
N3 C14 1_555 1_555
C15 C8 1_555 1_555
C16 C1 1_555 1_555
C17 C16 1_555 1_555
C18 C17 1_555 1_555
C19 C18 1_555 1_555
C20 C19 1_555 1_555
C21 C20 1_555 1_555
C22 C17 1_555 1_555
N4 C22 1_555 1_555
C23 C16 1_555 1_555
C13 C14 1_555 1_555
N3 C15 1_555 1_555
C21 C22 1_555 1_555
N4 C23 1_555 1_555

#END
