
#######################################################################
#
#                 Cambridge Crystallographic Data Centre
#                                CCDC 
#
#######################################################################
#
# If this CIF has been generated from an entry in the Cambridge 
# Structural Database, then it will include bibliographic, chemical, 
# crystal, experimental, refinement or atomic coordinate data resulting 
# from the CCDC's data processing and validation procedures.
#
#######################################################################

data_VELTAJ
_chemical_formula_moiety         'C76 H46 N4 S4'
_chemical_name_systematic        
10,10',15,15',20,20'-Hexaphenyl-5,5'-bi-(21,23-dithiaporphyrin)
_symmetry_cell_setting           orthorhombic
_symmetry_space_group_name_H-M   'A b a 2'
_symmetry_Int_Tables_number      41
_space_group_name_Hall           'A 2 -2ac'
loop_
_symmetry_equiv_pos_site_id
_symmetry_equiv_pos_as_xyz
1 x,y,z
2 -x,-y,z
3 1/2-x,y,1/2+z
4 1/2+x,-y,1/2+z
5 x,1/2+y,1/2+z
6 -x,1/2-y,1/2+z
7 1/2-x,1/2+y,z
8 1/2+x,1/2-y,z
_cell_length_a                   12.084(2)
_cell_length_b                   27.757(6)
_cell_length_c                   19.770(8)
_cell_angle_alpha                90
_cell_angle_beta                 90
_cell_angle_gamma                90
_cell_volume                     6631.17
_exptl_crystal_colour            colorless
_exptl_crystal_description       prism
_cell_formula_units_Z            4
loop_
_atom_site_label
_atom_site_type_symbol
_atom_site_fract_x
_atom_site_fract_y
_atom_site_fract_z
N1 N 0.5876(6) 0.0971(4) 0.3594(4)
N3 N 0.4148(5) 0.2101(4) 0.2364(3)
S2 S 0.5620(5) 0.1911(2) 0.3388(3)
S4 S 0.4456(4) 0.1162(2) 0.2606(3)
C1 C 0.4953(7) 0.0269(3) 0.2974(5)
C2 C 0.5628(8) 0.0500(3) 0.3435(6)
C3 C 0.6322(8) 0.0299(6) 0.3923(6)
H1 H 0.6402 -0.0039 0.3987
C4 C 0.6890(8) 0.0640(5) 0.4306(6)
H2 H 0.7397 0.0569 0.4660
C5 C 0.6597(5) 0.1103(4) 0.4090(4)
C6 C 0.6959(8) 0.1550(4) 0.4329(5)
C7 C 0.6622(5) 0.1998(5) 0.4083(3)
C8 C 0.6942(10) 0.2459(5) 0.4292(7)
H3 H 0.7456 0.2515 0.4647
C9 C 0.6434(7) 0.2827(5) 0.3929(5)
H4 H 0.6530 0.3164 0.3986
C10 C 0.5735(6) 0.2587(3) 0.3451(5)
C11 C 0.5054(6) 0.2831(3) 0.2971(4)
C12 C 0.4369(6) 0.2591(3) 0.2503(4)
C13 C 0.3642(8) 0.2754(6) 0.1994(5)
H5 H 0.3556 0.3091 0.1925
C14 C 0.3042(8) 0.2431(5) 0.1587(5)
H6 H 0.2534 0.2499 0.1233
C15 C 0.3382(5) 0.1984(4) 0.1836(3)
C16 C 0.3023(7) 0.1531(4) 0.1600(5)
C17 C 0.3411(6) 0.1099(4) 0.1882(4)
C18 C 0.3082(8) 0.0630(4) 0.1667(6)
H7 H 0.2568 0.0575 0.1312
C19 C 0.3588(7) 0.0265(5) 0.2028(5)
H8 H 0.3486 -0.0072 0.1967
C20 C 0.4277(7) 0.0488(3) 0.2500(5)
C21 C 0.7622(6) 0.1538(3) 0.4974(5)
C22 C 0.7318(7) 0.1302(3) 0.5565(6)
H9 H 0.6647 0.1125 0.5583
C23 C 0.7998(9) 0.1325(3) 0.6132(5)
H10 H 0.7790 0.1164 0.6536
C24 C 0.8981(8) 0.1585(4) 0.6107(5)
H11 H 0.9445 0.1601 0.6494
C25 C 0.9285(6) 0.1821(4) 0.5516(6)
H12 H 0.9956 0.1998 0.5499
C26 C 0.8605(7) 0.1798(3) 0.4949(5)
H13 H 0.8813 0.1959 0.4545
C27 C 0.2347(6) 0.1529(3) 0.0984(5)
C28 C 0.1338(7) 0.1769(3) 0.0995(6)
H14 H 0.1096 0.1925 0.1397
C29 C 0.0681(7) 0.1782(4) 0.0418(7)
H15 H -0.0009 0.1946 0.0425
C30 C 0.1034(9) 0.1554(4) -0.0170(6)
H16 H 0.0586 0.1563 -0.0565
C31 C 0.2043(10) 0.1314(3) -0.0181(5)
H17 H 0.2284 0.1158 -0.0583
C32 C 0.2700(7) 0.1301(3) 0.0396(5)
H18 H 0.3389 0.1137 0.0389
C33 C 0.4797(13) 0.3360(4) 0.2928(9)
C34 C 0.5746(11) 0.3642(5) 0.2901(8)
H19 H 0.6455 0.3495 0.2922
C35 C 0.5658(14) 0.4140(5) 0.2844(10)
H20 H 0.6306 0.4333 0.2826
C36 C 0.4620(16) 0.4355(4) 0.2814(11)
H21 H 0.4560 0.4695 0.2776
C37 C 0.3671(13) 0.4073(5) 0.2841(10)
H22 H 0.2962 0.4220 0.2821
C38 C 0.3760(11) 0.3575(5) 0.2898(10)
H23 H 0.3111 0.3382 0.2916
N1A N 0.4124(6) -0.0971(4) 0.3594(4)
N3A N 0.5852(5) -0.2101(4) 0.2364(3)
S2A S 0.4380(5) -0.1911(2) 0.3388(3)
S4A S 0.5544(4) -0.1162(2) 0.2606(3)
C1A C 0.5047(7) -0.0269(3) 0.2974(5)
C2A C 0.4372(8) -0.0500(3) 0.3435(6)
C3A C 0.3678(8) -0.0299(6) 0.3923(6)
H1A H 0.3598 0.0039 0.3987
C4A C 0.3110(8) -0.0640(5) 0.4306(6)
H2A H 0.2603 -0.0569 0.4660
C5A C 0.3403(5) -0.1103(4) 0.4090(4)
C6A C 0.3041(8) -0.1550(4) 0.4329(5)
C7A C 0.3378(5) -0.1998(5) 0.4083(3)
C8A C 0.3058(10) -0.2459(5) 0.4292(7)
H3A H 0.2544 -0.2515 0.4647
C9A C 0.3566(7) -0.2827(5) 0.3929(5)
H4A H 0.3470 -0.3164 0.3986
C10A C 0.4265(6) -0.2587(3) 0.3451(5)
C11A C 0.4946(6) -0.2831(3) 0.2971(4)
C12A C 0.5631(6) -0.2591(3) 0.2503(4)
C13A C 0.6358(8) -0.2754(6) 0.1994(5)
H5A H 0.6444 -0.3091 0.1925
C14A C 0.6958(8) -0.2431(5) 0.1587(5)
H6A H 0.7466 -0.2499 0.1233
C15A C 0.6618(5) -0.1984(4) 0.1836(3)
C16A C 0.6977(7) -0.1531(4) 0.1600(5)
C17A C 0.6589(6) -0.1099(4) 0.1882(4)
C18A C 0.6918(8) -0.0630(4) 0.1667(6)
H7A H 0.7432 -0.0575 0.1312
C19A C 0.6412(7) -0.0265(5) 0.2028(5)
H8A H 0.6514 0.0072 0.1967
C20A C 0.5723(7) -0.0488(3) 0.2500(5)
C21A C 0.2378(6) -0.1538(3) 0.4974(5)
C22A C 0.2682(7) -0.1302(3) 0.5565(6)
H9A H 0.3353 -0.1125 0.5583
C23A C 0.2002(9) -0.1325(3) 0.6132(5)
H10A H 0.2210 -0.1164 0.6536
C24A C 0.1019(8) -0.1585(4) 0.6107(5)
H11A H 0.0555 -0.1601 0.6494
C25A C 0.0715(6) -0.1821(4) 0.5516(6)
H12A H 0.0044 -0.1998 0.5499
C26A C 0.1395(7) -0.1798(3) 0.4949(5)
H13A H 0.1187 -0.1959 0.4545
C27A C 0.7653(6) -0.1529(3) 0.0984(5)
C28A C 0.8662(7) -0.1769(3) 0.0995(6)
H14A H 0.8904 -0.1925 0.1397
C29A C 0.9319(7) -0.1782(4) 0.0418(7)
H15A H 1.0009 -0.1946 0.0425
C30A C 0.8966(9) -0.1554(4) -0.0170(6)
H16A H 0.9414 -0.1563 -0.0565
C31A C 0.7957(10) -0.1314(3) -0.0181(5)
H17A H 0.7716 -0.1158 -0.0583
C32A C 0.7300(7) -0.1301(3) 0.0396(5)
H18A H 0.6611 -0.1137 0.0389
C33A C 0.5203(13) -0.3360(4) 0.2928(9)
C34A C 0.4254(11) -0.3642(5) 0.2901(8)
H19A H 0.3545 -0.3495 0.2922
C35A C 0.4342(14) -0.4140(5) 0.2844(10)
H20A H 0.3694 -0.4333 0.2826
C36A C 0.5380(16) -0.4355(4) 0.2814(11)
H21A H 0.5440 -0.4695 0.2776
C37A C 0.6329(13) -0.4073(5) 0.2841(10)
H22A H 0.7038 -0.4220 0.2821
C38A C 0.6240(11) -0.3575(5) 0.2898(10)
H23A H 0.6889 -0.3382 0.2916
N2? N 0.5864(6) 0.2092(4) 0.3554(3)
N4? N 0.4129(8) 0.0970(5) 0.2383(6)
S1? S 0.5564(3) 0.1173(2) 0.3372(3)
S3? S 0.4363(3) 0.1923(2) 0.2521(3)
C39? C 0.5204(16) 0.3357(5) 0.3041(11)
C40? C 0.6227(14) 0.3575(5) 0.2943(10)
H24? H 0.6850 0.3385 0.2818
C41? C 0.6339(16) 0.4069(6) 0.3027(12)
H25? H 0.7038 0.4218 0.2959
C42? C 0.543(2) 0.4346(5) 0.3209(14)
H26? H 0.5505 0.4684 0.3266
C43? C 0.4405(18) 0.4128(7) 0.3307(13)
H27? H 0.3783 0.4317 0.3432
C44? C 0.4293(15) 0.3633(7) 0.3224(11)
H28? H 0.3594 0.3484 0.3291
loop_
_geom_bond_atom_site_label_1
_geom_bond_atom_site_label_2
_geom_bond_site_symmetry_1
_geom_bond_site_symmetry_2
N1 C2 1_555 1_555
N3 C12 1_555 1_555
S2 C7 1_555 1_555
S4 C17 1_555 1_555
C1 C2 1_555 1_555
C2 C3 1_555 1_555
C3 H1 1_555 1_555
C4 C3 1_555 1_555
H2 C4 1_555 1_555
C5 N1 1_555 1_555
C6 C5 1_555 1_555
C7 C6 1_555 1_555
C8 C7 1_555 1_555
H3 C8 1_555 1_555
C9 C8 1_555 1_555
H4 C9 1_555 1_555
C10 S2 1_555 1_555
C11 C10 1_555 1_555
C12 C11 1_555 1_555
C13 C12 1_555 1_555
H5 C13 1_555 1_555
C14 C13 1_555 1_555
H6 C14 1_555 1_555
C15 N3 1_555 1_555
C16 C15 1_555 1_555
C17 C16 1_555 1_555
C18 C17 1_555 1_555
H7 C18 1_555 1_555
C19 C18 1_555 1_555
H8 C19 1_555 1_555
C20 S4 1_555 1_555
C21 C6 1_555 1_555
C22 C21 1_555 1_555
H9 C22 1_555 1_555
C23 C22 1_555 1_555
H10 C23 1_555 1_555
C24 C23 1_555 1_555
H11 C24 1_555 1_555
C25 C24 1_555 1_555
H12 C25 1_555 1_555
C26 C21 1_555 1_555
H13 C26 1_555 1_555
C27 C16 1_555 1_555
C28 C27 1_555 1_555
H14 C28 1_555 1_555
C29 C28 1_555 1_555
H15 C29 1_555 1_555
C30 C29 1_555 1_555
H16 C30 1_555 1_555
C31 C30 1_555 1_555
H17 C31 1_555 1_555
C32 C27 1_555 1_555
H18 C32 1_555 1_555
C33 C11 1_555 1_555
C34 C33 1_555 1_555
H19 C34 1_555 1_555
C35 C34 1_555 1_555
H20 C35 1_555 1_555
C36 C35 1_555 1_555
H21 C36 1_555 1_555
C37 C36 1_555 1_555
H22 C37 1_555 1_555
C38 C33 1_555 1_555
H23 C38 1_555 1_555
N1A C2A 1_555 1_555
N3A C12A 1_555 1_555
S2A C7A 1_555 1_555
S4A C17A 1_555 1_555
C1A C1 1_555 1_555
C2A C1A 1_555 1_555
C3A C2A 1_555 1_555
H1A C3A 1_555 1_555
C4A C3A 1_555 1_555
H2A C4A 1_555 1_555
C5A N1A 1_555 1_555
C6A C5A 1_555 1_555
C7A C6A 1_555 1_555
C8A C7A 1_555 1_555
H3A C8A 1_555 1_555
C9A C8A 1_555 1_555
H4A C9A 1_555 1_555
C10A S2A 1_555 1_555
C11A C10A 1_555 1_555
C12A C11A 1_555 1_555
C13A C12A 1_555 1_555
H5A C13A 1_555 1_555
C14A C13A 1_555 1_555
H6A C14A 1_555 1_555
C15A N3A 1_555 1_555
C16A C15A 1_555 1_555
C17A C16A 1_555 1_555
C18A C17A 1_555 1_555
H7A C18A 1_555 1_555
C19A C18A 1_555 1_555
H8A C19A 1_555 1_555
C20A S4A 1_555 1_555
C21A C6A 1_555 1_555
C22A C21A 1_555 1_555
H9A C22A 1_555 1_555
C23A C22A 1_555 1_555
H10A C23A 1_555 1_555
C24A C23A 1_555 1_555
H11A C24A 1_555 1_555
C25A C24A 1_555 1_555
H12A C25A 1_555 1_555
C26A C21A 1_555 1_555
H13A C26A 1_555 1_555
C27A C16A 1_555 1_555
C28A C27A 1_555 1_555
H14A C28A 1_555 1_555
C29A C28A 1_555 1_555
H15A C29A 1_555 1_555
C30A C29A 1_555 1_555
H16A C30A 1_555 1_555
C31A C30A 1_555 1_555
H17A C31A 1_555 1_555
C32A C27A 1_555 1_555
H18A C32A 1_555 1_555
C33A C11A 1_555 1_555
C34A C33A 1_555 1_555
H19A C34A 1_555 1_555
C35A C34A 1_555 1_555
H20A C35A 1_555 1_555
C36A C35A 1_555 1_555
H21A C36A 1_555 1_555
C37A C36A 1_555 1_555
H22A C37A 1_555 1_555
C38A C33A 1_555 1_555
H23A C38A 1_555 1_555
C1 C20 1_555 1_555
C4 C5 1_555 1_555
C9 C10 1_555 1_555
C14 C15 1_555 1_555
C19 C20 1_555 1_555
C25 C26 1_555 1_555
C31 C32 1_555 1_555
C37 C38 1_555 1_555
C1A C20A 1_555 1_555
C4A C5A 1_555 1_555
C9A C10A 1_555 1_555
C14A C15A 1_555 1_555
C19A C20A 1_555 1_555
C25A C26A 1_555 1_555
C31A C32A 1_555 1_555
C37A C38A 1_555 1_555

#END
