
#######################################################################
#
#                 Cambridge Crystallographic Data Centre
#                                CCDC 
#
#######################################################################
#
# If this CIF has been generated from an entry in the Cambridge 
# Structural Database, then it will include bibliographic, chemical, 
# crystal, experimental, refinement or atomic coordinate data resulting 
# from the CCDC's data processing and validation procedures.
#
#######################################################################

data_VELWAM
_chemical_formula_moiety         'C10 H24 N2 S2 2+,H2 O1,2(Cl1 1-)'
_chemical_name_systematic        
'1,8-Dithia-4,11-diazoniacyclotetradecane dichloride monohydrate'
_symmetry_cell_setting           monoclinic
_symmetry_space_group_name_H-M   'P 21/n'
_symmetry_Int_Tables_number      14
_space_group_name_Hall           '-P 2yn'
loop_
_symmetry_equiv_pos_site_id
_symmetry_equiv_pos_as_xyz
1 x,y,z
2 1/2-x,1/2+y,1/2-z
3 -x,-y,-z
4 1/2+x,1/2-y,1/2+z
_cell_length_a                   7.6164(6)
_cell_length_b                   13.3949(11)
_cell_length_c                   15.6467(13)
_cell_angle_alpha                90
_cell_angle_beta                 102.710(3)
_cell_angle_gamma                90
_cell_volume                     1557.18
_exptl_crystal_colour            colorless
_exptl_crystal_description       plate
_cell_formula_units_Z            4
loop_
_atom_site_label
_atom_site_type_symbol
_atom_site_fract_x
_atom_site_fract_y
_atom_site_fract_z
C1 C 0.7793(3) 0.77460(19) 0.86985(16)
H1 H 0.6655 0.7726 0.8906
H2 H 0.7494 0.7932 0.8071
C2 C 0.8631(3) 0.67102(19) 0.87909(16)
H3 H 0.9818 0.6735 0.8631
H4 H 0.8823 0.6490 0.9409
C3 C 0.7198(3) 0.61280(18) 0.72459(15)
H5 H 0.6849 0.6830 0.7102
H6 H 0.6208 0.5695 0.6935
C4 C 0.8897(3) 0.5893(2) 0.69267(16)
H7 H 0.9201 0.5178 0.7026
H8 H 0.9911 0.6293 0.7261
C5 C 0.8615(3) 0.61318(19) 0.59536(16)
H9 H 0.8067 0.6803 0.5847
H10 H 0.7750 0.5645 0.5620
C6 C 1.1971(3) 0.70977(18) 0.61489(16)
H11 H 1.2163 0.6949 0.6782
H12 H 1.3165 0.7125 0.5997
C7 C 1.1058(3) 0.81087(18) 0.59669(16)
H13 H 1.0918 0.8275 0.5339
H14 H 0.9843 0.8076 0.6095
C8 C 1.2459(3) 0.8799(2) 0.74854(16)
H15 H 1.3118 0.9392 0.7767
H16 H 1.3230 0.8207 0.7665
C9 C 1.0739(3) 0.8682(2) 0.78086(16)
H17 H 1.0124 0.8056 0.7575
H18 H 0.9920 0.9247 0.7599
C10 C 1.1182(3) 0.8656(2) 0.88066(16)
H19 H 1.1969 0.9231 0.9026
H20 H 1.1872 0.8040 0.9002
N1 N 0.7442(3) 0.59736(15) 0.82122(13)
H23 H 0.7909 0.5345 0.8346
H24 H 0.6326 0.5989 0.8347
N2 N 1.2130(3) 0.89120(15) 0.65152(13)
H25 H 1.3229 0.8954 0.6364
H26 H 1.1548 0.9510 0.6367
S1 S 0.92405(8) 0.86934(5) 0.93043(4)
S2 S 1.06606(8) 0.61058(5) 0.55333(4)
Cl1 Cl 0.85125(8) 0.87425(4) 0.34272(4)
Cl2 Cl 0.11263(8) 0.62577(5) 0.14069(4)
H21 H 0.208(7) 0.546(4) 0.038(3)
H22 H 0.327(5) 0.548(3) -0.027(3)
O1 O 0.3101(3) 0.51457(17) 0.01647(15)
loop_
_geom_bond_atom_site_label_1
_geom_bond_atom_site_label_2
_geom_bond_site_symmetry_1
_geom_bond_site_symmetry_2
C1 H1 1_555 1_555
H2 C1 1_555 1_555
C2 C1 1_555 1_555
H3 C2 1_555 1_555
H4 C2 1_555 1_555
C3 H5 1_555 1_555
H6 C3 1_555 1_555
C4 C3 1_555 1_555
H7 C4 1_555 1_555
H8 C4 1_555 1_555
C5 C4 1_555 1_555
H9 C5 1_555 1_555
H10 C5 1_555 1_555
C6 H11 1_555 1_555
H12 C6 1_555 1_555
C7 C6 1_555 1_555
H13 C7 1_555 1_555
H14 C7 1_555 1_555
C8 H15 1_555 1_555
H16 C8 1_555 1_555
C9 C8 1_555 1_555
H17 C9 1_555 1_555
H18 C9 1_555 1_555
C10 C9 1_555 1_555
H19 C10 1_555 1_555
H20 C10 1_555 1_555
H21 O1 1_555 1_555
H22 O1 1_555 1_555
N1 C2 1_555 1_555
H23 N1 1_555 1_555
H24 N1 1_555 1_555
N2 C7 1_555 1_555
H25 N2 1_555 1_555
H26 N2 1_555 1_555
S1 C1 1_555 1_555
S2 C5 1_555 1_555
C3 N1 1_555 1_555
C6 S2 1_555 1_555
C8 N2 1_555 1_555
C10 S1 1_555 1_555

#END
