
#######################################################################
#
#                 Cambridge Crystallographic Data Centre
#                                CCDC 
#
#######################################################################
#
# If this CIF has been generated from an entry in the Cambridge 
# Structural Database, then it will include bibliographic, chemical, 
# crystal, experimental, refinement or atomic coordinate data resulting 
# from the CCDC's data processing and validation procedures.
#
#######################################################################

data_VELWUG
_chemical_formula_moiety         'C46 H42 N4 2+,2(Br1 1-),C1 H2 Cl2'
_chemical_name_systematic        
'4,5,14,15-Tetraphenyl-6,16-diaza-3,13-diazoniapentacyclo[16.2.2.2^8,11^.1^3,6^.1^13,16^]hexacosa-1(20),3(26),8,10,13(23),18,21,24-octaene dibromide dichloromethane solvate'
_symmetry_cell_setting           monoclinic
_symmetry_space_group_name_H-M   'C 2'
_symmetry_Int_Tables_number      5
_space_group_name_Hall           'C 2y'
loop_
_symmetry_equiv_pos_site_id
_symmetry_equiv_pos_as_xyz
1 x,y,z
2 -x,y,-z
3 1/2+x,1/2+y,z
4 1/2-x,1/2+y,-z
_cell_length_a                   15.061(4)
_cell_length_b                   9.610(3)
_cell_length_c                   33.236(9)
_cell_angle_alpha                90
_cell_angle_beta                 92.116(6)
_cell_angle_gamma                90
_cell_volume                     4807.17
_exptl_crystal_colour            colorless
_exptl_crystal_description       'thin plate'
_cell_formula_units_Z            4
loop_
_atom_site_label
_atom_site_type_symbol
_atom_site_fract_x
_atom_site_fract_y
_atom_site_fract_z
C47 C 0.5000(18) 0.146(3) 0.0195(8)
H43 H 0.4943 0.1432 0.0486
Cl2 Cl 0.5000 -0.0115(7) 0.0000
Cl3 Cl 0.5902(5) 0.2442(10) 0.0056(2)
C47A C 0.5000(18) 0.146(3) -0.0195(8)
H43A H 0.5057 0.1432 -0.0486
Cl3A Cl 0.4098(5) 0.2442(10) -0.0056(2)
Br1 Br 0.80245(14) 0.31034(17) 0.32365(6)
Br2 Br 0.8922(6) 0.5214(5) 0.17437(18)
N1 N 0.7409(7) 0.6633(11) 0.3681(3)
N2 N 0.6222(6) 0.5496(10) 0.3457(3)
N3 N 0.8343(5) 0.8571(9) 0.1778(3)
N4 N 0.7054(5) 0.7684(8) 0.1569(3)
C1 C 0.6931(8) 0.6275(12) 0.3363(4)
H1 H 0.7066 0.6533 0.3096
C2 C 0.6954(7) 0.6236(13) 0.4047(3)
H2 H 0.6573 0.7023 0.4136
C3 C 0.6358(7) 0.5048(10) 0.3870(3)
H3 H 0.6692 0.4149 0.3880
C4 C 0.7583(8) 0.5797(11) 0.4389(3)
C5 C 0.8246(9) 0.4780(12) 0.4342(4)
H4 H 0.8303 0.4335 0.4089
C6 C 0.8788(11) 0.4446(16) 0.4649(6)
H5 H 0.9245 0.3785 0.4608
C7 C 0.8716(11) 0.502(2) 0.5023(6)
H6 H 0.9093 0.4707 0.5240
C8 C 0.8081(9) 0.6074(16) 0.5089(5)
H7 H 0.8037 0.6513 0.5343
C9 C 0.7517(8) 0.6442(14) 0.4755(4)
H8 H 0.7083 0.7150 0.4786
C10 C 0.5478(7) 0.4893(14) 0.4095(4)
C11 C 0.5373(8) 0.3675(14) 0.4312(4)
H9 H 0.5808 0.2958 0.4319
C12 C 0.4559(8) 0.3569(16) 0.4527(4)
H10 H 0.4452 0.2768 0.4685
C13 C 0.3977(12) 0.455(2) 0.4506(5)
H11 H 0.3451 0.4434 0.4652
C14 C 0.4062(9) 0.5724(17) 0.4291(6)
H12 H 0.3591 0.6383 0.4276
C15 C 0.4844(9) 0.5972(16) 0.4090(6)
H13 H 0.4945 0.6828 0.3956
C16 C 0.7591(6) 0.7945(12) 0.1890(4)
H14 H 0.7459 0.7720 0.2159
C17 C 0.8412(6) 0.8554(11) 0.1323(3)
H15 H 0.8770 0.7736 0.1239
C18 C 0.7401(7) 0.8333(12) 0.1197(3)
H16 H 0.7110 0.9256 0.1149
C19 C 0.8775(7) 0.9849(12) 0.1156(3)
C20 C 0.9416(10) 0.9728(17) 0.0871(4)
H17 H 0.9607 0.8837 0.0786
C21 C 0.9779(11) 1.0928(19) 0.0711(5)
H18 H 1.0233 1.0847 0.0521
C22 C 0.9495(8) 1.2219(16) 0.0820(4)
H19 H 0.9716 1.3012 0.0685
C23 C 0.8908(9) 1.2404(13) 0.1116(4)
H20 H 0.8758 1.3301 0.1213
C24 C 0.8524(8) 1.1148(12) 0.1273(4)
H21 H 0.8079 1.1230 0.1467
C25 C 0.7266(7) 0.7450(12) 0.0840(4)
C26 C 0.6909(8) 0.7977(15) 0.0485(4)
H22 H 0.6739 0.8928 0.0473
C27 C 0.6791(9) 0.7170(16) 0.0148(4)
H23 H 0.6560 0.7569 -0.0095
C28 C 0.7010(10) 0.5758(15) 0.0162(5)
H24 H 0.6896 0.5174 -0.0064
C29 C 0.7377(10) 0.5259(17) 0.0496(5)
H25 H 0.7558 0.4312 0.0499
C30 C 0.7512(9) 0.5998(12) 0.0833(4)
H26 H 0.7769 0.5571 0.1067
C31 C 0.8154(11) 0.7700(16) 0.3686(4)
H27 H 0.7943 0.8588 0.3799
H28 H 0.8661 0.7364 0.3857
C32 C 0.8442(6) 0.7924(12) 0.3272(3)
C33 C 0.8856(9) 0.6901(14) 0.3052(4)
H29 H 0.8967 0.6008 0.3166
C34 C 0.9114(8) 0.7203(13) 0.2653(4)
H30 H 0.9415 0.6510 0.2507
C35 C 0.8943(6) 0.8437(10) 0.2479(3)
C36 C 0.8507(8) 0.9488(11) 0.2707(4)
H31 H 0.8396 1.0380 0.2593
C37 C 0.8266(7) 0.9215(13) 0.3071(4)
H32 H 0.7956 0.9914 0.3211
C38 C 0.9127(8) 0.8717(13) 0.2045(4)
H33 H 0.9363 0.9673 0.2020
H34 H 0.9590 0.8063 0.1958
C39 C 0.5648(7) 0.4745(13) 0.3152(4)
H35 H 0.5816 0.3750 0.3149
H36 H 0.5020 0.4807 0.3229
C40 C 0.5738(8) 0.5344(12) 0.2744(4)
C41 C 0.5303(9) 0.6619(14) 0.2647(4)
H37 H 0.4952 0.7077 0.2839
C42 C 0.5399(7) 0.7178(13) 0.2270(4)
H38 H 0.5073 0.7988 0.2194
C43 C 0.5992(7) 0.6546(12) 0.1988(4)
C44 C 0.6376(7) 0.5311(12) 0.2093(4)
H39 H 0.6733 0.4846 0.1905
C45 C 0.6256(8) 0.4702(14) 0.2474(4)
H40 H 0.6538 0.3845 0.2542
C46 C 0.6126(6) 0.7240(13) 0.1586(4)
H41 H 0.5983 0.6578 0.1364
H42 H 0.5728 0.8055 0.1554
Cl1? Cl 0.6428(9) 0.0997(7) 0.1997(3)
Cl4? Cl 0.8209(7) 0.2971(14) 0.2248(3)
Br3? Br 0.5512(5) -0.0785(8) 0.3596(2)
Br4? Br 0.7015(8) 0.1571(14) 0.3751(4)
Br5? Br 0.5406(2) 0.0923(3) 0.12626(11)
loop_
_geom_bond_atom_site_label_1
_geom_bond_atom_site_label_2
_geom_bond_site_symmetry_1
_geom_bond_site_symmetry_2
N1 C1 1_555 1_555
N2 C1 1_555 1_555
N3 C16 1_555 1_555
N4 C16 1_555 1_555
C1 H1 1_555 1_555
C2 N1 1_555 1_555
H2 C2 1_555 1_555
C3 N2 1_555 1_555
H3 C3 1_555 1_555
C4 C2 1_555 1_555
C5 C4 1_555 1_555
H4 C5 1_555 1_555
C6 C5 1_555 1_555
H5 C6 1_555 1_555
C7 C6 1_555 1_555
H6 C7 1_555 1_555
C8 C7 1_555 1_555
H7 C8 1_555 1_555
C9 C4 1_555 1_555
H8 C9 1_555 1_555
C10 C3 1_555 1_555
C11 C10 1_555 1_555
H9 C11 1_555 1_555
C12 C11 1_555 1_555
H10 C12 1_555 1_555
C13 C12 1_555 1_555
H11 C13 1_555 1_555
C14 C13 1_555 1_555
H12 C14 1_555 1_555
C15 C10 1_555 1_555
H13 C15 1_555 1_555
C16 H14 1_555 1_555
C17 N3 1_555 1_555
H15 C17 1_555 1_555
C18 N4 1_555 1_555
H16 C18 1_555 1_555
C19 C17 1_555 1_555
C20 C19 1_555 1_555
H17 C20 1_555 1_555
C21 C20 1_555 1_555
H18 C21 1_555 1_555
C22 C21 1_555 1_555
H19 C22 1_555 1_555
C23 C22 1_555 1_555
H20 C23 1_555 1_555
C24 C19 1_555 1_555
H21 C24 1_555 1_555
C25 C18 1_555 1_555
C26 C25 1_555 1_555
H22 C26 1_555 1_555
C27 C26 1_555 1_555
H23 C27 1_555 1_555
C28 C27 1_555 1_555
H24 C28 1_555 1_555
C29 C28 1_555 1_555
H25 C29 1_555 1_555
C30 C25 1_555 1_555
H26 C30 1_555 1_555
C31 N1 1_555 1_555
H27 C31 1_555 1_555
H28 C31 1_555 1_555
C32 C31 1_555 1_555
C33 C32 1_555 1_555
H29 C33 1_555 1_555
C34 C33 1_555 1_555
H30 C34 1_555 1_555
C35 C34 1_555 1_555
C36 C35 1_555 1_555
H31 C36 1_555 1_555
C37 C32 1_555 1_555
H32 C37 1_555 1_555
C38 N3 1_555 1_555
H33 C38 1_555 1_555
H34 C38 1_555 1_555
C39 N2 1_555 1_555
H35 C39 1_555 1_555
H36 C39 1_555 1_555
C40 C39 1_555 1_555
C41 C40 1_555 1_555
H37 C41 1_555 1_555
C42 C41 1_555 1_555
H38 C42 1_555 1_555
C43 C42 1_555 1_555
C44 C43 1_555 1_555
H39 C44 1_555 1_555
C45 C40 1_555 1_555
H40 C45 1_555 1_555
C46 N4 1_555 1_555
H41 C46 1_555 1_555
H42 C46 1_555 1_555
C47 H43 1_555 1_555
Cl2 C47 1_555 1_555
Cl3 C47 1_555 1_555
C47A C47 1_555 1_555
H43A C47A 1_555 1_555
Cl3A C47 1_555 1_555
C2 C3 1_555 1_555
C8 C9 1_555 1_555
C14 C15 1_555 1_555
C17 C18 1_555 1_555
C23 C24 1_555 1_555
C29 C30 1_555 1_555
C35 C38 1_555 1_555
C36 C37 1_555 1_555
C43 C46 1_555 1_555
C44 C45 1_555 1_555
Cl2 C47A 1_555 1_555
Cl3 C47A 1_555 1_555
C47A Cl3A 1_555 1_555

#END
