
#######################################################################
#
#                 Cambridge Crystallographic Data Centre
#                                CCDC 
#
#######################################################################
#
# If this CIF has been generated from an entry in the Cambridge 
# Structural Database, then it will include bibliographic, chemical, 
# crystal, experimental, refinement or atomic coordinate data resulting 
# from the CCDC's data processing and validation procedures.
#
#######################################################################

data_VELWUF
_chemical_formula_moiety         'C19 H24 N2 O1 2+,2(C7 H7 O3 S1 1-),H2 O1'
_chemical_name_systematic        
'Cinchonidinium bis(4-methylbenzenesulfonate) monohydrate'
_symmetry_cell_setting           triclinic
_symmetry_space_group_name_H-M   'P 1'
_symmetry_Int_Tables_number      1
_space_group_name_Hall           'P 1'
loop_
_symmetry_equiv_pos_site_id
_symmetry_equiv_pos_as_xyz
1 x,y,z
_cell_length_a                   6.565(3)
_cell_length_b                   9.599(4)
_cell_length_c                   12.748(5)
_cell_angle_alpha                85.25(3)
_cell_angle_beta                 84.08(3)
_cell_angle_gamma                82.71(3)
_cell_volume                     790.621
_exptl_crystal_colour            colorless
_exptl_crystal_description       block
_cell_formula_units_Z            1
loop_
_atom_site_label
_atom_site_type_symbol
_atom_site_fract_x
_atom_site_fract_y
_atom_site_fract_z
S1 S 0.47843(10) 0.26388(7) 0.35937(6)
O2 O 0.6877(4) 0.2786(3) 0.3761(2)
O3 O 0.4482(4) 0.1270(2) 0.3299(2)
O4 O 0.3874(4) 0.3755(3) 0.28757(19)
C20 C 0.4057(5) 0.3533(3) 0.5605(3)
H23 H 0.5385 0.3793 0.5509
C21 C 0.2819(6) 0.3798(4) 0.6534(3)
H24 H 0.3335 0.4233 0.7058
C22 C 0.0840(6) 0.3432(3) 0.6697(3)
C23 C 0.0134(6) 0.2757(4) 0.5911(3)
H25 H -0.1182 0.2479 0.6010
C24 C 0.1346(5) 0.2489(3) 0.4985(3)
H26 H 0.0837 0.2041 0.4465
C25 C 0.3305(5) 0.2881(3) 0.4825(2)
C26 C -0.0543(9) 0.3810(5) 0.7683(4)
H27 H -0.0753 0.4814 0.7713
H28 H 0.0095 0.3390 0.8297
H29 H -0.1848 0.3464 0.7666
S2 S 0.17446(11) 0.63415(8) 0.98141(7)
O5 O 0.2942(3) 0.7194(2) 1.03578(18)
O6 O 0.0486(4) 0.5535(3) 1.0580(3)
O7 O 0.3024(5) 0.5566(3) 0.9030(2)
C27 C 0.0573(5) 0.8849(3) 0.8753(3)
H30 H 0.1840 0.9102 0.8882
C28 C -0.0753(6) 0.9765(4) 0.8173(3)
H31 H -0.0364 1.0638 0.7919
C29 C -0.2646(5) 0.9418(3) 0.7962(3)
C30 C -0.3163(5) 0.8120(4) 0.8344(3)
H32 H -0.4415 0.7857 0.8199
C31 C -0.1889(5) 0.7196(3) 0.8935(3)
H33 H -0.2297 0.6332 0.9198
C32 C 0.0000(5) 0.7552(3) 0.9138(2)
C33 C -0.4060(7) 1.0453(4) 0.7338(3)
H34 H -0.3477 1.0553 0.6618
H35 H -0.4224 1.1349 0.7639
H36 H -0.5381 1.0115 0.7361
O1 O 1.1353(3) 0.8071(2) 0.23113(19)
H1 H 1.2057 0.7849 0.1767
N1 N 0.9053(4) 1.2983(3) 0.1145(2)
N2 N 0.7345(4) 0.6850(2) 0.3182(2)
C1 C 0.7592(5) 1.2270(3) 0.0800(2)
C2 C 0.6122(6) 1.2972(4) 0.0166(3)
H2 H 0.6140 1.3923 -0.0040
C3 C 0.4670(6) 1.2255(4) -0.0147(3)
H3 H 0.3670 1.2722 -0.0559
C4 C 0.4661(5) 1.0809(4) 0.0147(3)
H4 H 0.3658 1.0327 -0.0074
C5 C 0.6090(5) 1.0119(3) 0.0746(2)
H5 H 0.6059 0.9163 0.0929
C6 C 0.7638(5) 1.0808(3) 0.1106(2)
C7 C 0.9193(4) 1.0165(3) 0.1744(2)
C8 C 1.0588(5) 1.0960(3) 0.2049(2)
H6 H 1.1616 1.0544 0.2464
C9 C 1.0472(5) 1.2383(3) 0.1742(3)
H7 H 1.1412 1.2919 0.1962
C10 C 0.9337(4) 0.8606(3) 0.2070(2)
H8 H 0.8985 0.8110 0.1485
C11 C 0.7770(4) 0.8366(3) 0.3034(2)
H9 H 0.6471 0.8940 0.2891
C12 C 0.8387(5) 0.8793(3) 0.4085(2)
H10 H 0.9841 0.8913 0.4015
H11 H 0.7602 0.9679 0.4267
C13 C 0.7957(5) 0.7645(3) 0.4950(2)
H12 H 0.8211 0.7948 0.5636
C14 C 0.5732(5) 0.7302(4) 0.4991(3)
H13 H 0.5565 0.6520 0.5525
C15 C 0.5425(5) 0.6792(3) 0.3908(3)
H14 H 0.5080 0.5833 0.4000
H15 H 0.4293 0.7383 0.3604
C16 C 0.9390(6) 0.6319(4) 0.4702(3)
H16 H 0.9112 0.5568 0.5235
H17 H 1.0810 0.6492 0.4716
C17 C 0.9077(6) 0.5873(3) 0.3616(3)
H18 H 1.0331 0.5918 0.3147
H19 H 0.8744 0.4912 0.3674
C18 C 0.4096(6) 0.8492(5) 0.5265(3)
H20 H 0.4112 0.9332 0.4846
C19 C 0.2669(8) 0.8434(7) 0.6040(4)
H21 H 0.2607 0.7611 0.6476
H22 H 0.1706 0.9214 0.6163
H37 H 0.909(9) 1.395(6) 0.085(5)
H38 H 0.685(6) 0.657(4) 0.253(3)
O8 O 0.5883(4) 0.5667(3) 0.15909(18)
H39 H 0.527(6) 0.509(4) 0.197(3)
H40 H 0.508(5) 0.608(4) 0.118(3)
loop_
_geom_bond_atom_site_label_1
_geom_bond_atom_site_label_2
_geom_bond_site_symmetry_1
_geom_bond_site_symmetry_2
S1 O2 1_555 1_555
S2 O5 1_555 1_555
O1 H1 1_555 1_555
O3 S1 1_555 1_555
O4 S1 1_555 1_555
O6 S2 1_555 1_555
O7 S2 1_555 1_555
N1 C1 1_555 1_555
N2 C11 1_555 1_555
C1 C2 1_555 1_555
C2 H2 1_555 1_555
C3 C2 1_555 1_555
H3 C3 1_555 1_555
C4 C3 1_555 1_555
H4 C4 1_555 1_555
C5 C4 1_555 1_555
H5 C5 1_555 1_555
C6 C1 1_555 1_555
C7 C6 1_555 1_555
C8 C7 1_555 1_555
H6 C8 1_555 1_555
C9 N1 1_555 1_555
H7 C9 1_555 1_555
C10 O1 1_555 1_555
H8 C10 1_555 1_555
C11 C10 1_555 1_555
H9 C11 1_555 1_555
C12 C11 1_555 1_555
H10 C12 1_555 1_555
H11 C12 1_555 1_555
C13 C12 1_555 1_555
H12 C13 1_555 1_555
C14 C13 1_555 1_555
H13 C14 1_555 1_555
C15 N2 1_555 1_555
H14 C15 1_555 1_555
H15 C15 1_555 1_555
C16 C13 1_555 1_555
H16 C16 1_555 1_555
H17 C16 1_555 1_555
C17 N2 1_555 1_555
H18 C17 1_555 1_555
H19 C17 1_555 1_555
C18 C14 1_555 1_555
H20 C18 1_555 1_555
C19 C18 1_555 1_555
H21 C19 1_555 1_555
H22 C19 1_555 1_555
C20 H23 1_555 1_555
C21 C20 1_555 1_555
H24 C21 1_555 1_555
C22 C21 1_555 1_555
C23 C22 1_555 1_555
H25 C23 1_555 1_555
C24 C23 1_555 1_555
H26 C24 1_555 1_555
C25 S1 1_555 1_555
C26 C22 1_555 1_555
H27 C26 1_555 1_555
H28 C26 1_555 1_555
H29 C26 1_555 1_555
C27 H30 1_555 1_555
C28 C27 1_555 1_555
H31 C28 1_555 1_555
C29 C28 1_555 1_555
C30 C29 1_555 1_555
H32 C30 1_555 1_555
C31 C30 1_555 1_555
H33 C31 1_555 1_555
C32 S2 1_555 1_555
C33 C29 1_555 1_555
H34 C33 1_555 1_555
H35 C33 1_555 1_555
H36 C33 1_555 1_555
O8 H39 1_555 1_555
H37 N1 1_555 1_555
H38 N2 1_555 1_555
H40 O8 1_555 1_555
C5 C6 1_555 1_555
C7 C10 1_555 1_555
C8 C9 1_555 1_555
C14 C15 1_555 1_555
C16 C17 1_555 1_555
C20 C25 1_555 1_555
C24 C25 1_555 1_555
C27 C32 1_555 1_555
C31 C32 1_555 1_555

#END
