
#######################################################################
#
#                 Cambridge Crystallographic Data Centre
#                                CCDC 
#
#######################################################################
#
# If this CIF has been generated from an entry in the Cambridge 
# Structural Database, then it will include bibliographic, chemical, 
# crystal, experimental, refinement or atomic coordinate data resulting 
# from the CCDC's data processing and validation procedures.
#
#######################################################################

data_VELXAN
_chemical_formula_moiety         'C37 H29 N2 O2 1+,Cl1 1-,C1 H4 O1,H2 O1'
_chemical_name_systematic        
'12,18-Dioxo-4,5-diphenyl-6-aza-3-azoniapentacyclo[17.2.2.2^8,11^.1^3,6^.1^13,17^]heptacosa-1(21),3(27),8,10,13(24),14,16,19,22,25-decaene chloride methanol solvate monohydrate'
_symmetry_cell_setting           orthorhombic
_symmetry_space_group_name_H-M   'P 21 21 21'
_symmetry_Int_Tables_number      19
_space_group_name_Hall           'P 2ac 2ab'
loop_
_symmetry_equiv_pos_site_id
_symmetry_equiv_pos_as_xyz
1 x,y,z
2 1/2-x,-y,1/2+z
3 -x,1/2+y,1/2-z
4 1/2+x,1/2-y,-z
_cell_length_a                   8.214(3)
_cell_length_b                   9.896(4)
_cell_length_c                   39.755(13)
_cell_angle_alpha                90
_cell_angle_beta                 90
_cell_angle_gamma                90
_cell_volume                     3231.51
_exptl_crystal_colour            colorless
_exptl_crystal_description       rod
_cell_formula_units_Z            4
loop_
_atom_site_label
_atom_site_type_symbol
_atom_site_fract_x
_atom_site_fract_y
_atom_site_fract_z
Cl1 Cl 0.6473(3) 0.6697(2) 0.60757(4)
O1 O 0.1615(6) 0.4984(5) 0.79821(11)
O2 O 0.3768(6) 1.1754(5) 0.76080(10)
N1 N 0.1183(6) 0.6213(5) 0.61822(12)
N2 N 0.2401(6) 0.8099(5) 0.60474(11)
C1 C 0.1785(8) 0.7389(6) 0.62827(14)
H1 H 0.1759 0.7678 0.6511
C2 C 0.1265(9) 0.6176(6) 0.58085(14)
H2 H 0.0161 0.6369 0.5714
C3 C 0.2409(8) 0.7363(6) 0.57267(13)
H3 H 0.3529 0.7017 0.5679
C4 C 0.3350(10) 0.9374(7) 0.60871(16)
H4 H 0.2804 1.0112 0.5962
H5 H 0.4452 0.9252 0.5991
C5 C 0.3492(9) 0.9758(6) 0.64553(14)
C6 C 0.2557(10) 1.0743(7) 0.66005(17)
H6 H 0.1832 1.1244 0.6462
C7 C 0.2623(9) 1.1036(6) 0.69363(16)
H7 H 0.1983 1.1752 0.7025
C8 C 0.3613(8) 1.0296(6) 0.71454(14)
C9 C 0.4555(8) 0.9248(6) 0.70090(16)
H8 H 0.5224 0.8706 0.7150
C10 C 0.4494(8) 0.9019(7) 0.66677(15)
H9 H 0.5161 0.8331 0.6574
C11 C 0.3641(8) 1.0609(7) 0.75176(16)
C12 C 0.3466(7) 0.9475(6) 0.77600(14)
C13 C 0.3836(9) 0.9683(7) 0.80961(16)
H10 H 0.4262 1.0528 0.8168
C14 C 0.3582(9) 0.8650(8) 0.83282(16)
H11 H 0.3894 0.8776 0.8556
C15 C 0.2891(8) 0.7463(7) 0.82316(16)
H12 H 0.2690 0.6779 0.8394
C16 C 0.2472(8) 0.7238(6) 0.78951(14)
C17 C 0.2782(7) 0.8254(7) 0.76642(14)
H13 H 0.2520 0.8111 0.7434
C18 C 0.1754(7) 0.5910(7) 0.77925(15)
C19 C 0.1258(8) 0.5758(6) 0.74284(15)
C20 C 0.1957(8) 0.4719(6) 0.72397(16)
H14 H 0.2674 0.4092 0.7344
C21 C 0.1601(8) 0.4605(6) 0.69008(15)
H15 H 0.2133 0.3936 0.6769
C22 C 0.0478(8) 0.5457(6) 0.67511(16)
C23 C -0.0278(7) 0.6436(7) 0.69465(15)
H16 H -0.1092 0.6998 0.6850
C24 C 0.0138(7) 0.6594(7) 0.72727(15)
H17 H -0.0352 0.7300 0.7399
C25 C 0.0152(8) 0.5339(7) 0.63781(15)
H18 H 0.0329 0.4392 0.6307
H19 H -0.1001 0.5569 0.6333
C26 C 0.1847(8) 0.4814(7) 0.56796(15)
C27 C 0.3058(9) 0.4114(7) 0.58444(18)
H20 H 0.3518 0.4469 0.6045
C28 C 0.3597(11) 0.2906(8) 0.5719(2)
H21 H 0.4437 0.2430 0.5832
C29 C 0.2920(12) 0.2367(9) 0.5425(3)
H22 H 0.3278 0.1520 0.5340
C30 C 0.1756(12) 0.3068(9) 0.5265(2)
H23 H 0.1306 0.2728 0.5062
C31 C 0.1206(10) 0.4283(7) 0.53939(17)
H24 H 0.0363 0.4756 0.5280
C32 C 0.1805(8) 0.8222(7) 0.54309(14)
C33 C 0.2588(10) 0.8172(8) 0.51324(15)
H25 H 0.3550 0.7648 0.5110
C34 C 0.1988(12) 0.8885(9) 0.48584(19)
H26 H 0.2512 0.8816 0.4646
C35 C 0.0665(12) 0.9673(9) 0.4894(2)
H27 H 0.0300 1.0205 0.4710
C36 C -0.0167(12) 0.9716(8) 0.5195(2)
H28 H -0.1133 1.0237 0.5217
C37 C 0.0423(10) 0.9001(8) 0.54597(17)
H29 H -0.0130 0.9037 0.5669
C38 C 0.8255(17) 0.2289(14) 0.5842(4)
H30 H 0.7680 0.3131 0.5790
H31 H 0.8892 0.2005 0.5646
H32 H 0.8986 0.2435 0.6033
O3 O 0.7116(11) 0.1276(9) 0.5923(2)
H33 H 0.7557 0.0699 0.6048
O4 O 0.1400(10) 0.4187(7) 0.87021(16)
H34 H 0.157(12) 0.428(10) 0.8492(6)
H35 H 0.117(13) 0.335(3) 0.869(2)
loop_
_geom_bond_atom_site_label_1
_geom_bond_atom_site_label_2
_geom_bond_site_symmetry_1
_geom_bond_site_symmetry_2
O1 C18 1_555 1_555
O2 C11 1_555 1_555
N1 C1 1_555 1_555
N2 C1 1_555 1_555
C1 H1 1_555 1_555
C2 N1 1_555 1_555
H2 C2 1_555 1_555
C3 N2 1_555 1_555
H3 C3 1_555 1_555
C4 N2 1_555 1_555
H4 C4 1_555 1_555
H5 C4 1_555 1_555
C5 C4 1_555 1_555
C6 C5 1_555 1_555
H6 C6 1_555 1_555
C7 C6 1_555 1_555
H7 C7 1_555 1_555
C8 C7 1_555 1_555
C9 C8 1_555 1_555
H8 C9 1_555 1_555
C10 C5 1_555 1_555
H9 C10 1_555 1_555
C11 C8 1_555 1_555
C12 C11 1_555 1_555
C13 C12 1_555 1_555
H10 C13 1_555 1_555
C14 C13 1_555 1_555
H11 C14 1_555 1_555
C15 C14 1_555 1_555
H12 C15 1_555 1_555
C16 C15 1_555 1_555
C17 C12 1_555 1_555
H13 C17 1_555 1_555
C18 C16 1_555 1_555
C19 C18 1_555 1_555
C20 C19 1_555 1_555
H14 C20 1_555 1_555
C21 C20 1_555 1_555
H15 C21 1_555 1_555
C22 C21 1_555 1_555
C23 C22 1_555 1_555
H16 C23 1_555 1_555
C24 C19 1_555 1_555
H17 C24 1_555 1_555
C25 N1 1_555 1_555
H18 C25 1_555 1_555
H19 C25 1_555 1_555
C26 C2 1_555 1_555
C27 C26 1_555 1_555
H20 C27 1_555 1_555
C28 C27 1_555 1_555
H21 C28 1_555 1_555
C29 C28 1_555 1_555
H22 C29 1_555 1_555
C30 C29 1_555 1_555
H23 C30 1_555 1_555
C31 C26 1_555 1_555
H24 C31 1_555 1_555
C32 C3 1_555 1_555
C33 C32 1_555 1_555
H25 C33 1_555 1_555
C34 C33 1_555 1_555
H26 C34 1_555 1_555
C35 C34 1_555 1_555
H27 C35 1_555 1_555
C36 C35 1_555 1_555
H28 C36 1_555 1_555
C37 C32 1_555 1_555
H29 C37 1_555 1_555
C38 H30 1_555 1_555
H31 C38 1_555 1_555
H32 C38 1_555 1_555
O3 C38 1_555 1_555
H33 O3 1_555 1_555
O4 H34 1_555 1_555
H35 O4 1_555 1_555
C2 C3 1_555 1_555
C9 C10 1_555 1_555
C16 C17 1_555 1_555
C22 C25 1_555 1_555
C23 C24 1_555 1_555
C30 C31 1_555 1_555
C36 C37 1_555 1_555

#END
