
#######################################################################
#
#                 Cambridge Crystallographic Data Centre
#                                CCDC 
#
#######################################################################
#
# If this CIF has been generated from an entry in the Cambridge 
# Structural Database, then it will include bibliographic, chemical, 
# crystal, experimental, refinement or atomic coordinate data resulting 
# from the CCDC's data processing and validation procedures.
#
#######################################################################

data_VELYAO
_chemical_formula_moiety         'C18 H21 Cl1 N2 O3'
_chemical_name_systematic        
2-(4-Chlorophenyl)-5-methyl-4,4-bis(3-oxobutyl)-2,4-dihydro-3H-pyrazol-3-one
_symmetry_cell_setting           monoclinic
_symmetry_space_group_name_H-M   'P 21/c'
_symmetry_Int_Tables_number      14
_space_group_name_Hall           '-P 2ybc'
loop_
_symmetry_equiv_pos_site_id
_symmetry_equiv_pos_as_xyz
1 x,y,z
2 -x,1/2+y,1/2-z
3 -x,-y,-z
4 x,1/2-y,1/2+z
_cell_length_a                   9.277(2)
_cell_length_b                   16.860(4)
_cell_length_c                   12.714(2)
_cell_angle_alpha                90
_cell_angle_beta                 116.871(13)
_cell_angle_gamma                90
_cell_volume                     1773.88
_exptl_crystal_colour            colorless
_exptl_crystal_description       block
_cell_formula_units_Z            4
loop_
_atom_site_label
_atom_site_type_symbol
_atom_site_fract_x
_atom_site_fract_y
_atom_site_fract_z
Cl1 Cl 0.96528(6) -0.14543(3) 0.63639(4)
O1 O -0.09143(15) 0.20719(11) 0.05339(15)
O2 O 0.69640(17) 0.41276(10) 0.25124(13)
O3 O 0.49556(14) 0.17972(8) 0.37870(9)
N1 N 0.56764(13) 0.08806(8) 0.27631(9)
N2 N 0.54360(14) 0.07711(9) 0.15912(10)
C1 C 0.84668(17) -0.07704(10) 0.52964(12)
C2 C 0.7528(2) -0.02505(12) 0.55407(13)
H1 H 0.7514 -0.0266 0.6267
C3 C 0.66007(19) 0.02976(12) 0.47012(13)
H2 H 0.5963 0.0654 0.4863
C4 C 0.66169(14) 0.03185(9) 0.36198(11)
C5 C 0.75681(17) -0.02184(11) 0.33883(13)
H3 H 0.7579 -0.0213 0.2660
C6 C 0.84964(17) -0.07598(11) 0.42326(13)
H4 H 0.9142 -0.1117 0.4080
C7 C 0.42105(16) 0.19548(10) 0.16931(12)
C8 C 0.49707(16) 0.15608(10) 0.28997(12)
C9 C 0.46163(15) 0.13608(11) 0.09889(12)
C10 C 0.4151(2) 0.14266(13) -0.02935(13)
H5 H 0.4527 0.0968 -0.0544
H6 H 0.4631 0.1894 -0.0432
H7 H 0.2996 0.1460 -0.0731
C11 C 0.23797(16) 0.20660(11) 0.12663(14)
H8 H 0.2223 0.2406 0.1821
H9 H 0.1929 0.2337 0.0512
C12 C 0.14511(17) 0.13035(12) 0.11327(15)
H10 H 0.1586 0.0966 0.0565
H11 H 0.1909 0.1028 0.1883
C13 C -0.03227(18) 0.14283(13) 0.07367(15)
C14 C -0.1319(2) 0.07013(15) 0.06046(18)
H12 H -0.2086 0.0807 0.0900
H13 H -0.0626 0.0273 0.1043
H14 H -0.1882 0.0558 -0.0213
C15 C 0.49887(17) 0.27729(11) 0.17660(15)
H15 H 0.4472 0.3022 0.0995
H16 H 0.4786 0.3104 0.2309
C16 C 0.67917(17) 0.27391(12) 0.21665(17)
H17 H 0.7286 0.2419 0.2875
H18 H 0.6982 0.2476 0.1562
C17 C 0.76057(19) 0.35307(12) 0.24141(14)
C18 C 0.9293(2) 0.35377(15) 0.2561(2)
H19 H 0.9643 0.4076 0.2584
H20 H 0.9330 0.3266 0.1909
H21 H 0.9992 0.3275 0.3283
loop_
_geom_bond_atom_site_label_1
_geom_bond_atom_site_label_2
_geom_bond_site_symmetry_1
_geom_bond_site_symmetry_2
Cl1 C1 1_555 1_555
O1 C13 1_555 1_555
O2 C17 1_555 1_555
O3 C8 1_555 1_555
N1 N2 1_555 1_555
N2 C9 1_555 1_555
C1 C2 1_555 1_555
C2 H1 1_555 1_555
C3 C2 1_555 1_555
H2 C3 1_555 1_555
C4 N1 1_555 1_555
C5 C4 1_555 1_555
H3 C5 1_555 1_555
C6 C1 1_555 1_555
H4 C6 1_555 1_555
C7 C8 1_555 1_555
C8 N1 1_555 1_555
C9 C7 1_555 1_555
C10 C9 1_555 1_555
H5 C10 1_555 1_555
H6 C10 1_555 1_555
H7 C10 1_555 1_555
C11 C7 1_555 1_555
H8 C11 1_555 1_555
H9 C11 1_555 1_555
C12 C11 1_555 1_555
H10 C12 1_555 1_555
H11 C12 1_555 1_555
C13 C12 1_555 1_555
C14 C13 1_555 1_555
H12 C14 1_555 1_555
H13 C14 1_555 1_555
H14 C14 1_555 1_555
C15 C7 1_555 1_555
H15 C15 1_555 1_555
H16 C15 1_555 1_555
C16 C15 1_555 1_555
H17 C16 1_555 1_555
H18 C16 1_555 1_555
C17 C16 1_555 1_555
C18 C17 1_555 1_555
H19 C18 1_555 1_555
H20 C18 1_555 1_555
H21 C18 1_555 1_555
C3 C4 1_555 1_555
C5 C6 1_555 1_555

#END
