
#######################################################################
#
#                 Cambridge Crystallographic Data Centre
#                                CCDC 
#
#######################################################################
#
# If this CIF has been generated from an entry in the Cambridge 
# Structural Database, then it will include bibliographic, chemical, 
# crystal, experimental, refinement or atomic coordinate data resulting 
# from the CCDC's data processing and validation procedures.
#
#######################################################################

data_VELZES01
_chemical_formula_moiety         'C14 H10 N4 O2'
_chemical_name_systematic        Isatin-3-isonicotinoylhydrazone
_symmetry_cell_setting           orthorhombic
_symmetry_space_group_name_H-M   'P n a 21'
_symmetry_Int_Tables_number      33
_space_group_name_Hall           'P 2c -2n'
loop_
_symmetry_equiv_pos_site_id
_symmetry_equiv_pos_as_xyz
1 x,y,z
2 -x,-y,1/2+z
3 1/2+x,1/2-y,z
4 1/2-x,1/2+y,1/2+z
_cell_length_a                   8.0391(16)
_cell_length_b                   28.645(6)
_cell_length_c                   5.2812(11)
_cell_angle_alpha                90
_cell_angle_beta                 90
_cell_angle_gamma                90
_cell_volume                     1216.15
_exptl_crystal_colour            orange
_exptl_crystal_description       prismatic
_cell_formula_units_Z            4
_exptl_crystal_recrystallization_method ethanol
loop_
_atom_site_label
_atom_site_type_symbol
_atom_site_fract_x
_atom_site_fract_y
_atom_site_fract_z
C1 C 0.3153(5) 0.82832(13) -0.0090(7)
C2 C 0.3231(5) 0.87669(13) -0.0214(8)
H1 H 0.3803 0.8919 -0.1504
C3 C 0.2416(5) 0.90129(13) 0.1669(9)
H2 H 0.2460 0.9337 0.1648
C4 C 0.1537(5) 0.87925(13) 0.3589(8)
H3 H 0.1009 0.8969 0.4829
C5 C 0.1443(4) 0.83097(14) 0.3659(7)
H4 H 0.0832 0.8160 0.4913
C6 C 0.2273(5) 0.80547(12) 0.1831(7)
C7 C 0.2461(4) 0.75566(12) 0.1367(7)
C8 C 0.3540(4) 0.75099(14) -0.0961(7)
C9 C 0.1677(4) 0.64071(13) 0.3252(8)
C10 C 0.1864(7) 0.51127(19) 0.2292(12)
H5 H 0.1385 0.4850 0.3031
C11 C 0.1464(6) 0.55480(14) 0.3299(10)
H6 H 0.0768 0.5574 0.4698
C12 C 0.2130(5) 0.59388(14) 0.2161(7)
C13 C 0.3176(6) 0.58738(16) 0.0095(10)
H7 H 0.3643 0.6128 -0.0738
C14 C 0.3505(7) 0.54259(17) -0.0690(11)
H8 H 0.4220 0.5388 -0.2059
O1 O 0.4002(3) 0.71450(9) -0.1939(5)
O2 O 0.0907(4) 0.64390(8) 0.5256(6)
N1 N 0.3893(4) 0.79519(11) -0.1693(7)
N2 N 0.1836(4) 0.72242(11) 0.2733(6)
N3 N 0.2191(4) 0.67810(10) 0.1886(7)
N4 N 0.2885(6) 0.50479(15) 0.0347(10)
H9 H 0.447(5) 0.8018(13) -0.290(8)
H10 H 0.277(6) 0.6789(16) 0.024(11)
loop_
_geom_bond_atom_site_label_1
_geom_bond_atom_site_label_2
_geom_bond_site_symmetry_1
_geom_bond_site_symmetry_2
C1 C2 1_555 1_555
C2 H1 1_555 1_555
C3 C2 1_555 1_555
H2 C3 1_555 1_555
C4 C3 1_555 1_555
H3 C4 1_555 1_555
C5 C4 1_555 1_555
H4 C5 1_555 1_555
C6 C1 1_555 1_555
C7 C6 1_555 1_555
C8 C7 1_555 1_555
C9 C12 1_555 1_555
C10 H5 1_555 1_555
C11 C10 1_555 1_555
H6 C11 1_555 1_555
C12 C11 1_555 1_555
C13 C12 1_555 1_555
H7 C13 1_555 1_555
C14 C13 1_555 1_555
H8 C14 1_555 1_555
O1 C8 1_555 1_555
O2 C9 1_555 1_555
N1 C1 1_555 1_555
N2 C7 1_555 1_555
N3 C9 1_555 1_555
N4 C10 1_555 1_555
H9 N1 1_555 1_555
H10 N3 1_555 1_555
C5 C6 1_555 1_555
C8 N1 1_555 1_555
C14 N4 1_555 1_555
N2 N3 1_555 1_555

#END
