
#######################################################################
#
#                 Cambridge Crystallographic Data Centre
#                                CCDC 
#
#######################################################################
#
# If this CIF has been generated from an entry in the Cambridge 
# Structural Database, then it will include bibliographic, chemical, 
# crystal, experimental, refinement or atomic coordinate data resulting 
# from the CCDC's data processing and validation procedures.
#
#######################################################################

data_VELZES
_chemical_name_common            'Isatin isonicotinoylhydrazone'
_chemical_formula_moiety         'C14 H10 N4 O2'
_chemical_name_systematic        
'2,3-Dihydro-1H-indole-2,3-dione 3-isonicotinoylhydrazone'
_symmetry_cell_setting           orthorhombic
_symmetry_space_group_name_H-M   'P n a 21'
_symmetry_Int_Tables_number      33
_space_group_name_Hall           'P 2c -2n'
loop_
_symmetry_equiv_pos_site_id
_symmetry_equiv_pos_as_xyz
1 x,y,z
2 -x,-y,1/2+z
3 1/2+x,1/2-y,z
4 1/2-x,1/2+y,1/2+z
_cell_length_a                   8.007(5)
_cell_length_b                   28.561(16)
_cell_length_c                   5.266(3)
_cell_angle_alpha                90
_cell_angle_beta                 90
_cell_angle_gamma                90
_cell_volume                     1204.27
_exptl_crystal_colour            red
_exptl_crystal_description       block
_cell_formula_units_Z            4
loop_
_atom_site_label
_atom_site_type_symbol
_atom_site_fract_x
_atom_site_fract_y
_atom_site_fract_z
O1 O 0.09952(18) 0.71433(5) 0.8958(3)
O2 O 0.4092(2) 0.64382(4) 0.1771(4)
N1 N 0.1096(2) 0.79515(5) 0.8724(4)
H1 H 0.0489 0.8020 1.0019
N2 N 0.31698(18) 0.72244(5) 0.4284(4)
N3 N 0.28090(19) 0.67819(5) 0.5118(4)
H2 H 0.2260 0.6742 0.6504
N4 N 0.2107(3) 0.50460(8) 0.6674(6)
C1 C 0.1841(2) 0.82829(6) 0.7106(4)
C2 C 0.1757(2) 0.87659(7) 0.7222(5)
H3 H 0.1171 0.8918 0.8506
C3 C 0.2583(3) 0.90144(7) 0.5343(5)
H4 H 0.2541 0.9340 0.5371
C4 C 0.3470(2) 0.87936(7) 0.3421(5)
H5 H 0.4005 0.8971 0.2185
C5 C 0.3561(2) 0.83088(7) 0.3336(5)
H6 H 0.4163 0.8158 0.2067
C6 C 0.2734(2) 0.80567(6) 0.5187(4)
C7 C 0.2543(2) 0.75563(6) 0.5642(4)
C8 C 0.1462(2) 0.75102(7) 0.7974(4)
C9 C 0.3320(2) 0.64080(6) 0.3753(5)
C10 C 0.2873(2) 0.59395(7) 0.4868(5)
C11 C 0.3539(3) 0.55484(7) 0.3737(6)
H7 H 0.4247 0.5575 0.2345
C12 C 0.3130(4) 0.51130(9) 0.4716(8)
H8 H 0.3602 0.4850 0.3956
C13 C 0.1492(3) 0.54249(9) 0.7726(7)
H9 H 0.0777 0.5388 0.9104
C14 C 0.1833(3) 0.58745(8) 0.6925(6)
H10 H 0.1368 0.6130 0.7760
loop_
_geom_bond_atom_site_label_1
_geom_bond_atom_site_label_2
_geom_bond_site_symmetry_1
_geom_bond_site_symmetry_2
O1 C8 1_555 1_555
O2 C9 1_555 1_555
N1 H1 1_555 1_555
N2 N3 1_555 1_555
N3 H2 1_555 1_555
N4 C12 1_555 1_555
C1 N1 1_555 1_555
C2 C1 1_555 1_555
H3 C2 1_555 1_555
C3 C2 1_555 1_555
H4 C3 1_555 1_555
C4 C3 1_555 1_555
H5 C4 1_555 1_555
C5 C4 1_555 1_555
H6 C5 1_555 1_555
C6 C1 1_555 1_555
C7 N2 1_555 1_555
C8 N1 1_555 1_555
C9 N3 1_555 1_555
C10 C9 1_555 1_555
C11 C10 1_555 1_555
H7 C11 1_555 1_555
C12 C11 1_555 1_555
H8 C12 1_555 1_555
C13 N4 1_555 1_555
H9 C13 1_555 1_555
C14 C10 1_555 1_555
H10 C14 1_555 1_555
C5 C6 1_555 1_555
C6 C7 1_555 1_555
C7 C8 1_555 1_555
C13 C14 1_555 1_555

#END
