
#######################################################################
#
#                 Cambridge Crystallographic Data Centre
#                                CCDC 
#
#######################################################################
#
# If this CIF has been generated from an entry in the Cambridge 
# Structural Database, then it will include bibliographic, chemical, 
# crystal, experimental, refinement or atomic coordinate data resulting 
# from the CCDC's data processing and validation procedures.
#
#######################################################################

data_VEMBUL
_chemical_formula_moiety         'C10 H22 N2 O8 S2,2(H2 O1)'
_chemical_name_systematic        
"2,2'-Dihydroxy-3,3'-(piperazinediium-1,4-diyl)bis(propanesulfonate) dihydrate"
_symmetry_cell_setting           monoclinic
_symmetry_space_group_name_H-M   'P 21/n'
_symmetry_Int_Tables_number      14
_space_group_name_Hall           '-P 2yn'
loop_
_symmetry_equiv_pos_site_id
_symmetry_equiv_pos_as_xyz
1 x,y,z
2 1/2-x,1/2+y,1/2-z
3 -x,-y,-z
4 1/2+x,1/2-y,1/2+z
_cell_length_a                   8.6675(8)
_cell_length_b                   7.2050(6)
_cell_length_c                   13.1980(10)
_cell_angle_alpha                90
_cell_angle_beta                 96.8590(10)
_cell_angle_gamma                90
_cell_volume                     818.308
_exptl_crystal_colour            colorless
_exptl_crystal_description       block
_cell_formula_units_Z            2
loop_
_atom_site_label
_atom_site_type_symbol
_atom_site_fract_x
_atom_site_fract_y
_atom_site_fract_z
S1 S -0.06801(5) 1.06546(7) 0.32225(4)
O1 O -0.0529(2) 1.0688(2) 0.21380(10)
O2 O -0.2272(2) 1.0943(2) 0.34320(10)
O3 O 0.0388(2) 1.1917(2) 0.37960(10)
O4 O 0.2026(2) 0.7695(2) 0.27390(10)
N1 N 0.3542(2) 0.5628(2) 0.44190(10)
C1 C -0.0209(2) 0.8371(3) 0.3671(2)
C2 C 0.1515(2) 0.7918(3) 0.3717(2)
C3 C 0.1849(2) 0.6160(3) 0.4348(2)
C4 C 0.3757(2) 0.3671(3) 0.47960(10)
C5 C 0.4550(2) 0.6897(3) 0.51170(10)
H1 H 0.150(2) 0.678(2) 0.249(2)
H4 H 0.378(3) 0.574(3) 0.3820(10)
H5 H -0.0524 0.8231 0.4348
H6 H -0.0797 0.7484 0.3226
H7 H 0.2105 0.8939 0.4067
H8 H 0.1567 0.6360 0.5029
H9 H 0.1217 0.5152 0.4039
H10 H 0.3145 0.2840 0.4329
H11 H 0.3387 0.3564 0.5458
H12 H 0.4203 0.6876 0.5789
H13 H 0.4444 0.8157 0.4860
S1B S 1.06801(5) -0.06546(7) 0.67775(4)
O1B O 1.0529(2) -0.0688(2) 0.78620(10)
O2B O 1.2272(2) -0.0943(2) 0.65680(10)
O3B O 0.9612(2) -0.1917(2) 0.62040(10)
O4B O 0.7974(2) 0.2305(2) 0.72610(10)
N1B N 0.6458(2) 0.4372(2) 0.55810(10)
C1B C 1.0209(2) 0.1629(3) 0.6329(2)
C2B C 0.8485(2) 0.2082(3) 0.6283(2)
C3B C 0.8151(2) 0.3840(3) 0.5652(2)
C4B C 0.6243(2) 0.6329(3) 0.52040(10)
C5B C 0.5450(2) 0.3103(3) 0.48830(10)
H1B H 0.850(2) 0.322(2) 0.751(2)
H4B H 0.622(3) 0.426(3) 0.6180(10)
H5B H 1.0524 0.1769 0.5652
H6B H 1.0797 0.2516 0.6774
H7B H 0.7895 0.1061 0.5933
H8B H 0.8433 0.3640 0.4971
H9B H 0.8783 0.4848 0.5961
H10B H 0.6855 0.7160 0.5671
H11B H 0.6613 0.6436 0.4542
H12B H 0.5797 0.3124 0.4211
H13B H 0.5556 0.1843 0.5140
O5 O 0.0280(2) 0.4887(3) 0.18040(10)
H2 H 0.053(4) 0.391(3) 0.213(2)
H3 H -0.0690(10) 0.493(4) 0.180(2)
loop_
_geom_bond_atom_site_label_1
_geom_bond_atom_site_label_2
_geom_bond_site_symmetry_1
_geom_bond_site_symmetry_2
S1 O1 1_555 1_555
O2 S1 1_555 1_555
O3 S1 1_555 1_555
O4 C2 1_555 1_555
O5 H2 1_555 1_555
N1 C3 1_555 1_555
C1 S1 1_555 1_555
C2 C1 1_555 1_555
C3 C2 1_555 1_555
C4 N1 1_555 1_555
C5 N1 1_555 1_555
H1 O4 1_555 1_555
H3 O5 1_555 1_555
H4 N1 1_555 1_555
H5 C1 1_555 1_555
H6 C1 1_555 1_555
H7 C2 1_555 1_555
H8 C3 1_555 1_555
H9 C3 1_555 1_555
H10 C4 1_555 1_555
H11 C4 1_555 1_555
H12 C5 1_555 1_555
H13 C5 1_555 1_555
S1B O1B 1_555 1_555
O2B S1B 1_555 1_555
O3B S1B 1_555 1_555
O4B C2B 1_555 1_555
N1B C3B 1_555 1_555
C1B S1B 1_555 1_555
C2B C1B 1_555 1_555
C3B C2B 1_555 1_555
C4B C5 1_555 1_555
C5B C4 1_555 1_555
H1B O4B 1_555 1_555
H4B N1B 1_555 1_555
H5B C1B 1_555 1_555
H6B C1B 1_555 1_555
H7B C2B 1_555 1_555
H8B C3B 1_555 1_555
H9B C3B 1_555 1_555
H10B C4B 1_555 1_555
H11B C4B 1_555 1_555
H12B C5B 1_555 1_555
H13B C5B 1_555 1_555
N1B C4B 1_555 1_555
N1B C5B 1_555 1_555

#END
