
#######################################################################
#
#                 Cambridge Crystallographic Data Centre
#                                CCDC 
#
#######################################################################
#
# If this CIF has been generated from an entry in the Cambridge 
# Structural Database, then it will include bibliographic, chemical, 
# crystal, experimental, refinement or atomic coordinate data resulting 
# from the CCDC's data processing and validation procedures.
#
#######################################################################

data_VEMCIC
_chemical_formula_moiety         'C24 H20 I1 N1 O1'
_chemical_name_systematic        
(E)-3-(2-iodo-2-phenylethenyl)-1-methyl-3-(4-methylphenyl)-1,3-dihydro-2H-indol-2-one
_symmetry_cell_setting           orthorhombic
_symmetry_space_group_name_H-M   'P b c a'
_symmetry_Int_Tables_number      61
_space_group_name_Hall           '-P 2ac 2ab'
loop_
_symmetry_equiv_pos_site_id
_symmetry_equiv_pos_as_xyz
1 x,y,z
2 1/2-x,-y,1/2+z
3 -x,1/2+y,1/2-z
4 1/2+x,1/2-y,-z
5 -x,-y,-z
6 1/2+x,y,1/2-z
7 x,1/2-y,1/2+z
8 1/2-x,1/2+y,z
_cell_length_a                   14.565(3)
_cell_length_b                   11.480(2)
_cell_length_c                   24.047(5)
_cell_angle_alpha                90
_cell_angle_beta                 90
_cell_angle_gamma                90
_cell_volume                     4020.81
_exptl_crystal_colour            colorless
_exptl_crystal_description       block
_chemical_melting_point          '122-125 deg.C'
_cell_formula_units_Z            8
loop_
_atom_site_label
_atom_site_type_symbol
_atom_site_fract_x
_atom_site_fract_y
_atom_site_fract_z
O1 O 0.48747(12) 0.49950(15) 0.28225(7)
N1 N 0.53649(13) 0.68858(16) 0.29374(8)
C1 C 0.51668(16) 0.7159(2) 0.38719(9)
C2 C 0.52109(17) 0.7776(2) 0.43639(10)
H1 H 0.5031 0.7435 0.4697
C3 C 0.55298(19) 0.8921(2) 0.43509(11)
H2 H 0.5567 0.9346 0.4679
C4 C 0.57928(19) 0.9429(2) 0.38530(12)
H3 H 0.5996 1.0197 0.3852
C5 C 0.57590(17) 0.8814(2) 0.33538(11)
H4 H 0.5937 0.9154 0.3020
C6 C 0.54504(15) 0.76809(19) 0.33761(9)
C7 C 0.50068(15) 0.5845(2) 0.31091(9)
C8 C 0.48291(15) 0.5933(2) 0.37482(9)
C9 C 0.53877(16) 0.4960(2) 0.40232(9)
C10 C 0.50610(18) 0.3818(2) 0.40073(10)
H5 H 0.4505 0.3657 0.3833
C11 C 0.55589(18) 0.2925(2) 0.42486(10)
H6 H 0.5329 0.2170 0.4236
C12 C 0.63950(18) 0.3130(2) 0.45100(10)
C13 C 0.67257(17) 0.4264(2) 0.45139(11)
H7 H 0.7288 0.4422 0.4680
C14 C 0.62298(17) 0.5167(2) 0.42731(10)
H8 H 0.6466 0.5920 0.4280
C15 C 0.6919(2) 0.2165(3) 0.47936(13)
H9 H 0.6712 0.2092 0.5171
H10 H 0.7563 0.2343 0.4790
H11 H 0.6815 0.1445 0.4600
C16 C 0.38287(17) 0.5797(2) 0.39127(9)
H12 H 0.3722 0.5606 0.4283
C17 C 0.30831(15) 0.5916(2) 0.35961(10)
C18 C 0.30075(15) 0.6286(2) 0.30100(10)
C19 C 0.26354(17) 0.5543(2) 0.26121(10)
H13 H 0.2430 0.4809 0.2719
C20 C 0.25661(19) 0.5875(3) 0.20618(11)
H14 H 0.2313 0.5371 0.1800
C21 C 0.28793(18) 0.6969(3) 0.19026(11)
H15 H 0.2838 0.7197 0.1532
C22 C 0.32506(18) 0.7718(2) 0.22898(12)
H16 H 0.3465 0.8446 0.2180
C23 C 0.33055(16) 0.7386(2) 0.28483(11)
H17 H 0.3541 0.7899 0.3111
C24 C 0.55856(17) 0.7140(2) 0.23597(10)
H18 H 0.5219 0.7783 0.2233
H19 H 0.5459 0.6467 0.2135
H20 H 0.6224 0.7337 0.2329
I1 I 0.1794(2) 0.5441(3) 0.39568(16)
I2? I 0.1792(3) 0.5611(9) 0.3987(2)
loop_
_geom_bond_atom_site_label_1
_geom_bond_atom_site_label_2
_geom_bond_site_symmetry_1
_geom_bond_site_symmetry_2
O1 C7 1_555 1_555
N1 C6 1_555 1_555
C1 C2 1_555 1_555
C2 H1 1_555 1_555
C3 C2 1_555 1_555
H2 C3 1_555 1_555
C4 C3 1_555 1_555
H3 C4 1_555 1_555
C5 C4 1_555 1_555
H4 C5 1_555 1_555
C6 C1 1_555 1_555
C7 N1 1_555 1_555
C8 C1 1_555 1_555
C9 C8 1_555 1_555
C10 C9 1_555 1_555
H5 C10 1_555 1_555
C11 C10 1_555 1_555
H6 C11 1_555 1_555
C12 C11 1_555 1_555
C13 C12 1_555 1_555
H7 C13 1_555 1_555
C14 C9 1_555 1_555
H8 C14 1_555 1_555
C15 C12 1_555 1_555
H9 C15 1_555 1_555
H10 C15 1_555 1_555
H11 C15 1_555 1_555
C16 C8 1_555 1_555
H12 C16 1_555 1_555
C17 C16 1_555 1_555
C18 C17 1_555 1_555
C19 C18 1_555 1_555
H13 C19 1_555 1_555
C20 C19 1_555 1_555
H14 C20 1_555 1_555
C21 C20 1_555 1_555
H15 C21 1_555 1_555
C22 C21 1_555 1_555
H16 C22 1_555 1_555
C23 C18 1_555 1_555
H17 C23 1_555 1_555
C24 N1 1_555 1_555
H18 C24 1_555 1_555
H19 C24 1_555 1_555
H20 C24 1_555 1_555
I1 C17 1_555 1_555
C5 C6 1_555 1_555
C7 C8 1_555 1_555
C13 C14 1_555 1_555
C22 C23 1_555 1_555

#END
