
#######################################################################
#
#                 Cambridge Crystallographic Data Centre
#                                CCDC 
#
#######################################################################
#
# If this CIF has been generated from an entry in the Cambridge 
# Structural Database, then it will include bibliographic, chemical, 
# crystal, experimental, refinement or atomic coordinate data resulting 
# from the CCDC's data processing and validation procedures.
#
#######################################################################

data_VEMCEX
_chemical_formula_moiety         'C22 H22 N2 O1 S2'
_chemical_name_systematic        
N-(1,3-Benzothiazol-2-yl(1-naphthyl)methyl)-2-methylpropane-2-sulfinamide
_symmetry_cell_setting           monoclinic
_symmetry_space_group_name_H-M   'P 21'
_symmetry_Int_Tables_number      4
_space_group_name_Hall           'P 2yb'
loop_
_symmetry_equiv_pos_site_id
_symmetry_equiv_pos_as_xyz
1 x,y,z
2 -x,1/2+y,-z
_cell_length_a                   10.546(2)
_cell_length_b                   9.7680(5)
_cell_length_c                   10.9035(19)
_cell_angle_alpha                90
_cell_angle_beta                 115.41(2)
_cell_angle_gamma                90
_cell_volume                     1014.55
_exptl_crystal_colour            'light colorless'
_exptl_crystal_description       block
_cell_formula_units_Z            2
loop_
_atom_site_label
_atom_site_type_symbol
_atom_site_fract_x
_atom_site_fract_y
_atom_site_fract_z
S1 S 0.78206(7) 0.41566(7) 1.11051(8)
S2 S 0.55812(6) 0.47719(6) 0.74660(6)
O1 O 0.4405(2) 0.56007(18) 0.6484(2)
N1 N 0.6880(2) 0.6494(2) 1.1485(2)
N2 N 0.5167(2) 0.4117(2) 0.8664(2)
C1 C 0.4031(3) 0.4657(3) 1.0141(2)
C2 C 0.4446(3) 0.3898(2) 1.1302(3)
H1 H 0.5397 0.3722 1.1809
C3 C 0.3477(4) 0.3377(3) 1.1751(3)
H2 H 0.3781 0.2840 1.2529
C4 C 0.2094(4) 0.3665(3) 1.1036(4)
H3 H 0.1455 0.3331 1.1343
C5 C 0.1601(3) 0.4456(3) 0.9847(3)
C6 C 0.0156(3) 0.4795(4) 0.9125(4)
H4 H -0.0481 0.4498 0.9450
C7 C -0.0307(3) 0.5547(4) 0.7967(4)
H5 H -0.1251 0.5776 0.7513
C8 C 0.0625(3) 0.5970(3) 0.7466(3)
H6 H 0.0291 0.6454 0.6654
C9 C 0.2028(3) 0.5695(3) 0.8132(3)
H7 H 0.2633 0.6001 0.7773
C10 C 0.2569(3) 0.4950(3) 0.9360(3)
C11 C 0.5086(2) 0.5146(2) 0.9627(2)
H8 H 0.4739 0.6005 0.9132
C12 C 0.6527(2) 0.5401(2) 1.0746(3)
C13 C 0.8954(3) 0.5186(3) 1.2403(3)
C14 C 1.0351(3) 0.4968(4) 1.3300(3)
H9 H 1.0801 0.4154 1.3280
C15 C 1.1051(3) 0.5980(4) 1.4215(3)
H10 H 1.1983 0.5848 1.4826
C16 C 1.0385(3) 0.7196(4) 1.4239(3)
H11 H 1.0884 0.7875 1.4856
C17 C 0.9010(3) 0.7415(3) 1.3372(3)
H12 H 0.8568 0.8229 1.3407
C18 C 0.8280(3) 0.6404(3) 1.2438(3)
C19 C 0.5624(3) 0.3181(3) 0.6579(3)
C20 C 0.4176(3) 0.2535(3) 0.5932(4)
H13 H 0.3992 0.2073 0.6616
H14 H 0.4138 0.1888 0.5254
H15 H 0.3483 0.3234 0.5517
C21 C 0.6048(3) 0.3663(3) 0.5472(3)
H16 H 0.5338 0.4262 0.4857
H17 H 0.6148 0.2885 0.4982
H18 H 0.6925 0.4145 0.5881
C22 C 0.6735(3) 0.2235(3) 0.7575(3)
H19 H 0.7626 0.2695 0.7951
H20 H 0.6800 0.1422 0.7110
H21 H 0.6480 0.1991 0.8292
H22 H 0.456(3) 0.359(3) 0.837(3)
loop_
_geom_bond_atom_site_label_1
_geom_bond_atom_site_label_2
_geom_bond_site_symmetry_1
_geom_bond_site_symmetry_2
S1 C12 1_555 1_555
S2 O1 1_555 1_555
N1 C12 1_555 1_555
N2 S2 1_555 1_555
C1 C2 1_555 1_555
C2 H1 1_555 1_555
C3 C2 1_555 1_555
H2 C3 1_555 1_555
C4 C3 1_555 1_555
H3 C4 1_555 1_555
C5 C4 1_555 1_555
C6 C5 1_555 1_555
H4 C6 1_555 1_555
C7 C6 1_555 1_555
H5 C7 1_555 1_555
C8 C7 1_555 1_555
H6 C8 1_555 1_555
C9 C8 1_555 1_555
H7 C9 1_555 1_555
C10 C1 1_555 1_555
C11 N2 1_555 1_555
H8 C11 1_555 1_555
C12 C11 1_555 1_555
C13 S1 1_555 1_555
C14 C13 1_555 1_555
H9 C14 1_555 1_555
C15 C14 1_555 1_555
H10 C15 1_555 1_555
C16 C15 1_555 1_555
H11 C16 1_555 1_555
C17 C16 1_555 1_555
H12 C17 1_555 1_555
C18 N1 1_555 1_555
C19 S2 1_555 1_555
C20 C19 1_555 1_555
H13 C20 1_555 1_555
H14 C20 1_555 1_555
H15 C20 1_555 1_555
C21 C19 1_555 1_555
H16 C21 1_555 1_555
H17 C21 1_555 1_555
H18 C21 1_555 1_555
C22 C19 1_555 1_555
H19 C22 1_555 1_555
H20 C22 1_555 1_555
H21 C22 1_555 1_555
H22 N2 1_555 1_555
C1 C11 1_555 1_555
C5 C10 1_555 1_555
C9 C10 1_555 1_555
C13 C18 1_555 1_555
C17 C18 1_555 1_555

#END
