
#######################################################################
#
#                 Cambridge Crystallographic Data Centre
#                                CCDC 
#
#######################################################################
#
# If this CIF has been generated from an entry in the Cambridge 
# Structural Database, then it will include bibliographic, chemical, 
# crystal, experimental, refinement or atomic coordinate data resulting 
# from the CCDC's data processing and validation procedures.
#
#######################################################################

data_VEMCOH
_chemical_formula_moiety         'C26 H23 F1 N2 O2,C2 H6 O1 S1'
_chemical_name_systematic        
'Methyl 2-((4-fluorophenyl)(1H-indol-3-yl)methyl)-3-((4-methylphenyl)amino)acrylate dimethyl sulfoxide solvate'
_symmetry_cell_setting           triclinic
_symmetry_space_group_name_H-M   'P -1'
_symmetry_Int_Tables_number      2
_space_group_name_Hall           '-P 1'
loop_
_symmetry_equiv_pos_site_id
_symmetry_equiv_pos_as_xyz
1 x,y,z
2 -x,-y,-z
_cell_length_a                   7.5917(14)
_cell_length_b                   13.151(3)
_cell_length_c                   14.329(3)
_cell_angle_alpha                92.545(3)
_cell_angle_beta                 103.887(2)
_cell_angle_gamma                106.493(2)
_cell_volume                     1321.86
_cell_formula_units_Z            2
loop_
_atom_site_label
_atom_site_type_symbol
_atom_site_fract_x
_atom_site_fract_y
_atom_site_fract_z
C1 C 0.4197(5) 1.1292(3) 0.7459(3)
H1 H 0.4857 1.1759 0.8021
C2 C 0.4412(6) 1.1606(4) 0.6573(3)
H2 H 0.5221 1.2281 0.6555
C3 C 0.3465(7) 1.0951(4) 0.5721(4)
C4 C 0.3746(10) 1.1293(5) 0.4755(4)
H3 H 0.3381 1.1928 0.4647
H4 H 0.2972 1.0732 0.4245
H5 H 0.5061 1.1433 0.4762
C5 C 0.2267(9) 0.9966(4) 0.5793(4)
H6 H 0.1583 0.9507 0.5229
C6 C 0.2047(8) 0.9639(4) 0.6662(4)
H7 H 0.1232 0.8965 0.6677
C7 C 0.3023(5) 1.0299(3) 0.7521(3)
C8 C 0.2131(5) 0.8970(3) 0.8601(3)
H8 H 0.1864 0.8441 0.8090
C9 C 0.1767(4) 0.8626(3) 0.9427(3)
C10 C 0.2054(5) 0.9403(3) 1.0248(3)
C11 C 0.1829(7) 0.9692(4) 1.1841(3)
H9 H 0.3138 1.0120 1.2069
H10 H 0.1448 0.9308 1.2350
H11 H 0.1046 1.0145 1.1649
C12 C 0.1053(4) 0.7424(3) 0.9514(3)
H12 H 0.0117 0.7333 0.9894
C13 C 0.0034(5) 0.6764(3) 0.8546(3)
C14 C 0.0525(5) 0.6001(3) 0.8082(3)
H13 H 0.1624 0.5808 0.8315
C15 C -0.2247(5) 0.6025(3) 0.7136(3)
C16 C -0.3949(7) 0.5813(4) 0.6421(3)
H14 H -0.4256 0.5300 0.5892
C17 C -0.5152(7) 0.6384(5) 0.6521(4)
H15 H -0.6302 0.6251 0.6052
C18 C -0.4703(6) 0.7162(4) 0.7308(4)
H16 H -0.5553 0.7539 0.7352
C19 C -0.3014(5) 0.7379(3) 0.8022(3)
H17 H -0.2719 0.7899 0.8544
C20 C -0.1746(5) 0.6796(3) 0.7944(3)
C21 C 0.2639(5) 0.7000(3) 1.0069(2)
C22 C 0.4467(5) 0.7339(3) 0.9928(3)
H18 H 0.4752 0.7865 0.9528
C23 C 0.5854(6) 0.6899(4) 1.0378(3)
H19 H 0.7073 0.7128 1.0290
C24 C 0.5387(7) 0.6118(4) 1.0956(4)
C25 C 0.3653(8) 0.5779(4) 1.1119(4)
H20 H 0.3388 0.5259 1.1527
C26 C 0.2261(6) 0.6228(3) 1.0661(3)
H21 H 0.1052 0.5996 1.0762
F1 F 0.6758(5) 0.5682(3) 1.1393(3)
N1 N 0.2837(4) 0.9988(2) 0.8421(2)
H28 H 0.3200 1.0484 0.8900
N2 N -0.0807(5) 0.5559(3) 0.7234(2)
H29 H -0.0759 0.5073 0.6828
O1 O 0.2611(4) 1.0376(2) 1.0260(2)
O2 O 0.1610(4) 0.8947(2) 1.10259(19)
C27 C -0.1539(9) 0.6338(8) 0.4466(12)
H22 H -0.1452 0.5810 0.4903
H23 H -0.2334 0.5993 0.3840
H24 H -0.2079 0.6836 0.4709
C28 C -0.0139(13) 0.7464(9) 0.3262(5)
H25 H 0.0712 0.7486 0.2860
H26 H -0.0239 0.8167 0.3385
H27 H -0.1374 0.6984 0.2940
O3 O 0.1594(6) 0.6190(3) 0.4182(3)
S1 S 0.0744(2) 0.70194(13) 0.43637(14)
loop_
_geom_bond_atom_site_label_1
_geom_bond_atom_site_label_2
_geom_bond_site_symmetry_1
_geom_bond_site_symmetry_2
C1 H1 1_555 1_555
C2 C1 1_555 1_555
H2 C2 1_555 1_555
C3 C2 1_555 1_555
C4 C3 1_555 1_555
H3 C4 1_555 1_555
H4 C4 1_555 1_555
H5 C4 1_555 1_555
C5 C3 1_555 1_555
H6 C5 1_555 1_555
C6 C5 1_555 1_555
H7 C6 1_555 1_555
C7 C1 1_555 1_555
C8 H8 1_555 1_555
C9 C8 1_555 1_555
C10 C9 1_555 1_555
C11 H9 1_555 1_555
H10 C11 1_555 1_555
H11 C11 1_555 1_555
C12 C9 1_555 1_555
H12 C12 1_555 1_555
C13 C12 1_555 1_555
C14 C13 1_555 1_555
H13 C14 1_555 1_555
C15 C16 1_555 1_555
C16 H14 1_555 1_555
C17 C16 1_555 1_555
H15 C17 1_555 1_555
C18 C17 1_555 1_555
H16 C18 1_555 1_555
C19 C18 1_555 1_555
H17 C19 1_555 1_555
C20 C13 1_555 1_555
C21 C12 1_555 1_555
C22 C21 1_555 1_555
H18 C22 1_555 1_555
C23 C22 1_555 1_555
H19 C23 1_555 1_555
C24 C23 1_555 1_555
C25 C24 1_555 1_555
H20 C25 1_555 1_555
C26 C21 1_555 1_555
H21 C26 1_555 1_555
C27 H22 1_555 1_555
H23 C27 1_555 1_555
H24 C27 1_555 1_555
C28 H25 1_555 1_555
H26 C28 1_555 1_555
H27 C28 1_555 1_555
F1 C24 1_555 1_555
N1 C7 1_555 1_555
H28 N1 1_555 1_555
N2 C14 1_555 1_555
H29 N2 1_555 1_555
O1 C10 1_555 1_555
O2 C10 1_555 1_555
O3 S1 1_555 1_555
S1 C27 1_555 1_555
C6 C7 1_555 1_555
C8 N1 1_555 1_555
C11 O2 1_555 1_555
C15 C20 1_555 1_555
C15 N2 1_555 1_555
C19 C20 1_555 1_555
C25 C26 1_555 1_555
C28 S1 1_555 1_555

#END
