
#######################################################################
#
#                 Cambridge Crystallographic Data Centre
#                                CCDC 
#
#######################################################################
#
# If this CIF has been generated from an entry in the Cambridge 
# Structural Database, then it will include bibliographic, chemical, 
# crystal, experimental, refinement or atomic coordinate data resulting 
# from the CCDC's data processing and validation procedures.
#
#######################################################################

data_VEMCUO
_chemical_formula_moiety         'C32 H28 N2 O2,C1 H2 Cl2'
_chemical_name_systematic        
"1,1'-dimethyl-3,3'-bis(4-methylphenyl)-1,1',3,3'-tetrahydro-2H,2'H-[3,3'-biindole]-2,2'-dione dichloromethane solvate"
_symmetry_cell_setting           monoclinic
_symmetry_space_group_name_H-M   'P 21/c'
_symmetry_Int_Tables_number      14
_space_group_name_Hall           '-P 2ybc'
loop_
_symmetry_equiv_pos_site_id
_symmetry_equiv_pos_as_xyz
1 x,y,z
2 -x,1/2+y,1/2-z
3 -x,-y,-z
4 x,1/2-y,1/2+z
_cell_length_a                   10.690(2)
_cell_length_b                   28.425(6)
_cell_length_c                   9.586(2)
_cell_angle_alpha                90
_cell_angle_beta                 111.155(3)
_cell_angle_gamma                90
_cell_volume                     2716.53
_exptl_crystal_colour            colorless
_exptl_crystal_description       block
_chemical_melting_point          '182-185 deg.C'
_cell_formula_units_Z            4
loop_
_atom_site_label
_atom_site_type_symbol
_atom_site_fract_x
_atom_site_fract_y
_atom_site_fract_z
O1 O 0.48690(13) 0.69681(4) 0.38623(14)
O2 O 0.41460(13) 0.67336(4) 0.01592(15)
N1 N 0.61452(15) 0.73382(5) 0.27137(16)
N2 N 0.47686(15) 0.60374(5) -0.06222(17)
C1 C 0.64461(16) 0.65133(6) 0.29985(19)
C2 C 0.56859(17) 0.69568(6) 0.32478(19)
C3 C 0.5627(2) 0.78106(6) 0.2708(2)
H1 H 0.516076 0.791334 0.167348
H2 H 0.637161 0.802570 0.320491
H3 H 0.499913 0.781178 0.324184
C4 C 0.70772(17) 0.72119(6) 0.20612(19)
C5 C 0.77447(18) 0.75089(6) 0.1423(2)
H4 H 0.761821 0.783994 0.140727
C6 C 0.86103(19) 0.73043(7) 0.0805(2)
H5 H 0.908394 0.749924 0.035921
C7 C 0.87920(18) 0.68213(7) 0.0830(2)
H6 H 0.936867 0.668835 0.037843
C8 C 0.81298(18) 0.65271(6) 0.1517(2)
H7 H 0.826718 0.619646 0.154886
C9 C 0.72730(17) 0.67251(6) 0.21478(19)
C10 C 0.73130(17) 0.63227(6) 0.45507(19)
C11 C 0.86999(18) 0.62748(7) 0.4987(2)
H8 H 0.913018 0.636681 0.431909
C12 C 0.94644(19) 0.60942(7) 0.6386(2)
H9 H 1.040680 0.606335 0.665018
C13 C 0.8883(2) 0.59582(7) 0.7403(2)
C14 C 0.75070(19) 0.60221(6) 0.6987(2)
H10 H 0.708616 0.594064 0.767331
C15 C 0.67295(18) 0.62019(6) 0.55941(19)
H11 H 0.579238 0.624326 0.534845
C16 C 0.9709(2) 0.57486(8) 0.8901(2)
H12 H 0.981057 0.540961 0.878843
H13 H 0.925737 0.580308 0.961210
H14 H 1.059619 0.589728 0.927325
C17 C 0.54292(17) 0.61331(6) 0.19992(19)
C18 C 0.46994(17) 0.63528(6) 0.0427(2)
C19 C 0.4087(2) 0.61043(7) -0.2231(2)
H15 H 0.345492 0.636708 -0.240977
H16 H 0.359836 0.581692 -0.267383
H17 H 0.475111 0.617385 -0.268909
C20 C 0.56640(17) 0.56745(6) 0.0043(2)
C21 C 0.6096(2) 0.53210(6) -0.0669(2)
H18 H 0.575093 0.529244 -0.172804
C22 C 0.70542(19) 0.50091(6) 0.0224(2)
H19 H 0.737433 0.476427 -0.023337
C23 C 0.75485(18) 0.50485(6) 0.1762(2)
H20 H 0.820757 0.483243 0.234663
C24 C 0.70880(17) 0.54049(6) 0.2475(2)
H21 H 0.742471 0.543000 0.353436
C25 C 0.61391(17) 0.57169(6) 0.1607(2)
C26 C 0.43205(17) 0.59626(6) 0.25674(19)
C27 C 0.44535(18) 0.55391(6) 0.3338(2)
H22 H 0.525850 0.536312 0.356739
C28 C 0.34347(19) 0.53679(7) 0.3778(2)
H23 H 0.355529 0.507745 0.430071
C29 C 0.22449(18) 0.56146(7) 0.3467(2)
C30 C 0.21146(18) 0.60397(7) 0.2712(2)
H24 H 0.131471 0.621750 0.250051
C31 C 0.31221(18) 0.62109(6) 0.2260(2)
H25 H 0.299647 0.650094 0.173457
C32 C 0.1128(2) 0.54252(8) 0.3927(3)
H26 H 0.117790 0.508096 0.397433
H27 H 0.025982 0.552125 0.319147
H28 H 0.122258 0.555058 0.491192
Cl1 Cl 0.10531(6) 0.79551(2) 0.37013(8)
Cl2 Cl 0.17307(8) 0.70434(3) 0.51670(9)
C33 C 0.2014(2) 0.74419(9) 0.3897(3)
H29 H 0.297715 0.752634 0.425726
H30 H 0.178409 0.728814 0.290961
loop_
_geom_bond_atom_site_label_1
_geom_bond_atom_site_label_2
_geom_bond_site_symmetry_1
_geom_bond_site_symmetry_2
O1 C2 1_555 1_555
O2 C18 1_555 1_555
N1 C2 1_555 1_555
N2 C18 1_555 1_555
C1 C2 1_555 1_555
C3 N1 1_555 1_555
H1 C3 1_555 1_555
H2 C3 1_555 1_555
H3 C3 1_555 1_555
C4 N1 1_555 1_555
C5 C4 1_555 1_555
H4 C5 1_555 1_555
C6 C5 1_555 1_555
H5 C6 1_555 1_555
C7 C6 1_555 1_555
H6 C7 1_555 1_555
C8 C7 1_555 1_555
H7 C8 1_555 1_555
C9 C1 1_555 1_555
C10 C1 1_555 1_555
C11 C10 1_555 1_555
H8 C11 1_555 1_555
C12 C11 1_555 1_555
H9 C12 1_555 1_555
C13 C12 1_555 1_555
C14 C13 1_555 1_555
H10 C14 1_555 1_555
C15 C10 1_555 1_555
H11 C15 1_555 1_555
C16 C13 1_555 1_555
H12 C16 1_555 1_555
H13 C16 1_555 1_555
H14 C16 1_555 1_555
C17 C1 1_555 1_555
C18 C17 1_555 1_555
C19 N2 1_555 1_555
H15 C19 1_555 1_555
H16 C19 1_555 1_555
H17 C19 1_555 1_555
C20 N2 1_555 1_555
C21 C20 1_555 1_555
H18 C21 1_555 1_555
C22 C21 1_555 1_555
H19 C22 1_555 1_555
C23 C22 1_555 1_555
H20 C23 1_555 1_555
C24 C23 1_555 1_555
H21 C24 1_555 1_555
C25 C17 1_555 1_555
C26 C17 1_555 1_555
C27 C26 1_555 1_555
H22 C27 1_555 1_555
C28 C27 1_555 1_555
H23 C28 1_555 1_555
C29 C28 1_555 1_555
C30 C29 1_555 1_555
H24 C30 1_555 1_555
C31 C26 1_555 1_555
H25 C31 1_555 1_555
C32 C29 1_555 1_555
H26 C32 1_555 1_555
H27 C32 1_555 1_555
H28 C32 1_555 1_555
Cl1 C33 1_555 1_555
Cl2 C33 1_555 1_555
C33 H29 1_555 1_555
H30 C33 1_555 1_555
C4 C9 1_555 1_555
C8 C9 1_555 1_555
C14 C15 1_555 1_555
C20 C25 1_555 1_555
C24 C25 1_555 1_555
C30 C31 1_555 1_555

#END
