
#######################################################################
#
#                 Cambridge Crystallographic Data Centre
#                                CCDC 
#
#######################################################################
#
# If this CIF has been generated from an entry in the Cambridge 
# Structural Database, then it will include bibliographic, chemical, 
# crystal, experimental, refinement or atomic coordinate data resulting 
# from the CCDC's data processing and validation procedures.
#
#######################################################################

data_VEMCIB
_chemical_formula_moiety         'C27 H26 N2 O2'
_chemical_name_systematic        
'Methyl 2-(1H-indol-3-yl(4-methylphenyl)methyl)-3-((4-methylphenyl)amino)acrylate'
_symmetry_cell_setting           triclinic
_symmetry_space_group_name_H-M   'P -1'
_symmetry_Int_Tables_number      2
_space_group_name_Hall           '-P 1'
loop_
_symmetry_equiv_pos_site_id
_symmetry_equiv_pos_as_xyz
1 x,y,z
2 -x,-y,-z
_cell_length_a                   9.940(2)
_cell_length_b                   11.093(3)
_cell_length_c                   11.814(3)
_cell_angle_alpha                68.614(3)
_cell_angle_beta                 71.473(3)
_cell_angle_gamma                89.490(3)
_cell_volume                     1141.63
_cell_formula_units_Z            2
loop_
_atom_site_label
_atom_site_type_symbol
_atom_site_fract_x
_atom_site_fract_y
_atom_site_fract_z
C1 C 0.8912(3) 1.2836(3) 0.2266(3)
H1 H 0.9644 1.2307 0.2244
C2 C 0.9231(4) 1.4187(4) 0.1767(3)
H2 H 1.0183 1.4547 0.1428
C3 C 0.8179(5) 1.5007(3) 0.1759(3)
C4 C 0.8558(5) 1.6482(3) 0.1183(3)
H3 H 0.9560 1.6690 0.0996
H4 H 0.8017 1.6842 0.1790
H5 H 0.8336 1.6844 0.0401
C5 C 0.6793(5) 1.4432(4) 0.2264(3)
H6 H 0.6063 1.4960 0.2250
C6 C 0.6444(3) 1.3100(3) 0.2791(3)
H7 H 0.5489 1.2746 0.3148
C7 C 0.7503(3) 1.2285(3) 0.2794(3)
C8 C 0.7935(3) 0.9978(3) 0.3541(2)
H8 H 0.8859 1.0228 0.3470
C9 C 0.7580(3) 0.8692(3) 0.3852(2)
C10 C 0.6182(3) 0.8274(3) 0.3902(3)
C11 C 0.4665(3) 0.6584(3) 0.3974(3)
H9 H 0.3908 0.6599 0.4713
H10 H 0.4682 0.5710 0.3999
H11 H 0.4509 0.7145 0.3200
C12 C 0.8632(2) 0.7702(2) 0.4091(2)
H12 H 0.8682 0.7232 0.3522
C13 C 0.8127(3) 0.6683(3) 0.5470(3)
C14 C 0.7566(3) 0.7013(3) 0.6530(3)
H13 H 0.7472 0.7882 0.6410
C15 C 0.7136(3) 0.6063(4) 0.7782(3)
H14 H 0.6765 0.6308 0.8484
C16 C 0.7256(3) 0.4758(3) 0.7993(3)
C17 C 0.6761(4) 0.3712(3) 0.9364(3)
H15 H 0.7072 0.4014 0.9916
H16 H 0.7164 0.2926 0.9351
H17 H 0.5737 0.3541 0.9684
C18 C 0.7834(3) 0.4438(3) 0.6933(3)
H18 H 0.7946 0.3572 0.7051
C19 C 0.8253(3) 0.5377(3) 0.5697(3)
H19 H 0.8628 0.5128 0.4999
C20 C 1.0139(3) 0.8331(2) 0.3729(3)
C21 C 1.0873(3) 0.8282(3) 0.4536(3)
H20 H 1.0530 0.7830 0.5426
C22 C 1.2348(3) 0.9509(3) 0.2558(3)
C23 C 1.3498(3) 1.0276(3) 0.1508(3)
H21 H 1.4325 1.0538 0.1609
C24 C 1.3363(3) 1.0629(3) 0.0315(4)
H22 H 1.4110 1.1154 -0.0412
C25 C 1.2128(3) 1.0220(3) 0.0166(3)
H23 H 1.2077 1.0461 -0.0659
C26 C 1.0985(3) 0.9466(3) 0.1216(3)
H24 H 1.0164 0.9204 0.1107
C27 C 1.1080(3) 0.9103(2) 0.2448(3)
N1 N 0.7088(2) 1.0935(2) 0.3324(2)
H25 H 0.6195 1.0689 0.3535
N2 N 1.2198(2) 0.8996(2) 0.3844(2)
H26 H 1.2831 0.9103 0.4165
O1 O 0.52003(18) 0.89564(19) 0.38490(19)
O2 O 0.60264(18) 0.7039(2) 0.39899(18)
loop_
_geom_bond_atom_site_label_1
_geom_bond_atom_site_label_2
_geom_bond_site_symmetry_1
_geom_bond_site_symmetry_2
C1 H1 1_555 1_555
C2 C1 1_555 1_555
H2 C2 1_555 1_555
C3 C2 1_555 1_555
C4 C3 1_555 1_555
H3 C4 1_555 1_555
H4 C4 1_555 1_555
H5 C4 1_555 1_555
C5 C3 1_555 1_555
H6 C5 1_555 1_555
C6 C5 1_555 1_555
H7 C6 1_555 1_555
C7 C1 1_555 1_555
C8 H8 1_555 1_555
C9 C8 1_555 1_555
C10 C9 1_555 1_555
C11 H9 1_555 1_555
H10 C11 1_555 1_555
H11 C11 1_555 1_555
C12 C9 1_555 1_555
H12 C12 1_555 1_555
C13 C12 1_555 1_555
C14 C13 1_555 1_555
H13 C14 1_555 1_555
C15 C14 1_555 1_555
H14 C15 1_555 1_555
C16 C15 1_555 1_555
C17 C16 1_555 1_555
H15 C17 1_555 1_555
H16 C17 1_555 1_555
H17 C17 1_555 1_555
C18 C16 1_555 1_555
H18 C18 1_555 1_555
C19 C13 1_555 1_555
H19 C19 1_555 1_555
C20 C12 1_555 1_555
C21 C20 1_555 1_555
H20 C21 1_555 1_555
C22 C23 1_555 1_555
C23 H21 1_555 1_555
C24 C23 1_555 1_555
H22 C24 1_555 1_555
C25 C24 1_555 1_555
H23 C25 1_555 1_555
C26 C25 1_555 1_555
H24 C26 1_555 1_555
C27 C20 1_555 1_555
N1 C7 1_555 1_555
H25 N1 1_555 1_555
N2 C21 1_555 1_555
H26 N2 1_555 1_555
O1 C10 1_555 1_555
O2 C10 1_555 1_555
C6 C7 1_555 1_555
C8 N1 1_555 1_555
C11 O2 1_555 1_555
C18 C19 1_555 1_555
C22 C27 1_555 1_555
C22 N2 1_555 1_555
C26 C27 1_555 1_555

#END
