
#######################################################################
#
#                 Cambridge Crystallographic Data Centre
#                                CCDC 
#
#######################################################################
#
# If this CIF has been generated from an entry in the Cambridge 
# Structural Database, then it will include bibliographic, chemical, 
# crystal, experimental, refinement or atomic coordinate data resulting 
# from the CCDC's data processing and validation procedures.
#
#######################################################################

data_VEMDUP
_chemical_formula_moiety         'C46 H51 N1,C1 H4 O1'
_chemical_name_systematic        
'2,7-di-t-butyl-9,11-bis(4-t-butylphenyl)-10H-phenanthro[4,5-efg]isoindole methanol solvate'
_symmetry_cell_setting           triclinic
_symmetry_space_group_name_H-M   'P -1'
_symmetry_Int_Tables_number      2
_space_group_name_Hall           '-P 1'
loop_
_symmetry_equiv_pos_site_id
_symmetry_equiv_pos_as_xyz
1 x,y,z
2 -x,-y,-z
_cell_length_a                   13.5296(4)
_cell_length_b                   13.6065(5)
_cell_length_c                   22.3735(8)
_cell_angle_alpha                77.037(3)
_cell_angle_beta                 77.723(3)
_cell_angle_gamma                70.457(3)
_cell_volume                     3739.85
_exptl_crystal_colour            colorless
_exptl_crystal_description       polyhedron
_cell_formula_units_Z            4
loop_
_atom_site_label
_atom_site_type_symbol
_atom_site_fract_x
_atom_site_fract_y
_atom_site_fract_z
N1 N 0.48298(18) 0.54357(19) 0.68725(11)
H1 H 0.484(2) 0.494(3) 0.7189(15)
C1 C 0.4315(2) 0.5653(2) 0.63712(13)
C2 C 0.4668(2) 0.6420(2) 0.59398(12)
C3 C 0.4355(2) 0.6982(2) 0.53444(12)
C4 C 0.3583(2) 0.6823(2) 0.50850(13)
H2 H 0.323853 0.631730 0.530817
C5 C 0.3292(2) 0.7379(2) 0.45068(13)
C6 C 0.3806(2) 0.8105(2) 0.41869(13)
H3 H 0.363178 0.847559 0.379116
C7 C 0.4583(2) 0.8316(2) 0.44293(13)
C8 C 0.5099(2) 0.9087(2) 0.40967(13)
H4 H 0.492536 0.945749 0.370085
C9 C 0.5826(2) 0.9295(2) 0.43380(13)
H5 H 0.615116 0.981278 0.410816
C10 C 0.6122(2) 0.8757(2) 0.49301(12)
C11 C 0.6889(2) 0.8976(2) 0.51702(13)
H6 H 0.720804 0.949556 0.493621
C12 C 0.7192(2) 0.8456(2) 0.57366(12)
C13 C 0.6697(2) 0.7703(2) 0.60767(12)
H7 H 0.688399 0.735732 0.647365
C14 C 0.59464(19) 0.7442(2) 0.58578(12)
C15 C 0.5442(2) 0.6641(2) 0.61948(12)
C16 C 0.5531(2) 0.6011(2) 0.67728(12)
C17 C 0.48617(19) 0.7755(2) 0.50163(12)
C18 C 0.56417(19) 0.7982(2) 0.52691(12)
C19 C 0.2425(2) 0.7150(2) 0.42639(13)
C20 C 0.2213(2) 0.7812(3) 0.36294(15)
H8 H 0.167853 0.762121 0.348353
H9 H 0.287149 0.767523 0.333356
H10 H 0.195226 0.856399 0.366444
C21 C 0.2769(2) 0.5969(2) 0.42169(16)
H11 H 0.221727 0.581612 0.406458
H12 H 0.287487 0.554397 0.462739
H13 H 0.343398 0.579379 0.392888
C22 C 0.1390(2) 0.7411(3) 0.47235(14)
H14 H 0.082959 0.727849 0.456777
H15 H 0.117929 0.815705 0.476764
H16 H 0.150030 0.696478 0.512796
C23 C 0.8065(2) 0.8632(2) 0.60030(13)
C24 C 0.8534(2) 0.9464(2) 0.55769(14)
H17 H 0.908185 0.955286 0.576638
H18 H 0.797232 1.013852 0.551543
H19 H 0.884930 0.923363 0.517553
C25 C 0.8961(2) 0.7581(2) 0.60900(15)
H20 H 0.952804 0.768612 0.625400
H21 H 0.924454 0.733862 0.568950
H22 H 0.868134 0.704849 0.638188
C26 C 0.7605(2) 0.8987(2) 0.66385(13)
H23 H 0.816111 0.910394 0.680689
H24 H 0.734311 0.843646 0.692354
H25 H 0.701990 0.964515 0.658942
C27 C 0.3536(2) 0.5116(2) 0.63496(13)
C28 C 0.2516(2) 0.5385(2) 0.66807(14)
H26 H 0.233582 0.586018 0.696709
C29 C 0.1761(2) 0.4969(2) 0.65989(15)
H27 H 0.106923 0.517266 0.682884
C30 C 0.1981(2) 0.4262(2) 0.61897(15)
C31 C 0.3010(2) 0.3976(2) 0.58703(14)
H28 H 0.319267 0.348713 0.559199
C32 C 0.3775(2) 0.4388(2) 0.59486(14)
H29 H 0.447121 0.417247 0.572624
C33 C 0.1105(2) 0.3852(2) 0.60994(17)
C34 C 0.1486(3) 0.3140(3) 0.5607(2)
H30 H 0.089843 0.291560 0.555315
H31 H 0.206567 0.251684 0.573723
H32 H 0.174036 0.353073 0.521273
C35 C 0.0170(2) 0.4794(3) 0.58961(18)
H33 H -0.038992 0.453466 0.583486
H34 H 0.040923 0.520466 0.550646
H35 H -0.010848 0.524347 0.621716
C36 C 0.0727(3) 0.3224(3) 0.67133(19)
H36 H 0.013182 0.300651 0.666352
H37 H 0.049624 0.366861 0.703660
H38 H 0.130982 0.259584 0.683252
C37 C 0.6232(2) 0.5890(2) 0.72263(12)
C38 C 0.5847(2) 0.6271(2) 0.77875(12)
H39 H 0.510298 0.652566 0.791324
C39 C 0.6534(2) 0.6284(2) 0.81647(12)
H40 H 0.624936 0.655719 0.854102
C40 C 0.7635(2) 0.5904(2) 0.80043(12)
C41 C 0.8009(2) 0.5464(2) 0.74613(13)
H41 H 0.875083 0.515963 0.734981
C42 C 0.7322(2) 0.5461(2) 0.70812(13)
H42 H 0.760435 0.515917 0.671399
C43 C 0.8381(2) 0.6023(2) 0.83918(13)
C44 C 0.8256(3) 0.7216(2) 0.83130(15)
H43 H 0.870796 0.731844 0.856812
H44 H 0.751391 0.759989 0.844473
H45 H 0.846697 0.748431 0.787639
C45 C 0.9536(2) 0.5447(3) 0.81799(16)
H46 H 0.998232 0.551446 0.845174
H47 H 0.975128 0.575777 0.775251
H48 H 0.961991 0.469728 0.819903
C46 C 0.8085(3) 0.5614(3) 0.90787(13)
H49 H 0.857628 0.569180 0.931732
H50 H 0.813038 0.486607 0.913368
H51 H 0.735958 0.602225 0.922563
O1 O 0.46366(19) 0.2087(2) 0.71738(11)
H52 H 0.487668 0.222089 0.679644
C47 C 0.3520(3) 0.2306(3) 0.7244(2)
H53 H 0.334452 0.200649 0.693543
H54 H 0.318158 0.307268 0.718473
H55 H 0.326253 0.198890 0.766172
N2 N 0.50606(18) -0.00548(19) 0.80212(11)
H56 H 0.507(3) 0.049(3) 0.7682(16)
C48 C 0.4420(2) -0.0685(2) 0.81074(13)
C49 C 0.4557(2) -0.1354(2) 0.86713(13)
C50 C 0.4063(2) -0.2166(2) 0.90006(12)
C51 C 0.3282(2) -0.2392(2) 0.87934(12)
H57 H 0.305705 -0.200967 0.841043
C52 C 0.2809(2) -0.3168(2) 0.91294(12)
C53 C 0.3165(2) -0.3733(2) 0.96749(13)
H58 H 0.286532 -0.427066 0.990272
C54 C 0.3958(2) -0.3539(2) 0.99046(12)
C55 C 0.4317(2) -0.4140(2) 1.04731(13)
H59 H 0.400695 -0.467042 1.069976
C56 C 0.5090(2) -0.3965(2) 1.06926(13)
H60 H 0.531711 -0.438048 1.106888
C57 C 0.5574(2) -0.3168(2) 1.03694(13)
C58 C 0.6380(2) -0.2991(2) 1.06001(13)
H61 H 0.659886 -0.340672 1.097806
C59 C 0.6860(2) -0.2231(2) 1.02918(13)
C60 C 0.6504(2) -0.1617(2) 0.97442(13)
H62 H 0.682558 -0.108817 0.952995
C61 C 0.5698(2) -0.1742(2) 0.94975(13)
C62 C 0.5321(2) -0.1117(2) 0.89271(12)
C63 C 0.5607(2) -0.0291(2) 0.85152(13)
C64 C 0.4417(2) -0.2745(2) 0.95707(12)
C65 C 0.5227(2) -0.2544(2) 0.98095(12)
C66 C 0.1925(2) -0.3346(2) 0.88760(13)
C67 C 0.1428(2) -0.4135(2) 0.93351(14)
H63 H 0.084515 -0.420450 0.916787
H64 H 0.115332 -0.387981 0.973228
H65 H 0.196654 -0.482598 0.939817
C68 C 0.1054(2) -0.2287(2) 0.87559(14)
H66 H 0.047232 -0.240227 0.861236
H67 H 0.134891 -0.179329 0.843801
H68 H 0.078647 -0.199070 0.914064
C69 C 0.2392(2) -0.3779(3) 0.82640(14)
H69 H 0.182519 -0.386463 0.808999
H70 H 0.293095 -0.446513 0.834301
H71 H 0.271693 -0.328233 0.796906
C70 C 0.7743(2) -0.2017(3) 1.05243(14)
C71 C 0.8093(3) -0.2805(3) 1.11002(19)
H72 H 0.866205 -0.264486 1.123061
H73 H 0.835304 -0.352386 1.100346
H74 H 0.748970 -0.275082 1.143596
C72 C 0.7338(3) -0.0898(3) 1.06759(16)
H75 H 0.790169 -0.074412 1.081597
H76 H 0.672421 -0.083969 1.100486
H77 H 0.712908 -0.039013 1.030410
C73 C 0.8708(2) -0.2094(3) 1.00109(18)
H78 H 0.927849 -0.197245 1.016244
H79 H 0.850635 -0.155840 0.964784
H80 H 0.895330 -0.279892 0.989498
C74 C 0.3710(2) -0.0595(2) 0.76615(13)
C75 C 0.4035(2) -0.1222(2) 0.72044(13)
H81 H 0.475754 -0.163337 0.713120
C76 C 0.3327(2) -0.1263(2) 0.68519(12)
H82 H 0.357389 -0.170944 0.654591
C77 C 0.2261(2) -0.0666(2) 0.69349(12)
C78 C 0.1949(2) -0.0002(2) 0.73810(14)
H83 H 0.123544 0.043922 0.743897
C79 C 0.2652(2) 0.0029(2) 0.77406(14)
H84 H 0.241120 0.047897 0.804426
C80 C 0.1430(2) -0.0726(2) 0.65870(12)
C81 C 0.0649(2) -0.1232(2) 0.70460(14)
H85 H 0.010582 -0.126137 0.682770
H86 H 0.030962 -0.080840 0.737655
H87 H 0.103191 -0.195070 0.722687
C82 C 0.0822(2) 0.0397(2) 0.62946(14)
H88 H 0.031668 0.035275 0.605360
H89 H 0.132507 0.073817 0.602113
H90 H 0.043718 0.081354 0.662352
C83 C 0.1934(2) -0.1396(2) 0.60710(13)
H91 H 0.138098 -0.139180 0.584889
H92 H 0.228630 -0.212365 0.625317
H93 H 0.245557 -0.109937 0.578095
C84 C 0.6358(2) 0.0277(2) 0.85347(13)
C85 C 0.7283(2) 0.0188(2) 0.81089(14)
H94 H 0.740185 -0.018521 0.777589
C86 C 0.8033(2) 0.0635(2) 0.81631(16)
H95 H 0.865649 0.056493 0.786423
C87 C 0.7898(2) 0.1184(2) 0.86447(15)
C88 C 0.6952(2) 0.1298(2) 0.90594(15)
H96 H 0.682524 0.168479 0.938699
C89 C 0.6194(2) 0.0859(2) 0.90037(14)
H97 H 0.555387 0.095719 0.928972
C90 C 0.8774(2) 0.1611(3) 0.87200(18)
C91 C 0.8484(4) 0.2301(5) 0.9180(3)
H98 H 0.907614 0.256578 0.917469
H99 H 0.832015 0.190403 0.959182
H100 H 0.785938 0.289784 0.908282
C92 C 0.9762(3) 0.0679(4) 0.8839(3)
H101 H 1.034776 0.094468 0.884811
H102 H 0.995872 0.025475 0.850753
H103 H 0.961414 0.023970 0.923872
C93 C 0.9121(4) 0.2276(4) 0.8064(2)
H104 H 0.970922 0.251991 0.809631
H105 H 0.851789 0.288817 0.795226
H106 H 0.934740 0.182573 0.774390
O2 O 0.4943(2) 0.3571(2) 0.77802(11)
H116 H 0.475(3) 0.282(3) 0.759(2)
C97 C 0.5996(4) 0.3252(4) 0.7852(2)
H117 H 0.641704 0.346169 0.745947
H118 H 0.624002 0.248165 0.797193
H119 H 0.607973 0.358662 0.817523
C94? C 0.9804(8) 0.1237(10) 0.8368(6)
H107? H 1.028957 0.155606 0.846539
H108? H 0.975324 0.143485 0.792453
H109? H 1.007254 0.046577 0.847552
C95? C 0.8310(10) 0.2817(8) 0.8662(7)
H110? H 0.883796 0.311020 0.873353
H111? H 0.767382 0.299416 0.897138
H112? H 0.812397 0.311800 0.824566
C96? C 0.8855(11) 0.1260(11) 0.9470(5)
H113? H 0.933268 0.158173 0.957377
H114? H 0.913211 0.048864 0.957076
H115? H 0.814896 0.150347 0.971002
loop_
_geom_bond_atom_site_label_1
_geom_bond_atom_site_label_2
_geom_bond_site_symmetry_1
_geom_bond_site_symmetry_2
N1 H1 1_555 1_555
C1 N1 1_555 1_555
C2 C1 1_555 1_555
C3 C2 1_555 1_555
C4 C3 1_555 1_555
H2 C4 1_555 1_555
C5 C4 1_555 1_555
C6 C5 1_555 1_555
H3 C6 1_555 1_555
C7 C6 1_555 1_555
C8 C7 1_555 1_555
H4 C8 1_555 1_555
C9 C8 1_555 1_555
H5 C9 1_555 1_555
C10 C9 1_555 1_555
C11 C10 1_555 1_555
H6 C11 1_555 1_555
C12 C11 1_555 1_555
C13 C12 1_555 1_555
H7 C13 1_555 1_555
C14 C13 1_555 1_555
C15 C2 1_555 1_555
C16 N1 1_555 1_555
C17 C3 1_555 1_555
C18 C10 1_555 1_555
C19 C5 1_555 1_555
C20 C19 1_555 1_555
H8 C20 1_555 1_555
H9 C20 1_555 1_555
H10 C20 1_555 1_555
C21 C19 1_555 1_555
H11 C21 1_555 1_555
H12 C21 1_555 1_555
H13 C21 1_555 1_555
C22 C19 1_555 1_555
H14 C22 1_555 1_555
H15 C22 1_555 1_555
H16 C22 1_555 1_555
C23 C12 1_555 1_555
C24 C23 1_555 1_555
H17 C24 1_555 1_555
H18 C24 1_555 1_555
H19 C24 1_555 1_555
C25 C23 1_555 1_555
H20 C25 1_555 1_555
H21 C25 1_555 1_555
H22 C25 1_555 1_555
C26 C23 1_555 1_555
H23 C26 1_555 1_555
H24 C26 1_555 1_555
H25 C26 1_555 1_555
C27 C1 1_555 1_555
C28 C27 1_555 1_555
H26 C28 1_555 1_555
C29 C28 1_555 1_555
H27 C29 1_555 1_555
C30 C29 1_555 1_555
C31 C30 1_555 1_555
H28 C31 1_555 1_555
C32 C27 1_555 1_555
H29 C32 1_555 1_555
C33 C30 1_555 1_555
C34 C33 1_555 1_555
H30 C34 1_555 1_555
H31 C34 1_555 1_555
H32 C34 1_555 1_555
C35 C33 1_555 1_555
H33 C35 1_555 1_555
H34 C35 1_555 1_555
H35 C35 1_555 1_555
C36 C33 1_555 1_555
H36 C36 1_555 1_555
H37 C36 1_555 1_555
H38 C36 1_555 1_555
C37 C16 1_555 1_555
C38 C37 1_555 1_555
H39 C38 1_555 1_555
C39 C38 1_555 1_555
H40 C39 1_555 1_555
C40 C39 1_555 1_555
C41 C40 1_555 1_555
H41 C41 1_555 1_555
C42 C37 1_555 1_555
H42 C42 1_555 1_555
C43 C40 1_555 1_555
C44 C43 1_555 1_555
H43 C44 1_555 1_555
H44 C44 1_555 1_555
H45 C44 1_555 1_555
C45 C43 1_555 1_555
H46 C45 1_555 1_555
H47 C45 1_555 1_555
H48 C45 1_555 1_555
C46 C43 1_555 1_555
H49 C46 1_555 1_555
H50 C46 1_555 1_555
H51 C46 1_555 1_555
O1 H52 1_555 1_555
C47 O1 1_555 1_555
H53 C47 1_555 1_555
H54 C47 1_555 1_555
H55 C47 1_555 1_555
N2 H56 1_555 1_555
C48 N2 1_555 1_555
C49 C48 1_555 1_555
C50 C49 1_555 1_555
C51 C50 1_555 1_555
H57 C51 1_555 1_555
C52 C51 1_555 1_555
C53 C52 1_555 1_555
H58 C53 1_555 1_555
C54 C53 1_555 1_555
C55 C54 1_555 1_555
H59 C55 1_555 1_555
C56 C55 1_555 1_555
H60 C56 1_555 1_555
C57 C56 1_555 1_555
C58 C57 1_555 1_555
H61 C58 1_555 1_555
C59 C58 1_555 1_555
C60 C59 1_555 1_555
H62 C60 1_555 1_555
C61 C60 1_555 1_555
C62 C49 1_555 1_555
C63 N2 1_555 1_555
C64 C50 1_555 1_555
C65 C57 1_555 1_555
C66 C52 1_555 1_555
C67 C66 1_555 1_555
H63 C67 1_555 1_555
H64 C67 1_555 1_555
H65 C67 1_555 1_555
C68 C66 1_555 1_555
H66 C68 1_555 1_555
H67 C68 1_555 1_555
H68 C68 1_555 1_555
C69 C66 1_555 1_555
H69 C69 1_555 1_555
H70 C69 1_555 1_555
H71 C69 1_555 1_555
C70 C59 1_555 1_555
C71 C70 1_555 1_555
H72 C71 1_555 1_555
H73 C71 1_555 1_555
H74 C71 1_555 1_555
C72 C70 1_555 1_555
H75 C72 1_555 1_555
H76 C72 1_555 1_555
H77 C72 1_555 1_555
C73 C70 1_555 1_555
H78 C73 1_555 1_555
H79 C73 1_555 1_555
H80 C73 1_555 1_555
C74 C48 1_555 1_555
C75 C74 1_555 1_555
H81 C75 1_555 1_555
C76 C75 1_555 1_555
H82 C76 1_555 1_555
C77 C76 1_555 1_555
C78 C77 1_555 1_555
H83 C78 1_555 1_555
C79 C74 1_555 1_555
H84 C79 1_555 1_555
C80 C77 1_555 1_555
C81 C80 1_555 1_555
H85 C81 1_555 1_555
H86 C81 1_555 1_555
H87 C81 1_555 1_555
C82 C80 1_555 1_555
H88 C82 1_555 1_555
H89 C82 1_555 1_555
H90 C82 1_555 1_555
C83 C80 1_555 1_555
H91 C83 1_555 1_555
H92 C83 1_555 1_555
H93 C83 1_555 1_555
C84 C63 1_555 1_555
C85 C84 1_555 1_555
H94 C85 1_555 1_555
C86 C85 1_555 1_555
H95 C86 1_555 1_555
C87 C86 1_555 1_555
C88 C87 1_555 1_555
H96 C88 1_555 1_555
C89 C84 1_555 1_555
H97 C89 1_555 1_555
C90 C87 1_555 1_555
C91 C90 1_555 1_555
H98 C91 1_555 1_555
H99 C91 1_555 1_555
H100 C91 1_555 1_555
C92 C90 1_555 1_555
H101 C92 1_555 1_555
H102 C92 1_555 1_555
H103 C92 1_555 1_555
C93 C90 1_555 1_555
H104 C93 1_555 1_555
H105 C93 1_555 1_555
H106 C93 1_555 1_555
O2 H116 1_555 1_555
C97 O2 1_555 1_555
H117 C97 1_555 1_555
H118 C97 1_555 1_555
H119 C97 1_555 1_555
C7 C17 1_555 1_555
C14 C15 1_555 1_555
C14 C18 1_555 1_555
C15 C16 1_555 1_555
C17 C18 1_555 1_555
C31 C32 1_555 1_555
C41 C42 1_555 1_555
C54 C64 1_555 1_555
C61 C62 1_555 1_555
C61 C65 1_555 1_555
C62 C63 1_555 1_555
C64 C65 1_555 1_555
C78 C79 1_555 1_555
C88 C89 1_555 1_555

#END
