
#######################################################################
#
#                 Cambridge Crystallographic Data Centre
#                                CCDC 
#
#######################################################################
#
# If this CIF has been generated from an entry in the Cambridge 
# Structural Database, then it will include bibliographic, chemical, 
# crystal, experimental, refinement or atomic coordinate data resulting 
# from the CCDC's data processing and validation procedures.
#
#######################################################################

data_VEMDOJ
_chemical_formula_moiety         'C46 H50 S1,C1 H2 Cl2'
_chemical_name_systematic        
'2,7-di-t-butyl-9,11-bis(4-t-butylphenyl)pyreno[4,5-c]thiophene dichloromethane solvate'
_symmetry_cell_setting           triclinic
_symmetry_space_group_name_H-M   'P -1'
_symmetry_Int_Tables_number      2
_space_group_name_Hall           '-P 1'
loop_
_symmetry_equiv_pos_site_id
_symmetry_equiv_pos_as_xyz
1 x,y,z
2 -x,-y,-z
_cell_length_a                   13.4564(17)
_cell_length_b                   13.7344(16)
_cell_length_c                   23.961(4)
_cell_angle_alpha                81.639(11)
_cell_angle_beta                 74.784(11)
_cell_angle_gamma                69.219(9)
_cell_volume                     3988.41
_exptl_crystal_colour            colorless
_exptl_crystal_description       needle
_cell_formula_units_Z            4
loop_
_atom_site_label
_atom_site_type_symbol
_atom_site_fract_x
_atom_site_fract_y
_atom_site_fract_z
S1 S 0.0002(3) 0.2002(3) 0.60919(19)
C1 C -0.0742(10) 0.1758(10) 0.5690(6)
C2 C -0.1505(9) 0.1175(8) 0.5986(6)
C3 C -0.1144(10) 0.0092(9) 0.6079(7)
H1 H -0.039724 -0.029727 0.593843
C4 C -0.1862(10) -0.0416(10) 0.6372(7)
H2 H -0.158744 -0.115243 0.643792
C5 C -0.2956(9) 0.0092(8) 0.6572(6)
C6 C -0.3324(10) 0.1180(9) 0.6495(7)
H3 H -0.406949 0.156544 0.664146
C7 C -0.2607(10) 0.1692(9) 0.6209(7)
H4 H -0.287542 0.243147 0.616078
C8 C -0.3773(9) -0.0468(8) 0.6887(5)
C9 C -0.4425(12) 0.0021(11) 0.7463(6)
H5 H -0.480121 0.076616 0.739062
H6 H -0.496391 -0.032219 0.765112
H7 H -0.392820 -0.006766 0.771492
C10 C -0.3198(12) -0.1626(9) 0.7014(7)
H8 H -0.270472 -0.170601 0.726664
H9 H -0.374310 -0.195982 0.720635
H10 H -0.277791 -0.195512 0.664948
C11 C -0.4535(12) -0.0368(12) 0.6493(7)
H11 H -0.491242 0.037126 0.640658
H12 H -0.410826 -0.070370 0.613116
H13 H -0.507346 -0.070840 0.668802
C12 C 0.0663(9) 0.2629(9) 0.5528(5)
C13 C 0.1498(9) 0.3013(9) 0.5640(6)
C14 C 0.2603(9) 0.2437(10) 0.5503(7)
H14 H 0.283613 0.178544 0.533429
C15 C 0.3365(10) 0.2798(9) 0.5610(7)
H15 H 0.411876 0.240229 0.550142
C16 C 0.3050(9) 0.3734(8) 0.5873(6)
C17 C 0.1941(9) 0.4313(10) 0.5995(7)
H16 H 0.170882 0.498156 0.614542
C18 C 0.1173(10) 0.3946(10) 0.5905(7)
H17 H 0.041891 0.433053 0.602496
C19 C 0.3891(10) 0.4122(9) 0.6019(6)
C20 C 0.3905(14) 0.3819(12) 0.6660(6)
H18 H 0.317214 0.412819 0.690020
H19 H 0.413406 0.305749 0.672271
H20 H 0.441855 0.407662 0.676665
C21 C 0.5027(11) 0.3645(13) 0.5641(8)
H21 H 0.501081 0.384242 0.523250
H22 H 0.554252 0.390286 0.574518
H23 H 0.525803 0.288373 0.570124
C22 C 0.3559(13) 0.5319(9) 0.5933(8)
H24 H 0.282906 0.563555 0.617451
H25 H 0.408427 0.555243 0.604586
H26 H 0.355358 0.553044 0.552521
C23 C -0.0516(10) 0.2137(9) 0.5118(5)
C24 C 0.0329(10) 0.2656(9) 0.5026(5)
C25 C 0.0643(10) 0.3139(9) 0.4454(5)
C26 C 0.1399(10) 0.3675(10) 0.4351(6)
H27 H 0.167650 0.373149 0.466689
C27 C 0.1760(10) 0.4123(10) 0.3816(6)
C28 C 0.1285(10) 0.4106(9) 0.3369(6)
H28 H 0.148710 0.444210 0.300355
C29 C 0.0504(10) 0.3593(9) 0.3450(5)
C30 C 0.0039(11) 0.3525(10) 0.2991(6)
H29 H 0.023305 0.385700 0.262294
C31 C -0.0668(11) 0.2999(10) 0.3069(6)
H30 H -0.092960 0.294211 0.274810
C32 C -0.1036(11) 0.2525(10) 0.3618(5)
C33 C -0.1787(11) 0.1984(10) 0.3702(6)
H31 H -0.204458 0.192250 0.337950
C34 C -0.2158(10) 0.1543(10) 0.4233(6)
C35 C -0.1741(10) 0.1587(9) 0.4697(6)
H32 H -0.197730 0.127014 0.506376
C36 C -0.0965(11) 0.2100(10) 0.4630(5)
C37 C -0.0602(11) 0.2567(10) 0.4090(5)
C38 C 0.0179(10) 0.3104(9) 0.3997(5)
C39 C 0.2620(9) 0.4661(8) 0.3742(5)
C40 C 0.2261(13) 0.5441(10) 0.4212(6)
H33 H 0.214426 0.507918 0.459506
H34 H 0.283006 0.575143 0.417595
H35 H 0.158057 0.599150 0.416630
C41 C 0.3705(10) 0.3802(10) 0.3821(7)
H36 H 0.358799 0.344376 0.420443
H37 H 0.394745 0.329836 0.352171
H38 H 0.426469 0.412402 0.378545
C42 C 0.2806(12) 0.5221(12) 0.3142(6)
H39 H 0.303488 0.471864 0.284303
H40 H 0.212535 0.577093 0.309463
H41 H 0.337484 0.553087 0.310427
C43 C -0.3045(9) 0.1029(9) 0.4309(5)
C44 C -0.3258(12) 0.0494(11) 0.4911(6)
H42 H -0.348973 0.100597 0.520491
H43 H -0.383379 0.019276 0.494711
H44 H -0.258756 -0.006117 0.496833
C45 C -0.4121(9) 0.1888(9) 0.4230(8)
H45 H -0.400081 0.224223 0.384466
H46 H -0.468471 0.157166 0.426710
H47 H -0.435776 0.239528 0.452659
C46 C -0.2683(12) 0.0224(10) 0.3850(6)
H48 H -0.254537 0.056666 0.346289
H49 H -0.201223 -0.033060 0.390765
H50 H -0.325847 -0.007667 0.388643
C47 C 0.1725(11) 0.2087(12) 0.7065(8)
H51 H 0.137845 0.165487 0.694031
H52 H 0.202495 0.246753 0.671622
Cl1 Cl 0.0740(4) 0.2983(4) 0.7540(3)
Cl2 Cl 0.2785(4) 0.1278(4) 0.7373(3)
S2 S 0.5099(3) 0.7838(3) 0.87160(19)
C48 C 0.4400(10) 0.7283(9) 0.9290(5)
C49 C 0.3623(9) 0.6807(8) 0.9188(7)
C50 C 0.2578(10) 0.7417(9) 0.9134(8)
H53 H 0.234881 0.815125 0.915833
C51 C 0.1871(10) 0.6966(9) 0.9047(7)
H54 H 0.114429 0.739241 0.903482
C52 C 0.2187(9) 0.5913(8) 0.8975(6)
C53 C 0.3246(9) 0.5306(9) 0.9012(6)
H55 H 0.348357 0.457509 0.897398
C54 C 0.3953(10) 0.5754(9) 0.9104(7)
H56 H 0.468294 0.533082 0.910987
C55 C 0.1394(9) 0.5391(9) 0.8890(5)
C56 C 0.1840(12) 0.4856(12) 0.8315(6)
H57 H 0.257577 0.435931 0.830602
H58 H 0.136078 0.448516 0.827803
H59 H 0.186871 0.538287 0.799348
C57 C 0.0253(10) 0.6155(10) 0.8886(8)
H60 H -0.005350 0.650917 0.925018
H61 H 0.029276 0.667187 0.856038
H62 H -0.021516 0.577416 0.884493
C58 C 0.1310(12) 0.4564(11) 0.9391(6)
H63 H 0.203957 0.406804 0.939788
H64 H 0.098995 0.490571 0.975865
H65 H 0.084540 0.419226 0.933423
C59 C 0.5782(10) 0.8175(10) 0.9128(6)
C60 C 0.6585(10) 0.8712(9) 0.8825(6)
C61 C 0.6313(10) 0.9785(9) 0.8875(7)
H66 H 0.561622 1.017502 0.909116
C62 C 0.7072(10) 1.0265(10) 0.8607(6)
H67 H 0.688528 1.098888 0.865222
C63 C 0.8085(9) 0.9754(9) 0.8277(6)
C64 C 0.8327(11) 0.8699(9) 0.8202(7)
H68 H 0.900383 0.832559 0.796227
C65 C 0.7585(10) 0.8191(10) 0.8475(7)
H69 H 0.776648 0.747075 0.842155
C66 C 0.8905(10) 1.0335(9) 0.7991(6)
C67 C 0.8360(14) 1.1286(11) 0.7620(7)
H70 H 0.768701 1.172954 0.786053
H71 H 0.885911 1.168382 0.746160
H72 H 0.818658 1.105008 0.730177
C68 C 0.9948(12) 0.9635(12) 0.7630(9)
H73 H 1.028437 0.903389 0.787381
H74 H 0.978160 0.939251 0.731203
H75 H 1.045412 1.002625 0.747186
C69 C 0.9148(15) 1.0748(14) 0.8488(7)
H76 H 0.846510 1.119926 0.871669
H77 H 0.948957 1.015894 0.873643
H78 H 0.964457 1.114763 0.832555
C70 C 0.4672(11) 0.7328(10) 0.9804(5)
C71 C 0.5505(10) 0.7855(10) 0.9705(5)
C72 C 0.5898(10) 0.7958(9) 1.0199(5)
C73 C 0.6712(10) 0.8421(10) 1.0130(6)
H79 H 0.701439 0.865818 0.975292
C74 C 0.7082(10) 0.8540(9) 1.0597(6)
C75 C 0.6646(10) 0.8200(10) 1.1144(6)
H80 H 0.688843 0.829199 1.146430
C76 C 0.5837(10) 0.7713(10) 1.1238(6)
C77 C 0.5382(11) 0.7363(10) 1.1805(6)
H81 H 0.561352 0.746099 1.212848
C78 C 0.4627(11) 0.6896(10) 1.1884(6)
H82 H 0.434836 0.665764 1.226575
C79 C 0.4224(10) 0.6741(9) 1.1419(5)
C80 C 0.3424(10) 0.6250(10) 1.1513(6)
H83 H 0.314645 0.601476 1.189517
C81 C 0.3042(10) 0.6106(9) 1.1062(6)
C82 C 0.3439(10) 0.6482(10) 1.0511(6)
H84 H 0.315233 0.641249 1.020168
C83 C 0.4247(10) 0.6959(10) 1.0387(5)
C84 C 0.4636(9) 0.7107(9) 1.0848(5)
C85 C 0.5453(10) 0.7605(9) 1.0760(5)
C86 C 0.7980(10) 0.9055(9) 1.0473(5)
C87 C 0.7550(13) 1.0148(9) 1.0171(7)
H85 H 0.689104 1.057696 1.042832
H86 H 0.811085 1.048277 1.008406
H87 H 0.737484 1.007698 0.981025
C88 C 0.9010(10) 0.8398(11) 1.0063(7)
H88 H 0.882562 0.831568 0.970689
H89 H 0.955832 0.874831 0.996732
H90 H 0.930294 0.770980 1.025278
C89 C 0.8260(13) 0.9189(13) 1.1033(6)
H91 H 0.759960 0.960891 1.129214
H92 H 0.855228 0.850188 1.122397
H93 H 0.880766 0.954039 1.093851
C90 C 0.2171(9) 0.5574(8) 1.1134(5)
C91 C 0.2637(12) 0.4674(9) 1.0731(6)
H94 H 0.329578 0.416815 1.083634
H95 H 0.209329 0.433322 1.076928
H96 H 0.282258 0.494465 1.033019
C92 C 0.1138(10) 0.6373(10) 1.0974(7)
H97 H 0.084424 0.694770 1.123461
H98 H 0.132044 0.664684 1.057340
H99 H 0.059116 0.603541 1.101249
C93 C 0.1868(12) 0.5153(10) 1.1765(5)
H100 H 0.156873 0.573116 1.202324
H101 H 0.132050 0.481631 1.180063
H102 H 0.252139 0.464293 1.187336
C94 C 0.4001(16) 0.6957(9) 0.7679(9)
H103 H 0.381035 0.672546 0.809243
H104 H 0.479677 0.683390 0.757153
Cl3 Cl 0.3311(5) 0.8286(4) 0.7595(3)
Cl4 Cl 0.3696(4) 0.6207(4) 0.7259(2)
loop_
_geom_bond_atom_site_label_1
_geom_bond_atom_site_label_2
_geom_bond_site_symmetry_1
_geom_bond_site_symmetry_2
S1 C1 1_555 1_555
C1 C2 1_555 1_555
C2 C3 1_555 1_555
C3 H1 1_555 1_555
C4 C3 1_555 1_555
H2 C4 1_555 1_555
C5 C4 1_555 1_555
C6 C5 1_555 1_555
H3 C6 1_555 1_555
C7 C2 1_555 1_555
H4 C7 1_555 1_555
C8 C5 1_555 1_555
C9 C8 1_555 1_555
H5 C9 1_555 1_555
H6 C9 1_555 1_555
H7 C9 1_555 1_555
C10 C8 1_555 1_555
H8 C10 1_555 1_555
H9 C10 1_555 1_555
H10 C10 1_555 1_555
C11 C8 1_555 1_555
H11 C11 1_555 1_555
H12 C11 1_555 1_555
H13 C11 1_555 1_555
C12 S1 1_555 1_555
C13 C12 1_555 1_555
C14 C13 1_555 1_555
H14 C14 1_555 1_555
C15 C14 1_555 1_555
H15 C15 1_555 1_555
C16 C15 1_555 1_555
C17 C16 1_555 1_555
H16 C17 1_555 1_555
C18 C13 1_555 1_555
H17 C18 1_555 1_555
C19 C16 1_555 1_555
C20 C19 1_555 1_555
H18 C20 1_555 1_555
H19 C20 1_555 1_555
H20 C20 1_555 1_555
C21 C19 1_555 1_555
H21 C21 1_555 1_555
H22 C21 1_555 1_555
H23 C21 1_555 1_555
C22 C19 1_555 1_555
H24 C22 1_555 1_555
H25 C22 1_555 1_555
H26 C22 1_555 1_555
C23 C1 1_555 1_555
C24 C12 1_555 1_555
C25 C24 1_555 1_555
C26 C25 1_555 1_555
H27 C26 1_555 1_555
C27 C26 1_555 1_555
C28 C27 1_555 1_555
H28 C28 1_555 1_555
C29 C28 1_555 1_555
C30 C29 1_555 1_555
H29 C30 1_555 1_555
C31 C30 1_555 1_555
H30 C31 1_555 1_555
C32 C31 1_555 1_555
C33 C32 1_555 1_555
H31 C33 1_555 1_555
C34 C33 1_555 1_555
C35 C34 1_555 1_555
H32 C35 1_555 1_555
C36 C23 1_555 1_555
C37 C32 1_555 1_555
C38 C25 1_555 1_555
C39 C27 1_555 1_555
C40 C39 1_555 1_555
H33 C40 1_555 1_555
H34 C40 1_555 1_555
H35 C40 1_555 1_555
C41 C39 1_555 1_555
H36 C41 1_555 1_555
H37 C41 1_555 1_555
H38 C41 1_555 1_555
C42 C39 1_555 1_555
H39 C42 1_555 1_555
H40 C42 1_555 1_555
H41 C42 1_555 1_555
C43 C34 1_555 1_555
C44 C43 1_555 1_555
H42 C44 1_555 1_555
H43 C44 1_555 1_555
H44 C44 1_555 1_555
C45 C43 1_555 1_555
H45 C45 1_555 1_555
H46 C45 1_555 1_555
H47 C45 1_555 1_555
C46 C43 1_555 1_555
H48 C46 1_555 1_555
H49 C46 1_555 1_555
H50 C46 1_555 1_555
C47 H51 1_555 1_555
H52 C47 1_555 1_555
Cl1 C47 1_555 1_555
Cl2 C47 1_555 1_555
S2 C48 1_555 1_555
C48 C49 1_555 1_555
C49 C50 1_555 1_555
C50 H53 1_555 1_555
C51 C50 1_555 1_555
H54 C51 1_555 1_555
C52 C51 1_555 1_555
C53 C52 1_555 1_555
H55 C53 1_555 1_555
C54 C49 1_555 1_555
H56 C54 1_555 1_555
C55 C52 1_555 1_555
C56 C55 1_555 1_555
H57 C56 1_555 1_555
H58 C56 1_555 1_555
H59 C56 1_555 1_555
C57 C55 1_555 1_555
H60 C57 1_555 1_555
H61 C57 1_555 1_555
H62 C57 1_555 1_555
C58 C55 1_555 1_555
H63 C58 1_555 1_555
H64 C58 1_555 1_555
H65 C58 1_555 1_555
C59 S2 1_555 1_555
C60 C59 1_555 1_555
C61 C60 1_555 1_555
H66 C61 1_555 1_555
C62 C61 1_555 1_555
H67 C62 1_555 1_555
C63 C62 1_555 1_555
C64 C63 1_555 1_555
H68 C64 1_555 1_555
C65 C60 1_555 1_555
H69 C65 1_555 1_555
C66 C63 1_555 1_555
C67 C66 1_555 1_555
H70 C67 1_555 1_555
H71 C67 1_555 1_555
H72 C67 1_555 1_555
C68 C66 1_555 1_555
H73 C68 1_555 1_555
H74 C68 1_555 1_555
H75 C68 1_555 1_555
C69 C66 1_555 1_555
H76 C69 1_555 1_555
H77 C69 1_555 1_555
H78 C69 1_555 1_555
C70 C48 1_555 1_555
C71 C59 1_555 1_555
C72 C71 1_555 1_555
C73 C72 1_555 1_555
H79 C73 1_555 1_555
C74 C73 1_555 1_555
C75 C74 1_555 1_555
H80 C75 1_555 1_555
C76 C75 1_555 1_555
C77 C76 1_555 1_555
H81 C77 1_555 1_555
C78 C77 1_555 1_555
H82 C78 1_555 1_555
C79 C78 1_555 1_555
C80 C79 1_555 1_555
H83 C80 1_555 1_555
C81 C80 1_555 1_555
C82 C81 1_555 1_555
H84 C82 1_555 1_555
C83 C70 1_555 1_555
C84 C79 1_555 1_555
C85 C72 1_555 1_555
C86 C74 1_555 1_555
C87 C86 1_555 1_555
H85 C87 1_555 1_555
H86 C87 1_555 1_555
H87 C87 1_555 1_555
C88 C86 1_555 1_555
H88 C88 1_555 1_555
H89 C88 1_555 1_555
H90 C88 1_555 1_555
C89 C86 1_555 1_555
H91 C89 1_555 1_555
H92 C89 1_555 1_555
H93 C89 1_555 1_555
C90 C81 1_555 1_555
C91 C90 1_555 1_555
H94 C91 1_555 1_555
H95 C91 1_555 1_555
H96 C91 1_555 1_555
C92 C90 1_555 1_555
H97 C92 1_555 1_555
H98 C92 1_555 1_555
H99 C92 1_555 1_555
C93 C90 1_555 1_555
H100 C93 1_555 1_555
H101 C93 1_555 1_555
H102 C93 1_555 1_555
C94 H103 1_555 1_555
H104 C94 1_555 1_555
Cl3 C94 1_555 1_555
Cl4 C94 1_555 1_555
C6 C7 1_555 1_555
C17 C18 1_555 1_555
C23 C24 1_555 1_555
C29 C38 1_555 1_555
C35 C36 1_555 1_555
C36 C37 1_555 1_555
C37 C38 1_555 1_555
C53 C54 1_555 1_555
C64 C65 1_555 1_555
C70 C71 1_555 1_555
C76 C85 1_555 1_555
C82 C83 1_555 1_555
C83 C84 1_555 1_555
C84 C85 1_555 1_555

#END
