
#######################################################################
#
#                 Cambridge Crystallographic Data Centre
#                                CCDC 
#
#######################################################################
#
# If this CIF has been generated from an entry in the Cambridge 
# Structural Database, then it will include bibliographic, chemical, 
# crystal, experimental, refinement or atomic coordinate data resulting 
# from the CCDC's data processing and validation procedures.
#
#######################################################################

data_VEMFIF
_chemical_formula_moiety         'C68 H74 O2'
_chemical_name_systematic        
2,8-di-t-butyl-4,6,10,12-tetrakis(4-t-butylphenyl)pyreno[10,9-c:4,5-c']difuran
_symmetry_cell_setting           triclinic
_symmetry_space_group_name_H-M   'P -1'
_symmetry_Int_Tables_number      2
_space_group_name_Hall           '-P 1'
loop_
_symmetry_equiv_pos_site_id
_symmetry_equiv_pos_as_xyz
1 x,y,z
2 -x,-y,-z
_cell_length_a                   7.6765(4)
_cell_length_b                   13.3762(8)
_cell_length_c                   14.1960(8)
_cell_angle_alpha                105.579(4)
_cell_angle_beta                 94.278(4)
_cell_angle_gamma                94.766(4)
_cell_volume                     1392.12
_exptl_crystal_colour            colorless
_exptl_crystal_description       needle
_cell_formula_units_Z            1
loop_
_atom_site_label
_atom_site_type_symbol
_atom_site_fract_x
_atom_site_fract_y
_atom_site_fract_z
O1 O 0.74703(15) 0.24664(9) 0.60974(9)
C1 C 0.4404(2) 0.50637(13) 0.53909(13)
C2 C 0.3081(2) 0.57543(13) 0.54570(13)
C3 C 0.2029(2) 0.58896(14) 0.62348(13)
H1 H 0.115730 0.635979 0.627502
C4 C 0.2209(2) 0.53615(14) 0.69530(13)
C5 C 0.3473(2) 0.46650(14) 0.68638(13)
H2 H 0.361629 0.429236 0.734265
C6 C 0.4537(2) 0.44954(14) 0.60964(13)
C7 C 0.5805(2) 0.37258(14) 0.59819(13)
C8 C 0.6076(2) 0.29846(14) 0.64523(13)
C9 C 0.8070(2) 0.28802(14) 0.53754(13)
C10 C 0.7052(2) 0.36500(14) 0.52635(13)
C11 C 0.1101(2) 0.55500(15) 0.78280(14)
C12 C -0.0464(3) 0.6145(2) 0.76770(18)
H3 H -0.116478 0.621990 0.823643
H4 H -0.119251 0.575987 0.707122
H5 H -0.003774 0.683851 0.762635
C13 C 0.2259(3) 0.6148(2) 0.87500(17)
H6 H 0.156888 0.625408 0.931566
H7 H 0.271993 0.682708 0.867982
H8 H 0.323857 0.575062 0.885185
C14 C 0.0332(3) 0.44922(18) 0.79512(18)
H9 H -0.040031 0.461607 0.849921
H10 H 0.129353 0.409653 0.808720
H11 H -0.038355 0.409367 0.734543
C15 C 0.5177(2) 0.26009(14) 0.71896(13)
C16 C 0.6032(2) 0.26455(16) 0.80966(15)
H12 H 0.723591 0.291377 0.824501
C17 C 0.5156(2) 0.23041(16) 0.87910(15)
H13 H 0.576929 0.234824 0.940962
C18 C 0.3398(2) 0.18985(15) 0.86012(14)
C19 C 0.2561(2) 0.18350(15) 0.76778(14)
H14 H 0.136837 0.154490 0.751950
C20 C 0.3429(2) 0.21857(15) 0.69843(14)
H15 H 0.282104 0.214100 0.636397
C21 C 0.2389(3) 0.15061(17) 0.93521(15)
C22 C 0.0652(3) 0.19841(19) 0.94592(17)
H16 H 0.000916 0.172630 0.993304
H17 H -0.005508 0.178656 0.882043
H18 H 0.088524 0.274612 0.969282
C23 C 0.2006(3) 0.03060(18) 0.89636(19)
H19 H 0.128315 0.004492 0.940538
H20 H 0.311579 -0.000861 0.893516
H21 H 0.137544 0.012081 0.830388
C24 C 0.3424(3) 0.1785(2) 1.03532(18)
H22 H 0.271542 0.155043 1.081551
H23 H 0.372071 0.254316 1.058769
H24 H 0.450597 0.144175 1.030491
C25 C 0.9526(2) 0.23910(14) 0.48953(13)
C26 C 1.0972(2) 0.29892(14) 0.47115(13)
H25 H 1.106185 0.372864 0.494722
C27 C 1.2275(2) 0.25159(14) 0.41891(13)
H26 H 1.323164 0.294108 0.406072
C28 C 1.2225(2) 0.14397(14) 0.38474(13)
C29 C 1.0823(2) 0.08468(15) 0.40890(14)
H27 H 1.078221 0.010729 0.389925
C30 C 0.9499(2) 0.13102(14) 0.45960(14)
H28 H 0.855972 0.088579 0.474180
C31 C 1.3635(2) 0.08985(15) 0.32564(14)
C32 C 1.4929(2) 0.16695(16) 0.29644(16)
H29 H 1.576474 0.128555 0.255735
H30 H 1.556711 0.215248 0.355764
H31 H 1.428208 0.206429 0.259121
C33 C 1.2765(3) 0.01015(17) 0.23117(16)
H32 H 1.367460 -0.023691 0.193177
H33 H 1.208127 0.045994 0.191772
H34 H 1.198558 -0.042665 0.248294
C34 C 1.4637(3) 0.03304(18) 0.38837(18)
H35 H 1.555483 -0.001784 0.351903
H36 H 1.382408 -0.019074 0.404312
H37 H 1.517768 0.083427 0.449247
O1A O 0.25297(15) 0.75336(9) 0.39026(9)
C1A C 0.5596(2) 0.49363(13) 0.46091(13)
C2A C 0.6919(2) 0.42457(13) 0.45430(13)
C3A C 0.7971(2) 0.41104(14) 0.37652(13)
H1A H 0.884270 0.364021 0.372498
C4A C 0.7791(2) 0.46385(14) 0.30470(13)
C5A C 0.6527(2) 0.53350(14) 0.31362(13)
H2A H 0.638371 0.570764 0.265735
C6A C 0.5463(2) 0.55046(14) 0.39036(13)
C7A C 0.4195(2) 0.62742(14) 0.40181(13)
C8A C 0.3924(2) 0.70154(14) 0.35477(13)
C9A C 0.1930(2) 0.71198(14) 0.46246(13)
C10A C 0.2948(2) 0.63500(14) 0.47365(13)
C11A C 0.8899(2) 0.44500(15) 0.21720(14)
C12A C 1.0464(3) 0.3855(2) 0.23230(18)
H3A H 1.116478 0.378010 0.176357
H4A H 1.119251 0.424013 0.292878
H5A H 1.003774 0.316149 0.237365
C13A C 0.7741(3) 0.3852(2) 0.12500(17)
H6A H 0.843112 0.374592 0.068434
H7A H 0.728007 0.317292 0.132018
H8A H 0.676143 0.424938 0.114815
C14A C 0.9668(3) 0.55078(18) 0.20488(18)
H9A H 1.040031 0.538393 0.150079
H10A H 0.870647 0.590347 0.191280
H11A H 1.038355 0.590633 0.265457
C15A C 0.4823(2) 0.73991(14) 0.28104(13)
C16A C 0.3968(2) 0.73545(16) 0.19034(15)
H12A H 0.276409 0.708623 0.175499
C17A C 0.4844(2) 0.76959(16) 0.12090(15)
H13A H 0.423071 0.765176 0.059038
C18A C 0.6602(2) 0.81015(15) 0.13988(14)
C19A C 0.7439(2) 0.81650(15) 0.23222(14)
H14A H 0.863163 0.845510 0.248050
C20A C 0.6571(2) 0.78143(15) 0.30157(14)
H15A H 0.717896 0.785900 0.363603
C21A C 0.7611(3) 0.84939(17) 0.06479(15)
C22A C 0.9348(3) 0.80159(19) 0.05408(17)
H16A H 0.999084 0.827370 0.006696
H17A H 1.005508 0.821344 0.117957
H18A H 0.911476 0.725388 0.030718
C23A C 0.7994(3) 0.96940(18) 0.10364(19)
H19A H 0.871685 0.995508 0.059462
H20A H 0.688421 1.000861 0.106484
H21A H 0.862456 0.987919 0.169612
C24A C 0.6576(3) 0.8215(2) -0.03532(18)
H22A H 0.728458 0.844957 -0.081551
H23A H 0.627929 0.745684 -0.058769
H24A H 0.549403 0.855825 -0.030491
C25A C 0.0474(2) 0.76090(14) 0.51047(13)
C26A C -0.0972(2) 0.70108(14) 0.52885(13)
H25A H -0.106185 0.627136 0.505278
C27A C -0.2275(2) 0.74841(14) 0.58109(13)
H26A H -0.323164 0.705892 0.593928
C28A C -0.2225(2) 0.85603(14) 0.61526(13)
C29A C -0.0823(2) 0.91532(15) 0.59110(14)
H27A H -0.078221 0.989271 0.610075
C30A C 0.0501(2) 0.86898(14) 0.54040(14)
H28A H 0.144028 0.911421 0.525820
C31A C -0.3635(2) 0.91015(15) 0.67436(14)
C32A C -0.4929(2) 0.83305(16) 0.70356(16)
H29A H -0.576474 0.871445 0.744265
H30A H -0.556711 0.784752 0.644236
H31A H -0.428208 0.793571 0.740879
C33A C -0.2765(3) 0.98985(17) 0.76883(16)
H32A H -0.367460 1.023691 0.806823
H33A H -0.208127 0.954006 0.808228
H34A H -0.198558 1.042665 0.751706
C34A C -0.4637(3) 0.96696(18) 0.61163(18)
H35A H -0.555483 1.001784 0.648097
H36A H -0.382408 1.019074 0.595688
H37A H -0.517768 0.916573 0.550753
C35? C 0.180(3) 0.5076(18) 0.8640(15)
H38? H 0.303826 0.534454 0.884847
H39? H 0.111301 0.526704 0.920259
H40? H 0.170411 0.431373 0.838406
C36? C -0.077(2) 0.520(2) 0.745(2)
H41? H -0.149452 0.531760 0.799674
H42? H -0.114569 0.560305 0.699732
H43? H -0.089227 0.445822 0.709463
C37? C 0.148(3) 0.6769(11) 0.832(2)
H44? H 0.272500 0.694864 0.855757
H45? H 0.116427 0.714184 0.783634
H46? H 0.076915 0.697003 0.887613
loop_
_geom_bond_atom_site_label_1
_geom_bond_atom_site_label_2
_geom_bond_site_symmetry_1
_geom_bond_site_symmetry_2
O1 C8 1_555 1_555
C1 C2 1_555 1_555
C2 C3 1_555 1_555
C3 H1 1_555 1_555
C4 C3 1_555 1_555
C5 C4 1_555 1_555
H2 C5 1_555 1_555
C6 C1 1_555 1_555
C7 C6 1_555 1_555
C8 C7 1_555 1_555
C9 O1 1_555 1_555
C10 C7 1_555 1_555
C11 C4 1_555 1_555
C12 C11 1_555 1_555
H3 C12 1_555 1_555
H4 C12 1_555 1_555
H5 C12 1_555 1_555
C13 C11 1_555 1_555
H6 C13 1_555 1_555
H7 C13 1_555 1_555
H8 C13 1_555 1_555
C14 C11 1_555 1_555
H9 C14 1_555 1_555
H10 C14 1_555 1_555
H11 C14 1_555 1_555
C15 C8 1_555 1_555
C16 C15 1_555 1_555
H12 C16 1_555 1_555
C17 C16 1_555 1_555
H13 C17 1_555 1_555
C18 C17 1_555 1_555
C19 C18 1_555 1_555
H14 C19 1_555 1_555
C20 C15 1_555 1_555
H15 C20 1_555 1_555
C21 C18 1_555 1_555
C22 C21 1_555 1_555
H16 C22 1_555 1_555
H17 C22 1_555 1_555
H18 C22 1_555 1_555
C23 C21 1_555 1_555
H19 C23 1_555 1_555
H20 C23 1_555 1_555
H21 C23 1_555 1_555
C24 C21 1_555 1_555
H22 C24 1_555 1_555
H23 C24 1_555 1_555
H24 C24 1_555 1_555
C25 C9 1_555 1_555
C26 C25 1_555 1_555
H25 C26 1_555 1_555
C27 C26 1_555 1_555
H26 C27 1_555 1_555
C28 C27 1_555 1_555
C29 C28 1_555 1_555
H27 C29 1_555 1_555
C30 C25 1_555 1_555
H28 C30 1_555 1_555
C31 C28 1_555 1_555
C32 C31 1_555 1_555
H29 C32 1_555 1_555
H30 C32 1_555 1_555
H31 C32 1_555 1_555
C33 C31 1_555 1_555
H32 C33 1_555 1_555
H33 C33 1_555 1_555
H34 C33 1_555 1_555
C34 C31 1_555 1_555
H35 C34 1_555 1_555
H36 C34 1_555 1_555
H37 C34 1_555 1_555
O1A C8A 1_555 1_555
C1A C1 1_555 1_555
C2A C10 1_555 1_555
C3A C2A 1_555 1_555
H1A C3A 1_555 1_555
C4A C3A 1_555 1_555
C5A C4A 1_555 1_555
H2A C5A 1_555 1_555
C6A C1A 1_555 1_555
C7A C6A 1_555 1_555
C8A C7A 1_555 1_555
C9A O1A 1_555 1_555
C10A C2 1_555 1_555
C11A C4A 1_555 1_555
C12A C11A 1_555 1_555
H3A C12A 1_555 1_555
H4A C12A 1_555 1_555
H5A C12A 1_555 1_555
C13A C11A 1_555 1_555
H6A C13A 1_555 1_555
H7A C13A 1_555 1_555
H8A C13A 1_555 1_555
C14A C11A 1_555 1_555
H9A C14A 1_555 1_555
H10A C14A 1_555 1_555
H11A C14A 1_555 1_555
C15A C8A 1_555 1_555
C16A C15A 1_555 1_555
H12A C16A 1_555 1_555
C17A C16A 1_555 1_555
H13A C17A 1_555 1_555
C18A C17A 1_555 1_555
C19A C18A 1_555 1_555
H14A C19A 1_555 1_555
C20A C15A 1_555 1_555
H15A C20A 1_555 1_555
C21A C18A 1_555 1_555
C22A C21A 1_555 1_555
H16A C22A 1_555 1_555
H17A C22A 1_555 1_555
H18A C22A 1_555 1_555
C23A C21A 1_555 1_555
H19A C23A 1_555 1_555
H20A C23A 1_555 1_555
H21A C23A 1_555 1_555
C24A C21A 1_555 1_555
H22A C24A 1_555 1_555
H23A C24A 1_555 1_555
H24A C24A 1_555 1_555
C25A C9A 1_555 1_555
C26A C25A 1_555 1_555
H25A C26A 1_555 1_555
C27A C26A 1_555 1_555
H26A C27A 1_555 1_555
C28A C27A 1_555 1_555
C29A C28A 1_555 1_555
H27A C29A 1_555 1_555
C30A C25A 1_555 1_555
H28A C30A 1_555 1_555
C31A C28A 1_555 1_555
C32A C31A 1_555 1_555
H29A C32A 1_555 1_555
H30A C32A 1_555 1_555
H31A C32A 1_555 1_555
C33A C31A 1_555 1_555
H32A C33A 1_555 1_555
H33A C33A 1_555 1_555
H34A C33A 1_555 1_555
C34A C31A 1_555 1_555
H35A C34A 1_555 1_555
H36A C34A 1_555 1_555
H37A C34A 1_555 1_555
C5 C6 1_555 1_555
C9 C10 1_555 1_555
C19 C20 1_555 1_555
C29 C30 1_555 1_555
C1A C2A 1_555 1_555
C5A C6A 1_555 1_555
C7A C10A 1_555 1_555
C9A C10A 1_555 1_555
C19A C20A 1_555 1_555
C29A C30A 1_555 1_555

#END
