
#######################################################################
#
#                 Cambridge Crystallographic Data Centre
#                                CCDC 
#
#######################################################################
#
# If this CIF has been generated from an entry in the Cambridge 
# Structural Database, then it will include bibliographic, chemical, 
# crystal, experimental, refinement or atomic coordinate data resulting 
# from the CCDC's data processing and validation procedures.
#
#######################################################################

data_VEMFAX
_chemical_formula_moiety         'C46 H50 N2'
_chemical_name_systematic        
2,7-di-t-butyl-9,12-bis(4-t-butylphenyl)phenanthro[4,5-fgh]phthalazine
_symmetry_cell_setting           orthorhombic
_symmetry_space_group_name_H-M   'F d d 2'
_symmetry_Int_Tables_number      43
_space_group_name_Hall           'F 2 -2d'
loop_
_symmetry_equiv_pos_site_id
_symmetry_equiv_pos_as_xyz
1 x,y,z
2 -x,-y,z
3 1/4+x,1/4-y,1/4+z
4 1/4-x,1/4+y,1/4+z
5 x,1/2+y,1/2+z
6 -x,1/2-y,1/2+z
7 1/4+x,3/4-y,3/4+z
8 1/4-x,3/4+y,3/4+z
9 1/2+x,y,1/2+z
10 1/2-x,-y,1/2+z
11 3/4+x,1/4-y,3/4+z
12 3/4-x,1/4+y,3/4+z
13 1/2+x,1/2+y,z
14 1/2-x,1/2-y,z
15 3/4+x,3/4-y,1/4+z
16 3/4-x,3/4+y,1/4+z
_cell_length_a                   21.1671(11)
_cell_length_b                   32.6341(15)
_cell_length_c                   10.6447(6)
_cell_angle_alpha                90
_cell_angle_beta                 90
_cell_angle_gamma                90
_cell_volume                     7353.03
_exptl_crystal_colour            yellow
_exptl_crystal_description       polyhedron
_cell_formula_units_Z            8
loop_
_atom_site_label
_atom_site_type_symbol
_atom_site_fract_x
_atom_site_fract_y
_atom_site_fract_z
C1 C 0.26883(18) 0.73193(12) 0.3427(4)
C2 C 0.2693(2) 0.73365(14) 0.1136(4)
H1 H 0.282903 0.722538 0.035717
C3 C 0.29023(18) 0.71521(13) 0.2276(4)
C4 C 0.3291(2) 0.68086(13) 0.2290(4)
H2 H 0.343193 0.669876 0.151263
C5 C 0.34802(19) 0.66208(12) 0.3391(4)
C6 C 0.32561(18) 0.67850(12) 0.4522(4)
H3 H 0.338393 0.666094 0.528796
C7 C 0.28544(18) 0.71221(12) 0.4571(3)
C8 C 0.26282(18) 0.73013(12) 0.5748(3)
C9 C 0.26403(19) 0.70980(12) 0.6936(4)
N1 N 0.2538(2) 0.72949(11) 0.8002(3)
C10 C 0.3925(2) 0.62521(13) 0.3403(5)
C11 C 0.3978(3) 0.60500(18) 0.2082(6)
H4 H 0.356245 0.594903 0.182132
H5 H 0.412913 0.625322 0.147383
H6 H 0.427666 0.582071 0.211877
C12 C 0.4575(3) 0.64015(19) 0.3757(8)
H7 H 0.471096 0.661267 0.316073
H8 H 0.456427 0.651716 0.460621
H9 H 0.487304 0.617165 0.373371
C13 C 0.3684(4) 0.59236(16) 0.4288(7)
H10 H 0.326155 0.583638 0.402180
H11 H 0.397130 0.568824 0.427106
H12 H 0.366253 0.603375 0.514356
C14 C 0.26988(19) 0.66467(12) 0.7112(4)
C15 C 0.3082(2) 0.64869(13) 0.8043(4)
H13 H 0.332913 0.666722 0.854341
C16 C 0.3114(2) 0.60686(13) 0.8260(4)
H14 H 0.337919 0.596811 0.891047
C17 C 0.2765(2) 0.57938(13) 0.7547(4)
C18 C 0.2376(2) 0.59578(13) 0.6623(4)
H15 H 0.212673 0.577771 0.612656
C19 C 0.2340(2) 0.63763(13) 0.6403(4)
H16 H 0.206820 0.647811 0.576434
C20 C 0.2815(2) 0.53270(14) 0.7720(5)
C21 C 0.3125(3) 0.51511(15) 0.6532(6)
H17 H 0.316677 0.485328 0.661679
H18 H 0.354414 0.527343 0.642198
H19 H 0.286196 0.521432 0.579967
C22 C 0.2152(3) 0.51451(16) 0.7870(6)
H20 H 0.218363 0.484748 0.797468
H21 H 0.190056 0.520675 0.712012
H22 H 0.194769 0.526475 0.861003
C23 C 0.3215(3) 0.52094(15) 0.8865(5)
H23 H 0.324134 0.491023 0.892538
H24 H 0.301880 0.531905 0.962792
H25 H 0.364051 0.532371 0.877255
C1M C 0.23117(18) 0.76807(12) 0.3427(4)
C2M C 0.2307(2) 0.76635(14) 0.1136(4)
H1M H 0.217097 0.777462 0.035717
C3M C 0.20977(18) 0.78479(13) 0.2276(4)
C4M C 0.1709(2) 0.81914(13) 0.2290(4)
H2M H 0.156807 0.830124 0.151263
C5M C 0.15198(19) 0.83792(12) 0.3391(4)
C6M C 0.17439(18) 0.82150(12) 0.4522(4)
H3M H 0.161607 0.833906 0.528796
C7M C 0.21456(18) 0.78779(12) 0.4571(3)
C8M C 0.23718(18) 0.76987(12) 0.5748(3)
C9M C 0.23597(19) 0.79020(12) 0.6936(4)
N1M N 0.2462(2) 0.77051(11) 0.8002(3)
C10M C 0.1075(2) 0.87479(13) 0.3403(5)
C11M C 0.1022(3) 0.89500(18) 0.2082(6)
H4M H 0.143755 0.905097 0.182132
H5M H 0.087087 0.874678 0.147383
H6M H 0.072334 0.917929 0.211877
C12M C 0.0425(3) 0.85985(19) 0.3757(8)
H7M H 0.028904 0.838733 0.316073
H8M H 0.043573 0.848284 0.460621
H9M H 0.012696 0.882835 0.373371
C13M C 0.1316(4) 0.90764(16) 0.4288(7)
H10M H 0.173845 0.916362 0.402180
H11M H 0.102870 0.931176 0.427106
H12M H 0.133747 0.896625 0.514356
C14M C 0.23012(19) 0.83533(12) 0.7112(4)
C15M C 0.1918(2) 0.85131(13) 0.8043(4)
H13M H 0.167087 0.833278 0.854341
C16M C 0.1886(2) 0.89314(13) 0.8260(4)
H14M H 0.162081 0.903189 0.891047
C17M C 0.2235(2) 0.92062(13) 0.7547(4)
C18M C 0.2624(2) 0.90422(13) 0.6623(4)
H15M H 0.287327 0.922229 0.612656
C19M C 0.2660(2) 0.86237(13) 0.6403(4)
H16M H 0.293180 0.852189 0.576434
C20M C 0.2185(2) 0.96730(14) 0.7720(5)
C21M C 0.1875(3) 0.98489(15) 0.6532(6)
H17M H 0.183323 1.014672 0.661679
H18M H 0.145586 0.972657 0.642198
H19M H 0.213804 0.978568 0.579967
C22M C 0.2848(3) 0.98549(16) 0.7870(6)
H20M H 0.281637 1.015252 0.797468
H21M H 0.309944 0.979325 0.712012
H22M H 0.305231 0.973525 0.861003
C23M C 0.1785(3) 0.97906(15) 0.8865(5)
H23M H 0.175866 1.008977 0.892538
H24M H 0.198120 0.968095 0.962792
H25M H 0.135949 0.967629 0.877255
C24? C 0.4116(19) 0.6148(13) 0.484(2)
H26? H 0.373165 0.610373 0.533280
H27? H 0.437557 0.589939 0.485506
H28? H 0.435534 0.637710 0.519234
C25? C 0.361(2) 0.5857(10) 0.297(4)
H29? H 0.320325 0.582790 0.338522
H30? H 0.355545 0.586515 0.205980
H31? H 0.388440 0.562438 0.319449
C26? C 0.4563(13) 0.6310(13) 0.279(4)
H32? H 0.475290 0.656635 0.308151
H33? H 0.483945 0.607978 0.300788
H34? H 0.451050 0.632055 0.187320
loop_
_geom_bond_atom_site_label_1
_geom_bond_atom_site_label_2
_geom_bond_site_symmetry_1
_geom_bond_site_symmetry_2
C1 C3 1_555 1_555
C2 H1 1_555 1_555
C3 C2 1_555 1_555
C4 C3 1_555 1_555
H2 C4 1_555 1_555
C5 C4 1_555 1_555
C6 C5 1_555 1_555
H3 C6 1_555 1_555
C7 C1 1_555 1_555
C8 C7 1_555 1_555
C9 C8 1_555 1_555
N1 C9 1_555 1_555
C10 C5 1_555 1_555
C11 C10 1_555 1_555
H4 C11 1_555 1_555
H5 C11 1_555 1_555
H6 C11 1_555 1_555
C12 C10 1_555 1_555
H7 C12 1_555 1_555
H8 C12 1_555 1_555
H9 C12 1_555 1_555
C13 C10 1_555 1_555
H10 C13 1_555 1_555
H11 C13 1_555 1_555
H12 C13 1_555 1_555
C14 C9 1_555 1_555
C15 C14 1_555 1_555
H13 C15 1_555 1_555
C16 C15 1_555 1_555
H14 C16 1_555 1_555
C17 C16 1_555 1_555
C18 C17 1_555 1_555
H15 C18 1_555 1_555
C19 C14 1_555 1_555
H16 C19 1_555 1_555
C20 C17 1_555 1_555
C21 C20 1_555 1_555
H17 C21 1_555 1_555
H18 C21 1_555 1_555
H19 C21 1_555 1_555
C22 C20 1_555 1_555
H20 C22 1_555 1_555
H21 C22 1_555 1_555
H22 C22 1_555 1_555
C23 C20 1_555 1_555
H23 C23 1_555 1_555
H24 C23 1_555 1_555
H25 C23 1_555 1_555
C1M C1 1_555 1_555
C2M C2 1_555 1_555
H1M C2M 1_555 1_555
C3M C1M 1_555 1_555
C4M C3M 1_555 1_555
H2M C4M 1_555 1_555
C5M C4M 1_555 1_555
C6M C5M 1_555 1_555
H3M C6M 1_555 1_555
C7M C1M 1_555 1_555
C8M C8 1_555 1_555
C9M C8M 1_555 1_555
N1M N1 1_555 1_555
C10M C5M 1_555 1_555
C11M C10M 1_555 1_555
H4M C11M 1_555 1_555
H5M C11M 1_555 1_555
H6M C11M 1_555 1_555
C12M C10M 1_555 1_555
H7M C12M 1_555 1_555
H8M C12M 1_555 1_555
H9M C12M 1_555 1_555
C13M C10M 1_555 1_555
H10M C13M 1_555 1_555
H11M C13M 1_555 1_555
H12M C13M 1_555 1_555
C14M C9M 1_555 1_555
C15M C14M 1_555 1_555
H13M C15M 1_555 1_555
C16M C15M 1_555 1_555
H14M C16M 1_555 1_555
C17M C16M 1_555 1_555
C18M C17M 1_555 1_555
H15M C18M 1_555 1_555
C19M C14M 1_555 1_555
H16M C19M 1_555 1_555
C20M C17M 1_555 1_555
C21M C20M 1_555 1_555
H17M C21M 1_555 1_555
H18M C21M 1_555 1_555
H19M C21M 1_555 1_555
C22M C20M 1_555 1_555
H20M C22M 1_555 1_555
H21M C22M 1_555 1_555
H22M C22M 1_555 1_555
C23M C20M 1_555 1_555
H23M C23M 1_555 1_555
H24M C23M 1_555 1_555
H25M C23M 1_555 1_555
C6 C7 1_555 1_555
C18 C19 1_555 1_555
C2M C3M 1_555 1_555
C6M C7M 1_555 1_555
C7M C8M 1_555 1_555
C9M N1M 1_555 1_555
C18M C19M 1_555 1_555

#END
