
#######################################################################
#
#                 Cambridge Crystallographic Data Centre
#                                CCDC 
#
#######################################################################
#
# If this CIF has been generated from an entry in the Cambridge 
# Structural Database, then it will include bibliographic, chemical, 
# crystal, experimental, refinement or atomic coordinate data resulting 
# from the CCDC's data processing and validation procedures.
#
#######################################################################

data_VEMFOL
_chemical_formula_moiety         'C68 H74 S2,C7 H8'
_chemical_name_systematic        
"2,8-di-t-butyl-4,6,10,12-tetrakis(4-t-butylphenyl)pyreno[10,9-c:4,5-c']bis(thiophene) toluene solvate"
_symmetry_cell_setting           triclinic
_symmetry_space_group_name_H-M   'P -1'
_symmetry_Int_Tables_number      2
_space_group_name_Hall           '-P 1'
loop_
_symmetry_equiv_pos_site_id
_symmetry_equiv_pos_as_xyz
1 x,y,z
2 -x,-y,-z
_cell_length_a                   7.8042(8)
_cell_length_b                   12.9785(16)
_cell_length_c                   15.2031(19)
_cell_angle_alpha                82.550(10)
_cell_angle_beta                 83.556(9)
_cell_angle_gamma                78.574(9)
_cell_volume                     1490.67
_exptl_crystal_colour            colorless
_exptl_crystal_description       needle
_cell_formula_units_Z            1
loop_
_atom_site_label
_atom_site_type_symbol
_atom_site_fract_x
_atom_site_fract_y
_atom_site_fract_z
S1 S 0.6062(2) 0.27142(13) 0.66607(11)
C1 C 0.8009(7) 0.1885(5) 0.6868(4)
C2 C 0.8569(7) 0.1223(4) 0.6210(4)
C3 C 0.7385(7) 0.1427(4) 0.5514(4)
C4 C 0.5950(7) 0.2216(5) 0.5676(4)
C5 C 0.8844(7) 0.2007(5) 0.7665(4)
C6 C 1.0233(7) 0.2572(4) 0.7563(4)
H1 H 1.059906 0.287937 0.698894
C7 C 1.1068(8) 0.2682(5) 0.8289(4)
H2 H 1.200636 0.306243 0.820314
C8 C 1.0574(8) 0.2254(5) 0.9140(4)
C9 C 0.9183(7) 0.1703(5) 0.9247(4)
H3 H 0.881758 0.139764 0.982251
C10 C 0.8329(7) 0.1600(5) 0.8516(4)
H4 H 0.736536 0.124025 0.860528
C11 C 1.1580(8) 0.2376(5) 0.9930(4)
C12 C 1.3540(8) 0.1938(6) 0.9725(5)
H5 H 1.420861 0.212623 1.016931
H6 H 1.393742 0.224028 0.913089
H7 H 1.372589 0.116601 0.974464
C13 C 1.0914(9) 0.1822(6) 1.0808(4)
H8 H 1.156646 0.194409 1.128717
H9 H 1.108350 0.106054 1.076522
H10 H 0.966205 0.210269 1.093778
C14 C 1.1340(8) 0.3570(5) 1.0023(5)
H11 H 1.200879 0.367091 1.050311
H12 H 1.009329 0.385647 1.016179
H13 H 1.176563 0.393908 0.946195
C15 C 0.4421(7) 0.2711(5) 0.5161(4)
C16 C 0.4382(7) 0.3651(5) 0.4624(4)
H14 H 0.529530 0.403714 0.462718
C17 C 0.3038(7) 0.4051(5) 0.4076(4)
H15 H 0.306409 0.469518 0.370323
C18 C 0.1647(7) 0.3518(5) 0.4065(4)
C19 C 0.1657(7) 0.2598(5) 0.4639(4)
H16 H 0.070620 0.223555 0.466073
C20 C 0.2991(7) 0.2184(5) 0.5184(4)
H17 H 0.294694 0.155132 0.556983
C21 C 0.0177(7) 0.3967(5) 0.3447(4)
C22 C -0.1089(8) 0.4845(5) 0.3902(5)
H18 H -0.203220 0.515862 0.351972
H19 H -0.045029 0.539166 0.400173
H20 H -0.159439 0.454495 0.447432
C23 C 0.0913(8) 0.4420(6) 0.2547(4)
H21 H -0.004081 0.467253 0.215965
H22 H 0.178207 0.387045 0.227651
H23 H 0.147381 0.501120 0.262351
C24 C -0.0852(9) 0.3118(5) 0.3305(5)
H24 H -0.174695 0.342302 0.289390
H25 H -0.141986 0.286269 0.387768
H26 H -0.004561 0.252751 0.305441
C25 C 0.7826(7) 0.0855(4) 0.4718(4)
C26 C 0.6717(7) 0.1038(4) 0.4029(4)
H27 H 0.561312 0.149712 0.410307
C27 C 0.7172(7) 0.0572(4) 0.3238(4)
C28 C 0.8741(7) -0.0142(4) 0.3168(4)
H28 H 0.908073 -0.046291 0.263181
C29 C 0.9841(7) -0.0407(4) 0.3861(4)
C30 C 0.9400(7) 0.0113(4) 0.4647(4)
C31 C 0.5899(7) 0.0837(5) 0.2509(4)
C32 C 0.5524(8) 0.2031(5) 0.2250(4)
H29 H 0.472384 0.220119 0.177707
H30 H 0.662556 0.227249 0.203593
H31 H 0.498170 0.238637 0.277054
C33 C 0.4176(8) 0.0468(6) 0.2872(5)
H32 H 0.335510 0.062956 0.240835
H33 H 0.365830 0.083508 0.338981
H34 H 0.441552 -0.029680 0.304865
C34 C 0.6629(9) 0.0293(6) 0.1674(5)
H35 H 0.578037 0.049159 0.122492
H36 H 0.683860 -0.047598 0.182836
H37 H 0.773512 0.051429 0.143589
S1A S 1.3938(2) -0.27142(13) 0.33393(11)
C1A C 1.1991(7) -0.1885(5) 0.3132(4)
C2A C 1.1431(7) -0.1223(4) 0.3790(4)
C3A C 1.2615(7) -0.1427(4) 0.4486(4)
C4A C 1.4050(7) -0.2216(5) 0.4324(4)
C5A C 1.1156(7) -0.2007(5) 0.2335(4)
C6A C 0.9767(7) -0.2572(4) 0.2437(4)
H1A H 0.940094 -0.287937 0.301106
C7A C 0.8932(8) -0.2682(5) 0.1711(4)
H2A H 0.799364 -0.306243 0.179686
C8A C 0.9426(8) -0.2254(5) 0.0860(4)
C9A C 1.0817(7) -0.1703(5) 0.0753(4)
H3A H 1.118242 -0.139764 0.017749
C10A C 1.1671(7) -0.1600(5) 0.1484(4)
H4A H 1.263464 -0.124025 0.139472
C11A C 0.8420(8) -0.2376(5) 0.0070(4)
C12A C 0.6460(8) -0.1938(6) 0.0275(5)
H5A H 0.579139 -0.212623 -0.016931
H6A H 0.606258 -0.224028 0.086911
H7A H 0.627411 -0.116601 0.025536
C13A C 0.9086(9) -0.1822(6) -0.0808(4)
H8A H 0.843354 -0.194409 -0.128717
H9A H 0.891650 -0.106054 -0.076522
H10A H 1.033795 -0.210269 -0.093778
C14A C 0.8660(8) -0.3570(5) -0.0023(5)
H11A H 0.799121 -0.367091 -0.050311
H12A H 0.990671 -0.385647 -0.016179
H13A H 0.823437 -0.393908 0.053805
C15A C 1.5579(7) -0.2711(5) 0.4839(4)
C16A C 1.5618(7) -0.3651(5) 0.5376(4)
H14A H 1.470470 -0.403714 0.537282
C17A C 1.6962(7) -0.4051(5) 0.5924(4)
H15A H 1.693591 -0.469518 0.629677
C18A C 1.8353(7) -0.3518(5) 0.5935(4)
C19A C 1.8343(7) -0.2598(5) 0.5361(4)
H16A H 1.929380 -0.223555 0.533927
C20A C 1.7009(7) -0.2184(5) 0.4816(4)
H17A H 1.705306 -0.155132 0.443017
C21A C 1.9823(7) -0.3967(5) 0.6553(4)
C22A C 2.1089(8) -0.4845(5) 0.6098(5)
H18A H 2.203220 -0.515862 0.648028
H19A H 2.045029 -0.539166 0.599827
H20A H 2.159439 -0.454495 0.552568
C23A C 1.9087(8) -0.4420(6) 0.7453(4)
H21A H 2.004081 -0.467253 0.784035
H22A H 1.821793 -0.387045 0.772349
H23A H 1.852619 -0.501120 0.737649
C24A C 2.0852(9) -0.3118(5) 0.6695(5)
H24A H 2.174695 -0.342302 0.710610
H25A H 2.141986 -0.286269 0.612232
H26A H 2.004561 -0.252751 0.694559
C25A C 1.2174(7) -0.0855(4) 0.5282(4)
C26A C 1.3283(7) -0.1038(4) 0.5971(4)
H27A H 1.438688 -0.149712 0.589693
C27A C 1.2828(7) -0.0572(4) 0.6762(4)
C28A C 1.1259(7) 0.0142(4) 0.6832(4)
H28A H 1.091927 0.046291 0.736819
C29A C 1.0159(7) 0.0407(4) 0.6139(4)
C30A C 1.0600(7) -0.0113(4) 0.5353(4)
C31A C 1.4101(7) -0.0837(5) 0.7491(4)
C32A C 1.4476(8) -0.2031(5) 0.7750(4)
H29A H 1.527616 -0.220119 0.822293
H30A H 1.337444 -0.227249 0.796407
H31A H 1.501830 -0.238637 0.722946
C33A C 1.5824(8) -0.0468(6) 0.7128(5)
H32A H 1.664490 -0.062956 0.759165
H33A H 1.634170 -0.083508 0.661019
H34A H 1.558448 0.029680 0.695135
C34A C 1.3371(9) -0.0293(6) 0.8326(5)
H35A H 1.421963 -0.049159 0.877508
H36A H 1.316140 0.047598 0.817164
H37A H 1.226488 -0.051429 0.856411
C35? C 1.471(4) 0.500(2) 0.8401(16)
H38? H 1.468991 0.571536 0.809467
H39? H 1.361383 0.477186 0.833597
H40? H 1.570319 0.451294 0.813840
C36? C 1.491(2) 0.5004(12) 0.9386(6)
C37? C 1.611(2) 0.4209(11) 0.9814(8)
H41? H 1.683309 0.368775 0.948533
C38? C 1.6230(19) 0.4178(12) 1.0722(8)
H42? H 1.704424 0.363457 1.101436
C39? C 1.517(2) 0.4941(15) 1.1203(6)
H43? H 1.525100 0.491968 1.182378
C40? C 1.3975(18) 0.5736(12) 1.0776(7)
H44? H 1.324659 0.625797 1.110418
C41? C 1.3849(18) 0.5768(11) 0.9867(7)
H45? H 1.303541 0.631116 0.957515
loop_
_geom_bond_atom_site_label_1
_geom_bond_atom_site_label_2
_geom_bond_site_symmetry_1
_geom_bond_site_symmetry_2
S1 C1 1_555 1_555
C1 C2 1_555 1_555
C2 C3 1_555 1_555
C3 C4 1_555 1_555
C4 S1 1_555 1_555
C5 C1 1_555 1_555
C6 C5 1_555 1_555
H1 C6 1_555 1_555
C7 C6 1_555 1_555
H2 C7 1_555 1_555
C8 C7 1_555 1_555
C9 C8 1_555 1_555
H3 C9 1_555 1_555
C10 C5 1_555 1_555
H4 C10 1_555 1_555
C11 C8 1_555 1_555
C12 C11 1_555 1_555
H5 C12 1_555 1_555
H6 C12 1_555 1_555
H7 C12 1_555 1_555
C13 C11 1_555 1_555
H8 C13 1_555 1_555
H9 C13 1_555 1_555
H10 C13 1_555 1_555
C14 C11 1_555 1_555
H11 C14 1_555 1_555
H12 C14 1_555 1_555
H13 C14 1_555 1_555
C15 C4 1_555 1_555
C16 C15 1_555 1_555
H14 C16 1_555 1_555
C17 C16 1_555 1_555
H15 C17 1_555 1_555
C18 C17 1_555 1_555
C19 C18 1_555 1_555
H16 C19 1_555 1_555
C20 C15 1_555 1_555
H17 C20 1_555 1_555
C21 C18 1_555 1_555
C22 C21 1_555 1_555
H18 C22 1_555 1_555
H19 C22 1_555 1_555
H20 C22 1_555 1_555
C23 C21 1_555 1_555
H21 C23 1_555 1_555
H22 C23 1_555 1_555
H23 C23 1_555 1_555
C24 C21 1_555 1_555
H24 C24 1_555 1_555
H25 C24 1_555 1_555
H26 C24 1_555 1_555
C25 C3 1_555 1_555
C26 C25 1_555 1_555
H27 C26 1_555 1_555
C27 C26 1_555 1_555
C28 C27 1_555 1_555
H28 C28 1_555 1_555
C29 C28 1_555 1_555
C30 C25 1_555 1_555
C31 C27 1_555 1_555
C32 C31 1_555 1_555
H29 C32 1_555 1_555
H30 C32 1_555 1_555
H31 C32 1_555 1_555
C33 C31 1_555 1_555
H32 C33 1_555 1_555
H33 C33 1_555 1_555
H34 C33 1_555 1_555
C34 C31 1_555 1_555
H35 C34 1_555 1_555
H36 C34 1_555 1_555
H37 C34 1_555 1_555
S1A C1A 1_555 1_555
C1A C2A 1_555 1_555
C2A C29 1_555 1_555
C3A C2A 1_555 1_555
C4A S1A 1_555 1_555
C5A C1A 1_555 1_555
C6A C5A 1_555 1_555
H1A C6A 1_555 1_555
C7A C6A 1_555 1_555
H2A C7A 1_555 1_555
C8A C7A 1_555 1_555
C9A C8A 1_555 1_555
H3A C9A 1_555 1_555
C10A C5A 1_555 1_555
H4A C10A 1_555 1_555
C11A C8A 1_555 1_555
C12A C11A 1_555 1_555
H5A C12A 1_555 1_555
H6A C12A 1_555 1_555
H7A C12A 1_555 1_555
C13A C11A 1_555 1_555
H8A C13A 1_555 1_555
H9A C13A 1_555 1_555
H10A C13A 1_555 1_555
C14A C11A 1_555 1_555
H11A C14A 1_555 1_555
H12A C14A 1_555 1_555
H13A C14A 1_555 1_555
C15A C4A 1_555 1_555
C16A C15A 1_555 1_555
H14A C16A 1_555 1_555
C17A C16A 1_555 1_555
H15A C17A 1_555 1_555
C18A C17A 1_555 1_555
C19A C18A 1_555 1_555
H16A C19A 1_555 1_555
C20A C15A 1_555 1_555
H17A C20A 1_555 1_555
C21A C18A 1_555 1_555
C22A C21A 1_555 1_555
H18A C22A 1_555 1_555
H19A C22A 1_555 1_555
H20A C22A 1_555 1_555
C23A C21A 1_555 1_555
H21A C23A 1_555 1_555
H22A C23A 1_555 1_555
H23A C23A 1_555 1_555
C24A C21A 1_555 1_555
H24A C24A 1_555 1_555
H25A C24A 1_555 1_555
H26A C24A 1_555 1_555
C25A C3A 1_555 1_555
C26A C25A 1_555 1_555
H27A C26A 1_555 1_555
C27A C26A 1_555 1_555
C28A C27A 1_555 1_555
H28A C28A 1_555 1_555
C29A C2 1_555 1_555
C30A C30 1_555 1_555
C31A C27A 1_555 1_555
C32A C31A 1_555 1_555
H29A C32A 1_555 1_555
H30A C32A 1_555 1_555
H31A C32A 1_555 1_555
C33A C31A 1_555 1_555
H32A C33A 1_555 1_555
H33A C33A 1_555 1_555
H34A C33A 1_555 1_555
C34A C31A 1_555 1_555
H35A C34A 1_555 1_555
H36A C34A 1_555 1_555
H37A C34A 1_555 1_555
C9 C10 1_555 1_555
C19 C20 1_555 1_555
C29 C30 1_555 1_555
C3A C4A 1_555 1_555
C9A C10A 1_555 1_555
C19A C20A 1_555 1_555
C25A C30A 1_555 1_555
C28A C29A 1_555 1_555
C29A C30A 1_555 1_555

#END
