
#######################################################################
#
#                 Cambridge Crystallographic Data Centre
#                                CCDC 
#
#######################################################################
#
# If this CIF has been generated from an entry in the Cambridge 
# Structural Database, then it will include bibliographic, chemical, 
# crystal, experimental, refinement or atomic coordinate data resulting 
# from the CCDC's data processing and validation procedures.
#
#######################################################################

data_VEMFUR
_chemical_formula_moiety         'C68 H74 N4,4(C1 H1 Cl3)'
_chemical_name_systematic        
"2,9-di-t-butyl-4,7,11,14-tetrakis(4-t-butylphenyl)pyridazino[4',5':9,10]phenanthro[4,5-fgh]phthalazine chloroform solvate"
_symmetry_cell_setting           triclinic
_symmetry_space_group_name_H-M   'P -1'
_symmetry_Int_Tables_number      2
_space_group_name_Hall           '-P 1'
loop_
_symmetry_equiv_pos_site_id
_symmetry_equiv_pos_as_xyz
1 x,y,z
2 -x,-y,-z
_cell_length_a                   11.7349(7)
_cell_length_b                   12.0260(7)
_cell_length_c                   27.2684(16)
_cell_angle_alpha                94.6464(16)
_cell_angle_beta                 90.9240(16)
_cell_angle_gamma                105.7481(14)
_cell_volume                     3688.69
_exptl_crystal_colour            yellow
_exptl_crystal_description       polyhedron
_cell_formula_units_Z            2
loop_
_atom_site_label
_atom_site_type_symbol
_atom_site_fract_x
_atom_site_fract_y
_atom_site_fract_z
C1 C 0.5569(4) 0.5831(4) 0.27253(17)
C2 C 0.4961(4) 0.5665(4) 0.22481(17)
C3 C 0.4609(4) 0.8439(4) 0.32519(17)
C4 C 0.4656(4) 0.7413(4) 0.29596(17)
C5 C 0.5393(4) 0.6667(4) 0.30849(17)
C6 C 0.5847(4) 0.6706(4) 0.35654(18)
H1 H 0.569541 0.724629 0.381199
C7 C 0.6513(4) 0.5972(4) 0.36886(17)
C8 C 0.6761(4) 0.5222(4) 0.33241(17)
H2 H 0.723589 0.473207 0.340607
C9 C 0.6337(4) 0.5155(4) 0.28350(17)
C10 C 0.6604(4) 0.4365(4) 0.24419(17)
C11 C 0.7562(4) 0.3850(4) 0.24615(18)
N1 N 0.7703(4) 0.3060(4) 0.21124(16)
N2 N 0.6858(4) 0.2620(4) 0.17585(15)
C12 C 0.5994(4) 0.3116(4) 0.16980(17)
C13 C 0.5902(4) 0.4107(4) 0.20013(17)
C14 C 0.5144(4) 0.4827(4) 0.18839(16)
C15 C 0.4688(4) 0.4811(4) 0.14058(17)
H3 H 0.485198 0.428906 0.115412
C16 C 0.4002(4) 0.5536(4) 0.12875(16)
C17 C 0.3733(4) 0.6260(4) 0.16593(17)
H4 H 0.322656 0.672483 0.158412
C18 C 0.4182(4) 0.6336(4) 0.21450(17)
C19 C 0.3936(4) 0.7139(4) 0.25272(17)
C20 C 0.3003(4) 0.7685(4) 0.25058(17)
N3 N 0.2903(4) 0.8521(4) 0.28353(16)
N4 N 0.3769(4) 0.8964(4) 0.31821(16)
C21 C 0.6974(5) 0.6000(5) 0.42251(18)
C22 C 0.5935(9) 0.5707(19) 0.4538(4)
H5 H 0.546311 0.625728 0.450309
H6 H 0.544849 0.491906 0.443563
H7 H 0.620450 0.575094 0.488291
C23 C 0.7729(17) 0.5171(15) 0.4268(4)
H8 H 0.840868 0.538496 0.405727
H9 H 0.801117 0.521057 0.461084
H10 H 0.725517 0.437870 0.416357
C24 C 0.7742(16) 0.7219(9) 0.4379(5)
H11 H 0.842586 0.740256 0.416883
H12 H 0.727708 0.777573 0.434389
H13 H 0.801744 0.726651 0.472302
C25 C 0.3602(5) 0.5542(5) 0.07483(17)
C26 C 0.4668(6) 0.6184(7) 0.0476(2)
H14 H 0.444036 0.617739 0.012847
H15 H 0.530191 0.580122 0.050325
H16 H 0.494916 0.698745 0.062178
C27 C 0.3155(6) 0.4318(5) 0.0507(2)
H17 H 0.250469 0.387605 0.069323
H18 H 0.380168 0.394470 0.050151
H19 H 0.287114 0.433938 0.016858
C28 C 0.2624(7) 0.6129(8) 0.0708(2)
H20 H 0.292573 0.695045 0.082708
H21 H 0.196502 0.575632 0.090725
H22 H 0.234763 0.606322 0.036295
C29 C 0.5545(4) 0.9098(4) 0.36233(18)
C30 C 0.6722(5) 0.9387(5) 0.35078(19)
H23 H 0.694352 0.912708 0.319480
C31 C 0.7584(5) 1.0054(5) 0.38439(18)
H24 H 0.838841 1.025111 0.375475
C32 C 0.7305(5) 1.0439(5) 0.43052(18)
C33 C 0.6116(5) 1.0151(5) 0.44131(19)
H25 H 0.589331 1.041652 0.472495
C34 C 0.5246(5) 0.9489(5) 0.40819(18)
H26 H 0.444004 0.930105 0.416893
C35 C 0.8254(5) 1.1207(5) 0.4671(2)
C36 C 0.8194(8) 1.2451(6) 0.4665(3)
H27 H 0.831355 1.269182 0.433078
H28 H 0.881492 1.295810 0.488968
H29 H 0.741677 1.250659 0.477192
C37 C 0.8061(7) 1.0808(8) 0.5184(2)
H30 H 0.729707 1.089054 0.529642
H31 H 0.869840 1.128301 0.540970
H32 H 0.806410 0.999281 0.517751
C38 C 0.9503(6) 1.1191(8) 0.4527(3)
H33 H 0.957100 1.039508 0.451663
H34 H 1.008168 1.168697 0.477115
H35 H 0.965683 1.148054 0.420238
C39 C 0.8590(4) 0.4191(5) 0.28200(18)
C40 C 0.8978(5) 0.3352(5) 0.30412(19)
H36 H 0.855190 0.255860 0.297706
C41 C 0.9971(5) 0.3654(5) 0.3352(2)
H37 H 1.021174 0.306102 0.350005
C42 C 1.0628(4) 0.4796(5) 0.34560(18)
C43 C 1.0240(5) 0.5628(5) 0.32339(18)
H38 H 1.067159 0.642036 0.329570
C44 C 0.9238(5) 0.5335(5) 0.29234(19)
H39 H 0.899137 0.592950 0.277933
C45 C 1.1772(5) 0.5102(5) 0.3779(2)
C46 C 1.2308(6) 0.6404(6) 0.3879(3)
H40 H 1.249633 0.674788 0.356599
H41 H 1.303460 0.655629 0.408539
H42 H 1.173987 0.674843 0.404906
C47 C 1.1520(8) 0.4564(9) 0.4255(3)
H43 H 1.087017 0.480719 0.441096
H44 H 1.223035 0.481354 0.447329
H45 H 1.129353 0.371692 0.419115
C48 C 1.2678(6) 0.4639(7) 0.3494(3)
H46 H 1.237987 0.379451 0.342932
H47 H 1.342592 0.483163 0.368881
H48 H 1.281052 0.499212 0.318125
C49 C 0.5111(4) 0.2468(4) 0.13051(17)
C50 C 0.3911(5) 0.2062(5) 0.14014(19)
H49 H 0.363940 0.224266 0.171625
C51 C 0.3116(5) 0.1398(5) 0.1040(2)
H50 H 0.230447 0.112192 0.111326
C52 C 0.3475(5) 0.1125(5) 0.05756(19)
C53 C 0.4658(5) 0.1539(5) 0.0484(2)
H51 H 0.492370 0.137148 0.016638
C54 C 0.5464(5) 0.2185(5) 0.08370(18)
H52 H 0.627592 0.244381 0.076163
C55 C 0.2569(5) 0.0376(5) 0.0185(2)
C56 C 0.1433(10) 0.0711(16) 0.0183(5)
H53 H 0.159075 0.152755 0.011816
H54 H 0.088902 0.022558 -0.007568
H55 H 0.107407 0.059847 0.050317
C57 C 0.3066(9) 0.0468(10) -0.0338(3)
H56 H 0.381250 0.025119 -0.034276
H57 H 0.249167 -0.005591 -0.057546
H58 H 0.320616 0.126709 -0.042547
C58 C 0.2396(12) -0.0894(7) 0.0284(4)
H59 H 0.316374 -0.107017 0.028218
H60 H 0.204887 -0.102596 0.060591
H61 H 0.186382 -0.139885 0.002706
C59 C 0.1975(4) 0.7334(4) 0.21431(17)
C60 C 0.1661(5) 0.8167(5) 0.18831(19)
H62 H 0.211498 0.895496 0.193196
C61 C 0.0693(5) 0.7854(5) 0.1555(2)
H63 H 0.049653 0.843774 0.138334
C62 C 0.0004(4) 0.6727(5) 0.14680(19)
C63 C 0.0311(5) 0.5897(5) 0.17319(19)
H64 H -0.014695 0.511084 0.168323
C64 C 0.1270(5) 0.6201(5) 0.20619(18)
H65 H 0.145226 0.561871 0.223871
C65 C -0.1047(5) 0.6407(5) 0.1098(2)
C66 C -0.1963(10) 0.7012(13) 0.1272(7)
H66 H -0.222829 0.676948 0.159578
H67 H -0.161211 0.785386 0.129807
H68 H -0.264223 0.680439 0.103651
C67 C -0.1684(10) 0.5115(8) 0.1045(5)
H69 H -0.113000 0.467675 0.093221
H70 H -0.198025 0.487248 0.136452
H71 H -0.234964 0.496452 0.080488
C68 C -0.0595(11) 0.6747(16) 0.0595(4)
H72 H -0.000673 0.633690 0.049683
H73 H -0.125894 0.653600 0.035160
H74 H -0.022882 0.758547 0.061316
C78 C 0.5937(11) -0.0183(12) 0.1761(4)
H102 H 0.647433 0.049326 0.161532
Cl1 Cl 0.5608(16) 0.0263(11) 0.2341(4)
Cl2 Cl 0.4673(5) -0.0691(6) 0.1391(3)
Cl3 Cl 0.6656(7) -0.1243(8) 0.1794(5)
C80 C 0.0475(14) 0.9331(10) 0.3025(4)
H104 H 0.116058 0.917467 0.284547
Cl7 Cl 0.0550(11) 0.8958(7) 0.3618(3)
Cl8 Cl 0.0552(8) 1.0769(6) 0.3015(3)
Cl9 Cl -0.0822(9) 0.8485(9) 0.2729(3)
C82 C 0.9839(6) 0.2213(6) 0.1623(3)
H106 H 0.919763 0.242224 0.181631
Cl13 Cl 1.1195(2) 0.2967(2) 0.18984(11)
Cl14 Cl 0.9736(3) 0.2589(3) 0.10218(11)
Cl15 Cl 0.9630(3) 0.0744(2) 0.16045(12)
C83 C 0.4397(6) 0.1725(6) 0.3447(2)
H107 H 0.412554 0.085983 0.339131
Cl16 Cl 0.59420(19) 0.21447(17) 0.34555(8)
Cl17 Cl 0.3857(3) 0.2133(2) 0.40020(9)
Cl18 Cl 0.3837(2) 0.2298(2) 0.29537(9)
C69? C 0.8286(11) 0.617(3) 0.4256(7)
H75? H 0.849207 0.558567 0.402778
H76? H 0.869374 0.694516 0.416807
H77? H 0.852991 0.607742 0.459275
C70? C 0.664(2) 0.6891(19) 0.4575(5)
H78? H 0.578551 0.677670 0.455298
H79? H 0.688544 0.680338 0.491274
H80? H 0.704927 0.767112 0.448806
C71? C 0.637(2) 0.4822(13) 0.4409(6)
H81? H 0.551004 0.469388 0.439172
H82? H 0.658121 0.420786 0.420164
H83? H 0.663724 0.480949 0.475021
C72? C 0.309(2) -0.041(3) -0.0141(12)
H84? H 0.338463 -0.092064 0.006062
H85? H 0.247636 -0.088434 -0.037800
H86? H 0.374289 0.005408 -0.031829
C73? C 0.1526(18) -0.040(2) 0.0438(8)
H87? H 0.116066 0.007979 0.065513
H88? H 0.093790 -0.085642 0.018716
H89? H 0.181391 -0.093009 0.063176
C74? C 0.210(3) 0.119(2) -0.0106(11)
H90? H 0.176523 0.168362 0.011920
H91? H 0.274006 0.166695 -0.028298
H92? H 0.147352 0.072853 -0.034269
C75? C -0.075(3) 0.562(3) 0.0685(9)
H93? H -0.003897 0.604098 0.052561
H94? H -0.060615 0.493718 0.082026
H95? H -0.141509 0.537088 0.044206
C76? C -0.125(2) 0.7485(14) 0.0888(9)
H96? H -0.053341 0.788918 0.072511
H97? H -0.191896 0.725192 0.064888
H98? H -0.141513 0.800406 0.115606
C77? C -0.2141(15) 0.578(3) 0.1350(11)
H99? H -0.231943 0.629936 0.161471
H100? H -0.281223 0.553095 0.110994
H101? H -0.200329 0.509725 0.148814
C79? C 0.600(2) -0.003(3) 0.1776(8)
H103? H 0.652755 0.067887 0.164790
Cl4? Cl 0.502(3) -0.0844(16) 0.1323(5)
Cl5? Cl 0.682(2) -0.087(3) 0.2011(12)
Cl6? Cl 0.5185(16) 0.0332(19) 0.2251(7)
C81? C 0.061(2) 0.9359(18) 0.3016(8)
H105? H 0.121692 0.904258 0.284546
Cl10? Cl 0.0489(19) 1.0593(18) 0.2772(11)
Cl11? Cl -0.0769(19) 0.8368(15) 0.2955(15)
Cl12? Cl 0.099(2) 0.972(4) 0.3633(5)
loop_
_geom_bond_atom_site_label_1
_geom_bond_atom_site_label_2
_geom_bond_site_symmetry_1
_geom_bond_site_symmetry_2
C1 C2 1_555 1_555
C2 C14 1_555 1_555
C3 C4 1_555 1_555
C4 C5 1_555 1_555
C5 C1 1_555 1_555
C6 C5 1_555 1_555
H1 C6 1_555 1_555
C7 C6 1_555 1_555
C8 C7 1_555 1_555
H2 C8 1_555 1_555
C9 C1 1_555 1_555
C10 C9 1_555 1_555
C11 C10 1_555 1_555
N1 C11 1_555 1_555
N2 N1 1_555 1_555
C12 N2 1_555 1_555
C13 C10 1_555 1_555
C14 C13 1_555 1_555
C15 C14 1_555 1_555
H3 C15 1_555 1_555
C16 C15 1_555 1_555
C17 C16 1_555 1_555
H4 C17 1_555 1_555
C18 C2 1_555 1_555
C19 C4 1_555 1_555
C20 C19 1_555 1_555
N3 C20 1_555 1_555
N4 C3 1_555 1_555
C21 C7 1_555 1_555
C22 C21 1_555 1_555
H5 C22 1_555 1_555
H6 C22 1_555 1_555
H7 C22 1_555 1_555
C23 C21 1_555 1_555
H8 C23 1_555 1_555
H9 C23 1_555 1_555
H10 C23 1_555 1_555
C24 C21 1_555 1_555
H11 C24 1_555 1_555
H12 C24 1_555 1_555
H13 C24 1_555 1_555
C25 C16 1_555 1_555
C26 C25 1_555 1_555
H14 C26 1_555 1_555
H15 C26 1_555 1_555
H16 C26 1_555 1_555
C27 C25 1_555 1_555
H17 C27 1_555 1_555
H18 C27 1_555 1_555
H19 C27 1_555 1_555
C28 C25 1_555 1_555
H20 C28 1_555 1_555
H21 C28 1_555 1_555
H22 C28 1_555 1_555
C29 C3 1_555 1_555
C30 C29 1_555 1_555
H23 C30 1_555 1_555
C31 C30 1_555 1_555
H24 C31 1_555 1_555
C32 C31 1_555 1_555
C33 C32 1_555 1_555
H25 C33 1_555 1_555
C34 C29 1_555 1_555
H26 C34 1_555 1_555
C35 C32 1_555 1_555
C36 C35 1_555 1_555
H27 C36 1_555 1_555
H28 C36 1_555 1_555
H29 C36 1_555 1_555
C37 C35 1_555 1_555
H30 C37 1_555 1_555
H31 C37 1_555 1_555
H32 C37 1_555 1_555
C38 C35 1_555 1_555
H33 C38 1_555 1_555
H34 C38 1_555 1_555
H35 C38 1_555 1_555
C39 C11 1_555 1_555
C40 C39 1_555 1_555
H36 C40 1_555 1_555
C41 C40 1_555 1_555
H37 C41 1_555 1_555
C42 C41 1_555 1_555
C43 C42 1_555 1_555
H38 C43 1_555 1_555
C44 C39 1_555 1_555
H39 C44 1_555 1_555
C45 C42 1_555 1_555
C46 C45 1_555 1_555
H40 C46 1_555 1_555
H41 C46 1_555 1_555
H42 C46 1_555 1_555
C47 C45 1_555 1_555
H43 C47 1_555 1_555
H44 C47 1_555 1_555
H45 C47 1_555 1_555
C48 C45 1_555 1_555
H46 C48 1_555 1_555
H47 C48 1_555 1_555
H48 C48 1_555 1_555
C49 C12 1_555 1_555
C50 C49 1_555 1_555
H49 C50 1_555 1_555
C51 C50 1_555 1_555
H50 C51 1_555 1_555
C52 C51 1_555 1_555
C53 C52 1_555 1_555
H51 C53 1_555 1_555
C54 C49 1_555 1_555
H52 C54 1_555 1_555
C55 C52 1_555 1_555
C56 C55 1_555 1_555
H53 C56 1_555 1_555
H54 C56 1_555 1_555
H55 C56 1_555 1_555
C57 C55 1_555 1_555
H56 C57 1_555 1_555
H57 C57 1_555 1_555
H58 C57 1_555 1_555
C58 C55 1_555 1_555
H59 C58 1_555 1_555
H60 C58 1_555 1_555
H61 C58 1_555 1_555
C59 C20 1_555 1_555
C60 C59 1_555 1_555
H62 C60 1_555 1_555
C61 C60 1_555 1_555
H63 C61 1_555 1_555
C62 C61 1_555 1_555
C63 C62 1_555 1_555
H64 C63 1_555 1_555
C64 C59 1_555 1_555
H65 C64 1_555 1_555
C65 C62 1_555 1_555
C66 C65 1_555 1_555
H66 C66 1_555 1_555
H67 C66 1_555 1_555
H68 C66 1_555 1_555
C67 C65 1_555 1_555
H69 C67 1_555 1_555
H70 C67 1_555 1_555
H71 C67 1_555 1_555
C68 C65 1_555 1_555
H72 C68 1_555 1_555
H73 C68 1_555 1_555
H74 C68 1_555 1_555
C78 H102 1_555 1_555
Cl1 C78 1_555 1_555
Cl2 C78 1_555 1_555
Cl3 C78 1_555 1_555
C80 H104 1_555 1_555
Cl7 C80 1_555 1_555
Cl8 C80 1_555 1_555
Cl9 C80 1_555 1_555
C82 H106 1_555 1_555
Cl13 C82 1_555 1_555
Cl14 C82 1_555 1_555
Cl15 C82 1_555 1_555
C83 H107 1_555 1_555
Cl16 C83 1_555 1_555
Cl17 C83 1_555 1_555
Cl18 C83 1_555 1_555
C8 C9 1_555 1_555
C12 C13 1_555 1_555
C17 C18 1_555 1_555
C18 C19 1_555 1_555
N3 N4 1_555 1_555
C33 C34 1_555 1_555
C43 C44 1_555 1_555
C53 C54 1_555 1_555
C63 C64 1_555 1_555

#END
