
#######################################################################
#
#                 Cambridge Crystallographic Data Centre
#                                CCDC 
#
#######################################################################
#
# If this CIF has been generated from an entry in the Cambridge 
# Structural Database, then it will include bibliographic, chemical, 
# crystal, experimental, refinement or atomic coordinate data resulting 
# from the CCDC's data processing and validation procedures.
#
#######################################################################

data_VEMGUS
_chemical_formula_moiety         'C20 H24 I2 N2 O2'
_chemical_name_systematic        
3-cyclohexyl-2-(cyclohexylimino)-6,8-di-iodo-2,3-dihydro-4H-1,3-benzoxazin-4-one
_symmetry_cell_setting           monoclinic
_symmetry_space_group_name_H-M   'P 21/c'
_symmetry_Int_Tables_number      14
_space_group_name_Hall           '-P 2ybc'
loop_
_symmetry_equiv_pos_site_id
_symmetry_equiv_pos_as_xyz
1 x,y,z
2 -x,1/2+y,1/2-z
3 -x,-y,-z
4 x,1/2-y,1/2+z
_cell_length_a                   17.5052(10)
_cell_length_b                   12.7846(7)
_cell_length_c                   9.4663(5)
_cell_angle_alpha                90
_cell_angle_beta                 94.8990(10)
_cell_angle_gamma                90
_cell_volume                     2110.79
_exptl_crystal_colour            colorless
_exptl_crystal_description       block
_cell_formula_units_Z            4
loop_
_atom_site_label
_atom_site_type_symbol
_atom_site_fract_x
_atom_site_fract_y
_atom_site_fract_z
I1 I 0.607746(15) 0.08603(2) 0.04186(3)
I2 I 0.361425(15) 0.18745(3) 0.42753(4)
O1 O 0.69760(14) 0.0655(2) 0.3435(3)
O2 O 0.64463(17) 0.1270(3) 0.7404(3)
N1 N 0.73514(16) 0.0976(2) 0.5860(3)
N2 N 0.81591(16) 0.0131(2) 0.4407(3)
C1 C 0.5264(2) 0.1365(3) 0.5172(4)
H1 H 0.5111 0.1480 0.6076
C2 C 0.47484(19) 0.1443(3) 0.4000(4)
C3 C 0.4963(2) 0.1273(3) 0.2643(4)
H2 H 0.4604 0.1332 0.1865
C4 C 0.5717(2) 0.1016(3) 0.2451(4)
C5 C 0.62399(19) 0.0930(3) 0.3637(4)
C6 C 0.75238(18) 0.0558(2) 0.4556(3)
C7 C 0.6610(2) 0.1117(3) 0.6199(4)
C8 C 0.60234(19) 0.1110(3) 0.4978(4)
C9 C 0.8012(2) 0.1053(3) 0.6961(4)
H3 H 0.8476 0.1047 0.6449
C10 C 0.8073(2) 0.0119(3) 0.7934(4)
H4 H 0.8067 -0.0519 0.7379
H5 H 0.7639 0.0105 0.8505
C11 C 0.8819(3) 0.0188(3) 0.8896(5)
H6 H 0.8839 -0.0383 0.9573
H7 H 0.9251 0.0116 0.8327
C12 C 0.8879(3) 0.1215(4) 0.9682(5)
H8 H 0.9375 0.1255 1.0223
H9 H 0.8487 0.1243 1.0346
C13 C 0.8788(3) 0.2146(3) 0.8697(5)
H10 H 0.9208 0.2161 0.8093
H11 H 0.8806 0.2785 0.9250
C14 C 0.8028(3) 0.2088(3) 0.7779(5)
H12 H 0.7984 0.2672 0.7123
H13 H 0.7602 0.2118 0.8371
C15 C 0.83213(19) -0.0297(3) 0.3025(4)
H14 H 0.8120 0.0174 0.2266
C16 C 0.7953(2) -0.1374(3) 0.2820(5)
H15 H 0.7405 -0.1312 0.2884
H16 H 0.8033 -0.1631 0.1880
C17 C 0.8279(3) -0.2153(3) 0.3914(6)
H17 H 0.8047 -0.2833 0.3722
H18 H 0.8158 -0.1933 0.4849
C18 C 0.9145(3) -0.2237(4) 0.3881(7)
H19 H 0.9348 -0.2710 0.4621
H20 H 0.9264 -0.2523 0.2976
C19 C 0.9520(2) -0.1175(4) 0.4096(5)
H21 H 0.9445 -0.0922 0.5041
H22 H 1.0067 -0.1241 0.4022
C20 C 0.9188(2) -0.0392(3) 0.3011(4)
H23 H 0.9312 -0.0607 0.2074
H24 H 0.9421 0.0287 0.3208
loop_
_geom_bond_atom_site_label_1
_geom_bond_atom_site_label_2
_geom_bond_site_symmetry_1
_geom_bond_site_symmetry_2
I1 C4 1_555 1_555
I2 C2 1_555 1_555
O1 C5 1_555 1_555
O2 C7 1_555 1_555
N1 C6 1_555 1_555
N2 C6 1_555 1_555
C1 H1 1_555 1_555
C2 C1 1_555 1_555
C3 C2 1_555 1_555
H2 C3 1_555 1_555
C4 C3 1_555 1_555
C5 C4 1_555 1_555
C6 O1 1_555 1_555
C7 N1 1_555 1_555
C8 C1 1_555 1_555
C9 N1 1_555 1_555
H3 C9 1_555 1_555
C10 C9 1_555 1_555
H4 C10 1_555 1_555
H5 C10 1_555 1_555
C11 C10 1_555 1_555
H6 C11 1_555 1_555
H7 C11 1_555 1_555
C12 C11 1_555 1_555
H8 C12 1_555 1_555
H9 C12 1_555 1_555
C13 C12 1_555 1_555
H10 C13 1_555 1_555
H11 C13 1_555 1_555
C14 C9 1_555 1_555
H12 C14 1_555 1_555
H13 C14 1_555 1_555
C15 N2 1_555 1_555
H14 C15 1_555 1_555
C16 C15 1_555 1_555
H15 C16 1_555 1_555
H16 C16 1_555 1_555
C17 C16 1_555 1_555
H17 C17 1_555 1_555
H18 C17 1_555 1_555
C18 C17 1_555 1_555
H19 C18 1_555 1_555
H20 C18 1_555 1_555
C19 C18 1_555 1_555
H21 C19 1_555 1_555
H22 C19 1_555 1_555
C20 C15 1_555 1_555
H23 C20 1_555 1_555
H24 C20 1_555 1_555
C5 C8 1_555 1_555
C7 C8 1_555 1_555
C13 C14 1_555 1_555
C19 C20 1_555 1_555

#END
