
#######################################################################
#
#                 Cambridge Crystallographic Data Centre
#                                CCDC 
#
#######################################################################
#
# If this CIF has been generated from an entry in the Cambridge 
# Structural Database, then it will include bibliographic, chemical, 
# crystal, experimental, refinement or atomic coordinate data resulting 
# from the CCDC's data processing and validation procedures.
#
#######################################################################

data_VEMLUX
_chemical_formula_moiety         'C25 H24 N4 O10'
_chemical_name_systematic        
'dimethyl 1-(((2,4-dinitrophenyl)hydrazono)methyl)-5-(4-(methoxycarbonyl)phenyl)bicyclo[3.1.0]hexane-3,3-dicarboxylate'
_symmetry_cell_setting           triclinic
_symmetry_space_group_name_H-M   'P 1'
_symmetry_Int_Tables_number      1
_space_group_name_Hall           'P 1'
loop_
_symmetry_equiv_pos_site_id
_symmetry_equiv_pos_as_xyz
1 x,y,z
_cell_length_a                   6.8876(4)
_cell_length_b                   12.3859(7)
_cell_length_c                   15.7510(8)
_cell_angle_alpha                104.814(2)
_cell_angle_beta                 94.697(2)
_cell_angle_gamma                99.519(2)
_cell_volume                     1270.24
_exptl_crystal_colour            orange
_exptl_crystal_description       needle
_cell_formula_units_Z            2
loop_
_atom_site_label
_atom_site_type_symbol
_atom_site_fract_x
_atom_site_fract_y
_atom_site_fract_z
O1 O -0.6264(6) 0.2073(4) 0.1507(3)
O2 O -0.4684(8) 0.1822(6) 0.0367(3)
O3 O -0.2771(5) 0.3914(3) 0.4369(2)
O4 O 0.0429(5) 0.4275(3) 0.4587(2)
O5 O 0.6250(5) 0.7348(3) 0.0820(2)
O6 O 0.8966(5) 0.8693(3) 0.1380(2)
O7 O 1.0076(5) 0.6211(3) 0.0965(2)
O8 O 1.1991(5) 0.7130(3) 0.2249(2)
O9 O 0.3071(6) 0.9669(4) 0.6696(3)
O10 O 0.5976(6) 0.9828(4) 0.7485(2)
N1 N -0.4738(7) 0.2197(4) 0.1161(3)
N2 N -0.1149(6) 0.3954(3) 0.4089(2)
N3 N 0.2409(5) 0.4505(3) 0.3268(2)
H1 H 0.2587 0.4581 0.3841
N4 N 0.3925(5) 0.4969(3) 0.2861(2)
C1 C -0.1099(6) 0.3638(3) 0.3145(3)
C2 C -0.2869(7) 0.3080(4) 0.2621(3)
H2 H -0.4034 0.2897 0.2881
C3 C -0.2908(7) 0.2797(4) 0.1718(3)
C4 C -0.1243(8) 0.3069(4) 0.1327(3)
H3 H -0.1311 0.2864 0.0700
C5 C 0.0503(7) 0.3634(4) 0.1842(3)
H4 H 0.1635 0.3827 0.1565
C6 C 0.0668(6) 0.3939(4) 0.2783(3)
C7 C 0.5401(7) 0.5604(3) 0.3399(3)
H5 H 0.5414 0.5688 0.4016
C8 C 0.7072(6) 0.6203(3) 0.3081(3)
C9 C 0.8087(6) 0.7414(3) 0.3635(3)
C10 C 0.8686(6) 0.8085(4) 0.2978(3)
H6 H 1.0076 0.8503 0.3153
H7 H 0.7814 0.8642 0.2962
C11 C 0.8469(6) 0.7211(4) 0.2056(3)
C12 C 0.6979(6) 0.6161(4) 0.2114(3)
H8 H 0.5620 0.6188 0.1873
H9 H 0.7346 0.5451 0.1773
C13 C 0.9115(6) 0.6443(3) 0.3639(3)
H10 H 0.9188 0.6187 0.4185
H11 H 1.0292 0.6395 0.3320
C14 C 0.7709(7) 0.7732(4) 0.1337(3)
C15 C 0.8497(9) 0.9297(6) 0.0740(4)
H12 H 0.8732 0.8876 0.0153
H13 H 0.9342 1.0057 0.0910
H14 H 0.7099 0.9368 0.0725
C16 C 1.0409(6) 0.6873(4) 0.1798(3)
C17 C 1.1782(8) 0.5812(5) 0.0590(4)
H15 H 1.1324 0.5222 0.0029
H16 H 1.2487 0.5495 0.1005
H17 H 1.2680 0.6450 0.0482
C18 C 0.7293(6) 0.7992(3) 0.4448(3)
C19 C 0.8391(7) 0.8291(4) 0.5276(3)
H18 H 0.9698 0.8141 0.5331
C20 C 0.7617(7) 0.8805(4) 0.6024(3)
H19 H 0.8395 0.9015 0.6589
C21 C 0.5696(7) 0.9016(4) 0.5950(3)
C22 C 0.4575(7) 0.8724(4) 0.5119(3)
H20 H 0.3264 0.8867 0.5066
C23 C 0.5364(7) 0.8228(4) 0.4373(3)
H21 H 0.4605 0.8045 0.3807
C24 C 0.4755(7) 0.9536(4) 0.6734(3)
C25 C 0.5204(10) 1.0335(6) 0.8281(4)
H22 H 0.3752 1.0123 0.8189
H23 H 0.5603 1.1165 0.8430
H24 H 0.5732 1.0062 0.8768
O11 O 0.4390(5) 0.5796(3) 0.5428(2)
O12 O 0.1897(6) 0.6624(3) 0.5630(2)
O13 O 0.0171(6) 0.8169(4) 0.8454(3)
O14 O 0.2067(10) 0.8223(6) 0.9637(3)
O15 O 0.2807(6) 0.0412(4) 0.3547(3)
O16 O 0.5253(5) 0.0204(3) 0.2709(2)
O17 O 1.1340(6) 0.1575(3) 0.8807(2)
O18 O 0.9660(6) 0.2947(3) 0.9304(2)
O19 O 1.4182(5) 0.4054(3) 0.9151(2)
O20 O 1.5050(5) 0.2988(3) 0.7919(2)
N5 N 0.1635(8) 0.7960(4) 0.8828(3)
N6 N 0.3353(6) 0.6329(3) 0.5923(2)
N7 N 0.6766(5) 0.5673(3) 0.6775(2)
H25 H 0.6704 0.5590 0.6201
N8 N 0.8126(5) 0.5215(3) 0.7203(2)
C26 C 0.3882(7) 0.6590(4) 0.6868(3)
C27 C 0.2617(7) 0.7149(4) 0.7383(3)
H26 H 0.1509 0.7361 0.7112
C28 C 0.2988(8) 0.7393(4) 0.8287(3)
C29 C 0.4592(8) 0.7084(4) 0.8695(3)
H27 H 0.4818 0.7254 0.9322
C30 C 0.5838(7) 0.6537(4) 0.8193(3)
H28 H 0.6943 0.6342 0.8479
C31 C 0.5538(6) 0.6251(3) 0.7254(3)
C32 C 0.9046(6) 0.4582(4) 0.6677(3)
H29 H 0.8814 0.4501 0.6059
C33 C 1.0452(6) 0.3978(3) 0.7011(3)
C34 C 1.0726(7) 0.4059(4) 0.7989(3)
H30 H 0.9442 0.4066 0.8229
H31 H 1.1670 0.4765 0.8318
C35 C 1.1548(7) 0.3004(4) 0.8078(3)
C36 C 1.0900(7) 0.2103(3) 0.7175(3)
H32 H 1.1961 0.1665 0.7020
H33 H 0.9681 0.1567 0.7198
C37 C 1.0512(6) 0.2747(3) 0.6493(3)
C38 C 1.2157(7) 0.3691(4) 0.6468(3)
H34 H 1.2208 0.3917 0.5910
H35 H 1.3469 0.3740 0.6799
C39 C 1.3796(7) 0.3322(4) 0.8345(3)
C40 C 1.6240(8) 0.4452(5) 0.9530(3)
H36 H 1.7019 0.4673 0.9087
H37 H 1.6746 0.3842 0.9715
H38 H 1.6351 0.5111 1.0045
C41 C 1.0724(6) 0.2537(4) 0.8808(3)
C42 C 1.0628(9) 0.1006(5) 0.9451(3)
H39 H 0.9182 0.0762 0.9323
H40 H 1.0978 0.1532 1.0047
H41 H 1.1243 0.0340 0.9420
C43 C 0.9012(6) 0.2145(3) 0.5702(3)
C44 C 0.6984(6) 0.1978(4) 0.5792(3)
H42 H 0.6576 0.2228 0.6359
C45 C 0.5587(7) 0.1458(4) 0.5072(3)
H43 H 0.4219 0.1355 0.5143
C46 C 0.6152(7) 0.1079(4) 0.4233(3)
C47 C 0.8156(6) 0.1220(4) 0.4136(3)
H44 H 0.8560 0.0952 0.3570
C48 C 0.9562(6) 0.1751(4) 0.4864(3)
H45 H 1.0930 0.1850 0.4791
C49 C 0.4557(7) 0.0548(4) 0.3482(3)
C50 C 0.3786(9) -0.0347(5) 0.1943(4)
H46 H 0.4302 -0.0204 0.1412
H47 H 0.2567 -0.0043 0.2023
H48 H 0.3496 -0.1169 0.1875
loop_
_geom_bond_atom_site_label_1
_geom_bond_atom_site_label_2
_geom_bond_site_symmetry_1
_geom_bond_site_symmetry_2
O1 N1 1_555 1_555
O2 N1 1_555 1_555
O3 N2 1_555 1_555
O4 N2 1_555 1_555
O5 C14 1_555 1_555
O6 C14 1_555 1_555
O7 C16 1_555 1_555
O8 C16 1_555 1_555
O9 C24 1_555 1_555
O10 C24 1_555 1_555
N1 C3 1_555 1_555
N2 C1 1_555 1_555
N3 H1 1_555 1_555
N4 N3 1_555 1_555
C1 C2 1_555 1_555
C2 H2 1_555 1_555
C3 C2 1_555 1_555
C4 C3 1_555 1_555
H3 C4 1_555 1_555
C5 C4 1_555 1_555
H4 C5 1_555 1_555
C6 N3 1_555 1_555
C7 N4 1_555 1_555
H5 C7 1_555 1_555
C8 C7 1_555 1_555
C9 C8 1_555 1_555
C10 C9 1_555 1_555
H6 C10 1_555 1_555
H7 C10 1_555 1_555
C11 C10 1_555 1_555
C12 C8 1_555 1_555
H8 C12 1_555 1_555
H9 C12 1_555 1_555
C13 C8 1_555 1_555
H10 C13 1_555 1_555
H11 C13 1_555 1_555
C14 C11 1_555 1_555
C15 O6 1_555 1_555
H12 C15 1_555 1_555
H13 C15 1_555 1_555
H14 C15 1_555 1_555
C16 C11 1_555 1_555
C17 O7 1_555 1_555
H15 C17 1_555 1_555
H16 C17 1_555 1_555
H17 C17 1_555 1_555
C18 C9 1_555 1_555
C19 C18 1_555 1_555
H18 C19 1_555 1_555
C20 C19 1_555 1_555
H19 C20 1_555 1_555
C21 C20 1_555 1_555
C22 C21 1_555 1_555
H20 C22 1_555 1_555
C23 C18 1_555 1_555
H21 C23 1_555 1_555
C24 C21 1_555 1_555
C25 O10 1_555 1_555
H22 C25 1_555 1_555
H23 C25 1_555 1_555
H24 C25 1_555 1_555
O11 N6 1_555 1_555
O12 N6 1_555 1_555
O13 N5 1_555 1_555
O14 N5 1_555 1_555
O15 C49 1_555 1_555
O16 C49 1_555 1_555
O17 C41 1_555 1_555
O18 C41 1_555 1_555
O19 C39 1_555 1_555
O20 C39 1_555 1_555
N5 C28 1_555 1_555
N6 C26 1_555 1_555
N7 H25 1_555 1_555
N8 N7 1_555 1_555
C26 C27 1_555 1_555
C27 H26 1_555 1_555
C28 C27 1_555 1_555
C29 C28 1_555 1_555
H27 C29 1_555 1_555
C30 C29 1_555 1_555
H28 C30 1_555 1_555
C31 N7 1_555 1_555
C32 N8 1_555 1_555
H29 C32 1_555 1_555
C33 C32 1_555 1_555
C34 C33 1_555 1_555
H30 C34 1_555 1_555
H31 C34 1_555 1_555
C35 C34 1_555 1_555
C36 C35 1_555 1_555
H32 C36 1_555 1_555
H33 C36 1_555 1_555
C37 C33 1_555 1_555
C38 C33 1_555 1_555
H34 C38 1_555 1_555
H35 C38 1_555 1_555
C39 C35 1_555 1_555
C40 O19 1_555 1_555
H36 C40 1_555 1_555
H37 C40 1_555 1_555
H38 C40 1_555 1_555
C41 C35 1_555 1_555
C42 O17 1_555 1_555
H39 C42 1_555 1_555
H40 C42 1_555 1_555
H41 C42 1_555 1_555
C43 C37 1_555 1_555
C44 C43 1_555 1_555
H42 C44 1_555 1_555
C45 C44 1_555 1_555
H43 C45 1_555 1_555
C46 C45 1_555 1_555
C47 C46 1_555 1_555
H44 C47 1_555 1_555
C48 C43 1_555 1_555
H45 C48 1_555 1_555
C49 C46 1_555 1_555
C50 O16 1_555 1_555
H46 C50 1_555 1_555
H47 C50 1_555 1_555
H48 C50 1_555 1_555
C1 C6 1_555 1_555
C5 C6 1_555 1_555
C9 C13 1_555 1_555
C11 C12 1_555 1_555
C22 C23 1_555 1_555
C26 C31 1_555 1_555
C30 C31 1_555 1_555
C36 C37 1_555 1_555
C37 C38 1_555 1_555
C47 C48 1_555 1_555

#END
