
#######################################################################
#
#                 Cambridge Crystallographic Data Centre
#                                CCDC 
#
#######################################################################
#
# If this CIF has been generated from an entry in the Cambridge 
# Structural Database, then it will include bibliographic, chemical, 
# crystal, experimental, refinement or atomic coordinate data resulting 
# from the CCDC's data processing and validation procedures.
#
#######################################################################

data_VEMLOQ
_chemical_formula_moiety         'C29 H39 Br1 N2 O4'
_chemical_name_systematic        
'15-t-Butyl 9-(2-isopropyl-5-methylcyclohexyl) 5-bromo-9,15-diazatetracyclo[10.2.1.0^2,10^.0^3,8^]pentadeca-2(10),3,5,7-tetraene-9,15-dicarboxylate'
_symmetry_cell_setting           monoclinic
_symmetry_space_group_name_H-M   'P 21'
_symmetry_Int_Tables_number      4
_space_group_name_Hall           'P 2yb'
loop_
_symmetry_equiv_pos_site_id
_symmetry_equiv_pos_as_xyz
1 x,y,z
2 -x,1/2+y,-z
_cell_length_a                   9.1338(15)
_cell_length_b                   11.1150(18)
_cell_length_c                   13.510(2)
_cell_angle_alpha                90
_cell_angle_beta                 90.463(3)
_cell_angle_gamma                90
_cell_volume                     1371.52
_exptl_crystal_colour            colorless
_exptl_crystal_description       block
_cell_formula_units_Z            2
loop_
_atom_site_label
_atom_site_type_symbol
_atom_site_fract_x
_atom_site_fract_y
_atom_site_fract_z
Br1 Br -0.047511(18) 0.46166(2) 0.689605(14)
O1 O 0.75403(14) 0.80490(12) 0.67629(11)
O2 O 0.58353(13) 0.44216(12) 0.34187(11)
O3 O 0.77096(13) 0.57535(11) 0.32104(11)
O4 O 0.62332(13) 0.72560(11) 0.80101(10)
N1 N 0.54566(15) 0.69557(13) 0.64531(12)
N2 N 0.54637(16) 0.64454(13) 0.34577(13)
C1 C 0.4123(2) 0.63982(15) 0.67271(15)
C2 C 0.3528(2) 0.61407(15) 0.76470(15)
H1 H 0.4043 0.6321 0.8242
C3 C 0.2149(2) 0.56088(16) 0.76640(15)
H2 H 0.1708 0.5432 0.8282
C4 C 0.14101(19) 0.53343(15) 0.67953(15)
C5 C 0.19888(19) 0.55503(15) 0.58778(15)
H3 H 0.1470 0.5341 0.5290
C6 C 0.33811(18) 0.60944(15) 0.58396(14)
C7 C 0.42831(18) 0.64586(15) 0.50310(14)
C8 C 0.54831(19) 0.70105(15) 0.54152(14)
C9 C 0.6596(2) 0.76449(16) 0.47937(15)
H4 H 0.7548 0.7222 0.4837
H5 H 0.6734 0.8480 0.5033
C10 C 0.60375(19) 0.76532(16) 0.37175(16)
H6 H 0.6824 0.7909 0.3252
C11 C 0.4643(2) 0.84416(17) 0.35912(16)
H7 H 0.4542 0.9002 0.4157
H8 H 0.4692 0.8917 0.2973
C12 C 0.3334(2) 0.75537(16) 0.35512(15)
H9 H 0.2528 0.7824 0.3983
H10 H 0.2957 0.7458 0.2867
C13 C 0.40251(18) 0.63798(16) 0.39365(14)
H11 H 0.3455 0.5649 0.3739
C14 C 0.65131(19) 0.74826(15) 0.70665(15)
C15 C 0.71569(19) 0.78442(16) 0.87595(14)
H12 H 0.7538 0.8622 0.8493
C16 C 0.84333(19) 0.70178(16) 0.90249(15)
H13 H 0.9074 0.6923 0.8443
H14 H 0.8053 0.6213 0.9205
C17 C 0.9330(2) 0.75316(19) 0.98960(16)
H15 H 0.9731 0.8329 0.9689
C18 C 0.8336(2) 0.77367(17) 1.07805(15)
H16 H 0.8909 0.8100 1.1329
H17 H 0.7948 0.6955 1.1012
C19 C 0.7060(2) 0.85686(18) 1.05033(16)
H18 H 0.6416 0.8664 1.1084
H19 H 0.7451 0.9372 1.0332
C20 C 0.6155(2) 0.80890(17) 0.96300(16)
H20 H 0.5742 0.7296 0.9839
C21 C 1.0615(2) 0.6715(2) 1.01548(19)
H21 H 1.0253 0.5905 1.0300
H22 H 1.1131 0.7035 1.0737
H23 H 1.1288 0.6681 0.9594
C22 C 0.4851(2) 0.8903(2) 0.93604(18)
H24 H 0.4307 0.8494 0.8810
C23 C 0.5282(3) 1.0138(2) 0.8981(2)
H25 H 0.4398 1.0608 0.8838
H26 H 0.5854 1.0050 0.8375
H27 H 0.5872 1.0553 0.9485
C24 C 0.3784(2) 0.9009(2) 1.0229(2)
H28 H 0.3634 0.8214 1.0525
H29 H 0.2845 0.9326 0.9989
H30 H 0.4193 0.9557 1.0729
C25 C 0.63012(19) 0.54316(16) 0.33801(14)
C26 C 0.88661(17) 0.48322(16) 0.31519(15)
C27 C 0.8920(2) 0.40799(19) 0.40871(17)
H31 H 0.8896 0.4610 0.4666
H32 H 0.9825 0.3606 0.4100
H33 H 0.8074 0.3538 0.4100
C28 C 1.0234(2) 0.56054(19) 0.30634(16)
H34 H 1.0149 0.6120 0.2476
H35 H 1.1095 0.5085 0.3002
H36 H 1.0338 0.6109 0.3655
C29 C 0.8647(2) 0.40649(19) 0.22337(17)
H37 H 0.7733 0.3609 0.2290
H38 H 0.9469 0.3505 0.2169
H39 H 0.8596 0.4585 0.1648
loop_
_geom_bond_atom_site_label_1
_geom_bond_atom_site_label_2
_geom_bond_site_symmetry_1
_geom_bond_site_symmetry_2
Br1 C4 1_555 1_555
O1 C14 1_555 1_555
O2 C25 1_555 1_555
O3 C25 1_555 1_555
O4 C14 1_555 1_555
N1 C1 1_555 1_555
N2 C10 1_555 1_555
C1 C2 1_555 1_555
C2 H1 1_555 1_555
C3 C2 1_555 1_555
H2 C3 1_555 1_555
C4 C3 1_555 1_555
C5 C4 1_555 1_555
H3 C5 1_555 1_555
C6 C1 1_555 1_555
C7 C6 1_555 1_555
C8 N1 1_555 1_555
C9 C8 1_555 1_555
H4 C9 1_555 1_555
H5 C9 1_555 1_555
C10 C9 1_555 1_555
H6 C10 1_555 1_555
C11 C10 1_555 1_555
H7 C11 1_555 1_555
H8 C11 1_555 1_555
C12 C11 1_555 1_555
H9 C12 1_555 1_555
H10 C12 1_555 1_555
C13 N2 1_555 1_555
H11 C13 1_555 1_555
C14 N1 1_555 1_555
C15 O4 1_555 1_555
H12 C15 1_555 1_555
C16 C15 1_555 1_555
H13 C16 1_555 1_555
H14 C16 1_555 1_555
C17 C16 1_555 1_555
H15 C17 1_555 1_555
C18 C17 1_555 1_555
H16 C18 1_555 1_555
H17 C18 1_555 1_555
C19 C18 1_555 1_555
H18 C19 1_555 1_555
H19 C19 1_555 1_555
C20 C15 1_555 1_555
H20 C20 1_555 1_555
C21 C17 1_555 1_555
H21 C21 1_555 1_555
H22 C21 1_555 1_555
H23 C21 1_555 1_555
C22 C20 1_555 1_555
H24 C22 1_555 1_555
C23 C22 1_555 1_555
H25 C23 1_555 1_555
H26 C23 1_555 1_555
H27 C23 1_555 1_555
C24 C22 1_555 1_555
H28 C24 1_555 1_555
H29 C24 1_555 1_555
H30 C24 1_555 1_555
C25 N2 1_555 1_555
C26 O3 1_555 1_555
C27 C26 1_555 1_555
H31 C27 1_555 1_555
H32 C27 1_555 1_555
H33 C27 1_555 1_555
C28 C26 1_555 1_555
H34 C28 1_555 1_555
H35 C28 1_555 1_555
H36 C28 1_555 1_555
C29 C26 1_555 1_555
H37 C29 1_555 1_555
H38 C29 1_555 1_555
H39 C29 1_555 1_555
C5 C6 1_555 1_555
C7 C8 1_555 1_555
C7 C13 1_555 1_555
C12 C13 1_555 1_555
C19 C20 1_555 1_555

#END
