
#######################################################################
#
#                 Cambridge Crystallographic Data Centre
#                                CCDC 
#
#######################################################################
#
# If this CIF has been generated from an entry in the Cambridge 
# Structural Database, then it will include bibliographic, chemical, 
# crystal, experimental, refinement or atomic coordinate data resulting 
# from the CCDC's data processing and validation procedures.
#
#######################################################################

data_VEMNAD
_chemical_formula_moiety         'C41 H41 N3 O10 S4,0.5(C6 H6)'
_chemical_name_systematic        
"N-((5-(Dimethylamino)naphthalen-1-yl)sulfonyl)-N,N'-bis(4-methoxybenzyl)-N'-(p-tolylsulfonyl)benzene-1,3-disulfonamide benzene solvate"
_symmetry_cell_setting           triclinic
_symmetry_space_group_name_H-M   'P -1'
_symmetry_Int_Tables_number      2
_space_group_name_Hall           '-P 1'
loop_
_symmetry_equiv_pos_site_id
_symmetry_equiv_pos_as_xyz
1 x,y,z
2 -x,-y,-z
_cell_length_a                   6.9331(14)
_cell_length_b                   18.493(2)
_cell_length_c                   19.158(3)
_cell_angle_alpha                114.416(13)
_cell_angle_beta                 99.884(15)
_cell_angle_gamma                96.367(13)
_cell_volume                     2157.7
_cell_formula_units_Z            2
_exptl_crystal_recrystallization_method methanol/dichloromethane
loop_
_atom_site_label
_atom_site_type_symbol
_atom_site_fract_x
_atom_site_fract_y
_atom_site_fract_z
C1 C -0.0483(13) 0.2163(4) 0.3266(4)
C2 C 0.0175(12) 0.2411(3) 0.2727(3)
H1 H 0.1527 0.2512 0.2738
C3 C -0.1237(13) 0.2496(4) 0.2189(4)
C7 C -0.3289(13) 0.2352(4) 0.2165(4)
H5 H -0.4229 0.2423 0.1802
C8 C -0.3866(14) 0.2099(4) 0.2707(4)
H6 H -0.5209 0.2003 0.2710
C9 C -0.2452(15) 0.1994(4) 0.3232(5)
H7 H -0.2858 0.1802 0.3573
S1 S 0.1276(3) 0.20727(10) 0.39903(10)
O1 O 0.3090(9) 0.1984(3) 0.3741(3)
O2 O 0.0318(10) 0.1488(2) 0.4197(3)
N1 N 0.1802(12) 0.2983(3) 0.4779(3)
C10 C 0.3723(17) 0.3539(5) 0.4953(4)
H8 H 0.4798 0.3244 0.4946
H9 H 0.3957 0.3976 0.5481
C11 C 0.3791(14) 0.3900(4) 0.4378(4)
C12 C 0.5317(15) 0.3842(4) 0.4008(4)
H10 H 0.6307 0.3575 0.4112
C13 C 0.5434(15) 0.4170(4) 0.3482(5)
H11 H 0.6509 0.4134 0.3246
C14 C 0.3949(15) 0.4548(4) 0.3310(5)
C15 C 0.2387(15) 0.4627(4) 0.3687(5)
H12 H 0.1402 0.4897 0.3585
C16 C 0.2311(15) 0.4300(4) 0.4216(5)
H13 H 0.1262 0.4348 0.4466
O3 O 0.3946(11) 0.4901(3) 0.2803(3)
C17 C 0.5235(19) 0.4694(5) 0.2281(5)
H14 H 0.4942 0.4915 0.1910
H15 H 0.5037 0.4115 0.2001
H16 H 0.6599 0.4913 0.2578
S2 S 0.0473(4) 0.31763(11) 0.54742(11)
O4 O -0.1561(11) 0.2799(4) 0.5087(3)
O5 O 0.1014(11) 0.4034(3) 0.5938(3)
C18 C 0.1422(17) 0.2693(5) 0.6048(5)
C19 C 0.333(2) 0.3007(5) 0.6514(6)
H17 H 0.4081 0.3474 0.6544
C20 C 0.4128(19) 0.2609(6) 0.6940(5)
H18 H 0.5422 0.2818 0.7257
C21 C 0.307(2) 0.1924(6) 0.6911(5)
C22 C 0.112(2) 0.1656(6) 0.6450(6)
H19 H 0.0330 0.1208 0.6435
C23 C 0.0334(17) 0.2030(5) 0.6021(5)
H20 H -0.0963 0.1825 0.5707
C24 C 0.393(3) 0.1481(7) 0.7351(6)
H21 H 0.3091 0.0956 0.7156
H22 H 0.4005 0.1784 0.7903
H23 H 0.5248 0.1419 0.7275
S3 S -0.0533(4) 0.28227(11) 0.15009(11)
O6 O -0.1558(10) 0.3452(2) 0.1511(3)
O7 O 0.1588(11) 0.2937(3) 0.1632(3)
N2 N -0.1423(11) 0.2046(3) 0.0603(3)
C25 C -0.0243(13) 0.1397(4) 0.0343(4)
H24 H 0.1100 0.1641 0.0373
H25 H -0.0847 0.1023 -0.0205
C26 C -0.0118(14) 0.0929(4) 0.0827(5)
C27 C 0.1662(16) 0.0865(4) 0.1180(5)
H26 H 0.2817 0.1109 0.1112
C28 C 0.1849(15) 0.0447(4) 0.1644(5)
H27 H 0.3099 0.0420 0.1891
C29 C 0.0123(17) 0.0077(5) 0.1725(6)
C30 C -0.1705(18) 0.0117(5) 0.1360(6)
H28 H -0.2865 -0.0138 0.1415
C31 C -0.1822(14) 0.0540(4) 0.0908(4)
H29 H -0.3069 0.0562 0.0654
O8 O 0.0122(15) -0.0341(4) 0.2181(5)
C32 C 0.203(2) -0.0319(7) 0.2625(7)
H30 H 0.1848 -0.0590 0.2948
H31 H 0.2698 0.0235 0.2955
H32 H 0.2823 -0.0587 0.2269
S4 S -0.3636(4) 0.19606(10) 0.00296(11)
O9 O -0.3855(11) 0.1227(3) -0.0675(3)
O10 O -0.5112(10) 0.2027(3) 0.0482(3)
C33 C -0.3528(14) 0.2769(4) -0.0224(4)
C34 C -0.4916(14) 0.3252(4) -0.0039(5)
H33 H -0.5747 0.3180 0.0270
C35 C -0.5103(15) 0.3837(5) -0.0298(5)
H34 H -0.6045 0.4159 -0.0164
C36 C -0.3877(15) 0.3939(4) -0.0759(4)
H35 H -0.4065 0.4314 -0.0958
C37 C -0.2376(14) 0.3507(4) -0.0939(4)
C38 C -0.1092(15) 0.3614(4) -0.1414(4)
C39 C 0.0165(16) 0.3094(5) -0.1652(5)
H36 H 0.0951 0.3152 -0.1980
C40 C 0.0308(15) 0.2476(5) -0.1418(5)
H37 H 0.1174 0.2128 -0.1594
C41 C -0.0810(14) 0.2384(4) -0.0935(4)
H38 H -0.0655 0.1985 -0.0765
C42 C -0.2189(13) 0.2871(4) -0.0684(4)
N3 N -0.1265(15) 0.4248(4) -0.1651(4)
C43 C -0.053(2) 0.4148(7) -0.2351(6)
H39 H -0.0982 0.4522 -0.2539
H40 H -0.1037 0.3603 -0.2756
H41 H 0.0903 0.4253 -0.2217
C44 C -0.055(2) 0.5061(5) -0.1013(6)
H42 H -0.0983 0.5087 -0.0554
H43 H -0.1087 0.5442 -0.1172
H44 H 0.0880 0.5192 -0.0891
C4 C 0.523(4) 0.0531(10) 0.4706(9)
H2 H 0.5354 0.0880 0.4473
C5 C 0.368(3) 0.0462(10) 0.4968(10)
H3 H 0.2789 0.0804 0.4973
C6 C 0.671(3) 0.0107(10) 0.4756(8)
H4 H 0.7903 0.0197 0.4614
C4A C 0.477(4) -0.0531(10) 0.5294(9)
H2A H 0.4646 -0.0880 0.5527
C5A C 0.632(3) -0.0462(10) 0.5032(10)
H3A H 0.7211 -0.0804 0.5027
C6A C 0.329(3) -0.0107(10) 0.5244(8)
H4A H 0.2097 -0.0197 0.5386
loop_
_geom_bond_atom_site_label_1
_geom_bond_atom_site_label_2
_geom_bond_site_symmetry_1
_geom_bond_site_symmetry_2
C1 C2 1_555 1_555
C2 H1 1_555 1_555
C3 C2 1_555 1_555
C4 H2 1_555 1_555
C5 C4 1_555 1_555
H3 C5 1_555 1_555
C6 C4 1_555 1_555
H4 C6 1_555 1_555
C7 C3 1_555 1_555
H5 C7 1_555 1_555
C8 C7 1_555 1_555
H6 C8 1_555 1_555
C9 C1 1_555 1_555
H7 C9 1_555 1_555
S1 C1 1_555 1_555
O1 S1 1_555 1_555
O2 S1 1_555 1_555
N1 S1 1_555 1_555
C10 N1 1_555 1_555
H8 C10 1_555 1_555
H9 C10 1_555 1_555
C11 C10 1_555 1_555
C12 C11 1_555 1_555
H10 C12 1_555 1_555
C13 C12 1_555 1_555
H11 C13 1_555 1_555
C14 C13 1_555 1_555
C15 C14 1_555 1_555
H12 C15 1_555 1_555
C16 C11 1_555 1_555
H13 C16 1_555 1_555
O3 C14 1_555 1_555
C17 O3 1_555 1_555
H14 C17 1_555 1_555
H15 C17 1_555 1_555
H16 C17 1_555 1_555
S2 N1 1_555 1_555
O4 S2 1_555 1_555
O5 S2 1_555 1_555
C18 S2 1_555 1_555
C19 C18 1_555 1_555
H17 C19 1_555 1_555
C20 C19 1_555 1_555
H18 C20 1_555 1_555
C21 C20 1_555 1_555
C22 C21 1_555 1_555
H19 C22 1_555 1_555
C23 C18 1_555 1_555
H20 C23 1_555 1_555
C24 C21 1_555 1_555
H21 C24 1_555 1_555
H22 C24 1_555 1_555
H23 C24 1_555 1_555
S3 C3 1_555 1_555
O6 S3 1_555 1_555
O7 S3 1_555 1_555
N2 S3 1_555 1_555
C25 N2 1_555 1_555
H24 C25 1_555 1_555
H25 C25 1_555 1_555
C26 C25 1_555 1_555
C27 C26 1_555 1_555
H26 C27 1_555 1_555
C28 C27 1_555 1_555
H27 C28 1_555 1_555
C29 C28 1_555 1_555
C30 C29 1_555 1_555
H28 C30 1_555 1_555
C31 C26 1_555 1_555
H29 C31 1_555 1_555
O8 C29 1_555 1_555
C32 O8 1_555 1_555
H30 C32 1_555 1_555
H31 C32 1_555 1_555
H32 C32 1_555 1_555
S4 N2 1_555 1_555
O9 S4 1_555 1_555
O10 S4 1_555 1_555
C33 S4 1_555 1_555
C34 C33 1_555 1_555
H33 C34 1_555 1_555
C35 C34 1_555 1_555
H34 C35 1_555 1_555
C36 C35 1_555 1_555
H35 C36 1_555 1_555
C37 C36 1_555 1_555
C38 C37 1_555 1_555
C39 C38 1_555 1_555
H36 C39 1_555 1_555
C40 C39 1_555 1_555
H37 C40 1_555 1_555
C41 C40 1_555 1_555
H38 C41 1_555 1_555
C42 C33 1_555 1_555
N3 C38 1_555 1_555
C43 N3 1_555 1_555
H39 C43 1_555 1_555
H40 C43 1_555 1_555
H41 C43 1_555 1_555
C44 N3 1_555 1_555
H42 C44 1_555 1_555
H43 C44 1_555 1_555
H44 C44 1_555 1_555
C4A H2A 1_555 1_555
C5A C6 1_555 1_555
H3A C5A 1_555 1_555
C6A C5 1_555 1_555
H4A C6A 1_555 1_555
C8 C9 1_555 1_555
C15 C16 1_555 1_555
C22 C23 1_555 1_555
C30 C31 1_555 1_555
C37 C42 1_555 1_555
C41 C42 1_555 1_555
C4A C5A 1_555 1_555
C4A C6A 1_555 1_555

#END
