
#######################################################################
#
#                 Cambridge Crystallographic Data Centre
#                                CCDC 
#
#######################################################################
#
# If this CIF has been generated from an entry in the Cambridge 
# Structural Database, then it will include bibliographic, chemical, 
# crystal, experimental, refinement or atomic coordinate data resulting 
# from the CCDC's data processing and validation procedures.
#
#######################################################################

data_VEMQUB
_chemical_formula_moiety         'C16 H15 F3 N4 O3'
_chemical_name_systematic        
(S)-(+)-1-Methyl-5-propyl-5-(3-(3-(trifluoromethyl)-3H-diaziren-3-yl)phenyl)pyrimidine-2,4,6(1H,3H,5H)-trione
_symmetry_cell_setting           monoclinic
_symmetry_space_group_name_H-M   'P 21'
_symmetry_Int_Tables_number      4
_space_group_name_Hall           'P 2yb'
loop_
_symmetry_equiv_pos_site_id
_symmetry_equiv_pos_as_xyz
1 x,y,z
2 -x,1/2+y,-z
_cell_length_a                   10.9690(10)
_cell_length_b                   6.7430(10)
_cell_length_c                   11.0700(10)
_cell_angle_alpha                90
_cell_angle_beta                 106.9540(10)
_cell_angle_gamma                90
_cell_volume                     783.196
_exptl_crystal_colour            colorless
_exptl_crystal_description       block
_cell_formula_units_Z            2
loop_
_atom_site_label
_atom_site_type_symbol
_atom_site_fract_x
_atom_site_fract_y
_atom_site_fract_z
O1 O 0.51273(19) 0.8913(3) 0.93857(19)
C1 C 0.4053(3) 0.9267(4) 0.8738(3)
N1 N 0.3393(2) 0.7991(4) 0.7804(2)
C2 C 0.4064(3) 0.6191(5) 0.7596(3)
H1 H 0.4014 0.5176 0.8213
H2 H 0.4960 0.6509 0.7695
H3 H 0.3666 0.5690 0.6740
C3 C 0.2143(3) 0.8316(5) 0.7045(3)
O2 O 0.1618(2) 0.7126(4) 0.6253(2)
C4 C 0.1455(3) 1.0188(4) 0.7247(3)
C5 C 0.2276(2) 1.1660(4) 0.8195(2)
O3 O 0.19057(19) 1.3295(3) 0.8352(2)
N2 N 0.3461(2) 1.0999(4) 0.8893(2)
H4 H 0.389(4) 1.176(7) 0.942(4)
C6 C 0.0991(3) 1.1261(5) 0.5952(3)
H5 H 0.069(4) 1.267(8) 0.602(4)
H6 H 0.032(4) 1.051(7) 0.541(4)
C7 C 0.2051(3) 1.1750(6) 0.5395(3)
H7 H 0.2100 1.3216 0.5382
H8 H 0.2847 1.1293 0.6017
C8 C 0.2115(4) 1.1161(6) 0.4311(4)
H9 H 0.1916 1.2270 0.3712
H10 H 0.1501 1.0088 0.4003
H11 H 0.2978 1.0678 0.4390
C9 C 0.0350(3) 0.9600(5) 0.7779(3)
C10 C 0.0413(3) 0.7908(5) 0.8514(3)
H12 H 0.118(4) 0.684(7) 0.872(4)
C11 C -0.0570(3) 0.7467(5) 0.9022(3)
H13 H -0.049(5) 0.648(8) 0.959(4)
C12 C -0.1621(3) 0.8681(6) 0.8803(3)
H14 H -0.228(5) 0.847(8) 0.922(4)
C13 C -0.1697(3) 1.0377(5) 0.8080(3)
C14 C -0.0710(3) 1.0848(5) 0.7569(3)
H15 H -0.076(4) 1.215(7) 0.712(4)
C15 C -0.2827(3) 1.1695(5) 0.7827(3)
N3 N -0.3220(3) 1.2555(5) 0.8877(3)
N4 N -0.2715(3) 1.3748(5) 0.8334(3)
C16 C -0.3887(3) 1.1408(6) 0.6614(3)
F1 F -0.3455(2) 1.1523(4) 0.56128(19)
F2 F -0.4424(2) 0.9630(4) 0.6578(2)
F3 F -0.4793(2) 1.2779(5) 0.6460(3)
loop_
_geom_bond_atom_site_label_1
_geom_bond_atom_site_label_2
_geom_bond_site_symmetry_1
_geom_bond_site_symmetry_2
O1 C1 1_555 1_555
C1 N1 1_555 1_555
N1 C2 1_555 1_555
C2 H1 1_555 1_555
H2 C2 1_555 1_555
H3 C2 1_555 1_555
C3 N1 1_555 1_555
O2 C3 1_555 1_555
C4 C3 1_555 1_555
C5 C4 1_555 1_555
O3 C5 1_555 1_555
N2 C1 1_555 1_555
H4 N2 1_555 1_555
C6 C4 1_555 1_555
H5 C6 1_555 1_555
H6 C6 1_555 1_555
C7 C6 1_555 1_555
H7 C7 1_555 1_555
H8 C7 1_555 1_555
C8 C7 1_555 1_555
H9 C8 1_555 1_555
H10 C8 1_555 1_555
H11 C8 1_555 1_555
C9 C4 1_555 1_555
C10 C9 1_555 1_555
H12 C10 1_555 1_555
C11 C10 1_555 1_555
H13 C11 1_555 1_555
C12 C11 1_555 1_555
H14 C12 1_555 1_555
C13 C12 1_555 1_555
C14 C9 1_555 1_555
H15 C14 1_555 1_555
C15 C13 1_555 1_555
N3 C15 1_555 1_555
N4 C15 1_555 1_555
C16 C15 1_555 1_555
F1 C16 1_555 1_555
F2 C16 1_555 1_555
F3 C16 1_555 1_555
C5 N2 1_555 1_555
C13 C14 1_555 1_555
N3 N4 1_555 1_555

#END
