
#######################################################################
#
#                 Cambridge Crystallographic Data Centre
#                                CCDC 
#
#######################################################################
#
# If this CIF has been generated from an entry in the Cambridge 
# Structural Database, then it will include bibliographic, chemical, 
# crystal, experimental, refinement or atomic coordinate data resulting 
# from the CCDC's data processing and validation procedures.
#
#######################################################################

data_VEMSAH
_chemical_compound_source        'Fungus Ampulliferina sp'
_chemical_formula_moiety         'C15 H19 N1 O4'
_chemical_name_systematic        Pinthunamide
_symmetry_cell_setting           triclinic
_symmetry_space_group_name_H-M   'P 1'
_symmetry_Int_Tables_number      1
_space_group_name_Hall           'P 1'
loop_
_symmetry_equiv_pos_site_id
_symmetry_equiv_pos_as_xyz
1 x,y,z
_cell_length_a                   6.846(1)
_cell_length_b                   11.079(1)
_cell_length_c                   10.340(1)
_cell_angle_alpha                77.47(1)
_cell_angle_beta                 90.04(1)
_cell_angle_gamma                108.04(1)
_cell_volume                     726.072
_exptl_crystal_colour            colorless
_chemical_melting_point          190-193deg.C
_cell_formula_units_Z            2
loop_
_atom_site_label
_atom_site_type_symbol
_atom_site_fract_x
_atom_site_fract_y
_atom_site_fract_z
O1 O 0.6567 0.6244 0.9782
O2 O 0.3337(6) 0.8714(3) 0.5904(3)
O3 O -0.0496(5) 0.6779(3) 0.5026(3)
O4 O -0.0527(4) 0.8632(3) 0.3674(3)
N1 N 0.8624(6) 0.6593(3) 0.7967(3)
C1 C 0.7023(6) 0.6720(3) 0.8584(4)
C2 C 0.5775(5) 0.7451(3) 0.7784(3)
C3 C 0.5499(6) 0.7387(3) 0.6528(4)
C4 C 0.4191(6) 0.7990(4) 0.5622(4)
C5 C 0.3948(6) 0.7592(3) 0.4306(4)
C6 C 0.2417(5) 0.8063(3) 0.3467(3)
C7 C 0.2926(6) 0.9503(3) 0.2746(4)
C8 C 0.3949(7) 0.9222(5) 0.1596(4)
C9 C 0.2497(6) 0.7814(4) 0.2012(4)
C10 C 0.0453(7) 0.7711(4) 0.1403(4)
C11 C -0.0046(7) 0.8982(5) 0.1322(4)
C12 C 0.0752(6) 0.9558(3) 0.2504(4)
C13 C 0.0453(9) 1.0859(5) 0.2472(6)
C14 C 0.0352(6) 0.7708(3) 0.4152(4)
C15 C 0.4808(8) 0.8169(5) 0.8535(4)
H1 H 0.8922 0.6944 0.7092
H2 H 0.9411 0.6156 0.8424
H3 H 0.6217 0.6903 0.6164
H4 H 0.3528 0.6658 0.4472
H5 H 0.5264 0.7925 0.3812
H6 H 0.3779 1.0135 0.3184
H7 H 0.5379 0.9308 0.1683
H8 H 0.3733 0.9686 0.0739
H9 H 0.3089 0.7153 0.1922
H10 H -0.0615 0.6993 0.1936
H11 H 0.0524 0.7554 0.0529
H12 H -0.1509 0.8812 0.1319
H13 H 0.0582 0.9595 0.0511
H14 H -0.0952 1.0800 0.2316
H15 H 0.0774 1.1091 0.3307
H16 H 0.1348 1.1512 0.1772
H17 H 0.4033 0.8612 0.7949
H18 H 0.3906 0.7558 0.9259
H19 H 0.5867 0.8793 0.8874
O5 O 1.0949(5) 0.5013(3) 0.9436(3)
O6 O 0.5251(5) 0.2547(3) 1.3312(3)
O7 O 0.3359(5) 0.4486(3) 1.4182(3)
O8 O 0.1475(4) 0.2636(3) 1.5530(3)
N2 N 1.2673(5) 0.4686(3) 1.1234(3)
C16 C 1.0933(6) 0.4538(3) 1.0617(3)
C17 C 0.8937(5) 0.3798(3) 1.1431(3)
C18 C 0.8726(6) 0.3868(3) 1.2679(3)
C19 C 0.6834(5) 0.3275(3) 1.3582(3)
C20 C 0.6983(5) 0.3668(3) 1.4900(3)
C21 C 0.4989(5) 0.3187(3) 1.5752(3)
C22 C 0.4044(5) 0.1747(3) 1.6458(3)
C23 C 0.5352(6) 0.2037(4) 1.7620(4)
C24 C 0.5308(6) 0.3435(3) 1.7203(3)
C25 C 0.3377(7) 0.3539(4) 1.7815(4)
C26 C 0.1604(6) 0.2286(4) 1.7884(4)
C27 C 0.1812(6) 0.1697(3) 1.6704(3)
C28 C 0.0223(7) 0.0407(4) 1.6740(5)
C29 C 0.3266(6) 0.3537(3) 1.5051(3)
C30 C 0.7276(7) 0.3096(5) 1.0678(4)
H20 H 1.2628 0.4346 1.2111
H21 H 1.3894 0.5124 1.0773
H22 H 0.9929 0.4357 1.3039
H23 H 0.7485 0.4602 1.4734
H24 H 0.7979 0.3344 1.5388
H25 H 0.4265 0.1114 1.6021
H26 H 0.6699 0.1954 1.7538
H27 H 0.4670 0.1574 1.8477
H28 H 0.6562 0.4095 1.7294
H29 H 0.3037 0.4264 1.7288
H30 H 0.3608 0.3686 1.8692
H31 H 0.0321 0.2468 1.7880
H32 H 0.1601 0.1672 1.8698
H33 H -0.1122 0.0466 1.6898
H34 H 0.0306 0.0172 1.5906
H35 H 0.0466 -0.0245 1.7441
H36 H 0.6053 0.2647 1.1258
H37 H 0.6991 0.3711 0.9956
H38 H 0.7715 0.2477 1.0333
loop_
_geom_bond_atom_site_label_1
_geom_bond_atom_site_label_2
_geom_bond_site_symmetry_1
_geom_bond_site_symmetry_2
O1 C1 1_555 1_555
O2 C4 1_555 1_555
O3 C14 1_555 1_555
O4 C12 1_555 1_555
N1 C1 1_555 1_555
C1 C2 1_555 1_555
C2 C3 1_555 1_555
C3 C4 1_555 1_555
C4 C5 1_555 1_555
C5 C6 1_555 1_555
C6 C7 1_555 1_555
C7 C8 1_555 1_555
C8 C9 1_555 1_555
C9 C6 1_555 1_555
C10 C9 1_555 1_555
C11 C10 1_555 1_555
C12 C7 1_555 1_555
C13 C12 1_555 1_555
C14 O4 1_555 1_555
C15 C2 1_555 1_555
O5 C16 1_555 1_555
O6 C19 1_555 1_555
O7 C29 1_555 1_555
O8 C27 1_555 1_555
N2 C16 1_555 1_555
C16 C17 1_555 1_555
C17 C18 1_555 1_555
C18 C19 1_555 1_555
C19 C20 1_555 1_555
C20 C21 1_555 1_555
C21 C22 1_555 1_555
C22 C23 1_555 1_555
C23 C24 1_555 1_555
C24 C21 1_555 1_555
C25 C24 1_555 1_555
C26 C25 1_555 1_555
C27 C22 1_555 1_555
C28 C27 1_555 1_555
C29 O8 1_555 1_555
C30 C17 1_555 1_555
H1 N1 1_555 1_555
H2 N1 1_555 1_555
H3 C3 1_555 1_555
H4 C5 1_555 1_555
H5 C5 1_555 1_555
H6 C7 1_555 1_555
H7 C8 1_555 1_555
H8 C8 1_555 1_555
H9 C9 1_555 1_555
H10 C10 1_555 1_555
H11 C10 1_555 1_555
H12 C11 1_555 1_555
H13 C11 1_555 1_555
H14 C13 1_555 1_555
H15 C13 1_555 1_555
H16 C13 1_555 1_555
H17 C15 1_555 1_555
H18 C15 1_555 1_555
H19 C15 1_555 1_555
H20 N2 1_555 1_555
H21 N2 1_555 1_555
H22 C18 1_555 1_555
H23 C20 1_555 1_555
H24 C20 1_555 1_555
H25 C22 1_555 1_555
H26 C23 1_555 1_555
H27 C23 1_555 1_555
H28 C24 1_555 1_555
H29 C25 1_555 1_555
H30 C25 1_555 1_555
H31 C26 1_555 1_555
H32 C26 1_555 1_555
H33 C28 1_555 1_555
H34 C28 1_555 1_555
H35 C28 1_555 1_555
H36 C30 1_555 1_555
H37 C30 1_555 1_555
H38 C30 1_555 1_555
C6 C14 1_555 1_555
C11 C12 1_555 1_555
C21 C29 1_555 1_555
C26 C27 1_555 1_555

#END
