
#######################################################################
#
#                 Cambridge Crystallographic Data Centre
#                                CCDC 
#
#######################################################################
#
# If this CIF has been generated from an entry in the Cambridge 
# Structural Database, then it will include bibliographic, chemical, 
# crystal, experimental, refinement or atomic coordinate data resulting 
# from the CCDC's data processing and validation procedures.
#
#######################################################################

data_VEMSIS
_chemical_name_common            
'5-ethyl-2-(p-tolyl)-1,3-dioxane-5-carboxylic acid'
_chemical_formula_moiety         'C14 H18 O4'
_chemical_name_systematic        
'5-ethyl-2-(4-methylphenyl)-1,3-dioxane-5-carboxylic acid'
_symmetry_cell_setting           monoclinic
_symmetry_space_group_name_H-M   'P 21/n'
_symmetry_Int_Tables_number      14
_space_group_name_Hall           '-P 2yn'
loop_
_symmetry_equiv_pos_site_id
_symmetry_equiv_pos_as_xyz
1 x,y,z
2 1/2-x,1/2+y,1/2-z
3 -x,-y,-z
4 1/2+x,1/2-y,1/2+z
_cell_length_a                   10.763(6)
_cell_length_b                   5.941(4)
_cell_length_c                   20.310(12)
_cell_angle_alpha                90
_cell_angle_beta                 92.238(6)
_cell_angle_gamma                90
_cell_volume                     1297.69
_exptl_crystal_description       block
_cell_formula_units_Z            4
loop_
_atom_site_label
_atom_site_type_symbol
_atom_site_fract_x
_atom_site_fract_y
_atom_site_fract_z
O1 O 0.28147(10) 0.47265(19) 0.33843(6)
O2 O 0.41186(10) 0.77926(19) 0.35404(6)
O3 O 0.13556(11) 1.0591(2) 0.46689(7)
O4 O 0.04897(13) 0.7255(2) 0.47766(8)
C1 C 0.44938(14) 0.5226(3) 0.26801(7)
C2 C 0.35260(14) 0.6356(3) 0.30725(7)
H1 H 0.29819(14) 0.7251(3) 0.27763(7)
C3 C 0.13701(14) 0.8565(3) 0.45894(8)
C4 C 0.49848(15) 0.3151(3) 0.28548(8)
H2 H 0.47049(15) 0.2408(3) 0.32237(8)
C5 C 0.24162(13) 0.7340(3) 0.42715(7)
C6 C 0.18593(15) 0.5720(3) 0.37551(9)
H3 H 0.12853(15) 0.6528(3) 0.34607(9)
H4 H 0.13988(15) 0.4548(3) 0.39717(9)
C7 C 0.32269(15) 0.8987(3) 0.39092(9)
H5 H 0.36531(15) 0.9975(3) 0.42240(9)
H6 H 0.27105(15) 0.9907(3) 0.36139(9)
C8 C 0.49284(16) 0.6280(3) 0.21272(8)
H7 H 0.46103(16) 0.7678(3) 0.20021(8)
C9 C 0.58905(16) 0.2175(3) 0.24834(9)
H8 H 0.62165(16) 0.0785(3) 0.26103(9)
C10 C 0.63233(15) 0.3216(3) 0.19279(8)
C11 C 0.58265(17) 0.5285(3) 0.17594(9)
H9 H 0.61036(17) 0.6026(3) 0.13894(9)
C12 C 0.31437(18) 0.5956(4) 0.48010(9)
H10 H 0.25930(18) 0.4814(4) 0.49671(9)
H11 H 0.38180(18) 0.5185(4) 0.45921(9)
C13 C 0.7278(2) 0.2095(4) 0.15163(11)
H12 H 0.7796(10) 0.114(2) 0.1791(2)
H13 H 0.6866(2) 0.121(2) 0.1178(5)
H14 H 0.7781(10) 0.3222(4) 0.1318(7)
C14 C 0.3677(2) 0.7264(6) 0.53735(11)
H15 H 0.4239(15) 0.838(2) 0.52188(15)
H16 H 0.3017(3) 0.799(3) 0.5598(6)
H17 H 0.4117(17) 0.6264(8) 0.5671(5)
H18 H -0.014(3) 0.807(5) 0.4973(14)
loop_
_geom_bond_atom_site_label_1
_geom_bond_atom_site_label_2
_geom_bond_site_symmetry_1
_geom_bond_site_symmetry_2
O1 C2 1_555 1_555
O2 C2 1_555 1_555
O3 C3 1_555 1_555
O4 C3 1_555 1_555
C1 C2 1_555 1_555
C2 H1 1_555 1_555
C3 C5 1_555 1_555
C4 C1 1_555 1_555
H2 C4 1_555 1_555
C5 C6 1_555 1_555
C6 O1 1_555 1_555
H3 C6 1_555 1_555
H4 C6 1_555 1_555
C7 O2 1_555 1_555
H5 C7 1_555 1_555
H6 C7 1_555 1_555
C8 C1 1_555 1_555
H7 C8 1_555 1_555
C9 C4 1_555 1_555
H8 C9 1_555 1_555
C10 C9 1_555 1_555
C11 C8 1_555 1_555
H9 C11 1_555 1_555
C12 C5 1_555 1_555
H10 C12 1_555 1_555
H11 C12 1_555 1_555
C13 C10 1_555 1_555
H12 C13 1_555 1_555
H13 C13 1_555 1_555
H14 C13 1_555 1_555
C14 C12 1_555 1_555
H15 C14 1_555 1_555
H16 C14 1_555 1_555
H17 C14 1_555 1_555
H18 O4 1_555 1_555
C5 C7 1_555 1_555
C10 C11 1_555 1_555

#END
