
#######################################################################
#
#                 Cambridge Crystallographic Data Centre
#                                CCDC 
#
#######################################################################
#
# If this CIF has been generated from an entry in the Cambridge 
# Structural Database, then it will include bibliographic, chemical, 
# crystal, experimental, refinement or atomic coordinate data resulting 
# from the CCDC's data processing and validation procedures.
#
#######################################################################

data_VEMYIW
_chemical_formula_moiety         'C32 H38 N4 Se2 2+,2(C2 F3 O2 1-)'
_chemical_name_systematic        
'10,11,12,13,14,15,25,26,27,28,29,30-dodecahydrotetrabenzo(b,j,m,u)-1,12-diselena-5,16-diaza-8,19-diazoniacyclodocosine bis(trifluoroacetate)'
_symmetry_cell_setting           orthorhombic
_symmetry_space_group_name_H-M   'F d d 2'
_symmetry_Int_Tables_number      43
_space_group_name_Hall           'F 2 -2d'
loop_
_symmetry_equiv_pos_site_id
_symmetry_equiv_pos_as_xyz
1 x,y,z
2 -x,-y,z
3 1/4+x,1/4-y,1/4+z
4 1/4-x,1/4+y,1/4+z
5 x,1/2+y,1/2+z
6 -x,1/2-y,1/2+z
7 1/4+x,3/4-y,3/4+z
8 1/4-x,3/4+y,3/4+z
9 1/2+x,y,1/2+z
10 1/2-x,-y,1/2+z
11 3/4+x,1/4-y,3/4+z
12 3/4-x,1/4+y,3/4+z
13 1/2+x,1/2+y,z
14 1/2-x,1/2-y,z
15 3/4+x,3/4-y,1/4+z
16 3/4-x,3/4+y,1/4+z
_cell_length_a                   13.6270(13)
_cell_length_b                   43.496(5)
_cell_length_c                   12.3646(13)
_cell_angle_alpha                90
_cell_angle_beta                 90
_cell_angle_gamma                90
_cell_volume                     7328.75
_exptl_crystal_colour            'pale orange'
_exptl_crystal_description       chunk
_chemical_melting_point          '188-190 deg.C'
_cell_formula_units_Z            8
loop_
_atom_site_label
_atom_site_type_symbol
_atom_site_fract_x
_atom_site_fract_y
_atom_site_fract_z
Se1 Se 0.17663(3) 0.055581(6) 0.47018(3)
N1 N 0.13375(19) -0.04655(5) 0.4651(3)
H1 H 0.189(2) -0.0544(7) 0.434(3)
N2 N 0.0245(2) -0.10642(7) 0.5486(2)
H2 H -0.020(2) -0.0978(7) 0.582(3)
H3 H 0.029(3) -0.1290(9) 0.568(3)
C1 C 0.1864(3) 0.09654(7) 0.4119(3)
C2 C 0.1040(2) 0.11575(7) 0.4094(3)
C3 C 0.1174(3) 0.14645(7) 0.3808(3)
H4 H 0.0629 0.1601 0.3818
C4 C 0.2080(3) 0.15735(8) 0.3511(3)
H5 H 0.2158 0.1784 0.3319
C5 C 0.2877(3) 0.13788(8) 0.3490(3)
H6 H 0.3499 0.1452 0.3257
C6 C 0.2770(3) 0.10775(8) 0.3808(3)
H7 H 0.3324 0.0945 0.3815
C7 C 0.1527(2) 0.03249(7) 0.3401(3)
C8 C 0.1491(2) 0.04613(7) 0.2393(3)
H8 H 0.1561 0.0678 0.2325
C9 C 0.1355(3) 0.02816(8) 0.1481(3)
H9 H 0.1338 0.0375 0.0786
C10 C 0.1242(2) -0.00324(8) 0.1575(3)
H10 H 0.1161 -0.0156 0.0948
C11 C 0.1247(2) -0.01662(7) 0.2589(3)
H11 H 0.1145 -0.0382 0.2650
C12 C 0.1399(2) 0.00070(7) 0.3527(3)
C13 C 0.1396(2) -0.01297(6) 0.4638(3)
H12 H 0.2002 -0.0066 0.5017
H13 H 0.0832 -0.0045 0.5045
C14 C 0.1212(3) -0.05795(7) 0.5746(3)
H14 H 0.0585 -0.0501 0.6041
H15 H 0.1750 -0.0500 0.6204
C15 C 0.1208(2) -0.09266(7) 0.5798(3)
H16 H 0.1724 -0.1007 0.5310
H17 H 0.1373 -0.0992 0.6543
C16 C 0.0022(2) 0.10370(7) 0.4314(3)
H18 H -0.0458 0.1154 0.3875
H19 H -0.0015 0.0819 0.4094
Se1A Se -0.17663(3) -0.055581(6) 0.47018(3)
N1A N -0.13375(19) 0.04655(5) 0.4651(3)
H1A H -0.189(2) 0.0544(7) 0.434(3)
N2A N -0.0245(2) 0.10642(7) 0.5486(2)
H2A H 0.020(2) 0.0978(7) 0.582(3)
H3A H -0.029(3) 0.1290(9) 0.568(3)
C1A C -0.1864(3) -0.09654(7) 0.4119(3)
C2A C -0.1040(2) -0.11575(7) 0.4094(3)
C3A C -0.1174(3) -0.14645(7) 0.3808(3)
H4A H -0.0629 -0.1601 0.3818
C4A C -0.2080(3) -0.15735(8) 0.3511(3)
H5A H -0.2158 -0.1784 0.3319
C5A C -0.2877(3) -0.13788(8) 0.3490(3)
H6A H -0.3499 -0.1452 0.3257
C6A C -0.2770(3) -0.10775(8) 0.3808(3)
H7A H -0.3324 -0.0945 0.3815
C7A C -0.1527(2) -0.03249(7) 0.3401(3)
C8A C -0.1491(2) -0.04613(7) 0.2393(3)
H8A H -0.1561 -0.0678 0.2325
C9A C -0.1355(3) -0.02816(8) 0.1481(3)
H9A H -0.1338 -0.0375 0.0786
C10A C -0.1242(2) 0.00324(8) 0.1575(3)
H10A H -0.1161 0.0156 0.0948
C11A C -0.1247(2) 0.01662(7) 0.2589(3)
H11A H -0.1145 0.0382 0.2650
C12A C -0.1399(2) -0.00070(7) 0.3527(3)
C13A C -0.1396(2) 0.01297(6) 0.4638(3)
H12A H -0.2002 0.0066 0.5017
H13A H -0.0832 0.0045 0.5045
C14A C -0.1212(3) 0.05795(7) 0.5746(3)
H14A H -0.0585 0.0501 0.6041
H15A H -0.1750 0.0500 0.6204
C15A C -0.1208(2) 0.09266(7) 0.5798(3)
H16A H -0.1724 0.1007 0.5310
H17A H -0.1373 0.0992 0.6543
C16A C -0.0022(2) -0.10370(7) 0.4314(3)
H18A H 0.0458 -0.1154 0.3875
H19A H 0.0015 -0.0819 0.4094
F1 F 0.00636(19) -0.04399(7) 0.8432(3)
F2 F -0.13371(19) -0.02505(5) 0.88211(19)
F3 F -0.08476(19) -0.02603(4) 0.7206(3)
O1 O -0.19300(17) -0.08268(5) 0.8620(2)
O2 O -0.09824(18) -0.08878(5) 0.7167(3)
C17 C -0.1296(2) -0.07426(7) 0.7952(3)
C18 C -0.0858(3) -0.04189(8) 0.8108(3)
loop_
_geom_bond_atom_site_label_1
_geom_bond_atom_site_label_2
_geom_bond_site_symmetry_1
_geom_bond_site_symmetry_2
Se1 C1 1_555 1_555
F1 C18 1_555 1_555
F2 C18 1_555 1_555
F3 C18 1_555 1_555
O1 C17 1_555 1_555
O2 C17 1_555 1_555
N1 H1 1_555 1_555
N2 H2 1_555 1_555
H3 N2 1_555 1_555
C1 C2 1_555 1_555
C2 C3 1_555 1_555
C3 H4 1_555 1_555
C4 C3 1_555 1_555
H5 C4 1_555 1_555
C5 C4 1_555 1_555
H6 C5 1_555 1_555
C6 C1 1_555 1_555
H7 C6 1_555 1_555
C7 Se1 1_555 1_555
C8 C7 1_555 1_555
H8 C8 1_555 1_555
C9 C8 1_555 1_555
H9 C9 1_555 1_555
C10 C9 1_555 1_555
H10 C10 1_555 1_555
C11 C10 1_555 1_555
H11 C11 1_555 1_555
C12 C7 1_555 1_555
C13 N1 1_555 1_555
H12 C13 1_555 1_555
H13 C13 1_555 1_555
C14 N1 1_555 1_555
H14 C14 1_555 1_555
H15 C14 1_555 1_555
C15 N2 1_555 1_555
H16 C15 1_555 1_555
H17 C15 1_555 1_555
C16 C2 1_555 1_555
H18 C16 1_555 1_555
H19 C16 1_555 1_555
C17 C18 1_555 1_555
Se1A C1A 1_555 1_555
N1A H1A 1_555 1_555
N2A C16 1_555 1_555
H2A N2A 1_555 1_555
H3A N2A 1_555 1_555
C1A C2A 1_555 1_555
C2A C3A 1_555 1_555
C3A H4A 1_555 1_555
C4A C3A 1_555 1_555
H5A C4A 1_555 1_555
C5A C4A 1_555 1_555
H6A C5A 1_555 1_555
C6A C1A 1_555 1_555
H7A C6A 1_555 1_555
C7A Se1A 1_555 1_555
C8A C7A 1_555 1_555
H8A C8A 1_555 1_555
C9A C8A 1_555 1_555
H9A C9A 1_555 1_555
C10A C9A 1_555 1_555
H10A C10A 1_555 1_555
C11A C10A 1_555 1_555
H11A C11A 1_555 1_555
C12A C7A 1_555 1_555
C13A N1A 1_555 1_555
H12A C13A 1_555 1_555
H13A C13A 1_555 1_555
C14A N1A 1_555 1_555
H14A C14A 1_555 1_555
H15A C14A 1_555 1_555
C15A N2A 1_555 1_555
H16A C15A 1_555 1_555
H17A C15A 1_555 1_555
C16A N2 1_555 1_555
H18A C16A 1_555 1_555
H19A C16A 1_555 1_555
C5 C6 1_555 1_555
C11 C12 1_555 1_555
C12 C13 1_555 1_555
C14 C15 1_555 1_555
C2A C16A 1_555 1_555
C5A C6A 1_555 1_555
C11A C12A 1_555 1_555
C12A C13A 1_555 1_555
C14A C15A 1_555 1_555

#END
