
#######################################################################
#
#                 Cambridge Crystallographic Data Centre
#                                CCDC 
#
#######################################################################
#
# If this CIF has been generated from an entry in the Cambridge 
# Structural Database, then it will include bibliographic, chemical, 
# crystal, experimental, refinement or atomic coordinate data resulting 
# from the CCDC's data processing and validation procedures.
#
#######################################################################

data_VENDAW
_chemical_formula_moiety         'C25 H23 N1 O3'
_chemical_name_systematic        
4-benzyl-3-(2,3-diphenylpropanoyl)-1,3-oxazolidin-2-one
_symmetry_cell_setting           orthorhombic
_symmetry_space_group_name_H-M   'P 21 21 21'
_symmetry_Int_Tables_number      19
_space_group_name_Hall           'P 2ac 2ab'
loop_
_symmetry_equiv_pos_site_id
_symmetry_equiv_pos_as_xyz
1 x,y,z
2 1/2-x,-y,1/2+z
3 -x,1/2+y,1/2-z
4 1/2+x,1/2-y,-z
_cell_length_a                   6.3047(7)
_cell_length_b                   17.8314(17)
_cell_length_c                   18.0510(18)
_cell_angle_alpha                90
_cell_angle_beta                 90
_cell_angle_gamma                90
_cell_volume                     2029.32
_exptl_crystal_description       block
_cell_formula_units_Z            4
loop_
_atom_site_label
_atom_site_type_symbol
_atom_site_fract_x
_atom_site_fract_y
_atom_site_fract_z
C1 C 0.4346(8) 0.2560(3) 0.3372(3)
C2 C 0.7937(7) 0.2949(3) 0.3363(3)
H1 H 0.9092 0.2784 0.3039
C3 C 0.7545(9) 0.2363(4) 0.3956(4)
H2 H 0.8197 0.1890 0.3821
H3 H 0.8117 0.2525 0.4428
C4 C 0.8424(9) 0.3738(4) 0.3662(3)
H4 H 0.9785 0.3725 0.3913
H5 H 0.8553 0.4079 0.3246
C5 C 0.6794(8) 0.4046(3) 0.4189(3)
C6 C 0.4955(9) 0.4386(3) 0.3916(3)
H6 H 0.4772 0.4442 0.3407
C7 C 0.3413(11) 0.4640(3) 0.4396(4)
H7 H 0.2204 0.4872 0.4210
C8 C 0.3651(13) 0.4553(4) 0.5148(4)
H8 H 0.2583 0.4707 0.5470
C9 C 0.5476(13) 0.4238(4) 0.5422(3)
H9 H 0.5663 0.4193 0.5931
C10 C 0.7038(11) 0.3987(4) 0.4946(3)
H10 H 0.8269 0.3776 0.5139
C11 C 0.5777(7) 0.3218(3) 0.2252(3)
C12 C 0.3664(7) 0.3220(3) 0.1839(2)
H11 H 0.2504 0.3219 0.2201
C13 C 0.3491(8) 0.2525(3) 0.1355(3)
C14 C 0.5123(9) 0.2301(3) 0.0889(3)
H12 H 0.6385 0.2570 0.0884
C15 C 0.4903(11) 0.1685(4) 0.0433(3)
H13 H 0.6015 0.1542 0.0126
C16 C 0.3024(12) 0.1278(3) 0.0432(4)
H14 H 0.2877 0.0860 0.0129
C17 C 0.1391(11) 0.1500(4) 0.0882(3)
H15 H 0.0119 0.1236 0.0873
C18 C 0.1604(9) 0.2113(3) 0.1353(3)
H16 H 0.0495 0.2249 0.1664
C19 C 0.3496(9) 0.3931(3) 0.1356(3)
H17 H 0.4722 0.3957 0.1032
H18 H 0.2243 0.3893 0.1047
C20 C 0.3372(8) 0.4642(3) 0.1803(2)
C21 C 0.1476(9) 0.4841(3) 0.2147(3)
H19 H 0.0300 0.4530 0.2096
C22 C 0.1301(10) 0.5490(3) 0.2564(3)
H20 H 0.0018 0.5612 0.2788
C23 C 0.3034(10) 0.5956(3) 0.2647(4)
H21 H 0.2929 0.6390 0.2930
C24 C 0.4928(10) 0.5770(3) 0.2307(4)
H22 H 0.6098 0.6083 0.2358
C25 C 0.5094(9) 0.5123(3) 0.1893(3)
H23 H 0.6381 0.5006 0.1669
N1 N 0.5904(6) 0.2921(2) 0.2955(2)
O1 O 0.5233(6) 0.2288(2) 0.3996(2)
O2 O 0.2515(5) 0.2475(2) 0.3231(2)
O3 O 0.7391(6) 0.3475(2) 0.1973(2)
loop_
_geom_bond_atom_site_label_1
_geom_bond_atom_site_label_2
_geom_bond_site_symmetry_1
_geom_bond_site_symmetry_2
C1 N1 1_555 1_555
C2 H1 1_555 1_555
C3 C2 1_555 1_555
H2 C3 1_555 1_555
H3 C3 1_555 1_555
C4 C2 1_555 1_555
H4 C4 1_555 1_555
H5 C4 1_555 1_555
C5 C4 1_555 1_555
C6 C5 1_555 1_555
H6 C6 1_555 1_555
C7 C6 1_555 1_555
H7 C7 1_555 1_555
C8 C7 1_555 1_555
H8 C8 1_555 1_555
C9 C8 1_555 1_555
H9 C9 1_555 1_555
C10 C5 1_555 1_555
H10 C10 1_555 1_555
C11 C12 1_555 1_555
C12 H11 1_555 1_555
C13 C12 1_555 1_555
C14 C13 1_555 1_555
H12 C14 1_555 1_555
C15 C14 1_555 1_555
H13 C15 1_555 1_555
C16 C15 1_555 1_555
H14 C16 1_555 1_555
C17 C16 1_555 1_555
H15 C17 1_555 1_555
C18 C13 1_555 1_555
H16 C18 1_555 1_555
C19 C12 1_555 1_555
H17 C19 1_555 1_555
H18 C19 1_555 1_555
C20 C19 1_555 1_555
C21 C20 1_555 1_555
H19 C21 1_555 1_555
C22 C21 1_555 1_555
H20 C22 1_555 1_555
C23 C22 1_555 1_555
H21 C23 1_555 1_555
C24 C23 1_555 1_555
H22 C24 1_555 1_555
C25 C20 1_555 1_555
H23 C25 1_555 1_555
N1 C2 1_555 1_555
O1 C1 1_555 1_555
O2 C1 1_555 1_555
O3 C11 1_555 1_555
C3 O1 1_555 1_555
C9 C10 1_555 1_555
C11 N1 1_555 1_555
C17 C18 1_555 1_555
C24 C25 1_555 1_555

#END
