
#######################################################################
#
#                 Cambridge Crystallographic Data Centre
#                                CCDC 
#
#######################################################################
#
# If this CIF has been generated from an entry in the Cambridge 
# Structural Database, then it will include bibliographic, chemical, 
# crystal, experimental, refinement or atomic coordinate data resulting 
# from the CCDC's data processing and validation procedures.
#
#######################################################################

data_VENFOK
_chemical_formula_moiety         'C26 H36 N2 O3 S1'
_chemical_name_systematic        
1-t-Butyl-2-(t-butoxysulfanyl)-1-(3,5-dimethylbenzoyl)-2-(4-ethylbenzoyl)hydrazine
_chemical_properties_biological  'potential insect growth regulatory activity'
_symmetry_cell_setting           monoclinic
_symmetry_space_group_name_H-M   'P 21/c'
_symmetry_Int_Tables_number      14
_space_group_name_Hall           '-P 2ybc'
loop_
_symmetry_equiv_pos_site_id
_symmetry_equiv_pos_as_xyz
1 x,y,z
2 -x,1/2+y,1/2-z
3 -x,-y,-z
4 x,1/2-y,1/2+z
_cell_length_a                   11.163(5)
_cell_length_b                   10.422(4)
_cell_length_c                   23.031(10)
_cell_angle_alpha                90
_cell_angle_beta                 93.298(5)
_cell_angle_gamma                90
_cell_volume                     2675.01
_exptl_crystal_colour            colorless
_exptl_crystal_description       tablet
_cell_formula_units_Z            4
_exptl_crystal_recrystallization_method propan-2-ol
loop_
_atom_site_label
_atom_site_type_symbol
_atom_site_fract_x
_atom_site_fract_y
_atom_site_fract_z
S1 S 0.13845(4) 0.47509(5) 0.10450(2)
O1 O -0.08298(15) 0.81865(19) 0.07935(8)
O2 O 0.26953(14) 0.79192(14) 0.16660(6)
O3 O 0.21744(12) 0.43853(14) 0.04940(6)
N1 N 0.09988(14) 0.72495(15) 0.08915(7)
N2 N 0.16754(13) 0.63024(15) 0.12051(7)
C1 C -0.13918(19) 0.5804(2) 0.14972(11)
H1 H -0.1668 0.5594 0.1121
C2 C -0.1846(2) 0.5160(3) 0.19648(12)
C3 C -0.2789(3) 0.4121(3) 0.18662(15)
H2 H -0.2675 0.3474 0.2161
H3 H -0.2714 0.3742 0.1490
H4 H -0.3573 0.4490 0.1885
C4 C -0.1419(2) 0.5492(3) 0.25207(11)
H5 H -0.1717 0.5066 0.2836
C5 C -0.0564(2) 0.6434(2) 0.26221(10)
C6 C -0.0068(3) 0.6738(3) 0.32334(11)
H6 H -0.0534 0.6297 0.3509
H7 H -0.0111 0.7646 0.3299
H8 H 0.0752 0.6461 0.3279
C7 C -0.01384(19) 0.7074(2) 0.21471(10)
H9 H 0.0421 0.7729 0.2208
C8 C -0.05320(17) 0.6755(2) 0.15848(9)
C9 C -0.01363(19) 0.7465(2) 0.10611(10)
C10 C 0.14818(19) 0.7860(2) 0.03564(9)
C11 C 0.1455(3) 0.9312(2) 0.04359(12)
H10 H 0.0648 0.9583 0.0493
H11 H 0.1735 0.9721 0.0096
H12 H 0.1965 0.9546 0.0769
C12 C 0.0712(3) 0.7427(3) -0.01749(10)
H13 H 0.0751 0.6510 -0.0208
H14 H 0.1004 0.7814 -0.0518
H15 H -0.0105 0.7684 -0.0134
C13 C 0.2770(2) 0.7441(2) 0.02902(11)
H16 H 0.3250 0.7671 0.0633
H17 H 0.3077 0.7859 -0.0041
H18 H 0.2796 0.6528 0.0237
C14 C 0.32747(19) 0.3602(2) 0.05839(12)
C15 C 0.4208(2) 0.4300(3) 0.09356(15)
H19 H 0.4307 0.5142 0.0776
H20 H 0.4953 0.3841 0.0931
H21 H 0.3972 0.4373 0.1329
C16 C 0.2928(3) 0.2333(3) 0.0833(2)
H22 H 0.3553 0.1719 0.0779
H23 H 0.2196 0.2040 0.0637
H24 H 0.2813 0.2429 0.1240
C17 C 0.3639(3) 0.3433(4) -0.00365(15)
H25 H 0.3767 0.4260 -0.0206
H26 H 0.3014 0.2991 -0.0259
H27 H 0.4366 0.2941 -0.0036
C18 C 0.24637(16) 0.6781(2) 0.16553(8)
C19 C 0.29471(16) 0.5907(2) 0.21221(8)
C20 C 0.41123(18) 0.6153(2) 0.23475(9)
H28 H 0.4578 0.6768 0.2174
C21 C 0.4576(2) 0.5485(3) 0.28292(10)
H29 H 0.5362 0.5638 0.2967
C22 C 0.3896(2) 0.4599(2) 0.31083(9)
C23 C 0.4367(3) 0.3980(3) 0.36695(10)
H30 H 0.4044 0.3119 0.3694
H31 H 0.5234 0.3915 0.3671
C24 C 0.4029(3) 0.4739(3) 0.41850(11)
H32 H 0.4319 0.5602 0.4153
H33 H 0.4379 0.4353 0.4533
H34 H 0.3171 0.4749 0.4200
C25 C 0.2740(2) 0.4363(2) 0.28825(10)
H35 H 0.2269 0.3763 0.3063
C26 C 0.22701(19) 0.4998(2) 0.23950(9)
H36 H 0.1495 0.4815 0.2249
loop_
_geom_bond_atom_site_label_1
_geom_bond_atom_site_label_2
_geom_bond_site_symmetry_1
_geom_bond_site_symmetry_2
S1 O3 1_555 1_555
O1 C9 1_555 1_555
O2 C18 1_555 1_555
O3 C14 1_555 1_555
N1 N2 1_555 1_555
N2 S1 1_555 1_555
C1 H1 1_555 1_555
C2 C1 1_555 1_555
C3 C2 1_555 1_555
H2 C3 1_555 1_555
H3 C3 1_555 1_555
H4 C3 1_555 1_555
C4 C2 1_555 1_555
H5 C4 1_555 1_555
C5 C4 1_555 1_555
C6 C5 1_555 1_555
H6 C6 1_555 1_555
H7 C6 1_555 1_555
H8 C6 1_555 1_555
C7 C5 1_555 1_555
H9 C7 1_555 1_555
C8 C1 1_555 1_555
C9 N1 1_555 1_555
C10 N1 1_555 1_555
C11 C10 1_555 1_555
H10 C11 1_555 1_555
H11 C11 1_555 1_555
H12 C11 1_555 1_555
C12 C10 1_555 1_555
H13 C12 1_555 1_555
H14 C12 1_555 1_555
H15 C12 1_555 1_555
C13 C10 1_555 1_555
H16 C13 1_555 1_555
H17 C13 1_555 1_555
H18 C13 1_555 1_555
C14 C15 1_555 1_555
C15 H19 1_555 1_555
H20 C15 1_555 1_555
H21 C15 1_555 1_555
C16 C14 1_555 1_555
H22 C16 1_555 1_555
H23 C16 1_555 1_555
H24 C16 1_555 1_555
C17 C14 1_555 1_555
H25 C17 1_555 1_555
H26 C17 1_555 1_555
H27 C17 1_555 1_555
C18 N2 1_555 1_555
C19 C18 1_555 1_555
C20 C19 1_555 1_555
H28 C20 1_555 1_555
C21 C20 1_555 1_555
H29 C21 1_555 1_555
C22 C21 1_555 1_555
C23 C22 1_555 1_555
H30 C23 1_555 1_555
H31 C23 1_555 1_555
C24 C23 1_555 1_555
H32 C24 1_555 1_555
H33 C24 1_555 1_555
H34 C24 1_555 1_555
C25 C22 1_555 1_555
H35 C25 1_555 1_555
C26 C19 1_555 1_555
H36 C26 1_555 1_555
C7 C8 1_555 1_555
C8 C9 1_555 1_555
C25 C26 1_555 1_555

#END
