
#######################################################################
#
#                 Cambridge Crystallographic Data Centre
#                                CCDC 
#
#######################################################################
#
# If this CIF has been generated from an entry in the Cambridge 
# Structural Database, then it will include bibliographic, chemical, 
# crystal, experimental, refinement or atomic coordinate data resulting 
# from the CCDC's data processing and validation procedures.
#
#######################################################################

data_VENGED
_chemical_formula_moiety         'C23 H19 N1 O2'
_chemical_name_systematic        
2-benzyl-3-[(4-methoxyphenyl)methylidene]-2,3-dihydro-1H-isoindol-1-one
_symmetry_cell_setting           monoclinic
_symmetry_space_group_name_H-M   'P 21/c'
_symmetry_Int_Tables_number      14
_space_group_name_Hall           '-P 2ybc'
loop_
_symmetry_equiv_pos_site_id
_symmetry_equiv_pos_as_xyz
1 x,y,z
2 -x,1/2+y,1/2-z
3 -x,-y,-z
4 x,1/2-y,1/2+z
_cell_length_a                   23.4158(8)
_cell_length_b                   7.5719(2)
_cell_length_c                   21.6658(8)
_cell_angle_alpha                90
_cell_angle_beta                 110.091(4)
_cell_angle_gamma                90
_cell_volume                     3607.64
_exptl_crystal_colour            colorless
_exptl_crystal_description       block
_cell_formula_units_Z            8
loop_
_atom_site_label
_atom_site_type_symbol
_atom_site_fract_x
_atom_site_fract_y
_atom_site_fract_z
N1 N 0.32666(5) 0.50306(15) 0.24563(6)
O1 O 0.31245(6) 0.22824(14) 0.19615(6)
C1 C 0.31519(6) 0.68147(18) 0.22562(7)
O2 O 0.42237(6) 0.9875(2) 0.53175(6)
C2 C 0.28240(6) 0.67406(19) 0.15428(7)
C3 C 0.30456(6) 0.38883(19) 0.19320(7)
C4 C 0.27343(6) 0.4983(2) 0.13539(7)
C5 C 0.39737(7) 0.9387(2) 0.46746(8)
C6 C 0.36950(7) 0.44080(19) 0.30841(7)
H1 H 0.3638 0.3149 0.3121
H2 H 0.3603 0.4985 0.3439
C7 C 0.32854(7) 0.83076(18) 0.26120(7)
H3 H 0.3213 0.9335 0.2362
C8 C 0.35250(6) 0.86119(18) 0.33239(7)
C9 C 0.39962(7) 0.98163(19) 0.35881(8)
H4 H 0.4164 1.0378 0.3309
C10 C 0.34947(7) 0.8210(2) 0.44244(8)
H5 H 0.3323 0.7666 0.4704
C11 C 0.32735(7) 0.78470(19) 0.37554(8)
H6 H 0.2948 0.7071 0.3591
C12 C 0.43521(7) 0.47503(18) 0.31673(7)
C13 C 0.42195(7) 1.0199(2) 0.42468(8)
H7 H 0.4536 1.1004 0.4408
C14 C 0.46034(8) 0.4028(2) 0.27338(8)
H8 H 0.4359 0.3365 0.2380
C15 C 0.24186(8) 0.4484(3) 0.07115(8)
H9 H 0.2352 0.3301 0.0594
C16 C 0.26038(7) 0.8073(2) 0.10803(8)
H10 H 0.2658 0.9257 0.1200
C17 C 0.55714(9) 0.5269(3) 0.33262(11)
H11 H 0.5979 0.5441 0.3379
C18 C 0.47237(8) 0.5739(2) 0.36846(9)
H12 H 0.4568 0.6227 0.3987
C19 C 0.23030(8) 0.7580(3) 0.04398(9)
H13 H 0.2159 0.8450 0.0121
C20 C 0.22070(9) 0.5804(3) 0.02542(9)
H14 H 0.1998 0.5514 -0.0183
C21 C 0.52071(9) 0.4268(3) 0.28145(10)
H15 H 0.5369 0.3751 0.2521
C22 C 0.53312(9) 0.6009(3) 0.37555(12)
H16 H 0.5576 0.6701 0.4100
C23 C 0.40681(13) 0.8880(4) 0.57918(10)
H17 H 0.3643 0.9031 0.5722
H18 H 0.4304 0.9284 0.6224
H19 H 0.4151 0.7654 0.5750
N2 N 0.86008(5) 1.06773(15) 0.83092(6)
O3 O 0.88489(7) 1.33402(15) 0.88573(6)
C24 C 0.86736(6) 0.88662(17) 0.84696(6)
O4 O 0.74249(5) 0.60508(18) 0.53787(6)
C25 C 0.88993(6) 1.14841(17) 0.73463(6)
C26 C 0.82391(6) 0.71760(17) 0.73758(7)
C27 C 0.89541(6) 0.88152(19) 0.91908(7)
C28 C 0.85403(6) 0.74238(18) 0.80867(7)
H20 H 0.8663 0.6374 0.8317
C29 C 0.76726(6) 0.78693(19) 0.70243(7)
H21 H 0.7477 0.8575 0.7242
C30 C 0.73885(6) 0.75452(18) 0.63607(7)
H22 H 0.7011 0.8045 0.6136
C31 C 0.90346(7) 1.0528(2) 0.94284(7)
C32 C 0.87718(7) 1.0852(2) 0.67157(7)
H23 H 0.8394 1.0348 0.6495
C33 C 0.94662(7) 1.2222(2) 0.76659(8)
H24 H 0.9561 1.2645 0.8092
C34 C 0.84142(6) 1.14888(19) 0.76608(7)
H25 H 0.8295 1.2700 0.7697
H26 H 0.8060 1.0869 0.7374
C35 C 0.88238(7) 1.1735(2) 0.88646(7)
C36 C 0.85042(6) 0.60670(19) 0.70345(8)
H27 H 0.8876 0.5539 0.7259
C37 C 0.76675(6) 0.6478(2) 0.60334(7)
C38 C 0.82293(7) 0.5737(2) 0.63759(8)
H28 H 0.8420 0.5015 0.6158
C39 C 0.92900(8) 1.0903(2) 1.00925(8)
H29 H 0.9338 1.2063 1.0243
C40 C 0.91365(8) 0.7408(2) 0.96255(8)
H30 H 0.9083 0.6247 0.9477
C41 C 0.97595(8) 1.1700(3) 0.67302(10)
H31 H 1.0048 1.1770 0.6524
C42 C 0.68199(8) 0.6558(3) 0.50339(9)
H32 H 0.6560 0.6115 0.5258
H33 H 0.6694 0.6083 0.4597
H34 H 0.6794 0.7823 0.5012
C43 C 0.94702(9) 0.9515(3) 1.05217(8)
H35 H 0.9640 0.9728 1.0971
C44 C 0.94001(9) 0.7791(3) 1.02883(9)
H36 H 0.9534 0.6867 1.0586
C45 C 0.98912(7) 1.2335(2) 0.73569(10)
H37 H 1.0268 1.2844 0.7574
C46 C 0.92015(9) 1.0960(3) 0.64097(9)
H38 H 0.9111 1.0530 0.5985
loop_
_geom_bond_atom_site_label_1
_geom_bond_atom_site_label_2
_geom_bond_site_symmetry_1
_geom_bond_site_symmetry_2
N1 C1 1_555 1_555
O1 C3 1_555 1_555
C1 C2 1_555 1_555
O2 C5 1_555 1_555
C2 C4 1_555 1_555
C3 N1 1_555 1_555
C4 C3 1_555 1_555
C5 C10 1_555 1_555
C6 N1 1_555 1_555
H1 C6 1_555 1_555
H2 C6 1_555 1_555
C7 C1 1_555 1_555
H3 C7 1_555 1_555
C8 C7 1_555 1_555
C9 C8 1_555 1_555
H4 C9 1_555 1_555
C10 H5 1_555 1_555
C11 C8 1_555 1_555
H6 C11 1_555 1_555
C12 C6 1_555 1_555
C13 C5 1_555 1_555
H7 C13 1_555 1_555
C14 C12 1_555 1_555
H8 C14 1_555 1_555
C15 C4 1_555 1_555
H9 C15 1_555 1_555
C16 C2 1_555 1_555
H10 C16 1_555 1_555
C17 H11 1_555 1_555
C18 C12 1_555 1_555
H12 C18 1_555 1_555
C19 C16 1_555 1_555
H13 C19 1_555 1_555
C20 C15 1_555 1_555
H14 C20 1_555 1_555
C21 C14 1_555 1_555
H15 C21 1_555 1_555
C22 C17 1_555 1_555
H16 C22 1_555 1_555
C23 O2 1_555 1_555
H17 C23 1_555 1_555
H18 C23 1_555 1_555
H19 C23 1_555 1_555
N2 C24 1_555 1_555
O3 C35 1_555 1_555
C24 C27 1_555 1_555
O4 C37 1_555 1_555
C25 C32 1_555 1_555
C26 C28 1_555 1_555
C27 C31 1_555 1_555
C28 C24 1_555 1_555
H20 C28 1_555 1_555
C29 C26 1_555 1_555
H21 C29 1_555 1_555
C30 C29 1_555 1_555
H22 C30 1_555 1_555
C31 C35 1_555 1_555
C32 H23 1_555 1_555
C33 C25 1_555 1_555
H24 C33 1_555 1_555
C34 N2 1_555 1_555
H25 C34 1_555 1_555
H26 C34 1_555 1_555
C35 N2 1_555 1_555
C36 C26 1_555 1_555
H27 C36 1_555 1_555
C37 C30 1_555 1_555
C38 C36 1_555 1_555
H28 C38 1_555 1_555
C39 C31 1_555 1_555
H29 C39 1_555 1_555
C40 C27 1_555 1_555
H30 C40 1_555 1_555
C41 H31 1_555 1_555
C42 O4 1_555 1_555
H32 C42 1_555 1_555
H33 C42 1_555 1_555
H34 C42 1_555 1_555
C43 C39 1_555 1_555
H35 C43 1_555 1_555
C44 C40 1_555 1_555
H36 C44 1_555 1_555
C45 C33 1_555 1_555
H37 C45 1_555 1_555
C46 C32 1_555 1_555
H38 C46 1_555 1_555
C9 C13 1_555 1_555
C10 C11 1_555 1_555
C17 C21 1_555 1_555
C18 C22 1_555 1_555
C19 C20 1_555 1_555
C25 C34 1_555 1_555
C37 C38 1_555 1_555
C41 C45 1_555 1_555
C41 C46 1_555 1_555
C43 C44 1_555 1_555

#END
