
#######################################################################
#
#                 Cambridge Crystallographic Data Centre
#                                CCDC 
#
#######################################################################
#
# If this CIF has been generated from an entry in the Cambridge 
# Structural Database, then it will include bibliographic, chemical, 
# crystal, experimental, refinement or atomic coordinate data resulting 
# from the CCDC's data processing and validation procedures.
#
#######################################################################

data_VENGIH
_chemical_formula_moiety         'C16 H13 N1 O1'
_chemical_name_systematic        3-benzylidene-2-methylisoindolin-1-one
_symmetry_cell_setting           orthorhombic
_symmetry_space_group_name_H-M   'P b c a'
_symmetry_Int_Tables_number      61
_space_group_name_Hall           '-P 2ac 2ab'
loop_
_symmetry_equiv_pos_site_id
_symmetry_equiv_pos_as_xyz
1 x,y,z
2 1/2-x,-y,1/2+z
3 -x,1/2+y,1/2-z
4 1/2+x,1/2-y,-z
5 -x,-y,-z
6 1/2+x,y,1/2-z
7 x,1/2-y,1/2+z
8 1/2-x,1/2+y,z
_cell_length_a                   16.8519(5)
_cell_length_b                   14.8243(5)
_cell_length_c                   9.7089(3)
_cell_angle_alpha                90
_cell_angle_beta                 90
_cell_angle_gamma                90
_cell_volume                     2425.45
_exptl_crystal_colour            colorless
_exptl_crystal_description       block
_cell_formula_units_Z            8
loop_
_atom_site_label
_atom_site_type_symbol
_atom_site_fract_x
_atom_site_fract_y
_atom_site_fract_z
O1 O 0.40693(7) 0.38356(8) 0.09608(13)
N1 N 0.54254(8) 0.37617(8) 0.05879(15)
C1 C 0.50235(10) 0.37725(10) 0.28392(17)
C2 C 0.45967(11) 0.38180(11) 0.40512(19)
H1 H 0.4047 0.3877 0.4043
C3 C 0.53471(10) 0.36337(11) -0.08912(17)
H2 H 0.4817 0.3441 -0.1102
H3 H 0.5717 0.3183 -0.1193
H4 H 0.5455 0.4192 -0.1355
C4 C 0.58498(9) 0.36828(9) 0.28229(17)
C5 C 0.78232(9) 0.30213(11) -0.08199(17)
H5 H 0.7959 0.2536 -0.0260
C6 C 0.68763(10) 0.35380(11) 0.09827(17)
H6 H 0.7223 0.3366 0.1681
C7 C 0.62660(11) 0.36605(11) 0.40638(17)
H7 H 0.6817 0.3622 0.4075
C8 C 0.50119(13) 0.37724(12) 0.5278(2)
H8 H 0.4739 0.3792 0.6110
C9 C 0.58371(12) 0.36970(11) 0.52771(19)
H9 H 0.6105 0.3671 0.6113
C10 C 0.61168(10) 0.36561(9) 0.13874(17)
C11 C 0.70814(10) 0.43757(11) -0.12219(18)
H10 H 0.6716 0.4807 -0.0936
C12 C 0.47533(10) 0.38008(10) 0.13943(19)
C13 C 0.72442(9) 0.36368(10) -0.03764(17)
C14 C 0.81929(10) 0.31283(12) -0.20801(18)
H11 H 0.8569 0.2709 -0.2367
C15 C 0.80097(11) 0.38524(13) -0.2918(2)
H12 H 0.8257 0.3920 -0.3768
C16 C 0.74561(11) 0.44730(12) -0.24781(19)
H13 H 0.7333 0.4964 -0.3035
loop_
_geom_bond_atom_site_label_1
_geom_bond_atom_site_label_2
_geom_bond_site_symmetry_1
_geom_bond_site_symmetry_2
O1 C12 1_555 1_555
N1 C3 1_555 1_555
C1 C2 1_555 1_555
C2 H1 1_555 1_555
C3 H2 1_555 1_555
H3 C3 1_555 1_555
H4 C3 1_555 1_555
C4 C1 1_555 1_555
C5 H5 1_555 1_555
C6 H6 1_555 1_555
C7 C4 1_555 1_555
H7 C7 1_555 1_555
C8 C2 1_555 1_555
H8 C8 1_555 1_555
C9 C7 1_555 1_555
H9 C9 1_555 1_555
C10 N1 1_555 1_555
C11 H10 1_555 1_555
C12 N1 1_555 1_555
C13 C5 1_555 1_555
C14 C5 1_555 1_555
H11 C14 1_555 1_555
C15 C14 1_555 1_555
H12 C15 1_555 1_555
C16 C11 1_555 1_555
H13 C16 1_555 1_555
C1 C12 1_555 1_555
C4 C10 1_555 1_555
C6 C10 1_555 1_555
C6 C13 1_555 1_555
C8 C9 1_555 1_555
C11 C13 1_555 1_555
C15 C16 1_555 1_555

#END
