
#######################################################################
#
#                 Cambridge Crystallographic Data Centre
#                                CCDC 
#
#######################################################################
#
# If this CIF has been generated from an entry in the Cambridge 
# Structural Database, then it will include bibliographic, chemical, 
# crystal, experimental, refinement or atomic coordinate data resulting 
# from the CCDC's data processing and validation procedures.
#
#######################################################################

data_VENGEB
_chemical_formula_moiety         'C12 H13 Cl1 F3 N1 O1 S2'
_chemical_name_systematic        
3-((3-(2-Chloro-3,3,3-trifluoroprop-1-enyl)-2,2-dimethylcycloprop-1-yl)carbonyl)thiazolidine-2-thione
_symmetry_cell_setting           monoclinic
_symmetry_space_group_name_H-M   'P 21/c'
_symmetry_Int_Tables_number      14
_space_group_name_Hall           '-P 2ybc'
loop_
_symmetry_equiv_pos_site_id
_symmetry_equiv_pos_as_xyz
1 x,y,z
2 -x,1/2+y,1/2-z
3 -x,-y,-z
4 x,1/2-y,1/2+z
_cell_length_a                   14.667(8)
_cell_length_b                   9.585(4)
_cell_length_c                   11.774(5)
_cell_angle_alpha                90
_cell_angle_beta                 112.131(18)
_cell_angle_gamma                90
_cell_volume                     1533.28
_exptl_crystal_colour            yellow
_exptl_crystal_description       needle
_chemical_melting_point          '408-410 K'
_cell_formula_units_Z            4
_exptl_crystal_recrystallization_method ethanol
loop_
_atom_site_label
_atom_site_type_symbol
_atom_site_fract_x
_atom_site_fract_y
_atom_site_fract_z
Cl1 Cl 0.37677(6) 0.61033(6) 0.34195(6)
S1 S 0.05822(6) -0.01116(8) 0.29401(8)
S2 S -0.11818(6) 0.07841(11) 0.32768(9)
F1 F 0.49305(12) 0.70441(19) 0.59700(17)
F2 F 0.34927(14) 0.78218(17) 0.54766(19)
F3 F 0.39927(16) 0.62221(17) 0.67960(14)
O1 O 0.16318(13) 0.3475(2) 0.54804(17)
N1 N 0.04108(13) 0.21776(19) 0.42147(16)
C1 C 0.28766(16) 0.3301(2) 0.39907(17)
C2 C 0.29436(17) 0.1784(2) 0.43439(17)
C3 C 0.19440(17) 0.2470(2) 0.38189(18)
C4 C 0.3372(2) 0.1377(2) 0.5685(2)
C5 C 0.3183(2) 0.0762(2) 0.3514(2)
C6 C 0.13658(18) 0.2747(2) 0.4578(2)
C7 C 0.0036(2) 0.1026(2) 0.3498(2)
C8 C -0.1268(2) 0.2363(3) 0.4010(3)
C9 C -0.0220(2) 0.2746(2) 0.4824(2)
C10 C 0.32552(16) 0.4408(2) 0.49028(18)
C11 C 0.36472(14) 0.5597(2) 0.47615(18)
C12 C 0.4020(2) 0.6659(2) 0.5750(2)
H1 H 0.2976 0.3477 0.3225
H2 H 0.1552 0.2215 0.2968
H3 H 0.3214 0.4255 0.5662
H4 H 0.3127 0.0476 0.5786
H5 H 0.4077 0.1343 0.5961
H6 H 0.3184 0.2054 0.6157
H7 H 0.3881 0.0749 0.3715
H8 H 0.2854 0.1044 0.2675
H9 H 0.2964 -0.0154 0.3624
H10 H -0.1557 0.3089 0.3407
H11 H -0.1665 0.2232 0.4500
H12 H -0.0048 0.2334 0.5630
H13 H -0.0148 0.3751 0.4901
loop_
_geom_bond_atom_site_label_1
_geom_bond_atom_site_label_2
_geom_bond_site_symmetry_1
_geom_bond_site_symmetry_2
Cl1 C11 1_555 1_555
S1 C7 1_555 1_555
S2 C7 1_555 1_555
F1 C12 1_555 1_555
F2 C12 1_555 1_555
F3 C12 1_555 1_555
O1 C6 1_555 1_555
N1 C6 1_555 1_555
C1 C2 1_555 1_555
C2 C3 1_555 1_555
C3 C1 1_555 1_555
C4 C2 1_555 1_555
C5 C2 1_555 1_555
C6 C3 1_555 1_555
C7 N1 1_555 1_555
C8 S2 1_555 1_555
C9 N1 1_555 1_555
C10 C1 1_555 1_555
C11 C10 1_555 1_555
C12 C11 1_555 1_555
H1 C1 1_555 1_555
H2 C3 1_555 1_555
H3 C10 1_555 1_555
H4 C4 1_555 1_555
H5 C4 1_555 1_555
H6 C4 1_555 1_555
H7 C5 1_555 1_555
H8 C5 1_555 1_555
H9 C5 1_555 1_555
H10 C8 1_555 1_555
H11 C8 1_555 1_555
H12 C9 1_555 1_555
H13 C9 1_555 1_555
C8 C9 1_555 1_555

#END
