
#######################################################################
#
#                 Cambridge Crystallographic Data Centre
#                                CCDC 
#
#######################################################################
#
# If this CIF has been generated from an entry in the Cambridge 
# Structural Database, then it will include bibliographic, chemical, 
# crystal, experimental, refinement or atomic coordinate data resulting 
# from the CCDC's data processing and validation procedures.
#
#######################################################################

data_VENHAY
_chemical_formula_moiety         'C18 H14 F1 N3 O2 S2'
_chemical_name_systematic        
2-(4-Fluorophenyl)-3-(5-(4-methoxyphenyl)-1,3,4-thiadiazol-2-yl)thiazolidin-4-one
_symmetry_cell_setting           monoclinic
_symmetry_space_group_name_H-M   'C 2/c'
_symmetry_Int_Tables_number      15
_space_group_name_Hall           '-C 2yn'
loop_
_symmetry_equiv_pos_site_id
_symmetry_equiv_pos_as_xyz
1 x,y,z
2 1/2+x,1/2+y,z
3 -x,y,1/2-z
4 1/2-x,1/2+y,1/2-z
5 -x,-y,-z
6 1/2-x,1/2-y,-z
7 x,-y,1/2+z
8 1/2+x,1/2-y,1/2+z
_cell_length_a                   17.750(4)
_cell_length_b                   6.3720(13)
_cell_length_c                   31.761(6)
_cell_angle_alpha                90
_cell_angle_beta                 101.55(3)
_cell_angle_gamma                90
_cell_volume                     3519.52
_exptl_crystal_colour            colorless
_exptl_crystal_description       block
_chemical_melting_point          '520-524 K'
_cell_formula_units_Z            8
_exptl_crystal_recrystallization_method acetone
loop_
_atom_site_label
_atom_site_type_symbol
_atom_site_fract_x
_atom_site_fract_y
_atom_site_fract_z
S1 S 0.90946(5) 0.58054(16) 0.67451(3)
S2 S 0.72967(4) 0.11650(11) 0.55477(2)
F1 F 0.58643(14) 0.6857(5) 0.73877(8)
O1 O 0.86099(13) 0.0571(3) 0.61388(8)
O2 O 0.44110(12) -0.1486(3) 0.39128(7)
N1 N 0.80742(13) 0.3815(4) 0.61723(8)
N2 N 0.69904(15) 0.5014(4) 0.56896(9)
N3 N 0.64372(15) 0.4388(4) 0.53404(9)
C1 C 0.6419(2) 0.6637(8) 0.71515(12)
C2 C 0.6865(2) 0.4831(8) 0.72159(11)
H1 H 0.6795 0.3826 0.7417
C3 C 0.7417(2) 0.4588(6) 0.69693(11)
H2 H 0.7729 0.3402 0.7007
C4 C 0.75155(17) 0.6061(5) 0.66694(9)
C5 C 0.70540(19) 0.7841(5) 0.66169(11)
H3 H 0.7117 0.8851 0.6415
C6 C 0.6502(2) 0.8117(7) 0.68628(13)
H4 H 0.6192 0.9307 0.6829
C7 C 0.81308(17) 0.5820(5) 0.64034(10)
H5 H 0.8091 0.6979 0.6197
C8 C 0.92926(19) 0.3136(6) 0.66297(11)
H6 H 0.9771 0.3053 0.6527
H7 H 0.9343 0.2293 0.6888
C9 C 0.86426(17) 0.2327(5) 0.62928(10)
C10 C 0.74685(16) 0.3512(4) 0.58271(9)
C11 C 0.65188(17) 0.2433(4) 0.52302(10)
C12 C 0.60017(16) 0.1392(4) 0.48759(9)
C13 C 0.61607(18) -0.0597(5) 0.47280(10)
H8 H 0.6620 -0.1258 0.4850
C14 C 0.56529(17) -0.1594(5) 0.44058(10)
H9 H 0.5774 -0.2904 0.4309
C15 C 0.49628(17) -0.0643(4) 0.42269(9)
C16 C 0.47926(18) 0.1339(5) 0.43713(10)
H10 H 0.4331 0.1989 0.4251
C17 C 0.53033(18) 0.2328(5) 0.46893(10)
H11 H 0.5183 0.3647 0.4783
C18 C 0.4505(2) -0.3635(5) 0.37978(12)
H12 H 0.4082 -0.4045 0.3575
H13 H 0.4519 -0.4513 0.4045
H14 H 0.4978 -0.3785 0.3697
loop_
_geom_bond_atom_site_label_1
_geom_bond_atom_site_label_2
_geom_bond_site_symmetry_1
_geom_bond_site_symmetry_2
S1 C7 1_555 1_555
S2 C10 1_555 1_555
F1 C1 1_555 1_555
O1 C9 1_555 1_555
O2 C15 1_555 1_555
N1 C7 1_555 1_555
N2 N3 1_555 1_555
N3 C11 1_555 1_555
C1 C2 1_555 1_555
C2 H1 1_555 1_555
C3 C2 1_555 1_555
H2 C3 1_555 1_555
C4 C3 1_555 1_555
C5 C4 1_555 1_555
H3 C5 1_555 1_555
C6 C1 1_555 1_555
H4 C6 1_555 1_555
C7 C4 1_555 1_555
H5 C7 1_555 1_555
C8 S1 1_555 1_555
H6 C8 1_555 1_555
H7 C8 1_555 1_555
C9 N1 1_555 1_555
C10 N1 1_555 1_555
C11 S2 1_555 1_555
C12 C11 1_555 1_555
C13 C12 1_555 1_555
H8 C13 1_555 1_555
C14 C13 1_555 1_555
H9 C14 1_555 1_555
C15 C14 1_555 1_555
C16 C15 1_555 1_555
H10 C16 1_555 1_555
C17 C12 1_555 1_555
H11 C17 1_555 1_555
C18 O2 1_555 1_555
H12 C18 1_555 1_555
H13 C18 1_555 1_555
H14 C18 1_555 1_555
N2 C10 1_555 1_555
C5 C6 1_555 1_555
C8 C9 1_555 1_555
C16 C17 1_555 1_555

#END
