
#######################################################################
#
#                 Cambridge Crystallographic Data Centre
#                                CCDC 
#
#######################################################################
#
# If this CIF has been generated from an entry in the Cambridge 
# Structural Database, then it will include bibliographic, chemical, 
# crystal, experimental, refinement or atomic coordinate data resulting 
# from the CCDC's data processing and validation procedures.
#
#######################################################################

data_VENLEG
_chemical_formula_moiety         'C27 H27 N7 O6'
_chemical_name_systematic        tris(2-(2-Nitrobenzylideneamino)ethyl)amine
_symmetry_cell_setting           rhombohedral
_symmetry_space_group_name_H-M   'R -3'
_symmetry_Int_Tables_number      148
_space_group_name_Hall           '-R 3'
loop_
_symmetry_equiv_pos_site_id
_symmetry_equiv_pos_as_xyz
1 x,y,z
2 -y,x-y,z
3 -x+y,-x,z
4 2/3+x,1/3+y,1/3+z
5 2/3-y,1/3+x-y,1/3+z
6 2/3-x+y,1/3-x,1/3+z
7 1/3+x,2/3+y,2/3+z
8 1/3-y,2/3+x-y,2/3+z
9 1/3-x+y,2/3-x,2/3+z
10 -x,-y,-z
11 y,-x+y,-z
12 x-y,x,-z
13 1/3-x,2/3-y,2/3-z
14 1/3+y,2/3-x+y,2/3-z
15 1/3+x-y,2/3+x,2/3-z
16 2/3-x,1/3-y,1/3-z
17 2/3+y,1/3-x+y,1/3-z
18 2/3+x-y,1/3+x,1/3-z
_cell_length_a                   20.7650(10)
_cell_length_b                   20.7650(10)
_cell_length_c                   10.4530(10)
_cell_angle_alpha                90
_cell_angle_beta                 90
_cell_angle_gamma                120.00
_cell_volume                     3903.33
_exptl_crystal_colour            yellow
_exptl_crystal_description       block
_cell_formula_units_Z            6
loop_
_atom_site_label
_atom_site_type_symbol
_atom_site_fract_x
_atom_site_fract_y
_atom_site_fract_z
N1 N 1.0000 0.0000 0.2625(3)
C1 C 0.95311(10) 0.03093(10) 0.2257(2)
H1 H 0.9301 0.0106 0.1414
H2 H 0.9842 0.0856 0.2173
C2 C 0.89304(10) 0.01266(11) 0.3229(2)
H3 H 0.8646 -0.0418 0.3366
H4 H 0.9159 0.0365 0.4054
N2 N 0.84242(8) 0.03839(8) 0.28074(16)
C3 C 0.77375(9) -0.00662(9) 0.29467(16)
H5 H 0.7572 -0.0561 0.3221
C4 C 0.71876(9) 0.01770(9) 0.26824(15)
C5 C 0.74417(10) 0.09390(10) 0.26214(17)
H6 H 0.7961 0.1279 0.2661
C6 C 0.69605(11) 0.12121(10) 0.25056(18)
H7 H 0.7152 0.1733 0.2450
C7 C 0.61985(11) 0.07295(11) 0.24696(18)
H8 H 0.5868 0.0920 0.2406
C8 C 0.59218(9) -0.00295(10) 0.25268(17)
H9 H 0.5401 -0.0365 0.2511
C9 C 0.64171(9) -0.02941(9) 0.26073(15)
N3 N 0.60806(8) -0.11087(8) 0.25530(14)
O1 O 0.64710(8) -0.13623(7) 0.21889(13)
O2 O 0.54240(8) -0.14936(8) 0.28380(15)
C1A C 0.96907(10) -0.07782(14) 0.2257(2)
C1B C 1.07782(14) 0.04689(10) 0.2257(2)
H1A H 0.9894 -0.0805 0.1414
H1B H 1.0805 0.0699 0.1414
H2A H 0.9144 -0.1014 0.2173
H2B H 1.1014 0.0158 0.2173
C2A C 0.98734(11) -0.11962(15) 0.3229(2)
C2B C 1.11962(15) 0.10696(10) 0.3229(2)
H3A H 1.0418 -0.0936 0.3366
H3B H 1.0936 0.1354 0.3366
H4A H 0.9635 -0.1206 0.4054
H4B H 1.1206 0.0841 0.4054
N2A N 0.96161(8) -0.19597(11) 0.28074(16)
N2B N 1.19597(11) 0.15758(8) 0.28074(16)
C3A C 1.00662(9) -0.21963(13) 0.29467(16)
C3B C 1.21963(13) 0.22625(9) 0.29467(16)
H5A H 1.0561 -0.1867 0.3221
H5B H 1.1867 0.2428 0.3221
C4A C 0.98230(9) -0.29894(13) 0.26824(15)
C4B C 1.29894(13) 0.28124(9) 0.26824(15)
C5A C 0.90610(10) -0.34973(14) 0.26214(17)
C5B C 1.34973(14) 0.25583(10) 0.26214(17)
H6A H 0.8721 -0.3318 0.2661
H6B H 1.3318 0.2039 0.2661
C6A C 0.87879(10) -0.42516(15) 0.25056(18)
C6B C 1.42516(15) 0.30395(11) 0.25056(18)
H7A H 0.8267 -0.4581 0.2450
H7B H 1.4581 0.2848 0.2450
C7A C 0.92705(11) -0.45310(16) 0.24696(18)
C7B C 1.45310(16) 0.38015(11) 0.24696(18)
H8A H 0.9080 -0.5052 0.2406
H8B H 1.5052 0.4132 0.2406
C8A C 1.00295(10) -0.40487(13) 0.25268(17)
C8B C 1.40487(13) 0.40782(9) 0.25268(17)
H9A H 1.0365 -0.4234 0.2511
H9B H 1.4234 0.4599 0.2511
C9A C 1.02941(9) -0.32888(13) 0.26073(15)
C9B C 1.32888(13) 0.35829(9) 0.26073(15)
N3A N 1.11087(8) -0.28107(11) 0.25530(14)
N3B N 1.28107(11) 0.39194(8) 0.25530(14)
O1A O 1.13623(7) -0.21667(11) 0.21889(13)
O1B O 1.21667(11) 0.35290(8) 0.21889(13)
O2A O 1.14936(8) -0.30824(11) 0.28380(15)
O2B O 1.30824(11) 0.45760(8) 0.28380(15)
loop_
_geom_bond_atom_site_label_1
_geom_bond_atom_site_label_2
_geom_bond_site_symmetry_1
_geom_bond_site_symmetry_2
N1 C1 1_555 1_555
C1 H1 1_555 1_555
H2 C1 1_555 1_555
C2 C1 1_555 1_555
H3 C2 1_555 1_555
H4 C2 1_555 1_555
N2 C2 1_555 1_555
C3 N2 1_555 1_555
H5 C3 1_555 1_555
C4 C3 1_555 1_555
C5 C4 1_555 1_555
H6 C5 1_555 1_555
C6 C5 1_555 1_555
H7 C6 1_555 1_555
C7 C6 1_555 1_555
H8 C7 1_555 1_555
C8 C7 1_555 1_555
H9 C8 1_555 1_555
C9 C4 1_555 1_555
N3 C9 1_555 1_555
O1 N3 1_555 1_555
O2 N3 1_555 1_555
C1A N1 1_555 1_555
C1B N1 1_555 1_555
H1A C1A 1_555 1_555
H1B C1B 1_555 1_555
H2A C1A 1_555 1_555
H2B C1B 1_555 1_555
C2A C1A 1_555 1_555
C2B C1B 1_555 1_555
H3A C2A 1_555 1_555
H3B C2B 1_555 1_555
H4A C2A 1_555 1_555
H4B C2B 1_555 1_555
N2A C2A 1_555 1_555
N2B C2B 1_555 1_555
C3A N2A 1_555 1_555
C3B N2B 1_555 1_555
H5A C3A 1_555 1_555
H5B C3B 1_555 1_555
C4A C3A 1_555 1_555
C4B C3B 1_555 1_555
C5A C4A 1_555 1_555
C5B C4B 1_555 1_555
H6A C5A 1_555 1_555
H6B C5B 1_555 1_555
C6A C5A 1_555 1_555
C6B C5B 1_555 1_555
H7A C6A 1_555 1_555
H7B C6B 1_555 1_555
C7A C6A 1_555 1_555
C7B C6B 1_555 1_555
H8A C7A 1_555 1_555
H8B C7B 1_555 1_555
C8A C7A 1_555 1_555
C8B C7B 1_555 1_555
H9A C8A 1_555 1_555
H9B C8B 1_555 1_555
C9A C4A 1_555 1_555
C9B C4B 1_555 1_555
N3A C9A 1_555 1_555
N3B C9B 1_555 1_555
O1A N3A 1_555 1_555
O1B N3B 1_555 1_555
O2A N3A 1_555 1_555
O2B N3B 1_555 1_555
C8 C9 1_555 1_555
C8A C9A 1_555 1_555
C8B C9B 1_555 1_555

#END
