
#######################################################################
#
#                 Cambridge Crystallographic Data Centre
#                                CCDC 
#
#######################################################################
#
# If this CIF has been generated from an entry in the Cambridge 
# Structural Database, then it will include bibliographic, chemical, 
# crystal, experimental, refinement or atomic coordinate data resulting 
# from the CCDC's data processing and validation procedures.
#
#######################################################################

data_VENVOB
_chemical_formula_moiety         'C9 H27 B11 N1 1-,C36 H30 N1 P2 1+'
_chemical_name_systematic        
"bis(Triphenylphosphine)iminium 7,8,10-(4-(diethyliminoborato)butane-1,4-diyl-B,C,C')-7-carba-nido-undecaborate"
_symmetry_cell_setting           orthorhombic
_symmetry_space_group_name_H-M   'P n m a'
_symmetry_Int_Tables_number      62
_space_group_name_Hall           '-P 2ac 2n'
loop_
_symmetry_equiv_pos_site_id
_symmetry_equiv_pos_as_xyz
1 x,y,z
2 1/2-x,-y,1/2+z
3 -x,1/2+y,-z
4 1/2+x,1/2-y,1/2-z
5 -x,-y,-z
6 1/2+x,y,1/2-z
7 x,1/2-y,z
8 1/2-x,1/2+y,1/2+z
_cell_length_a                   18.9260(9)
_cell_length_b                   27.3459(12)
_cell_length_c                   18.0299(8)
_cell_angle_alpha                90
_cell_angle_beta                 90
_cell_angle_gamma                90
_cell_volume                     9331.35
_exptl_crystal_colour            yellow
_exptl_crystal_description       block
_cell_formula_units_Z            8
loop_
_atom_site_label
_atom_site_type_symbol
_atom_site_fract_x
_atom_site_fract_y
_atom_site_fract_z
N2 N -0.05386(17) 0.47432(11) 0.21485(19)
P1 P 0.01148(5) 0.45946(3) 0.26489(6)
P2 P -0.09001(5) 0.52259(3) 0.18478(5)
C1 C -0.1616(2) 0.50387(15) 0.1252(2)
C2 C -0.1946(3) 0.53774(19) 0.0812(3)
H1 H -0.1792 0.5700 0.0810
C3 C -0.2511(3) 0.5238(3) 0.0370(4)
H2 H -0.2733 0.5468 0.0070
C4 C -0.2742(3) 0.4771(3) 0.0372(3)
H3 H -0.3122 0.4680 0.0076
C5 C -0.2418(3) 0.4432(2) 0.0810(3)
H4 H -0.2580 0.4111 0.0815
C6 C -0.1846(2) 0.45630(17) 0.1249(3)
H5 H -0.1619 0.4330 0.1539
C7 C -0.0313(2) 0.56012(14) 0.1303(2)
C8 C -0.0395(2) 0.61009(16) 0.1231(3)
H6 H -0.0757 0.6261 0.1482
C9 C 0.0066(3) 0.63627(19) 0.0782(3)
H7 H 0.0008 0.6699 0.0731
C10 C 0.0602(3) 0.6133(2) 0.0415(3)
H8 H 0.0915 0.6314 0.0127
C11 C 0.0680(3) 0.5633(2) 0.0472(3)
H9 H 0.1040 0.5476 0.0214
C12 C 0.0229(2) 0.53696(17) 0.0906(2)
H10 H 0.0282 0.5032 0.0939
C13 C -0.1293(2) 0.55898(14) 0.2574(2)
C14 C -0.1990(3) 0.5509(2) 0.2769(3)
H11 H -0.2261 0.5289 0.2497
C15 C -0.2289(3) 0.5751(3) 0.3367(3)
H12 H -0.2758 0.5693 0.3494
C16 C -0.1896(4) 0.6074(2) 0.3768(3)
H13 H -0.2099 0.6239 0.4166
C17 C -0.1205(4) 0.61565(19) 0.3585(3)
H14 H -0.0938 0.6375 0.3865
C18 C -0.0895(3) 0.59178(17) 0.2985(3)
H15 H -0.0425 0.5978 0.2862
C19 C 0.0794(2) 0.43223(14) 0.2087(2)
C20 C 0.0592(3) 0.40785(18) 0.1448(3)
H16 H 0.0118 0.4071 0.1310
C21 C 0.1092(3) 0.3847(2) 0.1014(3)
H17 H 0.0952 0.3685 0.0585
C22 C 0.1779(3) 0.3854(2) 0.1205(3)
H18 H 0.2112 0.3702 0.0904
C23 C 0.1990(3) 0.4087(2) 0.1844(4)
H19 H 0.2464 0.4083 0.1980
C24 C 0.1499(2) 0.43303(18) 0.2292(3)
H20 H 0.1643 0.4494 0.2718
C25 C -0.01654(19) 0.41442(13) 0.3306(2)
C26 C -0.0874(2) 0.40804(17) 0.3458(3)
H21 H -0.1208 0.4272 0.3216
C27 C -0.1089(3) 0.37369(19) 0.3965(3)
H22 H -0.1568 0.3696 0.4061
C28 C -0.0603(3) 0.34516(16) 0.4331(3)
H23 H -0.0754 0.3214 0.4665
C29 C 0.0097(3) 0.35167(17) 0.4204(3)
H24 H 0.0426 0.3330 0.4462
C30 C 0.0323(2) 0.38607(16) 0.3691(3)
H25 H 0.0804 0.3902 0.3604
C31 C 0.0502(2) 0.50925(13) 0.3165(2)
C32 C 0.0932(2) 0.54332(15) 0.2812(2)
H26 H 0.1060 0.5387 0.2319
C33 C 0.1166(3) 0.58374(17) 0.3188(3)
H27 H 0.1459 0.6062 0.2953
C34 C 0.0969(3) 0.59102(18) 0.3912(3)
H28 H 0.1126 0.6186 0.4164
C35 C 0.0545(3) 0.55822(18) 0.4265(3)
H29 H 0.0412 0.5636 0.4755
C36 C 0.0313(3) 0.51703(16) 0.3897(2)
H30 H 0.0029 0.4944 0.4141
N3 N -0.3898(4) 0.7266(4) 0.2040(4)
C37 C -0.2553(4) 0.7065(3) 0.2106(4)
B1 B -0.1965(3) 0.71828(15) 0.1476(2)
C39 C -0.2252(3) 0.7221(2) 0.2829(2)
C40 C -0.1762(5) 0.6955(3) 0.2174(5)
C41 C -0.4550(6) 0.7500 0.1713(6)
C42 C -0.5089(8) 0.7187(7) 0.1363(11)
C43 C -0.3994(6) 0.7078(4) 0.2827(6)
C44 C -0.4179(5) 0.7500 0.3364(5)
B2 B -0.3228(5) 0.7250(3) 0.1713(5)
B3 B -0.2722(5) 0.6994(4) 0.1032(5)
B4 B -0.1914(4) 0.6984(2) 0.0561(4)
B5 B -0.1453(4) 0.7500 0.0854(4)
B6 B -0.3214(4) 0.7500 0.0735(5)
B7 B -0.2680(3) 0.7184(2) 0.0113(3)
H31 H -0.2916 0.6970 -0.0341
B8 B -0.1907(5) 0.7500 -0.0003(4)
H32 H -0.1630 0.7500 -0.0540
N3F N -0.3898(4) 0.7734(4) 0.2040(4)
C37F C -0.2553(4) 0.7935(3) 0.2106(4)
B1F B -0.1965(3) 0.78172(15) 0.1476(2)
C39F C -0.2252(3) 0.7779(2) 0.2829(2)
C40F C -0.1762(5) 0.8045(3) 0.2174(5)
C42F C -0.5089(8) 0.7813(7) 0.1363(11)
C43F C -0.3994(6) 0.7922(4) 0.2827(6)
B2F B -0.3228(5) 0.7750(3) 0.1713(5)
B3F B -0.2722(5) 0.8006(4) 0.1032(5)
B4F B -0.1914(4) 0.8016(2) 0.0561(4)
B7F B -0.2680(3) 0.7816(2) 0.0113(3)
H31F H -0.2916 0.8030 -0.0341
N1 N -0.0793(4) 0.2500 0.1738(4)
C45 C -0.2042(5) 0.2937(3) 0.2004(5)
B9 B -0.2800(3) 0.2822(3) 0.1440(3)
C47 C -0.2366(4) 0.2774(3) 0.2749(3)
C48 C -0.3043(6) 0.2968(4) 0.2137(6)
C49 C -0.0476(8) 0.2833(5) 0.2402(6)
C50 C -0.0387(9) 0.2500 0.3022(8)
B10 B -0.1464(5) 0.2681(3) 0.1498(5)
B11 B -0.2081(3) 0.3027(4) 0.0886(5)
B12 B -0.2951(3) 0.3031(2) 0.0532(3)
B13 B -0.3392(4) 0.2500 0.0881(5)
B14 B -0.1630(4) 0.2500 0.0536(4)
B15 B -0.2245(3) 0.2823(2) -0.0011(3)
H33 H -0.2067 0.3034 -0.0496
B16 B -0.3060(4) 0.2500 -0.0013(4)
H34 H -0.3419 0.2500 -0.0493
C51 C -0.0297(11) 0.2865(8) 0.1335(11)
C52 C 0.0164(10) 0.2500 0.0974(11)
C45F C -0.2042(5) 0.2063(3) 0.2004(5)
B9F B -0.2800(3) 0.2178(3) 0.1440(3)
C47F C -0.2366(4) 0.2226(3) 0.2749(3)
C48F C -0.3043(6) 0.2032(4) 0.2137(6)
C49F C -0.0476(8) 0.2167(5) 0.2402(6)
B10F B -0.1464(5) 0.2319(3) 0.1498(5)
B11F B -0.2081(3) 0.1973(4) 0.0886(5)
B12F B -0.2951(3) 0.1969(2) 0.0532(3)
B15F B -0.2245(3) 0.2177(2) -0.0011(3)
H33F H -0.2067 0.1966 -0.0496
C51F C -0.0297(11) 0.2135(8) 0.1335(11)
C38? C -0.1965(3) 0.71828(15) 0.1476(2)
C46? C -0.2800(3) 0.2822(3) 0.1440(3)
loop_
_geom_bond_atom_site_label_1
_geom_bond_atom_site_label_2
_geom_bond_site_symmetry_1
_geom_bond_site_symmetry_2
N1 C49 1_555 1_555
N2 P1 1_555 1_555
P1 C19 1_555 1_555
P2 N2 1_555 1_555
C1 P2 1_555 1_555
C2 C1 1_555 1_555
H1 C2 1_555 1_555
C3 C2 1_555 1_555
H2 C3 1_555 1_555
C4 C3 1_555 1_555
H3 C4 1_555 1_555
C5 C4 1_555 1_555
H4 C5 1_555 1_555
C6 C1 1_555 1_555
H5 C6 1_555 1_555
C7 P2 1_555 1_555
C8 C7 1_555 1_555
H6 C8 1_555 1_555
C9 C8 1_555 1_555
H7 C9 1_555 1_555
C10 C9 1_555 1_555
H8 C10 1_555 1_555
C11 C10 1_555 1_555
H9 C11 1_555 1_555
C12 C7 1_555 1_555
H10 C12 1_555 1_555
C13 P2 1_555 1_555
C14 C13 1_555 1_555
H11 C14 1_555 1_555
C15 C14 1_555 1_555
H12 C15 1_555 1_555
C16 C15 1_555 1_555
H13 C16 1_555 1_555
C17 C16 1_555 1_555
H14 C17 1_555 1_555
C18 C13 1_555 1_555
H15 C18 1_555 1_555
C19 C20 1_555 1_555
C20 H16 1_555 1_555
C21 C20 1_555 1_555
H17 C21 1_555 1_555
C22 C21 1_555 1_555
H18 C22 1_555 1_555
C23 C22 1_555 1_555
H19 C23 1_555 1_555
C24 C19 1_555 1_555
H20 C24 1_555 1_555
C25 P1 1_555 1_555
C26 C25 1_555 1_555
H21 C26 1_555 1_555
C27 C26 1_555 1_555
H22 C27 1_555 1_555
C28 C27 1_555 1_555
H23 C28 1_555 1_555
C29 C28 1_555 1_555
H24 C29 1_555 1_555
C30 C25 1_555 1_555
H25 C30 1_555 1_555
C31 P1 1_555 1_555
C32 C31 1_555 1_555
H26 C32 1_555 1_555
C33 C32 1_555 1_555
H27 C33 1_555 1_555
C34 C33 1_555 1_555
H28 C34 1_555 1_555
C35 C34 1_555 1_555
H29 C35 1_555 1_555
C36 C31 1_555 1_555
H30 C36 1_555 1_555
N3 C41 1_555 1_555
C37 B1 1_555 1_555
B1 C40 1_555 1_555
C39 C37 1_555 1_555
C40 C37 1_555 1_555
C41 C42 1_555 1_555
C42 C42F 1_555 1_555
C43 N3 1_555 1_555
C44 C43 1_555 1_555
B2 N3 1_555 1_555
B3 B1 1_555 1_555
B4 B1 1_555 1_555
B5 B1 1_555 1_555
B6 B2 1_555 1_555
B7 B3 1_555 1_555
H31 B7 1_555 1_555
B8 B4 1_555 1_555
H32 B8 1_555 1_555
C45 B9 1_555 1_555
B9 C48 1_555 1_555
C47 C45 1_555 1_555
C48 C47 1_555 1_555
C49 C50 1_555 1_555
C50 C49F 1_555 1_555
B10 N1 1_555 1_555
B11 B9 1_555 1_555
B12 B9 1_555 1_555
B13 B9 1_555 1_555
B14 B10 1_555 1_555
B15 B11 1_555 1_555
H33 B15 1_555 1_555
B16 B12 1_555 1_555
H34 B16 1_555 1_555
C51 N1 1_555 1_555
C52 C51 1_555 1_555
N3F N3 1_555 1_555
C37F B1F 1_555 1_555
B1F B1 1_555 1_555
C39F C39 1_555 1_555
C40F C37F 1_555 1_555
C42F C41 1_555 1_555
C43F C44 1_555 1_555
B2F N3 1_555 1_555
B3F B6 1_555 1_555
B4F B5 1_555 1_555
B7F B6 1_555 1_555
H31F B7F 1_555 1_555
C45F B9F 1_555 1_555
B9F B9 1_555 1_555
C47F C47 1_555 1_555
C48F B9F 1_555 1_555
C49F N1 1_555 1_555
B10F N1 1_555 1_555
B11F B14 1_555 1_555
B12F B13 1_555 1_555
B15F B14 1_555 1_555
H33F B15F 1_555 1_555
C51F N1 1_555 1_555
C5 C6 1_555 1_555
C11 C12 1_555 1_555
C17 C18 1_555 1_555
C23 C24 1_555 1_555
C29 C30 1_555 1_555
C35 C36 1_555 1_555
C37 B2 1_555 1_555
C39 C40 1_555 1_555
C41 N3F 1_555 1_555
B2 B3 1_555 1_555
B2 N3F 1_555 1_555
B2 B2F 1_555 1_555
B3 B4 1_555 1_555
B3 B6 1_555 1_555
B4 B5 1_555 1_555
B4 B7 1_555 1_555
B5 B8 1_555 1_555
B5 B1F 1_555 1_555
B6 B7 1_555 1_555
B6 B2F 1_555 1_555
B7 B8 1_555 1_555
B7 B7F 1_555 1_555
B8 B4F 1_555 1_555
B8 B7F 1_555 1_555
C45 B10 1_555 1_555
B10 B11 1_555 1_555
B10 B10F 1_555 1_555
B11 B12 1_555 1_555
B11 B14 1_555 1_555
B12 B13 1_555 1_555
B12 B15 1_555 1_555
B13 B16 1_555 1_555
B13 B9F 1_555 1_555
B14 B15 1_555 1_555
B14 B10F 1_555 1_555
B15 B16 1_555 1_555
B15 B15F 1_555 1_555
B16 B12F 1_555 1_555
B16 B15F 1_555 1_555
C52 C51F 1_555 1_555
N3F C43F 1_555 1_555
N3F B2F 1_555 1_555
C37F C39F 1_555 1_555
C37F B2F 1_555 1_555
B1F C40F 1_555 1_555
B1F B3F 1_555 1_555
B1F B4F 1_555 1_555
C39F C40F 1_555 1_555
B2F B3F 1_555 1_555
B3F B4F 1_555 1_555
B3F B7F 1_555 1_555
B4F B7F 1_555 1_555
C45F C47F 1_555 1_555
C45F B10F 1_555 1_555
B9F B11F 1_555 1_555
B9F B12F 1_555 1_555
C47F C48F 1_555 1_555
B10F B11F 1_555 1_555
B11F B12F 1_555 1_555
B11F B15F 1_555 1_555
B12F B15F 1_555 1_555

#END
