
#######################################################################
#
#                 Cambridge Crystallographic Data Centre
#                                CCDC 
#
#######################################################################
#
# If this CIF has been generated from an entry in the Cambridge 
# Structural Database, then it will include bibliographic, chemical, 
# crystal, experimental, refinement or atomic coordinate data resulting 
# from the CCDC's data processing and validation procedures.
#
#######################################################################

data_VENWAP
_chemical_formula_moiety         'C30 H30 N4 O4,C2 H6 O1 S1'
_chemical_name_systematic        
'2-butyl-6-[(4-{[3,4-dioxo-2-(phenylamino)cyclobut-1-en-1-yl]amino}butyl)amino]-1H-benzo[de]isoquinoline-1,3(2H)-dione dimethyl sulfoxide solvate'
_symmetry_cell_setting           monoclinic
_symmetry_space_group_name_H-M   'P 21/c'
_symmetry_Int_Tables_number      14
_space_group_name_Hall           '-P 2ybc'
loop_
_symmetry_equiv_pos_site_id
_symmetry_equiv_pos_as_xyz
1 x,y,z
2 -x,1/2+y,1/2-z
3 -x,-y,-z
4 x,1/2-y,1/2+z
_cell_length_a                   19.7577(8)
_cell_length_b                   9.1446(3)
_cell_length_c                   16.6909(4)
_cell_angle_alpha                90
_cell_angle_beta                 103.132(4)
_cell_angle_gamma                90
_cell_volume                     2936.79
_exptl_crystal_colour            yellow
_exptl_crystal_description       plate
_cell_formula_units_Z            4
loop_
_atom_site_label
_atom_site_type_symbol
_atom_site_fract_x
_atom_site_fract_y
_atom_site_fract_z
O1 O 0.66864(9) 0.79160(19) 0.37604(9)
O2 O 0.53901(9) 0.76588(19) 0.46406(10)
O3 O 0.16137(9) 0.20124(18) 0.81597(10)
O4 O 0.14164(9) 0.5290(2) 1.01425(10)
N1 N 0.75095(10) 0.5292(2) 0.51049(10)
N2 N 0.61960(10) 0.5160(2) 0.58808(11)
N3 N 0.45865(11) 0.5135(2) 0.86812(11)
N4 N 0.15095(10) 0.3666(2) 0.91354(11)
C1 C 0.69134(12) 0.6040(2) 0.49106(12)
C2 C 0.63369(12) 0.5956(2) 0.52766(12)
C3 C 0.65636(12) 0.7191(2) 0.43251(12)
C4 C 0.59633(13) 0.7073(3) 0.47314(13)
C5 C 0.55468(13) 0.5333(3) 0.61491(13)
C6 C 0.56197(13) 0.4757(3) 0.70191(13)
C7 C 0.49799(13) 0.5105(3) 0.73496(13)
C8 C 0.50719(13) 0.4539(3) 0.82312(13)
C9 C 0.39359(12) 0.4652(2) 0.86532(12)
C10 C 0.36193(12) 0.3567(3) 0.80948(13)
C11 C 0.29573(12) 0.3053(2) 0.80882(12)
C12 C 0.25738(12) 0.3598(3) 0.86194(12)
C13 C 0.28652(12) 0.4726(2) 0.91755(12)
C14 C 0.35437(12) 0.5269(2) 0.92059(12)
C15 C 0.24736(12) 0.5326(2) 0.97087(12)
C16 C 0.27478(12) 0.6424(3) 1.02524(13)
C17 C 0.34179(13) 0.6951(3) 1.02861(13)
C18 C 0.38096(12) 0.6379(3) 0.97766(13)
C19 C 0.18815(13) 0.3020(3) 0.86056(13)
C20 C 0.17675(12) 0.4785(3) 0.96900(13)
C21 C 0.07995(13) 0.3107(3) 0.91036(14)
C22 C 0.02734(14) 0.3588(3) 0.83245(15)
C23 C 0.02141(14) 0.5228(3) 0.81830(16)
C24 C -0.00484(16) 0.6066(3) 0.88378(18)
C25 C 0.80650(12) 0.5257(2) 0.47031(12)
C26 C 0.81120(13) 0.6226(3) 0.40743(13)
C27 C 0.86614(13) 0.6099(3) 0.36902(14)
C28 C 0.91672(14) 0.5045(3) 0.39330(15)
C29 C 0.91254(13) 0.4101(3) 0.45689(15)
C30 C 0.85766(13) 0.4199(3) 0.49553(13)
H1 H 0.7546(13) 0.466(3) 0.5486(15)
H2 H 0.6489(12) 0.450(3) 0.6130(14)
H3 H 0.4773(13) 0.583(3) 0.8996(16)
H4 H 0.5434(13) 0.642(3) 0.6123(15)
H5 H 0.5199(13) 0.479(3) 0.5800(16)
H6 H 0.6021(12) 0.525(3) 0.7373(15)
H7 H 0.5691(13) 0.366(3) 0.6993(16)
H8 H 0.4931(13) 0.617(3) 0.7367(15)
H9 H 0.4522(13) 0.469(3) 0.6982(15)
H10 H 0.5027(12) 0.348(3) 0.8223(14)
H11 H 0.5536(13) 0.484(3) 0.8547(15)
H12 H 0.3875(13) 0.318(3) 0.7696(15)
H13 H 0.2757(12) 0.228(3) 0.7716(14)
H14 H 0.2487(13) 0.679(3) 1.0600(16)
H15 H 0.3603(11) 0.770(2) 1.0641(13)
H16 H 0.4219(12) 0.676(3) 0.9803(14)
H17 H 0.0829(12) 0.206(3) 0.9112(14)
H18 H 0.0669(13) 0.348(3) 0.9601(15)
H19 H -0.0204(15) 0.326(3) 0.8383(17)
H20 H 0.0399(14) 0.314(3) 0.7794(17)
H21 H 0.0682(15) 0.562(3) 0.8122(17)
H22 H -0.0145(14) 0.542(3) 0.7651(16)
H23 H -0.0116(15) 0.722(3) 0.8709(18)
H24 H 0.0298(15) 0.596(3) 0.9379(18)
H25 H -0.0530(16) 0.568(3) 0.8853(18)
H26 H 0.7787(13) 0.697(3) 0.3905(15)
H27 H 0.8679(12) 0.676(3) 0.3246(15)
H28 H 0.9547(14) 0.498(3) 0.3660(16)
H29 H 0.9464(14) 0.336(3) 0.4748(17)
H30 H 0.8548(13) 0.351(3) 0.5378(16)
S1 S 0.79386(4) 0.29671(9) 0.72245(4)
O5 O 0.74218(9) 0.3539(2) 0.64777(9)
C31 C 0.74372(16) 0.1829(4) 0.77449(16)
H31 H 0.7039 0.2363 0.7826
H32 H 0.7718 0.1541 0.8269
H33 H 0.7286 0.0975 0.7419
C32 C 0.80650(16) 0.4440(4) 0.79512(15)
H34 H 0.8293 0.5237 0.7746
H35 H 0.8347 0.4111 0.8466
H36 H 0.7623 0.4761 0.8031
S2? S 0.7556(4) 0.3662(8) 0.7414(3)
C33? C 0.7732(14) 0.180(3) 0.7740(15)
H37? H 0.7776 0.1213 0.7278
H38? H 0.7357 0.1435 0.7961
H39? H 0.8157 0.1759 0.8155
C34? C 0.8380(14) 0.394(3) 0.7811(14)
H40? H 0.8650 0.3206 0.7614
H41? H 0.8465 0.3884 0.8400
H42? H 0.8510 0.4889 0.7653
loop_
_geom_bond_atom_site_label_1
_geom_bond_atom_site_label_2
_geom_bond_site_symmetry_1
_geom_bond_site_symmetry_2
O1 C3 1_555 1_555
O2 C4 1_555 1_555
O3 C19 1_555 1_555
O4 C20 1_555 1_555
N1 C1 1_555 1_555
N2 C2 1_555 1_555
N3 C8 1_555 1_555
N4 C19 1_555 1_555
C1 C2 1_555 1_555
C2 C4 1_555 1_555
C3 C1 1_555 1_555
C4 C3 1_555 1_555
C5 N2 1_555 1_555
C6 C5 1_555 1_555
C7 C6 1_555 1_555
C8 C7 1_555 1_555
C9 N3 1_555 1_555
C10 C9 1_555 1_555
C11 C10 1_555 1_555
C12 C11 1_555 1_555
C13 C12 1_555 1_555
C14 C9 1_555 1_555
C15 C13 1_555 1_555
C16 C15 1_555 1_555
C17 C16 1_555 1_555
C18 C14 1_555 1_555
C19 C12 1_555 1_555
C20 N4 1_555 1_555
C21 N4 1_555 1_555
C22 C21 1_555 1_555
C23 C22 1_555 1_555
C24 C23 1_555 1_555
C25 N1 1_555 1_555
C26 C25 1_555 1_555
C27 C26 1_555 1_555
C28 C27 1_555 1_555
C29 C28 1_555 1_555
C30 C25 1_555 1_555
H1 N1 1_555 1_555
H2 N2 1_555 1_555
H3 N3 1_555 1_555
H4 C5 1_555 1_555
H5 C5 1_555 1_555
H6 C6 1_555 1_555
H7 C6 1_555 1_555
H8 C7 1_555 1_555
H9 C7 1_555 1_555
H10 C8 1_555 1_555
H11 C8 1_555 1_555
H12 C10 1_555 1_555
H13 C11 1_555 1_555
H14 C16 1_555 1_555
H15 C17 1_555 1_555
H16 C18 1_555 1_555
H17 C21 1_555 1_555
H18 C21 1_555 1_555
H19 C22 1_555 1_555
H20 C22 1_555 1_555
H21 C23 1_555 1_555
H22 C23 1_555 1_555
H23 C24 1_555 1_555
H24 C24 1_555 1_555
H25 C24 1_555 1_555
H26 C26 1_555 1_555
H27 C27 1_555 1_555
H28 C28 1_555 1_555
H29 C29 1_555 1_555
H30 C30 1_555 1_555
S1 O5 1_555 1_555
C31 S1 1_555 1_555
H31 C31 1_555 1_555
H32 C31 1_555 1_555
H33 C31 1_555 1_555
C32 S1 1_555 1_555
H34 C32 1_555 1_555
H35 C32 1_555 1_555
H36 C32 1_555 1_555
C13 C14 1_555 1_555
C15 C20 1_555 1_555
C17 C18 1_555 1_555
C29 C30 1_555 1_555

#END
