
#######################################################################
#
#                 Cambridge Crystallographic Data Centre
#                                CCDC 
#
#######################################################################
#
# If this CIF has been generated from an entry in the Cambridge 
# Structural Database, then it will include bibliographic, chemical, 
# crystal, experimental, refinement or atomic coordinate data resulting 
# from the CCDC's data processing and validation procedures.
#
#######################################################################

data_VENWOA
_chemical_formula_moiety         'C11 H11 Br1 N4 O1'
_chemical_name_systematic        5-Bromo-6-benzylamino-isocytosine
_symmetry_cell_setting           monoclinic
_symmetry_space_group_name_H-M   'P 21/c'
_symmetry_Int_Tables_number      14
_space_group_name_Hall           '-P 2ybc'
loop_
_symmetry_equiv_pos_site_id
_symmetry_equiv_pos_as_xyz
1 x,y,z
2 -x,1/2+y,1/2-z
3 -x,-y,-z
4 x,1/2-y,1/2+z
_cell_length_a                   11.393(1)
_cell_length_b                   7.341(2)
_cell_length_c                   14.425(1)
_cell_angle_alpha                90
_cell_angle_beta                 92.06(2)
_cell_angle_gamma                90
_cell_volume                     1205.67
_cell_formula_units_Z            4
loop_
_atom_site_label
_atom_site_type_symbol
_atom_site_fract_x
_atom_site_fract_y
_atom_site_fract_z
Br1 Br 0.2780 0.4948(1) 0.3782
O1 O 0.4373(3) 0.1538(4) 0.4160(2)
N1 N 0.4841(4) 0.2067(6) 0.7306(3)
N2 N 0.3720(3) 0.4245(5) 0.6560(3)
C1 C 0.4143(4) 0.2462(6) 0.4865(3)
N3 N 0.2548(4) 0.6343(6) 0.5800(3)
C2 C 0.4377(3) 0.2745(6) 0.6522(3)
C3 C 0.3254(4) 0.4871(5) 0.5745(4)
N4 N 0.4594(3) 0.1873(5) 0.5720(2)
C4 C 0.3458(4) 0.4043(6) 0.4903(3)
C5 C 0.1292(4) 0.8583(7) 0.6494(3)
C6 C 0.2272(6) 0.7234(11) 0.6659(4)
C7 C 0.1556(6) 1.0393(9) 0.6345(6)
C8 C 0.0143(6) 0.8057(9) 0.6485(5)
C9 C -0.0485(8) 1.1075(13) 0.6154(5)
C10 C -0.0765(6) 0.9271(14) 0.6313(7)
C11 C 0.0634(10) 1.1601(10) 0.6175(7)
loop_
_geom_bond_atom_site_label_1
_geom_bond_atom_site_label_2
_geom_bond_site_symmetry_1
_geom_bond_site_symmetry_2
Br1 C4 1_555 1_555
O1 C1 1_555 1_555
N1 C2 1_555 1_555
N2 C2 1_555 1_555
C1 N4 1_555 1_555
N3 C3 1_555 1_555
C2 N4 1_555 1_555
C3 N2 1_555 1_555
C4 C1 1_555 1_555
C5 C6 1_555 1_555
C6 N3 1_555 1_555
C7 C5 1_555 1_555
C8 C5 1_555 1_555
C9 C10 1_555 1_555
C10 C8 1_555 1_555
C11 C7 1_555 1_555
C3 C4 1_555 1_555
C9 C11 1_555 1_555

#END
