
#######################################################################
#
#                 Cambridge Crystallographic Data Centre
#                                CCDC 
#
#######################################################################
#
# If this CIF has been generated from an entry in the Cambridge 
# Structural Database, then it will include bibliographic, chemical, 
# crystal, experimental, refinement or atomic coordinate data resulting 
# from the CCDC's data processing and validation procedures.
#
#######################################################################

data_VENXAP
_chemical_formula_moiety         'C10 H22 B11 N1'
_chemical_name_systematic        
1,2-(4-Pyridiniobutane-1,4-diyl)-1-carba-closo-dodecaborate
_symmetry_cell_setting           orthorhombic
_symmetry_space_group_name_H-M   'P b c a'
_symmetry_Int_Tables_number      61
_space_group_name_Hall           '-P 2ac 2ab'
loop_
_symmetry_equiv_pos_site_id
_symmetry_equiv_pos_as_xyz
1 x,y,z
2 1/2-x,-y,1/2+z
3 -x,1/2+y,1/2-z
4 1/2+x,1/2-y,-z
5 -x,-y,-z
6 1/2+x,y,1/2-z
7 x,1/2-y,1/2+z
8 1/2-x,1/2+y,z
_cell_length_a                   12.6628(9)
_cell_length_b                   14.1099(10)
_cell_length_c                   18.2836(13)
_cell_angle_alpha                90
_cell_angle_beta                 90
_cell_angle_gamma                90
_cell_volume                     3266.75
_exptl_crystal_colour            colorless
_exptl_crystal_description       block
_cell_formula_units_Z            8
loop_
_atom_site_label
_atom_site_type_symbol
_atom_site_fract_x
_atom_site_fract_y
_atom_site_fract_z
N1 N 0.09430(13) 0.02385(11) 0.28063(9)
C1 C 0.07660(15) 0.17919(13) 0.09382(10)
C2 C -0.03088(17) 0.14084(18) 0.07049(12)
H1 H -0.0855 0.1826 0.0891
H2 H -0.0350 0.1418 0.0175
C3 C -0.0530(2) 0.0407(2) 0.09706(13)
H3 H -0.0060 -0.0028 0.0720
H4 H -0.1249 0.0238 0.0842
C4 C -0.03852(19) 0.0287(2) 0.18024(12)
H5 H -0.0761 0.0786 0.2058
H6 H -0.0674 -0.0317 0.1957
C5 C 0.07957(17) 0.03324(15) 0.19917(10)
H7 H 0.1130 -0.0222 0.1766
C6 C 0.14793(19) -0.05184(16) 0.30655(13)
H8 H 0.1731 -0.0976 0.2744
C7 C 0.1655(2) -0.06136(18) 0.38135(13)
H9 H 0.2030 -0.1129 0.3996
C8 C 0.12654(19) 0.00667(17) 0.42750(12)
H10 H 0.1372 0.0015 0.4777
C9 C 0.07236(19) 0.08174(18) 0.39992(12)
H11 H 0.0454 0.1278 0.4312
C10 C 0.05772(18) 0.08926(16) 0.32652(12)
H12 H 0.0214 0.1412 0.3080
B1 B 0.13767(18) 0.12567(15) 0.16655(11)
B2 B 0.18779(18) 0.11250(15) 0.07671(12)
H13 H 0.1872 0.0436 0.0486
B3 B 0.16407(19) 0.21852(16) 0.02853(13)
H14 H 0.1479 0.2183 -0.0306
B4 B 0.1002(2) 0.29870(16) 0.08808(14)
H15 H 0.0427 0.3506 0.0673
B5 B 0.08356(18) 0.24186(17) 0.17381(13)
H16 H 0.0152 0.2571 0.2091
B6 B 0.27462(18) 0.13630(15) 0.14994(13)
H17 H 0.3315 0.0832 0.1697
B7 B 0.29123(19) 0.19466(16) 0.06455(13)
H18 H 0.3592 0.1798 0.0289
B8 B 0.2371(2) 0.31025(16) 0.07170(14)
H19 H 0.2699 0.3703 0.0407
B9 B 0.1863(2) 0.32476(16) 0.16157(14)
H20 H 0.1858 0.3942 0.1889
B10 B 0.20988(19) 0.21677(16) 0.21077(12)
H21 H 0.2246 0.2159 0.2701
B11 B 0.30467(19) 0.25957(16) 0.14752(14)
H22 H 0.3815 0.2868 0.1662
loop_
_geom_bond_atom_site_label_1
_geom_bond_atom_site_label_2
_geom_bond_site_symmetry_1
_geom_bond_site_symmetry_2
N1 C5 1_555 1_555
C1 C2 1_555 1_555
C2 H1 1_555 1_555
H2 C2 1_555 1_555
C3 C2 1_555 1_555
H3 C3 1_555 1_555
H4 C3 1_555 1_555
C4 C3 1_555 1_555
H5 C4 1_555 1_555
H6 C4 1_555 1_555
C5 C4 1_555 1_555
H7 C5 1_555 1_555
C6 N1 1_555 1_555
H8 C6 1_555 1_555
C7 C6 1_555 1_555
H9 C7 1_555 1_555
C8 C7 1_555 1_555
H10 C8 1_555 1_555
C9 C8 1_555 1_555
H11 C9 1_555 1_555
C10 N1 1_555 1_555
H12 C10 1_555 1_555
B1 C1 1_555 1_555
B2 C1 1_555 1_555
H13 B2 1_555 1_555
B3 C1 1_555 1_555
H14 B3 1_555 1_555
B4 C1 1_555 1_555
H15 B4 1_555 1_555
B5 C1 1_555 1_555
H16 B5 1_555 1_555
B6 B1 1_555 1_555
H17 B6 1_555 1_555
B7 B2 1_555 1_555
H18 B7 1_555 1_555
B8 B3 1_555 1_555
H19 B8 1_555 1_555
B9 B4 1_555 1_555
H20 B9 1_555 1_555
B10 B1 1_555 1_555
H21 B10 1_555 1_555
B11 B6 1_555 1_555
H22 B11 1_555 1_555
C5 B1 1_555 1_555
C9 C10 1_555 1_555
B1 B2 1_555 1_555
B1 B5 1_555 1_555
B2 B3 1_555 1_555
B2 B6 1_555 1_555
B3 B4 1_555 1_555
B3 B7 1_555 1_555
B4 B5 1_555 1_555
B4 B8 1_555 1_555
B5 B9 1_555 1_555
B5 B10 1_555 1_555
B6 B7 1_555 1_555
B6 B10 1_555 1_555
B7 B8 1_555 1_555
B7 B11 1_555 1_555
B8 B9 1_555 1_555
B8 B11 1_555 1_555
B9 B10 1_555 1_555
B9 B11 1_555 1_555
B10 B11 1_555 1_555

#END
