
#######################################################################
#
#                 Cambridge Crystallographic Data Centre
#                                CCDC 
#
#######################################################################
#
# If this CIF has been generated from an entry in the Cambridge 
# Structural Database, then it will include bibliographic, chemical, 
# crystal, experimental, refinement or atomic coordinate data resulting 
# from the CCDC's data processing and validation procedures.
#
#######################################################################

data_VEPCOL
_chemical_formula_moiety         'C20 H15 Cl1 F1 N1 O4 S2'
_chemical_name_systematic        
(E)-N-(2-chloro-2-(4-fluorophenyl)ethenyl)-N-(phenylsulfonyl)benzenesulfonamide
_symmetry_cell_setting           triclinic
_symmetry_space_group_name_H-M   'P 1'
_symmetry_Int_Tables_number      1
_space_group_name_Hall           'P 1'
loop_
_symmetry_equiv_pos_site_id
_symmetry_equiv_pos_as_xyz
1 x,y,z
_cell_length_a                   8.5698(17)
_cell_length_b                   8.9797(18)
_cell_length_c                   15.186(3)
_cell_angle_alpha                81.54(3)
_cell_angle_beta                 73.75(3)
_cell_angle_gamma                61.50(3)
_cell_volume                     985.852
_chemical_melting_point          '99-101 deg.C'
_cell_formula_units_Z            2
loop_
_atom_site_label
_atom_site_type_symbol
_atom_site_fract_x
_atom_site_fract_y
_atom_site_fract_z
Cl1 Cl 0.19949(10) 0.33365(9) 0.49362(5)
S1 S 0.08881(9) 0.93161(9) 0.43447(5)
S2 S 0.41034(9) 0.76052(9) 0.51958(5)
F1 F -0.3791(2) 0.7680(3) 0.85066(13)
O1 O 0.0419(3) 0.8600(3) 0.37495(14)
O2 O 0.1711(3) 1.0414(3) 0.39927(15)
O3 O 0.3552(3) 0.9313(3) 0.53981(15)
O4 O 0.4485(3) 0.6325(3) 0.58997(13)
N1 N 0.2382(3) 0.7612(3) 0.48540(15)
C1 C 0.2610(4) 0.5967(4) 0.47016(18)
H1 H 0.3516 0.5337 0.4188
C2 C 0.1595(4) 0.5306(4) 0.52554(18)
C3 C 0.0153(4) 0.5986(4) 0.60986(18)
C4 C 0.0436(4) 0.6644(4) 0.67769(19)
H2 H 0.1558 0.6682 0.6690
C5 C -0.0916(4) 0.7251(4) 0.7586(2)
H3 H -0.0739 0.7726 0.8046
C6 C -0.2512(4) 0.7147(4) 0.7702(2)
C7 C -0.2859(4) 0.6506(4) 0.7054(2)
H4 H -0.3982 0.6465 0.7152
C8 C -0.1509(4) 0.5920(4) 0.62483(19)
H5 H -0.1712 0.5465 0.5789
C9 C -0.1040(4) 1.0331(4) 0.5256(2)
C10 C -0.2572(4) 1.0103(4) 0.5352(2)
H6 H -0.2586 0.9414 0.4939
C11 C -0.4083(4) 1.0906(5) 0.6066(3)
H7 H -0.5150 1.0776 0.6141
C12 C -0.4048(4) 1.1898(4) 0.6671(2)
H8 H -0.5084 1.2433 0.7161
C13 C -0.2507(4) 1.2110(4) 0.6562(2)
H9 H -0.2497 1.2802 0.6975
C14 C -0.0979(4) 1.1320(4) 0.5854(2)
H10 H 0.0086 1.1453 0.5781
C15 C 0.5999(4) 0.6886(4) 0.42518(19)
C16 C 0.7255(4) 0.5178(4) 0.4201(2)
H11 H 0.7089 0.4407 0.4672
C17 C 0.8756(4) 0.4613(4) 0.3455(2)
H12 H 0.9628 0.3449 0.3413
C18 C 0.8978(5) 0.5747(5) 0.2775(2)
H13 H 1.0002 0.5355 0.2262
C19 C 0.7724(5) 0.7452(5) 0.2831(2)
H14 H 0.7894 0.8220 0.2358
C20 C 0.6223(4) 0.8039(4) 0.3572(2)
H15 H 0.5363 0.9207 0.3617
Cl2 Cl 0.86183(9) -0.16633(9) -0.00629(5)
S3 S 0.19833(9) 0.26070(9) 0.01936(5)
S4 S 0.43371(9) 0.43174(9) -0.06558(5)
F2 F 0.6488(3) 0.2681(3) 0.35055(13)
O5 O 0.2182(3) 0.1327(3) 0.08971(13)
O6 O 0.0625(3) 0.4312(3) 0.03961(15)
O7 O 0.2773(3) 0.5410(3) -0.10152(14)
O8 O 0.6122(3) 0.3596(3) -0.12501(14)
N2 N 0.4035(3) 0.2614(3) -0.01450(15)
C21 C 0.5613(4) 0.0966(4) -0.03023(18)
H16 H 0.5852 0.0341 -0.0819
C22 C 0.6738(4) 0.0303(4) 0.02546(18)
C23 C 0.6646(4) 0.0985(4) 0.11013(18)
C24 C 0.5028(4) 0.1643(4) 0.17801(19)
H17 H 0.3955 0.1680 0.1692
C25 C 0.4970(4) 0.2246(4) 0.2587(2)
H18 H 0.3862 0.2715 0.3048
C26 C 0.6545(4) 0.2149(4) 0.2702(2)
C27 C 0.8182(4) 0.1516(4) 0.2050(2)
H19 H 0.9244 0.1487 0.2147
C28 C 0.8224(4) 0.0926(4) 0.1248(2)
H20 H 0.9338 0.0473 0.0789
C29 C 0.1753(4) 0.1887(4) -0.0752(2)
C30 C 0.1060(4) 0.3033(4) -0.1433(2)
H21 H 0.0718 0.4199 -0.1391
C31 C 0.0879(5) 0.2451(5) -0.2171(2)
H22 H 0.0403 0.3221 -0.2641
C32 C 0.1385(5) 0.0750(5) -0.2229(2)
H23 H 0.1270 0.0357 -0.2744
C33 C 0.2062(4) -0.0390(4) -0.1541(2)
H24 H 0.2394 -0.1553 -0.1582
C34 C 0.2250(4) 0.0181(4) -0.0797(2)
H25 H 0.2715 -0.0586 -0.0324
C35 C 0.4351(4) 0.5317(4) 0.02557(19)
C36 C 0.6001(4) 0.5105(4) 0.0350(2)
H26 H 0.7114 0.4430 -0.0068
C37 C 0.6002(5) 0.5898(5) 0.1069(3)
H27 H 0.7125 0.5759 0.1149
C38 C 0.4363(4) 0.6898(4) 0.1674(2)
H28 H 0.4370 0.7440 0.2164
C39 C 0.2728(4) 0.7102(4) 0.1562(2)
H29 H 0.1613 0.7786 0.1975
C40 C 0.2701(4) 0.6318(4) 0.0851(2)
H30 H 0.1577 0.6460 0.0772
loop_
_geom_bond_atom_site_label_1
_geom_bond_atom_site_label_2
_geom_bond_site_symmetry_1
_geom_bond_site_symmetry_2
Cl1 C2 1_555 1_555
S1 O1 1_555 1_555
S2 O3 1_555 1_555
F1 C6 1_555 1_555
O2 S1 1_555 1_555
O4 S2 1_555 1_555
N1 S1 1_555 1_555
C1 N1 1_555 1_555
H1 C1 1_555 1_555
C2 C1 1_555 1_555
C3 C2 1_555 1_555
C4 C3 1_555 1_555
H2 C4 1_555 1_555
C5 C4 1_555 1_555
H3 C5 1_555 1_555
C6 C5 1_555 1_555
C7 C6 1_555 1_555
H4 C7 1_555 1_555
C8 C3 1_555 1_555
H5 C8 1_555 1_555
C9 S1 1_555 1_555
C10 C9 1_555 1_555
H6 C10 1_555 1_555
C11 C10 1_555 1_555
H7 C11 1_555 1_555
C12 C11 1_555 1_555
H8 C12 1_555 1_555
C13 C12 1_555 1_555
H9 C13 1_555 1_555
C14 C9 1_555 1_555
H10 C14 1_555 1_555
C15 S2 1_555 1_555
C16 C15 1_555 1_555
H11 C16 1_555 1_555
C17 C16 1_555 1_555
H12 C17 1_555 1_555
C18 C17 1_555 1_555
H13 C18 1_555 1_555
C19 C18 1_555 1_555
H14 C19 1_555 1_555
C20 C15 1_555 1_555
H15 C20 1_555 1_555
Cl2 C22 1_555 1_555
S3 O5 1_555 1_555
S4 O7 1_555 1_555
F2 C26 1_555 1_555
O6 S3 1_555 1_555
O8 S4 1_555 1_555
N2 S3 1_555 1_555
C21 N2 1_555 1_555
H16 C21 1_555 1_555
C22 C21 1_555 1_555
C23 C22 1_555 1_555
C24 C23 1_555 1_555
H17 C24 1_555 1_555
C25 C24 1_555 1_555
H18 C25 1_555 1_555
C26 C25 1_555 1_555
C27 C26 1_555 1_555
H19 C27 1_555 1_555
C28 C23 1_555 1_555
H20 C28 1_555 1_555
C29 S3 1_555 1_555
C30 C29 1_555 1_555
H21 C30 1_555 1_555
C31 C30 1_555 1_555
H22 C31 1_555 1_555
C32 C31 1_555 1_555
H23 C32 1_555 1_555
C33 C32 1_555 1_555
H24 C33 1_555 1_555
C34 C29 1_555 1_555
H25 C34 1_555 1_555
C35 S4 1_555 1_555
C36 C35 1_555 1_555
H26 C36 1_555 1_555
C37 C36 1_555 1_555
H27 C37 1_555 1_555
C38 C37 1_555 1_555
H28 C38 1_555 1_555
C39 C38 1_555 1_555
H29 C39 1_555 1_555
C40 C35 1_555 1_555
H30 C40 1_555 1_555
S2 N1 1_555 1_555
C7 C8 1_555 1_555
C13 C14 1_555 1_555
C19 C20 1_555 1_555
S4 N2 1_555 1_555
C27 C28 1_555 1_555
C33 C34 1_555 1_555
C39 C40 1_555 1_555

#END
