
#######################################################################
#
#                 Cambridge Crystallographic Data Centre
#                                CCDC 
#
#######################################################################
#
# If this CIF has been generated from an entry in the Cambridge 
# Structural Database, then it will include bibliographic, chemical, 
# crystal, experimental, refinement or atomic coordinate data resulting 
# from the CCDC's data processing and validation procedures.
#
#######################################################################

data_VEPDUQ
_chemical_name_common            'lecozotan hydrochloride'
_chemical_formula_moiety         'C28 H30 N5 O3 1+,Cl1 1-'
_chemical_name_systematic        
'4-cyano-N-((2R)-2-(4-(2,3-dihydrobenzo(1,4)dioxin-5-yl)piperazin-1-ium-1-yl)propyl)-N-pyridin-2-ylbenzamide chloride'
_chemical_properties_biological  'orally active 5-HT1A antagonist'
_symmetry_cell_setting           orthorhombic
_symmetry_space_group_name_H-M   'P 21 21 21'
_symmetry_Int_Tables_number      19
_space_group_name_Hall           'P 2ac 2ab'
loop_
_symmetry_equiv_pos_site_id
_symmetry_equiv_pos_as_xyz
1 x,y,z
2 1/2-x,-y,1/2+z
3 1/2+x,1/2-y,-z
4 -x,1/2+y,1/2-z
_cell_length_a                   8.4682(4)
_cell_length_b                   9.2948(3)
_cell_length_c                   33.2986(15)
_cell_angle_alpha                90
_cell_angle_beta                 90
_cell_angle_gamma                90
_cell_volume                     2620.94
_exptl_crystal_colour            colorless
_exptl_crystal_description       needle
_chemical_melting_point          '239-240 deg.C'
_cell_formula_units_Z            4
_exptl_crystal_recrystallization_method ethanol/hexanes
loop_
_atom_site_label
_atom_site_type_symbol
_atom_site_fract_x
_atom_site_fract_y
_atom_site_fract_z
C1 C 0.8258(4) 0.4692(4) 0.2633(1)
C2 C 0.7791(4) 0.3693(4) 0.2975(1)
C3 C 0.9883(5) 0.4351(5) 0.2465(1)
N1 N 0.6971(3) 0.4691(3) 0.2316(1)
C4 C 0.7069(5) 0.3446(4) 0.2027(1)
C5 C 0.5757(5) 0.3552(4) 0.1716(1)
N2 N 0.5860(3) 0.4934(3) 0.1507(1)
C6 C 0.5610(5) 0.6114(4) 0.1789(1)
C7 C 0.6918(5) 0.6098(4) 0.2094(1)
C8 C 0.5156(4) 0.5038(4) 0.1126(1)
C9 C 0.5794(4) 0.4247(4) 0.0806(1)
O1 O 0.7076(3) 0.3355(3) 0.0893(1)
C10 C 0.7949(5) 0.2988(4) 0.0543(1)
C11 C 0.6888(5) 0.2512(4) 0.0214(1)
O2 O 0.5830(3) 0.3646(3) 0.0098(1)
C12 C 0.5214(5) 0.4387(4) 0.0420(1)
C13 C 0.3987(5) 0.5351(4) 0.0339(1)
C14 C 0.3353(5) 0.6136(4) 0.0653(1)
C15 C 0.3893(4) 0.5976(4) 0.1040(1)
N3 N 0.8844(4) 0.3913(3) 0.3323(1)
C16 C 0.9699(5) 0.2764(5) 0.3474(1)
O3 O 0.9484(3) 0.1522(3) 0.3353(1)
C17 C 1.0938(4) 0.3101(4) 0.3778(1)
C18 C 1.1977(5) 0.4239(4) 0.3719(1)
C19 C 1.3174(5) 0.4475(4) 0.3994(1)
C20 C 1.3314(4) 0.3602(4) 0.4330(1)
C21 C 1.2275(5) 0.2448(4) 0.4387(1)
C22 C 1.1121(5) 0.2203(4) 0.4105(1)
C23 C 1.4509(6) 0.3911(4) 0.4631(2)
N4 N 1.5418(5) 0.4219(4) 0.4866(1)
C24 C 0.8599(4) 0.5177(4) 0.3559(1)
N5 N 0.9042(4) 0.6432(4) 0.3398(1)
C25 C 0.8771(5) 0.7622(4) 0.3617(2)
C26 C 0.8102(5) 0.7605(5) 0.3993(1)
C27 C 0.7661(5) 0.6290(5) 0.4148(1)
C28 C 0.7901(4) 0.5054(4) 0.3928(1)
H1 H 0.8308 0.5687 0.2746
H2 H 0.6685 0.3886 0.3054
H3 H 0.7861 0.2680 0.2884
H4 H 1.0090 0.4962 0.2231
H5 H 0.9924 0.3338 0.2385
H6 H 1.0684 0.4534 0.2671
H7 H 0.5910(42) 0.4614(34) 0.2475(11)
H8 H 0.6972 0.2528 0.2176
H9 H 0.8108 0.3455 0.1890
H10 H 0.5855 0.2755 0.1521
H11 H 0.4718 0.3468 0.1851
H12 H 0.4577 0.6000 0.1924
H13 H 0.5607 0.7043 0.1643
H14 H 0.7940 0.6259 0.1957
H15 H 0.6756 0.6892 0.2288
H16 H 0.8702 0.2206 0.0607
H17 H 0.8565 0.3834 0.0452
H18 H 0.7530 0.2218 -0.0021
H19 H 0.6270 0.1668 0.0304
H20 H 0.3596 0.5465 0.0073
H21 H 0.2527 0.6801 0.0600
H22 H 0.3409 0.6503 0.1252
H23 H 1.1867 0.4848 0.3492
H24 H 1.3902 0.5238 0.3953
H25 H 1.2366 0.1846 0.4617
H26 H 1.0437 0.1401 0.4135
H27 H 0.9058 0.8525 0.3505
H28 H 0.7951 0.8468 0.4141
H29 H 0.7190 0.6236 0.4406
H30 H 0.7590 0.4142 0.4029
Cl1 Cl 0.3931(1) 0.4848(1) 0.2790(1)
loop_
_geom_bond_atom_site_label_1
_geom_bond_atom_site_label_2
_geom_bond_site_symmetry_1
_geom_bond_site_symmetry_2
C1 C2 1_555 1_555
C2 N3 1_555 1_555
C3 C1 1_555 1_555
N1 C1 1_555 1_555
C4 N1 1_555 1_555
C5 C4 1_555 1_555
N2 C5 1_555 1_555
C6 N2 1_555 1_555
C7 N1 1_555 1_555
C8 N2 1_555 1_555
C9 C8 1_555 1_555
O1 C9 1_555 1_555
C10 O1 1_555 1_555
C11 C10 1_555 1_555
O2 C11 1_555 1_555
C12 C9 1_555 1_555
C13 C12 1_555 1_555
C14 C13 1_555 1_555
C15 C8 1_555 1_555
N3 C16 1_555 1_555
C16 O3 1_555 1_555
C17 C16 1_555 1_555
C18 C17 1_555 1_555
C19 C18 1_555 1_555
C20 C19 1_555 1_555
C21 C20 1_555 1_555
C22 C17 1_555 1_555
C23 C20 1_555 1_555
N4 C23 1_555 1_555
C24 N3 1_555 1_555
N5 C24 1_555 1_555
C25 N5 1_555 1_555
C26 C25 1_555 1_555
C27 C26 1_555 1_555
C28 C24 1_555 1_555
H1 C1 1_555 1_555
H2 C2 1_555 1_555
H3 C2 1_555 1_555
H4 C3 1_555 1_555
H5 C3 1_555 1_555
H6 C3 1_555 1_555
H7 N1 1_555 1_555
H8 C4 1_555 1_555
H9 C4 1_555 1_555
H10 C5 1_555 1_555
H11 C5 1_555 1_555
H12 C6 1_555 1_555
H13 C6 1_555 1_555
H14 C7 1_555 1_555
H15 C7 1_555 1_555
H16 C10 1_555 1_555
H17 C10 1_555 1_555
H18 C11 1_555 1_555
H19 C11 1_555 1_555
H20 C13 1_555 1_555
H21 C14 1_555 1_555
H22 C15 1_555 1_555
H23 C18 1_555 1_555
H24 C19 1_555 1_555
H25 C21 1_555 1_555
H26 C22 1_555 1_555
H27 C25 1_555 1_555
H28 C26 1_555 1_555
H29 C27 1_555 1_555
H30 C28 1_555 1_555
C6 C7 1_555 1_555
O2 C12 1_555 1_555
C14 C15 1_555 1_555
C21 C22 1_555 1_555
C27 C28 1_555 1_555

#END
