
#######################################################################
#
#                 Cambridge Crystallographic Data Centre
#                                CCDC 
#
#######################################################################
#
# If this CIF has been generated from an entry in the Cambridge 
# Structural Database, then it will include bibliographic, chemical, 
# crystal, experimental, refinement or atomic coordinate data resulting 
# from the CCDC's data processing and validation procedures.
#
#######################################################################

data_VEPDEA
_chemical_formula_moiety         'C21 H21 N1 O7'
_chemical_name_systematic        
7-Hydroxy-6-methoxy-3-(4-methoxy-6-methyl-5,6,7,8-tetrahydro-(1,3)dioxolo(4,5-g)isoquinolin-5-yl)-3H-isobenzofuran-1-one
_chemical_properties_biological  
'Shown to arrest cells in the G2/M phase (unpublished results)'
_symmetry_cell_setting           monoclinic
_symmetry_space_group_name_H-M   'P 21'
_symmetry_Int_Tables_number      4
_space_group_name_Hall           'P 2yb'
loop_
_symmetry_equiv_pos_site_id
_symmetry_equiv_pos_as_xyz
1 x,y,z
2 -x,1/2+y,-z
_cell_length_a                   10.560(1)
_cell_length_b                   15.243(2)
_cell_length_c                   23.299(3)
_cell_angle_alpha                90
_cell_angle_beta                 90.930(4)
_cell_angle_gamma                90
_cell_volume                     3749.85
_cell_formula_units_Z            8
loop_
_atom_site_label
_atom_site_type_symbol
_atom_site_fract_x
_atom_site_fract_y
_atom_site_fract_z
O1 O 0.4083(2) 0.7914(2) 0.4369(2)
O2 O 0.4028(3) 0.8577(2) 0.5234(2)
O3 O 0.4522(3) 0.7328(3) 0.6163(2)
O4 O 0.4793(3) 0.5609(2) 0.6367(1)
O5 O 0.4563(3) 0.6819(2) 0.2841(1)
O6 O 0.5381(3) 0.5085(2) 0.2292(1)
O7 O 0.4682(4) 0.3754(2) 0.2633(1)
N1 N 0.1936(3) 0.6705(2) 0.4155(2)
C1 C 0.4157(3) 0.7910(3) 0.4944(2)
C2 C 0.4414(3) 0.7032(2) 0.5144(2)
C3 C 0.4539(3) 0.6754(3) 0.5709(2)
C4 C 0.4695(3) 0.5868(3) 0.5807(2)
C5 C 0.4757(3) 0.5298(2) 0.5337(2)
C6 C 0.4653(3) 0.5598(2) 0.4774(2)
C7 C 0.4458(3) 0.6473(2) 0.4679(2)
C8 C 0.4232(3) 0.7011(3) 0.4146(2)
C9 C 0.3047(3) 0.6770(3) 0.3783(2)
C10 C 0.3350(3) 0.5932(3) 0.3461(2)
C11 C 0.4201(3) 0.5989(3) 0.2998(2)
C12 C 0.4562(3) 0.5218(3) 0.2744(2)
C13 C 0.5248(5) 0.4173(3) 0.2150(2)
C14 C 0.4130(4) 0.4424(3) 0.2940(2)
C15 C 0.3281(4) 0.4338(3) 0.3374(2)
C16 C 0.2880(3) 0.5126(3) 0.3631(2)
C17 C 0.1868(3) 0.5115(3) 0.4084(2)
C18 C 0.1133(3) 0.5967(3) 0.4053(2)
C19 C 0.4931(5) 0.4702(3) 0.6476(2)
C20 C 0.5661(3) 0.6917(3) 0.2496(2)
C21 C 0.1183(4) 0.7524(4) 0.4141(2)
H1 H 0.4640(7) 0.7780(4) 0.6100(3)
H2 H 0.4873 0.4688 0.5405
H3 H 0.4717 0.5202 0.4461
H4 H 0.4998 0.6983 0.3900
H5 H 0.2890 0.7248 0.3496
H6 H 0.4704 0.4101 0.1803
H7 H 0.6087 0.3911 0.2074
H8 H 0.2981 0.3781 0.3495
H9 H 0.2265 0.5049 0.4470
H10 H 0.1289 0.4613 0.4018
H11 H 0.0727 0.6023 0.3668
H12 H 0.0455 0.5959 0.4341
H13 H 0.4950 0.4600 0.6891
H14 H 0.5724 0.4494 0.6310
H15 H 0.4216 0.4384 0.6301
H16 H 0.5897 0.7538 0.2478
H17 H 0.5477 0.6700 0.2108
H18 H 0.6363 0.6580 0.2666
H19 H 0.1738 0.8025 0.4224
H20 H 0.0521 0.7493 0.4431
H21 H 0.0790 0.7596 0.3760
O8 O 0.0080(2) 0.2758(2) 0.0317(1)
O9 O 0.0122(3) 0.2176(2) -0.0572(1)
O10 O 0.0154(3) 0.3569(2) -0.1452(1)
O11 O -0.0021(2) 0.5292(2) -0.1578(1)
O12 O 0.0068(3) 0.3854(2) 0.1888(1)
O13 O 0.0220(3) 0.5719(2) 0.2408(1)
O14 O -0.1034(3) 0.6840(2) 0.2047(1)
N2 N -0.2422(3) 0.3434(2) 0.0510(1)
C22 C 0.0071(3) 0.2818(3) -0.0262(2)
C23 C 0.0005(3) 0.3729(2) -0.0425(1)
C24 C 0.0034(3) 0.4077(2) -0.0974(2)
C25 C -0.0049(3) 0.4984(2) -0.1030(2)
C26 C -0.0151(3) 0.5498(2) -0.0539(2)
C27 C -0.0178(3) 0.5141(2) 0.0017(2)
C28 C -0.0102(3) 0.4242(2) 0.0065(1)
C29 C -0.0123(3) 0.3628(2) 0.0576(2)
C30 C -0.1366(3) 0.3610(2) 0.0912(2)
C31 C -0.1444(3) 0.4458(2) 0.1247(1)
C32 C -0.0603(3) 0.4583(2) 0.1721(1)
C33 C -0.0548(3) 0.5403(3) 0.1963(2)
C34 C -0.0197(5) 0.6589(3) 0.2494(2)
C35 C -0.1310(4) 0.6069(2) 0.1755(2)
C36 C -0.2188(4) 0.5955(3) 0.1327(2)
C37 C -0.2251(3) 0.5131(2) 0.1068(1)
C38 C -0.3183(3) 0.4940(3) 0.0593(2)
C39 C -0.3524(3) 0.3993(3) 0.0577(2)
C40 C -0.0097(5) 0.6219(3) -0.1664(2)
C41 C 0.1003(4) 0.3914(3) 0.2319(2)
C42 C -0.2764(4) 0.2502(3) 0.0514(2)
H22 H 0.0200(4) 0.3020(3) -0.1370(19)
H23 H -0.0205 0.6117 -0.0582
H24 H -0.0245 0.5504 0.0347
H25 H 0.0600 0.3770 0.0843
H26 H -0.1316 0.3115 0.1193
H27 H -0.0632 0.6631 0.2866
H28 H 0.0541 0.6989 0.2506
H29 H -0.2735 0.6418 0.1209
H30 H -0.3957 0.5294 0.0649
H31 H -0.2814 0.5111 0.0221
H32 H -0.3956 0.3835 0.0936
H33 H -0.4125 0.3888 0.0253
H34 H -0.0186 0.6344 -0.2075
H35 H 0.0675 0.6497 -0.1513
H36 H -0.0833 0.6451 -0.1463
H37 H 0.1448 0.3352 0.2353
H38 H 0.0609 0.4057 0.2685
H39 H 0.1608 0.4375 0.2220
H40 H -0.3037 0.2334 0.0898
H41 H -0.2028 0.2149 0.0408
H42 H -0.3456 0.2398 0.0237
O15 O 0.2241(2) 0.2940(2) 0.4565(1)
O16 O 0.2369(3) 0.3619(2) 0.5423(1)
O17 O 0.2405(3) 0.2378(2) 0.6362(1)
O18 O 0.2391(2) 0.0653(2) 0.6589(1)
O19 O 0.2290(3) 0.1697(2) 0.3064(1)
O20 O 0.2496(3) -0.0177(2) 0.2575(1)
O21 O 0.1289(3) -0.1310(2) 0.2940(1)
N3 N -0.0230(3) 0.2140(2) 0.4380(1)
C43 C 0.2286(3) 0.2952(3) 0.5144(2)
C44 C 0.2256(3) 0.2059(2) 0.5354(2)
C45 C 0.2322(3) 0.1789(2) 0.5915(2)
C46 C 0.2319(3) 0.0889(2) 0.6024(2)
C47 C 0.2250(3) 0.0306(2) 0.5562(2)
C48 C 0.2184(3) 0.0593(2) 0.4993(2)
C49 C 0.2166(2) 0.1484(2) 0.4891(2)
C50 C 0.2089(3) 0.2035(2) 0.4354(2)
C51 C 0.0847(3) 0.1971(2) 0.4002(2)
C52 C 0.0829(3) 0.1092(2) 0.3706(1)
C53 C 0.1672(3) 0.0961(3) 0.3246(1)
C54 C 0.1754(3) 0.0119(3) 0.3019(1)
C55 C 0.2146(4) -0.1069(3) 0.2508(2)
C56 C 0.1034(3) -0.0546(3) 0.3232(1)
C57 C 0.0199(3) -0.0439(3) 0.3669(2)
C58 C 0.0096(3) 0.0389(3) 0.3901(1)
C59 C -0.0840(3) 0.0588(3) 0.4369(2)
C60 C -0.1277(3) 0.1518(3) 0.4330(2)
C61 C 0.2312(5) -0.0262(3) 0.6723(2)
C62 C 0.3264(3) 0.1615(3) 0.2644(2)
C63 C -0.0686(4) 0.3036(3) 0.4320(2)
H43 H 0.2520(10) 0.2920(5) 0.6200(4)
H44 H 0.2248 -0.0307 0.5637
H45 H 0.2152 0.0186 0.4685
H46 H 0.2816 0.1885 0.4102
H47 H 0.0856 0.2438 0.3701
H48 H 0.1745 -0.1157 0.2125
H49 H 0.2910 -0.1444 0.2533
H50 H -0.0288 -0.0915 0.3808
H51 H -0.1578 0.0190 0.4330
H52 H -0.0435 0.0483 0.4749
H53 H -0.1724 0.1609 0.3958
H54 H -0.1886 0.1633 0.4640
H55 H 0.2330 -0.0340 0.7140
H56 H 0.3032 -0.0570 0.6556
H57 H 0.1520 -0.0501 0.6563
H58 H 0.3632 0.2193 0.2569
H59 H 0.2899 0.1377 0.2287
H60 H 0.3926 0.1219 0.2789
H61 H -0.1397 0.3129 0.4578
H62 H -0.0969 0.3136 0.3922
H63 H -0.0001 0.3445 0.4418
O22 O 0.6434(3) -0.2181(2) 0.0822(1)
O23 O 0.6388(4) -0.2937(2) -0.0004(2)
O24 O 0.6839(3) -0.1779(2) -0.0981(2)
O25 O 0.7184(3) -0.0087(2) -0.1261(1)
O26 O 0.6953(3) -0.0823(2) 0.2251(1)
O27 O 0.7688(3) 0.1045(2) 0.2629(1)
O28 O 0.6715(3) 0.2253(2) 0.2224(1)
N4 N 0.4200(3) -0.1107(2) 0.0964(1)
C64 C 0.6498(4) -0.2239(3) 0.0238(2)
C65 C 0.6698(3) -0.1378(2) 0.0011(2)
C66 C 0.6838(3) -0.1161(3) -0.0562(2)
C67 C 0.7009(3) -0.0275(3) -0.0694(2)
C68 C 0.7027(3) 0.0330(3) -0.0249(2)
C69 C 0.6888(3) 0.0103(2) 0.0326(2)
C70 C 0.6712(3) -0.0774(2) 0.0454(2)
C71 C 0.6528(4) -0.1261(3) 0.1005(2)
C72 C 0.5329(3) -0.1031(2) 0.1344(2)
C73 C 0.5541(3) -0.0128(2) 0.1597(1)
C74 C 0.6488(3) -0.0052(2) 0.2043(1)
C75 C 0.6790(3) 0.0781(3) 0.2224(2)
C76 C 0.7448(5) 0.1956(3) 0.2706(2)
C77 C 0.6206(3) 0.1499(2) 0.1991(2)
C78 C 0.5264(3) 0.1449(2) 0.1579(2)
C79 C 0.4940(3) 0.0614(2) 0.1381(1)
C80 C 0.3913(3) 0.0477(2) 0.0936(2)
C81 C 0.3290(3) -0.0403(3) 0.1014(2)
C82 C 0.7315(5) 0.0815(3) -0.1419(2)
C83 C 0.8086(4) -0.0810(3) 0.2602(2)
C84 C 0.3575(4) -0.1952(3) 0.1024(2)
H64 H 0.6750(6) -0.2240(4) -0.0890(3)
H65 H 0.7140 0.0932 -0.0341
H66 H 0.6914 0.0535 0.0620
H67 H 0.7294 -0.1185 0.1258
H68 H 0.5245 -0.1460 0.1666
H69 H 0.8256 0.2284 0.2732
H70 H 0.6979 0.2053 0.3065
H71 H 0.4852 0.1959 0.1435
H72 H 0.4279 0.0510 0.0548
H73 H 0.3271 0.0947 0.0969
H74 H 0.2899 -0.0428 0.1397
H75 H 0.2611 -0.0479 0.0721
H76 H 0.7412 0.0860 -0.1835
H77 H 0.8063 0.1064 -0.1225
H78 H 0.6559 0.1140 -0.1304
H79 H 0.8255 -0.1401 0.2750
H80 H 0.7972 -0.0406 0.2924
H81 H 0.8801 -0.0615 0.2372
H82 H 0.4188 -0.2424 0.0962
H83 H 0.2884 -0.1999 0.0740
H84 H 0.3231 -0.2002 0.1411
loop_
_geom_bond_atom_site_label_1
_geom_bond_atom_site_label_2
_geom_bond_site_symmetry_1
_geom_bond_site_symmetry_2
O1 C1 1_555 1_555
O2 C1 1_555 1_555
O3 C3 1_555 1_555
O4 C4 1_555 1_555
O5 C11 1_555 1_555
O6 C12 1_555 1_555
O7 C13 1_555 1_555
N1 C9 1_555 1_555
C1 C2 1_555 1_555
C2 C3 1_555 1_555
C3 C4 1_555 1_555
C4 C5 1_555 1_555
C5 C6 1_555 1_555
C6 C7 1_555 1_555
C7 C2 1_555 1_555
C8 O1 1_555 1_555
C9 C8 1_555 1_555
C10 C9 1_555 1_555
C11 C10 1_555 1_555
C12 C11 1_555 1_555
C13 O6 1_555 1_555
C14 O7 1_555 1_555
C15 C14 1_555 1_555
C16 C10 1_555 1_555
C17 C16 1_555 1_555
C18 N1 1_555 1_555
C19 O4 1_555 1_555
C20 O5 1_555 1_555
C21 N1 1_555 1_555
O8 C22 1_555 1_555
O9 C22 1_555 1_555
O10 C24 1_555 1_555
O11 C25 1_555 1_555
O12 C32 1_555 1_555
O13 C33 1_555 1_555
O14 C34 1_555 1_555
N2 C30 1_555 1_555
C22 C23 1_555 1_555
C23 C24 1_555 1_555
C24 C25 1_555 1_555
C25 C26 1_555 1_555
C26 C27 1_555 1_555
C27 C28 1_555 1_555
C28 C23 1_555 1_555
C29 O8 1_555 1_555
C30 C29 1_555 1_555
C31 C30 1_555 1_555
C32 C31 1_555 1_555
C33 C32 1_555 1_555
C34 O13 1_555 1_555
C35 O14 1_555 1_555
C36 C35 1_555 1_555
C37 C31 1_555 1_555
C38 C37 1_555 1_555
C39 N2 1_555 1_555
C40 O11 1_555 1_555
C41 O12 1_555 1_555
C42 N2 1_555 1_555
O15 C43 1_555 1_555
O16 C43 1_555 1_555
O17 C45 1_555 1_555
O18 C46 1_555 1_555
O19 C53 1_555 1_555
O20 C54 1_555 1_555
O21 C55 1_555 1_555
N3 C51 1_555 1_555
C43 C44 1_555 1_555
C44 C45 1_555 1_555
C45 C46 1_555 1_555
C46 C47 1_555 1_555
C47 C48 1_555 1_555
C48 C49 1_555 1_555
C49 C44 1_555 1_555
C50 O15 1_555 1_555
C51 C50 1_555 1_555
C52 C51 1_555 1_555
C53 C52 1_555 1_555
C54 C53 1_555 1_555
C55 O20 1_555 1_555
C56 O21 1_555 1_555
C57 C56 1_555 1_555
C58 C52 1_555 1_555
C59 C58 1_555 1_555
C60 N3 1_555 1_555
C61 O18 1_555 1_555
C62 O19 1_555 1_555
C63 N3 1_555 1_555
O22 C64 1_555 1_555
O23 C64 1_555 1_555
O24 C66 1_555 1_555
O25 C67 1_555 1_555
O26 C74 1_555 1_555
O27 C75 1_555 1_555
O28 C76 1_555 1_555
N4 C72 1_555 1_555
C64 C65 1_555 1_555
C65 C66 1_555 1_555
C66 C67 1_555 1_555
C67 C68 1_555 1_555
C68 C69 1_555 1_555
C69 C70 1_555 1_555
C70 C65 1_555 1_555
C71 O22 1_555 1_555
C72 C71 1_555 1_555
C73 C72 1_555 1_555
C74 C73 1_555 1_555
C75 C74 1_555 1_555
C76 O27 1_555 1_555
C77 O28 1_555 1_555
C78 C77 1_555 1_555
C79 C73 1_555 1_555
C80 C79 1_555 1_555
C81 N4 1_555 1_555
C82 O25 1_555 1_555
C83 O26 1_555 1_555
C84 N4 1_555 1_555
H1 O3 1_555 1_555
H2 C5 1_555 1_555
H3 C6 1_555 1_555
H4 C8 1_555 1_555
H5 C9 1_555 1_555
H6 C13 1_555 1_555
H7 C13 1_555 1_555
H8 C15 1_555 1_555
H9 C17 1_555 1_555
H10 C17 1_555 1_555
H11 C18 1_555 1_555
H12 C18 1_555 1_555
H13 C19 1_555 1_555
H14 C19 1_555 1_555
H15 C19 1_555 1_555
H16 C20 1_555 1_555
H17 C20 1_555 1_555
H18 C20 1_555 1_555
H19 C21 1_555 1_555
H20 C21 1_555 1_555
H21 C21 1_555 1_555
H22 O10 1_555 1_555
H23 C26 1_555 1_555
H24 C27 1_555 1_555
H25 C29 1_555 1_555
H26 C30 1_555 1_555
H27 C34 1_555 1_555
H28 C34 1_555 1_555
H29 C36 1_555 1_555
H30 C38 1_555 1_555
H31 C38 1_555 1_555
H32 C39 1_555 1_555
H33 C39 1_555 1_555
H34 C40 1_555 1_555
H35 C40 1_555 1_555
H36 C40 1_555 1_555
H37 C41 1_555 1_555
H38 C41 1_555 1_555
H39 C41 1_555 1_555
H40 C42 1_555 1_555
H41 C42 1_555 1_555
H42 C42 1_555 1_555
H43 O17 1_555 1_555
H44 C47 1_555 1_555
H45 C48 1_555 1_555
H46 C50 1_555 1_555
H47 C51 1_555 1_555
H48 C55 1_555 1_555
H49 C55 1_555 1_555
H50 C57 1_555 1_555
H51 C59 1_555 1_555
H52 C59 1_555 1_555
H53 C60 1_555 1_555
H54 C60 1_555 1_555
H55 C61 1_555 1_555
H56 C61 1_555 1_555
H57 C61 1_555 1_555
H58 C62 1_555 1_555
H59 C62 1_555 1_555
H60 C62 1_555 1_555
H61 C63 1_555 1_555
H62 C63 1_555 1_555
H63 C63 1_555 1_555
H64 O24 1_555 1_555
H65 C68 1_555 1_555
H66 C69 1_555 1_555
H67 C71 1_555 1_555
H68 C72 1_555 1_555
H69 C76 1_555 1_555
H70 C76 1_555 1_555
H71 C78 1_555 1_555
H72 C80 1_555 1_555
H73 C80 1_555 1_555
H74 C81 1_555 1_555
H75 C81 1_555 1_555
H76 C82 1_555 1_555
H77 C82 1_555 1_555
H78 C82 1_555 1_555
H79 C83 1_555 1_555
H80 C83 1_555 1_555
H81 C83 1_555 1_555
H82 C84 1_555 1_555
H83 C84 1_555 1_555
H84 C84 1_555 1_555
C7 C8 1_555 1_555
C12 C14 1_555 1_555
C15 C16 1_555 1_555
C17 C18 1_555 1_555
C28 C29 1_555 1_555
C33 C35 1_555 1_555
C36 C37 1_555 1_555
C38 C39 1_555 1_555
C49 C50 1_555 1_555
C54 C56 1_555 1_555
C57 C58 1_555 1_555
C59 C60 1_555 1_555
C70 C71 1_555 1_555
C75 C77 1_555 1_555
C78 C79 1_555 1_555
C80 C81 1_555 1_555

#END
