
#######################################################################
#
#                 Cambridge Crystallographic Data Centre
#                                CCDC 
#
#######################################################################
#
# If this CIF has been generated from an entry in the Cambridge 
# Structural Database, then it will include bibliographic, chemical, 
# crystal, experimental, refinement or atomic coordinate data resulting 
# from the CCDC's data processing and validation procedures.
#
#######################################################################

data_VEPFEE
_chemical_formula_moiety         'C22 H25 N1 O4'
_chemical_name_systematic        
'5-ethyl 3-methyl 1,6-dimethyl-4-(naphthalen-1-yl)-1,2,3,4-tetrahydropyridine-3,5-dicarboxylate'
_symmetry_cell_setting           monoclinic
_symmetry_space_group_name_H-M   'P 21/c'
_symmetry_Int_Tables_number      14
_space_group_name_Hall           '-P 2ybc'
loop_
_symmetry_equiv_pos_site_id
_symmetry_equiv_pos_as_xyz
1 x,y,z
2 -x,1/2+y,1/2-z
3 -x,-y,-z
4 x,1/2-y,1/2+z
_cell_length_a                   16.8558(11)
_cell_length_b                   8.0593(5)
_cell_length_c                   29.356(2)
_cell_angle_alpha                90
_cell_angle_beta                 105.478(7)
_cell_angle_gamma                90
_cell_volume                     3843.26
_exptl_crystal_colour            colorless
_exptl_crystal_description       block
_cell_formula_units_Z            8
loop_
_atom_site_label
_atom_site_type_symbol
_atom_site_fract_x
_atom_site_fract_y
_atom_site_fract_z
O1 O 0.74126(17) 0.8335(3) 0.57038(8)
O2 O 0.73163(13) 1.0735(3) 0.53239(7)
O3 O 0.65440(14) 1.2931(3) 0.68650(8)
O4 O 0.69137(12) 1.4145(3) 0.62683(8)
N1 N 0.82504(15) 0.9054(3) 0.67359(8)
C1 C 0.88664(15) 1.3174(3) 0.64577(9)
C2 C 0.92216(15) 1.4251(3) 0.61807(10)
C3 C 0.89049(18) 1.4422(4) 0.56824(11)
H1 H 0.844573 1.380702 0.552662
C4 C 0.9260(2) 1.5471(5) 0.54273(13)
H2 H 0.904054 1.556811 0.510234
C5 C 0.9957(2) 1.6399(5) 0.56568(16)
H3 H 1.019514 1.711755 0.548317
C6 C 1.0283(2) 1.6257(4) 0.61265(15)
H4 H 1.074882 1.687205 0.627207
C7 C 0.99333(16) 1.5193(4) 0.64032(11)
C8 C 1.02748(18) 1.5056(4) 0.68961(12)
H5 H 1.074291 1.566166 0.704305
C9 C 0.99255(18) 1.4052(4) 0.71545(11)
H6 H 1.015149 1.397794 0.747946
C10 C 0.92198(17) 1.3112(4) 0.69365(10)
H7 H 0.898779 1.243141 0.712229
C11 C 0.81178(15) 1.2117(3) 0.62274(9)
H8 H 0.777715 1.275292 0.596196
C12 C 0.83816(16) 1.0503(3) 0.60242(10)
H9 H 0.879366 1.078632 0.585627
C13 C 0.87695(18) 0.9323(4) 0.64185(11)
H10 H 0.887014 0.826812 0.628474
H11 H 0.929587 0.976590 0.659681
C14 C 0.76716(16) 1.0184(4) 0.67849(9)
C15 C 0.75864(15) 1.1679(3) 0.65497(9)
C16 C 0.69712(16) 1.2912(4) 0.65925(10)
C17 C 0.63137(19) 1.5442(4) 0.62627(13)
H12 H 0.649802 1.646463 0.614978
H13 H 0.627387 1.563082 0.658216
C18 C 0.5487(2) 1.4998(4) 0.59546(13)
H14 H 0.554104 1.459645 0.565648
H15 H 0.513946 1.596152 0.590374
H16 H 0.524661 1.414924 0.610488
C19 C 0.76591(19) 0.9709(4) 0.56778(10)
C20 C 0.6607(2) 1.0115(5) 0.49712(11)
H17 H 0.639037 1.097523 0.474614
H18 H 0.619301 0.977448 0.512158
H19 H 0.676675 0.918432 0.481184
C21 C 0.8303(2) 0.7379(4) 0.69329(13)
H20 H 0.810035 0.738347 0.720913
H21 H 0.886573 0.701760 0.701704
H22 H 0.797631 0.663692 0.670180
C22 C 0.71504(19) 0.9672(4) 0.71015(11)
H23 H 0.685115 0.868296 0.697912
H24 H 0.676973 1.054431 0.711505
H25 H 0.749610 0.945937 0.741317
O5 O 0.67566(17) 0.6690(3) 0.42983(8)
O6 O 0.70261(14) 0.4290(3) 0.46838(7)
O7 O 0.47905(11) 0.2122(3) 0.31701(7)
O8 O 0.57601(11) 0.0804(2) 0.37210(7)
N2 N 0.66406(14) 0.5928(3) 0.32580(8)
C23 C 0.75265(15) 0.1818(3) 0.35583(9)
C24 C 0.74488(17) 0.1858(4) 0.30824(10)
H26 H 0.703946 0.251277 0.289004
C25 C 0.79684(19) 0.0942(4) 0.28775(11)
H27 H 0.790534 0.100938 0.255353
C26 C 0.85638(18) -0.0045(4) 0.31468(12)
H28 H 0.891099 -0.063462 0.300712
C27 C 0.86588(16) -0.0180(4) 0.36375(11)
C28 C 0.92586(18) -0.1247(4) 0.39204(14)
H29 H 0.959392 -0.187272 0.378109
C29 C 0.9350(2) -0.1366(5) 0.43931(15)
H30 H 0.974677 -0.207251 0.457453
C30 C 0.88521(19) -0.0434(4) 0.46086(12)
H31 H 0.891981 -0.052324 0.493262
C31 C 0.82654(17) 0.0610(4) 0.43460(11)
H32 H 0.794161 0.122799 0.449513
C32 C 0.81413(15) 0.0768(3) 0.38485(10)
C33 C 0.69844(15) 0.2888(3) 0.37817(9)
H33 H 0.688922 0.226603 0.404918
C34 C 0.74325(16) 0.4516(3) 0.39797(10)
H34 H 0.800096 0.423859 0.414865
C35 C 0.74562(17) 0.5683(4) 0.35806(10)
H35 H 0.767523 0.674537 0.371095
H36 H 0.782219 0.523505 0.340631
C36 C 0.60212(16) 0.4806(3) 0.32126(9)
C37 C 0.61506(15) 0.3316(3) 0.34554(9)
C38 C 0.70321(18) 0.5319(4) 0.43257(11)
C39 C 0.6651(2) 0.4917(5) 0.50356(11)
H37 H 0.609719 0.526193 0.488612
H38 H 0.696141 0.584737 0.519361
H39 H 0.664306 0.406114 0.526176
C40 C 0.54969(16) 0.2102(3) 0.34209(9)
C41 C 0.51725(18) -0.0486(4) 0.37261(13)
H40 H 0.546260 -0.151072 0.383539
H41 H 0.483111 -0.066583 0.340721
C42 C 0.4636(2) -0.0046(4) 0.40412(12)
H42 H 0.428519 0.086538 0.390624
H43 H 0.497513 0.026557 0.434708
H44 H 0.430545 -0.098667 0.407223
C43 C 0.6534(2) 0.7536(4) 0.30190(11)
H45 H 0.612484 0.744314 0.272181
H46 H 0.704713 0.787862 0.296518
H47 H 0.636071 0.834283 0.321307
C44 C 0.52081(17) 0.5299(4) 0.28870(10)
H48 H 0.503004 0.632560 0.299303
H49 H 0.480824 0.445069 0.288715
H50 H 0.526579 0.543553 0.257259
loop_
_geom_bond_atom_site_label_1
_geom_bond_atom_site_label_2
_geom_bond_site_symmetry_1
_geom_bond_site_symmetry_2
O1 C19 1_555 1_555
O2 C19 1_555 1_555
O3 C16 1_555 1_555
O4 C16 1_555 1_555
N1 C13 1_555 1_555
C1 C2 1_555 1_555
C2 C3 1_555 1_555
C3 H1 1_555 1_555
C4 C3 1_555 1_555
H2 C4 1_555 1_555
C5 C4 1_555 1_555
H3 C5 1_555 1_555
C6 C5 1_555 1_555
H4 C6 1_555 1_555
C7 C2 1_555 1_555
C8 C7 1_555 1_555
H5 C8 1_555 1_555
C9 C8 1_555 1_555
H6 C9 1_555 1_555
C10 C1 1_555 1_555
H7 C10 1_555 1_555
C11 C1 1_555 1_555
H8 C11 1_555 1_555
C12 C11 1_555 1_555
H9 C12 1_555 1_555
C13 C12 1_555 1_555
H10 C13 1_555 1_555
H11 C13 1_555 1_555
C14 N1 1_555 1_555
C15 C11 1_555 1_555
C16 C15 1_555 1_555
C17 O4 1_555 1_555
H12 C17 1_555 1_555
H13 C17 1_555 1_555
C18 C17 1_555 1_555
H14 C18 1_555 1_555
H15 C18 1_555 1_555
H16 C18 1_555 1_555
C19 C12 1_555 1_555
C20 O2 1_555 1_555
H17 C20 1_555 1_555
H18 C20 1_555 1_555
H19 C20 1_555 1_555
C21 N1 1_555 1_555
H20 C21 1_555 1_555
H21 C21 1_555 1_555
H22 C21 1_555 1_555
C22 C14 1_555 1_555
H23 C22 1_555 1_555
H24 C22 1_555 1_555
H25 C22 1_555 1_555
O5 C38 1_555 1_555
O6 C38 1_555 1_555
O7 C40 1_555 1_555
O8 C40 1_555 1_555
N2 C35 1_555 1_555
C23 C24 1_555 1_555
C24 H26 1_555 1_555
C25 C24 1_555 1_555
H27 C25 1_555 1_555
C26 C25 1_555 1_555
H28 C26 1_555 1_555
C27 C26 1_555 1_555
C28 C27 1_555 1_555
H29 C28 1_555 1_555
C29 C28 1_555 1_555
H30 C29 1_555 1_555
C30 C29 1_555 1_555
H31 C30 1_555 1_555
C31 C30 1_555 1_555
H32 C31 1_555 1_555
C32 C23 1_555 1_555
C33 C23 1_555 1_555
H33 C33 1_555 1_555
C34 C33 1_555 1_555
H34 C34 1_555 1_555
C35 C34 1_555 1_555
H35 C35 1_555 1_555
H36 C35 1_555 1_555
C36 N2 1_555 1_555
C37 C33 1_555 1_555
C38 C34 1_555 1_555
C39 O6 1_555 1_555
H37 C39 1_555 1_555
H38 C39 1_555 1_555
H39 C39 1_555 1_555
C40 C37 1_555 1_555
C41 O8 1_555 1_555
H40 C41 1_555 1_555
H41 C41 1_555 1_555
C42 C41 1_555 1_555
H42 C42 1_555 1_555
H43 C42 1_555 1_555
H44 C42 1_555 1_555
C43 N2 1_555 1_555
H45 C43 1_555 1_555
H46 C43 1_555 1_555
H47 C43 1_555 1_555
C44 C36 1_555 1_555
H48 C44 1_555 1_555
H49 C44 1_555 1_555
H50 C44 1_555 1_555
C6 C7 1_555 1_555
C9 C10 1_555 1_555
C14 C15 1_555 1_555
C27 C32 1_555 1_555
C31 C32 1_555 1_555
C36 C37 1_555 1_555

#END
