
#######################################################################
#
#                 Cambridge Crystallographic Data Centre
#                                CCDC 
#
#######################################################################
#
# If this CIF has been generated from an entry in the Cambridge 
# Structural Database, then it will include bibliographic, chemical, 
# crystal, experimental, refinement or atomic coordinate data resulting 
# from the CCDC's data processing and validation procedures.
#
#######################################################################

data_VEPFIG
_chemical_compound_source        'Streptomyces mediterranei'
_chemical_formula_moiety         'C42 H55 N3 O11 S1,C4 H8 O2,0.5(H2 O1)'
_chemical_name_systematic        'Rifamexil ethyl acetate solvate hemihydrate'
_chemical_properties_biological  
'Rifamexil is active against Mycobacterium avium and other mycobacteria'
_symmetry_cell_setting           monoclinic
_symmetry_space_group_name_H-M   'P 21'
_symmetry_Int_Tables_number      4
_space_group_name_Hall           'P 2yb'
loop_
_symmetry_equiv_pos_site_id
_symmetry_equiv_pos_as_xyz
1 x,y,z
2 -x,1/2+y,-z
_cell_length_a                   18.857(8)
_cell_length_b                   18.168(8)
_cell_length_c                   15.889(6)
_cell_angle_alpha                90
_cell_angle_beta                 108.53(2)
_cell_angle_gamma                90
_cell_volume                     5161.27
_cell_formula_units_Z            4
loop_
_atom_site_label
_atom_site_type_symbol
_atom_site_fract_x
_atom_site_fract_y
_atom_site_fract_z
S1 S -0.0634(2) -0.4020 -0.5771(3)
O1 O -0.1571(5) -0.1320(5) -0.6167(7)
O2 O -0.2211(6) -0.0848(5) -0.5191(8)
O3 O -0.2731(6) -0.2379(6) -0.3040(7)
O4 O -0.2026(6) -0.4129(6) -0.3432(7)
O5 O -0.1997(6) -0.3141(6) -0.1909(7)
O6 O -0.0022(7) -0.1908(7) -0.1580(8)
O7 O 0.1568(5) -0.3045(5) -0.1368(7)
O8 O 0.1935(7) -0.1945(7) -0.0692(8)
O9 O 0.2067(5) -0.1766(6) -0.2776(7)
O10 O 0.1764(5) -0.1765(6) -0.4595(7)
O11 O -0.0911(6) -0.3420(7) -0.7444(7)
N1 N -0.0771(6) -0.2350(6) -0.6651(7)
N2 N -0.1356(6) -0.4081(6) -0.4639(8)
N3 N -0.0577(7) -0.5105(6) -0.4577(10)
C1 C -0.1548(8) -0.1994(8) -0.5800(11)
C2 C -0.1190(7) -0.2547(8) -0.6090(9)
C3 C -0.0875(8) -0.4464(8) -0.4936(11)
C4 C -0.1151(8) -0.3249(7) -0.5650(10)
C5 C -0.1497(7) -0.3371(8) -0.5031(8)
C6 C -0.2171(8) -0.2879(7) -0.4026(10)
C7 C -0.2464(8) -0.2256(9) -0.3750(11)
C8 C -0.2527(8) -0.1576(8) -0.4123(9)
C9 C -0.2241(9) -0.1489(8) -0.4800(11)
C10 C -0.1891(7) -0.2107(8) -0.5120(10)
C11 C -0.1861(7) -0.2813(7) -0.4741(8)
C12 C -0.2221(8) -0.3459(11) -0.3487(10)
C13 C -0.2530(8) -0.3130(10) -0.2742(11)
C14 C -0.3224(9) -0.3552(10) -0.2671(11)
C15 C -0.2873(9) -0.0906(9) -0.3829(11)
C16 C -0.0669(8) -0.2767(9) -0.7278(10)
C17 C -0.0221(8) -0.2461(9) -0.7796(11)
C18 C 0.0538(10) -0.2356(10) -0.7444(12)
C19 C 0.0974(9) -0.2544(9) -0.6474(10)
C20 C 0.1689(11) -0.2509(10) -0.6217(12)
C21 C 0.2201(9) -0.2792(10) -0.5303(11)
C22 C 0.1934(9) -0.2558(9) -0.4561(10)
C23 C 0.2473(9) -0.2750(9) -0.3591(10)
C24 C 0.2132(8) -0.2541(8) -0.2885(10)
C25 C 0.1371(8) -0.2901(8) -0.2975(10)
C26 C 0.1086(7) -0.2691(8) -0.2198(9)
C27 C 0.0302(9) -0.2927(9) -0.2278(11)
C28 C 0.0074(10) -0.2680(10) -0.1475(11)
C29 C -0.0722(11) -0.3073(11) -0.1585(12)
C30 C -0.1360(9) -0.2747(9) -0.1913(10)
C31 C -0.0673(13) -0.2232(14) -0.8779(16)
C32 C 0.2329(13) -0.3608(13) -0.5312(15)
C33 C 0.3215(10) -0.2368(10) -0.3438(12)
C34 C 0.1427(10) -0.3768(10) -0.3066(12)
C35 C -0.0189(15) -0.2676(15) -0.3165(16)
C36 C 0.1974(9) -0.2604(10) -0.0696(11)
C37 C 0.2406(11) -0.3032(12) 0.0070(14)
C38 C -0.0030(13) -0.1568(13) -0.0782(16)
C39 C 0.0072(12) -0.5386(12) -0.4776(14)
C40 C -0.0187(14) -0.5965(15) -0.5540(17)
C41 C -0.0839(9) -0.5477(9) -0.3900(11)
C42 C -0.0339(11) -0.5260(12) -0.2994(14)
O12 O 0.5392(7) 0.0383(7) -0.4401(8)
O13 O 0.5897(8) 0.1506(8) -0.4285(9)
C43 C 0.5531(10) 0.0933(11) -0.4763(12)
C44 C 0.5337(10) 0.1062(11) -0.5724(12)
C45 C 0.6126(19) 0.1391(21) -0.3292(23)
C46 C 0.6542(23) 0.2020(25) -0.2896(28)
O14 O 0.1764(17) -0.1329(22) -0.8401(21)
O15 O 0.2579(10) -0.0590(10) -0.8777(11)
C47 C 0.1879(20) -0.0717(23) -0.8641(22)
C48 C 0.1374(26) -0.0154(27) -0.8780(29)
C49 C 0.3143(19) -0.1144(19) -0.8638(20)
C50 C 0.3876(26) -0.0873(28) -0.8410(30)
O16 O 0.1043(19) 0.5466(20) -0.9086(27)
S2 S 0.2741(2) 0.0088(2) -0.2953(2)
O17 O 0.4044(5) 0.1517(5) -0.4898(6)
O18 O 0.4308(6) 0.2809(5) -0.4594(7)
O19 O 0.3529(5) 0.4058(5) -0.2450(6)
O20 O 0.2577(6) 0.2680(5) -0.1653(7)
O21 O 0.3674(5) 0.3893(5) -0.0958(7)
O22 O 0.5760(5) 0.2721(5) -0.0171(6)
O23 O 0.5415(5) 0.0888(6) 0.0409(7)
O24 O 0.6592(8) 0.1204(7) 0.1165(9)
O25 O 0.6653(5) 0.0437(6) -0.1051(7)
O26 O 0.6078(6) -0.0308(6) -0.2619(7)
O27 O 0.2602(5) -0.0499(5) -0.4672(6)
N4 N 0.3630(6) 0.0217(6) -0.4476(8)
N5 N 0.2715(6) 0.1360(6) -0.2283(7)
N6 N 0.2328(7) 0.0458(6) -0.1518(8)
C51 C 0.3694(8) 0.1500(7) -0.4276(9)
C52 C 0.3445(7) 0.0839(7) -0.4057(9)
C53 C 0.2561(8) 0.0666(7) -0.2153(10)
C54 C 0.3095(7) 0.0836(7) -0.3411(9)
C55 C 0.3030(7) 0.1475(7) -0.2971(8)
C56 C 0.3240(8) 0.2826(7) -0.2715(8)
C57 C 0.3561(7) 0.3468(7) -0.2961(9)
C58 C 0.3931(8) 0.3493(7) -0.3556(10)
C59 C 0.3960(8) 0.2829(8) -0.4029(11)
C60 C 0.3628(7) 0.2171(6) -0.3836(9)
C61 C 0.3305(7) 0.2162(7) -0.3149(9)
C62 C 0.2926(8) 0.3023(8) -0.2074(9)
C63 C 0.3148(7) 0.3827(7) -0.1839(10)
C64 C 0.2509(8) 0.4349(9) -0.1857(10)
C65 C 0.4270(11) 0.4203(11) -0.3778(13)
C66 C 0.3195(7) -0.0397(7) -0.4801(8)
C67 C 0.3522(8) -0.0902(8) -0.5289(9)
C68 C 0.4170(8) -0.1265(8) -0.4885(9)
C69 C 0.4591(8) -0.1220(8) -0.3971(10)
C70 C 0.5242(9) -0.1578(8) -0.3607(9)
C71 C 0.5693(7) -0.1581(7) -0.2626(9)
C72 C 0.5707(7) -0.0818(7) -0.2167(9)
C73 C 0.6088(7) -0.0791(7) -0.1211(9)
C74 C 0.6139(7) -0.0028(7) -0.0776(8)
C75 C 0.5389(7) 0.0408(8) -0.1027(9)
C76 C 0.5552(7) 0.1096(7) -0.0417(8)
C77 C 0.4983(8) 0.1722(7) -0.0791(9)
C78 C 0.5088(7) 0.2366(7) -0.0179(8)
C79 C 0.4426(8) 0.2853(9) -0.0363(10)
C80 C 0.4345(9) 0.3464(9) -0.0784(11)
C81 C 0.3069(9) -0.0979(9) -0.6249(10)
C82 C 0.5336(8) -0.2150(9) -0.2149(10)
C83 C 0.6875(9) -0.1149(9) -0.0926(10)
C84 C 0.4753(8) -0.0059(8) -0.0909(10)
C85 C 0.5048(9) 0.1987(9) -0.1727(11)
C86 C 0.6012(9) 0.0992(9) 0.1182(10)
C87 C 0.5744(11) 0.0776(11) 0.1958(13)
C88 C 0.6131(9) 0.3108(10) 0.0644(11)
C89 C 0.2218(9) 0.0989(9) -0.0852(10)
C90 C 0.2911(10) 0.1096(11) -0.0115(12)
C91 C 0.2078(9) -0.0314(9) -0.1479(11)
C92 C 0.1237(11) -0.0398(12) -0.1865(12)
loop_
_geom_bond_atom_site_label_1
_geom_bond_atom_site_label_2
_geom_bond_site_symmetry_1
_geom_bond_site_symmetry_2
S1 C3 1_555 1_555
O1 C1 1_555 1_555
O2 C9 1_555 1_555
O3 C7 1_555 1_555
O4 C12 1_555 1_555
O5 C13 1_555 1_555
O6 C28 1_555 1_555
O7 C26 1_555 1_555
O8 C36 1_555 1_555
O9 C24 1_555 1_555
O10 C22 1_555 1_555
O11 C16 1_555 1_555
N1 C2 1_555 1_555
N2 C3 1_555 1_555
N3 C3 1_555 1_555
C1 C2 1_555 1_555
C2 C4 1_555 1_555
C4 S1 1_555 1_555
C5 N2 1_555 1_555
C6 C7 1_555 1_555
C7 C8 1_555 1_555
C8 C9 1_555 1_555
C9 C10 1_555 1_555
C10 C1 1_555 1_555
C11 C5 1_555 1_555
C12 C6 1_555 1_555
C13 O3 1_555 1_555
C14 C13 1_555 1_555
C15 C8 1_555 1_555
C16 N1 1_555 1_555
C17 C16 1_555 1_555
C18 C17 1_555 1_555
C19 C18 1_555 1_555
C20 C19 1_555 1_555
C21 C20 1_555 1_555
C22 C21 1_555 1_555
C23 C22 1_555 1_555
C24 C23 1_555 1_555
C25 C24 1_555 1_555
C26 C25 1_555 1_555
C27 C26 1_555 1_555
C28 C27 1_555 1_555
C29 C28 1_555 1_555
C30 O5 1_555 1_555
C31 C17 1_555 1_555
C32 C21 1_555 1_555
C33 C23 1_555 1_555
C34 C25 1_555 1_555
C35 C27 1_555 1_555
C36 O7 1_555 1_555
C37 C36 1_555 1_555
C38 O6 1_555 1_555
C39 N3 1_555 1_555
C40 C39 1_555 1_555
C41 N3 1_555 1_555
C42 C41 1_555 1_555
O12 C43 1_555 1_555
O13 C43 1_555 1_555
C43 C44 1_555 1_555
C45 O13 1_555 1_555
C46 C45 1_555 1_555
O14 C47 1_555 1_555
O15 C47 1_555 1_555
C47 C48 1_555 1_555
C49 O15 1_555 1_555
C50 C49 1_555 1_555
S2 C53 1_555 1_555
O17 C51 1_555 1_555
O18 C59 1_555 1_555
O19 C57 1_555 1_555
O20 C62 1_555 1_555
O21 C63 1_555 1_555
O22 C78 1_555 1_555
O23 C76 1_555 1_555
O24 C86 1_555 1_555
O25 C74 1_555 1_555
O26 C72 1_555 1_555
O27 C66 1_555 1_555
N4 C52 1_555 1_555
N5 C53 1_555 1_555
N6 C53 1_555 1_555
C51 C52 1_555 1_555
C52 C54 1_555 1_555
C54 S2 1_555 1_555
C55 N5 1_555 1_555
C56 C57 1_555 1_555
C57 C58 1_555 1_555
C58 C59 1_555 1_555
C59 C60 1_555 1_555
C60 C51 1_555 1_555
C61 C55 1_555 1_555
C62 C56 1_555 1_555
C63 O19 1_555 1_555
C64 C63 1_555 1_555
C65 C58 1_555 1_555
C66 N4 1_555 1_555
C67 C66 1_555 1_555
C68 C67 1_555 1_555
C69 C68 1_555 1_555
C70 C69 1_555 1_555
C71 C70 1_555 1_555
C72 C71 1_555 1_555
C73 C72 1_555 1_555
C74 C73 1_555 1_555
C75 C74 1_555 1_555
C76 C75 1_555 1_555
C77 C76 1_555 1_555
C78 C77 1_555 1_555
C79 C78 1_555 1_555
C80 O21 1_555 1_555
C81 C67 1_555 1_555
C82 C71 1_555 1_555
C83 C73 1_555 1_555
C84 C75 1_555 1_555
C85 C77 1_555 1_555
C86 O23 1_555 1_555
C87 C86 1_555 1_555
C88 O22 1_555 1_555
C89 N6 1_555 1_555
C90 C89 1_555 1_555
C91 N6 1_555 1_555
C92 C91 1_555 1_555
C4 C5 1_555 1_555
C6 C11 1_555 1_555
C10 C11 1_555 1_555
C12 C13 1_555 1_555
C29 C30 1_555 1_555
C54 C55 1_555 1_555
C56 C61 1_555 1_555
C60 C61 1_555 1_555
C62 C63 1_555 1_555
C79 C80 1_555 1_555

#END
