
#######################################################################
#
#                 Cambridge Crystallographic Data Centre
#                                CCDC 
#
#######################################################################
#
# If this CIF has been generated from an entry in the Cambridge 
# Structural Database, then it will include bibliographic, chemical, 
# crystal, experimental, refinement or atomic coordinate data resulting 
# from the CCDC's data processing and validation procedures.
#
#######################################################################

data_VEPFUU
_chemical_formula_moiety         'C18 H22 Br1 N1 O4'
_chemical_name_systematic        
'methyl 4-(4-bromophenyl)-5-(1-hydroxy-2-methylpropylidene)-1-methyl-6-oxopiperidine-3-carboxylate'
_symmetry_cell_setting           monoclinic
_symmetry_space_group_name_H-M   'P 21/c'
_symmetry_Int_Tables_number      14
_space_group_name_Hall           '-P 2ybc'
loop_
_symmetry_equiv_pos_site_id
_symmetry_equiv_pos_as_xyz
1 x,y,z
2 -x,1/2+y,1/2-z
3 -x,-y,-z
4 x,1/2-y,1/2+z
_cell_length_a                   10.3697(19)
_cell_length_b                   8.900(2)
_cell_length_c                   40.651(7)
_cell_angle_alpha                90
_cell_angle_beta                 94.374(18)
_cell_angle_gamma                90
_cell_volume                     3740.77
_exptl_crystal_colour            colorless
_exptl_crystal_description       block
_cell_formula_units_Z            8
loop_
_atom_site_label
_atom_site_type_symbol
_atom_site_fract_x
_atom_site_fract_y
_atom_site_fract_z
Br1 Br 0.42228(9) 0.65226(11) 0.06715(2)
O1 O 0.9028(4) 0.2357(6) 0.22332(11)
O2 O 0.8318(4) 0.0303(5) 0.18548(11)
H1 H 0.876091 0.066368 0.201106
O3 O 0.3915(4) 0.5987(6) 0.22330(13)
O4 O 0.3118(4) 0.3657(6) 0.22653(11)
N1 N 0.7681(5) 0.4201(7) 0.23633(13)
C1 C 0.7903(6) 0.2928(8) 0.22034(15)
C2 C 0.6874(5) 0.2227(7) 0.19911(14)
C3 C 0.5529(5) 0.2912(7) 0.19580(14)
H2 H 0.490656 0.208337 0.195708
C4 C 0.5360(5) 0.3862(7) 0.22701(15)
H3 H 0.540242 0.317741 0.245941
C5 C 0.6441(5) 0.4987(7) 0.23273(16)
H4 H 0.643219 0.567748 0.214256
H5 H 0.632129 0.556316 0.252518
C6 C 0.5243(6) 0.3793(7) 0.16390(16)
C7 C 0.3970(6) 0.3906(8) 0.15064(16)
H6 H 0.330813 0.343223 0.160858
C8 C 0.3694(7) 0.4745(9) 0.12162(17)
H7 H 0.284466 0.482656 0.112631
C9 C 0.4660(8) 0.5437(9) 0.10662(17)
C10 C 0.5909(7) 0.5337(8) 0.11879(17)
H8 H 0.656699 0.579792 0.108182
C11 C 0.6173(6) 0.4528(8) 0.14746(16)
H9 H 0.702752 0.447479 0.156207
C12 C 0.7149(5) 0.0969(8) 0.18301(15)
C13 C 0.6195(6) 0.0075(8) 0.16042(16)
H10 H 0.540748 0.067853 0.156477
C14 C 0.5836(7) -0.1369(9) 0.17784(18)
H11 H 0.658985 -0.198947 0.181590
H12 H 0.518814 -0.190049 0.164292
H13 H 0.550342 -0.112473 0.198587
C15 C 0.6719(7) -0.0244(10) 0.12721(17)
H14 H 0.699796 0.067926 0.117792
H15 H 0.605268 -0.068990 0.112697
H16 H 0.743881 -0.092177 0.130174
C16 C 0.4063(6) 0.4653(9) 0.22568(16)
C17 C 0.1830(6) 0.4299(9) 0.2249(2)
H17 H 0.167741 0.485498 0.204758
H18 H 0.175723 0.495968 0.243356
H19 H 0.120333 0.350831 0.225574
C18 C 0.8703(6) 0.4919(9) 0.25718(17)
H20 H 0.935799 0.419204 0.263669
H21 H 0.834951 0.532157 0.276462
H22 H 0.907690 0.571623 0.245162
Br2 Br 0.94742(8) 0.65999(11) 0.16464(2)
O5 O 0.9906(5) 0.2995(6) -0.02481(11)
O6 O 0.7760(5) 0.2226(7) -0.00951(12)
H23 H 0.831895 0.254692 -0.020878
O7 O 1.3404(6) 0.1030(7) 0.09867(15)
O8 O 1.1717(5) -0.0451(7) 0.10478(13)
N2 N 1.1666(6) 0.2844(7) 0.01094(15)
C19 C 1.0380(7) 0.2608(9) 0.00355(18)
C20 C 0.9579(7) 0.1983(8) 0.02812(15)
C21 C 1.0209(6) 0.1546(8) 0.06218(15)
H24 H 0.975854 0.065708 0.069715
C22 C 1.1600(7) 0.1104(9) 0.05801(17)
H25 H 1.157003 0.024457 0.042896
C23 C 1.0080(6) 0.2785(9) 0.08747(17)
C24 C 1.0114(6) 0.4317(9) 0.07880(17)
H26 H 1.024912 0.458088 0.057197
C25 C 0.9950(6) 0.5433(9) 0.10162(18)
H27 H 0.995714 0.643733 0.095296
C26 C 0.9773(6) 0.5053(9) 0.13403(17)
C27 C 0.9757(6) 0.3586(9) 0.14327(17)
H28 H 0.965086 0.333721 0.165115
C28 C 0.9896(5) 0.2469(8) 0.12048(16)
H29 H 0.986670 0.147179 0.127223
C29 C 0.8297(7) 0.1876(8) 0.02067(17)
C30 C 0.7323(7) 0.1412(9) 0.04399(16)
H30 H 0.779225 0.114249 0.065001
C31 C 0.6584(11) 0.0066(12) 0.0317(2)
H31 H 0.627792 0.021866 0.009015
H32 H 0.586106 -0.008878 0.044666
H33 H 0.713709 -0.080012 0.033318
C32 C 0.6428(9) 0.2677(11) 0.0504(3)
H34 H 0.692381 0.356320 0.056127
H35 H 0.591911 0.241331 0.068328
H36 H 0.586760 0.286669 0.030985
C33 C 1.2347(8) 0.0604(10) 0.0892(2)
C34 C 1.2374(8) -0.1047(10) 0.1357(2)
H37 H 1.323800 -0.134789 0.131809
H38 H 1.190394 -0.189776 0.143032
H39 H 1.240583 -0.028031 0.152392
C35 C 1.2315(7) 0.2340(9) 0.04179(19)
H40 H 1.241557 0.318659 0.056801
H41 H 1.317282 0.198431 0.037725
C36 C 1.2398(7) 0.3765(10) -0.0103(2)
H42 H 1.212164 0.356041 -0.032970
H43 H 1.330215 0.353860 -0.006477
H44 H 1.225571 0.480663 -0.005669
loop_
_geom_bond_atom_site_label_1
_geom_bond_atom_site_label_2
_geom_bond_site_symmetry_1
_geom_bond_site_symmetry_2
Br1 C9 1_555 1_555
O1 C1 1_555 1_555
O2 H1 1_555 1_555
O3 C16 1_555 1_555
O4 C16 1_555 1_555
N1 C1 1_555 1_555
C1 C2 1_555 1_555
C2 C3 1_555 1_555
C3 H2 1_555 1_555
C4 C3 1_555 1_555
H3 C4 1_555 1_555
C5 N1 1_555 1_555
H4 C5 1_555 1_555
H5 C5 1_555 1_555
C6 C3 1_555 1_555
C7 C6 1_555 1_555
H6 C7 1_555 1_555
C8 C7 1_555 1_555
H7 C8 1_555 1_555
C9 C8 1_555 1_555
C10 C9 1_555 1_555
H8 C10 1_555 1_555
C11 C6 1_555 1_555
H9 C11 1_555 1_555
C12 O2 1_555 1_555
C13 C12 1_555 1_555
H10 C13 1_555 1_555
C14 C13 1_555 1_555
H11 C14 1_555 1_555
H12 C14 1_555 1_555
H13 C14 1_555 1_555
C15 C13 1_555 1_555
H14 C15 1_555 1_555
H15 C15 1_555 1_555
H16 C15 1_555 1_555
C16 C4 1_555 1_555
C17 O4 1_555 1_555
H17 C17 1_555 1_555
H18 C17 1_555 1_555
H19 C17 1_555 1_555
C18 N1 1_555 1_555
H20 C18 1_555 1_555
H21 C18 1_555 1_555
H22 C18 1_555 1_555
Br2 C26 1_555 1_555
O5 C19 1_555 1_555
O6 H23 1_555 1_555
O7 C33 1_555 1_555
O8 C33 1_555 1_555
N2 C19 1_555 1_555
C19 C20 1_555 1_555
C20 C21 1_555 1_555
C21 H24 1_555 1_555
C22 C21 1_555 1_555
H25 C22 1_555 1_555
C23 C21 1_555 1_555
C24 C23 1_555 1_555
H26 C24 1_555 1_555
C25 C24 1_555 1_555
H27 C25 1_555 1_555
C26 C25 1_555 1_555
C27 C26 1_555 1_555
H28 C27 1_555 1_555
C28 C23 1_555 1_555
H29 C28 1_555 1_555
C29 O6 1_555 1_555
C30 C29 1_555 1_555
H30 C30 1_555 1_555
C31 C30 1_555 1_555
H31 C31 1_555 1_555
H32 C31 1_555 1_555
H33 C31 1_555 1_555
C32 C30 1_555 1_555
H34 C32 1_555 1_555
H35 C32 1_555 1_555
H36 C32 1_555 1_555
C33 C22 1_555 1_555
C34 O8 1_555 1_555
H37 C34 1_555 1_555
H38 C34 1_555 1_555
H39 C34 1_555 1_555
C35 N2 1_555 1_555
H40 C35 1_555 1_555
H41 C35 1_555 1_555
C36 N2 1_555 1_555
H42 C36 1_555 1_555
H43 C36 1_555 1_555
H44 C36 1_555 1_555
C2 C12 1_555 1_555
C4 C5 1_555 1_555
C10 C11 1_555 1_555
C20 C29 1_555 1_555
C22 C35 1_555 1_555
C27 C28 1_555 1_555

#END
