
#######################################################################
#
#                 Cambridge Crystallographic Data Centre
#                                CCDC 
#
#######################################################################
#
# If this CIF has been generated from an entry in the Cambridge 
# Structural Database, then it will include bibliographic, chemical, 
# crystal, experimental, refinement or atomic coordinate data resulting 
# from the CCDC's data processing and validation procedures.
#
#######################################################################

data_VEPFII
_chemical_formula_moiety         'C22 H25 N1 O4'
_chemical_name_systematic        
'methyl 5-(1-hydroxy-2-methylpropylidene)-1-methyl-4-(naphthalen-1-yl)-6-oxopiperidine-3-carboxylate'
_symmetry_cell_setting           monoclinic
_symmetry_space_group_name_H-M   'P 21/c'
_symmetry_Int_Tables_number      14
_space_group_name_Hall           '-P 2ybc'
loop_
_symmetry_equiv_pos_site_id
_symmetry_equiv_pos_as_xyz
1 x,y,z
2 -x,1/2+y,1/2-z
3 -x,-y,-z
4 x,1/2-y,1/2+z
_cell_length_a                   8.5277(6)
_cell_length_b                   28.377(2)
_cell_length_c                   8.7497(6)
_cell_angle_alpha                90
_cell_angle_beta                 108.934(7)
_cell_angle_gamma                90
_cell_volume                     2002.78
_exptl_crystal_colour            'dark red'
_exptl_crystal_description       block
_cell_formula_units_Z            4
loop_
_atom_site_label
_atom_site_type_symbol
_atom_site_fract_x
_atom_site_fract_y
_atom_site_fract_z
O1 O 0.6617(2) 0.04000(6) 1.14400(19)
O2 O 0.81177(18) 0.06717(7) 0.9623(2)
H1 H 0.794073 0.052338 1.035485
O3 O 0.5360(3) 0.20229(7) 1.0974(2)
O4 O 0.3995(3) 0.17502(7) 1.2554(2)
N1 N 0.4129(2) 0.06999(7) 1.1309(2)
C1 C 0.2822(2) 0.11287(8) 0.7085(2)
C2 C 0.2679(3) 0.06540(8) 0.6789(3)
H2 H 0.334965 0.044860 0.755256
C3 C 0.1550(3) 0.04677(9) 0.5368(3)
H3 H 0.148022 0.014363 0.520235
C4 C 0.0564(3) 0.07609(10) 0.4242(3)
H4 H -0.017832 0.063549 0.330291
C5 C 0.0646(3) 0.12558(9) 0.4471(3)
C6 C -0.0394(3) 0.15619(12) 0.3315(3)
H5 H -0.112458 0.143788 0.236628
C7 C -0.0350(4) 0.20357(13) 0.3560(4)
H6 H -0.105372 0.223247 0.278844
C8 C 0.0760(3) 0.22274(10) 0.4980(4)
H7 H 0.079293 0.255148 0.514517
C9 C 0.1794(3) 0.19389(8) 0.6122(3)
H8 H 0.252391 0.207144 0.705411
C10 C 0.1781(2) 0.14435(8) 0.5917(2)
C11 C 0.4069(2) 0.13161(7) 0.8643(2)
H9 H 0.454686 0.160576 0.837241
C12 C 0.5488(2) 0.09833(7) 0.9436(2)
C13 C 0.5437(3) 0.06799(8) 1.0778(2)
C14 C 0.2698(3) 0.10040(9) 1.0578(3)
H10 H 0.219401 0.108998 1.138563
H11 H 0.187937 0.083402 0.972183
C15 C 0.3211(3) 0.14460(8) 0.9891(3)
H12 H 0.219925 0.162078 0.932055
C16 C 0.6832(2) 0.09553(8) 0.8926(2)
C17 C 0.7028(3) 0.12326(9) 0.7542(3)
H13 H 0.594726 0.136581 0.692632
C18 C 0.8230(4) 0.16354(12) 0.8178(4)
H14 H 0.778744 0.184598 0.879300
H15 H 0.839166 0.180280 0.728696
H16 H 0.927253 0.151246 0.885551
C19 C 0.7605(5) 0.09159(14) 0.6414(4)
H17 H 0.865366 0.077697 0.700388
H18 H 0.772184 0.110035 0.553776
H19 H 0.680241 0.067151 0.599362
C20 C 0.4006(4) 0.03771(10) 1.2562(3)
H20 H 0.310438 0.016216 1.211135
H21 H 0.381034 0.055337 1.341943
H22 H 0.502132 0.020335 1.298068
C21 C 0.4312(3) 0.17702(8) 1.1175(3)
C22 C 0.4969(4) 0.20543(12) 1.3836(3)
H23 H 0.493488 0.237041 1.343604
H24 H 0.609565 0.194562 1.421190
H25 H 0.452253 0.204877 1.471190
loop_
_geom_bond_atom_site_label_1
_geom_bond_atom_site_label_2
_geom_bond_site_symmetry_1
_geom_bond_site_symmetry_2
O1 C13 1_555 1_555
O2 H1 1_555 1_555
O3 C21 1_555 1_555
O4 C21 1_555 1_555
N1 C13 1_555 1_555
C1 C2 1_555 1_555
C2 H2 1_555 1_555
C3 C2 1_555 1_555
H3 C3 1_555 1_555
C4 C3 1_555 1_555
H4 C4 1_555 1_555
C5 C4 1_555 1_555
C6 C5 1_555 1_555
H5 C6 1_555 1_555
C7 C6 1_555 1_555
H6 C7 1_555 1_555
C8 C7 1_555 1_555
H7 C8 1_555 1_555
C9 C8 1_555 1_555
H8 C9 1_555 1_555
C10 C1 1_555 1_555
C11 C1 1_555 1_555
H9 C11 1_555 1_555
C12 C11 1_555 1_555
C13 C12 1_555 1_555
C14 N1 1_555 1_555
H10 C14 1_555 1_555
H11 C14 1_555 1_555
C15 C11 1_555 1_555
H12 C15 1_555 1_555
C16 O2 1_555 1_555
C17 C16 1_555 1_555
H13 C17 1_555 1_555
C18 C17 1_555 1_555
H14 C18 1_555 1_555
H15 C18 1_555 1_555
H16 C18 1_555 1_555
C19 C17 1_555 1_555
H17 C19 1_555 1_555
H18 C19 1_555 1_555
H19 C19 1_555 1_555
C20 N1 1_555 1_555
H20 C20 1_555 1_555
H21 C20 1_555 1_555
H22 C20 1_555 1_555
C21 C15 1_555 1_555
C22 O4 1_555 1_555
H23 C22 1_555 1_555
H24 C22 1_555 1_555
H25 C22 1_555 1_555
C5 C10 1_555 1_555
C9 C10 1_555 1_555
C12 C16 1_555 1_555
C14 C15 1_555 1_555

#END
