
#######################################################################
#
#                 Cambridge Crystallographic Data Centre
#                                CCDC 
#
#######################################################################
#
# If this CIF has been generated from an entry in the Cambridge 
# Structural Database, then it will include bibliographic, chemical, 
# crystal, experimental, refinement or atomic coordinate data resulting 
# from the CCDC's data processing and validation procedures.
#
#######################################################################

data_VEPJEI
_chemical_formula_moiety         'C2 H4 Br1 Cl4 N1 O2 P2'
_chemical_name_systematic        
'N-(2-bromoethyl)imidodiphosphoryl tetrachloride'
_symmetry_cell_setting           monoclinic
_symmetry_space_group_name_H-M   'P 21/c'
_symmetry_Int_Tables_number      14
_space_group_name_Hall           '-P 2ybc'
loop_
_symmetry_equiv_pos_site_id
_symmetry_equiv_pos_as_xyz
1 x,y,z
2 -x,1/2+y,1/2-z
3 -x,-y,-z
4 x,1/2-y,1/2+z
_cell_length_a                   11.2852(7)
_cell_length_b                   7.8547(5)
_cell_length_c                   12.5336(9)
_cell_angle_alpha                90
_cell_angle_beta                 102.540(7)
_cell_angle_gamma                90
_cell_volume                     1084.5
_exptl_crystal_colour            'yellow / colorless'
_exptl_crystal_description       plate
_cell_formula_units_Z            4
loop_
_atom_site_label
_atom_site_type_symbol
_atom_site_fract_x
_atom_site_fract_y
_atom_site_fract_z
Br1 Br 0.59366(4) 0.13103(7) 0.36096(4)
P1 P 0.70093(11) -0.31556(16) 0.53948(10)
Cl1 Cl 0.94821(10) -0.16000(16) 0.72642(10)
Cl2 Cl 0.56019(11) -0.34359(16) 0.41544(10)
P2 P 0.83980(10) -0.01178(15) 0.61692(10)
Cl3 Cl 0.71638(11) 0.06879(17) 0.69650(10)
Cl4 Cl 0.81267(13) -0.50141(16) 0.51504(12)
O1 O 0.9074(3) 0.1252(4) 0.5788(3)
O2 O 0.6735(4) -0.3207(5) 0.6472(3)
C1 C 0.7942(4) -0.1086(7) 0.4038(4)
H1 H 0.7499 -0.1964 0.3539
H2 H 0.8820 -0.1259 0.4084
N1 N 0.7685(4) -0.1348(5) 0.5153(3)
C2 C 0.7589(4) 0.0652(6) 0.3548(4)
H3 H 0.7665 0.0652 0.2776
H4 H 0.8162 0.1510 0.3945
loop_
_geom_bond_atom_site_label_1
_geom_bond_atom_site_label_2
_geom_bond_site_symmetry_1
_geom_bond_site_symmetry_2
Br1 C2 1_555 1_555
P1 Cl2 1_555 1_555
Cl1 P2 1_555 1_555
P2 Cl3 1_555 1_555
Cl4 P1 1_555 1_555
O1 P2 1_555 1_555
O2 P1 1_555 1_555
C1 H1 1_555 1_555
H2 C1 1_555 1_555
N1 P1 1_555 1_555
C2 C1 1_555 1_555
H3 C2 1_555 1_555
H4 C2 1_555 1_555
P2 N1 1_555 1_555
C1 N1 1_555 1_555

#END
