
#######################################################################
#
#                 Cambridge Crystallographic Data Centre
#                                CCDC 
#
#######################################################################
#
# If this CIF has been generated from an entry in the Cambridge 
# Structural Database, then it will include bibliographic, chemical, 
# crystal, experimental, refinement or atomic coordinate data resulting 
# from the CCDC's data processing and validation procedures.
#
#######################################################################

data_VEPJAE
_chemical_formula_moiety         'C10 H8 F3 I1 N2 O2'
_chemical_name_systematic        
(furan-2-yl)[5-(iodomethyl)-3-(trifluoromethyl)-4,5-dihydro-1H-pyrazol-1-yl]methanone
_symmetry_cell_setting           monoclinic
_symmetry_space_group_name_H-M   'P 21/c'
_symmetry_Int_Tables_number      14
_space_group_name_Hall           '-P 2ybc'
loop_
_symmetry_equiv_pos_site_id
_symmetry_equiv_pos_as_xyz
1 x,y,z
2 -x,1/2+y,1/2-z
3 -x,-y,-z
4 x,1/2-y,1/2+z
_cell_length_a                   8.7410(6)
_cell_length_b                   5.5915(4)
_cell_length_c                   25.644(3)
_cell_angle_alpha                90
_cell_angle_beta                 95.471(9)
_cell_angle_gamma                90
_cell_volume                     1247.65
_cell_formula_units_Z            4
loop_
_atom_site_label
_atom_site_type_symbol
_atom_site_fract_x
_atom_site_fract_y
_atom_site_fract_z
I1 I 0.33837(5) 0.92246(8) 0.33801(2)
F1 F 0.7838(10) 1.4220(13) 0.5059(2)
F2 F 0.5773(8) 1.2405(12) 0.51389(19)
F3 F 0.7858(8) 1.0517(12) 0.51550(19)
O1 O 0.9391(5) 0.6166(7) 0.29849(16)
O2 O 0.7583(5) 0.9868(7) 0.27653(17)
N1 N 0.7138(5) 1.0619(9) 0.35932(19)
N2 N 0.7529(6) 1.0371(10) 0.4120(2)
C1 C 1.0307(7) 0.4414(11) 0.3194(3)
H1 H 1.0786 0.3281 0.3000
C2 C 1.0439(7) 0.4512(12) 0.3719(3)
H2 H 1.1014 0.3501 0.3950
C3 C 0.9530(7) 0.6459(10) 0.3849(3)
H3 H 0.9389 0.6989 0.4185
C4 C 0.8897(6) 0.7421(11) 0.3391(2)
C5 C 0.7855(6) 0.9381(11) 0.3222(2)
C6 C 0.6131(6) 1.2689(10) 0.3458(2)
H4 H 0.6721 1.3889 0.3284
C7 C 0.5848(7) 1.3638(11) 0.4002(2)
H5 H 0.6167 1.5293 0.4046
H6 H 0.4776 1.3495 0.4066
C8 C 0.6836(7) 1.2025(12) 0.4350(3)
C9 C 0.7101(12) 1.226(2) 0.4923(4)
C10 C 0.4696(7) 1.2072(11) 0.3098(2)
H7 H 0.5002 1.1637 0.2757
H8 H 0.4052 1.3483 0.3053
loop_
_geom_bond_atom_site_label_1
_geom_bond_atom_site_label_2
_geom_bond_site_symmetry_1
_geom_bond_site_symmetry_2
I1 C10 1_555 1_555
F1 C9 1_555 1_555
F2 C9 1_555 1_555
F3 C9 1_555 1_555
O1 C1 1_555 1_555
O2 C5 1_555 1_555
N1 N2 1_555 1_555
N2 C8 1_555 1_555
C1 H1 1_555 1_555
C2 C1 1_555 1_555
H2 C2 1_555 1_555
C3 C2 1_555 1_555
H3 C3 1_555 1_555
C4 O1 1_555 1_555
C5 N1 1_555 1_555
C6 N1 1_555 1_555
H4 C6 1_555 1_555
C7 C6 1_555 1_555
H5 C7 1_555 1_555
H6 C7 1_555 1_555
C8 C7 1_555 1_555
C9 C8 1_555 1_555
C10 C6 1_555 1_555
H7 C10 1_555 1_555
H8 C10 1_555 1_555
C3 C4 1_555 1_555
C4 C5 1_555 1_555

#END
