
#######################################################################
#
#                 Cambridge Crystallographic Data Centre
#                                CCDC 
#
#######################################################################
#
# If this CIF has been generated from an entry in the Cambridge 
# Structural Database, then it will include bibliographic, chemical, 
# crystal, experimental, refinement or atomic coordinate data resulting 
# from the CCDC's data processing and validation procedures.
#
#######################################################################

data_VEPLIM
_chemical_name_common            2,3-cistriol
_chemical_formula_moiety         'C17 H25 N1 O9'
_chemical_name_systematic        
'Ethyl anti-syn-anti-3,4,5-triacetoxy-2-acetomidocyclohexane-1-carboxylate'
_symmetry_cell_setting           orthorhombic
_symmetry_space_group_name_H-M   'P b c a'
_symmetry_Int_Tables_number      61
_space_group_name_Hall           '-P 2ac 2ab'
loop_
_symmetry_equiv_pos_site_id
_symmetry_equiv_pos_as_xyz
1 x,y,z
2 1/2-x,-y,1/2+z
3 -x,1/2+y,1/2-z
4 1/2+x,1/2-y,-z
5 -x,-y,-z
6 1/2+x,y,1/2-z
7 x,1/2-y,1/2+z
8 1/2-x,1/2+y,z
_cell_length_a                   19.335(3)
_cell_length_b                   9.4556(16)
_cell_length_c                   21.594(4)
_cell_angle_alpha                90
_cell_angle_beta                 90
_cell_angle_gamma                90
_cell_volume                     3947.9
_exptl_crystal_colour            colorless
_exptl_crystal_description       brick
_chemical_melting_point          '469-471 K'
_cell_formula_units_Z            8
loop_
_atom_site_label
_atom_site_type_symbol
_atom_site_fract_x
_atom_site_fract_y
_atom_site_fract_z
O1 O 0.15942(7) 0.39196(14) 0.32337(5)
O2 O 0.20002(7) 0.59475(13) 0.28306(6)
O3 O -0.00423(8) 0.16599(14) 0.27387(7)
O4 O 0.05462(6) 0.40874(12) 0.11206(5)
O5 O -0.05555(10) 0.3266(2) 0.10767(10)
O7 O 0.12701(6) 0.20155(13) 0.04659(5)
O8 O 0.08642(8) -0.01529(15) 0.06866(6)
O9 O 0.26118(6) 0.25226(13) 0.09216(5)
O10 O 0.26601(8) 0.39092(16) 0.00739(6)
N1 N 0.03073(7) 0.37834(15) 0.23982(6)
H1 H 0.0214(9) 0.464(2) 0.2369(8)
C1 C 0.15163(8) 0.43103(18) 0.21335(7)
H2 H 0.1377(9) 0.5150(19) 0.1922(8)
C2 C 0.09288(8) 0.32335(17) 0.21105(7)
H3 H 0.1069(8) 0.2387(18) 0.2313(7)
C3 C 0.07698(8) 0.28188(17) 0.14388(7)
H4 H 0.0411(9) 0.2140(19) 0.1414(8)
C4 C 0.14099(9) 0.22560(19) 0.11148(7)
H5 H 0.1535(9) 0.1360(19) 0.1300(8)
C5 C 0.20137(8) 0.32695(19) 0.11512(7)
H6 H 0.1929(9) 0.408(2) 0.0924(8)
C6 C 0.21633(9) 0.3691(2) 0.18188(8)
H7 H 0.2297(9) 0.284(2) 0.2030(9)
H8 H 0.2540(10) 0.437(2) 0.1835(8)
C7 C 0.16939(8) 0.46845(18) 0.27970(8)
C8 C 0.22276(12) 0.6394(2) 0.34496(10)
H9 H 0.2234(11) 0.741(3) 0.3402(10)
H10 H 0.1841(13) 0.612(3) 0.3731(12)
C9 C 0.29161(13) 0.5794(3) 0.36106(11)
H11 H 0.2896(13) 0.476(3) 0.3645(12)
H12 H 0.3277(13) 0.606(3) 0.3291(12)
H13 H 0.3087(14) 0.617(3) 0.4024(13)
C10 C -0.01525(9) 0.29312(18) 0.26709(8)
C11 C -0.08147(12) 0.3612(2) 0.28803(11)
H14 H -0.0842(13) 0.458(3) 0.2802(12)
H15 H -0.1203(16) 0.312(3) 0.2704(14)
H16 H -0.0847(15) 0.336(3) 0.3269(15)
C12 C -0.01355(10) 0.4186(2) 0.09785(8)
C13 C -0.03038(11) 0.5625(2) 0.07415(10)
H17 H -0.0710(14) 0.560(3) 0.0499(12)
H18 H 0.0068(13) 0.604(3) 0.0523(11)
H19 H -0.0379(14) 0.621(3) 0.1076(13)
C14 C 0.09964(9) 0.0749(2) 0.03119(8)
C15 C 0.08729(13) 0.0647(2) -0.03701(9)
H20 H 0.1252(14) 0.105(3) -0.0585(12)
H21 H 0.0807(12) -0.040(3) -0.0477(11)
H22 H 0.0449(14) 0.114(3) -0.0447(12)
C16 C 0.28625(9) 0.2900(2) 0.03576(8)
C17 C 0.34009(12) 0.1882(3) 0.01563(11)
H23 H 0.3166(13) 0.105(3) 0.0028(11)
H24 H 0.3650(13) 0.228(3) -0.0178(12)
H25 H 0.3693(15) 0.161(3) 0.0489(14)
O6? O -0.0365(7) 0.3078(15) 0.0836(6)
loop_
_geom_bond_atom_site_label_1
_geom_bond_atom_site_label_2
_geom_bond_site_symmetry_1
_geom_bond_site_symmetry_2
O1 C7 1_555 1_555
O2 C7 1_555 1_555
O3 C10 1_555 1_555
O4 C3 1_555 1_555
O5 C12 1_555 1_555
O7 C4 1_555 1_555
O8 C14 1_555 1_555
O9 C5 1_555 1_555
O10 C16 1_555 1_555
N1 H1 1_555 1_555
C1 H2 1_555 1_555
C2 N1 1_555 1_555
H3 C2 1_555 1_555
C3 C2 1_555 1_555
H4 C3 1_555 1_555
C4 C3 1_555 1_555
H5 C4 1_555 1_555
C5 C4 1_555 1_555
H6 C5 1_555 1_555
C6 C1 1_555 1_555
H7 C6 1_555 1_555
H8 C6 1_555 1_555
C7 C1 1_555 1_555
C8 O2 1_555 1_555
H9 C8 1_555 1_555
H10 C8 1_555 1_555
C9 C8 1_555 1_555
H11 C9 1_555 1_555
H12 C9 1_555 1_555
H13 C9 1_555 1_555
C10 N1 1_555 1_555
C11 C10 1_555 1_555
H14 C11 1_555 1_555
H15 C11 1_555 1_555
H16 C11 1_555 1_555
C12 O4 1_555 1_555
C13 C12 1_555 1_555
H17 C13 1_555 1_555
H18 C13 1_555 1_555
H19 C13 1_555 1_555
C14 O7 1_555 1_555
C15 C14 1_555 1_555
H20 C15 1_555 1_555
H21 C15 1_555 1_555
H22 C15 1_555 1_555
C16 O9 1_555 1_555
C17 C16 1_555 1_555
H23 C17 1_555 1_555
H24 C17 1_555 1_555
H25 C17 1_555 1_555
C1 C2 1_555 1_555
C5 C6 1_555 1_555

#END
