
#######################################################################
#
#                 Cambridge Crystallographic Data Centre
#                                CCDC 
#
#######################################################################
#
# If this CIF has been generated from an entry in the Cambridge 
# Structural Database, then it will include bibliographic, chemical, 
# crystal, experimental, refinement or atomic coordinate data resulting 
# from the CCDC's data processing and validation procedures.
#
#######################################################################

data_VEPLEI
_chemical_formula_moiety         'C14 H21 N1 O5'
_chemical_name_systematic        
'Ethyl endo-3-t-butoxycarbonylamino-7-oxabicyclo(2.2.1)hept-5-ene-exo-2-carboxylate'
_symmetry_cell_setting           monoclinic
_symmetry_space_group_name_H-M   'P 21/n'
_symmetry_Int_Tables_number      14
_space_group_name_Hall           '-P 2yn'
loop_
_symmetry_equiv_pos_site_id
_symmetry_equiv_pos_as_xyz
1 x,y,z
2 1/2-x,1/2+y,1/2-z
3 -x,-y,-z
4 1/2+x,1/2-y,1/2+z
_cell_length_a                   8.5458(6)
_cell_length_b                   11.243(1)
_cell_length_c                   15.371(1)
_cell_angle_alpha                90
_cell_angle_beta                 96.10(1)
_cell_angle_gamma                90
_cell_volume                     1468.49
_exptl_crystal_colour            colorless
_exptl_crystal_description       brick
_chemical_melting_point          '361-363 K'
_cell_formula_units_Z            4
loop_
_atom_site_label
_atom_site_type_symbol
_atom_site_fract_x
_atom_site_fract_y
_atom_site_fract_z
O1 O 0.23051(11) 0.40772(9) 0.46158(6)
O2 O 0.45579(11) 0.31192(10) 0.44833(6)
O3 O 0.58047(9) 0.49895(7) 0.12963(5)
O4 O 0.66383(10) 0.31896(8) 0.18633(6)
O5 O 0.26006(9) 0.12746(7) 0.29687(5)
N1 N 0.41971(11) 0.39094(9) 0.20155(7)
H1 H 0.3629(18) 0.4544(15) 0.1986(10)
C1 C 0.14929(13) 0.22055(10) 0.31165(7)
H2 H 0.0929(16) 0.2038(12) 0.3611(9)
C2 C 0.26106(13) 0.33183(10) 0.32260(7)
H3 H 0.2016(17) 0.4028(12) 0.3036(9)
C3 C 0.38534(13) 0.29726(10) 0.26129(7)
H4 H 0.4824(16) 0.2760(12) 0.2969(9)
C4 C 0.31292(14) 0.18061(10) 0.21912(7)
H5 H 0.3886(18) 0.1291(14) 0.1947(10)
C5 C 0.15846(15) 0.20881(11) 0.16515(8)
H6 H 0.1436(19) 0.2126(15) 0.1039(11)
C6 C 0.05688(14) 0.23230(11) 0.22243(8)
H7 H -0.051(2) 0.2582(14) 0.2119(10)
C7 C 0.33008(14) 0.34805(10) 0.41681(8)
C8 C 0.2833(2) 0.42901(15) 0.55428(9)
H8 H 0.401(3) 0.455(2) 0.5598(15)
H9 H 0.273(2) 0.3545(19) 0.5831(13)
C9 C 0.1824(3) 0.5220(2) 0.58537(12)
H10 H 0.220(2) 0.5422(19) 0.6464(14)
H11 H 0.078(4) 0.491(3) 0.581(2)
H12 H 0.174(3) 0.591(3) 0.547(2)
C10 C 0.56496(13) 0.39638(10) 0.17361(7)
C11 C 0.73079(13) 0.52865(10) 0.09518(7)
C12 C 0.76741(17) 0.43848(13) 0.02673(9)
H13 H 0.677(2) 0.4282(16) -0.0180(12)
H14 H 0.792(2) 0.3619(17) 0.0525(12)
H15 H 0.858(2) 0.4661(16) -0.0021(11)
C13 C 0.69676(16) 0.64998(12) 0.05388(10)
H16 H 0.609(2) 0.6464(16) 0.0081(12)
H17 H 0.671(2) 0.7088(16) 0.0995(12)
H18 H 0.793(2) 0.6779(15) 0.0298(11)
C14 C 0.86109(15) 0.53961(12) 0.16997(9)
H19 H 0.885(2) 0.4651(17) 0.1990(11)
H20 H 0.952(2) 0.5677(15) 0.1465(10)
H21 H 0.8327(19) 0.5996(15) 0.2141(10)
loop_
_geom_bond_atom_site_label_1
_geom_bond_atom_site_label_2
_geom_bond_site_symmetry_1
_geom_bond_site_symmetry_2
O1 C7 1_555 1_555
O2 C7 1_555 1_555
O3 C10 1_555 1_555
O4 C10 1_555 1_555
O5 C1 1_555 1_555
N1 H1 1_555 1_555
C1 H2 1_555 1_555
C2 C1 1_555 1_555
H3 C2 1_555 1_555
C3 N1 1_555 1_555
H4 C3 1_555 1_555
C4 O5 1_555 1_555
H5 C4 1_555 1_555
C5 C4 1_555 1_555
H6 C5 1_555 1_555
C6 C1 1_555 1_555
H7 C6 1_555 1_555
C7 C2 1_555 1_555
C8 O1 1_555 1_555
H8 C8 1_555 1_555
H9 C8 1_555 1_555
C9 C8 1_555 1_555
H10 C9 1_555 1_555
H11 C9 1_555 1_555
H12 C9 1_555 1_555
C10 N1 1_555 1_555
C11 O3 1_555 1_555
C12 C11 1_555 1_555
H13 C12 1_555 1_555
H14 C12 1_555 1_555
H15 C12 1_555 1_555
C13 C11 1_555 1_555
H16 C13 1_555 1_555
H17 C13 1_555 1_555
H18 C13 1_555 1_555
C14 C11 1_555 1_555
H19 C14 1_555 1_555
H20 C14 1_555 1_555
H21 C14 1_555 1_555
C2 C3 1_555 1_555
C3 C4 1_555 1_555
C5 C6 1_555 1_555

#END
