
#######################################################################
#
#                 Cambridge Crystallographic Data Centre
#                                CCDC 
#
#######################################################################
#
# If this CIF has been generated from an entry in the Cambridge 
# Structural Database, then it will include bibliographic, chemical, 
# crystal, experimental, refinement or atomic coordinate data resulting 
# from the CCDC's data processing and validation procedures.
#
#######################################################################

data_VEPMIN
_chemical_compound_source        'Daphniphyllum macropodum Miq'
_chemical_formula_moiety         'C23 H27 N1 O5,2(H2 O1)'
_chemical_name_systematic        'Macropodumine B dihydrate'
_symmetry_cell_setting           orthorhombic
_symmetry_space_group_name_H-M   'P 21 21 21'
_symmetry_Int_Tables_number      19
_space_group_name_Hall           'P 2ac 2ab'
loop_
_symmetry_equiv_pos_site_id
_symmetry_equiv_pos_as_xyz
1 x,y,z
2 1/2-x,-y,1/2+z
3 -x,1/2+y,1/2-z
4 1/2+x,1/2-y,-z
_cell_length_a                   9.8625(16)
_cell_length_b                   20.953(3)
_cell_length_c                   21.035(3)
_cell_angle_alpha                90
_cell_angle_beta                 90
_cell_angle_gamma                90
_cell_volume                     4346.86
_exptl_crystal_colour            colorless
_exptl_crystal_description       block
_chemical_melting_point          245-247deg.C
_cell_formula_units_Z            8
_exptl_crystal_recrystallization_method chloroform/methanol
loop_
_atom_site_label
_atom_site_type_symbol
_atom_site_fract_x
_atom_site_fract_y
_atom_site_fract_z
N1 N 1.20886(16) 0.31181(9) 1.00212(8)
O1 O 0.86545(15) 0.33516(8) 1.11364(7)
O2 O 0.79615(17) 0.43812(9) 0.80815(7)
O3 O 0.4806(2) 0.32535(10) 0.93326(9)
H1 H 0.5084 0.3368 0.9682
O4 O 0.53901(16) 0.37805(9) 1.05434(8)
O5 O 0.69041(16) 0.43535(8) 1.10866(7)
C1 C 0.9453(2) 0.36343(10) 1.07820(10)
C2 C 1.0901(2) 0.36970(11) 1.10271(10)
H3 H 1.0855 0.3924 1.1434
C3 C 1.1824(2) 0.40905(11) 1.05861(10)
H4 H 1.1469 0.4517 1.0520
H5 H 1.2739 0.4119 1.0752
C4 C 1.17740(19) 0.37113(11) 0.99987(10)
C5 C 1.10836(19) 0.38853(10) 0.94005(10)
C6 C 1.1443(2) 0.33078(11) 0.89695(10)
C7 C 1.1759(2) 0.27681(11) 0.94408(10)
H6 H 1.0979 0.2493 0.9503
H7 H 1.2521 0.2513 0.9298
C8 C 0.9581(2) 0.39230(10) 0.95682(10)
C9 C 0.8557(2) 0.40407(10) 0.91119(10)
C10 C 0.8733(2) 0.40752(11) 0.84222(11)
C11 C 0.9828(2) 0.36814(13) 0.81020(10)
H8 H 0.9463 0.3517 0.7707
H9 H 1.0572 0.3964 0.7994
C12 C 1.0398(2) 0.31260(11) 0.84765(10)
H10 H 0.9656 0.2908 0.8688
H11 H 1.0807 0.2826 0.8182
C13 C 0.8962(2) 0.38871(10) 1.01750(10)
C14 C 0.75371(19) 0.40004(10) 1.00770(10)
C15 C 0.72925(19) 0.41089(10) 0.94396(10)
C16 C 0.5959(2) 0.42661(12) 0.91408(11)
H12 H 0.6102 0.4581 0.8809
H13 H 0.5372 0.4455 0.9459
C17 C 0.5260(2) 0.36919(14) 0.88582(12)
H14 H 0.4489 0.3833 0.8609
H15 H 0.5882 0.3475 0.8574
C18 C 1.1531(2) 0.30359(13) 1.11614(11)
C19 C 1.2505(2) 0.28341(12) 1.06227(10)
H16 H 1.3419 0.2970 1.0725
H17 H 1.2507 0.2373 1.0584
C20 C 1.2286(3) 0.30088(18) 1.17869(12)
H18 H 1.2671 0.2592 1.1842
H19 H 1.1669 0.3095 1.2129
H20 H 1.2996 0.3322 1.1787
C21 C 1.1604(2) 0.45326(11) 0.91520(11)
H21 H 1.1430 0.4857 0.9463
H22 H 1.1144 0.4638 0.8764
H23 H 1.2561 0.4506 0.9074
C22 C 0.6510(2) 0.40257(11) 1.05799(12)
C23 C 0.6182(3) 0.42217(15) 1.16720(11)
H24 H 0.5223 0.4245 1.1596
H25 H 0.6433 0.4531 1.1988
H26 H 0.6412 0.3802 1.1820
H51 H 1.2281(19) 0.3415(9) 0.8757(8)
H52 H 1.0764(19) 0.2732(9) 1.1141(8)
N2 N -0.20049(18) 0.68353(10) 1.01765(10)
O6 O 0.16851(16) 0.65535(8) 1.10317(7)
O7 O 0.1502(2) 0.59194(10) 0.78441(8)
O8 O 0.56398(18) 0.63319(10) 0.80952(9)
H2 H 0.5800 0.6615 0.7836
O9 O 0.48692(16) 0.62498(9) 1.02031(8)
O10 O 0.34733(17) 0.55959(8) 1.07285(8)
C24 C 0.0848(2) 0.62977(11) 1.06802(11)
C25 C -0.0506(2) 0.61198(12) 1.09860(11)
H27 H -0.0317 0.5819 1.1332
C26 C -0.1486(2) 0.57920(11) 1.05246(12)
H28 H -0.1104 0.5399 1.0359
H29 H -0.2347 0.5699 1.0727
C27 C -0.1641(2) 0.62725(11) 1.00215(12)
C28 C -0.1088(2) 0.62368(11) 0.93717(11)
C29 C -0.1577(3) 0.68805(12) 0.90776(13)
C30 C -0.1840(3) 0.73026(12) 0.96621(12)
H30 H -0.1078 0.7584 0.9744
H31 H -0.2653 0.7557 0.9608
C31 C 0.0444(2) 0.61956(10) 0.94546(11)
C32 C 0.1337(2) 0.61572(11) 0.89383(10)
C33 C 0.0940(3) 0.62202(14) 0.82719(12)
C34 C -0.0138(3) 0.67012(14) 0.80886(12)
H32 H -0.0918 0.6467 0.7933
H33 H 0.0209 0.6951 0.7736
C35 C -0.0637(3) 0.71684(13) 0.85996(12)
H34 H 0.0144 0.7341 0.8821
H35 H -0.1096 0.7521 0.8392
C36 C 0.1214(2) 0.61632(10) 1.00208(10)
C37 C 0.2614(2) 0.60984(10) 0.98285(10)
C38 C 0.2686(2) 0.60736(10) 0.91761(10)
C39 C 0.3934(2) 0.59375(11) 0.87901(11)
H36 H 0.4606 0.5738 0.9062
H37 H 0.3706 0.5636 0.8457
C40 C 0.4545(2) 0.65225(12) 0.84930(11)
H38 H 0.3866 0.6746 0.8244
H39 H 0.4870 0.6809 0.8821
C41 C -0.1193(3) 0.67142(14) 1.12826(13)
C42 C -0.2304(3) 0.69870(13) 1.08384(13)
H40 H -0.3177 0.6808 1.0954
H41 H -0.2355 0.7446 1.0890
C43 C -0.1816(3) 0.65834(18) 1.19316(13)
H42 H -0.2417 0.6224 1.1903
H43 H -0.2315 0.6952 1.2070
H44 H -0.1110 0.6492 1.2232
C44 C -0.1653(2) 0.56487(12) 0.90230(12)
H45 H -0.1396 0.5269 0.9248
H46 H -0.1291 0.5634 0.8600
H47 H -0.2624 0.5676 0.9004
C45 C 0.3772(2) 0.60028(11) 1.02580(11)
C46 C 0.4400(3) 0.55881(17) 1.12502(13)
H48 H 0.5255 0.5419 1.1112
H49 H 0.4042 0.5325 1.1584
H50 H 0.4527 0.6015 1.1405
H53 H -0.246(2) 0.6769(11) 0.8921(9)
H54 H -0.053(2) 0.7024(10) 1.1308(9)
O11 O 0.3043(4) 0.47933(16) 0.74805(18)
H55 H 0.398(3) 0.491(3) 0.739(3)
H56 H 0.266(6) 0.5222(16) 0.753(3)
O12 O 0.6478(4) 0.72473(13) 0.73136(11)
H57 H 0.623(4) 0.710(2) 0.6909(12)
H58 H 0.667(3) 0.7675(10) 0.7395(14)
O13 O 0.5790(3) 0.51234(14) 0.74922(12)
H59 H 0.597(5) 0.5506(15) 0.773(2)
H60 H 0.649(5) 0.484(3) 0.768(3)
O14 O 0.7030(3) 0.84818(13) 0.76526(10)
H61 H 0.637(5) 0.882(2) 0.755(3)
H62 H 0.688(4) 0.8431(19) 0.8073(9)
loop_
_geom_bond_atom_site_label_1
_geom_bond_atom_site_label_2
_geom_bond_site_symmetry_1
_geom_bond_site_symmetry_2
N1 C4 1_555 1_555
N2 C27 1_555 1_555
O1 C1 1_555 1_555
O2 C10 1_555 1_555
O3 H1 1_555 1_555
O4 C22 1_555 1_555
O5 C22 1_555 1_555
O6 C24 1_555 1_555
O7 C33 1_555 1_555
O8 H2 1_555 1_555
O9 C45 1_555 1_555
O10 C45 1_555 1_555
O11 H55 1_555 1_555
O12 H57 1_555 1_555
O13 H59 1_555 1_555
O14 H61 1_555 1_555
C1 C2 1_555 1_555
C2 H3 1_555 1_555
C3 C2 1_555 1_555
H4 C3 1_555 1_555
H5 C3 1_555 1_555
C4 C3 1_555 1_555
C5 C4 1_555 1_555
C6 C5 1_555 1_555
C7 N1 1_555 1_555
H6 C7 1_555 1_555
H7 C7 1_555 1_555
C8 C5 1_555 1_555
C9 C8 1_555 1_555
C10 C9 1_555 1_555
C11 C10 1_555 1_555
H8 C11 1_555 1_555
H9 C11 1_555 1_555
C12 C6 1_555 1_555
H10 C12 1_555 1_555
H11 C12 1_555 1_555
C13 C1 1_555 1_555
C14 C13 1_555 1_555
C15 C9 1_555 1_555
C16 C15 1_555 1_555
H12 C16 1_555 1_555
H13 C16 1_555 1_555
C17 O3 1_555 1_555
H14 C17 1_555 1_555
H15 C17 1_555 1_555
C18 C2 1_555 1_555
C19 N1 1_555 1_555
H16 C19 1_555 1_555
H17 C19 1_555 1_555
C20 C18 1_555 1_555
H18 C20 1_555 1_555
H19 C20 1_555 1_555
H20 C20 1_555 1_555
C21 C5 1_555 1_555
H21 C21 1_555 1_555
H22 C21 1_555 1_555
H23 C21 1_555 1_555
C22 C14 1_555 1_555
C23 O5 1_555 1_555
H24 C23 1_555 1_555
H25 C23 1_555 1_555
H26 C23 1_555 1_555
C24 C25 1_555 1_555
C25 H27 1_555 1_555
C26 C25 1_555 1_555
H28 C26 1_555 1_555
H29 C26 1_555 1_555
C27 C26 1_555 1_555
C28 C27 1_555 1_555
C29 C28 1_555 1_555
C30 N2 1_555 1_555
H30 C30 1_555 1_555
H31 C30 1_555 1_555
C31 C28 1_555 1_555
C32 C31 1_555 1_555
C33 C32 1_555 1_555
C34 C33 1_555 1_555
H32 C34 1_555 1_555
H33 C34 1_555 1_555
C35 C29 1_555 1_555
H34 C35 1_555 1_555
H35 C35 1_555 1_555
C36 C24 1_555 1_555
C37 C36 1_555 1_555
C38 C32 1_555 1_555
C39 C38 1_555 1_555
H36 C39 1_555 1_555
H37 C39 1_555 1_555
C40 O8 1_555 1_555
H38 C40 1_555 1_555
H39 C40 1_555 1_555
C41 C25 1_555 1_555
C42 N2 1_555 1_555
H40 C42 1_555 1_555
H41 C42 1_555 1_555
C43 C41 1_555 1_555
H42 C43 1_555 1_555
H43 C43 1_555 1_555
H44 C43 1_555 1_555
C44 C28 1_555 1_555
H45 C44 1_555 1_555
H46 C44 1_555 1_555
H47 C44 1_555 1_555
C45 C37 1_555 1_555
C46 O10 1_555 1_555
H48 C46 1_555 1_555
H49 C46 1_555 1_555
H50 C46 1_555 1_555
H51 C6 1_555 1_555
H52 C18 1_555 1_555
H53 C29 1_555 1_555
H54 C41 1_555 1_555
H56 O11 1_555 1_555
H58 O12 1_555 1_555
H60 O13 1_555 1_555
H62 O14 1_555 1_555
C6 C7 1_555 1_555
C8 C13 1_555 1_555
C11 C12 1_555 1_555
C14 C15 1_555 1_555
C16 C17 1_555 1_555
C18 C19 1_555 1_555
C29 C30 1_555 1_555
C31 C36 1_555 1_555
C34 C35 1_555 1_555
C37 C38 1_555 1_555
C39 C40 1_555 1_555
C41 C42 1_555 1_555

#END
