
#######################################################################
#
#                 Cambridge Crystallographic Data Centre
#                                CCDC 
#
#######################################################################
#
# If this CIF has been generated from an entry in the Cambridge 
# Structural Database, then it will include bibliographic, chemical, 
# crystal, experimental, refinement or atomic coordinate data resulting 
# from the CCDC's data processing and validation procedures.
#
#######################################################################

data_VEPQAL
_chemical_formula_moiety         'C5 H9 Br1 N1 1+,C1 Br4,Br1 1-'
_chemical_name_systematic        
'N-(2-bromoethyl)prop-2-yn-1-aminium bromide tetrabromomethane solvate'
_symmetry_cell_setting           orthorhombic
_symmetry_space_group_name_H-M   'P 21 21 21'
_symmetry_Int_Tables_number      19
_space_group_name_Hall           'P 2ac 2ab'
loop_
_symmetry_equiv_pos_site_id
_symmetry_equiv_pos_as_xyz
1 x,y,z
2 1/2-x,-y,1/2+z
3 1/2+x,1/2-y,-z
4 -x,1/2+y,1/2-z
_cell_length_a                   7.30499(16)
_cell_length_b                   11.3505(2)
_cell_length_c                   16.9283(3)
_cell_angle_alpha                90
_cell_angle_beta                 90
_cell_angle_gamma                90
_cell_volume                     1403.61
_exptl_crystal_colour            colorless
_exptl_crystal_description       needle
_cell_formula_units_Z            4
loop_
_atom_site_label
_atom_site_type_symbol
_atom_site_fract_x
_atom_site_fract_y
_atom_site_fract_z
Br1 Br -0.20874(10) -0.40668(6) -0.43633(4)
Br2 Br -0.21992(11) -0.62701(6) -0.56528(4)
Br3 Br -0.00850(10) -0.84751(7) -0.63515(5)
Br4 Br -0.43897(10) -0.84891(7) -0.62680(5)
Br5 Br -0.23946(11) -0.68052(6) -0.74862(4)
C1 C -0.2261(10) -0.7501(6) -0.6444(4)
Br6 Br 0.28127(13) -0.55883(7) -0.67490(5)
N1 N 0.2171(8) -0.3484(5) -0.4747(3)
H1 H 0.0921 -0.3561 -0.4706
H2 H 0.2406 -0.2771 -0.4985
C2 C 0.2882(11) -0.4446(6) -0.5269(4)
H3 H 0.2580 -0.5226 -0.5041
H4 H 0.4229 -0.4386 -0.5319
C3 C 0.2975(11) -0.3469(6) -0.3931(4)
H5 H 0.2563 -0.4172 -0.3634
H6 H 0.4328 -0.3490 -0.3963
C4 C 0.2393(11) -0.2409(6) -0.3524(4)
C5 C 0.1942(11) -0.1542(7) -0.3191(5)
H7 H 0.1580 -0.0845 -0.2923
C6 C 0.1995(12) -0.4310(6) -0.6061(4)
H8 H 0.2335 -0.3540 -0.6295
H9 H 0.0646 -0.4335 -0.6004
loop_
_geom_bond_atom_site_label_1
_geom_bond_atom_site_label_2
_geom_bond_site_symmetry_1
_geom_bond_site_symmetry_2
Br2 C1 1_555 1_555
Br3 C1 1_555 1_555
Br4 C1 1_555 1_555
Br5 C1 1_555 1_555
Br6 C6 1_555 1_555
N1 H1 1_555 1_555
H2 N1 1_555 1_555
C2 N1 1_555 1_555
H3 C2 1_555 1_555
H4 C2 1_555 1_555
C3 N1 1_555 1_555
H5 C3 1_555 1_555
H6 C3 1_555 1_555
C4 C3 1_555 1_555
C5 C4 1_555 1_555
H7 C5 1_555 1_555
C6 C2 1_555 1_555
H8 C6 1_555 1_555
H9 C6 1_555 1_555

#END
