
#######################################################################
#
#                 Cambridge Crystallographic Data Centre
#                                CCDC 
#
#######################################################################
#
# If this CIF has been generated from an entry in the Cambridge 
# Structural Database, then it will include bibliographic, chemical, 
# crystal, experimental, refinement or atomic coordinate data resulting 
# from the CCDC's data processing and validation procedures.
#
#######################################################################

data_VEPXIX
_chemical_compound_source        'Saussureed involucrata Kar. et Kin'
_chemical_formula_moiety         'C21 H30 O8'
_chemical_name_systematic        Involucratolactone
_symmetry_cell_setting           monoclinic
_symmetry_space_group_name_H-M   'P 21'
_symmetry_Int_Tables_number      4
_space_group_name_Hall           'P 2yb'
loop_
_symmetry_equiv_pos_site_id
_symmetry_equiv_pos_as_xyz
1 x,y,z
2 -x,1/2+y,-z
_cell_length_a                   22.195(3)
_cell_length_b                   6.584(1)
_cell_length_c                   20.728(4)
_cell_angle_alpha                90
_cell_angle_beta                 98.32(1)
_cell_angle_gamma                90
_cell_volume                     2997.14
_chemical_melting_point          219-221deg.C
_cell_formula_units_Z            6
loop_
_atom_site_label
_atom_site_type_symbol
_atom_site_fract_x
_atom_site_fract_y
_atom_site_fract_z
O1 O 0.9207(2) -0.350(1) 0.8306(2)
O2 O 0.8536(2) -0.3726(8) 0.9041(2)
O3 O 0.7952(2) -0.7118(9) 0.8368(3)
O4 O 0.8707(2) -0.9041(9) 0.7510(3)
O5 O 0.9336(2) -0.6154(9) 0.6785(2)
O6 O 0.9917(3) -0.0680(9) 0.7728(3)
O7 O 0.7266(2) 0.0947(9) 0.9953(2)
O8 O 0.6376(2) -0.0204(9) 0.9486(3)
C1 C 0.7955(3) -0.150(1) 0.9615(3)
C2 C 0.8457(3) -0.157(1) 0.9183(3)
C3 C 0.9057(3) -0.062(1) 0.9513(3)
C4 C 0.9212(3) -0.099(1) 1.0232(3)
C5 C 0.8940(3) 0.042(1) 1.0693(3)
C6 C 0.8238(3) 0.056(1) 1.0654(3)
C7 C 0.7921(3) 0.060(1) 0.9947(3)
C8 C 0.7311(3) -0.188(1) 0.9255(3)
C9 C 0.6926(3) -0.034(1) 0.9573(3)
C10 C 0.7082(3) -0.405(1) 0.9300(4)
C11 C 0.8149(3) 0.255(1) 1.1010(3)
C12 C 0.8726(4) 0.381(2) 1.1063(5)
C13 C 0.9141(3) 0.269(1) 1.0657(4)
C14 C 0.7654(4) 0.301(2) 1.1268(4)
C15 C 0.8611(3) -0.411(1) 0.8402(3)
C16 C 0.8563(3) -0.641(1) 0.8298(3)
C17 C 0.8677(3) -0.688(1) 0.7604(3)
C18 C 0.9287(3) -0.599(1) 0.7464(3)
C19 C 0.9309(3) -0.371(1) 0.7646(3)
C20 C 0.9914(3) -0.276(1) 0.7588(4)
C21 C 0.9593(3) -0.242(1) 1.0456(4)
loop_
_geom_bond_atom_site_label_1
_geom_bond_atom_site_label_2
_geom_bond_site_symmetry_1
_geom_bond_site_symmetry_2
O1 C15 1_555 1_555
O2 C2 1_555 1_555
O3 C16 1_555 1_555
O4 C17 1_555 1_555
O5 C18 1_555 1_555
O6 C20 1_555 1_555
O7 C7 1_555 1_555
O8 C9 1_555 1_555
C1 C2 1_555 1_555
C2 C3 1_555 1_555
C3 C4 1_555 1_555
C4 C5 1_555 1_555
C5 C6 1_555 1_555
C6 C7 1_555 1_555
C7 C1 1_555 1_555
C8 C1 1_555 1_555
C9 O7 1_555 1_555
C10 C8 1_555 1_555
C11 C6 1_555 1_555
C12 C11 1_555 1_555
C13 C5 1_555 1_555
C14 C11 1_555 1_555
C15 O2 1_555 1_555
C16 C15 1_555 1_555
C17 C16 1_555 1_555
C18 C17 1_555 1_555
C19 O1 1_555 1_555
C20 C19 1_555 1_555
C21 C4 1_555 1_555
C8 C9 1_555 1_555
C12 C13 1_555 1_555
C18 C19 1_555 1_555

#END
