
#######################################################################
#
#                 Cambridge Crystallographic Data Centre
#                                CCDC 
#
#######################################################################
#
# If this CIF has been generated from an entry in the Cambridge 
# Structural Database, then it will include bibliographic, chemical, 
# crystal, experimental, refinement or atomic coordinate data resulting 
# from the CCDC's data processing and validation procedures.
#
#######################################################################

data_VEPXAQ
_chemical_formula_moiety         'C14 H18 F1 Si2 1+,C24 B1 F20 1-,C7 H8'
_chemical_name_systematic        
'Naphthalene-1,8-diylbis(dimethylsilanyl)fluoronium tetrakis(perfluorophenyl)borate toluene solvate'
_symmetry_cell_setting           triclinic
_symmetry_space_group_name_H-M   'P -1'
_symmetry_Int_Tables_number      2
_space_group_name_Hall           '-P 1'
loop_
_symmetry_equiv_pos_site_id
_symmetry_equiv_pos_as_xyz
1 x,y,z
2 -x,-y,-z
_cell_length_a                   10.3520(10)
_cell_length_b                   13.8604(13)
_cell_length_c                   15.6453(15)
_cell_angle_alpha                85.862(8)
_cell_angle_beta                 85.879(8)
_cell_angle_gamma                74.786(7)
_cell_volume                     2157.24
_exptl_crystal_colour            colorless
_exptl_crystal_description       block
_cell_formula_units_Z            2
loop_
_atom_site_label
_atom_site_type_symbol
_atom_site_fract_x
_atom_site_fract_y
_atom_site_fract_z
F1 F 0.55198(12) 0.69244(7) 0.79178(7)
Si1 Si 0.50943(6) 0.72163(4) 0.68416(3)
C1 C 0.3869(2) 0.64953(16) 0.67405(17)
H1 H 0.3048 0.6785 0.7085
H2 H 0.4242 0.5799 0.6945
H3 H 0.3660 0.6516 0.6137
C2 C 0.6707(2) 0.68096(15) 0.62492(14)
H4 H 0.7271 0.7253 0.6351
H5 H 0.6565 0.6835 0.5634
H6 H 0.7152 0.6122 0.6443
Si2 Si 0.47550(5) 0.74934(3) 0.88573(3)
C3 C 0.3616(2) 0.67276(18) 0.92438(15)
H7 H 0.2894 0.6828 0.8848
H8 H 0.3232 0.6924 0.9816
H9 H 0.4111 0.6020 0.9274
C4 C 0.6159(2) 0.73786(14) 0.95369(12)
H10 H 0.6720 0.7810 0.9291
H11 H 0.6695 0.6681 0.9570
H12 H 0.5814 0.7583 1.0114
C5 C 0.43766(19) 0.85835(13) 0.68352(11)
C6 C 0.4270(2) 0.90439(15) 0.60232(12)
H13 H 0.4606 0.8652 0.5543
C7 C 0.3682(2) 1.00731(16) 0.58812(13)
H14 H 0.3616 1.0368 0.5313
C8 C 0.3209(2) 1.06416(14) 0.65604(14)
H15 H 0.2815 1.1338 0.6463
C9 C 0.3289(2) 1.02200(13) 0.74096(13)
C10 C 0.38821(18) 0.91704(12) 0.75639(11)
C11 C 0.39620(19) 0.87741(13) 0.84360(11)
C12 C 0.3449(2) 0.94067(16) 0.90878(13)
H16 H 0.3496 0.9139 0.9665
C13 C 0.2860(3) 1.04335(17) 0.89298(15)
H17 H 0.2515 1.0851 0.9393
C14 C 0.2789(3) 1.08226(15) 0.81096(15)
H18 H 0.2393 1.1517 0.8004
B1 B 0.6805(2) 0.27249(14) 0.72581(12)
C15 C 0.51760(19) 0.32392(12) 0.73824(11)
C16 C 0.4333(2) 0.31203(13) 0.67661(12)
C17 C 0.2959(2) 0.34677(14) 0.68226(14)
C18 C 0.2342(2) 0.39807(15) 0.75227(15)
C19 C 0.3117(2) 0.41094(15) 0.81635(14)
C20 C 0.4484(2) 0.37293(13) 0.80874(12)
F2 F 0.48707(13) 0.26371(8) 0.60510(7)
F3 F 0.22188(13) 0.33092(9) 0.62025(9)
F4 F 0.10062(13) 0.43492(11) 0.75796(10)
F5 F 0.25320(13) 0.46050(10) 0.88600(9)
F6 F 0.51381(12) 0.38719(8) 0.87696(7)
C21 C 0.76829(18) 0.30685(12) 0.79660(10)
C22 C 0.75513(19) 0.40837(13) 0.80551(11)
C23 C 0.8266(2) 0.44665(13) 0.85848(12)
C24 C 0.9225(2) 0.38273(15) 0.90628(12)
C25 C 0.9437(2) 0.28160(14) 0.89872(12)
C26 C 0.86884(19) 0.24598(12) 0.84495(11)
F7 F 0.66347(12) 0.47671(7) 0.75936(7)
F8 F 0.80566(14) 0.54643(8) 0.86235(9)
F9 F 0.99510(14) 0.41721(10) 0.95787(9)
F10 F 1.03987(13) 0.21739(9) 0.94331(8)
F11 F 0.90020(12) 0.14528(7) 0.84228(7)
C27 C 0.7508(2) 0.30885(12) 0.63461(11)
C28 C 0.8831(2) 0.26282(13) 0.61178(11)
C29 C 0.9580(2) 0.29419(15) 0.54405(12)
C30 C 0.8991(3) 0.37994(15) 0.49544(12)
C31 C 0.7689(2) 0.42796(14) 0.51413(12)
C32 C 0.6976(2) 0.39254(13) 0.58210(11)
F12 F 0.94882(12) 0.18095(8) 0.65918(7)
F13 F 1.08386(13) 0.24325(10) 0.52463(8)
F14 F 0.97027(16) 0.41475(10) 0.43050(8)
F15 F 0.70851(16) 0.51065(9) 0.46667(7)
F16 F 0.57000(12) 0.44707(8) 0.59518(7)
C33 C 0.68890(18) 0.15155(12) 0.73324(11)
C34 C 0.71304(18) 0.08661(12) 0.66708(10)
C35 C 0.71551(18) -0.01380(12) 0.67847(11)
C36 C 0.69347(18) -0.05403(12) 0.75920(11)
C37 C 0.66518(19) 0.00675(13) 0.82705(11)
C38 C 0.66084(19) 0.10691(12) 0.81236(11)
F17 F 0.73735(12) 0.11891(7) 0.58518(6)
F18 F 0.74107(12) -0.07269(7) 0.61136(6)
F19 F 0.70018(11) -0.15255(7) 0.77150(6)
F20 F 0.64458(13) -0.03162(7) 0.90686(6)
F21 F 0.62953(12) 0.16328(7) 0.88228(6)
C39 C 0.9585(2) 0.13337(18) 0.30668(17)
C40 C 0.9589(3) 0.0912(2) 0.2289(2)
H19 H 0.9465 0.0258 0.2278
C41 C 0.9776(3) 0.1450(3) 0.1524(2)
H20 H 0.9785 0.1157 0.0992
C42 C 0.9947(3) 0.2397(3) 0.1530(2)
H21 H 1.0071 0.2759 0.1005
C43 C 0.9938(3) 0.2812(2) 0.2287(2)
H22 H 1.0050 0.3470 0.2295
C44 C 0.9765(3) 0.22808(19) 0.30457(17)
H23 H 0.9770 0.2580 0.3572
C45 C 0.9398(3) 0.0785(2) 0.3907(2)
H24 H 1.0101 0.0814 0.4284
H25 H 0.9453 0.0084 0.3809
H26 H 0.8518 0.1097 0.4177
loop_
_geom_bond_atom_site_label_1
_geom_bond_atom_site_label_2
_geom_bond_site_symmetry_1
_geom_bond_site_symmetry_2
F1 Si1 1_555 1_555
Si1 C1 1_555 1_555
C1 H1 1_555 1_555
H2 C1 1_555 1_555
H3 C1 1_555 1_555
C2 Si1 1_555 1_555
H4 C2 1_555 1_555
H5 C2 1_555 1_555
H6 C2 1_555 1_555
Si2 F1 1_555 1_555
C3 Si2 1_555 1_555
H7 C3 1_555 1_555
H8 C3 1_555 1_555
H9 C3 1_555 1_555
C4 Si2 1_555 1_555
H10 C4 1_555 1_555
H11 C4 1_555 1_555
H12 C4 1_555 1_555
C5 Si1 1_555 1_555
C6 C5 1_555 1_555
H13 C6 1_555 1_555
C7 C6 1_555 1_555
H14 C7 1_555 1_555
C8 C7 1_555 1_555
H15 C8 1_555 1_555
C9 C8 1_555 1_555
C10 C5 1_555 1_555
C11 Si2 1_555 1_555
C12 C11 1_555 1_555
H16 C12 1_555 1_555
C13 C12 1_555 1_555
H17 C13 1_555 1_555
C14 C9 1_555 1_555
H18 C14 1_555 1_555
B1 C15 1_555 1_555
C15 C16 1_555 1_555
C16 C17 1_555 1_555
C17 C18 1_555 1_555
C18 C19 1_555 1_555
C19 C20 1_555 1_555
C20 C15 1_555 1_555
F2 C16 1_555 1_555
F3 C17 1_555 1_555
F4 C18 1_555 1_555
F5 C19 1_555 1_555
F6 C20 1_555 1_555
C21 B1 1_555 1_555
C22 C21 1_555 1_555
C23 C22 1_555 1_555
C24 C23 1_555 1_555
C25 C24 1_555 1_555
C26 C21 1_555 1_555
F7 C22 1_555 1_555
F8 C23 1_555 1_555
F9 C24 1_555 1_555
F10 C25 1_555 1_555
F11 C26 1_555 1_555
C27 B1 1_555 1_555
C28 C27 1_555 1_555
C29 C28 1_555 1_555
C30 C29 1_555 1_555
C31 C30 1_555 1_555
C32 C27 1_555 1_555
F12 C28 1_555 1_555
F13 C29 1_555 1_555
F14 C30 1_555 1_555
F15 C31 1_555 1_555
F16 C32 1_555 1_555
C33 B1 1_555 1_555
C34 C33 1_555 1_555
C35 C34 1_555 1_555
C36 C35 1_555 1_555
C37 C36 1_555 1_555
C38 C33 1_555 1_555
F17 C34 1_555 1_555
F18 C35 1_555 1_555
F19 C36 1_555 1_555
F20 C37 1_555 1_555
F21 C38 1_555 1_555
C39 C40 1_555 1_555
C40 H19 1_555 1_555
C41 C40 1_555 1_555
H20 C41 1_555 1_555
C42 C41 1_555 1_555
H21 C42 1_555 1_555
C43 C42 1_555 1_555
H22 C43 1_555 1_555
C44 C39 1_555 1_555
H23 C44 1_555 1_555
C45 C39 1_555 1_555
H24 C45 1_555 1_555
H25 C45 1_555 1_555
H26 C45 1_555 1_555
C9 C10 1_555 1_555
C10 C11 1_555 1_555
C13 C14 1_555 1_555
C25 C26 1_555 1_555
C31 C32 1_555 1_555
C37 C38 1_555 1_555
C43 C44 1_555 1_555

#END
