
#######################################################################
#
#                 Cambridge Crystallographic Data Centre
#                                CCDC 
#
#######################################################################
#
# If this CIF has been generated from an entry in the Cambridge 
# Structural Database, then it will include bibliographic, chemical, 
# crystal, experimental, refinement or atomic coordinate data resulting 
# from the CCDC's data processing and validation procedures.
#
#######################################################################

data_VEQFED
_chemical_formula_moiety         'C21 H24 N2 O4'
_chemical_name_systematic        
'methyl 3-methyl-15-oxo-20-oxa-3,14-diazahexacyclo[16.2.1.0^2,10^.0^4,9^.0^10,19^.0^14,19^]henicosa-4,6,8-triene-1-carboxylate'
_symmetry_cell_setting           monoclinic
_symmetry_space_group_name_H-M   'P 21/c'
_symmetry_Int_Tables_number      14
_space_group_name_Hall           '-P 2ybc'
loop_
_symmetry_equiv_pos_site_id
_symmetry_equiv_pos_as_xyz
1 x,y,z
2 -x,1/2+y,1/2-z
3 -x,-y,-z
4 x,1/2-y,1/2+z
_cell_length_a                   8.0847(16)
_cell_length_b                   17.899(4)
_cell_length_c                   13.168(3)
_cell_angle_alpha                90
_cell_angle_beta                 107.26(3)
_cell_angle_gamma                90
_cell_volume                     1819.71
_exptl_crystal_colour            colorless
_exptl_crystal_description       parallelepiped
_chemical_melting_point          '150-153 deg.C'
_cell_formula_units_Z            4
_exptl_crystal_recrystallization_method 'ethyl acetate/hexanes'
loop_
_atom_site_label
_atom_site_type_symbol
_atom_site_fract_x
_atom_site_fract_y
_atom_site_fract_z
O1 O 0.6026(2) 0.73764(11) 0.45114(16)
O2 O 0.3308(4) 0.94904(17) 0.4338(3)
N1 N 1.0086(4) 0.71456(17) 0.6541(3)
N2 N 0.5505(3) 0.86657(14) 0.46534(19)
C1 C 0.9666(4) 0.9119(2) 0.6763(3)
H1 H 0.9034 0.9502 0.6346
C2 C 1.0786(5) 0.9270(2) 0.7781(3)
H2 H 1.0874 0.9755 0.8048
C3 C 1.1747(5) 0.8712(3) 0.8384(3)
H3 H 1.2526 0.8826 0.9042
C4 C 1.1588(4) 0.7990(3) 0.8040(3)
H4 H 1.2224 0.7611 0.8465
C5 C 1.0450(4) 0.78298(19) 0.7035(3)
C6 C 0.9518(3) 0.83995(18) 0.6393(2)
C7 C 0.8463(4) 0.80808(16) 0.5333(2)
C8 C 0.8916(4) 0.72319(18) 0.5460(3)
H5 H 0.9481 0.7071 0.4933
C9 C 0.7126(5) 0.68686(17) 0.5242(3)
C10 C 0.6488(5) 0.6947(2) 0.6216(3)
H6 H 0.7381 0.6810 0.6863
H7 H 0.5466 0.6644 0.6150
C11 C 0.6067(4) 0.7789(2) 0.6195(3)
H8 H 0.6854 0.8036 0.6816
C12 C 0.6481(3) 0.80439(16) 0.5170(2)
C13 C 0.8849(4) 0.84079(19) 0.4362(3)
H9 H 1.0074 0.8526 0.4545
H10 H 0.8600 0.8035 0.3803
C14 C 0.7812(5) 0.9106(2) 0.3945(3)
H11 H 0.8130 0.9499 0.4474
H12 H 0.8067 0.9277 0.3309
C15 C 0.5926(5) 0.8942(2) 0.3695(3)
H13 H 0.5267 0.9393 0.3438
H14 H 0.5599 0.8569 0.3138
C16 C 0.4164(4) 0.8997(2) 0.4913(3)
C17 C 0.3880(5) 0.8757(3) 0.5940(4)
H15 H 0.4643 0.9040 0.6519
H16 H 0.2696 0.8868 0.5918
C18 C 0.4207(4) 0.7951(3) 0.6147(3)
H17 H 0.3426 0.7661 0.5585
H18 H 0.4012 0.7817 0.6816
C19 C 1.1138(5) 0.6494(2) 0.6857(4)
H19 H 1.1062 0.6323 0.7533
H20 H 1.2320 0.6613 0.6915
H21 H 1.0737 0.6108 0.6336
C20 C 0.7029(6) 0.6080(2) 0.4847(4)
O3 O 0.687(2) 0.5574(4) 0.5454(6)
O4 O 0.6794(15) 0.6023(5) 0.3908(6)
C21 C 0.661(2) 0.5265(7) 0.3462(10)
H22 H 0.6433 0.5292 0.2709
H23 H 0.5637 0.5023 0.3597
H24 H 0.7644 0.4984 0.3789
O5? O 0.828(3) 0.5625(6) 0.5208(14)
O6? O 0.607(3) 0.5975(10) 0.3850(16)
C22? C 0.638(7) 0.5087(18) 0.377(3)
H25? H 0.5683 0.4905 0.3095
H26? H 0.6055 0.4835 0.4329
H27? H 0.7578 0.4994 0.3850
loop_
_geom_bond_atom_site_label_1
_geom_bond_atom_site_label_2
_geom_bond_site_symmetry_1
_geom_bond_site_symmetry_2
O1 C9 1_555 1_555
O2 C16 1_555 1_555
N1 C5 1_555 1_555
N2 C12 1_555 1_555
C1 H1 1_555 1_555
C2 C1 1_555 1_555
H2 C2 1_555 1_555
C3 C2 1_555 1_555
H3 C3 1_555 1_555
C4 C3 1_555 1_555
H4 C4 1_555 1_555
C5 C4 1_555 1_555
C6 C1 1_555 1_555
C7 C6 1_555 1_555
C8 N1 1_555 1_555
H5 C8 1_555 1_555
C9 C8 1_555 1_555
C10 C9 1_555 1_555
H6 C10 1_555 1_555
H7 C10 1_555 1_555
C11 C10 1_555 1_555
H8 C11 1_555 1_555
C12 O1 1_555 1_555
C13 C7 1_555 1_555
H9 C13 1_555 1_555
H10 C13 1_555 1_555
C14 C13 1_555 1_555
H11 C14 1_555 1_555
H12 C14 1_555 1_555
C15 N2 1_555 1_555
H13 C15 1_555 1_555
H14 C15 1_555 1_555
C16 N2 1_555 1_555
C17 C16 1_555 1_555
H15 C17 1_555 1_555
H16 C17 1_555 1_555
C18 C11 1_555 1_555
H17 C18 1_555 1_555
H18 C18 1_555 1_555
C19 N1 1_555 1_555
H19 C19 1_555 1_555
H20 C19 1_555 1_555
H21 C19 1_555 1_555
C20 C9 1_555 1_555
O3 C20 1_555 1_555
O4 C20 1_555 1_555
C21 O4 1_555 1_555
H22 C21 1_555 1_555
H23 C21 1_555 1_555
H24 C21 1_555 1_555
C5 C6 1_555 1_555
C7 C8 1_555 1_555
C7 C12 1_555 1_555
C11 C12 1_555 1_555
C14 C15 1_555 1_555
C17 C18 1_555 1_555

#END
