
#######################################################################
#
#                 Cambridge Crystallographic Data Centre
#                                CCDC 
#
#######################################################################
#
# If this CIF has been generated from an entry in the Cambridge 
# Structural Database, then it will include bibliographic, chemical, 
# crystal, experimental, refinement or atomic coordinate data resulting 
# from the CCDC's data processing and validation procedures.
#
#######################################################################

data_VEQHUV
_chemical_formula_moiety         'C6 H10 N3 1+,C7 H4 N1 O3 S1 1-'
_chemical_name_systematic        '2-amino-4,6-dimethylpyrimidinium saccharinate'
_symmetry_cell_setting           triclinic
_symmetry_space_group_name_H-M   'P -1'
_symmetry_Int_Tables_number      2
_space_group_name_Hall           '-P 1'
loop_
_symmetry_equiv_pos_site_id
_symmetry_equiv_pos_as_xyz
1 x,y,z
2 -x,-y,-z
_cell_length_a                   7.2644(15)
_cell_length_b                   7.3820(15)
_cell_length_c                   13.752(3)
_cell_angle_alpha                98.667(3)
_cell_angle_beta                 95.025(3)
_cell_angle_gamma                100.566(3)
_cell_volume                     711.624
_exptl_crystal_colour            colorless
_exptl_crystal_description       Block
_chemical_melting_point          '188 deg.C'
_cell_formula_units_Z            2
loop_
_atom_site_label
_atom_site_type_symbol
_atom_site_fract_x
_atom_site_fract_y
_atom_site_fract_z
S1 S 0.37831(7) 0.27724(6) 0.35763(3)
O1 O 0.2419(2) 0.1342(2) 0.09093(10)
O2 O 0.5433(2) 0.2232(2) 0.39979(11)
O3 O 0.2409(2) 0.3057(2) 0.42372(11)
N2 N 0.2830(2) 0.1335(2) 0.25778(12)
C1 C 0.3955(3) 0.4160(2) 0.19988(14)
C3 C 0.4441(3) 0.4733(3) 0.30048(14)
C5 C 0.4351(3) 0.5401(3) 0.13519(15)
H1 H 0.4025 0.5018 0.0657
C7 C 0.3003(3) 0.2148(3) 0.17627(15)
C8 C 0.5315(3) 0.6549(3) 0.34118(16)
H2 H 0.5639 0.6930 0.4106
C9 C 0.5692(3) 0.7784(3) 0.27573(17)
H3 H 0.6277 0.9048 0.3009
C11 C 0.5240(3) 0.7224(3) 0.17482(18)
H5 H 0.5542 0.8100 0.1318
N1 N 1.0748(2) 0.7628(2) 0.24080(12)
N3 N 0.9404(2) 0.4894(2) 0.12787(14)
C2 C 1.0258(3) 0.6705(3) 0.14708(15)
C4 C 1.0348(3) 0.6795(3) 0.32002(15)
N4 N 1.0648(3) 0.7582(3) 0.07310(15)
C6 C 0.8989(3) 0.4057(3) 0.20421(18)
C10 C 0.9419(3) 0.4978(3) 0.30140(17)
H4 H 0.9069 0.4349 0.3544
C12 C 1.0964(4) 0.7944(4) 0.41980(17)
H6 H 1.0284 0.7351 0.4689
H7 H 1.0693 0.9196 0.4199
H8 H 1.2323 0.8042 0.4364
C13 C 0.8045(4) 0.2040(3) 0.1800(2)
H9 H 0.7022 0.1868 0.1260
H10 H 0.7527 0.1645 0.2386
H11 H 0.8966 0.1285 0.1596
H12 H 1.111(4) 0.866(4) 0.0825(19)
H13 H 1.138(3) 0.875(4) 0.2482(16)
H14 H 1.047(4) 0.705(4) 0.019(2)
loop_
_geom_bond_atom_site_label_1
_geom_bond_atom_site_label_2
_geom_bond_site_symmetry_1
_geom_bond_site_symmetry_2
S1 O2 1_555 1_555
N1 C2 1_555 1_555
O1 C7 1_555 1_555
O3 S1 1_555 1_555
N2 S1 1_555 1_555
N3 C2 1_555 1_555
C1 C3 1_555 1_555
C2 N4 1_555 1_555
C3 S1 1_555 1_555
C4 N1 1_555 1_555
C5 C1 1_555 1_555
H1 C5 1_555 1_555
N4 H12 1_555 1_555
C6 N3 1_555 1_555
C7 N2 1_555 1_555
C8 C3 1_555 1_555
H2 C8 1_555 1_555
C9 C8 1_555 1_555
H3 C9 1_555 1_555
C10 C4 1_555 1_555
H4 C10 1_555 1_555
C11 C5 1_555 1_555
H5 C11 1_555 1_555
C12 C4 1_555 1_555
H6 C12 1_555 1_555
H7 C12 1_555 1_555
H8 C12 1_555 1_555
C13 C6 1_555 1_555
H9 C13 1_555 1_555
H10 C13 1_555 1_555
H11 C13 1_555 1_555
H13 N1 1_555 1_555
H14 N4 1_555 1_555
C1 C7 1_555 1_555
C6 C10 1_555 1_555
C9 C11 1_555 1_555

#END
