
#######################################################################
#
#                 Cambridge Crystallographic Data Centre
#                                CCDC 
#
#######################################################################
#
# If this CIF has been generated from an entry in the Cambridge 
# Structural Database, then it will include bibliographic, chemical, 
# crystal, experimental, refinement or atomic coordinate data resulting 
# from the CCDC's data processing and validation procedures.
#
#######################################################################

data_VEQHAB
_chemical_formula_moiety         'C10 H10 N2 2+,2(C7 H4 N1 O3 S1 1-)'
_chemical_name_systematic        "4,4'-bipyridinium bis(saccharinate)"
_symmetry_cell_setting           monoclinic
_symmetry_space_group_name_H-M   'P 21/n'
_symmetry_Int_Tables_number      14
_space_group_name_Hall           '-P 2yn'
loop_
_symmetry_equiv_pos_site_id
_symmetry_equiv_pos_as_xyz
1 x,y,z
2 1/2-x,1/2+y,1/2-z
3 -x,-y,-z
4 1/2+x,1/2-y,1/2+z
_cell_length_a                   9.705(11)
_cell_length_b                   11.706(13)
_cell_length_c                   10.411(11)
_cell_angle_alpha                90
_cell_angle_beta                 105.089(19)
_cell_angle_gamma                90
_cell_volume                     1141.98
_exptl_crystal_colour            colorless
_exptl_crystal_description       block
_chemical_melting_point          '194 deg.C'
_cell_formula_units_Z            2
loop_
_atom_site_label
_atom_site_type_symbol
_atom_site_fract_x
_atom_site_fract_y
_atom_site_fract_z
C1 C 0.7758(2) 0.3312(2) 0.1811(2)
C2 C 0.8754(2) 0.2539(2) 0.2503(2)
C3 C 0.8726(2) 0.2114(2) 0.3738(2)
H1 H 0.9403 0.1595 0.4196
C4 C 0.7632(3) 0.2508(2) 0.4253(2)
H2 H 0.7568 0.2238 0.5075
C5 C 0.6636(3) 0.3288(2) 0.3579(2)
H3 H 0.5923 0.3539 0.3960
C6 C 0.6683(2) 0.3701(2) 0.2345(2)
H4 H 0.6012 0.4225 0.1890
C7 C 0.8058(3) 0.3624(2) 0.0497(2)
O1 O 0.97945(16) 0.10683(14) 0.10943(15)
O2 O 1.13720(16) 0.25992(15) 0.21410(16)
O3 O 0.73099(18) 0.43301(15) -0.02748(16)
S1 S 0.99369(6) 0.22431(6) 0.15054(6)
N2 N 0.9199(2) 0.30756(18) 0.02895(18)
C8 C 0.9616(3) 0.4202(2) 0.7689(2)
H5 H 1.0058 0.3795 0.8452
C9 C 0.9655(2) 0.49326(19) 0.5558(2)
C10 C 0.8336(2) 0.5406(2) 0.5492(2)
H6 H 0.7878 0.5831 0.4749
C11 C 0.7693(2) 0.5256(2) 0.6509(2)
H7 H 0.6803 0.5579 0.6450
C12 C 1.0289(3) 0.4329(2) 0.6691(2)
H8 H 1.1184 0.4004 0.6782
N1 N 0.8334(2) 0.46563(18) 0.7570(2)
H9 H 0.793(3) 0.458(2) 0.828(3)
C8B C 1.0384(3) 0.5798(2) 0.2311(2)
H5B H 0.9942 0.6205 0.1548
C9B C 1.0345(2) 0.50674(19) 0.4442(2)
C10B C 1.1664(2) 0.4594(2) 0.4508(2)
H6B H 1.2122 0.4169 0.5251
C11B C 1.2307(2) 0.4744(2) 0.3491(2)
H7B H 1.3197 0.4421 0.3550
C12B C 0.9711(3) 0.5671(2) 0.3309(2)
H8B H 0.8816 0.5996 0.3218
N1B N 1.1666(2) 0.53437(18) 0.2430(2)
H9B H 1.207(3) 0.542(2) 0.172(3)
loop_
_geom_bond_atom_site_label_1
_geom_bond_atom_site_label_2
_geom_bond_site_symmetry_1
_geom_bond_site_symmetry_2
C1 C2 1_555 1_555
C2 C3 1_555 1_555
C3 H1 1_555 1_555
C4 C3 1_555 1_555
H2 C4 1_555 1_555
C5 C4 1_555 1_555
H3 C5 1_555 1_555
C6 C1 1_555 1_555
H4 C6 1_555 1_555
C7 C1 1_555 1_555
C8 H5 1_555 1_555
C9 C10 1_555 1_555
C10 H6 1_555 1_555
C11 C10 1_555 1_555
H7 C11 1_555 1_555
C12 C8 1_555 1_555
H8 C12 1_555 1_555
N1 C8 1_555 1_555
O1 S1 1_555 1_555
O2 S1 1_555 1_555
O3 C7 1_555 1_555
S1 C2 1_555 1_555
N2 C7 1_555 1_555
H9 N1 1_555 1_555
C8B H5B 1_555 1_555
C9B C9 1_555 1_555
C10B C9B 1_555 1_555
H6B C10B 1_555 1_555
C11B C10B 1_555 1_555
H7B C11B 1_555 1_555
C12B C8B 1_555 1_555
H8B C12B 1_555 1_555
N1B C8B 1_555 1_555
H9B N1B 1_555 1_555
C5 C6 1_555 1_555
C9 C12 1_555 1_555
C11 N1 1_555 1_555
S1 N2 1_555 1_555
C9B C12B 1_555 1_555
C11B N1B 1_555 1_555

#END
