
#######################################################################
#
#                 Cambridge Crystallographic Data Centre
#                                CCDC 
#
#######################################################################
#
# If this CIF has been generated from an entry in the Cambridge 
# Structural Database, then it will include bibliographic, chemical, 
# crystal, experimental, refinement or atomic coordinate data resulting 
# from the CCDC's data processing and validation procedures.
#
#######################################################################

data_VEQHIJ
_chemical_formula_moiety         'C6 H7 N2 O1 1+,C7 H4 N1 O3 S1 1-'
_chemical_name_systematic        'isonicotinamide saccharinate'
_symmetry_cell_setting           monoclinic
_symmetry_space_group_name_H-M   'P 21/c'
_symmetry_Int_Tables_number      14
_space_group_name_Hall           '-P 2ybc'
loop_
_symmetry_equiv_pos_site_id
_symmetry_equiv_pos_as_xyz
1 x,y,z
2 -x,1/2+y,1/2-z
3 -x,-y,-z
4 x,1/2-y,1/2+z
_cell_length_a                   6.9157(12)
_cell_length_b                   17.351(3)
_cell_length_c                   10.6553(18)
_cell_angle_alpha                90
_cell_angle_beta                 102.421(2)
_cell_angle_gamma                90
_cell_volume                     1248.65
_exptl_crystal_colour            colorless
_exptl_crystal_description       plate
_chemical_melting_point          '185 deg.C'
_cell_formula_units_Z            4
loop_
_atom_site_label
_atom_site_type_symbol
_atom_site_fract_x
_atom_site_fract_y
_atom_site_fract_z
S1 S 0.34750(8) 0.25490(3) 0.26723(5)
O1 O 0.2544(2) 0.07427(8) 0.41809(14)
N2 N 0.2180(3) 0.18182(10) 0.29267(16)
O3 O 0.2728(2) 0.32529(9) 0.31156(15)
C1 C 0.3233(3) 0.13501(12) 0.38207(19)
O4 O 0.3695(2) 0.25682(9) 0.13644(14)
C2 C 0.5331(3) 0.16080(12) 0.43186(19)
C4 C 0.5697(3) 0.22860(12) 0.37270(19)
C8 C 0.7508(3) 0.26551(13) 0.3990(2)
H4 H 0.7728 0.3116 0.3561
C10 C 0.8637(3) 0.16483(13) 0.5535(2)
H5 H 0.9664 0.1439 0.6183
C11 C 0.8989(3) 0.23189(13) 0.4913(2)
H6 H 1.0262 0.2551 0.5122
C13 C 0.6820(3) 0.12742(13) 0.5236(2)
H8 H 0.6606 0.0805 0.5647
N1 N 0.8817(3) 0.05902(10) 0.28047(17)
O2 O 0.1957(2) -0.03069(9) 0.13408(15)
N3 N 0.1941(3) 0.07094(11) 0.00209(18)
C3 C 0.6060(3) 0.09982(12) 0.1244(2)
H1 H 0.5480 0.1349 0.0585
C5 C 0.5846(3) -0.01087(12) 0.2542(2)
H2 H 0.5120 -0.0528 0.2783
C6 C 0.2802(3) 0.02433(12) 0.0962(2)
C7 C 0.8007(3) 0.10840(12) 0.1875(2)
H3 H 0.8776 0.1494 0.1649
C9 C 0.4950(3) 0.03932(12) 0.1581(2)
C12 C 0.7792(3) 0.00036(12) 0.3145(2)
H7 H 0.8409 -0.0338 0.3808
H9 H 0.257(4) 0.1108(15) -0.028(2)
H10 H 0.071(4) 0.0599(15) -0.034(2)
H11 H 1.020(5) 0.0656(17) 0.326(3)
loop_
_geom_bond_atom_site_label_1
_geom_bond_atom_site_label_2
_geom_bond_site_symmetry_1
_geom_bond_site_symmetry_2
S1 N2 1_555 1_555
O1 C1 1_555 1_555
N1 C7 1_555 1_555
O2 C6 1_555 1_555
N2 C1 1_555 1_555
O3 S1 1_555 1_555
N3 C6 1_555 1_555
C1 C2 1_555 1_555
O4 S1 1_555 1_555
C2 C4 1_555 1_555
C3 H1 1_555 1_555
C4 S1 1_555 1_555
C5 H2 1_555 1_555
C6 C9 1_555 1_555
C7 C3 1_555 1_555
H3 C7 1_555 1_555
C8 C4 1_555 1_555
H4 C8 1_555 1_555
C9 C3 1_555 1_555
C10 H5 1_555 1_555
C11 C8 1_555 1_555
H6 C11 1_555 1_555
C12 N1 1_555 1_555
H7 C12 1_555 1_555
C13 C2 1_555 1_555
H8 C13 1_555 1_555
H9 N3 1_555 1_555
H10 N3 1_555 1_555
H11 N1 1_555 1_555
C5 C9 1_555 1_555
C5 C12 1_555 1_555
C10 C11 1_555 1_555
C10 C13 1_555 1_555

#END
