
#######################################################################
#
#                 Cambridge Crystallographic Data Centre
#                                CCDC 
#
#######################################################################
#
# If this CIF has been generated from an entry in the Cambridge 
# Structural Database, then it will include bibliographic, chemical, 
# crystal, experimental, refinement or atomic coordinate data resulting 
# from the CCDC's data processing and validation procedures.
#
#######################################################################

data_VEQHEF
_chemical_formula_moiety         'C6 H8 N1 1+,C7 H4 N1 O3 S1 1-'
_chemical_name_systematic        '4-picolinium saccharinate'
_symmetry_cell_setting           triclinic
_symmetry_space_group_name_H-M   'P -1'
_symmetry_Int_Tables_number      2
_space_group_name_Hall           '-P 1'
loop_
_symmetry_equiv_pos_site_id
_symmetry_equiv_pos_as_xyz
1 x,y,z
2 -x,-y,-z
_cell_length_a                   7.4299(5)
_cell_length_b                   11.1506(7)
_cell_length_c                   15.3450(9)
_cell_angle_alpha                88.0950(10)
_cell_angle_beta                 76.7170(10)
_cell_angle_gamma                81.4900(10)
_cell_volume                     1223.67
_exptl_crystal_colour            colorless
_exptl_crystal_description       block
_chemical_melting_point          '202 deg.C'
_cell_formula_units_Z            4
loop_
_atom_site_label
_atom_site_type_symbol
_atom_site_fract_x
_atom_site_fract_y
_atom_site_fract_z
S1 S 0.82198(7) 0.79408(4) 0.45934(3)
O1 O 0.6931(2) 0.52590(12) 0.58893(9)
O2 O 0.6852(2) 0.85964(13) 0.41531(9)
O3 O 1.0131(2) 0.80690(13) 0.41848(10)
N1 N 0.7925(2) 0.65283(15) 0.47210(11)
C1 C 0.7667(3) 0.83355(18) 0.57450(13)
C2 C 0.7318(3) 0.62716(18) 0.55923(13)
C3 C 0.6530(3) 0.73412(19) 0.71376(13)
H1 H 0.6138 0.6650 0.7463
C4 C 0.7681(3) 0.94083(18) 0.61664(14)
H2 H 0.8069 1.0098 0.5838
C5 C 0.6517(3) 0.8422(2) 0.75712(14)
H3 H 0.6102 0.8470 0.8204
C6 C 0.7136(3) 0.73128(17) 0.62144(13)
C7 C 0.7099(3) 0.94297(19) 0.70954(14)
H4 H 0.7100 1.0149 0.7411
S2 S 0.78494(7) 0.28750(4) 1.05339(3)
O4 O 0.7712(2) 0.03214(12) 0.91262(9)
O5 O 0.9400(2) 0.29180(14) 1.09432(10)
O6 O 0.6089(2) 0.35473(13) 1.09997(10)
N3 N 0.7608(2) 0.14978(15) 1.03406(11)
C8 C 0.8627(3) 0.25046(18) 0.79636(13)
H5 H 0.8615 0.1839 0.7595
C9 C 0.8385(3) 0.33543(18) 0.94056(13)
C10 C 0.8729(3) 0.44760(18) 0.90526(14)
H6 H 0.8785 0.5130 0.9422
C11 C 0.8327(3) 0.23795(17) 0.88808(13)
C12 C 0.8990(3) 0.46003(18) 0.81303(14)
H7 H 0.9203 0.5362 0.7862
C13 C 0.7859(3) 0.12960(18) 0.94590(13)
C15 C 0.8946(3) 0.36319(19) 0.75906(14)
H9 H 0.9136 0.3740 0.6961
N2 N 0.3000(2) 0.14142(15) 0.96253(12)
C14 C 0.3410(3) 0.25026(18) 0.97915(14)
H8 H 0.3465 0.2700 1.0381
C16 C 0.3658(3) 0.30512(18) 0.82458(14)
C17 C 0.3244(3) 0.19071(19) 0.80987(14)
H10 H 0.3187 0.1680 0.7515
C18 C 0.4015(3) 0.3945(2) 0.74991(15)
H11 H 0.3475 0.4763 0.7723
H12 H 0.3439 0.3746 0.7019
H13 H 0.5365 0.3913 0.7267
C19 C 0.3752(3) 0.33337(18) 0.91157(14)
H14 H 0.4052 0.4101 0.9238
C20 C 0.2917(3) 0.11048(19) 0.88001(14)
H15 H 0.2631 0.0326 0.8698
H23 H 0.273(4) 0.088(3) 1.0096(19)
N4 N 0.7368(2) 0.35850(15) 0.46607(12)
C21 C 0.6766(3) 0.25211(18) 0.49019(14)
H16 H 0.6153 0.2394 0.5506
C22 C 0.8222(3) 0.38009(19) 0.38133(14)
H17 H 0.8626 0.4565 0.3658
C23 C 0.7936(3) 0.17991(18) 0.33967(13)
C24 C 0.7027(3) 0.16147(18) 0.42827(14)
H18 H 0.6591 0.0864 0.4457
C25 C 0.8246(3) 0.08270(19) 0.27052(14)
H19 H 0.8600 0.0038 0.2967
H20 H 0.9248 0.0989 0.2196
H21 H 0.7092 0.0818 0.2500
C26 C 0.8513(3) 0.29254(19) 0.31701(14)
H22 H 0.9109 0.3086 0.2569
H24 H 0.721(4) 0.418(3) 0.5089(19)
loop_
_geom_bond_atom_site_label_1
_geom_bond_atom_site_label_2
_geom_bond_site_symmetry_1
_geom_bond_site_symmetry_2
S1 O2 1_555 1_555
O1 C2 1_555 1_555
O3 S1 1_555 1_555
N1 S1 1_555 1_555
C1 S1 1_555 1_555
C2 N1 1_555 1_555
C3 H1 1_555 1_555
C4 C1 1_555 1_555
H2 C4 1_555 1_555
C5 C3 1_555 1_555
H3 C5 1_555 1_555
C6 C1 1_555 1_555
C7 C4 1_555 1_555
H4 C7 1_555 1_555
S2 O5 1_555 1_555
O4 C13 1_555 1_555
O6 S2 1_555 1_555
N2 C14 1_555 1_555
N3 S2 1_555 1_555
C8 H5 1_555 1_555
C9 S2 1_555 1_555
C10 C9 1_555 1_555
H6 C10 1_555 1_555
C11 C8 1_555 1_555
C12 C10 1_555 1_555
H7 C12 1_555 1_555
C13 N3 1_555 1_555
C14 H8 1_555 1_555
C15 C8 1_555 1_555
H9 C15 1_555 1_555
C16 C17 1_555 1_555
C17 H10 1_555 1_555
C18 C16 1_555 1_555
H11 C18 1_555 1_555
H12 C18 1_555 1_555
H13 C18 1_555 1_555
C19 C14 1_555 1_555
H14 C19 1_555 1_555
C20 N2 1_555 1_555
H15 C20 1_555 1_555
N4 C21 1_555 1_555
C21 H16 1_555 1_555
C22 N4 1_555 1_555
H17 C22 1_555 1_555
C23 C24 1_555 1_555
C24 C21 1_555 1_555
H18 C24 1_555 1_555
C25 C23 1_555 1_555
H19 C25 1_555 1_555
H20 C25 1_555 1_555
H21 C25 1_555 1_555
C26 C22 1_555 1_555
H22 C26 1_555 1_555
H23 N2 1_555 1_555
H24 N4 1_555 1_555
C2 C6 1_555 1_555
C3 C6 1_555 1_555
C5 C7 1_555 1_555
C9 C11 1_555 1_555
C11 C13 1_555 1_555
C12 C15 1_555 1_555
C16 C19 1_555 1_555
C17 C20 1_555 1_555
C23 C26 1_555 1_555

#END
