
#######################################################################
#
#                 Cambridge Crystallographic Data Centre
#                                CCDC 
#
#######################################################################
#
# If this CIF has been generated from an entry in the Cambridge 
# Structural Database, then it will include bibliographic, chemical, 
# crystal, experimental, refinement or atomic coordinate data resulting 
# from the CCDC's data processing and validation procedures.
#
#######################################################################

data_VEQKOR
_chemical_compound_source        
'red marine alga Portieria hornemannii (Lyngbye) Silva'
_chemical_formula_moiety         'C10 H14 Br1 Cl3'
_chemical_name_systematic        
6(S*)-bromo-1,4(S*),8(R*)-trichloro-2(Z)-ochtodene
_chemical_properties_biological  'possible biological activity'
_symmetry_cell_setting           orthorhombic
_symmetry_space_group_name_H-M   'P 21 21 21'
_symmetry_Int_Tables_number      19
_space_group_name_Hall           'P 2ac 2ab'
loop_
_symmetry_equiv_pos_site_id
_symmetry_equiv_pos_as_xyz
1 x,y,z
2 1/2-x,-y,1/2+z
3 1/2+x,1/2-y,-z
4 -x,1/2+y,1/2-z
_cell_length_a                   7.2352(3)
_cell_length_b                   12.842(2)
_cell_length_c                   13.8151(3)
_cell_angle_alpha                90
_cell_angle_beta                 90
_cell_angle_gamma                90
_cell_volume                     1283.62
_exptl_crystal_colour            colorless
_exptl_crystal_description       prisms
_cell_formula_units_Z            4
loop_
_atom_site_label
_atom_site_type_symbol
_atom_site_fract_x
_atom_site_fract_y
_atom_site_fract_z
Br1 Br 0.0655(1) 0.6758(1) 0.2202(1)
Cl1 Cl -0.0739(3) 0.1902(1) -0.0309(2)
Cl2 Cl 0.0860(4) 0.6479(2) -0.1424(1)
Cl3 Cl -0.3317(3) 0.5720(2) -0.0604(1)
C1 C -0.1251(9) 0.2903(4) -0.1168(4)
C2 C 0.0105(9) 0.3769(5) -0.1082(4)
C3 C -0.0130(8) 0.4649(5) -0.0599(4)
C4 C 0.1400(10) 0.5433(5) -0.0579(5)
C5 C 0.1762(9) 0.5885(5) 0.0415(5)
C6 C 0.0009(8) 0.6149(4) 0.0945(4)
C7 C -0.1287(8) 0.5236(4) 0.1058(4)
C8 C -0.1777(9) 0.4843(4) 0.0026(4)
C9 C -0.0397(10) 0.4314(4) 0.1570(4)
C10 C -0.3048(9) 0.5522(5) 0.1591(5)
H1 H -0.1207(9) 0.2614(4) -0.1824(4)
H2 H -0.2502(9) 0.3169(4) -0.1053(4)
H3 H 0.1241(9) 0.3683(5) -0.1402(4)
H4 H 0.2545(10) 0.5087(5) -0.0802(5)
H5 H 0.2471(9) 0.5381(5) 0.0798(5)
H6 H 0.2513(9) 0.6516(5) 0.0348(5)
H7 H -0.0644(8) 0.6689(4) 0.0565(4)
H8 H -0.2433(9) 0.4171(4) 0.0101(4)
H9 H -0.1287(10) 0.3752(4) 0.1623(4)
H10 H -0.0002(10) 0.4524(4) 0.2212(4)
H11 H 0.0665(10) 0.4079(4) 0.1201(4)
H12 H -0.3833(9) 0.4913(5) 0.1646(5)
H13 H -0.3696(9) 0.6062(5) 0.1236(5)
H14 H -0.2743(9) 0.5776(5) 0.2233(5)
loop_
_geom_bond_atom_site_label_1
_geom_bond_atom_site_label_2
_geom_bond_site_symmetry_1
_geom_bond_site_symmetry_2
Br1 C6 1_555 1_555
Cl1 C1 1_555 1_555
Cl2 C4 1_555 1_555
Cl3 C8 1_555 1_555
C1 C2 1_555 1_555
C2 C3 1_555 1_555
C3 C4 1_555 1_555
C4 C5 1_555 1_555
C5 C6 1_555 1_555
C6 C7 1_555 1_555
C7 C8 1_555 1_555
C8 C3 1_555 1_555
C9 C7 1_555 1_555
C10 C7 1_555 1_555
H1 C1 1_555 1_555
H2 C1 1_555 1_555
H3 C2 1_555 1_555
H4 C4 1_555 1_555
H5 C5 1_555 1_555
H6 C5 1_555 1_555
H7 C6 1_555 1_555
H8 C8 1_555 1_555
H9 C9 1_555 1_555
H10 C9 1_555 1_555
H11 C9 1_555 1_555
H12 C10 1_555 1_555
H13 C10 1_555 1_555
H14 C10 1_555 1_555

#END
