
#######################################################################
#
#                 Cambridge Crystallographic Data Centre
#                                CCDC 
#
#######################################################################
#
# If this CIF has been generated from an entry in the Cambridge 
# Structural Database, then it will include bibliographic, chemical, 
# crystal, experimental, refinement or atomic coordinate data resulting 
# from the CCDC's data processing and validation procedures.
#
#######################################################################

data_VEQLOV
_chemical_formula_moiety         'C19 H18 N1 1+,C1 F3 O3 S1 1-'
_chemical_name_systematic        
'6-(cyclopentylidenemethyl)pyrido[2,1-a]isoquinolin-5-ium trifluoromethanesulfonate'
_symmetry_cell_setting           monoclinic
_symmetry_space_group_name_H-M   'P 21/c'
_symmetry_Int_Tables_number      14
_space_group_name_Hall           '-P 2ybc'
loop_
_symmetry_equiv_pos_site_id
_symmetry_equiv_pos_as_xyz
1 x,y,z
2 -x,1/2+y,1/2-z
3 -x,-y,-z
4 x,1/2-y,1/2+z
_cell_length_a                   7.0492(2)
_cell_length_b                   17.4376(4)
_cell_length_c                   15.8350(4)
_cell_angle_alpha                90
_cell_angle_beta                 99.105(2)
_cell_angle_gamma                90
_cell_volume                     1921.93
_exptl_crystal_colour            'light colorless'
_exptl_crystal_description       needle
_cell_formula_units_Z            4
loop_
_atom_site_label
_atom_site_type_symbol
_atom_site_fract_x
_atom_site_fract_y
_atom_site_fract_z
S1 S 0.2826(8) 0.2451(3) 0.2192(3)
F1 F 0.330(2) 0.3505(5) 0.1166(8)
F2 F 0.5759(9) 0.2644(6) 0.1553(5)
F3 F 0.3210(16) 0.2353(5) 0.0622(7)
O1 O 0.3273(19) 0.2952(11) 0.2883(10)
O2 O 0.0774(13) 0.2652(11) 0.1784(8)
O3 O 0.337(3) 0.1726(4) 0.2313(7)
C1 C 0.3733(16) 0.2789(5) 0.1305(6)
N1 N 0.1717(2) 0.61433(11) 0.62999(11)
C3 C 0.1569(4) 0.63300(19) 0.71289(15)
H1 H 0.127166 0.683093 0.726124
C4 C 0.1850(5) 0.5797(3) 0.77560(19)
H2 H 0.173415 0.593277 0.831351
C5 C 0.2305(4) 0.5054(3) 0.7574(2)
H3 H 0.249608 0.468598 0.800410
C6 C 0.2470(3) 0.48686(17) 0.6762(2)
H4 H 0.278870 0.436758 0.663999
C7 C 0.2176(3) 0.54067(13) 0.60961(15)
C8 C 0.2361(2) 0.52243(12) 0.52311(16)
C9 C 0.2783(3) 0.44795(14) 0.4978(2)
H5 H 0.293582 0.408568 0.537866
C10 C 0.2969(3) 0.43285(19) 0.4155(3)
H6 H 0.324472 0.383198 0.399796
C11 C 0.2752(4) 0.4906(2) 0.3546(2)
H7 H 0.288871 0.479491 0.298451
C12 C 0.2335(3) 0.56436(17) 0.37667(17)
H8 H 0.219335 0.602956 0.335625
C13 C 0.2126(3) 0.58102(13) 0.46131(14)
C14 C 0.1612(3) 0.65543(12) 0.48657(14)
H9 H 0.143137 0.694033 0.445560
C15 C 0.1373(3) 0.67260(12) 0.56731(14)
C16 C 0.0692(4) 0.74693(14) 0.59316(17)
H10 H -0.038191 0.747214 0.620510
C17 C 0.1485(5) 0.81337(15) 0.58065(16)
C18 C 0.076(3) 0.8859(7) 0.6178(11)
H11 H 0.042638 0.877126 0.674177
H12 H -0.034740 0.907037 0.580613
C19 C 0.257(2) 0.9389(6) 0.6215(7)
H13 H 0.220102 0.992312 0.614320
H14 H 0.342170 0.932960 0.675662
C20 C 0.356(2) 0.9115(10) 0.5471(12)
H15 H 0.489229 0.927669 0.555082
H16 H 0.290775 0.931635 0.493066
C21 C 0.340(3) 0.8222(10) 0.5494(18)
H17 H 0.337878 0.799878 0.493107
H18 H 0.444638 0.799702 0.588975
S2? S 0.3524(8) 0.2428(2) 0.2253(3)
F4? F 0.1301(11) 0.3376(5) 0.1273(6)
F5? F 0.4376(12) 0.3447(6) 0.1245(6)
F6? F 0.2742(16) 0.2622(7) 0.0630(7)
O4? O 0.4079(19) 0.2952(9) 0.2917(8)
O5? O 0.1489(16) 0.2033(5) 0.2194(6)
O6? O 0.4948(13) 0.1982(6) 0.2122(5)
C2? C 0.2816(11) 0.3012(6) 0.1344(6)
C22? C 0.075(3) 0.8935(7) 0.5944(12)
H19? H -0.053568 0.899681 0.562689
H20? H 0.069870 0.901553 0.654561
C23? C 0.200(2) 0.9469(6) 0.5659(10)
H21? H 0.207071 0.992878 0.600758
H22? H 0.153827 0.960962 0.506970
C24? C 0.399(2) 0.9087(11) 0.5736(13)
H23? H 0.463421 0.904908 0.632315
H24? H 0.481958 0.933317 0.538437
C25? C 0.319(3) 0.8302(11) 0.5366(19)
H25? H 0.279627 0.833576 0.475159
H26? H 0.415425 0.790381 0.548732
loop_
_geom_bond_atom_site_label_1
_geom_bond_atom_site_label_2
_geom_bond_site_symmetry_1
_geom_bond_site_symmetry_2
S1 O1 1_555 1_555
F1 C1 1_555 1_555
F2 C1 1_555 1_555
F3 C1 1_555 1_555
O2 S1 1_555 1_555
O3 S1 1_555 1_555
C1 S1 1_555 1_555
N1 C3 1_555 1_555
C3 H1 1_555 1_555
C4 C3 1_555 1_555
H2 C4 1_555 1_555
C5 C4 1_555 1_555
H3 C5 1_555 1_555
C6 C5 1_555 1_555
H4 C6 1_555 1_555
C7 N1 1_555 1_555
C8 C7 1_555 1_555
C9 C8 1_555 1_555
H5 C9 1_555 1_555
C10 C9 1_555 1_555
H6 C10 1_555 1_555
C11 C10 1_555 1_555
H7 C11 1_555 1_555
C12 C11 1_555 1_555
H8 C12 1_555 1_555
C13 C8 1_555 1_555
C14 C13 1_555 1_555
H9 C14 1_555 1_555
C15 N1 1_555 1_555
C16 C15 1_555 1_555
H10 C16 1_555 1_555
C17 C16 1_555 1_555
C18 C17 1_555 1_555
H11 C18 1_555 1_555
H12 C18 1_555 1_555
C19 C18 1_555 1_555
H13 C19 1_555 1_555
H14 C19 1_555 1_555
C20 C19 1_555 1_555
H15 C20 1_555 1_555
H16 C20 1_555 1_555
C21 C17 1_555 1_555
H17 C21 1_555 1_555
H18 C21 1_555 1_555
C6 C7 1_555 1_555
C12 C13 1_555 1_555
C14 C15 1_555 1_555
C20 C21 1_555 1_555

#END
