
#######################################################################
#
#                 Cambridge Crystallographic Data Centre
#                                CCDC 
#
#######################################################################
#
# If this CIF has been generated from an entry in the Cambridge 
# Structural Database, then it will include bibliographic, chemical, 
# crystal, experimental, refinement or atomic coordinate data resulting 
# from the CCDC's data processing and validation procedures.
#
#######################################################################

data_VEQMOW
_chemical_formula_moiety         'C27 H20 O1'
_chemical_name_systematic        
3'-benzylidene-2'-phenyl-2',3'-dihydro-4H-spiro[cyclohexa-2,5-diene-1,1'-inden]-4-one
_symmetry_cell_setting           triclinic
_symmetry_space_group_name_H-M   'P -1'
_symmetry_Int_Tables_number      2
_space_group_name_Hall           '-P 1'
loop_
_symmetry_equiv_pos_site_id
_symmetry_equiv_pos_as_xyz
1 x,y,z
2 -x,-y,-z
_cell_length_a                   8.905(2)
_cell_length_b                   10.164(3)
_cell_length_c                   11.392(3)
_cell_angle_alpha                104.721(5)
_cell_angle_beta                 96.087(5)
_cell_angle_gamma                100.708(5)
_cell_volume                     967.058
_exptl_crystal_colour            white
_exptl_crystal_description       block
_cell_formula_units_Z            2
loop_
_atom_site_label
_atom_site_type_symbol
_atom_site_fract_x
_atom_site_fract_y
_atom_site_fract_z
O1 O 1.3967(4) 0.6618(3) 0.8302(3)
C1 C 1.2931(3) 0.9422(3) 0.7355(3)
H1 H 1.3330 1.0056 0.6943
C2 C 1.3739(4) 0.8506(3) 0.7519(3)
H2 H 1.4670 0.8515 0.7217
C3 C 1.3220(4) 0.7482(4) 0.8157(3)
C4 C 1.1765(4) 0.7540(3) 0.8632(3)
H3 H 1.1400 0.6911 0.9059
C5 C 1.0954(4) 0.8464(3) 0.8473(3)
H4 H 1.0046 0.8462 0.8808
C6 C 1.1407(3) 0.9516(3) 0.7786(3)
C7 C 1.1480(3) 1.0998(3) 0.8587(3)
C8 C 1.2580(4) 1.1756(3) 0.9606(3)
H5 H 1.3333 1.1349 0.9908
C9 C 1.2543(4) 1.3130(4) 1.0172(3)
H6 H 1.3263 1.3643 1.0864
C10 C 1.1445(4) 1.3728(3) 0.9708(3)
H7 H 1.1461 1.4661 1.0070
C11 C 1.0319(4) 1.2978(3) 0.8720(3)
H8 H 0.9577 1.3398 0.8424
C12 C 1.0300(3) 1.1562(3) 0.8159(3)
C13 C 0.9246(3) 1.0523(3) 0.7113(3)
C14 C 1.0128(3) 0.9376(3) 0.6647(3)
H9 H 1.0685 0.9647 0.6019
C15 C 0.9173(3) 0.7931(3) 0.6057(3)
C16 C 0.7985(4) 0.7331(3) 0.6577(3)
H10 H 0.7736 0.7852 0.7297
C17 C 0.7166(4) 0.5982(4) 0.6050(3)
H11 H 0.6391 0.5593 0.6428
C18 C 0.7484(5) 0.5208(4) 0.4975(4)
H12 H 0.6923 0.4299 0.4616
C19 C 0.8636(5) 0.5781(4) 0.4426(4)
H13 H 0.8852 0.5258 0.3692
C20 C 0.9483(4) 0.7138(3) 0.4960(3)
H14 H 1.0262 0.7517 0.4582
C21 C 0.7832(4) 1.0490(3) 0.6567(3)
H15 H 0.7433 0.9749 0.5866
C22 C 0.6814(3) 1.1466(3) 0.6921(3)
C23 C 0.5888(4) 1.1772(3) 0.6007(3)
H16 H 0.5941 1.1374 0.5186
C24 C 0.4894(4) 1.2655(3) 0.6297(3)
H17 H 0.4283 1.2848 0.5674
C25 C 0.4808(4) 1.3252(4) 0.7513(4)
H18 H 0.4152 1.3859 0.7713
C26 C 0.5696(4) 1.2946(4) 0.8429(3)
H19 H 0.5646 1.3352 0.9249
C27 C 0.6662(4) 1.2037(3) 0.8132(3)
H20 H 0.7222 1.1803 0.8756
loop_
_geom_bond_atom_site_label_1
_geom_bond_atom_site_label_2
_geom_bond_site_symmetry_1
_geom_bond_site_symmetry_2
O1 C3 1_555 1_555
C1 H1 1_555 1_555
C2 C1 1_555 1_555
H2 C2 1_555 1_555
C3 C2 1_555 1_555
C4 C3 1_555 1_555
H3 C4 1_555 1_555
C5 C4 1_555 1_555
H4 C5 1_555 1_555
C6 C1 1_555 1_555
C7 C6 1_555 1_555
C8 C7 1_555 1_555
H5 C8 1_555 1_555
C9 C8 1_555 1_555
H6 C9 1_555 1_555
C10 C9 1_555 1_555
H7 C10 1_555 1_555
C11 C10 1_555 1_555
H8 C11 1_555 1_555
C12 C7 1_555 1_555
C13 C12 1_555 1_555
C14 C6 1_555 1_555
H9 C14 1_555 1_555
C15 C14 1_555 1_555
C16 C15 1_555 1_555
H10 C16 1_555 1_555
C17 C16 1_555 1_555
H11 C17 1_555 1_555
C18 C17 1_555 1_555
H12 C18 1_555 1_555
C19 C18 1_555 1_555
H13 C19 1_555 1_555
C20 C15 1_555 1_555
H14 C20 1_555 1_555
C21 C13 1_555 1_555
H15 C21 1_555 1_555
C22 C21 1_555 1_555
C23 C22 1_555 1_555
H16 C23 1_555 1_555
C24 C23 1_555 1_555
H17 C24 1_555 1_555
C25 C24 1_555 1_555
H18 C25 1_555 1_555
C26 C25 1_555 1_555
H19 C26 1_555 1_555
C27 C22 1_555 1_555
H20 C27 1_555 1_555
C5 C6 1_555 1_555
C11 C12 1_555 1_555
C13 C14 1_555 1_555
C19 C20 1_555 1_555
C26 C27 1_555 1_555

#END
