
#######################################################################
#
#                 Cambridge Crystallographic Data Centre
#                                CCDC 
#
#######################################################################
#
# If this CIF has been generated from an entry in the Cambridge 
# Structural Database, then it will include bibliographic, chemical, 
# crystal, experimental, refinement or atomic coordinate data resulting 
# from the CCDC's data processing and validation procedures.
#
#######################################################################

data_VEQMUC
_chemical_compound_source        'Cajanus cajan'
_chemical_name_common            'cajanusflavanol A'
_chemical_formula_moiety         'C37 H34 O9'
_chemical_name_systematic        
8-hydroxy-5-(5-hydroxy-7-methoxy-4-oxo-2-phenyl-3,4-dihydro-2H-1-benzopyran-8-yl)-4-(2-hydroxypropan-2-yl)-6-methoxy-3-phenyl-3,3a,4,5-tetrahydro-1H-indeno[1,7-cd]pyran-1-one
_symmetry_cell_setting           monoclinic
_symmetry_space_group_name_H-M   'P 21/c'
_symmetry_Int_Tables_number      14
_space_group_name_Hall           '-P 2ybc'
loop_
_symmetry_equiv_pos_site_id
_symmetry_equiv_pos_as_xyz
1 x,y,z
2 -x,1/2+y,1/2-z
3 -x,-y,-z
4 x,1/2-y,1/2+z
_cell_length_a                   12.13060(10)
_cell_length_b                   15.62910(10)
_cell_length_c                   17.01680(10)
_cell_angle_alpha                90
_cell_angle_beta                 106.5150(10)
_cell_angle_gamma                90
_cell_volume                     3093.12
_exptl_crystal_colour            'purple red'
_exptl_crystal_description       block
_chemical_melting_point          '374.15-573.15 K'
_cell_formula_units_Z            4
_exptl_crystal_recrystallization_method 'Vapour deposition'
loop_
_atom_site_label
_atom_site_type_symbol
_atom_site_fract_x
_atom_site_fract_y
_atom_site_fract_z
O1 O 1.04324(8) 0.63156(7) 0.01341(6)
O2 O 1.04354(9) 0.61881(7) -0.11584(6)
O3 O 0.84106(10) 0.65003(8) -0.23328(6)
H1 H 0.910738 0.642601 -0.216412
O4 O 0.51161(9) 0.65799(8) -0.13073(6)
O5 O 0.74641(9) 0.47507(7) 0.13251(7)
H2 H 0.803737 0.449981 0.128122
C1 C 0.80798(12) 0.62257(8) -0.02833(8)
C2 C 0.69364(12) 0.63591(9) -0.04061(8)
C3 C 0.62519(12) 0.64970(9) -0.12134(9)
C4 C 0.67601(13) 0.65318(10) -0.18547(9)
H3 H 0.630467 0.661928 -0.238892
C5 C 0.79422(13) 0.64363(10) -0.16979(9)
C6 C 0.86271(12) 0.62892(9) -0.08985(9)
C7 C 0.87299(11) 0.60643(9) 0.05904(8)
H4 H 0.894866 0.545926 0.065694
C8 C 0.98183(12) 0.66113(9) 0.07298(8)
H5 H 0.958575 0.720790 0.060413
C9 C 1.07030(11) 0.65848(9) 0.15498(9)
C10 C 1.07832(13) 0.72589(10) 0.20931(9)
H6 H 1.028134 0.771976 0.194827
C11 C 1.16042(13) 0.72523(11) 0.28500(10)
H7 H 1.164703 0.770463 0.321251
C12 C 1.23581(13) 0.65733(11) 0.30649(10)
H8 H 1.291515 0.656984 0.356989
C13 C 1.22819(13) 0.59011(11) 0.25286(10)
H9 H 1.278983 0.544368 0.267250
C14 C 1.14557(12) 0.59025(10) 0.17786(9)
H10 H 1.140398 0.544183 0.142402
C15 C 0.98683(12) 0.62621(9) -0.06670(9)
C16 C 0.66277(11) 0.63356(9) 0.03960(8)
H11 H 0.618882 0.581152 0.040681
C17 C 0.78319(11) 0.62518(9) 0.10677(8)
H12 H 0.801979 0.680436 0.134588
C18 C 0.77943(12) 0.55656(10) 0.17164(9)
C19 C 0.68742(14) 0.57936(12) 0.21314(10)
H13 H 0.705454 0.633547 0.240334
H14 H 0.614013 0.582864 0.172666
H15 H 0.684803 0.536052 0.252568
C20 C 0.89448(13) 0.54776(12) 0.23577(9)
H16 H 0.916658 0.602016 0.261927
H17 H 0.888403 0.506334 0.275984
H18 H 0.951341 0.529333 0.210058
C21 C 0.43607(15) 0.66395(16) -0.21186(11)
H19 H 0.358292 0.669569 -0.209454
H20 H 0.456185 0.713048 -0.238771
H21 H 0.442902 0.613233 -0.241966
O6 O 0.73683(8) 0.80453(6) 0.04497(6)
O7 O 0.44206(8) 0.61596(7) 0.05332(7)
O8 O 0.38912(9) 0.91286(7) 0.09013(7)
H22 H 0.425683 0.957633 0.094938
O9 O 0.56152(9) 1.01109(7) 0.09515(7)
C22 C 0.75778(12) 0.88902(9) 0.01641(9)
H23 H 0.703939 0.898136 -0.037999
C23 C 0.73475(12) 0.95602(9) 0.07398(9)
H24 H 0.788301 0.948773 0.128025
H25 H 0.746204 1.012608 0.054249
C24 C 0.61409(12) 0.94802(9) 0.07930(8)
C25 C 0.45438(12) 0.84760(10) 0.07588(9)
C26 C 0.41110(12) 0.76578(10) 0.07064(9)
H26 H 0.337417 0.756013 0.074950
C27 C 0.47880(12) 0.69767(9) 0.05881(8)
C28 C 0.59096(11) 0.70905(9) 0.05174(8)
C29 C 0.62979(11) 0.79251(9) 0.05453(8)
C30 C 0.56499(12) 0.86357(9) 0.06812(8)
C31 C 0.33078(15) 0.59954(13) 0.06212(15)
H27 H 0.315362 0.539239 0.056948
H28 H 0.327731 0.618676 0.115066
H29 H 0.274188 0.629631 0.020272
C32 C 0.87760(12) 0.88544(9) 0.00764(9)
C33 C 0.89300(13) 0.84914(10) -0.06303(9)
H30 H 0.829317 0.832628 -0.105310
C34 C 1.00267(14) 0.83734(10) -0.07097(10)
H31 H 1.012217 0.812835 -0.118413
C35 C 1.09721(14) 0.86176(10) -0.00893(11)
H32 H 1.170706 0.852887 -0.013969
C36 C 1.08306(14) 0.89935(11) 0.06065(11)
H33 H 1.147034 0.916836 0.102203
C37 C 0.97358(13) 0.91127(10) 0.06902(10)
H34 H 0.964607 0.936783 0.116192
loop_
_geom_bond_atom_site_label_1
_geom_bond_atom_site_label_2
_geom_bond_site_symmetry_1
_geom_bond_site_symmetry_2
O1 C8 1_555 1_555
O2 C15 1_555 1_555
O3 H1 1_555 1_555
O4 C3 1_555 1_555
O5 H2 1_555 1_555
C1 C2 1_555 1_555
C2 C3 1_555 1_555
C3 C4 1_555 1_555
C4 H3 1_555 1_555
C5 O3 1_555 1_555
C6 C1 1_555 1_555
C7 C1 1_555 1_555
H4 C7 1_555 1_555
C8 C7 1_555 1_555
H5 C8 1_555 1_555
C9 C8 1_555 1_555
C10 C9 1_555 1_555
H6 C10 1_555 1_555
C11 C10 1_555 1_555
H7 C11 1_555 1_555
C12 C11 1_555 1_555
H8 C12 1_555 1_555
C13 C12 1_555 1_555
H9 C13 1_555 1_555
C14 C9 1_555 1_555
H10 C14 1_555 1_555
C15 O1 1_555 1_555
C16 C2 1_555 1_555
H11 C16 1_555 1_555
C17 C7 1_555 1_555
H12 C17 1_555 1_555
C18 O5 1_555 1_555
C19 C18 1_555 1_555
H13 C19 1_555 1_555
H14 C19 1_555 1_555
H15 C19 1_555 1_555
C20 C18 1_555 1_555
H16 C20 1_555 1_555
H17 C20 1_555 1_555
H18 C20 1_555 1_555
C21 O4 1_555 1_555
H19 C21 1_555 1_555
H20 C21 1_555 1_555
H21 C21 1_555 1_555
O6 C22 1_555 1_555
O7 C27 1_555 1_555
O8 H22 1_555 1_555
O9 C24 1_555 1_555
C22 H23 1_555 1_555
C23 C22 1_555 1_555
H24 C23 1_555 1_555
H25 C23 1_555 1_555
C24 C23 1_555 1_555
C25 O8 1_555 1_555
C26 C25 1_555 1_555
H26 C26 1_555 1_555
C27 C26 1_555 1_555
C28 C16 1_555 1_555
C29 O6 1_555 1_555
C30 C24 1_555 1_555
C31 O7 1_555 1_555
H27 C31 1_555 1_555
H28 C31 1_555 1_555
H29 C31 1_555 1_555
C32 C22 1_555 1_555
C33 C32 1_555 1_555
H30 C33 1_555 1_555
C34 C33 1_555 1_555
H31 C34 1_555 1_555
C35 C34 1_555 1_555
H32 C35 1_555 1_555
C36 C35 1_555 1_555
H33 C36 1_555 1_555
C37 C32 1_555 1_555
H34 C37 1_555 1_555
C4 C5 1_555 1_555
C5 C6 1_555 1_555
C6 C15 1_555 1_555
C13 C14 1_555 1_555
C16 C17 1_555 1_555
C17 C18 1_555 1_555
C25 C30 1_555 1_555
C27 C28 1_555 1_555
C28 C29 1_555 1_555
C29 C30 1_555 1_555
C36 C37 1_555 1_555

#END
