
#######################################################################
#
#                 Cambridge Crystallographic Data Centre
#                                CCDC 
#
#######################################################################
#
# If this CIF has been generated from an entry in the Cambridge 
# Structural Database, then it will include bibliographic, chemical, 
# crystal, experimental, refinement or atomic coordinate data resulting 
# from the CCDC's data processing and validation procedures.
#
#######################################################################

data_VEQPIR
_chemical_formula_moiety         'C12 H12 F7 I1 O2'
_chemical_name_systematic        
'6-exo-(heptafluoroisopropyl)-5-endo-iodo-2-exo-methylbicyclo[2.2.1]heptane-2-endo-carboxylic acid'
_symmetry_cell_setting           monoclinic
_symmetry_space_group_name_H-M   'P 21/c'
_symmetry_Int_Tables_number      14
_space_group_name_Hall           '-P 2ybc'
loop_
_symmetry_equiv_pos_site_id
_symmetry_equiv_pos_as_xyz
1 x,y,z
2 -x,1/2+y,1/2-z
3 -x,-y,-z
4 x,1/2-y,1/2+z
_cell_length_a                   14.195(5)
_cell_length_b                   7.222(2)
_cell_length_c                   15.122(5)
_cell_angle_alpha                90
_cell_angle_beta                 95.793(6)
_cell_angle_gamma                90
_cell_volume                     1542.33
_exptl_crystal_colour            colorless
_chemical_melting_point          '114.9-115.3 deg.C'
_cell_formula_units_Z            4
loop_
_atom_site_label
_atom_site_type_symbol
_atom_site_fract_x
_atom_site_fract_y
_atom_site_fract_z
I1 I 0.32965(3) 1.12002(5) 0.67520(2)
O1 O 0.3997(3) 0.8432(6) 1.0011(2)
H1 H 0.4402 0.8966 1.0343
O2 O 0.4964(3) 0.9085(5) 0.8991(2)
F1 F 0.1391(2) 1.1663(4) 0.8063(2)
F2 F 0.2446(3) 1.1689(7) 0.9662(3)
F3 F 0.1708(4) 0.9335(7) 1.0088(2)
F4 F 0.0977(4) 1.1835(7) 0.9717(3)
F5 F 0.0605(2) 0.7425(6) 0.8794(3)
F6 F -0.0139(2) 0.9951(6) 0.8597(3)
F7 F 0.0419(3) 0.8637(5) 0.7504(3)
C1 C 0.3913(3) 0.6904(6) 0.7654(3)
H2 H 0.4290 0.7981 0.7538
H3 H 0.4234 0.5800 0.7474
C2 C 0.3737(3) 0.6804(6) 0.8647(3)
C3 C 0.2647(3) 0.7095(6) 0.8612(3)
H4 H 0.2361 0.6716 0.9148
C4 C 0.2323(4) 0.5981(6) 0.7767(3)
H5 H 0.2500 0.4685 0.7817
H6 H 0.1649 0.6094 0.7592
C5 C 0.2913(3) 0.7050(7) 0.7165(3)
H7 H 0.2862 0.6602 0.6551
C6 C 0.2491(3) 0.8988(6) 0.7275(3)
H8 H 0.1847 0.9010 0.6972
C7 C 0.2430(3) 0.9119(6) 0.8300(3)
H9 H 0.2965 0.9882 0.8546
C8 C 0.1526(3) 1.0059(7) 0.8558(3)
C9 C 0.1645(5) 1.0726(11) 0.9527(4)
C10 C 0.0583(4) 0.9004(8) 0.8376(5)
C11 C 0.4029(4) 0.4918(7) 0.9061(3)
H10 H 0.4705 0.4788 0.9090
H11 H 0.3732 0.3944 0.8702
H12 H 0.3833 0.4847 0.9649
C12 C 0.4296(3) 0.8243(6) 0.9221(3)
loop_
_geom_bond_atom_site_label_1
_geom_bond_atom_site_label_2
_geom_bond_site_symmetry_1
_geom_bond_site_symmetry_2
I1 C6 1_555 1_555
O1 H1 1_555 1_555
O2 C12 1_555 1_555
F1 C8 1_555 1_555
F2 C9 1_555 1_555
F3 C9 1_555 1_555
F4 C9 1_555 1_555
F5 C10 1_555 1_555
F6 C10 1_555 1_555
F7 C10 1_555 1_555
C1 H2 1_555 1_555
H3 C1 1_555 1_555
C2 C1 1_555 1_555
C3 C2 1_555 1_555
H4 C3 1_555 1_555
C4 C3 1_555 1_555
H5 C4 1_555 1_555
H6 C4 1_555 1_555
C5 C1 1_555 1_555
H7 C5 1_555 1_555
C6 C5 1_555 1_555
H8 C6 1_555 1_555
C7 C3 1_555 1_555
H9 C7 1_555 1_555
C8 C7 1_555 1_555
C9 C8 1_555 1_555
C10 C8 1_555 1_555
C11 C2 1_555 1_555
H10 C11 1_555 1_555
H11 C11 1_555 1_555
H12 C11 1_555 1_555
C12 O1 1_555 1_555
C2 C12 1_555 1_555
C4 C5 1_555 1_555
C6 C7 1_555 1_555

#END
