
#######################################################################
#
#                 Cambridge Crystallographic Data Centre
#                                CCDC 
#
#######################################################################
#
# If this CIF has been generated from an entry in the Cambridge 
# Structural Database, then it will include bibliographic, chemical, 
# crystal, experimental, refinement or atomic coordinate data resulting 
# from the CCDC's data processing and validation procedures.
#
#######################################################################

data_VEQRUH
_chemical_formula_moiety         'C68 H44 N4'
_chemical_name_systematic        
1-phenyl-2-(4-(2-(4-(triphenylethenyl)phenyl)-1H-phenanthro[9,10-d]imidazol-1-yl)phenyl)-1H-phenanthro[9,10-d]imidazole
_symmetry_cell_setting           triclinic
_symmetry_space_group_name_H-M   'P -1'
_symmetry_Int_Tables_number      2
_space_group_name_Hall           '-P 1'
loop_
_symmetry_equiv_pos_site_id
_symmetry_equiv_pos_as_xyz
1 x,y,z
2 -x,-y,-z
_cell_length_a                   9.53878(16)
_cell_length_b                   16.8070(3)
_cell_length_c                   18.0235(3)
_cell_angle_alpha                103.5840(14)
_cell_angle_beta                 104.8340(14)
_cell_angle_gamma                91.8775(14)
_cell_volume                     2701.76
_exptl_crystal_colour            colorless
_exptl_crystal_description       block
_cell_formula_units_Z            2
loop_
_atom_site_label
_atom_site_type_symbol
_atom_site_fract_x
_atom_site_fract_y
_atom_site_fract_z
N1 N 0.15026(10) 0.42198(6) 0.43163(6)
N2 N 0.16504(10) 0.55209(5) 0.42150(5)
N3 N 0.26561(12) 0.93452(6) 0.61061(6)
N4 N 0.25355(10) 0.95547(6) 0.49102(6)
C1 C -0.16910(17) 0.31051(11) 0.16282(9)
H1 H -0.2192 0.3200 0.1147
C2 C -0.17167(19) 0.23193(11) 0.17163(11)
H2 H -0.2225 0.1890 0.1295
C3 C -0.09953(18) 0.21574(9) 0.24249(11)
H3 H -0.1039 0.1623 0.2485
C4 C -0.02166(15) 0.27849(8) 0.30391(9)
H4 H 0.0281 0.2675 0.3514
C5 C -0.01640(13) 0.35951(7) 0.29565(7)
C6 C -0.09250(14) 0.37755(9) 0.22484(7)
C7 C -0.09094(13) 0.46272(9) 0.21785(7)
C8 C -0.17118(16) 0.48335(11) 0.14904(9)
H5 H -0.2244 0.4415 0.1065
C9 C -0.17375(19) 0.56233(13) 0.14242(10)
H6 H -0.2271 0.5735 0.0957
C10 C -0.09724(19) 0.62598(11) 0.20509(10)
H7 H -0.1006 0.6800 0.2007
C11 C -0.01654(16) 0.60981(9) 0.27362(8)
H8 H 0.0344 0.6530 0.3155
C12 C -0.00998(13) 0.52845(8) 0.28127(7)
C13 C 0.07209(12) 0.50580(7) 0.35046(7)
C14 C 0.06696(12) 0.42645(7) 0.35851(7)
C15 C 0.20790(12) 0.49785(7) 0.46818(6)
C16 C 0.30790(12) 0.52228(7) 0.54835(7)
C17 C 0.27497(13) 0.49173(7) 0.60790(7)
H9 H 0.1888 0.4583 0.5968
C18 C 0.36878(13) 0.51056(8) 0.68302(7)
H10 H 0.3450 0.4893 0.7220
C19 C 0.49868(12) 0.56077(7) 0.70201(7)
C20 C 0.53306(13) 0.58903(8) 0.64135(7)
H11 H 0.6208 0.6209 0.6519
C21 C 0.43940(13) 0.57058(7) 0.56625(7)
H12 H 0.4642 0.5906 0.5269
C22 C 0.59571(13) 0.58105(8) 0.78437(7)
C23 C 0.61526(13) 0.50877(8) 0.81984(7)
C24 C 0.66645(17) 0.43909(9) 0.78141(9)
H13 H 0.6882 0.4378 0.7337
C25 C 0.68575(19) 0.37153(11) 0.81268(12)
H14 H 0.7212 0.3254 0.7864
C26 C 0.65270(19) 0.37250(12) 0.88240(13)
H15 H 0.6657 0.3270 0.9036
C27 C 0.60053(19) 0.44028(13) 0.92098(11)
H16 H 0.5776 0.4406 0.9682
C28 C 0.58180(16) 0.50830(10) 0.88994(8)
H17 H 0.5463 0.5542 0.9165
C29 C 0.66041(13) 0.65727(8) 0.82428(7)
C30 C 0.76964(14) 0.67357(8) 0.90338(7)
C31 C 0.88237(14) 0.62398(9) 0.91832(8)
H18 H 0.8894 0.5790 0.8785
C32 C 0.98361(17) 0.64051(11) 0.99115(9)
H19 H 1.0577 0.6064 1.0002
C33 C 0.9759(2) 0.70661(13) 1.05020(10)
H20 H 1.0445 0.7176 1.0993
C34 C 0.8673(2) 0.75650(12) 1.03696(9)
H21 H 0.8620 0.8015 1.0772
C35 C 0.76478(18) 0.74057(10) 0.96406(8)
H22 H 0.6916 0.7753 0.9557
C36 C 0.63008(14) 0.73119(8) 0.79265(7)
C37 C 0.48867(15) 0.74831(9) 0.76072(9)
H23 H 0.4102 0.7137 0.7602
C38 C 0.46329(19) 0.81574(10) 0.72992(10)
H24 H 0.3682 0.8260 0.7084
C39 C 0.5775(2) 0.86769(11) 0.73084(11)
H25 H 0.5601 0.9129 0.7096
C40 C 0.7181(2) 0.85280(11) 0.76333(11)
H26 H 0.7958 0.8884 0.7645
C41 C 0.74428(16) 0.78525(9) 0.79422(9)
H27 H 0.8397 0.7759 0.8163
C42 C 0.18825(12) 0.64007(6) 0.44970(7)
C43 C 0.10418(14) 0.67993(7) 0.49573(8)
H28 H 0.0344 0.6502 0.5089
C44 C 0.12466(15) 0.76468(7) 0.52209(8)
H29 H 0.0683 0.7919 0.5533
C45 C 0.22785(13) 0.80962(7) 0.50262(7)
C46 C 0.31243(14) 0.76842(7) 0.45652(8)
H30 H 0.3824 0.7979 0.4433
C47 C 0.29277(14) 0.68376(7) 0.43038(8)
H31 H 0.3498 0.6562 0.3998
C48 C 0.24903(13) 0.89943(7) 0.53543(8)
C49 C 0.28182(12) 1.01759(7) 0.61626(7)
C50 C 0.27293(12) 1.03293(7) 0.54373(7)
C51 C 0.31003(13) 1.08191(7) 0.68751(8)
C52 C 0.32747(16) 1.06575(9) 0.76176(8)
H32 H 0.3196 1.0117 0.7656
C53 C 0.35603(18) 1.12888(10) 0.82874(9)
H33 H 0.3676 1.1179 0.8780
C54 C 0.36769(19) 1.20930(10) 0.82278(10)
H34 H 0.3861 1.2522 0.8683
C55 C 0.35267(17) 1.22643(9) 0.75125(10)
H35 H 0.3621 1.2810 0.7490
C56 C 0.32316(13) 1.16375(7) 0.68044(8)
C57 C 0.30873(13) 1.18003(7) 0.60272(8)
C58 C 0.31906(16) 1.26091(8) 0.59377(10)
H36 H 0.3332 1.3047 0.6383
C59 C 0.30910(17) 1.27698(9) 0.52222(11)
H37 H 0.3161 1.3312 0.5185
C60 C 0.28867(17) 1.21352(9) 0.45521(10)
H38 H 0.2836 1.2249 0.4066
C61 C 0.27580(16) 1.13326(8) 0.46017(9)
H39 H 0.2609 1.0907 0.4145
C62 C 0.28482(12) 1.11477(7) 0.53293(8)
C63 C 0.22172(12) 0.93425(7) 0.40618(7)
C64 C 0.08086(15) 0.91048(11) 0.36179(9)
H40 H 0.0063 0.9103 0.3864
C65 C 0.05047(19) 0.88694(15) 0.28076(11)
H41 H -0.0450 0.8698 0.2504
C66 C 0.1593(2) 0.88835(13) 0.24401(10)
H42 H 0.1374 0.8738 0.1889
C67 C 0.29940(18) 0.91101(11) 0.28819(9)
H43 H 0.3737 0.9113 0.2634
C68 C 0.33157(14) 0.93354(9) 0.36964(9)
H44 H 0.4277 0.9483 0.3999
loop_
_geom_bond_atom_site_label_1
_geom_bond_atom_site_label_2
_geom_bond_site_symmetry_1
_geom_bond_site_symmetry_2
N1 C14 1_555 1_555
N2 C13 1_555 1_555
N3 C48 1_555 1_555
N4 C48 1_555 1_555
C1 H1 1_555 1_555
C2 C1 1_555 1_555
H2 C2 1_555 1_555
C3 C2 1_555 1_555
H3 C3 1_555 1_555
C4 C3 1_555 1_555
H4 C4 1_555 1_555
C5 C4 1_555 1_555
C6 C1 1_555 1_555
C7 C6 1_555 1_555
C8 C7 1_555 1_555
H5 C8 1_555 1_555
C9 C8 1_555 1_555
H6 C9 1_555 1_555
C10 C9 1_555 1_555
H7 C10 1_555 1_555
C11 C10 1_555 1_555
H8 C11 1_555 1_555
C12 C7 1_555 1_555
C13 C12 1_555 1_555
C14 C5 1_555 1_555
C15 N1 1_555 1_555
C16 C15 1_555 1_555
C17 C16 1_555 1_555
H9 C17 1_555 1_555
C18 C17 1_555 1_555
H10 C18 1_555 1_555
C19 C18 1_555 1_555
C20 C19 1_555 1_555
H11 C20 1_555 1_555
C21 C16 1_555 1_555
H12 C21 1_555 1_555
C22 C19 1_555 1_555
C23 C22 1_555 1_555
C24 C23 1_555 1_555
H13 C24 1_555 1_555
C25 C24 1_555 1_555
H14 C25 1_555 1_555
C26 C25 1_555 1_555
H15 C26 1_555 1_555
C27 C26 1_555 1_555
H16 C27 1_555 1_555
C28 C23 1_555 1_555
H17 C28 1_555 1_555
C29 C22 1_555 1_555
C30 C29 1_555 1_555
C31 C30 1_555 1_555
H18 C31 1_555 1_555
C32 C31 1_555 1_555
H19 C32 1_555 1_555
C33 C32 1_555 1_555
H20 C33 1_555 1_555
C34 C33 1_555 1_555
H21 C34 1_555 1_555
C35 C30 1_555 1_555
H22 C35 1_555 1_555
C36 C29 1_555 1_555
C37 C36 1_555 1_555
H23 C37 1_555 1_555
C38 C37 1_555 1_555
H24 C38 1_555 1_555
C39 C38 1_555 1_555
H25 C39 1_555 1_555
C40 C39 1_555 1_555
H26 C40 1_555 1_555
C41 C36 1_555 1_555
H27 C41 1_555 1_555
C42 N2 1_555 1_555
C43 C42 1_555 1_555
H28 C43 1_555 1_555
C44 C43 1_555 1_555
H29 C44 1_555 1_555
C45 C44 1_555 1_555
C46 C45 1_555 1_555
H30 C46 1_555 1_555
C47 C42 1_555 1_555
H31 C47 1_555 1_555
C48 C45 1_555 1_555
C49 N3 1_555 1_555
C50 N4 1_555 1_555
C51 C49 1_555 1_555
C52 C51 1_555 1_555
H32 C52 1_555 1_555
C53 C52 1_555 1_555
H33 C53 1_555 1_555
C54 C53 1_555 1_555
H34 C54 1_555 1_555
C55 C54 1_555 1_555
H35 C55 1_555 1_555
C56 C51 1_555 1_555
C57 C56 1_555 1_555
C58 C57 1_555 1_555
H36 C58 1_555 1_555
C59 C58 1_555 1_555
H37 C59 1_555 1_555
C60 C59 1_555 1_555
H38 C60 1_555 1_555
C61 C60 1_555 1_555
H39 C61 1_555 1_555
C62 C50 1_555 1_555
C63 N4 1_555 1_555
C64 C63 1_555 1_555
H40 C64 1_555 1_555
C65 C64 1_555 1_555
H41 C65 1_555 1_555
C66 C65 1_555 1_555
H42 C66 1_555 1_555
C67 C66 1_555 1_555
H43 C67 1_555 1_555
C68 C63 1_555 1_555
H44 C68 1_555 1_555
N2 C15 1_555 1_555
C5 C6 1_555 1_555
C11 C12 1_555 1_555
C13 C14 1_555 1_555
C20 C21 1_555 1_555
C27 C28 1_555 1_555
C34 C35 1_555 1_555
C40 C41 1_555 1_555
C46 C47 1_555 1_555
C49 C50 1_555 1_555
C55 C56 1_555 1_555
C57 C62 1_555 1_555
C61 C62 1_555 1_555
C67 C68 1_555 1_555

#END
