
#######################################################################
#
#                 Cambridge Crystallographic Data Centre
#                                CCDC 
#
#######################################################################
#
# If this CIF has been generated from an entry in the Cambridge 
# Structural Database, then it will include bibliographic, chemical, 
# crystal, experimental, refinement or atomic coordinate data resulting 
# from the CCDC's data processing and validation procedures.
#
#######################################################################

data_VEQRUF
_chemical_formula_moiety         'C27 H20 B1 N1 O1'
_chemical_name_systematic        (5-Phenyl-8-quinolato)diphenylborane
_symmetry_cell_setting           monoclinic
_symmetry_space_group_name_H-M   'P 21'
_symmetry_Int_Tables_number      4
_space_group_name_Hall           'P 2yb'
loop_
_symmetry_equiv_pos_site_id
_symmetry_equiv_pos_as_xyz
1 x,y,z
2 -x,1/2+y,-z
_cell_length_a                   7.7042(13)
_cell_length_b                   18.073(3)
_cell_length_c                   14.668(3)
_cell_angle_alpha                90
_cell_angle_beta                 98.440(4)
_cell_angle_gamma                90
_cell_volume                     2020.22
_exptl_crystal_colour            green
_exptl_crystal_description       prism
_cell_formula_units_Z            4
loop_
_atom_site_label
_atom_site_type_symbol
_atom_site_fract_x
_atom_site_fract_y
_atom_site_fract_z
O1 O 0.6912(3) 0.27361(16) 0.84489(18)
N1 N 0.4267(4) 0.26249(19) 0.9092(2)
B1 B 0.6276(6) 0.2914(3) 0.9338(3)
C1 C 0.6304(5) 0.3780(3) 0.9514(3)
C2 C 0.7334(6) 0.4240(3) 0.9066(3)
H1 H 0.7965 0.4039 0.8632
C3 C 0.7454(6) 0.4987(3) 0.9242(4)
H2 H 0.8182 0.5275 0.8932
C4 C 0.6557(7) 0.5311(3) 0.9843(4)
H3 H 0.6644 0.5818 0.9948
C5 C 0.5499(7) 0.4878(3) 1.0305(4)
H4 H 0.4858 0.5091 1.0727
C6 C 0.5398(6) 0.4134(3) 1.0137(3)
H5 H 0.4682 0.3850 1.0459
C7 C 0.7278(5) 0.2431(3) 1.0156(3)
C8 C 0.7224(6) 0.1674(3) 1.0112(4)
H6 H 0.6537 0.1450 0.9614
C9 C 0.8146(7) 0.1234(3) 1.0776(4)
H7 H 0.8068 0.0722 1.0725
C10 C 0.9178(6) 0.1548(3) 1.1513(4)
H8 H 0.9813 0.1251 1.1961
C11 C 0.9268(6) 0.2290(3) 1.1585(3)
H9 H 0.9969 0.2509 1.2083
C12 C 0.8322(5) 0.2725(3) 1.0919(3)
H10 H 0.8385 0.3237 1.0984
C13 C 0.2954(5) 0.2554(2) 0.9566(3)
H11 H 0.3136 0.2637 1.0198
C14 C 0.1318(5) 0.2360(3) 0.9133(3)
H12 H 0.0400 0.2318 0.9477
C15 C 0.1014(5) 0.2226(2) 0.8209(3)
H13 H -0.0107 0.2101 0.7925
C16 C 0.2387(5) 0.2277(2) 0.7692(3)
C17 C 0.2341(5) 0.2163(3) 0.6730(3)
C18 C 0.3890(6) 0.2249(3) 0.6391(3)
H14 H 0.3868 0.2180 0.5761
C19 C 0.5501(5) 0.2429(2) 0.6908(3)
H15 H 0.6514 0.2459 0.6635
C20 C 0.5542(6) 0.2560(2) 0.7817(3)
C21 C 0.3995(5) 0.2477(2) 0.8174(3)
C22 C -0.0207(6) 0.1337(3) 0.6234(3)
H16 H 0.0214 0.1004 0.6698
C23 C 0.0697(5) 0.1990(3) 0.6126(3)
C24 C 0.0063(7) 0.2465(3) 0.5426(3)
H17 H 0.0666 0.2899 0.5342
C25 C -0.1457(7) 0.2302(4) 0.4851(4)
H18 H -0.1886 0.2632 0.4385
C26 C -0.2350(7) 0.1660(4) 0.4952(4)
H19 H -0.3366 0.1549 0.4551
C27 C -0.1740(8) 0.1188(4) 0.5643(4)
H20 H -0.2361 0.0757 0.5721
O2 O 0.3433(3) 0.39595(17) 0.41712(18)
N2 N 0.6072(4) 0.4025(2) 0.3529(2)
B2 B 0.4028(6) 0.3791(3) 0.3252(3)
C28 C 0.3923(5) 0.2923(3) 0.3064(3)
C29 C 0.4659(6) 0.2591(3) 0.2368(4)
H21 H 0.5250 0.2884 0.1993
C30 C 0.4550(6) 0.1834(4) 0.2207(4)
H22 H 0.5065 0.1621 0.1735
C31 C 0.3680(7) 0.1416(3) 0.2750(4)
H23 H 0.3595 0.0908 0.2650
C32 C 0.2927(7) 0.1719(4) 0.3440(4)
H24 H 0.2331 0.1423 0.3810
C33 C 0.3051(6) 0.2465(3) 0.3584(3)
H25 H 0.2522 0.2670 0.4056
C34 C 0.3086(5) 0.4313(3) 0.2478(3)
C35 C 0.3277(6) 0.5076(3) 0.2548(3)
H26 H 0.4092 0.5269 0.3019
C36 C 0.2312(8) 0.5555(3) 0.1953(4)
H27 H 0.2470 0.6063 0.2032
C37 C 0.1126(7) 0.5296(4) 0.1249(4)
H28 H 0.0459 0.5620 0.0847
C38 C 0.0939(6) 0.4553(3) 0.1147(3)
H29 H 0.0135 0.4366 0.0668
C39 C 0.1916(5) 0.4077(3) 0.1738(3)
H30 H 0.1782 0.3571 0.1635
C40 C 0.7411(5) 0.4072(3) 0.3064(3)
H31 H 0.7228 0.4006 0.2429
C41 C 0.9073(5) 0.4217(3) 0.3509(3)
H32 H 0.9998 0.4245 0.3169
C42 C 0.9391(5) 0.4320(2) 0.4433(3)
H33 H 1.0528 0.4403 0.4726
C43 C 0.7975(5) 0.4299(2) 0.4949(3)
C44 C 0.8041(5) 0.4386(2) 0.5909(3)
C45 C 0.6492(5) 0.4304(2) 0.6248(3)
H34 H 0.6528 0.4352 0.6882
C46 C 0.4854(5) 0.4155(3) 0.5727(3)
H35 H 0.3845 0.4104 0.6000
C47 C 0.4817(5) 0.4088(3) 0.4811(3)
C48 C 0.6372(5) 0.4138(3) 0.4443(3)
C49 C 1.0688(6) 0.5134(3) 0.6384(3)
H36 H 1.0313 0.5451 0.5895
C50 C 0.9704(5) 0.4523(3) 0.6526(3)
C51 C 1.0265(6) 0.4087(3) 0.7253(3)
H37 H 0.9604 0.3675 0.7363
C52 C 1.1797(6) 0.4235(3) 0.7840(3)
H38 H 1.2159 0.3924 0.8337
C53 C 1.2779(6) 0.4840(3) 0.7687(4)
H39 H 1.3811 0.4946 0.8079
C54 C 1.2231(7) 0.5280(3) 0.6959(4)
H40 H 1.2902 0.5687 0.6844
loop_
_geom_bond_atom_site_label_1
_geom_bond_atom_site_label_2
_geom_bond_site_symmetry_1
_geom_bond_site_symmetry_2
O1 B1 1_555 1_555
O2 B2 1_555 1_555
N1 B1 1_555 1_555
N2 B2 1_555 1_555
B1 C1 1_555 1_555
B2 C28 1_555 1_555
C1 C2 1_555 1_555
C2 H1 1_555 1_555
C3 C2 1_555 1_555
H2 C3 1_555 1_555
C4 C3 1_555 1_555
H3 C4 1_555 1_555
C5 C4 1_555 1_555
H4 C5 1_555 1_555
C6 C1 1_555 1_555
H5 C6 1_555 1_555
C7 B1 1_555 1_555
C8 C7 1_555 1_555
H6 C8 1_555 1_555
C9 C8 1_555 1_555
H7 C9 1_555 1_555
C10 C9 1_555 1_555
H8 C10 1_555 1_555
C11 C10 1_555 1_555
H9 C11 1_555 1_555
C12 C7 1_555 1_555
H10 C12 1_555 1_555
C13 N1 1_555 1_555
H11 C13 1_555 1_555
C14 C13 1_555 1_555
H12 C14 1_555 1_555
C15 C14 1_555 1_555
H13 C15 1_555 1_555
C16 C15 1_555 1_555
C17 C16 1_555 1_555
C18 C17 1_555 1_555
H14 C18 1_555 1_555
C19 C18 1_555 1_555
H15 C19 1_555 1_555
C20 O1 1_555 1_555
C21 N1 1_555 1_555
C22 H16 1_555 1_555
C23 C17 1_555 1_555
C24 C23 1_555 1_555
H17 C24 1_555 1_555
C25 C24 1_555 1_555
H18 C25 1_555 1_555
C26 C25 1_555 1_555
H19 C26 1_555 1_555
C27 C22 1_555 1_555
H20 C27 1_555 1_555
C28 C29 1_555 1_555
C29 H21 1_555 1_555
C30 C29 1_555 1_555
H22 C30 1_555 1_555
C31 C30 1_555 1_555
H23 C31 1_555 1_555
C32 C31 1_555 1_555
H24 C32 1_555 1_555
C33 C28 1_555 1_555
H25 C33 1_555 1_555
C34 B2 1_555 1_555
C35 C34 1_555 1_555
H26 C35 1_555 1_555
C36 C35 1_555 1_555
H27 C36 1_555 1_555
C37 C36 1_555 1_555
H28 C37 1_555 1_555
C38 C37 1_555 1_555
H29 C38 1_555 1_555
C39 C34 1_555 1_555
H30 C39 1_555 1_555
C40 N2 1_555 1_555
H31 C40 1_555 1_555
C41 C40 1_555 1_555
H32 C41 1_555 1_555
C42 C41 1_555 1_555
H33 C42 1_555 1_555
C43 C42 1_555 1_555
C44 C43 1_555 1_555
C45 C44 1_555 1_555
H34 C45 1_555 1_555
C46 C45 1_555 1_555
H35 C46 1_555 1_555
C47 O2 1_555 1_555
C48 N2 1_555 1_555
C49 H36 1_555 1_555
C50 C44 1_555 1_555
C51 C50 1_555 1_555
H37 C51 1_555 1_555
C52 C51 1_555 1_555
H38 C52 1_555 1_555
C53 C52 1_555 1_555
H39 C53 1_555 1_555
C54 C49 1_555 1_555
H40 C54 1_555 1_555
C5 C6 1_555 1_555
C11 C12 1_555 1_555
C16 C21 1_555 1_555
C19 C20 1_555 1_555
C20 C21 1_555 1_555
C22 C23 1_555 1_555
C26 C27 1_555 1_555
C32 C33 1_555 1_555
C38 C39 1_555 1_555
C43 C48 1_555 1_555
C46 C47 1_555 1_555
C47 C48 1_555 1_555
C49 C50 1_555 1_555
C53 C54 1_555 1_555

#END
