
#######################################################################
#
#                 Cambridge Crystallographic Data Centre
#                                CCDC 
#
#######################################################################
#
# If this CIF has been generated from an entry in the Cambridge 
# Structural Database, then it will include bibliographic, chemical, 
# crystal, experimental, refinement or atomic coordinate data resulting 
# from the CCDC's data processing and validation procedures.
#
#######################################################################

data_VEQSOC
_chemical_formula_moiety         'C22 H16 F1 N1 O1'
_chemical_name_systematic        
2-benzyl-3-benzylidene-5-fluoro-2,3-dihydro-1H-isoindol-1-one
_symmetry_cell_setting           monoclinic
_symmetry_space_group_name_H-M   'C c'
_symmetry_Int_Tables_number      9
_space_group_name_Hall           'C -2yc'
loop_
_symmetry_equiv_pos_site_id
_symmetry_equiv_pos_as_xyz
1 x,y,z
2 x,-y,1/2+z
3 1/2+x,1/2+y,z
4 1/2+x,1/2-y,1/2+z
_cell_length_a                   9.4490(5)
_cell_length_b                   31.8600(15)
_cell_length_c                   6.9657(3)
_cell_angle_alpha                90
_cell_angle_beta                 128.215(4)
_cell_angle_gamma                90
_cell_volume                     1647.59
_exptl_crystal_colour            colorless
_exptl_crystal_description       block
_cell_formula_units_Z            4
loop_
_atom_site_label
_atom_site_type_symbol
_atom_site_fract_x
_atom_site_fract_y
_atom_site_fract_z
F1 F 0.8922(2) 0.07349(4) 0.7060(3)
C1 C 0.3656(3) -0.04721(7) 0.1847(4)
C2 C 0.6600(3) -0.02507(6) 0.4776(4)
O1 O 0.2030(2) -0.04823(5) 0.0276(3)
N1 N 0.4765(2) -0.08229(5) 0.2879(3)
C3 C 0.7580(3) 0.04483(7) 0.5743(4)
C4 C 0.6589(3) -0.07125(6) 0.4692(4)
C5 C 0.4854(3) -0.01066(7) 0.3060(4)
C6 C 0.8069(3) -0.09515(7) 0.6101(4)
H1 H 0.9113 -0.0804 0.7275
C7 C 0.3980(3) -0.12430(6) 0.2208(4)
H2 H 0.4752 -0.1427 0.2112
H3 H 0.2820 -0.1231 0.0597
C8 C 0.3725(3) -0.14307(6) 0.3977(4)
C9 C 0.4593(3) -0.17982(7) 0.5246(5)
H4 H 0.5395 -0.1927 0.5082
C10 C 0.8036(3) 0.00287(7) 0.6189(4)
H5 H 0.9217 -0.0062 0.7348
C11 C 0.4438(3) 0.03184(7) 0.2664(4)
H6 H 0.3257 0.0409 0.1513
C12 C 0.2213(4) -0.14154(8) 0.5773(5)
H7 H 0.1420 -0.1286 0.5955
C13 C 0.7870(3) -0.16233(7) 0.4051(5)
H8 H 0.7351 -0.1478 0.2599
C14 C 0.5842(3) 0.06032(7) 0.4043(4)
H9 H 0.5626 0.0891 0.3834
C15 C 0.8323(3) -0.14096(7) 0.6105(4)
C16 C 0.2539(3) -0.12396(7) 0.4258(4)
H10 H 0.1960 -0.0992 0.3424
C17 C 0.8184(4) -0.20530(8) 0.4146(5)
H11 H 0.7848 -0.2195 0.2753
C18 C 0.3067(4) -0.17843(8) 0.7015(5)
H12 H 0.2838 -0.1905 0.8014
C19 C 0.9505(4) -0.20589(8) 0.8383(5)
H13 H 1.0069 -0.2204 0.9848
C20 C 0.9176(4) -0.16308(8) 0.8286(5)
H14 H 0.9530 -0.1491 0.9692
C21 C 0.8997(4) -0.22683(8) 0.6319(6)
H15 H 0.9200 -0.2555 0.6384
C22 C 0.4263(4) -0.19737(8) 0.6765(5)
H16 H 0.4848 -0.2219 0.7615
loop_
_geom_bond_atom_site_label_1
_geom_bond_atom_site_label_2
_geom_bond_site_symmetry_1
_geom_bond_site_symmetry_2
F1 C3 1_555 1_555
C1 O1 1_555 1_555
C2 C4 1_555 1_555
N1 C1 1_555 1_555
C3 C10 1_555 1_555
C4 N1 1_555 1_555
C5 C1 1_555 1_555
C6 C4 1_555 1_555
H1 C6 1_555 1_555
C7 N1 1_555 1_555
H2 C7 1_555 1_555
H3 C7 1_555 1_555
C8 C7 1_555 1_555
C9 C8 1_555 1_555
H4 C9 1_555 1_555
C10 C2 1_555 1_555
H5 C10 1_555 1_555
C11 C5 1_555 1_555
H6 C11 1_555 1_555
C12 H7 1_555 1_555
C13 H8 1_555 1_555
C14 C3 1_555 1_555
H9 C14 1_555 1_555
C15 C6 1_555 1_555
C16 C8 1_555 1_555
H10 C16 1_555 1_555
C17 C13 1_555 1_555
H11 C17 1_555 1_555
C18 C12 1_555 1_555
H12 C18 1_555 1_555
C19 H13 1_555 1_555
C20 C15 1_555 1_555
H14 C20 1_555 1_555
C21 C17 1_555 1_555
H15 C21 1_555 1_555
C22 C9 1_555 1_555
H16 C22 1_555 1_555
C2 C5 1_555 1_555
C11 C14 1_555 1_555
C12 C16 1_555 1_555
C13 C15 1_555 1_555
C18 C22 1_555 1_555
C19 C20 1_555 1_555
C19 C21 1_555 1_555

#END
