
#######################################################################
#
#                 Cambridge Crystallographic Data Centre
#                                CCDC 
#
#######################################################################
#
# If this CIF has been generated from an entry in the Cambridge 
# Structural Database, then it will include bibliographic, chemical, 
# crystal, experimental, refinement or atomic coordinate data resulting 
# from the CCDC's data processing and validation procedures.
#
#######################################################################

data_VEQSAN
_chemical_compound_source        'Lycopodium japonicum'
_chemical_formula_moiety         'C20 H31 N1 O5'
_chemical_name_systematic        12\b-Hydroxy-acetylfawcettiine
_symmetry_cell_setting           monoclinic
_symmetry_space_group_name_H-M   'P 21'
_symmetry_Int_Tables_number      4
_space_group_name_Hall           'P 2yb'
loop_
_symmetry_equiv_pos_site_id
_symmetry_equiv_pos_as_xyz
1 x,y,z
2 -x,1/2+y,-z
_cell_length_a                   8.6971(2)
_cell_length_b                   7.9485(1)
_cell_length_c                   13.9134(2)
_cell_angle_alpha                90
_cell_angle_beta                 92.810(1)
_cell_angle_gamma                90
_cell_volume                     960.662
_exptl_crystal_colour            colorless
_exptl_crystal_description       block
_cell_formula_units_Z            2
loop_
_atom_site_label
_atom_site_type_symbol
_atom_site_fract_x
_atom_site_fract_y
_atom_site_fract_z
O1 O 1.02872(18) 0.4802(2) 0.03301(10)
H1 H 1.0580 0.3928 0.0084
O2 O 0.87492(17) 0.4849(2) 0.38372(10)
O3 O 0.7651(3) 0.2885(3) 0.47360(14)
O4 O 1.19891(18) 0.2864(2) 0.29290(13)
O5 O 1.4294(2) 0.2669(3) 0.22582(15)
N1 N 0.8014(2) 0.7297(2) 0.07820(12)
C1 C 0.7524(3) 0.8875(3) 0.12441(17)
H2 H 0.7011 0.9581 0.0758
H3 H 0.8434 0.9471 0.1489
C2 C 0.6440(3) 0.8625(3) 0.20720(18)
H4 H 0.6292 0.9693 0.2392
H5 H 0.5445 0.8243 0.1813
C3 C 0.7083(2) 0.7351(3) 0.27981(15)
H6 H 0.6317 0.7105 0.3262
H7 H 0.7981 0.7818 0.3142
C4 C 0.7527(2) 0.5730(3) 0.22912(13)
H8 H 0.6587 0.5395 0.1923
C5 C 0.7851(2) 0.4268(3) 0.29840(14)
H9 H 0.6859 0.3864 0.3197
C6 C 0.8656(2) 0.2778(3) 0.25195(15)
H10 H 0.8448 0.1671 0.2686
C7 C 0.9822(2) 0.3212(3) 0.17677(15)
H11 H 1.0058 0.2161 0.1438
C8 C 1.1367(2) 0.3951(3) 0.21555(16)
H12 H 1.2085 0.3944 0.1634
C9 C 0.6716(3) 0.6598(3) 0.01818(16)
H13 H 0.6388 0.7420 -0.0301
H14 H 0.5856 0.6386 0.0583
C10 C 0.7146(3) 0.4980(3) -0.03114(16)
H15 H 0.7934 0.5208 -0.0764
H16 H 0.6251 0.4533 -0.0669
C11 C 0.7742(3) 0.3685(3) 0.04224(15)
H17 H 0.8042 0.2667 0.0096
H18 H 0.6938 0.3401 0.0853
C12 C 0.9128(2) 0.4420(3) 0.09967(14)
C13 C 0.8718(2) 0.6088(3) 0.15044(13)
C14 C 1.0245(2) 0.6866(3) 0.19034(15)
H19 H 1.0522 0.7964 0.1759
C15 C 1.1277(2) 0.5738(3) 0.25472(16)
H20 H 1.0831 0.5681 0.3180
C16 C 1.2878(3) 0.6515(4) 0.2682(2)
H21 H 1.3517 0.5806 0.3092
H22 H 1.2799 0.7607 0.2970
H23 H 1.3325 0.6621 0.2067
C17 C 0.8573(3) 0.3996(3) 0.46524(16)
C18 C 0.9711(4) 0.4565(6) 0.54234(19)
H24 H 0.9569 0.3933 0.6000
H25 H 0.9560 0.5740 0.5549
H26 H 1.0736 0.4389 0.5217
C19 C 1.3480(3) 0.2380(4) 0.2904(2)
C20 C 1.3983(4) 0.1487(5) 0.3814(3)
H27 H 1.5037 0.1144 0.3780
H28 H 1.3348 0.0514 0.3893
H29 H 1.3886 0.2231 0.4351
loop_
_geom_bond_atom_site_label_1
_geom_bond_atom_site_label_2
_geom_bond_site_symmetry_1
_geom_bond_site_symmetry_2
O1 H1 1_555 1_555
O2 C5 1_555 1_555
O3 C17 1_555 1_555
O4 C8 1_555 1_555
O5 C19 1_555 1_555
N1 C1 1_555 1_555
C1 H2 1_555 1_555
H3 C1 1_555 1_555
C2 C1 1_555 1_555
H4 C2 1_555 1_555
H5 C2 1_555 1_555
C3 C2 1_555 1_555
H6 C3 1_555 1_555
H7 C3 1_555 1_555
C4 C3 1_555 1_555
H8 C4 1_555 1_555
C5 C4 1_555 1_555
H9 C5 1_555 1_555
C6 C5 1_555 1_555
H10 C6 1_555 1_555
C7 C6 1_555 1_555
H11 C7 1_555 1_555
C8 C7 1_555 1_555
H12 C8 1_555 1_555
C9 N1 1_555 1_555
H13 C9 1_555 1_555
H14 C9 1_555 1_555
C10 C9 1_555 1_555
H15 C10 1_555 1_555
H16 C10 1_555 1_555
C11 C10 1_555 1_555
H17 C11 1_555 1_555
H18 C11 1_555 1_555
C12 O1 1_555 1_555
C13 N1 1_555 1_555
C14 C13 1_555 1_555
H19 C14 1_555 1_555
C15 C8 1_555 1_555
H20 C15 1_555 1_555
C16 C15 1_555 1_555
H21 C16 1_555 1_555
H22 C16 1_555 1_555
H23 C16 1_555 1_555
C17 O2 1_555 1_555
C18 C17 1_555 1_555
H24 C18 1_555 1_555
H25 C18 1_555 1_555
H26 C18 1_555 1_555
C19 O4 1_555 1_555
C20 C19 1_555 1_555
H27 C20 1_555 1_555
H28 C20 1_555 1_555
H29 C20 1_555 1_555
C4 C13 1_555 1_555
C7 C12 1_555 1_555
C11 C12 1_555 1_555
C12 C13 1_555 1_555
C14 C15 1_555 1_555

#END
