
#######################################################################
#
#                 Cambridge Crystallographic Data Centre
#                                CCDC 
#
#######################################################################
#
# If this CIF has been generated from an entry in the Cambridge 
# Structural Database, then it will include bibliographic, chemical, 
# crystal, experimental, refinement or atomic coordinate data resulting 
# from the CCDC's data processing and validation procedures.
#
#######################################################################

data_VEQSIV
_chemical_formula_moiety         '2(C42 H30 O6),3(C60),4(C7 H8)'
_chemical_name_systematic        
'bis(Hexamethoxytribenzocoronene) tris(C60fullerene) toluene solvate'
_symmetry_cell_setting           monoclinic
_symmetry_space_group_name_H-M   'C 2/m'
_symmetry_Int_Tables_number      12
_space_group_name_Hall           '-C 2y'
loop_
_symmetry_equiv_pos_site_id
_symmetry_equiv_pos_as_xyz
1 x,y,z
2 -x,y,-z
3 1/2+x,1/2+y,z
4 1/2-x,1/2+y,-z
5 -x,-y,-z
6 x,-y,z
7 1/2-x,1/2-y,-z
8 1/2+x,1/2-y,z
_cell_length_a                   29.934(4)
_cell_length_b                   17.663(2)
_cell_length_c                   15.968(2)
_cell_angle_alpha                90
_cell_angle_beta                 110.210(2)
_cell_angle_gamma                90
_cell_volume                     7922.88
_exptl_crystal_colour            black
_exptl_crystal_description       block
_cell_formula_units_Z            2
loop_
_atom_site_label
_atom_site_type_symbol
_atom_site_fract_x
_atom_site_fract_y
_atom_site_fract_z
O1 O 0.61848(4) -0.07508(6) 0.20635(8)
O2 O 0.81510(4) -0.27348(6) 0.18346(8)
O3 O 0.89178(4) -0.19923(6) 0.18150(8)
C1 C 0.65284(5) -0.03937(8) 0.18114(10)
C2 C 0.68551(5) -0.08033(8) 0.15286(10)
C3 C 0.68068(5) -0.16076(8) 0.12948(10)
C4 C 0.63617(5) -0.19794(9) 0.10279(10)
H1 H 0.6091 -0.1720 0.1064
C5 C 0.63138(6) -0.27114(9) 0.07163(10)
H2 H 0.6012 -0.2954 0.0547
C6 C 0.67052(6) -0.30994(9) 0.06478(10)
H3 H 0.6670 -0.3605 0.0431
C7 C 0.71428(6) -0.27497(9) 0.08939(10)
H4 H 0.7407 -0.3014 0.0838
C8 C 0.72028(5) -0.20031(8) 0.12289(10)
C9 C 0.76570(5) -0.16047(8) 0.14247(10)
C10 C 0.81002(5) -0.19750(8) 0.16344(10)
C11 C 0.85008(5) -0.15857(9) 0.16286(10)
C12 C 0.84770(5) -0.08065(8) 0.14142(10)
C13 C 0.88472(5) -0.03995(8) 0.11919(9)
C14 C 0.91734(5) -0.07851(9) 0.08794(10)
H5 H 0.9182 -0.1323 0.0892
C15 C 0.94779(5) -0.03945(9) 0.05576(10)
H6 H 0.9688 -0.0663 0.0335
C16 C 0.72432(5) -0.03996(8) 0.14370(9)
C17 C 0.76529(5) -0.08063(8) 0.13948(9)
C18 C 0.80626(5) -0.04062(8) 0.13838(9)
C19 C 0.63679(6) -0.12500(9) 0.28150(11)
H7 H 0.6462 -0.0954 0.3368
H8 H 0.6121 -0.1615 0.2815
H9 H 0.6645 -0.1521 0.2775
C20 C 0.80650(6) -0.29375(10) 0.26345(12)
H10 H 0.7763 -0.2715 0.2624
H11 H 0.8048 -0.3490 0.2673
H12 H 0.8325 -0.2746 0.3154
C21 C 0.92837(6) -0.17652(10) 0.26252(12)
H13 H 0.9196 -0.1919 0.3137
H14 H 0.9585 -0.2008 0.2664
H15 H 0.9321 -0.1214 0.2629
O1E O 0.61848(4) 0.07508(6) 0.20635(8)
O2E O 0.81510(4) 0.27348(6) 0.18346(8)
O3E O 0.89178(4) 0.19923(6) 0.18150(8)
C1E C 0.65284(5) 0.03937(8) 0.18114(10)
C2E C 0.68551(5) 0.08033(8) 0.15286(10)
C3E C 0.68068(5) 0.16076(8) 0.12948(10)
C4E C 0.63617(5) 0.19794(9) 0.10279(10)
H1E H 0.6091 0.1720 0.1064
C5E C 0.63138(6) 0.27114(9) 0.07163(10)
H2E H 0.6012 0.2954 0.0547
C6E C 0.67052(6) 0.30994(9) 0.06478(10)
H3E H 0.6670 0.3605 0.0431
C7E C 0.71428(6) 0.27497(9) 0.08939(10)
H4E H 0.7407 0.3014 0.0838
C8E C 0.72028(5) 0.20031(8) 0.12289(10)
C9E C 0.76570(5) 0.16047(8) 0.14247(10)
C10E C 0.81002(5) 0.19750(8) 0.16344(10)
C11E C 0.85008(5) 0.15857(9) 0.16286(10)
C12E C 0.84770(5) 0.08065(8) 0.14142(10)
C13E C 0.88472(5) 0.03995(8) 0.11919(9)
C14E C 0.91734(5) 0.07851(9) 0.08794(10)
H5E H 0.9182 0.1323 0.0892
C15E C 0.94779(5) 0.03945(9) 0.05576(10)
H6E H 0.9688 0.0663 0.0335
C16E C 0.72432(5) 0.03996(8) 0.14370(9)
C17E C 0.76529(5) 0.08063(8) 0.13948(9)
C18E C 0.80626(5) 0.04062(8) 0.13838(9)
C19E C 0.63679(6) 0.12500(9) 0.28150(11)
H7E H 0.6462 0.0954 0.3368
H8E H 0.6121 0.1615 0.2815
H9E H 0.6645 0.1521 0.2775
C20E C 0.80650(6) 0.29375(10) 0.26345(12)
H10E H 0.7763 0.2715 0.2624
H11E H 0.8048 0.3490 0.2673
H12E H 0.8325 0.2746 0.3154
C21E C 0.92837(6) 0.17652(10) 0.26252(12)
H13E H 0.9196 0.1919 0.3137
H14E H 0.9585 0.2008 0.2664
H15E H 0.9321 0.1214 0.2629
C22 C 0.97424(9) 0.0000 0.7154(2)
C23 C 0.97609(10) 0.0000 0.6302(2)
C24 C 0.96125(8) -0.06637(14) 0.57449(18)
C25 C 0.93698(9) -0.04130(15) 0.48370(17)
C26 C 0.89781(10) -0.08018(16) 0.42922(17)
C27 C 0.85688(11) -0.03981(16) 0.37133(14)
C28 C 0.81445(11) -0.07997(17) 0.36891(15)
C29 C 0.77379(10) -0.04121(17) 0.36704(15)
C30 C 0.74671(9) -0.06644(18) 0.42144(18)
C31 C 0.72958(11) 0.0000 0.4554(3)
C32 C 0.72798(10) 0.0000 0.5408(3)
C33 C 0.74273(7) -0.06627(15) 0.59669(19)
C34 C 0.76724(8) -0.04151(14) 0.68723(18)
C35 C 0.80637(9) -0.08030(14) 0.74168(16)
C36 C 0.84726(9) -0.03942(13) 0.79893(13)
C37 C 0.88946(8) -0.07986(12) 0.80092(13)
C38 C 0.92980(8) -0.04072(13) 0.80297(12)
C39 C 0.95714(7) -0.06593(13) 0.74912(15)
C40 C 0.94301(8) -0.12918(12) 0.69620(16)
C41 C 0.94506(8) -0.12974(13) 0.60712(17)
C42 C 0.90419(9) -0.17050(12) 0.55020(18)
C43 C 0.88108(10) -0.14680(14) 0.46320(17)
C44 C 0.82966(11) -0.14685(15) 0.42590(17)
C45 C 0.80341(10) -0.17131(14) 0.47646(18)
C46 C 0.76057(9) -0.12977(15) 0.4747(2)
C47 C 0.75862(8) -0.12994(14) 0.56379(19)
C48 C 0.79959(9) -0.17106(12) 0.62090(19)
C49 C 0.82293(9) -0.14689(12) 0.70767(16)
C50 C 0.87431(9) -0.14653(12) 0.74458(15)
C51 C 0.90040(8) -0.17065(11) 0.69404(16)
C52 C 0.87659(9) -0.19646(11) 0.60377(16)
C53 C 0.82705(9) -0.19647(11) 0.56671(17)
C24E C 0.96125(8) 0.06637(14) 0.57449(18)
C25E C 0.93698(9) 0.04130(15) 0.48370(17)
C26E C 0.89781(10) 0.08018(16) 0.42922(17)
C27E C 0.85688(11) 0.03981(16) 0.37133(14)
C28E C 0.81445(11) 0.07997(17) 0.36891(15)
C29E C 0.77379(10) 0.04121(17) 0.36704(15)
C30E C 0.74671(9) 0.06644(18) 0.42144(18)
C33E C 0.74273(7) 0.06627(15) 0.59669(19)
C34E C 0.76724(8) 0.04151(14) 0.68723(18)
C35E C 0.80637(9) 0.08030(14) 0.74168(16)
C36E C 0.84726(9) 0.03942(13) 0.79893(13)
C37E C 0.88946(8) 0.07986(12) 0.80092(13)
C38E C 0.92980(8) 0.04072(13) 0.80297(12)
C39E C 0.95714(7) 0.06593(13) 0.74912(15)
C40E C 0.94301(8) 0.12918(12) 0.69620(16)
C41E C 0.94506(8) 0.12974(13) 0.60712(17)
C42E C 0.90419(9) 0.17050(12) 0.55020(18)
C43E C 0.88108(10) 0.14680(14) 0.46320(17)
C44E C 0.82966(11) 0.14685(15) 0.42590(17)
C45E C 0.80341(10) 0.17131(14) 0.47646(18)
C46E C 0.76057(9) 0.12977(15) 0.4747(2)
C47E C 0.75862(8) 0.12994(14) 0.56379(19)
C48E C 0.79959(9) 0.17106(12) 0.62090(19)
C49E C 0.82293(9) 0.14689(12) 0.70767(16)
C50E C 0.87431(9) 0.14653(12) 0.74458(15)
C51E C 0.90040(8) 0.17065(11) 0.69404(16)
C52E C 0.87659(9) 0.19646(11) 0.60377(16)
C53E C 0.82705(9) 0.19647(11) 0.56671(17)
C54 C 0.39598(6) -0.07997(10) 0.34527(12)
C55 C 0.37701(5) -0.04101(9) 0.40094(11)
C56 C 0.38689(5) -0.06641(9) 0.49176(12)
C57 C 0.41496(6) -0.13018(9) 0.52316(12)
C58 C 0.43463(6) -0.17120(9) 0.46485(13)
C59 C 0.48200(6) -0.19665(9) 0.51823(13)
C60 C 0.49167(6) -0.17113(9) 0.60890(13)
C61 C 0.53710(6) -0.14642(10) 0.65978(12)
C62 C 0.42522(6) -0.14645(9) 0.37808(12)
C63 C 0.41527(6) -0.03915(10) 0.28697(11)
C64 C 0.54325(6) -0.08038(11) 0.71611(11)
C65 C 0.50371(6) -0.04092(11) 0.71902(11)
C66 C 0.45641(6) -0.06644(10) 0.66590(11)
C67 C 0.42722(8) 0.0000 0.63308(16)
C68 C 0.39318(8) 0.0000 0.54816(16)
C69 C 0.45043(6) -0.13018(9) 0.61206(12)
C54E C 0.39598(6) 0.07997(10) 0.34527(12)
C54A C 0.60402(6) -0.07997(10) 0.65473(12)
C54D C 0.60402(6) 0.07997(10) 0.65473(12)
C55E C 0.37701(5) 0.04101(9) 0.40094(11)
C55A C 0.62299(5) -0.04101(9) 0.59906(11)
C55D C 0.62299(5) 0.04101(9) 0.59906(11)
C56E C 0.38689(5) 0.06641(9) 0.49176(12)
C56A C 0.61311(5) -0.06641(9) 0.50824(12)
C56D C 0.61311(5) 0.06641(9) 0.50824(12)
C57E C 0.41496(6) 0.13018(9) 0.52316(12)
C57A C 0.58504(6) -0.13018(9) 0.47684(12)
C57D C 0.58504(6) 0.13018(9) 0.47684(12)
C58E C 0.43463(6) 0.17120(9) 0.46485(13)
C58A C 0.56537(6) -0.17120(9) 0.53515(13)
C58D C 0.56537(6) 0.17120(9) 0.53515(13)
C59A C 0.51800(6) -0.19665(9) 0.48177(13)
C59D C 0.51800(6) 0.19665(9) 0.48177(13)
C59E C 0.48200(6) 0.19665(9) 0.51823(13)
C60E C 0.49167(6) 0.17113(9) 0.60890(13)
C60D C 0.50833(6) 0.17113(9) 0.39110(13)
C60A C 0.50833(6) -0.17113(9) 0.39110(13)
C61E C 0.53710(6) 0.14642(10) 0.65978(12)
C61D C 0.46290(6) 0.14642(10) 0.34022(12)
C61A C 0.46290(6) -0.14642(10) 0.34022(12)
C62E C 0.42522(6) 0.14645(9) 0.37808(12)
C62A C 0.57478(6) -0.14645(9) 0.62192(12)
C62D C 0.57478(6) 0.14645(9) 0.62192(12)
C63A C 0.58473(6) -0.03915(10) 0.71303(11)
C63D C 0.58473(6) 0.03915(10) 0.71303(11)
C63E C 0.41527(6) 0.03915(10) 0.28697(11)
C64E C 0.54325(6) 0.08038(11) 0.71611(11)
C64D C 0.45675(6) 0.08038(11) 0.28389(11)
C64A C 0.45675(6) -0.08038(11) 0.28389(11)
C65E C 0.50371(6) 0.04092(11) 0.71902(11)
C65A C 0.49629(6) -0.04092(11) 0.28098(11)
C65D C 0.49629(6) 0.04092(11) 0.28098(11)
C66E C 0.45641(6) 0.06644(10) 0.66590(11)
C66A C 0.54359(6) -0.06644(10) 0.33410(11)
C66D C 0.54359(6) 0.06644(10) 0.33410(11)
C67A C 0.57278(8) 0.0000 0.36692(16)
C68A C 0.60682(8) 0.0000 0.45184(16)
C69E C 0.45043(6) 0.13018(9) 0.61206(12)
C69A C 0.54957(6) -0.13018(9) 0.38794(12)
C69D C 0.54957(6) 0.13018(9) 0.38794(12)
C70 C 0.73715(13) 0.0000 0.8938(2)
C71 C 0.69028(10) 0.0000 0.90736(16)
C72 C 0.66753(9) -0.06695(11) 0.91449(13)
H19 H 0.6816 -0.1141 0.9092
C73 C 0.62479(10) -0.06567(19) 0.92921(15)
H20 H 0.6099 -0.1121 0.9343
C74 C 0.60391(15) 0.0000 0.9364(2)
H21 H 0.5745 0.0000 0.9467
C72E C 0.66753(9) 0.06695(11) 0.91449(13)
H19E H 0.6816 0.1141 0.9092
C73E C 0.62479(10) 0.06567(19) 0.92921(15)
H20E H 0.6099 0.1121 0.9343
H16? H 0.7345 -0.0287 0.8397
H17? H 0.7612 -0.0236 0.9453
H18? H 0.7465 0.0522 0.8874
C75? C 0.5028(3) 0.2024(4) 0.1421(4)
H22? H 0.5022 0.1520 0.1640
H23? H 0.5319 0.2270 0.1771
H24? H 0.4762 0.2305 0.1463
C76? C 0.49995(12) 0.19896(12) 0.04660(15)
C77? C 0.50014(13) 0.26564(9) 0.00019(18)
H25? H 0.5037 0.3134 0.0309
C78? C 0.49676(13) 0.26300(13) -0.08844(18)
H26? H 0.4979 0.3091 -0.1193
C79? C 0.49247(13) 0.19369(18) -0.13175(15)
H27? H 0.4898 0.1922 -0.1932
C80? C 0.49193(15) 0.12702(13) -0.0859(2)
H28? H 0.4885 0.0793 -0.1161
C81? C 0.49567(14) 0.12965(9) 0.0033(2)
H29? H 0.4952 0.0835 0.0349
loop_
_geom_bond_atom_site_label_1
_geom_bond_atom_site_label_2
_geom_bond_site_symmetry_1
_geom_bond_site_symmetry_2
O1 C1 1_555 1_555
O2 C10 1_555 1_555
O3 C11 1_555 1_555
C1 C2 1_555 1_555
C2 C3 1_555 1_555
C3 C4 1_555 1_555
C4 H1 1_555 1_555
C5 C4 1_555 1_555
H2 C5 1_555 1_555
C6 C5 1_555 1_555
H3 C6 1_555 1_555
C7 C6 1_555 1_555
H4 C7 1_555 1_555
C8 C3 1_555 1_555
C9 C8 1_555 1_555
C10 C9 1_555 1_555
C11 C10 1_555 1_555
C12 C11 1_555 1_555
C13 C12 1_555 1_555
C14 C13 1_555 1_555
H5 C14 1_555 1_555
C15 C14 1_555 1_555
H6 C15 1_555 1_555
C16 C2 1_555 1_555
C17 C9 1_555 1_555
C18 C12 1_555 1_555
C19 O1 1_555 1_555
H7 C19 1_555 1_555
H8 C19 1_555 1_555
H9 C19 1_555 1_555
C20 O2 1_555 1_555
H10 C20 1_555 1_555
H11 C20 1_555 1_555
H12 C20 1_555 1_555
C21 O3 1_555 1_555
H13 C21 1_555 1_555
H14 C21 1_555 1_555
H15 C21 1_555 1_555
C22 C23 1_555 1_555
C23 C24 1_555 1_555
C24 C25 1_555 1_555
C25 C26 1_555 1_555
C26 C27 1_555 1_555
C27 C28 1_555 1_555
C28 C29 1_555 1_555
C29 C30 1_555 1_555
C30 C31 1_555 1_555
C31 C32 1_555 1_555
C32 C33 1_555 1_555
C33 C34 1_555 1_555
C34 C35 1_555 1_555
C35 C36 1_555 1_555
C36 C37 1_555 1_555
C37 C38 1_555 1_555
C38 C39 1_555 1_555
C39 C22 1_555 1_555
C40 C39 1_555 1_555
C41 C24 1_555 1_555
C42 C41 1_555 1_555
C43 C26 1_555 1_555
C44 C28 1_555 1_555
C45 C44 1_555 1_555
C46 C30 1_555 1_555
C47 C33 1_555 1_555
C48 C47 1_555 1_555
C49 C35 1_555 1_555
C50 C37 1_555 1_555
C51 C40 1_555 1_555
C52 C42 1_555 1_555
C53 C45 1_555 1_555
C54 C55 1_555 1_555
C55 C56 1_555 1_555
C56 C57 1_555 1_555
C57 C58 1_555 1_555
C58 C59 1_555 1_555
C59 C60 1_555 1_555
C60 C61 1_555 1_555
C61 C64 1_555 1_555
C62 C54 1_555 1_555
C63 C54 1_555 1_555
C64 C65 1_555 1_555
C65 C66 1_555 1_555
C66 C67 1_555 1_555
C67 C68 1_555 1_555
C68 C56 1_555 1_555
C69 C57 1_555 1_555
C70 C71 1_555 1_555
C71 C72 1_555 1_555
C72 H19 1_555 1_555
C73 C72 1_555 1_555
H20 C73 1_555 1_555
C74 C73 1_555 1_555
H21 C74 1_555 1_555
O1E C1E 1_555 1_555
O2E C10E 1_555 1_555
O3E C11E 1_555 1_555
C1E C1 1_555 1_555
C2E C1E 1_555 1_555
C3E C2E 1_555 1_555
C4E C3E 1_555 1_555
H1E C4E 1_555 1_555
C5E C4E 1_555 1_555
H2E C5E 1_555 1_555
C6E C5E 1_555 1_555
H3E C6E 1_555 1_555
C7E C6E 1_555 1_555
H4E C7E 1_555 1_555
C8E C3E 1_555 1_555
C9E C8E 1_555 1_555
C10E C9E 1_555 1_555
C11E C10E 1_555 1_555
C12E C11E 1_555 1_555
C13E C13 1_555 1_555
C14E C13E 1_555 1_555
H5E C14E 1_555 1_555
C15E C15 1_555 1_555
H6E C15E 1_555 1_555
C16E C16 1_555 1_555
C17E C9E 1_555 1_555
C18E C18 1_555 1_555
C19E O1E 1_555 1_555
H7E C19E 1_555 1_555
H8E C19E 1_555 1_555
H9E C19E 1_555 1_555
C20E O2E 1_555 1_555
H10E C20E 1_555 1_555
H11E C20E 1_555 1_555
H12E C20E 1_555 1_555
C21E O3E 1_555 1_555
H13E C21E 1_555 1_555
H14E C21E 1_555 1_555
H15E C21E 1_555 1_555
C24E C23 1_555 1_555
C25E C25 1_555 1_555
C26E C25E 1_555 1_555
C27E C27 1_555 1_555
C28E C27E 1_555 1_555
C29E C29 1_555 1_555
C30E C31 1_555 1_555
C33E C32 1_555 1_555
C34E C34 1_555 1_555
C35E C34E 1_555 1_555
C36E C36 1_555 1_555
C37E C36E 1_555 1_555
C38E C38 1_555 1_555
C39E C22 1_555 1_555
C40E C39E 1_555 1_555
C41E C24E 1_555 1_555
C42E C41E 1_555 1_555
C43E C26E 1_555 1_555
C44E C28E 1_555 1_555
C45E C44E 1_555 1_555
C46E C30E 1_555 1_555
C47E C33E 1_555 1_555
C48E C47E 1_555 1_555
C49E C35E 1_555 1_555
C50E C37E 1_555 1_555
C51E C40E 1_555 1_555
C52E C42E 1_555 1_555
C53E C45E 1_555 1_555
C54E C55E 1_555 1_555
C54A C55A 1_555 1_555
C54D C55D 1_555 1_555
C55E C55 1_555 1_555
C55A C55D 1_555 1_555
C55D C56D 1_555 1_555
C56E C68 1_555 1_555
C56A C55A 1_555 1_555
C56D C57D 1_555 1_555
C57E C56E 1_555 1_555
C57A C56A 1_555 1_555
C57D C58D 1_555 1_555
C58E C57E 1_555 1_555
C58A C57A 1_555 1_555
C58D C59D 1_555 1_555
C59A C59 1_555 1_555
C59D C59E 1_555 1_555
C59E C58E 1_555 1_555
C60E C59E 1_555 1_555
C60D C59D 1_555 1_555
C60A C59A 1_555 1_555
C61E C60E 1_555 1_555
C61D C60D 1_555 1_555
C61A C62 1_555 1_555
C62E C54E 1_555 1_555
C62A C61 1_555 1_555
C62D C54D 1_555 1_555
C63A C64 1_555 1_555
C63D C54D 1_555 1_555
C63E C63 1_555 1_555
C64E C61E 1_555 1_555
C64D C61D 1_555 1_555
C64A C63 1_555 1_555
C65E C65 1_555 1_555
C65A C64A 1_555 1_555
C65D C64D 1_555 1_555
C66E C67 1_555 1_555
C66A C65A 1_555 1_555
C66D C65D 1_555 1_555
C67A C66A 1_555 1_555
C68A C56A 1_555 1_555
C69E C57E 1_555 1_555
C69A C57A 1_555 1_555
C69D C57D 1_555 1_555
C72E C71 1_555 1_555
H19E C72E 1_555 1_555
C73E C74 1_555 1_555
H20E C73E 1_555 1_555
C7 C8 1_555 1_555
C16 C17 1_555 1_555
C17 C18 1_555 1_555
C40 C41 1_555 1_555
C42 C43 1_555 1_555
C43 C44 1_555 1_555
C45 C46 1_555 1_555
C46 C47 1_555 1_555
C48 C49 1_555 1_555
C48 C53 1_555 1_555
C49 C50 1_555 1_555
C50 C51 1_555 1_555
C51 C52 1_555 1_555
C52 C53 1_555 1_555
C58 C62 1_555 1_555
C60 C69 1_555 1_555
C66 C69 1_555 1_555
C2E C16E 1_555 1_555
C7E C8E 1_555 1_555
C12E C13E 1_555 1_555
C12E C18E 1_555 1_555
C14E C15E 1_555 1_555
C16E C17E 1_555 1_555
C17E C18E 1_555 1_555
C24E C25E 1_555 1_555
C26E C27E 1_555 1_555
C28E C29E 1_555 1_555
C29E C30E 1_555 1_555
C33E C34E 1_555 1_555
C35E C36E 1_555 1_555
C37E C38E 1_555 1_555
C38E C39E 1_555 1_555
C40E C41E 1_555 1_555
C42E C43E 1_555 1_555
C43E C44E 1_555 1_555
C45E C46E 1_555 1_555
C46E C47E 1_555 1_555
C48E C49E 1_555 1_555
C48E C53E 1_555 1_555
C49E C50E 1_555 1_555
C50E C51E 1_555 1_555
C51E C52E 1_555 1_555
C52E C53E 1_555 1_555
C54E C63E 1_555 1_555
C54A C62A 1_555 1_555
C54A C63A 1_555 1_555
C55E C56E 1_555 1_555
C56D C68A 1_555 1_555
C58E C62E 1_555 1_555
C58A C59A 1_555 1_555
C58A C62A 1_555 1_555
C58D C62D 1_555 1_555
C60E C69E 1_555 1_555
C60D C69D 1_555 1_555
C60A C61A 1_555 1_555
C60A C69A 1_555 1_555
C61E C62D 1_555 1_555
C61D C62E 1_555 1_555
C61A C64A 1_555 1_555
C63A C63D 1_555 1_555
C63D C64E 1_555 1_555
C63E C64D 1_555 1_555
C64E C65E 1_555 1_555
C65E C66E 1_555 1_555
C65A C65D 1_555 1_555
C66E C69E 1_555 1_555
C66A C69A 1_555 1_555
C66D C67A 1_555 1_555
C66D C69D 1_555 1_555
C67A C68A 1_555 1_555
C72E C73E 1_555 1_555

#END
