
#######################################################################
#
#                 Cambridge Crystallographic Data Centre
#                                CCDC 
#
#######################################################################
#
# If this CIF has been generated from an entry in the Cambridge 
# Structural Database, then it will include bibliographic, chemical, 
# crystal, experimental, refinement or atomic coordinate data resulting 
# from the CCDC's data processing and validation procedures.
#
#######################################################################

data_VEQWOE
_chemical_formula_moiety         'C19 H17 N1 O2'
_chemical_name_systematic        
'Methyl 7,8-dimethyl-4-phenylquinoline-2-carboxylate'
_symmetry_cell_setting           orthorhombic
_symmetry_space_group_name_H-M   'A b a 2'
_symmetry_Int_Tables_number      41
_space_group_name_Hall           'A 2 -2ab'
loop_
_symmetry_equiv_pos_site_id
_symmetry_equiv_pos_as_xyz
1 x,y,z
2 -x,-y,z
3 1/2+x,1/2-y,z
4 1/2-x,1/2+y,z
5 x,1/2+y,1/2+z
6 -x,1/2-y,1/2+z
7 1/2+x,-y,1/2+z
8 1/2-x,y,1/2+z
_cell_length_a                   19.877(4)
_cell_length_b                   18.927(4)
_cell_length_c                   8.0012(16)
_cell_angle_alpha                90
_cell_angle_beta                 90
_cell_angle_gamma                90
_cell_volume                     3010.15
_exptl_crystal_colour            colorless
_exptl_crystal_description       platelet
_chemical_melting_point          120deg.C
_cell_formula_units_Z            8
loop_
_atom_site_label
_atom_site_type_symbol
_atom_site_fract_x
_atom_site_fract_y
_atom_site_fract_z
O1 O 0.62297(11) 1.17044(11) 0.4927(5)
O2 O 0.57203(9) 1.06518(10) 0.4850(4)
N1 N 0.68256(9) 1.00160(10) 0.5963(3)
C1 C 0.50937(14) 1.09865(19) 0.4385(6)
H1 H 0.4749 1.0634 0.4278
H2 H 0.5149 1.1227 0.3337
H3 H 0.4967 1.1321 0.5231
C2 C 0.62491(12) 1.10740(15) 0.5047(5)
C3 C 0.68850(12) 1.06709(12) 0.5422(4)
C4 C 0.74969(14) 1.10148(12) 0.5170(4)
H4 H 0.7503 1.1480 0.4799
C5 C 0.80884(12) 1.06663(12) 0.5469(4)
C6 C 0.80535(11) 0.99568(12) 0.6081(3)
C7 C 0.74009(11) 0.96554(11) 0.6309(4)
C8 C 0.73301(11) 0.89469(11) 0.6918(4)
C9 C 0.78960(13) 0.85600(12) 0.7277(4)
C10 C 0.85370(13) 0.88743(13) 0.7078(4)
H5 H 0.8917 0.8611 0.7345
C11 C 0.86179(12) 0.95446(13) 0.6512(4)
H6 H 0.9048 0.9733 0.6408
C12 C 0.78498(15) 0.78086(12) 0.7917(5)
H7 H 0.7386 0.7670 0.7985
H8 H 0.8051 0.7781 0.9006
H9 H 0.8083 0.7498 0.7166
C13 C 0.66344(14) 0.86513(14) 0.7150(5)
H10 H 0.6665 0.8176 0.7562
H11 H 0.6402 0.8653 0.6099
H12 H 0.6392 0.8937 0.7939
C14 C 0.87451(12) 1.10288(13) 0.5171(4)
C15 C 0.92389(15) 1.07389(16) 0.4153(5)
H13 H 0.9166 1.0303 0.3648
C16 C 0.98390(15) 1.1094(2) 0.3884(6)
H14 H 1.0171 1.0892 0.3217
C17 C 0.99446(15) 1.17494(18) 0.4610(6)
H15 H 1.0347 1.1988 0.4428
C18 C 0.94567(15) 1.20451(15) 0.5595(6)
H16 H 0.9528 1.2487 0.6073
C19 C 0.88565(14) 1.16904(14) 0.5884(5)
H17 H 0.8528 1.1895 0.6556
loop_
_geom_bond_atom_site_label_1
_geom_bond_atom_site_label_2
_geom_bond_site_symmetry_1
_geom_bond_site_symmetry_2
O1 C2 1_555 1_555
O2 C1 1_555 1_555
N1 C3 1_555 1_555
C1 H1 1_555 1_555
H2 C1 1_555 1_555
H3 C1 1_555 1_555
C2 O2 1_555 1_555
C3 C2 1_555 1_555
C4 C3 1_555 1_555
H4 C4 1_555 1_555
C5 C4 1_555 1_555
C6 C5 1_555 1_555
C7 N1 1_555 1_555
C8 C7 1_555 1_555
C9 C8 1_555 1_555
C10 C9 1_555 1_555
H5 C10 1_555 1_555
C11 C6 1_555 1_555
H6 C11 1_555 1_555
C12 C9 1_555 1_555
H7 C12 1_555 1_555
H8 C12 1_555 1_555
H9 C12 1_555 1_555
C13 C8 1_555 1_555
H10 C13 1_555 1_555
H11 C13 1_555 1_555
H12 C13 1_555 1_555
C14 C5 1_555 1_555
C15 C14 1_555 1_555
H13 C15 1_555 1_555
C16 C15 1_555 1_555
H14 C16 1_555 1_555
C17 C16 1_555 1_555
H15 C17 1_555 1_555
C18 C17 1_555 1_555
H16 C18 1_555 1_555
C19 C14 1_555 1_555
H17 C19 1_555 1_555
C6 C7 1_555 1_555
C10 C11 1_555 1_555
C18 C19 1_555 1_555

#END
