
#######################################################################
#
#                 Cambridge Crystallographic Data Centre
#                                CCDC 
#
#######################################################################
#
# If this CIF has been generated from an entry in the Cambridge 
# Structural Database, then it will include bibliographic, chemical, 
# crystal, experimental, refinement or atomic coordinate data resulting 
# from the CCDC's data processing and validation procedures.
#
#######################################################################

data_VEQWAQ
_chemical_formula_moiety         'C18 H14 Cl1 N1 O3'
_chemical_name_systematic        
'Ethyl 4-(4-chlorophenyl)-6-hydroxyquinoline-2-carboxylate'
_symmetry_cell_setting           monoclinic
_symmetry_space_group_name_H-M   'P 21/c'
_symmetry_Int_Tables_number      14
_space_group_name_Hall           '-P 2ybc'
loop_
_symmetry_equiv_pos_site_id
_symmetry_equiv_pos_as_xyz
1 x,y,z
2 -x,1/2+y,1/2-z
3 -x,-y,-z
4 x,1/2-y,1/2+z
_cell_length_a                   10.300(2)
_cell_length_b                   14.278(3)
_cell_length_c                   11.790(2)
_cell_angle_alpha                90
_cell_angle_beta                 114.40(3)
_cell_angle_gamma                90
_cell_volume                     1579.01
_exptl_crystal_colour            colorless
_exptl_crystal_description       platelet
_chemical_melting_point          250-253deg.C
_cell_formula_units_Z            4
loop_
_atom_site_label
_atom_site_type_symbol
_atom_site_fract_x
_atom_site_fract_y
_atom_site_fract_z
Cl1 Cl 0.01119(10) 0.12454(6) -0.23754(6)
O1 O 0.2132(2) -0.07182(15) 0.52528(19)
O2 O 0.3679(2) -0.01219(18) 0.70641(18)
O3 O 0.62689(19) 0.38959(13) 0.34608(17)
H1 H 0.5610 0.4251 0.3070
N1 N 0.4626(2) 0.11151(15) 0.58166(17)
C1 C 0.0348(5) -0.1221(3) 0.5868(5)
H2 H 0.0080 -0.1713 0.6284
H3 H -0.0349 -0.1173 0.5023
H4 H 0.0398 -0.0639 0.6290
C2 C 0.1655(4) -0.1421(3) 0.5877(4)
H5 H 0.1605 -0.2021 0.5474
H6 H 0.2351 -0.1475 0.6733
C3 C 0.3149(3) -0.0123(2) 0.5953(3)
C4 C 0.3555(3) 0.05460(18) 0.5178(2)
C5 C 0.2837(2) 0.05597(18) 0.3871(2)
H7 H 0.2119 0.0127 0.3465
C6 C 0.3198(2) 0.12119(16) 0.3192(2)
C7 C 0.4294(2) 0.18678(17) 0.3853(2)
C8 C 0.4699(2) 0.26070(18) 0.3277(2)
H8 H 0.4221 0.2694 0.2421
C9 C 0.5789(3) 0.32013(18) 0.3962(2)
C10 C 0.6513(3) 0.3079(2) 0.5266(2)
H9 H 0.7258 0.3479 0.5727
C11 C 0.6131(3) 0.2387(2) 0.5845(2)
H10 H 0.6617 0.2315 0.6702
C12 C 0.4999(2) 0.17661(17) 0.5165(2)
C13 C 0.2438(2) 0.12146(16) 0.1806(2)
C14 C 0.0954(3) 0.12177(18) 0.1228(2)
H11 H 0.0437 0.1224 0.1715
C15 C 0.0236(3) 0.12121(19) -0.0050(3)
H12 H -0.0756 0.1213 -0.0427
C16 C 0.1013(3) 0.12048(18) -0.0757(2)
C17 C 0.2480(3) 0.11785(18) -0.0223(2)
H13 H 0.2987 0.1160 -0.0717
C18 C 0.3188(3) 0.11805(18) 0.1063(2)
H14 H 0.4179 0.1159 0.1434
loop_
_geom_bond_atom_site_label_1
_geom_bond_atom_site_label_2
_geom_bond_site_symmetry_1
_geom_bond_site_symmetry_2
Cl1 C16 1_555 1_555
O1 C2 1_555 1_555
O2 C3 1_555 1_555
O3 H1 1_555 1_555
N1 C4 1_555 1_555
C1 H2 1_555 1_555
H3 C1 1_555 1_555
H4 C1 1_555 1_555
C2 C1 1_555 1_555
H5 C2 1_555 1_555
H6 C2 1_555 1_555
C3 O1 1_555 1_555
C4 C3 1_555 1_555
C5 C4 1_555 1_555
H7 C5 1_555 1_555
C6 C5 1_555 1_555
C7 C6 1_555 1_555
C8 C7 1_555 1_555
H8 C8 1_555 1_555
C9 O3 1_555 1_555
C10 C9 1_555 1_555
H9 C10 1_555 1_555
C11 C10 1_555 1_555
H10 C11 1_555 1_555
C12 N1 1_555 1_555
C13 C6 1_555 1_555
C14 C13 1_555 1_555
H11 C14 1_555 1_555
C15 C14 1_555 1_555
H12 C15 1_555 1_555
C16 C15 1_555 1_555
C17 C16 1_555 1_555
H13 C17 1_555 1_555
C18 C13 1_555 1_555
H14 C18 1_555 1_555
C7 C12 1_555 1_555
C8 C9 1_555 1_555
C11 C12 1_555 1_555
C17 C18 1_555 1_555

#END
