
#######################################################################
#
#                 Cambridge Crystallographic Data Centre
#                                CCDC 
#
#######################################################################
#
# If this CIF has been generated from an entry in the Cambridge 
# Structural Database, then it will include bibliographic, chemical, 
# crystal, experimental, refinement or atomic coordinate data resulting 
# from the CCDC's data processing and validation procedures.
#
#######################################################################

data_VEQWIY
_chemical_formula_moiety         'C19 H17 N1 O2'
_chemical_name_systematic        
'Methyl 7,8-dimethyl-2-phenylquinoline-4-carboxylate'
_symmetry_cell_setting           monoclinic
_symmetry_space_group_name_H-M   'P 21/c'
_symmetry_Int_Tables_number      14
_space_group_name_Hall           '-P 2ybc'
loop_
_symmetry_equiv_pos_site_id
_symmetry_equiv_pos_as_xyz
1 x,y,z
2 -x,1/2+y,1/2-z
3 -x,-y,-z
4 x,1/2-y,1/2+z
_cell_length_a                   7.9843(16)
_cell_length_b                   19.014(4)
_cell_length_c                   10.550(2)
_cell_angle_alpha                90
_cell_angle_beta                 109.99(3)
_cell_angle_gamma                90
_cell_volume                     1505.14
_exptl_crystal_colour            colorless
_exptl_crystal_description       platelet
_chemical_melting_point          134deg.C
_cell_formula_units_Z            4
loop_
_atom_site_label
_atom_site_type_symbol
_atom_site_fract_x
_atom_site_fract_y
_atom_site_fract_z
N1 N 0.3032(2) 0.55368(8) 0.27257(16)
O1 O 0.1641(3) 0.30083(8) 0.10900(18)
O2 O 0.0749(2) 0.37075(7) -0.07097(15)
C1 C 0.0136(4) 0.31035(13) -0.1569(3)
H1 H -0.0527 0.2800 -0.1188
H2 H 0.1142 0.2853 -0.1644
H3 H -0.0615 0.3255 -0.2447
C2 C 0.1451(3) 0.35862(11) 0.0605(2)
C3 C 0.1988(3) 0.42602(10) 0.1370(2)
C4 C 0.2030(3) 0.43245(10) 0.2726(2)
C5 C 0.1568(3) 0.37906(11) 0.3472(2)
H4 H 0.1201 0.3354 0.3079
C6 C 0.1655(3) 0.39103(12) 0.4762(2)
H5 H 0.1371 0.3546 0.5241
C7 C 0.2161(3) 0.45658(12) 0.5402(2)
C8 C 0.2619(3) 0.51028(11) 0.47167(19)
C9 C 0.2570(3) 0.49870(10) 0.33637(19)
C10 C 0.2971(3) 0.54613(10) 0.14650(19)
C11 C 0.2447(3) 0.48224(10) 0.0759(2)
H6 H 0.2416 0.4785 -0.0127
C12 C 0.2137(4) 0.46628(15) 0.6818(2)
H7 H 0.2044 0.4212 0.7199
H8 H 0.1134 0.4948 0.6792
H9 H 0.3217 0.4890 0.7362
C13 C 0.3154(4) 0.58158(13) 0.5337(2)
H10 H 0.2136 0.6121 0.5074
H11 H 0.4061 0.6009 0.5032
H12 H 0.3608 0.5773 0.6302
C14 C 0.3489(3) 0.60830(10) 0.0836(2)
C15 C 0.4491(3) 0.66146(12) 0.1645(2)
H13 H 0.4852 0.6570 0.2578
C16 C 0.4962(4) 0.72062(12) 0.1095(3)
H14 H 0.5626 0.7559 0.1654
C17 C 0.4453(4) 0.72758(13) -0.0271(3)
H15 H 0.4782 0.7673 -0.0644
C18 C 0.3452(5) 0.67572(14) -0.1099(3)
H16 H 0.3092 0.6807 -0.2031
C19 C 0.2984(4) 0.61644(12) -0.0546(2)
H17 H 0.2319 0.5814 -0.1111
loop_
_geom_bond_atom_site_label_1
_geom_bond_atom_site_label_2
_geom_bond_site_symmetry_1
_geom_bond_site_symmetry_2
N1 C9 1_555 1_555
O1 C2 1_555 1_555
O2 C1 1_555 1_555
C1 H1 1_555 1_555
H2 C1 1_555 1_555
H3 C1 1_555 1_555
C2 O2 1_555 1_555
C3 C2 1_555 1_555
C4 C3 1_555 1_555
C5 C4 1_555 1_555
H4 C5 1_555 1_555
C6 C5 1_555 1_555
H5 C6 1_555 1_555
C7 C6 1_555 1_555
C8 C7 1_555 1_555
C9 C4 1_555 1_555
C10 N1 1_555 1_555
C11 C3 1_555 1_555
H6 C11 1_555 1_555
C12 C7 1_555 1_555
H7 C12 1_555 1_555
H8 C12 1_555 1_555
H9 C12 1_555 1_555
C13 C8 1_555 1_555
H10 C13 1_555 1_555
H11 C13 1_555 1_555
H12 C13 1_555 1_555
C14 C10 1_555 1_555
C15 C14 1_555 1_555
H13 C15 1_555 1_555
C16 C15 1_555 1_555
H14 C16 1_555 1_555
C17 C16 1_555 1_555
H15 C17 1_555 1_555
C18 C17 1_555 1_555
H16 C18 1_555 1_555
C19 C14 1_555 1_555
H17 C19 1_555 1_555
C8 C9 1_555 1_555
C10 C11 1_555 1_555
C18 C19 1_555 1_555

#END
