
#######################################################################
#
#                 Cambridge Crystallographic Data Centre
#                                CCDC 
#
#######################################################################
#
# If this CIF has been generated from an entry in the Cambridge 
# Structural Database, then it will include bibliographic, chemical, 
# crystal, experimental, refinement or atomic coordinate data resulting 
# from the CCDC's data processing and validation procedures.
#
#######################################################################

data_VERCON
_chemical_formula_moiety         'C19 H16 O6'
_chemical_name_systematic        
'dimethyl (3-oxo-2-phenyl-2,3-dihydro-1-benzofuran-2-yl)propanedioate'
_symmetry_cell_setting           triclinic
_symmetry_space_group_name_H-M   'P -1'
_symmetry_Int_Tables_number      2
_space_group_name_Hall           '-P 1'
loop_
_symmetry_equiv_pos_site_id
_symmetry_equiv_pos_as_xyz
1 x,y,z
2 -x,-y,-z
_cell_length_a                   8.8695(8)
_cell_length_b                   9.1426(9)
_cell_length_c                   21.0202(17)
_cell_angle_alpha                85.575(6)
_cell_angle_beta                 89.098(6)
_cell_angle_gamma                74.149(6)
_cell_volume                     1634.81
_exptl_crystal_colour            colorless
_exptl_crystal_description       plate
_cell_formula_units_Z            4
loop_
_atom_site_label
_atom_site_type_symbol
_atom_site_fract_x
_atom_site_fract_y
_atom_site_fract_z
C1 C 0.3909(7) 0.1331(7) 0.6168(3)
C2 C 0.5688(7) 0.0510(7) 0.6141(3)
C3 C 0.6429(8) 0.1361(8) 0.6542(3)
C4 C 0.7956(8) 0.1096(8) 0.6767(3)
H1 H 0.8756 0.0235 0.6651
C5 C 0.8287(8) 0.2113(8) 0.7162(3)
H2 H 0.9316 0.1942 0.7328
C6 C 0.7096(8) 0.3398(8) 0.7318(3)
H3 H 0.7341 0.409 0.7588
C7 C 0.5567(8) 0.3691(8) 0.7091(3)
H4 H 0.477 0.4569 0.7192
C8 C 0.5275(8) 0.2630(7) 0.6708(3)
C9 C 0.3160(8) 0.1682(8) 0.5499(3)
H5 H 0.3385 0.069 0.5298
C10 C 0.1379(7) 0.2313(8) 0.5513(3)
C11 C -0.0965(8) 0.2250(10) 0.5023(4)
H6 H -0.1462 0.2226 0.5442
H7 H -0.1364 0.1633 0.4742
H8 H -0.1206 0.3305 0.4837
C12 C 0.3920(8) 0.2694(8) 0.5087(3)
C13 C 0.3530(9) 0.4602(8) 0.4230(3)
H9 H 0.4235 0.5085 0.4435
H10 H 0.2679 0.539 0.4012
H11 H 0.4116 0.3924 0.3918
C14 C 0.3209(8) 0.0299(8) 0.6605(3)
C15 C 0.2861(8) 0.0607(8) 0.7241(3)
H12 H 0.2999 0.1508 0.7398
C16 C 0.2313(9) -0.0415(9) 0.7639(3)
H13 H 0.2076 -0.0201 0.807
C17 C 0.2103(9) -0.1741(9) 0.7424(4)
H14 H 0.173 -0.2429 0.7704
C18 C 0.2443(9) -0.2047(8) 0.6797(3)
H15 H 0.2295 -0.2945 0.6641
C19 C 0.3009(8) -0.1028(8) 0.6392(3)
H16 H 0.3258 -0.1254 0.5963
O1 O 0.3816(5) 0.2754(5) 0.64536(19)
O2 O 0.6256(5) -0.0640(5) 0.5875(2)
O3 O 0.0677(6) 0.3257(6) 0.5850(2)
O4 O 0.0721(5) 0.1637(6) 0.5095(2)
O5 O 0.5314(5) 0.2565(5) 0.5083(2)
O6 O 0.2873(5) 0.3719(5) 0.4713(2)
C20 C 0.1280(8) 0.4383(8) 0.8792(3)
C21 C -0.0333(8) 0.5579(8) 0.8792(3)
C22 C -0.0757(8) 0.5995(8) 0.8122(3)
C23 C -0.1984(8) 0.7080(8) 0.7826(3)
H17 H -0.2759 0.7732 0.807
C24 C -0.2069(9) 0.7205(9) 0.7163(4)
H18 H -0.2898 0.7953 0.6946
C25 C -0.0912(9) 0.6210(8) 0.6817(3)
H19 H -0.0984 0.6297 0.6364
C26 C 0.0327(8) 0.5107(9) 0.7108(3)
H20 H 0.1106 0.4451 0.6867
C27 C 0.0372(8) 0.5012(7) 0.7771(3)
C28 C 0.1317(8) 0.2976(8) 0.9236(3)
H21 H 0.0992 0.3342 0.9666
C29 C 0.2960(8) 0.1876(8) 0.9314(3)
C30 C 0.5182(9) 0.0553(11) 0.8765(4)
H22 H 0.5833 0.1156 0.8926
H23 H 0.5522 0.0272 0.8334
H24 H 0.5289 -0.0373 0.9048
C31 C 0.0124(9) 0.2182(8) 0.9033(3)
C32 C -0.0578(9) -0.0147(9) 0.9093(4)
H25 H -0.1499 0.0158 0.9366
H26 H -0.0081 -0.1241 0.9177
H27 H -0.0902 0.0069 0.8644
C33 C 0.2581(8) 0.5106(8) 0.8968(3)
C34 C 0.3970(9) 0.4831(9) 0.8623(3)
H28 H 0.4119 0.4201 0.8276
C35 C 0.5130(9) 0.5481(10) 0.8789(4)
H29 H 0.6078 0.5281 0.8553
C36 C 0.4956(9) 0.6393(9) 0.9276(4)
H30 H 0.5757 0.6851 0.9374
C37 C 0.3586(9) 0.6650(9) 0.9633(4)
H31 H 0.3459 0.7265 0.9985
C38 C 0.2413(8) 0.6013(9) 0.9476(3)
H32 H 0.1478 0.6201 0.972
O7 O 0.1500(5) 0.3967(5) 0.81322(19)
O8 O -0.1029(5) 0.6069(5) 0.9267(2)
O9 O 0.3634(7) 0.1509(7) 0.9808(2)
O10 O 0.3560(6) 0.1445(6) 0.8744(2)
O11 O -0.1080(6) 0.2815(6) 0.8756(3)
O12 O 0.0529(6) 0.0701(6) 0.9229(3)
loop_
_geom_bond_atom_site_label_1
_geom_bond_atom_site_label_2
_geom_bond_site_symmetry_1
_geom_bond_site_symmetry_2
C1 C2 1_555 1_555
C2 C3 1_555 1_555
C3 C4 1_555 1_555
C4 H1 1_555 1_555
C5 C4 1_555 1_555
H2 C5 1_555 1_555
C6 C5 1_555 1_555
H3 C6 1_555 1_555
C7 C6 1_555 1_555
H4 C7 1_555 1_555
C8 C3 1_555 1_555
C9 C1 1_555 1_555
H5 C9 1_555 1_555
C10 C9 1_555 1_555
C11 H6 1_555 1_555
H7 C11 1_555 1_555
H8 C11 1_555 1_555
C12 C9 1_555 1_555
C13 H9 1_555 1_555
H10 C13 1_555 1_555
H11 C13 1_555 1_555
C14 C1 1_555 1_555
C15 C14 1_555 1_555
H12 C15 1_555 1_555
C16 C15 1_555 1_555
H13 C16 1_555 1_555
C17 C16 1_555 1_555
H14 C17 1_555 1_555
C18 C17 1_555 1_555
H15 C18 1_555 1_555
C19 C14 1_555 1_555
H16 C19 1_555 1_555
O1 C1 1_555 1_555
O2 C2 1_555 1_555
O3 C10 1_555 1_555
O4 C10 1_555 1_555
O5 C12 1_555 1_555
O6 C12 1_555 1_555
C20 C21 1_555 1_555
C21 C22 1_555 1_555
C22 C23 1_555 1_555
C23 H17 1_555 1_555
C24 C23 1_555 1_555
H18 C24 1_555 1_555
C25 C24 1_555 1_555
H19 C25 1_555 1_555
C26 C25 1_555 1_555
H20 C26 1_555 1_555
C27 C22 1_555 1_555
C28 C20 1_555 1_555
H21 C28 1_555 1_555
C29 C28 1_555 1_555
C30 H22 1_555 1_555
H23 C30 1_555 1_555
H24 C30 1_555 1_555
C31 C28 1_555 1_555
C32 H25 1_555 1_555
H26 C32 1_555 1_555
H27 C32 1_555 1_555
C33 C20 1_555 1_555
C34 C33 1_555 1_555
H28 C34 1_555 1_555
C35 C34 1_555 1_555
H29 C35 1_555 1_555
C36 C35 1_555 1_555
H30 C36 1_555 1_555
C37 C36 1_555 1_555
H31 C37 1_555 1_555
C38 C33 1_555 1_555
H32 C38 1_555 1_555
O7 C20 1_555 1_555
O8 C21 1_555 1_555
O9 C29 1_555 1_555
O10 C29 1_555 1_555
O11 C31 1_555 1_555
O12 C31 1_555 1_555
C7 C8 1_555 1_555
C8 O1 1_555 1_555
C11 O4 1_555 1_555
C13 O6 1_555 1_555
C18 C19 1_555 1_555
C26 C27 1_555 1_555
C27 O7 1_555 1_555
C30 O10 1_555 1_555
C32 O12 1_555 1_555
C37 C38 1_555 1_555

#END
