
#######################################################################
#
#                 Cambridge Crystallographic Data Centre
#                                CCDC 
#
#######################################################################
#
# If this CIF has been generated from an entry in the Cambridge 
# Structural Database, then it will include bibliographic, chemical, 
# crystal, experimental, refinement or atomic coordinate data resulting 
# from the CCDC's data processing and validation procedures.
#
#######################################################################

data_VERCIH
_chemical_formula_moiety         'C19 H16 O5'
_chemical_name_systematic        
'methyl 5-(2-hydroxyphenyl)-2-methoxy-4-phenylfuran-3-carboxylate'
_symmetry_cell_setting           triclinic
_symmetry_space_group_name_H-M   'P -1'
_symmetry_Int_Tables_number      2
_space_group_name_Hall           '-P 1'
loop_
_symmetry_equiv_pos_site_id
_symmetry_equiv_pos_as_xyz
1 x,y,z
2 -x,-y,-z
_cell_length_a                   6.9068(3)
_cell_length_b                   9.7323(3)
_cell_length_c                   11.6203(5)
_cell_angle_alpha                96.0690(10)
_cell_angle_beta                 99.410(2)
_cell_angle_gamma                92.887(2)
_cell_volume                     764.451
_exptl_crystal_colour            colorless
_exptl_crystal_description       plate
_cell_formula_units_Z            2
loop_
_atom_site_label
_atom_site_type_symbol
_atom_site_fract_x
_atom_site_fract_y
_atom_site_fract_z
O1 O 0.2352(2) 0.74420(14) 0.46825(12)
O2 O 0.2176(2) 0.65737(15) 0.64131(13)
O3 O 0.2082(2) 0.35598(16) 0.59976(13)
O4 O 0.2827(2) 0.27733(15) 0.42431(13)
O5 O -0.0817(2) 0.86146(18) 0.28490(15)
H1 H -0.099(5) 0.785(4) 0.322(3)
C1 C 0.2431(3) 0.6906(2) 0.35186(18)
C2 C 0.2466(3) 0.5519(2) 0.34360(18)
C3 C 0.2414(3) 0.5128(2) 0.46011(18)
C4 C 0.2322(3) 0.6343(2) 0.52919(18)
C5 C 0.2687(5) 0.7965(3) 0.6993(2)
H2 H 0.4040 0.8249 0.6923
H3 H 0.2578 0.7988 0.7825
H4 H 0.1788 0.8602 0.6625
C6 C 0.2409(3) 0.3773(2) 0.50296(18)
C7 C 0.2827(4) 0.1398(2) 0.4604(2)
H5 H 0.3747 0.1404 0.5342
H6 H 0.3233 0.0753 0.3996
H7 H 0.1500 0.1104 0.4718
C8 C 0.2475(3) 0.7939(2) 0.26821(18)
C9 C 0.0873(3) 0.8739(2) 0.23991(18)
C10 C 0.0978(3) 0.9735(2) 0.16324(19)
H8 H -0.0100 1.0286 0.1444
C11 C 0.2652(4) 0.9921(2) 0.1146(2)
H9 H 0.2719 1.0607 0.0627
C12 C 0.4239(4) 0.9122(2) 0.1402(2)
H10 H 0.5379 0.9251 0.1056
C13 C 0.4138(3) 0.8137(2) 0.2169(2)
H11 H 0.5220 0.7586 0.2347
C14 C 0.2420(3) 0.4654(2) 0.22945(18)
C15 C 0.0612(3) 0.4144(2) 0.1628(2)
H12 H -0.0566 0.4277 0.1935
C16 C 0.0533(4) 0.3443(3) 0.0516(2)
H13 H -0.0701 0.3096 0.0065
C17 C 0.2232(4) 0.3246(2) 0.0062(2)
H14 H 0.2169 0.2772 -0.0702
C18 C 0.4032(4) 0.3742(2) 0.0723(2)
H15 H 0.5208 0.3599 0.0416
C19 C 0.4117(3) 0.4445(2) 0.1833(2)
H16 H 0.5355 0.4788 0.2281
loop_
_geom_bond_atom_site_label_1
_geom_bond_atom_site_label_2
_geom_bond_site_symmetry_1
_geom_bond_site_symmetry_2
O1 C1 1_555 1_555
O2 C4 1_555 1_555
O3 C6 1_555 1_555
O4 C6 1_555 1_555
O5 H1 1_555 1_555
C1 C2 1_555 1_555
C2 C3 1_555 1_555
C3 C4 1_555 1_555
C4 O1 1_555 1_555
C5 O2 1_555 1_555
H2 C5 1_555 1_555
H3 C5 1_555 1_555
H4 C5 1_555 1_555
C6 C3 1_555 1_555
C7 O4 1_555 1_555
H5 C7 1_555 1_555
H6 C7 1_555 1_555
H7 C7 1_555 1_555
C8 C1 1_555 1_555
C9 O5 1_555 1_555
C10 C9 1_555 1_555
H8 C10 1_555 1_555
C11 C10 1_555 1_555
H9 C11 1_555 1_555
C12 C11 1_555 1_555
H10 C12 1_555 1_555
C13 C8 1_555 1_555
H11 C13 1_555 1_555
C14 C2 1_555 1_555
C15 C14 1_555 1_555
H12 C15 1_555 1_555
C16 C15 1_555 1_555
H13 C16 1_555 1_555
C17 C16 1_555 1_555
H14 C17 1_555 1_555
C18 C17 1_555 1_555
H15 C18 1_555 1_555
C19 C14 1_555 1_555
H16 C19 1_555 1_555
C8 C9 1_555 1_555
C12 C13 1_555 1_555
C18 C19 1_555 1_555

#END
