
#######################################################################
#
#                 Cambridge Crystallographic Data Centre
#                                CCDC 
#
#######################################################################
#
# If this CIF has been generated from an entry in the Cambridge 
# Structural Database, then it will include bibliographic, chemical, 
# crystal, experimental, refinement or atomic coordinate data resulting 
# from the CCDC's data processing and validation procedures.
#
#######################################################################

data_VERJAE
_chemical_formula_moiety         'C20 H11 N3 O6'
_chemical_name_systematic        2,7,14-trinitrotriptycene
_symmetry_cell_setting           monoclinic
_symmetry_space_group_name_H-M   'C 2/c'
_symmetry_Int_Tables_number      15
_space_group_name_Hall           '-C 2yn'
loop_
_symmetry_equiv_pos_site_id
_symmetry_equiv_pos_as_xyz
1 x,y,z
2 1/2+x,1/2+y,z
3 -x,y,1/2-z
4 1/2-x,1/2+y,1/2-z
5 -x,-y,-z
6 1/2-x,1/2-y,-z
7 x,-y,1/2+z
8 1/2+x,1/2-y,1/2+z
_cell_length_a                   18.570(3)
_cell_length_b                   9.8463(14)
_cell_length_c                   18.461(3)
_cell_angle_alpha                90
_cell_angle_beta                 100.472(3)
_cell_angle_gamma                90
_cell_volume                     3319.29
_exptl_crystal_colour            colorless
_exptl_crystal_description       block
_chemical_melting_point          'above 300 deg.C'
_cell_formula_units_Z            8
_exptl_crystal_recrystallization_method dichloromethane/hexane
loop_
_atom_site_label
_atom_site_type_symbol
_atom_site_fract_x
_atom_site_fract_y
_atom_site_fract_z
O1 O 0.37093(9) 0.07888(13) 0.19973(8)
O2 O 0.47701(9) 0.09963(16) 0.16790(9)
O3 O 0.05028(10) 0.6686(2) 0.04226(11)
O4 O 0.07373(12) 0.8536(3) -0.00877(14)
O5 O 0.31385(10) 0.66315(17) 0.51540(8)
O6 O 0.36125(10) 0.86531(18) 0.52652(9)
N1 N 0.42048(10) 0.14760(17) 0.18317(9)
N2 N 0.09136(11) 0.7605(2) 0.03353(10)
N3 N 0.34213(10) 0.76180(19) 0.49101(9)
C1 C 0.28583(10) 0.56912(18) 0.23398(9)
C2 C 0.34688(10) 0.49029(18) 0.20821(9)
C3 C 0.35272(10) 0.35070(18) 0.20749(9)
C4 C 0.41263(10) 0.29611(19) 0.18244(9)
C5 C 0.46497(10) 0.3744(2) 0.15784(10)
C6 C 0.45820(10) 0.5153(2) 0.15905(10)
C7 C 0.39986(10) 0.57246(18) 0.18488(9)
C8 C 0.38458(10) 0.72433(18) 0.19235(10)
C9 C 0.30784(11) 0.74756(18) 0.14828(10)
C10 C 0.28882(12) 0.84205(18) 0.09268(10)
C11 C 0.21623(12) 0.8482(2) 0.05603(10)
C12 C 0.16628(11) 0.7596(2) 0.07625(10)
C13 C 0.18317(10) 0.66612(19) 0.13318(10)
C14 C 0.25500(10) 0.66219(18) 0.16977(9)
C15 C 0.32489(10) 0.66170(17) 0.29503(10)
C16 C 0.37788(10) 0.74469(17) 0.27258(10)
C17 C 0.41836(10) 0.83483(18) 0.32146(11)
C18 C 0.40634(11) 0.84058(19) 0.39390(11)
C19 C 0.35418(11) 0.75649(19) 0.41443(10)
C20 C 0.31225(10) 0.66603(18) 0.36663(10)
H1 H 0.2480 0.5096 0.2500
H2 H 0.3172 0.2942 0.2235
H3 H 0.5048 0.3330 0.1404
H4 H 0.4934 0.5715 0.1423
H5 H 0.4224 0.7839 0.1765
H6 H 0.3246 0.9018 0.0796
H7 H 0.2016 0.9125 0.0178
H8 H 0.1470 0.6076 0.1464
H9 H 0.4538 0.8920 0.3059
H10 H 0.4336 0.9013 0.4284
H11 H 0.2765 0.6097 0.3823
loop_
_geom_bond_atom_site_label_1
_geom_bond_atom_site_label_2
_geom_bond_site_symmetry_1
_geom_bond_site_symmetry_2
O1 N1 1_555 1_555
O2 N1 1_555 1_555
O3 N2 1_555 1_555
O4 N2 1_555 1_555
O5 N3 1_555 1_555
O6 N3 1_555 1_555
N1 C4 1_555 1_555
N2 C12 1_555 1_555
N3 C19 1_555 1_555
C1 C2 1_555 1_555
C2 C3 1_555 1_555
C3 C4 1_555 1_555
C4 C5 1_555 1_555
C5 C6 1_555 1_555
C6 C7 1_555 1_555
C7 C2 1_555 1_555
C8 C7 1_555 1_555
C9 C8 1_555 1_555
C10 C9 1_555 1_555
C11 C10 1_555 1_555
C12 C11 1_555 1_555
C13 C12 1_555 1_555
C14 C1 1_555 1_555
C15 C1 1_555 1_555
C16 C8 1_555 1_555
C17 C16 1_555 1_555
C18 C17 1_555 1_555
C19 C18 1_555 1_555
C20 C15 1_555 1_555
H1 C1 1_555 1_555
H2 C3 1_555 1_555
H3 C5 1_555 1_555
H4 C6 1_555 1_555
H5 C8 1_555 1_555
H6 C10 1_555 1_555
H7 C11 1_555 1_555
H8 C13 1_555 1_555
H9 C17 1_555 1_555
H10 C18 1_555 1_555
H11 C20 1_555 1_555
C9 C14 1_555 1_555
C13 C14 1_555 1_555
C15 C16 1_555 1_555
C19 C20 1_555 1_555

#END
