
#######################################################################
#
#                 Cambridge Crystallographic Data Centre
#                                CCDC 
#
#######################################################################
#
# If this CIF has been generated from an entry in the Cambridge 
# Structural Database, then it will include bibliographic, chemical, 
# crystal, experimental, refinement or atomic coordinate data resulting 
# from the CCDC's data processing and validation procedures.
#
#######################################################################

data_VERTOE
_chemical_formula_moiety         'C19 H18 N2 O2'
_chemical_name_systematic        
'(propane-2,2-diyl)bis(2-methyl-4,1-phenylene) dicyanate'
_symmetry_cell_setting           triclinic
_symmetry_space_group_name_H-M   'P -1'
_symmetry_Int_Tables_number      2
_space_group_name_Hall           '-P 1'
loop_
_symmetry_equiv_pos_site_id
_symmetry_equiv_pos_as_xyz
1 x,y,z
2 -x,-y,-z
_cell_length_a                   8.06810(10)
_cell_length_b                   8.44990(10)
_cell_length_c                   12.5839(2)
_cell_angle_alpha                101.5149(5)
_cell_angle_beta                 104.2418(5)
_cell_angle_gamma                102.3937(6)
_cell_volume                     782.754
_exptl_crystal_colour            colorless
_exptl_crystal_description       block
_cell_formula_units_Z            2
_exptl_crystal_recrystallization_method 'Re-crystallisation from solvent'
loop_
_atom_site_label
_atom_site_type_symbol
_atom_site_fract_x
_atom_site_fract_y
_atom_site_fract_z
O1 O 0.47817(10) 0.28539(10) -0.11553(7)
O2 O 0.08199(10) 0.83613(10) 0.47327(7)
N1 N 0.76180(14) 0.22680(14) -0.11436(9)
N2 N 0.33842(15) 1.02949(14) 0.62482(10)
C1 C 0.16894(14) 0.21698(14) 0.24159(9)
C2 C -0.00727(15) 0.07852(14) 0.17899(10)
H1 H -0.081612 0.117166 0.121139
H2 H -0.070319 0.053832 0.233699
H3 H 0.018116 -0.023426 0.142333
C3 C 0.27528(16) 0.15675(15) 0.33785(9)
H4 H 0.392258 0.238408 0.375198
H5 H 0.290710 0.047186 0.305799
H6 H 0.210373 0.146448 0.393633
C4 C 0.26651(14) 0.24128(13) 0.15295(9)
C5 C 0.19253(14) 0.30950(13) 0.06641(9)
H7 H 0.090482 0.347360 0.068803
C6 C 0.26200(14) 0.32429(13) -0.02307(9)
C7 C 0.41279(14) 0.26947(13) -0.02112(9)
C8 C 0.49304(14) 0.20404(14) 0.06272(9)
H8 H 0.597172 0.169563 0.061048
C9 C 0.41807(14) 0.18935(13) 0.15043(9)
H9 H 0.471038 0.143524 0.208814
C10 C 0.17666(15) 0.39025(15) -0.11860(9)
H10 H 0.266515 0.478988 -0.129249
H11 H 0.082434 0.436202 -0.100122
H12 H 0.125331 0.298596 -0.188771
C11 C 0.62878(15) 0.25318(14) -0.11326(9)
C12 C 0.14092(14) 0.38421(14) 0.29667(8)
C13 C -0.02082(14) 0.39682(13) 0.31346(8)
H13 H -0.120087 0.299715 0.284261
C14 C -0.04300(14) 0.54638(14) 0.37145(8)
C15 C 0.10654(15) 0.68341(13) 0.41266(9)
C16 C 0.26861(14) 0.68052(14) 0.39579(9)
H14 H 0.366430 0.778873 0.423455
C17 C 0.28445(14) 0.52994(14) 0.33731(9)
H15 H 0.394768 0.525370 0.324513
C18 C -0.21993(14) 0.55792(14) 0.38627(9)
H16 H -0.251334 0.651647 0.359061
H17 H -0.212225 0.576781 0.466957
H18 H -0.311428 0.452837 0.342424
C19 C 0.22021(15) 0.93657(14) 0.55298(9)
loop_
_geom_bond_atom_site_label_1
_geom_bond_atom_site_label_2
_geom_bond_site_symmetry_1
_geom_bond_site_symmetry_2
O1 C7 1_555 1_555
O2 C15 1_555 1_555
N1 C11 1_555 1_555
N2 C19 1_555 1_555
C1 C2 1_555 1_555
C2 H1 1_555 1_555
H2 C2 1_555 1_555
H3 C2 1_555 1_555
C3 C1 1_555 1_555
H4 C3 1_555 1_555
H5 C3 1_555 1_555
H6 C3 1_555 1_555
C4 C1 1_555 1_555
C5 C4 1_555 1_555
H7 C5 1_555 1_555
C6 C5 1_555 1_555
C7 C6 1_555 1_555
C8 C7 1_555 1_555
H8 C8 1_555 1_555
C9 C4 1_555 1_555
H9 C9 1_555 1_555
C10 C6 1_555 1_555
H10 C10 1_555 1_555
H11 C10 1_555 1_555
H12 C10 1_555 1_555
C11 O1 1_555 1_555
C12 C1 1_555 1_555
C13 C12 1_555 1_555
H13 C13 1_555 1_555
C14 C13 1_555 1_555
C15 C14 1_555 1_555
C16 C15 1_555 1_555
H14 C16 1_555 1_555
C17 C12 1_555 1_555
H15 C17 1_555 1_555
C18 C14 1_555 1_555
H16 C18 1_555 1_555
H17 C18 1_555 1_555
H18 C18 1_555 1_555
C19 O2 1_555 1_555
C8 C9 1_555 1_555
C16 C17 1_555 1_555

#END
