
#######################################################################
#
#                 Cambridge Crystallographic Data Centre
#                                CCDC 
#
#######################################################################
#
# If this CIF has been generated from an entry in the Cambridge 
# Structural Database, then it will include bibliographic, chemical, 
# crystal, experimental, refinement or atomic coordinate data resulting 
# from the CCDC's data processing and validation procedures.
#
#######################################################################

data_VERTAQ
_chemical_formula_moiety         'C19 H18 N2 O2'
_chemical_name_systematic        
'(propane-1,1-diyl)bis(3-methyl-4,1-phenylene) dicyanate'
_symmetry_cell_setting           monoclinic
_symmetry_space_group_name_H-M   'P 21/c'
_symmetry_Int_Tables_number      14
_space_group_name_Hall           '-P 2ybc'
loop_
_symmetry_equiv_pos_site_id
_symmetry_equiv_pos_as_xyz
1 x,y,z
2 -x,1/2+y,1/2-z
3 -x,-y,-z
4 x,1/2-y,1/2+z
_cell_length_a                   7.3468(5)
_cell_length_b                   12.2384(7)
_cell_length_c                   17.4410(11)
_cell_angle_alpha                90
_cell_angle_beta                 91.9650(10)
_cell_angle_gamma                90
_cell_volume                     1567.25
_exptl_crystal_colour            colorless
_exptl_crystal_description       block
_cell_formula_units_Z            4
_exptl_crystal_recrystallization_method 'Re-crystallisation from solvent'
loop_
_atom_site_label
_atom_site_type_symbol
_atom_site_fract_x
_atom_site_fract_y
_atom_site_fract_z
O1 O 0.65581(13) 1.12525(8) 0.48566(5)
O2 O 1.39341(11) 1.01680(7) 0.06887(4)
N1 N 0.46383(15) 1.27782(9) 0.44347(6)
N2 N 1.69090(15) 1.08531(9) 0.11273(6)
C1 C 0.92290(14) 0.80718(9) 0.27766(6)
H1 H 0.993899 0.751870 0.308473
C2 C 0.75768(15) 0.74786(9) 0.24061(6)
H2 H 0.676899 0.723586 0.281576
H3 H 0.688270 0.800138 0.207625
C3 C 0.80812(16) 0.64915(9) 0.19251(7)
H4 H 0.696873 0.612995 0.173009
H5 H 0.879958 0.597816 0.224284
H6 H 0.879975 0.673161 0.149291
C4 C 0.85608(14) 0.89298(9) 0.33353(6)
C5 C 0.84943(14) 0.87128(9) 0.41282(6)
C6 C 0.78131(15) 0.95135(10) 0.46102(6)
H7 H 0.776873 0.938491 0.514640
C7 C 0.72041(15) 1.04930(9) 0.43051(6)
C8 C 0.72348(15) 1.07348(9) 0.35341(6)
H8 H 0.680090 1.141407 0.333767
C9 C 0.79327(14) 0.99356(9) 0.30554(6)
H9 H 0.798233 1.008015 0.252134
C10 C 0.91267(17) 0.76426(10) 0.44706(7)
H10 H 0.899254 0.766062 0.502762
H11 H 1.040921 0.752496 0.435730
H12 H 0.838974 0.704590 0.424984
C11 C 0.55538(16) 1.20556(10) 0.46128(6)
C12 C 1.05255(14) 0.85749(8) 0.22089(6)
C13 C 1.23098(14) 0.88490(8) 0.24593(6)
C14 C 1.34607(14) 0.93762(8) 0.19574(6)
H13 H 1.466186 0.957359 0.212230
C15 C 1.28413(14) 0.96076(9) 0.12218(6)
C16 C 1.11279(15) 0.93226(9) 0.09491(6)
H14 H 1.074657 0.947004 0.043347
C17 C 0.99707(15) 0.88113(9) 0.14525(6)
H15 H 0.877460 0.861814 0.127775
C18 C 1.29993(15) 0.86255(10) 0.32673(6)
H16 H 1.425039 0.889571 0.333377
H17 H 1.297653 0.783697 0.336442
H18 H 1.221944 0.899835 0.362956
C19 C 1.55103(16) 1.05170(9) 0.09345(6)
loop_
_geom_bond_atom_site_label_1
_geom_bond_atom_site_label_2
_geom_bond_site_symmetry_1
_geom_bond_site_symmetry_2
O1 C7 1_555 1_555
O2 C15 1_555 1_555
N1 C11 1_555 1_555
N2 C19 1_555 1_555
C1 H1 1_555 1_555
C2 C1 1_555 1_555
H2 C2 1_555 1_555
H3 C2 1_555 1_555
C3 C2 1_555 1_555
H4 C3 1_555 1_555
H5 C3 1_555 1_555
H6 C3 1_555 1_555
C4 C1 1_555 1_555
C5 C4 1_555 1_555
C6 C5 1_555 1_555
H7 C6 1_555 1_555
C7 C6 1_555 1_555
C8 C7 1_555 1_555
H8 C8 1_555 1_555
C9 C4 1_555 1_555
H9 C9 1_555 1_555
C10 C5 1_555 1_555
H10 C10 1_555 1_555
H11 C10 1_555 1_555
H12 C10 1_555 1_555
C11 O1 1_555 1_555
C12 C1 1_555 1_555
C13 C12 1_555 1_555
C14 C13 1_555 1_555
H13 C14 1_555 1_555
C15 C14 1_555 1_555
C16 C15 1_555 1_555
H14 C16 1_555 1_555
C17 C12 1_555 1_555
H15 C17 1_555 1_555
C18 C13 1_555 1_555
H16 C18 1_555 1_555
H17 C18 1_555 1_555
H18 C18 1_555 1_555
C19 O2 1_555 1_555
C8 C9 1_555 1_555
C16 C17 1_555 1_555

#END
