
#######################################################################
#
#                 Cambridge Crystallographic Data Centre
#                                CCDC 
#
#######################################################################
#
# If this CIF has been generated from an entry in the Cambridge 
# Structural Database, then it will include bibliographic, chemical, 
# crystal, experimental, refinement or atomic coordinate data resulting 
# from the CCDC's data processing and validation procedures.
#
#######################################################################

data_VERTAN
_chemical_formula_moiety         'C10 H8 S8 1+,C10 H8 S8,C10 N5 1-,C2 H3 Cl3'
_chemical_name_systematic        
'bis(Ethylenedithio)tetrathiafulvalene pentacyano-cyclopentadienide 1,1,2-dichloroethane solvate'
_symmetry_cell_setting           orthorhombic
_symmetry_space_group_name_H-M   'P n c m'
_symmetry_Int_Tables_number      53
_space_group_name_Hall           '-P 2 2bc'
loop_
_symmetry_equiv_pos_site_id
_symmetry_equiv_pos_as_xyz
1 x,y,z
2 -x,1/2+y,1/2+z
3 x,1/2-y,1/2+z
4 -x,-y,z
5 -x,-y,-z
6 x,1/2-y,1/2-z
7 -x,1/2+y,1/2-z
8 x,y,-z
_cell_length_a                   6.774(2)
_cell_length_b                   14.657(5)
_cell_length_c                   41.05(1)
_cell_angle_alpha                90
_cell_angle_beta                 90
_cell_angle_gamma                90
_cell_volume                     4075.71
_exptl_crystal_colour            black
_cell_formula_units_Z            4
loop_
_atom_site_label
_atom_site_type_symbol
_atom_site_fract_x
_atom_site_fract_y
_atom_site_fract_z
C11 C 0.228(2) 0.0580(8) 0.4827(2)
C12 C 0.255(2) -0.0258(7) 0.4731(3)
C13 C 0.274(2) -0.0862(10) 0.5000
C14 C 0.205(2) 0.1375(9) 0.4628(3)
C15 C 0.267(2) -0.0591(9) 0.4396(3)
C16 C 0.308(3) -0.181(2) 0.5000
N1 N 0.176(2) 0.2004(9) 0.4459(3)
N2 N 0.276(2) -0.0787(7) 0.4123(3)
N3 N 0.308(2) -0.2601(12) 0.5000
C11G C 0.228(2) 0.0580(8) 0.5173(2)
C12G C 0.255(2) -0.0258(7) 0.5269(3)
C14G C 0.205(2) 0.1375(9) 0.5372(3)
C15G C 0.267(2) -0.0591(9) 0.5604(3)
N1G N 0.176(2) 0.2004(9) 0.5541(3)
N2G N 0.276(2) -0.0787(7) 0.5877(3)
S1 S 0.2952(5) 0.3838(2) 0.32634(7)
S2 S 0.7129(5) 0.3729(3) 0.30810(7)
S3 S 0.1747(5) 0.3845(3) 0.25018(8)
S4 S 0.5918(5) 0.3795(3) 0.23167(7)
S5 S 0.3655(5) 0.3795(3) 0.39725(7)
S6 S 0.8614(5) 0.3715(3) 0.37536(8)
S7 S 0.0219(5) 0.3571(3) 0.18368(8)
S8 S 0.5189(5) 0.3593(2) 0.16109(7)
C1 C 0.470(2) 0.3781(9) 0.2942(3)
C2 C 0.419(2) 0.3779(8) 0.2628(2)
C3 C 0.464(2) 0.3828(8) 0.3584(2)
C4 C 0.656(2) 0.3759(8) 0.3500(3)
C5 C 0.230(2) 0.3662(8) 0.2091(3)
C6 C 0.413(2) 0.3687(8) 0.1998(2)
C7 C 0.565(3) 0.3428(11) 0.4224(4)
C8 C 0.744(3) 0.3239(11) 0.4111(4)
C9 C 0.122(2) 0.3596(11) 0.1434(3)
C10 C 0.307(2) 0.3982(10) 0.1367(3)
C17? C 0.0000 -0.5000 0.5447(3)
C18? C 0.721(4) -0.418(2) 0.5000
C19? C 0.231(7) -0.522(3) 0.5164(9)
C20? C 0.130(5) -0.570(2) 0.5216(6)
C21? C 0.344(6) -0.521(3) 0.5000
C22? C 0.975(5) -0.549(2) 0.5081(8)
loop_
_geom_bond_atom_site_label_1
_geom_bond_atom_site_label_2
_geom_bond_site_symmetry_1
_geom_bond_site_symmetry_2
S1 C1 1_555 1_555
S2 C1 1_555 1_555
S3 C2 1_555 1_555
S4 C2 1_555 1_555
S5 C3 1_555 1_555
S6 C4 1_555 1_555
S7 C5 1_555 1_555
S8 C6 1_555 1_555
C1 C2 1_555 1_555
C3 S1 1_555 1_555
C4 S2 1_555 1_555
C5 S3 1_555 1_555
C6 S4 1_555 1_555
C7 S5 1_555 1_555
C8 S6 1_555 1_555
C9 S7 1_555 1_555
C10 S8 1_555 1_555
C11 C12 1_555 1_555
C12 C13 1_555 1_555
C13 C16 1_555 1_555
C14 C11 1_555 1_555
C15 C12 1_555 1_555
C16 N3 1_555 1_555
N1 C14 1_555 1_555
N2 C15 1_555 1_555
C11G C11 1_555 1_555
C12G C13 1_555 1_555
C14G C11G 1_555 1_555
C15G C12G 1_555 1_555
N1G C14G 1_555 1_555
N2G C15G 1_555 1_555
C3 C4 1_555 1_555
C5 C6 1_555 1_555
C7 C8 1_555 1_555
C9 C10 1_555 1_555
C11G C12G 1_555 1_555

#END
