
#######################################################################
#
#                 Cambridge Crystallographic Data Centre
#                                CCDC 
#
#######################################################################
#
# If this CIF has been generated from an entry in the Cambridge 
# Structural Database, then it will include bibliographic, chemical, 
# crystal, experimental, refinement or atomic coordinate data resulting 
# from the CCDC's data processing and validation procedures.
#
#######################################################################

data_VERYEX
_chemical_formula_moiety         'C22 H19 N3 O2'
_chemical_name_systematic        
5-(2-Hydroxyphenyl)-4-(4-methoxyphenyl)-3-(4-methylphenyl)-4H-1,2,4-triazole
_symmetry_cell_setting           triclinic
_symmetry_space_group_name_H-M   'P -1'
_symmetry_Int_Tables_number      2
_space_group_name_Hall           '-P 1'
loop_
_symmetry_equiv_pos_site_id
_symmetry_equiv_pos_as_xyz
1 x,y,z
2 -x,-y,-z
_cell_length_a                   9.5954(4)
_cell_length_b                   12.4637(5)
_cell_length_c                   15.8750(6)
_cell_angle_alpha                90.9566(6)
_cell_angle_beta                 103.2093(6)
_cell_angle_gamma                90.4278(6)
_cell_volume                     1847.94
_exptl_crystal_colour            colorless
_exptl_crystal_description       block
_cell_formula_units_Z            4
loop_
_atom_site_label
_atom_site_type_symbol
_atom_site_fract_x
_atom_site_fract_y
_atom_site_fract_z
C1 C 0.24942(14) 1.01507(11) 0.49980(9)
C2 C 0.10930(14) 0.87280(11) 0.47266(9)
C3 C 0.02160(14) 0.78044(11) 0.43379(9)
C4 C -0.01245(17) 0.70181(13) 0.48799(10)
C5 C -0.09376(19) 0.61227(13) 0.45341(13)
H1 H -0.1156 0.5605 0.4901
C6 C -0.14188(19) 0.59956(14) 0.36592(14)
H2 H -0.1936 0.5382 0.3433
C7 C -0.11408(18) 0.67720(14) 0.31116(12)
H3 H -0.1496 0.6696 0.2517
C8 C -0.03340(16) 0.76601(13) 0.34493(10)
H4 H -0.0149 0.8180 0.3075
C9 C 0.34288(14) 1.10637(11) 0.49094(9)
C10 C 0.42773(16) 1.10746(12) 0.43117(10)
H5 H 0.4250 1.0492 0.3934
C11 C 0.51598(16) 1.19357(12) 0.42689(10)
H6 H 0.5714 1.1924 0.3859
C12 C 0.52475(15) 1.28183(12) 0.48172(10)
C13 C 0.44224(17) 1.27926(13) 0.54290(10)
H7 H 0.4471 1.3368 0.5815
C14 C 0.35334(16) 1.19362(12) 0.54785(9)
H8 H 0.2996 1.1941 0.5898
C15 C 0.61729(18) 1.37738(13) 0.47302(12)
H9 H 0.7098 1.3533 0.4678
H10 H 0.6277 1.4233 0.5233
H11 H 0.5733 1.4164 0.4224
C16 C 0.17266(14) 0.95902(10) 0.34289(8)
C17 C 0.25054(15) 0.89442(11) 0.30036(9)
H12 H 0.3103 0.8426 0.3305
C18 C 0.24011(15) 0.90631(11) 0.21283(9)
H13 H 0.2919 0.8619 0.1839
C19 C 0.15301(16) 0.98390(12) 0.16841(9)
C20 C 0.07391(17) 1.04825(12) 0.21219(9)
H14 H 0.0138 1.1001 0.1823
C21 C 0.08364(16) 1.03603(11) 0.29886(9)
H15 H 0.0306 1.0794 0.3278
C22 C 0.20854(19) 0.93831(14) 0.03339(10)
H16 H 0.3092 0.9410 0.0595
H17 H 0.1922 0.9647 -0.0245
H18 H 0.1744 0.8655 0.0318
H37 H 0.074(2) 0.7768(13) 0.5875(14)
N1 N 0.22230(13) 0.98581(10) 0.57369(7)
N2 N 0.13441(13) 0.89634(10) 0.55629(7)
N3 N 0.18100(12) 0.94645(9) 0.43397(7)
O1 O 0.02918(15) 0.70856(11) 0.57578(8)
O2 O 0.13424(13) 1.00302(9) 0.08275(6)
C23 C 0.29425(19) 0.53207(14) 0.88987(11)
C24 C 0.46717(19) 0.51286(12) 0.82096(11)
C25 C 0.57951(19) 0.52689(13) 0.77400(10)
C26 C 0.6467(2) 0.43526(15) 0.74909(12)
C27 C 0.7551(3) 0.4467(2) 0.70579(13)
H19 H 0.7995 0.3858 0.6903
C28 C 0.7983(2) 0.5443(2) 0.68527(12)
H20 H 0.8715 0.5500 0.6559
C29 C 0.7341(2) 0.63527(16) 0.70789(12)
H21 H 0.7633 0.7025 0.6935
C30 C 0.6272(2) 0.62657(14) 0.75155(11)
H22 H 0.5850 0.6887 0.7668
C31 C 0.18659(19) 0.58328(13) 0.92926(11)
C32 C 0.1918(2) 0.57627(16) 1.01618(13)
H23 H 0.2622 0.5349 1.0505
C33 C 0.0949(2) 0.62928(17) 1.05370(13)
H24 H 0.1022 0.6229 1.1128
C34 C -0.0111(2) 0.69076(15) 1.00679(14)
C35 C -0.0212(2) 0.69422(17) 0.91951(14)
H25 H -0.0955 0.7322 0.8853
C36 C 0.0754(2) 0.64311(17) 0.88078(13)
H26 H 0.0662 0.6486 0.8214
C37 C -0.1104(2) 0.75419(17) 1.04873(16)
H27 H -0.1329 0.8206 1.0191
H28 H -0.0648 0.7690 1.1082
H29 H -0.1969 0.7136 1.0457
C38 C 0.38954(15) 0.70377(11) 0.84731(9)
C39 C 0.46871(16) 0.75577(11) 0.92031(9)
H30 H 0.5164 0.7165 0.9673
C40 C 0.47669(16) 0.86524(11) 0.92317(9)
H31 H 0.5298 0.9005 0.9723
C41 C 0.40582(15) 0.92418(10) 0.85303(9)
C42 C 0.32699(15) 0.87201(11) 0.78019(9)
H32 H 0.2799 0.9110 0.7329
C43 C 0.31854(15) 0.76107(11) 0.77817(9)
H33 H 0.2644 0.7253 0.7296
C44 C 0.3460(2) 1.09826(13) 0.79523(12)
H34 H 0.3799 1.0830 0.7440
H35 H 0.3637 1.1725 0.8115
H36 H 0.2450 1.0834 0.7841
H38 H 0.545(2) 0.3377(19) 0.8002(15)
N4 N 0.3256(2) 0.42997(12) 0.89016(12)
N5 N 0.4330(2) 0.41817(12) 0.84640(12)
N6 N 0.37982(14) 0.58820(9) 0.84669(8)
O3 O 0.6088(2) 0.33499(12) 0.76654(12)
O4 O 0.41904(12) 1.03287(8) 0.86360(6)
loop_
_geom_bond_atom_site_label_1
_geom_bond_atom_site_label_2
_geom_bond_site_symmetry_1
_geom_bond_site_symmetry_2
C1 C9 1_555 1_555
C2 C3 1_555 1_555
C3 C4 1_555 1_555
C4 C5 1_555 1_555
C5 H1 1_555 1_555
C6 C5 1_555 1_555
H2 C6 1_555 1_555
C7 C6 1_555 1_555
H3 C7 1_555 1_555
C8 C3 1_555 1_555
H4 C8 1_555 1_555
C9 C10 1_555 1_555
C10 H5 1_555 1_555
C11 C10 1_555 1_555
H6 C11 1_555 1_555
C12 C11 1_555 1_555
C13 C12 1_555 1_555
H7 C13 1_555 1_555
C14 C9 1_555 1_555
H8 C14 1_555 1_555
C15 C12 1_555 1_555
H9 C15 1_555 1_555
H10 C15 1_555 1_555
H11 C15 1_555 1_555
C16 C17 1_555 1_555
C17 H12 1_555 1_555
C18 C17 1_555 1_555
H13 C18 1_555 1_555
C19 C18 1_555 1_555
C20 C19 1_555 1_555
H14 C20 1_555 1_555
C21 C16 1_555 1_555
H15 C21 1_555 1_555
C22 H16 1_555 1_555
H17 C22 1_555 1_555
H18 C22 1_555 1_555
C23 C31 1_555 1_555
C24 C25 1_555 1_555
C25 C26 1_555 1_555
C26 C27 1_555 1_555
C27 H19 1_555 1_555
C28 C27 1_555 1_555
H20 C28 1_555 1_555
C29 C28 1_555 1_555
H21 C29 1_555 1_555
C30 C25 1_555 1_555
H22 C30 1_555 1_555
C31 C32 1_555 1_555
C32 H23 1_555 1_555
C33 C32 1_555 1_555
H24 C33 1_555 1_555
C34 C33 1_555 1_555
C35 C34 1_555 1_555
H25 C35 1_555 1_555
C36 C31 1_555 1_555
H26 C36 1_555 1_555
C37 C34 1_555 1_555
H27 C37 1_555 1_555
H28 C37 1_555 1_555
H29 C37 1_555 1_555
C38 C39 1_555 1_555
C39 H30 1_555 1_555
C40 C39 1_555 1_555
H31 C40 1_555 1_555
C41 C40 1_555 1_555
C42 C41 1_555 1_555
H32 C42 1_555 1_555
C43 C38 1_555 1_555
H33 C43 1_555 1_555
C44 H34 1_555 1_555
H35 C44 1_555 1_555
H36 C44 1_555 1_555
H37 O1 1_555 1_555
H38 O3 1_555 1_555
N1 C1 1_555 1_555
N2 C2 1_555 1_555
N3 C1 1_555 1_555
N4 C23 1_555 1_555
N5 C24 1_555 1_555
N6 C23 1_555 1_555
O1 C4 1_555 1_555
O2 C19 1_555 1_555
O3 C26 1_555 1_555
O4 C41 1_555 1_555
C2 N3 1_555 1_555
C7 C8 1_555 1_555
C13 C14 1_555 1_555
C16 N3 1_555 1_555
C20 C21 1_555 1_555
C22 O2 1_555 1_555
C24 N6 1_555 1_555
C29 C30 1_555 1_555
C35 C36 1_555 1_555
C38 N6 1_555 1_555
C42 C43 1_555 1_555
C44 O4 1_555 1_555
N1 N2 1_555 1_555
N4 N5 1_555 1_555

#END
