
#######################################################################
#
#                 Cambridge Crystallographic Data Centre
#                                CCDC 
#
#######################################################################
#
# If this CIF has been generated from an entry in the Cambridge 
# Structural Database, then it will include bibliographic, chemical, 
# crystal, experimental, refinement or atomic coordinate data resulting 
# from the CCDC's data processing and validation procedures.
#
#######################################################################

data_VERYID
_chemical_formula_moiety         'C15 H11 N2 O1 P1'
_chemical_name_systematic        
6-methoxyphosphinolino[4',3':4,5]imidazo[1,2-a]pyridine
_symmetry_cell_setting           monoclinic
_symmetry_space_group_name_H-M   'P 21/c'
_symmetry_Int_Tables_number      14
_space_group_name_Hall           '-P 2ybc'
loop_
_symmetry_equiv_pos_site_id
_symmetry_equiv_pos_as_xyz
1 x,y,z
2 -x,1/2+y,1/2-z
3 -x,-y,-z
4 x,1/2-y,1/2+z
_cell_length_a                   17.1432(5)
_cell_length_b                   8.2411(2)
_cell_length_c                   17.8465(5)
_cell_angle_alpha                90
_cell_angle_beta                 95.7360(10)
_cell_angle_gamma                90
_cell_volume                     2508.71
_exptl_crystal_colour            colourless
_exptl_crystal_description       block
_cell_formula_units_Z            8
loop_
_atom_site_label
_atom_site_type_symbol
_atom_site_fract_x
_atom_site_fract_y
_atom_site_fract_z
C1 C 0.5725(3) 0.6032(6) 0.5810(3)
H1 H 0.5241 0.5737 0.5961
C2 C 0.5759(2) 0.6918(5) 0.5168(2)
H2 H 0.5301 0.7231 0.4881
C3 C 0.6497(2) 0.7352(4) 0.4946(2)
C4 C 0.7471(2) 0.8270(4) 0.44195(19)
C5 C 0.7926(2) 0.9091(4) 0.3905(2)
C6 C 0.8760(2) 0.9051(5) 0.4019(2)
C7 C 0.9183(3) 0.9912(5) 0.3504(3)
H3 H 0.9728 0.9889 0.3566
C8 C 0.8816(3) 1.0767(6) 0.2926(3)
H4 H 0.9107 1.1356 0.2607
C9 C 0.7121(3) 0.5974(5) 0.6045(2)
H5 H 0.7575 0.5657 0.6339
C10 C 0.6414(3) 0.5566(6) 0.6242(2)
H6 H 0.6381 0.4957 0.6676
C11 C 0.7805(2) 0.7435(4) 0.5053(2)
C12 C 0.8617(2) 0.7212(5) 0.5262(2)
C13 C 0.9586(3) 0.5938(7) 0.6112(3)
H7 H 0.9787 0.5300 0.5724
H8 H 0.9630 0.5335 0.6574
H9 H 0.9881 0.6926 0.6180
C14 C 0.7998(3) 1.0763(6) 0.2809(2)
H10 H 0.7746 1.1328 0.2403
C15 C 0.7563(3) 0.9936(5) 0.3285(2)
H11 H 0.7019 0.9935 0.3196
N1 N 0.71657(18) 0.6866(4) 0.54045(16)
N2 N 0.66708(17) 0.8186(4) 0.43536(17)
O1 O 0.87878(16) 0.6309(4) 0.58993(15)
P1 P 0.93365(6) 0.80284(14) 0.47583(6)
C16 C 0.7854(4) 0.3615(6) 0.4289(3)
H12 H 0.8127 0.4169 0.3944
C17 C 0.8251(3) 0.2878(6) 0.4879(3)
H13 H 0.8796 0.2920 0.4934
C18 C 0.7854(3) 0.2037(5) 0.5419(2)
C19 C 0.7034(2) 0.1997(4) 0.5309(2)
C20 C 0.6599(2) 0.1147(4) 0.5849(2)
C21 C 0.5665(2) 0.0141(5) 0.6391(2)
C22 C 0.4924(3) -0.0400(5) 0.6598(3)
H14 H 0.4461 -0.0146 0.6305
C23 C 0.4915(3) -0.1306(6) 0.7242(3)
H15 H 0.4441 -0.1686 0.7386
C24 C 0.5605(3) -0.1656(6) 0.7677(3)
H16 H 0.5582 -0.2237 0.8121
C25 C 0.7043(4) 0.3563(6) 0.4186(3)
H17 H 0.6777 0.4077 0.3773
C26 C 0.6636(3) 0.2764(5) 0.4685(2)
H18 H 0.6092 0.2727 0.4612
C27 C 0.7758(2) 0.0241(5) 0.6698(2)
C28 C 0.8790(3) -0.0780(8) 0.7567(3)
H19 H 0.9036 -0.1230 0.7154
H20 H 0.8867 -0.1496 0.7992
H21 H 0.9017 0.0258 0.7698
C29 C 0.6958(2) 0.0348(4) 0.6482(2)
C30 C 0.6304(3) -0.1192(5) 0.7485(3)
H22 H 0.6760 -0.1466 0.7784
N3 N 0.58124(19) 0.1025(4) 0.5799(2)
N4 N 0.63353(19) -0.0304(4) 0.68394(18)
O2 O 0.7960(2) -0.0589(4) 0.73501(18)
P2 P 0.84584(6) 0.11340(15) 0.61845(7)
loop_
_geom_bond_atom_site_label_1
_geom_bond_atom_site_label_2
_geom_bond_site_symmetry_1
_geom_bond_site_symmetry_2
C1 H1 1_555 1_555
C2 C1 1_555 1_555
H2 C2 1_555 1_555
C3 C2 1_555 1_555
C4 C5 1_555 1_555
C5 C6 1_555 1_555
C6 C7 1_555 1_555
C7 H3 1_555 1_555
C8 C7 1_555 1_555
H4 C8 1_555 1_555
C9 H5 1_555 1_555
C10 C1 1_555 1_555
H6 C10 1_555 1_555
C11 C4 1_555 1_555
C12 C11 1_555 1_555
C13 H7 1_555 1_555
H8 C13 1_555 1_555
H9 C13 1_555 1_555
C14 C8 1_555 1_555
H10 C14 1_555 1_555
C15 C5 1_555 1_555
H11 C15 1_555 1_555
N1 C3 1_555 1_555
N2 C3 1_555 1_555
O1 C12 1_555 1_555
P1 C6 1_555 1_555
C16 H12 1_555 1_555
C17 C16 1_555 1_555
H13 C17 1_555 1_555
C18 C17 1_555 1_555
C19 C18 1_555 1_555
C20 C19 1_555 1_555
C21 C22 1_555 1_555
C22 H14 1_555 1_555
C23 C22 1_555 1_555
H15 C23 1_555 1_555
C24 C23 1_555 1_555
H16 C24 1_555 1_555
C25 C16 1_555 1_555
H17 C25 1_555 1_555
C26 C19 1_555 1_555
H18 C26 1_555 1_555
C27 C29 1_555 1_555
C28 H19 1_555 1_555
H20 C28 1_555 1_555
H21 C28 1_555 1_555
C29 C20 1_555 1_555
C30 C24 1_555 1_555
H22 C30 1_555 1_555
N3 C20 1_555 1_555
N4 C21 1_555 1_555
O2 C27 1_555 1_555
P2 C18 1_555 1_555
C4 N2 1_555 1_555
C9 C10 1_555 1_555
C9 N1 1_555 1_555
C11 N1 1_555 1_555
C12 P1 1_555 1_555
C13 O1 1_555 1_555
C14 C15 1_555 1_555
C21 N3 1_555 1_555
C25 C26 1_555 1_555
C27 P2 1_555 1_555
C28 O2 1_555 1_555
C29 N4 1_555 1_555
C30 N4 1_555 1_555

#END
