
#######################################################################
#
#                 Cambridge Crystallographic Data Centre
#                                CCDC 
#
#######################################################################
#
# If this CIF has been generated from an entry in the Cambridge 
# Structural Database, then it will include bibliographic, chemical, 
# crystal, experimental, refinement or atomic coordinate data resulting 
# from the CCDC's data processing and validation procedures.
#
#######################################################################

data_VERZOI
_chemical_name_common            2-Fluoro-5-methylsulfonylnitrobenzene
_chemical_formula_moiety         'C7 H6 F1 N1 O4 S1'
_chemical_name_systematic        '4-Fluoro-3-nitrophenyl methyl sulfone'
_symmetry_cell_setting           monoclinic
_symmetry_space_group_name_H-M   'P 21/c'
_symmetry_Int_Tables_number      14
_space_group_name_Hall           '-P 2ybc'
loop_
_symmetry_equiv_pos_site_id
_symmetry_equiv_pos_as_xyz
1 x,y,z
2 -x,1/2+y,1/2-z
3 -x,-y,-z
4 x,1/2-y,1/2+z
_cell_length_a                   7.8514(15)
_cell_length_b                   9.7882(18)
_cell_length_c                   12.215(2)
_cell_angle_alpha                90
_cell_angle_beta                 108.595(3)
_cell_angle_gamma                90
_cell_volume                     889.73
_exptl_crystal_colour            colorless
_exptl_crystal_description       block
_chemical_melting_point          '383-384 K'
_cell_formula_units_Z            4
_exptl_crystal_recrystallization_method 'ethyl acetate/toluene'
loop_
_atom_site_label
_atom_site_type_symbol
_atom_site_fract_x
_atom_site_fract_y
_atom_site_fract_z
S1 S 0.58945(7) 0.19920(5) -0.01371(5)
F1 F 0.8607(2) 0.75129(16) -0.03459(17)
O1 O 1.0051(3) 0.7317(2) 0.1871(2)
O2 O 0.8927(4) 0.5852(3) 0.27171(19)
O3 O 0.5782(3) 0.18000(18) 0.09938(16)
O4 O 0.4271(2) 0.18760(19) -0.10874(17)
N1 N 0.9155(3) 0.6317(2) 0.1867(2)
C1 C 0.8032(3) 0.6243(2) -0.0284(2)
C2 C 0.8260(3) 0.5627(2) 0.07696(19)
C3 C 0.7626(3) 0.4323(2) 0.08157(17)
H1 H 0.7778 0.3902 0.1523
C4 C 0.6765(3) 0.3652(2) -0.02005(17)
C5 C 0.6533(3) 0.4269(2) -0.12623(18)
H2 H 0.5946 0.3807 -0.1944
C6 C 0.7177(3) 0.5566(3) -0.1296(2)
H3 H 0.7035 0.5987 -0.2002
C7 C 0.7502(4) 0.0879(3) -0.0342(3)
H4 H 0.8619 0.1003 0.0268
H5 H 0.7672 0.1068 -0.1071
H6 H 0.7101 -0.0047 -0.0334
loop_
_geom_bond_atom_site_label_1
_geom_bond_atom_site_label_2
_geom_bond_site_symmetry_1
_geom_bond_site_symmetry_2
S1 O3 1_555 1_555
F1 C1 1_555 1_555
O1 N1 1_555 1_555
O2 N1 1_555 1_555
O4 S1 1_555 1_555
N1 C2 1_555 1_555
C1 C2 1_555 1_555
C2 C3 1_555 1_555
C3 H1 1_555 1_555
C4 S1 1_555 1_555
C5 C4 1_555 1_555
H2 C5 1_555 1_555
C6 C1 1_555 1_555
H3 C6 1_555 1_555
C7 S1 1_555 1_555
H4 C7 1_555 1_555
H5 C7 1_555 1_555
H6 C7 1_555 1_555
C3 C4 1_555 1_555
C5 C6 1_555 1_555

#END
