
#######################################################################
#
#                 Cambridge Crystallographic Data Centre
#                                CCDC 
#
#######################################################################
#
# If this CIF has been generated from an entry in the Cambridge 
# Structural Database, then it will include bibliographic, chemical, 
# crystal, experimental, refinement or atomic coordinate data resulting 
# from the CCDC's data processing and validation procedures.
#
#######################################################################

data_VESBIE
_chemical_formula_moiety         'C22 H28 N4 O2'
_chemical_name_systematic        
rac-7,7-bis(2,6-Dimethyl-N-morpholinyl)-8,8-dicyanoquinone
_symmetry_cell_setting           monoclinic
_symmetry_space_group_name_H-M   'P 21/c'
_symmetry_Int_Tables_number      14
_space_group_name_Hall           '-P 2ybc'
loop_
_symmetry_equiv_pos_site_id
_symmetry_equiv_pos_as_xyz
1 x,y,z
2 x,1/2-y,1/2+z
3 -x,-y,-z
4 -x,1/2+y,1/2-z
_cell_length_a                   10.075(1)
_cell_length_b                   13.981(1)
_cell_length_c                   15.656(1)
_cell_angle_alpha                90
_cell_angle_beta                 107.94(1)
_cell_angle_gamma                90
_cell_volume                     2098.06
_exptl_crystal_colour            greenish-yellow
_exptl_crystal_description       block
_cell_formula_units_Z            4
loop_
_atom_site_label
_atom_site_type_symbol
_atom_site_fract_x
_atom_site_fract_y
_atom_site_fract_z
O1 O 0.5958(2) 0.50466(13) 0.14111(12)
O2 O 0.1188(3) 0.4336(3) 0.4306(2)
N1 N 0.3779(2) 0.4352(2) 0.20337(14)
N2 N 0.2111(2) 0.4459(2) 0.27795(14)
N3 N -0.2084(3) 0.3092(2) -0.2558(2)
N4 N -0.3762(3) 0.1526(2) -0.0712(2)
C1 C 0.1443(3) 0.3729(2) 0.1300(2)
C2 C 0.1321(3) 0.3998(2) 0.0411(2)
H1 H 0.1962(3) 0.4447(2) 0.0307(2)
C3 C 0.0290(3) 0.3627(2) -0.0306(2)
H2 H 0.0239(3) 0.3819(2) -0.0898(2)
C4 C -0.0697(3) 0.2963(2) -0.0181(2)
C5 C -0.0530(3) 0.2660(2) 0.0711(2)
H3 H -0.1141(3) 0.2189(2) 0.0816(2)
C6 C 0.0501(3) 0.3040(2) 0.1426(2)
H4 H 0.0581(3) 0.2831(2) 0.2017(2)
C7 C 0.2474(3) 0.4186(2) 0.2055(2)
C8 C -0.1834(3) 0.2622(2) -0.0925(2)
C9 C -0.1973(3) 0.2883(2) -0.1822(2)
C10 C -0.2887(3) 0.2013(2) -0.0802(2)
C11 C 0.4533(3) 0.3705(2) 0.1602(2)
H5 H 0.3882(3) 0.3210(2) 0.1259(2)
H6 H 0.5284(3) 0.3377(2) 0.2071(2)
C12 C 0.5165(3) 0.4231(2) 0.0971(2)
H7 H 0.4404(3) 0.4448(2) 0.0429(2)
C13 C 0.5134(3) 0.5688(2) 0.1754(2)
H8 H 0.4303(3) 0.5894(2) 0.1249(2)
C14 C 0.4630(3) 0.5183(2) 0.2463(2)
H9 H 0.5440(3) 0.4967(2) 0.2966(2)
H10 H 0.4067(3) 0.5626(2) 0.2704(2)
C15 C 0.6163(3) 0.3586(2) 0.0688(2)
H11 H 0.5642(4) 0.3056(7) 0.0327(10)
H12 H 0.6865(11) 0.3331(10) 0.1221(2)
H13 H 0.6626(14) 0.3956(4) 0.0329(10)
C16 C 0.6028(3) 0.6557(2) 0.2125(2)
H14 H 0.6825(12) 0.6366(3) 0.2637(8)
H15 H 0.5470(6) 0.7034(6) 0.2322(12)
H16 H 0.6367(17) 0.6834(8) 0.1656(4)
C17 C 0.0694(3) 0.4793(2) 0.2736(2)
H17 H 0.0041(3) 0.4643(2) 0.2135(2)
H18 H 0.0705(3) 0.5495(2) 0.2815(2)
C18 C 0.0180(3) 0.4318(2) 0.3450(2)
H19 H -0.0031(3) 0.3629(2) 0.3292(2)
C19 C 0.2482(3) 0.3922(3) 0.4303(2)
H20 H 0.2308(3) 0.3250(3) 0.4075(2)
C21 C 0.3106(3) 0.4530(3) 0.3693(2)
H21 H 0.3225(3) 0.5207(3) 0.3888(2)
H22 H 0.4027(3) 0.4272(3) 0.3705(2)
C22 C -0.1133(3) 0.4811(2) 0.3510(2)
H23 H -0.1887(6) 0.4724(11) 0.2945(5)
H24 H -0.0948(6) 0.5496(3) 0.3621(12)
H25 H -0.1408(11) 0.4532(9) 0.4004(8)
C23 C 0.3434(4) 0.3934(3) 0.5261(2)
H26 H 0.4322(10) 0.3631(15) 0.5284(3)
H27 H 0.2991(11) 0.3572(14) 0.5635(3)
H28 H 0.3606(19) 0.4592(3) 0.5484(6)
O3? O 0.1221(15) 0.4731(11) 0.4350(10)
C20? C 0.2619(18) 0.4392(14) 0.4468(12)
C24? C 0.2733(18) 0.3288(13) 0.4518(12)
loop_
_geom_bond_atom_site_label_1
_geom_bond_atom_site_label_2
_geom_bond_site_symmetry_1
_geom_bond_site_symmetry_2
O1 C12 1_555 1_555
O2 C18 1_555 1_555
N1 C7 1_555 1_555
N2 C7 1_555 1_555
N3 C9 1_555 1_555
N4 C10 1_555 1_555
C1 C2 1_555 1_555
C2 H1 1_555 1_555
C3 C2 1_555 1_555
H2 C3 1_555 1_555
C4 C3 1_555 1_555
C5 C4 1_555 1_555
H3 C5 1_555 1_555
C6 C1 1_555 1_555
H4 C6 1_555 1_555
C7 C1 1_555 1_555
C8 C4 1_555 1_555
C9 C8 1_555 1_555
C10 C8 1_555 1_555
C11 N1 1_555 1_555
H5 C11 1_555 1_555
H6 C11 1_555 1_555
C12 C11 1_555 1_555
H7 C12 1_555 1_555
C13 O1 1_555 1_555
H8 C13 1_555 1_555
C14 N1 1_555 1_555
H9 C14 1_555 1_555
H10 C14 1_555 1_555
C15 C12 1_555 1_555
H11 C15 1_555 1_555
H12 C15 1_555 1_555
H13 C15 1_555 1_555
C16 C13 1_555 1_555
H14 C16 1_555 1_555
H15 C16 1_555 1_555
H16 C16 1_555 1_555
C17 N2 1_555 1_555
H17 C17 1_555 1_555
H18 C17 1_555 1_555
C18 C17 1_555 1_555
H19 C18 1_555 1_555
C19 O2 1_555 1_555
H20 C19 1_555 1_555
C21 N2 1_555 1_555
H21 C21 1_555 1_555
H22 C21 1_555 1_555
C22 C18 1_555 1_555
H23 C22 1_555 1_555
H24 C22 1_555 1_555
H25 C22 1_555 1_555
C23 C19 1_555 1_555
H26 C23 1_555 1_555
H27 C23 1_555 1_555
H28 C23 1_555 1_555
C5 C6 1_555 1_555
C13 C14 1_555 1_555
C19 C21 1_555 1_555

#END
