
#######################################################################
#
#                 Cambridge Crystallographic Data Centre
#                                CCDC 
#
#######################################################################
#
# If this CIF has been generated from an entry in the Cambridge 
# Structural Database, then it will include bibliographic, chemical, 
# crystal, experimental, refinement or atomic coordinate data resulting 
# from the CCDC's data processing and validation procedures.
#
#######################################################################

data_VESBIH
_chemical_formula_moiety         'C11 H8 F3 N1 O1'
_chemical_name_systematic        
5-(4-methylphenyl)-3-(trifluoromethyl)-1,2-oxazole
_symmetry_cell_setting           triclinic
_symmetry_space_group_name_H-M   'P -1'
_symmetry_Int_Tables_number      2
_space_group_name_Hall           '-P 1'
loop_
_symmetry_equiv_pos_site_id
_symmetry_equiv_pos_as_xyz
1 x,y,z
2 -x,-y,-z
_cell_length_a                   11.0016(6)
_cell_length_b                   11.2442(7)
_cell_length_c                   17.3527(10)
_cell_angle_alpha                84.512(5)
_cell_angle_beta                 87.108(5)
_cell_angle_gamma                79.170(5)
_cell_volume                     2097.55
_exptl_crystal_colour            colorless
_exptl_crystal_description       block
_cell_formula_units_Z            8
loop_
_atom_site_label
_atom_site_type_symbol
_atom_site_fract_x
_atom_site_fract_y
_atom_site_fract_z
C1 C 1.0579(3) 0.1161(3) 0.40173(17)
O1 O 1.0379(2) 0.2001(2) 0.45438(13)
C2 C 0.9581(3) 0.0509(3) 0.39117(18)
N1 N 1.1431(3) 0.2520(3) 0.45719(17)
C3 C 0.7684(4) -0.0767(4) 0.3708(2)
F1 F 1.3599(3) 0.3208(3) 0.43421(17)
C4 C 1.3458(4) 0.2289(4) 0.3966(3)
C5 C 0.9755(4) -0.0408(3) 0.3418(2)
H1 H 1.0509 -0.0606 0.3150
C6 C 1.1730(3) 0.1118(3) 0.37024(19)
H2 H 1.2117 0.0628 0.3326
F2 F 1.3737(3) 0.2581(3) 0.32315(17)
C7 C 0.8449(3) 0.0778(3) 0.4304(2)
H3 H 0.8316 0.1390 0.4640
F3 F 1.4317(3) 0.1373(3) 0.4183(2)
C8 C 0.8819(4) -0.1027(4) 0.3321(2)
H4 H 0.8952 -0.1639 0.2985
C9 C 1.2213(3) 0.1973(3) 0.40685(19)
C10 C 0.6671(4) -0.1464(4) 0.3598(3)
H5 H 0.6561 -0.1488 0.3055
H6 H 0.5912 -0.1071 0.3835
H7 H 0.6894 -0.2278 0.3836
C11 C 0.7522(4) 0.0152(4) 0.4201(2)
H8 H 0.6767 0.0349 0.4469
C12 C 0.4893(3) 0.3930(3) 0.09888(18)
N2 N 0.4034(3) 0.2596(3) 0.04144(17)
O2 O 0.5071(2) 0.3134(2) 0.04335(13)
C13 C 0.5717(4) 0.5503(3) 0.1578(2)
H9 H 0.4966 0.5702 0.1848
C14 C 0.2061(4) 0.2715(4) 0.1091(3)
F4 F 0.1894(3) 0.1866(3) 0.06671(19)
C15 C 0.5883(3) 0.4588(3) 0.10841(19)
F5 F 0.1869(3) 0.2327(3) 0.18154(17)
C16 C 0.7786(4) 0.5864(4) 0.1286(3)
C17 C 0.3764(3) 0.3924(3) 0.13289(19)
H10 H 0.3390 0.4380 0.1725
C18 C 0.3286(3) 0.3082(3) 0.0952(2)
C19 C 0.7018(4) 0.4318(4) 0.0689(2)
H11 H 0.7150 0.3709 0.0351
C20 C 0.6658(5) 0.6121(4) 0.1672(3)
H12 H 0.6527 0.6733 0.2008
C21 C 0.8811(5) 0.6544(4) 0.1397(3)
H13 H 0.8548 0.7389 0.1233
H14 H 0.9531 0.6220 0.1094
H15 H 0.9010 0.6456 0.1934
C22 C 0.7945(4) 0.4942(4) 0.0795(3)
H16 H 0.8700 0.4741 0.0529
F6 F 0.1148(2) 0.3636(3) 0.0965(2)
C23 C 0.5604(3) 0.9942(3) 0.14616(19)
O3 O 0.3669(3) 0.9807(3) 0.21308(15)
C24 C 0.2817(3) 0.8658(3) 0.1513(2)
N3 N 0.2626(3) 0.9279(3) 0.21143(19)
C25 C 0.3947(3) 0.8743(3) 0.11280(19)
H17 H 0.4278 0.8368 0.0689
C26 C 0.7595(4) 0.9973(3) 0.0857(2)
H18 H 0.8186 0.9696 0.0482
C27 C 0.7855(4) 1.0787(3) 0.1346(2)
C28 C 0.5842(4) 1.0766(3) 0.1953(2)
H19 H 0.5247 1.1046 0.2326
C29 C 0.6949(4) 1.1173(4) 0.1894(2)
H20 H 0.7091 1.1722 0.2232
C30 C 0.9071(4) 1.1223(4) 0.1297(3)
H21 H 0.9527 1.0912 0.1753
H22 H 0.8920 1.2095 0.1259
H23 H 0.9541 1.0940 0.0847
C31 C 0.4451(3) 0.9483(3) 0.15282(18)
C32 C 0.1862(4) 0.7978(4) 0.1321(2)
F7 F 0.1244(3) 0.8481(3) 0.07162(19)
F8 F 0.2333(3) 0.6866(2) 0.11617(18)
F9 F 0.1031(3) 0.7878(3) 0.18833(16)
C33 C 0.6497(4) 0.9563(3) 0.0908(2)
H24 H 0.6352 0.9021 0.0566
O4 O 0.1848(3) 0.5152(3) 0.29259(15)
C34 C -0.0152(3) 0.5049(3) 0.35069(18)
C35 C 0.2628(3) 0.6310(3) 0.3579(2)
C36 C -0.2195(4) 0.5004(4) 0.4044(2)
H25 H -0.2820 0.5277 0.4400
N4 N 0.2890(3) 0.5669(3) 0.29886(19)
C37 C -0.1094(4) 0.5417(3) 0.4033(2)
H26 H -0.0984 0.5955 0.4388
C38 C 0.1002(3) 0.5507(3) 0.34927(19)
C39 C -0.2391(4) 0.4194(3) 0.3536(2)
F10 F 0.3099(3) 0.8054(3) 0.4010(2)
F11 F 0.4431(3) 0.7095(3) 0.32836(18)
C40 C 0.1466(3) 0.6246(3) 0.3915(2)
H27 H 0.1092 0.6632 0.4340
C41 C -0.1439(4) 0.3814(4) 0.3019(2)
H28 H -0.1545 0.3263 0.2673
C42 C -0.3605(4) 0.3751(4) 0.3539(3)
H29 H -0.4110 0.4022 0.3978
H30 H -0.3449 0.2879 0.3568
H31 H -0.4026 0.4072 0.3071
C43 C -0.0340(4) 0.4225(3) 0.3000(2)
H32 H 0.0284 0.3948 0.2643
C44 C 0.3576(4) 0.6968(4) 0.3816(3)
F12 F 0.4171(3) 0.6394(3) 0.4421(2)
loop_
_geom_bond_atom_site_label_1
_geom_bond_atom_site_label_2
_geom_bond_site_symmetry_1
_geom_bond_site_symmetry_2
C1 O1 1_555 1_555
O1 N1 1_555 1_555
C2 C1 1_555 1_555
N1 C9 1_555 1_555
C3 C8 1_555 1_555
F1 C4 1_555 1_555
C4 F2 1_555 1_555
C5 C2 1_555 1_555
H1 C5 1_555 1_555
C6 C1 1_555 1_555
H2 C6 1_555 1_555
C7 C2 1_555 1_555
H3 C7 1_555 1_555
F3 C4 1_555 1_555
C8 C5 1_555 1_555
H4 C8 1_555 1_555
C9 C4 1_555 1_555
C10 C3 1_555 1_555
H5 C10 1_555 1_555
H6 C10 1_555 1_555
H7 C10 1_555 1_555
C11 C3 1_555 1_555
H8 C11 1_555 1_555
C12 O2 1_555 1_555
N2 O2 1_555 1_555
C13 H9 1_555 1_555
C14 F4 1_555 1_555
C15 C12 1_555 1_555
F5 C14 1_555 1_555
C16 C20 1_555 1_555
C17 C12 1_555 1_555
H10 C17 1_555 1_555
C18 N2 1_555 1_555
C19 C15 1_555 1_555
H11 C19 1_555 1_555
C20 C13 1_555 1_555
H12 C20 1_555 1_555
C21 C16 1_555 1_555
H13 C21 1_555 1_555
H14 C21 1_555 1_555
H15 C21 1_555 1_555
C22 C16 1_555 1_555
H16 C22 1_555 1_555
F6 C14 1_555 1_555
C23 C28 1_555 1_555
O3 N3 1_555 1_555
C24 N3 1_555 1_555
C25 C24 1_555 1_555
H17 C25 1_555 1_555
C26 H18 1_555 1_555
C27 C26 1_555 1_555
C28 H19 1_555 1_555
C29 C27 1_555 1_555
H20 C29 1_555 1_555
C30 C27 1_555 1_555
H21 C30 1_555 1_555
H22 C30 1_555 1_555
H23 C30 1_555 1_555
C31 C23 1_555 1_555
C32 C24 1_555 1_555
F7 C32 1_555 1_555
F8 C32 1_555 1_555
F9 C32 1_555 1_555
C33 C23 1_555 1_555
H24 C33 1_555 1_555
O4 N4 1_555 1_555
C34 C37 1_555 1_555
C35 N4 1_555 1_555
C36 H25 1_555 1_555
C37 C36 1_555 1_555
H26 C37 1_555 1_555
C38 O4 1_555 1_555
C39 C36 1_555 1_555
F10 C44 1_555 1_555
F11 C44 1_555 1_555
C40 C35 1_555 1_555
H27 C40 1_555 1_555
C41 C39 1_555 1_555
H28 C41 1_555 1_555
C42 C39 1_555 1_555
H29 C42 1_555 1_555
H30 C42 1_555 1_555
H31 C42 1_555 1_555
C43 C34 1_555 1_555
H32 C43 1_555 1_555
C44 C35 1_555 1_555
F12 C44 1_555 1_555
C6 C9 1_555 1_555
C7 C11 1_555 1_555
C13 C15 1_555 1_555
C14 C18 1_555 1_555
C17 C18 1_555 1_555
C19 C22 1_555 1_555
O3 C31 1_555 1_555
C25 C31 1_555 1_555
C26 C33 1_555 1_555
C28 C29 1_555 1_555
C34 C38 1_555 1_555
C38 C40 1_555 1_555
C41 C43 1_555 1_555

#END
