
#######################################################################
#
#                 Cambridge Crystallographic Data Centre
#                                CCDC 
#
#######################################################################
#
# If this CIF has been generated from an entry in the Cambridge 
# Structural Database, then it will include bibliographic, chemical, 
# crystal, experimental, refinement or atomic coordinate data resulting 
# from the CCDC's data processing and validation procedures.
#
#######################################################################

data_VESDOP
_chemical_formula_moiety         'C6 H7 I2 N1 O2'
_chemical_name_systematic        
1-[(1\l^3^-di-iodan-1-yl)oxy]-4-methoxy-1\l^5^-pyridine
_symmetry_cell_setting           monoclinic
_symmetry_space_group_name_H-M   'P 21/c'
_symmetry_Int_Tables_number      14
_space_group_name_Hall           '-P 2ybc'
loop_
_symmetry_equiv_pos_site_id
_symmetry_equiv_pos_as_xyz
1 x,y,z
2 -x,1/2+y,1/2-z
3 -x,-y,-z
4 x,1/2-y,1/2+z
_cell_length_a                   12.5018(8)
_cell_length_b                   4.2736(3)
_cell_length_c                   18.8796(12)
_cell_angle_alpha                90
_cell_angle_beta                 108.5094(17)
_cell_angle_gamma                90
_cell_volume                     956.515
_exptl_crystal_colour            orange
_exptl_crystal_description       plate
_cell_formula_units_Z            4
loop_
_atom_site_label
_atom_site_type_symbol
_atom_site_fract_x
_atom_site_fract_y
_atom_site_fract_z
I1 I -0.15428(2) 0.81812(4) 0.32347(2)
I2 I -0.36606(2) 0.56101(4) 0.25332(2)
O1 O 0.01986(14) 1.0620(5) 0.39256(11)
O2 O 0.38505(15) 0.2955(5) 0.48566(10)
N1 N 0.10654(16) 0.8613(5) 0.41592(11)
C1 C 0.1598(2) 0.7631(6) 0.36753(12)
H1 H 0.132733 0.827457 0.316771
C2 C 0.2524(2) 0.5720(7) 0.39123(12)
H2 H 0.289104 0.503604 0.356976
C3 C 0.29268(18) 0.4780(6) 0.46596(12)
C4 C 0.23545(19) 0.5788(6) 0.51463(12)
H3 H 0.260992 0.518991 0.565735
C5 C 0.1415(2) 0.7662(6) 0.48738(13)
H4 H 0.100732 0.829062 0.519746
C6 C 0.4362(2) 0.2252(7) 0.56358(14)
H5 H 0.383176 0.104796 0.581494
H6 H 0.455280 0.420689 0.591952
H7 H 0.504891 0.102316 0.570427
loop_
_geom_bond_atom_site_label_1
_geom_bond_atom_site_label_2
_geom_bond_site_symmetry_1
_geom_bond_site_symmetry_2
I1 I2 1_555 1_555
O1 I1 1_555 1_555
O2 C3 1_555 1_555
N1 O1 1_555 1_555
C1 N1 1_555 1_555
H1 C1 1_555 1_555
C2 C1 1_555 1_555
H2 C2 1_555 1_555
C3 C2 1_555 1_555
C4 C3 1_555 1_555
H3 C4 1_555 1_555
C5 N1 1_555 1_555
H4 C5 1_555 1_555
C6 O2 1_555 1_555
H5 C6 1_555 1_555
H6 C6 1_555 1_555
H7 C6 1_555 1_555
C4 C5 1_555 1_555

#END
