
#######################################################################
#
#                 Cambridge Crystallographic Data Centre
#                                CCDC 
#
#######################################################################
#
# If this CIF has been generated from an entry in the Cambridge 
# Structural Database, then it will include bibliographic, chemical, 
# crystal, experimental, refinement or atomic coordinate data resulting 
# from the CCDC's data processing and validation procedures.
#
#######################################################################

data_VESFIK
_chemical_formula_moiety         'C88 H135 K3 O10'
_chemical_name_systematic        
(\m~3~-2,2',2'',2'''-(1,3-Phenylenedimethanetriyl)-tetrakis(4,6-di-t-butylphenol))-hexakis(tetrahydrofuran)-tri-potassium
_symmetry_cell_setting           monoclinic
_symmetry_space_group_name_H-M   'C c'
_symmetry_Int_Tables_number      9
_space_group_name_Hall           'C -2yc'
loop_
_symmetry_equiv_pos_site_id
_symmetry_equiv_pos_as_xyz
1 x,y,z
2 x,-y,1/2+z
3 1/2+x,1/2+y,z
4 1/2+x,1/2-y,1/2+z
_cell_length_a                   35.298(9)
_cell_length_b                   14.342(4)
_cell_length_c                   19.574(5)
_cell_angle_alpha                90
_cell_angle_beta                 106.594(2)
_cell_angle_gamma                90
_cell_volume                     9496.52
_exptl_crystal_colour            colorless
_exptl_crystal_description       block
_cell_formula_units_Z            4
loop_
_atom_site_label
_atom_site_type_symbol
_atom_site_fract_x
_atom_site_fract_y
_atom_site_fract_z
O1 O 0.2118(3) 0.4177(10) 0.2024(5)
C1 C 0.2046(6) 0.3700(9) 0.1363(8)
H1 H 0.1885 0.3151 0.1363
H2 H 0.2294 0.3502 0.1289
C2 C 0.1846(6) 0.4320(14) 0.0813(4)
H3 H 0.1591 0.4063 0.0554
H4 H 0.2000 0.4414 0.0480
C3 C 0.1794(7) 0.5181(11) 0.1133(9)
H5 H 0.1924 0.5679 0.0951
H6 H 0.1515 0.5328 0.1025
C4 C 0.1962(6) 0.5092(10) 0.1882(8)
H7 H 0.1762 0.5198 0.2125
H8 H 0.2171 0.5549 0.2050
O2 O 0.4760(3) 0.2487(6) 0.3023(5)
C5 C 0.4926(4) 0.3363(6) 0.2929(7)
H9 H 0.4721 0.3836 0.2811
H10 H 0.5122 0.3547 0.3366
C6 C 0.5104(5) 0.3272(9) 0.2368(8)
H11 H 0.5384 0.3414 0.2541
H12 H 0.4984 0.3703 0.1986
C7 C 0.5049(5) 0.2340(11) 0.2114(8)
H13 H 0.5303 0.2044 0.2168
H14 H 0.4902 0.2333 0.1613
C8 C 0.4836(4) 0.1855(7) 0.2519(8)
H15 H 0.4589 0.1620 0.2208
H16 H 0.4990 0.1330 0.2763
O3 O 0.2896(3) -0.0858(6) 0.2523(7)
C9 C 0.2785(5) -0.1202(10) 0.3119(6)
H17 H 0.3013 -0.1213 0.3537
H18 H 0.2585 -0.0801 0.3217
C10 C 0.2633(6) -0.2117(10) 0.2954(10)
H19 H 0.2362 -0.2147 0.2976
H20 H 0.2790 -0.2559 0.3296
C11 C 0.2650(7) -0.2339(8) 0.2257(10)
H21 H 0.2814 -0.2885 0.2270
H22 H 0.2387 -0.2473 0.1950
C12 C 0.2812(6) -0.1561(10) 0.1990(7)
H23 H 0.2625 -0.1330 0.1558
H24 H 0.3052 -0.1742 0.1878
O4 O 0.2754(2) 0.5211(5) 0.3777(4)
C13 C 0.2507(2) 0.5601(7) 0.4162(6)
H25 H 0.2311 0.6006 0.3854
H26 H 0.2371 0.5109 0.4336
C14 C 0.2750(3) 0.6117(8) 0.4742(6)
H27 H 0.2667 0.6765 0.4707
H28 H 0.2727 0.5868 0.5189
C15 C 0.3146(3) 0.6047(8) 0.4716(5)
H29 H 0.3310 0.5764 0.5151
H30 H 0.3251 0.6662 0.4669
C16 C 0.3149(2) 0.5487(6) 0.4119(5)
H31 H 0.3314 0.4942 0.4274
H32 H 0.3255 0.5839 0.3792
K1 K 0.25517(7) 0.34654(13) 0.32723(11)
K2 K 0.43350(6) 0.21165(17) 0.39099(12)
K3 K 0.32338(7) 0.09455(16) 0.27256(11)
O5 O 0.20257(15) 0.2156(3) 0.3252(3)
O6 O 0.17645(18) 0.3458(4) 0.3750(3)
H33 H 0.1841 0.2946 0.3616
O7 O 0.37891(15) 0.0813(4) 0.3900(2)
O8 O 0.31956(17) 0.2728(4) 0.3011(3)
O9 O 0.5010(2) 0.2047(6) 0.4961(5)
O10 O 0.3035(4) 0.0768(9) 0.1263(5)
C17 C 0.2722(2) 0.2084(5) 0.4617(4)
H34 H 0.2687 0.1547 0.4340
C18 C 0.2410(2) 0.2404(5) 0.4852(4)
C19 C 0.2474(3) 0.3171(6) 0.5299(5)
H35 H 0.2271 0.3395 0.5470
C20 C 0.2845(3) 0.3611(7) 0.5496(5)
H36 H 0.2890 0.4115 0.5808
C21 C 0.3138(2) 0.3299(6) 0.5230(4)
H37 H 0.3379 0.3609 0.5355
C22 C 0.3089(2) 0.2539(5) 0.4782(4)
C23 C 0.2022(2) 0.1880(5) 0.4728(4)
H38 H 0.2055 0.1516 0.5165
C24 C 0.1919(2) 0.1156(5) 0.4131(4)
C25 C 0.1917(2) 0.1319(5) 0.3427(4)
C26 C 0.1799(2) 0.0607(5) 0.2920(4)
C27 C 0.1670(2) -0.0237(6) 0.3123(5)
H39 H 0.1573 -0.0689 0.2776
C28 C 0.1680(2) -0.0431(6) 0.3820(5)
C29 C 0.1796(2) 0.0279(6) 0.4299(4)
H40 H 0.1793 0.0174 0.4766
C30 C 0.1673(2) 0.2538(5) 0.4705(4)
C31 C 0.1551(2) 0.3278(5) 0.4210(5)
C32 C 0.1234(3) 0.3821(6) 0.4222(5)
C33 C 0.1032(3) 0.3637(7) 0.4693(5)
H41 H 0.0813 0.4005 0.4682
C34 C 0.1134(3) 0.2911(7) 0.5206(5)
C35 C 0.1450(2) 0.2400(6) 0.5177(4)
H42 H 0.1525 0.1914 0.5501
C36 C 0.3401(2) 0.2188(5) 0.4455(4)
H43 H 0.3261 0.1825 0.4035
C37 C 0.3698(2) 0.1521(5) 0.4932(4)
C38 C 0.3872(2) 0.0823(5) 0.4603(4)
C39 C 0.4121(2) 0.0154(6) 0.5055(4)
C40 C 0.4206(2) 0.0267(7) 0.5770(4)
H44 H 0.4375 -0.0167 0.6055
C41 C 0.4065(3) 0.0962(6) 0.6111(4)
C42 C 0.3800(2) 0.1589(6) 0.5675(4)
H45 H 0.3690 0.2061 0.5883
C43 C 0.3610(2) 0.2992(5) 0.4174(4)
C44 C 0.3491(3) 0.3191(6) 0.3449(5)
C45 C 0.3709(3) 0.3905(6) 0.3202(4)
C46 C 0.4009(3) 0.4380(6) 0.3707(6)
H46 H 0.4141 0.4854 0.3543
C47 C 0.4123(3) 0.4196(6) 0.4426(5)
C48 C 0.3914(3) 0.3488(6) 0.4643(5)
H47 H 0.3981 0.3338 0.5125
C49 C 0.1772(3) 0.0817(6) 0.2134(5)
C50 C 0.1486(3) 0.1577(8) 0.1844(5)
H48 H 0.1544 0.2104 0.2159
H49 H 0.1222 0.1362 0.1802
H50 H 0.1505 0.1756 0.1382
C51 C 0.2191(4) 0.1097(7) 0.2073(6)
H51 H 0.2282 0.1642 0.2357
H52 H 0.2174 0.1227 0.1584
H53 H 0.2372 0.0593 0.2241
C52 C 0.1629(5) -0.0089(9) 0.1649(6)
H54 H 0.1375 -0.0284 0.1687
H55 H 0.1817 -0.0583 0.1809
H56 H 0.1608 0.0056 0.1161
C53 C 0.1547(4) -0.1353(7) 0.4019(6)
C54 C 0.1849(7) -0.2132(11) 0.3941(17)
H57 H 0.1765 -0.2726 0.4071
H58 H 0.2107 -0.1989 0.4249
H59 H 0.1858 -0.2154 0.3456
C55 C 0.1180(5) -0.1724(13) 0.3494(11)
H60 H 0.0951 -0.1447 0.3586
H61 H 0.1169 -0.2388 0.3543
H62 H 0.1184 -0.1572 0.3019
C56 C 0.1523(10) -0.1410(13) 0.4707(10)
H63 H 0.1331 -0.0968 0.4772
H64 H 0.1776 -0.1272 0.5034
H65 H 0.1443 -0.2028 0.4796
C57 C 0.1080(3) 0.4583(7) 0.3631(5)
C58 C 0.1411(4) 0.5315(7) 0.3693(7)
H66 H 0.1473 0.5607 0.4153
H67 H 0.1323 0.5779 0.3329
H68 H 0.1643 0.5013 0.3636
C59 C 0.0969(4) 0.4123(7) 0.2906(5)
H69 H 0.0836 0.4567 0.2550
H70 H 0.0797 0.3605 0.2905
H71 H 0.1204 0.3906 0.2801
C60 C 0.0707(4) 0.5087(10) 0.3725(8)
H72 H 0.0762 0.5319 0.4204
H73 H 0.0491 0.4655 0.3634
H74 H 0.0639 0.5598 0.3396
C61 C 0.0913(4) 0.2762(11) 0.5756(8)
C62 C 0.1193(6) 0.2640(16) 0.6488(9)
H75 H 0.1313 0.3229 0.6658
H76 H 0.1395 0.2201 0.6468
H77 H 0.1052 0.2413 0.6805
C63 C 0.0701(7) 0.1847(17) 0.5640(13)
H78 H 0.0451 0.1918 0.5284
H79 H 0.0657 0.1642 0.6078
H80 H 0.0858 0.1394 0.5483
C64 C 0.0670(7) 0.3611(15) 0.5853(13)
H81 H 0.0424 0.3619 0.5482
H82 H 0.0815 0.4170 0.5830
H83 H 0.0619 0.3575 0.6309
C65 C 0.4283(3) -0.0683(7) 0.4715(5)
C66 C 0.3937(4) -0.1219(7) 0.4233(6)
H84 H 0.3809 -0.0843 0.3826
H85 H 0.3751 -0.1369 0.4491
H86 H 0.4031 -0.1784 0.4076
C67 C 0.4498(4) -0.1382(8) 0.5298(6)
H87 H 0.4575 -0.1920 0.5078
H88 H 0.4324 -0.1569 0.5570
H89 H 0.4728 -0.1091 0.5607
C68 C 0.4550(3) -0.0364(8) 0.4294(5)
H90 H 0.4406 0.0032 0.3912
H91 H 0.4649 -0.0895 0.4100
H92 H 0.4767 -0.0023 0.4598
C69 C 0.4178(3) 0.1037(8) 0.6937(5)
C70 C 0.4049(5) 0.1965(11) 0.7169(5)
H93 H 0.3765 0.1997 0.7027
H94 H 0.4152 0.2464 0.6950
H95 H 0.4146 0.2020 0.7678
C71 C 0.3972(4) 0.0267(12) 0.7215(6)
C72 C 0.4623(3) 0.0956(9) 0.7242(6)
H96 H 0.4690 0.0957 0.7753
H97 H 0.4748 0.1474 0.7084
H98 H 0.4711 0.0385 0.7083
C73 C 0.3597(3) 0.4150(9) 0.2400(6)
C74 C 0.3170(4) 0.4465(11) 0.2141(7)
H99 H 0.3128 0.4973 0.2431
H100 H 0.2999 0.3956 0.2173
H101 H 0.3111 0.4667 0.1654
C75 C 0.3691(5) 0.3280(11) 0.1998(6)
H102 H 0.3957 0.3078 0.2220
H103 H 0.3663 0.3440 0.1510
H104 H 0.3511 0.2785 0.2017
C76 C 0.3855(5) 0.4993(10) 0.2245(7)
H105 H 0.3807 0.5540 0.2491
H106 H 0.3783 0.5113 0.1742
H107 H 0.4130 0.4833 0.2409
C77 C 0.4442(3) 0.4771(8) 0.4936(7)
C78 C 0.4825(4) 0.4663(12) 0.4751(9)
H108 H 0.5022 0.5061 0.5051
H109 H 0.4786 0.4831 0.4261
H110 H 0.4911 0.4026 0.4822
C79 C 0.4356(7) 0.5805(10) 0.4845(14)
H111 H 0.4501 0.6129 0.5267
H112 H 0.4078 0.5909 0.4767
H113 H 0.4433 0.6031 0.4443
C80 C 0.4515(5) 0.4492(12) 0.5666(9)
H114 H 0.4488 0.3827 0.5690
H115 H 0.4327 0.4790 0.5866
H116 H 0.4778 0.4671 0.5931
C81 C 0.5005(5) 0.1785(13) 0.5635(9)
H117 H 0.4816 0.1284 0.5600
H118 H 0.4921 0.2308 0.5870
C82 C 0.5370(7) 0.1494(19) 0.6034(10)
H119 H 0.5450 0.1856 0.6470
H120 H 0.5355 0.0845 0.6164
C83 C 0.5639(6) 0.1585(19) 0.5685(14)
H121 H 0.5734 0.0980 0.5586
H122 H 0.5861 0.1952 0.5959
C84 C 0.5415(5) 0.2103(15) 0.4968(11)
H123 H 0.5500 0.2746 0.4974
H124 H 0.5458 0.1791 0.4557
C85 C 0.2892(6) 0.0026(11) 0.0758(9)
H125 H 0.2616 -0.0109 0.0703
H126 H 0.3047 -0.0538 0.0897
C86 C 0.2949(7) 0.0426(12) 0.0115(8)
H127 H 0.3139 0.0065 -0.0049
H128 H 0.2702 0.0447 -0.0262
C87 C 0.3084(9) 0.1280(14) 0.0302(13)
H129 H 0.2975 0.1716 -0.0083
H130 H 0.3370 0.1293 0.0412
C88 C 0.2961(9) 0.1530(14) 0.0933(11)
H131 H 0.3118 0.2038 0.1199
H132 H 0.2683 0.1689 0.0812
loop_
_geom_bond_atom_site_label_1
_geom_bond_atom_site_label_2
_geom_bond_site_symmetry_1
_geom_bond_site_symmetry_2
O1 C1 1_555 1_555
C1 H1 1_555 1_555
H2 C1 1_555 1_555
C2 C1 1_555 1_555
H3 C2 1_555 1_555
H4 C2 1_555 1_555
C3 C2 1_555 1_555
H5 C3 1_555 1_555
H6 C3 1_555 1_555
C4 O1 1_555 1_555
H7 C4 1_555 1_555
H8 C4 1_555 1_555
O2 C5 1_555 1_555
C5 H9 1_555 1_555
H10 C5 1_555 1_555
C6 C5 1_555 1_555
H11 C6 1_555 1_555
H12 C6 1_555 1_555
C7 C6 1_555 1_555
H13 C7 1_555 1_555
H14 C7 1_555 1_555
C8 O2 1_555 1_555
H15 C8 1_555 1_555
H16 C8 1_555 1_555
O3 C9 1_555 1_555
C9 H17 1_555 1_555
H18 C9 1_555 1_555
C10 C9 1_555 1_555
H19 C10 1_555 1_555
H20 C10 1_555 1_555
C11 C10 1_555 1_555
H21 C11 1_555 1_555
H22 C11 1_555 1_555
C12 O3 1_555 1_555
H23 C12 1_555 1_555
H24 C12 1_555 1_555
O4 C13 1_555 1_555
C13 H25 1_555 1_555
H26 C13 1_555 1_555
C14 C13 1_555 1_555
H27 C14 1_555 1_555
H28 C14 1_555 1_555
C15 C14 1_555 1_555
H29 C15 1_555 1_555
H30 C15 1_555 1_555
C16 O4 1_555 1_555
H31 C16 1_555 1_555
H32 C16 1_555 1_555
K1 O1 1_555 1_555
K2 O2 1_555 1_555
K3 O3 1_555 1_555
O5 K1 1_555 1_555
O6 H33 1_555 1_555
O7 K2 1_555 1_555
O8 K1 1_555 1_555
O9 K2 1_555 1_555
O10 K3 1_555 1_555
C17 H34 1_555 1_555
C18 C17 1_555 1_555
C19 C18 1_555 1_555
H35 C19 1_555 1_555
C20 C19 1_555 1_555
H36 C20 1_555 1_555
C21 C20 1_555 1_555
H37 C21 1_555 1_555
C22 C17 1_555 1_555
C23 C18 1_555 1_555
H38 C23 1_555 1_555
C24 C23 1_555 1_555
C25 O5 1_555 1_555
C26 C25 1_555 1_555
C27 C26 1_555 1_555
H39 C27 1_555 1_555
C28 C27 1_555 1_555
C29 C24 1_555 1_555
H40 C29 1_555 1_555
C30 C23 1_555 1_555
C31 O6 1_555 1_555
C32 C31 1_555 1_555
C33 C32 1_555 1_555
H41 C33 1_555 1_555
C34 C33 1_555 1_555
C35 C30 1_555 1_555
H42 C35 1_555 1_555
C36 C22 1_555 1_555
H43 C36 1_555 1_555
C37 C36 1_555 1_555
C38 O7 1_555 1_555
C39 C38 1_555 1_555
C40 C39 1_555 1_555
H44 C40 1_555 1_555
C41 C40 1_555 1_555
C42 C37 1_555 1_555
H45 C42 1_555 1_555
C43 C36 1_555 1_555
C44 O8 1_555 1_555
C45 C44 1_555 1_555
C46 C45 1_555 1_555
H46 C46 1_555 1_555
C47 C46 1_555 1_555
C48 C43 1_555 1_555
H47 C48 1_555 1_555
C49 C26 1_555 1_555
C50 C49 1_555 1_555
H48 C50 1_555 1_555
H49 C50 1_555 1_555
H50 C50 1_555 1_555
C51 C49 1_555 1_555
H51 C51 1_555 1_555
H52 C51 1_555 1_555
H53 C51 1_555 1_555
C52 C49 1_555 1_555
H54 C52 1_555 1_555
H55 C52 1_555 1_555
H56 C52 1_555 1_555
C53 C28 1_555 1_555
C54 C53 1_555 1_555
H57 C54 1_555 1_555
H58 C54 1_555 1_555
H59 C54 1_555 1_555
C55 C53 1_555 1_555
H60 C55 1_555 1_555
H61 C55 1_555 1_555
H62 C55 1_555 1_555
C56 C53 1_555 1_555
H63 C56 1_555 1_555
H64 C56 1_555 1_555
H65 C56 1_555 1_555
C57 C32 1_555 1_555
C58 C57 1_555 1_555
H66 C58 1_555 1_555
H67 C58 1_555 1_555
H68 C58 1_555 1_555
C59 C57 1_555 1_555
H69 C59 1_555 1_555
H70 C59 1_555 1_555
H71 C59 1_555 1_555
C60 C57 1_555 1_555
H72 C60 1_555 1_555
H73 C60 1_555 1_555
H74 C60 1_555 1_555
C61 C34 1_555 1_555
C62 C61 1_555 1_555
H75 C62 1_555 1_555
H76 C62 1_555 1_555
H77 C62 1_555 1_555
C63 C61 1_555 1_555
H78 C63 1_555 1_555
H79 C63 1_555 1_555
H80 C63 1_555 1_555
C64 C61 1_555 1_555
H81 C64 1_555 1_555
H82 C64 1_555 1_555
H83 C64 1_555 1_555
C65 C39 1_555 1_555
C66 C65 1_555 1_555
H84 C66 1_555 1_555
H85 C66 1_555 1_555
H86 C66 1_555 1_555
C67 C65 1_555 1_555
H87 C67 1_555 1_555
H88 C67 1_555 1_555
H89 C67 1_555 1_555
C68 C65 1_555 1_555
H90 C68 1_555 1_555
H91 C68 1_555 1_555
H92 C68 1_555 1_555
C69 C41 1_555 1_555
C70 C69 1_555 1_555
H93 C70 1_555 1_555
H94 C70 1_555 1_555
H95 C70 1_555 1_555
C71 C69 1_555 1_555
C72 C69 1_555 1_555
H96 C72 1_555 1_555
H97 C72 1_555 1_555
H98 C72 1_555 1_555
C73 C45 1_555 1_555
C74 C73 1_555 1_555
H99 C74 1_555 1_555
H100 C74 1_555 1_555
H101 C74 1_555 1_555
C75 C73 1_555 1_555
H102 C75 1_555 1_555
H103 C75 1_555 1_555
H104 C75 1_555 1_555
C76 C73 1_555 1_555
H105 C76 1_555 1_555
H106 C76 1_555 1_555
H107 C76 1_555 1_555
C77 C47 1_555 1_555
C78 C77 1_555 1_555
H108 C78 1_555 1_555
H109 C78 1_555 1_555
H110 C78 1_555 1_555
C79 C77 1_555 1_555
H111 C79 1_555 1_555
H112 C79 1_555 1_555
H113 C79 1_555 1_555
C80 C77 1_555 1_555
H114 C80 1_555 1_555
H115 C80 1_555 1_555
H116 C80 1_555 1_555
C81 O9 1_555 1_555
H117 C81 1_555 1_555
H118 C81 1_555 1_555
C82 C81 1_555 1_555
H119 C82 1_555 1_555
H120 C82 1_555 1_555
C83 C82 1_555 1_555
H121 C83 1_555 1_555
H122 C83 1_555 1_555
C84 O9 1_555 1_555
H123 C84 1_555 1_555
H124 C84 1_555 1_555
C85 O10 1_555 1_555
H125 C85 1_555 1_555
H126 C85 1_555 1_555
C86 C85 1_555 1_555
H127 C86 1_555 1_555
H128 C86 1_555 1_555
C87 C86 1_555 1_555
H129 C87 1_555 1_555
H130 C87 1_555 1_555
C88 O10 1_555 1_555
H131 C88 1_555 1_555
H132 C88 1_555 1_555
C3 C4 1_555 1_555
C7 C8 1_555 1_555
C11 C12 1_555 1_555
O4 K1 1_555 1_555
C15 C16 1_555 1_555
K3 O7 1_555 1_555
K3 O8 1_555 1_555
C21 C22 1_555 1_555
C24 C25 1_555 1_555
C28 C29 1_555 1_555
C30 C31 1_555 1_555
C34 C35 1_555 1_555
C37 C38 1_555 1_555
C41 C42 1_555 1_555
C43 C44 1_555 1_555
C47 C48 1_555 1_555
C83 C84 1_555 1_555
C87 C88 1_555 1_555

#END
