
#######################################################################
#
#                 Cambridge Crystallographic Data Centre
#                                CCDC 
#
#######################################################################
#
# If this CIF has been generated from an entry in the Cambridge 
# Structural Database, then it will include bibliographic, chemical, 
# crystal, experimental, refinement or atomic coordinate data resulting 
# from the CCDC's data processing and validation procedures.
#
#######################################################################

data_VESJIO
_chemical_formula_moiety         'C6 H17 B1 Cl1 N1'
_chemical_name_systematic        triethylaminemonochloroborane
_symmetry_cell_setting           monoclinic
_symmetry_space_group_name_H-M   'P 21'
_symmetry_Int_Tables_number      4
_space_group_name_Hall           'P 2yb'
loop_
_symmetry_equiv_pos_site_id
_symmetry_equiv_pos_as_xyz
1 x,y,z
2 -x,1/2+y,-z
_cell_length_a                   6.1671(12)
_cell_length_b                   10.707(2)
_cell_length_c                   7.1427(14)
_cell_angle_alpha                90
_cell_angle_beta                 113.24(3)
_cell_angle_gamma                90
_cell_volume                     433.372
_cell_formula_units_Z            2
loop_
_atom_site_label
_atom_site_type_symbol
_atom_site_fract_x
_atom_site_fract_y
_atom_site_fract_z
Cl1 Cl -0.00015(6) 0.38349(3) 0.34066(6)
N1 N 0.2499(2) 0.58660(11) 0.25292(18)
B1 B 0.0036(3) 0.55314(18) 0.2732(3)
H1 H -0.145(3) 0.5739(13) 0.122(2)
H2 H -0.010(3) 0.6109(16) 0.397(2)
C1 C 0.1053(3) 0.51182(17) -0.1167(2)
H3 H -0.0463 0.4845 -0.1167
H4 H 0.1493 0.4574 -0.2064
H5 H 0.0915 0.5981 -0.1659
C2 C 0.2927(3) 0.50473(15) 0.0974(2)
H6 H 0.4461 0.5284 0.0936
H7 H 0.3057 0.4169 0.1441
C3 C 0.4411(3) 0.77614(16) 0.1596(2)
H8 H 0.5820 0.7683 0.2863
H9 H 0.4123 0.8645 0.1224
H10 H 0.4653 0.7305 0.0505
C4 C 0.2297(2) 0.72203(14) 0.1902(2)
H11 H 0.2024 0.7722 0.2954
H12 H 0.0889 0.7316 0.0614
C5 C 0.4790(3) 0.65488(16) 0.6228(2)
H13 H 0.5180 0.7387 0.5906
H14 H 0.6031 0.6259 0.7502
H15 H 0.3280 0.6574 0.6381
C6 C 0.4604(3) 0.56620(15) 0.4520(2)
H16 H 0.4537 0.4797 0.4985
H17 H 0.6060 0.5736 0.4258
loop_
_geom_bond_atom_site_label_1
_geom_bond_atom_site_label_2
_geom_bond_site_symmetry_1
_geom_bond_site_symmetry_2
Cl1 B1 1_555 1_555
N1 B1 1_555 1_555
B1 H1 1_555 1_555
H2 B1 1_555 1_555
C1 H3 1_555 1_555
H4 C1 1_555 1_555
H5 C1 1_555 1_555
C2 N1 1_555 1_555
H6 C2 1_555 1_555
H7 C2 1_555 1_555
C3 H8 1_555 1_555
H9 C3 1_555 1_555
H10 C3 1_555 1_555
C4 N1 1_555 1_555
H11 C4 1_555 1_555
H12 C4 1_555 1_555
C5 H13 1_555 1_555
H14 C5 1_555 1_555
H15 C5 1_555 1_555
C6 N1 1_555 1_555
H16 C6 1_555 1_555
H17 C6 1_555 1_555
C1 C2 1_555 1_555
C3 C4 1_555 1_555
C5 C6 1_555 1_555

#END
