
#######################################################################
#
#                 Cambridge Crystallographic Data Centre
#                                CCDC 
#
#######################################################################
#
# If this CIF has been generated from an entry in the Cambridge 
# Structural Database, then it will include bibliographic, chemical, 
# crystal, experimental, refinement or atomic coordinate data resulting 
# from the CCDC's data processing and validation procedures.
#
#######################################################################

data_VESMUC
_chemical_formula_moiety         'C19 H23 N1 O2 S1'
_chemical_name_systematic        
(5Z,8Z)-5,6-Dimethyl-2-(p-toluenesulfonyl)-2,3,4,7-tetrahydro-1H-cyclo-octa(c)pyrrole
_symmetry_cell_setting           triclinic
_symmetry_space_group_name_H-M   'P -1'
_symmetry_Int_Tables_number      2
_space_group_name_Hall           '-P 1'
loop_
_symmetry_equiv_pos_site_id
_symmetry_equiv_pos_as_xyz
1 x,y,z
2 -x,-y,-z
_cell_length_a                   5.0300(4)
_cell_length_b                   12.3658(9)
_cell_length_c                   14.0720(10)
_cell_angle_alpha                102.5160(10)
_cell_angle_beta                 95.9680(10)
_cell_angle_gamma                95.3750(10)
_cell_volume                     843.738
_cell_formula_units_Z            2
loop_
_atom_site_label
_atom_site_type_symbol
_atom_site_fract_x
_atom_site_fract_y
_atom_site_fract_z
S1 S 0.40638(8) 0.32205(4) 0.13818(3)
N1 N 0.5433(3) 0.27802(11) 0.04077(10)
O1 O 0.1877(2) 0.23948(12) 0.13898(9)
O2 O 0.3605(3) 0.43483(11) 0.13830(10)
C1 C 0.6001(3) 0.16162(13) 0.01332(12)
H1 H 0.4355 0.1111 -0.0101
H2 H 0.6961 0.1397 0.0682
C2 C 0.6399(3) 0.32484(14) 0.24198(11)
C3 C 0.7204(3) 0.35140(13) -0.00162(12)
H3 H 0.8610 0.3955 0.0477
H4 H 0.6193 0.4009 -0.0319
C4 C 0.8350(3) 0.26891(13) -0.07688(11)
C5 C 0.7737(3) 0.16381(13) -0.06793(11)
C6 C 0.8432(4) 0.05473(14) -0.11687(13)
H5 H 0.7654 -0.0042 -0.0938
C7 C 0.9948(4) 0.02301(15) -0.18751(14)
H6 H 1.0112 -0.0528 -0.2049
C8 C 1.0188(4) 0.32467(18) 0.40110(13)
C9 C 0.8815(3) 0.25450(14) -0.25320(12)
C10 C 0.8223(4) 0.41846(16) 0.28194(13)
H7 H 0.8191 0.4815 0.2560
C11 C 0.9939(4) 0.31218(15) -0.14888(13)
H8 H 1.1806 0.2996 -0.1366
H9 H 0.9878 0.3919 -0.1397
C12 C 0.6428(4) 0.23152(15) 0.28095(13)
H10 H 0.5192 0.1687 0.2543
C13 C 0.9499(4) 0.15600(16) -0.29570(13)
C14 C 1.0102(4) 0.41748(19) 0.36121(14)
H11 H 1.1330 0.4805 0.3881
C15 C 1.1430(4) 0.09606(19) -0.24253(19)
H12 H 1.2387 0.0506 -0.2895
H13 H 1.2742 0.1503 -0.1968
C16 C 0.8325(4) 0.23252(17) 0.36039(14)
H14 H 0.8341 0.1698 0.3868
C17 C 0.8209(7) 0.0893(2) -0.39573(16)
H15 H 0.6827 0.1281 -0.4207
H16 H 0.7430 0.0174 -0.3902
H17 H 0.9549 0.0801 -0.4397
C18 C 0.6690(4) 0.31188(18) -0.29931(16)
H18 H 0.6740 0.2975 -0.3689
H19 H 0.7025 0.3908 -0.2720
H20 H 0.4950 0.2839 -0.2865
C19 C 1.2266(5) 0.3238(2) 0.48662(17)
H21 H 1.1386 0.3214 0.5436
H22 H 1.3527 0.3901 0.4997
H23 H 1.3202 0.2594 0.4708
loop_
_geom_bond_atom_site_label_1
_geom_bond_atom_site_label_2
_geom_bond_site_symmetry_1
_geom_bond_site_symmetry_2
S1 N1 1_555 1_555
N1 C1 1_555 1_555
O1 S1 1_555 1_555
O2 S1 1_555 1_555
C1 H1 1_555 1_555
H2 C1 1_555 1_555
C2 S1 1_555 1_555
C3 N1 1_555 1_555
H3 C3 1_555 1_555
H4 C3 1_555 1_555
C4 C3 1_555 1_555
C5 C1 1_555 1_555
C6 C5 1_555 1_555
H5 C6 1_555 1_555
C7 C6 1_555 1_555
H6 C7 1_555 1_555
C8 C14 1_555 1_555
C9 C11 1_555 1_555
C10 C2 1_555 1_555
H7 C10 1_555 1_555
C11 C4 1_555 1_555
H8 C11 1_555 1_555
H9 C11 1_555 1_555
C12 C2 1_555 1_555
H10 C12 1_555 1_555
C13 C9 1_555 1_555
C14 C10 1_555 1_555
H11 C14 1_555 1_555
C15 C7 1_555 1_555
H12 C15 1_555 1_555
H13 C15 1_555 1_555
C16 C8 1_555 1_555
H14 C16 1_555 1_555
C17 C13 1_555 1_555
H15 C17 1_555 1_555
H16 C17 1_555 1_555
H17 C17 1_555 1_555
C18 C9 1_555 1_555
H18 C18 1_555 1_555
H19 C18 1_555 1_555
H20 C18 1_555 1_555
C19 C8 1_555 1_555
H21 C19 1_555 1_555
H22 C19 1_555 1_555
H23 C19 1_555 1_555
C4 C5 1_555 1_555
C12 C16 1_555 1_555
C13 C15 1_555 1_555

#END
