
#######################################################################
#
#                 Cambridge Crystallographic Data Centre
#                                CCDC 
#
#######################################################################
#
# If this CIF has been generated from an entry in the Cambridge 
# Structural Database, then it will include bibliographic, chemical, 
# crystal, experimental, refinement or atomic coordinate data resulting 
# from the CCDC's data processing and validation procedures.
#
#######################################################################

data_VESMUE
_chemical_formula_moiety         'C22 H21 Br1 N1 O2 P1'
_chemical_name_systematic        
14-bromo-4a-methoxy-2,3-dimethyl-4,4a-dihydro-15\l^5^-indolo[1,2-a]phosphinino[1,2-c][1,3]benzazaphosphinin-15(1H)-one
_symmetry_cell_setting           monoclinic
_symmetry_space_group_name_H-M   'P 21/n'
_symmetry_Int_Tables_number      14
_space_group_name_Hall           '-P 2yn'
loop_
_symmetry_equiv_pos_site_id
_symmetry_equiv_pos_as_xyz
1 x,y,z
2 1/2-x,1/2+y,1/2-z
3 -x,-y,-z
4 1/2+x,1/2-y,1/2+z
_cell_length_a                   12.2189(4)
_cell_length_b                   8.2941(3)
_cell_length_c                   19.4427(6)
_cell_angle_alpha                90
_cell_angle_beta                 90.7620(10)
_cell_angle_gamma                90
_cell_volume                     1970.24
_exptl_crystal_colour            'light colorless'
_exptl_crystal_description       block
_cell_formula_units_Z            4
loop_
_atom_site_label
_atom_site_type_symbol
_atom_site_fract_x
_atom_site_fract_y
_atom_site_fract_z
Br1 Br 0.70292(2) 0.12819(3) 0.48181(2)
P1 P 0.44466(4) 0.22807(6) 0.39004(3)
O1 O 0.44524(11) 0.53851(16) 0.38090(7)
O2 O 0.39484(14) 0.07372(19) 0.36755(9)
N1 N 0.60231(13) 0.3270(2) 0.30133(8)
C1 C 0.71473(17) 0.3446(2) 0.29374(10)
C2 C 0.58335(16) 0.2554(2) 0.36512(10)
C3 C 0.38707(16) 0.4073(2) 0.34894(11)
C4 C 0.68194(16) 0.2246(2) 0.39593(10)
C5 C 0.76697(17) 0.2794(2) 0.35230(10)
C6 C 0.51792(18) 0.3587(2) 0.25161(11)
C7 C 0.41199(17) 0.3994(2) 0.27285(11)
C8 C 0.42887(18) 0.2768(3) 0.47884(11)
H1 H 0.4427 0.1815 0.5065
H2 H 0.4822 0.3582 0.4920
C9 C 0.31414(19) 0.3395(3) 0.49290(13)
C10 C 0.88107(18) 0.2810(3) 0.35851(12)
H3 H 0.9160 0.2362 0.3968
C11 C 0.77642(19) 0.4190(3) 0.24223(12)
H4 H 0.7427 0.4666 0.2042
C12 C 0.24492(19) 0.3957(3) 0.44508(14)
C13 C 0.26629(18) 0.4077(3) 0.36848(13)
H5 H 0.2330 0.5061 0.3512
H6 H 0.2303 0.3179 0.3456
C14 C 0.5410(2) 0.3428(3) 0.18233(12)
H7 H 0.6098 0.3080 0.1687
C15 C 0.9402(2) 0.3500(4) 0.30712(15)
H8 H 1.0162 0.3508 0.3103
C16 C 0.3337(2) 0.4334(3) 0.22226(13)
H9 H 0.2631 0.4608 0.2354
C17 C 0.8885(2) 0.4190(3) 0.24997(14)
H10 H 0.9310 0.4664 0.2162
C18 C 0.2887(2) 0.3314(4) 0.56868(14)
H11 H 0.2876 0.2207 0.5832
H12 H 0.2186 0.3794 0.5766
H13 H 0.3439 0.3887 0.5944
C19 C 0.4181(3) 0.6934(3) 0.35520(14)
H14 H 0.4305 0.6966 0.3066
H15 H 0.4629 0.7730 0.3777
H16 H 0.3424 0.7156 0.3639
C20 C 0.3578(2) 0.4276(4) 0.15333(14)
H17 H 0.3052 0.4561 0.1205
C21 C 0.4605(3) 0.3793(4) 0.13329(13)
H18 H 0.4762 0.3710 0.0867
C22 C 0.1312(2) 0.4543(5) 0.46260(18)
H19 H 0.0776 0.3883 0.4395
H20 H 0.1227 0.5642 0.4480
H21 H 0.1211 0.4476 0.5114
loop_
_geom_bond_atom_site_label_1
_geom_bond_atom_site_label_2
_geom_bond_site_symmetry_1
_geom_bond_site_symmetry_2
Br1 C4 1_555 1_555
P1 O2 1_555 1_555
O1 C3 1_555 1_555
N1 C1 1_555 1_555
C1 C5 1_555 1_555
C2 P1 1_555 1_555
C3 P1 1_555 1_555
C4 C2 1_555 1_555
C5 C4 1_555 1_555
C6 N1 1_555 1_555
C7 C3 1_555 1_555
C8 P1 1_555 1_555
H1 C8 1_555 1_555
H2 C8 1_555 1_555
C9 C8 1_555 1_555
C10 C5 1_555 1_555
H3 C10 1_555 1_555
C11 C1 1_555 1_555
H4 C11 1_555 1_555
C12 C9 1_555 1_555
C13 C3 1_555 1_555
H5 C13 1_555 1_555
H6 C13 1_555 1_555
C14 C6 1_555 1_555
H7 C14 1_555 1_555
C15 C10 1_555 1_555
H8 C15 1_555 1_555
C16 C7 1_555 1_555
H9 C16 1_555 1_555
C17 C11 1_555 1_555
H10 C17 1_555 1_555
C18 C9 1_555 1_555
H11 C18 1_555 1_555
H12 C18 1_555 1_555
H13 C18 1_555 1_555
C19 O1 1_555 1_555
H14 C19 1_555 1_555
H15 C19 1_555 1_555
H16 C19 1_555 1_555
C20 C16 1_555 1_555
H17 C20 1_555 1_555
C21 C14 1_555 1_555
H18 C21 1_555 1_555
C22 C12 1_555 1_555
H19 C22 1_555 1_555
H20 C22 1_555 1_555
H21 C22 1_555 1_555
N1 C2 1_555 1_555
C6 C7 1_555 1_555
C12 C13 1_555 1_555
C15 C17 1_555 1_555
C20 C21 1_555 1_555

#END
