
#######################################################################
#
#                 Cambridge Crystallographic Data Centre
#                                CCDC 
#
#######################################################################
#
# If this CIF has been generated from an entry in the Cambridge 
# Structural Database, then it will include bibliographic, chemical, 
# crystal, experimental, refinement or atomic coordinate data resulting 
# from the CCDC's data processing and validation procedures.
#
#######################################################################

data_VESQUI
_chemical_formula_moiety         'C36 H51 As1 1+,C32 H12 B1 F24 1-'
_chemical_name_systematic        
'tris(2,6-di-isopropylphenyl)arsonium radical tetrakis(3,5-bis(trifluoromethyl)phenyl)borate'
_symmetry_cell_setting           monoclinic
_symmetry_space_group_name_H-M   'C 2/c'
_symmetry_Int_Tables_number      15
_space_group_name_Hall           '-C 2yn'
loop_
_symmetry_equiv_pos_site_id
_symmetry_equiv_pos_as_xyz
1 x,y,z
2 -x,y,1/2-z
3 1/2+x,1/2+y,z
4 1/2-x,1/2+y,1/2-z
5 -x,-y,-z
6 x,-y,1/2+z
7 1/2-x,1/2-y,-z
8 1/2+x,1/2-y,1/2+z
_cell_length_a                   19.0845(17)
_cell_length_b                   19.3689(16)
_cell_length_c                   19.0896(19)
_cell_angle_alpha                90
_cell_angle_beta                 105.786(3)
_cell_angle_gamma                90
_cell_volume                     6790.25
_exptl_crystal_colour            red
_exptl_crystal_description       block
_cell_formula_units_Z            4
loop_
_atom_site_label
_atom_site_type_symbol
_atom_site_fract_x
_atom_site_fract_y
_atom_site_fract_z
B1 B 1.000000 0.93923(17) 0.250000
C20 C 0.93239(10) 0.88509(10) 0.24412(11)
C21 C 0.89172(11) 0.85963(11) 0.17694(11)
H27 H 0.897936 0.879415 0.134649
C22 C 0.84229(11) 0.80577(11) 0.17094(12)
C23 C 0.83153(12) 0.77451(11) 0.23202(12)
H28 H 0.798506 0.738450 0.228107
C24 C 0.87161(12) 0.79859(11) 0.29975(12)
C25 C 0.92037(11) 0.85272(11) 0.30532(11)
H29 H 0.945977 0.868032 0.351337
C26 C 0.80318(12) 0.78142(13) 0.09618(13)
C27 C 0.86234(16) 0.76383(14) 0.36680(15)
C28 C 1.01458(11) 0.99081(10) 0.32023(12)
C29 C 1.08402(12) 1.01726(12) 0.35252(14)
H30 H 1.122673 1.002788 0.335187
C30 C 1.09743(14) 1.06426(14) 0.40938(16)
C31 C 1.04136(15) 1.08801(14) 0.43583(16)
H31 H 1.050234 1.119483 0.474039
C32 C 0.97189(14) 1.06403(13) 0.40433(14)
C33 C 0.95922(12) 1.01603(11) 0.34788(13)
H32 H 0.911963 1.000253 0.327928
C34 C 1.17360(19) 1.0878(3) 0.4430(3)
C35 C 0.91031(19) 1.09082(18) 0.4302(2)
F1 F 0.84919(8) 0.75724(8) 0.05987(8)
F2 F 0.75584(9) 0.73090(9) 0.09633(9)
F3 F 0.76587(8) 0.83184(8) 0.05471(8)
F4 F 0.8004(2) 0.7814(4) 0.3816(3)
F5 F 0.8536(5) 0.6969(2) 0.3595(3)
F6 F 0.9122(3) 0.7811(3) 0.4278(2)
F7 F 1.1786(2) 1.1537(3) 0.4632(5)
F8 F 1.2057(10) 1.0600(10) 0.5040(18)
F9 F 1.2101(13) 1.1000(14) 0.3936(17)
F10 F 0.9276(5) 1.1323(9) 0.4849(8)
F11 F 0.8637(8) 1.1291(8) 0.3771(9)
F12 F 0.8680(7) 1.0381(6) 0.4434(9)
C20A C 1.06761(10) 0.88509(10) 0.25588(11)
C21A C 1.10828(11) 0.85963(11) 0.32306(11)
H27A H 1.102064 0.879415 0.365351
C22A C 1.15771(11) 0.80577(11) 0.32906(12)
C23A C 1.16847(12) 0.77451(11) 0.26798(12)
H28A H 1.201494 0.738450 0.271893
C24A C 1.12839(12) 0.79859(11) 0.20025(12)
C25A C 1.07963(11) 0.85272(11) 0.19468(11)
H29A H 1.054023 0.868032 0.148663
C26A C 1.19682(12) 0.78142(13) 0.40382(13)
C27A C 1.13766(16) 0.76383(14) 0.13320(15)
C28A C 0.98542(11) 0.99081(10) 0.17977(12)
C29A C 0.91598(12) 1.01726(12) 0.14748(14)
H30A H 0.877327 1.002788 0.164813
C30A C 0.90257(14) 1.06426(14) 0.09062(16)
C31A C 0.95864(15) 1.08801(14) 0.06417(16)
H31A H 0.949766 1.119483 0.025961
C32A C 1.02811(14) 1.06403(13) 0.09567(14)
C33A C 1.04078(12) 1.01603(11) 0.15212(13)
H32A H 1.088037 1.000253 0.172072
C34A C 0.82640(19) 1.0878(3) 0.0570(3)
C35A C 1.08969(19) 1.09082(18) 0.0698(2)
F1A F 1.15081(8) 0.75724(8) 0.44013(8)
F2A F 1.24416(9) 0.73090(9) 0.40367(9)
F3A F 1.23413(8) 0.83184(8) 0.44529(8)
F4A F 1.1996(2) 0.7814(4) 0.1184(3)
F5A F 1.1464(5) 0.6969(2) 0.1405(3)
F6A F 1.0878(3) 0.7811(3) 0.0722(2)
F7A F 0.8214(2) 1.1537(3) 0.0368(5)
F8A F 0.7943(10) 1.0600(10) -0.0040(18)
F9A F 0.7899(13) 1.1000(14) 0.1064(17)
F10A F 1.0724(5) 1.1323(9) 0.0151(8)
F11A F 1.1363(8) 1.1291(8) 0.1229(9)
F12A F 1.1320(7) 1.0381(6) 0.0566(9)
C1 C 0.1515(3) 0.5641(2) 0.4108(3)
H1 H 0.173922 0.561109 0.371555
H2 H 0.175068 0.532505 0.448681
H3 H 0.156196 0.610254 0.429717
C2 C 0.0719(3) 0.5457(2) 0.3832(2)
H4 H 0.069523 0.496144 0.372240
C3 C 0.0328(4) 0.5566(4) 0.4411(3)
H5 H 0.033177 0.604799 0.452819
H6 H 0.056979 0.530969 0.483952
H7 H -0.016571 0.540894 0.423502
C4 C 0.03372(15) 0.58203(14) 0.31431(16)
C5 C 0.03164(16) 0.65376(14) 0.31253(18)
H8 H 0.052331 0.678257 0.355023
C6 C 0.000000 0.68933(19) 0.250000
H9 H -0.000003 0.737343 0.250002
C7 C 0.000000 0.54790(16) 0.250000
C8 C 0.03958(13) 0.39918(13) 0.18474(14)
C9 C 0.11216(14) 0.41235(15) 0.18370(16)
C10 C 0.13952(18) 0.3713(2) 0.1381(2)
H10 H 0.186702 0.379017 0.135011
C11 C 0.0989(2) 0.3191(2) 0.0968(2)
H11 H 0.119415 0.291542 0.067699
C12 C 0.02862(19) 0.3078(2) 0.0987(2)
H12 H 0.001739 0.272914 0.070101
C13 C -0.00357(15) 0.34748(16) 0.14240(16)
C14 C 0.15927(16) 0.46672(17) 0.2290(2)
H13 H 0.131838 0.486575 0.260678
C15 C 0.1749(3) 0.5247(3) 0.1825(4)
H14 H 0.203058 0.507378 0.151637
H15 H 0.201815 0.560368 0.213362
H16 H 0.129870 0.543305 0.153128
C16 C 0.22992(18) 0.4369(2) 0.2785(3)
H17 H 0.218556 0.399186 0.306152
H18 H 0.255108 0.472164 0.311119
H19 H 0.260310 0.420753 0.249305
C17 C -0.08280(16) 0.33455(19) 0.13941(19)
H20 H -0.096665 0.370344 0.169375
C18 C -0.0931(2) 0.2658(3) 0.1733(3)
H21 H -0.078179 0.229125 0.146684
H22 H -0.143478 0.259987 0.171552
H23 H -0.064113 0.264770 0.222987
C19 C -0.1324(2) 0.3430(3) 0.0636(2)
H24 H -0.122857 0.306859 0.032937
H25 H -0.123611 0.386971 0.044412
H26 H -0.182157 0.340406 0.065088
As1 As -0.01421(3) 0.44936(2) 0.23633(4)
C1A C -0.1515(3) 0.5641(2) 0.0892(3)
H1A H -0.173922 0.561109 0.128445
H2A H -0.175068 0.532505 0.051319
H3A H -0.156196 0.610254 0.070283
C2A C -0.0719(3) 0.5457(2) 0.1168(2)
H4A H -0.069523 0.496144 0.127760
C3A C -0.0328(4) 0.5566(4) 0.0589(3)
H5A H -0.033177 0.604799 0.047181
H6A H -0.056979 0.530969 0.016048
H7A H 0.016571 0.540894 0.076498
C4A C -0.03372(15) 0.58203(14) 0.18569(16)
C5A C -0.03164(16) 0.65376(14) 0.18747(18)
H8A H -0.052331 0.678257 0.144977
C8A C -0.03958(13) 0.39918(13) 0.31526(14)
C9A C -0.11216(14) 0.41235(15) 0.31630(16)
C10A C -0.13952(18) 0.3713(2) 0.3619(2)
H10A H -0.186702 0.379017 0.364989
C11A C -0.0989(2) 0.3191(2) 0.4032(2)
H11A H -0.119415 0.291542 0.432301
C12A C -0.02862(19) 0.3078(2) 0.4013(2)
H12A H -0.001739 0.272914 0.429899
C13A C 0.00357(15) 0.34748(16) 0.35760(16)
C14A C -0.15927(16) 0.46672(17) 0.2710(2)
H13A H -0.131838 0.486575 0.239322
C15A C -0.1749(3) 0.5247(3) 0.3175(4)
H14A H -0.203058 0.507378 0.348363
H15A H -0.201815 0.560368 0.286638
H16A H -0.129870 0.543305 0.346872
C16A C -0.22992(18) 0.4369(2) 0.2215(3)
H17A H -0.218556 0.399186 0.193848
H18A H -0.255108 0.472164 0.188881
H19A H -0.260310 0.420753 0.250695
C17A C 0.08280(16) 0.33455(19) 0.36059(19)
H20A H 0.096665 0.370344 0.330625
C18A C 0.0931(2) 0.2658(3) 0.3267(3)
H21A H 0.078179 0.229125 0.353316
H22A H 0.143478 0.259987 0.328448
H23A H 0.064113 0.264770 0.277013
C19A C 0.1324(2) 0.3430(3) 0.4364(2)
H24A H 0.122857 0.306859 0.467063
H25A H 0.123611 0.386971 0.455588
H26A H 0.182157 0.340406 0.434912
As1A As 0.01421(3) 0.44936(2) 0.26367(4)
F13? F 0.9149(14) 1.1573(11) 0.443(2)
F14? F 0.903(2) 1.062(2) 0.489(2)
F15? F 0.8434(13) 1.091(2) 0.3743(19)
F16? F 0.9331(8) 1.0962(9) 0.5079(6)
F17? F 0.8908(10) 1.1514(10) 0.4066(10)
F18? F 0.8524(8) 1.0550(8) 0.4142(11)
F19? F 1.1832(9) 1.0827(9) 0.5302(7)
F20? F 1.1825(5) 1.1175(10) 0.5064(10)
F21? F 1.2256(10) 1.0429(14) 0.4361(10)
F22? F 1.2190(5) 1.0385(6) 0.4630(5)
F23? F 1.1993(10) 1.1215(8) 0.3714(9)
F24? F 1.1974(6) 1.1302(8) 0.4182(11)
F25? F 0.8471(13) 0.8087(6) 0.4110(7)
F26? F 0.8030(8) 0.7313(13) 0.3569(7)
F27? F 0.9242(11) 0.7536(9) 0.4123(7)
F28? F 0.8952(13) 0.7037(9) 0.3771(11)
loop_
_geom_bond_atom_site_label_1
_geom_bond_atom_site_label_2
_geom_bond_site_symmetry_1
_geom_bond_site_symmetry_2
C1 H1 1_555 1_555
H2 C1 1_555 1_555
H3 C1 1_555 1_555
C2 C1 1_555 1_555
H4 C2 1_555 1_555
C3 C2 1_555 1_555
H5 C3 1_555 1_555
H6 C3 1_555 1_555
H7 C3 1_555 1_555
C4 C2 1_555 1_555
C5 C4 1_555 1_555
H8 C5 1_555 1_555
C6 C5 1_555 1_555
H9 C6 1_555 1_555
C7 C4 1_555 1_555
C8 C9 1_555 1_555
C9 C10 1_555 1_555
C10 H10 1_555 1_555
C11 C10 1_555 1_555
H11 C11 1_555 1_555
C12 C11 1_555 1_555
H12 C12 1_555 1_555
C13 C8 1_555 1_555
C14 C9 1_555 1_555
H13 C14 1_555 1_555
C15 C14 1_555 1_555
H14 C15 1_555 1_555
H15 C15 1_555 1_555
H16 C15 1_555 1_555
C16 C14 1_555 1_555
H17 C16 1_555 1_555
H18 C16 1_555 1_555
H19 C16 1_555 1_555
C17 C13 1_555 1_555
H20 C17 1_555 1_555
C18 C17 1_555 1_555
H21 C18 1_555 1_555
H22 C18 1_555 1_555
H23 C18 1_555 1_555
C19 C17 1_555 1_555
H24 C19 1_555 1_555
H25 C19 1_555 1_555
H26 C19 1_555 1_555
As1 C7 1_555 1_555
B1 C20 1_555 1_555
C20 C21 1_555 1_555
C21 H27 1_555 1_555
C22 C21 1_555 1_555
C23 C22 1_555 1_555
H28 C23 1_555 1_555
C24 C23 1_555 1_555
C25 C20 1_555 1_555
H29 C25 1_555 1_555
C26 C22 1_555 1_555
C27 C24 1_555 1_555
C28 B1 1_555 1_555
C29 C28 1_555 1_555
H30 C29 1_555 1_555
C30 C29 1_555 1_555
C31 C30 1_555 1_555
H31 C31 1_555 1_555
C32 C31 1_555 1_555
C33 C28 1_555 1_555
H32 C33 1_555 1_555
C34 C30 1_555 1_555
C35 C32 1_555 1_555
F1 C26 1_555 1_555
F2 C26 1_555 1_555
F3 C26 1_555 1_555
F4 C27 1_555 1_555
F5 C27 1_555 1_555
F6 C27 1_555 1_555
F7 C34 1_555 1_555
F8 C34 1_555 1_555
F9 C34 1_555 1_555
F10 C35 1_555 1_555
F11 C35 1_555 1_555
F12 C35 1_555 1_555
C1A H1A 1_555 1_555
H2A C1A 1_555 1_555
H3A C1A 1_555 1_555
C2A C1A 1_555 1_555
H4A C2A 1_555 1_555
C3A C2A 1_555 1_555
H5A C3A 1_555 1_555
H6A C3A 1_555 1_555
H7A C3A 1_555 1_555
C4A C7 1_555 1_555
C5A C6 1_555 1_555
H8A C5A 1_555 1_555
C8A As1 1_555 1_555
C9A C8A 1_555 1_555
C10A C9A 1_555 1_555
H10A C10A 1_555 1_555
C11A C10A 1_555 1_555
H11A C11A 1_555 1_555
C12A C11A 1_555 1_555
H12A C12A 1_555 1_555
C13A C8A 1_555 1_555
C14A C9A 1_555 1_555
H13A C14A 1_555 1_555
C15A C14A 1_555 1_555
H14A C15A 1_555 1_555
H15A C15A 1_555 1_555
H16A C15A 1_555 1_555
C16A C14A 1_555 1_555
H17A C16A 1_555 1_555
H18A C16A 1_555 1_555
H19A C16A 1_555 1_555
C17A C13A 1_555 1_555
H20A C17A 1_555 1_555
C18A C17A 1_555 1_555
H21A C18A 1_555 1_555
H22A C18A 1_555 1_555
H23A C18A 1_555 1_555
C19A C17A 1_555 1_555
H24A C19A 1_555 1_555
H25A C19A 1_555 1_555
H26A C19A 1_555 1_555
As1A C7 1_555 1_555
C20A B1 1_555 1_555
C21A C20A 1_555 1_555
H27A C21A 1_555 1_555
C22A C21A 1_555 1_555
C23A C22A 1_555 1_555
H28A C23A 1_555 1_555
C24A C23A 1_555 1_555
C25A C20A 1_555 1_555
H29A C25A 1_555 1_555
C26A C22A 1_555 1_555
C27A C24A 1_555 1_555
C28A B1 1_555 1_555
C29A C28A 1_555 1_555
H30A C29A 1_555 1_555
C30A C29A 1_555 1_555
C31A C30A 1_555 1_555
H31A C31A 1_555 1_555
C32A C31A 1_555 1_555
C33A C28A 1_555 1_555
H32A C33A 1_555 1_555
C34A C30A 1_555 1_555
C35A C32A 1_555 1_555
F1A C26A 1_555 1_555
F2A C26A 1_555 1_555
F3A C26A 1_555 1_555
F4A C27A 1_555 1_555
F5A C27A 1_555 1_555
F6A C27A 1_555 1_555
F7A C34A 1_555 1_555
F8A C34A 1_555 1_555
F9A C34A 1_555 1_555
F10A C35A 1_555 1_555
F11A C35A 1_555 1_555
F12A C35A 1_555 1_555
C8 As1 1_555 1_555
C8 As1A 1_555 1_555
C12 C13 1_555 1_555
As1 As1A 1_555 1_555
C24 C25 1_555 1_555
C32 C33 1_555 1_555
C2A C4A 1_555 1_555
C4A C5A 1_555 1_555
C8A As1A 1_555 1_555
C12A C13A 1_555 1_555
C24A C25A 1_555 1_555
C32A C33A 1_555 1_555

#END
