
#######################################################################
#
#                 Cambridge Crystallographic Data Centre
#                                CCDC 
#
#######################################################################
#
# If this CIF has been generated from an entry in the Cambridge 
# Structural Database, then it will include bibliographic, chemical, 
# crystal, experimental, refinement or atomic coordinate data resulting 
# from the CCDC's data processing and validation procedures.
#
#######################################################################

data_VESVOH
_chemical_formula_moiety         'C27 H21 N1 O4 S2,C1 H2 Cl2'
_chemical_name_systematic        
'2-(9,9-dimethylacridin-10(9H)-yl)-5\l^6^,10\l^6^-thianthrene-5,5,10,10-tetrone dichloromethane solvate'
_symmetry_cell_setting           monoclinic
_symmetry_space_group_name_H-M   'P 21/c'
_symmetry_Int_Tables_number      14
_space_group_name_Hall           '-P 2ybc'
loop_
_symmetry_equiv_pos_site_id
_symmetry_equiv_pos_as_xyz
1 x,y,z
2 -x,1/2+y,1/2-z
3 -x,-y,-z
4 x,1/2-y,1/2+z
_cell_length_a                   7.1072(4)
_cell_length_b                   22.9785(12)
_cell_length_c                   15.4035(9)
_cell_angle_alpha                90
_cell_angle_beta                 90.10
_cell_angle_gamma                90
_cell_volume                     2515.58
_cell_formula_units_Z            4
loop_
_atom_site_label
_atom_site_type_symbol
_atom_site_fract_x
_atom_site_fract_y
_atom_site_fract_z
S1 S 1.3385(2) 0.41796(6) 0.23197(8)
S2 S 1.3531(2) 0.28495(5) 0.30321(8)
O1 O 1.5321(6) 0.29781(17) 0.3411(2)
O2 O 1.2763(6) 0.22723(15) 0.3137(2)
O3 O 1.2544(6) 0.46661(16) 0.1891(2)
O4 O 1.5235(6) 0.42523(17) 0.2674(2)
N1 N 0.8076(6) 0.33678(19) 0.5056(3)
C1 C 0.8541(8) 0.2386(3) 0.6924(4)
H1 H 0.8590 0.2406 0.7527
C2 C 0.8586(9) 0.1848(3) 0.6531(5)
H2 H 0.8680 0.1513 0.6867
C3 C 0.8492(9) 0.1806(2) 0.5645(4)
H3 H 0.8536 0.1443 0.5379
C4 C 0.8331(8) 0.2307(2) 0.5143(4)
H4 H 0.8223 0.2279 0.4543
C5 C 0.8423(7) 0.2901(2) 0.6449(4)
C6 C 0.8333(8) 0.2846(2) 0.5540(4)
C7 C 0.6831(8) 0.3838(2) 0.6352(4)
C8 C 0.6719(8) 0.3758(2) 0.5441(3)
C9 C 0.5348(8) 0.4020(2) 0.4948(4)
H5 H 0.5271 0.3948 0.4355
C10 C 0.4074(8) 0.4396(2) 0.5345(4)
H6 H 0.3142 0.4576 0.5018
C11 C 0.4198(8) 0.4500(2) 0.6227(4)
H7 H 0.3376 0.4761 0.6490
C12 C 0.5550(8) 0.4216(2) 0.6721(4)
H8 H 0.5593 0.4282 0.7316
C13 C 0.9270(8) 0.3548(2) 0.4413(3)
C14 C 1.0631(8) 0.3172(2) 0.4054(3)
H9 H 1.0693 0.2789 0.4246
C15 C 0.9232(8) 0.4124(2) 0.4089(4)
H10 H 0.8347 0.4385 0.4304
C16 C 1.0483(9) 0.4306(2) 0.3460(3)
H11 H 1.0421 0.4687 0.3258
C17 C 1.1862(8) 0.3358(2) 0.3429(3)
C18 C 1.1832(8) 0.3932(2) 0.3120(3)
C19 C 1.3560(7) 0.3008(2) 0.1905(3)
C20 C 1.3694(7) 0.2549(2) 0.1331(3)
H12 H 1.3744 0.2168 0.1533
C21 C 1.3753(8) 0.2666(3) 0.0444(4)
H13 H 1.3879 0.2362 0.0051
C22 C 1.3626(8) 0.3231(2) 0.0145(4)
H14 H 1.3647 0.3302 -0.0449
C23 C 1.3468(8) 0.3692(2) 0.0711(3)
H15 H 1.3366 0.4070 0.0502
C24 C 1.3465(7) 0.3586(2) 0.1601(3)
C25 C 0.7976(10) 0.3495(3) 0.7825(4)
H16 H 0.6812 0.3297 0.7939
H17 H 0.7901 0.3887 0.8037
H18 H 0.8986 0.3295 0.8112
C26 C 1.0259(8) 0.3808(3) 0.6696(4)
H19 H 1.0545 0.3818 0.6087
H20 H 1.1225 0.3597 0.6998
H21 H 1.0196 0.4198 0.6916
C27 C 0.8347(8) 0.3503(2) 0.6836(3)
Cl1 Cl 0.7509(3) 0.02812(7) 0.49720(11)
Cl2 Cl 0.7672(4) -0.05502(10) 0.63848(13)
C28 C 0.8086(12) 0.0171(3) 0.6077(4)
H22 H 0.9401 0.0265 0.6170
H23 H 0.7336 0.0429 0.6436
loop_
_geom_bond_atom_site_label_1
_geom_bond_atom_site_label_2
_geom_bond_site_symmetry_1
_geom_bond_site_symmetry_2
S1 O3 1_555 1_555
S2 O1 1_555 1_555
O2 S2 1_555 1_555
O4 S1 1_555 1_555
N1 C6 1_555 1_555
C1 H1 1_555 1_555
C2 C1 1_555 1_555
H2 C2 1_555 1_555
C3 C2 1_555 1_555
H3 C3 1_555 1_555
C4 C3 1_555 1_555
H4 C4 1_555 1_555
C5 C1 1_555 1_555
C6 C4 1_555 1_555
C7 C8 1_555 1_555
C8 N1 1_555 1_555
C9 C8 1_555 1_555
H5 C9 1_555 1_555
C10 C9 1_555 1_555
H6 C10 1_555 1_555
C11 C10 1_555 1_555
H7 C11 1_555 1_555
C12 C7 1_555 1_555
H8 C12 1_555 1_555
C13 N1 1_555 1_555
C14 C13 1_555 1_555
H9 C14 1_555 1_555
C15 C13 1_555 1_555
H10 C15 1_555 1_555
C16 C15 1_555 1_555
H11 C16 1_555 1_555
C17 S2 1_555 1_555
C18 S1 1_555 1_555
C19 S2 1_555 1_555
C20 C19 1_555 1_555
H12 C20 1_555 1_555
C21 C20 1_555 1_555
H13 C21 1_555 1_555
C22 C21 1_555 1_555
H14 C22 1_555 1_555
C23 C22 1_555 1_555
H15 C23 1_555 1_555
C24 S1 1_555 1_555
C25 H16 1_555 1_555
H17 C25 1_555 1_555
H18 C25 1_555 1_555
C26 H19 1_555 1_555
H20 C26 1_555 1_555
H21 C26 1_555 1_555
C27 C5 1_555 1_555
Cl1 C28 1_555 1_555
Cl2 C28 1_555 1_555
C28 H22 1_555 1_555
H23 C28 1_555 1_555
C5 C6 1_555 1_555
C7 C27 1_555 1_555
C11 C12 1_555 1_555
C14 C17 1_555 1_555
C16 C18 1_555 1_555
C17 C18 1_555 1_555
C19 C24 1_555 1_555
C23 C24 1_555 1_555
C25 C27 1_555 1_555
C26 C27 1_555 1_555

#END
