
#######################################################################
#
#                 Cambridge Crystallographic Data Centre
#                                CCDC 
#
#######################################################################
#
# If this CIF has been generated from an entry in the Cambridge 
# Structural Database, then it will include bibliographic, chemical, 
# crystal, experimental, refinement or atomic coordinate data resulting 
# from the CCDC's data processing and validation procedures.
#
#######################################################################

data_VESWAU
_chemical_formula_moiety         'C17 H6 Cl7 N2'
_chemical_name_systematic        
'bis(3,5-dichloro-4-pyridyl)(2,4,6-trichlorophenyl)methyl radical'
_symmetry_cell_setting           monoclinic
_symmetry_space_group_name_H-M   'P 21/n'
_symmetry_Int_Tables_number      14
_space_group_name_Hall           '-P 2yn'
loop_
_symmetry_equiv_pos_site_id
_symmetry_equiv_pos_as_xyz
1 x,y,z
2 1/2-x,1/2+y,1/2-z
3 -x,-y,-z
4 1/2+x,1/2-y,1/2+z
_cell_length_a                   8.7015(13)
_cell_length_b                   14.840(3)
_cell_length_c                   14.860(3)
_cell_angle_alpha                90
_cell_angle_beta                 105.5165(15)
_cell_angle_gamma                90
_cell_volume                     1848.94
_exptl_crystal_colour            red
_exptl_crystal_description       platelet
_cell_formula_units_Z            4
_chemical_properties_physical    ', Light-sensitive'
loop_
_atom_site_label
_atom_site_type_symbol
_atom_site_fract_x
_atom_site_fract_y
_atom_site_fract_z
Cl1 Cl 0.10558(6) 0.26356(3) 0.62941(4)
Cl2 Cl 0.43120(7) -0.04541(3) 0.75752(4)
Cl3 Cl 0.54016(6) 0.19701(4) 0.82681(4)
Cl4 Cl -0.07861(6) 0.18254(4) 0.84981(4)
Cl5 Cl -0.08477(6) 0.04067(3) 0.61726(3)
Cl6 Cl 0.30267(6) 0.02878(4) 0.97313(3)
Cl7 Cl -0.18762(7) -0.19813(4) 0.86298(4)
N1 N 0.3905(2) 0.10540(11) 0.53476(11)
N2 N 0.2791(3) 0.34886(12) 0.94394(12)
C1 C 0.2009(3) 0.10820(13) 0.77445(13)
C2 C 0.2970(3) 0.17226(13) 0.54861(13)
C3 C 0.2320(3) 0.17482(12) 0.62412(13)
C4 C 0.2636(3) 0.10656(12) 0.69170(13)
C5 C 0.3646(3) 0.03863(12) 0.67585(13)
C6 C 0.4244(3) 0.04005(13) 0.59806(14)
C7 C 0.1420(3) 0.30409(13) 0.92568(14)
C8 C 0.1122(3) 0.22641(13) 0.87205(13)
C9 C 0.2284(2) 0.18803(12) 0.83394(12)
C10 C 0.3730(3) 0.23604(13) 0.85717(14)
C11 C 0.3924(3) 0.31424(14) 0.90896(14)
C12 C -0.0734(3) -0.11130(13) 0.83703(14)
C13 C -0.1115(3) -0.07672(13) 0.74729(13)
C14 C -0.0201(3) -0.00647(13) 0.72767(13)
C15 C 0.1098(3) 0.03102(12) 0.79512(13)
C16 C 0.1423(3) -0.00805(13) 0.88462(13)
C17 C 0.0529(3) -0.07799(13) 0.90614(13)
H1 H 0.2740 0.2203 0.5048
H2 H 0.4922 -0.0076 0.5898
H3 H 0.0599 0.3266 0.9507
H4 H 0.4914 0.3451 0.9203
H5 H -0.1983 -0.1005 0.7002
H6 H 0.0780 -0.1026 0.9674
loop_
_geom_bond_atom_site_label_1
_geom_bond_atom_site_label_2
_geom_bond_site_symmetry_1
_geom_bond_site_symmetry_2
Cl1 C3 1_555 1_555
Cl2 C5 1_555 1_555
Cl3 C10 1_555 1_555
Cl4 C8 1_555 1_555
Cl5 C14 1_555 1_555
Cl6 C16 1_555 1_555
Cl7 C12 1_555 1_555
N1 C2 1_555 1_555
N2 C7 1_555 1_555
C1 C4 1_555 1_555
C2 C3 1_555 1_555
C3 C4 1_555 1_555
C4 C5 1_555 1_555
C5 C6 1_555 1_555
C6 N1 1_555 1_555
C7 C8 1_555 1_555
C8 C9 1_555 1_555
C9 C1 1_555 1_555
C10 C9 1_555 1_555
C11 N2 1_555 1_555
C12 C13 1_555 1_555
C13 C14 1_555 1_555
C14 C15 1_555 1_555
C15 C1 1_555 1_555
C16 C15 1_555 1_555
C17 C12 1_555 1_555
H1 C2 1_555 1_555
H2 C6 1_555 1_555
H3 C7 1_555 1_555
H4 C11 1_555 1_555
H5 C13 1_555 1_555
H6 C17 1_555 1_555
C10 C11 1_555 1_555
C16 C17 1_555 1_555

#END
