
#######################################################################
#
#                 Cambridge Crystallographic Data Centre
#                                CCDC 
#
#######################################################################
#
# If this CIF has been generated from an entry in the Cambridge 
# Structural Database, then it will include bibliographic, chemical, 
# crystal, experimental, refinement or atomic coordinate data resulting 
# from the CCDC's data processing and validation procedures.
#
#######################################################################

data_VETFEI
_chemical_formula_moiety         'C27 H21 N1 O4 S2'
_chemical_name_systematic        
2-(9,9-dimethylacridin-10(9H)-yl)-5\l^6^,10\l^6^-thianthrene-5,5,10,10-tetrone
_symmetry_cell_setting           monoclinic
_symmetry_space_group_name_H-M   'C c'
_symmetry_Int_Tables_number      9
_space_group_name_Hall           'C -2yc'
loop_
_symmetry_equiv_pos_site_id
_symmetry_equiv_pos_as_xyz
1 x,y,z
2 x,-y,1/2+z
3 1/2+x,1/2+y,z
4 1/2+x,1/2-y,1/2+z
_cell_length_a                   24.6088(13)
_cell_length_b                   7.5804(4)
_cell_length_c                   12.3305(7)
_cell_angle_alpha                90
_cell_angle_beta                 99.922(2)
_cell_angle_gamma                90
_cell_volume                     2265.78
_cell_formula_units_Z            4
loop_
_atom_site_label
_atom_site_type_symbol
_atom_site_fract_x
_atom_site_fract_y
_atom_site_fract_z
S1 S -0.169873(19) -0.32688(6) -0.25339(4)
S2 S -0.17373(2) 0.04507(6) -0.11954(4)
O1 O -0.19705(6) 0.1537(2) -0.04379(14)
O2 O -0.13071(6) 0.11654(18) -0.17118(13)
O3 O -0.12792(6) -0.25249(19) -0.30742(12)
O4 O -0.18857(6) -0.50396(19) -0.27882(14)
N1 N -0.36024(7) 0.1628(2) -0.36493(15)
C1 C -0.22789(8) -0.1862(2) -0.27865(16)
C2 C -0.12682(8) -0.1423(3) 0.05886(18)
H1 H -0.1305 -0.0398 0.0985
C3 C -0.45002(8) 0.2739(3) -0.34068(17)
C4 C -0.22841(8) -0.0255(2) -0.22355(16)
C5 C -0.14618(8) -0.3094(2) -0.11020(16)
C6 C -0.49403(8) 0.2616(3) -0.2834(2)
H2 H -0.5236 0.3386 -0.3016
C7 C -0.35602(8) 0.2852(3) -0.44876(17)
C8 C -0.39925(8) 0.4041(3) -0.48317(17)
C9 C -0.27266(8) 0.0884(3) -0.25068(18)
H3 H -0.2735 0.1950 -0.2137
C10 C -0.40610(8) 0.1551(3) -0.31173(18)
C11 C -0.14884(8) -0.1520(2) -0.05215(17)
C12 C -0.31579(8) 0.0415(3) -0.33377(17)
C13 C -0.30867(9) 0.2878(3) -0.49762(19)
H4 H -0.2801 0.2090 -0.4739
C14 C -0.40713(9) 0.0317(3) -0.2276(2)
H5 H -0.3778 -0.0462 -0.2087
C15 C -0.50278(9) 0.3942(3) -0.5174(2)
H6 H -0.5349 0.4056 -0.4834
H7 H -0.5027 0.2800 -0.5510
H8 H -0.5033 0.4839 -0.5725
C16 C -0.45054(8) 0.4153(3) -0.42945(17)
C17 C -0.45146(9) 0.0250(3) -0.1725(2)
H9 H -0.4518 -0.0566 -0.1163
C18 C -0.11996(8) -0.4564(3) -0.05737(18)
H10 H -0.1191 -0.5624 -0.0951
C19 C -0.45152(9) 0.5991(3) -0.3752(2)
H11 H -0.4835 0.6084 -0.3405
H12 H -0.4529 0.6890 -0.4304
H13 H -0.4188 0.6140 -0.3209
C20 C -0.34664(10) 0.5218(3) -0.6171(2)
H14 H -0.3441 0.6002 -0.6741
C21 C -0.27158(8) -0.2349(3) -0.35905(17)
H15 H -0.2715 -0.3436 -0.3939
C22 C -0.30383(9) 0.4065(3) -0.58085(19)
H16 H -0.2720 0.4085 -0.6121
C23 C -0.39298(9) 0.5203(3) -0.56858(19)
H17 H -0.4213 0.5995 -0.5934
C24 C -0.09521(9) -0.4429(3) 0.05193(19)
H18 H -0.0758 -0.5383 0.0866
C25 C -0.49533(9) 0.1397(3) -0.2010(2)
H19 H -0.5255 0.1347 -0.1648
C26 C -0.31568(8) -0.1194(3) -0.38724(18)
H20 H -0.3451 -0.1501 -0.4419
C27 C -0.09918(9) -0.2878(3) 0.11031(18)
H21 H -0.0832 -0.2813 0.1843
loop_
_geom_bond_atom_site_label_1
_geom_bond_atom_site_label_2
_geom_bond_site_symmetry_1
_geom_bond_site_symmetry_2
S1 O3 1_555 1_555
S2 O1 1_555 1_555
O2 S2 1_555 1_555
O4 S1 1_555 1_555
N1 C7 1_555 1_555
C1 S1 1_555 1_555
C2 H1 1_555 1_555
C3 C6 1_555 1_555
C4 S2 1_555 1_555
C5 S1 1_555 1_555
C6 H2 1_555 1_555
C7 C8 1_555 1_555
C8 C16 1_555 1_555
C9 C4 1_555 1_555
H3 C9 1_555 1_555
C10 N1 1_555 1_555
C11 S2 1_555 1_555
C12 N1 1_555 1_555
C13 C7 1_555 1_555
H4 C13 1_555 1_555
C14 C10 1_555 1_555
H5 C14 1_555 1_555
C15 H6 1_555 1_555
H7 C15 1_555 1_555
H8 C15 1_555 1_555
C16 C3 1_555 1_555
C17 C14 1_555 1_555
H9 C17 1_555 1_555
C18 C5 1_555 1_555
H10 C18 1_555 1_555
C19 C16 1_555 1_555
H11 C19 1_555 1_555
H12 C19 1_555 1_555
H13 C19 1_555 1_555
C20 H14 1_555 1_555
C21 C1 1_555 1_555
H15 C21 1_555 1_555
C22 C13 1_555 1_555
H16 C22 1_555 1_555
C23 C8 1_555 1_555
H17 C23 1_555 1_555
C24 C18 1_555 1_555
H18 C24 1_555 1_555
C25 C6 1_555 1_555
H19 C25 1_555 1_555
C26 C12 1_555 1_555
H20 C26 1_555 1_555
C27 C2 1_555 1_555
H21 C27 1_555 1_555
C1 C4 1_555 1_555
C2 C11 1_555 1_555
C3 C10 1_555 1_555
C5 C11 1_555 1_555
C9 C12 1_555 1_555
C15 C16 1_555 1_555
C17 C25 1_555 1_555
C20 C22 1_555 1_555
C20 C23 1_555 1_555
C21 C26 1_555 1_555
C24 C27 1_555 1_555

#END
