
#######################################################################
#
#                 Cambridge Crystallographic Data Centre
#                                CCDC 
#
#######################################################################
#
# If this CIF has been generated from an entry in the Cambridge 
# Structural Database, then it will include bibliographic, chemical, 
# crystal, experimental, refinement or atomic coordinate data resulting 
# from the CCDC's data processing and validation procedures.
#
#######################################################################

data_VETKEL
_chemical_formula_moiety         'C7 H8 N2 O1 S1'
_chemical_name_systematic        N-(2-Thiazol-2-yl)cyclopropanecarboxamide
_symmetry_cell_setting           monoclinic
_symmetry_space_group_name_H-M   'P 21/c'
_symmetry_Int_Tables_number      14
_space_group_name_Hall           '-P 2ybc'
loop_
_symmetry_equiv_pos_site_id
_symmetry_equiv_pos_as_xyz
1 x,y,z
2 -x,1/2+y,1/2-z
3 -x,-y,-z
4 x,1/2-y,1/2+z
_cell_length_a                   5.707(3)
_cell_length_b                   9.170(4)
_cell_length_c                   15.453(7)
_cell_angle_alpha                90
_cell_angle_beta                 96.780(5)
_cell_angle_gamma                90
_cell_volume                     803.049
_exptl_crystal_colour            colorless
_exptl_crystal_description       block
_chemical_melting_point          164deg.C
_cell_formula_units_Z            4
_exptl_crystal_recrystallization_method 'ethyl acetate/cyclohexanone'
loop_
_atom_site_label
_atom_site_type_symbol
_atom_site_fract_x
_atom_site_fract_y
_atom_site_fract_z
S1 S 0.50465(9) 0.24987(5) 0.09861(3)
O1 O 0.2811(2) 0.31377(15) 0.23672(8)
N1 N 0.1229(3) 0.42478(16) 0.11350(8)
H1 H 0.0169 0.4843 0.0905
N2 N 0.2451(3) 0.38301(16) -0.02386(9)
C1 C -0.0360(3) 0.4775(2) 0.24709(10)
H2 H -0.1274 0.5546 0.2147
C2 C 0.0214(4) 0.4989(2) 0.34362(11)
H3 H 0.1716 0.4623 0.3709
H4 H -0.0313 0.5885 0.3686
C3 C -0.1587(4) 0.3918(2) 0.31131(13)
H5 H -0.3222 0.4155 0.3164
H6 H -0.1192 0.2894 0.3187
C4 C 0.1358(3) 0.39864(18) 0.20092(10)
C5 C 0.2711(3) 0.36069(18) 0.06008(10)
C6 C 0.4185(3) 0.3093(2) -0.06107(11)
H7 H 0.4286 0.3123 -0.1207
C7 C 0.5713(4) 0.2334(2) -0.00637(12)
H8 H 0.6964 0.1792 -0.0229
loop_
_geom_bond_atom_site_label_1
_geom_bond_atom_site_label_2
_geom_bond_site_symmetry_1
_geom_bond_site_symmetry_2
S1 C5 1_555 1_555
O1 C4 1_555 1_555
N1 H1 1_555 1_555
N2 C5 1_555 1_555
C1 H2 1_555 1_555
C2 C1 1_555 1_555
H3 C2 1_555 1_555
H4 C2 1_555 1_555
C3 C1 1_555 1_555
H5 C3 1_555 1_555
H6 C3 1_555 1_555
C4 N1 1_555 1_555
C5 N1 1_555 1_555
C6 N2 1_555 1_555
H7 C6 1_555 1_555
C7 S1 1_555 1_555
H8 C7 1_555 1_555
C1 C4 1_555 1_555
C2 C3 1_555 1_555
C6 C7 1_555 1_555

#END
