
#######################################################################
#
#                 Cambridge Crystallographic Data Centre
#                                CCDC 
#
#######################################################################
#
# If this CIF has been generated from an entry in the Cambridge 
# Structural Database, then it will include bibliographic, chemical, 
# crystal, experimental, refinement or atomic coordinate data resulting 
# from the CCDC's data processing and validation procedures.
#
#######################################################################

data_VETMEN
_chemical_formula_moiety         'C19 H19 N5 O1'
_chemical_name_systematic        
2-Amino-4-(4-methoxyphenyl)-6-(piperidin-1-yl)pyridine-3,5-dicarbonitrile
_symmetry_cell_setting           monoclinic
_symmetry_space_group_name_H-M   'P 21'
_symmetry_Int_Tables_number      4
_space_group_name_Hall           'P 2yb'
loop_
_symmetry_equiv_pos_site_id
_symmetry_equiv_pos_as_xyz
1 x,y,z
2 -x,1/2+y,-z
_cell_length_a                   9.4430(7)
_cell_length_b                   7.5675(6)
_cell_length_c                   12.5714(9)
_cell_angle_alpha                90
_cell_angle_beta                 112.06
_cell_angle_gamma                90
_cell_volume                     832.584
_exptl_crystal_colour            colorless
_exptl_crystal_description       block
_cell_formula_units_Z            2
_exptl_crystal_recrystallization_method ethanol
loop_
_atom_site_label
_atom_site_type_symbol
_atom_site_fract_x
_atom_site_fract_y
_atom_site_fract_z
C1 C 0.0100(3) 0.3687(5) -0.3361(2)
H1 H -0.0064 0.4886 -0.3654
H2 H -0.0847 0.3258 -0.3320
C2 C 0.0562(3) 0.2523(5) -0.4154(2)
H3 H -0.0214 0.2584 -0.4922
H4 H 0.0630 0.1307 -0.3895
C3 C 0.2087(3) 0.3084(5) -0.4186(2)
H5 H 0.1975 0.4223 -0.4563
H6 H 0.2406 0.2233 -0.4628
C4 C 0.3309(3) 0.3214(5) -0.2977(2)
H7 H 0.3549 0.2042 -0.2645
H8 H 0.4234 0.3719 -0.3013
C5 C 0.2745(3) 0.4357(4) -0.2233(2)
H9 H 0.3507 0.4389 -0.1458
H10 H 0.2589 0.5555 -0.2529
C6 C 0.1059(3) 0.3268(3) -0.12637(19)
C7 C 0.2274(3) 0.2848(3) -0.01920(19)
C8 C 0.1965(3) 0.2817(3) 0.0812(2)
C9 C 0.0437(3) 0.3018(4) 0.0707(2)
C10 C -0.0715(3) 0.3057(4) -0.0415(2)
C11 C -0.0008(3) 0.3193(4) 0.1670(2)
C12 C 0.3706(3) 0.2199(4) -0.0168(2)
C13 C 0.3222(3) 0.2569(3) 0.1947(2)
C14 C 0.3060(3) 0.1456(4) 0.2767(2)
H11 H 0.2156 0.0826 0.2595
C15 C 0.4214(3) 0.1257(4) 0.3838(2)
H12 H 0.4084 0.0498 0.4376
C16 C 0.5561(3) 0.2195(4) 0.4102(2)
C17 C 0.5759(3) 0.3276(4) 0.3278(2)
H13 H 0.6679 0.3870 0.3442
C18 C 0.4604(3) 0.3474(4) 0.2219(2)
H14 H 0.4744 0.4219 0.1678
C19 C 0.6570(4) 0.1138(5) 0.6033(2)
H15 H 0.5662 0.1503 0.6144
H16 H 0.7441 0.1308 0.6732
H17 H 0.6488 -0.0089 0.5824
N1 N 0.1313(2) 0.3663(3) -0.22132(16)
N2 N -0.0413(2) 0.3216(3) -0.13549(16)
N3 N -0.0462(3) 0.3359(4) 0.2387(2)
N4 N 0.4820(3) 0.1622(4) -0.0175(2)
N5 N -0.2209(3) 0.2996(4) -0.0566(2)
O1 O 0.6748(2) 0.2166(3) 0.51393(14)
H18 H -0.241(3) 0.284(4) 0.0041(15)
H19 H -0.288(2) 0.302(4) -0.1256(12)
loop_
_geom_bond_atom_site_label_1
_geom_bond_atom_site_label_2
_geom_bond_site_symmetry_1
_geom_bond_site_symmetry_2
C1 H1 1_555 1_555
H2 C1 1_555 1_555
C2 C1 1_555 1_555
H3 C2 1_555 1_555
H4 C2 1_555 1_555
C3 C2 1_555 1_555
H5 C3 1_555 1_555
H6 C3 1_555 1_555
C4 C3 1_555 1_555
H7 C4 1_555 1_555
H8 C4 1_555 1_555
C5 C4 1_555 1_555
H9 C5 1_555 1_555
H10 C5 1_555 1_555
C6 C7 1_555 1_555
C7 C8 1_555 1_555
C8 C9 1_555 1_555
C9 C10 1_555 1_555
C10 N2 1_555 1_555
C11 C9 1_555 1_555
C12 C7 1_555 1_555
C13 C8 1_555 1_555
C14 C13 1_555 1_555
H11 C14 1_555 1_555
C15 C14 1_555 1_555
H12 C15 1_555 1_555
C16 C15 1_555 1_555
C17 C16 1_555 1_555
H13 C17 1_555 1_555
C18 C13 1_555 1_555
H14 C18 1_555 1_555
C19 H15 1_555 1_555
H16 C19 1_555 1_555
H17 C19 1_555 1_555
N1 C1 1_555 1_555
N2 C6 1_555 1_555
N3 C11 1_555 1_555
N4 C12 1_555 1_555
N5 C10 1_555 1_555
O1 C16 1_555 1_555
H18 N5 1_555 1_555
H19 N5 1_555 1_555
C5 N1 1_555 1_555
C6 N1 1_555 1_555
C17 C18 1_555 1_555
C19 O1 1_555 1_555

#END
