
#######################################################################
#
#                 Cambridge Crystallographic Data Centre
#                                CCDC 
#
#######################################################################
#
# If this CIF has been generated from an entry in the Cambridge 
# Structural Database, then it will include bibliographic, chemical, 
# crystal, experimental, refinement or atomic coordinate data resulting 
# from the CCDC's data processing and validation procedures.
#
#######################################################################

data_VETPOC
_chemical_formula_moiety         'C21 H14 F6 O1'
_chemical_name_systematic        
2,5-bis((E)-2-(trifluoromethyl)benzylidene)cyclopentan-1-one
_symmetry_cell_setting           triclinic
_symmetry_space_group_name_H-M   'P -1'
_symmetry_Int_Tables_number      2
_space_group_name_Hall           '-P 1'
loop_
_symmetry_equiv_pos_site_id
_symmetry_equiv_pos_as_xyz
1 x,y,z
2 -x,-y,-z
_cell_length_a                   7.8470(16)
_cell_length_b                   7.9390(16)
_cell_length_c                   14.993(3)
_cell_angle_alpha                83.25(3)
_cell_angle_beta                 89.18(3)
_cell_angle_gamma                73.79(3)
_cell_volume                     890.507
_exptl_crystal_colour            colorless
_exptl_crystal_description       block
_cell_formula_units_Z            2
loop_
_atom_site_label
_atom_site_type_symbol
_atom_site_fract_x
_atom_site_fract_y
_atom_site_fract_z
O1 O 0.3518(3) 0.1788(3) 0.12515(15)
F1 F 0.2333(4) -0.1261(4) 0.51161(16)
C1 C 0.2977(5) -0.2847(5) 0.3855(3)
F2 F 0.1382(4) 0.0185(3) 0.38446(16)
C2 C 0.2981(6) -0.4343(6) 0.4439(3)
H1 H 0.2831 -0.4267 0.5051
F3 F 0.4119(4) -0.0540(3) 0.41798(16)
C3 C 0.3207(6) -0.5934(6) 0.4112(3)
H2 H 0.3198 -0.6932 0.4503
F4 F 0.0923(5) 0.7135(4) -0.21608(18)
C4 C 0.3442(6) -0.6054(6) 0.3227(3)
H3 H 0.3614 -0.7137 0.3008
F5 F 0.3074(4) 0.5680(4) -0.12766(19)
C5 C 0.3425(6) -0.4567(6) 0.2647(3)
H4 H 0.3568 -0.4666 0.2037
F6 F 0.0446(4) 0.5745(3) -0.09335(18)
C6 C 0.3202(5) -0.2930(5) 0.2941(3)
C7 C 0.2711(7) -0.1148(7) 0.4241(3)
C8 C 0.3224(5) -0.1373(5) 0.2300(3)
H5 H 0.3457 -0.0451 0.2560
C9 C 0.2966(5) -0.1071(5) 0.1416(3)
C10 C 0.2523(5) -0.2174(5) 0.0759(2)
H6 H 0.1384 -0.2389 0.0893
H7 H 0.3421 -0.3302 0.0784
C11 C 0.2460(5) -0.1119(5) -0.0179(2)
H8 H 0.3397 -0.1740 -0.0549
H9 H 0.1327 -0.0962 -0.0477
C12 C 0.2704(5) 0.0626(5) -0.0040(2)
C13 C 0.3126(5) 0.0609(5) 0.0919(2)
C14 C 0.2613(5) 0.2052(5) -0.0631(2)
H10 H 0.2824 0.3005 -0.0392
C15 C 0.2229(5) 0.2331(5) -0.1600(2)
C16 C 0.2400(5) 0.0915(5) -0.2090(3)
H11 H 0.2774 -0.0230 -0.1798
C17 C 0.2023(6) 0.1174(7) -0.3013(3)
H12 H 0.2120 0.0207 -0.3325
C18 C 0.1514(6) 0.2838(7) -0.3455(3)
H13 H 0.1281 0.3011 -0.4070
C19 C 0.1347(6) 0.4255(6) -0.2989(3)
H14 H 0.0989 0.5393 -0.3290
C20 C 0.1705(5) 0.4016(6) -0.2071(3)
C21 C 0.1536(8) 0.5632(7) -0.1621(4)
loop_
_geom_bond_atom_site_label_1
_geom_bond_atom_site_label_2
_geom_bond_site_symmetry_1
_geom_bond_site_symmetry_2
O1 C13 1_555 1_555
F1 C7 1_555 1_555
C1 C2 1_555 1_555
F2 C7 1_555 1_555
C2 H1 1_555 1_555
F3 C7 1_555 1_555
C3 C2 1_555 1_555
H2 C3 1_555 1_555
F4 C21 1_555 1_555
C4 C3 1_555 1_555
H3 C4 1_555 1_555
F5 C21 1_555 1_555
C5 C4 1_555 1_555
H4 C5 1_555 1_555
F6 C21 1_555 1_555
C6 C1 1_555 1_555
C7 C1 1_555 1_555
C8 C6 1_555 1_555
H5 C8 1_555 1_555
C9 C8 1_555 1_555
C10 C9 1_555 1_555
H6 C10 1_555 1_555
H7 C10 1_555 1_555
C11 C10 1_555 1_555
H8 C11 1_555 1_555
H9 C11 1_555 1_555
C12 C11 1_555 1_555
C13 C9 1_555 1_555
C14 C12 1_555 1_555
H10 C14 1_555 1_555
C15 C14 1_555 1_555
C16 C15 1_555 1_555
H11 C16 1_555 1_555
C17 C16 1_555 1_555
H12 C17 1_555 1_555
C18 C17 1_555 1_555
H13 C18 1_555 1_555
C19 C18 1_555 1_555
H14 C19 1_555 1_555
C20 C15 1_555 1_555
C21 C20 1_555 1_555
C5 C6 1_555 1_555
C12 C13 1_555 1_555
C19 C20 1_555 1_555

#END
