
#######################################################################
#
#                 Cambridge Crystallographic Data Centre
#                                CCDC 
#
#######################################################################
#
# If this CIF has been generated from an entry in the Cambridge 
# Structural Database, then it will include bibliographic, chemical, 
# crystal, experimental, refinement or atomic coordinate data resulting 
# from the CCDC's data processing and validation procedures.
#
#######################################################################

data_VETQUI
_chemical_formula_moiety         'C4 H8 N12,2(H2 O1)'
_chemical_name_systematic        
"4,4'-Diazene-1,2-diylbis(4H-1,2,4-triazole-3,5-diamine) dihydrate"
_symmetry_cell_setting           monoclinic
_symmetry_space_group_name_H-M   'P 21/c'
_symmetry_Int_Tables_number      14
_space_group_name_Hall           '-P 2ybc'
loop_
_symmetry_equiv_pos_site_id
_symmetry_equiv_pos_as_xyz
1 x,y,z
2 -x,1/2+y,1/2-z
3 -x,-y,-z
4 x,1/2-y,1/2+z
_cell_length_a                   9.874(3)
_cell_length_b                   15.901(4)
_cell_length_c                   6.7279(17)
_cell_angle_alpha                90
_cell_angle_beta                 95.750(4)
_cell_angle_gamma                90
_cell_volume                     1051.01
_exptl_crystal_colour            yellow
_exptl_crystal_description       prism
_cell_formula_units_Z            4
loop_
_atom_site_label
_atom_site_type_symbol
_atom_site_fract_x
_atom_site_fract_y
_atom_site_fract_z
O1 O 1.35470(11) 0.54834(7) 0.28934(17)
H1 H 1.394(3) 0.5813(17) 0.399(4)
H2 H 1.360(2) 0.4924(17) 0.327(4)
O2 O 0.12197(12) 0.77255(7) 0.0463(2)
H3 H 0.096(2) 0.7957(15) -0.067(4)
H4 H 0.136(2) 0.8203(15) 0.130(4)
N1 N 0.62501(12) 0.87258(8) 0.11292(19)
N2 N 0.49020(12) 0.84021(8) 0.07355(19)
N3 N 0.63331(12) 0.73432(7) 0.11532(18)
N4 N 0.66898(12) 0.65090(7) 0.13878(18)
N5 N 0.79580(12) 0.64258(7) 0.15779(18)
N6 N 0.83656(12) 0.56134(7) 0.18750(19)
N7 N 0.99067(13) 0.46320(8) 0.2569(2)
N8 N 0.85873(13) 0.42716(8) 0.2582(2)
N9 N 0.84285(14) 0.81294(8) 0.1978(2)
N10 N 0.39443(14) 0.70225(8) 0.03916(19)
N11 N 1.07270(14) 0.60258(8) 0.2105(2)
N12 N 0.63258(14) 0.47652(8) 0.1978(2)
C1 C 0.70813(15) 0.80934(9) 0.1398(2)
C2 C 0.49811(15) 0.75823(9) 0.0769(2)
C3 C 0.97440(15) 0.54235(9) 0.2164(2)
C4 C 0.76862(15) 0.48572(9) 0.2175(2)
H5 H 0.8810(18) 0.8683(13) 0.201(3)
H6 H 0.896(2) 0.7733(14) 0.157(3)
H7 H 0.4092(18) 0.6554(13) 0.085(3)
H8 H 0.319(2) 0.7229(12) 0.036(3)
H9 H 1.153(2) 0.5831(12) 0.232(3)
H10 H 1.0594(19) 0.6377(13) 0.124(3)
H11 H 0.580(2) 0.5236(15) 0.200(3)
H12 H 0.601(2) 0.4240(15) 0.243(3)
loop_
_geom_bond_atom_site_label_1
_geom_bond_atom_site_label_2
_geom_bond_site_symmetry_1
_geom_bond_site_symmetry_2
O1 H1 1_555 1_555
O2 H3 1_555 1_555
N1 N2 1_555 1_555
N2 C2 1_555 1_555
N3 N4 1_555 1_555
N4 N5 1_555 1_555
N5 N6 1_555 1_555
N6 C3 1_555 1_555
N7 N8 1_555 1_555
N8 C4 1_555 1_555
N9 C1 1_555 1_555
N10 C2 1_555 1_555
N11 C3 1_555 1_555
N12 C4 1_555 1_555
C1 N1 1_555 1_555
C2 N3 1_555 1_555
C3 N7 1_555 1_555
C4 N6 1_555 1_555
H2 O1 1_555 1_555
H4 O2 1_555 1_555
H5 N9 1_555 1_555
H6 N9 1_555 1_555
H7 N10 1_555 1_555
H8 N10 1_555 1_555
H9 N11 1_555 1_555
H10 N11 1_555 1_555
H11 N12 1_555 1_555
H12 N12 1_555 1_555
N3 C1 1_555 1_555

#END
