
#######################################################################
#
#                 Cambridge Crystallographic Data Centre
#                                CCDC 
#
#######################################################################
#
# If this CIF has been generated from an entry in the Cambridge 
# Structural Database, then it will include bibliographic, chemical, 
# crystal, experimental, refinement or atomic coordinate data resulting 
# from the CCDC's data processing and validation procedures.
#
#######################################################################

data_VETRIX
_chemical_formula_moiety         'C25 H24 N6 O3'
_chemical_name_systematic        
2-(1-Benzyl-3,7-dimethyl-2,6-dioxo-2,3,6,7-tetrahydro-1H-purin-8-yl)-N,N-dimethyl-1H-indole-1-carboxamide
_symmetry_cell_setting           monoclinic
_symmetry_space_group_name_H-M   'P 21/c'
_symmetry_Int_Tables_number      14
_space_group_name_Hall           '-P 2ybc'
loop_
_symmetry_equiv_pos_site_id
_symmetry_equiv_pos_as_xyz
1 x,y,z
2 -x,1/2+y,1/2-z
3 -x,-y,-z
4 x,1/2-y,1/2+z
_cell_length_a                   27.9969(11)
_cell_length_b                   13.6940(7)
_cell_length_c                   12.0587(4)
_cell_angle_alpha                90
_cell_angle_beta                 99.237(3)
_cell_angle_gamma                90
_cell_volume                     4563.23
_exptl_crystal_colour            yellow
_cell_formula_units_Z            8
loop_
_atom_site_label
_atom_site_type_symbol
_atom_site_fract_x
_atom_site_fract_y
_atom_site_fract_z
O1 O 0.13814(9) 0.1793(2) 0.3792(2)
O2 O 0.16405(7) 0.46162(17) 0.58335(18)
O3 O -0.04234(8) 0.22326(17) 0.70458(17)
N1 N -0.06859(8) 0.37543(18) 0.63976(17)
N2 N 0.05819(7) 0.44244(16) 0.61919(16)
N3 N 0.01197(8) 0.32246(18) 0.53333(18)
N4 N 0.07411(9) 0.2425(2) 0.4482(2)
N5 N 0.15055(8) 0.3191(2) 0.48207(19)
N6 N -0.09448(9) 0.23128(19) 0.54158(19)
C1 C -0.10303(10) 0.4242(2) 0.6898(2)
C2 C -0.08416(10) 0.5154(2) 0.7260(2)
C3 C -0.11261(11) 0.5801(3) 0.7784(2)
H1 H -0.1008 0.6410 0.8036
C4 C -0.15820(12) 0.5508(3) 0.7913(3)
H2 H -0.1775 0.5928 0.8257
C5 C -0.17629(12) 0.4602(3) 0.7544(3)
H3 H -0.2075 0.4431 0.7644
C6 C -0.14933(10) 0.3948(3) 0.7033(2)
H4 H -0.1615 0.3340 0.6790
C7 C -0.03671(10) 0.5209(2) 0.6983(2)
H5 H -0.0156 0.5736 0.7120
C8 C -0.02763(9) 0.4351(2) 0.6481(2)
C9 C 0.01361(9) 0.4011(2) 0.6001(2)
C10 C 0.05760(10) 0.3143(2) 0.5125(2)
C11 C 0.08713(9) 0.3857(2) 0.5618(2)
C12 C 0.13594(10) 0.3966(2) 0.5474(2)
C13 C 0.12166(12) 0.2428(3) 0.4336(2)
C14 C 0.07439(11) 0.5244(2) 0.6915(3)
H6 H 0.1090 0.5290 0.7007
H7 H 0.0646 0.5150 0.7635
H8 H 0.0603 0.5835 0.6583
C15 C 0.04197(13) 0.1640(3) 0.4003(3)
H9 H 0.0443 0.1104 0.4522
H10 H 0.0513 0.1426 0.3311
H11 H 0.0092 0.1875 0.3863
C16 C -0.06692(11) 0.2697(2) 0.6309(2)
C17 C -0.12235(13) 0.2863(3) 0.4513(3)
H12 H -0.1241 0.3533 0.4736
H13 H -0.1544 0.2597 0.4347
H14 H -0.1071 0.2824 0.3857
C18 C -0.09031(14) 0.1267(3) 0.5229(3)
H15 H -0.0578 0.1060 0.5499
H16 H -0.0982 0.1130 0.4440
H17 H -0.1122 0.0922 0.5626
C19 C 0.20100(10) 0.3208(3) 0.4618(2)
H18 H 0.2123 0.3879 0.4642
H19 H 0.2022 0.2955 0.3872
C20 C 0.23432(10) 0.2616(2) 0.5466(2)
C21 C 0.25102(12) 0.1722(3) 0.5184(3)
H20 H 0.2423 0.1485 0.4457
C22 C 0.28083(13) 0.1168(3) 0.5972(4)
H21 H 0.2918 0.0564 0.5769
C23 C 0.29406(12) 0.1496(3) 0.7031(4)
H22 H 0.3144 0.1125 0.7554
C24 C 0.27734(12) 0.2378(3) 0.7327(3)
H23 H 0.2860 0.2607 0.8058
C25 C 0.24753(11) 0.2933(3) 0.6546(3)
H24 H 0.2363 0.3532 0.6758
O4 O 0.35018(7) 0.75296(18) 0.62011(16)
O5 O 0.30873(7) 0.58067(17) 0.29317(17)
O6 O 0.54694(7) 0.76752(16) 0.30804(16)
N7 N 0.55156(7) 0.59946(17) 0.31875(18)
N8 N 0.41834(7) 0.57249(16) 0.28555(16)
N9 N 0.47058(7) 0.63675(17) 0.42721(17)
N10 N 0.41177(8) 0.69745(17) 0.53587(16)
N11 N 0.33030(8) 0.66716(18) 0.45720(18)
N12 N 0.58288(9) 0.69922(18) 0.47015(19)
C26 C 0.58604(10) 0.5521(2) 0.2679(2)
C27 C 0.56258(11) 0.4777(2) 0.1994(2)
C28 C 0.59011(13) 0.4182(3) 0.1397(3)
H25 H 0.5756 0.3684 0.0938
C29 C 0.63853(15) 0.4344(3) 0.1498(3)
H26 H 0.6570 0.3952 0.1101
C30 C 0.66103(13) 0.5081(3) 0.2180(3)
H27 H 0.6942 0.5170 0.2231
C31 C 0.63538(11) 0.5686(3) 0.2783(3)
H28 H 0.6505 0.6181 0.3238
C32 C 0.51283(10) 0.4822(2) 0.2094(2)
H29 H 0.4886 0.4414 0.1736
C33 C 0.50664(9) 0.5572(2) 0.2808(2)
C34 C 0.46532(9) 0.5881(2) 0.3288(2)
C35 C 0.42470(9) 0.65137(19) 0.4440(2)
C36 C 0.39135(9) 0.6140(2) 0.3605(2)
C37 C 0.34088(10) 0.6165(2) 0.3619(2)
C38 C 0.36364(11) 0.7091(2) 0.5433(2)
C39 C 0.39830(10) 0.5259(2) 0.1786(2)
H30 H 0.3982 0.4563 0.1883
H31 H 0.4178 0.5425 0.1228
H32 H 0.3658 0.5484 0.1548
C40 C 0.44888(11) 0.7334(2) 0.6253(2)
H33 H 0.4753 0.6878 0.6376
H34 H 0.4354 0.7405 0.6932
H35 H 0.4604 0.7956 0.6042
C41 C 0.55932(9) 0.6970(2) 0.3652(2)
C42 C 0.59010(14) 0.6143(3) 0.5432(3)
H36 H 0.5709 0.5610 0.5089
H37 H 0.5805 0.6297 0.6141
H38 H 0.6237 0.5962 0.5549
C43 C 0.59335(15) 0.7947(3) 0.5222(3)
H39 H 0.6071 0.8364 0.4716
H40 H 0.6159 0.7872 0.5905
H41 H 0.5640 0.8232 0.5386
C44 C 0.27899(10) 0.6751(2) 0.4704(2)
H42 H 0.2766 0.6696 0.5495
H43 H 0.2613 0.6210 0.4316
C45 C 0.25567(9) 0.7692(2) 0.4259(2)
C46 C 0.24695(11) 0.7889(3) 0.3118(2)
H44 H 0.2569 0.7444 0.2619
C47 C 0.22391(11) 0.8730(3) 0.2715(3)
H45 H 0.2185 0.8846 0.1945
C48 C 0.20868(11) 0.9401(3) 0.3420(3)
H46 H 0.1927 0.9966 0.3139
C49 C 0.21761(13) 0.9221(3) 0.4552(3)
H47 H 0.2078 0.9672 0.5047
C50 C 0.24104(12) 0.8376(3) 0.4967(3)
H48 H 0.2470 0.8268 0.5739
loop_
_geom_bond_atom_site_label_1
_geom_bond_atom_site_label_2
_geom_bond_site_symmetry_1
_geom_bond_site_symmetry_2
O1 C13 1_555 1_555
O2 C12 1_555 1_555
O3 C16 1_555 1_555
O4 C38 1_555 1_555
O5 C37 1_555 1_555
O6 C41 1_555 1_555
N1 C1 1_555 1_555
N2 C9 1_555 1_555
N3 C9 1_555 1_555
N4 C10 1_555 1_555
N5 C12 1_555 1_555
N6 C16 1_555 1_555
N7 C26 1_555 1_555
N8 C34 1_555 1_555
N9 C34 1_555 1_555
N10 C35 1_555 1_555
N11 C37 1_555 1_555
N12 C41 1_555 1_555
C1 C2 1_555 1_555
C2 C3 1_555 1_555
C3 H1 1_555 1_555
C4 C3 1_555 1_555
H2 C4 1_555 1_555
C5 C4 1_555 1_555
H3 C5 1_555 1_555
C6 C1 1_555 1_555
H4 C6 1_555 1_555
C7 C2 1_555 1_555
H5 C7 1_555 1_555
C8 N1 1_555 1_555
C9 C8 1_555 1_555
C10 N3 1_555 1_555
C11 N2 1_555 1_555
C12 C11 1_555 1_555
C13 N4 1_555 1_555
C14 N2 1_555 1_555
H6 C14 1_555 1_555
H7 C14 1_555 1_555
H8 C14 1_555 1_555
C15 N4 1_555 1_555
H9 C15 1_555 1_555
H10 C15 1_555 1_555
H11 C15 1_555 1_555
C16 N1 1_555 1_555
C17 N6 1_555 1_555
H12 C17 1_555 1_555
H13 C17 1_555 1_555
H14 C17 1_555 1_555
C18 N6 1_555 1_555
H15 C18 1_555 1_555
H16 C18 1_555 1_555
H17 C18 1_555 1_555
C19 N5 1_555 1_555
H18 C19 1_555 1_555
H19 C19 1_555 1_555
C20 C19 1_555 1_555
C21 C20 1_555 1_555
H20 C21 1_555 1_555
C22 C21 1_555 1_555
H21 C22 1_555 1_555
C23 C22 1_555 1_555
H22 C23 1_555 1_555
C24 C23 1_555 1_555
H23 C24 1_555 1_555
C25 C20 1_555 1_555
H24 C25 1_555 1_555
C26 C27 1_555 1_555
C27 C28 1_555 1_555
C28 H25 1_555 1_555
C29 C28 1_555 1_555
H26 C29 1_555 1_555
C30 C29 1_555 1_555
H27 C30 1_555 1_555
C31 C26 1_555 1_555
H28 C31 1_555 1_555
C32 C27 1_555 1_555
H29 C32 1_555 1_555
C33 N7 1_555 1_555
C34 C33 1_555 1_555
C35 N9 1_555 1_555
C36 N8 1_555 1_555
C37 C36 1_555 1_555
C38 N10 1_555 1_555
C39 N8 1_555 1_555
H30 C39 1_555 1_555
H31 C39 1_555 1_555
H32 C39 1_555 1_555
C40 N10 1_555 1_555
H33 C40 1_555 1_555
H34 C40 1_555 1_555
H35 C40 1_555 1_555
C41 N7 1_555 1_555
C42 N12 1_555 1_555
H36 C42 1_555 1_555
H37 C42 1_555 1_555
H38 C42 1_555 1_555
C43 N12 1_555 1_555
H39 C43 1_555 1_555
H40 C43 1_555 1_555
H41 C43 1_555 1_555
C44 N11 1_555 1_555
H42 C44 1_555 1_555
H43 C44 1_555 1_555
C45 C44 1_555 1_555
C46 C45 1_555 1_555
H44 C46 1_555 1_555
C47 C46 1_555 1_555
H45 C47 1_555 1_555
C48 C47 1_555 1_555
H46 C48 1_555 1_555
C49 C48 1_555 1_555
H47 C49 1_555 1_555
C50 C45 1_555 1_555
H48 C50 1_555 1_555
N5 C13 1_555 1_555
N11 C38 1_555 1_555
C5 C6 1_555 1_555
C7 C8 1_555 1_555
C10 C11 1_555 1_555
C24 C25 1_555 1_555
C30 C31 1_555 1_555
C32 C33 1_555 1_555
C35 C36 1_555 1_555
C49 C50 1_555 1_555

#END
