
#######################################################################
#
#                 Cambridge Crystallographic Data Centre
#                                CCDC 
#
#######################################################################
#
# If this CIF has been generated from an entry in the Cambridge 
# Structural Database, then it will include bibliographic, chemical, 
# crystal, experimental, refinement or atomic coordinate data resulting 
# from the CCDC's data processing and validation procedures.
#
#######################################################################

data_VETRET
_chemical_formula_moiety         'C18 H13 N3 O1'
_chemical_name_systematic        
2-(1-(Pyridin-2-yl)-1H-indol-2-yl)-1\l^5^-pyridin-1-ol
_symmetry_cell_setting           monoclinic
_symmetry_space_group_name_H-M   'P 21/c'
_symmetry_Int_Tables_number      14
_space_group_name_Hall           '-P 2ybc'
loop_
_symmetry_equiv_pos_site_id
_symmetry_equiv_pos_as_xyz
1 x,y,z
2 -x,1/2+y,1/2-z
3 -x,-y,-z
4 x,1/2-y,1/2+z
_cell_length_a                   11.0433(4)
_cell_length_b                   11.0523(4)
_cell_length_c                   11.6809(5)
_cell_angle_alpha                90
_cell_angle_beta                 99.952(4)
_cell_angle_gamma                90
_cell_volume                     1404.25
_exptl_crystal_colour            yellow
_exptl_crystal_description       block
_cell_formula_units_Z            4
loop_
_atom_site_label
_atom_site_type_symbol
_atom_site_fract_x
_atom_site_fract_y
_atom_site_fract_z
O1 O 0.13530(11) 0.76112(13) 0.29464(11)
N1 N 0.27510(10) 0.93837(12) 0.17687(10)
N2 N 0.14663(11) 0.84415(14) 0.37433(12)
N3 N 0.42297(11) 0.91899(13) 0.34264(10)
C1 C 0.26397(12) 0.98397(15) 0.06446(12)
C2 C 0.16248(12) 1.06210(14) 0.04598(12)
C3 C 0.13247(14) 1.12188(17) -0.06044(12)
H1 H 0.0642 1.1724 -0.0752
C4 C 0.20534(17) 1.10475(18) -0.14279(14)
H2 H 0.1868 1.1451 -0.2135
C5 C 0.30643(16) 1.02799(19) -0.12242(14)
H3 H 0.3543 1.0184 -0.1799
C6 C 0.33756(14) 0.96594(17) -0.01972(14)
H4 H 0.4049 0.9141 -0.0069
C7 C 0.11280(13) 1.06407(15) 0.15120(12)
H5 H 0.0451 1.1087 0.1643
C8 C 0.18155(12) 0.98961(14) 0.22833(12)
C9 C 0.16711(12) 0.96219(15) 0.34706(13)
C10 C 0.17199(13) 1.04889(19) 0.43126(14)
H6 H 0.1833 1.1293 0.4122
C11 C 0.16069(17) 1.0202(2) 0.54280(16)
H7 H 0.1629 1.0804 0.5988
C12 C 0.14600(15) 0.9010(3) 0.57052(17)
H8 H 0.1410 0.8790 0.6464
C13 C 0.13882(14) 0.8153(2) 0.48583(16)
H9 H 0.1283 0.7347 0.5049
C14 C 0.37732(12) 0.87378(15) 0.23913(13)
C15 C 0.42373(13) 0.77287(16) 0.19263(15)
H10 H 0.3883 0.7437 0.1198
C16 C 0.52403(15) 0.71653(17) 0.25709(18)
H11 H 0.5588 0.6492 0.2278
C17 C 0.57200(15) 0.76081(19) 0.36494(17)
H12 H 0.6393 0.7238 0.4104
C18 C 0.51873(14) 0.86067(18) 0.40421(15)
H13 H 0.5509 0.8897 0.4779
loop_
_geom_bond_atom_site_label_1
_geom_bond_atom_site_label_2
_geom_bond_site_symmetry_1
_geom_bond_site_symmetry_2
O1 N2 1_555 1_555
N1 C1 1_555 1_555
N2 C9 1_555 1_555
N3 C14 1_555 1_555
C1 C2 1_555 1_555
C2 C3 1_555 1_555
C3 H1 1_555 1_555
C4 C3 1_555 1_555
H2 C4 1_555 1_555
C5 C4 1_555 1_555
H3 C5 1_555 1_555
C6 C1 1_555 1_555
H4 C6 1_555 1_555
C7 C2 1_555 1_555
H5 C7 1_555 1_555
C8 N1 1_555 1_555
C9 C8 1_555 1_555
C10 C9 1_555 1_555
H6 C10 1_555 1_555
C11 C10 1_555 1_555
H7 C11 1_555 1_555
C12 C11 1_555 1_555
H8 C12 1_555 1_555
C13 N2 1_555 1_555
H9 C13 1_555 1_555
C14 N1 1_555 1_555
C15 C14 1_555 1_555
H10 C15 1_555 1_555
C16 C15 1_555 1_555
H11 C16 1_555 1_555
C17 C16 1_555 1_555
H12 C17 1_555 1_555
C18 N3 1_555 1_555
H13 C18 1_555 1_555
C5 C6 1_555 1_555
C7 C8 1_555 1_555
C12 C13 1_555 1_555
C17 C18 1_555 1_555

#END
