
#######################################################################
#
#                 Cambridge Crystallographic Data Centre
#                                CCDC 
#
#######################################################################
#
# If this CIF has been generated from an entry in the Cambridge 
# Structural Database, then it will include bibliographic, chemical, 
# crystal, experimental, refinement or atomic coordinate data resulting 
# from the CCDC's data processing and validation procedures.
#
#######################################################################

data_VETXEX10
_chemical_formula_moiety         'C2 H16 B10 Si2,C6 H6'
_chemical_name_systematic        
'1,2-Dimethyl-1,2-disila-closo-dodecaborane(12) benzene solvate'
_symmetry_cell_setting           orthorhombic
_symmetry_space_group_name_H-M   'P c c n'
_symmetry_Int_Tables_number      56
_space_group_name_Hall           '-P 2ab 2ac'
loop_
_symmetry_equiv_pos_site_id
_symmetry_equiv_pos_as_xyz
1 x,y,z
2 1/2-x,y,1/2+z
3 x,1/2-y,1/2+z
4 1/2-x,1/2-y,z
5 -x,-y,-z
6 1/2+x,-y,1/2-z
7 -x,1/2+y,1/2-z
8 1/2+x,1/2+y,-z
_cell_length_a                   10.081(1)
_cell_length_b                   10.666(8)
_cell_length_c                   16.130(5)
_cell_angle_alpha                90
_cell_angle_beta                 90
_cell_angle_gamma                90
_cell_volume                     1734.36
_exptl_crystal_colour            white
_chemical_melting_point          210-203deg.C
_cell_formula_units_Z            4
_chemical_properties_physical    Air-sensitive
loop_
_atom_site_label
_atom_site_type_symbol
_atom_site_fract_x
_atom_site_fract_y
_atom_site_fract_z
Si1 Si 0.16614(7) 0.67636(7) 0.35177(4)
C1 C 0.0923(3) 0.6097(3) 0.4454(2)
B1 B 0.2063(4) 0.5925(3) 0.2425(2)
B2 B 0.0804(3) 0.7198(4) 0.2425(2)
B3 B 0.1858(4) 0.6931(4) 0.1566(2)
B4 B 0.1443(3) 0.8572(3) 0.2999(2)
B5 B 0.3483(4) 0.6512(4) 0.1904(2)
H1 H 0.1733 0.4947 0.2437
H2 H -0.0232 0.6939 0.2434
H3 H 0.1419 0.6585 0.0994
H4 H 0.0792 0.9203 0.3279
H5 H 0.4076 0.5907 0.1573
H6 H 0.1175 0.6405 0.4848
H7 H 0.0105 0.6038 0.4419
H8 H 0.1026 0.5254 0.4460
Si1C Si 0.33386(7) 0.82364(7) 0.35177(4)
B4C B 0.3557(3) 0.6428(3) 0.2999(2)
B5C B 0.1517(4) 0.8488(4) 0.1904(2)
B3C B 0.3142(4) 0.8069(4) 0.1566(2)
B1C B 0.2937(4) 0.9075(3) 0.2425(2)
B2C B 0.4196(3) 0.7802(4) 0.2425(2)
C1C C 0.4077(3) 0.8903(3) 0.4454(2)
H4C H 0.4208 0.5797 0.3279
H5C H 0.0924 0.9093 0.1573
H3C H 0.3581 0.8415 0.0994
H1C H 0.3267 1.0053 0.2437
H2C H 0.5232 0.8061 0.2434
H6C H 0.3825 0.8595 0.4848
H7C H 0.4895 0.8962 0.4419
H8C H 0.3974 0.9746 0.4460
C2 C 0.2889(8) 0.1966(7) 0.0798(5)
C3 C 0.3300(8) 0.1434(8) 0.0057(5)
C4 C 0.2915(8) 0.1967(8) -0.0670(5)
H9 H 0.3132 0.1563 0.1307
H10 H 0.3886 0.0691 0.0042
H11 H 0.3210 0.1614 -0.1186
C2C C 0.2111(8) 0.3034(7) 0.0798(5)
C4C C 0.2085(8) 0.3033(8) -0.0670(5)
C3C C 0.1700(8) 0.3566(8) 0.0057(5)
H9C H 0.1868 0.3437 0.1307
H11C H 0.1790 0.3386 -0.1186
H10C H 0.1114 0.4309 0.0042
C5? C 0.25000 0.25000 0.0915(7)
C6? C 0.3175(9) 0.1578(8) 0.0493(6)
C7? C 0.321(1) 0.163(1) -0.0347(6)
C8? C 0.25000 0.25000 -0.0765(7)
H12? H 0.25000 0.25000 0.1516
H13? H 0.3649 0.0903 0.0766
H14? H 0.3746 0.1015 -0.0646
H15? H 0.25000 0.25000 -0.1368
loop_
_geom_bond_atom_site_label_1
_geom_bond_atom_site_label_2
_geom_bond_site_symmetry_1
_geom_bond_site_symmetry_2
Si1 C1 1_555 1_555
C1 H6 1_555 1_555
C2 C3 1_555 1_555
C3 C4 1_555 1_555
C4 H11 1_555 1_555
B1 Si1 1_555 1_555
B2 Si1 1_555 1_555
B3 B1 1_555 1_555
B4 Si1 1_555 1_555
B5 B1 1_555 1_555
H1 B1 1_555 1_555
H2 B2 1_555 1_555
H3 B3 1_555 1_555
H4 B4 1_555 1_555
H5 B5 1_555 1_555
H7 C1 1_555 1_555
H8 C1 1_555 1_555
H9 C2 1_555 1_555
H10 C3 1_555 1_555
Si1C Si1 1_555 1_555
B4C Si1 1_555 1_555
B5C B2 1_555 1_555
B3C B3 1_555 1_555
B1C B4 1_555 1_555
B2C B5 1_555 1_555
C1C Si1C 1_555 1_555
H4C B4C 1_555 1_555
H5C B5C 1_555 1_555
H3C B3C 1_555 1_555
H1C B1C 1_555 1_555
H2C B2C 1_555 1_555
H6C C1C 1_555 1_555
H7C C1C 1_555 1_555
H8C C1C 1_555 1_555
C2C C2 1_555 1_555
C4C C4 1_555 1_555
C3C C2C 1_555 1_555
H9C C2C 1_555 1_555
H11C C4C 1_555 1_555
H10C C3C 1_555 1_555
B1 B2 1_555 1_555
B1 B4C 1_555 1_555
B2 B3 1_555 1_555
B2 B4 1_555 1_555
B3 B5 1_555 1_555
B3 B5C 1_555 1_555
B4 Si1C 1_555 1_555
B4 B5C 1_555 1_555
B5 B3C 1_555 1_555
B5 B4C 1_555 1_555
Si1C B1C 1_555 1_555
Si1C B2C 1_555 1_555
Si1C B4C 1_555 1_555
B4C B2C 1_555 1_555
B5C B1C 1_555 1_555
B5C B3C 1_555 1_555
B3C B1C 1_555 1_555
B3C B2C 1_555 1_555
B1C B2C 1_555 1_555
C4C C3C 1_555 1_555

#END
