
#######################################################################
#
#                 Cambridge Crystallographic Data Centre
#                                CCDC 
#
#######################################################################
#
# If this CIF has been generated from an entry in the Cambridge 
# Structural Database, then it will include bibliographic, chemical, 
# crystal, experimental, refinement or atomic coordinate data resulting 
# from the CCDC's data processing and validation procedures.
#
#######################################################################

data_VETYUR
_chemical_formula_moiety         'C4 H22 B20 S2'
_chemical_name_systematic        bis(1,2-dicarba-closo-dodecaboranyl)disulfide
_symmetry_cell_setting           orthorhombic
_symmetry_space_group_name_H-M   'P n a 21'
_symmetry_Int_Tables_number      33
_space_group_name_Hall           'P 2c -2n'
loop_
_symmetry_equiv_pos_site_id
_symmetry_equiv_pos_as_xyz
1 x,y,z
2 -x,-y,1/2+z
3 1/2-x,1/2+y,1/2+z
4 1/2+x,1/2-y,z
_cell_length_a                   23.5545(7)
_cell_length_b                   6.98845(19)
_cell_length_c                   11.5542(3)
_cell_angle_alpha                90
_cell_angle_beta                 90
_cell_angle_gamma                90
_cell_volume                     1901.93
_exptl_crystal_colour            colorless
_exptl_crystal_description       plate
_cell_formula_units_Z            4
loop_
_atom_site_label
_atom_site_type_symbol
_atom_site_fract_x
_atom_site_fract_y
_atom_site_fract_z
S1 S -0.35077(3) -0.93334(12) -0.33586(9)
S2 S -0.36727(4) -1.21437(11) -0.31147(8)
C1 C -0.28592(14) -0.8863(5) -0.2573(3)
C2 C -0.22940(14) -0.8481(5) -0.3401(3)
H1 H -0.2314 -0.8682 -0.4344
C3 C -0.42049(15) -1.2248(5) -0.1995(3)
C4 C -0.48384(15) -1.3000(6) -0.2450(4)
H2 H -0.4924 -1.3224 -0.3376
B1 B -0.26477(18) -0.6547(6) -0.2820(4)
H3 H -0.2894 -0.5498 -0.3322
B2 B -0.18887(19) -0.6653(6) -0.2891(4)
H4 H -0.1642 -0.5657 -0.3431
B3 B -0.16809(18) -0.9086(6) -0.2724(4)
H5 H -0.1299 -0.9650 -0.3155
B4 B -0.23124(17) -1.0502(6) -0.2560(4)
H6 H -0.2345 -1.1971 -0.2895
B5 B -0.26595(17) -0.9778(6) -0.1266(4)
H7 H -0.2913 -1.0790 -0.0751
B6 B -0.28625(18) -0.7333(6) -0.1420(4)
H8 H -0.3247 -0.6772 -0.1000
B7 B -0.22464(18) -0.7927(6) -0.0635(4)
H9 H -0.2226 -0.7740 0.0309
B8 B -0.19040(17) -0.9893(6) -0.1329(4)
H10 H -0.1663 -1.0980 -0.0846
B9 B -0.16433(19) -0.7493(7) -0.1520(4)
H11 H -0.1235 -0.7024 -0.1154
B10 B -0.22425(19) -0.5923(6) -0.1591(4)
H12 H -0.2222 -0.4438 -0.1278
B11 B -0.47709(19) -1.0675(6) -0.1995(4)
H13 H -0.4805 -0.9407 -0.2555
B12 B -0.42746(18) -1.0802(6) -0.0823(4)
H14 H -0.3991 -0.9599 -0.0616
B13 B -0.40473(17) -1.3229(6) -0.0683(4)
H15 H -0.3617 -1.3581 -0.0382
B14 B -0.43931(18) -1.4605(6) -0.1779(4)
H16 H -0.4187 -1.5829 -0.2205
B15 B -0.51410(19) -1.4545(7) -0.1510(4)
H17 H -0.5419 -1.5746 -0.1749
B16 B -0.53705(19) -1.2129(7) -0.1635(5)
H18 H -0.5799 -1.1781 -0.1952
B17 B -0.50251(19) -1.0738(7) -0.0553(4)
H19 H -0.5231 -0.9484 -0.0158
B18 B -0.45778(19) -1.2328(6) 0.0266(4)
H20 H -0.4496 -1.2101 0.1194
B19 B -0.52480(19) -1.3138(7) -0.0241(4)
H21 H -0.5598 -1.3438 0.0363
B20 B -0.4643(2) -1.4676(6) -0.0334(4)
H22 H -0.4599 -1.5971 0.0200
loop_
_geom_bond_atom_site_label_1
_geom_bond_atom_site_label_2
_geom_bond_site_symmetry_1
_geom_bond_site_symmetry_2
S1 S2 1_555 1_555
S2 C3 1_555 1_555
C1 S1 1_555 1_555
C2 C1 1_555 1_555
H1 C2 1_555 1_555
C3 C4 1_555 1_555
C4 H2 1_555 1_555
B1 C1 1_555 1_555
H3 B1 1_555 1_555
B2 C2 1_555 1_555
H4 B2 1_555 1_555
B3 C2 1_555 1_555
H5 B3 1_555 1_555
B4 C1 1_555 1_555
H6 B4 1_555 1_555
B5 C1 1_555 1_555
H7 B5 1_555 1_555
B6 C1 1_555 1_555
H8 B6 1_555 1_555
B7 B5 1_555 1_555
H9 B7 1_555 1_555
B8 B3 1_555 1_555
H10 B8 1_555 1_555
B9 B2 1_555 1_555
H11 B9 1_555 1_555
B10 B1 1_555 1_555
H12 B10 1_555 1_555
B11 C3 1_555 1_555
H13 B11 1_555 1_555
B12 C3 1_555 1_555
H14 B12 1_555 1_555
B13 C3 1_555 1_555
H15 B13 1_555 1_555
B14 C3 1_555 1_555
H16 B14 1_555 1_555
B15 C4 1_555 1_555
H17 B15 1_555 1_555
B16 C4 1_555 1_555
H18 B16 1_555 1_555
B17 B11 1_555 1_555
H19 B17 1_555 1_555
B18 B12 1_555 1_555
H20 B18 1_555 1_555
B19 B15 1_555 1_555
H21 B19 1_555 1_555
B20 B13 1_555 1_555
H22 B20 1_555 1_555
C2 B1 1_555 1_555
C2 B4 1_555 1_555
C4 B11 1_555 1_555
C4 B14 1_555 1_555
B1 B2 1_555 1_555
B1 B6 1_555 1_555
B2 B3 1_555 1_555
B2 B10 1_555 1_555
B3 B4 1_555 1_555
B3 B9 1_555 1_555
B4 B5 1_555 1_555
B4 B8 1_555 1_555
B5 B6 1_555 1_555
B5 B8 1_555 1_555
B6 B7 1_555 1_555
B6 B10 1_555 1_555
B7 B8 1_555 1_555
B7 B9 1_555 1_555
B7 B10 1_555 1_555
B8 B9 1_555 1_555
B9 B10 1_555 1_555
B11 B12 1_555 1_555
B11 B16 1_555 1_555
B12 B13 1_555 1_555
B12 B17 1_555 1_555
B13 B14 1_555 1_555
B13 B18 1_555 1_555
B14 B15 1_555 1_555
B14 B20 1_555 1_555
B15 B16 1_555 1_555
B15 B20 1_555 1_555
B16 B17 1_555 1_555
B16 B19 1_555 1_555
B17 B18 1_555 1_555
B17 B19 1_555 1_555
B18 B19 1_555 1_555
B18 B20 1_555 1_555
B19 B20 1_555 1_555

#END
