
#######################################################################
#
#                 Cambridge Crystallographic Data Centre
#                                CCDC 
#
#######################################################################
#
# If this CIF has been generated from an entry in the Cambridge 
# Structural Database, then it will include bibliographic, chemical, 
# crystal, experimental, refinement or atomic coordinate data resulting 
# from the CCDC's data processing and validation procedures.
#
#######################################################################

data_VEVGOT
_chemical_formula_moiety         'C84 H130 K4 O12 P2'
_chemical_name_systematic        
bis(\m~4~-bis(3,5-Di-t-butyl-2-oxyphenyl)phenylphosphine)-tetrakis(1,2-dimethoxyethane)-tetra-potassium
_symmetry_cell_setting           monoclinic
_symmetry_space_group_name_H-M   'P 21/n'
_symmetry_Int_Tables_number      14
_space_group_name_Hall           '-P 2yn'
loop_
_symmetry_equiv_pos_site_id
_symmetry_equiv_pos_as_xyz
1 x,y,z
2 1/2-x,1/2+y,1/2-z
3 -x,-y,-z
4 1/2+x,1/2-y,1/2+z
_cell_length_a                   14.4187(3)
_cell_length_b                   15.6910(3)
_cell_length_c                   20.0298(5)
_cell_angle_alpha                90
_cell_angle_beta                 94.3160(10)
_cell_angle_gamma                90
_cell_volume                     4518.77
_exptl_crystal_colour            colorless
_exptl_crystal_description       prism
_cell_formula_units_Z            2
loop_
_atom_site_label
_atom_site_type_symbol
_atom_site_fract_x
_atom_site_fract_y
_atom_site_fract_z
K1 K 0.37039(4) 0.95226(4) 0.96037(3)
K2 K 0.62614(5) 1.07771(4) 0.85797(3)
P1 P 0.45273(4) 1.15437(4) 0.96245(4)
O1 O 0.34980(12) 0.81968(11) 1.04342(9)
O2 O 0.34735(12) 1.05651(11) 1.06336(10)
O3 O 0.22498(17) 0.97986(15) 0.86654(12)
O4 O 0.3875(2) 0.90363(15) 0.82546(12)
O5 O 0.75399(18) 1.14627(16) 0.76676(13)
O6 O 0.59439(18) 1.05564(16) 0.72326(12)
C1 C 0.51990(16) 1.23942(16) 1.00445(13)
C2 C 0.38278(17) 0.76152(16) 1.00522(13)
C3 C 0.32668(17) 0.69594(16) 0.97228(14)
C4 C 0.22303(18) 0.68778(17) 0.98440(15)
C5 C 0.2171(2) 0.6624(2) 1.05719(18)
H1 H 0.1531 0.6567 1.0666
H2 H 0.2485 0.6091 1.0654
H3 H 0.2462 0.7055 1.0856
C6 C 0.1704(2) 0.7708(2) 0.96991(19)
H4 H 0.1060 0.7634 0.9777
H5 H 0.1969 0.8145 0.9990
H6 H 0.1756 0.7870 0.9241
C7 C 0.1740(2) 0.6189(2) 0.9402(2)
H7 H 0.1096 0.6158 0.9490
H8 H 0.1791 0.6335 0.8941
H9 H 0.2029 0.5646 0.9494
C8 C 0.36975(18) 0.63678(17) 0.93322(14)
H10 H 0.3331 0.5934 0.9101
C9 C 0.46522(18) 0.63541(17) 0.92431(14)
C10 C 0.5073(2) 0.56841(19) 0.87946(17)
C11 C 0.4378(5) 0.4940(4) 0.8598(4)
H11 H 0.3824 0.5170 0.8370
H12 H 0.4220 0.4648 0.8995
H13 H 0.4664 0.4548 0.8308
C12 C 0.5317(5) 0.6112(4) 0.8153(3)
H14 H 0.4769 0.6363 0.7934
H15 H 0.5565 0.5696 0.7863
H16 H 0.5773 0.6547 0.8255
C13 C 0.5932(4) 0.5293(4) 0.9139(3)
H17 H 0.6182 0.4878 0.8850
H18 H 0.5777 0.5022 0.9546
H19 H 0.6387 0.5730 0.9242
C17 C 0.48140(18) 1.30164(16) 1.04374(14)
H29 H 0.4161 1.3005 1.0500
C18 C 0.44361(17) 1.18929(17) 0.87438(14)
C19 C 0.4912(2) 1.25898(17) 0.85041(15)
H30 H 0.5280 1.2925 0.8802
C20 C 0.4844(2) 1.2788(2) 0.78277(16)
H31 H 0.5170 1.3254 0.7678
C21 C 0.4305(2) 1.2310(2) 0.73767(17)
H32 H 0.4255 1.2452 0.6925
C22 C 0.3836(3) 1.1610(3) 0.76061(17)
H33 H 0.3472 1.1277 0.7305
C23 C 0.3904(2) 1.1405(2) 0.82758(16)
H34 H 0.3589 1.0930 0.8420
C24 C 0.33429(17) 1.17157(16) 0.98558(14)
C25 C 0.29842(17) 1.11814(15) 1.03473(13)
C26 C 0.20355(17) 1.13543(16) 1.05105(14)
C27 C 0.1577(2) 1.07901(18) 1.10222(15)
C28 C 0.2145(2) 1.0819(2) 1.17037(16)
H35 H 0.1853 1.0462 1.2015
H36 H 0.2172 1.1393 1.1868
H37 H 0.2766 1.0615 1.1658
C29 C 0.1491(2) 0.98735(19) 1.07577(18)
H38 H 0.1208 0.9522 1.1078
H39 H 0.2099 0.9648 1.0685
H40 H 0.1112 0.9871 1.0343
C30 C 0.0585(2) 1.1085(2) 1.11400(19)
H41 H 0.0325 1.0718 1.1461
H42 H 0.0211 1.1058 1.0723
H43 H 0.0598 1.1660 1.1304
C31 C 0.15476(18) 1.20063(17) 1.01825(14)
H44 H 0.0921 1.2126 1.0284
C32 C 0.19062(17) 1.25319(17) 0.96961(14)
C33 C 0.12935(19) 1.32122(19) 0.93296(15)
C34 C 0.0509(2) 1.2770(2) 0.89042(19)
H45 H 0.0120 1.3187 0.8670
H46 H 0.0145 1.2441 0.9192
H47 H 0.0771 1.2400 0.8586
C35 C 0.0874(2) 1.3806(2) 0.98320(17)
H48 H 0.0499 1.4230 0.9596
H49 H 0.1369 1.4079 1.0099
H50 H 0.0497 1.3484 1.0117
C36 C 0.1853(2) 1.3761(2) 0.88723(18)
H51 H 0.1453 1.4182 0.8653
H52 H 0.2104 1.3403 0.8542
H53 H 0.2351 1.4040 0.9132
C37 C 0.28106(17) 1.23761(17) 0.95510(14)
H54 H 0.3077 1.2733 0.9227
C38 C 0.1616(3) 1.0496(3) 0.8663(2)
H55 H 0.1172 1.0454 0.8282
H56 H 0.1948 1.1024 0.8644
H57 H 0.1297 1.0476 0.9067
C39 C 0.2276(3) 0.9410(3) 0.8036(2)
H58 H 0.1670 0.9192 0.7898
H59 H 0.2455 0.9823 0.7716
C40 C 0.2974(4) 0.8699(2) 0.8083(2)
H60 H 0.2970 0.8391 0.7669
H61 H 0.2823 0.8318 0.8434
C41 C 0.4583(4) 0.8400(3) 0.8260(2)
H62 H 0.4670 0.8214 0.7812
H63 H 0.4413 0.7921 0.8523
H64 H 0.5152 0.8643 0.8455
C42 C 0.8089(4) 1.2158(3) 0.7912(3)
H65 H 0.8492 1.2344 0.7581
H66 H 0.7681 1.2615 0.8015
H67 H 0.8456 1.1990 0.8310
C43 C 0.7025(3) 1.1640(3) 0.7065(2)
H68 H 0.7433 1.1866 0.6752
H69 H 0.6557 1.2055 0.7146
C44 C 0.6558(3) 1.0870(3) 0.6791(2)
H70 H 0.6211 1.1002 0.6376
H71 H 0.7016 1.0444 0.6715
C45 C 0.5233(11) 1.0019(9) 0.6955(5)
H72 H 0.4847 0.9842 0.7299
H73 H 0.4862 1.0323 0.6614
H74 H 0.5504 0.9528 0.6761
K1B K 0.62961(4) 1.04774(4) 1.03963(3)
K2B K 0.37386(5) 0.92229(4) 1.14203(3)
P1B P 0.54727(4) 0.84563(4) 1.03755(4)
O1B O 0.65020(12) 1.18032(11) 0.95658(9)
O2B O 0.65265(12) 0.94349(11) 0.93664(10)
O3B O 0.77502(17) 1.02014(15) 1.13346(12)
O4B O 0.6125(2) 1.09637(15) 1.17454(12)
O5B O 0.24601(18) 0.85373(16) 1.23324(13)
O6B O 0.40561(18) 0.94436(16) 1.27674(12)
C1B C 0.48010(16) 0.76058(16) 0.99555(13)
C2B C 0.61722(17) 1.23848(16) 0.99478(13)
C3B C 0.67332(17) 1.30406(16) 1.02772(14)
C4B C 0.77697(18) 1.31222(17) 1.01560(15)
C5B C 0.7829(2) 1.3376(2) 0.94281(18)
H1B H 0.8469 1.3433 0.9334
H2B H 0.7515 1.3909 0.9346
H3B H 0.7538 1.2945 0.9144
C6B C 0.8296(2) 1.2292(2) 1.03009(19)
H4B H 0.8940 1.2366 1.0223
H5B H 0.8031 1.1855 1.0010
H6B H 0.8244 1.2130 1.0759
C7B C 0.8260(2) 1.3811(2) 1.0598(2)
H7B H 0.8904 1.3842 1.0510
H8B H 0.8209 1.3665 1.1059
H9B H 0.7971 1.4354 1.0506
C8B C 0.63025(18) 1.36322(17) 1.06678(14)
H10B H 0.6669 1.4066 1.0899
C9B C 0.53478(18) 1.36459(17) 1.07569(14)
C10B C 0.4927(2) 1.43159(19) 1.12054(17)
C11B C 0.5622(5) 1.5060(4) 1.1402(4)
H11B H 0.6176 1.4830 1.1630
H12B H 0.5780 1.5352 1.1005
H13B H 0.5336 1.5452 1.1692
C12B C 0.4683(5) 1.3888(4) 1.1847(3)
H14B H 0.5231 1.3637 1.2066
H15B H 0.4435 1.4304 1.2137
H16B H 0.4227 1.3453 1.1745
C13B C 0.4068(4) 1.4707(4) 1.0861(3)
H17B H 0.3818 1.5122 1.1150
H18B H 0.4223 1.4978 1.0454
H19B H 0.3613 1.4270 1.0758
C17B C 0.51860(18) 0.69836(16) 0.95626(14)
H29B H 0.5839 0.6995 0.9500
C18B C 0.55639(17) 0.81071(17) 1.12562(14)
C19B C 0.5088(2) 0.74102(17) 1.14959(15)
H30B H 0.4720 0.7075 1.1198
C20B C 0.5156(2) 0.7212(2) 1.21723(16)
H31B H 0.4830 0.6746 1.2322
C21B C 0.5695(2) 0.7690(2) 1.26233(17)
H32B H 0.5745 0.7548 1.3075
C22B C 0.6164(3) 0.8390(3) 1.23939(17)
H33B H 0.6528 0.8723 1.2695
C23B C 0.6096(2) 0.8595(2) 1.17242(16)
H34B H 0.6411 0.9070 1.1580
C24B C 0.66571(17) 0.82843(16) 1.01442(14)
C25B C 0.70158(17) 0.88186(15) 0.96527(13)
C26B C 0.79645(17) 0.86457(16) 0.94895(14)
C27B C 0.8423(2) 0.92099(18) 0.89778(15)
C28B C 0.7855(2) 0.9181(2) 0.82963(16)
H35B H 0.8147 0.9538 0.7985
H36B H 0.7828 0.8607 0.8132
H37B H 0.7234 0.9385 0.8342
C29B C 0.8509(2) 1.01265(19) 0.92423(18)
H38B H 0.8792 1.0478 0.8922
H39B H 0.7901 1.0352 0.9315
H40B H 0.8888 1.0129 0.9657
C30B C 0.9415(2) 0.8915(2) 0.88600(19)
H41B H 0.9675 0.9282 0.8539
H42B H 0.9789 0.8942 0.9277
H43B H 0.9402 0.8340 0.8696
C31B C 0.84524(18) 0.79937(17) 0.98175(14)
H44B H 0.9079 0.7874 0.9716
C32B C 0.80938(17) 0.74681(17) 1.03039(14)
C33B C 0.87065(19) 0.67878(19) 1.06704(15)
C34B C 0.9491(2) 0.7230(2) 1.10958(19)
H45B H 0.9880 0.6813 1.1330
H46B H 0.9855 0.7559 1.0808
H47B H 0.9229 0.7600 1.1414
C35B C 0.9126(2) 0.6194(2) 1.01680(17)
H48B H 0.9501 0.5770 1.0404
H49B H 0.8631 0.5921 0.9901
H50B H 0.9503 0.6516 0.9883
C36B C 0.8147(2) 0.6239(2) 1.11277(18)
H51B H 0.8547 0.5818 1.1347
H52B H 0.7896 0.6597 1.1458
H53B H 0.7649 0.5960 1.0868
C37B C 0.71894(17) 0.76239(17) 1.04490(14)
H54B H 0.6923 0.7267 1.0773
C38B C 0.8384(3) 0.9504(3) 1.1337(2)
H55B H 0.8828 0.9546 1.1718
H56B H 0.8052 0.8976 1.1356
H57B H 0.8703 0.9524 1.0933
C39B C 0.7724(3) 1.0590(3) 1.1964(2)
H58B H 0.8330 1.0808 1.2102
H59B H 0.7545 1.0177 1.2284
C40B C 0.7026(4) 1.1301(2) 1.1917(2)
H60B H 0.7030 1.1609 1.2331
H61B H 0.7177 1.1682 1.1566
C41B C 0.5417(4) 1.1600(3) 1.1740(2)
H62B H 0.5330 1.1786 1.2188
H63B H 0.5587 1.2079 1.1477
H64B H 0.4848 1.1357 1.1545
C42B C 0.1911(4) 0.7842(3) 1.2088(3)
H65B H 0.1508 0.7656 1.2419
H66B H 0.2319 0.7385 1.1985
H67B H 0.1544 0.8010 1.1690
C43B C 0.2975(3) 0.8360(3) 1.2935(2)
H68B H 0.2567 0.8134 1.3248
H69B H 0.3443 0.7945 1.2854
C44B C 0.3442(3) 0.9130(3) 1.3209(2)
H70B H 0.3789 0.8998 1.3624
H71B H 0.2984 0.9556 1.3285
C45B C 0.4767(11) 0.9981(9) 1.3045(5)
H72B H 0.5153 1.0158 1.2701
H73B H 0.5138 0.9677 1.3386
H74B H 0.4496 1.0472 1.3239
C14? C 0.4777(8) 0.4801(7) 0.8966(7)
H20? H 0.5052 0.4398 0.8679
H21? H 0.4111 0.4759 0.8906
H22? H 0.4977 0.4679 0.9424
C15? C 0.4792(9) 0.5883(7) 0.8054(5)
H23? H 0.5056 0.5463 0.7776
H24? H 0.5018 0.6438 0.7945
H25? H 0.4126 0.5872 0.7980
C16? C 0.6153(8) 0.5695(8) 0.8858(7)
H26? H 0.6383 0.5269 0.8569
H27? H 0.6373 0.5577 0.9313
H28? H 0.6370 0.6246 0.8731
C46? C 0.4438(13) 1.0239(10) 1.3033(5)
H75? H 0.4865 1.0466 1.2732
H76? H 0.4760 1.0140 1.3463
H77? H 0.3943 1.0639 1.3078
loop_
_geom_bond_atom_site_label_1
_geom_bond_atom_site_label_2
_geom_bond_site_symmetry_1
_geom_bond_site_symmetry_2
K1 P1 1_555 1_555
K2 P1 1_555 1_555
P1 C1 1_555 1_555
O1 K1 1_555 1_555
O2 K1 1_555 1_555
O3 K1 1_555 1_555
O4 K1 1_555 1_555
O5 K2 1_555 1_555
O6 K2 1_555 1_555
C1 C17 1_555 1_555
C2 O1 1_555 1_555
C3 C2 1_555 1_555
C4 C3 1_555 1_555
C5 C4 1_555 1_555
H1 C5 1_555 1_555
H2 C5 1_555 1_555
H3 C5 1_555 1_555
C6 C4 1_555 1_555
H4 C6 1_555 1_555
H5 C6 1_555 1_555
H6 C6 1_555 1_555
C7 C4 1_555 1_555
H7 C7 1_555 1_555
H8 C7 1_555 1_555
H9 C7 1_555 1_555
C8 C3 1_555 1_555
H10 C8 1_555 1_555
C9 C8 1_555 1_555
C10 C9 1_555 1_555
C11 C10 1_555 1_555
H11 C11 1_555 1_555
H12 C11 1_555 1_555
H13 C11 1_555 1_555
C12 C10 1_555 1_555
H14 C12 1_555 1_555
H15 C12 1_555 1_555
H16 C12 1_555 1_555
C13 C10 1_555 1_555
H17 C13 1_555 1_555
H18 C13 1_555 1_555
H19 C13 1_555 1_555
C17 H29 1_555 1_555
C18 P1 1_555 1_555
C19 C18 1_555 1_555
H30 C19 1_555 1_555
C20 C19 1_555 1_555
H31 C20 1_555 1_555
C21 C20 1_555 1_555
H32 C21 1_555 1_555
C22 C21 1_555 1_555
H33 C22 1_555 1_555
C23 C18 1_555 1_555
H34 C23 1_555 1_555
C24 P1 1_555 1_555
C25 O2 1_555 1_555
C26 C25 1_555 1_555
C27 C26 1_555 1_555
C28 C27 1_555 1_555
H35 C28 1_555 1_555
H36 C28 1_555 1_555
H37 C28 1_555 1_555
C29 C27 1_555 1_555
H38 C29 1_555 1_555
H39 C29 1_555 1_555
H40 C29 1_555 1_555
C30 C27 1_555 1_555
H41 C30 1_555 1_555
H42 C30 1_555 1_555
H43 C30 1_555 1_555
C31 C26 1_555 1_555
H44 C31 1_555 1_555
C32 C31 1_555 1_555
C33 C32 1_555 1_555
C34 C33 1_555 1_555
H45 C34 1_555 1_555
H46 C34 1_555 1_555
H47 C34 1_555 1_555
C35 C33 1_555 1_555
H48 C35 1_555 1_555
H49 C35 1_555 1_555
H50 C35 1_555 1_555
C36 C33 1_555 1_555
H51 C36 1_555 1_555
H52 C36 1_555 1_555
H53 C36 1_555 1_555
C37 C24 1_555 1_555
H54 C37 1_555 1_555
C38 O3 1_555 1_555
H55 C38 1_555 1_555
H56 C38 1_555 1_555
H57 C38 1_555 1_555
C39 O3 1_555 1_555
H58 C39 1_555 1_555
H59 C39 1_555 1_555
C40 O4 1_555 1_555
H60 C40 1_555 1_555
H61 C40 1_555 1_555
C41 O4 1_555 1_555
H62 C41 1_555 1_555
H63 C41 1_555 1_555
H64 C41 1_555 1_555
C42 O5 1_555 1_555
H65 C42 1_555 1_555
H66 C42 1_555 1_555
H67 C42 1_555 1_555
C43 O5 1_555 1_555
H68 C43 1_555 1_555
H69 C43 1_555 1_555
C44 O6 1_555 1_555
H70 C44 1_555 1_555
H71 C44 1_555 1_555
C45 O6 1_555 1_555
H72 C45 1_555 1_555
H73 C45 1_555 1_555
H74 C45 1_555 1_555
K1B P1 1_555 1_555
K2B O1 1_555 1_555
P1B K1 1_555 1_555
O1B K2 1_555 1_555
O2B K2 1_555 1_555
O3B K1B 1_555 1_555
O4B K1B 1_555 1_555
O5B K2B 1_555 1_555
O6B K2B 1_555 1_555
C1B C2 1_555 1_555
C2B C1 1_555 1_555
C3B C2B 1_555 1_555
C4B C3B 1_555 1_555
C5B C4B 1_555 1_555
H1B C5B 1_555 1_555
H2B C5B 1_555 1_555
H3B C5B 1_555 1_555
C6B C4B 1_555 1_555
H4B C6B 1_555 1_555
H5B C6B 1_555 1_555
H6B C6B 1_555 1_555
C7B C4B 1_555 1_555
H7B C7B 1_555 1_555
H8B C7B 1_555 1_555
H9B C7B 1_555 1_555
C8B C3B 1_555 1_555
H10B C8B 1_555 1_555
C9B C17 1_555 1_555
C10B C9B 1_555 1_555
C11B C10B 1_555 1_555
H11B C11B 1_555 1_555
H12B C11B 1_555 1_555
H13B C11B 1_555 1_555
C12B C10B 1_555 1_555
H14B C12B 1_555 1_555
H15B C12B 1_555 1_555
H16B C12B 1_555 1_555
C13B C10B 1_555 1_555
H17B C13B 1_555 1_555
H18B C13B 1_555 1_555
H19B C13B 1_555 1_555
C17B C9 1_555 1_555
H29B C17B 1_555 1_555
C18B P1B 1_555 1_555
C19B C18B 1_555 1_555
H30B C19B 1_555 1_555
C20B C19B 1_555 1_555
H31B C20B 1_555 1_555
C21B C20B 1_555 1_555
H32B C21B 1_555 1_555
C22B C21B 1_555 1_555
H33B C22B 1_555 1_555
C23B C18B 1_555 1_555
H34B C23B 1_555 1_555
C24B P1B 1_555 1_555
C25B O2B 1_555 1_555
C26B C25B 1_555 1_555
C27B C26B 1_555 1_555
C28B C27B 1_555 1_555
H35B C28B 1_555 1_555
H36B C28B 1_555 1_555
H37B C28B 1_555 1_555
C29B C27B 1_555 1_555
H38B C29B 1_555 1_555
H39B C29B 1_555 1_555
H40B C29B 1_555 1_555
C30B C27B 1_555 1_555
H41B C30B 1_555 1_555
H42B C30B 1_555 1_555
H43B C30B 1_555 1_555
C31B C26B 1_555 1_555
H44B C31B 1_555 1_555
C32B C31B 1_555 1_555
C33B C32B 1_555 1_555
C34B C33B 1_555 1_555
H45B C34B 1_555 1_555
H46B C34B 1_555 1_555
H47B C34B 1_555 1_555
C35B C33B 1_555 1_555
H48B C35B 1_555 1_555
H49B C35B 1_555 1_555
H50B C35B 1_555 1_555
C36B C33B 1_555 1_555
H51B C36B 1_555 1_555
H52B C36B 1_555 1_555
H53B C36B 1_555 1_555
C37B C24B 1_555 1_555
H54B C37B 1_555 1_555
C38B O3B 1_555 1_555
H55B C38B 1_555 1_555
H56B C38B 1_555 1_555
H57B C38B 1_555 1_555
C39B O3B 1_555 1_555
H58B C39B 1_555 1_555
H59B C39B 1_555 1_555
C40B O4B 1_555 1_555
H60B C40B 1_555 1_555
H61B C40B 1_555 1_555
C41B O4B 1_555 1_555
H62B C41B 1_555 1_555
H63B C41B 1_555 1_555
H64B C41B 1_555 1_555
C42B O5B 1_555 1_555
H65B C42B 1_555 1_555
H66B C42B 1_555 1_555
H67B C42B 1_555 1_555
C43B O5B 1_555 1_555
H68B C43B 1_555 1_555
H69B C43B 1_555 1_555
C44B O6B 1_555 1_555
H70B C44B 1_555 1_555
H71B C44B 1_555 1_555
C45B O6B 1_555 1_555
H72B C45B 1_555 1_555
H73B C45B 1_555 1_555
H74B C45B 1_555 1_555
O2 K2B 1_555 1_555
C22 C23 1_555 1_555
C24 C25 1_555 1_555
C32 C37 1_555 1_555
C39 C40 1_555 1_555
C43 C44 1_555 1_555
K1B P1B 1_555 1_555
K1B O1B 1_555 1_555
K1B O2B 1_555 1_555
K2B P1B 1_555 1_555
P1B C1B 1_555 1_555
O1B C2B 1_555 1_555
C1B C17B 1_555 1_555
C8B C9B 1_555 1_555
C22B C23B 1_555 1_555
C24B C25B 1_555 1_555
C32B C37B 1_555 1_555
C39B C40B 1_555 1_555
C43B C44B 1_555 1_555

#END
