
#######################################################################
#
#                 Cambridge Crystallographic Data Centre
#                                CCDC 
#
#######################################################################
#
# If this CIF has been generated from an entry in the Cambridge 
# Structural Database, then it will include bibliographic, chemical, 
# crystal, experimental, refinement or atomic coordinate data resulting 
# from the CCDC's data processing and validation procedures.
#
#######################################################################

data_VEVKIS
_chemical_formula_moiety         'C21 H28 N2 O2'
_chemical_name_systematic        
4,5-Diethoxy-1,3-bis(4-methylphenyl)imidazolidine
_symmetry_cell_setting           monoclinic
_symmetry_space_group_name_H-M   'P 21/c'
_symmetry_Int_Tables_number      14
_space_group_name_Hall           '-P 2ybc'
loop_
_symmetry_equiv_pos_site_id
_symmetry_equiv_pos_as_xyz
1 x,y,z
2 -x,1/2+y,1/2-z
3 -x,-y,-z
4 x,1/2-y,1/2+z
_cell_length_a                   11.0948(19)
_cell_length_b                   8.2207(14)
_cell_length_c                   21.766(4)
_cell_angle_alpha                90
_cell_angle_beta                 91.636(2)
_cell_angle_gamma                90
_cell_volume                     1984.4
_exptl_crystal_colour            colorless
_exptl_crystal_description       block
_cell_formula_units_Z            4
loop_
_atom_site_label
_atom_site_type_symbol
_atom_site_fract_x
_atom_site_fract_y
_atom_site_fract_z
O1 O 0.88337(14) 0.4012(2) 0.15716(7)
O2 O 0.94050(13) 0.65921(19) 0.02875(6)
N1 N 0.88928(16) 0.6807(2) 0.17378(8)
N2 N 1.06138(16) 0.6849(2) 0.12182(8)
C1 C 0.5446(3) 0.8108(4) 0.35782(14)
H1 H 0.4687 0.7617 0.3463
H2 H 0.5344 0.9264 0.3614
H3 H 0.5727 0.7673 0.3966
C2 C 0.6354(2) 0.7747(3) 0.30944(11)
C3 C 0.7526(3) 0.8307(3) 0.31451(11)
H4 H 0.7751 0.8931 0.3486
C4 C 0.8372(2) 0.7985(3) 0.27154(10)
H5 H 0.9151 0.8387 0.2769
C5 C 0.8070(2) 0.7062(3) 0.22012(9)
C6 C 0.6905(2) 0.6449(3) 0.21509(10)
H6 H 0.6686 0.5793 0.1818
C7 C 0.6072(2) 0.6799(3) 0.25865(11)
H7 H 0.5294 0.6386 0.2538
C8 C 1.01223(18) 0.7368(3) 0.17875(9)
H8 H 1.0158 0.8542 0.1829
H9 H 1.0547 0.6873 0.2135
C9 C 0.87618(19) 0.5572(3) 0.12846(9)
H10 H 0.7986 0.5690 0.1063
C10 C 0.97861(18) 0.5880(3) 0.08537(9)
H11 H 1.0174 0.4838 0.0767
C11 C 0.8261(3) 0.2754(3) 0.12112(12)
H12 H 0.8762 0.2476 0.0868
H13 H 0.7492 0.3141 0.1047
C12 C 0.8078(4) 0.1336(4) 0.15838(15)
H14 H 0.7688 0.0506 0.1340
H15 H 0.7581 0.1614 0.1922
H16 H 0.8843 0.0942 0.1738
C13 C 0.8914(2) 0.8183(3) 0.03243(11)
H17 H 0.9539 0.8951 0.0447
H18 H 0.8290 0.8210 0.0628
C14 C 0.8394(3) 0.8630(4) -0.02931(12)
H19 H 0.8055 0.9703 -0.0276
H20 H 0.7775 0.7866 -0.0410
H21 H 0.9018 0.8609 -0.0590
C15 C 1.18050(18) 0.7145(3) 0.10654(9)
C16 C 1.2568(2) 0.8047(3) 0.14520(10)
H22 H 1.2286 0.8465 0.1818
C17 C 1.3745(2) 0.8319(3) 0.12901(12)
H23 H 1.4245 0.8918 0.1555
C18 C 1.4210(2) 0.7742(3) 0.07536(12)
C19 C 1.5504(2) 0.8069(5) 0.05837(15)
H24 H 1.5660 0.7563 0.0196
H25 H 1.6040 0.7630 0.0895
H26 H 1.5629 0.9221 0.0552
C20 C 1.3442(2) 0.6857(3) 0.03772(11)
H27 H 1.3730 0.6446 0.0011
C21 C 1.2258(2) 0.6553(3) 0.05202(10)
H28 H 1.1765 0.5953 0.0252
loop_
_geom_bond_atom_site_label_1
_geom_bond_atom_site_label_2
_geom_bond_site_symmetry_1
_geom_bond_site_symmetry_2
O1 C9 1_555 1_555
O2 C10 1_555 1_555
N1 C5 1_555 1_555
N2 C8 1_555 1_555
C1 H1 1_555 1_555
H2 C1 1_555 1_555
H3 C1 1_555 1_555
C2 C1 1_555 1_555
C3 C2 1_555 1_555
H4 C3 1_555 1_555
C4 C3 1_555 1_555
H5 C4 1_555 1_555
C5 C4 1_555 1_555
C6 C5 1_555 1_555
H6 C6 1_555 1_555
C7 C2 1_555 1_555
H7 C7 1_555 1_555
C8 N1 1_555 1_555
H8 C8 1_555 1_555
H9 C8 1_555 1_555
C9 N1 1_555 1_555
H10 C9 1_555 1_555
C10 N2 1_555 1_555
H11 C10 1_555 1_555
C11 O1 1_555 1_555
H12 C11 1_555 1_555
H13 C11 1_555 1_555
C12 C11 1_555 1_555
H14 C12 1_555 1_555
H15 C12 1_555 1_555
H16 C12 1_555 1_555
C13 O2 1_555 1_555
H17 C13 1_555 1_555
H18 C13 1_555 1_555
C14 C13 1_555 1_555
H19 C14 1_555 1_555
H20 C14 1_555 1_555
H21 C14 1_555 1_555
C15 N2 1_555 1_555
C16 C15 1_555 1_555
H22 C16 1_555 1_555
C17 C16 1_555 1_555
H23 C17 1_555 1_555
C18 C17 1_555 1_555
C19 C18 1_555 1_555
H24 C19 1_555 1_555
H25 C19 1_555 1_555
H26 C19 1_555 1_555
C20 C18 1_555 1_555
H27 C20 1_555 1_555
C21 C15 1_555 1_555
H28 C21 1_555 1_555
C6 C7 1_555 1_555
C9 C10 1_555 1_555
C20 C21 1_555 1_555

#END
