
#######################################################################
#
#                 Cambridge Crystallographic Data Centre
#                                CCDC 
#
#######################################################################
#
# If this CIF has been generated from an entry in the Cambridge 
# Structural Database, then it will include bibliographic, chemical, 
# crystal, experimental, refinement or atomic coordinate data resulting 
# from the CCDC's data processing and validation procedures.
#
#######################################################################

data_VEVLOZ
_chemical_formula_moiety         'C13 H12 N4 O4'
_chemical_name_systematic        N,N'-bis(2-Nitrophenyl)methanediamine
_symmetry_cell_setting           monoclinic
_symmetry_space_group_name_H-M   'P 21/n'
_symmetry_Int_Tables_number      14
_space_group_name_Hall           '-P 2yn'
loop_
_symmetry_equiv_pos_site_id
_symmetry_equiv_pos_as_xyz
1 x,y,z
2 1/2-x,1/2+y,1/2-z
3 -x,-y,-z
4 1/2+x,1/2-y,1/2+z
_cell_length_a                   13.145(2)
_cell_length_b                   7.5196(12)
_cell_length_c                   14.363(2)
_cell_angle_alpha                90
_cell_angle_beta                 115.305(2)
_cell_angle_gamma                90
_cell_volume                     1283.48
_exptl_crystal_colour            salmon
_exptl_crystal_description       block
_cell_formula_units_Z            4
loop_
_atom_site_label
_atom_site_type_symbol
_atom_site_fract_x
_atom_site_fract_y
_atom_site_fract_z
O1 O 0.55466(18) -0.3605(3) 0.59772(16)
O2 O 0.38278(19) -0.3105(3) 0.56671(19)
O3 O 0.8846(2) 0.3771(3) 0.36636(19)
O4 O 0.77951(18) 0.1535(3) 0.29812(16)
N1 N 0.63576(17) -0.2591(3) 0.46800(18)
N2 N 0.4609(2) -0.2985(3) 0.54254(19)
N3 N 0.8467(2) 0.2322(4) 0.37441(19)
N4 N 0.76367(18) -0.1095(3) 0.40917(17)
C1 C 0.3907(3) -0.0475(4) 0.2618(2)
H1 H 0.3735 0.0094 0.1994
C2 C 0.3085(3) -0.0657(4) 0.2966(3)
H2 H 0.2362 -0.0223 0.2581
C3 C 0.3350(2) -0.1486(4) 0.3885(2)
H3 H 0.2800 -0.1621 0.4125
C4 C 0.4423(2) -0.2131(3) 0.4466(2)
C5 C 0.5289(2) -0.1967(3) 0.4125(2)
C6 C 0.4972(2) -0.1114(4) 0.3174(2)
H4 H 0.5503 -0.0978 0.2911
C7 C 0.9620(2) 0.2468(4) 0.5573(2)
H5 H 0.9888 0.3549 0.5454
C8 C 1.0006(2) 0.1831(4) 0.6549(2)
H6 H 1.0537 0.2462 0.7098
C9 C 0.9592(2) 0.0221(4) 0.6709(2)
H7 H 0.9845 -0.0221 0.7375
C10 C 0.8824(2) -0.0723(4) 0.5912(2)
H8 H 0.8567 -0.1799 0.6050
C11 C 0.84005(19) -0.0129(4) 0.48828(19)
C12 C 0.8830(2) 0.1523(3) 0.47491(19)
C13 C 0.7164(2) -0.2760(4) 0.4238(2)
H9 H 0.7776 -0.3519 0.4683
H10 H 0.6797 -0.3350 0.3576
loop_
_geom_bond_atom_site_label_1
_geom_bond_atom_site_label_2
_geom_bond_site_symmetry_1
_geom_bond_site_symmetry_2
O1 N2 1_555 1_555
O2 N2 1_555 1_555
O3 N3 1_555 1_555
O4 N3 1_555 1_555
N1 C5 1_555 1_555
N2 C4 1_555 1_555
N3 C12 1_555 1_555
N4 C11 1_555 1_555
C1 H1 1_555 1_555
C2 C1 1_555 1_555
H2 C2 1_555 1_555
C3 C2 1_555 1_555
H3 C3 1_555 1_555
C4 C3 1_555 1_555
C5 C4 1_555 1_555
C6 C1 1_555 1_555
H4 C6 1_555 1_555
C7 H5 1_555 1_555
C8 C7 1_555 1_555
H6 C8 1_555 1_555
C9 C8 1_555 1_555
H7 C9 1_555 1_555
C10 C9 1_555 1_555
H8 C10 1_555 1_555
C11 C10 1_555 1_555
C12 C7 1_555 1_555
C13 N1 1_555 1_555
H9 C13 1_555 1_555
H10 C13 1_555 1_555
N4 C13 1_555 1_555
C5 C6 1_555 1_555
C11 C12 1_555 1_555

#END
