
#######################################################################
#
#                 Cambridge Crystallographic Data Centre
#                                CCDC 
#
#######################################################################
#
# If this CIF has been generated from an entry in the Cambridge 
# Structural Database, then it will include bibliographic, chemical, 
# crystal, experimental, refinement or atomic coordinate data resulting 
# from the CCDC's data processing and validation procedures.
#
#######################################################################

data_VEVLUF
_chemical_formula_moiety         'C15 H20 N6 O2,H2 O1'
_chemical_name_systematic        
'1,3-bis(4,6-Dimethylpyrimidin-2-yl)imidazolidine-4,5-diol monohydrate'
_symmetry_cell_setting           monoclinic
_symmetry_space_group_name_H-M   'P 21/n'
_symmetry_Int_Tables_number      14
_space_group_name_Hall           '-P 2yn'
loop_
_symmetry_equiv_pos_site_id
_symmetry_equiv_pos_as_xyz
1 x,y,z
2 1/2-x,1/2+y,1/2-z
3 -x,-y,-z
4 1/2+x,1/2-y,1/2+z
_cell_length_a                   9.9600(18)
_cell_length_b                   15.012(3)
_cell_length_c                   11.355(2)
_cell_angle_alpha                90
_cell_angle_beta                 99.696(2)
_cell_angle_gamma                90
_cell_volume                     1673.54
_exptl_crystal_colour            colorless
_exptl_crystal_description       block
_cell_formula_units_Z            4
loop_
_atom_site_label
_atom_site_type_symbol
_atom_site_fract_x
_atom_site_fract_y
_atom_site_fract_z
O1 O 0.4129(2) 0.19628(14) 0.28237(18)
H1 H 0.3536 0.2290 0.3004
O2 O 0.29407(19) -0.00414(13) 0.12784(18)
H2 H 0.2166 0.0118 0.1424
N1 N 0.4326(2) 0.17592(15) 0.0797(2)
N2 N 0.5230(2) 0.04542(15) 0.1475(2)
N3 N 0.5747(2) -0.08409(16) 0.2524(2)
N4 N 0.7238(2) -0.02551(15) 0.1251(2)
N5 N 0.5055(2) 0.28428(15) -0.0404(2)
N6 N 0.2989(2) 0.29973(16) 0.0413(2)
C1 C 0.5855(4) 0.3989(2) -0.1619(4)
H3 H 0.6572 0.3559 -0.1594
H4 H 0.6226 0.4539 -0.1276
H5 H 0.5435 0.4088 -0.2433
C2 C 0.4812(3) 0.3649(2) -0.0922(3)
C3 C 0.3668(3) 0.4135(2) -0.0799(3)
H6 H 0.3510 0.4689 -0.1164
C4 C 0.2770(3) 0.3785(2) -0.0135(3)
C5 C 0.1465(3) 0.4247(2) 0.0023(3)
H7 H 0.0989 0.3893 0.0523
H8 H 0.0903 0.4325 -0.0744
H9 H 0.1675 0.4819 0.0387
C6 C 0.4123(3) 0.25694(18) 0.0242(2)
C7 C 0.3614(3) 0.15068(18) 0.1748(2)
H10 H 0.2630 0.1599 0.1520
C8 C 0.3949(3) 0.05190(18) 0.1908(3)
H11 H 0.4088 0.0367 0.2759
C9 C 0.5540(3) 0.12321(18) 0.0803(3)
H12 H 0.6346 0.1540 0.1203
H13 H 0.5663 0.1074 -0.0001
C10 C 0.6118(3) -0.02403(18) 0.1764(2)
C11 C 0.6615(3) -0.1515(2) 0.2821(3)
C12 C 0.6189(4) -0.2193(2) 0.3670(4)
H14 H 0.5325 -0.2025 0.3870
H15 H 0.6858 -0.2218 0.4384
H16 H 0.6111 -0.2768 0.3293
C13 C 0.7814(3) -0.1578(2) 0.2371(3)
H17 H 0.8420 -0.2042 0.2599
C14 C 0.8090(3) -0.0946(2) 0.1576(3)
C15 C 0.9349(3) -0.0988(3) 0.1004(4)
H18 H 0.9363 -0.0490 0.0475
H19 H 0.9348 -0.1532 0.0561
H20 H 1.0142 -0.0969 0.1616
O3 O 0.2228(3) 0.30529(17) 0.3475(3)
H21 H 0.214(6) 0.3620(14) 0.325(6)
H22 H 0.160(4) 0.286(3) 0.388(4)
loop_
_geom_bond_atom_site_label_1
_geom_bond_atom_site_label_2
_geom_bond_site_symmetry_1
_geom_bond_site_symmetry_2
O1 H1 1_555 1_555
O2 H2 1_555 1_555
N1 C6 1_555 1_555
N2 C8 1_555 1_555
N3 C10 1_555 1_555
N4 C10 1_555 1_555
N5 C2 1_555 1_555
N6 C4 1_555 1_555
C1 H3 1_555 1_555
H4 C1 1_555 1_555
H5 C1 1_555 1_555
C2 C1 1_555 1_555
C3 C2 1_555 1_555
H6 C3 1_555 1_555
C4 C3 1_555 1_555
C5 C4 1_555 1_555
H7 C5 1_555 1_555
H8 C5 1_555 1_555
H9 C5 1_555 1_555
C6 N5 1_555 1_555
C7 O1 1_555 1_555
H10 C7 1_555 1_555
C8 O2 1_555 1_555
H11 C8 1_555 1_555
C9 N1 1_555 1_555
H12 C9 1_555 1_555
H13 C9 1_555 1_555
C10 N2 1_555 1_555
C11 N3 1_555 1_555
C12 C11 1_555 1_555
H14 C12 1_555 1_555
H15 C12 1_555 1_555
H16 C12 1_555 1_555
C13 C11 1_555 1_555
H17 C13 1_555 1_555
C14 N4 1_555 1_555
C15 C14 1_555 1_555
H18 C15 1_555 1_555
H19 C15 1_555 1_555
H20 C15 1_555 1_555
O3 H21 1_555 1_555
H22 O3 1_555 1_555
N1 C7 1_555 1_555
N2 C9 1_555 1_555
N6 C6 1_555 1_555
C7 C8 1_555 1_555
C13 C14 1_555 1_555

#END
