
#######################################################################
#
#                 Cambridge Crystallographic Data Centre
#                                CCDC 
#
#######################################################################
#
# If this CIF has been generated from an entry in the Cambridge 
# Structural Database, then it will include bibliographic, chemical, 
# crystal, experimental, refinement or atomic coordinate data resulting 
# from the CCDC's data processing and validation procedures.
#
#######################################################################

data_VEVMAM
_chemical_formula_moiety         'C21 H24 N2 O6,0.67(C2 H6 O1)'
_chemical_name_systematic        
"4,4'-(4,5-Diethoxyimidazolidine-1,3-diyl)dibenzoic acid ethanol solvate"
_symmetry_cell_setting           monoclinic
_symmetry_space_group_name_H-M   'C 2/c'
_symmetry_Int_Tables_number      15
_space_group_name_Hall           '-C 2yn'
loop_
_symmetry_equiv_pos_site_id
_symmetry_equiv_pos_as_xyz
1 x,y,z
2 -x,y,1/2-z
3 1/2+x,1/2+y,z
4 1/2-x,1/2+y,1/2-z
5 -x,-y,-z
6 x,-y,1/2+z
7 1/2-x,1/2-y,-z
8 1/2+x,1/2-y,1/2+z
_cell_length_a                   21.193(4)
_cell_length_b                   10.938(2)
_cell_length_c                   29.399(5)
_cell_angle_alpha                90
_cell_angle_beta                 103.387(3)
_cell_angle_gamma                90
_cell_volume                     6629.78
_exptl_crystal_colour            colorless
_exptl_crystal_description       block
_cell_formula_units_Z            12
loop_
_atom_site_label
_atom_site_type_symbol
_atom_site_fract_x
_atom_site_fract_y
_atom_site_fract_z
N1 N 0.3899(2) -0.9496(5) -0.15424(19)
N2 N 0.3483(3) -0.8440(5) -0.2195(2)
O1 O 0.4627(3) -1.4615(6) -0.05361(17)
O2 O 0.4992(3) -1.3365(5) 0.0060(2)
O3 O 0.2116(3) -0.8082(5) -0.4354(3)
O4 O 0.2335(2) -0.6117(5) -0.41931(15)
O5 O 0.3283(3) -0.8205(4) -0.11962(19)
O6 O 0.4295(3) -0.7012(4) -0.19125(14)
C1 C 0.4718(4) -1.3560(9) -0.0374(3)
C2 C 0.4240(3) -1.2636(6) -0.1131(3)
H1 H 0.4194 -1.3424 -0.1254
C3 C 0.4037(3) -1.1675(8) -0.1416(2)
H2 H 0.3854 -1.1814 -0.1731
C4 C 0.4098(3) -1.0479(7) -0.1248(3)
C5 C 0.4373(3) -1.0316(6) -0.0771(3)
H3 H 0.4416 -0.9531 -0.0646
C6 C 0.4581(3) -1.1302(8) -0.0488(2)
H4 H 0.4770 -1.1176 -0.0173
C7 C 0.4514(3) -1.2475(7) -0.0663(3)
C8 C 0.3835(3) -0.8272(6) -0.1385(2)
H5 H 0.4227 -0.7998 -0.1162
C9 C 0.3558(3) -0.9655(6) -0.2016(2)
H6 H 0.3141 -1.0039 -0.2035
H7 H 0.3807 -1.0150 -0.2186
C10 C 0.3718(4) -0.7554(6) -0.1845(2)
H8 H 0.3388 -0.6924 -0.1849
C11 C 0.3212(3) -0.8131(7) -0.2652(3)
C12 C 0.3167(3) -0.6933(7) -0.2811(3)
H9 H 0.3328 -0.6304 -0.2604
C13 C 0.2890(3) -0.6663(7) -0.3266(3)
H10 H 0.2863 -0.5851 -0.3363
C14 C 0.2647(3) -0.7569(8) -0.3587(2)
C15 C 0.2694(3) -0.8764(7) -0.3437(3)
H11 H 0.2535 -0.9388 -0.3647
C16 C 0.2975(3) -0.9046(6) -0.2975(3)
H12 H 0.3006 -0.9859 -0.2879
C17 C 0.2352(4) -0.7209(10) -0.4067(3)
C18 C 0.4463(5) -0.5891(8) -0.1672(3)
H13 H 0.4550 -0.6032 -0.1337
H14 H 0.4103 -0.5323 -0.1755
C19 C 0.5046(5) -0.5352(8) -0.1793(3)
H15 H 0.5151 -0.4592 -0.1630
H16 H 0.4960 -0.5209 -0.2124
H17 H 0.5405 -0.5906 -0.1704
C20 C 0.3318(7) -0.7287(12) -0.0867(4)
H18 H 0.3658 -0.7490 -0.0595
H19 H 0.3441 -0.6531 -0.0996
C21 C 0.2750(8) -0.7096(15) -0.0725(5)
H20 H 0.2809 -0.6439 -0.0503
H21 H 0.2634 -0.7827 -0.0583
H22 H 0.2410 -0.6888 -0.0991
H23 H 0.190(3) -0.778(6) -0.464(3)
H24 H 0.508(4) -1.422(9) 0.023(3)
N3 N 0.0222(2) -0.4582(5) -0.71155(18)
O7 O 0.1545(2) -0.7304(5) -0.52101(15)
O8 O 0.1747(3) -0.5354(5) -0.50144(18)
O9 O 0.0878(2) -0.3103(4) -0.73418(14)
C22 C 0.1494(3) -0.6189(9) -0.5312(3)
C23 C 0.0883(3) -0.6580(6) -0.6117(3)
H25 H 0.0903 -0.7412 -0.6049
C24 C 0.1157(3) -0.5768(8) -0.5777(2)
C25 C 0.1126(3) -0.4529(8) -0.5894(3)
H26 H 0.1314 -0.3956 -0.5669
C26 C 0.0826(3) -0.4145(6) -0.6330(3)
H27 H 0.0815 -0.3314 -0.6398
C27 C 0.0537(3) -0.4962(7) -0.6677(3)
C28 C 0.0580(3) -0.6200(7) -0.6557(3)
H28 H 0.0398 -0.6779 -0.6781
C29 C 0.0000 -0.5430(8) -0.7500
H29 H -0.0346 -0.5936 -0.7446
C30 C 0.0249(3) -0.3351(6) -0.7270(2)
H30 H 0.0133 -0.2772 -0.7048
C31 C 0.1788(4) -0.1815(7) -0.7269(3)
H31 H 0.1914 -0.0977 -0.7206
H32 H 0.1840 -0.2036 -0.7574
H33 H 0.2056 -0.2331 -0.7039
C32 C 0.1105(5) -0.1967(8) -0.7250(3)
H34 H 0.1059 -0.1737 -0.6940
H35 H 0.0842 -0.1412 -0.7472
H36 H 0.194(3) -0.565(6) -0.4698(10)
N3A N -0.0222(2) -0.4582(5) -0.78845(18)
O7A O -0.1545(2) -0.7304(5) -0.97899(15)
O8A O -0.1747(3) -0.5354(5) -0.99856(18)
O9A O -0.0878(2) -0.3103(4) -0.76582(14)
C22A C -0.1494(3) -0.6189(9) -0.9688(3)
C23A C -0.0883(3) -0.6580(6) -0.8883(3)
H25A H -0.0903 -0.7412 -0.8951
C24A C -0.1157(3) -0.5768(8) -0.9223(2)
C25A C -0.1126(3) -0.4529(8) -0.9106(3)
H26A H -0.1314 -0.3956 -0.9331
C26A C -0.0826(3) -0.4145(6) -0.8670(3)
H27A H -0.0815 -0.3314 -0.8602
C27A C -0.0537(3) -0.4962(7) -0.8323(3)
C28A C -0.0580(3) -0.6200(7) -0.8443(3)
H28A H -0.0398 -0.6779 -0.8219
H29A H 0.0346 -0.5936 -0.7554
C30A C -0.0249(3) -0.3351(6) -0.7730(2)
H30A H -0.0133 -0.2772 -0.7952
C31A C -0.1788(4) -0.1815(7) -0.7731(3)
H31A H -0.1914 -0.0977 -0.7794
H32A H -0.1840 -0.2036 -0.7426
H33A H -0.2056 -0.2331 -0.7961
C32A C -0.1105(5) -0.1967(8) -0.7750(3)
H34A H -0.1059 -0.1737 -0.8060
H35A H -0.0842 -0.1412 -0.7528
H36A H -0.194(3) -0.565(6) -1.0302(10)
O10 O 0.3477(8) -0.5707(14) 0.1016(5)
H37 H 0.3171 -0.5228 0.0970
C33 C 0.3347(17) -0.599(4) 0.0149(6)
H38 H 0.3593 -0.5984 -0.0088
H39 H 0.3007 -0.5389 0.0072
H40 H 0.3162 -0.6780 0.0165
C34 C 0.3788(9) -0.567(2) 0.0615(9)
H41 H 0.4149 -0.6242 0.0676
H42 H 0.3964 -0.4862 0.0596
loop_
_geom_bond_atom_site_label_1
_geom_bond_atom_site_label_2
_geom_bond_site_symmetry_1
_geom_bond_site_symmetry_2
N1 C4 1_555 1_555
N2 C9 1_555 1_555
O1 C1 1_555 1_555
O2 C1 1_555 1_555
O3 C17 1_555 1_555
O4 C17 1_555 1_555
O5 C8 1_555 1_555
O6 C10 1_555 1_555
C1 C7 1_555 1_555
C2 H1 1_555 1_555
C3 C2 1_555 1_555
H2 C3 1_555 1_555
C4 C3 1_555 1_555
C5 C4 1_555 1_555
H3 C5 1_555 1_555
C6 C5 1_555 1_555
H4 C6 1_555 1_555
C7 C2 1_555 1_555
C8 N1 1_555 1_555
H5 C8 1_555 1_555
C9 N1 1_555 1_555
H6 C9 1_555 1_555
H7 C9 1_555 1_555
C10 N2 1_555 1_555
H8 C10 1_555 1_555
C11 N2 1_555 1_555
C12 C11 1_555 1_555
H9 C12 1_555 1_555
C13 C12 1_555 1_555
H10 C13 1_555 1_555
C14 C13 1_555 1_555
C15 C14 1_555 1_555
H11 C15 1_555 1_555
C16 C11 1_555 1_555
H12 C16 1_555 1_555
C17 C14 1_555 1_555
C18 O6 1_555 1_555
H13 C18 1_555 1_555
H14 C18 1_555 1_555
C19 C18 1_555 1_555
H15 C19 1_555 1_555
H16 C19 1_555 1_555
H17 C19 1_555 1_555
C20 O5 1_555 1_555
H18 C20 1_555 1_555
H19 C20 1_555 1_555
C21 C20 1_555 1_555
H20 C21 1_555 1_555
H21 C21 1_555 1_555
H22 C21 1_555 1_555
H23 O3 1_555 1_555
H24 O2 1_555 1_555
N3 C27 1_555 1_555
O7 C22 1_555 1_555
O8 C22 1_555 1_555
O9 C30 1_555 1_555
C22 C24 1_555 1_555
C23 H25 1_555 1_555
C24 C23 1_555 1_555
C25 C24 1_555 1_555
H26 C25 1_555 1_555
C26 C25 1_555 1_555
H27 C26 1_555 1_555
C27 C26 1_555 1_555
C28 C23 1_555 1_555
H28 C28 1_555 1_555
C29 N3 1_555 1_555
H29 C29 1_555 1_555
C30 N3 1_555 1_555
H30 C30 1_555 1_555
C31 H31 1_555 1_555
H32 C31 1_555 1_555
H33 C31 1_555 1_555
C32 O9 1_555 1_555
H34 C32 1_555 1_555
H35 C32 1_555 1_555
H36 O8 1_555 1_555
O10 H37 1_555 1_555
C33 H38 1_555 1_555
H39 C33 1_555 1_555
H40 C33 1_555 1_555
C34 O10 1_555 1_555
H41 C34 1_555 1_555
H42 C34 1_555 1_555
N3A C29 1_555 1_555
O7A C22A 1_555 1_555
O8A C22A 1_555 1_555
O9A C30A 1_555 1_555
C22A C24A 1_555 1_555
C23A H25A 1_555 1_555
C24A C23A 1_555 1_555
C25A C24A 1_555 1_555
H26A C25A 1_555 1_555
C26A C25A 1_555 1_555
H27A C26A 1_555 1_555
C27A N3A 1_555 1_555
C28A C23A 1_555 1_555
H28A C28A 1_555 1_555
H29A C29 1_555 1_555
C30A C30 1_555 1_555
H30A C30A 1_555 1_555
C31A H31A 1_555 1_555
H32A C31A 1_555 1_555
H33A C31A 1_555 1_555
C32A O9A 1_555 1_555
H34A C32A 1_555 1_555
H35A C32A 1_555 1_555
H36A O8A 1_555 1_555
C6 C7 1_555 1_555
C8 C10 1_555 1_555
C15 C16 1_555 1_555
C27 C28 1_555 1_555
C31 C32 1_555 1_555
C33 C34 1_555 1_555
N3A C30A 1_555 1_555
C26A C27A 1_555 1_555
C27A C28A 1_555 1_555
C31A C32A 1_555 1_555

#END
