
#######################################################################
#
#                 Cambridge Crystallographic Data Centre
#                                CCDC 
#
#######################################################################
#
# If this CIF has been generated from an entry in the Cambridge 
# Structural Database, then it will include bibliographic, chemical, 
# crystal, experimental, refinement or atomic coordinate data resulting 
# from the CCDC's data processing and validation procedures.
#
#######################################################################

data_VEVQAQ
_chemical_formula_moiety         'C16 H14 N3 O3 1+,C3 H3 O4 1-'
_chemical_name_systematic        
'5-Benzoyl-2-((methoxycarbonyl)amino)-1H-benzimidazolium methoxy(oxo)acetate'
_symmetry_cell_setting           monoclinic
_symmetry_space_group_name_H-M   'P n'
_symmetry_Int_Tables_number      7
_space_group_name_Hall           'P -2yac'
loop_
_symmetry_equiv_pos_site_id
_symmetry_equiv_pos_as_xyz
1 x,y,z
2 1/2+x,-y,1/2+z
_cell_length_a                   4.4592(5)
_cell_length_b                   15.3668(11)
_cell_length_c                   13.3336(12)
_cell_angle_alpha                90
_cell_angle_beta                 90.602(8)
_cell_angle_gamma                90
_cell_volume                     913.616
_exptl_crystal_colour            white
_exptl_crystal_description       Needle
_cell_formula_units_Z            2
loop_
_atom_site_label
_atom_site_type_symbol
_atom_site_fract_x
_atom_site_fract_y
_atom_site_fract_z
N1 N 1.1210(7) 0.55396(17) 0.7681(2)
O1 O 1.2838(5) 0.68183(14) 0.81919(17)
N2 N 0.9825(6) 0.40952(16) 0.73092(18)
C1 C 0.9585(7) 0.4948(2) 0.7151(2)
C2 C 0.7172(7) 0.28128(19) 0.6549(2)
H1 H 0.8132 0.2380 0.6947
N3 N 0.7599(6) 0.51173(17) 0.6415(2)
O2 O 0.9193(5) 0.67728(14) 0.69971(17)
O3 O 0.2801(6) 0.14337(15) 0.49178(18)
C3 C 0.6445(7) 0.4322(2) 0.6078(2)
C4 C 0.7847(7) 0.36891(19) 0.6657(2)
C5 C 1.2742(10) 0.7758(2) 0.8173(3)
H2 H 1.3346 0.7966 0.7510
H3 H 1.4117 0.7991 0.8685
H4 H 1.0697 0.7956 0.8311
C6 C 1.0921(8) 0.64246(19) 0.7564(2)
C7 C 0.3653(8) 0.32458(19) 0.5236(2)
H5 H 0.2219 0.3077 0.4741
C8 C 0.4158(8) 0.1672(2) 0.5679(2)
C9 C 0.5037(7) 0.10131(19) 0.6454(2)
C10 C 0.4533(9) 0.1157(2) 0.7476(2)
H6 H 0.3600 0.1679 0.7692
C11 C 0.5013(7) 0.2600(2) 0.5827(2)
C12 C 0.4316(7) 0.41138(18) 0.5345(2)
H7 H 0.3375 0.4548 0.4944
C13 C 0.7345(11) -0.0359(2) 0.6850(3)
H8 H 0.8342 -0.0873 0.6639
C14 C 0.5404(10) 0.0533(2) 0.8166(3)
H9 H 0.5027 0.0621 0.8858
C15 C 0.6415(9) 0.0250(2) 0.6147(3)
H10 H 0.6721 0.0145 0.5453
C16 C 0.6829(11) -0.0222(2) 0.7850(3)
H11 H 0.7449 -0.0644 0.8330
H12 H 1.130(9) 0.380(2) 0.784(3)
H13 H 1.239(10) 0.533(2) 0.806(3)
H14 H 0.724(12) 0.562(3) 0.619(3)
O4 O 1.4954(5) 0.46164(13) 0.89989(17)
O5 O 1.3237(5) 0.32937(13) 0.85572(17)
O6 O 1.7413(5) 0.25250(13) 0.96029(16)
O7 O 1.8780(6) 0.37817(14) 1.03243(17)
C17 C 1.7279(7) 0.33766(19) 0.9739(2)
C18 C 1.4936(7) 0.3806(2) 0.9032(2)
C19 C 1.9615(8) 0.2064(2) 1.0198(3)
H15 H 2.1614 0.2164 0.9922
H16 H 1.9166 0.1440 1.0186
H17 H 1.9563 0.2275 1.0891
loop_
_geom_bond_atom_site_label_1
_geom_bond_atom_site_label_2
_geom_bond_site_symmetry_1
_geom_bond_site_symmetry_2
N1 C1 1_555 1_555
O1 C5 1_555 1_555
N2 C1 1_555 1_555
C1 N3 1_555 1_555
C2 H1 1_555 1_555
N3 C3 1_555 1_555
O2 C6 1_555 1_555
O3 C8 1_555 1_555
C3 C4 1_555 1_555
C4 N2 1_555 1_555
C5 H2 1_555 1_555
H3 C5 1_555 1_555
H4 C5 1_555 1_555
C6 N1 1_555 1_555
C7 H5 1_555 1_555
C8 C9 1_555 1_555
C9 C10 1_555 1_555
C10 H6 1_555 1_555
C11 C2 1_555 1_555
C12 C3 1_555 1_555
H7 C12 1_555 1_555
C13 H8 1_555 1_555
C14 C10 1_555 1_555
H9 C14 1_555 1_555
C15 C9 1_555 1_555
H10 C15 1_555 1_555
C16 C13 1_555 1_555
H11 C16 1_555 1_555
H12 N2 1_555 1_555
H13 N1 1_555 1_555
H14 N3 1_555 1_555
O4 C18 1_555 1_555
O5 C18 1_555 1_555
O6 C17 1_555 1_555
O7 C17 1_555 1_555
C17 C18 1_555 1_555
C19 O6 1_555 1_555
H15 C19 1_555 1_555
H16 C19 1_555 1_555
H17 C19 1_555 1_555
O1 C6 1_555 1_555
C2 C4 1_555 1_555
C7 C11 1_555 1_555
C7 C12 1_555 1_555
C8 C11 1_555 1_555
C13 C15 1_555 1_555
C14 C16 1_555 1_555

#END
