
#######################################################################
#
#                 Cambridge Crystallographic Data Centre
#                                CCDC 
#
#######################################################################
#
# If this CIF has been generated from an entry in the Cambridge 
# Structural Database, then it will include bibliographic, chemical, 
# crystal, experimental, refinement or atomic coordinate data resulting 
# from the CCDC's data processing and validation procedures.
#
#######################################################################

data_VEVVUQ
_chemical_formula_moiety         'C26 H27 N3 O4 S1'
_chemical_name_systematic        
(R,R)-N-[5'-(hydroxymethyl)-1-methyl-3'-(4-methylphenyl)spiro[indole-3,2'-[1,3]oxazolidin]-2(1H)-ylidene]-4-methylbenzene-1-sulfonamide
_symmetry_cell_setting           orthorhombic
_symmetry_space_group_name_H-M   'P 21 21 21'
_symmetry_Int_Tables_number      19
_space_group_name_Hall           'P 2ac 2ab'
loop_
_symmetry_equiv_pos_site_id
_symmetry_equiv_pos_as_xyz
1 x,y,z
2 1/2-x,-y,1/2+z
3 1/2+x,1/2-y,-z
4 -x,1/2+y,1/2-z
_cell_length_a                   8.6243(6)
_cell_length_b                   10.5297(7)
_cell_length_c                   25.811(2)
_cell_angle_alpha                90
_cell_angle_beta                 90
_cell_angle_gamma                90
_cell_volume                     2343.93
_exptl_crystal_colour            yellow
_exptl_crystal_description       block
_cell_formula_units_Z            4
loop_
_atom_site_label
_atom_site_type_symbol
_atom_site_fract_x
_atom_site_fract_y
_atom_site_fract_z
S1 S 0.00147(8) 0.43964(6) 0.88503(3)
O1 O 0.35148(19) 0.50969(14) 0.95963(6)
O2 O 0.4965(6) 0.3545(2) 1.03759(10)
H1 H 0.459(6) 0.292(4) 1.055(2)
O3 O -0.1279(2) 0.4000(2) 0.91539(8)
O4 O 0.1288(2) 0.35205(17) 0.88304(9)
N1 N 0.1703(2) 0.75888(17) 0.92568(7)
N2 N 0.4108(2) 0.51506(17) 0.87410(8)
N3 N 0.0423(2) 0.5804(2) 0.90448(8)
C1 C 0.5832(3) 0.7406(2) 0.93368(9)
H2 H 0.6584 0.6800 0.9261
C2 C 0.6247(3) 0.8602(2) 0.95169(10)
H3 H 0.7287 0.8798 0.9567
C3 C 0.5134(3) 0.9496(2) 0.96216(9)
H4 H 0.5437 1.0283 0.9750
C4 C 0.3578(3) 0.9262(2) 0.95419(9)
H5 H 0.2828 0.9878 0.9604
C5 C 0.3196(2) 0.8066(2) 0.93651(8)
C6 C 0.4283(3) 0.7141(2) 0.92727(8)
C7 C 0.3469(2) 0.5897(2) 0.91555(8)
C8 C 0.1738(3) 0.6356(2) 0.91216(9)
C9 C 0.0271(3) 0.8286(3) 0.93230(11)
H6 H -0.0274 0.7965 0.9620
H7 H -0.0361 0.8186 0.9020
H8 H 0.0499 0.9170 0.9374
C10 C 0.4731(3) 0.3966(2) 0.89467(9)
H9 H 0.5749 0.3784 0.8805
H10 H 0.4045 0.3257 0.8877
C11 C 0.4812(3) 0.4253(2) 0.95156(9)
H11 H 0.5782 0.4700 0.9593
C12 C 0.4648(5) 0.3129(2) 0.98687(12)
H12 H 0.3604 0.2790 0.9848
H13 H 0.5370 0.2467 0.9769
C13 C -0.0628(3) 0.4717(2) 0.82177(10)
C14 C -0.1819(3) 0.5560(3) 0.81389(10)
H14 H -0.2296 0.5947 0.8421
C15 C -0.2311(3) 0.5835(3) 0.76453(11)
H15 H -0.3119 0.6407 0.7596
C16 C -0.1621(3) 0.5273(2) 0.72226(10)
C17 C -0.0437(3) 0.4429(3) 0.73108(11)
H16 H 0.0031 0.4034 0.7029
C18 C 0.0082(3) 0.4147(2) 0.78012(11)
H17 H 0.0897 0.3581 0.7850
C19 C -0.2175(4) 0.5575(4) 0.66813(11)
H18 H -0.1300 0.5769 0.6465
H19 H -0.2861 0.6293 0.6692
H20 H -0.2716 0.4855 0.6542
C20 C 0.3846(3) 0.5363(2) 0.82186(9)
C21 C 0.3301(3) 0.6514(2) 0.80342(9)
H21 H 0.3108 0.7169 0.8267
C22 C 0.3038(3) 0.6710(2) 0.75146(10)
H22 H 0.2657 0.7491 0.7404
C23 C 0.3330(3) 0.5767(3) 0.71515(9)
C24 C 0.3915(3) 0.4635(3) 0.73365(10)
H23 H 0.4142 0.3991 0.7102
C25 C 0.4173(3) 0.4426(2) 0.78541(10)
H24 H 0.4572 0.3650 0.7963
C26 C 0.2998(4) 0.5974(4) 0.65820(11)
H25 H 0.3957 0.6006 0.6394
H26 H 0.2450 0.6760 0.6538
H27 H 0.2376 0.5287 0.6453
loop_
_geom_bond_atom_site_label_1
_geom_bond_atom_site_label_2
_geom_bond_site_symmetry_1
_geom_bond_site_symmetry_2
S1 O3 1_555 1_555
O1 C7 1_555 1_555
O2 H1 1_555 1_555
O4 S1 1_555 1_555
N1 C5 1_555 1_555
N2 C7 1_555 1_555
N3 S1 1_555 1_555
C1 H2 1_555 1_555
C2 C1 1_555 1_555
H3 C2 1_555 1_555
C3 C2 1_555 1_555
H4 C3 1_555 1_555
C4 C3 1_555 1_555
H5 C4 1_555 1_555
C5 C4 1_555 1_555
C6 C1 1_555 1_555
C7 C6 1_555 1_555
C8 N1 1_555 1_555
C9 N1 1_555 1_555
H6 C9 1_555 1_555
H7 C9 1_555 1_555
H8 C9 1_555 1_555
C10 N2 1_555 1_555
H9 C10 1_555 1_555
H10 C10 1_555 1_555
C11 O1 1_555 1_555
H11 C11 1_555 1_555
C12 O2 1_555 1_555
H12 C12 1_555 1_555
H13 C12 1_555 1_555
C13 S1 1_555 1_555
C14 C13 1_555 1_555
H14 C14 1_555 1_555
C15 C14 1_555 1_555
H15 C15 1_555 1_555
C16 C15 1_555 1_555
C17 C16 1_555 1_555
H16 C17 1_555 1_555
C18 C13 1_555 1_555
H17 C18 1_555 1_555
C19 C16 1_555 1_555
H18 C19 1_555 1_555
H19 C19 1_555 1_555
H20 C19 1_555 1_555
C20 N2 1_555 1_555
C21 C20 1_555 1_555
H21 C21 1_555 1_555
C22 C21 1_555 1_555
H22 C22 1_555 1_555
C23 C22 1_555 1_555
C24 C23 1_555 1_555
H23 C24 1_555 1_555
C25 C20 1_555 1_555
H24 C25 1_555 1_555
C26 C23 1_555 1_555
H25 C26 1_555 1_555
H26 C26 1_555 1_555
H27 C26 1_555 1_555
N3 C8 1_555 1_555
C5 C6 1_555 1_555
C7 C8 1_555 1_555
C10 C11 1_555 1_555
C11 C12 1_555 1_555
C17 C18 1_555 1_555
C24 C25 1_555 1_555

#END
