
#######################################################################
#
#                 Cambridge Crystallographic Data Centre
#                                CCDC 
#
#######################################################################
#
# If this CIF has been generated from an entry in the Cambridge 
# Structural Database, then it will include bibliographic, chemical, 
# crystal, experimental, refinement or atomic coordinate data resulting 
# from the CCDC's data processing and validation procedures.
#
#######################################################################

data_VEVWEB
_chemical_formula_moiety         'C19 H20 N2 O2'
_chemical_name_systematic        
1,5'-dimethyl-3'-(4-methylphenyl)spiro[indole-3,2'-[1,3]oxazolidin]-2(1H)-one
_symmetry_cell_setting           orthorhombic
_symmetry_space_group_name_H-M   'P 21 21 21'
_symmetry_Int_Tables_number      19
_space_group_name_Hall           'P 2ac 2ab'
loop_
_symmetry_equiv_pos_site_id
_symmetry_equiv_pos_as_xyz
1 x,y,z
2 1/2-x,-y,1/2+z
3 1/2+x,1/2-y,-z
4 -x,1/2+y,1/2-z
_cell_length_a                   9.5082(14)
_cell_length_b                   9.5276(15)
_cell_length_c                   18.393(3)
_cell_angle_alpha                90
_cell_angle_beta                 90
_cell_angle_gamma                90
_cell_volume                     1666.23
_exptl_crystal_colour            yellow
_exptl_crystal_description       block
_cell_formula_units_Z            4
loop_
_atom_site_label
_atom_site_type_symbol
_atom_site_fract_x
_atom_site_fract_y
_atom_site_fract_z
O1 O 0.5336(4) 0.6576(4) 0.1636(2)
O2 O 0.4375(3) 0.7836(4) 0.02299(16)
N1 N 0.5890(4) 0.8904(5) 0.1711(2)
N2 N 0.2615(3) 0.7829(4) 0.10700(17)
C1 C 0.3527(6) 1.0949(6) 0.0648(3)
H1 H 0.274471 1.077213 0.035817
C2 C 0.3996(7) 1.2330(6) 0.0772(3)
H2 H 0.353444 1.308144 0.055475
C3 C 0.5133(7) 1.2567(6) 0.1214(3)
H3 H 0.543411 1.348435 0.128700
C4 C 0.5841(6) 1.1496(6) 0.1550(3)
H4 H 0.659920 1.167300 0.185578
C5 C 0.5388(5) 1.0154(5) 0.1419(2)
C6 C 0.4245(5) 0.9894(5) 0.0961(2)
C7 C 0.4026(4) 0.8353(4) 0.0932(2)
C8 C 0.5151(5) 0.7793(6) 0.1472(3)
C9 C 0.3293(5) 0.6935(5) -0.0039(2)
H5 H 0.270618 0.745670 -0.038380
C10 C 0.2435(5) 0.6582(5) 0.0625(2)
H6 H 0.145436 0.643420 0.050179
H7 H 0.279598 0.575382 0.086803
C11 C 0.7024(6) 0.8805(7) 0.2239(3)
H8 H 0.787864 0.914976 0.202660
H9 H 0.714720 0.784234 0.237990
H10 H 0.679323 0.935622 0.265921
C12 C 0.3957(7) 0.5709(5) -0.0423(3)
H11 H 0.450135 0.604152 -0.082708
H12 H 0.323559 0.508748 -0.059456
H13 H 0.455943 0.521468 -0.009080
C13 C 0.2016(4) 0.7914(5) 0.1762(2)
C14 C 0.0978(4) 0.6959(5) 0.1974(2)
H14 H 0.071694 0.624039 0.165932
C15 C 0.0341(5) 0.7068(5) 0.2638(3)
H15 H -0.034272 0.641257 0.276292
C16 C 0.0668(5) 0.8104(5) 0.3128(2)
C17 C 0.1686(5) 0.9034(5) 0.2923(2)
H16 H 0.193793 0.974448 0.324464
C18 C 0.2363(4) 0.8961(4) 0.2253(2)
H17 H 0.304978 0.961707 0.213511
C19 C -0.0050(7) 0.8195(6) 0.3856(3)
H18 H 0.001639 0.730619 0.409925
H19 H -0.102169 0.843411 0.378762
H20 H 0.039818 0.890433 0.414592
loop_
_geom_bond_atom_site_label_1
_geom_bond_atom_site_label_2
_geom_bond_site_symmetry_1
_geom_bond_site_symmetry_2
O1 C8 1_555 1_555
O2 C7 1_555 1_555
N1 C5 1_555 1_555
N2 C7 1_555 1_555
C1 H1 1_555 1_555
C2 C1 1_555 1_555
H2 C2 1_555 1_555
C3 C2 1_555 1_555
H3 C3 1_555 1_555
C4 C3 1_555 1_555
H4 C4 1_555 1_555
C5 C4 1_555 1_555
C6 C1 1_555 1_555
C7 C6 1_555 1_555
C8 N1 1_555 1_555
C9 O2 1_555 1_555
H5 C9 1_555 1_555
C10 N2 1_555 1_555
H6 C10 1_555 1_555
H7 C10 1_555 1_555
C11 N1 1_555 1_555
H8 C11 1_555 1_555
H9 C11 1_555 1_555
H10 C11 1_555 1_555
C12 C9 1_555 1_555
H11 C12 1_555 1_555
H12 C12 1_555 1_555
H13 C12 1_555 1_555
C13 N2 1_555 1_555
C14 C13 1_555 1_555
H14 C14 1_555 1_555
C15 C14 1_555 1_555
H15 C15 1_555 1_555
C16 C15 1_555 1_555
C17 C16 1_555 1_555
H16 C17 1_555 1_555
C18 C13 1_555 1_555
H17 C18 1_555 1_555
C19 C16 1_555 1_555
H18 C19 1_555 1_555
H19 C19 1_555 1_555
H20 C19 1_555 1_555
C5 C6 1_555 1_555
C7 C8 1_555 1_555
C9 C10 1_555 1_555
C17 C18 1_555 1_555

#END
