
#######################################################################
#
#                 Cambridge Crystallographic Data Centre
#                                CCDC 
#
#######################################################################
#
# If this CIF has been generated from an entry in the Cambridge 
# Structural Database, then it will include bibliographic, chemical, 
# crystal, experimental, refinement or atomic coordinate data resulting 
# from the CCDC's data processing and validation procedures.
#
#######################################################################

data_VEWFAH
_chemical_formula_moiety         'C7 H4 Cl1 N1 O4,H2 O1'
_chemical_name_systematic        
'4-chloropyridine-2,6-dicarboxylic acid monohydrate'
_symmetry_cell_setting           monoclinic
_symmetry_space_group_name_H-M   'P 21'
_symmetry_Int_Tables_number      4
_space_group_name_Hall           'P 2yb'
loop_
_symmetry_equiv_pos_site_id
_symmetry_equiv_pos_as_xyz
1 x,y,z
2 -x,1/2+y,-z
_cell_length_a                   5.1787(4)
_cell_length_b                   9.4963(8)
_cell_length_c                   8.4794(8)
_cell_angle_alpha                90
_cell_angle_beta                 94.610(4)
_cell_angle_gamma                90
_cell_volume                     415.655
_exptl_crystal_colour            colorless
_exptl_crystal_description       plates
_cell_formula_units_Z            2
loop_
_atom_site_label
_atom_site_type_symbol
_atom_site_fract_x
_atom_site_fract_y
_atom_site_fract_z
N1 N 0.4082(6) 0.2656(4) 0.3054(3)
C1 C 0.5160(9) 0.3818(5) 0.2484(6)
C2 C 0.7081(10) 0.3800(5) 0.1415(6)
H1 H 0.7750 0.4652 0.1026
C3 C 0.7974(7) 0.2521(5) 0.0942(4)
C4 C 0.6911(11) 0.1298(5) 0.1531(7)
H2 H 0.7502 0.0399 0.1225
C5 C 0.4996(10) 0.1407(6) 0.2562(6)
C6 C 0.4115(10) 0.5223(4) 0.3024(6)
O1 O 0.5348(7) 0.6291(3) 0.2445(4)
H3 H 0.652(3) 0.617(4) 0.1885(15)
O2 O 0.2379(6) 0.5320(3) 0.3856(4)
Cl1 Cl 1.0311(2) 0.24291(11) -0.03973(11)
C7 C 0.3805(10) 0.0090(4) 0.3106(6)
O3 O 0.1959(7) 0.0244(3) 0.4052(4)
H4 H 0.135(5) -0.053(2) 0.432(3)
O4 O 0.4590(7) -0.1055(4) 0.2648(4)
O5 O -0.0113(8) 0.2921(4) 0.5216(4)
H5 H 0.100(7) 0.296(5) 0.453(4)
H6 H -0.044(10) 0.207(2) 0.545(6)
loop_
_geom_bond_atom_site_label_1
_geom_bond_atom_site_label_2
_geom_bond_site_symmetry_1
_geom_bond_site_symmetry_2
N1 C1 1_555 1_555
C1 C2 1_555 1_555
C2 H1 1_555 1_555
C3 C2 1_555 1_555
C4 C3 1_555 1_555
H2 C4 1_555 1_555
C5 N1 1_555 1_555
C6 C1 1_555 1_555
O1 C6 1_555 1_555
H3 O1 1_555 1_555
O2 C6 1_555 1_555
Cl1 C3 1_555 1_555
C7 C5 1_555 1_555
O3 C7 1_555 1_555
H4 O3 1_555 1_555
O4 C7 1_555 1_555
O5 H5 1_555 1_555
H6 O5 1_555 1_555
C4 C5 1_555 1_555

#END
