
#######################################################################
#
#                 Cambridge Crystallographic Data Centre
#                                CCDC 
#
#######################################################################
#
# If this CIF has been generated from an entry in the Cambridge 
# Structural Database, then it will include bibliographic, chemical, 
# crystal, experimental, refinement or atomic coordinate data resulting 
# from the CCDC's data processing and validation procedures.
#
#######################################################################

data_VEWGUZ01
_chemical_name_common            'hypercalin C'
_chemical_formula_moiety         'C30 H44 O5'
_chemical_name_systematic        
3,5-dihydroxy-4-((2-hydroxy-2-methyl-5-(prop-1-en-2-yl)cyclopentyl)methyl)-2-isobutyryl-6,6-bis(3-methylbut-2-en-1-yl)cyclohexa-2,4-dien-1-one
_symmetry_cell_setting           orthorhombic
_symmetry_space_group_name_H-M   'P 21 21 21'
_symmetry_Int_Tables_number      19
_space_group_name_Hall           'P 2ac 2ab'
loop_
_symmetry_equiv_pos_site_id
_symmetry_equiv_pos_as_xyz
1 x,y,z
2 1/2+x,1/2-y,-z
3 -x,1/2+y,1/2-z
4 1/2-x,-y,1/2+z
_cell_length_a                   10.0575(3)
_cell_length_b                   16.0634(4)
_cell_length_c                   17.3900(4)
_cell_angle_alpha                90
_cell_angle_beta                 90
_cell_angle_gamma                90
_cell_volume                     2809.49
_exptl_crystal_colour            colorless
_exptl_crystal_description       block
_cell_formula_units_Z            4
loop_
_atom_site_label
_atom_site_type_symbol
_atom_site_fract_x
_atom_site_fract_y
_atom_site_fract_z
O1 O 0.38425(10) 0.63314(7) 0.93478(5)
H1 H 0.3737 0.6540 0.8909
O2 O 0.39513(11) 0.65223(7) 0.79876(6)
O3 O 0.69087(10) 0.46667(7) 0.79849(6)
O4 O 0.65055(10) 0.44161(6) 1.06660(5)
H2 H 0.6365 0.4732 1.1043
O5 O 0.63418(10) 0.55135(6) 1.17911(5)
H3 H 0.6930 0.5501 1.2134
C1 C 0.37231(17) 0.32392(11) 1.03809(9)
H4 H 0.4675 0.3193 1.0493
H5 H 0.3277 0.2719 1.0522
H6 H 0.3343 0.3700 1.0678
C2 C 0.35293(15) 0.34018(9) 0.95361(9)
C3 C 0.45107(15) 0.35195(9) 0.90331(8)
H7 H 0.4257 0.3619 0.8515
C4 C 0.59737(14) 0.35122(9) 0.91982(8)
H8 H 0.6434 0.3227 0.8769
H9 H 0.6129 0.3181 0.9670
C5 C 0.66187(13) 0.43970(8) 0.93095(8)
C6 C 0.60364(13) 0.47710(8) 1.00245(7)
C7 C 0.50804(13) 0.53612(8) 1.00281(8)
C8 C 0.43090(13) 0.55943(9) 1.07435(8)
H10 H 0.4363 0.5121 1.1107
H11 H 0.3363 0.5657 1.0597
C9 C 0.47283(13) 0.63833(8) 1.11758(7)
H12 H 0.4696 0.6862 1.0808
C10 C 0.37822(14) 0.65747(9) 1.18482(7)
H13 H 0.3744 0.6069 1.2183
C11 C 0.23757(15) 0.67906(10) 1.16186(8)
C12 C 0.13617(16) 0.63568(13) 1.18912(9)
H14 H 0.0481 0.6489 1.1737
H15 H 0.1515 0.5913 1.2241
C13 C 0.21885(17) 0.74961(11) 1.10649(9)
H16 H 0.1236 0.7596 1.0989
H17 H 0.2601 0.7354 1.0571
H18 H 0.2606 0.7999 1.1272
C14 C 0.47257(13) 0.57493(8) 0.93129(8)
C15 C 0.53081(13) 0.55294(8) 0.85870(7)
C16 C 0.48451(14) 0.59656(9) 0.79180(8)
C17 C 0.53797(16) 0.58376(10) 0.71135(8)
H19 H 0.5640 0.5241 0.7050
C18 C 0.66310(18) 0.63873(10) 0.70368(9)
H20 H 0.6401 0.6967 0.7152
H21 H 0.6976 0.6349 0.6511
H22 H 0.7311 0.6195 0.7399
C19 C 0.4349(2) 0.60609(12) 0.65034(9)
H23 H 0.3575 0.5694 0.6556
H24 H 0.4739 0.5991 0.5991
H25 H 0.4071 0.6641 0.6571
C20 C 0.63109(13) 0.48833(8) 0.85689(7)
C21 C 0.21025(18) 0.34343(13) 0.92826(12)
H26 H 0.2063 0.3560 0.8732
H27 H 0.1635 0.3869 0.9571
H28 H 0.1680 0.2895 0.9380
C22 C 0.81428(14) 0.42723(9) 0.93945(8)
H29 H 0.8307 0.3823 0.9772
H30 H 0.8509 0.4088 0.8894
C23 C 0.88713(14) 0.50372(9) 0.96472(8)
H31 H 0.8657 0.5238 1.0146
C24 C 0.97815(14) 0.54729(9) 0.92634(9)
C25 C 1.04269(17) 0.62180(11) 0.96283(10)
H32 H 1.0025 0.6320 1.0133
H33 H 1.0296 0.6706 0.9299
H34 H 1.1381 0.6113 0.9691
C26 C 1.02604(18) 0.52807(11) 0.84649(9)
H35 H 0.9833 0.4770 0.8281
H36 H 1.1227 0.5204 0.8471
H37 H 1.0034 0.5743 0.8121
C27 C 0.61207(14) 0.63678(8) 1.15530(7)
C28 C 0.72390(14) 0.66429(9) 1.10226(9)
H38 H 0.8091 0.6596 1.1293
H39 H 0.7095 0.7223 1.0868
H40 H 0.7252 0.6287 1.0565
C29 C 0.59948(15) 0.69427(9) 1.22676(8)
H41 H 0.6206 0.6630 1.2743
H42 H 0.6615 0.7419 1.2225
C30 C 0.45538(15) 0.72498(10) 1.22868(8)
H43 H 0.4469 0.7797 1.2029
H44 H 0.4230 0.7300 1.2822
loop_
_geom_bond_atom_site_label_1
_geom_bond_atom_site_label_2
_geom_bond_site_symmetry_1
_geom_bond_site_symmetry_2
O1 H1 1_555 1_555
O2 C16 1_555 1_555
O3 C20 1_555 1_555
O4 H2 1_555 1_555
O5 H3 1_555 1_555
C1 H4 1_555 1_555
H5 C1 1_555 1_555
H6 C1 1_555 1_555
C2 C1 1_555 1_555
C3 C2 1_555 1_555
H7 C3 1_555 1_555
C4 C3 1_555 1_555
H8 C4 1_555 1_555
H9 C4 1_555 1_555
C5 C4 1_555 1_555
C6 O4 1_555 1_555
C7 C6 1_555 1_555
C8 C7 1_555 1_555
H10 C8 1_555 1_555
H11 C8 1_555 1_555
C9 C8 1_555 1_555
H12 C9 1_555 1_555
C10 C9 1_555 1_555
H13 C10 1_555 1_555
C11 C10 1_555 1_555
C12 C11 1_555 1_555
H14 C12 1_555 1_555
H15 C12 1_555 1_555
C13 C11 1_555 1_555
H16 C13 1_555 1_555
H17 C13 1_555 1_555
H18 C13 1_555 1_555
C14 O1 1_555 1_555
C15 C14 1_555 1_555
C16 C15 1_555 1_555
C17 C16 1_555 1_555
H19 C17 1_555 1_555
C18 C17 1_555 1_555
H20 C18 1_555 1_555
H21 C18 1_555 1_555
H22 C18 1_555 1_555
C19 C17 1_555 1_555
H23 C19 1_555 1_555
H24 C19 1_555 1_555
H25 C19 1_555 1_555
C20 C5 1_555 1_555
C21 C2 1_555 1_555
H26 C21 1_555 1_555
H27 C21 1_555 1_555
H28 C21 1_555 1_555
C22 C5 1_555 1_555
H29 C22 1_555 1_555
H30 C22 1_555 1_555
C23 C22 1_555 1_555
H31 C23 1_555 1_555
C24 C23 1_555 1_555
C25 C24 1_555 1_555
H32 C25 1_555 1_555
H33 C25 1_555 1_555
H34 C25 1_555 1_555
C26 C24 1_555 1_555
H35 C26 1_555 1_555
H36 C26 1_555 1_555
H37 C26 1_555 1_555
C27 O5 1_555 1_555
C28 C27 1_555 1_555
H38 C28 1_555 1_555
H39 C28 1_555 1_555
H40 C28 1_555 1_555
C29 C27 1_555 1_555
H41 C29 1_555 1_555
H42 C29 1_555 1_555
C30 C10 1_555 1_555
H43 C30 1_555 1_555
H44 C30 1_555 1_555
C5 C6 1_555 1_555
C7 C14 1_555 1_555
C9 C27 1_555 1_555
C15 C20 1_555 1_555
C29 C30 1_555 1_555

#END
