
#######################################################################
#
#                 Cambridge Crystallographic Data Centre
#                                CCDC 
#
#######################################################################
#
# If this CIF has been generated from an entry in the Cambridge 
# Structural Database, then it will include bibliographic, chemical, 
# crystal, experimental, refinement or atomic coordinate data resulting 
# from the CCDC's data processing and validation procedures.
#
#######################################################################

data_VEWLOZ
_chemical_formula_moiety         'C6 H15 Cl6 N3 P3 Si1 1+,C1 H1 B11 Cl11 1-'
_chemical_name_systematic        
'2,2,4,4,6,6-Hexachloro-1-(triethylsilyl)cyclotriphosphazen-1-ium 2,3,4,5,6,7,8,9,10,11,12-undecachloro-1-carbadodecaborane'
_symmetry_cell_setting           triclinic
_symmetry_space_group_name_H-M   'P -1'
_symmetry_Int_Tables_number      2
_space_group_name_Hall           '-P 1'
loop_
_symmetry_equiv_pos_site_id
_symmetry_equiv_pos_as_xyz
1 x,y,z
2 -x,-y,-z
_cell_length_a                   9.5212(4)
_cell_length_b                   11.0613(4)
_cell_length_c                   18.3064(7)
_cell_angle_alpha                76.0760(10)
_cell_angle_beta                 83.7880(10)
_cell_angle_gamma                77.3590(10)
_cell_volume                     1822.82
_exptl_crystal_colour            colorless
_exptl_crystal_description       prism
_cell_formula_units_Z            2
_exptl_crystal_recrystallization_method o-dichlorobenzene/n-hexane
loop_
_atom_site_label
_atom_site_type_symbol
_atom_site_fract_x
_atom_site_fract_y
_atom_site_fract_z
N1 N 0.01260(17) 0.03037(16) 1.24630(9)
P1 P -0.11584(5) -0.04656(5) 1.29174(3)
N2 N -0.2073(2) -0.0924(2) 1.24236(11)
P2 P -0.16478(7) -0.10650(6) 1.15843(4)
N3 N -0.0332(2) -0.0445(2) 1.11993(11)
P3 P 0.05871(5) 0.02134(5) 1.15699(3)
Cl6 Cl -0.02558(6) -0.19014(5) 1.36983(3)
Cl7 Cl -0.24511(5) 0.06972(5) 1.34748(3)
Cl8 Cl -0.1451(3) -0.2712(4) 1.1434(2)
Cl9 Cl -0.3379(4) -0.0085(5) 1.0908(3)
Cl10 Cl 0.26206(6) -0.06718(5) 1.15138(3)
Cl11 Cl 0.05634(6) 0.19603(5) 1.09897(3)
Si1 Si 0.09529(6) 0.13361(5) 1.29252(3)
C2 C 0.1094(2) 0.0527(2) 1.39378(12)
H2 H 0.0121 0.0452 1.4173
H3 H 0.1685 -0.0341 1.3983
C3 C 0.1787(3) 0.1281(3) 1.43531(15)
H4 H 0.1994 0.0780 1.4863
H5 H 0.1122 0.2083 1.4383
H6 H 0.2687 0.1461 1.4078
C4 C 0.2818(2) 0.1408(2) 1.25104(13)
H7 H 0.2815 0.1469 1.1962
H8 H 0.3047 0.2207 1.2573
C5 C 0.4028(3) 0.0331(3) 1.28171(16)
H9 H 0.4928 0.0450 1.2520
H10 H 0.3804 -0.0478 1.2786
H11 H 0.4138 0.0322 1.3345
C6 C -0.0269(2) 0.29271(19) 1.27275(12)
H12 H -0.0955 0.2931 1.2357
H13 H -0.0839 0.3052 1.3199
C7 C 0.0460(7) 0.4023(5) 1.2433(4)
H14 H -0.0263 0.4816 1.2357
H15 H 0.0988 0.3936 1.1952
H16 H 0.1136 0.4038 1.2797
C8 C 0.6100(8) 0.5270(7) 0.4304(4)
H17 H 0.6783(12) 0.5464(10) 0.3873(7)
B6 B 0.4293(8) 0.5901(8) 0.4199(4)
B7 B 0.5308(9) 0.6448(7) 0.4770(5)
B8 B 0.6630(8) 0.5147(9) 0.5197(5)
B9 B 0.6421(9) 0.3782(8) 0.4897(5)
B10 B 0.4987(8) 0.4242(8) 0.4281(5)
Cl12 Cl 0.8350(5) 0.5351(5) 0.5371(3)
Cl13 Cl 0.7890(9) 0.2557(7) 0.4772(6)
Cl14 Cl 0.5071(17) 0.3584(16) 0.3483(7)
Cl15 Cl 0.3556(3) 0.6932(3) 0.33393(18)
Cl16 Cl 0.5710(6) 0.8131(5) 0.4477(4)
C8A C 0.3900(8) 0.4730(7) 0.5696(4)
H17A H 0.3217(12) 0.4536(10) 0.6127(7)
B6A B 0.5707(8) 0.4099(8) 0.5801(4)
B7A B 0.4692(9) 0.3552(7) 0.5230(5)
B8A B 0.3370(8) 0.4853(9) 0.4803(5)
B9A B 0.3579(9) 0.6218(8) 0.5103(5)
B10A B 0.5013(8) 0.5758(8) 0.5719(5)
Cl12A Cl 0.1650(5) 0.4649(5) 0.4629(3)
Cl13A Cl 0.2110(9) 0.7443(7) 0.5228(6)
Cl14A Cl 0.4929(17) 0.6416(16) 0.6517(7)
Cl15A Cl 0.6444(3) 0.3068(3) 0.66607(18)
Cl16A Cl 0.4290(6) 0.1869(5) 0.5523(4)
C1 C 0.6067(6) 0.5505(5) 0.9307(3)
H1 H 0.6782(11) 0.5701(8) 0.8915(6)
B1 B 0.4313(6) 0.6272(5) 0.9158(3)
B2 B 0.5338(6) 0.6626(5) 0.9821(3)
B3 B 0.6551(6) 0.5182(5) 1.0222(3)
B4 B 0.6276(6) 0.3955(5) 0.9815(3)
B5 B 0.4898(6) 0.4608(5) 0.9156(3)
Cl1 Cl 0.3843(4) 0.7388(3) 0.83138(18)
Cl2 Cl 0.8313(2) 0.52438(18) 1.04171(10)
Cl3 Cl 0.77659(16) 0.27877(17) 0.96078(10)
Cl4 Cl 0.5033(3) 0.36876(17) 0.84464(13)
Cl5 Cl 0.5984(3) 0.7791(2) 0.98264(14)
C1A C 0.3933(6) 0.4495(5) 1.0693(3)
H1A H 0.3218(11) 0.4299(8) 1.1085(6)
B1A B 0.5687(6) 0.3728(5) 1.0842(3)
B2A B 0.4662(6) 0.3374(5) 1.0179(3)
B3A B 0.3449(6) 0.4818(5) 0.9778(3)
B4A B 0.3724(6) 0.6045(5) 1.0185(3)
B5A B 0.5102(6) 0.5392(5) 1.0844(3)
Cl1A Cl 0.6157(4) 0.2612(3) 1.16862(18)
Cl2A Cl 0.1687(2) 0.47562(18) 0.95829(10)
Cl3A Cl 0.22341(16) 0.72123(17) 1.03922(10)
Cl4A Cl 0.4967(3) 0.63124(17) 1.15536(13)
Cl5A Cl 0.4016(3) 0.2209(2) 1.01736(14)
B11? B 0.3399(7) 0.4769(8) 0.4811(4)
B12? B 0.3574(9) 0.6147(7) 0.5112(4)
B13? B 0.5033(9) 0.5675(8) 0.5730(5)
B14? B 0.5728(7) 0.4012(8) 0.5802(4)
B15? B 0.4698(8) 0.3429(7) 0.5241(4)
B16? B 0.3824(7) 0.4618(7) 0.5762(4)
Cl17? Cl 0.3538(6) 0.6897(5) 0.3366(3)
Cl18? Cl 0.5571(8) 0.8014(6) 0.4535(5)
Cl19? Cl 0.16435(19) 0.46426(17) 0.46247(11)
Cl20? Cl 0.2008(9) 0.7322(8) 0.5238(6)
Cl21? Cl 0.5125(17) 0.6472(15) 0.6458(7)
Cl22? Cl 0.26061(10) 0.42561(9) 0.65468(5)
B17? B 0.3278(6) 0.5160(5) 0.9660(3)
B18? B 0.3553(6) 0.6402(4) 1.0069(3)
B19? B 0.4930(6) 0.5730(5) 1.0735(3)
B20? B 0.5499(6) 0.4070(5) 1.0736(3)
B21? B 0.4480(6) 0.3714(5) 1.0074(3)
B22? B 0.3635(6) 0.4821(5) 1.0639(3)
Cl23? Cl 0.5874(3) 0.8096(2) 0.96407(14)
Cl24? Cl 0.1565(2) 0.51346(14) 0.93655(10)
Cl25? Cl 0.21205(17) 0.76850(13) 1.01998(9)
Cl26? Cl 0.5008(3) 0.59118(19) 1.16901(14)
Cl27? Cl 0.6159(4) 0.2928(3) 1.15532(18)
Cl28? Cl 0.22655(10) 0.44979(9) 1.13537(5)
Cl29? Cl -0.1024(9) -0.2980(5) 1.1624(4)
Cl30? Cl -0.3294(5) -0.0560(9) 1.10511(17)
H18? H -0.0297 0.3248 1.2175
H19? H -0.1256 0.2826 1.2926
C9? C 0.0166(9) 0.3918(6) 1.3073(3)
H20? H -0.0399 0.4762 1.2864
H21? H 0.1195 0.3918 1.2953
H22? H -0.0020 0.3706 1.3621
loop_
_geom_bond_atom_site_label_1
_geom_bond_atom_site_label_2
_geom_bond_site_symmetry_1
_geom_bond_site_symmetry_2
C1 H1 1_555 1_555
B1 C1 1_555 1_555
B2 C1 1_555 1_555
B3 C1 1_555 1_555
B4 C1 1_555 1_555
B5 C1 1_555 1_555
Cl1 B1 1_555 1_555
Cl2 B3 1_555 1_555
Cl3 B4 1_555 1_555
Cl4 B5 1_555 1_555
Cl5 B2 1_555 1_555
N1 P1 1_555 1_555
P1 N2 1_555 1_555
N2 P2 1_555 1_555
P2 N3 1_555 1_555
N3 P3 1_555 1_555
P3 N1 1_555 1_555
Cl6 P1 1_555 1_555
Cl7 P1 1_555 1_555
Cl8 P2 1_555 1_555
Cl9 P2 1_555 1_555
Cl10 P3 1_555 1_555
Cl11 P3 1_555 1_555
Si1 N1 1_555 1_555
C2 Si1 1_555 1_555
H2 C2 1_555 1_555
H3 C2 1_555 1_555
C3 C2 1_555 1_555
H4 C3 1_555 1_555
H5 C3 1_555 1_555
H6 C3 1_555 1_555
C4 Si1 1_555 1_555
H7 C4 1_555 1_555
H8 C4 1_555 1_555
C5 C4 1_555 1_555
H9 C5 1_555 1_555
H10 C5 1_555 1_555
H11 C5 1_555 1_555
C6 Si1 1_555 1_555
H12 C6 1_555 1_555
H13 C6 1_555 1_555
C7 C6 1_555 1_555
H14 C7 1_555 1_555
H15 C7 1_555 1_555
H16 C7 1_555 1_555
C8 H17 1_555 1_555
B6 C8 1_555 1_555
B7 C8 1_555 1_555
B8 C8 1_555 1_555
B9 C8 1_555 1_555
B10 C8 1_555 1_555
Cl12 B8 1_555 1_555
Cl13 B9 1_555 1_555
Cl14 B10 1_555 1_555
Cl15 B6 1_555 1_555
Cl16 B7 1_555 1_555
C1A H1A 1_555 1_555
B1A B3 1_555 1_555
B2A B4 1_555 1_555
B3A B1 1_555 1_555
B4A B1 1_555 1_555
B5A B2 1_555 1_555
Cl1A B1A 1_555 1_555
Cl2A B3A 1_555 1_555
Cl3A B4A 1_555 1_555
Cl4A B5A 1_555 1_555
Cl5A B2A 1_555 1_555
C8A H17A 1_555 1_555
B6A B8 1_555 1_555
B7A B9 1_555 1_555
B8A B6 1_555 1_555
B9A B6 1_555 1_555
B10A B7 1_555 1_555
Cl12A B8A 1_555 1_555
Cl13A B9A 1_555 1_555
Cl14A B10A 1_555 1_555
Cl15A B6A 1_555 1_555
Cl16A B7A 1_555 1_555
B1 B2 1_555 1_555
B1 B5 1_555 1_555
B2 B3 1_555 1_555
B2 B4A 1_555 1_555
B3 B4 1_555 1_555
B3 B5A 1_555 1_555
B4 B5 1_555 1_555
B4 B1A 1_555 1_555
B5 B2A 1_555 1_555
B5 B3A 1_555 1_555
B6 B7 1_555 1_555
B6 B10 1_555 1_555
B7 B8 1_555 1_555
B7 B9A 1_555 1_555
B8 B9 1_555 1_555
B8 B10A 1_555 1_555
B9 B10 1_555 1_555
B9 B6A 1_555 1_555
B10 B7A 1_555 1_555
B10 B8A 1_555 1_555
C1A B1A 1_555 1_555
C1A B2A 1_555 1_555
C1A B3A 1_555 1_555
C1A B4A 1_555 1_555
C1A B5A 1_555 1_555
B1A B2A 1_555 1_555
B1A B5A 1_555 1_555
B2A B3A 1_555 1_555
B3A B4A 1_555 1_555
B4A B5A 1_555 1_555
C8A B6A 1_555 1_555
C8A B7A 1_555 1_555
C8A B8A 1_555 1_555
C8A B9A 1_555 1_555
C8A B10A 1_555 1_555
B6A B7A 1_555 1_555
B6A B10A 1_555 1_555
B7A B8A 1_555 1_555
B8A B9A 1_555 1_555
B9A B10A 1_555 1_555

#END
