
#######################################################################
#
#                 Cambridge Crystallographic Data Centre
#                                CCDC 
#
#######################################################################
#
# If this CIF has been generated from an entry in the Cambridge 
# Structural Database, then it will include bibliographic, chemical, 
# crystal, experimental, refinement or atomic coordinate data resulting 
# from the CCDC's data processing and validation procedures.
#
#######################################################################

data_VEWRIB
_chemical_formula_moiety         'C19 H15 N1 O3 S1'
_chemical_name_systematic        9-[(4-methoxyphenyl)sulfonyl]-9H-carbazole
_symmetry_cell_setting           monoclinic
_symmetry_space_group_name_H-M   'P 21/n'
_symmetry_Int_Tables_number      14
_space_group_name_Hall           '-P 2yn'
loop_
_symmetry_equiv_pos_site_id
_symmetry_equiv_pos_as_xyz
1 x,y,z
2 1/2-x,1/2+y,1/2-z
3 -x,-y,-z
4 1/2+x,1/2-y,1/2+z
_cell_length_a                   17.5290(4)
_cell_length_b                   10.1840(2)
_cell_length_c                   18.2727(4)
_cell_angle_alpha                90
_cell_angle_beta                 99.753(2)
_cell_angle_gamma                90
_cell_volume                     3214.81
_exptl_crystal_colour            colorless
_exptl_crystal_description       block
_cell_formula_units_Z            8
loop_
_atom_site_label
_atom_site_type_symbol
_atom_site_fract_x
_atom_site_fract_y
_atom_site_fract_z
S1 S 0.24979(2) 0.79085(4) 0.18497(2)
O1 O 0.24397(7) 0.82863(14) 0.25861(6)
O2 O 0.22154(7) 0.66649(11) 0.15694(7)
O3 O 0.10990(8) 1.21011(12) -0.01112(7)
N1 N 0.34372(7) 0.79160(12) 0.18081(7)
C1 C 0.37595(8) 0.73296(14) 0.12205(9)
C2 C 0.34893(10) 0.63067(16) 0.07509(10)
H1 H 0.301412 0.587981 0.078263
C3 C 0.39367(12) 0.59278(18) 0.02328(11)
H2 H 0.376088 0.523638 -0.010262
C4 C 0.46310(13) 0.6530(2) 0.01924(12)
H3 H 0.492369 0.625299 -0.017219
C5 C 0.49055(11) 0.7521(2) 0.06686(12)
H4 H 0.538889 0.792469 0.064297
C6 C 0.44648(9) 0.79279(15) 0.11916(9)
C7 C 0.45859(9) 0.89345(16) 0.17558(9)
C8 C 0.51832(11) 0.9821(2) 0.19688(12)
H5 H 0.562631 0.982139 0.173291
C9 C 0.51227(12) 1.0698(2) 0.25261(14)
H6 H 0.552533 1.131634 0.267405
C10 C 0.44847(12) 1.0692(2) 0.28725(12)
H7 H 0.445212 1.131866 0.325085
C11 C 0.38923(10) 0.98031(19) 0.26870(10)
H8 H 0.346079 0.978992 0.293905
C12 C 0.39496(8) 0.89293(15) 0.21188(9)
C13 C 0.20790(7) 0.91274(14) 0.12467(8)
C14 C 0.21277(8) 1.04280(15) 0.14755(8)
H9 H 0.238766 1.064752 0.195931
C15 C 0.18020(9) 1.13917(15) 0.10052(8)
H10 H 0.184378 1.228382 0.115870
C16 C 0.14090(9) 1.10710(15) 0.03015(8)
C17 C 0.13538(9) 0.97731(16) 0.00736(8)
H11 H 0.108132 0.955189 -0.040510
C18 C 0.16962(9) 0.88022(15) 0.05445(8)
H12 H 0.166917 0.791194 0.038694
C19 C 0.06683(14) 1.1835(2) -0.08314(12)
H13 H 0.099660 1.136312 -0.112732
H14 H 0.049621 1.266448 -0.107757
H15 H 0.021632 1.129594 -0.078355
S2 S 0.72921(2) 0.16041(4) 0.19216(2)
O4 O 0.67966(7) 0.26831(12) 0.16832(8)
O5 O 0.72975(8) 0.10378(14) 0.26322(6)
O6 O 0.66895(8) -0.26557(12) -0.02482(7)
N2 N 0.81908(8) 0.21378(13) 0.19229(7)
C20 C 0.88485(9) 0.13283(16) 0.21732(8)
C21 C 0.89472(11) 0.03422(19) 0.26995(10)
H16 H 0.854040 0.009969 0.295607
C22 C 0.96550(12) -0.0278(2) 0.28401(11)
H17 H 0.973334 -0.096835 0.319445
C23 C 1.02516(12) 0.0079(2) 0.24793(12)
H18 H 1.073418 -0.036516 0.258818
C24 C 1.01549(10) 0.1073(2) 0.19623(11)
H19 H 1.056949 0.132678 0.171871
C25 C 0.94451(9) 0.17001(16) 0.18016(9)
C26 C 0.91568(9) 0.27474(15) 0.12940(9)
C27 C 0.94974(11) 0.34795(19) 0.07930(10)
H20 H 1.001673 0.331626 0.073276
C28 C 0.90706(13) 0.44398(19) 0.03880(11)
H21 H 0.929485 0.493707 0.003905
C29 C 0.83196(13) 0.46951(18) 0.04799(11)
H22 H 0.803912 0.537696 0.019860
C30 C 0.79665(11) 0.39814(17) 0.09717(10)
H23 H 0.744980 0.416091 0.103468
C31 C 0.83937(9) 0.29959(14) 0.13686(8)
C32 C 0.71230(8) 0.03646(14) 0.12549(8)
C33 C 0.67547(9) 0.06492(15) 0.05425(8)
H24 H 0.660670 0.152662 0.041088
C34 C 0.66018(9) -0.03398(16) 0.00227(8)
H25 H 0.634678 -0.014575 -0.046645
C35 C 0.68201(9) -0.16102(15) 0.02152(8)
C36 C 0.71921(10) -0.18944(16) 0.09300(9)
H26 H 0.734447 -0.277046 0.106024
C37 C 0.73398(9) -0.09154(15) 0.14474(8)
H27 H 0.759048 -0.111233 0.193764
C38 C 0.62511(13) -0.2461(2) -0.09708(10)
H28 H 0.574005 -0.210977 -0.092768
H29 H 0.619007 -0.330059 -0.123605
H30 H 0.652164 -0.183770 -0.124563
loop_
_geom_bond_atom_site_label_1
_geom_bond_atom_site_label_2
_geom_bond_site_symmetry_1
_geom_bond_site_symmetry_2
S1 O1 1_555 1_555
O2 S1 1_555 1_555
O3 C16 1_555 1_555
N1 S1 1_555 1_555
C1 N1 1_555 1_555
C2 C1 1_555 1_555
H1 C2 1_555 1_555
C3 C2 1_555 1_555
H2 C3 1_555 1_555
C4 C3 1_555 1_555
H3 C4 1_555 1_555
C5 C4 1_555 1_555
H4 C5 1_555 1_555
C6 C1 1_555 1_555
C7 C6 1_555 1_555
C8 C7 1_555 1_555
H5 C8 1_555 1_555
C9 C8 1_555 1_555
H6 C9 1_555 1_555
C10 C9 1_555 1_555
H7 C10 1_555 1_555
C11 C10 1_555 1_555
H8 C11 1_555 1_555
C12 N1 1_555 1_555
C13 S1 1_555 1_555
C14 C13 1_555 1_555
H9 C14 1_555 1_555
C15 C14 1_555 1_555
H10 C15 1_555 1_555
C16 C15 1_555 1_555
C17 C16 1_555 1_555
H11 C17 1_555 1_555
C18 C13 1_555 1_555
H12 C18 1_555 1_555
C19 O3 1_555 1_555
H13 C19 1_555 1_555
H14 C19 1_555 1_555
H15 C19 1_555 1_555
S2 O4 1_555 1_555
O5 S2 1_555 1_555
O6 C35 1_555 1_555
N2 S2 1_555 1_555
C20 N2 1_555 1_555
C21 C20 1_555 1_555
H16 C21 1_555 1_555
C22 C21 1_555 1_555
H17 C22 1_555 1_555
C23 C22 1_555 1_555
H18 C23 1_555 1_555
C24 C23 1_555 1_555
H19 C24 1_555 1_555
C25 C20 1_555 1_555
C26 C25 1_555 1_555
C27 C26 1_555 1_555
H20 C27 1_555 1_555
C28 C27 1_555 1_555
H21 C28 1_555 1_555
C29 C28 1_555 1_555
H22 C29 1_555 1_555
C30 C29 1_555 1_555
H23 C30 1_555 1_555
C31 N2 1_555 1_555
C32 S2 1_555 1_555
C33 C32 1_555 1_555
H24 C33 1_555 1_555
C34 C33 1_555 1_555
H25 C34 1_555 1_555
C35 C34 1_555 1_555
C36 C35 1_555 1_555
H26 C36 1_555 1_555
C37 C32 1_555 1_555
H27 C37 1_555 1_555
C38 O6 1_555 1_555
H28 C38 1_555 1_555
H29 C38 1_555 1_555
H30 C38 1_555 1_555
C5 C6 1_555 1_555
C7 C12 1_555 1_555
C11 C12 1_555 1_555
C17 C18 1_555 1_555
C24 C25 1_555 1_555
C26 C31 1_555 1_555
C30 C31 1_555 1_555
C36 C37 1_555 1_555

#END
