
#######################################################################
#
#                 Cambridge Crystallographic Data Centre
#                                CCDC 
#
#######################################################################
#
# If this CIF has been generated from an entry in the Cambridge 
# Structural Database, then it will include bibliographic, chemical, 
# crystal, experimental, refinement or atomic coordinate data resulting 
# from the CCDC's data processing and validation procedures.
#
#######################################################################

data_VEWRUN
_chemical_formula_moiety         'C48 H58 N2 O6 Se2'
_chemical_name_systematic        
2,3,5,6,9,10-hexabutoxy-8-(pyridin-2-yl)-1,4-diselena-7-aza-as-indaceno[2,1,8,7-cdefg]pyrene
_symmetry_cell_setting           monoclinic
_symmetry_space_group_name_H-M   'P 21/c'
_symmetry_Int_Tables_number      14
_space_group_name_Hall           '-P 2ybc'
loop_
_symmetry_equiv_pos_site_id
_symmetry_equiv_pos_as_xyz
1 x,y,z
2 -x,1/2+y,1/2-z
3 -x,-y,-z
4 x,1/2-y,1/2+z
_cell_length_a                   7.8970(3)
_cell_length_b                   17.4785(6)
_cell_length_c                   31.1201(10)
_cell_angle_alpha                90
_cell_angle_beta                 92.6460(10)
_cell_angle_gamma                90
_cell_volume                     4290.86
_exptl_crystal_colour            'pale yellow'
_exptl_crystal_description       needle
_chemical_melting_point          '386 K'
_cell_formula_units_Z            4
loop_
_atom_site_label
_atom_site_type_symbol
_atom_site_fract_x
_atom_site_fract_y
_atom_site_fract_z
C1 C 0.3999(2) 0.33896(11) 0.44630(6)
C2 C 0.4118(2) 0.40537(12) 0.42170(6)
C3 C 0.3627(3) 0.47747(11) 0.43778(7)
C4 C 0.2974(3) 0.48211(12) 0.47826(7)
C5 C 0.2813(3) 0.41482(11) 0.50318(6)
C6 C 0.3340(2) 0.34354(11) 0.48794(6)
C7 C 0.3804(3) 0.54147(12) 0.41156(6)
C8 C 0.3293(3) 0.61239(12) 0.42779(6)
C9 C 0.2623(3) 0.61759(12) 0.46980(7)
C10 C 0.2450(3) 0.55146(12) 0.49507(6)
C11 C 0.2117(3) 0.42330(11) 0.54320(6)
C12 C 0.1984(3) 0.35807(12) 0.56926(6)
C13 C 0.2541(3) 0.28638(12) 0.55428(6)
C14 C 0.3226(3) 0.27727(11) 0.51322(6)
C15 C 0.4508(3) 0.26826(12) 0.43016(6)
C16 C 0.5130(3) 0.26726(12) 0.38781(6)
C17 C 0.5246(3) 0.33464(12) 0.36341(6)
C18 C 0.4735(3) 0.40434(12) 0.38079(6)
C19 C 0.3834(3) 0.20723(12) 0.49404(6)
C20 C 0.3881(3) 0.13250(12) 0.51746(7)
C21 C 0.5287(3) 0.11252(14) 0.54303(7)
H1 H 0.619871 0.147379 0.547934
C22 C 0.5332(3) 0.04017(15) 0.56134(8)
H2 H 0.628423 0.024548 0.578957
C23 C 0.3991(3) -0.00865(13) 0.55380(8)
H3 H 0.399952 -0.058706 0.565703
C24 C 0.2634(4) 0.01708(14) 0.52848(8)
H4 H 0.169829 -0.016508 0.523662
C25 C 0.4163(3) 0.68668(12) 0.36742(7)
H5 H 0.368937 0.649423 0.346122
H6 H 0.538683 0.676004 0.372501
C26 C 0.3899(3) 0.76746(12) 0.35112(7)
H7 H 0.439466 0.803737 0.372655
H8 H 0.266835 0.777966 0.347837
C27 C 0.4700(4) 0.78095(13) 0.30828(8)
H9 H 0.592275 0.768495 0.311226
H10 H 0.417147 0.746189 0.286423
C28 C 0.4492(4) 0.86289(15) 0.29301(9)
H11 H 0.502429 0.869003 0.265393
H12 H 0.328230 0.875171 0.289479
H13 H 0.503329 0.897474 0.314279
C29 C 0.1409(3) 0.69850(12) 0.52157(7)
H14 H 0.213975 0.675292 0.544767
H15 H 0.031144 0.671025 0.520324
C30 C 0.1114(3) 0.78188(12) 0.53171(7)
H16 H 0.035820 0.805141 0.509052
H17 H 0.220543 0.809876 0.532682
C31 C 0.0303(3) 0.78752(13) 0.57521(7)
H18 H -0.081547 0.761903 0.573148
H19 H 0.102209 0.759689 0.596931
C32 C 0.0067(4) 0.86892(15) 0.59047(9)
H20 H -0.045649 0.868434 0.618419
H21 H 0.117186 0.894397 0.593343
H22 H -0.066757 0.896613 0.569536
C33 C 0.0649(3) 0.42234(12) 0.62755(7)
H23 H -0.030634 0.440398 0.608453
H24 H 0.149453 0.463992 0.630735
C34 C 0.0022(3) 0.40041(14) 0.67083(7)
H25 H -0.076112 0.356472 0.666966
H26 H -0.063437 0.443740 0.681993
C35 C 0.1393(3) 0.37928(18) 0.70402(8)
H27 H 0.217681 0.423137 0.708201
H28 H 0.205132 0.335757 0.693117
C36 C 0.0705(5) 0.3575(2) 0.74707(9)
H29 H 0.164876 0.344399 0.767299
H30 H 0.007445 0.400768 0.758411
H31 H -0.005111 0.313343 0.743319
C37 C 0.0906(3) 0.18964(13) 0.58705(7)
H32 H 0.054735 0.161853 0.560440
H33 H 0.003588 0.228546 0.592979
C38 C 0.1120(3) 0.13466(14) 0.62433(7)
H34 H 0.121616 0.164129 0.651499
H35 H 0.218691 0.105676 0.621652
C39 C -0.0343(3) 0.07869(13) 0.62647(8)
H36 H -0.038751 0.046574 0.600244
H37 H -0.141925 0.107625 0.627050
C40 C -0.0181(4) 0.02711(16) 0.66595(10)
H38 H -0.115039 -0.007916 0.665955
H39 H 0.087103 -0.002490 0.665231
H40 H -0.016070 0.058559 0.692037
C41 C 0.4265(3) 0.15081(13) 0.35635(8)
H41 H 0.339510 0.180600 0.339648
H42 H 0.373273 0.128479 0.381672
C42 C 0.4953(3) 0.08805(13) 0.32879(7)
H43 H 0.401794 0.052768 0.320107
H44 H 0.580776 0.058478 0.346120
C43 C 0.5759(4) 0.11758(15) 0.28877(8)
H45 H 0.498386 0.155045 0.274315
H46 H 0.682226 0.144660 0.297339
C44 C 0.6151(4) 0.05483(17) 0.25716(8)
H47 H 0.666767 0.077263 0.232050
H48 H 0.693950 0.018120 0.271015
H49 H 0.509998 0.028512 0.247978
C45 C 0.7528(3) 0.31388(13) 0.31671(7)
H50 H 0.772231 0.305369 0.285873
H51 H 0.779988 0.265736 0.332314
C46 C 0.8694(3) 0.37671(15) 0.33377(8)
H52 H 0.846883 0.385990 0.364365
H53 H 0.842803 0.424435 0.317712
C47 C 1.0570(3) 0.3585(2) 0.33018(10)
H54 H 1.123990 0.394480 0.348736
H55 H 1.078698 0.306226 0.341354
C48 C 1.1183(4) 0.3633(2) 0.28551(11)
H56 H 1.239418 0.350867 0.285921
H57 H 1.055204 0.326840 0.266975
H58 H 1.100571 0.415241 0.274370
O1 O 0.3303(2) 0.68097(9) 0.40681(5)
O2 O 0.2200(2) 0.69022(8) 0.48135(5)
O3 O 0.1403(2) 0.35573(9) 0.60972(5)
O4 O 0.25292(19) 0.22559(8) 0.58223(5)
O5 O 0.56503(19) 0.19973(8) 0.37008(5)
O6 O 0.57618(19) 0.33286(9) 0.32166(4)
Se1 Se 0.46899(3) 0.50597(2) 0.35791(2)
Se2 Se 0.15870(3) 0.52979(2) 0.55081(2)
N1 N 0.4424(2) 0.20271(10) 0.45510(5)
N2 N 0.2546(3) 0.08659(11) 0.51014(6)
loop_
_geom_bond_atom_site_label_1
_geom_bond_atom_site_label_2
_geom_bond_site_symmetry_1
_geom_bond_site_symmetry_2
C1 C2 1_555 1_555
C2 C3 1_555 1_555
C3 C4 1_555 1_555
C4 C5 1_555 1_555
C5 C6 1_555 1_555
C6 C1 1_555 1_555
C7 C3 1_555 1_555
C8 C7 1_555 1_555
C9 C8 1_555 1_555
C10 C4 1_555 1_555
C11 C5 1_555 1_555
C12 C11 1_555 1_555
C13 C12 1_555 1_555
C14 C6 1_555 1_555
C15 C1 1_555 1_555
C16 C15 1_555 1_555
C17 C16 1_555 1_555
C18 C2 1_555 1_555
C19 C14 1_555 1_555
C20 C19 1_555 1_555
C21 C20 1_555 1_555
H1 C21 1_555 1_555
C22 C21 1_555 1_555
H2 C22 1_555 1_555
C23 C22 1_555 1_555
H3 C23 1_555 1_555
C24 C23 1_555 1_555
H4 C24 1_555 1_555
C25 H5 1_555 1_555
H6 C25 1_555 1_555
C26 C25 1_555 1_555
H7 C26 1_555 1_555
H8 C26 1_555 1_555
C27 C26 1_555 1_555
H9 C27 1_555 1_555
H10 C27 1_555 1_555
C28 C27 1_555 1_555
H11 C28 1_555 1_555
H12 C28 1_555 1_555
H13 C28 1_555 1_555
C29 H14 1_555 1_555
H15 C29 1_555 1_555
C30 C29 1_555 1_555
H16 C30 1_555 1_555
H17 C30 1_555 1_555
C31 C30 1_555 1_555
H18 C31 1_555 1_555
H19 C31 1_555 1_555
C32 C31 1_555 1_555
H20 C32 1_555 1_555
H21 C32 1_555 1_555
H22 C32 1_555 1_555
C33 H23 1_555 1_555
H24 C33 1_555 1_555
C34 C33 1_555 1_555
H25 C34 1_555 1_555
H26 C34 1_555 1_555
C35 C34 1_555 1_555
H27 C35 1_555 1_555
H28 C35 1_555 1_555
C36 C35 1_555 1_555
H29 C36 1_555 1_555
H30 C36 1_555 1_555
H31 C36 1_555 1_555
C37 H32 1_555 1_555
H33 C37 1_555 1_555
C38 C37 1_555 1_555
H34 C38 1_555 1_555
H35 C38 1_555 1_555
C39 C38 1_555 1_555
H36 C39 1_555 1_555
H37 C39 1_555 1_555
C40 C39 1_555 1_555
H38 C40 1_555 1_555
H39 C40 1_555 1_555
H40 C40 1_555 1_555
C41 H41 1_555 1_555
H42 C41 1_555 1_555
C42 C41 1_555 1_555
H43 C42 1_555 1_555
H44 C42 1_555 1_555
C43 C42 1_555 1_555
H45 C43 1_555 1_555
H46 C43 1_555 1_555
C44 C43 1_555 1_555
H47 C44 1_555 1_555
H48 C44 1_555 1_555
H49 C44 1_555 1_555
C45 H50 1_555 1_555
H51 C45 1_555 1_555
C46 C45 1_555 1_555
H52 C46 1_555 1_555
H53 C46 1_555 1_555
C47 C46 1_555 1_555
H54 C47 1_555 1_555
H55 C47 1_555 1_555
C48 C47 1_555 1_555
H56 C48 1_555 1_555
H57 C48 1_555 1_555
H58 C48 1_555 1_555
O1 C8 1_555 1_555
O2 C9 1_555 1_555
O3 C12 1_555 1_555
O4 C13 1_555 1_555
O5 C16 1_555 1_555
O6 C17 1_555 1_555
Se1 C7 1_555 1_555
Se2 C10 1_555 1_555
N1 C15 1_555 1_555
N2 C20 1_555 1_555
C9 C10 1_555 1_555
C11 Se2 1_555 1_555
C13 C14 1_555 1_555
C17 C18 1_555 1_555
C18 Se1 1_555 1_555
C19 N1 1_555 1_555
C24 N2 1_555 1_555
C25 O1 1_555 1_555
C29 O2 1_555 1_555
C33 O3 1_555 1_555
C37 O4 1_555 1_555
C41 O5 1_555 1_555
C45 O6 1_555 1_555

#END
