
#######################################################################
#
#                 Cambridge Crystallographic Data Centre
#                                CCDC 
#
#######################################################################
#
# If this CIF has been generated from an entry in the Cambridge 
# Structural Database, then it will include bibliographic, chemical, 
# crystal, experimental, refinement or atomic coordinate data resulting 
# from the CCDC's data processing and validation procedures.
#
#######################################################################

data_VEWTUP
_chemical_formula_moiety         'C195 H222 Cl6 N2,x(H2 O1)'
_chemical_name_systematic        
'3,18-bis((2,4,6-trichlorophenyl)azanidyl)-1,28:20,21:24,25-tris(bis(4-(tetradecan-6-yl)phenyl)methylidene)hexarylene radical hydarte'
_symmetry_cell_setting           triclinic
_symmetry_space_group_name_H-M   'P -1'
_symmetry_Int_Tables_number      2
_space_group_name_Hall           '-P 1'
loop_
_symmetry_equiv_pos_site_id
_symmetry_equiv_pos_as_xyz
1 x,y,z
2 -x,-y,-z
_cell_length_a                   19.8648(14)
_cell_length_b                   21.0064(16)
_cell_length_c                   22.8587(16)
_cell_angle_alpha                99.199(4)
_cell_angle_beta                 104.648(4)
_cell_angle_gamma                104.860(4)
_cell_volume                     8658.61
_exptl_crystal_colour            'dark red'
_exptl_crystal_description       'prism fragment'
_cell_formula_units_Z            2
loop_
_atom_site_label
_atom_site_type_symbol
_atom_site_fract_x
_atom_site_fract_y
_atom_site_fract_z
Cl1 Cl 1.18153(13) 0.72090(16) 0.54180(14)
Cl2 Cl 1.24566(17) 0.76828(17) 0.33505(18)
Cl3 Cl 1.03966(12) 0.85804(13) 0.40153(10)
Cl4 Cl -0.02931(12) -0.22209(12) 0.22841(12)
Cl5 Cl -0.2055(2) -0.3296(2) -0.00644(16)
Cl6 Cl -0.26061(16) -0.13891(17) 0.14055(13)
N1 N 1.0852(3) 0.8061(3) 0.5177(3)
N2 N -0.1327(3) -0.1395(3) 0.2385(3)
C1 C 0.4911(3) 0.4290(3) 0.5628(3)
C2 C 0.5188(3) 0.4823(3) 0.6160(3)
H1 H 0.4925 0.4838 0.6453
C3 C 0.5837(3) 0.5329(3) 0.6269(3)
H2 H 0.6014 0.5679 0.6641
C4 C 0.6254(3) 0.5344(3) 0.5838(3)
C5 C 0.6935(3) 0.5871(3) 0.5938(3)
C6 C 0.7275(3) 0.6421(3) 0.6481(3)
H3 H 0.7042 0.6440 0.6796
C7 C 0.7913(3) 0.6918(3) 0.6574(3)
H4 H 0.8113 0.7270 0.6945
C8 C 0.8278(3) 0.6907(3) 0.6113(3)
C9 C 0.8979(3) 0.7403(3) 0.6179(3)
C10 C 0.9390(3) 0.7939(3) 0.6702(3)
H5 H 0.9203 0.8017 0.7041
C11 C 1.0070(4) 0.8356(3) 0.6728(3)
H6 H 1.0347 0.8703 0.7095
C12 C 1.0359(4) 0.8285(3) 0.6234(3)
H7 H 1.0818 0.8591 0.6265
C13 C 0.9983(3) 0.7771(3) 0.5698(3)
C14 C 1.0230(3) 0.7626(3) 0.5152(3)
C15 C 0.9821(3) 0.7047(3) 0.4636(3)
H8 H 1.0015 0.6937 0.4307
C16 C 0.9147(3) 0.6656(3) 0.4628(3)
C17 C 0.8552(3) 0.6032(3) 0.4155(3)
C18 C 0.8013(3) 0.5833(3) 0.4547(3)
C19 C 0.8266(3) 0.6346(3) 0.5098(3)
C20 C 0.8898(3) 0.6819(3) 0.5141(3)
C21 C 0.9283(3) 0.7338(3) 0.5677(3)
C22 C 0.7419(3) 0.5304(3) 0.4473(3)
H9 H 0.7260 0.4931 0.4122
C23 C 0.7024(3) 0.5298(3) 0.4920(3)
C24 C 0.7280(3) 0.5837(3) 0.5477(3)
C25 C 0.7939(3) 0.6382(3) 0.5571(3)
C26 C 0.6363(3) 0.4769(3) 0.4842(3)
C27 C 0.6076(3) 0.4209(3) 0.4305(3)
H10 H 0.6336 0.4177 0.4011
C28 C 0.5429(3) 0.3722(3) 0.4214(3)
C29 C 0.4944(3) 0.3058(3) 0.3687(3)
C30 C 0.4296(3) 0.2823(3) 0.3964(3)
C31 C 0.4433(3) 0.3272(3) 0.4517(3)
C32 C 0.5081(3) 0.3798(3) 0.4665(3)
C33 C 0.5322(3) 0.4309(3) 0.5204(2)
C34 C 0.6000(3) 0.4820(3) 0.5293(3)
C35 C 0.3685(3) 0.2274(3) 0.3778(3)
H11 H 0.3588 0.1940 0.3408
C36 C 0.3185(3) 0.2197(3) 0.4140(3)
C37 C 0.3350(3) 0.2673(3) 0.4729(3)
C38 C 0.4001(3) 0.3238(3) 0.4925(3)
C39 C 0.4230(3) 0.3733(3) 0.5470(3)
C40 C 0.3777(3) 0.3662(3) 0.5865(3)
H12 H 0.3909 0.3985 0.6250
C41 C 0.3127(3) 0.3103(3) 0.5677(3)
H13 H 0.2828 0.3061 0.5942
C42 C 0.2909(3) 0.2613(3) 0.5121(3)
C43 C 0.2244(3) 0.2042(3) 0.4925(3)
C44 C 0.1752(3) 0.1938(3) 0.5282(3)
H14 H 0.1883 0.2233 0.5682
C45 C 0.1094(3) 0.1428(3) 0.5071(3)
H15 H 0.0791 0.1369 0.5332
C46 C 0.0861(3) 0.0990(3) 0.4472(3)
C47 C 0.0159(3) 0.0455(3) 0.4186(3)
C48 C -0.0406(3) 0.0322(3) 0.4457(3)
H16 H -0.0336 0.0586 0.4858
C49 C -0.1064(3) -0.0188(4) 0.4149(4)
H17 H -0.1447 -0.0256 0.4333
C50 C -0.1167(4) -0.0597(4) 0.3576(4)
H18 H -0.1607 -0.0964 0.3392
C51 C -0.0660(3) -0.0494(3) 0.3264(3)
C52 C -0.0740(3) -0.0873(3) 0.2638(3)
C53 C -0.0196(4) -0.0649(4) 0.2326(3)
H19 H -0.0270 -0.0862 0.1905
C54 C 0.0421(3) -0.0126(4) 0.2656(3)
C55 C 0.1102(4) 0.0262(4) 0.2461(3)
C56 C 0.1595(4) 0.0737(3) 0.3109(3)
C57 C 0.2256(3) 0.1229(3) 0.3316(3)
H20 H 0.2556 0.1286 0.3052
C58 C 0.2503(3) 0.1658(3) 0.3923(3)
C59 C 0.2057(3) 0.1608(3) 0.4338(3)
C60 C 0.1369(3) 0.1079(3) 0.4125(3)
C61 C 0.1180(3) 0.0689(3) 0.3552(3)
C62 C 0.0517(3) 0.0172(3) 0.3265(3)
C63 C 0.0002(3) 0.0041(3) 0.3591(3)
C64 C 1.1166(3) 0.7927(3) 0.4694(3)
C65 C 1.1060(3) 0.8190(3) 0.4170(3)
C66 C 1.1457(4) 0.8117(3) 0.3763(3)
H21 H 1.1374 0.8302 0.3409
C67 C 1.1969(3) 0.7782(4) 0.3859(4)
C68 C 1.2080(3) 0.7520(3) 0.4379(4)
H22 H 1.2434 0.7289 0.4456
C69 C 1.1687(3) 0.7588(3) 0.4786(3)
C70 C -0.1446(4) -0.1827(3) 0.1799(3)
C71 C -0.2053(3) -0.1878(3) 0.1310(3)
C72 C -0.2228(4) -0.2332(4) 0.0749(3)
H23 H -0.2646 -0.2359 0.0421
C73 C -0.1816(5) -0.2748(4) 0.0648(3)
C74 C -0.1215(4) -0.2699(4) 0.1132(4)
H24 H -0.0923 -0.2983 0.1074
C75 C -0.1028(3) -0.2251(4) 0.1698(3)
C76 C 0.8141(2) 0.6224(2) 0.3585(2)
C77 C 0.7448(3) 0.5810(3) 0.3211(2)
H25 H 0.7238 0.5395 0.3306
C78 C 0.7062(3) 0.5987(3) 0.2709(2)
H26 H 0.6591 0.5689 0.2465
C79 C 0.7334(3) 0.6580(3) 0.2546(3)
C80 C 0.8022(3) 0.6992(3) 0.2913(3)
H27 H 0.8230 0.7405 0.2813
C81 C 0.8415(3) 0.6825(2) 0.3418(2)
H28 H 0.8885 0.7126 0.3659
C82 C 0.8876(2) 0.5479(3) 0.3967(3)
C83 C 0.9091(3) 0.5419(3) 0.3431(3)
H29 H 0.8996 0.5704 0.3157
C84 C 0.9438(3) 0.4955(4) 0.3295(3)
H30 H 0.9578 0.4926 0.2926
C85 C 0.9589(3) 0.4529(3) 0.3670(3)
C86 C 0.9380(3) 0.4586(3) 0.4203(3)
H31 H 0.9479 0.4300 0.4474
C87 C 0.9031(3) 0.5047(3) 0.4348(2)
H32 H 0.8893 0.5072 0.4717
C88 C 0.5326(3) 0.2511(3) 0.3650(3)
C89 C 0.5135(3) 0.2013(3) 0.3106(3)
H33 H 0.4787 0.2031 0.2743
C90 C 0.5439(4) 0.1496(3) 0.3084(4)
H34 H 0.5296 0.1163 0.2704
C91 C 0.5942(4) 0.1446(3) 0.3594(4)
C92 C 0.6136(3) 0.1938(4) 0.4136(3)
H35 H 0.6484 0.1915 0.4497
C93 C 0.5838(3) 0.2460(3) 0.4169(3)
H36 H 0.5983 0.2791 0.4551
C94 C 0.4724(3) 0.3236(3) 0.3062(2)
C95 C 0.4007(3) 0.3111(3) 0.2703(3)
H37 H 0.3617 0.2889 0.2842
C96 C 0.3849(3) 0.3302(3) 0.2150(3)
H38 H 0.3351 0.3208 0.1915
C97 C 0.4389(4) 0.3624(4) 0.1928(3)
C98 C 0.5103(4) 0.3751(3) 0.2283(3)
H39 H 0.5489 0.3974 0.2141
C99 C 0.5274(3) 0.3562(3) 0.2836(3)
H40 H 0.5772 0.3654 0.3068
C100 C 0.0903(4) 0.0715(3) 0.2028(3)
C101 C 0.0223(5) 0.0801(4) 0.1835(3)
H41 H -0.0161 0.0551 0.1964
C102 C 0.0078(5) 0.1232(4) 0.1466(3)
H42 H -0.0397 0.1277 0.1343
C103 C 0.0621(7) 0.1595(4) 0.1273(3)
C104 C 0.1304(6) 0.1536(4) 0.1448(4)
H43 H 0.1678 0.1794 0.1314
C105 C 0.1460(4) 0.1087(4) 0.1832(3)
H44 H 0.1936 0.1042 0.1953
C106 C 0.1434(4) -0.0263(4) 0.2208(4)
C107 C 0.1311(4) -0.0491(5) 0.1589(5)
H45 H 0.1041 -0.0298 0.1302
C108 C 0.1565(6) -0.0987(7) 0.1375(6)
H46 H 0.1469 -0.1133 0.0938
C109 C 0.1963(6) -0.1291(6) 0.1766(8)
C110 C 0.2087(5) -0.1050(6) 0.2412(6)
H47 H 0.2356 -0.1238 0.2706
C111 C 0.1822(5) -0.0550(5) 0.2606(5)
H48 H 0.1910 -0.0393 0.3041
C112 C 0.6848(5) 0.6817(5) 0.2035(4)
H49 H 0.7233 0.7160 0.1942
C113 C 0.6462(6) 0.7279(8) 0.2310(7)
H50 H 0.6235 0.7465 0.1967
H51 H 0.6054 0.6978 0.2407
C114 C 0.6798(7) 0.7808(8) 0.2812(7)
H52 H 0.7245 0.8090 0.2749
H53 H 0.6958 0.7627 0.3179
C115 C 0.6378(11) 0.8246(9) 0.2959(8)
H54 H 0.6498 0.8638 0.2772
H55 H 0.5853 0.7993 0.2754
C116 C 0.6477(10) 0.8487(12) 0.3571(8)
H56 H 0.6756 0.8976 0.3679
H57 H 0.6798 0.8263 0.3807
C117 C 0.5843(15) 0.8426(15) 0.3822(12)
C118 C 0.6581(10) 0.6260(7) 0.1434(5)
H58 H 0.6103 0.5980 0.1446
H59 H 0.6459 0.6505 0.1107
C119 C 0.6841(8) 0.5796(8) 0.1163(6)
H60 H 0.6968 0.5518 0.1459
H61 H 0.7298 0.6040 0.1091
C120 C 0.6351(12) 0.5345(10) 0.0579(7)
H62 H 0.5896 0.5099 0.0654
H63 H 0.6218 0.5625 0.0287
C121 C 0.6602(11) 0.4880(11) 0.0294(10)
H64 H 0.6891 0.4719 0.0625
H65 H 0.6949 0.5124 0.0100
C122 C 0.6090(15) 0.4263(11) -0.0192(12)
H66 H 0.6185 0.4315 -0.0589
H67 H 0.6252 0.3875 -0.0087
C123 C 0.5347(15) 0.4060(16) -0.0319(18)
H68 H 0.5174 0.4348 -0.0588
H69 H 0.5264 0.4210 0.0082
C124 C 0.482(2) 0.3371(19) -0.0600(15)
H70 H 0.4388 0.3375 -0.0454
H71 H 0.5041 0.3065 -0.0391
C125 C 0.449(4) 0.300(2) -0.1295(17)
C126 C 0.9981(5) 0.4023(5) 0.3522(6)
H72 H 1.0157 0.3963 0.3954
C127 C 1.0732(5) 0.4358(6) 0.3461(6)
H73 H 1.0983 0.4007 0.3464
H74 H 1.0637 0.4439 0.3037
C128 C 1.1233(6) 0.4934(6) 0.3845(6)
H75 H 1.1396 0.4850 0.4264
H76 H 1.0990 0.5289 0.3881
C129 C 1.1874(6) 0.5195(6) 0.3658(7)
H77 H 1.2149 0.4863 0.3676
H78 H 1.1707 0.5217 0.3218
C130 C 1.2345(7) 0.5811(6) 0.3992(8)
H79 H 1.2517 0.5775 0.4427
H80 H 1.2053 0.6129 0.3992
C131 C 1.3009(6) 0.6151(7) 0.3830(9)
C132 C 0.9449(7) 0.3303(5) 0.3229(6)
H81 H 0.9728 0.2984 0.3166
H82 H 0.9172 0.3163 0.3516
C133 C 0.8977(11) 0.3276(6) 0.2678(7)
H83 H 0.9241 0.3591 0.2473
H84 H 0.8583 0.3448 0.2763
C134 C 0.8640(8) 0.2620(6) 0.2243(6)
H85 H 0.9031 0.2463 0.2132
H86 H 0.8406 0.2295 0.2457
C135 C 0.8131(9) 0.2591(11) 0.1708(7)
H87 H 0.8189 0.3065 0.1673
H88 H 0.7646 0.2415 0.1765
C136 C 0.8095(18) 0.2195(15) 0.1090(7)
H89 H 0.8608 0.2271 0.1090
H90 H 0.7898 0.1711 0.1086
C137 C 0.7721(19) 0.2273(12) 0.0530(8)
H91 H 0.7252 0.1899 0.0389
H92 H 0.7997 0.2164 0.0243
C138 C 0.752(2) 0.2875(16) 0.0380(11)
H93 H 0.7867 0.3266 0.0718
H94 H 0.7035 0.2820 0.0439
C139 C 0.747(3) 0.3121(18) -0.0226(15)
C140 C 0.4207(9) 0.3869(6) 0.1325(6)
H95 H 0.3662 0.3729 0.1218
C141 C 0.4273(13) 0.3398(8) 0.0771(6)
H96 H 0.3910 0.3424 0.0397
H97 H 0.4761 0.3609 0.0732
C142 C 0.4201(13) 0.2733(7) 0.0718(6)
H98 H 0.3702 0.2500 0.0724
H99 H 0.4551 0.2688 0.1092
C143 C 0.4314(17) 0.2376(8) 0.0173(9)
H100 H 0.3986 0.2444 -0.0200
H101 H 0.4824 0.2589 0.0182
C144 C 0.4200(19) 0.1700(8) 0.0107(10)
H102 H 0.3691 0.1500 0.0107
H103 H 0.4524 0.1644 0.0490
C145 C 0.430(2) 0.1266(9) -0.0430(11)
H104 H 0.3984 0.1336 -0.0811
H105 H 0.4810 0.1464 -0.0422
C146 C 0.417(2) 0.0582(10) -0.0521(13)
H106 H 0.3698 0.0403 -0.0447
H107 H 0.4547 0.0527 -0.0170
C147 C 0.415(2) 0.0090(12) -0.1076(10)
H108 H 0.4427 0.0365 -0.1301
H109 H 0.3630 -0.0069 -0.1342
C148 C 0.439(2) -0.0553(16) -0.1099(15)
C149 C 0.4372(12) 0.4641(7) 0.1488(8)
H110 H 0.4911 0.4836 0.1605
H111 H 0.4171 0.4761 0.1093
C150 C 0.4166(12) 0.4993(7) 0.1921(9)
H112 H 0.4320 0.4853 0.2314
H113 H 0.3624 0.4859 0.1784
C151 C 0.4444(12) 0.5725(7) 0.2056(9)
H114 H 0.4983 0.5863 0.2233
H115 H 0.4334 0.5864 0.1657
C152 C 0.4184(12) 0.6076(11) 0.2450(13)
H116 H 0.3781 0.5742 0.2523
H117 H 0.3961 0.6372 0.2223
C153 C 0.467(2) 0.6511(19) 0.3074(12)
C154 C 0.6274(6) 0.0927(6) 0.3566(6)
H118 H 0.6649 0.1072 0.3986
C155 C 0.5795(8) 0.0243(6) 0.3595(10)
H119 H 0.5571 -0.0029 0.3159
H120 H 0.6135 0.0020 0.3807
C156 C 0.5250(8) 0.0156(6) 0.3856(8)
H121 H 0.5031 0.0526 0.3809
H122 H 0.5465 0.0204 0.4307
C157 C 0.4669(8) -0.0486(8) 0.3604(9)
H123 H 0.4397 -0.0496 0.3173
H124 H 0.4896 -0.0853 0.3579
C158 C 0.4181(8) -0.0626(7) 0.3923(10)
H125 H 0.4450 -0.0683 0.4329
H126 H 0.3820 -0.1074 0.3693
C159 C 0.3756(8) -0.0156(8) 0.4054(8)
H127 H 0.4121 0.0284 0.4300
H128 H 0.3513 -0.0081 0.3648
C160 C 0.3236(9) -0.0291(8) 0.4349(9)
H129 H 0.3492 -0.0359 0.4755
H130 H 0.2890 -0.0742 0.4107
C161 C 0.2767(9) 0.0120(9) 0.4494(8)
H131 H 0.2451 0.0126 0.4085
H132 H 0.3102 0.0589 0.4678
C162 C 0.2256(9) 0.0001(9) 0.4903(8)
C163 C 0.6757(9) 0.0943(9) 0.3138(9)
H133 H 0.6407 0.0768 0.2712
H134 H 0.6990 0.1431 0.3179
C164 C 0.7293(10) 0.0660(9) 0.3126(7)
H135 H 0.7079 0.0161 0.3043
H136 H 0.7661 0.0815 0.3545
C165 C 0.7667(9) 0.0807(7) 0.2674(9)
H137 H 0.7320 0.0884 0.2317
H138 H 0.8072 0.1238 0.2865
C166 C 0.7947(9) 0.0332(7) 0.2449(7)
H139 H 0.7567 -0.0114 0.2351
H140 H 0.8363 0.0330 0.2794
C167 C 0.8211(9) 0.0362(8) 0.1893(8)
C168 C 0.2205(6) -0.1954(7) 0.1583(7)
H141 H 0.2110 -0.1933 0.1137
C169 C 0.1585(9) -0.2622(7) 0.1425(8)
H142 H 0.1817 -0.2987 0.1409
H143 H 0.1401 -0.2619 0.1790
C170 C 0.0987(9) -0.2830(9) 0.0917(9)
H144 H 0.1150 -0.2891 0.0543
H145 H 0.0759 -0.2463 0.0905
C171 C 0.0431(9) -0.3449(8) 0.0875(7)
H146 H 0.0679 -0.3779 0.1007
H147 H 0.0170 -0.3349 0.1177
C172 C -0.0075(9) -0.3755(9) 0.0309(7)
H148 H 0.0195 -0.3846 0.0013
H149 H -0.0312 -0.3416 0.0180
C173 C -0.0675(10) -0.4396(8) 0.0214(8)
H150 H -0.0432 -0.4727 0.0351
H151 H -0.0938 -0.4298 0.0515
C174 C -0.1203(11) -0.4734(10) -0.0340(9)
H152 H -0.0932 -0.4826 -0.0637
H153 H -0.1436 -0.4396 -0.0474
C175 C -0.1816(13) -0.5369(12) -0.0475(11)
H154 H -0.2102 -0.5270 -0.0194
H155 H -0.1586 -0.5702 -0.0322
C176 C -0.2392(15) -0.5765(13) -0.1108(13)
C177 C 0.3034(8) -0.1652(10) 0.1732(13)
H156 H 0.3181 -0.1767 0.2140
H157 H 0.3109 -0.2010 0.1440
C178 C 0.3658(10) -0.1156(9) 0.1809(15)
H158 H 0.3717 -0.0778 0.2157
H159 H 0.3602 -0.0982 0.1427
C179 C 0.4322(8) -0.1344(14) 0.1934(15)
H160 H 0.4525 -0.1276 0.2390
H161 H 0.4191 -0.1835 0.1745
C180 C 0.4858(11) -0.1008(18) 0.1725(17)
H162 H 0.5029 -0.1354 0.1511
H163 H 0.5273 -0.0733 0.2097
C181 C 0.4728(19) -0.0549(17) 0.1301(17)
C182 C 0.0500(9) 0.2032(7) 0.0802(5)
H164 H 0.0953 0.2260 0.0705
C183 C 0.0145(7) 0.2523(9) 0.1077(8)
H165 H -0.0044 0.2736 0.0741
H166 H -0.0288 0.2241 0.1158
C184 C 0.0503(8) 0.3033(8) 0.1594(8)
H167 H 0.0494 0.2845 0.1964
H168 H 0.0232 0.3368 0.1597
C185 C 0.1256(7) 0.3385(9) 0.1658(8)
H169 H 0.1550 0.3079 0.1760
H170 H 0.1279 0.3469 0.1248
C186 C 0.1580(9) 0.3984(9) 0.2090(9)
H171 H 0.1569 0.3888 0.2498
H172 H 0.1262 0.4272 0.1998
C187 C 0.2345(8) 0.4408(9) 0.2175(10)
C188 C -0.0156(9) 0.1646(11) 0.0225(7)
H173 H -0.0606 0.1479 0.0341
H174 H -0.0241 0.1935 -0.0070
C189 C 0.0050(9) 0.1126(9) -0.0019(8)
H175 H -0.0396 0.0737 -0.0244
H176 H 0.0341 0.0986 0.0328
C190 C 0.0474(11) 0.1259(11) -0.0441(7)
H177 H 0.0200 0.0939 -0.0852
H178 H 0.0511 0.1723 -0.0499
C191 C 0.1160(10) 0.1209(9) -0.0268(9)
H179 H 0.1343 0.1347 0.0192
H180 H 0.1468 0.1554 -0.0420
C192 C 0.1309(10) 0.0557(11) -0.0460(8)
H181 H 0.0844 0.0240 -0.0757
H182 H 0.1656 0.0651 -0.0702
C193 C 0.1571(12) 0.0202(10) -0.0054(11)
H183 H 0.1225 -0.0265 -0.0211
H184 H 0.1495 0.0389 0.0342
C194 C 0.2308(12) 0.0117(14) 0.0131(18)
H185 H 0.2578 0.0453 0.0534
H186 H 0.2543 0.0279 -0.0174
C195 C 0.2502(17) -0.0536(16) 0.021(2)
loop_
_geom_bond_atom_site_label_1
_geom_bond_atom_site_label_2
_geom_bond_site_symmetry_1
_geom_bond_site_symmetry_2
Cl1 C69 1_555 1_555
Cl2 C67 1_555 1_555
Cl3 C65 1_555 1_555
Cl4 C75 1_555 1_555
Cl5 C73 1_555 1_555
Cl6 C71 1_555 1_555
N1 C14 1_555 1_555
N2 C52 1_555 1_555
C1 C2 1_555 1_555
C2 H1 1_555 1_555
C3 C2 1_555 1_555
H2 C3 1_555 1_555
C4 C3 1_555 1_555
C5 C4 1_555 1_555
C6 C5 1_555 1_555
H3 C6 1_555 1_555
C7 C6 1_555 1_555
H4 C7 1_555 1_555
C8 C7 1_555 1_555
C9 C8 1_555 1_555
C10 C9 1_555 1_555
H5 C10 1_555 1_555
C11 C10 1_555 1_555
H6 C11 1_555 1_555
C12 C11 1_555 1_555
H7 C12 1_555 1_555
C13 C12 1_555 1_555
C14 C13 1_555 1_555
C15 C14 1_555 1_555
H8 C15 1_555 1_555
C16 C15 1_555 1_555
C17 C16 1_555 1_555
C18 C17 1_555 1_555
C19 C18 1_555 1_555
C20 C16 1_555 1_555
C21 C9 1_555 1_555
C22 C18 1_555 1_555
H9 C22 1_555 1_555
C23 C22 1_555 1_555
C24 C5 1_555 1_555
C25 C8 1_555 1_555
C26 C23 1_555 1_555
C27 C26 1_555 1_555
H10 C27 1_555 1_555
C28 C27 1_555 1_555
C29 C28 1_555 1_555
C30 C29 1_555 1_555
C31 C30 1_555 1_555
C32 C28 1_555 1_555
C33 C1 1_555 1_555
C34 C4 1_555 1_555
C35 C30 1_555 1_555
H11 C35 1_555 1_555
C36 C35 1_555 1_555
C37 C36 1_555 1_555
C38 C31 1_555 1_555
C39 C1 1_555 1_555
C40 C39 1_555 1_555
H12 C40 1_555 1_555
C41 C40 1_555 1_555
H13 C41 1_555 1_555
C42 C37 1_555 1_555
C43 C42 1_555 1_555
C44 C43 1_555 1_555
H14 C44 1_555 1_555
C45 C44 1_555 1_555
H15 C45 1_555 1_555
C46 C45 1_555 1_555
C47 C46 1_555 1_555
C48 C47 1_555 1_555
H16 C48 1_555 1_555
C49 C48 1_555 1_555
H17 C49 1_555 1_555
C50 C49 1_555 1_555
H18 C50 1_555 1_555
C51 C50 1_555 1_555
C52 C51 1_555 1_555
C53 C52 1_555 1_555
H19 C53 1_555 1_555
C54 C53 1_555 1_555
C55 C54 1_555 1_555
C56 C55 1_555 1_555
C57 C56 1_555 1_555
H20 C57 1_555 1_555
C58 C36 1_555 1_555
C59 C43 1_555 1_555
C60 C46 1_555 1_555
C61 C56 1_555 1_555
C62 C54 1_555 1_555
C63 C47 1_555 1_555
C64 N1 1_555 1_555
C65 C64 1_555 1_555
C66 C65 1_555 1_555
H21 C66 1_555 1_555
C67 C66 1_555 1_555
C68 C67 1_555 1_555
H22 C68 1_555 1_555
C69 C64 1_555 1_555
C70 N2 1_555 1_555
C71 C70 1_555 1_555
C72 C71 1_555 1_555
H23 C72 1_555 1_555
C73 C72 1_555 1_555
C74 C73 1_555 1_555
H24 C74 1_555 1_555
C75 C70 1_555 1_555
C76 C17 1_555 1_555
C77 C76 1_555 1_555
H25 C77 1_555 1_555
C78 C77 1_555 1_555
H26 C78 1_555 1_555
C79 C78 1_555 1_555
C80 C79 1_555 1_555
H27 C80 1_555 1_555
C81 C76 1_555 1_555
H28 C81 1_555 1_555
C82 C17 1_555 1_555
C83 C82 1_555 1_555
H29 C83 1_555 1_555
C84 C83 1_555 1_555
H30 C84 1_555 1_555
C85 C84 1_555 1_555
C86 C85 1_555 1_555
H31 C86 1_555 1_555
C87 C82 1_555 1_555
H32 C87 1_555 1_555
C88 C29 1_555 1_555
C89 C88 1_555 1_555
H33 C89 1_555 1_555
C90 C89 1_555 1_555
H34 C90 1_555 1_555
C91 C90 1_555 1_555
C92 C91 1_555 1_555
H35 C92 1_555 1_555
C93 C88 1_555 1_555
H36 C93 1_555 1_555
C94 C29 1_555 1_555
C95 C94 1_555 1_555
H37 C95 1_555 1_555
C96 C95 1_555 1_555
H38 C96 1_555 1_555
C97 C96 1_555 1_555
C98 C97 1_555 1_555
H39 C98 1_555 1_555
C99 C94 1_555 1_555
H40 C99 1_555 1_555
C100 C55 1_555 1_555
C101 C100 1_555 1_555
H41 C101 1_555 1_555
C102 C101 1_555 1_555
H42 C102 1_555 1_555
C103 C102 1_555 1_555
C104 C103 1_555 1_555
H43 C104 1_555 1_555
C105 C100 1_555 1_555
H44 C105 1_555 1_555
C106 C55 1_555 1_555
C107 C106 1_555 1_555
H45 C107 1_555 1_555
C108 C107 1_555 1_555
H46 C108 1_555 1_555
C109 C108 1_555 1_555
C110 C109 1_555 1_555
H47 C110 1_555 1_555
C111 C106 1_555 1_555
H48 C111 1_555 1_555
C112 C79 1_555 1_555
H49 C112 1_555 1_555
C113 C112 1_555 1_555
H50 C113 1_555 1_555
H51 C113 1_555 1_555
C114 C113 1_555 1_555
H52 C114 1_555 1_555
H53 C114 1_555 1_555
C115 C114 1_555 1_555
H54 C115 1_555 1_555
H55 C115 1_555 1_555
C116 C115 1_555 1_555
H56 C116 1_555 1_555
H57 C116 1_555 1_555
C117 C116 1_555 1_555
C118 C112 1_555 1_555
H58 C118 1_555 1_555
H59 C118 1_555 1_555
C119 C118 1_555 1_555
H60 C119 1_555 1_555
H61 C119 1_555 1_555
C120 C119 1_555 1_555
H62 C120 1_555 1_555
H63 C120 1_555 1_555
C121 C120 1_555 1_555
H64 C121 1_555 1_555
H65 C121 1_555 1_555
C122 C121 1_555 1_555
H66 C122 1_555 1_555
H67 C122 1_555 1_555
C123 C122 1_555 1_555
H68 C123 1_555 1_555
H69 C123 1_555 1_555
C124 C123 1_555 1_555
H70 C124 1_555 1_555
H71 C124 1_555 1_555
C125 C124 1_555 1_555
C126 C85 1_555 1_555
H72 C126 1_555 1_555
C127 C126 1_555 1_555
H73 C127 1_555 1_555
H74 C127 1_555 1_555
C128 C127 1_555 1_555
H75 C128 1_555 1_555
H76 C128 1_555 1_555
C129 C128 1_555 1_555
H77 C129 1_555 1_555
H78 C129 1_555 1_555
C130 C129 1_555 1_555
H79 C130 1_555 1_555
H80 C130 1_555 1_555
C131 C130 1_555 1_555
C132 C126 1_555 1_555
H81 C132 1_555 1_555
H82 C132 1_555 1_555
C133 C132 1_555 1_555
H83 C133 1_555 1_555
H84 C133 1_555 1_555
C134 C133 1_555 1_555
H85 C134 1_555 1_555
H86 C134 1_555 1_555
C135 C134 1_555 1_555
H87 C135 1_555 1_555
H88 C135 1_555 1_555
C136 C135 1_555 1_555
H89 C136 1_555 1_555
H90 C136 1_555 1_555
C137 C136 1_555 1_555
H91 C137 1_555 1_555
H92 C137 1_555 1_555
C138 C137 1_555 1_555
H93 C138 1_555 1_555
H94 C138 1_555 1_555
C139 C138 1_555 1_555
C140 C97 1_555 1_555
H95 C140 1_555 1_555
C141 C140 1_555 1_555
H96 C141 1_555 1_555
H97 C141 1_555 1_555
C142 C141 1_555 1_555
H98 C142 1_555 1_555
H99 C142 1_555 1_555
C143 C142 1_555 1_555
H100 C143 1_555 1_555
H101 C143 1_555 1_555
C144 C143 1_555 1_555
H102 C144 1_555 1_555
H103 C144 1_555 1_555
C145 C144 1_555 1_555
H104 C145 1_555 1_555
H105 C145 1_555 1_555
C146 C145 1_555 1_555
H106 C146 1_555 1_555
H107 C146 1_555 1_555
C147 C146 1_555 1_555
H108 C147 1_555 1_555
H109 C147 1_555 1_555
C148 C147 1_555 1_555
C149 C140 1_555 1_555
H110 C149 1_555 1_555
H111 C149 1_555 1_555
C150 C149 1_555 1_555
H112 C150 1_555 1_555
H113 C150 1_555 1_555
C151 C150 1_555 1_555
H114 C151 1_555 1_555
H115 C151 1_555 1_555
C152 C151 1_555 1_555
H116 C152 1_555 1_555
H117 C152 1_555 1_555
C153 C152 1_555 1_555
C154 C91 1_555 1_555
H118 C154 1_555 1_555
C155 C154 1_555 1_555
H119 C155 1_555 1_555
H120 C155 1_555 1_555
C156 C155 1_555 1_555
H121 C156 1_555 1_555
H122 C156 1_555 1_555
C157 C156 1_555 1_555
H123 C157 1_555 1_555
H124 C157 1_555 1_555
C158 C157 1_555 1_555
H125 C158 1_555 1_555
H126 C158 1_555 1_555
C159 C158 1_555 1_555
H127 C159 1_555 1_555
H128 C159 1_555 1_555
C160 C159 1_555 1_555
H129 C160 1_555 1_555
H130 C160 1_555 1_555
C161 C160 1_555 1_555
H131 C161 1_555 1_555
H132 C161 1_555 1_555
C162 C161 1_555 1_555
C163 C154 1_555 1_555
H133 C163 1_555 1_555
H134 C163 1_555 1_555
C164 C163 1_555 1_555
H135 C164 1_555 1_555
H136 C164 1_555 1_555
C165 C164 1_555 1_555
H137 C165 1_555 1_555
H138 C165 1_555 1_555
C166 C165 1_555 1_555
H139 C166 1_555 1_555
H140 C166 1_555 1_555
C167 C166 1_555 1_555
C168 C109 1_555 1_555
H141 C168 1_555 1_555
C169 C168 1_555 1_555
H142 C169 1_555 1_555
H143 C169 1_555 1_555
C170 C169 1_555 1_555
H144 C170 1_555 1_555
H145 C170 1_555 1_555
C171 C170 1_555 1_555
H146 C171 1_555 1_555
H147 C171 1_555 1_555
C172 C171 1_555 1_555
H148 C172 1_555 1_555
H149 C172 1_555 1_555
C173 C172 1_555 1_555
H150 C173 1_555 1_555
H151 C173 1_555 1_555
C174 C173 1_555 1_555
H152 C174 1_555 1_555
H153 C174 1_555 1_555
C175 C174 1_555 1_555
H154 C175 1_555 1_555
H155 C175 1_555 1_555
C176 C175 1_555 1_555
C177 C168 1_555 1_555
H156 C177 1_555 1_555
H157 C177 1_555 1_555
C178 C177 1_555 1_555
H158 C178 1_555 1_555
H159 C178 1_555 1_555
C179 C178 1_555 1_555
H160 C179 1_555 1_555
H161 C179 1_555 1_555
C180 C179 1_555 1_555
H162 C180 1_555 1_555
H163 C180 1_555 1_555
C181 C180 1_555 1_555
C182 C103 1_555 1_555
H164 C182 1_555 1_555
C183 C182 1_555 1_555
H165 C183 1_555 1_555
H166 C183 1_555 1_555
C184 C183 1_555 1_555
H167 C184 1_555 1_555
H168 C184 1_555 1_555
C185 C184 1_555 1_555
H169 C185 1_555 1_555
H170 C185 1_555 1_555
C186 C185 1_555 1_555
H171 C186 1_555 1_555
H172 C186 1_555 1_555
C187 C186 1_555 1_555
C188 C182 1_555 1_555
H173 C188 1_555 1_555
H174 C188 1_555 1_555
C189 C188 1_555 1_555
H175 C189 1_555 1_555
H176 C189 1_555 1_555
C190 C189 1_555 1_555
H177 C190 1_555 1_555
H178 C190 1_555 1_555
C191 C190 1_555 1_555
H179 C191 1_555 1_555
H180 C191 1_555 1_555
C192 C191 1_555 1_555
H181 C192 1_555 1_555
H182 C192 1_555 1_555
C193 C192 1_555 1_555
H183 C193 1_555 1_555
H184 C193 1_555 1_555
C194 C193 1_555 1_555
H185 C194 1_555 1_555
H186 C194 1_555 1_555
C195 C194 1_555 1_555
C13 C21 1_555 1_555
C19 C20 1_555 1_555
C19 C25 1_555 1_555
C20 C21 1_555 1_555
C23 C24 1_555 1_555
C24 C25 1_555 1_555
C26 C34 1_555 1_555
C31 C32 1_555 1_555
C32 C33 1_555 1_555
C33 C34 1_555 1_555
C37 C38 1_555 1_555
C38 C39 1_555 1_555
C41 C42 1_555 1_555
C51 C63 1_555 1_555
C57 C58 1_555 1_555
C58 C59 1_555 1_555
C59 C60 1_555 1_555
C60 C61 1_555 1_555
C61 C62 1_555 1_555
C62 C63 1_555 1_555
C68 C69 1_555 1_555
C74 C75 1_555 1_555
C80 C81 1_555 1_555
C86 C87 1_555 1_555
C92 C93 1_555 1_555
C98 C99 1_555 1_555
C104 C105 1_555 1_555
C110 C111 1_555 1_555

#END
