
#######################################################################
#
#                 Cambridge Crystallographic Data Centre
#                                CCDC 
#
#######################################################################
#
# If this CIF has been generated from an entry in the Cambridge 
# Structural Database, then it will include bibliographic, chemical, 
# crystal, experimental, refinement or atomic coordinate data resulting 
# from the CCDC's data processing and validation procedures.
#
#######################################################################

data_VEXBEI
_chemical_formula_moiety         'C19 H21 N1 O2 S1'
_chemical_name_systematic        
3-methylene-1-((4-methylphenyl)sulfonyl)-4-phenylpiperidine
_symmetry_cell_setting           monoclinic
_symmetry_space_group_name_H-M   'P 21'
_symmetry_Int_Tables_number      4
_space_group_name_Hall           'P 2yb'
loop_
_symmetry_equiv_pos_site_id
_symmetry_equiv_pos_as_xyz
1 x,y,z
2 -x,1/2+y,-z
_cell_length_a                   5.6458(3)
_cell_length_b                   26.6994(9)
_cell_length_c                   6.1070(2)
_cell_angle_alpha                90
_cell_angle_beta                 115.687(6)
_cell_angle_gamma                90
_cell_volume                     829.591
_exptl_crystal_colour            colorless
_exptl_crystal_description       plate
_chemical_melting_point          '406 K'
_cell_formula_units_Z            2
loop_
_atom_site_label
_atom_site_type_symbol
_atom_site_fract_x
_atom_site_fract_y
_atom_site_fract_z
S1 S 1.02822(9) 0.44671(2) 0.38767(8)
O1 O 1.0729(3) 0.44426(7) 0.1739(3)
O2 O 1.2471(3) 0.44787(7) 0.6231(3)
N1 N 0.8558(4) 0.49779(6) 0.3635(3)
C1 C 0.7909(4) 0.50734(8) 0.5698(4)
H1 H 0.9506 0.5036 0.7249
H2 H 0.6588 0.4827 0.5678
C2 C 0.6829(4) 0.55986(8) 0.5501(3)
C3 C 0.4491(4) 0.57044(7) 0.3098(4)
H3 H 0.3085 0.5460 0.2950
C4 C 0.5299(5) 0.55817(8) 0.1069(3)
H4 H 0.3779 0.5633 -0.0526
H5 H 0.6719 0.5812 0.1174
C5 C 0.6246(4) 0.50443(8) 0.1255(3)
H6 H 0.4827 0.4811 0.1123
H7 H 0.6739 0.4971 -0.0082
C6 C 0.7910(4) 0.59233(8) 0.7320(4)
H8 H 0.9382 0.5827 0.8768
H9 H 0.7211 0.6252 0.7170
C7 C 0.3342(4) 0.62232(8) 0.2925(4)
C8 C 0.1860(4) 0.63239(8) 0.4202(4)
H10 H 0.1631 0.6069 0.5178
C9 C 0.0716(5) 0.67890(9) 0.4074(4)
H11 H -0.0278 0.6851 0.4965
C10 C 0.1023(5) 0.71644(9) 0.2643(5)
H12 H 0.0230 0.7483 0.2535
C11 C 0.2491(5) 0.70691(9) 0.1379(5)
H13 H 0.2713 0.7325 0.0403
C12 C 0.3651(5) 0.66045(8) 0.1516(4)
H14 H 0.4664 0.6546 0.0640
C13 C 0.8239(4) 0.39641(8) 0.3813(4)
C14 C 0.6412(5) 0.37822(8) 0.1582(4)
H15 H 0.6365 0.3910 0.0112
C15 C 0.4670(5) 0.34136(9) 0.1526(5)
H16 H 0.3435 0.3286 0.0006
C16 C 0.4696(6) 0.32252(9) 0.3670(5)
C17 C 0.6535(5) 0.34120(9) 0.5869(4)
H17 H 0.6587 0.3283 0.7339
C18 C 0.8303(4) 0.37832(8) 0.5974(4)
H18 H 0.9534 0.3911 0.7494
C19 C 0.2730(6) 0.28338(11) 0.3594(6)
H19 H 0.0949 0.2972 0.2778
H20 H 0.3089 0.2736 0.5255
H21 H 0.2876 0.2540 0.2700
loop_
_geom_bond_atom_site_label_1
_geom_bond_atom_site_label_2
_geom_bond_site_symmetry_1
_geom_bond_site_symmetry_2
S1 O1 1_555 1_555
O2 S1 1_555 1_555
N1 S1 1_555 1_555
C1 N1 1_555 1_555
H1 C1 1_555 1_555
H2 C1 1_555 1_555
C2 C1 1_555 1_555
C3 C2 1_555 1_555
H3 C3 1_555 1_555
C4 C3 1_555 1_555
H4 C4 1_555 1_555
H5 C4 1_555 1_555
C5 N1 1_555 1_555
H6 C5 1_555 1_555
H7 C5 1_555 1_555
C6 C2 1_555 1_555
H8 C6 1_555 1_555
H9 C6 1_555 1_555
C7 C3 1_555 1_555
C8 C7 1_555 1_555
H10 C8 1_555 1_555
C9 C8 1_555 1_555
H11 C9 1_555 1_555
C10 C9 1_555 1_555
H12 C10 1_555 1_555
C11 C10 1_555 1_555
H13 C11 1_555 1_555
C12 C7 1_555 1_555
H14 C12 1_555 1_555
C13 S1 1_555 1_555
C14 C13 1_555 1_555
H15 C14 1_555 1_555
C15 C14 1_555 1_555
H16 C15 1_555 1_555
C16 C15 1_555 1_555
C17 C16 1_555 1_555
H17 C17 1_555 1_555
C18 C13 1_555 1_555
H18 C18 1_555 1_555
C19 C16 1_555 1_555
H19 C19 1_555 1_555
H20 C19 1_555 1_555
H21 C19 1_555 1_555
C4 C5 1_555 1_555
C11 C12 1_555 1_555
C17 C18 1_555 1_555

#END
