
#######################################################################
#
#                 Cambridge Crystallographic Data Centre
#                                CCDC 
#
#######################################################################
#
# If this CIF has been generated from an entry in the Cambridge 
# Structural Database, then it will include bibliographic, chemical, 
# crystal, experimental, refinement or atomic coordinate data resulting 
# from the CCDC's data processing and validation procedures.
#
#######################################################################

data_VEXBAE
_chemical_formula_moiety         'C13 H14 O3'
_chemical_name_systematic        
5-(3-methylenetetrahydro-2H-pyran-4-yl)-1,3-benzodioxole
_symmetry_cell_setting           monoclinic
_symmetry_space_group_name_H-M   'P 21'
_symmetry_Int_Tables_number      4
_space_group_name_Hall           'P 2yb'
loop_
_symmetry_equiv_pos_site_id
_symmetry_equiv_pos_as_xyz
1 x,y,z
2 -x,1/2+y,-z
_cell_length_a                   5.88468(5)
_cell_length_b                   24.0880(2)
_cell_length_c                   11.56387(9)
_cell_angle_alpha                90
_cell_angle_beta                 92.8518(7)
_cell_angle_gamma                90
_cell_volume                     1637.15
_exptl_crystal_colour            colorless
_exptl_crystal_description       prism
_chemical_melting_point          '326.15 K'
_cell_formula_units_Z            6
_chemical_properties_physical    ', Air-sensitive'
loop_
_atom_site_label
_atom_site_type_symbol
_atom_site_fract_x
_atom_site_fract_y
_atom_site_fract_z
O1 O 0.1080(2) 0.25544(6) 0.35162(10)
O2 O -0.5544(3) 0.43035(6) -0.01950(13)
O3 O -0.4576(3) 0.42567(7) -0.21158(13)
C1 C 0.0275(3) 0.21928(8) 0.26123(16)
H1 H -0.0797 0.1922 0.2929
H2 H 0.1576 0.1983 0.2323
C2 C -0.0903(3) 0.24973(7) 0.16182(13)
C3 C 0.0494(3) 0.29650(7) 0.11445(13)
H3 H 0.1793 0.2789 0.0756
C4 C 0.1534(3) 0.33133(8) 0.21595(15)
H4 H 0.2676 0.3572 0.1865
H5 H 0.0322 0.3537 0.2499
C5 C 0.2656(3) 0.29485(8) 0.30910(15)
H6 H 0.3954 0.2749 0.2770
H7 H 0.3255 0.3184 0.3739
C6 C -0.2955(3) 0.23434(7) 0.12091(15)
H8 H -0.3698 0.2037 0.1545
H9 H -0.3680 0.2539 0.0581
C7 C -0.0781(3) 0.33142(7) 0.02405(14)
C8 C -0.2588(3) 0.36532(7) 0.05620(14)
H10 H -0.3007 0.3676 0.1344
C9 C -0.3722(3) 0.39502(7) -0.02967(15)
C10 C -0.3129(3) 0.39270(8) -0.14387(15)
C11 C -0.1382(4) 0.36003(10) -0.17752(16)
H11 H -0.0979 0.3584 -0.2560
C12 C -0.0213(3) 0.32907(9) -0.09088(16)
H12 H 0.1006 0.3058 -0.1115
C13 C -0.6040(4) 0.45170(10) -0.1334(2)
H13 H -0.7648 0.4441 -0.1575
H14 H -0.5802 0.4924 -0.1341
O4 O 0.6752(2) 0.38858(5) 0.33992(10)
O5 O 1.4822(2) 0.60621(5) 0.47900(10)
O6 O 1.4744(2) 0.63166(6) 0.67217(11)
C14 C 0.7526(3) 0.37396(8) 0.45465(15)
H15 H 0.8266 0.3371 0.4533
H16 H 0.6202 0.3712 0.5039
C15 C 0.9187(3) 0.41564(7) 0.50690(12)
C16 C 0.8285(2) 0.47464(7) 0.50312(13)
H17 H 0.6945 0.4757 0.5530
C17 C 0.7382(3) 0.48659(7) 0.37807(14)
H18 H 0.6615 0.5232 0.3750
H19 H 0.8671 0.4880 0.3263
C18 C 0.5717(3) 0.44181(7) 0.33656(15)
H20 H 0.4394 0.4417 0.3862
H21 H 0.5157 0.4502 0.2563
C19 C 1.1205(3) 0.40023(8) 0.55138(14)
H22 H 1.1631 0.3622 0.5508
H23 H 1.2226 0.4272 0.5839
C20 C 0.9969(3) 0.51726(7) 0.55140(13)
C21 C 1.1602(3) 0.54070(7) 0.48105(12)
H24 H 1.1654 0.5310 0.4016
C22 C 1.3114(3) 0.57791(7) 0.53094(13)
C23 C 1.3075(3) 0.59269(7) 0.64648(13)
C24 C 1.1500(3) 0.57088(7) 0.71725(13)
H25 H 1.1462 0.5813 0.7964
C25 C 0.9952(3) 0.53260(7) 0.66757(13)
H26 H 0.8851 0.5165 0.7147
C26 C 1.5891(3) 0.64005(8) 0.56752(15)
H27 H 1.7515 0.6298 0.5792
H28 H 1.5802 0.6796 0.5446
O7 O 0.8136(2) 0.54473(6) -0.06166(11)
O8 O 1.5420(2) 0.74776(7) 0.20034(12)
O9 O 1.4550(3) 0.76878(7) 0.38852(13)
C27 C 0.8836(3) 0.51958(9) 0.04611(16)
H29 H 0.9744 0.4859 0.0313
H30 H 0.7475 0.5080 0.0869
C28 C 1.0233(3) 0.55874(7) 0.12192(13)
C29 C 0.9041(3) 0.61300(7) 0.14320(13)
H31 H 0.7682 0.6042 0.1885
C30 C 0.8145(3) 0.63665(8) 0.02592(15)
H32 H 0.7154 0.6690 0.0393
H33 H 0.9442 0.6495 -0.0184
C31 C 0.6809(3) 0.59318(9) -0.04404(17)
H34 H 0.5434 0.5829 -0.0029
H35 H 0.6307 0.6090 -0.1201
C32 C 1.2304(3) 0.54480(8) 0.16251(16)
H36 H 1.2922 0.5097 0.1438
H37 H 1.3168 0.5699 0.2103
C33 C 1.0453(3) 0.65481(7) 0.21343(13)
C34 C 1.2326(3) 0.68017(7) 0.16402(14)
H38 H 1.2727 0.6716 0.0875
C35 C 1.3551(3) 0.71784(7) 0.23082(15)
C36 C 1.3006(3) 0.73058(8) 0.34243(15)
C37 C 1.1206(3) 0.70685(9) 0.39308(15)
H39 H 1.0832 0.7159 0.4698
C38 C 0.9927(3) 0.66817(8) 0.32561(14)
H40 H 0.8661 0.6506 0.3581
C39 C 1.6034(3) 0.78160(9) 0.29816(18)
H41 H 1.5892 0.8213 0.2771
H42 H 1.7633 0.7743 0.3245
loop_
_geom_bond_atom_site_label_1
_geom_bond_atom_site_label_2
_geom_bond_site_symmetry_1
_geom_bond_site_symmetry_2
O1 C1 1_555 1_555
O2 C9 1_555 1_555
O3 C10 1_555 1_555
C1 H1 1_555 1_555
H2 C1 1_555 1_555
C2 C1 1_555 1_555
C3 C2 1_555 1_555
H3 C3 1_555 1_555
C4 C3 1_555 1_555
H4 C4 1_555 1_555
H5 C4 1_555 1_555
C5 O1 1_555 1_555
H6 C5 1_555 1_555
H7 C5 1_555 1_555
C6 C2 1_555 1_555
H8 C6 1_555 1_555
H9 C6 1_555 1_555
C7 C3 1_555 1_555
C8 C7 1_555 1_555
H10 C8 1_555 1_555
C9 C8 1_555 1_555
C10 C9 1_555 1_555
C11 C10 1_555 1_555
H11 C11 1_555 1_555
C12 C7 1_555 1_555
H12 C12 1_555 1_555
C13 O2 1_555 1_555
H13 C13 1_555 1_555
H14 C13 1_555 1_555
O4 C14 1_555 1_555
O5 C22 1_555 1_555
O6 C23 1_555 1_555
C14 H15 1_555 1_555
H16 C14 1_555 1_555
C15 C14 1_555 1_555
C16 C15 1_555 1_555
H17 C16 1_555 1_555
C17 C16 1_555 1_555
H18 C17 1_555 1_555
H19 C17 1_555 1_555
C18 O4 1_555 1_555
H20 C18 1_555 1_555
H21 C18 1_555 1_555
C19 C15 1_555 1_555
H22 C19 1_555 1_555
H23 C19 1_555 1_555
C20 C16 1_555 1_555
C21 C20 1_555 1_555
H24 C21 1_555 1_555
C22 C21 1_555 1_555
C23 C22 1_555 1_555
C24 C23 1_555 1_555
H25 C24 1_555 1_555
C25 C20 1_555 1_555
H26 C25 1_555 1_555
C26 O5 1_555 1_555
H27 C26 1_555 1_555
H28 C26 1_555 1_555
O7 C27 1_555 1_555
O8 C35 1_555 1_555
O9 C36 1_555 1_555
C27 H29 1_555 1_555
H30 C27 1_555 1_555
C28 C27 1_555 1_555
C29 C28 1_555 1_555
H31 C29 1_555 1_555
C30 C29 1_555 1_555
H32 C30 1_555 1_555
H33 C30 1_555 1_555
C31 O7 1_555 1_555
H34 C31 1_555 1_555
H35 C31 1_555 1_555
C32 C28 1_555 1_555
H36 C32 1_555 1_555
H37 C32 1_555 1_555
C33 C29 1_555 1_555
C34 C33 1_555 1_555
H38 C34 1_555 1_555
C35 C34 1_555 1_555
C36 C35 1_555 1_555
C37 C36 1_555 1_555
H39 C37 1_555 1_555
C38 C33 1_555 1_555
H40 C38 1_555 1_555
C39 O8 1_555 1_555
H41 C39 1_555 1_555
H42 C39 1_555 1_555
O3 C13 1_555 1_555
C4 C5 1_555 1_555
C11 C12 1_555 1_555
O6 C26 1_555 1_555
C17 C18 1_555 1_555
C24 C25 1_555 1_555
O9 C39 1_555 1_555
C30 C31 1_555 1_555
C37 C38 1_555 1_555

#END
