
#######################################################################
#
#                 Cambridge Crystallographic Data Centre
#                                CCDC 
#
#######################################################################
#
# If this CIF has been generated from an entry in the Cambridge 
# Structural Database, then it will include bibliographic, chemical, 
# crystal, experimental, refinement or atomic coordinate data resulting 
# from the CCDC's data processing and validation procedures.
#
#######################################################################

data_VEXDAG
_chemical_formula_moiety         'C14 H11 Br1 I1 N3 O1'
_chemical_name_systematic        
1-[1-(4-bromophenyl)-2-iodoethoxy]-1H-benzotriazole
_symmetry_cell_setting           monoclinic
_symmetry_space_group_name_H-M   'P 21/c'
_symmetry_Int_Tables_number      14
_space_group_name_Hall           '-P 2ybc'
loop_
_symmetry_equiv_pos_site_id
_symmetry_equiv_pos_as_xyz
1 x,y,z
2 -x,1/2+y,1/2-z
3 -x,-y,-z
4 x,1/2-y,1/2+z
_cell_length_a                   6.6136(13)
_cell_length_b                   14.109(3)
_cell_length_c                   16.668(3)
_cell_angle_alpha                90
_cell_angle_beta                 100.60(3)
_cell_angle_gamma                90
_cell_volume                     1528.77
_exptl_crystal_colour            colorless
_exptl_crystal_description       block
_cell_formula_units_Z            4
loop_
_atom_site_label
_atom_site_type_symbol
_atom_site_fract_x
_atom_site_fract_y
_atom_site_fract_z
I1 I 0.25033(6) 0.10453(3) 0.47945(2)
Br1 Br -0.21706(11) 0.37013(5) 0.13452(4)
C1 C 0.2456(6) 0.3208(3) 0.3780(2)
O1 O 0.4522(5) 0.3983(2) 0.48864(19)
N1 N 0.6128(5) 0.3929(2) 0.5534(2)
C2 C 0.6069(6) 0.4054(3) 0.6328(2)
C3 C -0.0275(7) 0.3506(3) 0.2335(3)
C4 C 0.2996(7) 0.3019(4) 0.3032(3)
H1 H 0.4306 0.2789 0.3016
C5 C 0.3051(7) 0.2475(3) 0.5185(2)
H2 H 0.1773 0.2763 0.5268
H3 H 0.4010 0.2488 0.5701
C6 C 0.8130(6) 0.3979(3) 0.6704(3)
C7 C 0.0499(7) 0.3563(4) 0.3775(3)
H4 H 0.0098 0.3704 0.4268
C8 C 0.3921(6) 0.3029(3) 0.4557(2)
H5 H 0.5138 0.2701 0.4437
N2 N 0.9272(6) 0.3832(3) 0.6105(3)
C9 C -0.0853(8) 0.3710(4) 0.3061(3)
H6 H -0.2160 0.3948 0.3069
C10 C 0.8698(8) 0.4046(4) 0.7546(3)
H7 H 1.0064 0.3986 0.7803
N3 N 0.8064(6) 0.3804(3) 0.5407(3)
C11 C 0.1645(8) 0.3164(4) 0.2316(3)
H8 H 0.2032 0.3030 0.1819
C12 C 0.4497(6) 0.4207(4) 0.6762(3)
H9 H 0.3123 0.4247 0.6511
C13 C 0.7196(8) 0.4201(4) 0.7978(3)
H10 H 0.7530 0.4247 0.8544
C14 C 0.5119(8) 0.4295(4) 0.7585(3)
H11 H 0.4133 0.4422 0.7902
loop_
_geom_bond_atom_site_label_1
_geom_bond_atom_site_label_2
_geom_bond_site_symmetry_1
_geom_bond_site_symmetry_2
I1 C5 1_555 1_555
Br1 C3 1_555 1_555
C1 C4 1_555 1_555
O1 N1 1_555 1_555
N1 C2 1_555 1_555
C2 C6 1_555 1_555
C3 C9 1_555 1_555
C4 H1 1_555 1_555
C5 H2 1_555 1_555
H3 C5 1_555 1_555
C6 N2 1_555 1_555
C7 C1 1_555 1_555
H4 C7 1_555 1_555
C8 C1 1_555 1_555
H5 C8 1_555 1_555
N2 N3 1_555 1_555
C9 C7 1_555 1_555
H6 C9 1_555 1_555
C10 C6 1_555 1_555
H7 C10 1_555 1_555
N3 N1 1_555 1_555
C11 C3 1_555 1_555
H8 C11 1_555 1_555
C12 C2 1_555 1_555
H9 C12 1_555 1_555
C13 C10 1_555 1_555
H10 C13 1_555 1_555
C14 C12 1_555 1_555
H11 C14 1_555 1_555
O1 C8 1_555 1_555
C4 C11 1_555 1_555
C5 C8 1_555 1_555
C13 C14 1_555 1_555

#END
