
#######################################################################
#
#                 Cambridge Crystallographic Data Centre
#                                CCDC 
#
#######################################################################
#
# If this CIF has been generated from an entry in the Cambridge 
# Structural Database, then it will include bibliographic, chemical, 
# crystal, experimental, refinement or atomic coordinate data resulting 
# from the CCDC's data processing and validation procedures.
#
#######################################################################

data_VEXLES
_chemical_name_common            'nodulisporiviridin M monohydrate'
_chemical_formula_moiety         'C20 H24 O4,H2 O1'
_chemical_name_systematic        
'3,9-dihydroxy-9a,11b-dimethyl-2,3,6b,7,8,9,9a,10,11,11b-decahydrocyclopenta[7,8]phenanthro[10,1-bc]furan-6(1H)-one monohydrate'
_symmetry_cell_setting           orthorhombic
_symmetry_space_group_name_H-M   'P 21 21 21'
_symmetry_Int_Tables_number      19
_space_group_name_Hall           'P 2ac 2ab'
loop_
_symmetry_equiv_pos_site_id
_symmetry_equiv_pos_as_xyz
1 x,y,z
2 1/2-x,-y,1/2+z
3 1/2+x,1/2-y,-z
4 -x,1/2+y,1/2-z
_cell_length_a                   6.44547(11)
_cell_length_b                   12.89961(16)
_cell_length_c                   20.8418(3)
_cell_angle_alpha                90
_cell_angle_beta                 90
_cell_angle_gamma                90
_cell_volume                     1732.87
_exptl_crystal_colour            colorless
_exptl_crystal_description       plate
_cell_formula_units_Z            4
loop_
_atom_site_label
_atom_site_type_symbol
_atom_site_fract_x
_atom_site_fract_y
_atom_site_fract_z
O1 O 0.41125(19) 0.61096(9) 0.21261(5)
O2 O 0.1582(2) 0.86274(9) 0.08963(6)
H1 H 0.0872 0.9154 0.0910
O3 O -0.1063(2) 0.02560(9) 0.10314(6)
H2 H -0.2160 -0.0053 0.1086
O4 O 0.3659(2) 0.39199(9) 0.23984(6)
C1 C 0.2624(3) 0.43465(12) 0.19727(8)
C2 C 0.0864(3) 0.38256(12) 0.16413(7)
C3 C -0.0375(3) 0.43289(12) 0.12096(8)
C4 C -0.2219(3) 0.38198(13) 0.08967(9)
H3 H -0.2046 0.3865 0.0435
H4 H -0.3448 0.4216 0.1007
C5 C -0.0593(3) 0.21347(13) 0.12384(8)
C6 C 0.0355(3) 0.27064(12) 0.18147(7)
H5 H -0.0727 0.2735 0.2144
C7 C 0.2028(3) 0.19619(12) 0.20670(8)
H6 H 0.2237 0.2053 0.2524
H7 H 0.3337 0.2072 0.1848
C8 C -0.1007(3) 0.72728(13) 0.07110(9)
H8 H -0.0322 0.7239 0.0297
H9 H -0.2220 0.7711 0.0663
C9 C 0.0119(3) 0.54103(13) 0.09533(7)
C10 C 0.3484(3) 0.70718(12) 0.19209(8)
H10 H 0.4026 0.7693 0.2072
C11 C -0.2616(3) 0.26755(12) 0.10723(8)
H11 H -0.3553 0.2640 0.1436
H12 H -0.3268 0.2326 0.0713
C12 C 0.0872(3) 0.20939(13) 0.06596(8)
H13 H 0.1174 0.2786 0.0519
H14 H 0.0222 0.1717 0.0317
H15 H 0.2138 0.1753 0.0780
C13 C 0.2898(3) 0.54154(13) 0.17926(8)
C14 C 0.1640(3) 0.59218(12) 0.13810(7)
C15 C 0.1963(3) 0.70013(12) 0.14671(7)
C16 C 0.0480(3) 0.77883(13) 0.11940(8)
H16 H -0.0348 0.8071 0.1547
C17 C 0.1172(3) 0.52491(13) 0.02869(8)
H17 H 0.2303 0.4770 0.0330
H18 H 0.1686 0.5901 0.0132
H19 H 0.0175 0.4977 -0.0011
C18 C -0.1737(3) 0.61659(13) 0.08950(9)
H20 H -0.2473 0.6192 0.1301
H21 H -0.2691 0.5912 0.0571
C19 C -0.0831(3) 0.10350(12) 0.15171(8)
H22 H -0.2042 0.1018 0.1801
C20 C 0.1148(3) 0.08713(13) 0.19188(9)
H23 H 0.2152 0.0465 0.1680
H24 H 0.0822 0.0508 0.2314
O5 O -0.4596(2) -0.06747(13) 0.13152(6)
H25 H -0.4464 -0.0767 0.1717
H26 H -0.5796 -0.0872 0.1198
loop_
_geom_bond_atom_site_label_1
_geom_bond_atom_site_label_2
_geom_bond_site_symmetry_1
_geom_bond_site_symmetry_2
O1 C10 1_555 1_555
O2 H1 1_555 1_555
O3 H2 1_555 1_555
O4 C1 1_555 1_555
C1 C2 1_555 1_555
C2 C3 1_555 1_555
C3 C4 1_555 1_555
C4 H3 1_555 1_555
H4 C4 1_555 1_555
C5 C6 1_555 1_555
C6 C2 1_555 1_555
H5 C6 1_555 1_555
C7 C6 1_555 1_555
H6 C7 1_555 1_555
H7 C7 1_555 1_555
C8 H8 1_555 1_555
H9 C8 1_555 1_555
C9 C3 1_555 1_555
C10 H10 1_555 1_555
C11 C4 1_555 1_555
H11 C11 1_555 1_555
H12 C11 1_555 1_555
C12 C5 1_555 1_555
H13 C12 1_555 1_555
H14 C12 1_555 1_555
H15 C12 1_555 1_555
C13 O1 1_555 1_555
C14 C9 1_555 1_555
C15 C10 1_555 1_555
C16 O2 1_555 1_555
H16 C16 1_555 1_555
C17 C9 1_555 1_555
H17 C17 1_555 1_555
H18 C17 1_555 1_555
H19 C17 1_555 1_555
C18 C8 1_555 1_555
H20 C18 1_555 1_555
H21 C18 1_555 1_555
C19 O3 1_555 1_555
H22 C19 1_555 1_555
C20 C7 1_555 1_555
H23 C20 1_555 1_555
H24 C20 1_555 1_555
O5 H25 1_555 1_555
H26 O5 1_555 1_555
C1 C13 1_555 1_555
C5 C11 1_555 1_555
C5 C19 1_555 1_555
C8 C16 1_555 1_555
C9 C18 1_555 1_555
C13 C14 1_555 1_555
C14 C15 1_555 1_555
C15 C16 1_555 1_555
C19 C20 1_555 1_555

#END
