
#######################################################################
#
#                 Cambridge Crystallographic Data Centre
#                                CCDC 
#
#######################################################################
#
# If this CIF has been generated from an entry in the Cambridge 
# Structural Database, then it will include bibliographic, chemical, 
# crystal, experimental, refinement or atomic coordinate data resulting 
# from the CCDC's data processing and validation procedures.
#
#######################################################################

data_VEXLIW
_chemical_name_common            'nodulisporiviridin O'
_chemical_formula_moiety         'C22 H28 O5'
_chemical_name_systematic        
1,6-dihydroxy-4-methyl-6,19-epoxy-4,9-cyclo-9,10-secopregna-5(10),8-diene-7,20-dione
_symmetry_cell_setting           monoclinic
_symmetry_space_group_name_H-M   'C 2'
_symmetry_Int_Tables_number      5
_space_group_name_Hall           'C 2y'
loop_
_symmetry_equiv_pos_site_id
_symmetry_equiv_pos_as_xyz
1 x,y,z
2 -x,y,-z
3 1/2+x,1/2+y,z
4 1/2-x,1/2+y,-z
_cell_length_a                   13.0574(3)
_cell_length_b                   8.04518(11)
_cell_length_c                   18.9198(4)
_cell_angle_alpha                90
_cell_angle_beta                 110.139(2)
_cell_angle_gamma                90
_cell_volume                     1865.99
_exptl_crystal_colour            colorless
_exptl_crystal_description       plate
_cell_formula_units_Z            4
loop_
_atom_site_label
_atom_site_type_symbol
_atom_site_fract_x
_atom_site_fract_y
_atom_site_fract_z
O1 O -0.77930(12) -0.17845(19) -0.45065(8)
H1 H -0.7676 -0.2787 -0.4460
O2 O -0.83527(12) 0.3340(2) -0.39613(9)
O3 O -0.70159(13) 0.48874(18) -0.42191(8)
H2 H -0.7045 0.4426 -0.4612
O4 O -0.74283(13) 0.5405(2) -0.27490(10)
C1 C -0.51789(18) 0.5242(3) -0.17552(12)
H3 H -0.5263 0.4583 -0.1343
O5 O -0.25909(17) 0.9136(2) -0.07487(12)
C2 C -0.85257(18) 0.1595(3) -0.41478(13)
H4 H -0.8896 0.1445 -0.4684
H5 H -0.8957 0.1082 -0.3880
C3 C -0.66672(18) 0.2078(3) -0.36863(12)
C4 C -0.49037(18) 0.2459(3) -0.39056(13)
H6 H -0.5184 0.1802 -0.4355
H7 H -0.4130 0.2298 -0.3685
H8 H -0.5054 0.3612 -0.4029
C5 C -0.50515(17) 0.3019(3) -0.26349(12)
C6 C -0.34279(19) 0.3785(3) -0.14319(13)
H9 H -0.3585 0.3250 -0.1021
H10 H -0.2642 0.3882 -0.1291
C7 C -0.74014(18) 0.0868(3) -0.39040(12)
C8 C -0.36804(19) 0.6410(3) -0.21983(13)
H11 H -0.4052 0.5868 -0.2669
H12 H -0.2908 0.6381 -0.2098
H13 H -0.3919 0.7544 -0.2224
C9 C -0.56671(17) 0.4213(3) -0.24688(12)
C10 C -0.39404(18) 0.5509(3) -0.15650(12)
C11 C -0.54568(18) 0.1920(2) -0.33385(12)
C12 C -0.72244(17) 0.3711(3) -0.37270(12)
C13 C -0.51929(18) 0.0062(3) -0.31299(12)
H14 H -0.4430 -0.0143 -0.3052
H15 H -0.5311 -0.0172 -0.2661
C14 C -0.2617(2) 0.7634(3) -0.06909(14)
C15 C -0.38764(19) 0.2719(3) -0.21456(13)
H16 H -0.3422 0.2902 -0.2450
H17 H -0.3801 0.1559 -0.1996
C16 C -0.58969(18) -0.1114(3) -0.37409(13)
H18 H -0.5792 -0.0869 -0.4213
H19 H -0.5667 -0.2252 -0.3604
C17 C -0.4691(2) 0.7823(3) -0.10530(15)
H20 H -0.4900 0.7963 -0.0612
H21 H -0.4529 0.8909 -0.1212
C18 C -0.71049(17) -0.0940(3) -0.38435(12)
H22 H -0.7230 -0.1409 -0.3402
C19 C -0.56250(19) 0.6985(3) -0.16949(13)
H23 H -0.6284 0.6918 -0.1570
H24 H -0.5782 0.7592 -0.2163
C20 C -0.3678(2) 0.6677(3) -0.08685(13)
H25 H -0.3637 0.6000 -0.0429
C21 C -0.68168(18) 0.4529(3) -0.29461(13)
C22 C -0.1566(2) 0.6655(4) -0.04303(17)
H26 H -0.1464 0.6119 -0.0855
H27 H -0.1600 0.5830 -0.0072
H28 H -0.0966 0.7392 -0.0198
loop_
_geom_bond_atom_site_label_1
_geom_bond_atom_site_label_2
_geom_bond_site_symmetry_1
_geom_bond_site_symmetry_2
O1 H1 1_555 1_555
O2 C2 1_555 1_555
O3 H2 1_555 1_555
O4 C21 1_555 1_555
C1 H3 1_555 1_555
O5 C14 1_555 1_555
C2 H4 1_555 1_555
H5 C2 1_555 1_555
C3 C7 1_555 1_555
C4 H6 1_555 1_555
H7 C4 1_555 1_555
H8 C4 1_555 1_555
C5 C9 1_555 1_555
C6 H9 1_555 1_555
H10 C6 1_555 1_555
C7 C2 1_555 1_555
C8 H11 1_555 1_555
H12 C8 1_555 1_555
H13 C8 1_555 1_555
C9 C1 1_555 1_555
C10 C1 1_555 1_555
C11 C3 1_555 1_555
C12 O2 1_555 1_555
C13 C11 1_555 1_555
H14 C13 1_555 1_555
H15 C13 1_555 1_555
C14 C20 1_555 1_555
C15 C5 1_555 1_555
H16 C15 1_555 1_555
H17 C15 1_555 1_555
C16 C13 1_555 1_555
H18 C16 1_555 1_555
H19 C16 1_555 1_555
C17 H20 1_555 1_555
H21 C17 1_555 1_555
C18 O1 1_555 1_555
H22 C18 1_555 1_555
C19 C1 1_555 1_555
H23 C19 1_555 1_555
H24 C19 1_555 1_555
C20 C10 1_555 1_555
H25 C20 1_555 1_555
C21 C9 1_555 1_555
C22 C14 1_555 1_555
H26 C22 1_555 1_555
H27 C22 1_555 1_555
H28 C22 1_555 1_555
O3 C12 1_555 1_555
C3 C12 1_555 1_555
C4 C11 1_555 1_555
C5 C11 1_555 1_555
C6 C10 1_555 1_555
C6 C15 1_555 1_555
C7 C18 1_555 1_555
C8 C10 1_555 1_555
C12 C21 1_555 1_555
C16 C18 1_555 1_555
C17 C19 1_555 1_555
C17 C20 1_555 1_555

#END
