
#######################################################################
#
#                 Cambridge Crystallographic Data Centre
#                                CCDC 
#
#######################################################################
#
# If this CIF has been generated from an entry in the Cambridge 
# Structural Database, then it will include bibliographic, chemical, 
# crystal, experimental, refinement or atomic coordinate data resulting 
# from the CCDC's data processing and validation procedures.
#
#######################################################################

data_VEXLAO
_chemical_name_common            'nodulisporiviridin J hemihydrate'
_chemical_formula_moiety         'C20 H20 O4,0.5(H2 O1)'
_chemical_name_systematic        
'3-hydroxy-9a,11b-dimethyl-1,2,3,6b,7,8,9a,11b-octahydrocyclopenta[7,8]phenanthro[10,1-bc]furan-6,9-dione hemihydrate'
_symmetry_cell_setting           monoclinic
_symmetry_space_group_name_H-M   'P 21'
_symmetry_Int_Tables_number      4
_space_group_name_Hall           'P 2yb'
loop_
_symmetry_equiv_pos_site_id
_symmetry_equiv_pos_as_xyz
1 x,y,z
2 -x,1/2+y,-z
_cell_length_a                   10.60490(5)
_cell_length_b                   7.87989(6)
_cell_length_c                   19.68326(9)
_cell_angle_alpha                90
_cell_angle_beta                 98.1476(4)
_cell_angle_gamma                90
_cell_volume                     1628.24
_exptl_crystal_colour            colorless
_exptl_crystal_description       plate
_cell_formula_units_Z            4
loop_
_atom_site_label
_atom_site_type_symbol
_atom_site_fract_x
_atom_site_fract_y
_atom_site_fract_z
O1 O 0.13783(17) 0.9693(3) 0.15999(9)
O2 O -0.09218(16) 0.5131(3) 0.20593(9)
H1 H -0.1315 0.5758 0.2287
O3 O 0.2880(2) 1.0403(3) 0.05050(9)
O4 O 0.46754(19) 0.5973(3) -0.18117(9)
C1 C 0.0325(2) 0.4717(4) 0.04495(12)
H2 H 0.0016 0.5507 0.0093
H3 H -0.0311 0.4554 0.0745
H4 H 0.0507 0.3651 0.0248
C2 C 0.1649(2) 0.8580(4) 0.11039(12)
C3 C 0.2473(2) 0.5842(4) 0.03611(11)
C4 C 0.2449(2) 0.8990(4) 0.05874(12)
C5 C 0.1937(2) 0.6445(4) -0.13402(12)
H5 H 0.1312 0.6372 -0.1033
H6 H 0.1812 0.5534 -0.1666
H7 H 0.1851 0.7511 -0.1578
C6 C 0.3590(2) 0.7682(4) -0.03641(12)
H8 H 0.4468 0.7476 -0.0150
C7 C 0.3291(2) 0.6313(4) -0.09233(11)
C8 C 0.2070(2) 0.4177(4) 0.14545(11)
H9 H 0.2860 0.4620 0.1699
H10 H 0.2256 0.3096 0.1254
C9 C 0.1280(2) 0.6995(4) 0.12389(12)
C10 C 0.1556(2) 0.5424(4) 0.08725(12)
C11 C 0.2765(2) 0.7463(3) 0.01970(12)
C12 C 0.3617(2) 0.9344(4) -0.07735(12)
H11 H 0.4091 1.0222 -0.0502
H12 H 0.2764 0.9750 -0.0934
C13 C 0.0782(2) 0.7060(4) 0.18738(12)
C14 C 0.0413(2) 0.5468(4) 0.22167(12)
H13 H 0.0639 0.5586 0.2715
C15 C 0.0854(2) 0.8709(4) 0.20674(12)
H14 H 0.0585 0.9126 0.2465
C16 C 0.4306(3) 0.8779(4) -0.13783(13)
H15 H 0.3917 0.9304 -0.1802
H16 H 0.5198 0.9101 -0.1295
C17 C 0.4175(2) 0.6880(4) -0.14228(12)
C18 C 0.3414(2) 0.4595(4) -0.05983(12)
H17 H 0.3783 0.3696 -0.0805
C19 C 0.2971(2) 0.4400(4) 0.00041(12)
H18 H 0.2979 0.3326 0.0200
C20 C 0.1113(2) 0.3889(4) 0.19698(12)
H19 H 0.1567 0.3338 0.2373
H20 H 0.0470 0.3099 0.1763
O5 O 0.82525(18) 0.5926(3) 0.52773(9)
O6 O 0.69669(17) 0.6026(3) 0.64906(9)
O7 O 0.9386(2) -0.0021(3) 0.33243(10)
O8 O 0.45064(18) 0.2754(3) 0.76641(10)
H21 H 0.4581 0.3663 0.7869
C21 C 0.7708(2) 0.4670(4) 0.54674(12)
C22 C 0.6965(2) 0.4711(4) 0.60359(12)
C23 C 0.4951(2) 0.1492(4) 0.54644(12)
H22 H 0.4866 0.0376 0.5267
H23 H 0.4883 0.2323 0.5104
H24 H 0.4289 0.1675 0.5742
C24 C 0.7802(2) 0.2953(4) 0.51748(12)
C25 C 0.6418(2) 0.5377(4) 0.70292(12)
H25 H 0.6311 0.5989 0.7421
C26 C 0.6269(2) 0.1655(3) 0.59159(12)
C27 C 0.6848(3) 0.1722(4) 0.36862(13)
H26 H 0.6222 0.2002 0.3976
H27 H 0.6551 0.0780 0.3398
H28 H 0.6985 0.2683 0.3406
C28 C 0.8669(2) 0.2642(4) 0.46367(12)
H29 H 0.9464 0.2189 0.4884
C29 C 0.6053(2) 0.3743(4) 0.69195(12)
C30 C 0.9652(3) 0.2970(4) 0.36231(13)
H30 H 0.9433 0.3452 0.3168
H31 H 1.0573 0.2941 0.3735
C31 C 0.7485(2) -0.0132(4) 0.51423(13)
H32 H 0.7329 -0.1090 0.5394
C32 C 0.9061(2) 0.4036(4) 0.41598(12)
H33 H 0.9681 0.4805 0.4404
H34 H 0.8330 0.4679 0.3948
C33 C 0.9107(3) 0.1207(4) 0.36490(12)
C34 C 0.6391(2) 0.0317(4) 0.64941(12)
H35 H 0.7255 0.0319 0.6734
H36 H 0.6217 -0.0800 0.6296
C35 C 0.7925(2) -0.0330(4) 0.45378(13)
H37 H 0.8100 -0.1400 0.4375
C36 C 0.8120(2) 0.1237(4) 0.41388(12)
C37 C 0.5453(2) 0.0690(4) 0.70090(12)
H38 H 0.4592 0.0669 0.6764
H39 H 0.5520 -0.0215 0.7346
C38 C 0.6388(2) 0.3332(3) 0.62616(11)
C39 C 0.7245(2) 0.1544(4) 0.54142(12)
C40 C 0.5659(2) 0.2389(4) 0.73881(12)
H40 H 0.6348 0.2244 0.7772
O9 O -0.20736(19) 0.7034(3) 0.29508(10)
H41 H -0.2806 0.7287 0.2741
H42 H -0.1687 0.7934 0.3099
loop_
_geom_bond_atom_site_label_1
_geom_bond_atom_site_label_2
_geom_bond_site_symmetry_1
_geom_bond_site_symmetry_2
O1 C2 1_555 1_555
O2 H1 1_555 1_555
O3 C4 1_555 1_555
O4 C17 1_555 1_555
C1 H2 1_555 1_555
H3 C1 1_555 1_555
H4 C1 1_555 1_555
C2 C4 1_555 1_555
C3 C10 1_555 1_555
C4 C11 1_555 1_555
C5 H5 1_555 1_555
H6 C5 1_555 1_555
H7 C5 1_555 1_555
C6 H8 1_555 1_555
C7 C5 1_555 1_555
C8 H9 1_555 1_555
H10 C8 1_555 1_555
C9 C2 1_555 1_555
C10 C1 1_555 1_555
C11 C3 1_555 1_555
C12 C6 1_555 1_555
H11 C12 1_555 1_555
H12 C12 1_555 1_555
C13 C9 1_555 1_555
C14 O2 1_555 1_555
H13 C14 1_555 1_555
C15 O1 1_555 1_555
H14 C15 1_555 1_555
C16 C12 1_555 1_555
H15 C16 1_555 1_555
H16 C16 1_555 1_555
C17 C7 1_555 1_555
C18 C7 1_555 1_555
H17 C18 1_555 1_555
C19 C3 1_555 1_555
H18 C19 1_555 1_555
C20 C8 1_555 1_555
H19 C20 1_555 1_555
H20 C20 1_555 1_555
O5 C21 1_555 1_555
O6 C22 1_555 1_555
O7 C33 1_555 1_555
O8 H21 1_555 1_555
C21 C22 1_555 1_555
C22 C38 1_555 1_555
C23 H22 1_555 1_555
H23 C23 1_555 1_555
H24 C23 1_555 1_555
C24 C21 1_555 1_555
C25 O6 1_555 1_555
H25 C25 1_555 1_555
C26 C23 1_555 1_555
C27 H26 1_555 1_555
H27 C27 1_555 1_555
H28 C27 1_555 1_555
C28 C24 1_555 1_555
H29 C28 1_555 1_555
C29 C25 1_555 1_555
C30 H30 1_555 1_555
H31 C30 1_555 1_555
C31 H32 1_555 1_555
C32 C28 1_555 1_555
H33 C32 1_555 1_555
H34 C32 1_555 1_555
C33 C30 1_555 1_555
C34 C26 1_555 1_555
H35 C34 1_555 1_555
H36 C34 1_555 1_555
C35 C31 1_555 1_555
H37 C35 1_555 1_555
C36 C27 1_555 1_555
C37 C34 1_555 1_555
H38 C37 1_555 1_555
H39 C37 1_555 1_555
C38 C26 1_555 1_555
C39 C24 1_555 1_555
C40 O8 1_555 1_555
H40 C40 1_555 1_555
O9 H41 1_555 1_555
H42 O9 1_555 1_555
C6 C7 1_555 1_555
C6 C11 1_555 1_555
C8 C10 1_555 1_555
C9 C10 1_555 1_555
C13 C14 1_555 1_555
C13 C15 1_555 1_555
C14 C20 1_555 1_555
C16 C17 1_555 1_555
C18 C19 1_555 1_555
C26 C39 1_555 1_555
C28 C36 1_555 1_555
C29 C38 1_555 1_555
C29 C40 1_555 1_555
C30 C32 1_555 1_555
C31 C39 1_555 1_555
C33 C36 1_555 1_555
C35 C36 1_555 1_555
C37 C40 1_555 1_555

#END
