
#######################################################################
#
#                 Cambridge Crystallographic Data Centre
#                                CCDC 
#
#######################################################################
#
# If this CIF has been generated from an entry in the Cambridge 
# Structural Database, then it will include bibliographic, chemical, 
# crystal, experimental, refinement or atomic coordinate data resulting 
# from the CCDC's data processing and validation procedures.
#
#######################################################################

data_VEXNAQ
_chemical_formula_moiety         'C12 H13 N1 O3'
_chemical_name_systematic        
1-(2-hydroxyphenyl)-3,3-dimethylpyrrolidine-2,5-dione
_symmetry_cell_setting           orthorhombic
_symmetry_space_group_name_H-M   'P 21 21 21'
_symmetry_Int_Tables_number      19
_space_group_name_Hall           'P 2ac 2ab'
loop_
_symmetry_equiv_pos_site_id
_symmetry_equiv_pos_as_xyz
1 x,y,z
2 1/2-x,-y,1/2+z
3 1/2+x,1/2-y,-z
4 -x,1/2+y,1/2-z
_cell_length_a                   6.7648(14)
_cell_length_b                   15.467(3)
_cell_length_c                   32.578(6)
_cell_angle_alpha                90
_cell_angle_beta                 90
_cell_angle_gamma                90
_cell_volume                     3408.67
_exptl_crystal_colour            colorless
_exptl_crystal_description       rod
_cell_formula_units_Z            12
loop_
_atom_site_label
_atom_site_type_symbol
_atom_site_fract_x
_atom_site_fract_y
_atom_site_fract_z
O1 O -0.0111(5) 0.5730(2) -0.40097(10)
O2 O -0.4302(5) 0.7200(3) -0.31774(9)
N1 N -0.2497(5) 0.6503(2) -0.36727(10)
C1 C -0.2684(7) 0.7589(3) -0.42232(11)
C2 C -0.3781(8) 0.7973(3) -0.45365(12)
H1 H -0.3267 0.8447 -0.4676
C3 C -0.5625(8) 0.7656(3) -0.46418(13)
H2 H -0.6343 0.7919 -0.4851
C4 C -0.6409(8) 0.6948(3) -0.44381(13)
H3 H -0.7643 0.6732 -0.4511
C5 C -0.5335(7) 0.6567(3) -0.41260(12)
H4 H -0.5852 0.6091 -0.3988
C6 C -0.3483(6) 0.6888(3) -0.40156(11)
C7 C -0.0943(6) 0.5916(3) -0.36957(13)
C8 C -0.0596(7) 0.5539(3) -0.32655(14)
C9 C -0.1779(8) 0.6152(3) -0.29878(14)
H5 H -0.2594 0.5825 -0.2798
H6 H -0.0895 0.6519 -0.2831
C10 C -0.3036(7) 0.6682(3) -0.32678(12)
C11 C -0.1586(11) 0.4641(3) -0.3269(2)
H7 H -0.2965 0.4704 -0.3332
H8 H -0.1442 0.4377 -0.3004
H9 H -0.0968 0.4285 -0.3473
C12 C 0.1573(8) 0.5488(4) -0.31570(18)
H10 H 0.2238 0.5118 -0.3349
H11 H 0.1717 0.5258 -0.2885
H12 H 0.2143 0.6056 -0.3168
O3 O -0.0962(8) 0.7924(4) -0.41573(16)
H13 H -0.0626 0.7827 -0.3920
O5 O -0.4856(5) 0.4150(2) -0.24282(9)
O6 O -0.0687(5) 0.2700(2) -0.15796(9)
N2 N -0.2494(5) 0.3370(2) -0.20811(9)
C13 C -0.2528(7) 0.2345(3) -0.26590(12)
C14 C -0.1547(9) 0.1987(3) -0.29956(13)
H16 H -0.2192 0.1582 -0.3159
C15 C 0.0357(9) 0.2225(3) -0.30887(13)
H17 H 0.0992 0.1975 -0.3312
C16 C 0.1339(7) 0.2835(3) -0.28529(13)
H18 H 0.2629 0.2996 -0.2916
C17 C 0.0356(7) 0.3201(3) -0.25204(12)
H19 H 0.0997 0.3612 -0.2360
C18 C -0.1554(7) 0.2962(3) -0.24251(11)
C19 C -0.4010(6) 0.3978(3) -0.21110(12)
C20 C -0.4332(7) 0.4382(3) -0.16882(13)
C21 C -0.3182(7) 0.3782(3) -0.14019(13)
H20 H -0.2344 0.4114 -0.1219
H21 H -0.4082 0.3435 -0.1238
C22 C -0.1957(6) 0.3217(3) -0.16758(12)
C23 C -0.3370(9) 0.5284(3) -0.17104(17)
H22 H -0.1977 0.5223 -0.1759
H23 H -0.3578 0.5582 -0.1456
H24 H -0.3956 0.5607 -0.1930
C24 C -0.6520(8) 0.4459(4) -0.15837(17)
H25 H -0.7161 0.4820 -0.1783
H26 H -0.6664 0.4710 -0.1316
H27 H -0.7113 0.3895 -0.1587
O7 O -0.4319(8) 0.2068(4) -0.25952(15)
H28 H -0.4629 0.2159 -0.2356
O9 O 0.6402(6) 0.1387(3) -0.40681(12)
O10 O 0.1789(6) 0.2729(3) -0.48550(18)
N3 N 0.3837(6) 0.1878(2) -0.44566(12)
C25 C 0.1146(7) 0.0856(3) -0.43810(12)
C26 C 0.0252(9) 0.0088(3) -0.44961(15)
H31 H -0.0930 -0.0077 -0.4373
C27 C 0.1103(9) -0.0439(4) -0.47930(18)
H32 H 0.0465 -0.0945 -0.4872
C28 C 0.2878(10) -0.0221(3) -0.49719(18)
H33 H 0.3440 -0.0579 -0.5170
C29 C 0.3819(8) 0.0536(3) -0.48541(15)
H34 H 0.5032 0.0684 -0.4969
C30 C 0.2950(7) 0.1070(3) -0.45657(13)
C31 C 0.3133(8) 0.2666(3) -0.4618(2)
C32 C 0.5809(11) 0.2951(4) -0.41552(16)
C33 C 0.5475(7) 0.1979(4) -0.42157(13)
O11 O 0.0482(6) 0.1386(3) -0.40912(11)
H35 H -0.0728 0.1361 -0.4082
C34 C 0.4415(12) 0.3407(5) -0.4520(3)
H36 H 0.3667 0.3895 -0.4416
H37 H 0.5197 0.3587 -0.4754
C35 C 0.7822(11) 0.3264(5) -0.4172(2)
H38 H 0.8399 0.3111 -0.4431
H39 H 0.8575 0.3008 -0.3954
H40 H 0.7828 0.3882 -0.4142
C36 C 0.4719(15) 0.3226(6) -0.3739(2)
H41 H 0.4718 0.3844 -0.3715
H42 H 0.5403 0.2979 -0.3509
H43 H 0.3381 0.3018 -0.3744
H14? H -0.1439 0.7799 -0.4155
O4? O -0.5856(11) 0.5823(5) -0.3942(2)
H15? H -0.6945 0.5671 -0.4026
H29? H -0.3806 0.2173 -0.2593
O8? O 0.1033(13) 0.3874(6) -0.2322(3)
H30? H 0.2210 0.3938 -0.2375
H44? H 0.0567 0.1218 -0.4187
H45? H 0.6055 0.3080 -0.3868
H46? H 0.6933 0.3146 -0.4315
C37? C 0.486(3) 0.4111(9) -0.4494(5)
H47? H 0.5832 0.3993 -0.4701
H48? H 0.5368 0.4533 -0.4305
H49? H 0.3682 0.4331 -0.4621
C38? C 0.314(3) 0.3438(15) -0.3860(6)
H50? H 0.1928 0.3726 -0.3926
H51? H 0.3895 0.3790 -0.3673
H52? H 0.2861 0.2892 -0.3733
O12? O 0.557(2) 0.0677(16) -0.4990(8)
H53? H 0.5508 0.0966 -0.5201
C39? C 0.4378(19) 0.3287(9) -0.4265(5)
loop_
_geom_bond_atom_site_label_1
_geom_bond_atom_site_label_2
_geom_bond_site_symmetry_1
_geom_bond_site_symmetry_2
O1 C7 1_555 1_555
O2 C10 1_555 1_555
N1 C6 1_555 1_555
C1 C2 1_555 1_555
C2 H1 1_555 1_555
C3 C2 1_555 1_555
H2 C3 1_555 1_555
C4 C3 1_555 1_555
H3 C4 1_555 1_555
C5 C4 1_555 1_555
H4 C5 1_555 1_555
C6 C1 1_555 1_555
C7 N1 1_555 1_555
C8 C7 1_555 1_555
C9 C8 1_555 1_555
H5 C9 1_555 1_555
H6 C9 1_555 1_555
C10 N1 1_555 1_555
C11 C8 1_555 1_555
H7 C11 1_555 1_555
H8 C11 1_555 1_555
H9 C11 1_555 1_555
C12 C8 1_555 1_555
H10 C12 1_555 1_555
H11 C12 1_555 1_555
H12 C12 1_555 1_555
O3 C1 1_555 1_555
H13 O3 1_555 1_555
O5 C19 1_555 1_555
O6 C22 1_555 1_555
N2 C18 1_555 1_555
C13 C14 1_555 1_555
C14 H16 1_555 1_555
C15 C14 1_555 1_555
H17 C15 1_555 1_555
C16 C15 1_555 1_555
H18 C16 1_555 1_555
C17 C16 1_555 1_555
H19 C17 1_555 1_555
C18 C13 1_555 1_555
C19 N2 1_555 1_555
C20 C19 1_555 1_555
C21 C20 1_555 1_555
H20 C21 1_555 1_555
H21 C21 1_555 1_555
C22 N2 1_555 1_555
C23 C20 1_555 1_555
H22 C23 1_555 1_555
H23 C23 1_555 1_555
H24 C23 1_555 1_555
C24 C20 1_555 1_555
H25 C24 1_555 1_555
H26 C24 1_555 1_555
H27 C24 1_555 1_555
O7 C13 1_555 1_555
H28 O7 1_555 1_555
O9 C33 1_555 1_555
O10 C31 1_555 1_555
N3 C30 1_555 1_555
C25 C26 1_555 1_555
C26 H31 1_555 1_555
C27 C26 1_555 1_555
H32 C27 1_555 1_555
C28 C27 1_555 1_555
H33 C28 1_555 1_555
C29 C28 1_555 1_555
H34 C29 1_555 1_555
C30 C25 1_555 1_555
C31 N3 1_555 1_555
C32 C33 1_555 1_555
C33 N3 1_555 1_555
O11 C25 1_555 1_555
H35 O11 1_555 1_555
C34 C31 1_555 1_555
H36 C34 1_555 1_555
H37 C34 1_555 1_555
C35 C32 1_555 1_555
H38 C35 1_555 1_555
H39 C35 1_555 1_555
H40 C35 1_555 1_555
C36 C32 1_555 1_555
H41 C36 1_555 1_555
H42 C36 1_555 1_555
H43 C36 1_555 1_555
C5 C6 1_555 1_555
C9 C10 1_555 1_555
C17 C18 1_555 1_555
C21 C22 1_555 1_555
C29 C30 1_555 1_555
C32 C34 1_555 1_555

#END
