
#######################################################################
#
#                 Cambridge Crystallographic Data Centre
#                                CCDC 
#
#######################################################################
#
# If this CIF has been generated from an entry in the Cambridge 
# Structural Database, then it will include bibliographic, chemical, 
# crystal, experimental, refinement or atomic coordinate data resulting 
# from the CCDC's data processing and validation procedures.
#
#######################################################################

data_VEXPUL
_chemical_formula_moiety         '2(Cs1 1+),C50 H60 N20 O10,2(Cl1 1-),14(H2 O1)'
_chemical_name_systematic        
'bis(Cesium) pentacyclohexanocucurbit[5]uril dichloride tetradecahydrate'
_symmetry_cell_setting           triclinic
_symmetry_space_group_name_H-M   'P -1'
_symmetry_Int_Tables_number      2
_space_group_name_Hall           '-P 1'
loop_
_symmetry_equiv_pos_site_id
_symmetry_equiv_pos_as_xyz
1 x,y,z
2 -x,-y,-z
_cell_length_a                   13.6274(10)
_cell_length_b                   14.2636(11)
_cell_length_c                   18.9183(14)
_cell_angle_alpha                97.498(3)
_cell_angle_beta                 108.728(2)
_cell_angle_gamma                105.323(3)
_cell_volume                     3264.08
_exptl_crystal_colour            colorless
_exptl_crystal_description       block
_cell_formula_units_Z            2
loop_
_atom_site_label
_atom_site_type_symbol
_atom_site_fract_x
_atom_site_fract_y
_atom_site_fract_z
Cs1 Cs 0.66123(2) 0.505612(18) 0.276955(14)
Cs2 Cs 0.292889(19) 0.948132(17) 0.222348(13)
C1 C 0.6542(3) 0.7171(3) 0.44084(19)
C2 C 0.6692(3) 0.8818(3) 0.49354(19)
C3 C 0.5687(3) 0.8059(2) 0.50247(19)
C4 C 0.5064(3) 0.9133(3) 0.42740(19)
C5 C 0.5017(3) 0.6119(3) 0.4663(2)
H1 H 0.5430 0.5650 0.4671
H2 H 0.4863 0.6175 0.5135
C6 C 0.3636(3) 0.7865(3) 0.4488(2)
H3 H 0.3240 0.8345 0.4385
H4 H 0.3615 0.7693 0.4969
C7 C 0.3851(3) 0.4976(3) 0.3409(2)
C8 C 0.2987(3) 0.5953(3) 0.39456(19)
C9 C 0.2173(3) 0.5297(2) 0.31248(19)
C10 C 0.2428(3) 0.6998(3) 0.3156(2)
C11 C 0.2448(3) 0.4079(2) 0.21290(19)
H5 H 0.2865 0.3611 0.2167
H6 H 0.1674 0.3687 0.1978
C12 C 0.1129(3) 0.5839(3) 0.19414(19)
H7 H 0.0804 0.6376 0.1919
H8 H 0.0548 0.5215 0.1867
C13 C 0.3484(3) 0.4711(2) 0.1346(2)
C14 C 0.1709(3) 0.4851(2) 0.09902(19)
C15 C 0.2248(3) 0.5219(2) 0.04080(18)
C16 C 0.1858(3) 0.6548(3) 0.10269(19)
C17 C 0.4124(3) 0.5275(2) 0.0352(2)
H9 H 0.3727 0.5080 -0.0205
H10 H 0.4556 0.4828 0.0486
C18 C 0.2650(3) 0.6930(3) 0.0061(2)
H11 H 0.2270 0.7428 0.0033
H12 H 0.2447 0.6552 -0.0464
C19 C 0.5928(3) 0.6553(3) 0.10678(19)
C20 C 0.4642(3) 0.7090(2) 0.01931(19)
C21 C 0.5739(3) 0.7988(3) 0.06264(19)
C22 C 0.4272(3) 0.8408(3) 0.08265(19)
C23 C 0.7563(3) 0.8053(3) 0.1643(2)
H13 H 0.7906 0.8540 0.1401
H14 H 0.7951 0.7562 0.1699
C24 C 0.6077(3) 0.9691(2) 0.1494(2)
H15 H 0.6628 0.9963 0.1280
H16 H 0.5630 1.0131 0.1472
C25 C 0.7804(3) 0.8089(3) 0.2988(2)
C26 C 0.7705(3) 0.9588(3) 0.2614(2)
C27 C 0.7895(3) 0.9726(3) 0.3490(2)
C28 C 0.6255(3) 1.0011(2) 0.2840(2)
C29 C 0.8077(3) 0.8474(3) 0.4353(2)
H17 H 0.8625 0.9057 0.4749
H18 H 0.8396 0.7934 0.4348
C30 C 0.6747(3) 1.0255(3) 0.4229(2)
H19 H 0.7445 1.0616 0.4655
H20 H 0.6311 1.0706 0.4155
C31 C 0.7540(3) 0.9471(3) 0.5709(2)
H21 H 0.8179 0.9885 0.5632
H22 H 0.7224 0.9918 0.5932
C32 C 0.7901(3) 0.8834(3) 0.6263(2)
H23 H 0.8368 0.9271 0.6772
H24 H 0.8340 0.8483 0.6087
C33 C 0.6929(3) 0.8061(3) 0.6332(2)
H25 H 0.6945 0.7388 0.6161
H26 H 0.7012 0.8157 0.6873
C34 C 0.5818(3) 0.8135(3) 0.58596(19)
H27 H 0.5229 0.7596 0.5894
H28 H 0.5759 0.8775 0.6070
C35 C 0.2580(3) 0.5676(3) 0.4577(2)
H29 H 0.3165 0.6011 0.5080
H30 H 0.1956 0.5909 0.4548
C36 C 0.2235(4) 0.4554(3) 0.4497(3)
H31 H 0.1964 0.4400 0.4904
H32 H 0.2879 0.4338 0.4573
C37 C 0.1348(3) 0.3957(3) 0.3720(2)
H33 H 0.1578 0.3426 0.3507
H34 H 0.0670 0.3638 0.3796
C38 C 0.1119(3) 0.4597(3) 0.3150(2)
H35 H 0.0697 0.5000 0.3288
H36 H 0.0671 0.4162 0.2638
C39 C 0.0662(3) 0.3964(3) 0.0592(2)
H37 H 0.0101 0.4180 0.0248
H38 H 0.0392 0.3721 0.0978
C40 C 0.0849(3) 0.3112(3) 0.0129(2)
H39 H 0.0143 0.2586 -0.0160
H40 H 0.1318 0.2824 0.0483
C41 C 0.1384(3) 0.3462(3) -0.0430(2)
H41 H 0.0908 0.3073 -0.0952
H42 H 0.2081 0.3326 -0.0306
C42 C 0.1600(3) 0.4579(3) -0.0409(2)
H43 H 0.2012 0.4771 -0.0737
H44 H 0.0900 0.4701 -0.0614
C43 C 0.4380(3) 0.6827(3) -0.0667(2)
H45 H 0.3668 0.6298 -0.0921
H46 H 0.4937 0.6571 -0.0765
C44 C 0.4351(3) 0.7743(3) -0.1007(2)
H47 H 0.3704 0.7916 -0.1000
H48 H 0.4282 0.7574 -0.1544
C45 C 0.5383(3) 0.8655(3) -0.0563(2)
H49 H 0.5171 0.9192 -0.0339
H50 H 0.5714 0.8897 -0.0923
C46 C 0.6241(3) 0.8418(3) 0.0081(2)
H51 H 0.6519 0.7937 -0.0143
H52 H 0.6860 0.9031 0.0366
C47 C 0.8598(3) 1.0368(3) 0.2480(2)
H53 H 0.9286 1.0218 0.2657
H54 H 0.8388 1.0342 0.1930
C48 C 0.8766(4) 1.1411(3) 0.2911(2)
H55 H 0.8082 1.1564 0.2719
H56 H 0.9329 1.1899 0.2808
C49 C 0.9116(4) 1.1516(3) 0.3785(2)
H57 H 0.9882 1.1947 0.4039
H58 H 0.8667 1.1840 0.3973
C50 C 0.8996(3) 1.0515(3) 0.3998(2)
H59 H 0.9064 1.0599 0.4536
H60 H 0.9591 1.0281 0.3949
N1 N 0.7125(2) 0.8161(2) 0.45573(17)
N2 N 0.5695(2) 0.7092(2) 0.46602(16)
N3 N 0.6173(2) 0.9395(2) 0.44424(17)
N4 N 0.4765(2) 0.8339(2) 0.45868(16)
N5 N 0.3987(2) 0.5708(2) 0.40119(17)
N6 N 0.2815(2) 0.4745(2) 0.28797(16)
N7 N 0.3068(2) 0.6961(2) 0.38667(16)
N8 N 0.1965(2) 0.6048(2) 0.26935(16)
N9 N 0.2571(2) 0.4590(2) 0.15348(16)
N10 N 0.1522(2) 0.5745(2) 0.13160(16)
N11 N 0.3334(2) 0.5129(2) 0.07215(16)
N12 N 0.2264(2) 0.6253(2) 0.04876(16)
N13 N 0.4868(2) 0.6292(2) 0.05573(16)
N14 N 0.6437(2) 0.7545(2) 0.11386(16)
N15 N 0.3826(2) 0.7454(2) 0.03773(16)
N16 N 0.5379(2) 0.8704(2) 0.10208(17)
N17 N 0.7708(2) 0.8568(2) 0.24015(17)
N18 N 0.7845(2) 0.8729(2) 0.36165(17)
N19 N 0.6631(2) 0.9702(2) 0.22889(16)
N20 N 0.6967(2) 1.0014(2) 0.35374(16)
O1 O 0.6757(2) 0.6469(2) 0.41220(16)
O2 O 0.4535(2) 0.4582(2) 0.33717(16)
O3 O 0.4277(2) 0.4477(2) 0.16665(15)
O4 O 0.6351(2) 0.59847(18) 0.13777(14)
O5 O 0.7862(2) 0.72517(19) 0.29690(15)
O6 O 0.4454(2) 0.95486(19) 0.39271(15)
O7 O 0.2277(2) 0.77512(18) 0.29660(14)
O8 O 0.1770(2) 0.73695(18) 0.11898(15)
O9 O 0.3752(2) 0.89237(18) 0.09949(15)
O10 O 0.5446(2) 1.0276(2) 0.27213(15)
Cl1 Cl 0.26712(14) 1.16095(13) 0.14595(10)
O11 O 0.4798(4) 0.2899(3) 0.2618(3)
Cl2 Cl 0.83343(13) 0.40269(13) 0.20471(10)
loop_
_geom_bond_atom_site_label_1
_geom_bond_atom_site_label_2
_geom_bond_site_symmetry_1
_geom_bond_site_symmetry_2
C1 N1 1_555 1_555
C2 C3 1_555 1_555
C3 C34 1_555 1_555
C4 N3 1_555 1_555
C5 H1 1_555 1_555
H2 C5 1_555 1_555
C6 H3 1_555 1_555
H4 C6 1_555 1_555
C7 N5 1_555 1_555
C8 C9 1_555 1_555
C9 C38 1_555 1_555
C10 N7 1_555 1_555
C11 H5 1_555 1_555
H6 C11 1_555 1_555
C12 H7 1_555 1_555
H8 C12 1_555 1_555
C13 N9 1_555 1_555
C14 C15 1_555 1_555
C15 C42 1_555 1_555
C16 N10 1_555 1_555
C17 H9 1_555 1_555
H10 C17 1_555 1_555
C18 H11 1_555 1_555
H12 C18 1_555 1_555
C19 N13 1_555 1_555
C20 C21 1_555 1_555
C21 C46 1_555 1_555
C22 N15 1_555 1_555
C23 H13 1_555 1_555
H14 C23 1_555 1_555
C24 H15 1_555 1_555
H16 C24 1_555 1_555
C25 N17 1_555 1_555
C26 C27 1_555 1_555
C27 C50 1_555 1_555
C28 N19 1_555 1_555
C29 H17 1_555 1_555
H18 C29 1_555 1_555
C30 H19 1_555 1_555
H20 C30 1_555 1_555
C31 C2 1_555 1_555
H21 C31 1_555 1_555
H22 C31 1_555 1_555
C32 C31 1_555 1_555
H23 C32 1_555 1_555
H24 C32 1_555 1_555
C33 C32 1_555 1_555
H25 C33 1_555 1_555
H26 C33 1_555 1_555
C34 C33 1_555 1_555
H27 C34 1_555 1_555
H28 C34 1_555 1_555
C35 C8 1_555 1_555
H29 C35 1_555 1_555
H30 C35 1_555 1_555
C36 C35 1_555 1_555
H31 C36 1_555 1_555
H32 C36 1_555 1_555
C37 C36 1_555 1_555
H33 C37 1_555 1_555
H34 C37 1_555 1_555
C38 C37 1_555 1_555
H35 C38 1_555 1_555
H36 C38 1_555 1_555
C39 C14 1_555 1_555
H37 C39 1_555 1_555
H38 C39 1_555 1_555
C40 C39 1_555 1_555
H39 C40 1_555 1_555
H40 C40 1_555 1_555
C41 C40 1_555 1_555
H41 C41 1_555 1_555
H42 C41 1_555 1_555
C42 C41 1_555 1_555
H43 C42 1_555 1_555
H44 C42 1_555 1_555
C43 C20 1_555 1_555
H45 C43 1_555 1_555
H46 C43 1_555 1_555
C44 C43 1_555 1_555
H47 C44 1_555 1_555
H48 C44 1_555 1_555
C45 C44 1_555 1_555
H49 C45 1_555 1_555
H50 C45 1_555 1_555
C46 C45 1_555 1_555
H51 C46 1_555 1_555
H52 C46 1_555 1_555
C47 C26 1_555 1_555
H53 C47 1_555 1_555
H54 C47 1_555 1_555
C48 C47 1_555 1_555
H55 C48 1_555 1_555
H56 C48 1_555 1_555
C49 C48 1_555 1_555
H57 C49 1_555 1_555
H58 C49 1_555 1_555
C50 C49 1_555 1_555
H59 C50 1_555 1_555
H60 C50 1_555 1_555
N1 C2 1_555 1_555
N2 C1 1_555 1_555
N3 C2 1_555 1_555
N4 C3 1_555 1_555
N5 C5 1_555 1_555
N6 C7 1_555 1_555
N7 C6 1_555 1_555
N8 C9 1_555 1_555
N9 C11 1_555 1_555
N10 C12 1_555 1_555
N11 C13 1_555 1_555
N12 C15 1_555 1_555
N13 C17 1_555 1_555
N14 C19 1_555 1_555
N15 C18 1_555 1_555
N16 C21 1_555 1_555
N17 C23 1_555 1_555
N18 C25 1_555 1_555
N19 C24 1_555 1_555
N20 C27 1_555 1_555
O1 C1 1_555 1_555
O2 C7 1_555 1_555
O3 C13 1_555 1_555
O4 C19 1_555 1_555
O5 C25 1_555 1_555
O6 C4 1_555 1_555
O7 C10 1_555 1_555
O8 C16 1_555 1_555
O9 C22 1_555 1_555
O10 C28 1_555 1_555
C3 N2 1_555 1_555
C4 N4 1_555 1_555
C5 N2 1_555 1_555
C6 N4 1_555 1_555
C8 N5 1_555 1_555
C8 N7 1_555 1_555
C9 N6 1_555 1_555
C10 N8 1_555 1_555
C11 N6 1_555 1_555
C12 N8 1_555 1_555
C14 N9 1_555 1_555
C14 N10 1_555 1_555
C15 N11 1_555 1_555
C16 N12 1_555 1_555
C17 N11 1_555 1_555
C18 N12 1_555 1_555
C20 N13 1_555 1_555
C20 N15 1_555 1_555
C21 N14 1_555 1_555
C22 N16 1_555 1_555
C23 N14 1_555 1_555
C24 N16 1_555 1_555
C26 N17 1_555 1_555
C26 N19 1_555 1_555
C27 N18 1_555 1_555
C28 N20 1_555 1_555
C29 N1 1_555 1_555
C29 N18 1_555 1_555
C30 N3 1_555 1_555
C30 N20 1_555 1_555

#END
