
#######################################################################
#
#                 Cambridge Crystallographic Data Centre
#                                CCDC 
#
#######################################################################
#
# If this CIF has been generated from an entry in the Cambridge 
# Structural Database, then it will include bibliographic, chemical, 
# crystal, experimental, refinement or atomic coordinate data resulting 
# from the CCDC's data processing and validation procedures.
#
#######################################################################

data_VEXQOG
_chemical_formula_moiety         'C50 H64 Cl1 K2 N20 O12 1+,N1 O3 1-,9(H2 O1)'
_chemical_name_systematic        
'(\m~2~-Chloro)-(\m~2~-pentacyclohexanocucurbit[5]uril)-diaqua-di-potassium nitrate nonahydrate'
_symmetry_cell_setting           triclinic
_symmetry_space_group_name_H-M   'P -1'
_symmetry_Int_Tables_number      2
_space_group_name_Hall           '-P 1'
loop_
_symmetry_equiv_pos_site_id
_symmetry_equiv_pos_as_xyz
1 x,y,z
2 -x,-y,-z
_cell_length_a                   13.981(3)
_cell_length_b                   15.177(3)
_cell_length_c                   16.424(3)
_cell_angle_alpha                93.49(3)
_cell_angle_beta                 114.92(3)
_cell_angle_gamma                103.02(3)
_cell_volume                     3031.04
_exptl_crystal_colour            colorless
_exptl_crystal_description       prism
_cell_formula_units_Z            2
loop_
_atom_site_label
_atom_site_type_symbol
_atom_site_fract_x
_atom_site_fract_y
_atom_site_fract_z
Cl1 Cl 0.48431(8) 0.22815(7) 0.25974(7)
O1 O 0.1397(2) 0.38514(18) 0.0615(2)
O2 O 0.8161(2) 0.0367(2) 0.35988(18)
K1 K 0.63359(5) 0.09587(4) 0.31276(4)
K2 K 0.34311(6) 0.35693(5) 0.21835(4)
C1 C 0.3640(2) -0.01939(16) 0.16960(17)
C2 C 0.1903(2) -0.00372(17) 0.13950(16)
C3 C 0.2128(2) 0.01169(16) 0.05503(16)
C4 C 0.1810(2) 0.14173(17) 0.10815(16)
C5 C 0.3815(2) 0.00670(17) 0.03092(17)
H1 H 0.4312 -0.0323 0.0516
H2 H 0.3280 -0.0199 -0.0323
C6 C 0.2158(2) 0.15039(18) -0.02546(16)
H3 H 0.1728 0.1951 -0.0369
H4 H 0.1848 0.1057 -0.0819
C7 C 0.5531(2) 0.12991(18) 0.09116(16)
C8 C 0.4025(2) 0.15993(17) -0.02515(17)
C9 C 0.5063(2) 0.24394(17) 0.00604(16)
C10 C 0.3705(2) 0.28885(17) 0.03131(16)
C11 C 0.7050(2) 0.26660(18) 0.12595(17)
H5 H 0.7493 0.2231 0.1444
H6 H 0.7258 0.3003 0.0842
C12 C 0.5385(2) 0.41015(17) 0.07233(16)
H7 H 0.4887 0.4492 0.0606
H8 H 0.5800 0.4260 0.0373
C13 C 0.7703(2) 0.30765(18) 0.28937(17)
C14 C 0.7256(2) 0.42370(18) 0.20665(17)
C15 C 0.7688(2) 0.46006(17) 0.31047(17)
C16 C 0.5895(2) 0.46999(17) 0.23045(17)
C17 C 0.8361(2) 0.37800(19) 0.44713(17)
H9 H 0.8874 0.4381 0.4806
H10 H 0.8782 0.3327 0.4593
C18 C 0.6750(2) 0.52506(17) 0.39498(17)
H11 H 0.7485 0.5653 0.4350
H12 H 0.6244 0.5635 0.3774
C19 C 0.7196(2) 0.26951(18) 0.49475(16)
C20 C 0.6352(2) 0.35855(17) 0.54706(16)
C21 C 0.5373(2) 0.42977(18) 0.43119(17)
C22 C 0.5924(2) 0.18733(18) 0.54920(17)
H13 H 0.6364 0.1436 0.5586
H14 H 0.5884 0.2026 0.6063
C23 C 0.4282(2) 0.33377(18) 0.49189(17)
H15 H 0.4453 0.3327 0.5561
H16 H 0.3830 0.3762 0.4708
C24 C 0.4648(2) 0.06925(17) 0.41844(16)
C25 C 0.3831(2) 0.15967(17) 0.47275(16)
C26 C 0.2912(2) 0.08476(17) 0.39003(16)
C27 C 0.2804(2) 0.22973(17) 0.35675(16)
C28 C 0.3108(2) -0.04116(17) 0.29255(16)
H17 H 0.2416 -0.0780 0.2892
H18 H 0.3619 -0.0793 0.3085
C29 C 0.1455(2) 0.10242(18) 0.23689(16)
H19 H 0.1025 0.1470 0.2210
H20 H 0.0988 0.0461 0.2415
C30 C 0.0908(2) -0.08504(18) 0.11630(18)
H21 H 0.0839 -0.0960 0.1720
H22 H 0.0241 -0.0706 0.0742
C31 C 0.1015(2) -0.17037(19) 0.0731(2)
H23 H 0.0332 -0.2196 0.0530
H24 H 0.1609 -0.1903 0.1188
C32 C 0.1255(3) -0.15500(19) -0.0087(2)
H25 H 0.1952 -0.1681 0.0032
H26 H 0.0677 -0.1984 -0.0628
C33 C 0.1318(2) -0.05910(18) -0.02825(17)
H27 H 0.0591 -0.0488 -0.0492
H28 H 0.1539 -0.0520 -0.0773
C34 C 0.3543(2) 0.12158(19) -0.12611(17)
H29 H 0.4047 0.0927 -0.1371
H30 H 0.2847 0.0744 -0.1448
C35 C 0.3346(3) 0.1968(2) -0.18255(19)
H31 H 0.2769 0.2199 -0.1775
H32 H 0.3084 0.1708 -0.2468
C36 C 0.4374(3) 0.2767(2) -0.15284(19)
H33 H 0.4559 0.2826 -0.2039
H34 H 0.4217 0.3336 -0.1378
C37 C 0.5352(2) 0.2651(2) -0.07125(18)
H35 H 0.5957 0.3215 -0.0503
H36 H 0.5599 0.2149 -0.0892
C38 C 0.7944(2) 0.4804(2) 0.16683(19)
H37 H 0.8672 0.4697 0.1919
H38 H 0.7595 0.4605 0.1005
C39 C 0.8070(3) 0.5810(2) 0.1880(2)
H39 H 0.7354 0.5927 0.1551
H40 H 0.8569 0.6153 0.1660
C40 C 0.8515(3) 0.6161(2) 0.2900(2)
H41 H 0.9208 0.6642 0.3108
H42 H 0.7993 0.6438 0.2995
C41 C 0.8707(2) 0.54143(19) 0.34699(19)
H43 H 0.8904 0.5661 0.4102
H44 H 0.9321 0.5209 0.3465
C42 C 0.8078(2) 0.49206(19) 0.59445(18)
H45 H 0.7786 0.5385 0.6128
H46 H 0.8617 0.5229 0.5746
C43 C 0.8632(2) 0.4474(2) 0.67504(19)
H47 H 0.9229 0.4946 0.7248
H48 H 0.8953 0.4032 0.6573
C44 C 0.7823(3) 0.3979(2) 0.70895(19)
H49 H 0.7914 0.3364 0.7168
H50 H 0.8007 0.4315 0.7689
C45 C 0.6637(2) 0.3889(2) 0.64615(17)
H51 H 0.6487 0.4482 0.6530
H52 H 0.6168 0.3442 0.6638
C46 C 0.3690(2) 0.15216(19) 0.55891(18)
H53 H 0.4225 0.2037 0.6071
H54 H 0.3831 0.0951 0.5796
C47 C 0.2535(2) 0.1528(2) 0.54225(19)
H55 H 0.2441 0.2138 0.5313
H56 H 0.2448 0.1417 0.5972
C48 C 0.1637(2) 0.0805(2) 0.4611(2)
H57 H 0.1167 0.0399 0.4818
H58 H 0.1181 0.1113 0.4155
C49 C 0.2110(2) 0.02341(18) 0.41730(18)
H59 H 0.1513 -0.0186 0.3631
H60 H 0.2490 -0.0135 0.4602
N1 N 0.29082(17) -0.01983(14) 0.20400(14)
N2 N 0.32382(17) 0.00424(14) 0.08601(14)
N3 N 0.17397(18) 0.08195(14) 0.16424(14)
N4 N 0.20364(18) 0.10332(15) 0.04411(14)
N5 N 0.44432(18) 0.09665(15) 0.03263(14)
N6 N 0.59073(18) 0.21517(15) 0.07715(14)
N7 N 0.32798(17) 0.19806(14) -0.00412(14)
N8 N 0.47412(18) 0.31667(15) 0.03918(14)
N9 N 0.73197(18) 0.33063(15) 0.20540(14)
N10 N 0.79059(19) 0.38099(15) 0.35138(14)
N11 N 0.61435(18) 0.43148(15) 0.16782(14)
N12 N 0.67620(18) 0.48413(15) 0.31394(14)
N13 N 0.75651(18) 0.35525(15) 0.48209(14)
N14 N 0.64804(18) 0.26951(15) 0.53058(14)
N15 N 0.64330(18) 0.46055(15) 0.44576(14)
N16 N 0.52947(17) 0.36876(15) 0.48587(14)
N17 N 0.48340(17) 0.14306(15) 0.47929(14)
N18 N 0.35464(18) 0.03624(15) 0.36442(14)
N19 N 0.36552(18) 0.24379(14) 0.44028(14)
N20 N 0.23859(18) 0.13871(14) 0.32459(14)
C50 C 0.7152(2) 0.42100(18) 0.51613(16)
O3 O 0.44918(15) -0.04079(13) 0.20583(12)
O4 O 0.60821(16) 0.08800(13) 0.14305(12)
O5 O 0.78837(16) 0.23526(13) 0.30773(13)
O6 O 0.74949(15) 0.20393(13) 0.48032(13)
O7 O 0.53426(15) 0.03609(13) 0.41507(12)
O8 O 0.16414(16) 0.21620(12) 0.11148(12)
O9 O 0.32206(15) 0.33743(13) 0.04912(13)
O10 O 0.50528(15) 0.49171(13) 0.21442(12)
O11 O 0.46153(16) 0.45699(13) 0.37959(13)
O12 O 0.24466(15) 0.28950(12) 0.31803(12)
O13 O 0.3526(14) 0.5171(11) 0.0789(16)
N21 N 0.0564(2) 0.10180(19) -0.28419(18)
O14 O 0.06824(19) 0.04142(16) -0.23656(15)
O15 O 0.0788(2) 0.10032(19) -0.34909(16)
O16 O 0.0183(3) 0.1622(2) -0.2682(3)
loop_
_geom_bond_atom_site_label_1
_geom_bond_atom_site_label_2
_geom_bond_site_symmetry_1
_geom_bond_site_symmetry_2
Cl1 K1 1_555 1_555
O1 K2 1_555 1_555
O2 K1 1_555 1_555
K1 O3 1_555 1_555
K2 Cl1 1_555 1_555
C1 N1 1_555 1_555
C2 C3 1_555 1_555
C3 C33 1_555 1_555
C4 N3 1_555 1_555
C5 H1 1_555 1_555
H2 C5 1_555 1_555
C6 H3 1_555 1_555
H4 C6 1_555 1_555
C7 N5 1_555 1_555
C8 C9 1_555 1_555
C9 C37 1_555 1_555
C10 N7 1_555 1_555
C11 H5 1_555 1_555
H6 C11 1_555 1_555
C12 H7 1_555 1_555
H8 C12 1_555 1_555
C13 N9 1_555 1_555
C14 C15 1_555 1_555
C15 C41 1_555 1_555
C16 N11 1_555 1_555
C17 H9 1_555 1_555
H10 C17 1_555 1_555
C18 H11 1_555 1_555
H12 C18 1_555 1_555
C19 N13 1_555 1_555
C20 C45 1_555 1_555
C21 N15 1_555 1_555
C22 H13 1_555 1_555
H14 C22 1_555 1_555
C23 H15 1_555 1_555
H16 C23 1_555 1_555
C24 N17 1_555 1_555
C25 C26 1_555 1_555
C26 C49 1_555 1_555
C27 N19 1_555 1_555
C28 H17 1_555 1_555
H18 C28 1_555 1_555
C29 H19 1_555 1_555
H20 C29 1_555 1_555
C30 C2 1_555 1_555
H21 C30 1_555 1_555
H22 C30 1_555 1_555
C31 C30 1_555 1_555
H23 C31 1_555 1_555
H24 C31 1_555 1_555
C32 C31 1_555 1_555
H25 C32 1_555 1_555
H26 C32 1_555 1_555
C33 C32 1_555 1_555
H27 C33 1_555 1_555
H28 C33 1_555 1_555
C34 C8 1_555 1_555
H29 C34 1_555 1_555
H30 C34 1_555 1_555
C35 C34 1_555 1_555
H31 C35 1_555 1_555
H32 C35 1_555 1_555
C36 C35 1_555 1_555
H33 C36 1_555 1_555
H34 C36 1_555 1_555
C37 C36 1_555 1_555
H35 C37 1_555 1_555
H36 C37 1_555 1_555
C38 C14 1_555 1_555
H37 C38 1_555 1_555
H38 C38 1_555 1_555
C39 C38 1_555 1_555
H39 C39 1_555 1_555
H40 C39 1_555 1_555
C40 C39 1_555 1_555
H41 C40 1_555 1_555
H42 C40 1_555 1_555
C41 C40 1_555 1_555
H43 C41 1_555 1_555
H44 C41 1_555 1_555
C42 H45 1_555 1_555
H46 C42 1_555 1_555
C43 C42 1_555 1_555
H47 C43 1_555 1_555
H48 C43 1_555 1_555
C44 C43 1_555 1_555
H49 C44 1_555 1_555
H50 C44 1_555 1_555
C45 C44 1_555 1_555
H51 C45 1_555 1_555
H52 C45 1_555 1_555
C46 C25 1_555 1_555
H53 C46 1_555 1_555
H54 C46 1_555 1_555
C47 C46 1_555 1_555
H55 C47 1_555 1_555
H56 C47 1_555 1_555
C48 C47 1_555 1_555
H57 C48 1_555 1_555
H58 C48 1_555 1_555
C49 C48 1_555 1_555
H59 C49 1_555 1_555
H60 C49 1_555 1_555
N1 C2 1_555 1_555
N2 C1 1_555 1_555
N3 C2 1_555 1_555
N4 C3 1_555 1_555
N5 C5 1_555 1_555
N6 C7 1_555 1_555
N7 C6 1_555 1_555
N8 C9 1_555 1_555
N9 C11 1_555 1_555
N10 C13 1_555 1_555
N11 C12 1_555 1_555
N12 C15 1_555 1_555
N13 C17 1_555 1_555
N14 C19 1_555 1_555
N15 C18 1_555 1_555
N16 C20 1_555 1_555
N17 C22 1_555 1_555
N18 C24 1_555 1_555
N19 C23 1_555 1_555
N20 C26 1_555 1_555
C50 C20 1_555 1_555
O3 C1 1_555 1_555
O4 K1 1_555 1_555
O5 K1 1_555 1_555
O6 K1 1_555 1_555
O7 K1 1_555 1_555
O8 K2 1_555 1_555
O9 K2 1_555 1_555
O10 K2 1_555 1_555
O11 K2 1_555 1_555
O12 K2 1_555 1_555
N21 O14 1_555 1_555
O15 N21 1_555 1_555
O16 N21 1_555 1_555
C3 N2 1_555 1_555
C4 N4 1_555 1_555
C4 O8 1_555 1_555
C5 N2 1_555 1_555
C6 N4 1_555 1_555
C7 O4 1_555 1_555
C8 N5 1_555 1_555
C8 N7 1_555 1_555
C9 N6 1_555 1_555
C10 N8 1_555 1_555
C10 O9 1_555 1_555
C11 N6 1_555 1_555
C12 N8 1_555 1_555
C13 O5 1_555 1_555
C14 N9 1_555 1_555
C14 N11 1_555 1_555
C15 N10 1_555 1_555
C16 N12 1_555 1_555
C16 O10 1_555 1_555
C17 N10 1_555 1_555
C18 N12 1_555 1_555
C19 O6 1_555 1_555
C20 N14 1_555 1_555
C21 N16 1_555 1_555
C21 O11 1_555 1_555
C22 N14 1_555 1_555
C23 N16 1_555 1_555
C24 O7 1_555 1_555
C25 N17 1_555 1_555
C25 N19 1_555 1_555
C26 N18 1_555 1_555
C27 N20 1_555 1_555
C27 O12 1_555 1_555
C28 N1 1_555 1_555
C28 N18 1_555 1_555
C29 N3 1_555 1_555
C29 N20 1_555 1_555
C42 C50 1_555 1_555
N13 C50 1_555 1_555
N15 C50 1_555 1_555

#END
