
#######################################################################
#
#                 Cambridge Crystallographic Data Centre
#                                CCDC 
#
#######################################################################
#
# If this CIF has been generated from an entry in the Cambridge 
# Structural Database, then it will include bibliographic, chemical, 
# crystal, experimental, refinement or atomic coordinate data resulting 
# from the CCDC's data processing and validation procedures.
#
#######################################################################

data_VEXQUN
_chemical_formula_moiety         '2(C4 H8 N5 1+),C8 H2 Br2 O4 2-,2(H2 O1)'
_chemical_name_systematic        
'bis(2,4,6-triaminopyrimidinium) 2,5-dibromoterephthalate dihydrate'
_symmetry_cell_setting           triclinic
_symmetry_space_group_name_H-M   'P -1'
_symmetry_Int_Tables_number      2
_space_group_name_Hall           '-P 1'
loop_
_symmetry_equiv_pos_site_id
_symmetry_equiv_pos_as_xyz
1 x,y,z
2 -x,-y,-z
_cell_length_a                   8.0408(7)
_cell_length_b                   8.3407(7)
_cell_length_c                   9.6637(7)
_cell_angle_alpha                115.184(8)
_cell_angle_beta                 98.823(7)
_cell_angle_gamma                100.780(7)
_cell_volume                     556.013
_cell_formula_units_Z            1
loop_
_atom_site_label
_atom_site_type_symbol
_atom_site_fract_x
_atom_site_fract_y
_atom_site_fract_z
Br1 Br 0.07333(4) -0.20581(4) 0.36067(3)
O1 O 0.1538(3) -0.5851(3) 0.1419(2)
O2 O 0.3693(3) -0.5699(3) 0.3242(2)
C1 C 0.0280(3) -0.3818(4) 0.4359(3)
C2 C 0.2208(4) -0.5601(4) 0.2794(3)
C3 C 0.1077(3) -0.5239(4) 0.3947(3)
C4 C -0.0773(4) -0.3578(4) 0.5387(3)
H1 H -0.1288 -0.2615 0.5640
Br1A Br -0.07333(4) -0.79419(4) 0.63933(3)
O1A O -0.1538(3) -0.4149(3) 0.8581(2)
O2A O -0.3693(3) -0.4301(3) 0.6758(2)
C1A C -0.0280(3) -0.6182(4) 0.5641(3)
C2A C -0.2208(4) -0.4399(4) 0.7206(3)
C3A C -0.1077(3) -0.4761(4) 0.6053(3)
C4A C 0.0773(4) -0.6422(4) 0.4613(3)
H1A H 0.1288 -0.7385 0.4360
N1 N 0.2101(4) 0.0065(4) 1.0029(3)
H2 H 0.1669 0.0891 1.0624
H3 H 0.1998 -0.0953 1.0078
N2 N 0.5153(4) -0.1504(4) 0.5997(3)
H4 H 0.5627 -0.1184 0.5380
H5 H 0.5147 -0.2553 0.5963
N3 N 0.3048(3) 0.2002(3) 0.9012(3)
H6 H 0.2622 0.2795 0.9652
N4 N 0.4495(3) 0.1246(3) 0.6984(3)
N5 N 0.3895(3) 0.4047(3) 0.8065(3)
H7 H 0.4376 0.4357 0.7446
H8 H 0.3456 0.4797 0.8731
C5 C 0.2935(4) 0.0365(4) 0.9026(3)
C6 C 0.4431(4) -0.0381(4) 0.7003(3)
C7 C 0.3832(3) 0.2410(4) 0.7993(3)
C8 C 0.3642(4) -0.0877(4) 0.8015(3)
H9 H 0.3600 -0.2006 0.8001
O3 O 0.8025(3) 0.3512(3) 1.0112(2)
H10 H 0.9075 0.3800 1.0648
H11 H 0.8028 0.3710 0.9320
loop_
_geom_bond_atom_site_label_1
_geom_bond_atom_site_label_2
_geom_bond_site_symmetry_1
_geom_bond_site_symmetry_2
Br1 C1 1_555 1_555
O1 C2 1_555 1_555
O2 C2 1_555 1_555
C1 C3 1_555 1_555
C2 C3 1_555 1_555
C3 C4A 1_555 1_555
C4 C1 1_555 1_555
H1 C4 1_555 1_555
N1 H2 1_555 1_555
H3 N1 1_555 1_555
N2 H4 1_555 1_555
H5 N2 1_555 1_555
N3 H6 1_555 1_555
N4 C6 1_555 1_555
N5 H7 1_555 1_555
H8 N5 1_555 1_555
C5 N1 1_555 1_555
C6 N2 1_555 1_555
C7 N3 1_555 1_555
C8 C5 1_555 1_555
H9 C8 1_555 1_555
O3 H10 1_555 1_555
H11 O3 1_555 1_555
Br1A C1A 1_555 1_555
O1A C2A 1_555 1_555
O2A C2A 1_555 1_555
C1A C3A 1_555 1_555
C2A C3A 1_555 1_555
C3A C4 1_555 1_555
C4A C1A 1_555 1_555
H1A C4A 1_555 1_555
N3 C5 1_555 1_555
N4 C7 1_555 1_555
N5 C7 1_555 1_555
C6 C8 1_555 1_555

#END
