
#######################################################################
#
#                 Cambridge Crystallographic Data Centre
#                                CCDC 
#
#######################################################################
#
# If this CIF has been generated from an entry in the Cambridge 
# Structural Database, then it will include bibliographic, chemical, 
# crystal, experimental, refinement or atomic coordinate data resulting 
# from the CCDC's data processing and validation procedures.
#
#######################################################################

data_VEXROI
_chemical_formula_moiety         'C14 H17 Br1 O3'
_chemical_name_systematic        
3-(2-bromofuran-3-yl)-3a,7-dimethylhexahydro-2-benzofuran-1(3H)-one
_symmetry_cell_setting           monoclinic
_symmetry_space_group_name_H-M   'P 21'
_symmetry_Int_Tables_number      4
_space_group_name_Hall           'P 2yb'
loop_
_symmetry_equiv_pos_site_id
_symmetry_equiv_pos_as_xyz
1 x,y,z
2 -x,1/2+y,-z
_cell_length_a                   8.2533(6)
_cell_length_b                   6.8494(5)
_cell_length_c                   12.0862(9)
_cell_angle_alpha                90
_cell_angle_beta                 95.6900(10)
_cell_angle_gamma                90
_cell_volume                     679.868
_cell_formula_units_Z            2
loop_
_atom_site_label
_atom_site_type_symbol
_atom_site_fract_x
_atom_site_fract_y
_atom_site_fract_z
Br1 Br -0.35763(7) 0.06189(9) 0.95968(4)
O1 O 0.0191(4) 0.0265(7) 0.4787(2)
O2 O -0.3722(4) -0.3046(5) 0.8710(3)
O3 O -0.1392(3) 0.0592(8) 0.61609(19)
C1 C 0.0049(6) 0.0162(7) 0.5769(4)
C2 C 0.1282(6) -0.0426(7) 0.6726(4)
H1 H 0.1158 -0.1831 0.6849
C3 C -0.3064(6) -0.1255(8) 0.8587(4)
C4 C 0.3071(7) -0.0040(8) 0.6591(5)
H2 H 0.3686 -0.0518 0.7272
C5 C -0.2119(5) -0.1197(7) 0.7740(4)
C6 C 0.3413(7) 0.2123(9) 0.6540(5)
H3 H 0.4568 0.2330 0.6498
H4 H 0.2829 0.2672 0.5876
C7 C -0.2218(6) -0.3123(8) 0.7290(4)
H5 H -0.1696 -0.3586 0.6695
C8 C 0.2894(6) 0.3142(8) 0.7553(4)
H6 H 0.3096 0.4532 0.7497
H7 H 0.3536 0.2658 0.8212
C9 C -0.3194(7) -0.4124(11) 0.7885(5)
H8 H -0.3483 -0.5421 0.7750
C10 C 0.1083(6) 0.2802(8) 0.7668(4)
H9 H 0.0806 0.3426 0.8345
H10 H 0.0446 0.3422 0.7048
C11 C 0.0611(5) 0.0646(11) 0.7700(3)
C12 C -0.1229(5) 0.0546(11) 0.7367(3)
H11 H -0.1734 0.1724 0.7639
C13 C 0.3680(7) -0.1220(10) 0.5628(4)
H12 H 0.3183 -0.0725 0.4932
H13 H 0.3393 -0.2569 0.5702
H14 H 0.4841 -0.1101 0.5651
C14 C 0.1128(6) -0.0281(8) 0.8836(4)
H15 H 0.0958 -0.1666 0.8792
H16 H 0.0490 0.0261 0.9383
H17 H 0.2260 -0.0018 0.9043
loop_
_geom_bond_atom_site_label_1
_geom_bond_atom_site_label_2
_geom_bond_site_symmetry_1
_geom_bond_site_symmetry_2
Br1 C3 1_555 1_555
O1 C1 1_555 1_555
O2 C3 1_555 1_555
O3 C1 1_555 1_555
C1 C2 1_555 1_555
C2 H1 1_555 1_555
C3 C5 1_555 1_555
C4 C2 1_555 1_555
H2 C4 1_555 1_555
C5 C7 1_555 1_555
C6 C4 1_555 1_555
H3 C6 1_555 1_555
H4 C6 1_555 1_555
C7 H5 1_555 1_555
C8 C6 1_555 1_555
H6 C8 1_555 1_555
H7 C8 1_555 1_555
C9 O2 1_555 1_555
H8 C9 1_555 1_555
C10 C8 1_555 1_555
H9 C10 1_555 1_555
H10 C10 1_555 1_555
C11 C2 1_555 1_555
C12 O3 1_555 1_555
H11 C12 1_555 1_555
C13 C4 1_555 1_555
H12 C13 1_555 1_555
H13 C13 1_555 1_555
H14 C13 1_555 1_555
C14 C11 1_555 1_555
H15 C14 1_555 1_555
H16 C14 1_555 1_555
H17 C14 1_555 1_555
C5 C12 1_555 1_555
C7 C9 1_555 1_555
C10 C11 1_555 1_555
C11 C12 1_555 1_555

#END
