
#######################################################################
#
#                 Cambridge Crystallographic Data Centre
#                                CCDC 
#
#######################################################################
#
# If this CIF has been generated from an entry in the Cambridge 
# Structural Database, then it will include bibliographic, chemical, 
# crystal, experimental, refinement or atomic coordinate data resulting 
# from the CCDC's data processing and validation procedures.
#
#######################################################################

data_VEXTOK
_chemical_formula_moiety         'C78 H36 Cl12 N6,C6 H4 S4,2(C1 S2)'
_chemical_name_systematic        
'1,3,4,6,7,9,10,12,13,15,16,18-dodecachloro-N^2^,N^5^,N^8^,N^11^,N^14^,N^17^-hexaphenylhexabenzo[bc,ef,hi,kl,no,qr]coronene-2,5,8,11,14,17-hexamine 2-(2H-1,3-dithiol-2-ylidene)-2H-1,3-dithiole bis(carbon disulfide) unknown solvate'
_symmetry_cell_setting           triclinic
_symmetry_space_group_name_H-M   'P -1'
_symmetry_Int_Tables_number      2
_space_group_name_Hall           '-P 1'
loop_
_symmetry_equiv_pos_site_id
_symmetry_equiv_pos_as_xyz
1 x,y,z
2 -x,-y,-z
_cell_length_a                   13.9245(6)
_cell_length_b                   19.6503(8)
_cell_length_c                   32.4365(15)
_cell_angle_alpha                90.901(4)
_cell_angle_beta                 90.656(4)
_cell_angle_gamma                103.718(4)
_cell_volume                     8620.01
_exptl_crystal_colour            'metallic dark black'
_exptl_crystal_description       needle
_cell_formula_units_Z            4
loop_
_atom_site_label
_atom_site_type_symbol
_atom_site_fract_x
_atom_site_fract_y
_atom_site_fract_z
Cl1 Cl 0.1150(3) 0.4821(2) 0.81514(14)
Cl2 Cl 0.0199(3) 0.7753(2) 0.90418(13)
Cl3 Cl -0.0672(3) 0.5457(2) 0.81138(13)
Cl4 Cl 0.2375(3) 0.7900(2) 0.93082(14)
Cl5 Cl -0.0313(4) 0.2349(2) 0.88195(14)
Cl6 Cl 0.2456(4) 0.7629(2) 1.09328(15)
N1 N 0.0572(10) 0.3286(7) 0.8185(4)
H1 H 0.1089 0.3111 0.8229
C1 C 0.0230(12) 0.5389(8) 0.9638(5)
N2 N 0.2892(11) 0.8380(8) 1.0143(5)
H2 H 0.3415 0.8386 0.9992
C2 C 0.0545(12) 0.6427(8) 1.0808(5)
C3 C -0.0221(12) 0.4317(8) 0.9206(5)
C4 C -0.0129(12) 0.4666(8) 0.9603(5)
N3 N -0.0205(12) 0.6956(7) 0.8259(4)
H3 H -0.0821 0.6856 0.8167
C5 C 0.0221(12) 0.3631(9) 0.8503(5)
C6 C 0.0642(12) 0.6556(8) 0.9294(5)
C7 C 0.0078(12) 0.4709(8) 0.8858(5)
C8 C 0.0374(12) 0.5812(8) 0.9254(5)
C9 C 0.0370(12) 0.4341(8) 0.8520(5)
C10 C 0.0140(12) 0.5459(8) 0.8875(5)
C11 C 0.1009(12) 0.6796(9) 1.0455(5)
C12 C 0.1054(12) 0.6863(9) 0.9697(5)
C13 C 0.0360(12) 0.5744(8) 1.0030(5)
C14 C 0.0802(12) 0.6486(9) 1.0071(5)
C15 C 0.0056(12) 0.6581(9) 0.8583(5)
C16 C 0.2151(13) 0.7803(9) 1.0103(5)
C17 C 0.0377(12) 0.6920(8) 0.8967(5)
C18 C -0.0057(12) 0.5866(8) 0.8546(5)
C19 C 0.0109(15) 0.3209(11) 0.7780(6)
C20 C 0.1760(12) 0.7421(9) 1.0471(5)
C21 C -0.0597(14) 0.3563(11) 0.7664(6)
H4 H -0.0820 0.3855 0.7859
C22 C -0.0229(12) 0.3263(8) 0.8824(5)
C23 C 0.1752(12) 0.7510(9) 0.9738(5)
C24 C 0.2936(17) 0.8977(11) 1.0398(7)
C25 C 0.1480(16) 0.7755(10) 0.8209(6)
H5 H 0.1709 0.7559 0.8446
C26 C 0.0538(17) 0.7525(11) 0.8067(6)
C27 C -0.0983(14) 0.3495(11) 0.7264(6)
H6 H -0.1437 0.3761 0.7182
C28 C 0.211(2) 0.9067(10) 1.0627(7)
H7 H 0.1514 0.8715 1.0616
C29 C 0.0451(15) 0.2771(11) 0.7493(6)
H8 H 0.0971 0.2550 0.7557
C30 C 0.2176(18) 0.9665(12) 1.0867(7)
H9 H 0.1619 0.9712 1.1022
C31 C -0.0700(14) 0.3032(11) 0.6982(6)
H10 H -0.0976 0.2967 0.6712
C32 C 0.2108(17) 0.8296(10) 0.7992(6)
H11 H 0.2771 0.8468 0.8087
C33 C 0.3863(17) 0.9514(11) 1.0407(6)
H12 H 0.4423 0.9469 1.0254
C34 C 0.0228(17) 0.7841(10) 0.7717(6)
H13 H -0.0435 0.7688 0.7619
C35 C 0.0851(16) 0.8348(11) 0.7523(6)
H14 H 0.0612 0.8546 0.7289
C36 C 0.302(3) 1.0190(14) 1.0887(8)
H15 H 0.3047 1.0601 1.1049
C37 C -0.0038(14) 0.2688(11) 0.7103(6)
H16 H 0.0121 0.2359 0.6913
C38 C 0.1778(17) 0.8590(11) 0.7636(6)
H17 H 0.2210 0.8946 0.7487
C39 C 0.387(2) 1.0111(11) 1.0663(8)
H18 H 0.4455 1.0472 1.0685
Cl1A Cl -0.1150(3) 0.5179(2) 1.18486(14)
Cl2A Cl -0.0199(3) 0.2247(2) 1.09582(13)
Cl3A Cl 0.0672(3) 0.4543(2) 1.18862(13)
Cl4A Cl -0.2375(3) 0.2100(2) 1.06918(14)
Cl5A Cl 0.0313(4) 0.7651(2) 1.11805(14)
Cl6A Cl -0.2456(4) 0.2371(2) 0.90672(15)
N1A N -0.0572(10) 0.6714(7) 1.1815(4)
H1A H -0.1089 0.6889 1.1771
C1A C -0.0230(12) 0.4611(8) 1.0362(5)
N2A N -0.2892(11) 0.1620(8) 0.9857(5)
H2A H -0.3415 0.1614 1.0008
C2A C -0.0545(12) 0.3573(8) 0.9192(5)
C3A C 0.0221(12) 0.5683(8) 1.0794(5)
C4A C 0.0129(12) 0.5334(8) 1.0397(5)
N3A N 0.0205(12) 0.3044(7) 1.1741(4)
H3A H 0.0821 0.3144 1.1833
C5A C -0.0221(12) 0.6369(9) 1.1497(5)
C6A C -0.0642(12) 0.3444(8) 1.0706(5)
C7A C -0.0078(12) 0.5291(8) 1.1142(5)
C8A C -0.0374(12) 0.4188(8) 1.0746(5)
C9A C -0.0370(12) 0.5659(8) 1.1480(5)
C10A C -0.0140(12) 0.4541(8) 1.1125(5)
C11A C -0.1009(12) 0.3204(9) 0.9545(5)
C12A C -0.1054(12) 0.3137(9) 1.0303(5)
C13A C -0.0360(12) 0.4256(8) 0.9970(5)
C14A C -0.0802(12) 0.3514(9) 0.9929(5)
C15A C -0.0056(12) 0.3419(9) 1.1417(5)
C16A C -0.2151(13) 0.2197(9) 0.9897(5)
C17A C -0.0377(12) 0.3080(8) 1.1033(5)
C18A C 0.0057(12) 0.4134(8) 1.1454(5)
C19A C -0.0109(15) 0.6791(11) 1.2220(6)
C20A C -0.1760(12) 0.2579(9) 0.9529(5)
C21A C 0.0597(14) 0.6437(11) 1.2336(6)
H4A H 0.0820 0.6145 1.2141
C22A C 0.0229(12) 0.6737(8) 1.1176(5)
C23A C -0.1752(12) 0.2490(9) 1.0262(5)
C24A C -0.2936(17) 0.1023(11) 0.9602(7)
C25A C -0.1480(16) 0.2245(10) 1.1791(6)
H5A H -0.1709 0.2441 1.1554
C26A C -0.0538(17) 0.2475(11) 1.1933(6)
C27A C 0.0983(14) 0.6505(11) 1.2736(6)
H6A H 0.1437 0.6239 1.2818
C28A C -0.211(2) 0.0933(10) 0.9373(7)
H7A H -0.1514 0.1285 0.9384
C29A C -0.0451(15) 0.7229(11) 1.2507(6)
H8A H -0.0971 0.7450 1.2443
C30A C -0.2176(18) 0.0335(12) 0.9133(7)
H9A H -0.1619 0.0288 0.8978
C31A C 0.0700(14) 0.6968(11) 1.3018(6)
H10A H 0.0976 0.7033 1.3288
C32A C -0.2108(17) 0.1704(10) 1.2008(6)
H11A H -0.2771 0.1532 1.1913
C33A C -0.3863(17) 0.0486(11) 0.9593(6)
H12A H -0.4423 0.0531 0.9746
C34A C -0.0228(17) 0.2159(10) 1.2283(6)
H13A H 0.0435 0.2312 1.2381
C35A C -0.0851(16) 0.1652(11) 1.2477(6)
H14A H -0.0612 0.1454 1.2711
C36A C -0.302(3) -0.0190(14) 0.9113(8)
H15A H -0.3047 -0.0601 0.8951
C37A C 0.0038(14) 0.7312(11) 1.2897(6)
H16A H -0.0121 0.7641 1.3087
C38A C -0.1778(17) 0.1410(11) 1.2364(6)
H17A H -0.2210 0.1054 1.2513
C39A C -0.387(2) -0.0111(11) 0.9337(8)
H18A H -0.4455 -0.0472 0.9315
Cl7 Cl -0.4731(3) 0.8105(2) 0.95634(14)
Cl8 Cl -0.2690(3) 0.7882(2) 0.92745(14)
Cl9 Cl -0.5742(4) 0.5435(2) 0.81017(13)
Cl10 Cl -0.4512(4) 0.7657(2) 1.11731(14)
Cl11 Cl -0.3483(4) 0.5715(2) 0.82209(14)
Cl12 Cl -0.7374(4) 0.2938(2) 0.87114(15)
C40 C -0.5367(11) 0.4283(8) 0.9916(5)
C41 C -0.4329(12) 0.6460(8) 1.0172(5)
C42 C -0.5293(12) 0.4529(9) 0.9165(5)
N4 N -0.4622(11) 0.8512(8) 1.0448(4)
H19 H -0.5000 0.8496 1.0657
C43 C -0.5230(11) 0.4508(8) 1.0321(5)
C44 C -0.5117(11) 0.4752(8) 0.9586(5)
C45 C -0.5809(12) 0.3810(9) 0.9086(5)
C46 C -0.4466(12) 0.5977(9) 0.9345(5)
N5 N -0.6956(10) 0.4023(7) 0.8070(4)
H20 H -0.7581 0.4025 0.8105
C47 C -0.4260(12) 0.6920(8) 0.9855(5)
C48 C -0.4255(12) 0.6687(8) 1.0593(5)
C49 C -0.4084(12) 0.6674(9) 0.9434(5)
C50 C -0.5126(12) 0.5024(9) 0.8839(5)
C51 C -0.3450(12) 0.7082(9) 0.9147(5)
N6 N -0.2510(9) 0.7152(7) 0.8520(4)
H21 H -0.2243 0.6856 0.8395
C52 C -0.3805(16) 0.9105(10) 1.0485(6)
C53 C -0.4392(12) 0.7616(8) 0.9967(5)
C54 C -0.6384(12) 0.3688(9) 0.8717(5)
C55 C -0.5666(12) 0.4806(9) 0.8472(5)
C56 C -0.3290(12) 0.6789(9) 0.8781(5)
C57 C -0.3816(12) 0.6109(9) 0.8658(5)
C58 C -0.4366(13) 0.7383(8) 1.0684(5)
C59 C -0.4495(12) 0.5709(9) 0.8938(5)
C60 C -0.4423(13) 0.7818(9) 1.0356(5)
C61 C -0.6318(12) 0.4153(9) 0.8418(5)
C62 C -0.6666(15) 0.3894(11) 0.7684(6)
C63 C -0.7332(15) 0.3859(10) 0.7345(6)
H22 H -0.7971 0.3939 0.7387
C64 C -0.3852(16) 0.9634(11) 1.0744(5)
H23 H -0.4410 0.9587 1.0916
C65 C -0.2302(15) 1.0345(11) 1.0506(6)
H24 H -0.1815 1.0776 1.0508
C66 C -0.3115(18) 1.0245(11) 1.0769(6)
H25 H -0.3159 1.0600 1.0966
C67 C -0.2653(19) 0.7666(13) 0.8245(7)
C68 C -0.1850(19) 0.8204(12) 0.8155(7)
H26 H -0.1227 0.8223 0.8283
C69 C -0.195(2) 0.8726(13) 0.7873(7)
H27 H -0.1414 0.9112 0.7820
C70 C -0.5439(16) 0.3712(10) 0.7193(6)
H28 H -0.4774 0.3700 0.7138
C71 C -0.5711(15) 0.3818(10) 0.7592(6)
H29 H -0.5242 0.3841 0.7810
C72 C -0.6094(15) 0.3626(10) 0.6887(6)
H30 H -0.5915 0.3508 0.6618
C73 C -0.2230(16) 0.9809(12) 1.0249(7)
H31 H -0.1666 0.9849 1.0081
C74 C -0.3013(17) 0.9178(10) 1.0230(7)
H32 H -0.2977 0.8811 1.0041
C75 C -0.7048(15) 0.3709(10) 0.6956(6)
H33 H -0.7506 0.3661 0.6732
C76 C -0.3553(19) 0.7653(12) 0.8058(7)
H34 H -0.4116 0.7299 0.8127
C77 C -0.2796(19) 0.8659(13) 0.7690(7)
H35 H -0.2840 0.8988 0.7484
C78 C -0.3651(19) 0.8149(12) 0.7769(7)
H36 H -0.4263 0.8139 0.7634
Cl7A Cl -0.5269(3) 0.1895(2) 1.04366(14)
Cl8A Cl -0.7310(3) 0.2118(2) 1.07255(14)
Cl9A Cl -0.4258(4) 0.4565(2) 1.18983(13)
Cl10A Cl -0.5488(4) 0.2343(2) 0.88269(14)
Cl11A Cl -0.6517(4) 0.4285(2) 1.17791(14)
Cl12A Cl -0.2626(4) 0.7062(2) 1.12886(15)
C40A C -0.4633(11) 0.5717(8) 1.0084(5)
C41A C -0.5671(12) 0.3540(8) 0.9828(5)
C42A C -0.4707(12) 0.5471(9) 1.0835(5)
N4A N -0.5378(11) 0.1488(8) 0.9552(4)
H19A H -0.5000 0.1504 0.9343
C43A C -0.4770(11) 0.5492(8) 0.9679(5)
C44A C -0.4883(11) 0.5248(8) 1.0414(5)
C45A C -0.4191(12) 0.6190(9) 1.0914(5)
C46A C -0.5534(12) 0.4023(9) 1.0655(5)
N5A N -0.3044(10) 0.5977(7) 1.1930(4)
H20A H -0.2419 0.5975 1.1895
C47A C -0.5740(12) 0.3080(8) 1.0145(5)
C48A C -0.5745(12) 0.3313(8) 0.9407(5)
C49A C -0.5916(12) 0.3326(9) 1.0566(5)
C50A C -0.4874(12) 0.4976(9) 1.1161(5)
C51A C -0.6550(12) 0.2918(9) 1.0853(5)
N6A N -0.7490(9) 0.2848(7) 1.1480(4)
H21A H -0.7757 0.3144 1.1605
C52A C -0.6195(16) 0.0895(10) 0.9515(6)
C53A C -0.5608(12) 0.2384(8) 1.0033(5)
C54A C -0.3616(12) 0.6312(9) 1.1283(5)
C55A C -0.4334(12) 0.5194(9) 1.1528(5)
C56A C -0.6710(12) 0.3211(9) 1.1219(5)
C57A C -0.6184(12) 0.3891(9) 1.1342(5)
C58A C -0.5634(13) 0.2617(8) 0.9316(5)
C59A C -0.5505(12) 0.4291(9) 1.1062(5)
C60A C -0.5577(13) 0.2182(9) 0.9644(5)
C61A C -0.3682(12) 0.5847(9) 1.1582(5)
C62A C -0.3334(15) 0.6106(11) 1.2316(6)
C63A C -0.2668(15) 0.6141(10) 1.2655(6)
H22A H -0.2029 0.6061 1.2613
C64A C -0.6148(16) 0.0366(11) 0.9256(5)
H23A H -0.5590 0.0413 0.9084
C65A C -0.7698(15) -0.0345(11) 0.9494(6)
H24A H -0.8185 -0.0776 0.9492
C66A C -0.6885(18) -0.0245(11) 0.9231(6)
H25A H -0.6841 -0.0600 0.9034
C67A C -0.7347(19) 0.2334(13) 1.1755(7)
C68A C -0.8150(19) 0.1796(12) 1.1845(7)
H26A H -0.8773 0.1777 1.1717
C69A C -0.805(2) 0.1274(13) 1.2127(7)
H27A H -0.8586 0.0888 1.2180
C70A C -0.4561(16) 0.6288(10) 1.2807(6)
H28A H -0.5226 0.6300 1.2862
C71A C -0.4289(15) 0.6182(10) 1.2408(6)
H29A H -0.4758 0.6159 1.2190
C72A C -0.3906(15) 0.6374(10) 1.3113(6)
H30A H -0.4085 0.6492 1.3382
C73A C -0.7770(16) 0.0191(12) 0.9751(7)
H31A H -0.8334 0.0151 0.9919
C74A C -0.6987(17) 0.0822(10) 0.9770(7)
H32A H -0.7023 0.1189 0.9959
C75A C -0.2952(15) 0.6291(10) 1.3044(6)
H33A H -0.2494 0.6339 1.3268
C76A C -0.6447(19) 0.2347(12) 1.1942(7)
H34A H -0.5884 0.2701 1.1873
C77A C -0.7204(19) 0.1341(13) 1.2310(7)
H35A H -0.7160 0.1012 1.2516
C78A C -0.6349(19) 0.1851(12) 1.2231(7)
H36A H -0.5737 0.1861 1.2366
Cl13 Cl -0.0732(4) 0.9544(2) 0.69110(13)
Cl14 Cl 0.1570(4) 1.0021(2) 0.67762(14)
Cl15 Cl -0.2022(4) 0.7322(2) 0.59173(14)
Cl16 Cl -0.0034(4) 0.6988(2) 0.56669(14)
Cl17 Cl 0.1923(4) 1.2557(2) 0.61641(14)
Cl18 Cl 0.0181(4) 0.7279(2) 0.40354(14)
C79 C -0.0441(12) 0.8514(9) 0.4928(5)
C80 C -0.0261(12) 0.9257(9) 0.4969(5)
C81 C 0.0393(12) 1.0665(9) 0.5785(5)
C82 C -0.0230(12) 0.9173(9) 0.5721(5)
C83 C -0.0098(12) 0.9577(9) 0.5352(5)
C84 C 0.0138(12) 1.0333(9) 0.5402(5)
C85 C -0.0604(12) 0.8430(9) 0.5675(5)
C86 C 0.0735(12) 1.1423(9) 0.5824(5)
C87 C -0.0430(12) 0.8119(9) 0.5293(5)
N7 N 0.2209(11) 1.1574(8) 0.6779(4)
H37 H 0.2451 1.2003 0.6713
C88 C -0.0142(12) 0.9512(9) 0.6116(5)
C89 C 0.0412(12) 1.0247(9) 0.6149(5)
N8 N 0.0227(10) 0.6545(7) 0.4828(4)
H38 H 0.0847 0.6648 0.4774
C90 C -0.0479(12) 0.8190(9) 0.4540(5)
C91 C 0.1266(12) 1.1683(9) 0.6159(5)
C92 C -0.1145(12) 0.8120(9) 0.6013(5)
C93 C -0.0279(12) 0.7431(8) 0.5242(5)
N9 N -0.1711(13) 0.8082(8) 0.6715(5)
H39 H -0.2176 0.8260 0.6823
C94 C -0.0235(12) 0.7556(9) 0.4505(5)
C95 C -0.0112(12) 0.7180(9) 0.4852(5)
C96 C -0.0596(12) 0.9121(9) 0.6439(5)
C97 C 0.1218(18) 1.1188(10) 0.7394(6)
H40 H 0.0659 1.0957 0.7232
C98 C 0.1046(12) 1.0567(9) 0.6456(5)
C99 C -0.1131(13) 0.8447(9) 0.6381(5)
C100 C 0.1456(13) 1.1259(9) 0.6483(5)
C101 C 0.2061(18) 1.1547(10) 0.7204(6)
C102 C -0.025(2) 0.5950(11) 0.4598(7)
C103 C -0.112(2) 0.5842(11) 0.4421(7)
H41 H -0.1467 0.6204 0.4438
C104 C 0.2863(17) 1.1950(10) 0.7452(6)
H42 H 0.3445 1.2228 0.7334
C105 C -0.155(2) 0.7434(13) 0.6877(7)
C106 C -0.205(2) 0.6450(12) 0.7333(7)
H43 H -0.2480 0.6190 0.7530
C107 C 0.1183(17) 1.1162(10) 0.7824(6)
H44 H 0.0615 1.0890 0.7954
C108 C 0.1981(17) 1.1536(10) 0.8064(6)
H45 H 0.1973 1.1520 0.8356
C109 C -0.103(2) 0.4708(11) 0.4186(7)
H46 H -0.1302 0.4275 0.4047
C110 C 0.2731(17) 1.1906(10) 0.7872(6)
H47 H 0.3250 1.2178 0.8040
C111 C -0.004(2) 0.4833(11) 0.4376(6)
H48 H 0.0331 0.4485 0.4357
C112 C 0.033(2) 0.5417(11) 0.4570(6)
H49 H 0.0968 0.5501 0.4694
C113 C -0.080(2) 0.7164(12) 0.6747(7)
H50 H -0.0375 0.7403 0.6540
C114 C -0.220(2) 0.7079(12) 0.7180(6)
H51 H -0.2728 0.7265 0.7277
C115 C -0.061(2) 0.6553(12) 0.6904(7)
H52 H -0.0059 0.6387 0.6814
C116 C -0.121(2) 0.6211(12) 0.7176(7)
H53 H -0.1087 0.5787 0.7277
C117 C -0.157(2) 0.5228(10) 0.4208(6)
H54 H -0.2209 0.5161 0.4085
Cl13A Cl 0.0732(4) 1.0456(2) 0.30890(13)
Cl14A Cl -0.1570(4) 0.9979(2) 0.32238(14)
Cl15A Cl 0.2022(4) 1.2678(2) 0.40827(14)
Cl16A Cl 0.0034(4) 1.3012(2) 0.43331(14)
Cl17A Cl -0.1923(4) 0.7443(2) 0.38359(14)
Cl18A Cl -0.0181(4) 1.2721(2) 0.59646(14)
C79A C 0.0441(12) 1.1486(9) 0.5072(5)
C80A C 0.0261(12) 1.0743(9) 0.5031(5)
C81A C -0.0393(12) 0.9335(9) 0.4215(5)
C82A C 0.0230(12) 1.0827(9) 0.4279(5)
C83A C 0.0098(12) 1.0423(9) 0.4648(5)
C84A C -0.0138(12) 0.9667(9) 0.4598(5)
C85A C 0.0604(12) 1.1570(9) 0.4325(5)
C86A C -0.0735(12) 0.8577(9) 0.4176(5)
C87A C 0.0430(12) 1.1881(9) 0.4707(5)
N7A N -0.2209(11) 0.8426(8) 0.3221(4)
H37A H -0.2451 0.7997 0.3287
C88A C 0.0142(12) 1.0488(9) 0.3884(5)
C89A C -0.0412(12) 0.9753(9) 0.3851(5)
N8A N -0.0227(10) 1.3455(7) 0.5172(4)
H38A H -0.0847 1.3352 0.5226
C90A C 0.0479(12) 1.1810(9) 0.5460(5)
C91A C -0.1266(12) 0.8317(9) 0.3841(5)
C92A C 0.1145(12) 1.1880(9) 0.3987(5)
C93A C 0.0279(12) 1.2569(8) 0.4758(5)
N9A N 0.1711(13) 1.1918(8) 0.3285(5)
H39A H 0.2176 1.1740 0.3177
C94A C 0.0235(12) 1.2444(9) 0.5495(5)
C95A C 0.0112(12) 1.2820(9) 0.5148(5)
C96A C 0.0596(12) 1.0879(9) 0.3561(5)
C97A C -0.1218(18) 0.8812(10) 0.2606(6)
H40A H -0.0659 0.9043 0.2768
C98A C -0.1046(12) 0.9433(9) 0.3544(5)
C99A C 0.1131(13) 1.1553(9) 0.3619(5)
C100A C -0.1456(13) 0.8741(9) 0.3517(5)
C101A C -0.2061(18) 0.8453(10) 0.2796(6)
C102A C 0.025(2) 1.4050(11) 0.5402(7)
C103A C 0.112(2) 1.4158(11) 0.5579(7)
H41A H 0.1467 1.3796 0.5562
C104A C -0.2863(17) 0.8050(10) 0.2548(6)
H42A H -0.3445 0.7772 0.2666
C105A C 0.155(2) 1.2566(13) 0.3123(7)
C106A C 0.205(2) 1.3550(12) 0.2667(7)
H43A H 0.2480 1.3810 0.2470
C107A C -0.1183(17) 0.8838(10) 0.2176(6)
H44A H -0.0615 0.9110 0.2046
C108A C -0.1981(17) 0.8464(10) 0.1936(6)
H45A H -0.1973 0.8480 0.1644
C109A C 0.103(2) 1.5292(11) 0.5814(7)
H46A H 0.1302 1.5725 0.5953
C110A C -0.2731(17) 0.8094(10) 0.2128(6)
H47A H -0.3250 0.7822 0.1960
C111A C 0.004(2) 1.5167(11) 0.5624(6)
H48A H -0.0331 1.5515 0.5643
C112A C -0.033(2) 1.4583(11) 0.5430(6)
H49A H -0.0968 1.4499 0.5306
C113A C 0.080(2) 1.2836(12) 0.3253(7)
H50A H 0.0375 1.2597 0.3460
C114A C 0.220(2) 1.2921(12) 0.2820(6)
H51A H 0.2728 1.2735 0.2723
C115A C 0.061(2) 1.3447(12) 0.3096(7)
H52A H 0.0059 1.3613 0.3186
C116A C 0.121(2) 1.3789(12) 0.2824(7)
H53A H 0.1087 1.4213 0.2723
C117A C 0.157(2) 1.4772(10) 0.5792(6)
H54A H 0.2209 1.4839 0.5915
Cl19 Cl 0.4716(4) 1.1856(3) 0.65760(14)
Cl20 Cl 0.6921(4) 1.2198(3) 0.63807(14)
Cl21 Cl 0.3773(4) 0.9091(3) 0.67921(14)
Cl22 Cl 0.5753(4) 0.8649(3) 0.66801(15)
Cl23 Cl 0.4955(4) 0.6885(3) 0.53943(15)
Cl24 Cl 0.7229(4) 1.3154(3) 0.48445(16)
N10 N 0.4056(10) 1.0568(8) 0.7046(4)
H55 H 0.3630 1.0834 0.7038
N11 N 0.7602(11) 1.3211(9) 0.5745(5)
H56 H 0.8203 1.3257 0.5650
N12 N 0.5622(11) 0.7311(8) 0.6219(5)
H57 H 0.6269 0.7378 0.6222
C118 C 0.4823(13) 0.9436(10) 0.5268(5)
C119 C 0.5093(13) 1.0258(10) 0.5873(5)
C120 C 0.5245(13) 1.0941(10) 0.6022(5)
C121 C 0.5733(13) 1.1498(10) 0.5752(5)
C122 C 0.4709(13) 0.8856(10) 0.5541(5)
C123 C 0.5080(13) 1.0125(10) 0.5436(5)
C124 C 0.4468(13) 1.0462(10) 0.6666(6)
C125 C 0.4748(13) 0.9290(10) 0.4842(5)
C126 C 0.4887(13) 1.1050(10) 0.6417(5)
C127 C 0.6879(14) 1.2654(11) 0.5610(6)
C128 C 0.4207(17) 1.0325(12) 0.7424(7)
C129 C 0.5619(13) 1.1405(10) 0.5323(5)
C130 C 0.4878(13) 0.9681(10) 0.6144(5)
C131 C 0.5178(13) 0.8470(10) 0.6199(5)
C132 C 0.5177(13) 0.7806(10) 0.6018(5)
C133 C 0.5912(13) 1.1945(10) 0.5058(5)
C134 C 0.7432(19) 1.3713(13) 0.6027(7)
C135 C 0.4512(13) 0.8165(10) 0.5390(5)
C136 C 0.4827(13) 0.7660(10) 0.5627(5)
C137 C 0.6566(13) 1.2547(10) 0.5191(5)
C138 C 0.4892(13) 0.8980(10) 0.5976(5)
C139 C 0.6396(13) 1.2119(10) 0.5881(5)
C140 C 0.3622(16) 1.0330(12) 0.7747(6)
H58 H 0.3038 1.0491 0.7704
C141 C 0.506(2) 0.6735(14) 0.6405(9)
C142 C 0.4449(13) 0.9795(10) 0.6527(5)
C143 C 0.8226(19) 1.4163(14) 0.6221(7)
H59 H 0.8873 1.4105 0.6171
C144 C 0.8111(19) 1.4693(12) 0.6482(7)
H60 H 0.8669 1.5012 0.6602
C145 C 0.6527(18) 1.3803(12) 0.6119(7)
H61 H 0.5965 1.3503 0.5989
C146 C 0.403(2) 0.6527(13) 0.6392(8)
H62 H 0.3673 0.6806 0.6244
C147 C 0.3796(16) 1.0127(12) 0.8125(6)
H63 H 0.3348 1.0160 0.8339
C148 C 0.552(2) 0.6325(12) 0.6644(8)
H64 H 0.6226 0.6429 0.6648
C149 C 0.5036(16) 1.0055(12) 0.7497(6)
H65 H 0.5463 1.0023 0.7275
C150 C 0.6383(18) 1.4308(14) 0.6392(8)
H66 H 0.5736 1.4350 0.6458
C151 C 0.4628(16) 0.9865(12) 0.8214(6)
H67 H 0.4749 0.9718 0.8484
C152 C 0.5263(16) 0.9828(12) 0.7895(6)
H68 H 0.5837 0.9655 0.7939
C153 C 0.500(2) 0.5758(13) 0.6883(8)
H69 H 0.5337 0.5521 0.7070
C154 C 0.720(3) 1.4750(15) 0.6564(7)
H70 H 0.7115 1.5110 0.6749
C155 C 0.353(2) 0.5966(13) 0.6572(8)
H71 H 0.2830 0.5822 0.6528
C156 C 0.400(2) 0.5573(13) 0.6830(8)
H72 H 0.3623 0.5178 0.6968
Cl19A Cl 0.5284(4) 0.8144(3) 0.34240(14)
Cl20A Cl 0.3079(4) 0.7802(3) 0.36193(14)
Cl21A Cl 0.6227(4) 1.0909(3) 0.32079(14)
Cl22A Cl 0.4247(4) 1.1351(3) 0.33199(15)
Cl23A Cl 0.5045(4) 1.3115(3) 0.46057(15)
Cl24A Cl 0.2771(4) 0.6846(3) 0.51555(16)
N10A N 0.5944(10) 0.9432(8) 0.2954(4)
H55A H 0.6370 0.9166 0.2962
N11A N 0.2398(11) 0.6789(9) 0.4255(5)
H56A H 0.1797 0.6743 0.4350
N12A N 0.4378(11) 1.2689(8) 0.3781(5)
H57A H 0.3731 1.2622 0.3778
C118A C 0.5177(13) 1.0564(10) 0.4732(5)
C119A C 0.4907(13) 0.9742(10) 0.4127(5)
C120A C 0.4755(13) 0.9059(10) 0.3978(5)
C121A C 0.4267(13) 0.8502(10) 0.4248(5)
C122A C 0.5291(13) 1.1144(10) 0.4459(5)
C123A C 0.4920(13) 0.9875(10) 0.4564(5)
C124A C 0.5532(13) 0.9538(10) 0.3334(6)
C125A C 0.5252(13) 1.0710(10) 0.5158(5)
C126A C 0.5113(13) 0.8950(10) 0.3583(5)
C127A C 0.3121(14) 0.7346(11) 0.4390(6)
C128A C 0.5793(17) 0.9675(12) 0.2576(7)
C129A C 0.4381(13) 0.8595(10) 0.4677(5)
C130A C 0.5122(13) 1.0319(10) 0.3856(5)
C131A C 0.4822(13) 1.1530(10) 0.3801(5)
C132A C 0.4823(13) 1.2194(10) 0.3982(5)
C133A C 0.4088(13) 0.8055(10) 0.4942(5)
C134A C 0.2568(19) 0.6287(13) 0.3973(7)
C135A C 0.5488(13) 1.1835(10) 0.4610(5)
C136A C 0.5173(13) 1.2340(10) 0.4373(5)
C137A C 0.3434(13) 0.7453(10) 0.4809(5)
C138A C 0.5108(13) 1.1020(10) 0.4024(5)
C139A C 0.3604(13) 0.7881(10) 0.4119(5)
C140A C 0.6378(16) 0.9670(12) 0.2253(6)
H58A H 0.6962 0.9509 0.2296
C141A C 0.494(2) 1.3265(14) 0.3595(9)
C142A C 0.5551(13) 1.0205(10) 0.3473(5)
C143A C 0.1774(19) 0.5837(14) 0.3779(7)
H59A H 0.1127 0.5895 0.3829
C144A C 0.1889(19) 0.5307(12) 0.3518(7)
H60A H 0.1331 0.4988 0.3398
C145A C 0.3473(18) 0.6197(12) 0.3881(7)
H61A H 0.4035 0.6497 0.4011
C146A C 0.597(2) 1.3473(13) 0.3608(8)
H62A H 0.6327 1.3194 0.3756
C147A C 0.6204(16) 0.9873(12) 0.1875(6)
H63A H 0.6652 0.9840 0.1661
C148A C 0.448(2) 1.3675(12) 0.3356(8)
H64A H 0.3774 1.3571 0.3352
C149A C 0.4964(16) 0.9945(12) 0.2503(6)
H65A H 0.4537 0.9977 0.2725
C150A C 0.3617(18) 0.5692(14) 0.3608(8)
H66A H 0.4264 0.5650 0.3542
C151A C 0.5372(16) 1.0135(12) 0.1786(6)
H67A H 0.5251 1.0282 0.1516
C152A C 0.4737(16) 1.0172(12) 0.2105(6)
H68A H 0.4163 1.0345 0.2061
C153A C 0.500(2) 1.4242(13) 0.3117(8)
H69A H 0.4663 1.4479 0.2930
C154A C 0.280(3) 0.5250(15) 0.3436(7)
H70A H 0.2885 0.4890 0.3251
C155A C 0.647(2) 1.4034(13) 0.3428(8)
H71A H 0.7170 1.4178 0.3472
C156A C 0.600(2) 1.4427(13) 0.3170(8)
H72A H 0.6377 1.4822 0.3032
S1 S -0.2462(4) 0.5009(3) 1.07732(19)
S2 S -0.2011(4) 0.6023(3) 0.99912(19)
S3 S -0.3158(4) 0.3782(3) 1.02162(19)
S4 S -0.2595(4) 0.4777(3) 0.94208(19)
C157 C -0.2442(14) 0.5105(12) 0.9940(7)
C158 C -0.2665(15) 0.4669(12) 1.0281(7)
C159 C -0.1876(14) 0.6123(13) 0.9524(6)
H73 H -0.1607 0.6587 0.9436
C160 C -0.2097(14) 0.5628(12) 0.9230(7)
H74 H -0.1997 0.5721 0.8945
C161 C -0.2932(14) 0.4166(12) 1.1004(7)
H75 H -0.2973 0.4104 1.1293
C162 C -0.3212(14) 0.3648(13) 1.0738(6)
H76 H -0.3451 0.3186 1.0836
S5 S -0.2893(4) 0.4398(3) 0.76086(18)
S6 S -0.2919(7) 0.3852(4) 0.8484(2)
C163 C -0.2907(15) 0.4127(11) 0.8047(6)
S7 S 0.0770(6) 0.9442(3) 0.8449(2)
S8 S 0.0626(6) 1.0716(4) 0.9004(2)
C164 C 0.0686(17) 1.0076(12) 0.8733(7)
S9 S 0.0838(6) 0.4997(4) 0.6986(2)
S10 S 0.1636(9) 0.6341(5) 0.7500(3)
C165 C 0.126(2) 0.5637(16) 0.7235(8)
S11 S -0.0400(6) 0.9101(4) 0.9657(3)
S12 S -0.0944(8) 0.7834(5) 1.0212(3)
C166 C -0.059(2) 0.8499(14) 0.9965(8)
S13 S -0.2542(8) 0.9632(6) 0.5844(4)
S14 S -0.2919(8) 0.8687(6) 0.5092(4)
S15 S -0.2099(8) 1.0896(6) 0.5428(4)
S16 S -0.2596(8) 0.9853(6) 0.4510(4)
C167 C -0.300(2) 0.9002(11) 0.4319(7)
H77 H -0.3084 0.8929 0.4029
C168 C -0.261(3) 0.9593(9) 0.5026(5)
C169 C -0.250(3) 1.0016(10) 0.5381(5)
C170 C -0.197(2) 1.0990(13) 0.5954(6)
H78 H -0.1707 1.1432 0.6086
C171 C -0.225(2) 1.0395(12) 0.6168(6)
H79 H -0.2290 1.0384 0.6460
C172 C -0.319(2) 0.8443(12) 0.4563(6)
H80 H -0.3446 0.7975 0.4466
S17 S 0.2092(8) 0.8470(6) 0.5878(4)
S18 S 0.1966(8) 0.7366(7) 0.6555(4)
C173 C 0.204(2) 0.7909(15) 0.6230(8)
loop_
_geom_bond_atom_site_label_1
_geom_bond_atom_site_label_2
_geom_bond_site_symmetry_1
_geom_bond_site_symmetry_2
Cl1 C9 1_555 1_555
Cl2 C17 1_555 1_555
Cl3 C18 1_555 1_555
Cl4 C23 1_555 1_555
Cl5 C22 1_555 1_555
Cl6 C20 1_555 1_555
N1 H1 1_555 1_555
C1 C4 1_555 1_555
N2 H2 1_555 1_555
C2 C11 1_555 1_555
C3 C4 1_555 1_555
C4 C13A 1_555 1_555
N3 H3 1_555 1_555
C5 N1 1_555 1_555
C6 C8 1_555 1_555
C7 C3 1_555 1_555
C8 C1 1_555 1_555
C9 C5 1_555 1_555
C10 C7 1_555 1_555
C11 C14 1_555 1_555
C12 C6 1_555 1_555
C13 C1 1_555 1_555
C14 C12 1_555 1_555
C15 N3 1_555 1_555
C16 N2 1_555 1_555
C17 C6 1_555 1_555
C18 C10 1_555 1_555
C19 N1 1_555 1_555
C20 C11 1_555 1_555
C21 C19 1_555 1_555
H4 C21 1_555 1_555
C22 C5 1_555 1_555
C23 C12 1_555 1_555
C24 N2 1_555 1_555
C25 H5 1_555 1_555
C26 N3 1_555 1_555
C27 C21 1_555 1_555
H6 C27 1_555 1_555
C28 C24 1_555 1_555
H7 C28 1_555 1_555
C29 C19 1_555 1_555
H8 C29 1_555 1_555
C30 C28 1_555 1_555
H9 C30 1_555 1_555
C31 C27 1_555 1_555
H10 C31 1_555 1_555
C32 C25 1_555 1_555
H11 C32 1_555 1_555
C33 C24 1_555 1_555
H12 C33 1_555 1_555
C34 C26 1_555 1_555
H13 C34 1_555 1_555
C35 C34 1_555 1_555
H14 C35 1_555 1_555
C36 C30 1_555 1_555
H15 C36 1_555 1_555
C37 C29 1_555 1_555
H16 C37 1_555 1_555
C38 C32 1_555 1_555
H17 C38 1_555 1_555
C39 C33 1_555 1_555
H18 C39 1_555 1_555
Cl7 C53 1_555 1_555
Cl8 C51 1_555 1_555
Cl9 C55 1_555 1_555
Cl10 C58 1_555 1_555
Cl11 C57 1_555 1_555
Cl12 C54 1_555 1_555
C40 C43 1_555 1_555
C41 C47 1_555 1_555
C42 C44 1_555 1_555
N4 H19 1_555 1_555
C43 C44A 1_555 1_555
C44 C40 1_555 1_555
C45 C42 1_555 1_555
C46 C49 1_555 1_555
N5 H20 1_555 1_555
C47 C49 1_555 1_555
C48 C41 1_555 1_555
C49 C51 1_555 1_555
C50 C42 1_555 1_555
C51 C56 1_555 1_555
N6 H21 1_555 1_555
C52 N4 1_555 1_555
C53 C47 1_555 1_555
C54 C45 1_555 1_555
C55 C50 1_555 1_555
C56 N6 1_555 1_555
C57 C56 1_555 1_555
C58 C48 1_555 1_555
C59 C46 1_555 1_555
C60 N4 1_555 1_555
C61 N5 1_555 1_555
C62 N5 1_555 1_555
C63 C62 1_555 1_555
H22 C63 1_555 1_555
C64 C52 1_555 1_555
H23 C64 1_555 1_555
C65 H24 1_555 1_555
C66 C64 1_555 1_555
H25 C66 1_555 1_555
C67 N6 1_555 1_555
C68 C67 1_555 1_555
H26 C68 1_555 1_555
C69 C68 1_555 1_555
H27 C69 1_555 1_555
C70 H28 1_555 1_555
C71 C62 1_555 1_555
H29 C71 1_555 1_555
C72 C70 1_555 1_555
H30 C72 1_555 1_555
C73 C65 1_555 1_555
H31 C73 1_555 1_555
C74 C52 1_555 1_555
H32 C74 1_555 1_555
C75 C63 1_555 1_555
H33 C75 1_555 1_555
C76 C67 1_555 1_555
H34 C76 1_555 1_555
C77 C69 1_555 1_555
H35 C77 1_555 1_555
C78 C76 1_555 1_555
H36 C78 1_555 1_555
Cl13 C96 1_555 1_555
Cl14 C98 1_555 1_555
Cl15 C92 1_555 1_555
Cl16 C93 1_555 1_555
Cl17 C91 1_555 1_555
Cl18 C94 1_555 1_555
C79 C80 1_555 1_555
C80 C83 1_555 1_555
C81 C84 1_555 1_555
C82 C83 1_555 1_555
C83 C84 1_555 1_555
C84 C80A 1_555 1_555
C85 C82 1_555 1_555
C86 C81 1_555 1_555
C87 C79 1_555 1_555
N7 H37 1_555 1_555
C88 C82 1_555 1_555
C89 C81 1_555 1_555
N8 H38 1_555 1_555
C90 C79 1_555 1_555
C91 C86 1_555 1_555
C92 C85 1_555 1_555
C93 C87 1_555 1_555
N9 H39 1_555 1_555
C94 C90 1_555 1_555
C95 N8 1_555 1_555
C96 C88 1_555 1_555
C97 H40 1_555 1_555
C98 C89 1_555 1_555
C99 C92 1_555 1_555
C100 N7 1_555 1_555
C101 N7 1_555 1_555
C102 N8 1_555 1_555
C103 C102 1_555 1_555
H41 C103 1_555 1_555
C104 C101 1_555 1_555
H42 C104 1_555 1_555
C105 N9 1_555 1_555
C106 H43 1_555 1_555
C107 C97 1_555 1_555
H44 C107 1_555 1_555
C108 C107 1_555 1_555
H45 C108 1_555 1_555
C109 H46 1_555 1_555
C110 C104 1_555 1_555
H47 C110 1_555 1_555
C111 C109 1_555 1_555
H48 C111 1_555 1_555
C112 C102 1_555 1_555
H49 C112 1_555 1_555
C113 C105 1_555 1_555
H50 C113 1_555 1_555
C114 C105 1_555 1_555
H51 C114 1_555 1_555
C115 C113 1_555 1_555
H52 C115 1_555 1_555
C116 C106 1_555 1_555
H53 C116 1_555 1_555
C117 C103 1_555 1_555
H54 C117 1_555 1_555
Cl19 C126 1_555 1_555
Cl20 C139 1_555 1_555
Cl21 C142 1_555 1_555
Cl22 C131 1_555 1_555
Cl23 C136 1_555 1_555
Cl24 C137 1_555 1_555
N10 H55 1_555 1_555
N11 H56 1_555 1_555
N12 H57 1_555 1_555
C118 C122 1_555 1_555
C119 C120 1_555 1_555
C120 C121 1_555 1_555
C121 C129 1_555 1_555
C122 C135 1_555 1_555
C123 C118 1_555 1_555
C124 N10 1_555 1_555
C125 C118 1_555 1_555
C126 C120 1_555 1_555
C127 N11 1_555 1_555
C128 N10 1_555 1_555
C129 C133 1_555 1_555
C130 C119 1_555 1_555
C131 C132 1_555 1_555
C132 N12 1_555 1_555
C133 C137 1_555 1_555
C134 N11 1_555 1_555
C135 C136 1_555 1_555
C136 C132 1_555 1_555
C137 C127 1_555 1_555
C138 C122 1_555 1_555
C139 C121 1_555 1_555
C140 C128 1_555 1_555
H58 C140 1_555 1_555
C141 N12 1_555 1_555
C142 C124 1_555 1_555
C143 C134 1_555 1_555
H59 C143 1_555 1_555
C144 C143 1_555 1_555
H60 C144 1_555 1_555
C145 C134 1_555 1_555
H61 C145 1_555 1_555
C146 C141 1_555 1_555
H62 C146 1_555 1_555
C147 C140 1_555 1_555
H63 C147 1_555 1_555
C148 C141 1_555 1_555
H64 C148 1_555 1_555
C149 C128 1_555 1_555
H65 C149 1_555 1_555
C150 C145 1_555 1_555
H66 C150 1_555 1_555
C151 C147 1_555 1_555
H67 C151 1_555 1_555
C152 C149 1_555 1_555
H68 C152 1_555 1_555
C153 C148 1_555 1_555
H69 C153 1_555 1_555
C154 C144 1_555 1_555
H70 C154 1_555 1_555
C155 C146 1_555 1_555
H71 C155 1_555 1_555
C156 C153 1_555 1_555
H72 C156 1_555 1_555
S1 C158 1_555 1_555
S2 C157 1_555 1_555
S3 C158 1_555 1_555
S4 C157 1_555 1_555
C157 C158 1_555 1_555
C159 S2 1_555 1_555
H73 C159 1_555 1_555
C160 S4 1_555 1_555
H74 C160 1_555 1_555
C161 S1 1_555 1_555
H75 C161 1_555 1_555
C162 S3 1_555 1_555
H76 C162 1_555 1_555
S5 C163 1_555 1_555
S6 C163 1_555 1_555
S7 C164 1_555 1_555
S8 C164 1_555 1_555
S9 C165 1_555 1_555
S10 C165 1_555 1_555
S11 C166 1_555 1_555
S12 C166 1_555 1_555
S13 C169 1_555 1_555
S14 C168 1_555 1_555
S15 C169 1_555 1_555
S16 C167 1_555 1_555
C167 H77 1_555 1_555
C168 S16 1_555 1_555
C169 C168 1_555 1_555
C170 S15 1_555 1_555
H78 C170 1_555 1_555
C171 S13 1_555 1_555
H79 C171 1_555 1_555
C172 S14 1_555 1_555
H80 C172 1_555 1_555
S17 C173 1_555 1_555
S18 C173 1_555 1_555
Cl1A C9A 1_555 1_555
Cl2A C17A 1_555 1_555
Cl3A C18A 1_555 1_555
Cl4A C23A 1_555 1_555
Cl5A C22A 1_555 1_555
Cl6A C20A 1_555 1_555
N1A H1A 1_555 1_555
C1A C4A 1_555 1_555
N2A H2A 1_555 1_555
C2A C3 1_555 1_555
C3A C2 1_555 1_555
C4A C13 1_555 1_555
N3A H3A 1_555 1_555
C5A N1A 1_555 1_555
C6A C8A 1_555 1_555
C7A C3A 1_555 1_555
C8A C1A 1_555 1_555
C9A C5A 1_555 1_555
C10A C7A 1_555 1_555
C11A C2A 1_555 1_555
C12A C6A 1_555 1_555
C13A C1A 1_555 1_555
C14A C11A 1_555 1_555
C15A N3A 1_555 1_555
C16A N2A 1_555 1_555
C17A C6A 1_555 1_555
C18A C10A 1_555 1_555
C19A N1A 1_555 1_555
C20A C11A 1_555 1_555
C21A C19A 1_555 1_555
H4A C21A 1_555 1_555
C22A C2 1_555 1_555
C23A C12A 1_555 1_555
C24A N2A 1_555 1_555
C25A H5A 1_555 1_555
C26A N3A 1_555 1_555
C27A C21A 1_555 1_555
H6A C27A 1_555 1_555
C28A C24A 1_555 1_555
H7A C28A 1_555 1_555
C29A C19A 1_555 1_555
H8A C29A 1_555 1_555
C30A C28A 1_555 1_555
H9A C30A 1_555 1_555
C31A C27A 1_555 1_555
H10A C31A 1_555 1_555
C32A C25A 1_555 1_555
H11A C32A 1_555 1_555
C33A C24A 1_555 1_555
H12A C33A 1_555 1_555
C34A C26A 1_555 1_555
H13A C34A 1_555 1_555
C35A C34A 1_555 1_555
H14A C35A 1_555 1_555
C36A C30A 1_555 1_555
H15A C36A 1_555 1_555
C37A C29A 1_555 1_555
H16A C37A 1_555 1_555
C38A C32A 1_555 1_555
H17A C38A 1_555 1_555
C39A C33A 1_555 1_555
H18A C39A 1_555 1_555
Cl7A C53A 1_555 1_555
Cl8A C51A 1_555 1_555
Cl9A C55A 1_555 1_555
Cl10A C58A 1_555 1_555
Cl11A C57A 1_555 1_555
Cl12A C54A 1_555 1_555
C40A C41 1_555 1_555
C41A C40 1_555 1_555
C42A C44A 1_555 1_555
N4A H19A 1_555 1_555
C43A C44 1_555 1_555
C44A C40A 1_555 1_555
C45A C48 1_555 1_555
C46A C43 1_555 1_555
N5A H20A 1_555 1_555
C47A C41A 1_555 1_555
C48A C45 1_555 1_555
C49A C46A 1_555 1_555
C50A C42A 1_555 1_555
C51A C49A 1_555 1_555
N6A H21A 1_555 1_555
C52A N4A 1_555 1_555
C53A C47A 1_555 1_555
C54A C45A 1_555 1_555
C55A C50A 1_555 1_555
C56A C51A 1_555 1_555
C57A C56A 1_555 1_555
C58A C48A 1_555 1_555
C59A C46A 1_555 1_555
C60A N4A 1_555 1_555
C61A N5A 1_555 1_555
C62A N5A 1_555 1_555
C63A C62A 1_555 1_555
H22A C63A 1_555 1_555
C64A C52A 1_555 1_555
H23A C64A 1_555 1_555
C65A H24A 1_555 1_555
C66A C64A 1_555 1_555
H25A C66A 1_555 1_555
C67A N6A 1_555 1_555
C68A C67A 1_555 1_555
H26A C68A 1_555 1_555
C69A C68A 1_555 1_555
H27A C69A 1_555 1_555
C70A H28A 1_555 1_555
C71A C62A 1_555 1_555
H29A C71A 1_555 1_555
C72A C70A 1_555 1_555
H30A C72A 1_555 1_555
C73A C65A 1_555 1_555
H31A C73A 1_555 1_555
C74A C52A 1_555 1_555
H32A C74A 1_555 1_555
C75A C63A 1_555 1_555
H33A C75A 1_555 1_555
C76A C67A 1_555 1_555
H34A C76A 1_555 1_555
C77A C69A 1_555 1_555
H35A C77A 1_555 1_555
C78A C76A 1_555 1_555
H36A C78A 1_555 1_555
Cl13A C96A 1_555 1_555
Cl14A C98A 1_555 1_555
Cl15A C92A 1_555 1_555
Cl16A C93A 1_555 1_555
Cl17A C91A 1_555 1_555
Cl18A C94A 1_555 1_555
C79A C80A 1_555 1_555
C80A C83A 1_555 1_555
C81A C84A 1_555 1_555
C82A C83A 1_555 1_555
C83A C84A 1_555 1_555
C84A C80 1_555 1_555
C85A C82A 1_555 1_555
C86A C90 1_555 1_555
C87A C79A 1_555 1_555
N7A H37A 1_555 1_555
C88A C82A 1_555 1_555
C89A C81A 1_555 1_555
N8A H38A 1_555 1_555
C90A C86 1_555 1_555
C91A C86A 1_555 1_555
C92A C85A 1_555 1_555
C93A C87A 1_555 1_555
N9A H39A 1_555 1_555
C94A C90A 1_555 1_555
C95A N8A 1_555 1_555
C96A C88A 1_555 1_555
C97A H40A 1_555 1_555
C98A C89A 1_555 1_555
C99A C92A 1_555 1_555
C100A N7A 1_555 1_555
C101A N7A 1_555 1_555
C102A N8A 1_555 1_555
C103A C102A 1_555 1_555
H41A C103A 1_555 1_555
C104A C101A 1_555 1_555
H42A C104A 1_555 1_555
C105A N9A 1_555 1_555
C106A H43A 1_555 1_555
C107A C97A 1_555 1_555
H44A C107A 1_555 1_555
C108A C107A 1_555 1_555
H45A C108A 1_555 1_555
C109A H46A 1_555 1_555
C110A C104A 1_555 1_555
H47A C110A 1_555 1_555
C111A C109A 1_555 1_555
H48A C111A 1_555 1_555
C112A C102A 1_555 1_555
H49A C112A 1_555 1_555
C113A C105A 1_555 1_555
H50A C113A 1_555 1_555
C114A C105A 1_555 1_555
H51A C114A 1_555 1_555
C115A C113A 1_555 1_555
H52A C115A 1_555 1_555
C116A C106A 1_555 1_555
H53A C116A 1_555 1_555
C117A C103A 1_555 1_555
H54A C117A 1_555 1_555
Cl19A C126A 1_555 1_555
Cl20A C139A 1_555 1_555
Cl21A C142A 1_555 1_555
Cl22A C131A 1_555 1_555
Cl23A C136A 1_555 1_555
Cl24A C137A 1_555 1_555
N10A H55A 1_555 1_555
N11A H56A 1_555 1_555
N12A H57A 1_555 1_555
C118A C122A 1_555 1_555
C119A C120A 1_555 1_555
C120A C121A 1_555 1_555
C121A C129A 1_555 1_555
C122A C135A 1_555 1_555
C123A C125 1_555 1_555
C124A N10A 1_555 1_555
C125A C123 1_555 1_555
C126A C120A 1_555 1_555
C127A N11A 1_555 1_555
C128A N10A 1_555 1_555
C129A C125 1_555 1_555
C130A C119A 1_555 1_555
C131A C132A 1_555 1_555
C132A N12A 1_555 1_555
C133A C135 1_555 1_555
C134A N11A 1_555 1_555
C135A C133 1_555 1_555
C136A C132A 1_555 1_555
C137A C127A 1_555 1_555
C138A C122A 1_555 1_555
C139A C121A 1_555 1_555
C140A C128A 1_555 1_555
H58A C140A 1_555 1_555
C141A N12A 1_555 1_555
C142A C124A 1_555 1_555
C143A C134A 1_555 1_555
H59A C143A 1_555 1_555
C144A C143A 1_555 1_555
H60A C144A 1_555 1_555
C145A C134A 1_555 1_555
H61A C145A 1_555 1_555
C146A C141A 1_555 1_555
H62A C146A 1_555 1_555
C147A C140A 1_555 1_555
H63A C147A 1_555 1_555
C148A C141A 1_555 1_555
H64A C148A 1_555 1_555
C149A C128A 1_555 1_555
H65A C149A 1_555 1_555
C150A C145A 1_555 1_555
H66A C150A 1_555 1_555
C151A C147A 1_555 1_555
H67A C151A 1_555 1_555
C152A C149A 1_555 1_555
H68A C152A 1_555 1_555
C153A C148A 1_555 1_555
H69A C153A 1_555 1_555
C154A C144A 1_555 1_555
H70A C154A 1_555 1_555
C155A C146A 1_555 1_555
H71A C155A 1_555 1_555
C156A C153A 1_555 1_555
H72A C156A 1_555 1_555
C7 C9 1_555 1_555
C8 C10 1_555 1_555
C13 C14 1_555 1_555
C15 C17 1_555 1_555
C15 C18 1_555 1_555
C16 C20 1_555 1_555
C16 C23 1_555 1_555
C22 C2A 1_555 1_555
C25 C26 1_555 1_555
C31 C37 1_555 1_555
C35 C38 1_555 1_555
C36 C39 1_555 1_555
C46 C43A 1_555 1_555
C50 C59 1_555 1_555
C53 C60 1_555 1_555
C54 C61 1_555 1_555
C55 C61 1_555 1_555
C57 C59 1_555 1_555
C58 C60 1_555 1_555
C65 C66 1_555 1_555
C70 C71 1_555 1_555
C72 C75 1_555 1_555
C73 C74 1_555 1_555
C77 C78 1_555 1_555
C85 C87 1_555 1_555
C88 C89 1_555 1_555
C91 C100 1_555 1_555
C93 C95 1_555 1_555
N9 C99 1_555 1_555
C94 C95 1_555 1_555
C96 C99 1_555 1_555
C97 C101 1_555 1_555
C98 C100 1_555 1_555
C106 C114 1_555 1_555
C108 C110 1_555 1_555
C109 C117 1_555 1_555
C111 C112 1_555 1_555
C115 C116 1_555 1_555
C119 C123 1_555 1_555
C124 C126 1_555 1_555
C127 C139 1_555 1_555
C129 C125A 1_555 1_555
C130 C138 1_555 1_555
C130 C142 1_555 1_555
C131 C138 1_555 1_555
C150 C154 1_555 1_555
C151 C152 1_555 1_555
C155 C156 1_555 1_555
C159 C160 1_555 1_555
C161 C162 1_555 1_555
C167 C172 1_555 1_555
C170 C171 1_555 1_555
C3A C4A 1_555 1_555
C5A C22A 1_555 1_555
C7A C9A 1_555 1_555
C8A C10A 1_555 1_555
C12A C14A 1_555 1_555
C13A C14A 1_555 1_555
C15A C17A 1_555 1_555
C15A C18A 1_555 1_555
C16A C20A 1_555 1_555
C16A C23A 1_555 1_555
C25A C26A 1_555 1_555
C31A C37A 1_555 1_555
C35A C38A 1_555 1_555
C36A C39A 1_555 1_555
C40A C43A 1_555 1_555
C41A C48A 1_555 1_555
C42A C45A 1_555 1_555
C47A C49A 1_555 1_555
C50A C59A 1_555 1_555
N6A C56A 1_555 1_555
C53A C60A 1_555 1_555
C54A C61A 1_555 1_555
C55A C61A 1_555 1_555
C57A C59A 1_555 1_555
C58A C60A 1_555 1_555
C65A C66A 1_555 1_555
C70A C71A 1_555 1_555
C72A C75A 1_555 1_555
C73A C74A 1_555 1_555
C77A C78A 1_555 1_555
C79A C90A 1_555 1_555
C81A C86A 1_555 1_555
C85A C87A 1_555 1_555
C88A C89A 1_555 1_555
C91A C100A 1_555 1_555
C93A C95A 1_555 1_555
N9A C99A 1_555 1_555
C94A C95A 1_555 1_555
C96A C99A 1_555 1_555
C97A C101A 1_555 1_555
C98A C100A 1_555 1_555
C106A C114A 1_555 1_555
C108A C110A 1_555 1_555
C109A C117A 1_555 1_555
C111A C112A 1_555 1_555
C115A C116A 1_555 1_555
C118A C123A 1_555 1_555
C118A C125A 1_555 1_555
C119A C123A 1_555 1_555
C124A C126A 1_555 1_555
C127A C139A 1_555 1_555
C129A C133A 1_555 1_555
C130A C138A 1_555 1_555
C130A C142A 1_555 1_555
C131A C138A 1_555 1_555
C133A C137A 1_555 1_555
C135A C136A 1_555 1_555
C150A C154A 1_555 1_555
C151A C152A 1_555 1_555
C155A C156A 1_555 1_555

#END
