
#######################################################################
#
#                 Cambridge Crystallographic Data Centre
#                                CCDC 
#
#######################################################################
#
# If this CIF has been generated from an entry in the Cambridge 
# Structural Database, then it will include bibliographic, chemical, 
# crystal, experimental, refinement or atomic coordinate data resulting 
# from the CCDC's data processing and validation procedures.
#
#######################################################################

data_VEXVAY
_chemical_formula_moiety         'C102 H84 Cl12 N6'
_chemical_name_systematic        
N^2^,N^5^,N^8^,N^11^,N^14^,N^17^-hexakis(4-butylphenyl)-1,3,4,6,7,9,10,12,13,15,16,18-dodecachlorohexabenzo[bc,ef,hi,kl,no,qr]coronene-2,5,8,11,14,17-hexamine
_symmetry_cell_setting           rhombohedral
_symmetry_space_group_name_H-M   'R -3'
_symmetry_Int_Tables_number      148
_space_group_name_Hall           '-R 3'
loop_
_symmetry_equiv_pos_site_id
_symmetry_equiv_pos_as_xyz
1 x,y,z
2 -y,x-y,z
3 -x+y,-x,z
4 2/3+x,1/3+y,1/3+z
5 2/3-y,1/3+x-y,1/3+z
6 2/3-x+y,1/3-x,1/3+z
7 1/3+x,2/3+y,2/3+z
8 1/3-y,2/3+x-y,2/3+z
9 1/3-x+y,2/3-x,2/3+z
10 -x,-y,-z
11 y,-x+y,-z
12 x-y,x,-z
13 1/3-x,2/3-y,2/3-z
14 1/3+y,2/3-x+y,2/3-z
15 1/3+x-y,2/3+x,2/3-z
16 2/3-x,1/3-y,1/3-z
17 2/3+y,1/3-x+y,1/3-z
18 2/3+x-y,1/3+x,1/3-z
_cell_length_a                   20.7857(12)
_cell_length_b                   20.7857(12)
_cell_length_c                   16.9210(15)
_cell_angle_alpha                90
_cell_angle_beta                 90
_cell_angle_gamma                120
_cell_volume                     6331.2
_exptl_crystal_colour            'dark red'
_exptl_crystal_description       cube
_cell_formula_units_Z            3
loop_
_atom_site_label
_atom_site_type_symbol
_atom_site_fract_x
_atom_site_fract_y
_atom_site_fract_z
Cl1 Cl 0.39472(4) 0.36658(4) 0.42882(4)
Cl2 Cl 0.33442(3) 0.08852(4) 0.40932(4)
N1 N 0.29686(13) 0.20541(13) 0.42998(15)
H1 H 0.2862 0.1830 0.4762
C1 C 0.46083(15) 0.20206(16) 0.34378(17)
C2 C 0.17617(17) 0.19596(18) 0.4292(2)
H2 H 0.1676 0.1748 0.4805
C3 C 0.20006(17) 0.25853(18) 0.2809(2)
H3 H 0.2091 0.2805 0.2299
C4 C 0.12237(17) 0.20583(18) 0.3926(2)
H4 H 0.0766 0.1900 0.4191
C5 C 0.25379(16) 0.24760(17) 0.31591(18)
H5 H 0.2986 0.2612 0.2883
C6 C 0.36708(15) 0.22942(16) 0.39553(18)
C7 C 0.39072(15) 0.17935(15) 0.37630(18)
C8 C 0.41624(15) 0.30510(16) 0.38320(17)
C9 C 0.48548(15) 0.33059(15) 0.34669(17)
C10 C 0.51045(15) 0.27939(15) 0.33811(17)
C11 C 0.02433(19) 0.18595(19) 0.2223(2)
H6 H -0.0051 0.2017 0.1900
H7 H 0.0562 0.1768 0.1858
C12 C 0.13285(16) 0.23806(17) 0.3184(2)
C13 C 0.58955(15) 0.30673(15) 0.33266(18)
C14 C 0.24319(15) 0.21707(16) 0.39066(18)
C15 C 0.07386(18) 0.24889(19) 0.2783(2)
H8 H 0.0984 0.2961 0.2483
H9 H 0.0424 0.2534 0.3193
C16 C -0.0765(2) 0.0527(2) 0.2058(2)
H10 H -0.0447 0.0435 0.1703
H11 H -0.1064 0.0679 0.1748
H12 H -0.1094 0.0071 0.2350
C17 C -0.02833(19) 0.11398(19) 0.2639(2)
H13 H -0.0607 0.1226 0.3000
H14 H 0.0008 0.0978 0.2961
Cl1M Cl 0.69991(4) 0.63853(6) 0.23785(4)
Cl2M Cl 0.42185(4) 0.42077(5) 0.25735(4)
N1M N 0.53874(13) 0.57522(18) 0.23669(15)
H1M H 0.5163 0.5635 0.1905
C1M C 0.53539(16) 0.40790(22) 0.32289(17)
C2M C 0.52929(18) 0.68646(25) 0.2375(2)
H2M H 0.5081 0.6739 0.1862
C3M C 0.59186(18) 0.72514(25) 0.3858(2)
H3M H 0.6138 0.7381 0.4368
C4M C 0.53916(18) 0.75013(25) 0.2741(2)
H4M H 0.5233 0.7801 0.2476
C5M C 0.58093(17) 0.66048(23) 0.35076(18)
H5M H 0.5945 0.6293 0.3784
C6M C 0.56275(16) 0.52901(22) 0.27114(18)
C7M C 0.51268(15) 0.45530(21) 0.29037(18)
C8M C 0.63843(16) 0.55553(22) 0.28347(17)
C9M C 0.66392(15) 0.51178(21) 0.31998(17)
C10M C 0.61272(15) 0.43561(21) 0.32856(17)
C11M C 0.51928(19) 0.82829(27) 0.4444(2)
H6M H 0.5350 0.8735 0.4767
H7M H 0.5101 0.7873 0.4809
C12M C 0.57139(17) 0.77188(23) 0.3483(2)
C13M C 0.64006(15) 0.38385(21) 0.33401(18)
C14M C 0.55040(16) 0.64055(22) 0.27601(18)
C15M C 0.58222(19) 0.84170(26) 0.3884(2)
H8M H 0.6294 0.8644 0.4184
H9M H 0.5867 0.8777 0.3474
C16M C 0.3860(2) 0.7959(3) 0.4609(2)
H10M H 0.3768 0.7549 0.4964
H11M H 0.4012 0.8410 0.4919
H12M H 0.3404 0.7832 0.4317
C17M C 0.44731(19) 0.80898(27) 0.4028(2)
H13M H 0.4559 0.8500 0.3667
H14M H 0.4311 0.7637 0.3706
Cl1N Cl 0.36147(6) 0.06139(4) 0.23785(4)
Cl2N Cl 0.57923(5) 0.00109(3) 0.25735(4)
N1N N 0.42478(18) -0.03647(13) 0.23669(15)
H1N H 0.4365 -0.0471 0.1905
C1N C 0.59210(22) 0.12750(15) 0.32289(17)
C2N C 0.31354(25) -0.15716(17) 0.2375(2)
H2N H 0.3261 -0.1657 0.1862
C3N C 0.27486(25) -0.13327(17) 0.3858(2)
H3N H 0.2619 -0.1242 0.4368
C4N C 0.24987(25) -0.21096(17) 0.2741(2)
H4N H 0.2199 -0.2567 0.2476
C5N C 0.33952(23) -0.07954(16) 0.35076(18)
H5N H 0.3707 -0.0347 0.3784
C6N C 0.47099(22) 0.03375(15) 0.27114(18)
C7N C 0.54470(21) 0.05739(15) 0.29037(18)
C8N C 0.44447(22) 0.08291(15) 0.28347(17)
C9N C 0.48822(21) 0.15215(15) 0.31998(17)
C10N C 0.56439(21) 0.17712(15) 0.32856(17)
C11N C 0.17171(27) -0.30900(19) 0.4444(2)
H6N H 0.1265 -0.3384 0.4767
H7N H 0.2127 -0.2771 0.4809
C12N C 0.22812(23) -0.20048(16) 0.3483(2)
C13N C 0.61615(21) 0.25622(15) 0.33401(18)
C14N C 0.35945(22) -0.09014(15) 0.27601(18)
C15N C 0.15830(26) -0.25947(18) 0.3884(2)
H8N H 0.1356 -0.2349 0.4184
H9N H 0.1223 -0.2909 0.3474
C16N C 0.2041(3) -0.4098(2) 0.4609(2)
H10N H 0.2451 -0.3780 0.4964
H11N H 0.1590 -0.4397 0.4919
H12N H 0.2168 -0.4427 0.4317
C17N C 0.19102(27) -0.36166(19) 0.4028(2)
H13N H 0.1500 -0.3940 0.3667
H14N H 0.2363 -0.3325 0.3706
Cl1A Cl 0.63342(4) 0.02814(6) 0.42882(4)
Cl2A Cl 0.91148(4) 0.24590(5) 0.40932(4)
N1A N 0.79459(13) 0.09145(18) 0.42998(15)
H1A H 0.8170 0.1032 0.4762
C1A C 0.79794(16) 0.25877(22) 0.34378(17)
C2A C 0.80404(18) -0.01979(25) 0.4292(2)
H2A H 0.8252 -0.0072 0.4805
C3A C 0.74147(18) -0.05847(25) 0.2809(2)
H3A H 0.7195 -0.0714 0.2299
C4A C 0.79417(18) -0.08346(25) 0.3926(2)
H4A H 0.8100 -0.1134 0.4191
C5A C 0.75240(17) 0.00619(23) 0.31591(18)
H5A H 0.7388 0.0374 0.2883
C6A C 0.77058(16) 0.13766(22) 0.39553(18)
C7A C 0.82065(15) 0.21137(21) 0.37630(18)
C8A C 0.69490(16) 0.11114(22) 0.38320(17)
C9A C 0.66941(15) 0.15489(21) 0.34669(17)
C10A C 0.72061(15) 0.23106(21) 0.33811(17)
C11A C 0.81405(19) -0.16162(27) 0.2223(2)
H6A H 0.7983 -0.2068 0.1900
H7A H 0.8232 -0.1206 0.1858
C12A C 0.76194(17) -0.10521(23) 0.3184(2)
C13A C 0.69327(15) 0.28282(21) 0.33266(18)
C14A C 0.78293(16) 0.02612(22) 0.39066(18)
C15A C 0.75111(19) -0.17503(26) 0.2783(2)
H8A H 0.7039 -0.1977 0.2483
H9A H 0.7466 -0.2110 0.3193
C16A C 0.9473(2) -0.1292(3) 0.2058(2)
H10A H 0.9565 -0.0882 0.1703
H11A H 0.9321 -0.1743 0.1748
H12A H 0.9929 -0.1165 0.2350
C17A C 0.88602(19) -0.14231(27) 0.2639(2)
H13A H 0.8774 -0.1833 0.3000
H14A H 0.9022 -0.0970 0.2961
Cl1B Cl 0.97186(6) 0.60528(4) 0.42882(4)
Cl2B Cl 0.75410(5) 0.66558(3) 0.40932(4)
N1B N 0.90855(18) 0.70314(13) 0.42998(15)
H1B H 0.8968 0.7138 0.4762
C1B C 0.74123(22) 0.53917(15) 0.34378(17)
C2B C 1.01979(25) 0.82383(17) 0.4292(2)
H2B H 1.0072 0.8324 0.4805
C3B C 1.05847(25) 0.79994(17) 0.2809(2)
H3B H 1.0714 0.7909 0.2299
C4B C 1.08346(25) 0.87763(17) 0.3926(2)
H4B H 1.1134 0.9234 0.4191
C5B C 0.99381(23) 0.74621(16) 0.31591(18)
H5B H 0.9626 0.7014 0.2883
C6B C 0.86234(22) 0.63292(15) 0.39553(18)
C7B C 0.78863(21) 0.60928(15) 0.37630(18)
C8B C 0.88886(22) 0.58376(15) 0.38320(17)
C9B C 0.84511(21) 0.51452(15) 0.34669(17)
C10B C 0.76894(21) 0.48955(15) 0.33811(17)
C11B C 1.16162(27) 0.97567(19) 0.2223(2)
H6B H 1.2068 1.0051 0.1900
H7B H 1.1206 0.9438 0.1858
C12B C 1.10521(23) 0.86715(16) 0.3184(2)
C13B C 0.71718(21) 0.41045(15) 0.33266(18)
C14B C 0.97388(22) 0.75681(15) 0.39066(18)
C15B C 1.17503(26) 0.92614(18) 0.2783(2)
H8B H 1.1977 0.9016 0.2483
H9B H 1.2110 0.9576 0.3193
C16B C 1.1292(3) 1.0765(2) 0.2058(2)
H10B H 1.0882 1.0447 0.1703
H11B H 1.1743 1.1064 0.1748
H12B H 1.1165 1.1094 0.2350
C17B C 1.14231(27) 1.02833(19) 0.2639(2)
H13B H 1.1833 1.0607 0.3000
H14B H 1.0970 0.9992 0.2961
Cl1L Cl 0.93861(4) 0.30009(4) 0.23785(4)
Cl2L Cl 0.99891(3) 0.57815(4) 0.25735(4)
N1L N 1.03647(13) 0.46126(13) 0.23669(15)
H1L H 1.0471 0.4837 0.1905
C1L C 0.87250(15) 0.46461(16) 0.32289(17)
C2L C 1.15716(17) 0.47071(18) 0.2375(2)
H2L H 1.1657 0.4919 0.1862
C3L C 1.13327(17) 0.40814(18) 0.3858(2)
H3L H 1.1242 0.3862 0.4368
C4L C 1.21096(17) 0.46084(18) 0.2741(2)
H4L H 1.2567 0.4767 0.2476
C5L C 1.07954(16) 0.41907(17) 0.35076(18)
H5L H 1.0347 0.4055 0.3784
C6L C 0.96625(15) 0.43725(16) 0.27114(18)
C7L C 0.94261(15) 0.48732(15) 0.29037(18)
C8L C 0.91709(15) 0.36157(16) 0.28347(17)
C9L C 0.84785(15) 0.33608(15) 0.31998(17)
C10L C 0.82288(15) 0.38728(15) 0.32856(17)
C11L C 1.30900(19) 0.48072(19) 0.4444(2)
H6L H 1.3384 0.4650 0.4767
H7L H 1.2771 0.4899 0.4809
C12L C 1.20048(16) 0.42861(17) 0.3483(2)
C13L C 0.74378(15) 0.35994(15) 0.33401(18)
C14L C 1.09014(15) 0.44960(16) 0.27601(18)
C15L C 1.25947(18) 0.41778(19) 0.3884(2)
H8L H 1.2349 0.3706 0.4184
H9L H 1.2909 0.4133 0.3474
C16L C 1.4098(2) 0.6140(2) 0.4609(2)
H10L H 1.3780 0.6232 0.4964
H11L H 1.4397 0.5988 0.4919
H12L H 1.4427 0.6596 0.4317
C17L C 1.36166(19) 0.55269(19) 0.4028(2)
H13L H 1.3940 0.5441 0.3667
H14L H 1.3325 0.5689 0.3706
loop_
_geom_bond_atom_site_label_1
_geom_bond_atom_site_label_2
_geom_bond_site_symmetry_1
_geom_bond_site_symmetry_2
Cl1 C8 1_555 1_555
Cl2 C7 1_555 1_555
N1 H1 1_555 1_555
C1 C7 1_555 1_555
C2 H2 1_555 1_555
C3 H3 1_555 1_555
C4 C2 1_555 1_555
H4 C4 1_555 1_555
C5 C3 1_555 1_555
H5 C5 1_555 1_555
C6 N1 1_555 1_555
C7 C6 1_555 1_555
C8 C6 1_555 1_555
C9 C8 1_555 1_555
C10 C1 1_555 1_555
C11 H6 1_555 1_555
H7 C11 1_555 1_555
C12 C3 1_555 1_555
C13 C10 1_555 1_555
C14 N1 1_555 1_555
C15 C11 1_555 1_555
H8 C15 1_555 1_555
H9 C15 1_555 1_555
C16 H10 1_555 1_555
H11 C16 1_555 1_555
H12 C16 1_555 1_555
C17 C11 1_555 1_555
H13 C17 1_555 1_555
H14 C17 1_555 1_555
Cl1M C8M 1_555 1_555
Cl2M C7M 1_555 1_555
N1M H1M 1_555 1_555
C1M C9 1_555 1_555
C2M H2M 1_555 1_555
C3M H3M 1_555 1_555
C4M C2M 1_555 1_555
H4M C4M 1_555 1_555
C5M C3M 1_555 1_555
H5M C5M 1_555 1_555
C6M N1M 1_555 1_555
C7M C1M 1_555 1_555
C8M C6M 1_555 1_555
C9M C8M 1_555 1_555
C10M C1M 1_555 1_555
C11M H6M 1_555 1_555
H7M C11M 1_555 1_555
C12M C3M 1_555 1_555
C13M C13 1_555 1_555
C14M N1M 1_555 1_555
C15M C11M 1_555 1_555
H8M C15M 1_555 1_555
H9M C15M 1_555 1_555
C16M H10M 1_555 1_555
H11M C16M 1_555 1_555
H12M C16M 1_555 1_555
C17M C11M 1_555 1_555
H13M C17M 1_555 1_555
H14M C17M 1_555 1_555
Cl1N C8N 1_555 1_555
Cl2N C7N 1_555 1_555
N1N H1N 1_555 1_555
C1N C7N 1_555 1_555
C2N H2N 1_555 1_555
C3N H3N 1_555 1_555
C4N C2N 1_555 1_555
H4N C4N 1_555 1_555
C5N C3N 1_555 1_555
H5N C5N 1_555 1_555
C6N N1N 1_555 1_555
C7N C6N 1_555 1_555
C8N C6N 1_555 1_555
C9N C1 1_555 1_555
C10N C1N 1_555 1_555
C11N H6N 1_555 1_555
H7N C11N 1_555 1_555
C12N C3N 1_555 1_555
C13N C13 1_555 1_555
C14N N1N 1_555 1_555
C15N C11N 1_555 1_555
H8N C15N 1_555 1_555
H9N C15N 1_555 1_555
C16N H10N 1_555 1_555
H11N C16N 1_555 1_555
H12N C16N 1_555 1_555
C17N C11N 1_555 1_555
H13N C17N 1_555 1_555
H14N C17N 1_555 1_555
Cl1A C8A 1_555 1_555
Cl2A C7A 1_555 1_555
N1A H1A 1_555 1_555
C1A C7A 1_555 1_555
C2A H2A 1_555 1_555
C3A H3A 1_555 1_555
C4A C2A 1_555 1_555
H4A C4A 1_555 1_555
C5A C3A 1_555 1_555
H5A C5A 1_555 1_555
C6A N1A 1_555 1_555
C7A C6A 1_555 1_555
C8A C6A 1_555 1_555
C9A C1N 1_555 1_555
C10A C1A 1_555 1_555
C11A H6A 1_555 1_555
H7A C11A 1_555 1_555
C12A C3A 1_555 1_555
C13A C13N 1_555 1_555
C14A N1A 1_555 1_555
C15A C11A 1_555 1_555
H8A C15A 1_555 1_555
H9A C15A 1_555 1_555
C16A H10A 1_555 1_555
H11A C16A 1_555 1_555
H12A C16A 1_555 1_555
C17A C11A 1_555 1_555
H13A C17A 1_555 1_555
H14A C17A 1_555 1_555
Cl1B C8B 1_555 1_555
Cl2B C7B 1_555 1_555
N1B H1B 1_555 1_555
C1B C9M 1_555 1_555
C2B H2B 1_555 1_555
C3B H3B 1_555 1_555
C4B C2B 1_555 1_555
H4B C4B 1_555 1_555
C5B C3B 1_555 1_555
H5B C5B 1_555 1_555
C6B N1B 1_555 1_555
C7B C1B 1_555 1_555
C8B C6B 1_555 1_555
C9B C8B 1_555 1_555
C10B C1B 1_555 1_555
C11B H6B 1_555 1_555
H7B C11B 1_555 1_555
C12B C3B 1_555 1_555
C13B C13M 1_555 1_555
C14B N1B 1_555 1_555
C15B C11B 1_555 1_555
H8B C15B 1_555 1_555
H9B C15B 1_555 1_555
C16B H10B 1_555 1_555
H11B C16B 1_555 1_555
H12B C16B 1_555 1_555
C17B C11B 1_555 1_555
H13B C17B 1_555 1_555
H14B C17B 1_555 1_555
Cl1L C8L 1_555 1_555
Cl2L C7L 1_555 1_555
N1L H1L 1_555 1_555
C1L C9B 1_555 1_555
C2L H2L 1_555 1_555
C3L H3L 1_555 1_555
C4L C2L 1_555 1_555
H4L C4L 1_555 1_555
C5L C3L 1_555 1_555
H5L C5L 1_555 1_555
C6L N1L 1_555 1_555
C7L C1L 1_555 1_555
C8L C6L 1_555 1_555
C9L C1A 1_555 1_555
C10L C1L 1_555 1_555
C11L H6L 1_555 1_555
H7L C11L 1_555 1_555
C12L C3L 1_555 1_555
C13L C13A 1_555 1_555
C14L N1L 1_555 1_555
C15L C11L 1_555 1_555
H8L C15L 1_555 1_555
H9L C15L 1_555 1_555
C16L H10L 1_555 1_555
H11L C16L 1_555 1_555
H12L C16L 1_555 1_555
C17L C11L 1_555 1_555
H13L C17L 1_555 1_555
H14L C17L 1_555 1_555
C2 C14 1_555 1_555
C4 C12 1_555 1_555
C5 C14 1_555 1_555
C9 C10 1_555 1_555
C12 C15 1_555 1_555
C16 C17 1_555 1_555
C2M C14M 1_555 1_555
C4M C12M 1_555 1_555
C5M C14M 1_555 1_555
C6M C7M 1_555 1_555
C9M C10M 1_555 1_555
C10M C13M 1_555 1_555
C12M C15M 1_555 1_555
C16M C17M 1_555 1_555
C2N C14N 1_555 1_555
C4N C12N 1_555 1_555
C5N C14N 1_555 1_555
C8N C9N 1_555 1_555
C9N C10N 1_555 1_555
C10N C13N 1_555 1_555
C12N C15N 1_555 1_555
C16N C17N 1_555 1_555
C2A C14A 1_555 1_555
C4A C12A 1_555 1_555
C5A C14A 1_555 1_555
C8A C9A 1_555 1_555
C9A C10A 1_555 1_555
C10A C13A 1_555 1_555
C12A C15A 1_555 1_555
C16A C17A 1_555 1_555
C2B C14B 1_555 1_555
C4B C12B 1_555 1_555
C5B C14B 1_555 1_555
C6B C7B 1_555 1_555
C9B C10B 1_555 1_555
C10B C13B 1_555 1_555
C12B C15B 1_555 1_555
C13B C13L 1_555 1_555
C16B C17B 1_555 1_555
C2L C14L 1_555 1_555
C4L C12L 1_555 1_555
C5L C14L 1_555 1_555
C6L C7L 1_555 1_555
C8L C9L 1_555 1_555
C9L C10L 1_555 1_555
C10L C13L 1_555 1_555
C12L C15L 1_555 1_555
C16L C17L 1_555 1_555

#END
