
#######################################################################
#
#                 Cambridge Crystallographic Data Centre
#                                CCDC 
#
#######################################################################
#
# If this CIF has been generated from an entry in the Cambridge 
# Structural Database, then it will include bibliographic, chemical, 
# crystal, experimental, refinement or atomic coordinate data resulting 
# from the CCDC's data processing and validation procedures.
#
#######################################################################

data_VEXYIJ
_chemical_formula_moiety         'C21 H15 Br1 F4 N3 O4'
_chemical_name_systematic        
'methyl (6-(((4-bromo-1-(4-fluoro-3-(trifluoromethyl)phenyl)-1H-pyrazol-3-yl)oxy)methylene)cyclohexa-2,4-dien-1-ylidene)(methoxyamino)acetate'
_symmetry_cell_setting           monoclinic
_symmetry_space_group_name_H-M   'P 21/c'
_symmetry_Int_Tables_number      14
_space_group_name_Hall           '-P 2ybc'
loop_
_symmetry_equiv_pos_site_id
_symmetry_equiv_pos_as_xyz
1 x,y,z
2 -x,1/2+y,1/2-z
3 -x,-y,-z
4 x,1/2-y,1/2+z
_cell_length_a                   20.446(4)
_cell_length_b                   13.551(3)
_cell_length_c                   7.0590(14)
_cell_angle_alpha                90
_cell_angle_beta                 90.10(3)
_cell_angle_gamma                90
_cell_volume                     1955.79
_exptl_crystal_colour            colorless
_exptl_crystal_description       plate
_cell_formula_units_Z            4
loop_
_atom_site_label
_atom_site_type_symbol
_atom_site_fract_x
_atom_site_fract_y
_atom_site_fract_z
Br1 Br 0.57131(4) 0.40160(7) 0.68131(15)
O1 O 0.6871(2) 0.5646(3) 0.7071(6)
F1 F 0.9708(2) 0.1559(3) 0.2984(6)
N1 N 0.7577(3) 0.3537(4) 0.5536(7)
C1 C 0.8102(3) 0.2000(5) 0.4711(10)
H1 H 0.7725 0.1656 0.5044
O2 O 0.6424(2) 0.7421(3) 0.9821(6)
N2 N 0.7634(2) 0.4508(4) 0.6042(7)
F2 F 0.9714(2) 0.4581(4) 0.3307(8)
C2 C 0.8639(4) 0.1517(5) 0.4071(9)
H2 H 0.8635 0.0833 0.3951
F3 F 1.0310(2) 0.3416(4) 0.4260(7)
N3 N 0.6152(3) 0.6500(4) 1.0279(7)
O3 O 0.6691(2) 0.4153(4) 1.0975(8)
C3 C 0.9185(3) 0.2040(6) 0.3603(10)
O4 O 0.5717(2) 0.4859(4) 1.1327(7)
F4 F 1.0015(2) 0.3402(4) 0.1713(7)
C4 C 0.9209(3) 0.3062(5) 0.3735(9)
C5 C 0.8673(3) 0.3550(5) 0.4378(8)
H3 H 0.8675 0.4234 0.4490
C6 C 0.8128(3) 0.3013(5) 0.4858(9)
C7 C 0.9821(4) 0.3619(7) 0.3297(12)
C8 C 0.7039(3) 0.4758(5) 0.6510(8)
C9 C 0.6598(3) 0.3956(6) 0.6274(10)
C10 C 0.6963(4) 0.3213(5) 0.5651(11)
H4 H 0.6817 0.2582 0.5349
C11 C 0.7390(3) 0.6338(4) 0.7384(8)
H5 H 0.7506 0.6824 0.6516
C12 C 0.7693(3) 0.6215(4) 0.9057(9)
C13 C 0.8350(4) 0.6352(5) 0.9308(11)
H6 H 0.8583 0.6500 0.8215
C14 C 0.8688(4) 0.6307(5) 1.0819(12)
H7 H 0.9137 0.6411 1.0896
C15 C 0.8275(4) 0.6075(5) 1.2367(10)
H8 H 0.8458 0.6029 1.3571
C16 C 0.7640(3) 0.5920(5) 1.2168(10)
H9 H 0.7413 0.5736 1.3251
C17 C 0.7303(3) 0.5999(4) 1.0625(10)
C18 C 0.6600(3) 0.5873(5) 1.0553(9)
C19 C 0.5894(3) 0.8111(5) 0.9617(10)
H10 H 0.6065 0.8749 0.9299
H11 H 0.5657 0.8152 1.0787
H12 H 0.5605 0.7891 0.8628
C20 C 0.6344(4) 0.4876(5) 1.0994(10)
C21 C 0.5433(4) 0.3887(6) 1.1674(11)
H13 H 0.4974 0.3955 1.1918
H14 H 0.5643 0.3590 1.2750
H15 H 0.5497 0.3477 1.0580
loop_
_geom_bond_atom_site_label_1
_geom_bond_atom_site_label_2
_geom_bond_site_symmetry_1
_geom_bond_site_symmetry_2
Br1 C9 1_555 1_555
O1 C8 1_555 1_555
F1 C3 1_555 1_555
N1 N2 1_555 1_555
C1 H1 1_555 1_555
O2 N3 1_555 1_555
N2 C8 1_555 1_555
F2 C7 1_555 1_555
C2 C1 1_555 1_555
H2 C2 1_555 1_555
F3 C7 1_555 1_555
N3 C18 1_555 1_555
O3 C20 1_555 1_555
C3 C2 1_555 1_555
O4 C20 1_555 1_555
F4 C7 1_555 1_555
C4 C3 1_555 1_555
C5 C4 1_555 1_555
H3 C5 1_555 1_555
C6 N1 1_555 1_555
C7 C4 1_555 1_555
C8 C9 1_555 1_555
C9 C10 1_555 1_555
C10 N1 1_555 1_555
H4 C10 1_555 1_555
C11 O1 1_555 1_555
H5 C11 1_555 1_555
C12 C11 1_555 1_555
C13 C12 1_555 1_555
H6 C13 1_555 1_555
C14 C13 1_555 1_555
H7 C14 1_555 1_555
C15 C14 1_555 1_555
H8 C15 1_555 1_555
C16 C15 1_555 1_555
H9 C16 1_555 1_555
C17 C12 1_555 1_555
C18 C17 1_555 1_555
C19 O2 1_555 1_555
H10 C19 1_555 1_555
H11 C19 1_555 1_555
H12 C19 1_555 1_555
C20 C18 1_555 1_555
C21 O4 1_555 1_555
H13 C21 1_555 1_555
H14 C21 1_555 1_555
H15 C21 1_555 1_555
C1 C6 1_555 1_555
C5 C6 1_555 1_555
C16 C17 1_555 1_555

#END
