
#######################################################################
#
#                 Cambridge Crystallographic Data Centre
#                                CCDC 
#
#######################################################################
#
# If this CIF has been generated from an entry in the Cambridge 
# Structural Database, then it will include bibliographic, chemical, 
# crystal, experimental, refinement or atomic coordinate data resulting 
# from the CCDC's data processing and validation procedures.
#
#######################################################################

data_VEXYAB
_chemical_formula_moiety         'C20 H17 I2 N3 O4'
_chemical_name_systematic        
'methyl (2-(((4-iodo-1-(4-iodophenyl)-1H-pyrazol-3-yl)oxy)methyl)phenyl)(methoxyimino)acetate'
_symmetry_cell_setting           monoclinic
_symmetry_space_group_name_H-M   'P 21/n'
_symmetry_Int_Tables_number      14
_space_group_name_Hall           '-P 2yn'
loop_
_symmetry_equiv_pos_site_id
_symmetry_equiv_pos_as_xyz
1 x,y,z
2 1/2-x,1/2+y,1/2-z
3 -x,-y,-z
4 1/2+x,1/2-y,1/2+z
_cell_length_a                   11.639(2)
_cell_length_b                   16.736(3)
_cell_length_c                   12.343(3)
_cell_angle_alpha                90
_cell_angle_beta                 116.01(3)
_cell_angle_gamma                90
_cell_volume                     2160.78
_exptl_crystal_colour            colorless
_exptl_crystal_description       plate
_cell_formula_units_Z            4
loop_
_atom_site_label
_atom_site_type_symbol
_atom_site_fract_x
_atom_site_fract_y
_atom_site_fract_z
I1 I 0.77717(9) 0.34684(5) 0.34689(8)
O1 O 0.2440(8) 0.4812(5) -0.0077(7)
N1 N 0.1352(9) 0.5112(5) 0.2068(9)
C1 C 0.3293(11) 0.3636(5) 0.2908(9)
N2 N 0.5516(8) 0.5504(5) 0.2041(7)
I2 I 0.32647(10) 0.85387(6) -0.10306(10)
O2 O 0.1427(7) 0.5822(4) 0.0282(6)
C2 C 0.3643(12) 0.2825(8) 0.3091(11)
H1 H 0.4291 0.2657 0.3822
N3 N 0.4984(8) 0.5268(5) 0.2759(8)
O3 O 0.1263(8) 0.4683(4) 0.2983(7)
C3 C 0.3026(12) 0.2286(6) 0.2190(13)
H2 H 0.3253 0.1749 0.2309
O4 O 0.5377(7) 0.4211(5) 0.4128(6)
C4 C 0.2124(12) 0.2521(8) 0.1165(12)
H3 H 0.1692 0.2139 0.0579
C5 C 0.1787(11) 0.3296(6) 0.0916(11)
H4 H 0.1175 0.3442 0.0154
C6 C 0.2351(11) 0.3874(6) 0.1793(9)
C7 C 0.1870(9) 0.4691(7) 0.1532(8)
C8 C 0.1964(11) 0.5118(6) 0.0493(10)
C9 C 0.1409(12) 0.6228(7) -0.0747(11)
H5 H 0.0993 0.6736 -0.0838
H6 H 0.0952 0.5911 -0.1456
H7 H 0.2270 0.6309 -0.0637
C10 C 0.0670(16) 0.5197(9) 0.3526(15)
H8 H 0.0601 0.4920 0.4176
H9 H -0.0167 0.5345 0.2933
H10 H 0.1181 0.5668 0.3831
C11 C 0.4058(10) 0.4203(7) 0.3919(10)
H11 H 0.3704 0.4737 0.3714
H12 H 0.4003 0.4038 0.4649
C12 C 0.5604(10) 0.4613(7) 0.3303(9)
C13 C 0.6542(10) 0.4418(6) 0.2912(8)
C14 C 0.6462(10) 0.5007(6) 0.2108(11)
H13 H 0.6959 0.5055 0.1693
C15 C 0.5111(10) 0.6199(7) 0.1383(9)
C16 C 0.5292(10) 0.6350(6) 0.0380(9)
H14 H 0.5724 0.5973 0.0142
C17 C 0.4862(10) 0.7035(7) -0.0293(10)
H15 H 0.5027 0.7141 -0.0950
C18 C 0.4148(12) 0.7574(7) 0.0072(13)
C19 C 0.4032(11) 0.7435(8) 0.1105(10)
H16 H 0.3647 0.7817 0.1385
C20 C 0.4461(11) 0.6762(6) 0.1719(11)
H17 H 0.4320 0.6667 0.2393
loop_
_geom_bond_atom_site_label_1
_geom_bond_atom_site_label_2
_geom_bond_site_symmetry_1
_geom_bond_site_symmetry_2
I1 C13 1_555 1_555
O1 C8 1_555 1_555
N1 O3 1_555 1_555
C1 C2 1_555 1_555
N2 N3 1_555 1_555
I2 C18 1_555 1_555
O2 C8 1_555 1_555
C2 H1 1_555 1_555
N3 C12 1_555 1_555
O3 C10 1_555 1_555
C3 C2 1_555 1_555
H2 C3 1_555 1_555
O4 C11 1_555 1_555
C4 C3 1_555 1_555
H3 C4 1_555 1_555
C5 C4 1_555 1_555
H4 C5 1_555 1_555
C6 C1 1_555 1_555
C7 N1 1_555 1_555
C8 C7 1_555 1_555
C9 O2 1_555 1_555
H5 C9 1_555 1_555
H6 C9 1_555 1_555
H7 C9 1_555 1_555
C10 H8 1_555 1_555
H9 C10 1_555 1_555
H10 C10 1_555 1_555
C11 C1 1_555 1_555
H11 C11 1_555 1_555
H12 C11 1_555 1_555
C12 O4 1_555 1_555
C13 C12 1_555 1_555
C14 N2 1_555 1_555
H13 C14 1_555 1_555
C15 N2 1_555 1_555
C16 C15 1_555 1_555
H14 C16 1_555 1_555
C17 C16 1_555 1_555
H15 C17 1_555 1_555
C18 C17 1_555 1_555
C19 C18 1_555 1_555
H16 C19 1_555 1_555
C20 C15 1_555 1_555
H17 C20 1_555 1_555
C5 C6 1_555 1_555
C6 C7 1_555 1_555
C13 C14 1_555 1_555
C19 C20 1_555 1_555

#END
