
#######################################################################
#
#                 Cambridge Crystallographic Data Centre
#                                CCDC 
#
#######################################################################
#
# If this CIF has been generated from an entry in the Cambridge 
# Structural Database, then it will include bibliographic, chemical, 
# crystal, experimental, refinement or atomic coordinate data resulting 
# from the CCDC's data processing and validation procedures.
#
#######################################################################

data_VEXZOQ
_chemical_formula_moiety         'C8 H4 N1 O6 1-,C4 H8 N5 1+,H2 O1'
_chemical_name_systematic        
'2,4,6-triaminopyrimidinium 2-carboxy-6-nitrobenzoate monohydrate'
_symmetry_cell_setting           triclinic
_symmetry_space_group_name_H-M   'P -1'
_symmetry_Int_Tables_number      2
_space_group_name_Hall           '-P 1'
loop_
_symmetry_equiv_pos_site_id
_symmetry_equiv_pos_as_xyz
1 x,y,z
2 -x,-y,-z
_cell_length_a                   6.9560(6)
_cell_length_b                   7.7371(4)
_cell_length_c                   14.8949(8)
_cell_angle_alpha                95.001(4)
_cell_angle_beta                 99.244(5)
_cell_angle_gamma                109.970(6)
_cell_volume                     734.879
_cell_formula_units_Z            2
loop_
_atom_site_label
_atom_site_type_symbol
_atom_site_fract_x
_atom_site_fract_y
_atom_site_fract_z
O1 O 0.2945(2) 0.78694(17) 0.77159(8)
O2 O -0.0424(2) 0.74536(18) 0.72601(9)
O3 O 0.2935(2) 1.38849(17) 0.85036(9)
H1 H 0.2730 1.4038 0.9027
O4 O 0.1585(2) 1.09026(17) 0.86598(9)
O5 O 0.1566(3) 0.6580(2) 0.57718(10)
N1 N 0.2050(3) 0.7927(2) 0.53793(10)
C1 C 0.1516(3) 0.8275(2) 0.72978(11)
O6 O 0.2328(3) 0.7832(2) 0.45990(10)
C2 C 0.2069(3) 0.9928(2) 0.67815(11)
C3 C 0.2243(3) 1.2106(2) 0.81912(12)
C4 C 0.2307(3) 0.9755(2) 0.58695(11)
C5 C 0.2851(3) 1.3211(3) 0.67080(13)
H2 H 0.3036 1.4391 0.6993
C6 C 0.2384(3) 1.1728(2) 0.72038(12)
C7 C 0.3044(3) 1.2966(3) 0.58083(14)
H3 H 0.3343 1.3972 0.5487
C8 C 0.2794(3) 1.1230(3) 0.53817(13)
H4 H 0.2950 1.1054 0.4776
N2 N -0.2510(2) 1.49345(19) 0.98730(9)
N3 N -0.1756(2) 1.5214(2) 0.84020(10)
H5 H -0.1311 1.5935 0.8013
N4 N -0.1531(3) 1.7775(2) 0.93753(11)
H6 H -0.1621 1.8286 0.9895
H7 H -0.1168 1.8443 0.8956
N5 N -0.3430(3) 1.2102(2) 1.03713(11)
H8 H -0.326(3) 1.272(3) 1.0920(15)
N6 N -0.2108(3) 1.2738(2) 0.73434(10)
H9 H -0.1716 1.3513 0.6969
H10 H -0.2405 1.1569 0.7174
C9 C -0.2252(3) 1.3346(2) 0.81806(12)
C10 C -0.2917(3) 1.3075(2) 0.96865(12)
C11 C -0.1952(3) 1.5951(2) 0.92203(11)
C12 C -0.2846(3) 1.2233(2) 0.88392(12)
H11 H -0.3189 1.0953 0.8717
H12 H -0.342(3) 1.102(3) 1.0303(14)
O7 O 0.6432(3) 0.8846(2) 0.68592(12)
H13 H 0.7392 0.8410 0.6993
H14 H 0.5514 0.8445 0.7181
loop_
_geom_bond_atom_site_label_1
_geom_bond_atom_site_label_2
_geom_bond_site_symmetry_1
_geom_bond_site_symmetry_2
O1 C1 1_555 1_555
O2 C1 1_555 1_555
O3 H1 1_555 1_555
O4 C3 1_555 1_555
O5 N1 1_555 1_555
N1 O6 1_555 1_555
C1 C2 1_555 1_555
C2 C4 1_555 1_555
C3 O3 1_555 1_555
C4 N1 1_555 1_555
C5 H2 1_555 1_555
C6 C2 1_555 1_555
C7 C5 1_555 1_555
H3 C7 1_555 1_555
C8 C4 1_555 1_555
H4 C8 1_555 1_555
N2 C10 1_555 1_555
N3 H5 1_555 1_555
N4 H6 1_555 1_555
H7 N4 1_555 1_555
N5 H8 1_555 1_555
N6 H9 1_555 1_555
H10 N6 1_555 1_555
C9 N3 1_555 1_555
C10 N5 1_555 1_555
C11 N2 1_555 1_555
C12 C9 1_555 1_555
H11 C12 1_555 1_555
H12 N5 1_555 1_555
O7 H13 1_555 1_555
H14 O7 1_555 1_555
C3 C6 1_555 1_555
C5 C6 1_555 1_555
C7 C8 1_555 1_555
N3 C11 1_555 1_555
N4 C11 1_555 1_555
N6 C9 1_555 1_555
C10 C12 1_555 1_555

#END
