
#######################################################################
#
#                 Cambridge Crystallographic Data Centre
#                                CCDC 
#
#######################################################################
#
# If this CIF has been generated from an entry in the Cambridge 
# Structural Database, then it will include bibliographic, chemical, 
# crystal, experimental, refinement or atomic coordinate data resulting 
# from the CCDC's data processing and validation procedures.
#
#######################################################################

data_VEYQOF
_chemical_formula_moiety         'C60 H66 N4 O6 S1,C1 H4 O1,6(H2 O1)'
_chemical_name_systematic        
"29'-Methoxy-5',17',23',35',38',40',43',45'-octamethyldispiro-(cyclohexan-1,2'(7',15',25',33')-tetra-azaheptacyclo(32.2.2.23',6'.216',19'.221',24'.19',13'.127',31')-hexatetraconta(3',5',9',11',13'(39'),16',18',21',23',27',29',31'(44'),34',36',37',40',42',45')octadecaen-20',1''-cyclohexan)-8'-sulfon-14',26',32'-trione methanol solvate hexahydrate"
_symmetry_cell_setting           monoclinic
_symmetry_space_group_name_H-M   'P 21/c'
_symmetry_Int_Tables_number      14
_space_group_name_Hall           '-P 2ybc'
loop_
_symmetry_equiv_pos_site_id
_symmetry_equiv_pos_as_xyz
1 x,y,z
2 x,1/2-y,1/2+z
3 -x,-y,-z
4 -x,1/2+y,1/2-z
_cell_length_a                   18.8531(12)
_cell_length_b                   12.4695(8)
_cell_length_c                   27.0744(20)
_cell_angle_alpha                90
_cell_angle_beta                 105.051(3)
_cell_angle_gamma                90
_cell_volume                     6146.54
_exptl_crystal_colour            colorless
_exptl_crystal_description       plates
_cell_formula_units_Z            4
loop_
_atom_site_label
_atom_site_type_symbol
_atom_site_fract_x
_atom_site_fract_y
_atom_site_fract_z
S1 S 0.29020(7) 0.11055(11) 0.09399(6)
O1 O 0.32900(18) 0.0315(3) 0.12893(14)
O2 O 0.23674(18) 0.0771(3) 0.04887(14)
N1 N 0.2486(2) 0.1889(3) 0.12470(17)
H1 H 0.2091(18) 0.220(4) 0.1056(17)
C1 C 0.2725(2) 0.2085(4) 0.1793(2)
C2 C 0.3111(3) 0.3012(4) 0.1972(2)
C3 C 0.3264(3) 0.3237(4) 0.2487(2)
H2 H 0.3536 0.3868 0.2609
C4 C 0.3043(2) 0.2595(4) 0.2837(2)
C5 C 0.2679(2) 0.1652(4) 0.2643(2)
H3 H 0.2542 0.1172 0.2874
C6 C 0.2508(2) 0.1379(4) 0.2125(2)
C7 C 0.3216(2) 0.2915(4) 0.34035(18)
C8 C 0.3037(3) 0.4114(4) 0.3453(2)
H4 H 0.3207 0.4330 0.3816
H5 H 0.3309 0.4548 0.3257
C9 C 0.2225(3) 0.4353(4) 0.3260(2)
H6 H 0.2049 0.4137 0.2897
H7 H 0.2140 0.5132 0.3283
C10 C 0.1801(3) 0.3742(5) 0.3580(2)
H8 H 0.1954 0.3995 0.3938
H9 H 0.1269 0.3882 0.3446
C11 C 0.1944(3) 0.2554(4) 0.3563(2)
H10 H 0.1716 0.2284 0.3214
H11 H 0.1708 0.2182 0.3802
C12 C 0.2764(2) 0.2286(4) 0.3707(2)
H12 H 0.2822 0.1509 0.3652
H13 H 0.2969 0.2432 0.4076
C13 C 0.4027(3) 0.2673(4) 0.36576(19)
C14 C 0.4500(3) 0.3402(4) 0.39554(19)
H14 H 0.4323 0.4106 0.3986
C15 C 0.5216(2) 0.3166(4) 0.42120(19)
C16 C 0.5472(2) 0.2136(4) 0.41663(19)
C17 C 0.5027(3) 0.1390(4) 0.3857(2)
C18 C 0.4311(3) 0.1672(4) 0.3613(2)
H15 H 0.4003 0.1153 0.3405
N2 N 0.6234(2) 0.1871(4) 0.44011(18)
H16 H 0.653(2) 0.210(4) 0.4229(18)
C19 C 0.6470(3) 0.1256(4) 0.4823(2)
O3 O 0.60610(17) 0.0966(3) 0.50837(13)
C20 C 0.7271(2) 0.0946(4) 0.49624(19)
C21 C 0.7577(2) 0.0510(4) 0.54370(19)
H17 H 0.7286 0.0418 0.5672
C22 C 0.8314(3) 0.0205(4) 0.55730(19)
O4 O 0.85689(16) -0.0228(3) 0.60516(13)
C23 C 0.8743(3) 0.0333(4) 0.52309(19)
H18 H 0.9242 0.0113 0.5321
C24 C 0.8433(3) 0.0784(4) 0.47586(19)
C25 C 0.7702(3) 0.1083(4) 0.46170(19)
H19 H 0.7494 0.1378 0.4288
C26 C 0.8886(3) 0.0895(4) 0.43799(19)
O5 O 0.93360(18) 0.0187(3) 0.43425(13)
N3 N 0.8765(2) 0.1773(3) 0.40907(17)
H20 H 0.847(2) 0.225(3) 0.417(2)
C27 C 0.8946(3) 0.1899(4) 0.3611(2)
C28 C 0.8711(2) 0.1137(4) 0.3227(2)
C29 C 0.8836(2) 0.1346(4) 0.2754(2)
H21 H 0.8691 0.0824 0.2491
C30 C 0.9166(2) 0.2291(4) 0.26451(19)
C31 C 0.9386(3) 0.3016(4) 0.30366(19)
H22 H 0.9610 0.3665 0.2971
C32 C 0.9298(3) 0.2845(4) 0.3521(2)
C33 C 0.9188(2) 0.2472(4) 0.20877(18)
C34 C 0.9639(2) 0.1563(4) 0.19196(19)
H23 H 0.9443 0.0861 0.1993
H24 H 0.9576 0.1611 0.1546
C35 C 1.0452(2) 0.1621(4) 0.2190(2)
H25 H 1.0712 0.1010 0.2082
H26 H 1.0521 0.1572 0.2564
C36 C 1.0775(3) 0.2673(4) 0.2060(2)
H27 H 1.1304 0.2708 0.2237
H28 H 1.0724 0.2711 0.1687
C37 C 1.0377(2) 0.3613(4) 0.2224(2)
H29 H 1.0559 0.4290 0.2111
H30 H 1.0488 0.3628 0.2602
C38 C 0.9544(2) 0.3545(4) 0.20010(19)
H31 H 0.9433 0.3677 0.1628
H32 H 0.9311 0.4126 0.2152
C39 C 0.8390(2) 0.2495(4) 0.17640(19)
C40 C 0.7865(3) 0.3090(4) 0.1926(2)
H33 H 0.8015 0.3481 0.2237
C41 C 0.7134(3) 0.3137(4) 0.1652(2)
C42 C 0.6923(3) 0.2547(4) 0.1202(2)
C43 C 0.7423(3) 0.1936(4) 0.10239(19)
C44 C 0.8149(3) 0.1951(4) 0.13061(19)
H34 H 0.8500 0.1568 0.1179
N4 N 0.6157(2) 0.2564(3) 0.09204(17)
H35 H 0.612(3) 0.293(4) 0.0640(13)
C45 C 0.5631(3) 0.2051(4) 0.1079(2)
O6 O 0.57825(18) 0.1460(3) 0.14576(16)
C46 C 0.4843(3) 0.2247(4) 0.0792(2)
C47 C 0.4620(3) 0.2953(5) 0.0384(2)
H36 H 0.4975 0.3337 0.0262
C48 C 0.3879(3) 0.3096(4) 0.0154(2)
H37 H 0.3732 0.3584 -0.0123
C49 C 0.3350(3) 0.2544(4) 0.0319(2)
H38 H 0.2843 0.2643 0.0156
C50 C 0.3571(3) 0.1844(4) 0.07279(19)
C51 C 0.4303(3) 0.1698(4) 0.09641(19)
H39 H 0.4444 0.1221 0.1246
C52 C 0.3364(3) 0.3782(4) 0.1612(2)
H40 H 0.3463 0.4488 0.1775
H41 H 0.2978 0.3847 0.1292
H42 H 0.3812 0.3504 0.1540
C53 C 0.2092(3) 0.0361(4) 0.1934(2)
H43 H 0.2433 -0.0179 0.1866
H44 H 0.1713 0.0512 0.1618
H45 H 0.1859 0.0089 0.2193
C54 C 0.5684(3) 0.3997(4) 0.4545(2)
H46 H 0.5416 0.4678 0.4510
H47 H 0.6139 0.4095 0.4440
H48 H 0.5802 0.3762 0.4902
C55 C 0.5321(3) 0.0289(5) 0.3777(3)
H49 H 0.5833 0.0352 0.3763
H50 H 0.5026 -0.0015 0.3455
H51 H 0.5294 -0.0182 0.4062
C56 C 0.9301(2) -0.0669(4) 0.6176(2)
H52 H 0.9422 -0.0958 0.6525
H53 H 0.9653 -0.0104 0.6154
H54 H 0.9327 -0.1245 0.5935
C57 C 0.8293(3) 0.0139(4) 0.3295(2)
H55 H 0.8006 -0.0115 0.2960
H56 H 0.7961 0.0303 0.3509
H57 H 0.8640 -0.0420 0.3459
C58 C 0.9547(3) 0.3663(4) 0.3941(2)
H58 H 0.9118 0.3993 0.4019
H59 H 0.9839 0.4217 0.3828
H60 H 0.9848 0.3309 0.4247
C59 C 0.6595(3) 0.3802(5) 0.1845(2)
H61 H 0.6323 0.4273 0.1572
H62 H 0.6861 0.4237 0.2136
H63 H 0.6250 0.3327 0.1955
C60 C 0.7203(3) 0.1284(4) 0.0544(2)
H64 H 0.6789 0.0819 0.0557
H65 H 0.7618 0.0842 0.0512
H66 H 0.7056 0.1764 0.0248
O7 O 0.1262(2) 0.3086(3) 0.06455(17)
H67 H 0.123(4) 0.375(2) 0.073(3)
C61 C 0.0714(5) 0.2490(6) 0.0306(3)
H68 H 0.0296 0.2390 0.0453
H69 H 0.0911 0.1788 0.0246
H70 H 0.0552 0.2875 -0.0020
O8 O 0.4315(3) 0.0050(6) 0.2324(2)
O9 O 0.7823(4) 0.3469(5) 0.4208(3)
O10 O 0.6810(4) 0.2628(6) 0.3528(3)
O11 O 0.6898(3) 0.1406(5) 0.2635(4)
O12 O 0.5318(3) 0.3144(8) 0.2905(3)
O13 O 0.5408(5) 0.1377(8) 0.2350(2)
loop_
_geom_bond_atom_site_label_1
_geom_bond_atom_site_label_2
_geom_bond_site_symmetry_1
_geom_bond_site_symmetry_2
S1 O1 1_555 1_555
O2 S1 1_555 1_555
N1 S1 1_555 1_555
H1 N1 1_555 1_555
C1 N1 1_555 1_555
C2 C1 1_555 1_555
C3 C2 1_555 1_555
H2 C3 1_555 1_555
C4 C3 1_555 1_555
C5 C4 1_555 1_555
H3 C5 1_555 1_555
C6 C1 1_555 1_555
C7 C4 1_555 1_555
C8 C7 1_555 1_555
H4 C8 1_555 1_555
H5 C8 1_555 1_555
C9 C8 1_555 1_555
H6 C9 1_555 1_555
H7 C9 1_555 1_555
C10 C9 1_555 1_555
H8 C10 1_555 1_555
H9 C10 1_555 1_555
C11 C10 1_555 1_555
H10 C11 1_555 1_555
H11 C11 1_555 1_555
C12 C7 1_555 1_555
H12 C12 1_555 1_555
H13 C12 1_555 1_555
C13 C7 1_555 1_555
C14 C13 1_555 1_555
H14 C14 1_555 1_555
C15 C14 1_555 1_555
C16 C15 1_555 1_555
C17 C16 1_555 1_555
C18 C13 1_555 1_555
H15 C18 1_555 1_555
N2 C16 1_555 1_555
H16 N2 1_555 1_555
C19 N2 1_555 1_555
O3 C19 1_555 1_555
C20 C19 1_555 1_555
C21 C20 1_555 1_555
H17 C21 1_555 1_555
C22 C21 1_555 1_555
O4 C22 1_555 1_555
C23 C22 1_555 1_555
H18 C23 1_555 1_555
C24 C23 1_555 1_555
C25 C20 1_555 1_555
H19 C25 1_555 1_555
C26 C24 1_555 1_555
O5 C26 1_555 1_555
N3 C26 1_555 1_555
H20 N3 1_555 1_555
C27 N3 1_555 1_555
C28 C27 1_555 1_555
C29 C28 1_555 1_555
H21 C29 1_555 1_555
C30 C29 1_555 1_555
C31 C30 1_555 1_555
H22 C31 1_555 1_555
C32 C27 1_555 1_555
C33 C30 1_555 1_555
C34 C33 1_555 1_555
H23 C34 1_555 1_555
H24 C34 1_555 1_555
C35 C34 1_555 1_555
H25 C35 1_555 1_555
H26 C35 1_555 1_555
C36 C35 1_555 1_555
H27 C36 1_555 1_555
H28 C36 1_555 1_555
C37 C36 1_555 1_555
H29 C37 1_555 1_555
H30 C37 1_555 1_555
C38 C33 1_555 1_555
H31 C38 1_555 1_555
H32 C38 1_555 1_555
C39 C33 1_555 1_555
C40 C39 1_555 1_555
H33 C40 1_555 1_555
C41 C40 1_555 1_555
C42 C41 1_555 1_555
C43 C42 1_555 1_555
C44 C39 1_555 1_555
H34 C44 1_555 1_555
N4 C42 1_555 1_555
H35 N4 1_555 1_555
C45 N4 1_555 1_555
O6 C45 1_555 1_555
C46 C45 1_555 1_555
C47 C46 1_555 1_555
H36 C47 1_555 1_555
C48 C47 1_555 1_555
H37 C48 1_555 1_555
C49 C48 1_555 1_555
H38 C49 1_555 1_555
C50 S1 1_555 1_555
C51 C46 1_555 1_555
H39 C51 1_555 1_555
C52 C2 1_555 1_555
H40 C52 1_555 1_555
H41 C52 1_555 1_555
H42 C52 1_555 1_555
C53 C6 1_555 1_555
H43 C53 1_555 1_555
H44 C53 1_555 1_555
H45 C53 1_555 1_555
C54 C15 1_555 1_555
H46 C54 1_555 1_555
H47 C54 1_555 1_555
H48 C54 1_555 1_555
C55 C17 1_555 1_555
H49 C55 1_555 1_555
H50 C55 1_555 1_555
H51 C55 1_555 1_555
C56 O4 1_555 1_555
H52 C56 1_555 1_555
H53 C56 1_555 1_555
H54 C56 1_555 1_555
C57 C28 1_555 1_555
H55 C57 1_555 1_555
H56 C57 1_555 1_555
H57 C57 1_555 1_555
C58 C32 1_555 1_555
H58 C58 1_555 1_555
H59 C58 1_555 1_555
H60 C58 1_555 1_555
C59 C41 1_555 1_555
H61 C59 1_555 1_555
H62 C59 1_555 1_555
H63 C59 1_555 1_555
C60 C43 1_555 1_555
H64 C60 1_555 1_555
H65 C60 1_555 1_555
H66 C60 1_555 1_555
O7 H67 1_555 1_555
C61 O7 1_555 1_555
H68 C61 1_555 1_555
H69 C61 1_555 1_555
H70 C61 1_555 1_555
C5 C6 1_555 1_555
C11 C12 1_555 1_555
C17 C18 1_555 1_555
C24 C25 1_555 1_555
C31 C32 1_555 1_555
C37 C38 1_555 1_555
C43 C44 1_555 1_555
C49 C50 1_555 1_555
C50 C51 1_555 1_555

#END
