
#######################################################################
#
#                 Cambridge Crystallographic Data Centre
#                                CCDC 
#
#######################################################################
#
# If this CIF has been generated from an entry in the Cambridge 
# Structural Database, then it will include bibliographic, chemical, 
# crystal, experimental, refinement or atomic coordinate data resulting 
# from the CCDC's data processing and validation procedures.
#
#######################################################################

data_VEYRUP
_chemical_formula_moiety         'C30 H22 Cl1 N1 O2 S1'
_chemical_name_systematic        
'[2-(4-chlorophenyl)-1,2,3,3a-tetrahydropyrrolo[2,1-b][1,3]benzothiazole-1,3-diyl]bis(phenylmethanone)'
_symmetry_cell_setting           monoclinic
_symmetry_space_group_name_H-M   'P 21'
_symmetry_Int_Tables_number      4
_space_group_name_Hall           'P 2yb'
loop_
_symmetry_equiv_pos_site_id
_symmetry_equiv_pos_as_xyz
1 x,y,z
2 -x,1/2+y,-z
_cell_length_a                   10.4185(9)
_cell_length_b                   15.4927(12)
_cell_length_c                   15.8277(18)
_cell_angle_alpha                90
_cell_angle_beta                 95.756(8)
_cell_angle_gamma                90
_cell_volume                     2541.88
_exptl_crystal_colour            colorless
_exptl_crystal_description       block
_cell_formula_units_Z            4
loop_
_atom_site_label
_atom_site_type_symbol
_atom_site_fract_x
_atom_site_fract_y
_atom_site_fract_z
Cl1 Cl -0.0483(4) 0.6792(3) 1.1132(2)
S1 S 0.2446(4) 0.6250(3) 0.5615(2)
O1 O 0.3903(8) 0.7471(6) 0.7751(7)
O2 O 0.4119(10) 0.4064(8) 0.7873(7)
N1 N 0.2557(9) 0.5113(7) 0.6862(6)
C1 C 0.2844(13) 0.6021(9) 0.6761(8)
H1 H 0.3776 0.6099 0.6894
C2 C 0.1609(12) 0.5275(9) 0.5472(7)
C3 C 0.0921(14) 0.4964(13) 0.4733(9)
H2 H 0.0868 0.5294 0.4240
C4 C 0.0335(14) 0.4191(11) 0.4728(9)
H3 H -0.0147 0.4002 0.4236
C5 C 0.0435(11) 0.3674(10) 0.5442(9)
H4 H 0.0032 0.3138 0.5432
C6 C 0.1161(12) 0.3971(10) 0.6186(8)
H5 H 0.1215 0.3635 0.6675
C7 C 0.1776(11) 0.4740(8) 0.6196(7)
C8 C 0.2189(11) 0.6499(8) 0.7398(7)
H6 H 0.1261 0.6533 0.7225
C9 C 0.2452(10) 0.5895(7) 0.8175(6)
H7 H 0.3366 0.5954 0.8383
C10 C 0.2274(11) 0.4976(8) 0.7740(7)
H8 H 0.1382 0.4779 0.7751
C11 C 0.2724(10) 0.7389(7) 0.7637(6)
C12 C 0.1866(9) 0.8148(7) 0.7647(7)
C13 C 0.2412(15) 0.8940(8) 0.7825(15)
H9 H 0.3305 0.8990 0.7904
C14 C 0.1669(15) 0.9656(11) 0.7888(16)
H10 H 0.2069 1.0186 0.8004
C15 C 0.0351(15) 0.9619(10) 0.7785(14)
H11 H -0.0156 1.0101 0.7862
C16 C -0.0179(13) 0.8839(9) 0.7563(10)
H12 H -0.1065 0.8801 0.7421
C17 C 0.0555(10) 0.8111(9) 0.7544(8)
H13 H 0.0151 0.7579 0.7458
C18 C 0.1689(9) 0.6085(6) 0.8900(6)
C19 C 0.0369(10) 0.6134(8) 0.8802(6)
H14 H -0.0075 0.6021 0.8274
C20 C -0.0342(10) 0.6359(9) 0.9513(7)
H15 H -0.1237 0.6396 0.9461
C21 C 0.0364(11) 0.6511(7) 1.0240(7)
C22 C 0.1662(11) 0.6437(9) 1.0375(7)
H16 H 0.2092 0.6518 1.0913
C23 C 0.2327(10) 0.6239(8) 0.9697(7)
H17 H 0.3222 0.6207 0.9772
C24 C 0.3207(14) 0.4311(8) 0.8170(8)
C25 C 0.2995(13) 0.4028(7) 0.9072(7)
C26 C 0.1775(14) 0.4028(9) 0.9365(9)
H18 H 0.1060 0.4204 0.9008
C27 C 0.1628(17) 0.3760(10) 1.0199(9)
H19 H 0.0827 0.3758 1.0412
C28 C 0.276(2) 0.3494(12) 1.0698(11)
H20 H 0.2698 0.3302 1.1249
C29 C 0.390(2) 0.3508(13) 1.0414(13)
H21 H 0.4630 0.3357 1.0774
C30 C 0.4037(14) 0.3749(9) 0.9568(10)
H22 H 0.4835 0.3715 0.9355
Cl2 Cl 0.3322(4) 0.3048(3) 0.3493(2)
S2 S 0.8091(4) 0.3767(2) 0.8905(2)
O3 O 0.8562(11) 0.2422(7) 0.6641(8)
O4 O 0.9101(9) 0.5882(8) 0.6645(6)
N2 N 0.7796(9) 0.4869(6) 0.7640(5)
C31 C 0.8144(11) 0.3956(7) 0.7759(7)
H23 H 0.9026 0.3867 0.7614
C32 C 0.7293(13) 0.4727(9) 0.9027(8)
C33 C 0.6774(16) 0.5027(11) 0.9735(10)
H24 H 0.6862 0.4704 1.0233
C34 C 0.6110(16) 0.5818(14) 0.9715(11)
H25 H 0.5754 0.6017 1.0194
C35 C 0.5999(15) 0.6282(12) 0.8992(12)
H26 H 0.5555 0.6803 0.8974
C36 C 0.6530(11) 0.6001(8) 0.8276(8)
H27 H 0.6466 0.6341 0.7790
C37 C 0.7160(9) 0.5211(7) 0.8279(7)
C38 C 0.7238(10) 0.3498(7) 0.7142(6)
H28 H 0.6372 0.3517 0.7333
C39 C 0.7270(9) 0.4076(7) 0.6343(7)
H29 H 0.8112 0.3997 0.6127
C40 C 0.7251(10) 0.5001(7) 0.6758(7)
H30 H 0.6361 0.5210 0.6744
C41 C 0.7613(12) 0.2565(8) 0.7007(8)
C42 C 0.6858(12) 0.1862(8) 0.7338(8)
C43 C 0.5821(12) 0.2006(8) 0.7816(7)
H31 H 0.5565 0.2570 0.7912
C44 C 0.5176(17) 0.1341(14) 0.8143(14)
H32 H 0.4508 0.1446 0.8478
C45 C 0.552(2) 0.0544(16) 0.798(2)
H33 H 0.5055 0.0094 0.8190
C46 C 0.650(3) 0.0340(13) 0.7511(17)
H34 H 0.6706 -0.0233 0.7416
C47 C 0.7218(16) 0.1026(10) 0.7170(12)
H35 H 0.7898 0.0912 0.6849
C48 C 0.6269(9) 0.3871(7) 0.5650(7)
C49 C 0.4939(10) 0.3839(9) 0.5755(7)
H36 H 0.4668 0.3981 0.6280
C50 C 0.4037(11) 0.3605(9) 0.5104(7)
H37 H 0.3163 0.3596 0.5178
C51 C 0.4466(10) 0.3382(7) 0.4333(7)
C52 C 0.5708(14) 0.3432(11) 0.4184(9)
H38 H 0.5952 0.3309 0.3647
C53 C 0.6609(12) 0.3664(9) 0.4826(8)
H39 H 0.7472 0.3689 0.4723
C54 C 0.8060(11) 0.5639(8) 0.6305(7)
C55 C 0.7547(12) 0.5989(7) 0.5471(7)
C56 C 0.6281(15) 0.5951(10) 0.5145(9)
H40 H 0.5677 0.5688 0.5455
C57 C 0.590(2) 0.6300(12) 0.4356(14)
H41 H 0.5025 0.6318 0.4163
C58 C 0.677(2) 0.6616(13) 0.3860(12)
H42 H 0.6499 0.6823 0.3320
C59 C 0.8064(19) 0.6635(11) 0.4147(10)
H43 H 0.8666 0.6844 0.3802
C60 C 0.8452(15) 0.6339(9) 0.4957(9)
H44 H 0.9317 0.6371 0.5166
loop_
_geom_bond_atom_site_label_1
_geom_bond_atom_site_label_2
_geom_bond_site_symmetry_1
_geom_bond_site_symmetry_2
Cl1 C21 1_555 1_555
S1 C1 1_555 1_555
O1 C11 1_555 1_555
O2 C24 1_555 1_555
N1 C1 1_555 1_555
C1 H1 1_555 1_555
C2 S1 1_555 1_555
C3 C2 1_555 1_555
H2 C3 1_555 1_555
C4 C3 1_555 1_555
H3 C4 1_555 1_555
C5 C4 1_555 1_555
H4 C5 1_555 1_555
C6 C5 1_555 1_555
H5 C6 1_555 1_555
C7 N1 1_555 1_555
C8 C1 1_555 1_555
H6 C8 1_555 1_555
C9 C8 1_555 1_555
H7 C9 1_555 1_555
C10 N1 1_555 1_555
H8 C10 1_555 1_555
C11 C8 1_555 1_555
C12 C11 1_555 1_555
C13 C12 1_555 1_555
H9 C13 1_555 1_555
C14 C13 1_555 1_555
H10 C14 1_555 1_555
C15 C14 1_555 1_555
H11 C15 1_555 1_555
C16 C15 1_555 1_555
H12 C16 1_555 1_555
C17 C12 1_555 1_555
H13 C17 1_555 1_555
C18 C9 1_555 1_555
C19 C18 1_555 1_555
H14 C19 1_555 1_555
C20 C19 1_555 1_555
H15 C20 1_555 1_555
C21 C20 1_555 1_555
C22 C21 1_555 1_555
H16 C22 1_555 1_555
C23 C18 1_555 1_555
H17 C23 1_555 1_555
C24 C10 1_555 1_555
C25 C24 1_555 1_555
C26 C25 1_555 1_555
H18 C26 1_555 1_555
C27 C26 1_555 1_555
H19 C27 1_555 1_555
C28 C27 1_555 1_555
H20 C28 1_555 1_555
C29 C28 1_555 1_555
H21 C29 1_555 1_555
C30 C25 1_555 1_555
H22 C30 1_555 1_555
Cl2 C51 1_555 1_555
S2 C31 1_555 1_555
O3 C41 1_555 1_555
O4 C54 1_555 1_555
N2 C31 1_555 1_555
C31 H23 1_555 1_555
C32 S2 1_555 1_555
C33 C32 1_555 1_555
H24 C33 1_555 1_555
C34 C33 1_555 1_555
H25 C34 1_555 1_555
C35 C34 1_555 1_555
H26 C35 1_555 1_555
C36 C35 1_555 1_555
H27 C36 1_555 1_555
C37 N2 1_555 1_555
C38 C31 1_555 1_555
H28 C38 1_555 1_555
C39 C38 1_555 1_555
H29 C39 1_555 1_555
C40 N2 1_555 1_555
H30 C40 1_555 1_555
C41 C38 1_555 1_555
C42 C41 1_555 1_555
C43 C42 1_555 1_555
H31 C43 1_555 1_555
C44 C43 1_555 1_555
H32 C44 1_555 1_555
C45 C44 1_555 1_555
H33 C45 1_555 1_555
C46 C45 1_555 1_555
H34 C46 1_555 1_555
C47 C42 1_555 1_555
H35 C47 1_555 1_555
C48 C39 1_555 1_555
C49 C48 1_555 1_555
H36 C49 1_555 1_555
C50 C49 1_555 1_555
H37 C50 1_555 1_555
C51 C50 1_555 1_555
C52 C51 1_555 1_555
H38 C52 1_555 1_555
C53 C48 1_555 1_555
H39 C53 1_555 1_555
C54 C40 1_555 1_555
C55 C54 1_555 1_555
C56 C55 1_555 1_555
H40 C56 1_555 1_555
C57 C56 1_555 1_555
H41 C57 1_555 1_555
C58 C57 1_555 1_555
H42 C58 1_555 1_555
C59 C58 1_555 1_555
H43 C59 1_555 1_555
C60 C55 1_555 1_555
H44 C60 1_555 1_555
C2 C7 1_555 1_555
C6 C7 1_555 1_555
C9 C10 1_555 1_555
C16 C17 1_555 1_555
C22 C23 1_555 1_555
C29 C30 1_555 1_555
C32 C37 1_555 1_555
C36 C37 1_555 1_555
C39 C40 1_555 1_555
C46 C47 1_555 1_555
C52 C53 1_555 1_555
C59 C60 1_555 1_555

#END
