
#######################################################################
#
#                 Cambridge Crystallographic Data Centre
#                                CCDC 
#
#######################################################################
#
# If this CIF has been generated from an entry in the Cambridge 
# Structural Database, then it will include bibliographic, chemical, 
# crystal, experimental, refinement or atomic coordinate data resulting 
# from the CCDC's data processing and validation procedures.
#
#######################################################################

data_VEYWEE
_chemical_formula_moiety         
'C25 H48 Mg1 N4 O6 2+,C4 H8 O2,2(C1 F3 O3 S1 1-)'
_chemical_name_systematic        
"diaqua-{1,1'-(propane-1,3-diyl)bis[N-cyclopentyl-1-(oxo)-1\l^5^-piperidine-2-carboxamide]}-magnesium(ii) bis(trifluoromethanesulfonate) ethyl acetate unknown solvate"
_symmetry_cell_setting           triclinic
_symmetry_space_group_name_H-M   'P 1'
_symmetry_Int_Tables_number      1
_space_group_name_Hall           'P 1'
loop_
_symmetry_equiv_pos_site_id
_symmetry_equiv_pos_as_xyz
1 x,y,z
_cell_length_a                   9.2007(2)
_cell_length_b                   9.2791(4)
_cell_length_c                   14.2370(5)
_cell_angle_alpha                97.598(3)
_cell_angle_beta                 91.193(3)
_cell_angle_gamma                97.349(3)
_cell_volume                     1194.02
_exptl_crystal_colour            colorless
_exptl_crystal_description       block
_cell_formula_units_Z            1
loop_
_atom_site_label
_atom_site_type_symbol
_atom_site_fract_x
_atom_site_fract_y
_atom_site_fract_z
S1 S 0.86157(12) 0.65597(14) 0.26694(8)
F1 F 0.7269(5) 0.8193(5) 0.1675(3)
F2 F 0.6922(5) 0.5909(6) 0.1142(3)
O1 O 0.9642(5) 0.7805(5) 0.3012(3)
F3 F 0.8986(6) 0.7197(8) 0.0954(3)
O2 O 0.9237(5) 0.5226(5) 0.2398(3)
O3 O 0.7305(5) 0.6362(5) 0.3199(3)
C1 C 0.7913(6) 0.6985(8) 0.1538(4)
S2 S 0.80388(13) 0.86081(14) 0.75680(9)
O4 O 0.6788(5) 0.9353(5) 0.7791(3)
F4 F 0.8961(7) 0.9369(6) 0.9329(3)
O5 O 0.9281(5) 0.9515(6) 0.7264(4)
O6 O 0.7688(5) 0.7191(5) 0.7016(3)
F5 F 0.9811(6) 0.7490(7) 0.8635(5)
F6 F 0.7589(7) 0.7294(6) 0.9056(4)
C2 C 0.8622(9) 0.8177(8) 0.8715(5)
Mg1 Mg 0.48481(15) 0.40788(17) 0.51192(11)
O7 O 0.2827(3) 0.4066(4) 0.5661(2)
O8 O 0.6861(3) 0.4422(4) 0.4503(3)
H1 H 0.7042 0.5323 0.4352
O9 O 0.5713(4) 0.3550(4) 0.6350(2)
O10 O 0.3906(4) 0.4535(4) 0.3879(2)
O11 O 0.4673(3) 0.1892(4) 0.4618(2)
O12 O 0.5332(4) 0.6261(4) 0.5720(2)
H2 H 0.6165 0.6404 0.6041
N1 N 0.1549(4) 0.3652(5) 0.5099(3)
N2 N 0.6604(5) 0.2268(5) 0.7413(3)
H3 H 0.6697 0.1390 0.7557
N3 N 0.4455(4) 0.0836(5) 0.5208(3)
N4 N 0.2243(5) 0.5007(6) 0.2820(3)
H4 H 0.1303 0.5006 0.2692
C3 C 0.1414(5) 0.4710(6) 0.4374(3)
H5 H 0.0453 0.4411 0.4015
C4 C 0.2633(5) 0.4702(6) 0.3664(3)
C5 C 0.0256(6) 0.5280(7) 0.6257(4)
H6 H -0.0613 0.5293 0.6655
H7 H 0.1143 0.5555 0.6680
C6 C 0.1502(5) 0.2120(6) 0.4574(3)
H8 H 0.2297 0.2129 0.4116
H9 H 0.0561 0.1870 0.4203
C7 C 0.5985(5) 0.2364(5) 0.6577(3)
C8 C 0.4324(5) -0.0653(6) 0.4607(4)
H10 H 0.4135 -0.1427 0.5022
H11 H 0.3475 -0.0752 0.4153
C9 C 0.7143(6) 0.3544(6) 0.8111(4)
H12 H 0.7165 0.4468 0.7818
C10 C 0.0271(5) 0.3749(6) 0.5737(4)
H13 H 0.0315 0.3056 0.6206
H14 H -0.0654 0.3450 0.5352
C11 C 0.1657(5) 0.0896(6) 0.5181(4)
H15 H 0.1510 -0.0047 0.4754
H16 H 0.0841 0.0877 0.5624
C12 C 0.5751(5) 0.0920(5) 0.5913(3)
H17 H 0.5561 0.0098 0.6302
C13 C 0.7039(5) -0.0703(6) 0.4721(3)
H18 H 0.7925 -0.0730 0.4340
H19 H 0.6978 -0.1525 0.5103
C14 C 0.5684(5) -0.0881(6) 0.4064(3)
H20 H 0.5827 -0.0163 0.3607
H21 H 0.5553 -0.1877 0.3699
C15 C 0.7159(5) 0.0755(6) 0.5381(3)
H22 H 0.7988 0.0809 0.5845
H23 H 0.7368 0.1575 0.5004
C16 C 0.6195(7) 0.3606(7) 0.8975(4)
H24 H 0.6232 0.4626 0.9293
H25 H 0.5163 0.3208 0.8794
C17 C 0.3086(5) 0.0943(6) 0.5770(3)
H26 H 0.3233 0.1870 0.6214
H27 H 0.2967 0.0126 0.6157
C18 C 0.0213(5) 0.6386(7) 0.5570(4)
H28 H 0.0320 0.7387 0.5927
H29 H -0.0748 0.6209 0.5219
C19 C 0.3239(8) 0.6906(8) 0.1854(5)
H30 H 0.2423 0.7347 0.2172
H31 H 0.4171 0.7530 0.2070
C20 C 0.1437(5) 0.6275(6) 0.4870(4)
H32 H 0.2395 0.6600 0.5211
H33 H 0.1324 0.6937 0.4389
C21 C 0.8686(7) 0.3396(8) 0.8507(5)
H34 H 0.9089 0.2571 0.8133
H35 H 0.9363 0.4308 0.8482
C22 C 0.3269(8) 0.5344(8) 0.2089(4)
H36 H 0.4283 0.5239 0.2313
C23 C 0.8499(11) 0.3117(11) 0.9510(6)
H37 H 0.8849 0.4015 0.9954
H38 H 0.9065 0.2326 0.9650
C24 C 0.3031(13) 0.6788(12) 0.0803(6)
H39 H 0.2332 0.7446 0.0632
H40 H 0.3976 0.7049 0.0507
C25 C 0.6860(11) 0.2661(9) 0.9615(5)
H41 H 0.6573 0.1604 0.9394
H42 H 0.6574 0.2886 1.0280
C26 C 0.2904(17) 0.4374(11) 0.1154(7)
H43 H 0.3774 0.3924 0.0928
H44 H 0.2105 0.3579 0.1228
C27 C 0.246(2) 0.5272(17) 0.0497(7)
H45 H 0.1372 0.5168 0.0447
H46 H 0.2818 0.4954 -0.0137
H47 H 0.476(11) 0.679(11) 0.602(7)
H48 H 0.713(6) 0.363(4) 0.428(4)
O13 O 0.3597(4) 0.7927(4) 0.6904(2)
O14 O 0.3292(5) 0.8541(6) 0.8449(3)
C28 C 0.3614(6) 0.7664(7) 0.7711(4)
C29 C 0.2916(7) 0.9952(8) 0.8261(5)
H49 H 0.2029 0.9811 0.7836
H50 H 0.3731 1.0482 0.7948
C30 C 0.3975(10) 0.6219(10) 0.7960(6)
H51 H 0.4143 0.5579 0.7379
H52 H 0.3155 0.5751 0.8289
H53 H 0.4861 0.6386 0.8375
C31 C 0.2638(11) 1.0815(13) 0.9189(6)
H54 H 0.2210 1.1693 0.9074
H55 H 0.3565 1.1106 0.9557
H56 H 0.1956 1.0210 0.9544
loop_
_geom_bond_atom_site_label_1
_geom_bond_atom_site_label_2
_geom_bond_site_symmetry_1
_geom_bond_site_symmetry_2
S1 O1 1_555 1_555
F1 C1 1_555 1_555
F2 C1 1_555 1_555
F3 C1 1_555 1_555
O2 S1 1_555 1_555
O3 S1 1_555 1_555
C1 S1 1_555 1_555
S2 O4 1_555 1_555
F4 C2 1_555 1_555
O5 S2 1_555 1_555
O6 S2 1_555 1_555
F5 C2 1_555 1_555
F6 C2 1_555 1_555
C2 S2 1_555 1_555
Mg1 O7 1_555 1_555
O7 N1 1_555 1_555
O8 Mg1 1_555 1_555
H1 O8 1_555 1_555
O9 Mg1 1_555 1_555
O10 Mg1 1_555 1_555
O11 Mg1 1_555 1_555
O12 Mg1 1_555 1_555
H2 O12 1_555 1_555
N1 C3 1_555 1_555
N2 H3 1_555 1_555
N3 O11 1_555 1_555
N4 H4 1_555 1_555
C3 H5 1_555 1_555
C4 O10 1_555 1_555
C5 H6 1_555 1_555
H7 C5 1_555 1_555
C6 N1 1_555 1_555
H8 C6 1_555 1_555
H9 C6 1_555 1_555
C7 O9 1_555 1_555
C8 N3 1_555 1_555
H10 C8 1_555 1_555
H11 C8 1_555 1_555
C9 N2 1_555 1_555
H12 C9 1_555 1_555
C10 N1 1_555 1_555
H13 C10 1_555 1_555
H14 C10 1_555 1_555
C11 C6 1_555 1_555
H15 C11 1_555 1_555
H16 C11 1_555 1_555
C12 N3 1_555 1_555
H17 C12 1_555 1_555
C13 H18 1_555 1_555
H19 C13 1_555 1_555
C14 C8 1_555 1_555
H20 C14 1_555 1_555
H21 C14 1_555 1_555
C15 C12 1_555 1_555
H22 C15 1_555 1_555
H23 C15 1_555 1_555
C16 C9 1_555 1_555
H24 C16 1_555 1_555
H25 C16 1_555 1_555
C17 N3 1_555 1_555
H26 C17 1_555 1_555
H27 C17 1_555 1_555
C18 C5 1_555 1_555
H28 C18 1_555 1_555
H29 C18 1_555 1_555
C19 H30 1_555 1_555
H31 C19 1_555 1_555
C20 C3 1_555 1_555
H32 C20 1_555 1_555
H33 C20 1_555 1_555
C21 C9 1_555 1_555
H34 C21 1_555 1_555
H35 C21 1_555 1_555
C22 N4 1_555 1_555
H36 C22 1_555 1_555
C23 C21 1_555 1_555
H37 C23 1_555 1_555
H38 C23 1_555 1_555
C24 C19 1_555 1_555
H39 C24 1_555 1_555
H40 C24 1_555 1_555
C25 C16 1_555 1_555
H41 C25 1_555 1_555
H42 C25 1_555 1_555
C26 C22 1_555 1_555
H43 C26 1_555 1_555
H44 C26 1_555 1_555
C27 C24 1_555 1_555
H45 C27 1_555 1_555
H46 C27 1_555 1_555
H47 O12 1_555 1_555
H48 O8 1_555 1_555
O13 C28 1_555 1_555
O14 C28 1_555 1_555
C28 C30 1_555 1_555
C29 O14 1_555 1_555
H49 C29 1_555 1_555
H50 C29 1_555 1_555
C30 H51 1_555 1_555
H52 C30 1_555 1_555
H53 C30 1_555 1_555
C31 C29 1_555 1_555
H54 C31 1_555 1_555
H55 C31 1_555 1_555
H56 C31 1_555 1_555
N2 C7 1_555 1_555
N4 C4 1_555 1_555
C3 C4 1_555 1_555
C5 C10 1_555 1_555
C7 C12 1_555 1_555
C11 C17 1_555 1_555
C13 C14 1_555 1_555
C13 C15 1_555 1_555
C18 C20 1_555 1_555
C19 C22 1_555 1_555
C23 C25 1_555 1_555
C26 C27 1_555 1_555

#END
