
#######################################################################
#
#                 Cambridge Crystallographic Data Centre
#                                CCDC 
#
#######################################################################
#
# If this CIF has been generated from an entry in the Cambridge 
# Structural Database, then it will include bibliographic, chemical, 
# crystal, experimental, refinement or atomic coordinate data resulting 
# from the CCDC's data processing and validation procedures.
#
#######################################################################

data_VEYXEF
_chemical_formula_moiety         'C15 H12 Br1 N3 O1'
_chemical_name_systematic        
2-[(2-bromo-4-methylphenyl)amino]quinazolin-4(3H)-one
_symmetry_cell_setting           monoclinic
_symmetry_space_group_name_H-M   'P 21/n'
_symmetry_Int_Tables_number      14
_space_group_name_Hall           '-P 2yn'
loop_
_symmetry_equiv_pos_site_id
_symmetry_equiv_pos_as_xyz
1 x,y,z
2 1/2-x,1/2+y,1/2-z
3 -x,-y,-z
4 1/2+x,1/2-y,1/2+z
_cell_length_a                   6.4056(2)
_cell_length_b                   22.7204(7)
_cell_length_c                   9.3434(3)
_cell_angle_alpha                90
_cell_angle_beta                 100.885(2)
_cell_angle_gamma                90
_cell_volume                     1335.35
_exptl_crystal_colour            colorless
_exptl_crystal_description       prism
_cell_formula_units_Z            4
loop_
_atom_site_label
_atom_site_type_symbol
_atom_site_fract_x
_atom_site_fract_y
_atom_site_fract_z
C1 C 0.8042(4) 0.07467(11) 1.2749(3)
C2 C 1.0012(4) 0.09676(12) 1.3386(3)
H1 H 1.0738 0.0809 1.4284
C3 C 1.0934(4) 0.14186(12) 1.2723(3)
C4 C 1.3066(4) 0.16658(14) 1.3437(3)
H2 H 1.2958 0.2093 1.3592
H3 H 1.4047 0.1657 1.2798
H4 H 1.3780 0.1461 1.4420
C5 C 0.9830(4) 0.16315(11) 1.1404(3)
H5 H 1.0438 0.1940 1.0932
C6 C 0.7866(4) 0.14079(11) 1.0755(3)
H6 H 0.7159 0.1562 0.9846
C7 C 0.6919(4) 0.09582(11) 1.1427(3)
C8 C 0.3383(4) 0.09034(10) 0.9731(3)
C9 C -0.0193(4) 0.06586(11) 0.8514(3)
C10 C -0.0092(4) 0.11911(10) 0.7675(3)
C11 C -0.1853(4) 0.13763(12) 0.6634(3)
H7 H -0.3118 0.1148 0.6462
C12 C -0.1738(4) 0.18858(13) 0.5870(3)
H8 H -0.2918 0.2009 0.5158
C13 C 0.0122(4) 0.22246(12) 0.6139(3)
H9 H 0.0193 0.2578 0.5607
C14 C 0.1840(4) 0.20527(12) 0.7162(3)
H10 H 0.3085 0.2289 0.7335
C15 C 0.1779(4) 0.15299(11) 0.7957(3)
N1 N 0.4947(3) 0.07013(9) 1.0833(2)
H11 H 0.4678 0.0364 1.1222
N2 N 0.1630(3) 0.05390(9) 0.9504(2)
H12 H 0.1682 0.0213 1.0019
N3 N 0.3547(3) 0.13818(9) 0.9007(2)
O1 O -0.1747(3) 0.03272(8) 0.8408(2)
Br1 Br 0.68388(5) 0.014182(13) 1.37530(3)
loop_
_geom_bond_atom_site_label_1
_geom_bond_atom_site_label_2
_geom_bond_site_symmetry_1
_geom_bond_site_symmetry_2
C1 C2 1_555 1_555
C2 H1 1_555 1_555
C3 C2 1_555 1_555
C4 C3 1_555 1_555
H2 C4 1_555 1_555
H3 C4 1_555 1_555
H4 C4 1_555 1_555
C5 C3 1_555 1_555
H5 C5 1_555 1_555
C6 C5 1_555 1_555
H6 C6 1_555 1_555
C7 C1 1_555 1_555
C8 N1 1_555 1_555
C9 C10 1_555 1_555
C10 C11 1_555 1_555
C11 H7 1_555 1_555
C12 C11 1_555 1_555
H8 C12 1_555 1_555
C13 C12 1_555 1_555
H9 C13 1_555 1_555
C14 C13 1_555 1_555
H10 C14 1_555 1_555
C15 C10 1_555 1_555
N1 C7 1_555 1_555
H11 N1 1_555 1_555
N2 C8 1_555 1_555
H12 N2 1_555 1_555
N3 C8 1_555 1_555
O1 C9 1_555 1_555
Br1 C1 1_555 1_555
C6 C7 1_555 1_555
C9 N2 1_555 1_555
C14 C15 1_555 1_555
C15 N3 1_555 1_555

#END
