
#######################################################################
#
#                 Cambridge Crystallographic Data Centre
#                                CCDC 
#
#######################################################################
#
# If this CIF has been generated from an entry in the Cambridge 
# Structural Database, then it will include bibliographic, chemical, 
# crystal, experimental, refinement or atomic coordinate data resulting 
# from the CCDC's data processing and validation procedures.
#
#######################################################################

data_VEYXAB
_chemical_formula_moiety         'C15 H12 Br1 N3 O1'
_chemical_name_systematic        
2-amino-3-(2-bromo-4-methylphenyl)quinazolin-4(3H)-one
_symmetry_cell_setting           monoclinic
_symmetry_space_group_name_H-M   'P 21/n'
_symmetry_Int_Tables_number      14
_space_group_name_Hall           '-P 2yn'
loop_
_symmetry_equiv_pos_site_id
_symmetry_equiv_pos_as_xyz
1 x,y,z
2 1/2-x,1/2+y,1/2-z
3 -x,-y,-z
4 1/2+x,1/2-y,1/2+z
_cell_length_a                   10.7721(7)
_cell_length_b                   9.4199(6)
_cell_length_c                   14.3014(8)
_cell_angle_alpha                90
_cell_angle_beta                 107.313(4)
_cell_angle_gamma                90
_cell_volume                     1385.44
_exptl_crystal_colour            colorless
_exptl_crystal_description       prism
_cell_formula_units_Z            4
loop_
_atom_site_label
_atom_site_type_symbol
_atom_site_fract_x
_atom_site_fract_y
_atom_site_fract_z
C1 C 0.9054(4) 0.8642(4) 0.7427(3)
C2 C 0.9137(4) 0.8883(5) 0.6495(3)
H1 H 0.9845 0.9413 0.6408
C3 C 0.8192(4) 0.8352(5) 0.5686(3)
C4 C 0.8333(6) 0.8572(7) 0.4667(3)
H2 H 0.9128 0.9111 0.4718
H3 H 0.7580 0.9098 0.4262
H4 H 0.8382 0.7647 0.4366
C5 C 0.7156(4) 0.7642(5) 0.5833(3)
H5 H 0.6488 0.7305 0.5282
C6 C 0.7056(4) 0.7403(4) 0.6753(3)
H6 H 0.6330 0.6901 0.6833
C7 C 0.8018(4) 0.7895(4) 0.7566(3)
C8 C 0.7142(3) 0.8517(4) 0.8888(3)
C9 C 0.7238(4) 0.8301(4) 0.9911(3)
C10 C 0.6505(4) 0.9130(5) 1.0359(3)
H7 H 0.5970 0.9866 0.9998
C11 C 0.6548(4) 0.8895(6) 1.1312(3)
H8 H 0.6025 0.9442 1.1608
C12 C 0.7363(5) 0.7849(5) 1.1839(3)
H9 H 0.7398 0.7684 1.2502
C13 C 0.8115(4) 0.7050(5) 1.1426(3)
H10 H 0.8678 0.6351 1.1808
C14 C 0.8072(4) 0.7245(4) 1.0446(3)
C15 C 0.8715(3) 0.6576(4) 0.9115(3)
N1 N 0.7937(3) 0.7622(3) 0.8532(2)
N2 N 0.8811(3) 0.6387(3) 1.0037(2)
N3 N 0.9398(3) 0.5761(3) 0.8684(2)
H11 H 0.9913 0.5096 0.9023
H12 H 0.9334 0.5888 0.8062
O1 O 0.6437(3) 0.9392(3) 0.8346(2)
Br1 Br 1.03533(4) 0.93820(5) 0.85112(3)
loop_
_geom_bond_atom_site_label_1
_geom_bond_atom_site_label_2
_geom_bond_site_symmetry_1
_geom_bond_site_symmetry_2
C1 C2 1_555 1_555
C2 H1 1_555 1_555
C3 C2 1_555 1_555
C4 C3 1_555 1_555
H2 C4 1_555 1_555
H3 C4 1_555 1_555
H4 C4 1_555 1_555
C5 C3 1_555 1_555
H5 C5 1_555 1_555
C6 C5 1_555 1_555
H6 C6 1_555 1_555
C7 C1 1_555 1_555
C8 C9 1_555 1_555
C9 C10 1_555 1_555
C10 H7 1_555 1_555
C11 C10 1_555 1_555
H8 C11 1_555 1_555
C12 C11 1_555 1_555
H9 C12 1_555 1_555
C13 C12 1_555 1_555
H10 C13 1_555 1_555
C14 C9 1_555 1_555
C15 N1 1_555 1_555
N1 C7 1_555 1_555
N2 C14 1_555 1_555
N3 C15 1_555 1_555
H11 N3 1_555 1_555
H12 N3 1_555 1_555
O1 C8 1_555 1_555
Br1 C1 1_555 1_555
C6 C7 1_555 1_555
C8 N1 1_555 1_555
C13 C14 1_555 1_555
C15 N2 1_555 1_555

#END
