
#######################################################################
#
#                 Cambridge Crystallographic Data Centre
#                                CCDC 
#
#######################################################################
#
# If this CIF has been generated from an entry in the Cambridge 
# Structural Database, then it will include bibliographic, chemical, 
# crystal, experimental, refinement or atomic coordinate data resulting 
# from the CCDC's data processing and validation procedures.
#
#######################################################################

data_VEZCUZ
_chemical_formula_moiety         'C33 H33 N1 O2 S1'
_chemical_name_systematic        
2-(2-(2,6-Dimethylphenyl)ethylidene)-1-(4-methylphenylsulfonyl)-3,3-diphenylpyrrolidine
_symmetry_cell_setting           monoclinic
_symmetry_space_group_name_H-M   'P 21/n'
_symmetry_Int_Tables_number      14
_space_group_name_Hall           '-P 2yn'
loop_
_symmetry_equiv_pos_site_id
_symmetry_equiv_pos_as_xyz
1 x,y,z
2 1/2-x,1/2+y,1/2-z
3 -x,-y,-z
4 1/2+x,1/2-y,1/2+z
_cell_length_a                   11.1735(18)
_cell_length_b                   21.074(3)
_cell_length_c                   11.7435(18)
_cell_angle_alpha                90
_cell_angle_beta                 98.127(3)
_cell_angle_gamma                90
_cell_volume                     2737.47
_exptl_crystal_colour            colorless
_exptl_crystal_description       cubic
_chemical_melting_point          '217-218 deg.C'
_cell_formula_units_Z            4
_exptl_crystal_recrystallization_method 'ethyl acetate/dichloromethane'
loop_
_atom_site_label
_atom_site_type_symbol
_atom_site_fract_x
_atom_site_fract_y
_atom_site_fract_z
C1 C 1.05895(17) 0.26036(8) 0.53767(15)
H1 H 1.0057 0.2376 0.4848
C2 C 1.14416(18) 0.29902(9) 0.50024(16)
H2 H 1.1486 0.3015 0.4219
C3 C 1.22332(17) 0.33424(9) 0.57574(19)
C4 C 1.21631(17) 0.32794(10) 0.69203(18)
H3 H 1.2697 0.3507 0.7447
C5 C 1.13268(17) 0.28903(9) 0.73172(16)
H4 H 1.1302 0.2855 0.8103
C6 C 1.05218(15) 0.25517(7) 0.65449(14)
C7 C 0.69128(17) 0.40221(8) 0.46569(14)
H5 H 0.6089 0.3935 0.4562
C8 C 0.7393(2) 0.43481(10) 0.38154(16)
H6 H 0.6893 0.4483 0.3160
C9 C 0.8599(2) 0.44745(10) 0.39366(18)
H7 H 0.8921 0.4696 0.3366
C10 C 0.93372(18) 0.42746(8) 0.49012(17)
H8 H 1.0163 0.4355 0.4982
C11 C 0.88534(16) 0.39539(7) 0.57519(14)
H9 H 0.9359 0.3826 0.6409
C12 C 0.76430(15) 0.38201(7) 0.56493(13)
C13 C 0.62313(15) 0.45521(8) 0.70287(14)
H10 H 0.6636 0.4730 0.6467
C14 C 0.55569(17) 0.49368(9) 0.76396(17)
H11 H 0.5510 0.5370 0.7488
C15 C 0.49543(18) 0.46836(11) 0.84710(17)
H12 H 0.4494 0.4943 0.8881
C16 C 0.50331(17) 0.40454(11) 0.86954(16)
H13 H 0.4635 0.3872 0.9266
C17 C 0.57021(16) 0.36609(9) 0.80764(14)
H14 H 0.5739 0.3228 0.8228
C18 C 0.63213(14) 0.39050(7) 0.72320(13)
C19 C 0.70773(13) 0.34664(7) 0.65823(12)
C20 C 0.63317(15) 0.29007(7) 0.60157(14)
H15 H 0.5806 0.2728 0.6529
H16 H 0.5845 0.3029 0.5303
C21 C 0.72766(16) 0.24272(7) 0.57965(14)
H17 H 0.6947 0.2001 0.5711
H18 H 0.7638 0.2537 0.5118
C22 C 0.80448(14) 0.31014(7) 0.73875(12)
C23 C 0.86650(15) 0.32744(7) 0.83845(13)
H19 H 0.9156 0.2966 0.8776
C24 C 0.86656(16) 0.39173(7) 0.89596(14)
H20 H 0.8776 0.4245 0.8404
H21 H 0.7888 0.3986 0.9216
C25 C 0.96526(15) 0.39730(7) 0.99767(13)
C26 C 1.07461(16) 0.42711(7) 0.98713(14)
C27 C 1.16091(17) 0.43276(8) 1.08304(18)
H22 H 1.2335 0.4530 1.0765
C28 C 1.1420(2) 0.40929(9) 1.18714(18)
H23 H 1.2012 0.4138 1.2508
C29 C 1.0361(2) 0.37910(8) 1.19785(15)
H24 H 1.0240 0.3627 1.2689
C30 C 0.94564(17) 0.37252(8) 1.10380(15)
C31 C 0.8297(2) 0.34032(11) 1.11981(18)
H25 H 0.7637 0.3695 1.1018
H26 H 0.8336 0.3266 1.1982
H27 H 0.8174 0.3042 1.0697
C32 C 1.10053(19) 0.45401(9) 0.87447(16)
H28 H 1.0902 0.4215 0.8167
H29 H 1.1822 0.4694 0.8830
H30 H 1.0458 0.4883 0.8518
C33 C 1.31258(19) 0.37891(11) 0.5336(2)
H31 H 1.2703 0.4148 0.4969
H32 H 1.3550 0.3573 0.4794
H33 H 1.3693 0.3932 0.5975
N1 N 0.81578(12) 0.24906(6) 0.68610(10)
O1 O 0.97532(12) 0.19505(5) 0.82098(9)
O2 O 0.91703(12) 0.15560(5) 0.62320(10)
S1 S 0.94033(4) 0.207341(19) 0.70120(4)
loop_
_geom_bond_atom_site_label_1
_geom_bond_atom_site_label_2
_geom_bond_site_symmetry_1
_geom_bond_site_symmetry_2
C1 H1 1_555 1_555
C2 C1 1_555 1_555
H2 C2 1_555 1_555
C3 C2 1_555 1_555
C4 C3 1_555 1_555
H3 C4 1_555 1_555
C5 C4 1_555 1_555
H4 C5 1_555 1_555
C6 C1 1_555 1_555
C7 H5 1_555 1_555
C8 C7 1_555 1_555
H6 C8 1_555 1_555
C9 C8 1_555 1_555
H7 C9 1_555 1_555
C10 C9 1_555 1_555
H8 C10 1_555 1_555
C11 C10 1_555 1_555
H9 C11 1_555 1_555
C12 C7 1_555 1_555
C13 H10 1_555 1_555
C14 C13 1_555 1_555
H11 C14 1_555 1_555
C15 C14 1_555 1_555
H12 C15 1_555 1_555
C16 C15 1_555 1_555
H13 C16 1_555 1_555
C17 C16 1_555 1_555
H14 C17 1_555 1_555
C18 C13 1_555 1_555
C19 C12 1_555 1_555
C20 C19 1_555 1_555
H15 C20 1_555 1_555
H16 C20 1_555 1_555
C21 C20 1_555 1_555
H17 C21 1_555 1_555
H18 C21 1_555 1_555
C22 C19 1_555 1_555
C23 C22 1_555 1_555
H19 C23 1_555 1_555
C24 C23 1_555 1_555
H20 C24 1_555 1_555
H21 C24 1_555 1_555
C25 C24 1_555 1_555
C26 C25 1_555 1_555
C27 C26 1_555 1_555
H22 C27 1_555 1_555
C28 C27 1_555 1_555
H23 C28 1_555 1_555
C29 C28 1_555 1_555
H24 C29 1_555 1_555
C30 C25 1_555 1_555
C31 C30 1_555 1_555
H25 C31 1_555 1_555
H26 C31 1_555 1_555
H27 C31 1_555 1_555
C32 C26 1_555 1_555
H28 C32 1_555 1_555
H29 C32 1_555 1_555
H30 C32 1_555 1_555
C33 C3 1_555 1_555
H31 C33 1_555 1_555
H32 C33 1_555 1_555
H33 C33 1_555 1_555
N1 C21 1_555 1_555
O1 S1 1_555 1_555
O2 S1 1_555 1_555
S1 C6 1_555 1_555
C5 C6 1_555 1_555
C11 C12 1_555 1_555
C17 C18 1_555 1_555
C18 C19 1_555 1_555
C22 N1 1_555 1_555
C29 C30 1_555 1_555
N1 S1 1_555 1_555

#END
