
#######################################################################
#
#                 Cambridge Crystallographic Data Centre
#                                CCDC 
#
#######################################################################
#
# If this CIF has been generated from an entry in the Cambridge 
# Structural Database, then it will include bibliographic, chemical, 
# crystal, experimental, refinement or atomic coordinate data resulting 
# from the CCDC's data processing and validation procedures.
#
#######################################################################

data_VEZDAG
_chemical_formula_moiety         'C25 H25 N1 O3 S1'
_chemical_name_systematic        
1-(4-Methylphenylsulfonyl)-5,5-diphenylazepan-4-one
_symmetry_cell_setting           orthorhombic
_symmetry_space_group_name_H-M   'P 21 21 21'
_symmetry_Int_Tables_number      19
_space_group_name_Hall           'P 2ac 2ab'
loop_
_symmetry_equiv_pos_site_id
_symmetry_equiv_pos_as_xyz
1 x,y,z
2 1/2-x,-y,1/2+z
3 -x,1/2+y,1/2-z
4 1/2+x,1/2-y,-z
_cell_length_a                   9.6116(12)
_cell_length_b                   10.1342(12)
_cell_length_c                   22.210(3)
_cell_angle_alpha                90
_cell_angle_beta                 90
_cell_angle_gamma                90
_cell_volume                     2163.38
_exptl_crystal_colour            colorless
_exptl_crystal_description       prism
_chemical_melting_point          '144-145 deg.C'
_cell_formula_units_Z            4
_exptl_crystal_recrystallization_method 'ethyl acetate/dichloromethane'
loop_
_atom_site_label
_atom_site_type_symbol
_atom_site_fract_x
_atom_site_fract_y
_atom_site_fract_z
S1 S 0.40723(5) 0.51103(5) 0.07460(2)
N1 N 0.36321(14) 0.47680(15) 0.14435(6)
O1 O 0.29158(16) 0.47415(16) 0.03815(6)
O2 O 0.53995(15) 0.45190(15) 0.06433(6)
O3 O 0.36393(15) 0.16659(15) 0.20371(6)
C1 C -0.0576(2) 0.26917(19) 0.19697(9)
H1 H -0.0866 0.2937 0.2353
C2 C -0.1556(2) 0.2332(2) 0.15425(11)
H2 H -0.2497 0.2345 0.1640
C3 C -0.1144(3) 0.1959(2) 0.09768(11)
H3 H -0.1801 0.1715 0.0691
C4 C 0.0244(3) 0.1947(2) 0.08360(9)
H4 H 0.0526 0.1687 0.0453
C5 C 0.1232(2) 0.2319(2) 0.12570(8)
H5 H 0.2169 0.2319 0.1152
C6 C 0.0837(2) 0.26913(16) 0.18332(8)
C7 C 0.0975(2) 0.36525(19) 0.33672(8)
H6 H 0.0906 0.4548 0.3281
C8 C 0.0573(2) 0.3195(2) 0.39298(8)
H7 H 0.0234 0.3784 0.4216
C9 C 0.0673(2) 0.1884(2) 0.40645(9)
H8 H 0.0395 0.1578 0.4440
C10 C 0.11858(19) 0.1016(2) 0.36429(8)
H9 H 0.1270 0.0125 0.3737
C11 C 0.15770(19) 0.14670(19) 0.30790(8)
H10 H 0.1911 0.0873 0.2794
C12 C 0.14753(18) 0.28001(18) 0.29347(8)
C13 C 0.18697(19) 0.32652(18) 0.22918(7)
C14 C 0.18389(19) 0.47716(18) 0.22419(7)
H11 H 0.0901 0.5074 0.2325
H12 H 0.2444 0.5138 0.2549
C15 C 0.22828(18) 0.53057(19) 0.16364(8)
H13 H 0.1582 0.5086 0.1339
H14 H 0.2346 0.6260 0.1659
C16 C 0.47409(19) 0.4819(2) 0.19062(8)
H15 H 0.4714 0.5665 0.2110
H16 H 0.5643 0.4730 0.1714
C17 C 0.4544(2) 0.3705(2) 0.23676(9)
H17 H 0.5406 0.3213 0.2403
H18 H 0.4342 0.4089 0.2758
C18 C 0.3384(2) 0.2766(2) 0.21991(8)
C19 C 0.42550(18) 0.68350(18) 0.06998(8)
C20 C 0.3112(2) 0.7618(2) 0.05906(9)
H19 H 0.2238 0.7238 0.0542
C21 C 0.3269(2) 0.8968(2) 0.05537(10)
H20 H 0.2493 0.9492 0.0480
C22 C 0.4560(2) 0.9564(2) 0.06244(8)
C23 C 0.5680(2) 0.8764(2) 0.07360(10)
H21 H 0.6554 0.9143 0.0785
C24 C 0.55453(19) 0.7412(2) 0.07772(9)
H22 H 0.6320 0.6891 0.0857
C25 C 0.4741(3) 1.1032(2) 0.05621(11)
H23 H 0.3882 1.1420 0.0431
H24 H 0.5456 1.1213 0.0272
H25 H 0.5001 1.1400 0.0944
loop_
_geom_bond_atom_site_label_1
_geom_bond_atom_site_label_2
_geom_bond_site_symmetry_1
_geom_bond_site_symmetry_2
S1 N1 1_555 1_555
N1 C15 1_555 1_555
O1 S1 1_555 1_555
O2 S1 1_555 1_555
O3 C18 1_555 1_555
C1 H1 1_555 1_555
C2 C1 1_555 1_555
H2 C2 1_555 1_555
C3 C2 1_555 1_555
H3 C3 1_555 1_555
C4 C3 1_555 1_555
H4 C4 1_555 1_555
C5 C4 1_555 1_555
H5 C5 1_555 1_555
C6 C1 1_555 1_555
C7 H6 1_555 1_555
C8 C7 1_555 1_555
H7 C8 1_555 1_555
C9 C8 1_555 1_555
H8 C9 1_555 1_555
C10 C9 1_555 1_555
H9 C10 1_555 1_555
C11 C10 1_555 1_555
H10 C11 1_555 1_555
C12 C7 1_555 1_555
C13 C6 1_555 1_555
C14 C13 1_555 1_555
H11 C14 1_555 1_555
H12 C14 1_555 1_555
C15 C14 1_555 1_555
H13 C15 1_555 1_555
H14 C15 1_555 1_555
C16 N1 1_555 1_555
H15 C16 1_555 1_555
H16 C16 1_555 1_555
C17 C16 1_555 1_555
H17 C17 1_555 1_555
H18 C17 1_555 1_555
C18 C13 1_555 1_555
C19 S1 1_555 1_555
C20 C19 1_555 1_555
H19 C20 1_555 1_555
C21 C20 1_555 1_555
H20 C21 1_555 1_555
C22 C21 1_555 1_555
C23 C22 1_555 1_555
H21 C23 1_555 1_555
C24 C19 1_555 1_555
H22 C24 1_555 1_555
C25 C22 1_555 1_555
H23 C25 1_555 1_555
H24 C25 1_555 1_555
H25 C25 1_555 1_555
C5 C6 1_555 1_555
C11 C12 1_555 1_555
C12 C13 1_555 1_555
C17 C18 1_555 1_555
C23 C24 1_555 1_555

#END
