
#######################################################################
#
#                 Cambridge Crystallographic Data Centre
#                                CCDC 
#
#######################################################################
#
# If this CIF has been generated from an entry in the Cambridge 
# Structural Database, then it will include bibliographic, chemical, 
# crystal, experimental, refinement or atomic coordinate data resulting 
# from the CCDC's data processing and validation procedures.
#
#######################################################################

data_VEZFOW
_chemical_formula_moiety         'C33 H28 N4 O3'
_chemical_name_systematic        
3-(4-Ethoxyphenyl)-4-(1-phenethyl-4,5-diphenyl-1H-imidazol-2-yl)sydnone
_symmetry_cell_setting           triclinic
_symmetry_space_group_name_H-M   'P -1'
_symmetry_Int_Tables_number      2
_space_group_name_Hall           '-P 1'
loop_
_symmetry_equiv_pos_site_id
_symmetry_equiv_pos_as_xyz
1 x,y,z
2 -x,-y,-z
_cell_length_a                   11.6064(11)
_cell_length_b                   11.6574(11)
_cell_length_c                   12.9543(12)
_cell_angle_alpha                63.709(2)
_cell_angle_beta                 85.493(2)
_cell_angle_gamma                66.259(2)
_cell_volume                     1427.77
_exptl_crystal_colour            yellow
_exptl_crystal_description       rod
_chemical_melting_point          '171-172 deg.C'
_cell_formula_units_Z            2
_exptl_crystal_recrystallization_method 'ethyl acetate/ethanol'
loop_
_atom_site_label
_atom_site_type_symbol
_atom_site_fract_x
_atom_site_fract_y
_atom_site_fract_z
O1 O 0.84250(11) 0.34616(10) 0.53804(10)
O2 O 0.89419(10) 0.47730(11) 0.59808(10)
O3 O 0.27126(12) 0.73447(17) 0.08723(12)
N1 N 0.68354(11) 0.50174(11) 0.41301(10)
N2 N 0.75217(13) 0.36591(13) 0.46197(12)
N3 N 0.52712(11) 0.78158(11) 0.41461(10)
N4 N 0.70185(10) 0.81951(11) 0.37024(9)
C1 C 0.72168(13) 0.57424(14) 0.44930(12)
C2 C 0.82589(14) 0.47404(15) 0.53442(13)
C3 C 0.65052(13) 0.72338(13) 0.41430(12)
C4 C 0.60219(13) 0.94916(13) 0.33992(11)
C5 C 0.49526(13) 0.92329(13) 0.36764(11)
C6 C 0.36130(13) 1.01952(14) 0.35622(12)
C7 C 0.32578(15) 1.14799(15) 0.35709(13)
H1 H 0.3876 1.1772 0.3632
C8 C 0.19899(18) 1.23277(18) 0.34892(16)
H2 H 0.1762 1.3187 0.3494
C9 C 0.10719(19) 1.1915(2) 0.34016(19)
H3 H 0.0222 1.2493 0.3345
C10 C 0.14057(17) 1.0646(2) 0.33971(19)
H4 H 0.0781 1.0360 0.3343
C11 C 0.26731(15) 0.97902(18) 0.34736(15)
H5 H 0.2893 0.8934 0.3465
C12 C 0.61901(14) 1.08169(14) 0.28509(12)
C13 C 0.55300(16) 1.18473(15) 0.17682(14)
H6 H 0.4996 1.1689 0.1399
C14 C 0.56572(19) 1.30982(17) 0.12369(16)
H7 H 0.5205 1.3781 0.0515
C15 C 0.6441(2) 1.33401(19) 0.17627(19)
H8 H 0.6525 1.4187 0.1400
C16 C 0.71131(19) 1.2329(2) 0.28359(18)
H9 H 0.7655 1.2493 0.3191
C17 C 0.69815(15) 1.10719(17) 0.33840(14)
H10 H 0.7426 1.0399 0.4111
C18 C 0.83594(13) 0.78890(15) 0.35668(13)
H11 H 0.8846 0.6880 0.3959
H12 H 0.8648 0.8298 0.3945
C19 C 0.86321(15) 0.84370(17) 0.23139(14)
H13 H 0.8163 0.9449 0.1935
H14 H 0.9527 0.8243 0.2310
C20 C 0.83169(14) 0.78538(18) 0.16005(13)
C21 C 0.75628(18) 0.8745(2) 0.05486(17)
H15 H 0.7210 0.9707 0.0310
C22 C 0.7320(3) 0.8252(4) -0.0151(2)
H16 H 0.6814 0.8878 -0.0859
C23 C 0.7815(3) 0.6851(4) 0.0181(2)
H17 H 0.7644 0.6518 -0.0295
C24 C 0.8568(2) 0.5927(3) 0.1224(2)
H18 H 0.8910 0.4967 0.1455
C25 C 0.88154(16) 0.64296(19) 0.19298(15)
H19 H 0.9324 0.5801 0.2636
C26 C 0.57709(14) 0.55615(15) 0.32900(12)
C27 C 0.55749(15) 0.67584(17) 0.22666(13)
H20 H 0.6133 0.7189 0.2114
C28 C 0.45523(16) 0.72978(19) 0.14852(15)
H21 H 0.4418 0.8097 0.0790
C29 C 0.37124(15) 0.6674(2) 0.17107(15)
C30 C 0.39306(16) 0.54579(19) 0.27281(16)
H22 H 0.3382 0.5017 0.2874
C31 C 0.49720(15) 0.49008(16) 0.35282(14)
H23 H 0.5124 0.4089 0.4217
C32 C 0.1874(2) 0.6713(3) 0.0945(2)
H24 H 0.1464 0.6588 0.1645
H25 H 0.2330 0.5802 0.0957
C33 C 0.0900(2) 0.7698(4) -0.0121(2)
H26 H 0.0384 0.8551 -0.0072
H27 H 0.0373 0.7258 -0.0163
H28 H 0.1326 0.7909 -0.0803
loop_
_geom_bond_atom_site_label_1
_geom_bond_atom_site_label_2
_geom_bond_site_symmetry_1
_geom_bond_site_symmetry_2
O1 N2 1_555 1_555
O2 C2 1_555 1_555
O3 C29 1_555 1_555
N1 N2 1_555 1_555
N3 C3 1_555 1_555
N4 C3 1_555 1_555
C1 N1 1_555 1_555
C2 O1 1_555 1_555
C3 C1 1_555 1_555
C4 N4 1_555 1_555
C5 N3 1_555 1_555
C6 C5 1_555 1_555
C7 C6 1_555 1_555
H1 C7 1_555 1_555
C8 C7 1_555 1_555
H2 C8 1_555 1_555
C9 C8 1_555 1_555
H3 C9 1_555 1_555
C10 C9 1_555 1_555
H4 C10 1_555 1_555
C11 C6 1_555 1_555
H5 C11 1_555 1_555
C12 C4 1_555 1_555
C13 C12 1_555 1_555
H6 C13 1_555 1_555
C14 C13 1_555 1_555
H7 C14 1_555 1_555
C15 C14 1_555 1_555
H8 C15 1_555 1_555
C16 C15 1_555 1_555
H9 C16 1_555 1_555
C17 C12 1_555 1_555
H10 C17 1_555 1_555
C18 N4 1_555 1_555
H11 C18 1_555 1_555
H12 C18 1_555 1_555
C19 C18 1_555 1_555
H13 C19 1_555 1_555
H14 C19 1_555 1_555
C20 C19 1_555 1_555
C21 C20 1_555 1_555
H15 C21 1_555 1_555
C22 C21 1_555 1_555
H16 C22 1_555 1_555
C23 C22 1_555 1_555
H17 C23 1_555 1_555
C24 C23 1_555 1_555
H18 C24 1_555 1_555
C25 C20 1_555 1_555
H19 C25 1_555 1_555
C26 N1 1_555 1_555
C27 C26 1_555 1_555
H20 C27 1_555 1_555
C28 C27 1_555 1_555
H21 C28 1_555 1_555
C29 C28 1_555 1_555
C30 C29 1_555 1_555
H22 C30 1_555 1_555
C31 C26 1_555 1_555
H23 C31 1_555 1_555
C32 O3 1_555 1_555
H24 C32 1_555 1_555
H25 C32 1_555 1_555
C33 C32 1_555 1_555
H26 C33 1_555 1_555
H27 C33 1_555 1_555
H28 C33 1_555 1_555
C1 C2 1_555 1_555
C4 C5 1_555 1_555
C10 C11 1_555 1_555
C16 C17 1_555 1_555
C24 C25 1_555 1_555
C30 C31 1_555 1_555

#END
