
#######################################################################
#
#                 Cambridge Crystallographic Data Centre
#                                CCDC 
#
#######################################################################
#
# If this CIF has been generated from an entry in the Cambridge 
# Structural Database, then it will include bibliographic, chemical, 
# crystal, experimental, refinement or atomic coordinate data resulting 
# from the CCDC's data processing and validation procedures.
#
#######################################################################

data_VEZFIQ
_chemical_formula_moiety         'C29 H28 N4 O3'
_chemical_name_systematic        
3-(4-Ethoxyphenyl)-4-(1-isobutyl-4,5-diphenyl-1H-imidazol-2-yl)sydnone
_symmetry_cell_setting           triclinic
_symmetry_space_group_name_H-M   'P -1'
_symmetry_Int_Tables_number      2
_space_group_name_Hall           '-P 1'
loop_
_symmetry_equiv_pos_site_id
_symmetry_equiv_pos_as_xyz
1 x,y,z
2 -x,-y,-z
_cell_length_a                   10.7821(11)
_cell_length_b                   10.9877(11)
_cell_length_c                   11.8506(12)
_cell_angle_alpha                69.541(2)
_cell_angle_beta                 79.685(2)
_cell_angle_gamma                76.886(2)
_cell_volume                     1273.41
_exptl_crystal_colour            yellow
_chemical_melting_point          '172-174 deg.C'
_cell_formula_units_Z            2
_exptl_crystal_recrystallization_method dichloromethane/ethanol
loop_
_atom_site_label
_atom_site_type_symbol
_atom_site_fract_x
_atom_site_fract_y
_atom_site_fract_z
O1 O 0.5640(3) -0.0254(2) 0.3772(3)
O2 O 0.4375(3) 0.1221(3) 0.2373(3)
O3 O 1.0461(3) 0.1910(4) 0.6150(3)
N1 N 0.6762(3) 0.0967(3) 0.4021(3)
N2 N 0.6603(3) -0.0269(3) 0.4401(3)
N3 N 0.7134(3) 0.3629(3) 0.2095(3)
N4 N 0.5001(3) 0.4162(3) 0.2354(3)
C1 C 0.5220(4) 0.1022(3) 0.2990(3)
C2 C 0.5989(3) 0.1796(3) 0.3194(3)
C3 C 0.7706(3) 0.1257(3) 0.4577(3)
C4 C 0.7453(4) 0.1174(4) 0.5770(4)
H1 H 0.6678 0.0965 0.6203
C5 C 0.8353(4) 0.1400(5) 0.6329(4)
H2 H 0.8186 0.1350 0.7140
C6 C 0.9493(4) 0.1698(4) 0.5686(4)
C7 C 0.9739(4) 0.1793(4) 0.4477(3)
H3 H 1.0511 0.2007 0.4041
C8 C 0.8841(3) 0.1570(4) 0.3917(3)
H4 H 0.9000 0.1630 0.3104
C9 C 1.0324(5) 0.1715(8) 0.7432(5)
H5 H 0.9859 0.2525 0.7572
H6 H 0.9814 0.1033 0.7850
C10 C 1.1358(14) 0.1397(14) 0.7878(9)
H7 H 1.1633 0.0458 0.8094
H8 H 1.1245 0.1657 0.8589
H9 H 1.1994 0.1831 0.7297
C11 C 0.6056(3) 0.3186(3) 0.2571(3)
C12 C 0.5462(3) 0.5314(3) 0.1689(3)
C13 C 0.6765(3) 0.4964(3) 0.1545(3)
C14 C 0.7742(3) 0.5783(3) 0.0874(3)
C15 C 0.8936(4) 0.5497(4) 0.1292(4)
H10 H 0.9100 0.4818 0.2012
C16 C 0.9884(4) 0.6219(4) 0.0640(4)
H11 H 1.0682 0.6014 0.0921
C17 C 0.9651(4) 0.7228(4) -0.0409(4)
H12 H 1.0288 0.7712 -0.0836
C18 C 0.8474(4) 0.7531(4) -0.0839(4)
H13 H 0.8318 0.8215 -0.1557
C19 C 0.7530(4) 0.6813(3) -0.0197(3)
H14 H 0.6736 0.7023 -0.0488
C20 C 0.4629(3) 0.6616(3) 0.1263(3)
C21 C 0.3697(4) 0.6838(4) 0.0510(3)
H15 H 0.3559 0.6148 0.0293
C22 C 0.2972(4) 0.8080(4) 0.0083(4)
H16 H 0.2342 0.8217 -0.0413
C23 C 0.3170(4) 0.9111(4) 0.0380(4)
H17 H 0.2682 0.9946 0.0083
C24 C 0.4094(4) 0.8907(4) 0.1119(4)
H18 H 0.4229 0.9607 0.1323
C25 C 0.4822(4) 0.7676(3) 0.1561(3)
H19 H 0.5445 0.7549 0.2061
C26 C 0.3679(3) 0.4074(4) 0.2892(4)
H20 H 0.3583 0.3155 0.3183
H21 H 0.3110 0.4544 0.2268
C27 C 0.3273(4) 0.4636(4) 0.3934(4)
H22 H 0.3444 0.5540 0.3647
C28 C 0.1829(5) 0.4699(6) 0.4288(6)
H23 H 0.1383 0.5226 0.3596
H24 H 0.1561 0.5087 0.4923
H25 H 0.1638 0.3823 0.4568
C29 C 0.4024(6) 0.3850(5) 0.4999(5)
H26 H 0.3878 0.2956 0.5289
H27 H 0.3750 0.4236 0.5634
H28 H 0.4920 0.3857 0.4749
loop_
_geom_bond_atom_site_label_1
_geom_bond_atom_site_label_2
_geom_bond_site_symmetry_1
_geom_bond_site_symmetry_2
O1 N2 1_555 1_555
O2 C1 1_555 1_555
O3 C6 1_555 1_555
N1 N2 1_555 1_555
N3 C11 1_555 1_555
N4 C11 1_555 1_555
C1 O1 1_555 1_555
C2 N1 1_555 1_555
C3 N1 1_555 1_555
C4 C3 1_555 1_555
H1 C4 1_555 1_555
C5 C4 1_555 1_555
H2 C5 1_555 1_555
C6 C5 1_555 1_555
C7 C6 1_555 1_555
H3 C7 1_555 1_555
C8 C3 1_555 1_555
H4 C8 1_555 1_555
C9 O3 1_555 1_555
H5 C9 1_555 1_555
H6 C9 1_555 1_555
C10 C9 1_555 1_555
H7 C10 1_555 1_555
H8 C10 1_555 1_555
H9 C10 1_555 1_555
C11 C2 1_555 1_555
C12 N4 1_555 1_555
C13 N3 1_555 1_555
C14 C13 1_555 1_555
C15 C14 1_555 1_555
H10 C15 1_555 1_555
C16 C15 1_555 1_555
H11 C16 1_555 1_555
C17 C16 1_555 1_555
H12 C17 1_555 1_555
C18 C17 1_555 1_555
H13 C18 1_555 1_555
C19 C14 1_555 1_555
H14 C19 1_555 1_555
C20 C12 1_555 1_555
C21 C20 1_555 1_555
H15 C21 1_555 1_555
C22 C21 1_555 1_555
H16 C22 1_555 1_555
C23 C22 1_555 1_555
H17 C23 1_555 1_555
C24 C23 1_555 1_555
H18 C24 1_555 1_555
C25 C20 1_555 1_555
H19 C25 1_555 1_555
C26 N4 1_555 1_555
H20 C26 1_555 1_555
H21 C26 1_555 1_555
C27 C26 1_555 1_555
H22 C27 1_555 1_555
C28 C27 1_555 1_555
H23 C28 1_555 1_555
H24 C28 1_555 1_555
H25 C28 1_555 1_555
C29 C27 1_555 1_555
H26 C29 1_555 1_555
H27 C29 1_555 1_555
H28 C29 1_555 1_555
C1 C2 1_555 1_555
C7 C8 1_555 1_555
C12 C13 1_555 1_555
C18 C19 1_555 1_555
C24 C25 1_555 1_555

#END
