
#######################################################################
#
#                 Cambridge Crystallographic Data Centre
#                                CCDC 
#
#######################################################################
#
# If this CIF has been generated from an entry in the Cambridge 
# Structural Database, then it will include bibliographic, chemical, 
# crystal, experimental, refinement or atomic coordinate data resulting 
# from the CCDC's data processing and validation procedures.
#
#######################################################################

data_VEZJUF
_chemical_formula_moiety         'C19 H25 Br1 O5,H2 O1'
_chemical_name_systematic        
'6-(2-(4-Bromobenzoyloxy)ethyl)-7-hydroxy-2,3,4,4a,7,8,9,10-octahydro-(4aS,10aR)-pyrano(3,2-b)oxocine monohydrate'
_symmetry_cell_setting           triclinic
_symmetry_space_group_name_H-M   'P -1'
_symmetry_Int_Tables_number      2
_space_group_name_Hall           '-P 1'
loop_
_symmetry_equiv_pos_site_id
_symmetry_equiv_pos_as_xyz
1 x,y,z
2 -x,-y,-z
_cell_length_a                   10.423(2)
_cell_length_b                   11.256(4)
_cell_length_c                   9.099(2)
_cell_angle_alpha                104.62(2)
_cell_angle_beta                 93.45(2)
_cell_angle_gamma                72.96(2)
_cell_volume                     987.486
_cell_formula_units_Z            2
loop_
_atom_site_label
_atom_site_type_symbol
_atom_site_fract_x
_atom_site_fract_y
_atom_site_fract_z
Br1 Br 0.29343(6) 0.40678(5) 0.23962(6)
C1 C 0.1596(6) -0.4534(4) -0.1073(5)
C2 C 0.3042(6) -0.4764(5) -0.1445(6)
C3 C 0.3217(5) -0.4704(4) -0.3091(5)
C4 C 0.2245(5) -0.3458(4) -0.3344(4)
C5 C 0.0810(5) -0.3338(4) -0.2946(5)
C6 C -0.0248(5) -0.2107(4) -0.3110(5)
C7 C -0.0989(5) -0.2208(5) -0.4627(6)
C8 C -0.0165(5) -0.2838(4) -0.6069(5)
C9 C 0.0869(5) -0.2237(4) -0.6397(5)
C10 C 0.2050(4) -0.2293(4) -0.5315(4)
C11 C 0.3248(5) -0.2156(4) -0.6065(5)
C12 C 0.4419(5) -0.2098(5) -0.5046(6)
C13 C 0.4895(4) -0.0440(4) -0.3126(5)
C14 C 0.4377(4) 0.0655(4) -0.1811(5)
C15 C 0.3016(5) 0.1165(4) -0.1463(5)
C16 C 0.2578(5) 0.2182(4) -0.0214(5)
C17 C 0.3511(5) 0.2661(4) 0.0678(5)
C18 C 0.4862(5) 0.2169(4) 0.0358(5)
C19 C 0.5301(5) 0.1170(4) -0.0892(5)
O1 O 0.0784(3) -0.3348(3) -0.1366(3)
O2 O 0.2429(3) -0.3500(2) -0.4905(3)
O3 O 0.0256(3) -0.0916(3) -0.6434(3)
O4 O 0.3980(3) -0.0989(3) -0.3783(4)
O5 O 0.6044(3) -0.0803(4) -0.3543(5)
H1 H 0.2402 -0.2696 -0.2685
H2 H 0.0585 -0.4032 -0.3653
H3 H 0.1221 -0.2759 -0.7375
H4 H 0.1777 -0.1597 -0.4420
H5 H 0.1488 -0.4524 -0.0033
H6 H 0.1288 -0.5227 -0.1693
H7 H 0.3556 -0.5578 -0.1297
H8 H 0.3362 -0.4114 -0.0754
H9 H 0.3023 -0.5418 -0.3776
H10 H 0.4113 -0.4719 -0.3254
H11 H 0.0190 -0.1440 -0.2989
H12 H -0.0892 -0.1840 -0.2292
H13 H -0.1484 -0.1359 -0.4689
H14 H -0.1610 -0.2678 -0.4597
H15 H -0.0761 -0.2864 -0.6910
H16 H 0.0303 -0.3700 -0.6037
H17 H 0.2966 -0.1381 -0.6415
H18 H 0.3516 -0.2863 -0.6931
H19 H 0.5150 -0.2035 -0.5583
H20 H 0.4725 -0.2867 -0.4690
H21 H 0.2373 0.0806 -0.2090
H22 H 0.1631 0.2551 0.0029
H23 H 0.5489 0.2527 0.1005
H24 H 0.6243 0.0827 -0.1135
O6 O 0.0855(5) 0.9052(4) 0.0622(4)
H25 H -0.0293 0.9160 0.0820
H26 H 0.1113 0.8339 0.0000
loop_
_geom_bond_atom_site_label_1
_geom_bond_atom_site_label_2
_geom_bond_site_symmetry_1
_geom_bond_site_symmetry_2
Br1 C17 1_555 1_555
C1 C2 1_555 1_555
C2 C3 1_555 1_555
C3 C4 1_555 1_555
C4 C5 1_555 1_555
C5 C6 1_555 1_555
C6 C7 1_555 1_555
C7 C8 1_555 1_555
C8 C9 1_555 1_555
C9 C10 1_555 1_555
C10 C11 1_555 1_555
C11 C12 1_555 1_555
C12 O4 1_555 1_555
C13 C14 1_555 1_555
C14 C15 1_555 1_555
C15 C16 1_555 1_555
C16 C17 1_555 1_555
C17 C18 1_555 1_555
C18 C19 1_555 1_555
C19 C14 1_555 1_555
O1 C1 1_555 1_555
O2 C4 1_555 1_555
O3 C9 1_555 1_555
O4 C13 1_555 1_555
O5 C13 1_555 1_555
O6 H25 1_555 1_555
H1 C4 1_555 1_555
H2 C5 1_555 1_555
H3 C9 1_555 1_555
H4 C10 1_555 1_555
H5 C1 1_555 1_555
H6 C1 1_555 1_555
H7 C2 1_555 1_555
H8 C2 1_555 1_555
H9 C3 1_555 1_555
H10 C3 1_555 1_555
H11 C6 1_555 1_555
H12 C6 1_555 1_555
H13 C7 1_555 1_555
H14 C7 1_555 1_555
H15 C8 1_555 1_555
H16 C8 1_555 1_555
H17 C11 1_555 1_555
H18 C11 1_555 1_555
H19 C12 1_555 1_555
H20 C12 1_555 1_555
H21 C15 1_555 1_555
H22 C16 1_555 1_555
H23 C18 1_555 1_555
H24 C19 1_555 1_555
H26 O6 1_555 1_555
C5 O1 1_555 1_555
C10 O2 1_555 1_555

#END
