
#######################################################################
#
#                 Cambridge Crystallographic Data Centre
#                                CCDC 
#
#######################################################################
#
# If this CIF has been generated from an entry in the Cambridge 
# Structural Database, then it will include bibliographic, chemical, 
# crystal, experimental, refinement or atomic coordinate data resulting 
# from the CCDC's data processing and validation procedures.
#
#######################################################################

data_VEZKAN
_chemical_formula_moiety         'C22 H40 Si2'
_chemical_name_systematic        
8-(Trimethylsilyl)-1-(8-(trimethylsilyl)bicyclo(5.1.0)octan-1-yl)bicyclo(5.1.0)oct-7-ene
_symmetry_cell_setting           monoclinic
_symmetry_space_group_name_H-M   'C 2/c'
_symmetry_Int_Tables_number      15
_space_group_name_Hall           '-C 2yn'
loop_
_symmetry_equiv_pos_site_id
_symmetry_equiv_pos_as_xyz
1 x,y,z
2 1/2+x,1/2+y,z
3 -x,y,1/2-z
4 1/2-x,1/2+y,1/2-z
5 -x,-y,-z
6 1/2-x,1/2-y,-z
7 x,-y,1/2+z
8 1/2+x,1/2-y,1/2+z
_cell_length_a                   28.9176(11)
_cell_length_b                   8.698(3)
_cell_length_c                   19.661(8)
_cell_angle_alpha                90
_cell_angle_beta                 106.5380(10)
_cell_angle_gamma                90
_cell_volume                     4740.66
_exptl_crystal_colour            white
_exptl_crystal_description       prism
_chemical_melting_point          '53-54 deg.C'
_cell_formula_units_Z            8
loop_
_atom_site_label
_atom_site_type_symbol
_atom_site_fract_x
_atom_site_fract_y
_atom_site_fract_z
C1 C 0.13735(10) -0.0062(3) -0.09096(16)
H1 H 0.1298 -0.0976 -0.1194
H2 H 0.1622 -0.0287 -0.0480
H3 H 0.1484 0.0722 -0.1169
C2 C 0.03451(12) 0.0993(4) -0.15342(17)
H4 H 0.0309 0.0104 -0.1834
H5 H 0.0435 0.1861 -0.1770
H6 H 0.0045 0.1204 -0.1435
C3 C 0.06192(12) -0.0963(3) -0.02047(19)
H7 H 0.0591 -0.1895 -0.0475
H8 H 0.0311 -0.0707 -0.0141
H9 H 0.0850 -0.1106 0.0250
C4 C 0.08752(7) 0.2396(2) -0.01389(12)
H10 H 0.0596 0.2467 0.0049
C5 C 0.10177(8) 0.4012(2) -0.03144(12)
H11 H 0.0801 0.4821 -0.0240
C6 C 0.13033(7) 0.3253(2) 0.03578(11)
C7 C 0.18156(7) 0.2760(2) 0.04032(13)
H12 H 0.1811 0.2142 -0.0009
H13 H 0.1939 0.2124 0.0821
C8 C 0.21551(8) 0.4128(3) 0.04406(15)
H14 H 0.2080 0.4904 0.0748
H15 H 0.2483 0.3787 0.0660
C9 C 0.21341(10) 0.4864(3) -0.02609(18)
H16 H 0.2229 0.4102 -0.0555
H17 H 0.2371 0.5683 -0.0175
C10 C 0.16511(11) 0.5527(3) -0.06780(16)
H18 H 0.1691 0.6024 -0.1100
H19 H 0.1559 0.6313 -0.0392
C11 C 0.12405(10) 0.4361(3) -0.09046(13)
H20 H 0.0994 0.4761 -0.1310
H21 H 0.1363 0.3416 -0.1050
C12 C 0.12283(7) 0.3804(2) 0.10481(11)
C13 C 0.13131(9) 0.2564(3) 0.16223(13)
H22 H 0.1201 0.1588 0.1396
H23 H 0.1658 0.2473 0.1843
C14 C 0.10685(11) 0.2840(3) 0.21986(14)
H24 H 0.1189 0.3799 0.2435
H25 H 0.1163 0.2025 0.2547
C15 C 0.05173(13) 0.2916(4) 0.1948(2)
H26 H 0.0406 0.2229 0.1546
H27 H 0.0396 0.2516 0.2326
C16 C 0.02888(11) 0.4474(5) 0.17353(19)
H28 H -0.0053 0.4400 0.1691
H29 H 0.0428 0.5200 0.2112
C17 C 0.03496(8) 0.5100(4) 0.10515(15)
H30 H 0.0149 0.4522 0.0654
H31 H 0.0248 0.6166 0.0996
C18 C 0.08620(7) 0.4984(2) 0.10569(11)
C19 C 0.13007(8) 0.5506(2) 0.12801(12)
C20 C 0.13299(16) 0.8258(4) 0.2189(2)
H32 H 0.1527 0.9064 0.2455
H33 H 0.1201 0.7650 0.2499
H34 H 0.1070 0.8699 0.1823
C21 C 0.19558(12) 0.8205(3) 0.11921(17)
H35 H 0.2162 0.8979 0.1468
H36 H 0.1698 0.8687 0.0838
H37 H 0.2139 0.7564 0.0966
C22 C 0.21865(14) 0.6079(5) 0.2478(2)
H38 H 0.2400 0.6849 0.2745
H39 H 0.2364 0.5393 0.2263
H40 H 0.2047 0.5509 0.2788
Si1 Si 0.08224(2) 0.06253(8) -0.06876(4)
Si2 Si 0.17017(3) 0.70155(8) 0.17784(4)
loop_
_geom_bond_atom_site_label_1
_geom_bond_atom_site_label_2
_geom_bond_site_symmetry_1
_geom_bond_site_symmetry_2
C1 H1 1_555 1_555
H2 C1 1_555 1_555
H3 C1 1_555 1_555
C2 H4 1_555 1_555
H5 C2 1_555 1_555
H6 C2 1_555 1_555
C3 H7 1_555 1_555
H8 C3 1_555 1_555
H9 C3 1_555 1_555
C4 H10 1_555 1_555
C5 C4 1_555 1_555
H11 C5 1_555 1_555
C6 C4 1_555 1_555
C7 C6 1_555 1_555
H12 C7 1_555 1_555
H13 C7 1_555 1_555
C8 C7 1_555 1_555
H14 C8 1_555 1_555
H15 C8 1_555 1_555
C9 C8 1_555 1_555
H16 C9 1_555 1_555
H17 C9 1_555 1_555
C10 C9 1_555 1_555
H18 C10 1_555 1_555
H19 C10 1_555 1_555
C11 C5 1_555 1_555
H20 C11 1_555 1_555
H21 C11 1_555 1_555
C12 C6 1_555 1_555
C13 C12 1_555 1_555
H22 C13 1_555 1_555
H23 C13 1_555 1_555
C14 C13 1_555 1_555
H24 C14 1_555 1_555
H25 C14 1_555 1_555
C15 C14 1_555 1_555
H26 C15 1_555 1_555
H27 C15 1_555 1_555
C16 C15 1_555 1_555
H28 C16 1_555 1_555
H29 C16 1_555 1_555
C17 C16 1_555 1_555
H30 C17 1_555 1_555
H31 C17 1_555 1_555
C18 C12 1_555 1_555
C19 C12 1_555 1_555
C20 H32 1_555 1_555
H33 C20 1_555 1_555
H34 C20 1_555 1_555
C21 H35 1_555 1_555
H36 C21 1_555 1_555
H37 C21 1_555 1_555
C22 H38 1_555 1_555
H39 C22 1_555 1_555
H40 C22 1_555 1_555
Si1 C1 1_555 1_555
Si2 C19 1_555 1_555
C2 Si1 1_555 1_555
C3 Si1 1_555 1_555
C4 Si1 1_555 1_555
C5 C6 1_555 1_555
C10 C11 1_555 1_555
C17 C18 1_555 1_555
C18 C19 1_555 1_555
C20 Si2 1_555 1_555
C21 Si2 1_555 1_555
C22 Si2 1_555 1_555

#END
