
#######################################################################
#
#                 Cambridge Crystallographic Data Centre
#                                CCDC 
#
#######################################################################
#
# If this CIF has been generated from an entry in the Cambridge 
# Structural Database, then it will include bibliographic, chemical, 
# crystal, experimental, refinement or atomic coordinate data resulting 
# from the CCDC's data processing and validation procedures.
#
#######################################################################

data_VIBBUF
_chemical_formula_moiety         'C21 H27 N1 O5'
_chemical_name_systematic        
"4a,6b-Dimethyl-2-oxo-1,4a,5,6,6a,6b,7,8,9,12,12a,12b-dodecahydro-2H,4H-pyrano[3',4':7,8]phenanthro[10,1-cd][1,2]oxazol-9-yl acetate"
_symmetry_cell_setting           orthorhombic
_symmetry_space_group_name_H-M   'P 21 21 21'
_symmetry_Int_Tables_number      19
_space_group_name_Hall           'P 2ac 2ab'
loop_
_symmetry_equiv_pos_site_id
_symmetry_equiv_pos_as_xyz
1 x,y,z
2 1/2-x,-y,1/2+z
3 1/2+x,1/2-y,-z
4 -x,1/2+y,1/2-z
_cell_length_a                   7.6964(6)
_cell_length_b                   9.0385(9)
_cell_length_c                   28.1815(19)
_cell_angle_alpha                90
_cell_angle_beta                 90
_cell_angle_gamma                90
_cell_volume                     1960.42
_exptl_crystal_colour            colorless
_exptl_crystal_description       prism
_cell_formula_units_Z            4
loop_
_atom_site_label
_atom_site_type_symbol
_atom_site_fract_x
_atom_site_fract_y
_atom_site_fract_z
C1 C 0.8249(4) 0.4783(4) 0.15548(10)
O1 O 0.9254(3) 0.0881(3) 0.05326(9)
C2 C 0.7546(5) 0.7478(4) 0.17795(11)
C3 C 0.5977(4) 0.3198(4) 0.11037(10)
C4 C 0.6705(4) 0.4774(4) 0.11991(10)
O2 O 0.5998(4) -0.0703(3) 0.02597(8)
C5 C 0.7573(5) 0.1308(4) 0.06035(11)
C6 C 0.7521(4) 0.2322(4) 0.09518(10)
C7 C 0.9253(4) 0.2553(4) 0.10888(11)
N1 N 1.0326(4) 0.1695(4) 0.08533(11)
C8 C 0.6145(5) 0.0899(4) 0.02859(13)
C9 C 0.8920(5) 0.6360(4) 0.16258(10)
C10 C 0.5317(5) 0.5884(4) 0.13535(12)
H1 H 0.4401 0.5907 0.1117
H2 H 0.4809 0.5556 0.1650
C11 C 0.4705(5) 0.3126(4) 0.06800(11)
H3 H 0.3581 0.3497 0.0780
H4 H 0.5129 0.3766 0.0429
C12 C 0.9781(5) 0.3746(4) 0.14212(12)
H5 H 1.0697 0.4329 0.1276
H6 H 1.0246 0.3304 0.1708
C13 C 0.5117(5) 0.2524(4) 0.15475(11)
H7 H 0.4798 0.1516 0.1484
H8 H 0.4097 0.3082 0.1627
H9 H 0.5920 0.2553 0.1808
O3 O 0.9940(4) 0.9127(3) 0.20491(11)
C14 C 1.0466(5) 0.6458(4) 0.19710(12)
H10 H 1.0182 0.5890 0.2253
H11 H 1.1460 0.5988 0.1823
C15 C 0.4481(5) 0.1547(4) 0.04820(13)
H12 H 0.4052 0.0909 0.0733
H13 H 0.3613 0.1564 0.0232
C16 C 0.6036(6) 0.7442(4) 0.14180(13)
H14 H 0.5114 0.8091 0.1526
H15 H 0.6445 0.7811 0.1115
O4 O 1.2318(4) 0.8202(4) 0.23330(12)
C17 C 0.6080(6) -0.1377(4) -0.01410(14)
C18 C 0.8398(6) 0.8989(5) 0.17618(15)
H16 H 0.8699 0.9209 0.1435
H17 H 0.7561 0.9724 0.1865
C19 C 1.0991(6) 0.7972(5) 0.21228(13)
C20 C 0.6020(7) -0.3009(4) -0.01184(17)
H18 H 0.4936 -0.3316 0.0019
H19 H 0.6962 -0.3363 0.0074
H20 H 0.6122 -0.3409 -0.0433
C21 C 0.6850(6) 0.7189(5) 0.22859(11)
H21 H 0.7779 0.7301 0.2511
H22 H 0.6396 0.6201 0.2304
H23 H 0.5945 0.7885 0.2357
O5 O 0.6221(9) -0.0722(4) -0.04930(11)
H24 H 0.769(4) 0.443(3) 0.1864(11)
H25 H 0.710(4) 0.516(4) 0.0893(11)
H26 H 0.638(4) 0.121(3) -0.0023(11)
H27 H 0.937(3) 0.669(3) 0.1298(10)
loop_
_geom_bond_atom_site_label_1
_geom_bond_atom_site_label_2
_geom_bond_site_symmetry_1
_geom_bond_site_symmetry_2
C1 C4 1_555 1_555
O1 C5 1_555 1_555
C2 C9 1_555 1_555
C3 C4 1_555 1_555
C4 C10 1_555 1_555
O2 C8 1_555 1_555
C5 C6 1_555 1_555
C6 C3 1_555 1_555
C7 C6 1_555 1_555
N1 O1 1_555 1_555
C8 C5 1_555 1_555
C9 C1 1_555 1_555
C10 H1 1_555 1_555
H2 C10 1_555 1_555
C11 C3 1_555 1_555
H3 C11 1_555 1_555
H4 C11 1_555 1_555
C12 C1 1_555 1_555
H5 C12 1_555 1_555
H6 C12 1_555 1_555
C13 C3 1_555 1_555
H7 C13 1_555 1_555
H8 C13 1_555 1_555
H9 C13 1_555 1_555
O3 C18 1_555 1_555
C14 C9 1_555 1_555
H10 C14 1_555 1_555
H11 C14 1_555 1_555
C15 C8 1_555 1_555
H12 C15 1_555 1_555
H13 C15 1_555 1_555
C16 C2 1_555 1_555
H14 C16 1_555 1_555
H15 C16 1_555 1_555
O4 C19 1_555 1_555
C17 O2 1_555 1_555
C18 C2 1_555 1_555
H16 C18 1_555 1_555
H17 C18 1_555 1_555
C19 O3 1_555 1_555
C20 C17 1_555 1_555
H18 C20 1_555 1_555
H19 C20 1_555 1_555
H20 C20 1_555 1_555
C21 C2 1_555 1_555
H21 C21 1_555 1_555
H22 C21 1_555 1_555
H23 C21 1_555 1_555
O5 C17 1_555 1_555
H24 C1 1_555 1_555
H25 C4 1_555 1_555
H26 C8 1_555 1_555
H27 C9 1_555 1_555
C7 N1 1_555 1_555
C7 C12 1_555 1_555
C10 C16 1_555 1_555
C11 C15 1_555 1_555
C14 C19 1_555 1_555

#END
