
#######################################################################
#
#                 Cambridge Crystallographic Data Centre
#                                CCDC 
#
#######################################################################
#
# If this CIF has been generated from an entry in the Cambridge 
# Structural Database, then it will include bibliographic, chemical, 
# crystal, experimental, refinement or atomic coordinate data resulting 
# from the CCDC's data processing and validation procedures.
#
#######################################################################

data_VIBBOZ
_chemical_formula_moiety         'C19 H25 N1 O4,H2 O1'
_chemical_name_systematic        
"9-Hydroxy-4a,6b-dimethyl-1,4a,5,6,6a,6b,7,8,9,12,12a,12b-dodecahydro-2H,4H-pyrano[3',4':7,8]phenanthro[10,1-cd][1,2]oxazol-2-one monohydrate"
_symmetry_cell_setting           orthorhombic
_symmetry_space_group_name_H-M   'P 21 21 21'
_symmetry_Int_Tables_number      19
_space_group_name_Hall           'P 2ac 2ab'
loop_
_symmetry_equiv_pos_site_id
_symmetry_equiv_pos_as_xyz
1 x,y,z
2 1/2-x,-y,1/2+z
3 1/2+x,1/2-y,-z
4 -x,1/2+y,1/2-z
_cell_length_a                   7.6411(3)
_cell_length_b                   8.3284(4)
_cell_length_c                   27.4713(13)
_cell_angle_alpha                90
_cell_angle_beta                 90
_cell_angle_gamma                90
_cell_volume                     1748.22
_exptl_crystal_colour            colorless
_exptl_crystal_description       plate
_cell_formula_units_Z            4
loop_
_atom_site_label
_atom_site_type_symbol
_atom_site_fract_x
_atom_site_fract_y
_atom_site_fract_z
C1 C 0.4936(3) -0.4143(3) 0.87206(9)
H1 H 0.5716 -0.4966 0.8844
H2 H 0.4172 -0.3815 0.8985
C2 C 0.3827(3) -0.4848(3) 0.83082(9)
H3 H 0.3260 -0.5816 0.8425
H4 H 0.4595 -0.5150 0.8042
C3 C 0.2426(4) -0.3699(3) 0.81138(9)
C4 C 0.3231(3) -0.2072(3) 0.80911(8)
C5 C 0.4749(3) -0.1630(3) 0.82922(8)
C6 C 0.4754(3) 0.0051(3) 0.82796(8)
C7 C 0.6097(3) 0.1036(3) 0.85357(9)
H5 H 0.5525 0.1716 0.8774
H6 H 0.6679 0.1726 0.8302
C8 C 0.7485(3) -0.0026(3) 0.87961(8)
C9 C 0.6731(3) -0.1643(3) 0.89787(8)
C10 C 0.6028(3) -0.2686(3) 0.85525(8)
C11 C 0.8052(3) -0.2547(3) 0.92942(8)
H7 H 0.7494 -0.3496 0.9428
H8 H 0.9016 -0.2901 0.9091
C12 C 0.8771(4) -0.1542(3) 0.97088(9)
H9 H 0.9614 -0.2171 0.9892
H10 H 0.7824 -0.1253 0.9927
C13 C 0.9651(3) -0.0018(3) 0.95208(8)
C14 C 0.8305(3) 0.0921(3) 0.92192(8)
C15 C 0.9118(4) 0.2510(3) 0.90580(9)
H11 H 0.9739 0.2321 0.8756
H12 H 0.8173 0.3252 0.8987
C16 C 1.0346(4) 0.3321(4) 0.94017(11)
C17 C 1.0085(3) 0.1036(3) 0.99524(8)
H13 H 0.9030 0.1203 1.0142
H14 H 1.0921 0.0479 1.0158
C18 C 1.1322(3) -0.0413(4) 0.92385(10)
H15 H 1.1919 0.0565 0.9156
H16 H 1.1026 -0.0981 0.8946
H17 H 1.2071 -0.1070 0.9436
C19 C 0.7513(3) -0.3244(4) 0.82126(9)
H18 H 0.7021 -0.3723 0.7926
H19 H 0.8228 -0.4017 0.8379
H20 H 0.8217 -0.2337 0.8122
N1 N 0.3345(3) 0.0617(3) 0.80687(8)
O1 O 0.1752(3) -0.4146(3) 0.76550(7)
O2 O 0.2333(2) -0.0762(2) 0.79407(6)
O3 O 1.0803(3) 0.2585(3) 0.98196(7)
O4 O 1.1008(3) 0.4604(3) 0.93193(8)
H21 H 0.568(3) -0.141(2) 0.9176(7)
H22 H 0.837(3) -0.020(3) 0.8579(7)
H23 H 0.734(3) 0.115(2) 0.9438(6)
H24 H 0.140(4) -0.361(3) 0.8362(9)
H25 H 0.121(4) -0.508(4) 0.7699(10)
O5 O 0.0484(3) -0.7113(3) 0.78797(8)
H26 H -0.015(4) -0.761(4) 0.7716(10)
H27 H 0.137(4) -0.775(4) 0.7922(11)
loop_
_geom_bond_atom_site_label_1
_geom_bond_atom_site_label_2
_geom_bond_site_symmetry_1
_geom_bond_site_symmetry_2
C1 H1 1_555 1_555
H2 C1 1_555 1_555
C2 C1 1_555 1_555
H3 C2 1_555 1_555
H4 C2 1_555 1_555
C3 C2 1_555 1_555
C4 C3 1_555 1_555
C5 C4 1_555 1_555
C6 C5 1_555 1_555
C7 C6 1_555 1_555
H5 C7 1_555 1_555
H6 C7 1_555 1_555
C8 C7 1_555 1_555
C9 C8 1_555 1_555
C10 C1 1_555 1_555
C11 C9 1_555 1_555
H7 C11 1_555 1_555
H8 C11 1_555 1_555
C12 C11 1_555 1_555
H9 C12 1_555 1_555
H10 C12 1_555 1_555
C13 C12 1_555 1_555
C14 C8 1_555 1_555
C15 C14 1_555 1_555
H11 C15 1_555 1_555
H12 C15 1_555 1_555
C16 C15 1_555 1_555
C17 C13 1_555 1_555
H13 C17 1_555 1_555
H14 C17 1_555 1_555
C18 C13 1_555 1_555
H15 C18 1_555 1_555
H16 C18 1_555 1_555
H17 C18 1_555 1_555
C19 C10 1_555 1_555
H18 C19 1_555 1_555
H19 C19 1_555 1_555
H20 C19 1_555 1_555
N1 C6 1_555 1_555
O1 C3 1_555 1_555
O2 C4 1_555 1_555
O3 C16 1_555 1_555
O4 C16 1_555 1_555
H21 C9 1_555 1_555
H22 C8 1_555 1_555
H23 C14 1_555 1_555
H24 C3 1_555 1_555
H25 O1 1_555 1_555
O5 H26 1_555 1_555
H27 O5 1_555 1_555
C5 C10 1_555 1_555
C9 C10 1_555 1_555
C13 C14 1_555 1_555
C17 O3 1_555 1_555
N1 O2 1_555 1_555

#END
