
#######################################################################
#
#                 Cambridge Crystallographic Data Centre
#                                CCDC 
#
#######################################################################
#
# If this CIF has been generated from an entry in the Cambridge 
# Structural Database, then it will include bibliographic, chemical, 
# crystal, experimental, refinement or atomic coordinate data resulting 
# from the CCDC's data processing and validation procedures.
#
#######################################################################

data_VIBJAT
_chemical_formula_moiety         'C22 H22 O2'
_chemical_name_systematic        
9-Phenyl-10,18-dioxapentacyclo[10.5.1.0^1,14^.0^2,7^.0^8,12^]octadeca-2,4,6-triene
_symmetry_cell_setting           orthorhombic
_symmetry_space_group_name_H-M   'P c c n'
_symmetry_Int_Tables_number      56
_space_group_name_Hall           '-P 2ab 2ac'
loop_
_symmetry_equiv_pos_site_id
_symmetry_equiv_pos_as_xyz
1 x,y,z
2 1/2+x,-y,1/2-z
3 -x,1/2+y,1/2-z
4 1/2-x,1/2-y,z
5 -x,-y,-z
6 1/2-x,y,1/2+z
7 x,1/2-y,1/2+z
8 1/2+x,1/2+y,-z
_cell_length_a                   18.1523(18)
_cell_length_b                   18.4758(19)
_cell_length_c                   9.9808(10)
_cell_angle_alpha                90
_cell_angle_beta                 90
_cell_angle_gamma                90
_cell_volume                     3347.34
_exptl_crystal_colour            colorless
_exptl_crystal_description       block
_cell_formula_units_Z            8
loop_
_atom_site_label
_atom_site_type_symbol
_atom_site_fract_x
_atom_site_fract_y
_atom_site_fract_z
C1 C 0.06901(16) 0.30378(13) 0.0906(3)
H1 H 0.0311 0.2797 0.0387
H2 H 0.1168 0.2923 0.0525
C2 C 0.05645(12) 0.38492(12) 0.0933(2)
H3 H 0.0046 0.3962 0.1035
H4 H 0.0748 0.4076 0.0122
C3 C 0.10022(10) 0.40909(10) 0.21495(19)
C4 C 0.09506(13) 0.34559(11) 0.3166(2)
H5 H 0.0607 0.3579 0.3889
C5 C 0.06535(16) 0.28144(13) 0.2356(3)
H6 H 0.0952 0.2387 0.2509
H7 H 0.0149 0.2708 0.2612
C6 C 0.08290(10) 0.48075(10) 0.28063(19)
C7 C 0.01400(11) 0.51339(12) 0.2743(2)
H8 H -0.0231 0.4921 0.2235
C8 C 0.00001(12) 0.57668(12) 0.3420(3)
H9 H -0.0463 0.5981 0.3365
C9 C 0.05472(12) 0.60849(13) 0.4181(3)
H10 H 0.0454 0.6515 0.4633
C10 C 0.13810(10) 0.51234(10) 0.35973(19)
C11 C 0.21260(10) 0.47645(10) 0.37069(19)
H11 H 0.2257 0.4714 0.4655
C12 C 0.17324(14) 0.33998(12) 0.3714(2)
H12 H 0.1951 0.2937 0.3486
H13 H 0.1736 0.3455 0.4681
C13 C 0.21487(11) 0.40206(10) 0.30388(19)
C14 C 0.29627(12) 0.39087(13) 0.2811(3)
H14 H 0.3167 0.3611 0.3520
H15 H 0.3044 0.3666 0.1962
C15 C 0.27541(10) 0.51482(11) 0.29658(19)
H16 H 0.2578 0.5293 0.2077
C16 C 0.30891(10) 0.57958(11) 0.3639(2)
C17 C 0.34149(11) 0.57329(12) 0.4889(2)
H17 H 0.3447 0.5281 0.5295
C18 C 0.36933(13) 0.63344(13) 0.5542(2)
H18 H 0.3908 0.6284 0.6383
C19 C 0.36544(14) 0.70055(14) 0.4955(3)
H19 H 0.3830 0.7412 0.5403
C20 C 0.33526(16) 0.70688(14) 0.3697(3)
H20 H 0.3339 0.7519 0.3282
C21 C 0.30693(14) 0.64721(13) 0.3041(3)
H21 H 0.2864 0.6525 0.2192
C22 C 0.12329(11) 0.57632(11) 0.4271(2)
H22 H 0.1599 0.5978 0.4788
O1 O 0.17744(7) 0.40885(7) 0.17759(12)
O2 O 0.33077(8) 0.45967(9) 0.28041(18)
loop_
_geom_bond_atom_site_label_1
_geom_bond_atom_site_label_2
_geom_bond_site_symmetry_1
_geom_bond_site_symmetry_2
C1 H1 1_555 1_555
H2 C1 1_555 1_555
C2 C1 1_555 1_555
H3 C2 1_555 1_555
H4 C2 1_555 1_555
C3 C2 1_555 1_555
C4 C3 1_555 1_555
H5 C4 1_555 1_555
C5 C1 1_555 1_555
H6 C5 1_555 1_555
H7 C5 1_555 1_555
C6 C3 1_555 1_555
C7 C6 1_555 1_555
H8 C7 1_555 1_555
C8 C7 1_555 1_555
H9 C8 1_555 1_555
C9 C8 1_555 1_555
H10 C9 1_555 1_555
C10 C6 1_555 1_555
C11 C10 1_555 1_555
H11 C11 1_555 1_555
C12 C4 1_555 1_555
H12 C12 1_555 1_555
H13 C12 1_555 1_555
C13 C11 1_555 1_555
C14 C13 1_555 1_555
H14 C14 1_555 1_555
H15 C14 1_555 1_555
C15 C11 1_555 1_555
H16 C15 1_555 1_555
C16 C15 1_555 1_555
C17 C16 1_555 1_555
H17 C17 1_555 1_555
C18 C17 1_555 1_555
H18 C18 1_555 1_555
C19 C18 1_555 1_555
H19 C19 1_555 1_555
C20 C19 1_555 1_555
H20 C20 1_555 1_555
C21 C16 1_555 1_555
H21 C21 1_555 1_555
C22 C9 1_555 1_555
H22 C22 1_555 1_555
O1 C3 1_555 1_555
O2 C14 1_555 1_555
C4 C5 1_555 1_555
C10 C22 1_555 1_555
C12 C13 1_555 1_555
C13 O1 1_555 1_555
C15 O2 1_555 1_555
C20 C21 1_555 1_555

#END
