
#######################################################################
#
#                 Cambridge Crystallographic Data Centre
#                                CCDC 
#
#######################################################################
#
# If this CIF has been generated from an entry in the Cambridge 
# Structural Database, then it will include bibliographic, chemical, 
# crystal, experimental, refinement or atomic coordinate data resulting 
# from the CCDC's data processing and validation procedures.
#
#######################################################################

data_VIBSUW
_chemical_formula_moiety         'C16 H22 N1 O3 1+,2(I2),I5 1-'
_chemical_name_systematic        
'4-(Benzoyloxy)-2,2,6,6-tetramethyl-1-oxopiperidinium bis(diiodine) pentaiodide'
_symmetry_cell_setting           triclinic
_symmetry_space_group_name_H-M   'P -1'
_symmetry_Int_Tables_number      2
_space_group_name_Hall           '-P 1'
loop_
_symmetry_equiv_pos_site_id
_symmetry_equiv_pos_as_xyz
1 x,y,z
2 -x,-y,-z
_cell_length_a                   9.4735(11)
_cell_length_b                   11.2264(14)
_cell_length_c                   14.8297(17)
_cell_angle_alpha                88.562(2)
_cell_angle_beta                 88.407(2)
_cell_angle_gamma                87.195(2)
_cell_volume                     1574.24
_exptl_crystal_colour            'dark brown'
_exptl_crystal_description       prism
_cell_formula_units_Z            2
loop_
_atom_site_label
_atom_site_type_symbol
_atom_site_fract_x
_atom_site_fract_y
_atom_site_fract_z
C1 C 0.6603(6) 0.4752(6) 0.0697(4)
H1 H 0.6031 0.4742 0.1233
C2 C 0.7479(7) 0.5685(6) 0.0520(5)
H2 H 0.7502 0.6316 0.0933
C3 C 0.8321(7) 0.5701(6) -0.0255(4)
H3 H 0.8924 0.6342 -0.0371
C4 C 0.8291(7) 0.4794(6) -0.0863(5)
H4 H 0.8877 0.4805 -0.1393
C5 C 0.7395(7) 0.3860(6) -0.0695(4)
H5 H 0.7353 0.3241 -0.1118
C6 C 0.6558(6) 0.3835(5) 0.0097(4)
C7 C 0.5643(7) 0.2818(5) 0.0249(4)
C8 C 0.3991(6) 0.1910(5) 0.1260(4)
H6 H 0.3343 0.1855 0.0743
C9 C 0.4831(6) 0.0721(5) 0.1390(4)
H7 H 0.5822 0.0892 0.1510
H8 H 0.4834 0.0288 0.0816
C10 C 0.4288(6) -0.0108(5) 0.2151(4)
C11 C 0.2787(6) -0.0515(5) 0.2012(4)
H9 H 0.2783 -0.0999 0.1471
H10 H 0.2139 0.0185 0.1937
H11 H 0.2482 -0.0991 0.2538
C12 C 0.5302(7) -0.1160(5) 0.2306(4)
H12 H 0.6219 -0.0879 0.2475
H13 H 0.5418 -0.1616 0.1752
H14 H 0.4929 -0.1671 0.2793
C13 C 0.3783(6) 0.1952(5) 0.3003(4)
C14 C 0.2723(7) 0.2162(6) 0.3787(4)
H15 H 0.1878 0.1715 0.3692
H16 H 0.2457 0.3015 0.3817
H17 H 0.3155 0.1891 0.4354
C15 C 0.5171(6) 0.2553(6) 0.3161(4)
H18 H 0.5532 0.2296 0.3752
H19 H 0.5002 0.3421 0.3145
H20 H 0.5868 0.2324 0.2688
C16 C 0.3139(6) 0.2305(5) 0.2095(4)
H21 H 0.2194 0.1968 0.2075
H22 H 0.2999 0.3185 0.2064
N1 N 0.4199(5) 0.0615(4) 0.3009(3)
O1 O 0.5499(5) 0.2022(4) -0.0270(3)
O2 O 0.4961(4) 0.2853(3) 0.1071(3)
O3 O 0.4497(5) 0.0138(4) 0.3713(3)
I1 I 0.70521(4) 0.41367(4) 0.65242(3)
I2 I 0.41527(4) 0.40487(3) 0.61371(3)
I3 I 0.10183(4) 0.39165(4) 0.58246(3)
I4 I 0.07627(4) 0.23889(3) 0.75648(3)
I5 I 0.07407(5) 0.10923(4) 0.92124(3)
I6 I 0.09284(4) 0.62686(4) 0.71912(3)
I7 I 0.09561(4) 0.81812(4) 0.82901(3)
I8 I 0.22251(4) 0.82212(4) 0.47544(3)
I9 I 0.16851(5) 1.00545(4) 0.58993(3)
loop_
_geom_bond_atom_site_label_1
_geom_bond_atom_site_label_2
_geom_bond_site_symmetry_1
_geom_bond_site_symmetry_2
C1 H1 1_555 1_555
C2 C1 1_555 1_555
H2 C2 1_555 1_555
C3 C2 1_555 1_555
H3 C3 1_555 1_555
C4 C3 1_555 1_555
H4 C4 1_555 1_555
C5 C4 1_555 1_555
H5 C5 1_555 1_555
C6 C1 1_555 1_555
C7 C6 1_555 1_555
C8 H6 1_555 1_555
C9 C8 1_555 1_555
H7 C9 1_555 1_555
H8 C9 1_555 1_555
C10 C9 1_555 1_555
C11 C10 1_555 1_555
H9 C11 1_555 1_555
H10 C11 1_555 1_555
H11 C11 1_555 1_555
C12 C10 1_555 1_555
H12 C12 1_555 1_555
H13 C12 1_555 1_555
H14 C12 1_555 1_555
C13 C14 1_555 1_555
C14 H15 1_555 1_555
H16 C14 1_555 1_555
H17 C14 1_555 1_555
C15 C13 1_555 1_555
H18 C15 1_555 1_555
H19 C15 1_555 1_555
H20 C15 1_555 1_555
C16 C8 1_555 1_555
H21 C16 1_555 1_555
H22 C16 1_555 1_555
N1 C10 1_555 1_555
O1 C7 1_555 1_555
O2 C7 1_555 1_555
O3 N1 1_555 1_555
I1 I2 1_555 1_555
I2 I3 1_555 1_555
I3 I4 1_555 1_555
I4 I5 1_555 1_555
I6 I7 1_555 1_555
I8 I9 1_555 1_555
C5 C6 1_555 1_555
C8 O2 1_555 1_555
C13 C16 1_555 1_555
C13 N1 1_555 1_555

#END
