
#######################################################################
#
#                 Cambridge Crystallographic Data Centre
#                                CCDC 
#
#######################################################################
#
# If this CIF has been generated from an entry in the Cambridge 
# Structural Database, then it will include bibliographic, chemical, 
# crystal, experimental, refinement or atomic coordinate data resulting 
# from the CCDC's data processing and validation procedures.
#
#######################################################################

data_VIBXEM
_chemical_formula_moiety         'C18 H16 N2 O4'
_chemical_name_systematic        
'2-((1,3-dioxo-1,3-dihydro-2H-isoindol-2-yl)amino)-1-phenylethyl acetate'
_symmetry_cell_setting           monoclinic
_symmetry_space_group_name_H-M   'P 21/c'
_symmetry_Int_Tables_number      14
_space_group_name_Hall           '-P 2ybc'
loop_
_symmetry_equiv_pos_site_id
_symmetry_equiv_pos_as_xyz
1 x,y,z
2 -x,1/2+y,1/2-z
3 -x,-y,-z
4 x,1/2-y,1/2+z
_cell_length_a                   6.8614(9)
_cell_length_b                   27.440(4)
_cell_length_c                   8.715(2)
_cell_angle_alpha                90
_cell_angle_beta                 94.600(15)
_cell_angle_gamma                90
_cell_volume                     1635.55
_exptl_crystal_colour            colorless
_exptl_crystal_description       block
_cell_formula_units_Z            4
loop_
_atom_site_label
_atom_site_type_symbol
_atom_site_fract_x
_atom_site_fract_y
_atom_site_fract_z
O1 O 0.0509(4) 0.51922(11) 0.2537(4)
O2 O 0.6143(4) 0.57308(12) 0.0614(4)
O3 O 0.1729(4) 0.64029(10) 0.1097(4)
O4 O 0.3540(5) 0.70588(15) 0.0663(5)
N1 N 0.3160(4) 0.54186(11) 0.1222(4)
N2 N 0.2338(4) 0.53963(12) -0.0307(4)
H1 H 0.1963 0.5107 -0.0569
C1 C 0.2171(5) 0.53481(13) 0.2541(6)
C2 C 0.3554(5) 0.55030(14) 0.3845(6)
C3 C 0.3336(7) 0.55071(16) 0.5425(6)
H2 H 0.2207 0.5391 0.5822
C4 C 0.4875(8) 0.56919(17) 0.6372(6)
H3 H 0.4769 0.5702 0.7428
C5 C 0.6573(7) 0.58622(18) 0.5790(7)
H4 H 0.7577 0.5985 0.6460
C6 C 0.6790(6) 0.58512(16) 0.4212(7)
H5 H 0.7927 0.5962 0.3815
C7 C 0.5248(5) 0.56683(13) 0.3261(5)
C8 C 0.5023(5) 0.56199(13) 0.1546(6)
C9 C 0.0841(5) 0.57658(14) -0.0706(5)
H6 H -0.0220 0.5722 -0.0047
H7 H 0.0316 0.5712 -0.1759
C10 C 0.1552(5) 0.62874(14) -0.0558(6)
H8 H 0.2841 0.6313 -0.0962
C11 C 0.0149(5) 0.66312(14) -0.1434(6)
C12 C -0.1711(6) 0.67176(16) -0.0968(6)
H9 H -0.2085 0.6578 -0.0064
C13 C -0.3019(6) 0.70136(17) -0.1857(7)
H10 H -0.4272 0.7066 -0.1555
C14 C -0.2462(7) 0.72266(18) -0.3168(7)
H11 H -0.3323 0.7430 -0.3744
C15 C -0.0625(7) 0.71401(19) -0.3638(7)
H12 H -0.0260 0.7280 -0.4543
C16 C 0.0685(7) 0.68462(18) -0.2773(7)
H13 H 0.1928 0.6793 -0.3094
C17 C 0.2740(7) 0.67976(17) 0.1561(7)
C18 C 0.2824(9) 0.6875(2) 0.3247(7)
H14 H 0.1740 0.6713 0.3657
H15 H 0.2759 0.7218 0.3459
H16 H 0.4026 0.6745 0.3717
loop_
_geom_bond_atom_site_label_1
_geom_bond_atom_site_label_2
_geom_bond_site_symmetry_1
_geom_bond_site_symmetry_2
O1 C1 1_555 1_555
O2 C8 1_555 1_555
O3 C10 1_555 1_555
O4 C17 1_555 1_555
N1 N2 1_555 1_555
N2 H1 1_555 1_555
C1 N1 1_555 1_555
C2 C1 1_555 1_555
C3 C2 1_555 1_555
H2 C3 1_555 1_555
C4 C3 1_555 1_555
H3 C4 1_555 1_555
C5 C4 1_555 1_555
H4 C5 1_555 1_555
C6 C5 1_555 1_555
H5 C6 1_555 1_555
C7 C2 1_555 1_555
C8 N1 1_555 1_555
C9 N2 1_555 1_555
H6 C9 1_555 1_555
H7 C9 1_555 1_555
C10 C9 1_555 1_555
H8 C10 1_555 1_555
C11 C10 1_555 1_555
C12 C11 1_555 1_555
H9 C12 1_555 1_555
C13 C12 1_555 1_555
H10 C13 1_555 1_555
C14 C13 1_555 1_555
H11 C14 1_555 1_555
C15 C14 1_555 1_555
H12 C15 1_555 1_555
C16 C11 1_555 1_555
H13 C16 1_555 1_555
C17 O3 1_555 1_555
C18 C17 1_555 1_555
H14 C18 1_555 1_555
H15 C18 1_555 1_555
H16 C18 1_555 1_555
C6 C7 1_555 1_555
C7 C8 1_555 1_555
C15 C16 1_555 1_555

#END
