
#######################################################################
#
#                 Cambridge Crystallographic Data Centre
#                                CCDC 
#
#######################################################################
#
# If this CIF has been generated from an entry in the Cambridge 
# Structural Database, then it will include bibliographic, chemical, 
# crystal, experimental, refinement or atomic coordinate data resulting 
# from the CCDC's data processing and validation procedures.
#
#######################################################################

data_VICBAK
_chemical_formula_moiety         'C9 H11 N3 O6'
_chemical_name_systematic        
5-N-Methyl-\b-D-arabinofurano(1',2':4,5)oxazolo-s-triazine-4,6-dione
_symmetry_cell_setting           orthorhombic
_symmetry_space_group_name_H-M   'P 21 21 21'
_symmetry_Int_Tables_number      19
_space_group_name_Hall           'P 2ac 2ab'
loop_
_symmetry_equiv_pos_site_id
_symmetry_equiv_pos_as_xyz
1 x,y,z
2 1/2+x,1/2-y,-z
3 -x,1/2+y,1/2-z
4 1/2-x,-y,1/2+z
_cell_length_a                   6.1814(9)
_cell_length_b                   11.4058(15)
_cell_length_c                   15.1634(15)
_cell_angle_alpha                90
_cell_angle_beta                 90
_cell_angle_gamma                90
_cell_volume                     1069.08
_exptl_crystal_colour            colorless
_cell_formula_units_Z            4
loop_
_atom_site_label
_atom_site_type_symbol
_atom_site_fract_x
_atom_site_fract_y
_atom_site_fract_z
C1 C 0.65400(40) 0.14410(20) 0.64970(20)
C2 C 0.64330(40) -0.02080(20) 0.56580(20)
C3 C 0.93010(60) -0.05560(30) 0.45510(20)
C4 C 0.93000(40) 0.12540(20) 0.54050(10)
C5 C 0.90750(40) 0.29610(20) 0.64810(20)
C6 C 0.72310(40) 0.32040(40) 0.71320(20)
C7 C 0.83150(40) 0.33710(20) 0.80190(20)
C8 C 1.06260(40) 0.29070(20) 0.78940(10)
C9 C 1.10420(50) 0.17310(20) 0.83400(20)
N1 N 0.83610(30) 0.18360(10) 0.61110(10)
N2 N 0.55610(30) 0.04740(20) 0.63210(10)
N3 N 0.82700(30) 0.02100(20) 0.52200(10)
O1 O 0.58540(30) 0.21670(10) 0.71160(10)
O2 O 0.56530(40) -0.11470(20) 0.54610(10)
O3 O 1.08640(30) 0.16300(20) 0.50220(10)
O4 O 1.09910(20) 0.28650(10) 0.69500(10)
O5 O 0.84920(30) 0.45900(10) 0.82220(10)
O6 O 0.95050(40) 0.08770(20) 0.80460(20)
H1 H 0.87410(60) -0.14370(30) 0.46770(20)
H2 H 1.10460(60) -0.05350(30) 0.45820(20)
H3 H 0.87760(60) -0.02820(30) 0.39040(20)
H4 H 0.9158(50) 0.3576(22) 0.6012(19)
H5 H 0.6470(56) 0.3903(25) 0.6964(23)
H6 H 0.7576(49) 0.2976(21) 0.8493(15)
H7 H 1.1729(43) 0.3453(19) 0.8143(16)
H8 H 1.1034(47) 0.1887(19) 0.8934(20)
H9 H 1.2546(60) 0.1500(25) 0.8181(22)
H10 H 0.7137(72) 0.4832(29) 0.8358(20)
H11 H 0.9891(64) 0.0420(27) 0.7686(24)
loop_
_geom_bond_atom_site_label_1
_geom_bond_atom_site_label_2
_geom_bond_site_symmetry_1
_geom_bond_site_symmetry_2
C1 N1 1_555 1_555
C2 N2 1_555 1_555
C3 N3 1_555 1_555
C4 N1 1_555 1_555
C5 C6 1_555 1_555
C6 C7 1_555 1_555
C7 C8 1_555 1_555
C8 C9 1_555 1_555
C9 O6 1_555 1_555
N1 C5 1_555 1_555
N2 C1 1_555 1_555
N3 C2 1_555 1_555
O1 C1 1_555 1_555
O2 C2 1_555 1_555
O3 C4 1_555 1_555
O4 C5 1_555 1_555
O5 C7 1_555 1_555
O6 H11 1_555 1_555
H1 C3 1_555 1_555
H2 C3 1_555 1_555
H3 C3 1_555 1_555
H4 C5 1_555 1_555
H5 C6 1_555 1_555
H6 C7 1_555 1_555
H7 C8 1_555 1_555
H8 C9 1_555 1_555
H9 C9 1_555 1_555
H10 O5 1_555 1_555
C4 N3 1_555 1_555
C6 O1 1_555 1_555
C8 O4 1_555 1_555

#END
