
#######################################################################
#
#                 Cambridge Crystallographic Data Centre
#                                CCDC 
#
#######################################################################
#
# If this CIF has been generated from an entry in the Cambridge 
# Structural Database, then it will include bibliographic, chemical, 
# crystal, experimental, refinement or atomic coordinate data resulting 
# from the CCDC's data processing and validation procedures.
#
#######################################################################

data_VICLEZ
_chemical_formula_moiety         'C21 H15 N1 O2,C7 H8'
_chemical_name_systematic        
'3-(4-(Carbazol-9-yl)phenyl)acrylic acid toluene solvate'
_symmetry_cell_setting           monoclinic
_symmetry_space_group_name_H-M   'P 21/c'
_symmetry_Int_Tables_number      14
_space_group_name_Hall           '-P 2ybc'
loop_
_symmetry_equiv_pos_site_id
_symmetry_equiv_pos_as_xyz
1 x,y,z
2 -x,1/2+y,1/2-z
3 -x,-y,-z
4 x,1/2-y,1/2+z
_cell_length_a                   8.555(4)
_cell_length_b                   34.440(15)
_cell_length_c                   7.884(4)
_cell_angle_alpha                90
_cell_angle_beta                 104.282(8)
_cell_angle_gamma                90
_cell_volume                     2251.1
_cell_formula_units_Z            4
_exptl_crystal_preparation       luminescent
loop_
_atom_site_label
_atom_site_type_symbol
_atom_site_fract_x
_atom_site_fract_y
_atom_site_fract_z
N1 N 0.4492(3) 0.16623(7) 0.7147(4)
O1 O 0.1209(3) 0.03862(7) 1.4690(3)
H1 H 0.0863 0.0251 1.5374
O2 O -0.0058(3) -0.00605(7) 1.2828(3)
C1 C 0.0792(4) 0.02404(10) 1.3173(5)
C2 C 0.1306(4) 0.04382(10) 1.1762(4)
H2 H 0.1046 0.0326 1.0654
C3 C 0.2116(4) 0.07653(10) 1.1978(5)
H3 H 0.2364 0.0866 1.3107
C4 C 0.2681(4) 0.09919(9) 1.0678(4)
C5 C 0.2356(4) 0.08915(9) 0.8935(5)
H4 H 0.1724 0.0674 0.8543
C6 C 0.2952(4) 0.11085(9) 0.7761(4)
H5 H 0.2745 0.1034 0.6593
C7 C 0.3856(4) 0.14366(9) 0.8328(4)
C8 C 0.4152(4) 0.15452(9) 1.0056(4)
H6 H 0.4737 0.1770 1.0440
C9 C 0.3580(4) 0.13214(9) 1.1212(4)
H7 H 0.3806 0.1394 1.2383
C10 C 0.6105(5) 0.17811(9) 0.7434(5)
C11 C 0.7424(5) 0.16764(12) 0.8747(6)
H8 H 0.7319 0.1512 0.9649
C12 C 0.8903(5) 0.18236(14) 0.8676(7)
H9 H 0.9812 0.1757 0.9546
C13 C 0.9067(7) 0.20708(16) 0.7324(9)
H10 H 1.0080 0.2167 0.7313
C14 C 0.7763(7) 0.21725(12) 0.6024(8)
H11 H 0.7879 0.2338 0.5132
C15 C 0.6248(6) 0.20243(9) 0.6049(6)
C16 C 0.4667(6) 0.20595(9) 0.4909(5)
C17 C 0.4037(7) 0.22617(10) 0.3352(6)
H12 H 0.4713 0.2409 0.2845
C18 C 0.2433(8) 0.22424(12) 0.2584(6)
H13 H 0.2017 0.2380 0.1558
C19 C 0.1399(6) 0.20197(11) 0.3304(5)
H14 H 0.0305 0.2010 0.2753
C20 C 0.1991(5) 0.18119(10) 0.4844(5)
H15 H 0.1308 0.1664 0.5336
C21 C 0.3622(5) 0.18323(9) 0.5619(5)
C22 C 0.6990(12) 0.0655(3) 0.2230(14)
C23 C 0.7891(10) 0.0991(3) 0.3031(15)
H16 H 0.8469 0.1147 0.2439
C24 C 0.7833(9) 0.1064(2) 0.4719(16)
H17 H 0.8402 0.1272 0.5333
C25 C 0.6918(13) 0.0826(3) 0.5499(13)
H18 H 0.6888 0.0877 0.6649
C26 C 0.6053(17) 0.0518(4) 0.465(2)
H19 H 0.5377 0.0382 0.5200
C27 C 0.6152(19) 0.0412(4) 0.310(3)
H20 H 0.5683 0.0182 0.2600
C28 C 0.6889(17) 0.0516(5) 0.0477(17)
H21 H 0.6213 0.0290 0.0258
H22 H 0.7949 0.0451 0.0362
H23 H 0.6438 0.0715 -0.0352
loop_
_geom_bond_atom_site_label_1
_geom_bond_atom_site_label_2
_geom_bond_site_symmetry_1
_geom_bond_site_symmetry_2
N1 C7 1_555 1_555
O1 H1 1_555 1_555
O2 C1 1_555 1_555
C1 O1 1_555 1_555
C2 C1 1_555 1_555
H2 C2 1_555 1_555
C3 C2 1_555 1_555
H3 C3 1_555 1_555
C4 C3 1_555 1_555
C5 C4 1_555 1_555
H4 C5 1_555 1_555
C6 C5 1_555 1_555
H5 C6 1_555 1_555
C7 C6 1_555 1_555
C8 C7 1_555 1_555
H6 C8 1_555 1_555
C9 C4 1_555 1_555
H7 C9 1_555 1_555
C10 N1 1_555 1_555
C11 C10 1_555 1_555
H8 C11 1_555 1_555
C12 C11 1_555 1_555
H9 C12 1_555 1_555
C13 C12 1_555 1_555
H10 C13 1_555 1_555
C14 C13 1_555 1_555
H11 C14 1_555 1_555
C15 C10 1_555 1_555
C16 C15 1_555 1_555
C17 C16 1_555 1_555
H12 C17 1_555 1_555
C18 C17 1_555 1_555
H13 C18 1_555 1_555
C19 C18 1_555 1_555
H14 C19 1_555 1_555
C20 C19 1_555 1_555
H15 C20 1_555 1_555
C21 N1 1_555 1_555
C22 C23 1_555 1_555
C23 H16 1_555 1_555
C24 C23 1_555 1_555
H17 C24 1_555 1_555
C25 C24 1_555 1_555
H18 C25 1_555 1_555
C26 C25 1_555 1_555
H19 C26 1_555 1_555
C27 C22 1_555 1_555
H20 C27 1_555 1_555
C28 C22 1_555 1_555
H21 C28 1_555 1_555
H22 C28 1_555 1_555
H23 C28 1_555 1_555
C8 C9 1_555 1_555
C14 C15 1_555 1_555
C16 C21 1_555 1_555
C20 C21 1_555 1_555
C26 C27 1_555 1_555

#END
