
#######################################################################
#
#                 Cambridge Crystallographic Data Centre
#                                CCDC 
#
#######################################################################
#
# If this CIF has been generated from an entry in the Cambridge 
# Structural Database, then it will include bibliographic, chemical, 
# crystal, experimental, refinement or atomic coordinate data resulting 
# from the CCDC's data processing and validation procedures.
#
#######################################################################

data_VICVEL
_chemical_formula_moiety         'C9 H12 N1 O2 1+,F6 P1 1-'
_chemical_name_systematic        
'1-(2-methoxy-2-oxoethyl)-3-methylpyridinium hexafluorophosphate'
_symmetry_cell_setting           triclinic
_symmetry_space_group_name_H-M   'P -1'
_symmetry_Int_Tables_number      2
_space_group_name_Hall           '-P 1'
loop_
_symmetry_equiv_pos_site_id
_symmetry_equiv_pos_as_xyz
1 x,y,z
2 -x,-y,-z
_cell_length_a                   8.754(3)
_cell_length_b                   8.780(3)
_cell_length_c                   10.551(6)
_cell_angle_alpha                103.589(7)
_cell_angle_beta                 100.965(7)
_cell_angle_gamma                117.956(5)
_cell_volume                     652.273
_exptl_crystal_colour            colorless
_exptl_crystal_description       rod
_cell_formula_units_Z            2
loop_
_atom_site_label
_atom_site_type_symbol
_atom_site_fract_x
_atom_site_fract_y
_atom_site_fract_z
P1 P 0.17615(17) 0.42371(18) 0.25505(13)
F1 F 0.2780(9) 0.6233(6) 0.3644(6)
F2 F 0.3259(6) 0.3959(8) 0.3364(5)
F3 F 0.0582(5) 0.3472(5) 0.3499(4)
F4 F 0.0246(9) 0.4463(12) 0.1717(7)
F5 F 0.2981(6) 0.5006(5) 0.1646(4)
F6 F 0.0812(7) 0.2207(6) 0.1467(5)
N1 N 0.2699(5) 0.4242(5) 0.7139(4)
O1 O 0.5331(6) 0.7811(5) 0.9197(4)
O2 O 0.5270(6) 0.9020(5) 0.7569(4)
C1 C 0.2619(9) -0.0013(9) 0.5256(6)
H1 H 0.2289 0.0077 0.4368
H2 H 0.1778 -0.1246 0.5199
H3 H 0.3852 0.0244 0.5515
C2 C 0.2521(6) 0.1366(7) 0.6328(5)
C3 C 0.2139(8) 0.1078(8) 0.7504(6)
H4 H 0.1947 0.0004 0.7644
C4 C 0.2044(8) 0.2369(9) 0.8457(5)
H5 H 0.1808 0.2175 0.9247
C5 C 0.2293(7) 0.3918(7) 0.8253(5)
H6 H 0.2184 0.4765 0.8885
C6 C 0.2776(6) 0.2962(7) 0.6172(4)
H7 H 0.3008 0.3181 0.5388
C7 C 0.3013(7) 0.5919(7) 0.6909(5)
H8 H 0.1924 0.5977 0.6859
H9 H 0.3187 0.5850 0.6021
C8 C 0.4682(7) 0.7690(7) 0.8047(5)
C9 C 0.6870(11) 1.0842(9) 0.8555(7)
H10 H 0.6556 1.1288 0.9322
H11 H 0.7210 1.1707 0.8092
H12 H 0.7889 1.0720 0.8894
loop_
_geom_bond_atom_site_label_1
_geom_bond_atom_site_label_2
_geom_bond_site_symmetry_1
_geom_bond_site_symmetry_2
P1 F1 1_555 1_555
F2 P1 1_555 1_555
F3 P1 1_555 1_555
F4 P1 1_555 1_555
F5 P1 1_555 1_555
F6 P1 1_555 1_555
N1 C5 1_555 1_555
O1 C8 1_555 1_555
O2 C8 1_555 1_555
C1 H1 1_555 1_555
H2 C1 1_555 1_555
H3 C1 1_555 1_555
C2 C1 1_555 1_555
C3 C2 1_555 1_555
H4 C3 1_555 1_555
C4 C3 1_555 1_555
H5 C4 1_555 1_555
C5 C4 1_555 1_555
H6 C5 1_555 1_555
C6 N1 1_555 1_555
H7 C6 1_555 1_555
C7 N1 1_555 1_555
H8 C7 1_555 1_555
H9 C7 1_555 1_555
C8 C7 1_555 1_555
C9 O2 1_555 1_555
H10 C9 1_555 1_555
H11 C9 1_555 1_555
H12 C9 1_555 1_555
C2 C6 1_555 1_555

#END
