
#######################################################################
#
#                 Cambridge Crystallographic Data Centre
#                                CCDC 
#
#######################################################################
#
# If this CIF has been generated from an entry in the Cambridge 
# Structural Database, then it will include bibliographic, chemical, 
# crystal, experimental, refinement or atomic coordinate data resulting 
# from the CCDC's data processing and validation procedures.
#
#######################################################################

data_VICYUB
_chemical_formula_moiety         'C6 H2 N2 O4 S1 2-,2(C4 H12 N1 1+)'
_chemical_name_systematic        
"bis(Diethylammonium) 2,2'-sulfonylbis(3-oxido-(E,E)-2-propenenitrile)"
_symmetry_cell_setting           monoclinic
_symmetry_space_group_name_H-M   'P 21/c'
_symmetry_Int_Tables_number      14
_space_group_name_Hall           '-P 2ybc'
loop_
_symmetry_equiv_pos_site_id
_symmetry_equiv_pos_as_xyz
1 x,y,z
2 -x,1/2+y,1/2-z
3 -x,-y,-z
4 x,1/2-y,1/2+z
_cell_length_a                   10.300(6)
_cell_length_b                   12.893(9)
_cell_length_c                   15.155(9)
_cell_angle_alpha                90
_cell_angle_beta                 107.17(4)
_cell_angle_gamma                90
_cell_volume                     1922.86
_exptl_crystal_colour            colorless
_chemical_melting_point          139-141deg.C
_cell_formula_units_Z            4
loop_
_atom_site_label
_atom_site_type_symbol
_atom_site_fract_x
_atom_site_fract_y
_atom_site_fract_z
S1 S 0.2394(1) 0.0962(1) 0.9921(1)
O1 O 0.1059(3) 0.0731(2) 0.9328(2)
O2 O 0.3375(3) 0.0139(2) 1.0086(2)
O3 O 0.0871(3) 0.1367(2) 1.1970(2)
O4 O 0.4869(3) 0.2584(2) 0.8956(2)
C1 C 0.2195(4) 0.1379(3) 1.0957(3)
C2 C 0.1034(4) 0.1182(3) 1.1194(3)
C3 C 0.3099(4) 0.1985(3) 0.9496(3)
C4 C 0.4322(4) 0.1893(4) 0.9311(3)
C5 C 0.3340(5) 0.1817(4) 1.1597(3)
C6 C 0.2390(4) 0.2941(4) 0.9348(3)
N1 N 0.1854(4) 0.3730(3) 0.9229(3)
N2 N 0.4255(5) 0.2186(4) 1.2125(3)
H1 H 0.0349(36) 0.0814(27) 1.0757(25)
H2 H 0.4801(34) 0.1240(29) 0.9448(24)
N3 N -0.2897(4) 0.2209(4) 0.8368(3)
C7 C -0.1586(9) 0.2497(10) 0.9113(7)
C8 C -0.1611(11) 0.3522(12) 0.9465(9)
C9 C -0.2940(13) 0.1169(8) 0.7987(9)
C10 C -0.4199(17) 0.0976(9) 0.7244(10)
H3 H -0.3029 0.2696 0.7869
H4 H -0.3627 0.2271 0.8639
H7 H -0.0846 0.2451 0.8850
H8 H -0.1440 0.2017 0.9618
H9 H -0.0769 0.3675 0.9928
H10 H -0.2345 0.3574 0.9734
H11 H -0.1751 0.4008 0.8965
H12 H -0.2867 0.0672 0.8472
H13 H -0.2189 0.1085 0.7739
H14 H -0.4190 0.0284 0.7010
H15 H -0.4278 0.1465 0.6752
H16 H -0.4957 0.1052 0.7485
N4 N 0.8755(3) 0.0826(3) 1.2670(2)
C11 C 0.8881(7) -0.0229(4) 1.3078(4)
C12 C 1.0225(9) -0.0376(7) 1.3765(6)
C13 C 0.7370(5) 0.1063(5) 1.2032(4)
C14 C 0.7345(7) 0.2108(6) 1.1603(5)
H5 H 0.8964 0.1322 1.3167
H6 H 0.9400 0.0892 1.2327
H17 H 0.8764 -0.0732 1.2593
H18 H 0.8191 -0.0324 1.3381
H19 H 1.0287 -0.1063 1.4020
H20 H 1.0346 0.0124 1.4253
H21 H 1.0918 -0.0284 1.3465
H22 H 0.6723 0.1047 1.2377
H23 H 0.7129 0.0552 1.1549
H24 H 0.6452 0.2251 1.1199
H25 H 0.7989 0.2126 1.1256
H26 H 0.7583 0.2621 1.2085
loop_
_geom_bond_atom_site_label_1
_geom_bond_atom_site_label_2
_geom_bond_site_symmetry_1
_geom_bond_site_symmetry_2
S1 O1 1_555 1_555
O2 S1 1_555 1_555
O3 C2 1_555 1_555
O4 C4 1_555 1_555
C1 S1 1_555 1_555
C2 C1 1_555 1_555
C3 S1 1_555 1_555
C4 C3 1_555 1_555
C5 C1 1_555 1_555
C6 C3 1_555 1_555
N1 C6 1_555 1_555
N2 C5 1_555 1_555
N3 C7 1_555 1_555
N4 C11 1_555 1_555
C7 C8 1_555 1_555
C8 H9 1_555 1_555
C9 N3 1_555 1_555
C10 C9 1_555 1_555
C11 C12 1_555 1_555
C12 H19 1_555 1_555
C13 N4 1_555 1_555
C14 C13 1_555 1_555
H1 C2 1_555 1_555
H2 C4 1_555 1_555
H3 N3 1_555 1_555
H4 N3 1_555 1_555
H5 N4 1_555 1_555
H6 N4 1_555 1_555
H7 C7 1_555 1_555
H8 C7 1_555 1_555
H10 C8 1_555 1_555
H11 C8 1_555 1_555
H12 C9 1_555 1_555
H13 C9 1_555 1_555
H14 C10 1_555 1_555
H15 C10 1_555 1_555
H16 C10 1_555 1_555
H17 C11 1_555 1_555
H18 C11 1_555 1_555
H20 C12 1_555 1_555
H21 C12 1_555 1_555
H22 C13 1_555 1_555
H23 C13 1_555 1_555
H24 C14 1_555 1_555
H25 C14 1_555 1_555
H26 C14 1_555 1_555

#END
