
#######################################################################
#
#                 Cambridge Crystallographic Data Centre
#                                CCDC 
#
#######################################################################
#
# If this CIF has been generated from an entry in the Cambridge 
# Structural Database, then it will include bibliographic, chemical, 
# crystal, experimental, refinement or atomic coordinate data resulting 
# from the CCDC's data processing and validation procedures.
#
#######################################################################

data_VICYIP
_chemical_formula_moiety         'C14 H22 N4 O6 S1'
_chemical_name_systematic        
2,2'-Sulfonylbis(3-((2,2-dimethoxyethyl)amino)-(E,E)-2-propenenitrile)
_symmetry_cell_setting           monoclinic
_symmetry_space_group_name_H-M   'C 2/c'
_symmetry_Int_Tables_number      15
_space_group_name_Hall           '-C 2yn'
loop_
_symmetry_equiv_pos_site_id
_symmetry_equiv_pos_as_xyz
1 x,y,z
2 1/2+x,1/2+y,z
3 -x,y,1/2-z
4 1/2-x,1/2+y,1/2-z
5 -x,-y,-z
6 1/2-x,1/2-y,-z
7 x,-y,1/2+z
8 1/2+x,1/2-y,1/2+z
_cell_length_a                   17.51(1)
_cell_length_b                   11.901(8)
_cell_length_c                   11.721(7)
_cell_angle_alpha                90
_cell_angle_beta                 123.84(4)
_cell_angle_gamma                90
_cell_volume                     2028.73
_exptl_crystal_colour            off-white
_chemical_melting_point          104-106deg.C
_cell_formula_units_Z            4
loop_
_atom_site_label
_atom_site_type_symbol
_atom_site_fract_x
_atom_site_fract_y
_atom_site_fract_z
S1 S 0.0000 0.0118(1) 0.2500
O1 O -0.0232(1) -0.0487(2) 0.1287(2)
O2 O -0.3727(2) 0.1081(2) 0.2050(2)
O3 O -0.3078(2) 0.0949(3) 0.4406(3)
N1 N -0.1898(2) 0.1667(2) 0.2762(2)
N2 N -0.1788(2) 0.1900(2) -0.0284(3)
C1 C -0.0925(2) 0.0971(2) 0.2082(2)
C2 C -0.1198(2) 0.1081(2) 0.2967(3)
C3 C -0.2172(3) 0.1698(4) 0.3731(3)
C4 C -0.2925(3) 0.0884(3) 0.3350(4)
C5 C -0.1395(2) 0.1484(2) 0.0779(3)
C6 C -0.4176(3) 0.2130(4) 0.1892(5)
C7 C -0.3645(5) 0.0085(5) 0.4375(7)
H1 H -0.2243(19) 0.2023(22) 0.1999(28)
H2 H -0.0858(16) 0.0680(20) 0.3791(25)
H3 H -0.1700(21) 0.1446(24) 0.4561(34)
H4 H -0.2338(21) 0.2450(28) 0.3776(30)
H5 H -0.2742(22) 0.0119(28) 0.3249(30)
H6 H -0.4715 0.2188 0.0975
H7 H -0.3764 0.2736 0.2061
H8 H -0.4351 0.2170 0.2536
H9 H -0.3717 0.0185 0.5122
H10 H -0.3366 -0.0631 0.4461
H11 H -0.4236 0.0115 0.3521
O1B O 0.0232(1) -0.0487(2) 0.3713(2)
C1B C 0.0925(2) 0.0971(2) 0.2918(2)
C2B C 0.1198(2) 0.1081(2) 0.2033(3)
C5B C 0.1395(2) 0.1484(2) 0.4221(3)
N1B N 0.1898(2) 0.1667(2) 0.2238(2)
H2B H 0.0858(16) 0.0680(20) 0.1209(25)
N2B N 0.1788(2) 0.1900(2) 0.5284(3)
C3B C 0.2172(3) 0.1698(4) 0.1269(3)
H1B H 0.2243(19) 0.2023(22) 0.3001(28)
C4B C 0.2925(3) 0.0884(3) 0.1650(4)
H3B H 0.1700(21) 0.1446(24) 0.0439(34)
H4B H 0.2338(21) 0.2450(28) 0.1224(30)
O2B O 0.3727(2) 0.1081(2) 0.2950(2)
O3B O 0.3078(2) 0.0949(3) 0.0594(3)
H5B H 0.2742(22) 0.0119(28) 0.1751(30)
C6B C 0.4176(3) 0.2130(4) 0.3108(5)
C7B C 0.3645(5) 0.0085(5) 0.0625(7)
H6B H 0.4715 0.2188 0.4025
H7B H 0.3764 0.2736 0.2939
H8B H 0.4351 0.2170 0.2464
H9B H 0.3717 0.0185 -0.0122
H10B H 0.3366 -0.0631 0.0539
H11B H 0.4236 0.0115 0.1479
loop_
_geom_bond_atom_site_label_1
_geom_bond_atom_site_label_2
_geom_bond_site_symmetry_1
_geom_bond_site_symmetry_2
S1 O1 1_555 1_555
O2 C4 1_555 1_555
O3 C4 1_555 1_555
N1 C2 1_555 1_555
N2 C5 1_555 1_555
C1 S1 1_555 1_555
C2 C1 1_555 1_555
C3 N1 1_555 1_555
C4 C3 1_555 1_555
C5 C1 1_555 1_555
C6 O2 1_555 1_555
C7 O3 1_555 1_555
H1 N1 1_555 1_555
H2 C2 1_555 1_555
H3 C3 1_555 1_555
H4 C3 1_555 1_555
H5 C4 1_555 1_555
H6 C6 1_555 1_555
H7 C6 1_555 1_555
H8 C6 1_555 1_555
H9 C7 1_555 1_555
H10 C7 1_555 1_555
H11 C7 1_555 1_555
O1B S1 1_555 1_555
C1B S1 1_555 1_555
C2B C1B 1_555 1_555
C5B C1B 1_555 1_555
N1B C2B 1_555 1_555
H2B C2B 1_555 1_555
N2B C5B 1_555 1_555
C3B N1B 1_555 1_555
H1B N1B 1_555 1_555
C4B C3B 1_555 1_555
H3B C3B 1_555 1_555
H4B C3B 1_555 1_555
O2B C4B 1_555 1_555
O3B C4B 1_555 1_555
H5B C4B 1_555 1_555
C6B O2B 1_555 1_555
C7B O3B 1_555 1_555
H6B C6B 1_555 1_555
H7B C6B 1_555 1_555
H8B C6B 1_555 1_555
H9B C7B 1_555 1_555
H10B C7B 1_555 1_555
H11B C7B 1_555 1_555

#END
