
#######################################################################
#
#                 Cambridge Crystallographic Data Centre
#                                CCDC 
#
#######################################################################
#
# If this CIF has been generated from an entry in the Cambridge 
# Structural Database, then it will include bibliographic, chemical, 
# crystal, experimental, refinement or atomic coordinate data resulting 
# from the CCDC's data processing and validation procedures.
#
#######################################################################

data_VICYEL
_chemical_formula_moiety         'C14 H22 N4 O2 S1'
_chemical_name_systematic        
2,2'-Sulfonylbis(3-(n-butylamino)-(E,E)-2-propenenitrile)
_symmetry_cell_setting           triclinic
_symmetry_space_group_name_H-M   'P -1'
_symmetry_Int_Tables_number      2
_space_group_name_Hall           '-P 1'
loop_
_symmetry_equiv_pos_site_id
_symmetry_equiv_pos_as_xyz
1 x,y,z
2 -x,-y,-z
_cell_length_a                   11.50(2)
_cell_length_b                   12.63(3)
_cell_length_c                   14.24(4)
_cell_angle_alpha                96.9(2)
_cell_angle_beta                 108.5(2)
_cell_angle_gamma                111.1(2)
_cell_volume                     1764.53
_exptl_crystal_colour            colorless
_chemical_melting_point          149-150deg.C
_cell_formula_units_Z            4
loop_
_atom_site_label
_atom_site_type_symbol
_atom_site_fract_x
_atom_site_fract_y
_atom_site_fract_z
S1 S 0.0653(2) 0.9875(1) 0.2006(1)
O1 O 0.1922(4) 0.9809(4) 0.2439(4)
O2 O -0.0201(5) 0.9261(4) 0.0933(3)
N1 N -0.0215(5) 0.8692(5) 0.4269(4)
N2 N 0.0430(6) 1.2709(5) 0.1225(4)
N3 N 0.2543(6) 1.2911(5) 0.3830(5)
N4 N -0.2619(6) 0.9242(6) 0.2178(5)
C1 C -0.0242(6) 0.9357(5) 0.2759(5)
C2 C -0.1569(6) 0.9277(6) 0.2421(5)
C3 C 0.0336(6) 0.9085(5) 0.3629(5)
C4 C 0.0499(7) 0.8461(7) 0.5220(5)
C5 C 0.0181(9) 0.7215(8) 0.5136(6)
C6 C 0.1088(17) 0.7177(14) 0.6276(13)
C7 C 0.1371(25) 0.6412(29) 0.6364(18)
C8 C 0.0941(5) 1.1343(5) 0.2112(5)
C9 C 0.1828(6) 1.2170(6) 0.3070(6)
C10 C 0.0338(6) 1.1661(6) 0.1269(5)
C11 C -0.0201(8) 1.2966(6) 0.0259(6)
C12 C 0.0784(8) 1.3594(7) -0.0167(6)
C13 C 0.0000(11) 1.3679(9) -0.1250(8)
C14 C 0.0978(14) 1.4293(15) -0.1737(11)
H1 H 0.1199(50) 0.9084(45) 0.3728(40)
H2 H -0.1319(61) 0.8520(55) 0.4015(48)
H3 H 0.0858(65) 1.3261(61) 0.1688(55)
H4 H -0.0262(46) 1.0993(46) 0.0540(41)
S2 S 0.6064(1) 1.1938(1) 0.5307(1)
O3 O 0.7305(4) 1.1838(4) 0.5761(4)
O4 O 0.5191(5) 1.1315(4) 0.4256(3)
N5 N 0.5237(5) 1.0927(5) 0.7624(5)
N6 N 0.6099(5) 1.4836(5) 0.4481(4)
N7 N 0.8055(6) 1.4938(5) 0.7137(5)
N8 N 0.2830(5) 1.1469(6) 0.5617(5)
C15 C 0.5208(5) 1.1541(5) 0.6097(5)
C16 C 0.3882(6) 1.1493(6) 0.5811(5)
C17 C 0.5748(6) 1.1224(6) 0.6951(6)
C18 C 0.5869(7) 1.0566(9) 0.8531(6)
C19 C 0.5240(12) 0.9323(10) 0.8413(7)
C20 C 0.6047(19) 0.9038(14) 0.9398(9)
C21 C 0.6059(25) 0.8037(20) 0.9260(15)
C22 C 0.6459(5) 1.3425(5) 0.5403(5)
C23 C 0.7347(6) 1.4243(5) 0.6361(5)
C24 C 0.5887(6) 1.3746(6) 0.4549(5)
C25 C 0.5377(7) 1.5075(7) 0.3533(6)
C26 C 0.6105(10) 1.5325(11) 0.2853(7)
C27 C 0.5262(27) 1.5529(25) 0.1864(14)
C28 C 0.4838(29) 1.5959(23) 0.1503(17)
H5 H 0.4514(67) 1.0783(63) 0.7670(53)
H6 H 0.6683(59) 1.5354(57) 0.5206(54)
H7 H 0.6703(48) 1.1246(43) 0.7132(40)
H8 H 0.5237(47) 1.3051(47) 0.3880(42)
loop_
_geom_bond_atom_site_label_1
_geom_bond_atom_site_label_2
_geom_bond_site_symmetry_1
_geom_bond_site_symmetry_2
S1 O1 1_555 1_555
O2 S1 1_555 1_555
N1 C3 1_555 1_555
N2 C10 1_555 1_555
N3 C9 1_555 1_555
N4 C2 1_555 1_555
C1 S1 1_555 1_555
C2 C1 1_555 1_555
C3 C1 1_555 1_555
C4 N1 1_555 1_555
C5 C4 1_555 1_555
C6 C5 1_555 1_555
C7 C6 1_555 1_555
C8 S1 1_555 1_555
C9 C8 1_555 1_555
C10 C8 1_555 1_555
C11 N2 1_555 1_555
C12 C11 1_555 1_555
C13 C12 1_555 1_555
C14 C13 1_555 1_555
S2 O3 1_555 1_555
O4 S2 1_555 1_555
N5 C17 1_555 1_555
N6 C24 1_555 1_555
N7 C23 1_555 1_555
N8 C16 1_555 1_555
C15 S2 1_555 1_555
C16 C15 1_555 1_555
C17 C15 1_555 1_555
C18 N5 1_555 1_555
C19 C18 1_555 1_555
C20 C19 1_555 1_555
C21 C20 1_555 1_555
C22 S2 1_555 1_555
C23 C22 1_555 1_555
C24 C22 1_555 1_555
C25 N6 1_555 1_555
C26 C25 1_555 1_555
C27 C26 1_555 1_555
C28 C27 1_555 1_555
H1 C3 1_555 1_555
H2 N1 1_555 1_555
H3 N2 1_555 1_555
H4 C10 1_555 1_555
H5 N5 1_555 1_555
H6 N6 1_555 1_555
H7 C17 1_555 1_555
H8 C24 1_555 1_555

#END
