
#######################################################################
#
#                 Cambridge Crystallographic Data Centre
#                                CCDC 
#
#######################################################################
#
# If this CIF has been generated from an entry in the Cambridge 
# Structural Database, then it will include bibliographic, chemical, 
# crystal, experimental, refinement or atomic coordinate data resulting 
# from the CCDC's data processing and validation procedures.
#
#######################################################################

data_VICYAH
_chemical_formula_moiety         'C14 H22 N4 O2 S1'
_chemical_name_systematic        
2,2'-Sulfonylbis(3-(diethylamino)-(E,E)-2-propenenitrile)
_symmetry_cell_setting           triclinic
_symmetry_space_group_name_H-M   'P -1'
_symmetry_Int_Tables_number      2
_space_group_name_Hall           '-P 1'
loop_
_symmetry_equiv_pos_site_id
_symmetry_equiv_pos_as_xyz
1 x,y,z
2 -x,-y,-z
_cell_length_a                   9.474(3)
_cell_length_b                   10.638(3)
_cell_length_c                   8.477(4)
_cell_angle_alpha                93.89(3)
_cell_angle_beta                 90.74(3)
_cell_angle_gamma                91.37(3)
_cell_volume                     852.047
_exptl_crystal_colour            colorless
_chemical_melting_point          141-142deg.C
_cell_formula_units_Z            2
loop_
_atom_site_label
_atom_site_type_symbol
_atom_site_fract_x
_atom_site_fract_y
_atom_site_fract_z
S1 S 0.5935(1) 0.9109(1) 0.2841(1)
O1 O 0.5321(2) 1.0048(2) 0.1933(2)
O2 O 0.6678(2) 0.9503(2) 0.4271(2)
C1 C 0.4622(3) 0.8042(3) 0.3324(3)
C2 C 0.7087(3) 0.8262(3) 0.1608(3)
C3 C 0.4562(3) 0.7718(3) 0.4866(3)
C4 C 0.7318(3) 0.8658(3) 0.0121(3)
C5 C 0.3668(3) 0.7670(3) 0.2072(4)
C6 C 0.7692(3) 0.7235(3) 0.2311(4)
N1 N 0.2923(3) 0.7409(4) 0.1035(3)
N2 N 0.8094(3) 0.6403(4) 0.2950(5)
N3 N 0.3717(2) 0.6952(2) 0.5569(2)
N4 N 0.8232(2) 0.8280(2) -0.0943(2)
C7 C 0.8256(3) 0.8871(3) -0.2473(3)
C8 C 0.9412(4) 0.9841(4) -0.2549(5)
C9 C 0.9322(3) 0.7342(3) -0.0708(4)
C10 C 0.8872(5) 0.6052(4) -0.1365(6)
C11 C 0.2560(3) 0.6236(3) 0.4795(4)
C12 C 0.1234(5) 0.6945(6) 0.4877(7)
C13 C 0.3883(4) 0.6840(3) 0.7287(3)
C14 C 0.4857(5) 0.5848(5) 0.7647(5)
H1 H 0.526(2) 0.813(2) 0.555(3)
H2 H 0.671(2) 0.935(2) -0.021(3)
H3 H 0.839 0.815 -0.341
H4 H 0.726 0.932 -0.264
H5 H 0.938 1.025 -0.368(1)
H6 H 1.042 0.940 -0.239(1)
H7 H 0.928 1.057 -0.162(1)
H8 H 1.028 0.763 -0.128
H9 H 0.952 0.731 0.054
H10 H 0.970(1) 0.540 -0.116(1)
H11 H 0.867(1) 0.608 -0.262(1)
H12 H 0.792(1) 0.576 -0.079(1)
H13 H 0.281 0.603 0.357
H14 H 0.241 0.536 0.536
H15 H 0.040(1) 0.638(1) 0.429(1)
H16 H 0.137(1) 0.782(1) 0.431(1)
H17 H 0.097(1) 0.715(1) 0.610(1)
H18 H 0.287 0.662 0.777
H19 H 0.428 0.773 0.782
H20 H 0.495(1) 0.581(1) 0.891(1)
H21 H 0.588(1) 0.606(1) 0.717(1)
H22 H 0.447(1) 0.495(1) 0.712(1)
loop_
_geom_bond_atom_site_label_1
_geom_bond_atom_site_label_2
_geom_bond_site_symmetry_1
_geom_bond_site_symmetry_2
S1 O1 1_555 1_555
O2 S1 1_555 1_555
C1 S1 1_555 1_555
C2 S1 1_555 1_555
C3 C1 1_555 1_555
C4 C2 1_555 1_555
C5 C1 1_555 1_555
C6 C2 1_555 1_555
N1 C5 1_555 1_555
N2 C6 1_555 1_555
N3 C3 1_555 1_555
N4 C4 1_555 1_555
C7 N4 1_555 1_555
C8 C7 1_555 1_555
C9 N4 1_555 1_555
C10 C9 1_555 1_555
C11 N3 1_555 1_555
C12 C11 1_555 1_555
C13 N3 1_555 1_555
C14 C13 1_555 1_555
H1 C3 1_555 1_555
H2 C4 1_555 1_555
H3 C7 1_555 1_555
H4 C7 1_555 1_555
H5 C8 1_555 1_555
H6 C8 1_555 1_555
H7 C8 1_555 1_555
H8 C9 1_555 1_555
H9 C9 1_555 1_555
H10 C10 1_555 1_555
H11 C10 1_555 1_555
H12 C10 1_555 1_555
H13 C11 1_555 1_555
H14 C11 1_555 1_555
H15 C12 1_555 1_555
H16 C12 1_555 1_555
H17 C12 1_555 1_555
H18 C13 1_555 1_555
H19 C13 1_555 1_555
H20 C14 1_555 1_555
H21 C14 1_555 1_555
H22 C14 1_555 1_555

#END
