
#######################################################################
#
#                 Cambridge Crystallographic Data Centre
#                                CCDC 
#
#######################################################################
#
# If this CIF has been generated from an entry in the Cambridge 
# Structural Database, then it will include bibliographic, chemical, 
# crystal, experimental, refinement or atomic coordinate data resulting 
# from the CCDC's data processing and validation procedures.
#
#######################################################################

data_VICZAL
_chemical_formula_moiety         'C24 H33 N3,0.5(C1 H4 O1)'
_chemical_name_systematic        
'N,N-dimethyl-4-(5,5,9,9-tetramethyl-2,4,5,6,7,8,9,9a-octahydro-5a,8-methanobenzo[g]indazol-3-yl)aniline methanol solvate'
_symmetry_cell_setting           orthorhombic
_symmetry_space_group_name_H-M   'P 21 21 2'
_symmetry_Int_Tables_number      18
_space_group_name_Hall           'P 2 2ab'
loop_
_symmetry_equiv_pos_site_id
_symmetry_equiv_pos_as_xyz
1 x,y,z
2 -x,-y,z
3 1/2-x,1/2+y,-z
4 1/2+x,1/2-y,-z
_cell_length_a                   19.0581(13)
_cell_length_b                   10.8438(8)
_cell_length_c                   10.844
_cell_angle_alpha                90
_cell_angle_beta                 90
_cell_angle_gamma                90
_cell_volume                     2241.05
_exptl_crystal_colour            'faint yellow'
_exptl_crystal_description       'orthorhombic crystal'
_cell_formula_units_Z            4
_chemical_properties_physical    Heat-sensitive
_exptl_crystal_recrystallization_method 
'Re-crystallisation from solvent: ethanol'
loop_
_atom_site_label
_atom_site_type_symbol
_atom_site_fract_x
_atom_site_fract_y
_atom_site_fract_z
C1 C 0.10926(10) 0.62149(19) 0.04705(19)
C2 C 0.21816(11) 0.5759(2) 0.32025(19)
C3 C 0.17388(10) 0.63880(19) 0.10319(19)
N1 N 0.06687(9) 0.5626(2) 0.12493(17)
C4 C 0.09063(10) 0.65844(19) -0.08137(19)
H1 H 0.0777 0.5843 -0.1277
N2 N 0.10182(10) 0.5424(2) 0.23085(17)
H2 H 0.0850 0.5061 0.2949
C5 C 0.27444(12) 0.6566(2) 0.3332(2)
H3 H 0.2786 0.7223 0.2785
C6 C 0.23579(11) 0.6888(2) 0.0346(2)
H4 H 0.2779 0.6466 0.0616
H5 H 0.2411 0.7758 0.0531
C7 C 0.16706(11) 0.5879(2) 0.22065(19)
C8 C 0.32007(12) 0.5452(2) 0.5088(2)
C9 C 0.21437(13) 0.4807(2) 0.40597(19)
H6 H 0.1771 0.4255 0.4015
C10 C 0.15453(12) 0.7206(2) -0.1466(2)
C11 C 0.26329(14) 0.4655(3) 0.4961(2)
H7 H 0.2586 0.4000 0.5509
C12 C 0.22709(11) 0.6719(2) -0.1054(2)
C13 C 0.02958(12) 0.7569(2) -0.0954(2)
C14 C 0.32408(12) 0.6428(2) 0.4241(2)
H8 H 0.3609 0.6989 0.4295
C15 C 0.14013(13) 0.8587(2) -0.1243(3)
H9 H 0.1412 0.8808 -0.0377
H10 H 0.1712 0.9120 -0.1711
C16 C 0.28708(14) 0.7401(3) -0.1682(3)
H11 H 0.2829 0.7315 -0.2560
H12 H 0.3310 0.7061 -0.1416
H13 H 0.2851 0.8259 -0.1467
N3 N 0.36988(12) 0.5299(3) 0.6001(2)
C17 C -0.03612(14) 0.6986(3) -0.1527(3)
H14 H -0.0722 0.7599 -0.1603
H15 H -0.0524 0.6328 -0.1009
H16 H -0.0248 0.6665 -0.2328
C18 C 0.13915(14) 0.7116(3) -0.2863(2)
H17 H 0.1232 0.6296 -0.3085
H18 H 0.1804 0.7319 -0.3345
C19 C 0.23277(15) 0.5341(2) -0.1373(2)
H19 H 0.2272 0.5233 -0.2246
H20 H 0.1967 0.4893 -0.0947
H21 H 0.2779 0.5038 -0.1125
C20 C 0.08045(17) 0.8081(3) -0.3055(3)
H22 H 0.0962 0.8745 -0.3588
H23 H 0.0390 0.7705 -0.3411
C21 C 0.37642(16) 0.4128(4) 0.6612(3)
H24 H 0.3355 0.3639 0.6450
H25 H 0.3810 0.4257 0.7484
H26 H 0.4172 0.3706 0.6309
C22 C 0.06590(15) 0.8548(3) -0.1768(3)
H27 H 0.0423 0.9350 -0.1755
C23 C 0.00685(16) 0.8154(3) 0.0273(3)
H28 H -0.0301 0.8737 0.0125
H29 H 0.0461 0.8570 0.0641
H30 H -0.0096 0.7522 0.0821
C24 C 0.42525(15) 0.6159(4) 0.6131(3)
H31 H 0.4142 0.6895 0.5680
H32 H 0.4678 0.5808 0.5814
H33 H 0.4313 0.6356 0.6987
H34? H 0.0243 0.5410 0.1100
C25? C -0.0084(3) 0.5502(4) 0.4071(3)
O1? O 0.0000 0.5000 0.5126(5)
loop_
_geom_bond_atom_site_label_1
_geom_bond_atom_site_label_2
_geom_bond_site_symmetry_1
_geom_bond_site_symmetry_2
C1 C3 1_555 1_555
C2 C5 1_555 1_555
C3 C6 1_555 1_555
N1 C1 1_555 1_555
C4 C1 1_555 1_555
H1 C4 1_555 1_555
N2 N1 1_555 1_555
H2 N2 1_555 1_555
C5 H3 1_555 1_555
C6 H4 1_555 1_555
H5 C6 1_555 1_555
C7 C2 1_555 1_555
C8 C11 1_555 1_555
C9 C2 1_555 1_555
H6 C9 1_555 1_555
C10 C4 1_555 1_555
C11 C9 1_555 1_555
H7 C11 1_555 1_555
C12 C6 1_555 1_555
C13 C4 1_555 1_555
C14 C5 1_555 1_555
H8 C14 1_555 1_555
C15 C10 1_555 1_555
H9 C15 1_555 1_555
H10 C15 1_555 1_555
C16 C12 1_555 1_555
H11 C16 1_555 1_555
H12 C16 1_555 1_555
H13 C16 1_555 1_555
N3 C8 1_555 1_555
C17 C13 1_555 1_555
H14 C17 1_555 1_555
H15 C17 1_555 1_555
H16 C17 1_555 1_555
C18 C10 1_555 1_555
H17 C18 1_555 1_555
H18 C18 1_555 1_555
C19 C12 1_555 1_555
H19 C19 1_555 1_555
H20 C19 1_555 1_555
H21 C19 1_555 1_555
C20 C18 1_555 1_555
H22 C20 1_555 1_555
H23 C20 1_555 1_555
C21 N3 1_555 1_555
H24 C21 1_555 1_555
H25 C21 1_555 1_555
H26 C21 1_555 1_555
C22 C13 1_555 1_555
H27 C22 1_555 1_555
C23 C13 1_555 1_555
H28 C23 1_555 1_555
H29 C23 1_555 1_555
H30 C23 1_555 1_555
C24 N3 1_555 1_555
H31 C24 1_555 1_555
H32 C24 1_555 1_555
H33 C24 1_555 1_555
C3 C7 1_555 1_555
N2 C7 1_555 1_555
C8 C14 1_555 1_555
C10 C12 1_555 1_555
C15 C22 1_555 1_555
C20 C22 1_555 1_555

#END
