
#######################################################################
#
#                 Cambridge Crystallographic Data Centre
#                                CCDC 
#
#######################################################################
#
# If this CIF has been generated from an entry in the Cambridge 
# Structural Database, then it will include bibliographic, chemical, 
# crystal, experimental, refinement or atomic coordinate data resulting 
# from the CCDC's data processing and validation procedures.
#
#######################################################################

data_VICZIT
_chemical_formula_moiety         'C9 H6 N2'
_chemical_name_systematic        4-(cyanomethyl)benzonitrile
_symmetry_cell_setting           triclinic
_symmetry_space_group_name_H-M   'P -1'
_symmetry_Int_Tables_number      2
_space_group_name_Hall           '-P 1'
loop_
_symmetry_equiv_pos_site_id
_symmetry_equiv_pos_as_xyz
1 x,y,z
2 -x,-y,-z
_cell_length_a                   4.1942(6)
_cell_length_b                   11.7255(18)
_cell_length_c                   15.635(2)
_cell_angle_alpha                90.00
_cell_angle_beta                 91.787(2)
_cell_angle_gamma                90.00
_cell_volume                     768.541
_cell_formula_units_Z            4
loop_
_atom_site_label
_atom_site_type_symbol
_atom_site_fract_x
_atom_site_fract_y
_atom_site_fract_z
C1 C 0.0837(6) 0.5084(3) 0.69690(17)
C2 C 0.2650(7) 0.4054(3) 0.72235(17)
C3 C 0.3866(5) 0.3380(2) 0.64954(15)
C4 C 0.3430(6) 0.3724(2) 0.56381(15)
H1 H 0.2369 0.4399 0.5502
C5 C 0.4591(6) 0.3050(2) 0.50136(15)
H2 H 0.4275 0.3271 0.4446
C6 C 0.6216(6) 0.2053(2) 0.51877(15)
C7 C 0.6678(7) 0.1718(2) 0.60228(16)
H3 H 0.7784 0.1050 0.6155
C8 C 0.5461(6) 0.2397(2) 0.66750(14)
H4 H 0.5751 0.2169 0.7242
C9 C 0.7452(7) 0.1353(2) 0.45165(17)
N1 N 0.8358(7) 0.0832(2) 0.39673(15)
N2 N -0.0558(7) 0.5879(3) 0.67920(16)
H5 H 0.454(8) 0.428(3) 0.763(2)
H6 H 0.128(9) 0.363(3) 0.759(2)
C10 C 0.7450(7) 0.3646(2) -0.04836(17)
C11 C 0.6215(6) 0.2945(2) 0.01873(15)
C12 C 0.4591(6) 0.1949(2) 0.00112(15)
H7 H 0.4280 0.1727 -0.0556
C13 C 0.3425(6) 0.1276(2) 0.06374(15)
H8 H 0.2357 0.0602 0.0501
C14 C 0.3865(5) 0.1620(2) 0.14966(14)
C15 C 0.5456(6) 0.2605(2) 0.16754(14)
H9 H 0.5744 0.2833 0.2242
C16 C 0.6677(7) 0.3285(2) 0.10230(16)
H10 H 0.7780 0.3954 0.1154
C17 C 0.2646(7) 0.0947(2) 0.22232(16)
H11 H 0.4440 0.0721 0.2591
H12 H 0.1282 0.1433 0.2555
C18 C 0.0839(7) -0.0083(3) 0.19712(17)
N3 N 0.8358(7) 0.4166(2) -0.10321(16)
N4 N -0.0558(7) -0.0876(3) 0.17911(16)
loop_
_geom_bond_atom_site_label_1
_geom_bond_atom_site_label_2
_geom_bond_site_symmetry_1
_geom_bond_site_symmetry_2
C1 C2 1_555 1_555
C2 C3 1_555 1_555
C3 C4 1_555 1_555
C4 H1 1_555 1_555
C5 C4 1_555 1_555
H2 C5 1_555 1_555
C6 C5 1_555 1_555
C7 C6 1_555 1_555
H3 C7 1_555 1_555
C8 C3 1_555 1_555
H4 C8 1_555 1_555
C9 C6 1_555 1_555
N1 C9 1_555 1_555
N2 C1 1_555 1_555
H5 C2 1_555 1_555
H6 C2 1_555 1_555
C10 C11 1_555 1_555
C11 C12 1_555 1_555
C12 H7 1_555 1_555
C13 C12 1_555 1_555
H8 C13 1_555 1_555
C14 C13 1_555 1_555
C15 C14 1_555 1_555
H9 C15 1_555 1_555
C16 C11 1_555 1_555
H10 C16 1_555 1_555
C17 C14 1_555 1_555
H11 C17 1_555 1_555
H12 C17 1_555 1_555
C18 C17 1_555 1_555
N3 C10 1_555 1_555
N4 C18 1_555 1_555
C7 C8 1_555 1_555
C15 C16 1_555 1_555

#END
