
#######################################################################
#
#                 Cambridge Crystallographic Data Centre
#                                CCDC 
#
#######################################################################
#
# If this CIF has been generated from an entry in the Cambridge 
# Structural Database, then it will include bibliographic, chemical, 
# crystal, experimental, refinement or atomic coordinate data resulting 
# from the CCDC's data processing and validation procedures.
#
#######################################################################

data_VIDCIX
_chemical_formula_moiety         'C50 H36 N2 O2 S1,C1 H1 Cl3'
_chemical_name_systematic        
'9-{bis[4-(diphenylamino)phenyl]methylidene}-10\l^6^-thioxanthene-10,10(9H)-dione chloroform solvate'
_symmetry_cell_setting           monoclinic
_symmetry_space_group_name_H-M   'P 21/c'
_symmetry_Int_Tables_number      14
_space_group_name_Hall           '-P 2ybc'
loop_
_symmetry_equiv_pos_site_id
_symmetry_equiv_pos_as_xyz
1 x,y,z
2 -x,1/2+y,1/2-z
3 -x,-y,-z
4 x,1/2-y,1/2+z
_cell_length_a                   15.9689(4)
_cell_length_b                   28.4291(4)
_cell_length_c                   9.49878(19)
_cell_angle_alpha                90
_cell_angle_beta                 106.722(2)
_cell_angle_gamma                90
_cell_volume                     4129.91
_exptl_crystal_colour            colorless
_exptl_crystal_description       needle
_cell_formula_units_Z            4
loop_
_atom_site_label
_atom_site_type_symbol
_atom_site_fract_x
_atom_site_fract_y
_atom_site_fract_z
S1 S 0.43672(4) 0.63592(2) -0.00355(6)
O1 O 0.34467(12) 0.64149(7) -0.0743(2)
O2 O 0.49596(12) 0.64343(6) -0.09180(18)
N1 N 0.85941(13) 0.79290(7) 0.3344(2)
N2 N 0.88757(14) 0.46611(7) 0.1535(2)
C1 C 0.46768(16) 0.67267(8) 0.1518(3)
C2 C 0.41869(17) 0.71252(9) 0.1602(3)
H1 H 0.3673 0.7197 0.0835
C3 C 0.44585(18) 0.74130(9) 0.2811(3)
H2 H 0.4139 0.7690 0.2876
C4 C 0.52027(17) 0.72968(9) 0.3940(3)
H3 H 0.5385 0.7494 0.4781
C5 C 0.56827(16) 0.68949(8) 0.3848(3)
H4 H 0.6186 0.6818 0.4632
C6 C 0.54324(15) 0.66041(8) 0.2619(2)
C7 C 0.59108(15) 0.61630(8) 0.2479(2)
C8 C 0.53331(15) 0.57464(8) 0.1994(2)
C9 C 0.54627(16) 0.53077(8) 0.2676(3)
H5 H 0.5951 0.5261 0.3514
C10 C 0.48901(16) 0.49384(9) 0.2150(3)
H6 H 0.4994 0.4642 0.2633
C11 C 0.41718(17) 0.49936(9) 0.0936(3)
H7 H 0.3796 0.4735 0.0566
C12 C 0.40047(16) 0.54337(9) 0.0258(3)
H8 H 0.3505 0.5481 -0.0560
C13 C 0.45793(15) 0.57999(8) 0.0798(2)
C14 C 0.67764(14) 0.61705(7) 0.2624(2)
C15 C 0.72540(15) 0.66288(8) 0.2800(2)
C16 C 0.70305(15) 0.69712(8) 0.1703(2)
H9 H 0.6566 0.6913 0.0837
C17 C 0.74765(15) 0.73933(8) 0.1860(2)
H10 H 0.7327 0.7619 0.1092
C18 C 0.81467(14) 0.74899(8) 0.3144(2)
C19 C 0.83829(15) 0.71465(8) 0.4229(2)
H11 H 0.8842 0.7206 0.5101
C20 C 0.79518(14) 0.67161(8) 0.4046(2)
H12 H 0.8134 0.6479 0.4777
C21 C 0.81326(15) 0.83565(8) 0.2976(2)
C22 C 0.72411(16) 0.83866(8) 0.2906(2)
H13 H 0.6949 0.8120 0.3145
C23 C 0.67871(16) 0.88050(9) 0.2488(3)
H14 H 0.6184 0.8821 0.2430
C24 C 0.72030(17) 0.92003(8) 0.2154(2)
H15 H 0.6888 0.9485 0.1863
C25 C 0.80827(17) 0.91736(8) 0.2252(2)
H16 H 0.8375 0.9445 0.2044
C26 C 0.85481(16) 0.87568(8) 0.2651(2)
H17 H 0.9151 0.8745 0.2702
C27 C 0.95182(15) 0.79233(8) 0.4020(3)
C28 C 0.98989(18) 0.82183(9) 0.5194(3)
H18 H 0.9548 0.8428 0.5560
C29 C 1.08022(18) 0.82035(10) 0.5832(3)
H19 H 1.1068 0.8410 0.6619
C30 C 1.13175(18) 0.78894(10) 0.5327(4)
H20 H 1.1931 0.7878 0.5778
C31 C 1.09336(18) 0.75958(10) 0.4171(3)
H21 H 1.1282 0.7379 0.3827
C32 C 1.00398(17) 0.76156(9) 0.3506(3)
H22 H 0.9781 0.7417 0.2692
C33 C 0.73174(14) 0.57629(8) 0.2418(2)
C34 C 0.75765(15) 0.53906(8) 0.3390(2)
H23 H 0.7394 0.5383 0.4257
C35 C 0.80972(15) 0.50291(8) 0.3124(2)
H24 H 0.8270 0.4781 0.3816
C36 C 0.83702(14) 0.50270(8) 0.1848(2)
C37 C 0.81513(15) 0.54152(8) 0.0912(2)
H25 H 0.8355 0.5431 0.0067
C38 C 0.76438(15) 0.57763(8) 0.1195(2)
H26 H 0.7513 0.6039 0.0550
C39 C 0.92294(15) 0.43100(8) 0.2630(2)
C40 C 0.99165(15) 0.44279(8) 0.3858(2)
H27 H 1.0166 0.4734 0.3944
C41 C 1.02365(16) 0.40967(9) 0.4958(3)
H28 H 1.0705 0.4176 0.5796
C42 C 0.98684(17) 0.36492(9) 0.4827(3)
H29 H 1.0080 0.3424 0.5586
C43 C 0.91906(17) 0.35312(9) 0.3586(3)
H30 H 0.8947 0.3224 0.3490
C44 C 0.88703(16) 0.38621(9) 0.2488(3)
H31 H 0.8407 0.3782 0.1643
C45 C 0.88395(16) 0.45561(8) 0.0042(2)
C46 C 0.80535(17) 0.45511(10) -0.1061(3)
H32 H 0.7523 0.4612 -0.0830
C47 C 0.80371(17) 0.44579(10) -0.2499(3)
H33 H 0.7496 0.4459 -0.3251
C48 C 0.88001(17) 0.43627(9) -0.2849(3)
H34 H 0.8787 0.4297 -0.3836
C49 C 0.95855(16) 0.43635(8) -0.1745(3)
H35 H 1.0113 0.4298 -0.1980
C50 C 0.96117(16) 0.44590(8) -0.0301(3)
H36 H 1.0154 0.4458 0.0449
Cl1 Cl 0.68995(5) 0.41814(2) 0.37462(7)
Cl2 Cl 0.56901(6) 0.39678(4) 0.53720(9)
Cl3 Cl 0.70168(8) 0.32847(3) 0.52141(12)
C51 C 0.6304(2) 0.37274(11) 0.4281(3)
H37 H 0.5893 0.3588 0.3379
loop_
_geom_bond_atom_site_label_1
_geom_bond_atom_site_label_2
_geom_bond_site_symmetry_1
_geom_bond_site_symmetry_2
S1 O1 1_555 1_555
O2 S1 1_555 1_555
N1 C18 1_555 1_555
N2 C36 1_555 1_555
C1 S1 1_555 1_555
C2 C1 1_555 1_555
H1 C2 1_555 1_555
C3 C2 1_555 1_555
H2 C3 1_555 1_555
C4 C3 1_555 1_555
H3 C4 1_555 1_555
C5 C4 1_555 1_555
H4 C5 1_555 1_555
C6 C1 1_555 1_555
C7 C6 1_555 1_555
C8 C7 1_555 1_555
C9 C8 1_555 1_555
H5 C9 1_555 1_555
C10 C9 1_555 1_555
H6 C10 1_555 1_555
C11 C10 1_555 1_555
H7 C11 1_555 1_555
C12 C11 1_555 1_555
H8 C12 1_555 1_555
C13 S1 1_555 1_555
C14 C7 1_555 1_555
C15 C14 1_555 1_555
C16 C15 1_555 1_555
H9 C16 1_555 1_555
C17 C16 1_555 1_555
H10 C17 1_555 1_555
C18 C17 1_555 1_555
C19 C18 1_555 1_555
H11 C19 1_555 1_555
C20 C15 1_555 1_555
H12 C20 1_555 1_555
C21 N1 1_555 1_555
C22 C21 1_555 1_555
H13 C22 1_555 1_555
C23 C22 1_555 1_555
H14 C23 1_555 1_555
C24 C23 1_555 1_555
H15 C24 1_555 1_555
C25 C24 1_555 1_555
H16 C25 1_555 1_555
C26 C21 1_555 1_555
H17 C26 1_555 1_555
C27 N1 1_555 1_555
C28 C27 1_555 1_555
H18 C28 1_555 1_555
C29 C28 1_555 1_555
H19 C29 1_555 1_555
C30 C29 1_555 1_555
H20 C30 1_555 1_555
C31 C30 1_555 1_555
H21 C31 1_555 1_555
C32 C27 1_555 1_555
H22 C32 1_555 1_555
C33 C14 1_555 1_555
C34 C33 1_555 1_555
H23 C34 1_555 1_555
C35 C34 1_555 1_555
H24 C35 1_555 1_555
C36 C35 1_555 1_555
C37 C36 1_555 1_555
H25 C37 1_555 1_555
C38 C33 1_555 1_555
H26 C38 1_555 1_555
C39 N2 1_555 1_555
C40 C39 1_555 1_555
H27 C40 1_555 1_555
C41 C40 1_555 1_555
H28 C41 1_555 1_555
C42 C41 1_555 1_555
H29 C42 1_555 1_555
C43 C42 1_555 1_555
H30 C43 1_555 1_555
C44 C39 1_555 1_555
H31 C44 1_555 1_555
C45 N2 1_555 1_555
C46 C45 1_555 1_555
H32 C46 1_555 1_555
C47 C46 1_555 1_555
H33 C47 1_555 1_555
C48 C47 1_555 1_555
H34 C48 1_555 1_555
C49 C48 1_555 1_555
H35 C49 1_555 1_555
C50 C45 1_555 1_555
H36 C50 1_555 1_555
Cl1 C51 1_555 1_555
Cl2 C51 1_555 1_555
Cl3 C51 1_555 1_555
C51 H37 1_555 1_555
C5 C6 1_555 1_555
C8 C13 1_555 1_555
C12 C13 1_555 1_555
C19 C20 1_555 1_555
C25 C26 1_555 1_555
C31 C32 1_555 1_555
C37 C38 1_555 1_555
C43 C44 1_555 1_555
C49 C50 1_555 1_555

#END
