
#######################################################################
#
#                 Cambridge Crystallographic Data Centre
#                                CCDC 
#
#######################################################################
#
# If this CIF has been generated from an entry in the Cambridge 
# Structural Database, then it will include bibliographic, chemical, 
# crystal, experimental, refinement or atomic coordinate data resulting 
# from the CCDC's data processing and validation procedures.
#
#######################################################################

data_VIDDOE
_chemical_formula_moiety         'C37 H29 B1 F2 O3'
_chemical_name_systematic        
(1-(4-ethoxyphenyl)-3-oxo-3-[4-(triphenylethenyl)phenyl]prop-1-en-1-olate)(difluoro)boron
_symmetry_cell_setting           triclinic
_symmetry_space_group_name_H-M   'P -1'
_symmetry_Int_Tables_number      2
_space_group_name_Hall           '-P 1'
loop_
_symmetry_equiv_pos_site_id
_symmetry_equiv_pos_as_xyz
1 x,y,z
2 -x,-y,-z
_cell_length_a                   9.321(6)
_cell_length_b                   10.078(6)
_cell_length_c                   18.829(12)
_cell_angle_alpha                80.622(12)
_cell_angle_beta                 79.030(13)
_cell_angle_gamma                85.715(12)
_cell_volume                     1711.47
_exptl_crystal_colour            yellow
_exptl_crystal_description       block
_cell_formula_units_Z            2
loop_
_atom_site_label
_atom_site_type_symbol
_atom_site_fract_x
_atom_site_fract_y
_atom_site_fract_z
F1 F 0.8264(4) -0.3138(3) 0.1587(2)
F2 F 1.0296(4) -0.2833(4) 0.0713(2)
O1 O 0.9308(4) -0.1064(4) 0.1331(2)
O2 O 0.8085(4) -0.1886(4) 0.0459(2)
O3 O 0.4590(5) -0.0187(6) -0.2102(3)
C1 C 0.8179(7) 0.3249(6) 0.3600(3)
H1 H 0.8815 0.2505 0.3533
C2 C 0.6743(9) 0.3041(9) 0.3949(4)
H2 H 0.6419 0.2173 0.4105
C3 C 0.5791(9) 0.4157(11) 0.4062(4)
H3 H 0.4827 0.4043 0.4297
C4 C 0.6291(8) 0.5396(10) 0.3827(5)
H4 H 0.5651 0.6137 0.3894
C5 C 0.7728(7) 0.5608(7) 0.3487(4)
H5 H 0.8051 0.6479 0.3349
C6 C 0.8689(6) 0.4506(6) 0.3353(3)
C7 C 1.0252(6) 0.4769(6) 0.2990(3)
C8 C 1.0948(6) 0.5816(6) 0.3305(3)
C9 C 1.1356(7) 0.7033(6) 0.2906(4)
H6 H 1.1185 0.7264 0.2429
C10 C 1.2024(8) 0.7914(7) 0.3216(5)
H7 H 1.2298 0.8743 0.2947
C11 C 1.2279(8) 0.7592(8) 0.3892(5)
H8 H 1.2757 0.8187 0.4086
C12 C 1.1838(7) 0.6363(8) 0.4323(4)
H9 H 1.2001 0.6139 0.4800
C13 C 1.1150(7) 0.5501(7) 0.4005(4)
H10 H 1.0822 0.4692 0.4279
C14 C 1.0954(6) 0.4239(5) 0.2440(3)
C15 C 1.2506(6) 0.4570(5) 0.2066(3)
C16 C 1.3686(6) 0.4401(6) 0.2439(4)
H11 H 1.3549 0.4062 0.2936
C17 C 1.5060(7) 0.4744(7) 0.2057(5)
H12 H 1.5839 0.4640 0.2309
C18 C 1.5308(8) 0.5208(7) 0.1359(5)
H13 H 1.6251 0.5419 0.1121
C19 C 1.4137(7) 0.5391(6) 0.0961(4)
H14 H 1.4290 0.5751 0.0467
C20 C 1.2792(6) 0.5024(5) 0.1322(4)
H15 H 1.2033 0.5078 0.1060
C21 C 1.0333(6) 0.3179(5) 0.2100(3)
C22 C 0.9324(6) 0.3515(5) 0.1620(3)
H16 H 0.8964 0.4399 0.1524
C23 C 0.8877(6) 0.2531(6) 0.1297(3)
H17 H 0.8210 0.2766 0.0982
C24 C 0.9376(5) 0.1214(5) 0.1420(3)
C25 C 1.0381(6) 0.0882(5) 0.1917(3)
H18 H 1.0711 -0.0009 0.2027
C26 C 1.0856(6) 0.1834(5) 0.2227(3)
H19 H 1.1542 0.1600 0.2531
C27 C 0.8925(5) 0.0145(5) 0.1068(3)
C28 C 0.8158(6) 0.0393(5) 0.0512(3)
H20 H 0.7906 0.1276 0.0330
C29 C 0.7748(5) -0.0660(5) 0.0211(3)
C30 C 0.6907(6) -0.0474(5) -0.0384(3)
C31 C 0.6560(6) 0.0790(6) -0.0768(3)
H21 H 0.6863 0.1557 -0.0633
C32 C 0.5816(6) 0.0934(6) -0.1316(3)
H22 H 0.5598 0.1789 -0.1551
C33 C 0.5361(6) -0.0208(7) -0.1539(4)
C34 C 0.5707(6) -0.1490(6) -0.1184(4)
H23 H 0.5430 -0.2252 -0.1334
C35 C 0.6452(6) -0.1619(6) -0.0616(3)
H24 H 0.6664 -0.2473 -0.0377
C36 C 0.4201(10) 0.0886(8) -0.2495(5)
H25 H 0.5045 0.1388 -0.2748
H26 H 0.3546 0.1457 -0.2197
C37 C 0.3411(9) 0.0386(10) -0.3046(4)
H27 H 0.4021 0.0497 -0.3522
H28 H 0.2506 0.0900 -0.3068
H29 H 0.3214 -0.0548 -0.2891
B1 B 0.8992(9) -0.2271(8) 0.1030(5)
loop_
_geom_bond_atom_site_label_1
_geom_bond_atom_site_label_2
_geom_bond_site_symmetry_1
_geom_bond_site_symmetry_2
F1 B1 1_555 1_555
F2 B1 1_555 1_555
O1 C27 1_555 1_555
O2 C29 1_555 1_555
O3 C33 1_555 1_555
C1 H1 1_555 1_555
C2 C1 1_555 1_555
H2 C2 1_555 1_555
C3 C2 1_555 1_555
H3 C3 1_555 1_555
C4 C3 1_555 1_555
H4 C4 1_555 1_555
C5 C4 1_555 1_555
H5 C5 1_555 1_555
C6 C1 1_555 1_555
C7 C6 1_555 1_555
C8 C7 1_555 1_555
C9 C8 1_555 1_555
H6 C9 1_555 1_555
C10 C9 1_555 1_555
H7 C10 1_555 1_555
C11 C10 1_555 1_555
H8 C11 1_555 1_555
C12 C11 1_555 1_555
H9 C12 1_555 1_555
C13 C8 1_555 1_555
H10 C13 1_555 1_555
C14 C7 1_555 1_555
C15 C14 1_555 1_555
C16 C15 1_555 1_555
H11 C16 1_555 1_555
C17 C16 1_555 1_555
H12 C17 1_555 1_555
C18 C17 1_555 1_555
H13 C18 1_555 1_555
C19 C18 1_555 1_555
H14 C19 1_555 1_555
C20 C15 1_555 1_555
H15 C20 1_555 1_555
C21 C14 1_555 1_555
C22 C21 1_555 1_555
H16 C22 1_555 1_555
C23 C22 1_555 1_555
H17 C23 1_555 1_555
C24 C23 1_555 1_555
C25 C24 1_555 1_555
H18 C25 1_555 1_555
C26 C21 1_555 1_555
H19 C26 1_555 1_555
C27 C24 1_555 1_555
C28 C27 1_555 1_555
H20 C28 1_555 1_555
C29 C28 1_555 1_555
C30 C29 1_555 1_555
C31 C30 1_555 1_555
H21 C31 1_555 1_555
C32 C31 1_555 1_555
H22 C32 1_555 1_555
C33 C32 1_555 1_555
C34 C33 1_555 1_555
H23 C34 1_555 1_555
C35 C30 1_555 1_555
H24 C35 1_555 1_555
C36 O3 1_555 1_555
H25 C36 1_555 1_555
H26 C36 1_555 1_555
C37 C36 1_555 1_555
H27 C37 1_555 1_555
H28 C37 1_555 1_555
H29 C37 1_555 1_555
B1 O1 1_555 1_555
O2 B1 1_555 1_555
C5 C6 1_555 1_555
C12 C13 1_555 1_555
C19 C20 1_555 1_555
C25 C26 1_555 1_555
C34 C35 1_555 1_555

#END
