
#######################################################################
#
#                 Cambridge Crystallographic Data Centre
#                                CCDC 
#
#######################################################################
#
# If this CIF has been generated from an entry in the Cambridge 
# Structural Database, then it will include bibliographic, chemical, 
# crystal, experimental, refinement or atomic coordinate data resulting 
# from the CCDC's data processing and validation procedures.
#
#######################################################################

data_VIDMOM
_chemical_formula_moiety         'C35 B1 F25 O1'
_chemical_name_systematic        
1,2,3,4,5-pentakis(pentafluorophenyl)-1-carbonyl-borate
_symmetry_cell_setting           monoclinic
_symmetry_space_group_name_H-M   'C 2/c'
_symmetry_Int_Tables_number      15
_space_group_name_Hall           '-C 2yn'
loop_
_symmetry_equiv_pos_site_id
_symmetry_equiv_pos_as_xyz
1 x,y,z
2 -x,y,1/2-z
3 1/2+x,1/2+y,z
4 1/2-x,1/2+y,1/2-z
5 -x,-y,-z
6 x,-y,1/2+z
7 1/2-x,1/2-y,-z
8 1/2+x,1/2-y,1/2+z
_cell_length_a                   28.3510(12)
_cell_length_b                   13.1576(6)
_cell_length_c                   19.6080(7)
_cell_angle_alpha                90
_cell_angle_beta                 112.633(2)
_cell_angle_gamma                90
_cell_volume                     6751.1
_exptl_crystal_colour            colorless
_exptl_crystal_description       prism
_cell_formula_units_Z            8
loop_
_atom_site_label
_atom_site_type_symbol
_atom_site_fract_x
_atom_site_fract_y
_atom_site_fract_z
B1 B 0.10513(10) 0.20207(19) 0.48468(15)
O1 O 0.00146(7) 0.21206(16) 0.42337(13)
C1 C 0.04367(10) 0.20448(19) 0.45266(16)
C2 C 0.11633(8) 0.13668(17) 0.42232(13)
C3 C 0.12504(8) 0.20224(16) 0.37562(13)
C4 C 0.12369(8) 0.30973(17) 0.39890(13)
C5 C 0.11495(8) 0.31578(17) 0.46150(12)
C6 C 0.12240(9) 0.02541(18) 0.42452(13)
C7 C 0.08813(10) -0.03810(19) 0.43836(15)
C8 C 0.09588(13) -0.1408(2) 0.44953(18)
C9 C 0.13960(13) -0.1844(2) 0.44743(18)
C10 C 0.17519(11) -0.1244(2) 0.43455(15)
C11 C 0.16624(9) -0.02166(18) 0.42280(13)
C12 C 0.13538(8) 0.17732(17) 0.30882(13)
C13 C 0.10017(9) 0.12772(18) 0.24823(14)
C14 C 0.10964(10) 0.10912(19) 0.18527(14)
C15 C 0.15509(12) 0.1397(2) 0.18190(15)
C16 C 0.19156(10) 0.1877(2) 0.24182(16)
C17 C 0.18118(9) 0.20548(18) 0.30351(13)
C18 C 0.13197(8) 0.39797(17) 0.35796(13)
C19 C 0.09924(9) 0.41895(19) 0.28576(14)
C20 C 0.10637(11) 0.5007(2) 0.24792(16)
C21 C 0.14714(12) 0.5646(2) 0.28066(18)
C22 C 0.18038(10) 0.54754(19) 0.35301(17)
C23 C 0.17224(9) 0.46506(18) 0.39050(14)
C24 C 0.10973(8) 0.41150(17) 0.49682(13)
C25 C 0.06627(8) 0.47163(17) 0.46763(13)
C26 C 0.05975(9) 0.55947(17) 0.50060(15)
C27 C 0.09813(10) 0.59143(18) 0.56466(15)
C28 C 0.14205(10) 0.5352(2) 0.59532(14)
C29 C 0.14707(8) 0.44537(18) 0.56259(13)
C30 C 0.12925(9) 0.16790(16) 0.56896(13)
C31 C 0.17829(9) 0.12851(18) 0.59925(13)
C32 C 0.20140(10) 0.0996(2) 0.67240(15)
C33 C 0.17565(11) 0.1095(2) 0.71768(15)
C34 C 0.12701(12) 0.1476(2) 0.69119(16)
C35 C 0.10477(10) 0.1767(2) 0.61778(17)
F1 F 0.04533(6) 0.00140(12) 0.44202(11)
F2 F 0.06185(9) -0.19808(14) 0.46330(14)
F3 F 0.14784(10) -0.28422(13) 0.45920(14)
F4 F 0.21802(7) -0.16544(13) 0.43388(11)
F5 F 0.20244(5) 0.03424(11) 0.41354(8)
F6 F 0.05522(6) 0.09945(13) 0.24934(10)
F7 F 0.07469(7) 0.06176(13) 0.12748(9)
F8 F 0.16426(8) 0.12269(14) 0.12104(9)
F9 F 0.23601(7) 0.21484(15) 0.23898(11)
F10 F 0.21704(5) 0.25080(12) 0.36117(8)
F11 F 0.05895(6) 0.35814(12) 0.25197(8)
F12 F 0.07344(7) 0.52068(15) 0.17852(10)
F13 F 0.15494(9) 0.64337(15) 0.24355(13)
F14 F 0.22027(7) 0.60861(13) 0.38530(12)
F15 F 0.02829(5) 0.44176(11) 0.40517(9)
F16 F 0.20493(5) 0.44909(12) 0.45961(8)
F17 F 0.01621(5) 0.61297(11) 0.47170(10)
F18 F 0.09253(7) 0.67594(12) 0.59869(10)
F19 F 0.17885(7) 0.56583(15) 0.65852(10)
F20 F 0.18965(5) 0.39035(12) 0.59447(9)
F21 F 0.20556(5) 0.11777(14) 0.55743(8)
F22 F 0.24866(6) 0.06092(15) 0.69841(9)
F23 F 0.19753(8) 0.08019(15) 0.78873(9)
F24 F 0.10157(9) 0.15550(19) 0.73586(12)
F25 F 0.05730(7) 0.21428(17) 0.59378(11)
loop_
_geom_bond_atom_site_label_1
_geom_bond_atom_site_label_2
_geom_bond_site_symmetry_1
_geom_bond_site_symmetry_2
B1 C1 1_555 1_555
O1 C1 1_555 1_555
C2 B1 1_555 1_555
C3 C2 1_555 1_555
C4 C3 1_555 1_555
C5 B1 1_555 1_555
C6 C2 1_555 1_555
C7 C6 1_555 1_555
C8 C7 1_555 1_555
C9 C8 1_555 1_555
C10 C9 1_555 1_555
C11 C6 1_555 1_555
C12 C3 1_555 1_555
C13 C12 1_555 1_555
C14 C13 1_555 1_555
C15 C14 1_555 1_555
C16 C15 1_555 1_555
C17 C12 1_555 1_555
C18 C4 1_555 1_555
C19 C18 1_555 1_555
C20 C19 1_555 1_555
C21 C20 1_555 1_555
C22 C21 1_555 1_555
C23 C18 1_555 1_555
C24 C5 1_555 1_555
C25 C24 1_555 1_555
C26 C25 1_555 1_555
C27 C26 1_555 1_555
C28 C27 1_555 1_555
C29 C24 1_555 1_555
C30 B1 1_555 1_555
C31 C30 1_555 1_555
C32 C31 1_555 1_555
C33 C32 1_555 1_555
C34 C33 1_555 1_555
C35 C30 1_555 1_555
F1 C7 1_555 1_555
F2 C8 1_555 1_555
F3 C9 1_555 1_555
F4 C10 1_555 1_555
F5 C11 1_555 1_555
F6 C13 1_555 1_555
F7 C14 1_555 1_555
F8 C15 1_555 1_555
F9 C16 1_555 1_555
F10 C17 1_555 1_555
F11 C19 1_555 1_555
F12 C20 1_555 1_555
F13 C21 1_555 1_555
F14 C22 1_555 1_555
F15 C25 1_555 1_555
F16 C23 1_555 1_555
F17 C26 1_555 1_555
F18 C27 1_555 1_555
F19 C28 1_555 1_555
F20 C29 1_555 1_555
F21 C31 1_555 1_555
F22 C32 1_555 1_555
F23 C33 1_555 1_555
F24 C34 1_555 1_555
F25 C35 1_555 1_555
C4 C5 1_555 1_555
C10 C11 1_555 1_555
C16 C17 1_555 1_555
C22 C23 1_555 1_555
C28 C29 1_555 1_555
C34 C35 1_555 1_555

#END
