
#######################################################################
#
#                 Cambridge Crystallographic Data Centre
#                                CCDC 
#
#######################################################################
#
# If this CIF has been generated from an entry in the Cambridge 
# Structural Database, then it will include bibliographic, chemical, 
# crystal, experimental, refinement or atomic coordinate data resulting 
# from the CCDC's data processing and validation procedures.
#
#######################################################################

data_VIDQIK
_chemical_formula_moiety         'C23 H22 O5'
_chemical_name_systematic        
'Ethyl 19-hydroxy-16-methyl-2-oxo-13-oxapentacyclo[14.2.2.0^1,14^.0^3,12^.0^4,9^]icosa-3(12),4,6,8,10,17-hexaene-17-carboxylate'
_symmetry_cell_setting           triclinic
_symmetry_space_group_name_H-M   'P 1'
_symmetry_Int_Tables_number      1
_space_group_name_Hall           'P 1'
loop_
_symmetry_equiv_pos_site_id
_symmetry_equiv_pos_as_xyz
1 x,y,z
_cell_length_a                   7.7512(3)
_cell_length_b                   8.1381(3)
_cell_length_c                   8.4256(3)
_cell_angle_alpha                69.558(3)
_cell_angle_beta                 79.669(3)
_cell_angle_gamma                74.031(3)
_cell_volume                     476.751
_exptl_crystal_colour            colorless
_exptl_crystal_description       block
_cell_formula_units_Z            1
loop_
_atom_site_label
_atom_site_type_symbol
_atom_site_fract_x
_atom_site_fract_y
_atom_site_fract_z
O1 O 0.79465(16) 1.05274(13) -0.33852(13)
H1 H 0.7678 0.9588 -0.3290
O2 O 0.50435(16) 1.64126(14) -0.31760(16)
O3 O 0.42737(16) 1.02708(15) -0.08870(18)
O4 O 0.85950(15) 0.89504(15) 0.18249(14)
O5 O 0.7451(2) 1.70894(16) -0.2701(2)
C1 C 0.6152(2) 1.29253(18) -0.14183(19)
H2 H 0.4957 1.3351 -0.1668
C2 C 0.5101(2) 0.66592(19) 0.17034(19)
C3 C 0.69474(18) 1.09720(17) -0.05963(17)
C4 C 0.7720(2) 1.0806(2) 0.1028(2)
H3 H 0.6731 1.1196 0.1817
C5 C 0.85494(19) 1.03837(17) -0.18422(18)
H4 H 0.9180 0.9136 -0.1303
C6 C 0.9845(2) 1.1629(2) -0.2240(2)
H5 H 0.9965 1.2236 -0.3457
H6 H 1.1025 1.0910 -0.1906
C7 C 0.9188(2) 1.3053(2) -0.1307(2)
C8 C 0.6092(2) 0.8056(2) 0.12398(19)
C9 C 0.56130(19) 0.97903(18) -0.01237(18)
C10 C 0.7265(2) 1.40125(19) -0.1768(2)
C11 C 0.9069(2) 1.1981(2) 0.0609(2)
H7 H 1.0246 1.1230 0.0918
H8 H 0.8700 1.2812 0.1265
C12 C 0.8214(3) 0.6058(2) 0.3327(2)
H9 H 0.9253 0.5856 0.3840
C13 C 0.3253(3) 0.3861(3) 0.2784(3)
H10 H 0.2629 0.2949 0.3137
C14 C 0.6646(2) 1.59850(19) -0.2578(2)
C15 C 0.4314(3) 1.8293(2) -0.4062(3)
H11 H 0.5143 1.8747 -0.5025
H12 H 0.4122 1.9005 -0.3305
C16 C 0.3549(2) 0.6820(2) 0.0963(2)
H13 H 0.3119 0.7873 0.0105
C17 C 0.7592(2) 0.7730(2) 0.20902(18)
C18 C 0.2571(3) 1.8411(3) -0.4653(3)
H14 H 0.2049 1.9645 -0.5249
H15 H 0.1763 1.7962 -0.3689
H16 H 0.2779 1.7703 -0.5401
C19 C 0.7287(3) 0.4755(2) 0.3759(2)
H17 H 0.7700 0.3660 0.4576
C20 C 1.0552(3) 1.4225(3) -0.1742(3)
H18 H 1.1719 1.3474 -0.1454
H19 H 1.0187 1.5061 -0.1109
H20 H 1.0607 1.4877 -0.2938
C21 C 0.2658(3) 0.5455(3) 0.1482(3)
H21 H 0.1644 0.5589 0.0962
C22 C 0.5714(2) 0.5013(2) 0.3005(2)
C23 C 0.4742(3) 0.3655(2) 0.3526(3)
H22 H 0.5130 0.2598 0.4397
loop_
_geom_bond_atom_site_label_1
_geom_bond_atom_site_label_2
_geom_bond_site_symmetry_1
_geom_bond_site_symmetry_2
O1 H1 1_555 1_555
O2 C14 1_555 1_555
O3 C9 1_555 1_555
O4 C4 1_555 1_555
O5 C14 1_555 1_555
C1 H2 1_555 1_555
C2 C8 1_555 1_555
C3 C1 1_555 1_555
C4 C3 1_555 1_555
H3 C4 1_555 1_555
C5 O1 1_555 1_555
H4 C5 1_555 1_555
C6 C5 1_555 1_555
H5 C6 1_555 1_555
H6 C6 1_555 1_555
C7 C6 1_555 1_555
C8 C9 1_555 1_555
C9 C3 1_555 1_555
C10 C1 1_555 1_555
C11 C4 1_555 1_555
H7 C11 1_555 1_555
H8 C11 1_555 1_555
C12 H9 1_555 1_555
C13 H10 1_555 1_555
C14 C10 1_555 1_555
C15 O2 1_555 1_555
H11 C15 1_555 1_555
H12 C15 1_555 1_555
C16 C2 1_555 1_555
H13 C16 1_555 1_555
C17 O4 1_555 1_555
C18 C15 1_555 1_555
H14 C18 1_555 1_555
H15 C18 1_555 1_555
H16 C18 1_555 1_555
C19 C12 1_555 1_555
H17 C19 1_555 1_555
C20 C7 1_555 1_555
H18 C20 1_555 1_555
H19 C20 1_555 1_555
H20 C20 1_555 1_555
C21 C13 1_555 1_555
H21 C21 1_555 1_555
C22 C2 1_555 1_555
C23 C13 1_555 1_555
H22 C23 1_555 1_555
C3 C5 1_555 1_555
C7 C10 1_555 1_555
C7 C11 1_555 1_555
C8 C17 1_555 1_555
C12 C17 1_555 1_555
C16 C21 1_555 1_555
C19 C22 1_555 1_555
C22 C23 1_555 1_555

#END
