
#######################################################################
#
#                 Cambridge Crystallographic Data Centre
#                                CCDC 
#
#######################################################################
#
# If this CIF has been generated from an entry in the Cambridge 
# Structural Database, then it will include bibliographic, chemical, 
# crystal, experimental, refinement or atomic coordinate data resulting 
# from the CCDC's data processing and validation procedures.
#
#######################################################################

data_VIDQUV01
_chemical_name_common            
'2,7,17,22-Tetrakis(pentafluorophenyl)-12,27-bis((triisopropylsilyl)ethynyl)-31,32,33,34,35,36-hexaazaheptacyclo[26.2.1.1$3,6!.1$8,11!.1$13,16!.1$18,21!.1$23,26!]hexatriaconta-1(31),2,4,6,8,10,12,14,16,18(33),19,21,23,25,27,29-hexadecaene unknown solvate'
_chemical_formula_moiety         'C76 H58 F20 N6 Si2'
_chemical_name_systematic        
'5,20-bis(tri-isopropylsilylethynyl)-10,15,25,30-tetrakis(pentafluorophenyl)(28)hexaphyrin unknown solvate'
_symmetry_cell_setting           monoclinic
_symmetry_space_group_name_H-M   'P 21/n'
_symmetry_Int_Tables_number      14
_space_group_name_Hall           '-P 2yn'
loop_
_symmetry_equiv_pos_site_id
_symmetry_equiv_pos_as_xyz
1 x,y,z
2 1/2-x,1/2+y,1/2-z
3 -x,-y,-z
4 1/2+x,1/2-y,1/2+z
_cell_length_a                   16.210(4)
_cell_length_b                   20.391(5)
_cell_length_c                   23.229(6)
_cell_angle_alpha                90
_cell_angle_beta                 98.095(12)
_cell_angle_gamma                90
_cell_volume                     7601.57
_exptl_crystal_colour            red
_exptl_crystal_description       prism
_cell_formula_units_Z            4
_exptl_crystal_preparation       fluorescent
loop_
_atom_site_label
_atom_site_type_symbol
_atom_site_fract_x
_atom_site_fract_y
_atom_site_fract_z
Si1 Si 0.14209(11) 0.41171(8) 0.57306(7)
F1 F 0.1260(2) 0.3843(2) 0.88478(15)
F2 F 0.1345(3) 0.4122(3) 0.99800(18)
F3 F 0.0326(4) 0.3519(3) 1.06392(18)
F4 F -0.0822(4) 0.2656(3) 1.0143(2)
F5 F -0.0934(3) 0.2372(2) 0.9006(2)
F6 F 0.0283(3) -0.09655(19) 0.77545(18)
F7 F -0.0415(3) -0.2153(2) 0.7544(2)
F8 F 0.0105(4) -0.29462(19) 0.6719(3)
F9 F 0.1288(3) -0.2514(2) 0.6085(2)
F10 F 0.1946(2) -0.13222(18) 0.62734(16)
F11 F 0.4678(3) 0.0221(3) 0.61583(18)
F12 F 0.6284(4) -0.0034(3) 0.6058(2)
F13 F 0.7461(3) 0.0068(3) 0.6988(3)
F14 F 0.7016(3) 0.0417(3) 0.8032(3)
F15 F 0.5447(3) 0.0754(2) 0.81285(17)
F16 F -0.2054(3) 0.4277(2) 0.6311(3)
F17 F -0.3422(3) 0.5011(2) 0.6031(3)
F18 F -0.4949(3) 0.4452(3) 0.5969(3)
F19 F -0.5088(2) 0.3165(2) 0.6178(2)
F20 F -0.3735(2) 0.24294(18) 0.6497(2)
N1 N -0.1293(3) 0.1930(2) 0.6506(2)
H1 H -0.0913 0.1999 0.6798
N2 N 0.0224(3) 0.0093(2) 0.6703(2)
H2 H 0.0032 -0.0250 0.6514
N3 N 0.2767(3) 0.0232(2) 0.72965(19)
H3 H 0.2519 0.0603 0.7308
N4 N 0.3050(3) 0.1500(2) 0.7188(2)
N5 N 0.0984(3) 0.2679(2) 0.74913(19)
H4 H 0.0663 0.2849 0.7204
N6 N -0.0817(3) 0.2881(2) 0.7321(2)
C1 C 0.1729(4) 0.3410(3) 0.6216(3)
C2 C 0.2184(3) 0.2464(2) 0.6968(2)
C3 C 0.0807(4) 0.2656(3) 0.8062(2)
C4 C 0.2376(3) -0.0358(2) 0.7267(2)
C5 C 0.3815(3) 0.1308(3) 0.7063(2)
C6 C 0.5012(4) 0.0516(3) 0.7137(3)
C7 C 0.0968(4) 0.0113(2) 0.7068(2)
C8 C -0.1571(4) 0.3140(3) 0.7123(3)
C9 C 0.0165(4) 0.3097(3) 0.8890(3)
C10 C 0.1738(3) 0.2395(2) 0.7452(2)
C11 C 0.2036(3) 0.2152(2) 0.8011(2)
H5 H 0.2522 0.1910 0.8111
C12 C -0.0614(4) 0.3117(3) 0.7882(3)
C13 C 0.3615(3) 0.0157(3) 0.7305(2)
C14 C 0.1163(4) -0.1105(3) 0.7026(3)
C15 C 0.0741(4) 0.3535(3) 0.9157(3)
C16 C 0.1514(4) -0.0444(3) 0.7144(2)
C17 C 0.4131(3) 0.0674(3) 0.7197(2)
C18 C -0.2057(4) 0.2946(3) 0.6596(3)
C19 C -0.3632(4) 0.3067(3) 0.6364(3)
C20 C 0.1931(3) 0.2971(3) 0.6557(2)
C21 C 0.0328(4) 0.1101(3) 0.7067(3)
H6 H 0.0208 0.1534 0.7150
C22 C 0.5243(4) 0.0302(3) 0.6615(3)
C23 C 0.1489(4) 0.2332(3) 0.8385(2)
H7 H 0.1558 0.2253 0.8783
C24 C 0.3017(4) -0.0858(3) 0.7330(2)
H8 H 0.2937 -0.1308 0.7352
C25 C -0.0900(4) 0.0783(3) 0.6274(3)
C26 C 0.3769(4) -0.0536(3) 0.7353(2)
H9 H 0.4290 -0.0735 0.7392
C27 C -0.2824(4) 0.3338(3) 0.6401(3)
C28 C -0.1841(4) 0.3567(3) 0.7556(3)
H10 H -0.2323 0.3820 0.7513
C29 C -0.0171(4) 0.0684(3) 0.6676(3)
C30 C 0.1025(4) 0.0751(3) 0.7303(3)
H11 H 0.1458 0.0910 0.7572
C31 C 0.0108(4) 0.2945(3) 0.8246(2)
C32 C 0.1825(5) 0.3958(4) 0.5025(3)
H12 H 0.1525 0.3571 0.4855
C33 C 0.2887(3) 0.2084(3) 0.6911(2)
C34 C 0.3553(4) 0.2274(3) 0.6597(3)
H13 H 0.3568 0.2642 0.6362
C35 C -0.1139(4) 0.0240(3) 0.5888(3)
C36 C 0.0438(5) -0.2357(3) 0.6834(3)
C37 C -0.2371(4) 0.2073(4) 0.5806(3)
H14 H -0.2824 0.2260 0.5573
C38 C 0.0280(5) 0.3382(4) 1.0075(3)
C39 C -0.1270(4) 0.3532(3) 0.8028(3)
H15 H -0.1292 0.3736 0.8384
C40 C -0.0352(5) 0.2805(3) 0.9241(3)
C41 C 0.0264(4) 0.4143(4) 0.5634(3)
H16 H 0.0092 0.4526 0.5391
C42 C 0.1400(4) -0.1517(3) 0.6606(3)
C43 C 0.0542(4) -0.1337(3) 0.7341(3)
C44 C 0.1041(5) -0.2145(3) 0.6510(3)
C45 C 0.0795(4) 0.3698(4) 0.9740(3)
C46 C -0.4325(4) 0.3441(3) 0.6215(3)
C47 C -0.0301(5) 0.2944(4) 0.9826(3)
C48 C -0.1909(4) 0.2372(3) 0.6304(3)
C49 C -0.2783(4) 0.4000(3) 0.6280(4)
C50 C -0.1364(4) 0.1361(3) 0.6180(3)
C51 C 0.6058(6) 0.0165(4) 0.6561(4)
C52 C 0.5643(4) 0.0557(4) 0.7598(3)
C53 C 0.4166(4) 0.1803(3) 0.6713(3)
H17 H 0.4690 0.1801 0.6593
C54 C 0.6448(5) 0.0395(4) 0.7563(4)
C55 C 0.0182(5) -0.1957(3) 0.7234(3)
C56 C -0.4265(4) 0.4093(4) 0.6111(4)
C57 C -0.2054(4) 0.1482(3) 0.5728(3)
H18 H -0.2246 0.1194 0.5429
C58 C -0.0044(5) 0.4254(5) 0.6225(4)
H19 H 0.0227 0.4633 0.6411
H20 H 0.0085 0.3877 0.6467
H21 H -0.0636 0.4323 0.6164
C59 C 0.1840(5) 0.4876(3) 0.6145(3)
H22 H 0.1695 0.4824 0.6538
C60 C -0.3477(5) 0.4386(4) 0.6138(4)
C61 C 0.2738(6) 0.3795(5) 0.5069(4)
H23 H 0.2870 0.3444 0.5342
H24 H 0.3063 0.4175 0.5197
H25 H 0.2864 0.3661 0.4694
C62 C 0.2831(6) 0.4906(5) 0.6222(4)
H26 H 0.3056 0.4494 0.6370
H27 H 0.3025 0.5250 0.6489
H28 H 0.3010 0.4992 0.5852
C63 C 0.6657(5) 0.0230(4) 0.7043(5)
C64 C 0.1430(9) 0.5525(4) 0.5913(5)
H29 H 0.0835 0.5483 0.5873
H30 H 0.1594 0.5623 0.5541
H31 H 0.1608 0.5873 0.6180
C65 C 0.1615(7) 0.4510(5) 0.4591(4)
H32 H 0.1030 0.4606 0.4556
H33 H 0.1754 0.4380 0.4219
H34 H 0.1928 0.4895 0.4723
C66 C -0.0164(6) 0.3559(5) 0.5339(5)
H35 H 0.0027 0.3493 0.4971
H36 H -0.0755 0.3631 0.5280
H37 H -0.0038 0.3178 0.5578
Si2 Si -0.14672(13) -0.10027(8) 0.51717(7)
C67 C -0.1283(4) -0.0245(3) 0.5599(3)
C68 C -0.0547(5) -0.1148(3) 0.4787(3)
H38 H -0.0510 -0.0766 0.4536
C69 C -0.3186(7) -0.0775(6) 0.4972(4)
H39 H -0.3129 -0.0363 0.5172
H40 H -0.3212 -0.1123 0.5248
H41 H -0.3687 -0.0774 0.4697
C70 C -0.1719(8) -0.1477(6) 0.6306(4)
H42 H -0.2288 -0.1336 0.6275
H43 H -0.1358 -0.1124 0.6452
H44 H -0.1632 -0.1844 0.6566
C71 C -0.2325(6) -0.0366(7) 0.4209(4)
H45 H -0.2832 -0.0328 0.3942
H46 H -0.1876 -0.0481 0.4000
H47 H -0.2204 0.0046 0.4404
C72 C -0.2424(5) -0.0885(5) 0.4646(3)
H48 H -0.2523 -0.1297 0.4431
C73 C 0.0292(6) -0.1186(5) 0.5193(4)
H49 H 0.0283 -0.1549 0.5454
H50 H 0.0380 -0.0787 0.5412
H51 H 0.0736 -0.1245 0.4964
C74 C -0.0655(8) -0.1758(4) 0.4378(5)
H52 H -0.0136 -0.1851 0.4240
H53 H -0.1075 -0.1669 0.4054
H54 H -0.0819 -0.2129 0.4589
C75 C -0.1936(10) -0.2282(5) 0.5515(5)
H55 H -0.1817 -0.2618 0.5804
H56 H -0.1730 -0.2414 0.5165
H57 H -0.2527 -0.2215 0.5435
C76 C -0.1532(11) -0.1673(5) 0.5727(5)
H58 H -0.0948 -0.1810 0.5816
loop_
_geom_bond_atom_site_label_1
_geom_bond_atom_site_label_2
_geom_bond_site_symmetry_1
_geom_bond_site_symmetry_2
Si1 C1 1_555 1_555
F1 C15 1_555 1_555
F2 C45 1_555 1_555
F3 C38 1_555 1_555
F4 C47 1_555 1_555
F5 C40 1_555 1_555
F6 C43 1_555 1_555
F7 C55 1_555 1_555
F8 C36 1_555 1_555
F9 C44 1_555 1_555
F10 C42 1_555 1_555
F11 C22 1_555 1_555
F12 C51 1_555 1_555
F13 C63 1_555 1_555
F14 C54 1_555 1_555
F15 C52 1_555 1_555
F16 C49 1_555 1_555
F17 C60 1_555 1_555
F18 C56 1_555 1_555
F19 C46 1_555 1_555
F20 C19 1_555 1_555
N1 H1 1_555 1_555
N2 H2 1_555 1_555
N3 H3 1_555 1_555
N4 C5 1_555 1_555
N5 H4 1_555 1_555
N6 C8 1_555 1_555
C1 C20 1_555 1_555
C2 C10 1_555 1_555
C3 N5 1_555 1_555
C4 N3 1_555 1_555
C5 C17 1_555 1_555
C6 C17 1_555 1_555
C7 N2 1_555 1_555
C8 C18 1_555 1_555
C9 C15 1_555 1_555
C10 N5 1_555 1_555
C11 C10 1_555 1_555
H5 C11 1_555 1_555
C12 N6 1_555 1_555
C13 N3 1_555 1_555
C14 C16 1_555 1_555
C15 C45 1_555 1_555
C16 C4 1_555 1_555
C17 C13 1_555 1_555
C18 C27 1_555 1_555
C19 C27 1_555 1_555
C20 C2 1_555 1_555
C21 H6 1_555 1_555
C22 C6 1_555 1_555
C23 C3 1_555 1_555
H7 C23 1_555 1_555
C24 C4 1_555 1_555
H8 C24 1_555 1_555
C25 C29 1_555 1_555
C26 C13 1_555 1_555
H9 C26 1_555 1_555
C27 C49 1_555 1_555
C28 C8 1_555 1_555
H10 C28 1_555 1_555
C29 N2 1_555 1_555
C30 C7 1_555 1_555
H11 C30 1_555 1_555
C31 C3 1_555 1_555
C32 Si1 1_555 1_555
H12 C32 1_555 1_555
C33 N4 1_555 1_555
C34 C33 1_555 1_555
H13 C34 1_555 1_555
C35 C25 1_555 1_555
C36 C44 1_555 1_555
C37 H14 1_555 1_555
C38 C45 1_555 1_555
C39 C12 1_555 1_555
H15 C39 1_555 1_555
C40 C9 1_555 1_555
C41 Si1 1_555 1_555
H16 C41 1_555 1_555
C42 C14 1_555 1_555
C43 C14 1_555 1_555
C44 C42 1_555 1_555
C46 C19 1_555 1_555
C47 C38 1_555 1_555
C48 N1 1_555 1_555
C49 C60 1_555 1_555
C50 N1 1_555 1_555
C51 C22 1_555 1_555
C52 C6 1_555 1_555
C53 C5 1_555 1_555
H17 C53 1_555 1_555
C54 C52 1_555 1_555
C55 C36 1_555 1_555
C56 C46 1_555 1_555
C57 C37 1_555 1_555
H18 C57 1_555 1_555
C58 C41 1_555 1_555
H19 C58 1_555 1_555
H20 C58 1_555 1_555
H21 C58 1_555 1_555
C59 Si1 1_555 1_555
H22 C59 1_555 1_555
C60 C56 1_555 1_555
C61 C32 1_555 1_555
H23 C61 1_555 1_555
H24 C61 1_555 1_555
H25 C61 1_555 1_555
C62 C59 1_555 1_555
H26 C62 1_555 1_555
H27 C62 1_555 1_555
H28 C62 1_555 1_555
C63 C51 1_555 1_555
C64 C59 1_555 1_555
H29 C64 1_555 1_555
H30 C64 1_555 1_555
H31 C64 1_555 1_555
C65 C32 1_555 1_555
H32 C65 1_555 1_555
H33 C65 1_555 1_555
H34 C65 1_555 1_555
C66 C41 1_555 1_555
H35 C66 1_555 1_555
H36 C66 1_555 1_555
H37 C66 1_555 1_555
Si2 C67 1_555 1_555
C67 C35 1_555 1_555
C68 Si2 1_555 1_555
H38 C68 1_555 1_555
C69 H39 1_555 1_555
H40 C69 1_555 1_555
H41 C69 1_555 1_555
C70 H42 1_555 1_555
H43 C70 1_555 1_555
H44 C70 1_555 1_555
C71 H45 1_555 1_555
H46 C71 1_555 1_555
H47 C71 1_555 1_555
C72 Si2 1_555 1_555
H48 C72 1_555 1_555
C73 C68 1_555 1_555
H49 C73 1_555 1_555
H50 C73 1_555 1_555
H51 C73 1_555 1_555
C74 C68 1_555 1_555
H52 C74 1_555 1_555
H53 C74 1_555 1_555
H54 C74 1_555 1_555
C75 H55 1_555 1_555
H56 C75 1_555 1_555
H57 C75 1_555 1_555
C76 Si2 1_555 1_555
H58 C76 1_555 1_555
C2 C33 1_555 1_555
C7 C16 1_555 1_555
C9 C31 1_555 1_555
C11 C23 1_555 1_555
C12 C31 1_555 1_555
C18 C48 1_555 1_555
C21 C29 1_555 1_555
C21 C30 1_555 1_555
C24 C26 1_555 1_555
C25 C50 1_555 1_555
C28 C39 1_555 1_555
C34 C53 1_555 1_555
C37 C48 1_555 1_555
C40 C47 1_555 1_555
C43 C55 1_555 1_555
C50 C57 1_555 1_555
C54 C63 1_555 1_555
C69 C72 1_555 1_555
C70 C76 1_555 1_555
C71 C72 1_555 1_555
C75 C76 1_555 1_555

#END
