
#######################################################################
#
#                 Cambridge Crystallographic Data Centre
#                                CCDC 
#
#######################################################################
#
# If this CIF has been generated from an entry in the Cambridge 
# Structural Database, then it will include bibliographic, chemical, 
# crystal, experimental, refinement or atomic coordinate data resulting 
# from the CCDC's data processing and validation procedures.
#
#######################################################################

data_VIDQEG
_chemical_formula_moiety         'C27 H22 N2 O4'
_chemical_name_systematic        
1-(3,4-Dimethoxyphenyl)-5,6-dimethoxy-2-phenyl-1H-indene-1,3-dicarbonitrile
_symmetry_cell_setting           triclinic
_symmetry_space_group_name_H-M   'P -1'
_symmetry_Int_Tables_number      2
_space_group_name_Hall           '-P 1'
loop_
_symmetry_equiv_pos_site_id
_symmetry_equiv_pos_as_xyz
1 x,y,z
2 -x,-y,-z
_cell_length_a                   8.9106(18)
_cell_length_b                   9.2084(18)
_cell_length_c                   15.012(3)
_cell_angle_alpha                72.43(3)
_cell_angle_beta                 79.10(3)
_cell_angle_gamma                75.78(3)
_cell_volume                     1129.49
_cell_formula_units_Z            2
loop_
_atom_site_label
_atom_site_type_symbol
_atom_site_fract_x
_atom_site_fract_y
_atom_site_fract_z
O1 O 1.31996(7) 0.95354(7) 0.01233(4)
O2 O 1.27550(7) 0.96450(7) 0.18309(4)
O3 O 0.80123(8) 0.34147(8) 0.57975(4)
O4 O 1.05680(8) 0.15376(7) 0.54519(4)
N1 N 0.85283(9) 0.63995(10) -0.07383(5)
N2 N 0.60660(9) 0.86209(9) 0.31670(5)
C1 C 0.67058(11) 0.38728(11) 0.24626(6)
H1 H 0.7527 0.3447 0.2846
C2 C 0.55926(11) 0.30185(11) 0.25222(7)
H2 H 0.5655 0.2008 0.2944
C3 C 0.43941(10) 0.36310(11) 0.19703(6)
H3 H 0.3641 0.3037 0.2006
C4 C 0.42899(10) 0.51061(11) 0.13671(7)
H4 H 0.3454 0.5534 0.0995
C5 C 0.53971(10) 0.59643(10) 0.13019(6)
H5 H 0.5317 0.6979 0.0884
C6 C 0.66270(10) 0.53571(10) 0.18418(6)
C7 C 0.78646(10) 0.62424(9) 0.16958(6)
C8 C 0.87283(10) 0.67720(10) 0.08672(6)
C9 C 0.98746(10) 0.75879(10) 0.09808(6)
C10 C 1.10505(10) 0.82150(10) 0.03389(6)
H6 H 1.1202 0.8177 -0.0298
C11 C 1.19917(10) 0.88943(10) 0.06570(6)
C12 C 1.17360(10) 0.89642(10) 0.16043(6)
C13 C 1.05680(10) 0.83282(10) 0.22381(6)
H7 H 1.0396 0.8376 0.2874
C14 C 0.96580(10) 0.76188(10) 0.19121(6)
C15 C 0.83867(10) 0.67269(10) 0.24743(6)
C16 C 0.85918(10) 0.65483(10) -0.00159(6)
C17 C 1.36951(11) 0.92449(12) -0.07784(6)
H8 H 1.3929 0.8121 -0.0706
H9 H 1.4634 0.9668 -0.1068
H10 H 1.2863 0.9746 -0.1181
C18 C 1.23436(11) 1.00779(11) 0.26887(6)
H11 H 1.1347 1.0825 0.2669
H12 H 1.3156 1.0555 0.2776
H13 H 1.2244 0.9153 0.3214
C19 C 0.70675(10) 0.77961(10) 0.28521(6)
C20 C 0.89903(9) 0.53367(10) 0.32781(6)
C21 C 0.81636(10) 0.50629(10) 0.41843(6)
H14 H 0.7219 0.5755 0.4314
C22 C 0.87224(10) 0.37840(10) 0.48912(6)
C23 C 1.01177(10) 0.27661(10) 0.47039(6)
C24 C 1.09295(10) 0.30486(10) 0.38091(6)
H15 H 1.1879 0.2364 0.3678
C25 C 1.03619(10) 0.43321(11) 0.30988(6)
H16 H 1.0927 0.4516 0.2485
C26 C 0.65830(11) 0.43906(13) 0.60411(7)
H17 H 0.6741 0.5456 0.5906
H18 H 0.6231 0.4010 0.6713
H19 H 0.5793 0.4378 0.5671
C27 C 1.19472(13) 0.04363(13) 0.52856(7)
H20 H 1.1825 -0.0018 0.4798
H21 H 1.2128 -0.0388 0.5869
H22 H 1.2838 0.0957 0.5076
loop_
_geom_bond_atom_site_label_1
_geom_bond_atom_site_label_2
_geom_bond_site_symmetry_1
_geom_bond_site_symmetry_2
O1 C11 1_555 1_555
O2 C12 1_555 1_555
O3 C22 1_555 1_555
O4 C23 1_555 1_555
N1 C16 1_555 1_555
N2 C19 1_555 1_555
C1 H1 1_555 1_555
C2 C1 1_555 1_555
H2 C2 1_555 1_555
C3 C2 1_555 1_555
H3 C3 1_555 1_555
C4 C3 1_555 1_555
H4 C4 1_555 1_555
C5 C4 1_555 1_555
H5 C5 1_555 1_555
C6 C1 1_555 1_555
C7 C6 1_555 1_555
C8 C7 1_555 1_555
C9 C8 1_555 1_555
C10 C9 1_555 1_555
H6 C10 1_555 1_555
C11 C10 1_555 1_555
C12 C11 1_555 1_555
C13 C12 1_555 1_555
H7 C13 1_555 1_555
C14 C9 1_555 1_555
C15 C7 1_555 1_555
C16 C8 1_555 1_555
C17 O1 1_555 1_555
H8 C17 1_555 1_555
H9 C17 1_555 1_555
H10 C17 1_555 1_555
C18 O2 1_555 1_555
H11 C18 1_555 1_555
H12 C18 1_555 1_555
H13 C18 1_555 1_555
C19 C15 1_555 1_555
C20 C15 1_555 1_555
C21 C20 1_555 1_555
H14 C21 1_555 1_555
C22 C21 1_555 1_555
C23 C22 1_555 1_555
C24 C23 1_555 1_555
H15 C24 1_555 1_555
C25 C20 1_555 1_555
H16 C25 1_555 1_555
C26 O3 1_555 1_555
H17 C26 1_555 1_555
H18 C26 1_555 1_555
H19 C26 1_555 1_555
C27 O4 1_555 1_555
H20 C27 1_555 1_555
H21 C27 1_555 1_555
H22 C27 1_555 1_555
C5 C6 1_555 1_555
C13 C14 1_555 1_555
C14 C15 1_555 1_555
C24 C25 1_555 1_555

#END
