
#######################################################################
#
#                 Cambridge Crystallographic Data Centre
#                                CCDC 
#
#######################################################################
#
# If this CIF has been generated from an entry in the Cambridge 
# Structural Database, then it will include bibliographic, chemical, 
# crystal, experimental, refinement or atomic coordinate data resulting 
# from the CCDC's data processing and validation procedures.
#
#######################################################################

data_VIDQIL
_chemical_formula_moiety         'C25 H16 N4'
_chemical_name_systematic        
2,5,7-triphenyl[1,2,4]triazolo[1,5-a]pyridine-8-carbonitrile
_symmetry_cell_setting           monoclinic
_symmetry_space_group_name_H-M   'P 21/c'
_symmetry_Int_Tables_number      14
_space_group_name_Hall           '-P 2ybc'
loop_
_symmetry_equiv_pos_site_id
_symmetry_equiv_pos_as_xyz
1 x,y,z
2 -x,1/2+y,1/2-z
3 -x,-y,-z
4 x,1/2-y,1/2+z
_cell_length_a                   12.281(12)
_cell_length_b                   19.703(18)
_cell_length_c                   8.179(8)
_cell_angle_alpha                90
_cell_angle_beta                 106.572(13)
_cell_angle_gamma                90
_cell_volume                     1896.89
_exptl_crystal_colour            white
_chemical_melting_point          '474.7-475.4 K'
_cell_formula_units_Z            4
loop_
_atom_site_label
_atom_site_type_symbol
_atom_site_fract_x
_atom_site_fract_y
_atom_site_fract_z
C1 C -0.23509(18) 0.34502(10) 0.0836(3)
C2 C -0.22834(19) 0.41374(10) 0.0493(3)
H1 H -0.1674 0.4302 0.0149
C3 C -0.3123(2) 0.45743(12) 0.0663(3)
H2 H -0.3068 0.5035 0.0453
C4 C -0.4032(2) 0.43367(13) 0.1135(3)
H3 H -0.4589 0.4636 0.1258
C5 C -0.4123(2) 0.36569(12) 0.1427(3)
H4 H -0.4753 0.3494 0.1718
C6 C -0.32821(19) 0.32136(12) 0.1292(3)
H5 H -0.3343 0.2754 0.1509
C7 C -0.14318(18) 0.29942(10) 0.0730(3)
C8 C -0.00503(18) 0.14547(10) 0.0927(3)
C9 C 0.10336(18) 0.13813(10) 0.0818(3)
H6 H 0.1336 0.0945 0.0913
C10 C 0.17281(17) 0.19222(10) 0.0569(3)
C11 C 0.12619(18) 0.25703(10) 0.0401(3)
C12 C 0.01506(18) 0.26623(10) 0.0498(3)
C13 C -0.07505(17) 0.08887(10) 0.1223(3)
C14 C -0.18983(19) 0.08354(10) 0.0384(3)
H7 H -0.2254 0.1173 -0.0374
C15 C -0.2519(2) 0.02872(11) 0.0662(3)
H8 H -0.3287 0.0254 0.0076
C16 C -0.2010(2) -0.02111(10) 0.1798(3)
H9 H -0.2434 -0.0576 0.2000
C17 C -0.0872(2) -0.01665(11) 0.2635(3)
H10 H -0.0522 -0.0506 0.3395
C18 C -0.0244(2) 0.03778(10) 0.2354(3)
H11 H 0.0526 0.0403 0.2928
C19 C 0.29118(18) 0.17915(10) 0.0563(3)
C20 C 0.35783(19) 0.13237(11) 0.1676(3)
H12 H 0.3272 0.1080 0.2414
C21 C 0.4692(2) 0.12170(12) 0.1696(3)
H13 H 0.5129 0.0899 0.2441
C22 C 0.5162(2) 0.15747(13) 0.0626(4)
H14 H 0.5916 0.1503 0.0652
C23 C 0.4513(2) 0.20392(12) -0.0480(3)
H15 H 0.4827 0.2284 -0.1207
C24 C 0.34029(19) 0.21437(11) -0.0518(3)
H16 H 0.2969 0.2457 -0.1283
C25 C 0.18803(19) 0.31738(11) 0.0258(3)
N1 N -0.04479(15) 0.32248(8) 0.0481(2)
N2 N -0.14977(14) 0.23220(8) 0.0916(2)
N3 N -0.04691(14) 0.21085(8) 0.0760(2)
N4 N 0.23437(18) 0.36653(10) 0.0160(3)
loop_
_geom_bond_atom_site_label_1
_geom_bond_atom_site_label_2
_geom_bond_site_symmetry_1
_geom_bond_site_symmetry_2
C1 C2 1_555 1_555
C2 H1 1_555 1_555
C3 C2 1_555 1_555
H2 C3 1_555 1_555
C4 C3 1_555 1_555
H3 C4 1_555 1_555
C5 C4 1_555 1_555
H4 C5 1_555 1_555
C6 C1 1_555 1_555
H5 C6 1_555 1_555
C7 C1 1_555 1_555
C8 C9 1_555 1_555
C9 H6 1_555 1_555
C10 C9 1_555 1_555
C11 C10 1_555 1_555
C12 C11 1_555 1_555
C13 C8 1_555 1_555
C14 C13 1_555 1_555
H7 C14 1_555 1_555
C15 C14 1_555 1_555
H8 C15 1_555 1_555
C16 C15 1_555 1_555
H9 C16 1_555 1_555
C17 C16 1_555 1_555
H10 C17 1_555 1_555
C18 C13 1_555 1_555
H11 C18 1_555 1_555
C19 C10 1_555 1_555
C20 C19 1_555 1_555
H12 C20 1_555 1_555
C21 C20 1_555 1_555
H13 C21 1_555 1_555
C22 C21 1_555 1_555
H14 C22 1_555 1_555
C23 C22 1_555 1_555
H15 C23 1_555 1_555
C24 C19 1_555 1_555
H16 C24 1_555 1_555
C25 C11 1_555 1_555
N1 C7 1_555 1_555
N2 C7 1_555 1_555
N3 C8 1_555 1_555
N4 C25 1_555 1_555
C5 C6 1_555 1_555
C12 N1 1_555 1_555
C12 N3 1_555 1_555
C17 C18 1_555 1_555
C23 C24 1_555 1_555
N2 N3 1_555 1_555

#END
