
#######################################################################
#
#                 Cambridge Crystallographic Data Centre
#                                CCDC 
#
#######################################################################
#
# If this CIF has been generated from an entry in the Cambridge 
# Structural Database, then it will include bibliographic, chemical, 
# crystal, experimental, refinement or atomic coordinate data resulting 
# from the CCDC's data processing and validation procedures.
#
#######################################################################

data_VIDVOV
_chemical_name_common            'Diaporol A'
_chemical_formula_moiety         'C15 H20 O5'
_chemical_name_systematic        
5a-(2-Hydroxypropan-2-yl)-9a-methyl-4,5,5a,8,9,9a-hexahydro-3H-furo[3,4-f]chromene-3,7(1H)-dione
_symmetry_cell_setting           orthorhombic
_symmetry_space_group_name_H-M   'P 21 21 21'
_symmetry_Int_Tables_number      19
_space_group_name_Hall           'P 2ac 2ab'
loop_
_symmetry_equiv_pos_site_id
_symmetry_equiv_pos_as_xyz
1 x,y,z
2 1/2-x,-y,1/2+z
3 -x,1/2+y,1/2-z
4 1/2+x,1/2-y,-z
_cell_length_a                   8.0388(2)
_cell_length_b                   11.6016(2)
_cell_length_c                   14.5562(3)
_cell_angle_alpha                90
_cell_angle_beta                 90
_cell_angle_gamma                90
_cell_volume                     1357.55
_exptl_crystal_colour            colorless
_exptl_crystal_description       Prism
_cell_formula_units_Z            4
loop_
_atom_site_label
_atom_site_type_symbol
_atom_site_fract_x
_atom_site_fract_y
_atom_site_fract_z
O1 O 0.54284(12) 0.82335(8) 0.22862(7)
O2 O 0.52624(15) 0.68279(9) 0.33455(8)
O3 O 0.86919(12) 1.02503(8) 0.45751(6)
O4 O 0.68048(13) 1.14534(9) 0.50551(7)
O5 O 1.15633(16) 1.16022(9) 0.37776(7)
H1 H 1.161(3) 1.2103(14) 0.4189(11)
C1 C 0.59791(18) 0.76667(12) 0.30443(10)
C2 C 0.74823(16) 0.82446(11) 0.33844(9)
C3 C 0.78274(16) 0.91302(11) 0.28338(9)
C4 C 0.65387(17) 0.91887(12) 0.20902(9)
H2 H 0.5934 0.9931 0.2111
H3 H 0.7055 0.9100 0.1477
C5 C 0.76355(17) 1.11148(11) 0.44138(9)
C6 C 0.74007(17) 1.15783(11) 0.34594(9)
H4 H 0.7437 1.2430 0.3491
H5 H 0.6274 1.1359 0.3248
C7 C 0.86435(16) 1.11878(11) 0.27384(9)
H6 H 0.9599 1.1726 0.2731
H7 H 0.8111 1.1212 0.2126
C8 C 0.92790(16) 0.99571(11) 0.29256(9)
C9 C 1.05604(18) 0.96640(12) 0.21727(9)
H8 H 1.0049 0.9764 0.1567
H9 H 1.0924 0.8863 0.2244
H10 H 1.1522 1.0178 0.2229
C10 C 0.99662(16) 0.98283(11) 0.39294(9)
C11 C 1.01282(17) 0.85416(11) 0.41928(9)
H11 H 1.0872 0.8156 0.3747
H12 H 1.0652 0.8484 0.4807
C12 C 0.84622(18) 0.79104(11) 0.42113(10)
H13 H 0.8650 0.7067 0.4213
H14 H 0.7842 0.8117 0.4775
C13 C 1.16086(18) 1.04829(12) 0.41906(9)
C14 C 1.31837(18) 0.98710(15) 0.38537(11)
H15 H 1.4165 1.0317 0.4037
H16 H 1.3151 0.9805 0.3183
H17 H 1.3243 0.9100 0.4126
C15 C 1.17531(19) 1.06252(12) 0.52346(9)
H18 H 1.2785 1.1036 0.5382
H19 H 1.1767 0.9864 0.5526
H20 H 1.0800 1.1067 0.5463
loop_
_geom_bond_atom_site_label_1
_geom_bond_atom_site_label_2
_geom_bond_site_symmetry_1
_geom_bond_site_symmetry_2
O1 C1 1_555 1_555
O2 C1 1_555 1_555
O3 C5 1_555 1_555
O4 C5 1_555 1_555
O5 H1 1_555 1_555
C1 C2 1_555 1_555
C2 C3 1_555 1_555
C3 C4 1_555 1_555
C4 O1 1_555 1_555
H2 C4 1_555 1_555
H3 C4 1_555 1_555
C5 C6 1_555 1_555
C6 H4 1_555 1_555
H5 C6 1_555 1_555
C7 C6 1_555 1_555
H6 C7 1_555 1_555
H7 C7 1_555 1_555
C8 C3 1_555 1_555
C9 C8 1_555 1_555
H8 C9 1_555 1_555
H9 C9 1_555 1_555
H10 C9 1_555 1_555
C10 O3 1_555 1_555
C11 C10 1_555 1_555
H11 C11 1_555 1_555
H12 C11 1_555 1_555
C12 C2 1_555 1_555
H13 C12 1_555 1_555
H14 C12 1_555 1_555
C13 O5 1_555 1_555
C14 C13 1_555 1_555
H15 C14 1_555 1_555
H16 C14 1_555 1_555
H17 C14 1_555 1_555
C15 C13 1_555 1_555
H18 C15 1_555 1_555
H19 C15 1_555 1_555
H20 C15 1_555 1_555
C7 C8 1_555 1_555
C8 C10 1_555 1_555
C10 C13 1_555 1_555
C11 C12 1_555 1_555

#END
