
#######################################################################
#
#                 Cambridge Crystallographic Data Centre
#                                CCDC 
#
#######################################################################
#
# If this CIF has been generated from an entry in the Cambridge 
# Structural Database, then it will include bibliographic, chemical, 
# crystal, experimental, refinement or atomic coordinate data resulting 
# from the CCDC's data processing and validation procedures.
#
#######################################################################

data_VIDVEL
_chemical_name_common            'Diaporol C'
_chemical_formula_moiety         'C15 H28 O3'
_chemical_name_systematic        
1,5-bis(hydroxymethyl)-2,5,8a-trimethyldecahydronaphthalen-2-ol
_symmetry_cell_setting           monoclinic
_symmetry_space_group_name_H-M   'P 21'
_symmetry_Int_Tables_number      4
_space_group_name_Hall           'P 2yb'
loop_
_symmetry_equiv_pos_site_id
_symmetry_equiv_pos_as_xyz
1 x,y,z
2 -x,1/2+y,-z
_cell_length_a                   5.9952(2)
_cell_length_b                   17.2742(3)
_cell_length_c                   7.1081(2)
_cell_angle_alpha                90
_cell_angle_beta                 112.765(3)
_cell_angle_gamma                90
_cell_volume                     678.786
_cell_formula_units_Z            2
loop_
_atom_site_label
_atom_site_type_symbol
_atom_site_fract_x
_atom_site_fract_y
_atom_site_fract_z
O1 O 0.2336(3) 0.49976(9) 0.4363(2)
H1 H 0.3512 0.4921 0.5472
O2 O 0.4025(3) 0.93972(9) 0.2105(2)
H2 H 0.3447 0.9544 0.0883
O3 O 0.1638(3) 0.92152(9) -0.1884(3)
H3 H 0.0488 0.9455 -0.2767
C1 C 0.2140(4) 0.58093(13) 0.3904(3)
H4 H 0.2131 0.6098 0.5104
H5 H 0.0577 0.5908 0.2757
C2 C 0.6592(4) 0.59684(14) 0.5143(3)
H6 H 0.6762 0.5413 0.5442
H7 H 0.6607 0.6250 0.6344
H8 H 0.7940 0.6145 0.4797
C3 C 0.4190(4) 0.61202(11) 0.3335(3)
C4 C 0.3961(4) 0.70085(11) 0.2879(3)
H9 H 0.5524 0.7151 0.2772
C5 C 0.3886(4) 0.75078(12) 0.4635(3)
H10 H 0.5072 0.7310 0.5948
H11 H 0.2256 0.7479 0.4676
C6 C 0.4483(4) 0.83509(13) 0.4337(3)
H12 H 0.4396 0.8667 0.5468
H13 H 0.6164 0.8377 0.4409
C7 C 0.2790(4) 0.86963(12) 0.2315(3)
C8 C 0.2547(4) 0.81446(12) 0.0510(3)
H14 H 0.4181 0.8140 0.0439
C9 C 0.1979(3) 0.72741(12) 0.0802(3)
C10 C 0.2290(4) 0.67868(12) -0.0908(3)
H15 H 0.0956 0.6911 -0.2222
H16 H 0.3828 0.6934 -0.1023
C11 C 0.2302(4) 0.59127(13) -0.0535(3)
H17 H 0.0722 0.5755 -0.0520
H18 H 0.2532 0.5634 -0.1664
C12 C 0.4310(4) 0.56888(13) 0.1480(3)
H19 H 0.5891 0.5797 0.1396
H20 H 0.4220 0.5125 0.1690
C13 C 0.0377(4) 0.89366(14) 0.2408(4)
H21 H 0.0679 0.9281 0.3577
H22 H -0.0489 0.8475 0.2559
H23 H -0.0604 0.9208 0.1148
C14 C 0.0824(4) 0.84686(12) -0.1555(3)
H24 H 0.0770 0.8113 -0.2664
H25 H -0.0830 0.8510 -0.1570
C15 C -0.0642(4) 0.71673(13) 0.0668(3)
H26 H -0.1782 0.7345 -0.0668
H27 H -0.0871 0.7471 0.1745
H28 H -0.0933 0.6619 0.0841
loop_
_geom_bond_atom_site_label_1
_geom_bond_atom_site_label_2
_geom_bond_site_symmetry_1
_geom_bond_site_symmetry_2
O1 H1 1_555 1_555
O2 H2 1_555 1_555
O3 H3 1_555 1_555
C1 O1 1_555 1_555
H4 C1 1_555 1_555
H5 C1 1_555 1_555
C2 H6 1_555 1_555
H7 C2 1_555 1_555
H8 C2 1_555 1_555
C3 C1 1_555 1_555
C4 C3 1_555 1_555
H9 C4 1_555 1_555
C5 C4 1_555 1_555
H10 C5 1_555 1_555
H11 C5 1_555 1_555
C6 C5 1_555 1_555
H12 C6 1_555 1_555
H13 C6 1_555 1_555
C7 O2 1_555 1_555
C8 C7 1_555 1_555
H14 C8 1_555 1_555
C9 C4 1_555 1_555
C10 C9 1_555 1_555
H15 C10 1_555 1_555
H16 C10 1_555 1_555
C11 C10 1_555 1_555
H17 C11 1_555 1_555
H18 C11 1_555 1_555
C12 C3 1_555 1_555
H19 C12 1_555 1_555
H20 C12 1_555 1_555
C13 C7 1_555 1_555
H21 C13 1_555 1_555
H22 C13 1_555 1_555
H23 C13 1_555 1_555
C14 O3 1_555 1_555
H24 C14 1_555 1_555
H25 C14 1_555 1_555
C15 C9 1_555 1_555
H26 C15 1_555 1_555
H27 C15 1_555 1_555
H28 C15 1_555 1_555
C2 C3 1_555 1_555
C6 C7 1_555 1_555
C8 C9 1_555 1_555
C8 C14 1_555 1_555
C11 C12 1_555 1_555

#END
