
#######################################################################
#
#                 Cambridge Crystallographic Data Centre
#                                CCDC 
#
#######################################################################
#
# If this CIF has been generated from an entry in the Cambridge 
# Structural Database, then it will include bibliographic, chemical, 
# crystal, experimental, refinement or atomic coordinate data resulting 
# from the CCDC's data processing and validation procedures.
#
#######################################################################

data_VIDWUC
_chemical_name_common            
1-(2,5-dimethyl-3-thienyl)-2-[3,5-dimethyldithieno[3,2-b:2,3-d]thiophene-2-]perfluorocyclopentene
_chemical_formula_moiety         'C21 H14 F6 S4'
_chemical_name_systematic        
2-(2-(2,5-Dimethyl-3-thienyl)-3,3,4,4,5,5-hexafluorocyclopent-1-en-1-yl)-3,5-dimethylbisthieno[3,2-b:2',3'-d]thiophene
_symmetry_cell_setting           triclinic
_symmetry_space_group_name_H-M   'P -1'
_symmetry_Int_Tables_number      2
_space_group_name_Hall           '-P 1'
loop_
_symmetry_equiv_pos_site_id
_symmetry_equiv_pos_as_xyz
1 x,y,z
2 -x,-y,-z
_cell_length_a                   8.1705(16)
_cell_length_b                   23.049(5)
_cell_length_c                   36.190(7)
_cell_angle_alpha                106.98(3)
_cell_angle_beta                 91.23(3)
_cell_angle_gamma                92.22(3)
_cell_volume                     6509.54
_exptl_crystal_colour            colorless
_exptl_crystal_description       needle
_cell_formula_units_Z            12
loop_
_atom_site_label
_atom_site_type_symbol
_atom_site_fract_x
_atom_site_fract_y
_atom_site_fract_z
S1 S 0.25870(18) 0.27099(7) 0.37897(4)
S2 S 0.25017(19) 0.36984(7) 0.29890(4)
S3 S 0.95970(19) 0.40190(8) 0.40221(5)
S4 S 0.0567(2) 0.19180(8) 0.27587(5)
F1 F 0.2509(7) 0.2819(2) 0.45977(12)
F2 F 0.1744(5) 0.3746(3) 0.47654(12)
F3 F 0.4637(5) 0.30313(19) 0.51335(13)
F4 F 0.3277(5) 0.38284(19) 0.53940(10)
F5 F 0.6992(5) 0.37807(19) 0.51506(11)
F6 F 0.5402(5) 0.45294(16) 0.52102(10)
C1 C 0.7075(7) 0.4026(2) 0.44206(16)
C2 C 0.3658(6) 0.3782(2) 0.37699(17)
C3 C 0.2271(7) 0.2891(2) 0.33705(16)
C4 C 0.4163(7) 0.3548(2) 0.44115(16)
C5 C 0.3593(7) 0.3417(2) 0.40068(16)
C6 C 0.5585(7) 0.3833(2) 0.45802(16)
C7 C 0.2895(6) 0.3476(2) 0.34044(15)
C8 C 0.4345(7) 0.4417(3) 0.38746(17)
H1 H 0.4795 0.4535 0.4141
H2 H 0.3477 0.4688 0.3854
H3 H 0.5218 0.4447 0.3699
C9 C 0.1517(7) 0.2613(3) 0.29965(17)
C10 C 0.5570(7) 0.3933(3) 0.50083(16)
C11 C 0.7823(7) 0.4620(3) 0.45513(17)
H4 H 0.7398 0.4940 0.4750
C12 C 0.1521(7) 0.2987(3) 0.27694(17)
C13 C 0.7906(7) 0.3640(3) 0.41266(18)
C14 C 0.0570(8) 0.3059(3) 0.20930(17)
H5 H 0.0000 0.2786 0.1863
H6 H 0.1656 0.3182 0.2024
H7 H -0.0066 0.3419 0.2195
C15 C 0.4122(8) 0.3548(3) 0.50835(18)
C16 C 0.0757(7) 0.2736(3) 0.23958(17)
C17 C 0.0188(8) 0.2158(3) 0.23543(19)
H8 H -0.0363 0.1909 0.2126
C18 C 0.3078(8) 0.3410(3) 0.47063(19)
C19 C 0.9199(7) 0.4686(3) 0.43641(18)
C20 C 1.0307(9) 0.5249(4) 0.4425(2)
H9 H 0.9889 0.5581 0.4632
H10 H 1.0332 0.5366 0.4186
H11 H 1.1417 0.5165 0.4497
C21 C 0.7561(10) 0.2980(3) 0.3923(2)
H12 H 0.6553 0.2840 0.4019
H13 H 0.8477 0.2747 0.3972
H14 H 0.7426 0.2921 0.3645
S5 S 0.27248(18) 0.21902(6) 0.12240(4)
S6 S -0.43235(18) 0.17226(7) 0.04574(5)
S7 S 0.25002(18) 0.32196(6) 0.04468(4)
S8 S 0.4733(2) 0.38436(7) 0.15507(5)
F7 F 0.3366(5) 0.05475(18) 0.06894(14)
F8 F 0.2833(6) 0.09778(18) 0.12872(13)
F9 F 0.0581(5) 0.0195(2) 0.12909(11)
F10 F 0.1773(5) -0.03574(16) 0.07834(12)
F11 F -0.1897(5) 0.00654(18) 0.08373(12)
F12 F -0.0445(5) -0.01921(15) 0.03291(11)
C22 C -0.1902(7) 0.1089(3) 0.05327(16)
C23 C 0.3552(6) 0.3669(2) 0.08584(16)
C24 C 0.2967(7) 0.2773(2) 0.10314(16)
C25 C 0.1475(6) 0.2042(2) 0.05326(16)
C26 C 0.1017(7) 0.1141(2) 0.08004(16)
C27 C -0.2818(7) 0.0753(3) 0.01836(17)
H15 H -0.2526 0.0367 0.0025
C28 C 0.1644(6) 0.1752(2) 0.08081(16)
C29 C 0.3713(7) 0.3378(3) 0.11430(16)
C30 C -0.0447(7) 0.0862(3) 0.06703(16)
C31 C 0.4273(7) 0.4269(3) 0.09692(18)
C32 C 0.2260(6) 0.2636(2) 0.06621(16)
C33 C -0.4138(7) 0.1045(3) 0.01051(18)
C34 C -0.2593(7) 0.1626(3) 0.07139(17)
C35 C 0.1017(8) 0.0160(3) 0.09326(18)
C36 C -0.0481(7) 0.0221(3) 0.06894(18)
C37 C 0.4321(8) 0.4676(3) 0.07122(19)
H16 H 0.4875 0.5066 0.0851
H17 H 0.3199 0.4744 0.0638
H18 H 0.4918 0.4484 0.0479
C38 C 0.0688(7) 0.1783(3) 0.01314(15)
H19 H 0.0228 0.1372 0.0102
H20 H 0.1516 0.1767 -0.0063
H21 H -0.0188 0.2042 0.0096
C39 C -0.2088(8) 0.2081(3) 0.10925(18)
H22 H -0.1088 0.1955 0.1196
H23 H -0.2966 0.2105 0.1276
H24 H -0.1880 0.2480 0.1053
C40 C 0.4944(7) 0.4417(3) 0.13278(18)
H25 H 0.5486 0.4800 0.1449
C41 C 0.2117(7) 0.0724(3) 0.09330(17)
C42 C -0.5342(8) 0.0853(3) -0.0233(2)
H26 H -0.5058 0.0458 -0.0405
H27 H -0.5306 0.1156 -0.0375
H28 H -0.6449 0.0820 -0.0139
S9 S 0.75107(19) 0.35880(7) 0.31094(4)
S10 S 0.72623(18) 0.44928(7) 0.22646(4)
S11 S 1.42804(19) 0.51793(7) 0.30581(5)
S12 S 0.5349(2) 0.28221(7) 0.20102(5)
F13 F 0.9980(5) 0.69655(16) 0.30861(11)
F14 F 1.1661(4) 0.67172(18) 0.26167(11)
F15 F 0.7993(5) 0.70195(18) 0.25330(13)
F16 F 0.9387(5) 0.6396(2) 0.21003(12)
F17 F 0.7057(6) 0.56550(19) 0.21386(14)
F18 F 0.6480(5) 0.6162(2) 0.27163(16)
C43 C 0.8437(7) 0.4740(2) 0.29744(17)
C44 C 0.8857(7) 0.5589(3) 0.26532(17)
C45 C 0.7047(7) 0.3941(3) 0.24981(16)
C46 C 0.9179(8) 0.5051(3) 0.33723(16)
H29 H 0.9600 0.5460 0.3383
H30 H 1.0080 0.4815 0.3426
H31 H 0.8341 0.5079 0.3565
C47 C 1.1743(7) 0.5733(3) 0.29598(16)
C48 C 1.2571(7) 0.5221(3) 0.27843(16)
C49 C 0.5801(8) 0.2484(3) 0.26311(19)
C50 C 0.6342(7) 0.3329(3) 0.24055(17)
C51 C 0.7720(7) 0.4135(2) 0.28696(16)
C52 C 0.8297(7) 0.4991(3) 0.26702(16)
C53 C 0.6493(7) 0.3088(3) 0.27053(18)
C54 C 1.0253(7) 0.6536(3) 0.27465(18)
C55 C 1.2521(7) 0.6091(3) 0.33195(18)
H32 H 1.2108 0.6458 0.3477
C56 C 1.0294(7) 0.5918(3) 0.27929(16)
C57 C 0.8850(9) 0.6514(3) 0.2461(2)
C58 C 1.3904(8) 0.5849(3) 0.34075(19)
C59 C 0.7745(8) 0.5962(3) 0.2486(2)
C60 C 1.2210(9) 0.4758(3) 0.23944(19)
H33 H 1.1190 0.4852 0.2281
H34 H 1.2094 0.4351 0.2427
H35 H 1.3113 0.4771 0.2223
C61 C 0.5158(8) 0.2293(3) 0.2262(2)
H36 H 0.4649 0.1900 0.2152
C62 C 0.5809(8) 0.2122(3) 0.2911(2)
H37 H 0.5258 0.1724 0.2791
H38 H 0.5232 0.2336 0.3142
H39 H 0.6943 0.2068 0.2983
C63 C 1.5017(9) 0.6084(3) 0.3757(2)
H40 H 1.4622 0.6467 0.3921
H41 H 1.6128 0.6152 0.3677
H42 H 1.5030 0.5785 0.3903
S13 S 0.74942(18) 0.31705(7) 0.04772(4)
S14 S 0.7463(2) 0.41858(7) -0.03074(5)
S15 S 0.05249(19) 0.29489(8) -0.04916(5)
S16 S 0.9495(2) 0.49424(8) 0.07147(5)
F19 F 0.7820(5) 0.40034(19) -0.11391(11)
F20 F 0.8151(5) 0.3034(2) -0.13258(12)
F21 F 0.5429(6) 0.3938(2) -0.16088(15)
F22 F 0.6597(6) 0.3136(3) -0.19316(12)
F23 F 0.3000(5) 0.3208(2) -0.16619(12)
F24 F 0.4483(5) 0.24334(18) -0.17403(11)
C64 C 0.6376(6) 0.3113(2) -0.02995(16)
C65 C 0.9320(8) 0.4120(3) 0.10731(18)
C66 C 0.6448(7) 0.3480(3) -0.05357(17)
C67 C 0.0708(8) 0.2317(3) -0.08827(19)
C68 C 0.7740(7) 0.3983(3) 0.01084(17)
C69 C 0.8512(7) 0.4259(3) 0.04725(18)
C70 C 0.2916(7) 0.2952(3) -0.09212(17)
C71 C 0.5646(7) 0.2473(3) -0.04105(17)
H43 H 0.5196 0.2363 -0.0676
H44 H 0.4769 0.2445 -0.0235
H45 H 0.6498 0.2193 -0.0392
C72 C 0.7118(7) 0.3404(3) 0.00638(17)
C73 C 0.5870(7) 0.3359(2) -0.09411(17)
C74 C 0.2252(7) 0.3310(3) -0.05945(17)
C75 C 0.2788(8) 0.3936(3) -0.03478(18)
H46 H 0.3795 0.4069 -0.0448
H47 H 0.2994 0.3929 -0.0081
H48 H 0.1925 0.4217 -0.0353
C76 C 0.7000(8) 0.3459(3) -0.12456(19)
C77 C 0.2005(7) 0.2390(3) -0.10920(17)
H49 H 0.2283 0.2101 -0.1326
C78 C 0.4400(7) 0.3122(3) -0.11007(16)
C79 C 0.9900(8) 0.4693(3) 0.11099(19)
H50 H 1.0482 0.4937 0.1335
C80 C 0.8510(7) 0.3863(3) 0.07030(18)
C81 C 0.9523(8) 0.3776(3) 0.13701(18)
H51 H 1.0117 0.4039 0.1600
H52 H 1.0143 0.3414 0.1260
H53 H 0.8442 0.3655 0.1442
C82 C 0.4375(8) 0.3025(3) -0.15324(19)
C83 C 0.5923(10) 0.3382(3) -0.1604(2)
C84 C -0.0513(9) 0.1787(4) -0.0961(2)
H54 H -0.0218 0.1472 -0.1194
H55 H -0.1610 0.1921 -0.0999
H56 H -0.0506 0.1621 -0.0741
S17 S -0.24377(18) -0.00743(7) 0.36183(4)
S18 S -0.21588(18) 0.05516(7) 0.26458(4)
S19 S -0.92594(19) -0.06732(8) 0.26026(5)
S20 S -0.0069(2) 0.15620(7) 0.36139(5)
F25 F -0.2153(5) 0.0214(2) 0.18261(11)
F26 F -0.1560(5) -0.0718(2) 0.17441(12)
F27 F -0.4483(5) -0.00708(19) 0.13219(12)
F28 F -0.3176(5) -0.08996(18) 0.11094(10)
F29 F -0.6820(4) -0.07855(19) 0.13764(11)
F30 F -0.5211(5) -0.15033(16) 0.13994(10)
C85 C -0.3440(6) -0.0403(2) 0.28024(16)
C86 C -0.0605(7) 0.0981(3) 0.41211(17)
C87 C -0.1352(7) 0.0624(2) 0.37618(16)
C88 C -0.3897(7) -0.0384(3) 0.21050(16)
C89 C -0.3288(7) -0.0142(2) 0.25010(17)
C90 C -0.7666(7) -0.1370(3) 0.20736(18)
H57 H -0.7330 -0.1714 0.1877
C91 C -0.1150(6) 0.0877(3) 0.34596(17)
C92 C -0.1910(7) 0.0514(3) 0.31060(17)
C93 C -0.2674(6) -0.0019(2) 0.31504(16)
C94 C -0.7542(7) -0.0356(3) 0.24529(17)
C95 C -0.5397(8) -0.0896(3) 0.15392(18)
C96 C -0.6819(7) -0.0788(3) 0.21744(16)
C97 C -0.5357(7) -0.0663(2) 0.19673(16)
C98 C -0.4200(7) -0.1023(3) 0.27740(17)
H58 H -0.4652 -0.1212 0.2511
H59 H -0.5079 -0.0982 0.2959
H60 H -0.3362 -0.1278 0.2834
C99 C -0.0663(8) 0.0810(3) 0.44927(17)
H61 H -0.0062 0.1123 0.4699
H62 H -0.0159 0.0419 0.4457
H63 H -0.1806 0.0777 0.4564
C100 C -0.3946(8) -0.0547(3) 0.14130(18)
C101 C -0.8983(8) -0.1379(3) 0.22857(18)
C102 C -0.2828(8) -0.0349(3) 0.17800(18)
C103 C 0.0108(7) 0.1501(3) 0.40774(18)
H64 H 0.0655 0.1804 0.4284
C104 C -1.0156(9) -0.1923(4) 0.2273(2)
H65 H -0.9807 -0.2284 0.2077
H66 H -1.1270 -0.1834 0.2207
H67 H -1.0139 -0.1996 0.2526
C105 C -0.7092(8) 0.0305(3) 0.2617(2)
H68 H -0.6094 0.0405 0.2499
H69 H -0.6901 0.0402 0.2897
H70 H -0.7988 0.0543 0.2563
S21 S -0.2334(2) 0.06749(8) 0.54412(5)
S22 S -0.25524(18) 0.00435(7) 0.64110(5)
S23 S 0.46237(19) 0.13695(8) 0.62245(6)
S24 S -0.4536(2) -0.09141(8) 0.53179(5)
F31 F 0.2194(5) 0.2823(2) 0.56559(14)
F32 F 0.0624(5) 0.31733(17) 0.61394(12)
F33 F -0.0191(7) 0.2516(3) 0.51717(14)
F34 F -0.1435(6) 0.3196(2) 0.56068(18)
F35 F -0.2556(5) 0.18254(19) 0.52519(12)
F36 F -0.3022(5) 0.2388(2) 0.58285(13)
C106 C -0.1328(7) 0.1226(3) 0.58261(18)
C107 C -0.1271(7) 0.1058(3) 0.61636(17)
C108 C 0.2211(7) 0.1924(3) 0.60639(19)
C109 C 0.4400(8) 0.2101(3) 0.6511(2)
C110 C -0.3550(7) -0.0355(3) 0.56862(19)
C111 C -0.2092(7) 0.0475(2) 0.61018(17)
C112 C 0.2905(7) 0.1373(3) 0.59427(19)
C113 C 0.3099(7) 0.2338(3) 0.63948(19)
H71 H 0.2781 0.2739 0.6516
C114 C 0.2423(8) 0.0832(3) 0.5603(2)
H72 H 0.1424 0.0914 0.5475
H73 H 0.2223 0.0475 0.5692
H74 H 0.3310 0.0756 0.5419
C115 C -0.3565(7) -0.0508(3) 0.60332(18)
C116 C -0.2697(7) 0.0212(3) 0.57269(17)
C117 C -0.0692(7) 0.1792(3) 0.57721(17)
C118 C -0.4443(7) -0.1063(3) 0.6004(2)
C119 C -0.0555(7) 0.1436(2) 0.65521(16)
H75 H -0.0058 0.1817 0.6527
H76 H 0.0282 0.1210 0.6641
H77 H -0.1427 0.1528 0.6740
C120 C 0.0754(7) 0.2099(3) 0.58874(18)
C121 C -0.4735(8) -0.1298(3) 0.6345(2)
H78 H -0.5367 -0.1687 0.6259
H79 H -0.5349 -0.1004 0.6538
H80 H -0.3681 -0.1356 0.6460
C122 C 0.0793(8) 0.2697(3) 0.58098(19)
C123 C -0.1797(8) 0.2149(3) 0.5592(2)
C124 C 0.5597(9) 0.2404(3) 0.6841(2)
H81 H 0.5263 0.2816 0.6969
H82 H 0.6696 0.2423 0.6741
H83 H 0.5608 0.2169 0.7027
C125 C -0.0690(9) 0.2674(3) 0.5538(2)
C126 C -0.5006(8) -0.1319(3) 0.5632(2)
H84 H -0.5617 -0.1696 0.5552
loop_
_geom_bond_atom_site_label_1
_geom_bond_atom_site_label_2
_geom_bond_site_symmetry_1
_geom_bond_site_symmetry_2
S1 C3 1_555 1_555
S2 C7 1_555 1_555
S3 C13 1_555 1_555
S4 C9 1_555 1_555
F1 C18 1_555 1_555
F2 C18 1_555 1_555
F3 C15 1_555 1_555
F4 C15 1_555 1_555
F5 C10 1_555 1_555
F6 C10 1_555 1_555
C1 C6 1_555 1_555
C2 C5 1_555 1_555
C3 C7 1_555 1_555
C4 C5 1_555 1_555
C5 S1 1_555 1_555
C6 C4 1_555 1_555
C7 C2 1_555 1_555
C8 C2 1_555 1_555
H1 C8 1_555 1_555
H2 C8 1_555 1_555
H3 C8 1_555 1_555
C9 C3 1_555 1_555
C10 C6 1_555 1_555
C11 C1 1_555 1_555
H4 C11 1_555 1_555
C12 S2 1_555 1_555
C13 C1 1_555 1_555
C14 H5 1_555 1_555
H6 C14 1_555 1_555
H7 C14 1_555 1_555
C15 C10 1_555 1_555
C16 C12 1_555 1_555
C17 S4 1_555 1_555
H8 C17 1_555 1_555
C18 C4 1_555 1_555
C19 S3 1_555 1_555
C20 C19 1_555 1_555
H9 C20 1_555 1_555
H10 C20 1_555 1_555
H11 C20 1_555 1_555
C21 C13 1_555 1_555
H12 C21 1_555 1_555
H13 C21 1_555 1_555
H14 C21 1_555 1_555
S5 C24 1_555 1_555
S6 C33 1_555 1_555
S7 C23 1_555 1_555
S8 C29 1_555 1_555
F7 C41 1_555 1_555
F8 C41 1_555 1_555
F9 C35 1_555 1_555
F10 C35 1_555 1_555
F11 C36 1_555 1_555
F12 C36 1_555 1_555
C22 C27 1_555 1_555
C23 C29 1_555 1_555
C24 C29 1_555 1_555
C25 C28 1_555 1_555
C26 C28 1_555 1_555
C27 H15 1_555 1_555
C28 S5 1_555 1_555
C30 C22 1_555 1_555
C31 C23 1_555 1_555
C32 S7 1_555 1_555
C33 C27 1_555 1_555
C34 S6 1_555 1_555
C35 C36 1_555 1_555
C36 C30 1_555 1_555
C37 C31 1_555 1_555
H16 C37 1_555 1_555
H17 C37 1_555 1_555
H18 C37 1_555 1_555
C38 C25 1_555 1_555
H19 C38 1_555 1_555
H20 C38 1_555 1_555
H21 C38 1_555 1_555
C39 C34 1_555 1_555
H22 C39 1_555 1_555
H23 C39 1_555 1_555
H24 C39 1_555 1_555
C40 S8 1_555 1_555
H25 C40 1_555 1_555
C41 C26 1_555 1_555
C42 C33 1_555 1_555
H26 C42 1_555 1_555
H27 C42 1_555 1_555
H28 C42 1_555 1_555
S9 C51 1_555 1_555
S10 C45 1_555 1_555
S11 C48 1_555 1_555
S12 C50 1_555 1_555
F13 C54 1_555 1_555
F14 C54 1_555 1_555
F15 C57 1_555 1_555
F16 C57 1_555 1_555
F17 C59 1_555 1_555
F18 C59 1_555 1_555
C43 C46 1_555 1_555
C44 C52 1_555 1_555
C45 C50 1_555 1_555
C46 H29 1_555 1_555
H30 C46 1_555 1_555
H31 C46 1_555 1_555
C47 C48 1_555 1_555
C48 C60 1_555 1_555
C49 C53 1_555 1_555
C50 C53 1_555 1_555
C51 C43 1_555 1_555
C52 S10 1_555 1_555
C53 S9 1_555 1_555
C54 C56 1_555 1_555
C55 C47 1_555 1_555
H32 C55 1_555 1_555
C56 C44 1_555 1_555
C57 C54 1_555 1_555
C58 S11 1_555 1_555
C59 C44 1_555 1_555
C60 H33 1_555 1_555
H34 C60 1_555 1_555
H35 C60 1_555 1_555
C61 S12 1_555 1_555
H36 C61 1_555 1_555
C62 C49 1_555 1_555
H37 C62 1_555 1_555
H38 C62 1_555 1_555
H39 C62 1_555 1_555
C63 C58 1_555 1_555
H40 C63 1_555 1_555
H41 C63 1_555 1_555
H42 C63 1_555 1_555
S13 C72 1_555 1_555
S14 C66 1_555 1_555
S15 C67 1_555 1_555
S16 C69 1_555 1_555
F19 C76 1_555 1_555
F20 C76 1_555 1_555
F21 C83 1_555 1_555
F22 C83 1_555 1_555
F23 C82 1_555 1_555
F24 C82 1_555 1_555
C64 C66 1_555 1_555
C65 C79 1_555 1_555
C66 C73 1_555 1_555
C67 C77 1_555 1_555
C68 S14 1_555 1_555
C69 C68 1_555 1_555
C70 C74 1_555 1_555
C71 C64 1_555 1_555
H43 C71 1_555 1_555
H44 C71 1_555 1_555
H45 C71 1_555 1_555
C72 C64 1_555 1_555
C73 C76 1_555 1_555
C74 S15 1_555 1_555
C75 C74 1_555 1_555
H46 C75 1_555 1_555
H47 C75 1_555 1_555
H48 C75 1_555 1_555
C76 C83 1_555 1_555
C77 C70 1_555 1_555
H49 C77 1_555 1_555
C78 C70 1_555 1_555
C79 S16 1_555 1_555
H50 C79 1_555 1_555
C80 S13 1_555 1_555
C81 C65 1_555 1_555
H51 C81 1_555 1_555
H52 C81 1_555 1_555
H53 C81 1_555 1_555
C82 C78 1_555 1_555
C83 C82 1_555 1_555
C84 C67 1_555 1_555
H54 C84 1_555 1_555
H55 C84 1_555 1_555
H56 C84 1_555 1_555
S17 C87 1_555 1_555
S18 C89 1_555 1_555
S19 C94 1_555 1_555
S20 C91 1_555 1_555
F25 C102 1_555 1_555
F26 C102 1_555 1_555
F27 C100 1_555 1_555
F28 C100 1_555 1_555
F29 C95 1_555 1_555
F30 C95 1_555 1_555
C85 C89 1_555 1_555
C86 C87 1_555 1_555
C87 C91 1_555 1_555
C88 C89 1_555 1_555
C90 H57 1_555 1_555
C91 C92 1_555 1_555
C92 S18 1_555 1_555
C93 S17 1_555 1_555
C94 C96 1_555 1_555
C95 C97 1_555 1_555
C96 C90 1_555 1_555
C97 C88 1_555 1_555
C98 C85 1_555 1_555
H58 C98 1_555 1_555
H59 C98 1_555 1_555
H60 C98 1_555 1_555
C99 C86 1_555 1_555
H61 C99 1_555 1_555
H62 C99 1_555 1_555
H63 C99 1_555 1_555
C100 C95 1_555 1_555
C101 S19 1_555 1_555
C102 C88 1_555 1_555
C103 S20 1_555 1_555
H64 C103 1_555 1_555
C104 C101 1_555 1_555
H65 C104 1_555 1_555
H66 C104 1_555 1_555
H67 C104 1_555 1_555
C105 C94 1_555 1_555
H68 C105 1_555 1_555
H69 C105 1_555 1_555
H70 C105 1_555 1_555
S21 C106 1_555 1_555
S22 C111 1_555 1_555
S23 C109 1_555 1_555
S24 C110 1_555 1_555
F31 C122 1_555 1_555
F32 C122 1_555 1_555
F33 C125 1_555 1_555
F34 C125 1_555 1_555
F35 C123 1_555 1_555
F36 C123 1_555 1_555
C106 C107 1_555 1_555
C107 C111 1_555 1_555
C108 C112 1_555 1_555
C109 C113 1_555 1_555
C110 C115 1_555 1_555
C111 C116 1_555 1_555
C112 S23 1_555 1_555
C113 C108 1_555 1_555
H71 C113 1_555 1_555
C114 C112 1_555 1_555
H72 C114 1_555 1_555
H73 C114 1_555 1_555
H74 C114 1_555 1_555
C115 S22 1_555 1_555
C116 S21 1_555 1_555
C117 C106 1_555 1_555
C118 C115 1_555 1_555
C119 C107 1_555 1_555
H75 C119 1_555 1_555
H76 C119 1_555 1_555
H77 C119 1_555 1_555
C120 C108 1_555 1_555
C121 C118 1_555 1_555
H78 C121 1_555 1_555
H79 C121 1_555 1_555
H80 C121 1_555 1_555
C122 C120 1_555 1_555
C123 C117 1_555 1_555
C124 C109 1_555 1_555
H81 C124 1_555 1_555
H82 C124 1_555 1_555
H83 C124 1_555 1_555
C125 C122 1_555 1_555
C126 S24 1_555 1_555
H84 C126 1_555 1_555
C9 C12 1_555 1_555
C11 C19 1_555 1_555
C14 C16 1_555 1_555
C15 C18 1_555 1_555
C16 C17 1_555 1_555
C22 C34 1_555 1_555
C24 C32 1_555 1_555
C25 C32 1_555 1_555
C26 C30 1_555 1_555
C31 C40 1_555 1_555
C35 C41 1_555 1_555
C43 C52 1_555 1_555
C45 C51 1_555 1_555
C47 C56 1_555 1_555
C49 C61 1_555 1_555
C55 C58 1_555 1_555
C57 C59 1_555 1_555
C65 C80 1_555 1_555
C68 C72 1_555 1_555
C69 C80 1_555 1_555
C73 C78 1_555 1_555
C85 C93 1_555 1_555
C86 C103 1_555 1_555
C90 C101 1_555 1_555
C92 C93 1_555 1_555
C96 C97 1_555 1_555
C100 C102 1_555 1_555
C110 C116 1_555 1_555
C117 C120 1_555 1_555
C118 C126 1_555 1_555
C123 C125 1_555 1_555

#END
