
#######################################################################
#
#                 Cambridge Crystallographic Data Centre
#                                CCDC 
#
#######################################################################
#
# If this CIF has been generated from an entry in the Cambridge 
# Structural Database, then it will include bibliographic, chemical, 
# crystal, experimental, refinement or atomic coordinate data resulting 
# from the CCDC's data processing and validation procedures.
#
#######################################################################

data_VIDXAJ
_chemical_formula_moiety         'C26 H18 F6 S5'
_chemical_name_systematic        
2-(4-(2-(2,5-Dimethyl-3-thienyl)-3,3,4,4,5,5-hexafluorocyclopent-1-en-1-yl)-5-methyl-2-thienyl)-3,5-dimethylbisthieno[3,2-b:2',3'-d]thiophene
_symmetry_cell_setting           orthorhombic
_symmetry_space_group_name_H-M   'P b c a'
_symmetry_Int_Tables_number      61
_space_group_name_Hall           '-P 2ac 2ab'
loop_
_symmetry_equiv_pos_site_id
_symmetry_equiv_pos_as_xyz
1 x,y,z
2 1/2-x,-y,1/2+z
3 -x,1/2+y,1/2-z
4 1/2+x,1/2-y,-z
5 -x,-y,-z
6 1/2+x,y,1/2-z
7 x,1/2-y,1/2+z
8 1/2-x,1/2+y,z
_cell_length_a                   8.5401(17)
_cell_length_b                   12.773(3)
_cell_length_c                   47.714(10)
_cell_angle_alpha                90
_cell_angle_beta                 90
_cell_angle_gamma                90
_cell_volume                     5204.77
_exptl_crystal_colour            colorless
_exptl_crystal_description       strip
_cell_formula_units_Z            8
loop_
_atom_site_label
_atom_site_type_symbol
_atom_site_fract_x
_atom_site_fract_y
_atom_site_fract_z
S1 S 0.95309(7) 0.29885(4) 0.125195(11)
S2 S 0.78257(8) 0.39138(4) 0.206899(12)
S3 S 0.96919(7) 0.67404(5) 0.053889(13)
S4 S 0.98307(8) 0.13743(5) 0.249365(12)
S5 S 0.76694(9) 0.39225(5) 0.289008(13)
F1 F 0.2713(3) 0.3773(2) 0.06424(6)
F2 F 0.1751(4) 0.5052(3) 0.08845(7)
C1 C 0.3103(5) 0.4627(3) 0.07956(9)
F3 F 0.3982(5) 0.6325(3) 0.05227(16)
F4 F 0.4089(6) 0.4719(5) 0.03856(10)
F5 F 0.3792(6) 0.3262(2) 0.1103(2)
F6 F 0.3749(11) 0.4797(7) 0.12913(11)
C2 C 0.9134(19) 0.6807(14) -0.00432(14)
H1 H 0.8428 0.6527 -0.0187
H2 H 1.0209 0.6585 -0.0084
H3 H 0.9079 0.7573 -0.0044
C3 C 0.8311(3) 0.3058(2) 0.31468(5)
H4 H 0.8157 0.3181 0.3341
C4 C 0.9052(3) 0.2191(2) 0.30469(5)
C5 C 0.8409(3) 0.31133(17) 0.26333(5)
C6 C 0.9182(3) 0.22230(17) 0.22297(4)
C7 C 0.5774(3) 0.44962(16) 0.09641(4)
C8 C 0.7334(3) 0.58522(19) 0.03153(5)
H5 H 0.6594 0.5602 0.0182
C9 C 0.9738(4) 0.1326(2) 0.32215(5)
H6 H 0.9397 0.1407 0.3416
H7 H 1.0883 0.1359 0.3212
H8 H 0.9380 0.0649 0.3149
C10 C 0.4099(3) 0.42975(17) 0.10484(5)
C11 C 0.8645(3) 0.6396(2) 0.02432(5)
C12 C 0.9099(3) 0.22313(18) 0.27480(5)
C13 C 0.9918(3) 0.12517(17) 0.17743(5)
H9 H 0.9349 0.1157 0.1598
H10 H 0.9826 0.0616 0.1888
H11 H 1.1025 0.1388 0.1734
C14 C 0.4214(3) 0.53479(19) 0.06272(5)
C15 C 0.8458(3) 0.31064(17) 0.23354(4)
C16 C 0.7178(3) 0.56932(16) 0.06122(4)
C17 C 0.8531(3) 0.30326(16) 0.18160(4)
C18 C 0.5836(3) 0.51554(16) 0.07399(4)
C19 C 0.8790(3) 0.34739(17) 0.06960(4)
H12 H 0.7846 0.3360 0.0583
H13 H 0.9513 0.2887 0.0669
H14 H 0.9299 0.4126 0.0637
C20 C 0.9236(3) 0.21633(16) 0.19319(4)
C21 C 0.8237(3) 0.32943(15) 0.15228(4)
C22 C 0.8348(3) 0.35490(15) 0.09991(4)
C23 C 0.7032(2) 0.39814(15) 0.11196(4)
C24 C 0.8659(3) 0.61783(16) 0.10720(4)
H15 H 0.7651 0.6170 0.1170
H16 H 0.9227 0.6821 0.1120
H17 H 0.9279 0.5569 0.1129
C25 C 0.8385(3) 0.61401(15) 0.07627(4)
C26 C 0.6973(3) 0.38219(16) 0.14174(4)
H18 H 0.6132 0.4061 0.1531
F7? F 0.2654(5) 0.5938(3) 0.09800(8)
F8? F 0.1833(5) 0.4578(4) 0.07477(10)
C27? C 0.3108(7) 0.5033(5) 0.08547(12)
F9? F 0.3739(4) 0.6364(2) 0.07018(18)
F10? F 0.3944(6) 0.5251(7) 0.03549(8)
F11? F 0.3623(13) 0.3327(7) 0.0987(5)
F12? F 0.366(3) 0.4532(15) 0.1312(2)
C28? C 0.937(2) 0.648(2) -0.0048(2)
H19? H 0.8600 0.6267 -0.0189
H20? H 1.0290 0.6025 -0.0059
H21? H 0.9685 0.7208 -0.0082
loop_
_geom_bond_atom_site_label_1
_geom_bond_atom_site_label_2
_geom_bond_site_symmetry_1
_geom_bond_site_symmetry_2
S1 C21 1_555 1_555
S2 C15 1_555 1_555
S3 C11 1_555 1_555
S4 C6 1_555 1_555
S5 C3 1_555 1_555
F1 C1 1_555 1_555
F2 C1 1_555 1_555
C1 C10 1_555 1_555
F3 C14 1_555 1_555
F4 C14 1_555 1_555
F5 C10 1_555 1_555
F6 C10 1_555 1_555
C2 H1 1_555 1_555
H2 C2 1_555 1_555
H3 C2 1_555 1_555
C3 H4 1_555 1_555
C4 C3 1_555 1_555
C5 S5 1_555 1_555
C6 C15 1_555 1_555
C7 C10 1_555 1_555
C8 H5 1_555 1_555
C9 C4 1_555 1_555
H6 C9 1_555 1_555
H7 C9 1_555 1_555
H8 C9 1_555 1_555
C11 C2 1_555 1_555
C12 S4 1_555 1_555
C13 H9 1_555 1_555
H10 C13 1_555 1_555
H11 C13 1_555 1_555
C14 C1 1_555 1_555
C15 C5 1_555 1_555
C16 C8 1_555 1_555
C17 S2 1_555 1_555
C18 C7 1_555 1_555
C19 H12 1_555 1_555
H13 C19 1_555 1_555
H14 C19 1_555 1_555
C20 C6 1_555 1_555
C21 C17 1_555 1_555
C22 S1 1_555 1_555
C23 C7 1_555 1_555
C24 H15 1_555 1_555
H16 C24 1_555 1_555
H17 C24 1_555 1_555
C25 S3 1_555 1_555
C26 C21 1_555 1_555
H18 C26 1_555 1_555
C4 C12 1_555 1_555
C5 C12 1_555 1_555
C8 C11 1_555 1_555
C13 C20 1_555 1_555
C14 C18 1_555 1_555
C16 C18 1_555 1_555
C16 C25 1_555 1_555
C17 C20 1_555 1_555
C19 C22 1_555 1_555
C22 C23 1_555 1_555
C23 C26 1_555 1_555
C24 C25 1_555 1_555

#END
