
#######################################################################
#
#                 Cambridge Crystallographic Data Centre
#                                CCDC 
#
#######################################################################
#
# If this CIF has been generated from an entry in the Cambridge 
# Structural Database, then it will include bibliographic, chemical, 
# crystal, experimental, refinement or atomic coordinate data resulting 
# from the CCDC's data processing and validation procedures.
#
#######################################################################

data_VIDZUG
_chemical_formula_moiety         'C60 H42 N8 O6'
_chemical_name_systematic        
1,1'-{(1,3,12,14-tetramethoxyhexabenzo[a,cd,f,j,lm,o]perylene-5,10-diyl)bis[(ethane-2,1-diyl)oxy]}bis(1H-[1,2,3]triazolo[4,5-b]pyridine)
_symmetry_cell_setting           triclinic
_symmetry_space_group_name_H-M   'P -1'
_symmetry_Int_Tables_number      2
_space_group_name_Hall           '-P 1'
loop_
_symmetry_equiv_pos_site_id
_symmetry_equiv_pos_as_xyz
1 x,y,z
2 -x,-y,-z
_cell_length_a                   8.2291(3)
_cell_length_b                   15.9151(7)
_cell_length_c                   18.4427(9)
_cell_angle_alpha                106.2595(14)
_cell_angle_beta                 97.2479(13)
_cell_angle_gamma                91.4508(13)
_cell_volume                     2295.58
_exptl_crystal_colour            orange
_exptl_crystal_description       block
_cell_formula_units_Z            2
loop_
_atom_site_label
_atom_site_type_symbol
_atom_site_fract_x
_atom_site_fract_y
_atom_site_fract_z
O1 O 0.8032(3) -0.09790(14) 0.29158(13)
O2 O 0.8589(3) -0.10024(14) 0.55053(14)
O3 O 0.8380(5) 0.0442(2) 0.91906(17)
O4 O 0.8428(4) 0.6311(2) 0.96891(16)
O5 O 0.3751(3) 0.57867(13) 0.71202(11)
O6 O 0.1649(2) 0.53925(12) 0.45378(11)
C1 C 0.8778(6) -0.1787(2) 0.2721(2)
H1 H 0.8790 -0.1980 0.2180
H2 H 0.9883 -0.1714 0.2979
H3 H 0.8166 -0.2217 0.2871
C2 C 0.7877(3) -0.05765(18) 0.36607(17)
C3 C 0.8292(4) -0.09839(18) 0.42122(19)
H4 H 0.8710 -0.1536 0.4078
C4 C 0.8108(3) -0.05970(17) 0.49610(17)
C5 C 0.9298(4) -0.1827(2) 0.5297(2)
H5 H 0.9568 -0.2023 0.5741
H6 H 0.8528 -0.2247 0.4931
H7 H 1.0276 -0.1766 0.5077
C6 C 0.7511(4) 0.1089(2) 0.21022(18)
H8 H 0.7880 0.0907 0.1630
C7 C 0.7610(4) 0.0551(2) 0.25706(18)
H9 H 0.8076 0.0015 0.2411
C8 C 0.7029(3) 0.07806(17) 0.32863(15)
C9 C 0.7260(3) 0.02677(17) 0.38343(16)
C10 C 0.6983(3) 0.06388(16) 0.46029(15)
C11 C 0.7413(3) 0.02194(16) 0.51888(16)
C12 C 0.7038(3) 0.06220(16) 0.59661(15)
C13 C 0.7290(4) 0.02338(18) 0.65725(17)
H10 H 0.7835 -0.0282 0.6497
C14 C 0.6765(4) 0.05869(19) 0.72687(17)
C15 C 0.7111(6) 0.0178(2) 0.79184(19)
H11 H 0.7643 -0.0365 0.7747
H12 H 0.6089 0.0046 0.8087
C16 C 0.8230(7) 0.0825(4) 0.8582(3)
H13 H 0.9298 0.0914 0.8435
H14 H 0.7748 0.1387 0.8729
C17 C 1.1431(5) 0.1657(3) 1.0588(2)
C18 C 1.4192(7) 0.1445(4) 1.0447(4)
H15 H 1.5311 0.1576 1.0606
C19 C 1.3650(9) 0.0857(5) 0.9755(4)
H16 H 1.4442 0.0602 0.9459
C20 C 1.2082(7) 0.0617(3) 0.9467(3)
H17 H 1.1749 0.0187 0.9009
C21 C 1.1058(6) 0.1056(3) 0.9906(2)
C22 C 0.6865(4) 0.1898(2) 0.23307(17)
H18 H 0.6832 0.2272 0.2023
C23 C 0.6274(3) 0.21432(18) 0.30160(15)
H19 H 0.5849 0.2691 0.3171
C24 C 0.6291(3) 0.15911(17) 0.34923(14)
C25 C 0.5718(3) 0.18945(15) 0.42296(14)
C26 C 0.6268(3) 0.14869(16) 0.48026(14)
C27 C 0.6143(3) 0.19292(16) 0.55710(14)
C28 C 0.6340(3) 0.14435(17) 0.61328(15)
C29 C 0.5707(4) 0.17596(18) 0.68240(16)
H20 H 0.5137 0.2267 0.6905
C30 C 0.5904(4) 0.1343(2) 0.73789(17)
H21 H 0.5465 0.1564 0.7830
C31 C 0.1462(4) 0.22744(19) 0.27457(16)
H22 H 0.1045 0.1826 0.2313
C32 C 0.2766(3) 0.21512(18) 0.32364(15)
H23 H 0.3228 0.1610 0.3132
C33 C 0.3425(3) 0.28168(16) 0.38930(14)
C34 C 0.4719(3) 0.26190(15) 0.44307(14)
C35 C 0.4920(3) 0.31404(15) 0.51921(14)
C36 C 0.5821(3) 0.28270(16) 0.57625(14)
C37 C 0.6514(3) 0.34738(16) 0.64767(14)
C38 C 0.7953(3) 0.33238(18) 0.69084(15)
H24 H 0.8387 0.2777 0.6770
C39 C 0.8740(4) 0.3964(2) 0.75307(16)
H25 H 0.9686 0.3845 0.7808
C40 C 0.0772(4) 0.3084(2) 0.29079(17)
H26 H -0.0095 0.3183 0.2573
C41 C 0.1357(3) 0.37353(18) 0.35542(16)
H27 H 0.0873 0.4270 0.3649
C42 C 0.2674(3) 0.36228(16) 0.40836(14)
C43 C 0.3156(3) 0.42496(15) 0.48403(14)
C44 C 0.4198(3) 0.39837(15) 0.53990(14)
C45 C 0.4559(3) 0.45229(16) 0.61706(14)
C46 C 0.5902(3) 0.43126(16) 0.66791(14)
C47 C 0.6734(3) 0.49553(18) 0.73162(15)
H28 H 0.6332 0.5511 0.7452
C48 C 0.8118(4) 0.47915(19) 0.77446(15)
C49 C 0.8925(4) 0.5499(2) 0.84358(17)
H29 H 0.8906 0.6064 0.8332
H30 H 1.0060 0.5380 0.8560
C50 C 0.7965(7) 0.5516(3) 0.9117(3)
H31 H 0.6793 0.5476 0.8950
H32 H 0.8229 0.5023 0.9313
C51 C 0.5789(6) 0.6369(3) 1.1038(2)
C52 C 0.3020(8) 0.6660(3) 1.0766(4)
H33 H 0.1984 0.6779 1.0905
C53 C 0.3305(8) 0.6619(4) 1.0032(4)
H34 H 0.2414 0.6667 0.9685
C54 C 0.4742(6) 0.6516(4) 0.9790(3)
H35 H 0.4917 0.6517 0.9302
C55 C 0.5910(6) 0.6413(3) 1.0310(3)
C56 C 0.0904(4) 0.62071(19) 0.47664(18)
H36 H 0.0343 0.6336 0.4325
H37 H 0.0133 0.6169 0.5107
H38 H 0.1735 0.6665 0.5021
C57 C 0.2510(3) 0.50854(16) 0.50772(15)
C58 C 0.2711(3) 0.55568(16) 0.58385(16)
H39 H 0.2188 0.6076 0.5991
C59 C 0.3676(3) 0.52684(17) 0.63743(15)
C60 C 0.2949(6) 0.5395(3) 0.7593(2)
H40 H 0.3052 0.5791 0.8099
H41 H 0.1808 0.5270 0.7390
H42 H 0.3444 0.4860 0.7611
N1 N 0.9384(5) 0.1004(3) 0.97866(19)
N2 N 0.8780(5) 0.1554(3) 1.0343(2)
N3 N 0.9992(5) 0.1946(3) 1.0852(2)
N4 N 1.3095(7) 0.1836(4) 1.0898(3)
N5 N 0.7555(5) 0.6305(3) 1.0272(2)
N6 N 0.8325(6) 0.6151(4) 1.0900(2)
N7 N 0.7281(6) 0.6217(3) 1.1371(2)
N8 N 0.4274(8) 0.6526(3) 1.1295(3)
loop_
_geom_bond_atom_site_label_1
_geom_bond_atom_site_label_2
_geom_bond_site_symmetry_1
_geom_bond_site_symmetry_2
O1 C1 1_555 1_555
O2 C4 1_555 1_555
O3 C16 1_555 1_555
O4 C50 1_555 1_555
O5 C59 1_555 1_555
O6 C56 1_555 1_555
C1 H1 1_555 1_555
H2 C1 1_555 1_555
H3 C1 1_555 1_555
C2 O1 1_555 1_555
C3 C2 1_555 1_555
H4 C3 1_555 1_555
C4 C3 1_555 1_555
C5 O2 1_555 1_555
H5 C5 1_555 1_555
H6 C5 1_555 1_555
H7 C5 1_555 1_555
C6 H8 1_555 1_555
C7 C6 1_555 1_555
H9 C7 1_555 1_555
C8 C7 1_555 1_555
C9 C2 1_555 1_555
C10 C9 1_555 1_555
C11 C4 1_555 1_555
C12 C11 1_555 1_555
C13 C12 1_555 1_555
H10 C13 1_555 1_555
C14 C13 1_555 1_555
C15 C14 1_555 1_555
H11 C15 1_555 1_555
H12 C15 1_555 1_555
C16 C15 1_555 1_555
H13 C16 1_555 1_555
H14 C16 1_555 1_555
C17 C21 1_555 1_555
C18 H15 1_555 1_555
C19 C18 1_555 1_555
H16 C19 1_555 1_555
C20 C19 1_555 1_555
H17 C20 1_555 1_555
C21 C20 1_555 1_555
C22 C6 1_555 1_555
H18 C22 1_555 1_555
C23 C22 1_555 1_555
H19 C23 1_555 1_555
C24 C8 1_555 1_555
C25 C24 1_555 1_555
C26 C10 1_555 1_555
C27 C26 1_555 1_555
C28 C12 1_555 1_555
C29 C28 1_555 1_555
H20 C29 1_555 1_555
C30 C14 1_555 1_555
H21 C30 1_555 1_555
C31 H22 1_555 1_555
C32 C31 1_555 1_555
H23 C32 1_555 1_555
C33 C32 1_555 1_555
C34 C25 1_555 1_555
C35 C34 1_555 1_555
C36 C27 1_555 1_555
C37 C36 1_555 1_555
C38 C37 1_555 1_555
H24 C38 1_555 1_555
C39 C38 1_555 1_555
H25 C39 1_555 1_555
C40 C31 1_555 1_555
H26 C40 1_555 1_555
C41 C40 1_555 1_555
H27 C41 1_555 1_555
C42 C33 1_555 1_555
C43 C42 1_555 1_555
C44 C35 1_555 1_555
C45 C44 1_555 1_555
C46 C37 1_555 1_555
C47 C46 1_555 1_555
H28 C47 1_555 1_555
C48 C39 1_555 1_555
C49 C48 1_555 1_555
H29 C49 1_555 1_555
H30 C49 1_555 1_555
C50 C49 1_555 1_555
H31 C50 1_555 1_555
H32 C50 1_555 1_555
C51 C55 1_555 1_555
C52 H33 1_555 1_555
C53 C52 1_555 1_555
H34 C53 1_555 1_555
C54 C53 1_555 1_555
H35 C54 1_555 1_555
C55 C54 1_555 1_555
C56 H36 1_555 1_555
H37 C56 1_555 1_555
H38 C56 1_555 1_555
C57 O6 1_555 1_555
C58 C57 1_555 1_555
H39 C58 1_555 1_555
C59 C45 1_555 1_555
C60 O5 1_555 1_555
H40 C60 1_555 1_555
H41 C60 1_555 1_555
H42 C60 1_555 1_555
N1 O3 1_555 1_555
N2 N1 1_555 1_555
N3 C17 1_555 1_555
N4 C17 1_555 1_555
N5 O4 1_555 1_555
N6 N5 1_555 1_555
N7 C51 1_555 1_555
N8 C51 1_555 1_555
C8 C9 1_555 1_555
C10 C11 1_555 1_555
C18 N4 1_555 1_555
C21 N1 1_555 1_555
C23 C24 1_555 1_555
C25 C26 1_555 1_555
C27 C28 1_555 1_555
C29 C30 1_555 1_555
C33 C34 1_555 1_555
C35 C36 1_555 1_555
C41 C42 1_555 1_555
C43 C44 1_555 1_555
C43 C57 1_555 1_555
C45 C46 1_555 1_555
C47 C48 1_555 1_555
C52 N8 1_555 1_555
C55 N5 1_555 1_555
C58 C59 1_555 1_555
N2 N3 1_555 1_555
N6 N7 1_555 1_555

#END
