
#######################################################################
#
#                 Cambridge Crystallographic Data Centre
#                                CCDC 
#
#######################################################################
#
# If this CIF has been generated from an entry in the Cambridge 
# Structural Database, then it will include bibliographic, chemical, 
# crystal, experimental, refinement or atomic coordinate data resulting 
# from the CCDC's data processing and validation procedures.
#
#######################################################################

data_VIFBOE
_chemical_formula_moiety         'C11 H7 N3 O4'
_chemical_name_systematic        
'methyl 9-oxo-9-[1,2]oxazolo[4,5-b]quinoxaline-3-carboxylate'
_symmetry_cell_setting           monoclinic
_symmetry_space_group_name_H-M   'P 21/n'
_symmetry_Int_Tables_number      14
_space_group_name_Hall           '-P 2yn'
loop_
_symmetry_equiv_pos_site_id
_symmetry_equiv_pos_as_xyz
1 x,y,z
2 1/2-x,1/2+y,1/2-z
3 -x,-y,-z
4 1/2+x,1/2-y,1/2+z
_cell_length_a                   4.3536(3)
_cell_length_b                   17.0273(11)
_cell_length_c                   13.7041(11)
_cell_angle_alpha                90
_cell_angle_beta                 94.379(2)
_cell_angle_gamma                90
_cell_volume                     1012.92
_cell_formula_units_Z            4
loop_
_atom_site_label
_atom_site_type_symbol
_atom_site_fract_x
_atom_site_fract_y
_atom_site_fract_z
C1 C 0.4302(8) 0.6164(2) 0.4764(3)
C2 C 0.3324(9) 0.6031(2) 0.5712(3)
H1 H 0.191136 0.561920 0.581322
C3 C 0.4392(9) 0.6489(2) 0.6483(3)
H2 H 0.370462 0.639374 0.711326
C4 C 0.6503(9) 0.7102(2) 0.6354(3)
H3 H 0.721451 0.741482 0.689920
C5 C 0.7538(9) 0.7252(2) 0.5457(3)
H4 H 0.895315 0.766680 0.537474
C6 C 0.6480(8) 0.6784(2) 0.4656(3)
C7 C 0.6387(8) 0.6466(2) 0.3030(3)
C8 C 0.4240(8) 0.5880(2) 0.3166(3)
C9 C 0.3748(8) 0.5556(2) 0.2182(3)
N1 N 0.5368(7) 0.59208(18) 0.1564(2)
C10 C 0.1703(8) 0.4890(2) 0.1872(3)
C11 C 0.0385(10) 0.3958(2) 0.0648(3)
H5 H 0.062342 0.352481 0.111950
H6 H 0.103079 0.378303 0.001398
H7 H -0.177971 0.412036 0.057468
N2 N 0.7562(7) 0.69297(17) 0.3743(2)
N3 N 0.3136(7) 0.57018(17) 0.4011(2)
O1 O 0.9608(6) 0.74593(15) 0.3605(2)
O2 O 0.7140(6) 0.65140(15) 0.20947(18)
O3 O 0.2291(6) 0.46198(16) 0.1001(2)
O4 O -0.0204(7) 0.46422(16) 0.2379(2)
loop_
_geom_bond_atom_site_label_1
_geom_bond_atom_site_label_2
_geom_bond_site_symmetry_1
_geom_bond_site_symmetry_2
C1 C2 1_555 1_555
C2 H1 1_555 1_555
C3 C2 1_555 1_555
H2 C3 1_555 1_555
C4 C3 1_555 1_555
H3 C4 1_555 1_555
C5 C4 1_555 1_555
H4 C5 1_555 1_555
C6 C1 1_555 1_555
C7 C8 1_555 1_555
C8 C9 1_555 1_555
C9 N1 1_555 1_555
N1 O2 1_555 1_555
C10 C9 1_555 1_555
C11 H5 1_555 1_555
H6 C11 1_555 1_555
H7 C11 1_555 1_555
N2 C6 1_555 1_555
N3 C1 1_555 1_555
O1 N2 1_555 1_555
O2 C7 1_555 1_555
O3 C10 1_555 1_555
O4 C10 1_555 1_555
C5 C6 1_555 1_555
C7 N2 1_555 1_555
C8 N3 1_555 1_555
C11 O3 1_555 1_555

#END
