
#######################################################################
#
#                 Cambridge Crystallographic Data Centre
#                                CCDC 
#
#######################################################################
#
# If this CIF has been generated from an entry in the Cambridge 
# Structural Database, then it will include bibliographic, chemical, 
# crystal, experimental, refinement or atomic coordinate data resulting 
# from the CCDC's data processing and validation procedures.
#
#######################################################################

data_VIFGIA02
_chemical_formula_moiety         'C11 H9 N1 O2'
_chemical_name_systematic        'Methyl 2-cyano-3-phenylacrylate'
_symmetry_cell_setting           monoclinic
_symmetry_space_group_name_H-M   'C 2/c'
_symmetry_Int_Tables_number      15
_space_group_name_Hall           '-C 2yn'
loop_
_symmetry_equiv_pos_site_id
_symmetry_equiv_pos_as_xyz
1 x,y,z
2 -x,y,1/2-z
3 1/2+x,1/2+y,z
4 1/2-x,1/2+y,1/2-z
5 -x,-y,-z
6 x,-y,1/2+z
7 1/2-x,1/2-y,-z
8 1/2+x,1/2-y,1/2+z
_cell_length_a                   12.399(7)
_cell_length_b                   8.228(5)
_cell_length_c                   19.295(11)
_cell_angle_alpha                90
_cell_angle_beta                 98.485(10)
_cell_angle_gamma                90
_cell_volume                     1946.91
_cell_formula_units_Z            8
loop_
_atom_site_label
_atom_site_type_symbol
_atom_site_fract_x
_atom_site_fract_y
_atom_site_fract_z
O1 O 0.25078(9) 0.00420(15) 0.32745(5)
C1 C 0.10558(10) 0.11361(17) 0.54450(6)
C2 C 0.18081(10) 0.06716(17) 0.42993(7)
C3 C 0.24793(11) -0.04408(19) 0.39289(7)
C4 C 0.16639(10) 0.03041(17) 0.49553(7)
H1 H 0.2010 -0.0645 0.5130
C5 C 0.13542(11) 0.2061(2) 0.39154(7)
C6 C 0.03940(12) 0.24813(19) 0.52847(8)
H2 H 0.0311 0.2915 0.4835
C7 C 0.11398(12) 0.0491(2) 0.61160(7)
H3 H 0.1567 -0.0427 0.6230
C8 C -0.00340(13) 0.2545(2) 0.64511(9)
H4 H -0.0389 0.3030 0.6790
C9 C 0.05970(13) 0.1193(3) 0.66161(8)
H5 H 0.0660 0.0750 0.7064
C10 C -0.01431(13) 0.3184(2) 0.57874(9)
H6 H -0.0580 0.4093 0.5676
N1 N 0.10065(12) 0.3165(2) 0.36032(8)
C11 C 0.31622(14) -0.0924(3) 0.28694(8)
H7 H 0.3892 -0.1002 0.3115
H8 H 0.3175 -0.0420 0.2422
H9 H 0.2854 -0.1993 0.2802
O2 O 0.29367(10) -0.16166(16) 0.41874(6)
loop_
_geom_bond_atom_site_label_1
_geom_bond_atom_site_label_2
_geom_bond_site_symmetry_1
_geom_bond_site_symmetry_2
O1 C3 1_555 1_555
C1 C4 1_555 1_555
C2 C3 1_555 1_555
C3 O2 1_555 1_555
C4 C2 1_555 1_555
H1 C4 1_555 1_555
C5 C2 1_555 1_555
C6 C1 1_555 1_555
H2 C6 1_555 1_555
C7 C1 1_555 1_555
H3 C7 1_555 1_555
C8 H4 1_555 1_555
C9 C7 1_555 1_555
H5 C9 1_555 1_555
C10 C6 1_555 1_555
H6 C10 1_555 1_555
N1 C5 1_555 1_555
C11 O1 1_555 1_555
H7 C11 1_555 1_555
H8 C11 1_555 1_555
H9 C11 1_555 1_555
C8 C9 1_555 1_555
C8 C10 1_555 1_555

#END
