
#######################################################################
#
#                 Cambridge Crystallographic Data Centre
#                                CCDC 
#
#######################################################################
#
# If this CIF has been generated from an entry in the Cambridge 
# Structural Database, then it will include bibliographic, chemical, 
# crystal, experimental, refinement or atomic coordinate data resulting 
# from the CCDC's data processing and validation procedures.
#
#######################################################################

data_VIFJAV
_chemical_name_common            'N,N,N-Triethylglycinium chloride dihydrate'
_chemical_formula_moiety         'C8 H18 N1 O2 1+,Cl1 1-,2(H2 O1)'
_chemical_name_systematic        
"N-Carboxymethyl-N,N'-diethylethanaminium chloride dihydrate"
_symmetry_cell_setting           monoclinic
_symmetry_space_group_name_H-M   'P 21/n'
_symmetry_Int_Tables_number      14
_space_group_name_Hall           '-P 2yn'
loop_
_symmetry_equiv_pos_site_id
_symmetry_equiv_pos_as_xyz
1 x,y,z
2 1/2-x,1/2+y,1/2-z
3 -x,-y,-z
4 1/2+x,1/2-y,1/2+z
_cell_length_a                   7.083(1)
_cell_length_b                   20.754(7)
_cell_length_c                   9.050(4)
_cell_angle_alpha                90
_cell_angle_beta                 107.53(1)
_cell_angle_gamma                90
_cell_volume                     1268.57
_cell_formula_units_Z            4
loop_
_atom_site_label
_atom_site_type_symbol
_atom_site_fract_x
_atom_site_fract_y
_atom_site_fract_z
Cl1 Cl 0.8379(2) 0.3941(1) 0.4879(2)
O1 O 0.2216(6) 0.2919(2) 0.1866(4)
O2 O 0.2561(5) 0.2689(2) 0.4317(3)
C1 C 0.2024(7) 0.2554(3) 0.2968(5)
C2 C 0.1036(7) 0.1930(2) 0.2297(5)
N1 N 0.0298(5) 0.1508(2) 0.3336(4)
C3 C 0.1982(7) 0.1250(2) 0.4692(5)
C4 C 0.3473(8) 0.0838(3) 0.4261(7)
C5 C -0.0799(8) 0.0963(2) 0.2294(6)
C6 C -0.1630(9) 0.0449(3) 0.3087(7)
C7 C -0.1068(7) 0.1866(2) 0.4058(5)
C8 C -0.2792(7) 0.2211(3) 0.2948(6)
H1 H 0.2754 0.3294 0.2295
H2 H 0.1975 0.1685 0.1954
H3 H -0.0077 0.2038 0.1423
H4 H 0.1409 0.0999 0.5338
H5 H 0.2668 0.1613 0.5268
H6 H 0.4468 0.0700 0.5184
H7 H 0.4082 0.1082 0.3627
H8 H 0.2823 0.0468 0.3697
H9 H 0.0109 0.0762 0.1835
H10 H -0.1876 0.1149 0.1495
H11 H -0.2288 0.0129 0.2343
H12 H -0.2561 0.0638 0.3543
H13 H -0.0575 0.0251 0.3883
H14 H -0.0289 0.2181 0.4758
H15 H -0.1592 0.1561 0.4627
H16 H -0.3558 0.2423 0.3519
H17 H -0.3609 0.1905 0.2245
H18 H -0.2306 0.2526 0.2375
O3 O 0.4062(6) 0.3981(2) 0.2603(4)
H19 H 0.3105 0.4165 0.2928
H20 H 0.5124 0.3960 0.3455
O4 O 0.1569(7) 0.4662(2) 0.3684(5)
H21 H 0.0583 0.4489 0.3995
H22 H 0.1667 0.5058 0.4114
loop_
_geom_bond_atom_site_label_1
_geom_bond_atom_site_label_2
_geom_bond_site_symmetry_1
_geom_bond_site_symmetry_2
O1 C1 1_555 1_555
O2 C1 1_555 1_555
C1 C2 1_555 1_555
C2 N1 1_555 1_555
N1 C3 1_555 1_555
C3 C4 1_555 1_555
C4 H6 1_555 1_555
C5 N1 1_555 1_555
C6 C5 1_555 1_555
C7 N1 1_555 1_555
C8 C7 1_555 1_555
O3 H19 1_555 1_555
O4 H21 1_555 1_555
H1 O1 1_555 1_555
H2 C2 1_555 1_555
H3 C2 1_555 1_555
H4 C3 1_555 1_555
H5 C3 1_555 1_555
H7 C4 1_555 1_555
H8 C4 1_555 1_555
H9 C5 1_555 1_555
H10 C5 1_555 1_555
H11 C6 1_555 1_555
H12 C6 1_555 1_555
H13 C6 1_555 1_555
H14 C7 1_555 1_555
H15 C7 1_555 1_555
H16 C8 1_555 1_555
H17 C8 1_555 1_555
H18 C8 1_555 1_555
H20 O3 1_555 1_555
H22 O4 1_555 1_555

#END
