
#######################################################################
#
#                 Cambridge Crystallographic Data Centre
#                                CCDC 
#
#######################################################################
#
# If this CIF has been generated from an entry in the Cambridge 
# Structural Database, then it will include bibliographic, chemical, 
# crystal, experimental, refinement or atomic coordinate data resulting 
# from the CCDC's data processing and validation procedures.
#
#######################################################################

data_VIFNAZ
_chemical_name_common            'Dipyrido(24)crown-8 monohydrate'
_chemical_formula_moiety         'C22 H30 N2 O6,H2 O1'
_chemical_name_systematic        
'1,4,7,11,14,17-Hexaoxa-9,19-di(2,6)pyridinacyclocosaphane monohydrate'
_symmetry_cell_setting           triclinic
_symmetry_space_group_name_H-M   'P -1'
_symmetry_Int_Tables_number      2
_space_group_name_Hall           '-P 1'
loop_
_symmetry_equiv_pos_site_id
_symmetry_equiv_pos_as_xyz
1 x,y,z
2 -x,-y,-z
_cell_length_a                   8.2914(5)
_cell_length_b                   11.3749(4)
_cell_length_c                   13.9727(6)
_cell_angle_alpha                101.583(3)
_cell_angle_beta                 106.280(4)
_cell_angle_gamma                107.044(3)
_cell_volume                     1150.5
_exptl_crystal_colour            colorless
_exptl_crystal_description       prisms
_cell_formula_units_Z            2
_exptl_crystal_recrystallization_method 'diethyl ether'
loop_
_atom_site_label
_atom_site_type_symbol
_atom_site_fract_x
_atom_site_fract_y
_atom_site_fract_z
O1 O 0.7230(2) 0.8306(2) 1.04981(13)
C1 C 0.7244(4) 0.9549(2) 1.0941(2)
H1 H 0.7810(4) 0.9800(2) 1.1697(2)
H2 H 0.6005(4) 0.9502(2) 1.0778(2)
C2 C 0.8220(4) 1.0562(2) 1.0556(2)
H3 H 0.8279(4) 1.1401(2) 1.0928(2)
H4 H 0.9447(4) 1.0595(2) 1.0688(2)
O2 O 0.7297(2) 1.0273(2) 0.94643(14)
C3 C 0.8130(4) 1.1201(2) 0.9044(2)
H5 H 0.9411(4) 1.1356(2) 0.9251(2)
H6 H 0.8000(4) 1.2010(2) 0.9312(2)
C4 C 0.7260(4) 1.0719(3) 0.7876(3)
H7 H 0.7976(4) 1.1262(3) 0.7574(3)
H8 H 0.7204(4) 0.9844(3) 0.7618(3)
O3 O 0.5495(2) 1.0738(2) 0.75727(14)
C5 C 0.4504(5) 1.0175(2) 0.6469(2)
H9 H 0.5284(5) 1.0485(2) 0.6097(2)
H10 H 0.3492(5) 1.0455(2) 0.6279(2)
C6 C 0.3797(3) 0.8713(2) 0.6126(2)
N1 N 0.3672(3) 0.8155(2) 0.51536(15)
C7 C 0.2982(3) 0.6860(2) 0.4792(2)
C8 C 0.2422(3) 0.6092(2) 0.5374(2)
H11 H 0.1946(3) 0.5196(2) 0.5096(2)
C9 C 0.2584(4) 0.6685(2) 0.6379(2)
H12 H 0.2218(4) 0.6191(2) 0.6789(2)
C10 C 0.3289(4) 0.8010(2) 0.6768(2)
H13 H 0.3422(4) 0.8426(2) 0.7446(2)
C11 C 0.2875(4) 0.6322(2) 0.3689(2)
H14 H 0.2179(4) 0.6680(2) 0.3233(2)
H15 H 0.4087(4) 0.6595(2) 0.3671(2)
O4 O 0.2071(2) 0.4956(2) 0.33018(12)
C12 C 0.3342(3) 0.4334(2) 0.3400(2)
H16 H 0.4383(3) 0.4818(2) 0.4041(2)
H17 H 0.3756(3) 0.4307(2) 0.2815(2)
C13 C 0.2478(4) 0.2995(3) 0.3417(2)
H18 H 0.1339(4) 0.2550(3) 0.2830(2)
H19 H 0.3262(4) 0.2518(3) 0.3360(2)
O5 O 0.2173(3) 0.3061(2) 0.43724(13)
C14 C 0.1515(4) 0.1859(2) 0.4524(2)
H20 H 0.2437(4) 0.1485(2) 0.4624(2)
H21 H 0.0467(4) 0.1274(2) 0.3915(2)
C15 C 0.1005(3) 0.2060(2) 0.5474(2)
H22 H 0.0180(3) 0.2518(2) 0.5403(2)
H23 H 0.0404(3) 0.1232(2) 0.5549(2)
O6 O 0.2593(2) 0.2787(2) 0.63641(12)
C16 C 0.2248(4) 0.3207(3) 0.7280(2)
H24 H 0.1746(4) 0.2476(3) 0.7506(2)
H25 H 0.1385(4) 0.3631(3) 0.7146(2)
C17 C 0.4018(3) 0.4140(2) 0.8115(2)
N2 N 0.4103(2) 0.5341(2) 0.85027(14)
C18 C 0.5670(3) 0.6205(2) 0.9233(2)
C19 C 0.7169(3) 0.5893(2) 0.9584(2)
H26 H 0.8237(3) 0.6511(2) 1.0093(2)
C20 C 0.7068(3) 0.4654(2) 0.9173(2)
H27 H 0.8070(3) 0.4427(2) 0.9392(2)
C21 C 0.5461(3) 0.3760(2) 0.8434(2)
H28 H 0.5349(3) 0.2914(2) 0.8153(2)
C22 C 0.5656(3) 0.7532(2) 0.9613(2)
H29 H 0.5596(3) 0.7931(2) 0.9059(2)
H30 H 0.4593(3) 0.7468(2) 0.9795(2)
O7 O 0.0944(3) 0.5985(3) 0.8646(2)
H31 H 0.1786(38) 0.5712(37) 0.8496(31)
H32 H -0.0026(40) 0.5636(43) 0.8045(20)
loop_
_geom_bond_atom_site_label_1
_geom_bond_atom_site_label_2
_geom_bond_site_symmetry_1
_geom_bond_site_symmetry_2
O1 C1 1_555 1_555
C1 H1 1_555 1_555
H2 C1 1_555 1_555
C2 C1 1_555 1_555
H3 C2 1_555 1_555
H4 C2 1_555 1_555
O2 C2 1_555 1_555
C3 O2 1_555 1_555
H5 C3 1_555 1_555
H6 C3 1_555 1_555
C4 C3 1_555 1_555
H7 C4 1_555 1_555
H8 C4 1_555 1_555
O3 C4 1_555 1_555
C5 O3 1_555 1_555
H9 C5 1_555 1_555
H10 C5 1_555 1_555
C6 C5 1_555 1_555
N1 C6 1_555 1_555
C7 N1 1_555 1_555
C8 C7 1_555 1_555
H11 C8 1_555 1_555
C9 C8 1_555 1_555
H12 C9 1_555 1_555
C10 C6 1_555 1_555
H13 C10 1_555 1_555
C11 C7 1_555 1_555
H14 C11 1_555 1_555
H15 C11 1_555 1_555
O4 C11 1_555 1_555
C12 O4 1_555 1_555
H16 C12 1_555 1_555
H17 C12 1_555 1_555
C13 C12 1_555 1_555
H18 C13 1_555 1_555
H19 C13 1_555 1_555
O5 C13 1_555 1_555
C14 O5 1_555 1_555
H20 C14 1_555 1_555
H21 C14 1_555 1_555
C15 C14 1_555 1_555
H22 C15 1_555 1_555
H23 C15 1_555 1_555
O6 C15 1_555 1_555
C16 O6 1_555 1_555
H24 C16 1_555 1_555
H25 C16 1_555 1_555
C17 C16 1_555 1_555
N2 C17 1_555 1_555
C18 N2 1_555 1_555
C19 C18 1_555 1_555
H26 C19 1_555 1_555
C20 C19 1_555 1_555
H27 C20 1_555 1_555
C21 C17 1_555 1_555
H28 C21 1_555 1_555
C22 O1 1_555 1_555
H29 C22 1_555 1_555
H30 C22 1_555 1_555
O7 H31 1_555 1_555
H32 O7 1_555 1_555
C9 C10 1_555 1_555
C18 C22 1_555 1_555
C20 C21 1_555 1_555

#END
