
#######################################################################
#
#                 Cambridge Crystallographic Data Centre
#                                CCDC 
#
#######################################################################
#
# If this CIF has been generated from an entry in the Cambridge 
# Structural Database, then it will include bibliographic, chemical, 
# crystal, experimental, refinement or atomic coordinate data resulting 
# from the CCDC's data processing and validation procedures.
#
#######################################################################

data_VIFVUC
_chemical_formula_moiety         'C14 H11 N1 O1'
_chemical_name_systematic        4-(2-(pyridin-4-yl)ethenyl)benzaldehyde
_symmetry_cell_setting           orthorhombic
_symmetry_space_group_name_H-M   'P b c a'
_symmetry_Int_Tables_number      61
_space_group_name_Hall           '-P 2ac 2ab'
loop_
_symmetry_equiv_pos_site_id
_symmetry_equiv_pos_as_xyz
1 x,y,z
2 1/2+x,1/2-y,-z
3 -x,1/2+y,1/2-z
4 1/2-x,-y,1/2+z
5 -x,-y,-z
6 1/2-x,1/2+y,z
7 x,1/2-y,1/2+z
8 1/2+x,y,1/2-z
_cell_length_a                   7.7646(2)
_cell_length_b                   12.1912(3)
_cell_length_c                   22.4911(5)
_cell_angle_alpha                90
_cell_angle_beta                 90
_cell_angle_gamma                90
_cell_volume                     2129
_exptl_crystal_colour            colorless
_exptl_crystal_description       prism
_cell_formula_units_Z            8
loop_
_atom_site_label
_atom_site_type_symbol
_atom_site_fract_x
_atom_site_fract_y
_atom_site_fract_z
O1 O 0.4393(3) 0.44471(16) 0.91547(8)
C1 C 0.3956(3) 0.3499(2) 0.91089(12)
C2 C 0.3906(3) 0.27120(19) 0.96070(10)
C3 C 0.4319(3) 0.3042(2) 1.01822(11)
C4 C 0.4265(3) 0.2285(2) 1.06391(12)
C5 C 0.3776(3) 0.11938(20) 1.05308(11)
C6 C 0.3365(3) 0.0893(2) 0.99593(12)
C7 C 0.3440(3) 0.1634(2) 0.95028(13)
C8 C 0.3665(3) 0.0342(2) 1.09942(13)
C9 C 0.4214(4) 0.0405(2) 1.15363(13)
C10 C 0.4023(3) -0.0486(2) 1.19868(11)
C11 C 0.4306(4) -0.0253(2) 1.25703(13)
C12 C 0.4114(4) -0.1046(2) 1.29959(13)
N1 N 0.3659(3) -0.20781(17) 1.28899(9)
C13 C 0.3385(3) -0.2315(2) 1.23161(13)
C14 C 0.3549(3) -0.1565(2) 1.18600(13)
H1 H 0.350(3) 0.313(2) 0.8737(11)
H2 H 0.463(3) 0.3793(19) 1.0246(9)
H3 H 0.453(3) 0.247(2) 1.1039(12)
H4 H 0.306(4) 0.011(3) 0.9870(12)
H5 H 0.320(3) 0.141(2) 0.9094(11)
H6 H 0.312 -0.034 1.088
H7 H 0.478 0.107 1.166
H8 H 0.467(3) 0.048(2) 1.2696(11)
H9 H 0.433(4) -0.086(2) 1.3381(14)
H10 H 0.302(4) -0.309(2) 1.2235(11)
H11 H 0.339(3) -0.176(2) 1.1457(12)
loop_
_geom_bond_atom_site_label_1
_geom_bond_atom_site_label_2
_geom_bond_site_symmetry_1
_geom_bond_site_symmetry_2
O1 C1 1_555 1_555
C1 C2 1_555 1_555
C2 C3 1_555 1_555
C3 C4 1_555 1_555
C4 C5 1_555 1_555
C5 C6 1_555 1_555
C6 C7 1_555 1_555
C7 C2 1_555 1_555
C8 C5 1_555 1_555
C9 C8 1_555 1_555
C10 C9 1_555 1_555
C11 C10 1_555 1_555
C12 C11 1_555 1_555
N1 C12 1_555 1_555
C13 N1 1_555 1_555
C14 C10 1_555 1_555
H1 C1 1_555 1_555
H2 C3 1_555 1_555
H3 C4 1_555 1_555
H4 C6 1_555 1_555
H5 C7 1_555 1_555
H6 C8 1_555 1_555
H7 C9 1_555 1_555
H8 C11 1_555 1_555
H9 C12 1_555 1_555
H10 C13 1_555 1_555
H11 C14 1_555 1_555
C13 C14 1_555 1_555

#END
