
#######################################################################
#
#                 Cambridge Crystallographic Data Centre
#                                CCDC 
#
#######################################################################
#
# If this CIF has been generated from an entry in the Cambridge 
# Structural Database, then it will include bibliographic, chemical, 
# crystal, experimental, refinement or atomic coordinate data resulting 
# from the CCDC's data processing and validation procedures.
#
#######################################################################

data_VIFYIT
_chemical_formula_moiety         'C24 H20 N4'
_chemical_name_systematic        
(3-(4-(Dimethylamino)phenyl)-1-((4-(dimethylamino)phenyl)ethynyl)prop-2-yn-1-ylidene)propanedinitrile
_symmetry_cell_setting           triclinic
_symmetry_space_group_name_H-M   'P -1'
_symmetry_Int_Tables_number      2
_space_group_name_Hall           '-P 1'
loop_
_symmetry_equiv_pos_site_id
_symmetry_equiv_pos_as_xyz
1 x,y,z
2 -x,-y,-z
_cell_length_a                   4.6906(8)
_cell_length_b                   9.334(2)
_cell_length_c                   23.081(7)
_cell_angle_alpha                92.75(2)
_cell_angle_beta                 93.49(2)
_cell_angle_gamma                100.928(7)
_cell_volume                     988.541
_exptl_crystal_colour            purple
_exptl_crystal_description       needle
_cell_formula_units_Z            2
loop_
_atom_site_label
_atom_site_type_symbol
_atom_site_fract_x
_atom_site_fract_y
_atom_site_fract_z
C1 C 1.542(4) 0.245(2) 0.5435(7)
N1 N 0.924(4) 0.328(2) 0.1186(9)
N2 N -0.386(3) -0.2851(17) 0.0648(5)
C2 C 1.382(4) 0.423(2) 0.2429(8)
C3 C 1.129(3) 0.317(2) 0.2228(7)
C4 C 0.999(4) 0.207(2) 0.2587(8)
C5 C 0.737(4) 0.112(3) 0.2396(9)
C6 C 1.127(4) 0.209(2) 0.3159(9)
C7 C 1.006(5) 0.328(3) 0.1653(10)
C8 C 0.545(3) 0.031(2) 0.2124(7)
C9 C 0.310(4) -0.047(2) 0.1767(8)
C10 C 0.131(4) -0.174(3) 0.1914(9)
C11 C -0.110(4) -0.250(2) 0.1572(8)
C12 C -0.164(4) -0.204(2) 0.1009(8)
C13 C 0.014(5) -0.070(3) 0.0819(10)
C14 C 0.242(4) -0.004(2) 0.1190(8)
C15 C -0.578(4) -0.404(2) 0.0831(9)
C16 C -0.437(4) -0.235(2) 0.0077(8)
C17 C 1.230(4) 0.213(2) 0.3671(8)
C18 C 1.333(4) 0.226(2) 0.4264(8)
C19 C 1.511(5) 0.166(3) 0.6441(11)
N3 N 1.644(3) 0.2633(18) 0.5991(6)
C20 C 1.893(6) 0.370(4) 0.6252(13)
N4 N 1.597(3) 0.5093(19) 0.2597(7)
C21 C 1.286(7) 0.167(4) 0.5235(15)
C22 C 1.642(6) 0.341(3) 0.5024(13)
C23 C 1.565(5) 0.318(3) 0.4456(11)
C24 C 1.200(9) 0.152(5) 0.4632(18)
H1 H 0.1659 -0.2164 0.2276
H2 H -0.2431 -0.3276 0.1728
H3 H -0.0392 -0.0381 0.0445
H4 H 0.3601 0.0817 0.1054
H5 H -0.7204 -0.4442 0.0521
H6 H -0.6742 -0.3726 0.1157
H7 H -0.4699 -0.4765 0.0946
H8 H -0.5987 -0.2993 -0.0132
H9 H -0.2665 -0.2313 -0.0136
H10 H -0.4799 -0.1391 0.0125
H11 H 1.6084 0.1947 0.6818
H12 H 1.5330 0.0682 0.6329
H13 H 1.3080 0.1685 0.6453
H14 H 1.9161 0.3566 0.6661
H15 H 1.8502 0.4654 0.6197
H16 H 2.0695 0.3619 0.6076
H17 H 1.1681 0.1158 0.5515
H18 H 1.8180 0.4115 0.5119
H19 H 1.6527 0.3882 0.4196
H20 H 0.9970 0.1137 0.4537
loop_
_geom_bond_atom_site_label_1
_geom_bond_atom_site_label_2
_geom_bond_site_symmetry_1
_geom_bond_site_symmetry_2
C1 N3 1_555 1_555
N1 C7 1_555 1_555
N2 C12 1_555 1_555
C2 C3 1_555 1_555
C3 C4 1_555 1_555
C4 C5 1_555 1_555
C5 C8 1_555 1_555
C6 C4 1_555 1_555
C7 C3 1_555 1_555
C8 C9 1_555 1_555
C9 C10 1_555 1_555
C10 C11 1_555 1_555
C11 C12 1_555 1_555
C12 C13 1_555 1_555
C13 C14 1_555 1_555
C14 C9 1_555 1_555
C15 N2 1_555 1_555
C16 N2 1_555 1_555
C17 C6 1_555 1_555
C18 C17 1_555 1_555
C19 N3 1_555 1_555
N3 C20 1_555 1_555
C20 H14 1_555 1_555
N4 C2 1_555 1_555
C21 C1 1_555 1_555
C22 C1 1_555 1_555
C23 C18 1_555 1_555
C24 C18 1_555 1_555
H1 C10 1_555 1_555
H2 C11 1_555 1_555
H3 C13 1_555 1_555
H4 C14 1_555 1_555
H5 C15 1_555 1_555
H6 C15 1_555 1_555
H7 C15 1_555 1_555
H8 C16 1_555 1_555
H9 C16 1_555 1_555
H10 C16 1_555 1_555
H11 C19 1_555 1_555
H12 C19 1_555 1_555
H13 C19 1_555 1_555
H15 C20 1_555 1_555
H16 C20 1_555 1_555
H17 C21 1_555 1_555
H18 C22 1_555 1_555
H19 C23 1_555 1_555
H20 C24 1_555 1_555
C21 C24 1_555 1_555
C22 C23 1_555 1_555

#END
