
#######################################################################
#
#                 Cambridge Crystallographic Data Centre
#                                CCDC 
#
#######################################################################
#
# If this CIF has been generated from an entry in the Cambridge 
# Structural Database, then it will include bibliographic, chemical, 
# crystal, experimental, refinement or atomic coordinate data resulting 
# from the CCDC's data processing and validation procedures.
#
#######################################################################

data_VIFZUG
_chemical_formula_moiety         'C31 H33 N5'
_chemical_name_systematic        
2-((2Z,4E)-5-(4-(Dimethylamino)phenyl)-3-(4-(dimethylamino)phenylethynyl)-5-(piperidin-1-yl)penta-2,4-dienylidene)malononitrile
_symmetry_cell_setting           monoclinic
_symmetry_space_group_name_H-M   'P 21/a'
_symmetry_Int_Tables_number      14
_space_group_name_Hall           '-P 2yab'
loop_
_symmetry_equiv_pos_site_id
_symmetry_equiv_pos_as_xyz
1 x,y,z
2 1/2-x,1/2+y,-z
3 -x,-y,-z
4 1/2+x,1/2-y,z
_cell_length_a                   10.5451(2)
_cell_length_b                   17.8462(4)
_cell_length_c                   14.5745(3)
_cell_angle_alpha                90
_cell_angle_beta                 102.1446(11)
_cell_angle_gamma                90
_cell_volume                     2681.39
_exptl_crystal_colour            'dark brown'
_exptl_crystal_description       cube
_chemical_melting_point          '255-256 deg.C'
_cell_formula_units_Z            4
loop_
_atom_site_label
_atom_site_type_symbol
_atom_site_fract_x
_atom_site_fract_y
_atom_site_fract_z
C1 C 0.31281(15) 0.31474(8) 0.37855(11)
C2 C 0.51909(14) 0.25937(8) 0.20722(10)
C3 C 0.49401(15) 0.18535(8) 0.17956(10)
C4 C 0.53276(16) 0.35274(9) 0.44215(11)
C5 C 0.40362(15) 0.34621(8) 0.45325(10)
C6 C 0.47939(14) 0.29206(8) 0.29019(10)
C7 C 0.43586(15) 0.12685(8) 0.32292(11)
C8 C 0.40464(17) 0.16208(9) 0.56165(11)
C9 C 0.32322(16) 0.07861(9) 0.66773(11)
C10 C 0.37153(18) 0.14887(9) 0.64694(11)
C11 C 0.34263(17) 0.03695(9) 0.51330(11)
C12 C 0.56817(16) 0.32704(9) 0.36192(11)
C13 C 0.45145(14) 0.12474(8) 0.22806(10)
N1 N 0.36604(14) 0.36870(9) 0.53394(10)
C14 C 0.39016(15) 0.10678(8) 0.49210(10)
N2 N 0.58325(13) 0.30543(7) 0.15755(9)
C15 C 0.41775(15) 0.11903(8) 0.40161(10)
C16 C 0.35159(15) 0.28776(8) 0.30025(11)
C17 C 0.42457(16) 0.05675(9) 0.17844(11)
C18 C 0.31034(17) 0.02290(9) 0.59828(12)
C19 C 0.37847(17) -0.00787(9) 0.21228(11)
C20 C 0.64075(17) 0.27838(10) 0.08040(11)
C21 C 0.37075(19) -0.08025(10) 0.06789(12)
N3 N 0.29061(16) 0.06458(9) 0.75244(10)
C22 C 0.35015(19) -0.07371(9) 0.16116(12)
C23 C 0.56267(19) 0.38666(9) 0.15325(13)
C24 C 0.24036(19) 0.34688(11) 0.54972(14)
C25 C 0.4715(2) 0.40632(13) 0.06024(16)
C26 C 0.5521(2) 0.29479(12) -0.01425(12)
N4 N 0.3881(2) -0.08573(10) -0.00729(11)
C27 C 0.2344(2) -0.00721(13) 0.76980(15)
C28 C 0.2975(3) -0.13799(11) 0.19590(14)
C29 C 0.4623(3) 0.3963(2) 0.61259(16)
N5 N 0.2521(3) -0.19029(12) 0.22162(15)
C30 C 0.5236(3) 0.37862(13) -0.02305(16)
C31 C 0.2961(3) 0.12243(14) 0.82211(15)
H1 H 0.5252(17) 0.4039(10) 0.2091(12)
H2 H 0.4386(18) 0.2120(11) 0.5507(13)
H3 H 0.653(2) 0.3327(11) 0.3559(14)
H4 H 0.4389(17) 0.0556(10) 0.1106(12)
H5 H 0.597(2) 0.2750(11) -0.0658(15)
H6 H 0.6645(16) 0.2214(10) 0.0899(12)
H7 H 0.5084(16) 0.1740(9) 0.1182(12)
H8 H 0.7228(19) 0.3088(10) 0.0843(13)
H9 H 0.648(2) 0.4105(11) 0.1540(13)
H10 H 0.332(2) -0.0049(11) 0.4652(14)
H11 H 0.468(2) 0.2676(12) -0.0183(15)
H12 H 0.3584(19) -0.0081(10) 0.2741(14)
H13 H 0.377(3) 0.1542(15) 0.8276(18)
H14 H 0.3798(19) 0.1896(11) 0.6949(14)
H15 H 0.228(2) 0.3673(13) 0.6063(18)
H16 H 0.2242(19) 0.3121(10) 0.3842(13)
H17 H 0.2731(19) -0.0260(11) 0.6067(14)
H18 H 0.231(4) 0.160(2) 0.811(2)
H19 H 0.384(2) 0.3820(13) 0.0612(16)
H20 H 0.226(2) 0.2951(14) 0.5478(16)
H21 H 0.2897(18) 0.2636(10) 0.2518(13)
H22 H 0.168(2) 0.3673(12) 0.5025(15)
H23 H 0.421(3) 0.4102(16) 0.663(2)
H24 H 0.607(3) 0.4037(14) -0.0258(17)
H25 H 0.600(2) 0.3762(11) 0.4918(14)
H26 H 0.221(3) -0.0055(15) 0.834(2)
H27 H 0.458(2) 0.4609(13) 0.0584(15)
H28 H 0.288(3) 0.0999(15) 0.884(2)
H29 H 0.292(3) -0.0491(15) 0.7613(17)
H30 H 0.145(3) -0.0170(14) 0.7244(18)
H31 H 0.534(3) 0.3562(17) 0.633(2)
H32 H 0.466(3) 0.3943(14) -0.0816(19)
H33 H 0.502(4) 0.446(2) 0.593(3)
loop_
_geom_bond_atom_site_label_1
_geom_bond_atom_site_label_2
_geom_bond_site_symmetry_1
_geom_bond_site_symmetry_2
C1 C5 1_555 1_555
C2 C3 1_555 1_555
C3 C13 1_555 1_555
C4 C5 1_555 1_555
C5 N1 1_555 1_555
C6 C2 1_555 1_555
C7 C13 1_555 1_555
C8 C10 1_555 1_555
C9 C10 1_555 1_555
C10 H14 1_555 1_555
C11 C14 1_555 1_555
C12 C4 1_555 1_555
C13 C17 1_555 1_555
N1 C24 1_555 1_555
C14 C8 1_555 1_555
N2 C2 1_555 1_555
C15 C7 1_555 1_555
C16 C1 1_555 1_555
C17 C19 1_555 1_555
C18 C9 1_555 1_555
C19 C22 1_555 1_555
C20 N2 1_555 1_555
C21 C22 1_555 1_555
N3 C9 1_555 1_555
C22 C28 1_555 1_555
C23 N2 1_555 1_555
C24 H15 1_555 1_555
C25 C23 1_555 1_555
C26 C20 1_555 1_555
N4 C21 1_555 1_555
C27 N3 1_555 1_555
C28 N5 1_555 1_555
C29 N1 1_555 1_555
C30 C25 1_555 1_555
C31 N3 1_555 1_555
H1 C23 1_555 1_555
H2 C8 1_555 1_555
H3 C12 1_555 1_555
H4 C17 1_555 1_555
H5 C26 1_555 1_555
H6 C20 1_555 1_555
H7 C3 1_555 1_555
H8 C20 1_555 1_555
H9 C23 1_555 1_555
H10 C11 1_555 1_555
H11 C26 1_555 1_555
H12 C19 1_555 1_555
H13 C31 1_555 1_555
H16 C1 1_555 1_555
H17 C18 1_555 1_555
H18 C31 1_555 1_555
H19 C25 1_555 1_555
H20 C24 1_555 1_555
H21 C16 1_555 1_555
H22 C24 1_555 1_555
H23 C29 1_555 1_555
H24 C30 1_555 1_555
H25 C4 1_555 1_555
H26 C27 1_555 1_555
H27 C25 1_555 1_555
H28 C31 1_555 1_555
H29 C27 1_555 1_555
H30 C27 1_555 1_555
H31 C29 1_555 1_555
H32 C30 1_555 1_555
H33 C29 1_555 1_555
C6 C12 1_555 1_555
C6 C16 1_555 1_555
C11 C18 1_555 1_555
C14 C15 1_555 1_555
C26 C30 1_555 1_555

#END
