
#######################################################################
#
#                 Cambridge Crystallographic Data Centre
#                                CCDC 
#
#######################################################################
#
# If this CIF has been generated from an entry in the Cambridge 
# Structural Database, then it will include bibliographic, chemical, 
# crystal, experimental, refinement or atomic coordinate data resulting 
# from the CCDC's data processing and validation procedures.
#
#######################################################################

data_VIFZIU
_chemical_formula_moiety         'C34 H22 N6'
_chemical_name_systematic        
5-(1,5-bis(4-Dimethylaminophenyl)penta-1,4-diyn-3-ylidene)nona-1,8-dien-3,6-diyne-1,1,9,9-tetracarbonitrile
_symmetry_cell_setting           triclinic
_symmetry_space_group_name_H-M   'P -1'
_symmetry_Int_Tables_number      2
_space_group_name_Hall           '-P 1'
loop_
_symmetry_equiv_pos_site_id
_symmetry_equiv_pos_as_xyz
1 x,y,z
2 -x,-y,-z
_cell_length_a                   7.5895(4)
_cell_length_b                   13.5378(5)
_cell_length_c                   15.1111(7)
_cell_angle_alpha                112.991(3)
_cell_angle_beta                 91.743(2)
_cell_angle_gamma                99.044(2)
_cell_volume                     1404.28
_exptl_crystal_colour            'dark brown'
_exptl_crystal_description       needle
_chemical_melting_point          'above 247 deg.C.(dec.)'
_cell_formula_units_Z            2
loop_
_atom_site_label
_atom_site_type_symbol
_atom_site_fract_x
_atom_site_fract_y
_atom_site_fract_z
N1 N 0.7422(4) 0.8250(2) 0.4083(2)
N2 N 0.7045(4) 0.5896(2) 0.5450(2)
N3 N 0.2936(5) 0.6307(2) -0.2491(2)
N4 N 0.5804(4) 0.9655(2) -0.1258(2)
N5 N -0.0604(3) 0.0093(2) 0.26554(18)
N6 N -0.3248(4) 0.2075(2) -0.53262(18)
C1 C 0.6124(4) 0.6341(2) 0.40086(18)
C2 C 0.5001(4) 0.5573(2) 0.32650(19)
C3 C 0.4462(4) 0.5638(2) 0.24003(19)
C4 C 0.3909(4) 0.5559(2) 0.16137(19)
C5 C 0.3224(3) 0.5397(2) 0.06709(18)
C6 C 0.3709(4) 0.6230(2) 0.03446(18)
C7 C 0.4182(4) 0.6973(2) 0.0103(2)
C8 C 0.4800(4) 0.7878(3) -0.0112(2)
C9 C 0.4587(4) 0.7918(2) -0.0986(2)
C10 C 0.1111(4) 0.2989(2) 0.0853(2)
C11 C 0.1570(4) 0.3637(2) 0.05020(19)
C12 C 0.2075(3) 0.4423(2) 0.01151(18)
C13 C 0.1332(4) 0.4164(2) -0.08344(19)
C14 C 0.0573(4) 0.3841(2) -0.1640(2)
C15 C 0.5278(4) 0.8890(2) -0.1128(2)
C16 C 0.3673(4) 0.7017(2) -0.1817(2)
C17 C 0.6639(4) 0.6111(2) 0.4819(2)
C18 C 0.6860(4) 0.7389(3) 0.4036(2)
C19 C 0.0640(4) 0.2251(2) 0.1299(2)
C20 C -0.0527(4) 0.1246(2) 0.0815(2)
C21 C -0.0943(4) 0.0540(2) 0.1260(2)
C22 C -0.0196(4) 0.0795(2) 0.2212(2)
C23 C 0.0945(4) 0.1808(2) 0.2695(2)
C24 C 0.1345(4) 0.2517(3) 0.2253(2)
C25 C -0.1782(6) -0.0957(3) 0.2145(3)
C26 C 0.0245(5) 0.0350(3) 0.3611(2)
C27 C -0.0378(4) 0.3417(2) -0.25739(19)
C28 C -0.0258(4) 0.3992(3) -0.3166(2)
C29 C -0.1200(4) 0.3554(3) -0.4073(2)
C30 C -0.2300(4) 0.2514(2) -0.44299(19)
C31 C -0.2432(4) 0.1944(2) -0.3824(2)
C32 C -0.1499(4) 0.2387(3) -0.2920(2)
C33 C -0.3063(6) 0.2639(4) -0.5971(3)
C34 C -0.4181(6) 0.0953(3) -0.5731(3)
H1 H -0.115(4) 0.396(3) -0.449(2)
H2 H -0.101(4) 0.106(3) 0.014(2)
H3 H -0.184(5) -0.019(3) 0.090(3)
H4 H 0.213(5) 0.327(3) 0.261(3)
H5 H 0.148(4) 0.199(3) 0.336(2)
H6 H 0.456(4) 0.488(3) 0.332(2)
H7 H -0.160(4) 0.196(3) -0.249(2)
H8 H 0.531(5) 0.853(3) 0.044(3)
H9 H 0.057(4) 0.474(3) -0.293(2)
H10 H -0.479(6) 0.077(4) -0.640(3)
H11 H -0.524(5) 0.088(3) -0.540(3)
H12 H -0.329(5) 0.119(3) -0.407(2)
H13 H -0.339(6) 0.041(4) -0.574(3)
H14 H -0.198(5) -0.129(3) 0.252(3)
H15 H 0.154(6) 0.043(3) 0.363(3)
H16 H -0.300(6) -0.087(3) 0.198(3)
H17 H -0.306(5) 0.341(4) -0.563(3)
H18 H -0.137(5) -0.140(3) 0.153(3)
H19 H -0.016(4) -0.027(3) 0.379(2)
H20 H -0.184(6) 0.272(4) -0.615(3)
H21 H -0.003(5) 0.108(4) 0.412(3)
H22 H -0.407(8) 0.223(5) -0.655(4)
loop_
_geom_bond_atom_site_label_1
_geom_bond_atom_site_label_2
_geom_bond_site_symmetry_1
_geom_bond_site_symmetry_2
N1 C18 1_555 1_555
N2 C17 1_555 1_555
N3 C16 1_555 1_555
N4 C15 1_555 1_555
N5 C22 1_555 1_555
N6 C30 1_555 1_555
C1 C2 1_555 1_555
C2 C3 1_555 1_555
C3 C4 1_555 1_555
C4 C5 1_555 1_555
C5 C6 1_555 1_555
C6 C7 1_555 1_555
C7 C8 1_555 1_555
C8 C9 1_555 1_555
C9 C15 1_555 1_555
C10 C11 1_555 1_555
C11 C12 1_555 1_555
C12 C5 1_555 1_555
C13 C12 1_555 1_555
C14 C13 1_555 1_555
C16 C9 1_555 1_555
C17 C1 1_555 1_555
C18 C1 1_555 1_555
C19 C10 1_555 1_555
C20 C19 1_555 1_555
C21 C20 1_555 1_555
C22 C21 1_555 1_555
C23 C22 1_555 1_555
C24 C19 1_555 1_555
C25 N5 1_555 1_555
C26 N5 1_555 1_555
C27 C14 1_555 1_555
C28 C27 1_555 1_555
C29 C28 1_555 1_555
C30 C29 1_555 1_555
C31 C30 1_555 1_555
C32 C27 1_555 1_555
C33 N6 1_555 1_555
C34 N6 1_555 1_555
H1 C29 1_555 1_555
H2 C20 1_555 1_555
H3 C21 1_555 1_555
H4 C24 1_555 1_555
H5 C23 1_555 1_555
H6 C2 1_555 1_555
H7 C32 1_555 1_555
H8 C8 1_555 1_555
H9 C28 1_555 1_555
H10 C34 1_555 1_555
H11 C34 1_555 1_555
H12 C31 1_555 1_555
H13 C34 1_555 1_555
H14 C25 1_555 1_555
H15 C26 1_555 1_555
H16 C25 1_555 1_555
H17 C33 1_555 1_555
H18 C25 1_555 1_555
H19 C26 1_555 1_555
H20 C33 1_555 1_555
H21 C26 1_555 1_555
H22 C33 1_555 1_555
C23 C24 1_555 1_555
C31 C32 1_555 1_555

#END
