
#######################################################################
#
#                 Cambridge Crystallographic Data Centre
#                                CCDC 
#
#######################################################################
#
# If this CIF has been generated from an entry in the Cambridge 
# Structural Database, then it will include bibliographic, chemical, 
# crystal, experimental, refinement or atomic coordinate data resulting 
# from the CCDC's data processing and validation procedures.
#
#######################################################################

data_VIFZOB
_chemical_formula_moiety         'C66 F14,C1 D1 Cl3'
_chemical_name_systematic        
'1,7-bis(Heptafluoropropyl)-C60fullerene deuterochloroform solvate'
_symmetry_cell_setting           orthorhombic
_symmetry_space_group_name_H-M   'P n m a'
_symmetry_Int_Tables_number      62
_space_group_name_Hall           '-P 2ac 2n'
loop_
_symmetry_equiv_pos_site_id
_symmetry_equiv_pos_as_xyz
1 x,y,z
2 1/2-x,-y,1/2+z
3 -x,1/2+y,-z
4 1/2+x,1/2-y,1/2-z
5 -x,-y,-z
6 1/2+x,y,1/2-z
7 x,1/2-y,z
8 1/2-x,1/2+y,1/2+z
_cell_length_a                   9.9798(5)
_cell_length_b                   16.4442(10)
_cell_length_c                   24.1424(14)
_cell_angle_alpha                90
_cell_angle_beta                 90
_cell_angle_gamma                90
_cell_volume                     3962.01
_exptl_crystal_colour            yellow
_exptl_crystal_description       needle
_cell_formula_units_Z            4
_exptl_crystal_recrystallization_method deuterochloroform
loop_
_atom_site_label
_atom_site_type_symbol
_atom_site_fract_x
_atom_site_fract_y
_atom_site_fract_z
C1 C 0.2969(6) 0.1559(3) 0.4215(2)
C2 C 0.2963(7) 0.0911(3) 0.4681(2)
C3 C 0.4230(6) 0.0952(4) 0.4967(2)
C4 C 0.4953(6) 0.1653(4) 0.4801(2)
C5 C 0.4182(6) 0.2079(4) 0.4394(2)
C6 C 0.1714(6) 0.2082(3) 0.4256(2)
C7 C 0.0541(6) 0.1791(4) 0.4542(2)
C8 C 0.0588(6) 0.1101(4) 0.4872(2)
C9 C 0.1830(7) 0.0680(3) 0.4943(3)
C10 C 0.1890(8) 0.0409(3) 0.5516(3)
C11 C 0.3098(8) 0.0397(3) 0.5793(3)
C12 C 0.4274(7) 0.0670(4) 0.5532(3)
C13 C 0.5101(6) 0.1111(4) 0.5910(3)
C14 C 0.5821(6) 0.1792(4) 0.5754(3)
C15 C 0.5749(6) 0.2081(4) 0.5188(3)
C16 C -0.0226(9) 0.2500 0.4715(4)
C17 C -0.0890(8) 0.2500 0.5207(4)
C18 C -0.0866(5) 0.1788(4) 0.5563(3)
C19 C -0.0139(6) 0.1106(4) 0.5402(2)
C20 C 0.0677(7) 0.0671(4) 0.5780(3)
C21 C 0.0725(6) 0.0943(4) 0.6341(2)
C22 C 0.2014(7) 0.0926(3) 0.6623(2)
C23 C 0.3157(7) 0.0669(4) 0.6371(3)
C24 C 0.4372(7) 0.1093(4) 0.6434(3)
C25 C 0.4434(6) 0.1784(4) 0.6780(2)
C26 C 0.5169(9) 0.2500 0.6609(4)
C27 C 0.5851(8) 0.2500 0.6116(4)
C28 C -0.0800(6) 0.2076(5) 0.6130(3)
C29 C -0.0013(6) 0.1643(4) 0.6511(2)
C30 C 0.0816(6) 0.2076(4) 0.6913(2)
C31 C 0.2045(6) 0.1651(3) 0.6982(2)
C32 C 0.3240(6) 0.2050(4) 0.7052(2)
C33 C 0.3229(6) 0.1172(3) 0.3639(2)
C34 C 0.2206(6) 0.0543(4) 0.3445(2)
C35 C 0.2281(6) 0.0301(3) 0.2826(3)
F1 F 0.3308(5) 0.1745(2) 0.32500(14)
F2 F 0.4378(3) 0.0769(2) 0.36421(14)
F3 F 0.0894(4) 0.0801(2) 0.35576(15)
F4 F 0.2370(4) -0.0151(2) 0.37328(14)
F5 F 0.1773(6) 0.0923(3) 0.25206(18)
F6 F 0.3454(5) 0.0162(4) 0.2658(2)
F7 F 0.1448(5) -0.0306(3) 0.2737(2)
C1F C 0.2969(6) 0.3441(3) 0.4215(2)
C2F C 0.2963(7) 0.4089(3) 0.4681(2)
C3F C 0.4230(6) 0.4048(4) 0.4967(2)
C4F C 0.4953(6) 0.3347(4) 0.4801(2)
C5F C 0.4182(6) 0.2921(4) 0.4394(2)
C6F C 0.1714(6) 0.2918(3) 0.4256(2)
C7F C 0.0541(6) 0.3209(4) 0.4542(2)
C8F C 0.0588(6) 0.3899(4) 0.4872(2)
C9F C 0.1830(7) 0.4320(3) 0.4943(3)
C10F C 0.1890(8) 0.4591(3) 0.5516(3)
C11F C 0.3098(8) 0.4603(3) 0.5793(3)
C12F C 0.4274(7) 0.4330(4) 0.5532(3)
C13F C 0.5101(6) 0.3889(4) 0.5910(3)
C14F C 0.5821(6) 0.3208(4) 0.5754(3)
C15F C 0.5749(6) 0.2919(4) 0.5188(3)
C18F C -0.0866(5) 0.3212(4) 0.5563(3)
C19F C -0.0139(6) 0.3894(4) 0.5402(2)
C20F C 0.0677(7) 0.4329(4) 0.5780(3)
C21F C 0.0725(6) 0.4057(4) 0.6341(2)
C22F C 0.2014(7) 0.4074(3) 0.6623(2)
C23F C 0.3157(7) 0.4331(4) 0.6371(3)
C24F C 0.4372(7) 0.3907(4) 0.6434(3)
C25F C 0.4434(6) 0.3216(4) 0.6780(2)
C28F C -0.0800(6) 0.2924(5) 0.6130(3)
C29F C -0.0013(6) 0.3357(4) 0.6511(2)
C30F C 0.0816(6) 0.2924(4) 0.6913(2)
C31F C 0.2045(6) 0.3349(3) 0.6982(2)
C32F C 0.3240(6) 0.2950(4) 0.7052(2)
C33F C 0.3229(6) 0.3828(3) 0.3639(2)
C34F C 0.2206(6) 0.4457(4) 0.3445(2)
C35F C 0.2281(6) 0.4699(3) 0.2826(3)
F1F F 0.3308(5) 0.3255(2) 0.32500(14)
F2F F 0.4378(3) 0.4231(2) 0.36421(14)
F3F F 0.0894(4) 0.4199(2) 0.35576(15)
F4F F 0.2370(4) 0.5151(2) 0.37328(14)
F5F F 0.1773(6) 0.4077(3) 0.25206(18)
F6F F 0.3454(5) 0.4838(4) 0.2658(2)
F7F F 0.1448(5) 0.5306(3) 0.2737(2)
C36 C 0.2667(9) 0.2500 0.1672(4)
Cl1 Cl 0.4344(3) 0.2500 0.19637(12)
Cl2 Cl 0.24961(17) 0.16150(12) 0.12696(7)
Cl2F Cl 0.24961(17) 0.33850(12) 0.12696(7)
C37? C 0.180(4) 0.121(2) 0.3638(13)
F8? F 0.334(2) -0.0240(14) 0.2818(9)
F9? F 0.306(3) 0.0732(14) 0.2485(7)
F10? F 0.124(2) 0.0014(17) 0.2601(11)
F11? F 0.176(3) 0.1749(13) 0.3232(8)
Cl3? Cl 0.093(2) 0.2500 0.1945(11)
C38? C 0.329(4) 0.204(3) 0.4254(14)
C39? C 0.204(4) 0.155(2) 0.4215(14)
C40? C 0.189(4) 0.095(2) 0.4644(18)
C41? C 0.323(3) 0.0655(19) 0.4992(13)
C42? C 0.185(4) 0.041(2) 0.5798(18)
C43? C 0.088(4) 0.066(2) 0.5455(17)
C44? C -0.016(4) 0.114(2) 0.5852(16)
C45? C 0.171(3) 0.066(2) 0.6290(14)
C46? C 0.306(6) 0.101(3) 0.662(2)
C47? C 0.518(5) 0.170(3) 0.641(2)
C48? C 0.426(4) 0.069(2) 0.5876(18)
C49? C 0.516(3) 0.115(2) 0.5419(14)
C50? C 0.316(4) 0.042(3) 0.548(2)
C51? C -0.014(6) 0.2500 0.658(3)
C52? C -0.021(5) 0.173(3) 0.4886(19)
C53? C 0.523(7) 0.2500 0.475(3)
loop_
_geom_bond_atom_site_label_1
_geom_bond_atom_site_label_2
_geom_bond_site_symmetry_1
_geom_bond_site_symmetry_2
C1 C2 1_555 1_555
C2 C3 1_555 1_555
C3 C4 1_555 1_555
C4 C5 1_555 1_555
C5 C1 1_555 1_555
C6 C1 1_555 1_555
C7 C6 1_555 1_555
C8 C7 1_555 1_555
C9 C2 1_555 1_555
C10 C9 1_555 1_555
C11 C10 1_555 1_555
C12 C3 1_555 1_555
C13 C12 1_555 1_555
C14 C13 1_555 1_555
C15 C4 1_555 1_555
C16 C7 1_555 1_555
C17 C16 1_555 1_555
C18 C17 1_555 1_555
C19 C8 1_555 1_555
C20 C10 1_555 1_555
C21 C20 1_555 1_555
C22 C21 1_555 1_555
C23 C11 1_555 1_555
C24 C13 1_555 1_555
C25 C24 1_555 1_555
C26 C25 1_555 1_555
C27 C14 1_555 1_555
C28 C18 1_555 1_555
C29 C21 1_555 1_555
C30 C29 1_555 1_555
C31 C22 1_555 1_555
C32 C25 1_555 1_555
C33 C1 1_555 1_555
C34 C33 1_555 1_555
C35 C34 1_555 1_555
F1 C33 1_555 1_555
F2 C33 1_555 1_555
F3 C34 1_555 1_555
F4 C34 1_555 1_555
F5 C35 1_555 1_555
F6 C35 1_555 1_555
F7 C35 1_555 1_555
C36 Cl1 1_555 1_555
Cl2 C36 1_555 1_555
C1F C2F 1_555 1_555
C2F C3F 1_555 1_555
C3F C4F 1_555 1_555
C4F C5F 1_555 1_555
C5F C5 1_555 1_555
C6F C6 1_555 1_555
C7F C16 1_555 1_555
C8F C7F 1_555 1_555
C9F C2F 1_555 1_555
C10F C9F 1_555 1_555
C11F C10F 1_555 1_555
C12F C3F 1_555 1_555
C13F C12F 1_555 1_555
C14F C27 1_555 1_555
C15F C15 1_555 1_555
C18F C17 1_555 1_555
C19F C8F 1_555 1_555
C20F C10F 1_555 1_555
C21F C20F 1_555 1_555
C22F C21F 1_555 1_555
C23F C11F 1_555 1_555
C24F C13F 1_555 1_555
C25F C26 1_555 1_555
C28F C28 1_555 1_555
C29F C21F 1_555 1_555
C30F C30 1_555 1_555
C31F C22F 1_555 1_555
C32F C32 1_555 1_555
C33F C1F 1_555 1_555
C34F C33F 1_555 1_555
C35F C34F 1_555 1_555
F1F C33F 1_555 1_555
F2F C33F 1_555 1_555
F3F C34F 1_555 1_555
F4F C34F 1_555 1_555
F5F C35F 1_555 1_555
F6F C35F 1_555 1_555
F7F C35F 1_555 1_555
Cl2F C36 1_555 1_555
C8 C9 1_555 1_555
C11 C12 1_555 1_555
C14 C15 1_555 1_555
C18 C19 1_555 1_555
C19 C20 1_555 1_555
C22 C23 1_555 1_555
C23 C24 1_555 1_555
C26 C27 1_555 1_555
C28 C29 1_555 1_555
C30 C31 1_555 1_555
C31 C32 1_555 1_555
C1F C5F 1_555 1_555
C1F C6F 1_555 1_555
C4F C15F 1_555 1_555
C6F C7F 1_555 1_555
C8F C9F 1_555 1_555
C11F C12F 1_555 1_555
C13F C14F 1_555 1_555
C14F C15F 1_555 1_555
C18F C19F 1_555 1_555
C18F C28F 1_555 1_555
C19F C20F 1_555 1_555
C22F C23F 1_555 1_555
C23F C24F 1_555 1_555
C24F C25F 1_555 1_555
C25F C32F 1_555 1_555
C28F C29F 1_555 1_555
C29F C30F 1_555 1_555
C30F C31F 1_555 1_555
C31F C32F 1_555 1_555

#END
