
#######################################################################
#
#                 Cambridge Crystallographic Data Centre
#                                CCDC 
#
#######################################################################
#
# If this CIF has been generated from an entry in the Cambridge 
# Structural Database, then it will include bibliographic, chemical, 
# crystal, experimental, refinement or atomic coordinate data resulting 
# from the CCDC's data processing and validation procedures.
#
#######################################################################

data_VIGDAR01
_chemical_name_common            'Celecoxib Nicotinamide'
_chemical_formula_moiety         'C17 H14 F3 N3 O2 S1,C6 H6 N2 O1'
_chemical_name_systematic        
'4-[5-(4-methylphenyl)-3-(trifluoromethyl)-1H-pyrazol-1-yl]benzene-1-sulfonamide pyridine-3-carboxamide'
_symmetry_cell_setting           monoclinic
_symmetry_space_group_name_H-M   'P 21/n'
_symmetry_Int_Tables_number      14
_space_group_name_Hall           '-P 2yn'
loop_
_symmetry_equiv_pos_site_id
_symmetry_equiv_pos_as_xyz
1 x,y,z
2 1/2-x,1/2+y,1/2-z
3 -x,-y,-z
4 1/2+x,1/2-y,1/2+z
_cell_length_a                   5.1077(3)
_cell_length_b                   9.8609(5)
_cell_length_c                   46.021(2)
_cell_angle_alpha                90
_cell_angle_beta                 91.1948(19)
_cell_angle_gamma                90
_cell_volume                     2317.41
_exptl_crystal_colour            colorless
_exptl_crystal_description       needle
_cell_formula_units_Z            4
_exptl_crystal_recrystallization_method chloroform
loop_
_atom_site_label
_atom_site_type_symbol
_atom_site_fract_x
_atom_site_fract_y
_atom_site_fract_z
S1 S 0.80954(11) 0.43844(6) 0.95821(2)
O1 O 1.0699(3) 0.38710(18) 0.96223(4)
O2 O 0.7593(3) 0.57938(16) 0.96349(4)
N1 N 0.4823(4) 0.3464(2) 0.83460(4)
N2 N 0.3747(4) 0.4571(2) 0.82130(4)
N3 N 0.6235(4) 0.3531(2) 0.97903(4)
H1 H 0.467(6) 0.376(3) 0.9774(6)
H2 H 0.651(5) 0.261(3) 0.9772(6)
C1 C 0.3466(5) 0.4192(3) 0.79372(5)
C2 C 0.4342(5) 0.2874(3) 0.78880(5)
H3 H 0.4343 0.2398 0.7709
C3 C 0.5204(5) 0.2415(3) 0.81551(5)
C4 C 0.2292(6) 0.5162(3) 0.77241(6)
C5 C 0.6141(5) 0.1044(2) 0.82334(5)
C6 C 0.4967(5) 0.0297(3) 0.84523(5)
H4 H 0.3591 0.0686 0.8560
C7 C 0.5801(5) -0.1009(3) 0.85124(5)
H5 H 0.4977 -0.1509 0.8661
C8 C 0.7821(5) -0.1610(3) 0.83597(5)
C9 C 0.8962(5) -0.0858(3) 0.81401(6)
H6 H 1.0335 -0.1248 0.8032
C10 C 0.8133(5) 0.0446(3) 0.80769(5)
H7 H 0.8933 0.0939 0.7925
C11 C 0.8734(6) -0.3022(3) 0.84299(6)
H8 H 1.0572 -0.3121 0.8377
H9 H 0.7663 -0.3678 0.8320
H10 H 0.8562 -0.3190 0.8639
C12 C 0.5613(5) 0.3622(2) 0.86440(5)
C13 C 0.7773(5) 0.2943(2) 0.87605(5)
H11 H 0.8730 0.2331 0.8644
C14 C 0.8529(5) 0.3162(2) 0.90490(5)
H12 H 0.9984 0.2689 0.9131
C15 C 0.7143(4) 0.4077(2) 0.92153(5)
C16 C 0.4992(5) 0.4767(2) 0.90976(5)
H13 H 0.4064 0.5396 0.9213
C17 C 0.4206(5) 0.4534(2) 0.88115(5)
H14 H 0.2724 0.4991 0.8731
F1 F 0.3324(6) 0.6382(2) 0.77416(6)
F2 F -0.0232(5) 0.5364(3) 0.77600(4)
F3 F 0.2534(5) 0.4745(2) 0.74547(3)
N4 N 0.2202(4) 0.0377(2) 0.91037(4)
C18 C 0.4107(5) 0.0432(2) 0.93071(5)
H15 H 0.5124 0.1238 0.9320
C19 C 0.4700(4) -0.0612(2) 0.95013(5)
C20 C 0.3214(5) -0.1792(2) 0.94824(5)
H16 H 0.3544 -0.2528 0.9611
C21 C 0.1243(5) -0.1869(3) 0.92716(5)
H17 H 0.0206 -0.2665 0.9252
C22 C 0.0808(5) -0.0770(3) 0.90905(5)
H18 H -0.0561 -0.0833 0.8948
C23 C 0.6866(4) -0.0382(2) 0.97216(5)
O3 O 0.7717(3) 0.07840(17) 0.97628(4)
N5 N 0.7774(4) -0.1436(2) 0.98721(4)
H19 H 0.742(6) -0.228(3) 0.9818(6)
H20 H 0.912(6) -0.129(3) 0.9994(6)
loop_
_geom_bond_atom_site_label_1
_geom_bond_atom_site_label_2
_geom_bond_site_symmetry_1
_geom_bond_site_symmetry_2
S1 O1 1_555 1_555
O2 S1 1_555 1_555
N1 N2 1_555 1_555
N2 C1 1_555 1_555
N3 S1 1_555 1_555
H1 N3 1_555 1_555
H2 N3 1_555 1_555
C1 C2 1_555 1_555
C2 H3 1_555 1_555
C3 N1 1_555 1_555
C4 C1 1_555 1_555
C5 C3 1_555 1_555
C6 C5 1_555 1_555
H4 C6 1_555 1_555
C7 C6 1_555 1_555
H5 C7 1_555 1_555
C8 C7 1_555 1_555
C9 C8 1_555 1_555
H6 C9 1_555 1_555
C10 C5 1_555 1_555
H7 C10 1_555 1_555
C11 C8 1_555 1_555
H8 C11 1_555 1_555
H9 C11 1_555 1_555
H10 C11 1_555 1_555
C12 N1 1_555 1_555
C13 C12 1_555 1_555
H11 C13 1_555 1_555
C14 C13 1_555 1_555
H12 C14 1_555 1_555
C15 S1 1_555 1_555
C16 C15 1_555 1_555
H13 C16 1_555 1_555
C17 C12 1_555 1_555
H14 C17 1_555 1_555
F1 C4 1_555 1_555
F2 C4 1_555 1_555
F3 C4 1_555 1_555
N4 C18 1_555 1_555
C18 H15 1_555 1_555
C19 C18 1_555 1_555
C20 C19 1_555 1_555
H16 C20 1_555 1_555
C21 C20 1_555 1_555
H17 C21 1_555 1_555
C22 N4 1_555 1_555
H18 C22 1_555 1_555
C23 C19 1_555 1_555
O3 C23 1_555 1_555
N5 C23 1_555 1_555
H19 N5 1_555 1_555
H20 N5 1_555 1_555
C2 C3 1_555 1_555
C9 C10 1_555 1_555
C14 C15 1_555 1_555
C16 C17 1_555 1_555
C21 C22 1_555 1_555

#END
