
#######################################################################
#
#                 Cambridge Crystallographic Data Centre
#                                CCDC 
#
#######################################################################
#
# If this CIF has been generated from an entry in the Cambridge 
# Structural Database, then it will include bibliographic, chemical, 
# crystal, experimental, refinement or atomic coordinate data resulting 
# from the CCDC's data processing and validation procedures.
#
#######################################################################

data_VIGDIB
_chemical_name_common            isodocarpin
_chemical_formula_moiety         'C20 H26 O5'
_chemical_name_systematic        
13-hydroxy-1,1-dimethyl-7-methylidenedecahydro-5H,11H-5a,8-methanocyclohepta[c]furo[3,4-e][1]benzopyran-5,6(7H)-dione
_symmetry_cell_setting           monoclinic
_symmetry_space_group_name_H-M   'P 21/n'
_symmetry_Int_Tables_number      14
_space_group_name_Hall           '-P 2yn'
loop_
_symmetry_equiv_pos_site_id
_symmetry_equiv_pos_as_xyz
1 x,y,z
2 1/2-x,1/2+y,1/2-z
3 -x,-y,-z
4 1/2+x,1/2-y,1/2+z
_cell_length_a                   8.8567(6)
_cell_length_b                   10.8324(8)
_cell_length_c                   18.1948(14)
_cell_angle_alpha                90
_cell_angle_beta                 101.380(5)
_cell_angle_gamma                90
_cell_volume                     1711.28
_exptl_crystal_colour            colorless
_exptl_crystal_description       plate
_cell_formula_units_Z            4
_exptl_crystal_recrystallization_method 'Solvent evaporation'
loop_
_atom_site_label
_atom_site_type_symbol
_atom_site_fract_x
_atom_site_fract_y
_atom_site_fract_z
O1 O 0.7225(3) 0.4436(3) 0.19441(16)
O2 O 0.1917(3) 0.4423(3) 0.29682(16)
H1 H 0.115341 0.402034 0.304611
O3 O 0.2851(3) 0.3121(3) 0.21407(17)
O4 O 0.8926(3) 0.3441(3) 0.27695(17)
O5 O 0.7312(3) 0.2713(3) 0.39706(17)
C1 C 0.3056(4) 0.5269(4) 0.1975(2)
H2 H 0.294488 0.602918 0.227221
C2 C 0.7812(4) 0.4120(4) 0.2645(2)
C3 C 0.5342(4) 0.4948(4) 0.3096(2)
H3 H 0.483296 0.433316 0.337725
C4 C 0.2083(4) 0.4247(4) 0.2221(2)
H4 H 0.104352 0.423899 0.188426
C5 C 0.7390(4) 0.3834(4) 0.3967(2)
C6 C 0.4706(4) 0.4738(4) 0.2247(2)
C7 C 0.7139(4) 0.4666(4) 0.3276(2)
C8 C 0.5041(4) 0.6234(4) 0.3388(2)
H5 H 0.392588 0.631590 0.338228
H6 H 0.531633 0.685964 0.304061
C9 C 0.2561(4) 0.5579(4) 0.1130(2)
C10 C 0.8069(4) 0.5814(4) 0.3580(2)
H7 H 0.777939 0.653801 0.324967
H8 H 0.919043 0.566756 0.364296
C11 C 0.5885(4) 0.5273(4) 0.1821(2)
H9 H 0.622469 0.609866 0.203884
C12 C 0.5354(4) 0.5413(4) 0.0995(2)
H10 H 0.512944 0.459335 0.075887
H11 H 0.616633 0.581293 0.077475
C13 C 0.2026(5) 0.4468(4) 0.0621(2)
H12 H 0.286063 0.386111 0.066966
H13 H 0.174974 0.474517 0.009867
H14 H 0.112651 0.408881 0.076851
C14 C 0.4432(4) 0.3353(4) 0.2104(2)
H15 H 0.462832 0.312533 0.160388
H16 H 0.512699 0.286290 0.248853
C15 C 0.7620(4) 0.4673(4) 0.4626(2)
C16 C 0.3904(5) 0.6206(4) 0.0857(2)
H17 H 0.359530 0.637677 0.031307
H18 H 0.413099 0.700540 0.111847
C17 C 0.5935(5) 0.6517(4) 0.4184(2)
H19 H 0.536382 0.617116 0.455292
H20 H 0.599365 0.742263 0.425604
C18 C 0.7583(4) 0.5980(4) 0.4337(2)
H21 H 0.831797 0.652249 0.468093
C19 C 0.1214(5) 0.6483(4) 0.1051(2)
H22 H 0.036932 0.610237 0.124554
H23 H 0.085985 0.669208 0.052093
H24 H 0.155074 0.723566 0.133574
C20 C 0.7772(5) 0.4263(6) 0.5324(3)
H25 H 0.793(5) 0.492(5) 0.575(3)
H26 H 0.780(5) 0.333(5) 0.540(3)
loop_
_geom_bond_atom_site_label_1
_geom_bond_atom_site_label_2
_geom_bond_site_symmetry_1
_geom_bond_site_symmetry_2
O1 C2 1_555 1_555
O2 H1 1_555 1_555
O3 C4 1_555 1_555
O4 C2 1_555 1_555
O5 C5 1_555 1_555
C1 H2 1_555 1_555
C2 C7 1_555 1_555
C3 H3 1_555 1_555
C4 O2 1_555 1_555
H4 C4 1_555 1_555
C5 C7 1_555 1_555
C6 C1 1_555 1_555
C7 C3 1_555 1_555
C8 C3 1_555 1_555
H5 C8 1_555 1_555
H6 C8 1_555 1_555
C9 C1 1_555 1_555
C10 C7 1_555 1_555
H7 C10 1_555 1_555
H8 C10 1_555 1_555
C11 O1 1_555 1_555
H9 C11 1_555 1_555
C12 C11 1_555 1_555
H10 C12 1_555 1_555
H11 C12 1_555 1_555
C13 C9 1_555 1_555
H12 C13 1_555 1_555
H13 C13 1_555 1_555
H14 C13 1_555 1_555
C14 O3 1_555 1_555
H15 C14 1_555 1_555
H16 C14 1_555 1_555
C15 C5 1_555 1_555
C16 C9 1_555 1_555
H17 C16 1_555 1_555
H18 C16 1_555 1_555
C17 C8 1_555 1_555
H19 C17 1_555 1_555
H20 C17 1_555 1_555
C18 C10 1_555 1_555
H21 C18 1_555 1_555
C19 C9 1_555 1_555
H22 C19 1_555 1_555
H23 C19 1_555 1_555
H24 C19 1_555 1_555
C20 C15 1_555 1_555
H25 C20 1_555 1_555
H26 C20 1_555 1_555
C1 C4 1_555 1_555
C3 C6 1_555 1_555
C6 C11 1_555 1_555
C6 C14 1_555 1_555
C12 C16 1_555 1_555
C15 C18 1_555 1_555
C17 C18 1_555 1_555

#END
