
#######################################################################
#
#                 Cambridge Crystallographic Data Centre
#                                CCDC 
#
#######################################################################
#
# If this CIF has been generated from an entry in the Cambridge 
# Structural Database, then it will include bibliographic, chemical, 
# crystal, experimental, refinement or atomic coordinate data resulting 
# from the CCDC's data processing and validation procedures.
#
#######################################################################

data_VIGJAZ
_chemical_formula_moiety         'C16 H16 F3 N3 O2 S1'
_chemical_name_systematic        
1-(phenylsulfonyl)-4-[6-(trifluoromethyl)pyridin-2-yl]piperazine
_symmetry_cell_setting           monoclinic
_symmetry_space_group_name_H-M   'P 21/n'
_symmetry_Int_Tables_number      14
_space_group_name_Hall           '-P 2yn'
loop_
_symmetry_equiv_pos_site_id
_symmetry_equiv_pos_as_xyz
1 x,y,z
2 1/2-x,1/2+y,1/2-z
3 -x,-y,-z
4 1/2+x,1/2-y,1/2+z
_cell_length_a                   8.3192(3)
_cell_length_b                   19.3762(6)
_cell_length_c                   10.4706(4)
_cell_angle_alpha                90
_cell_angle_beta                 101.809(2)
_cell_angle_gamma                90
_cell_volume                     1652.08
_exptl_crystal_colour            colorless
_exptl_crystal_description       prism
_cell_formula_units_Z            4
loop_
_atom_site_label
_atom_site_type_symbol
_atom_site_fract_x
_atom_site_fract_y
_atom_site_fract_z
S1 S 0.44167(5) 0.30891(2) 0.01720(4)
F1 F 0.81578(14) 0.43873(6) 0.82831(11)
F2 F 1.03144(15) 0.42501(7) 0.74944(11)
F3 F 1.00825(16) 0.51443(7) 0.86472(11)
N1 N 0.53182(16) 0.36315(7) 0.13001(13)
N2 N 0.63061(17) 0.45419(7) 0.34316(13)
N3 N 0.77652(17) 0.46943(7) 0.55392(13)
O1 O 0.54662(15) 0.24968(6) 0.02628(13)
O2 O 0.40181(15) 0.34737(6) -0.10212(11)
C1 C 0.2599(2) 0.22972(8) 0.14984(17)
H1 H 0.3582 0.2046 0.1808
C2 C 0.1168(2) 0.21339(9) 0.19212(18)
H2 H 0.1172 0.1772 0.2534
C3 C -0.0268(2) 0.24977(9) 0.14512(18)
H3 H -0.1240 0.2385 0.1749
C4 C -0.0293(2) 0.30239(9) 0.05505(19)
H4 H -0.1287 0.3264 0.0220
C5 C 0.1135(2) 0.32014(9) 0.01289(16)
H5 H 0.1130 0.3566 -0.0479
C6 C 0.25697(18) 0.28354(8) 0.06134(15)
C7 C 0.5782(2) 0.33549(8) 0.26398(15)
H6 H 0.6284 0.2893 0.2623
H7 H 0.4795 0.3309 0.3024
C8 C 0.6998(2) 0.38443(8) 0.34547(17)
H8 H 0.7278 0.3676 0.4366
H9 H 0.8020 0.3857 0.3109
C9 C 0.5737(2) 0.48112(8) 0.21178(16)
H10 H 0.6688 0.4883 0.1698
H11 H 0.5195 0.5263 0.2163
C10 C 0.45370(19) 0.43142(8) 0.13054(16)
H12 H 0.3537 0.4275 0.1676
H13 H 0.4211 0.4489 0.0401
C11 C 0.7011(2) 0.49879(8) 0.44247(16)
C12 C 0.6932(2) 0.57157(9) 0.42794(17)
H14 H 0.6392 0.5918 0.3480
C13 C 0.7648(2) 0.61228(9) 0.53117(18)
H15 H 0.7605 0.6611 0.5231
C14 C 0.8439(2) 0.58194(9) 0.64791(17)
H16 H 0.8947 0.6089 0.7209
C15 C 0.84449(19) 0.51100(9) 0.65183(16)
C16 C 0.9253(2) 0.47259(9) 0.77269(17)
loop_
_geom_bond_atom_site_label_1
_geom_bond_atom_site_label_2
_geom_bond_site_symmetry_1
_geom_bond_site_symmetry_2
S1 N1 1_555 1_555
F1 C16 1_555 1_555
F2 C16 1_555 1_555
F3 C16 1_555 1_555
N1 C7 1_555 1_555
N2 C8 1_555 1_555
N3 C11 1_555 1_555
O1 S1 1_555 1_555
O2 S1 1_555 1_555
C1 H1 1_555 1_555
C2 C1 1_555 1_555
H2 C2 1_555 1_555
C3 C2 1_555 1_555
H3 C3 1_555 1_555
C4 C3 1_555 1_555
H4 C4 1_555 1_555
C5 C4 1_555 1_555
H5 C5 1_555 1_555
C6 S1 1_555 1_555
C7 H6 1_555 1_555
H7 C7 1_555 1_555
C8 C7 1_555 1_555
H8 C8 1_555 1_555
H9 C8 1_555 1_555
C9 N2 1_555 1_555
H10 C9 1_555 1_555
H11 C9 1_555 1_555
C10 N1 1_555 1_555
H12 C10 1_555 1_555
H13 C10 1_555 1_555
C11 N2 1_555 1_555
C12 C11 1_555 1_555
H14 C12 1_555 1_555
C13 C12 1_555 1_555
H15 C13 1_555 1_555
C14 C13 1_555 1_555
H16 C14 1_555 1_555
C15 N3 1_555 1_555
C16 C15 1_555 1_555
C1 C6 1_555 1_555
C5 C6 1_555 1_555
C9 C10 1_555 1_555
C14 C15 1_555 1_555

#END
