
#######################################################################
#
#                 Cambridge Crystallographic Data Centre
#                                CCDC 
#
#######################################################################
#
# If this CIF has been generated from an entry in the Cambridge 
# Structural Database, then it will include bibliographic, chemical, 
# crystal, experimental, refinement or atomic coordinate data resulting 
# from the CCDC's data processing and validation procedures.
#
#######################################################################

data_VIGLIH
_chemical_formula_moiety         'C20 H20 Br1 N1'
_chemical_name_systematic        
9-(2-(4-Bromophenyl)vinyl)-2,3,6,7-tetrahydro-1H,5H-pyrido(3,2,1-ij)quinoline
_symmetry_cell_setting           monoclinic
_symmetry_space_group_name_H-M   'P 21/n'
_symmetry_Int_Tables_number      14
_space_group_name_Hall           '-P 2yn'
loop_
_symmetry_equiv_pos_site_id
_symmetry_equiv_pos_as_xyz
1 x,y,z
2 1/2-x,1/2+y,1/2-z
3 -x,-y,-z
4 1/2+x,1/2-y,1/2+z
_cell_length_a                   12.0445(19)
_cell_length_b                   11.0193(17)
_cell_length_c                   12.895(2)
_cell_angle_alpha                90
_cell_angle_beta                 109.308(2)
_cell_angle_gamma                90
_cell_volume                     1615.19
_exptl_crystal_description       block
_chemical_melting_point          '125-127 deg.C'
_cell_formula_units_Z            4
_exptl_crystal_preparation       luminescent
loop_
_atom_site_label
_atom_site_type_symbol
_atom_site_fract_x
_atom_site_fract_y
_atom_site_fract_z
Br1 Br 0.60202(2) 0.32804(3) 0.06078(2)
N1 N 1.60899(17) 0.6682(2) 0.66334(17)
C1 C 1.6666(2) 0.7433(3) 0.6045(3)
H1 H 1.6834 0.6954 0.5484
H2 H 1.7406 0.7729 0.6550
C2 C 1.5902(2) 0.8484(3) 0.5523(2)
H3 H 1.6301 0.8982 0.5135
H4 H 1.5757 0.8979 0.6087
C3 C 1.4743(3) 0.8043(3) 0.4727(2)
H5 H 1.4191 0.8714 0.4541
H6 H 1.4864 0.7774 0.4056
C4 C 1.4223(2) 0.7030(2) 0.5177(2)
C5 C 1.6832(2) 0.5776(3) 0.7361(2)
H7 H 1.7586 0.6133 0.7771
H8 H 1.6972 0.5107 0.6931
C6 C 1.6242(2) 0.5316(3) 0.8142(2)
H9 H 1.6073 0.5988 0.8552
H10 H 1.6759 0.4755 0.8660
C7 C 1.5106(2) 0.4678(3) 0.7497(2)
H11 H 1.5289 0.3893 0.7254
H12 H 1.4639 0.4544 0.7972
C8 C 1.43997(19) 0.5414(2) 0.65094(19)
C9 C 1.49136(19) 0.6356(2) 0.61055(19)
C10 C 1.3058(2) 0.6696(2) 0.4669(2)
H13 H 1.2607 0.7131 0.4057
C11 C 1.32304(19) 0.5123(3) 0.59687(19)
H14 H 1.2896 0.4490 0.6240
C12 C 1.25361(19) 0.5738(3) 0.50372(19)
C13 C 1.13501(19) 0.5277(3) 0.44396(19)
H15 H 1.1100 0.4610 0.4746
C14 C 1.05960(19) 0.5708(3) 0.3510(2)
H16 H 1.0784 0.6440 0.3250
C15 C 0.94844(18) 0.5119(3) 0.28589(18)
C16 C 0.8653(2) 0.5787(3) 0.20367(19)
H17 H 0.8792 0.6601 0.1933
C17 C 0.9233(2) 0.3916(3) 0.2987(2)
H18 H 0.9771 0.3460 0.3531
C18 C 0.7621(2) 0.5241(3) 0.1375(2)
H19 H 0.7074 0.5687 0.0829
C19 C 0.8209(2) 0.3367(3) 0.2333(2)
H20 H 0.8059 0.2555 0.2433
C20 C 0.74144(19) 0.4051(3) 0.1531(2)
loop_
_geom_bond_atom_site_label_1
_geom_bond_atom_site_label_2
_geom_bond_site_symmetry_1
_geom_bond_site_symmetry_2
Br1 C20 1_555 1_555
N1 C1 1_555 1_555
C1 H1 1_555 1_555
H2 C1 1_555 1_555
C2 C1 1_555 1_555
H3 C2 1_555 1_555
H4 C2 1_555 1_555
C3 C2 1_555 1_555
H5 C3 1_555 1_555
H6 C3 1_555 1_555
C4 C3 1_555 1_555
C5 N1 1_555 1_555
H7 C5 1_555 1_555
H8 C5 1_555 1_555
C6 C5 1_555 1_555
H9 C6 1_555 1_555
H10 C6 1_555 1_555
C7 C6 1_555 1_555
H11 C7 1_555 1_555
H12 C7 1_555 1_555
C8 C7 1_555 1_555
C9 N1 1_555 1_555
C10 C4 1_555 1_555
H13 C10 1_555 1_555
C11 C8 1_555 1_555
H14 C11 1_555 1_555
C12 C10 1_555 1_555
C13 C12 1_555 1_555
H15 C13 1_555 1_555
C14 C13 1_555 1_555
H16 C14 1_555 1_555
C15 C14 1_555 1_555
C16 C15 1_555 1_555
H17 C16 1_555 1_555
C17 C15 1_555 1_555
H18 C17 1_555 1_555
C18 C16 1_555 1_555
H19 C18 1_555 1_555
C19 C17 1_555 1_555
H20 C19 1_555 1_555
C20 C18 1_555 1_555
C4 C9 1_555 1_555
C8 C9 1_555 1_555
C11 C12 1_555 1_555
C19 C20 1_555 1_555

#END
