
#######################################################################
#
#                 Cambridge Crystallographic Data Centre
#                                CCDC 
#
#######################################################################
#
# If this CIF has been generated from an entry in the Cambridge 
# Structural Database, then it will include bibliographic, chemical, 
# crystal, experimental, refinement or atomic coordinate data resulting 
# from the CCDC's data processing and validation procedures.
#
#######################################################################

data_VIGNAC
_chemical_formula_moiety         'C18 H21 Cl1 O3'
_chemical_name_systematic        
4-(4-Chlorophenyl)-2-hydroxy-2,7,7-trimethyl-2,3,4,6,7,8-hexahydro-5H-chromen-5-one
_symmetry_cell_setting           orthorhombic
_symmetry_space_group_name_H-M   'P 21 21 21'
_symmetry_Int_Tables_number      19
_space_group_name_Hall           'P 2ac 2ab'
loop_
_symmetry_equiv_pos_site_id
_symmetry_equiv_pos_as_xyz
1 x,y,z
2 1/2-x,-y,1/2+z
3 1/2+x,1/2-y,-z
4 -x,1/2+y,1/2-z
_cell_length_a                   9.4223(4)
_cell_length_b                   12.5350(7)
_cell_length_c                   14.9465(8)
_cell_angle_alpha                90
_cell_angle_beta                 90
_cell_angle_gamma                90
_cell_volume                     1765.31
_exptl_crystal_colour            colorless
_exptl_crystal_description       block
_cell_formula_units_Z            4
loop_
_atom_site_label
_atom_site_type_symbol
_atom_site_fract_x
_atom_site_fract_y
_atom_site_fract_z
Cl1 Cl 0.73002(13) 0.29802(11) 0.57136(9)
O1 O 0.3295(2) 0.66601(19) 0.67863(16)
O2 O -0.05621(18) 0.61418(18) 0.48355(13)
O3 O 0.06918(19) 0.72344(17) 0.38668(16)
H1 H -0.0023 0.7572 0.3734
C1 C 0.2031(3) 0.6503(3) 0.6645(2)
C2 C 0.0986(7) 0.6837(5) 0.7365(4)
H2 H 0.1361 0.6617 0.7941
H3 H 0.0931 0.7610 0.7369
C3 C -0.0447(3) 0.6415(3) 0.7277(2)
C4 C -0.0994(3) 0.6422(3) 0.6364(2)
H4 H -0.1455 0.7102 0.6260
H5 H -0.1715 0.5872 0.6315
C5 C 0.0076(3) 0.6248(2) 0.5638(2)
C6 C 0.1483(3) 0.6235(2) 0.57714(19)
C7 C 0.2509(3) 0.6032(2) 0.50117(18)
H6 H 0.2919 0.6717 0.4830
C8 C 0.1677(3) 0.5578(2) 0.4218(2)
H7 H 0.2274 0.5596 0.3690
H8 H 0.1444 0.4838 0.4340
C9 C 0.0331(3) 0.6181(3) 0.4031(2)
C10 C 0.3711(3) 0.5280(2) 0.52417(19)
C11 C 0.3480(4) 0.4304(2) 0.5643(3)
H9 H 0.2563 0.4119 0.5814
C12 C 0.4569(4) 0.3598(3) 0.5798(3)
H10 H 0.4393 0.2942 0.6068
C13 C 0.5914(4) 0.3876(3) 0.5548(2)
C14 C 0.6196(3) 0.4821(3) 0.5159(2)
H11 H 0.7119 0.4999 0.4997
C15 C 0.5086(3) 0.5527(2) 0.50044(19)
H12 H 0.5274 0.6181 0.4735
C16 C -0.0575(3) 0.5701(3) 0.3307(2)
H13 H -0.0848 0.4991 0.3476
H14 H -0.0046 0.5675 0.2758
H15 H -0.1409 0.6129 0.3224
C17 C -0.0367(6) 0.5113(4) 0.7435(4)
H16 H -0.1271 0.4800 0.7297
H17 H -0.0132 0.4969 0.8048
H18 H 0.0347 0.4814 0.7052
C18 C -0.1490(4) 0.6694(4) 0.7986(3)
H19 H -0.1656 0.7449 0.7980
H20 H -0.1122 0.6487 0.8559
H21 H -0.2366 0.6325 0.7876
C19? C 0.1009(14) 0.6145(9) 0.7495(9)
H22? H 0.1093 0.5384 0.7599
H23? H 0.1301 0.6516 0.8034
C20? C -0.0232(11) 0.7850(8) 0.7203(7)
H24? H 0.0474 0.8015 0.6761
H25? H 0.0064 0.8125 0.7773
H26? H -0.1119 0.8171 0.7036
loop_
_geom_bond_atom_site_label_1
_geom_bond_atom_site_label_2
_geom_bond_site_symmetry_1
_geom_bond_site_symmetry_2
Cl1 C13 1_555 1_555
O1 C1 1_555 1_555
O2 C5 1_555 1_555
O3 H1 1_555 1_555
C1 C2 1_555 1_555
C2 H2 1_555 1_555
H3 C2 1_555 1_555
C3 C2 1_555 1_555
C4 C3 1_555 1_555
H4 C4 1_555 1_555
H5 C4 1_555 1_555
C5 C4 1_555 1_555
C6 C1 1_555 1_555
C7 C6 1_555 1_555
H6 C7 1_555 1_555
C8 C7 1_555 1_555
H7 C8 1_555 1_555
H8 C8 1_555 1_555
C9 O2 1_555 1_555
C10 C7 1_555 1_555
C11 C10 1_555 1_555
H9 C11 1_555 1_555
C12 C11 1_555 1_555
H10 C12 1_555 1_555
C13 C12 1_555 1_555
C14 C13 1_555 1_555
H11 C14 1_555 1_555
C15 C10 1_555 1_555
H12 C15 1_555 1_555
C16 C9 1_555 1_555
H13 C16 1_555 1_555
H14 C16 1_555 1_555
H15 C16 1_555 1_555
C17 C3 1_555 1_555
H16 C17 1_555 1_555
H17 C17 1_555 1_555
H18 C17 1_555 1_555
C18 C3 1_555 1_555
H19 C18 1_555 1_555
H20 C18 1_555 1_555
H21 C18 1_555 1_555
O3 C9 1_555 1_555
C5 C6 1_555 1_555
C8 C9 1_555 1_555
C14 C15 1_555 1_555

#END
