
#######################################################################
#
#                 Cambridge Crystallographic Data Centre
#                                CCDC 
#
#######################################################################
#
# If this CIF has been generated from an entry in the Cambridge 
# Structural Database, then it will include bibliographic, chemical, 
# crystal, experimental, refinement or atomic coordinate data resulting 
# from the CCDC's data processing and validation procedures.
#
#######################################################################

data_VIGPUY
_chemical_formula_moiety         'C66 H106 Na2 O8,2(C4 H8 O1)'
_chemical_name_systematic        
"bis(\m~2~-aqua)-bis(2,2'-methylenebis(4,6-di-t-butylphenolato))-bis(tetrahydrofuran)-di-sodium tetrahydrofuran solvate"
_symmetry_cell_setting           monoclinic
_symmetry_space_group_name_H-M   'P 21/c'
_symmetry_Int_Tables_number      14
_space_group_name_Hall           '-P 2ybc'
loop_
_symmetry_equiv_pos_site_id
_symmetry_equiv_pos_as_xyz
1 x,y,z
2 -x,1/2+y,1/2-z
3 -x,-y,-z
4 x,1/2-y,1/2+z
_cell_length_a                   13.153(2)
_cell_length_b                   18.033(3)
_cell_length_c                   16.482(3)
_cell_angle_alpha                90
_cell_angle_beta                 102.425(2)
_cell_angle_gamma                90
_cell_volume                     3817.77
_exptl_crystal_colour            colorless
_exptl_crystal_description       block
_cell_formula_units_Z            2
loop_
_atom_site_label
_atom_site_type_symbol
_atom_site_fract_x
_atom_site_fract_y
_atom_site_fract_z
Na1 Na 0.46453(15) 0.51763(10) 0.09339(12)
O1 O 0.6219(2) 0.51523(14) 0.04243(17)
H1 H 0.6914 0.5240 0.0671
H2 H 0.6339 0.4848 0.0665
O2 O 0.5094(2) 0.41153(13) 0.17682(17)
O3 O 0.6832(2) 0.40962(13) 0.14696(17)
H3 H 0.6262 0.4051 0.1591
O4 O 0.3606(3) 0.61619(19) 0.1254(2)
C1 C 0.4727(3) 0.2906(2) 0.1203(2)
C2 C 0.4620(3) 0.34505(19) 0.1783(2)
C3 C 0.4016(3) 0.3297(2) 0.2380(2)
C4 C 0.3530(3) 0.2615(2) 0.2340(3)
H4 H 0.3121 0.2517 0.2723
C5 C 0.3610(3) 0.2066(2) 0.1768(3)
C6 C 0.4226(3) 0.2228(2) 0.1205(2)
H5 H 0.4305 0.1871 0.0816
C7 C 0.5387(3) 0.3047(2) 0.0572(2)
H6 H 0.5309 0.3562 0.0400
H7 H 0.5127 0.2743 0.0086
C8 C 0.6541(3) 0.2882(2) 0.0888(2)
C9 C 0.6932(3) 0.2195(2) 0.0747(2)
H8 H 0.6478 0.1844 0.0456
C10 C 0.7963(3) 0.2008(2) 0.1018(2)
C11 C 0.8612(3) 0.2556(2) 0.1454(2)
H9 H 0.9315 0.2445 0.1639
C12 C 0.8270(3) 0.3255(2) 0.1628(2)
C13 C 0.7200(3) 0.3422(2) 0.1328(2)
C14 C 0.3915(3) 0.3866(2) 0.3052(3)
C15 C 0.3424(4) 0.4584(3) 0.2662(3)
H10 H 0.3884 0.4817 0.2360
H11 H 0.3305 0.4912 0.3092
H12 H 0.2773 0.4475 0.2290
C16 C 0.3233(4) 0.3581(3) 0.3633(3)
H13 H 0.2550 0.3467 0.3314
H14 H 0.3182 0.3956 0.4036
H15 H 0.3540 0.3142 0.3912
C17 C 0.4999(4) 0.4027(3) 0.3596(3)
H16 H 0.5293 0.3577 0.3856
H17 H 0.4936 0.4383 0.4016
H18 H 0.5444 0.4223 0.3256
C18 C 0.3061(4) 0.1313(2) 0.1782(3)
C19 C 0.1954(5) 0.1421(3) 0.1874(6)
H19 H 0.1571 0.1687 0.1402
H20 H 0.1952 0.1698 0.2371
H21 H 0.1635 0.0946 0.1907
C20 C 0.3607(5) 0.0884(3) 0.2561(4)
H22 H 0.3269 0.0414 0.2579
H23 H 0.3569 0.1165 0.3048
H24 H 0.4323 0.0805 0.2543
C21 C 0.3108(9) 0.0847(4) 0.1070(5)
H25 H 0.2766 0.1093 0.0569
H26 H 0.2768 0.0383 0.1119
H27 H 0.3823 0.0757 0.1053
C22 C 0.8418(3) 0.1257(2) 0.0856(3)
C23 C 0.7593(4) 0.0730(3) 0.0381(4)
H28 H 0.7055 0.0663 0.0686
H29 H 0.7907 0.0260 0.0314
H30 H 0.7299 0.0935 -0.0155
C24 C 0.8931(4) 0.0892(3) 0.1677(3)
H31 H 0.9446 0.1219 0.1988
H32 H 0.9256 0.0437 0.1569
H33 H 0.8412 0.0789 0.1992
C25 C 0.9255(4) 0.1368(3) 0.0343(3)
H34 H 0.8944 0.1586 -0.0183
H35 H 0.9552 0.0897 0.0253
H36 H 0.9790 0.1689 0.0638
C26 C 0.9015(3) 0.3828(2) 0.2130(3)
C27 C 0.9070(4) 0.4519(3) 0.1607(3)
H37 H 0.9215 0.4376 0.1082
H38 H 0.9613 0.4839 0.1893
H39 H 0.8416 0.4776 0.1515
C28 C 0.8637(4) 0.4036(3) 0.2921(3)
H40 H 0.9108 0.4390 0.3237
H41 H 0.8613 0.3600 0.3250
H42 H 0.7954 0.4250 0.2770
C29 C 1.0128(4) 0.3519(3) 0.2408(4)
H43 H 1.0401 0.3404 0.1927
H44 H 1.0113 0.3077 0.2730
H45 H 1.0563 0.3883 0.2739
C30 C 0.3856(6) 0.6787(4) 0.1767(5)
H46 H 0.4414 0.7060 0.1602
H47 H 0.4102 0.6627 0.2338
C31 C 0.2995(6) 0.7253(4) 0.1719(5)
H48 H 0.3102 0.7718 0.1454
H49 H 0.2879 0.7357 0.2269
C32 C 0.2114(6) 0.6856(5) 0.1227(6)
H50 H 0.1774 0.7156 0.0758
H51 H 0.1611 0.6742 0.1562
C33 C 0.2523(5) 0.6171(4) 0.0938(4)
H52 H 0.2202 0.5742 0.1136
H53 H 0.2373 0.6157 0.0335
Na1B Na 0.53547(15) 0.48237(10) -0.09339(12)
O1B O 0.3781(2) 0.48477(14) -0.04243(17)
H1B H 0.3086 0.4760 -0.0671
H2B H 0.3661 0.5152 -0.0665
O2B O 0.4906(2) 0.58847(13) -0.17682(17)
O3B O 0.3168(2) 0.59038(13) -0.14696(17)
H3B H 0.3738 0.5949 -0.1591
O4B O 0.6394(3) 0.38381(19) -0.1254(2)
C1B C 0.5273(3) 0.7094(2) -0.1203(2)
C2B C 0.5380(3) 0.65495(19) -0.1783(2)
C3B C 0.5984(3) 0.6703(2) -0.2380(2)
C4B C 0.6470(3) 0.7385(2) -0.2340(3)
H4B H 0.6879 0.7483 -0.2723
C5B C 0.6390(3) 0.7934(2) -0.1768(3)
C6B C 0.5774(3) 0.7772(2) -0.1205(2)
H5B H 0.5695 0.8129 -0.0816
C7B C 0.4613(3) 0.6953(2) -0.0572(2)
H6B H 0.4691 0.6438 -0.0400
H7B H 0.4873 0.7257 -0.0086
C8B C 0.3459(3) 0.7118(2) -0.0888(2)
C9B C 0.3068(3) 0.7805(2) -0.0747(2)
H8B H 0.3522 0.8156 -0.0456
C10B C 0.2037(3) 0.7992(2) -0.1018(2)
C11B C 0.1388(3) 0.7444(2) -0.1454(2)
H9B H 0.0685 0.7555 -0.1639
C12B C 0.1730(3) 0.6745(2) -0.1628(2)
C13B C 0.2800(3) 0.6578(2) -0.1328(2)
C14B C 0.6085(3) 0.6134(2) -0.3052(3)
C15B C 0.6576(4) 0.5416(3) -0.2662(3)
H10B H 0.6116 0.5183 -0.2360
H11B H 0.6695 0.5088 -0.3092
H12B H 0.7227 0.5525 -0.2290
C16B C 0.6767(4) 0.6419(3) -0.3633(3)
H13B H 0.7450 0.6533 -0.3314
H14B H 0.6818 0.6044 -0.4036
H15B H 0.6460 0.6858 -0.3912
C17B C 0.5001(4) 0.5973(3) -0.3596(3)
H16B H 0.4707 0.6423 -0.3856
H17B H 0.5064 0.5617 -0.4016
H18B H 0.4556 0.5777 -0.3256
C18B C 0.6939(4) 0.8687(2) -0.1782(3)
C19B C 0.8046(5) 0.8579(3) -0.1874(6)
H19B H 0.8429 0.8313 -0.1402
H20B H 0.8048 0.8302 -0.2371
H21B H 0.8365 0.9054 -0.1907
C20B C 0.6393(5) 0.9116(3) -0.2561(4)
H22B H 0.6731 0.9586 -0.2579
H23B H 0.6431 0.8835 -0.3048
H24B H 0.5677 0.9195 -0.2543
C21B C 0.6892(9) 0.9153(4) -0.1070(5)
H25B H 0.7234 0.8907 -0.0569
H26B H 0.7232 0.9617 -0.1119
H27B H 0.6177 0.9243 -0.1053
C22B C 0.1582(3) 0.8743(2) -0.0856(3)
C23B C 0.2407(4) 0.9270(3) -0.0381(4)
H28B H 0.2945 0.9337 -0.0686
H29B H 0.2093 0.9740 -0.0314
H30B H 0.2701 0.9065 0.0155
C24B C 0.1069(4) 0.9108(3) -0.1677(3)
H31B H 0.0554 0.8781 -0.1988
H32B H 0.0744 0.9563 -0.1569
H33B H 0.1588 0.9211 -0.1992
C25B C 0.0745(4) 0.8632(3) -0.0343(3)
H34B H 0.1056 0.8414 0.0183
H35B H 0.0448 0.9103 -0.0253
H36B H 0.0210 0.8311 -0.0638
C26B C 0.0985(3) 0.6172(2) -0.2130(3)
C27B C 0.0930(4) 0.5481(3) -0.1607(3)
H37B H 0.0785 0.5624 -0.1082
H38B H 0.0387 0.5161 -0.1893
H39B H 0.1584 0.5224 -0.1515
C28B C 0.1363(4) 0.5964(3) -0.2921(3)
H40B H 0.0892 0.5610 -0.3237
H41B H 0.1387 0.6400 -0.3250
H42B H 0.2046 0.5750 -0.2770
C29B C -0.0128(4) 0.6481(3) -0.2408(4)
H43B H -0.0401 0.6596 -0.1927
H44B H -0.0113 0.6923 -0.2730
H45B H -0.0563 0.6117 -0.2739
C30B C 0.6144(6) 0.3213(4) -0.1767(5)
H46B H 0.5586 0.2940 -0.1602
H47B H 0.5898 0.3373 -0.2338
C31B C 0.7005(6) 0.2747(4) -0.1719(5)
H48B H 0.6898 0.2282 -0.1454
H49B H 0.7121 0.2643 -0.2269
C32B C 0.7886(6) 0.3144(5) -0.1227(6)
H50B H 0.8226 0.2844 -0.0758
H51B H 0.8389 0.3258 -0.1562
C33B C 0.7477(5) 0.3829(4) -0.0938(4)
H52B H 0.7798 0.4258 -0.1136
H53B H 0.7627 0.3843 -0.0335
O5 O 0.7692(5) 0.6100(4) 0.0245(5)
C34 C 0.8311(12) 0.6070(7) -0.0334(6)
H54 H 0.7918 0.6207 -0.0881
H55 H 0.8595 0.5577 -0.0360
C35 C 0.9111(11) 0.6589(9) -0.0043(10)
H56 H 0.9748 0.6329 0.0204
H57 H 0.9240 0.6881 -0.0505
C36 C 0.8840(10) 0.7037(7) 0.0521(8)
H58 H 0.8804 0.7550 0.0339
H59 H 0.9323 0.6997 0.1054
C37 C 0.7842(11) 0.6761(7) 0.0560(9)
H60 H 0.7776 0.6748 0.1135
H61 H 0.7312 0.7093 0.0259
loop_
_geom_bond_atom_site_label_1
_geom_bond_atom_site_label_2
_geom_bond_site_symmetry_1
_geom_bond_site_symmetry_2
Na1 O1 1_555 1_555
O1 H1 1_555 1_555
H2 O1 1_555 1_555
O2 Na1 1_555 1_555
O3 H3 1_555 1_555
O4 Na1 1_555 1_555
C1 C2 1_555 1_555
C2 O2 1_555 1_555
C3 C2 1_555 1_555
C4 C3 1_555 1_555
H4 C4 1_555 1_555
C5 C4 1_555 1_555
C6 C1 1_555 1_555
H5 C6 1_555 1_555
C7 C1 1_555 1_555
H6 C7 1_555 1_555
H7 C7 1_555 1_555
C8 C7 1_555 1_555
C9 C8 1_555 1_555
H8 C9 1_555 1_555
C10 C9 1_555 1_555
C11 C10 1_555 1_555
H9 C11 1_555 1_555
C12 C11 1_555 1_555
C13 O3 1_555 1_555
C14 C3 1_555 1_555
C15 C14 1_555 1_555
H10 C15 1_555 1_555
H11 C15 1_555 1_555
H12 C15 1_555 1_555
C16 C14 1_555 1_555
H13 C16 1_555 1_555
H14 C16 1_555 1_555
H15 C16 1_555 1_555
C17 C14 1_555 1_555
H16 C17 1_555 1_555
H17 C17 1_555 1_555
H18 C17 1_555 1_555
C18 C5 1_555 1_555
C19 C18 1_555 1_555
H19 C19 1_555 1_555
H20 C19 1_555 1_555
H21 C19 1_555 1_555
C20 C18 1_555 1_555
H22 C20 1_555 1_555
H23 C20 1_555 1_555
H24 C20 1_555 1_555
C21 C18 1_555 1_555
H25 C21 1_555 1_555
H26 C21 1_555 1_555
H27 C21 1_555 1_555
C22 C10 1_555 1_555
C23 C22 1_555 1_555
H28 C23 1_555 1_555
H29 C23 1_555 1_555
H30 C23 1_555 1_555
C24 C22 1_555 1_555
H31 C24 1_555 1_555
H32 C24 1_555 1_555
H33 C24 1_555 1_555
C25 C22 1_555 1_555
H34 C25 1_555 1_555
H35 C25 1_555 1_555
H36 C25 1_555 1_555
C26 C12 1_555 1_555
C27 C26 1_555 1_555
H37 C27 1_555 1_555
H38 C27 1_555 1_555
H39 C27 1_555 1_555
C28 C26 1_555 1_555
H40 C28 1_555 1_555
H41 C28 1_555 1_555
H42 C28 1_555 1_555
C29 C26 1_555 1_555
H43 C29 1_555 1_555
H44 C29 1_555 1_555
H45 C29 1_555 1_555
C30 O4 1_555 1_555
H46 C30 1_555 1_555
H47 C30 1_555 1_555
C31 C30 1_555 1_555
H48 C31 1_555 1_555
H49 C31 1_555 1_555
C32 C31 1_555 1_555
H50 C32 1_555 1_555
H51 C32 1_555 1_555
C33 O4 1_555 1_555
H52 C33 1_555 1_555
H53 C33 1_555 1_555
O5 C34 1_555 1_555
C34 H54 1_555 1_555
H55 C34 1_555 1_555
C35 C34 1_555 1_555
H56 C35 1_555 1_555
H57 C35 1_555 1_555
C36 C35 1_555 1_555
H58 C36 1_555 1_555
H59 C36 1_555 1_555
C37 O5 1_555 1_555
H60 C37 1_555 1_555
H61 C37 1_555 1_555
Na1B O1 1_555 1_555
O1B Na1 1_555 1_555
H1B O1B 1_555 1_555
H2B O1B 1_555 1_555
O2B Na1B 1_555 1_555
O3B H3B 1_555 1_555
O4B Na1B 1_555 1_555
C1B C2B 1_555 1_555
C2B O2B 1_555 1_555
C3B C2B 1_555 1_555
C4B C3B 1_555 1_555
H4B C4B 1_555 1_555
C5B C4B 1_555 1_555
C6B C1B 1_555 1_555
H5B C6B 1_555 1_555
C7B C1B 1_555 1_555
H6B C7B 1_555 1_555
H7B C7B 1_555 1_555
C8B C7B 1_555 1_555
C9B C8B 1_555 1_555
H8B C9B 1_555 1_555
C10B C9B 1_555 1_555
C11B C10B 1_555 1_555
H9B C11B 1_555 1_555
C12B C11B 1_555 1_555
C13B O3B 1_555 1_555
C14B C3B 1_555 1_555
C15B C14B 1_555 1_555
H10B C15B 1_555 1_555
H11B C15B 1_555 1_555
H12B C15B 1_555 1_555
C16B C14B 1_555 1_555
H13B C16B 1_555 1_555
H14B C16B 1_555 1_555
H15B C16B 1_555 1_555
C17B C14B 1_555 1_555
H16B C17B 1_555 1_555
H17B C17B 1_555 1_555
H18B C17B 1_555 1_555
C18B C5B 1_555 1_555
C19B C18B 1_555 1_555
H19B C19B 1_555 1_555
H20B C19B 1_555 1_555
H21B C19B 1_555 1_555
C20B C18B 1_555 1_555
H22B C20B 1_555 1_555
H23B C20B 1_555 1_555
H24B C20B 1_555 1_555
C21B C18B 1_555 1_555
H25B C21B 1_555 1_555
H26B C21B 1_555 1_555
H27B C21B 1_555 1_555
C22B C10B 1_555 1_555
C23B C22B 1_555 1_555
H28B C23B 1_555 1_555
H29B C23B 1_555 1_555
H30B C23B 1_555 1_555
C24B C22B 1_555 1_555
H31B C24B 1_555 1_555
H32B C24B 1_555 1_555
H33B C24B 1_555 1_555
C25B C22B 1_555 1_555
H34B C25B 1_555 1_555
H35B C25B 1_555 1_555
H36B C25B 1_555 1_555
C26B C12B 1_555 1_555
C27B C26B 1_555 1_555
H37B C27B 1_555 1_555
H38B C27B 1_555 1_555
H39B C27B 1_555 1_555
C28B C26B 1_555 1_555
H40B C28B 1_555 1_555
H41B C28B 1_555 1_555
H42B C28B 1_555 1_555
C29B C26B 1_555 1_555
H43B C29B 1_555 1_555
H44B C29B 1_555 1_555
H45B C29B 1_555 1_555
C30B O4B 1_555 1_555
H46B C30B 1_555 1_555
H47B C30B 1_555 1_555
C31B C30B 1_555 1_555
H48B C31B 1_555 1_555
H49B C31B 1_555 1_555
C32B C31B 1_555 1_555
H50B C32B 1_555 1_555
H51B C32B 1_555 1_555
C33B O4B 1_555 1_555
H52B C33B 1_555 1_555
H53B C33B 1_555 1_555
C5 C6 1_555 1_555
C8 C13 1_555 1_555
C12 C13 1_555 1_555
C32 C33 1_555 1_555
C36 C37 1_555 1_555
Na1B O1B 1_555 1_555
C5B C6B 1_555 1_555
C8B C13B 1_555 1_555
C12B C13B 1_555 1_555
C32B C33B 1_555 1_555

#END
