
#######################################################################
#
#                 Cambridge Crystallographic Data Centre
#                                CCDC 
#
#######################################################################
#
# If this CIF has been generated from an entry in the Cambridge 
# Structural Database, then it will include bibliographic, chemical, 
# crystal, experimental, refinement or atomic coordinate data resulting 
# from the CCDC's data processing and validation procedures.
#
#######################################################################

data_VIGPAD
_chemical_name_common            
'1,2-bis(1-(3-Ammoniopropyl)quinolinium-4-yl)ethene bis(1,2-bis(benzo-18-crown-6-4-yl)ethene) tetraperchlorate 1,4-dioxane solvate trihydrate'
_chemical_formula_moiety         
'C26 H32 N4 4+,2(C34 H48 O12),4(Cl1 O4 1-),5(C4 H8 O2),3(H2 O1)'
_chemical_name_systematic        
'1,2-bis(1-(3-Ammoniopropyl)quinolinium-4-yl)ethene bis(1,2-bis(2,3,5,6,8,9,11,12,14,15-decahydro-1,4,7,10,13,16-benzohexaoxacyclooctadecin-18-yl)ethene) tetraperchlorate 1,4-dioxane solvate trihydrate'
_symmetry_cell_setting           triclinic
_symmetry_space_group_name_H-M   'P -1'
_symmetry_Int_Tables_number      2
_space_group_name_Hall           '-P 1'
loop_
_symmetry_equiv_pos_site_id
_symmetry_equiv_pos_as_xyz
1 x,y,z
2 -x,-y,-z
_cell_length_a                   11.4047(3)
_cell_length_b                   14.3824(3)
_cell_length_c                   19.9734(5)
_cell_angle_alpha                79.2720(10)
_cell_angle_beta                 80.6520(10)
_cell_angle_gamma                76.2880(10)
_cell_volume                     3103.06
_exptl_crystal_colour            'deep green'
_exptl_crystal_description       block
_cell_formula_units_Z            1
loop_
_atom_site_label
_atom_site_type_symbol
_atom_site_fract_x
_atom_site_fract_y
_atom_site_fract_z
Cl1 Cl 0.16022(4) 1.30368(3) -1.90422(2)
O1 O 0.2371(2) 1.29418(14) -1.85266(11)
O2 O 0.03495(16) 1.31211(14) -1.87589(10)
O3 O 0.17180(15) 1.38939(11) -1.95308(9)
O4 O 0.19764(15) 1.22085(11) -1.93872(8)
Cl2 Cl 0.70023(5) -0.19708(3) -0.48430(3)
O5 O 0.6004(3) -0.2216(2) -0.43647(15)
O6 O 0.6678(3) -0.10174(15) -0.51540(16)
O7 O 0.7288(3) -0.26336(18) -0.52951(13)
O8 O 0.7963(3) -0.20595(18) -0.44538(16)
O9 O 0.16887(11) 0.26201(8) -1.25237(6)
O10 O 0.13367(13) 0.07168(9) -1.25236(7)
O11 O -0.07732(13) 0.01191(9) -1.16008(7)
O12 O -0.12960(13) 0.12157(10) -1.04632(7)
O13 O -0.11756(12) 0.31824(9) -1.05849(6)
O14 O 0.05340(12) 0.37443(9) -1.16622(6)
O15 O 0.52956(12) 0.65932(8) -1.72991(6)
O16 O 0.53330(11) 0.71983(9) -1.87367(6)
O17 O 0.51477(12) 0.92740(9) -1.90542(7)
O18 O 0.46323(13) 1.04843(9) -1.79945(7)
O19 O 0.39049(13) 0.96715(9) -1.66533(7)
O20 O 0.45775(12) 0.76471(9) -1.63139(6)
C1 C 0.24379(17) 0.19672(13) -1.29616(10)
C2 C 0.24860(18) 0.09579(14) -1.25830(11)
C3 C 0.1341(2) -0.02162(14) -1.21144(12)
C4 C 0.0101(2) -0.04361(14) -1.20443(12)
C5 C -0.0729(2) -0.02827(14) -1.08939(10)
C6 C -0.16785(19) 0.03435(14) -1.04653(11)
C7 C -0.21501(19) 0.18773(15) -1.00845(11)
C8 C -0.15235(19) 0.26209(14) -0.99522(10)
C9 C -0.02996(18) 0.36989(14) -1.04952(9)
C10 C -0.00258(18) 0.43507(13) -1.11488(9)
C11 C 0.09517(16) 0.42076(12) -1.22845(9)
C12 C 0.07972(17) 0.52014(13) -1.24682(9)
C13 C 0.13077(18) 0.55806(13) -1.31161(10)
C14 C 0.19616(16) 0.49883(13) -1.35818(9)
C15 C 0.20987(16) 0.39758(12) -1.33938(9)
C16 C 0.15962(15) 0.35929(12) -1.27579(9)
C17 C 0.25157(17) 0.54208(13) -1.42462(9)
C18 C 0.31373(16) 0.49436(13) -1.47483(9)
C19 C 0.36988(16) 0.53722(12) -1.54090(9)
C20 C 0.41249(17) 0.48103(13) -1.59279(9)
C21 C 0.46493(17) 0.51969(13) -1.65675(9)
C22 C 0.47807(15) 0.61467(12) -1.66855(8)
C23 C 0.43804(16) 0.67235(12) -1.61595(9)
C24 C 0.38347(16) 0.63382(13) -1.55350(9)
C25 C 0.58733(17) 0.59750(13) -1.78010(9)
C26 C 0.63504(17) 0.65962(13) -1.84282(9)
C27 C 0.56671(18) 0.77049(14) -1.94005(9)
C28 C 0.61094(17) 0.86011(13) -1.93797(10)
C29 C 0.54798(19) 1.01855(14) -1.91114(10)
C30 C 0.4528(2) 1.08341(14) -1.87018(10)
C31 C 0.3738(2) 1.10264(15) -1.75513(11)
C32 C 0.4031(2) 1.06544(14) -1.68306(11)
C33 C 0.4434(2) 0.92203(14) -1.60417(10)
C34 C 0.4086(2) 0.82585(14) -1.57949(10)
H1 H 0.327(2) 0.2092(16) -1.3049(11)
H2 H 0.211(2) 0.2059(17) -1.3389(12)
H3 H 0.309(2) 0.0522(17) -1.2826(12)
H4 H 0.273(2) 0.0919(18) -1.2133(14)
H5 H 0.155(2) -0.0228(17) -1.1626(13)
H6 H 0.191(3) -0.066(2) -1.2371(15)
H7 H -0.022(2) -0.0276(19) -1.2519(14)
H8 H 0.017(2) -0.1134(19) -1.1870(13)
H9 H 0.006(2) -0.0322(18) -1.0757(13)
H10 H -0.088(2) -0.0921(18) -1.0822(12)
H11 H -0.248(2) 0.0509(16) -1.0632(11)
H12 H -0.177(2) -0.0002(19) -1.0025(14)
H13 H -0.251(2) 0.1535(17) -0.9624(13)
H14 H -0.282(2) 0.2181(17) -1.0350(12)
H15 H -0.209(3) 0.3035(19) -0.9636(14)
H16 H -0.079(2) 0.2319(17) -0.9713(12)
H17 H 0.044(2) 0.3239(16) -1.0376(11)
H18 H -0.057(2) 0.4081(17) -1.0161(12)
H19 H -0.077(2) 0.4772(16) -1.1303(11)
H20 H 0.0544(19) 0.4752(15) -1.1075(10)
H21 H 0.030(2) 0.5628(17) -1.2174(12)
H22 H 0.121(2) 0.6266(17) -1.3226(12)
H23 H 0.254(2) 0.3565(16) -1.3708(11)
H24 H 0.239(2) 0.6115(19) -1.4306(13)
H25 H 0.326(2) 0.4265(17) -1.4726(12)
H26 H 0.403(2) 0.4124(16) -1.5853(11)
H27 H 0.492(2) 0.4771(17) -1.6921(12)
H28 H 0.361(2) 0.6706(18) -1.5206(13)
H29 H 0.527(2) 0.5671(16) -1.7913(11)
H30 H 0.651(2) 0.5508(15) -1.7613(11)
H31 H 0.684(2) 0.6976(17) -1.8309(12)
H32 H 0.685(2) 0.6150(18) -1.8737(13)
H33 H 0.492(2) 0.7857(15) -1.9626(11)
H34 H 0.629(2) 0.7263(16) -1.9662(12)
H35 H 0.679(2) 0.8479(15) -1.9127(11)
H36 H 0.636(2) 0.8916(17) -1.9847(13)
H37 H 0.555(2) 1.0439(17) -1.9555(13)
H38 H 0.629(2) 1.0105(17) -1.8960(12)
H39 H 0.466(2) 1.1523(19) -1.8821(13)
H40 H 0.367(2) 1.0865(18) -1.8818(13)
H41 H 0.291(3) 1.0947(19) -1.7603(13)
H42 H 0.374(2) 1.1738(18) -1.7674(13)
H43 H 0.492(2) 1.0669(18) -1.6818(13)
H44 H 0.348(3) 1.104(2) -1.6486(16)
H45 H 0.414(2) 0.9633(15) -1.5686(11)
H46 H 0.534(2) 0.9139(16) -1.6132(11)
H47 H 0.444(2) 0.7985(18) -1.5372(13)
H48 H 0.320(2) 0.8318(15) -1.5733(11)
N1 N 0.40248(14) 0.85383(11) -1.76829(8)
N2 N 0.10870(13) 0.68434(11) -1.70958(8)
C35 C 0.27406(16) 0.84204(13) -1.75094(10)
C36 C 0.24829(17) 0.77409(13) -1.79364(9)
C37 C 0.12064(17) 0.75419(13) -1.77434(9)
C38 C 0.05251(17) 0.71755(14) -1.65194(10)
C39 C 0.03320(18) 0.65640(14) -1.59084(10)
C40 C 0.07013(16) 0.55699(14) -1.58754(9)
C41 C 0.13144(16) 0.52057(13) -1.64842(9)
C42 C 0.17247(18) 0.41969(14) -1.65081(11)
C43 C 0.2315(2) 0.38719(15) -1.70966(12)
C44 C 0.25347(19) 0.45275(15) -1.76916(11)
C45 C 0.21386(17) 0.55052(14) -1.77029(10)
C46 C 0.15192(16) 0.58581(12) -1.70980(9)
C47 C 0.04778(17) 0.49051(14) -1.52386(9)
H49 H 0.417(2) 0.8930(17) -1.7429(12)
H50 H 0.424(2) 0.8777(19) -1.8136(15)
H51 H 0.452(2) 0.7955(18) -1.7610(12)
H52 H 0.224(2) 0.9036(16) -1.7583(11)
H53 H 0.2617(19) 0.8177(15) -1.7035(11)
H54 H 0.304(2) 0.7187(17) -1.7898(12)
H55 H 0.255(2) 0.8054(16) -1.8427(12)
H56 H 0.061(2) 0.8103(18) -1.7671(12)
H57 H 0.095(2) 0.7268(16) -1.8087(11)
H58 H 0.028(2) 0.7866(17) -1.6570(12)
H59 H -0.003(2) 0.6813(17) -1.5535(13)
H60 H 0.156(2) 0.3782(16) -1.6139(12)
H61 H 0.256(2) 0.3215(18) -1.7090(12)
H62 H 0.292(2) 0.4293(19) -1.8074(14)
H63 H 0.226(2) 0.5920(17) -1.8102(13)
H64 H 0.104(2) 0.4317(18) -1.5175(12)
N1A N -0.40248(14) 0.14617(11) -1.23171(8)
N2A N -0.10870(13) 0.31566(11) -1.29042(8)
C35A C -0.27406(16) 0.15796(13) -1.24906(10)
C36A C -0.24829(17) 0.22591(13) -1.20636(9)
C37A C -0.12064(17) 0.24581(13) -1.22566(9)
C38A C -0.05251(17) 0.28245(14) -1.34806(10)
C39A C -0.03320(18) 0.34360(14) -1.40916(10)
C40A C -0.07013(16) 0.44301(14) -1.41246(9)
C41A C -0.13144(16) 0.47943(13) -1.35158(9)
C42A C -0.17247(18) 0.58031(14) -1.34919(11)
C43A C -0.2315(2) 0.61281(15) -1.29034(12)
C44A C -0.25347(19) 0.54725(15) -1.23084(11)
C45A C -0.21386(17) 0.44948(14) -1.22971(10)
C46A C -0.15192(16) 0.41419(12) -1.29020(9)
C47A C -0.04778(17) 0.50949(14) -1.47614(9)
H49A H -0.417(2) 0.1070(17) -1.2571(12)
H50A H -0.424(2) 0.1223(19) -1.1864(15)
H51A H -0.452(2) 0.2045(18) -1.2390(12)
H52A H -0.224(2) 0.0964(16) -1.2417(11)
H53A H -0.2617(19) 0.1823(15) -1.2965(11)
H54A H -0.304(2) 0.2813(17) -1.2102(12)
H55A H -0.255(2) 0.1946(16) -1.1573(12)
H56A H -0.061(2) 0.1897(18) -1.2329(12)
H57A H -0.095(2) 0.2732(16) -1.1913(11)
H58A H -0.028(2) 0.2134(17) -1.3430(12)
H59A H 0.003(2) 0.3187(17) -1.4465(13)
H60A H -0.156(2) 0.6218(16) -1.3861(12)
H61A H -0.256(2) 0.6785(18) -1.2910(12)
H62A H -0.292(2) 0.5707(19) -1.1926(14)
H63A H -0.226(2) 0.4080(17) -1.1898(13)
H64A H -0.104(2) 0.5683(18) -1.4825(12)
O21 O 0.11266(14) 0.14749(11) -1.10552(8)
H65 H 0.038(3) 0.143(2) -1.0908(17)
H66 H 0.110(3) 0.194(3) -1.1348(18)
O22 O 0.76859(17) 0.25129(13) -0.73633(10)
O23 O 0.53690(17) 0.33482(18) -0.77767(11)
C48 C 0.7545(2) 0.3072(2) -0.80153(15)
C49 C 0.6387(3) 0.3020(3) -0.82523(18)
C50 C 0.5507(3) 0.2796(2) -0.71315(17)
C51 C 0.6659(3) 0.2849(2) -0.68909(17)
H67 H 0.824(3) 0.288(2) -0.8361(16)
H68 H 0.748(3) 0.378(3) -0.8038(17)
H69 H 0.635(4) 0.345(3) -0.862(2)
H70 H 0.636(3) 0.232(3) -0.8274(17)
H71 H 0.557(4) 0.217(3) -0.717(2)
H72 H 0.479(4) 0.304(3) -0.681(2)
H73 H 0.661(3) 0.354(2) -0.6808(16)
H74 H 0.681(3) 0.247(3) -0.6456(18)
C52 C 0.9905(4) 0.1460(3) -0.6181(2)
H75 H 0.9613 0.1848 -0.6609
H76 H 1.0776 0.1470 -0.6207
O24 O 0.8043(6) 0.1944(4) -0.5561(3)
O25 O 0.9812(5) 0.0497(4) -0.6165(3)
C53 C 0.9254(7) 0.1936(5) -0.5612(4)
H77 H 0.9575 0.1591 -0.5181
H78 H 0.9373 0.2609 -0.5683
C54 C 0.8542(8) 0.0511(7) -0.6144(5)
H79 H 0.8422 -0.0159 -0.6097
H80 H 0.8246 0.0879 -0.6576
C55 C 0.7834(9) 0.0979(7) -0.5543(4)
H81 H 0.6955 0.1022 -0.5546
H82 H 0.8073 0.0567 -0.5111
O26 O 0.1000(5) -0.1313(4) -0.5766(3)
O27 O 0.56712(15) 0.40339(11) -0.99233(9)
C56 C 0.4401(2) 0.42683(19) -0.97086(15)
H83 H 0.4190 0.3787 -0.9311
H84 H 0.3955 0.4234 -1.0086
C57 C 0.5983(2) 0.47477(18) -1.04861(13)
H85 H 0.5581 0.4724 -1.0884
H86 H 0.6874 0.4602 -1.0623
O27A O 0.43288(15) 0.59661(11) -1.00767(9)
C56A C 0.5599(2) 0.57317(19) -1.02914(15)
H83A H 0.5810 0.6213 -1.0689
H84A H 0.6045 0.5766 -0.9914
C57A C 0.4017(2) 0.52523(18) -0.95139(13)
H85A H 0.4419 0.5276 -0.9116
H86A H 0.3126 0.5398 -0.9377
O28? O 0.8636(6) 0.1410(5) -0.5684(3)
O29? O 0.0192(5) -0.0309(5) -0.6161(2)
C58? C 0.0672(8) 0.0526(9) -0.6019(5)
H87? H 0.0781 0.0418 -0.5527
H88? H 0.1482 0.0522 -0.6289
C59? C 0.9036(8) -0.0300(6) -0.5776(4)
H89? H 0.9141 -0.0489 -0.5283
H90? H 0.8680 -0.0794 -0.5908
C60? C 0.8170(8) 0.0644(7) -0.5867(5)
H91? H 0.8007 0.0814 -0.6351
H92? H 0.7391 0.0590 -0.5576
loop_
_geom_bond_atom_site_label_1
_geom_bond_atom_site_label_2
_geom_bond_site_symmetry_1
_geom_bond_site_symmetry_2
Cl1 O1 1_555 1_555
O2 Cl1 1_555 1_555
O3 Cl1 1_555 1_555
O4 Cl1 1_555 1_555
Cl2 O5 1_555 1_555
O6 Cl2 1_555 1_555
O7 Cl2 1_555 1_555
O8 Cl2 1_555 1_555
O9 C1 1_555 1_555
O10 C2 1_555 1_555
O11 C4 1_555 1_555
O12 C6 1_555 1_555
O13 C8 1_555 1_555
O14 C10 1_555 1_555
O15 C22 1_555 1_555
O16 C26 1_555 1_555
O17 C28 1_555 1_555
O18 C30 1_555 1_555
O19 C32 1_555 1_555
O20 C23 1_555 1_555
C1 C2 1_555 1_555
C2 H3 1_555 1_555
C3 O10 1_555 1_555
C4 C3 1_555 1_555
C5 O11 1_555 1_555
C6 C5 1_555 1_555
C7 O12 1_555 1_555
C8 C7 1_555 1_555
C9 O13 1_555 1_555
C10 C9 1_555 1_555
C11 O14 1_555 1_555
C12 C11 1_555 1_555
C13 C12 1_555 1_555
C14 C13 1_555 1_555
C15 C14 1_555 1_555
C16 O9 1_555 1_555
C17 C14 1_555 1_555
C18 C17 1_555 1_555
C19 C18 1_555 1_555
C20 C19 1_555 1_555
C21 C20 1_555 1_555
C22 C21 1_555 1_555
C23 C22 1_555 1_555
C24 C19 1_555 1_555
C25 O15 1_555 1_555
C26 C25 1_555 1_555
C27 O16 1_555 1_555
C28 C27 1_555 1_555
C29 O17 1_555 1_555
C30 C29 1_555 1_555
C31 O18 1_555 1_555
C32 C31 1_555 1_555
C33 O19 1_555 1_555
C34 O20 1_555 1_555
H1 C1 1_555 1_555
H2 C1 1_555 1_555
H4 C2 1_555 1_555
H5 C3 1_555 1_555
H6 C3 1_555 1_555
H7 C4 1_555 1_555
H8 C4 1_555 1_555
H9 C5 1_555 1_555
H10 C5 1_555 1_555
H11 C6 1_555 1_555
H12 C6 1_555 1_555
H13 C7 1_555 1_555
H14 C7 1_555 1_555
H15 C8 1_555 1_555
H16 C8 1_555 1_555
H17 C9 1_555 1_555
H18 C9 1_555 1_555
H19 C10 1_555 1_555
H20 C10 1_555 1_555
H21 C12 1_555 1_555
H22 C13 1_555 1_555
H23 C15 1_555 1_555
H24 C17 1_555 1_555
H25 C18 1_555 1_555
H26 C20 1_555 1_555
H27 C21 1_555 1_555
H28 C24 1_555 1_555
H29 C25 1_555 1_555
H30 C25 1_555 1_555
H31 C26 1_555 1_555
H32 C26 1_555 1_555
H33 C27 1_555 1_555
H34 C27 1_555 1_555
H35 C28 1_555 1_555
H36 C28 1_555 1_555
H37 C29 1_555 1_555
H38 C29 1_555 1_555
H39 C30 1_555 1_555
H40 C30 1_555 1_555
H41 C31 1_555 1_555
H42 C31 1_555 1_555
H43 C32 1_555 1_555
H44 C32 1_555 1_555
H45 C33 1_555 1_555
H46 C33 1_555 1_555
H47 C34 1_555 1_555
H48 C34 1_555 1_555
N1 C35 1_555 1_555
N2 C37 1_555 1_555
C35 C36 1_555 1_555
C36 C37 1_555 1_555
C37 H56 1_555 1_555
C38 N2 1_555 1_555
C39 C38 1_555 1_555
C40 C39 1_555 1_555
C41 C40 1_555 1_555
C42 C41 1_555 1_555
C43 C42 1_555 1_555
C44 C43 1_555 1_555
C45 C44 1_555 1_555
C46 N2 1_555 1_555
C47 C40 1_555 1_555
H49 N1 1_555 1_555
H50 N1 1_555 1_555
H51 N1 1_555 1_555
H52 C35 1_555 1_555
H53 C35 1_555 1_555
H54 C36 1_555 1_555
H55 C36 1_555 1_555
H57 C37 1_555 1_555
H58 C38 1_555 1_555
H59 C39 1_555 1_555
H60 C42 1_555 1_555
H61 C43 1_555 1_555
H62 C44 1_555 1_555
H63 C45 1_555 1_555
H64 C47 1_555 1_555
O21 H65 1_555 1_555
H66 O21 1_555 1_555
O22 C48 1_555 1_555
O23 C49 1_555 1_555
C48 C49 1_555 1_555
C49 H69 1_555 1_555
C50 O23 1_555 1_555
C51 O22 1_555 1_555
H67 C48 1_555 1_555
H68 C48 1_555 1_555
H70 C49 1_555 1_555
H71 C50 1_555 1_555
H72 C50 1_555 1_555
H73 C51 1_555 1_555
H74 C51 1_555 1_555
C52 H75 1_555 1_555
H76 C52 1_555 1_555
O24 C53 1_555 1_555
O25 C52 1_555 1_555
C53 C52 1_555 1_555
H77 C53 1_555 1_555
H78 C53 1_555 1_555
C54 O25 1_555 1_555
H79 C54 1_555 1_555
H80 C54 1_555 1_555
C55 O24 1_555 1_555
H81 C55 1_555 1_555
H82 C55 1_555 1_555
O27 C56 1_555 1_555
C56 H83 1_555 1_555
H84 C56 1_555 1_555
C57 O27 1_555 1_555
H85 C57 1_555 1_555
H86 C57 1_555 1_555
N1A C35A 1_555 1_555
N2A C37A 1_555 1_555
C35A C36A 1_555 1_555
C36A C37A 1_555 1_555
C37A H56A 1_555 1_555
C38A N2A 1_555 1_555
C39A C38A 1_555 1_555
C40A C39A 1_555 1_555
C41A C40A 1_555 1_555
C42A C41A 1_555 1_555
C43A C42A 1_555 1_555
C44A C43A 1_555 1_555
C45A C44A 1_555 1_555
C46A N2A 1_555 1_555
C47A C47 1_555 1_555
H49A N1A 1_555 1_555
H50A N1A 1_555 1_555
H51A N1A 1_555 1_555
H52A C35A 1_555 1_555
H53A C35A 1_555 1_555
H54A C36A 1_555 1_555
H55A C36A 1_555 1_555
H57A C37A 1_555 1_555
H58A C38A 1_555 1_555
H59A C39A 1_555 1_555
H60A C42A 1_555 1_555
H61A C43A 1_555 1_555
H62A C44A 1_555 1_555
H63A C45A 1_555 1_555
H64A C47A 1_555 1_555
O27A C56A 1_555 1_555
C56A C57 1_555 1_555
H83A C56A 1_555 1_555
H84A C56A 1_555 1_555
C57A C56 1_555 1_555
H85A C57A 1_555 1_555
H86A C57A 1_555 1_555
C11 C16 1_555 1_555
C15 C16 1_555 1_555
C23 C24 1_555 1_555
C33 C34 1_555 1_555
C41 C46 1_555 1_555
C45 C46 1_555 1_555
C50 C51 1_555 1_555
C54 C55 1_555 1_555
C40A C47A 1_555 1_555
C41A C46A 1_555 1_555
C45A C46A 1_555 1_555
O27A C57A 1_555 1_555

#END
