
#######################################################################
#
#                 Cambridge Crystallographic Data Centre
#                                CCDC 
#
#######################################################################
#
# If this CIF has been generated from an entry in the Cambridge 
# Structural Database, then it will include bibliographic, chemical, 
# crystal, experimental, refinement or atomic coordinate data resulting 
# from the CCDC's data processing and validation procedures.
#
#######################################################################

data_VIGQAG
_chemical_formula_moiety         'C25 H24 O3'
_chemical_name_systematic        
2-[2-hydroxy-5-(prop-2-en-1-yl)phenyl]-6-(4-methylpent-3-en-1-yl)naphthalene-1,4-dione
_symmetry_cell_setting           monoclinic
_symmetry_space_group_name_H-M   'C 2/c'
_symmetry_Int_Tables_number      15
_space_group_name_Hall           '-C 2yn'
loop_
_symmetry_equiv_pos_site_id
_symmetry_equiv_pos_as_xyz
1 x,y,z
2 -x,y,1/2-z
3 1/2+x,1/2+y,z
4 1/2-x,1/2+y,1/2-z
5 -x,-y,-z
6 x,-y,1/2+z
7 1/2-x,1/2-y,-z
8 1/2+x,1/2-y,1/2+z
_cell_length_a                   33.405(4)
_cell_length_b                   5.8767(7)
_cell_length_c                   21.256(3)
_cell_angle_alpha                90
_cell_angle_beta                 109.004(15)
_cell_angle_gamma                90
_cell_volume                     3945.36
_exptl_crystal_description       needle
_cell_formula_units_Z            8
loop_
_atom_site_label
_atom_site_type_symbol
_atom_site_fract_x
_atom_site_fract_y
_atom_site_fract_z
O1 O 0.05924(3) 0.42276(19) 0.38495(5)
C1 C -0.03197(5) 0.0764(3) 0.31190(7)
C2 C -0.07065(5) 0.0670(3) 0.25224(7)
C3 C 0.01433(5) -0.0992(3) 0.42130(7)
O2 O -0.04505(3) -0.26406(19) 0.21414(5)
H1 H -0.0517 -0.3546 0.1831
C4 C -0.11206(5) -0.1065(3) 0.14855(7)
H2 H -0.1154 -0.2176 0.1161
O3 O -0.04866(3) -0.27359(19) 0.35284(5)
C5 C -0.07599(5) -0.1064(3) 0.20494(7)
C6 C 0.07666(5) 0.0999(3) 0.48952(7)
H3 H 0.0948 0.2244 0.4963
C7 C 0.04183(5) 0.0863(3) 0.43154(7)
C8 C -0.02390(5) -0.1160(3) 0.36047(7)
C9 C 0.03367(5) 0.2687(3) 0.38090(7)
C10 C -0.14291(5) 0.0584(3) 0.14078(7)
H4 H -0.1670 0.0545 0.1033
C11 C -0.10171(5) 0.2335(3) 0.24261(7)
H5 H -0.0978 0.3503 0.2735
C12 C -0.00622(5) 0.2580(3) 0.32447(7)
H6 H -0.0139 0.3830 0.2963
C13 C 0.08459(5) -0.0712(3) 0.53742(7)
C14 C -0.17304(5) 0.4058(3) 0.18074(8)
H7 H -0.1630 0.5529 0.1716
H8 H -0.1977 0.3661 0.1432
C15 C 0.12233(5) -0.0581(3) 0.60033(8)
H9 H 0.1233 -0.1952 0.6262
H10 H 0.1186 0.0700 0.6267
C16 C 0.05707(5) -0.2560(3) 0.52632(8)
H11 H 0.0621 -0.3718 0.5578
C17 C 0.16482(5) -0.0315(3) 0.58727(8)
H12 H 0.1648 0.1124 0.5649
H13 H 0.1875 -0.0270 0.6296
C18 C -0.13872(5) 0.2294(3) 0.18757(8)
C19 C 0.02218(5) -0.2694(3) 0.46866(8)
H14 H 0.0040 -0.3936 0.4620
C20 C 0.17334(5) -0.2198(4) 0.54575(8)
H15 H 0.1518 -0.2486 0.5059
C21 C -0.18579(5) 0.4235(3) 0.24223(9)
H16 H -0.1982 0.2969 0.2546
C22 C 0.20720(6) -0.3506(3) 0.55799(9)
C23 C 0.21071(7) -0.5283(4) 0.50914(12)
H17 H 0.1846 -0.5354 0.4727
H18 H 0.2164 -0.6736 0.5308
H19 H 0.2334 -0.4891 0.4927
C24 C 0.24525(6) -0.3368(4) 0.61994(12)
H20 H 0.2406 -0.2223 0.6490
H21 H 0.2698 -0.2979 0.6081
H22 H 0.2496 -0.4813 0.6422
C25 C -0.18058(7) 0.6064(4) 0.27949(11)
H23 H -0.1683 0.7359 0.2684
H24 H -0.1892 0.6065 0.3170
loop_
_geom_bond_atom_site_label_1
_geom_bond_atom_site_label_2
_geom_bond_site_symmetry_1
_geom_bond_site_symmetry_2
O1 C9 1_555 1_555
C1 C2 1_555 1_555
C2 C5 1_555 1_555
C3 C7 1_555 1_555
O2 H1 1_555 1_555
C4 H2 1_555 1_555
O3 C8 1_555 1_555
C5 O2 1_555 1_555
C6 H3 1_555 1_555
C7 C6 1_555 1_555
C8 C1 1_555 1_555
C9 C7 1_555 1_555
C10 C4 1_555 1_555
H4 C10 1_555 1_555
C11 C2 1_555 1_555
H5 C11 1_555 1_555
C12 C1 1_555 1_555
H6 C12 1_555 1_555
C13 C6 1_555 1_555
C14 H7 1_555 1_555
H8 C14 1_555 1_555
C15 C13 1_555 1_555
H9 C15 1_555 1_555
H10 C15 1_555 1_555
C16 C13 1_555 1_555
H11 C16 1_555 1_555
C17 C15 1_555 1_555
H12 C17 1_555 1_555
H13 C17 1_555 1_555
C18 C10 1_555 1_555
C19 C3 1_555 1_555
H14 C19 1_555 1_555
C20 C17 1_555 1_555
H15 C20 1_555 1_555
C21 C14 1_555 1_555
H16 C21 1_555 1_555
C22 C20 1_555 1_555
C23 C22 1_555 1_555
H17 C23 1_555 1_555
H18 C23 1_555 1_555
H19 C23 1_555 1_555
C24 C22 1_555 1_555
H20 C24 1_555 1_555
H21 C24 1_555 1_555
H22 C24 1_555 1_555
C25 C21 1_555 1_555
H23 C25 1_555 1_555
H24 C25 1_555 1_555
C3 C8 1_555 1_555
C4 C5 1_555 1_555
C9 C12 1_555 1_555
C11 C18 1_555 1_555
C14 C18 1_555 1_555
C16 C19 1_555 1_555

#END
