
#######################################################################
#
#                 Cambridge Crystallographic Data Centre
#                                CCDC 
#
#######################################################################
#
# If this CIF has been generated from an entry in the Cambridge 
# Structural Database, then it will include bibliographic, chemical, 
# crystal, experimental, refinement or atomic coordinate data resulting 
# from the CCDC's data processing and validation procedures.
#
#######################################################################

data_VIGQEK
_chemical_formula_moiety         'C28 H32 O4'
_chemical_name_systematic        
2-[2-methyl-5-(propan-2-yl)-7-(prop-2-en-1-yl)-2,3,4,5-tetrahydro-10aH-2,5a-epoxyoxepino[2,3-b][1]benzofuran-9-yl]-4-(prop-2-en-1-yl)phenol
_symmetry_cell_setting           orthorhombic
_symmetry_space_group_name_H-M   'P 21 21 21'
_symmetry_Int_Tables_number      19
_space_group_name_Hall           'P 2ac 2ab'
loop_
_symmetry_equiv_pos_site_id
_symmetry_equiv_pos_as_xyz
1 x,y,z
2 1/2-x,-y,1/2+z
3 1/2+x,1/2-y,-z
4 -x,1/2+y,1/2-z
_cell_length_a                   10.958(2)
_cell_length_b                   11.1627(11)
_cell_length_c                   18.991(5)
_cell_angle_alpha                90
_cell_angle_beta                 90
_cell_angle_gamma                90
_cell_volume                     2323
_exptl_crystal_description       prism
_cell_formula_units_Z            4
loop_
_atom_site_label
_atom_site_type_symbol
_atom_site_fract_x
_atom_site_fract_y
_atom_site_fract_z
O1 O -0.6400(5) -0.6245(4) -0.2388(3)
O2 O -0.5203(6) -0.3969(4) -0.1952(3)
C1 C -0.6781(7) -0.5474(6) -0.2910(4)
C2 C -0.5111(9) -0.5959(6) -0.2218(5)
H1 H -0.4545 -0.6572 -0.2420
O3 O -0.4953(8) -0.5851(5) -0.1520(4)
C3 C -0.3597(9) -0.4433(7) -0.2781(5)
H2 H -0.3522 -0.3541 -0.2803
C4 C -0.4903(8) -0.4697(6) -0.2572(5)
C5 C -0.7866(8) -0.5568(6) -0.3255(6)
C6 C -0.4600(13) -0.4563(8) -0.1395(5)
C7 C -0.5936(8) -0.4562(6) -0.3065(5)
C8 C -0.6192(10) -0.3738(8) -0.3563(6)
H3 H -0.5618 -0.3127 -0.3669
C9 C -0.8086(10) -0.4684(8) -0.3775(7)
H4 H -0.8825 -0.4725 -0.4035
C10 C -0.3233(13) -0.4449(10) -0.1475(7)
H5 H -0.2998 -0.3602 -0.1398
H6 H -0.2831 -0.4937 -0.1107
C11 C -0.3264(10) -0.4901(10) -0.3512(8)
H7 H -0.3830 -0.4500 -0.3852
C12 C -0.2774(11) -0.4842(9) -0.2187(8)
H8 H -0.2715 -0.5727 -0.2195
H9 H -0.1945 -0.4514 -0.2262
C13 C -0.7299(11) -0.3785(10) -0.3920(6)
C14 C -0.3418(11) -0.6263(11) -0.3623(9)
H10 H -0.2906 -0.6696 -0.3285
H11 H -0.3171 -0.6474 -0.4104
H12 H -0.4275 -0.6485 -0.3552
C15 C -0.5165(18) -0.4234(10) -0.0702(5)
H13 H -0.5227 -0.3360 -0.0666
H14 H -0.4656 -0.4539 -0.0317
H15 H -0.5982 -0.4587 -0.0670
C16 C -0.1960(13) -0.4529(14) -0.3725(10)
H16 H -0.1875 -0.3658 -0.3682
H17 H -0.1808 -0.4767 -0.4214
H18 H -0.1369 -0.4925 -0.3416
C17 C -0.8778(8) -0.6490(9) -0.2991(6)
C18 C -0.9042(9) -0.6766(9) -0.2294(6)
C19 C -0.9983(9) -0.7557(9) -0.2136(6)
H19 H -1.0163 -0.7746 -0.1660
C20 C -1.0661(8) -0.8071(8) -0.2676(8)
H20 H -1.1304 -0.8612 -0.2569
C21 C -1.0397(9) -0.7795(10) -0.3374(7)
C22 C -0.9456(9) -0.7004(9) -0.3531(6)
H21 H -0.9275 -0.6815 -0.4007
O4 O -0.8490(11) -0.6289(9) -0.1722(6)
H22 H -0.8015 -0.5739 -0.1849
C23 C -1.111(2) -0.8411(19) -0.3965(12)
H23 H -1.1531 -0.7800 -0.4255
H24 H -1.1738 -0.8945 -0.3760
C24 C -1.061(5) -0.923(5) -0.5064(17)
H25 H -1.1349 -0.8852 -0.5199
H26 H -1.0145 -0.9663 -0.5400
C25 C -1.024(4) -0.915(3) -0.4435(16)
H27 H -0.9507 -0.9508 -0.4270
C26 C -0.742(2) -0.3054(19) -0.4618(10)
H28 H -0.6670 -0.2585 -0.4710
H29 H -0.7572 -0.3593 -0.5023
C27 C -0.852(3) -0.2221(18) -0.4493(12)
H30 H -0.8566 -0.1698 -0.4099
C28 C -0.934(3) -0.229(3) -0.495(3)
H31 H -0.9257 -0.2822 -0.5338
H32 H -1.0051 -0.1801 -0.4912
loop_
_geom_bond_atom_site_label_1
_geom_bond_atom_site_label_2
_geom_bond_site_symmetry_1
_geom_bond_site_symmetry_2
O1 C1 1_555 1_555
O2 C4 1_555 1_555
C1 C5 1_555 1_555
C2 O1 1_555 1_555
H1 C2 1_555 1_555
O3 C2 1_555 1_555
C3 H2 1_555 1_555
C4 C2 1_555 1_555
C5 C9 1_555 1_555
C6 O2 1_555 1_555
C7 C1 1_555 1_555
C8 C7 1_555 1_555
H3 C8 1_555 1_555
C9 H4 1_555 1_555
C10 C6 1_555 1_555
H5 C10 1_555 1_555
H6 C10 1_555 1_555
C11 C3 1_555 1_555
H7 C11 1_555 1_555
C12 C3 1_555 1_555
H8 C12 1_555 1_555
H9 C12 1_555 1_555
C13 C8 1_555 1_555
C14 C11 1_555 1_555
H10 C14 1_555 1_555
H11 C14 1_555 1_555
H12 C14 1_555 1_555
C15 C6 1_555 1_555
H13 C15 1_555 1_555
H14 C15 1_555 1_555
H15 C15 1_555 1_555
C16 C11 1_555 1_555
H16 C16 1_555 1_555
H17 C16 1_555 1_555
H18 C16 1_555 1_555
C17 C5 1_555 1_555
C18 C17 1_555 1_555
C19 C18 1_555 1_555
H19 C19 1_555 1_555
C20 C19 1_555 1_555
H20 C20 1_555 1_555
C21 C20 1_555 1_555
C22 C17 1_555 1_555
H21 C22 1_555 1_555
O4 C18 1_555 1_555
H22 O4 1_555 1_555
C23 C21 1_555 1_555
H23 C23 1_555 1_555
H24 C23 1_555 1_555
C24 H25 1_555 1_555
H26 C24 1_555 1_555
C25 C23 1_555 1_555
H27 C25 1_555 1_555
C26 C13 1_555 1_555
H28 C26 1_555 1_555
H29 C26 1_555 1_555
C27 C26 1_555 1_555
H30 C27 1_555 1_555
C28 C27 1_555 1_555
H31 C28 1_555 1_555
H32 C28 1_555 1_555
O3 C6 1_555 1_555
C3 C4 1_555 1_555
C4 C7 1_555 1_555
C9 C13 1_555 1_555
C10 C12 1_555 1_555
C21 C22 1_555 1_555
C24 C25 1_555 1_555

#END
