
#######################################################################
#
#                 Cambridge Crystallographic Data Centre
#                                CCDC 
#
#######################################################################
#
# If this CIF has been generated from an entry in the Cambridge 
# Structural Database, then it will include bibliographic, chemical, 
# crystal, experimental, refinement or atomic coordinate data resulting 
# from the CCDC's data processing and validation procedures.
#
#######################################################################

data_VIGVEP
_chemical_name_common            
(2R,4S)-3-methoxy-2-(2-methoxyphenyl)-4-(prop-1-en-2-yl)-1-tosylimidazolidine
_chemical_formula_moiety         'C21 H26 N2 O4 S1'
_chemical_name_systematic        
3-methoxy-2-(2-methoxyphenyl)-1-[(4-methylphenyl)sulfonyl]-4-(prop-1-en-2-yl)imidazolidine
_symmetry_cell_setting           orthorhombic
_symmetry_space_group_name_H-M   'P 21 21 21'
_symmetry_Int_Tables_number      19
_space_group_name_Hall           'P 2ac 2ab'
loop_
_symmetry_equiv_pos_site_id
_symmetry_equiv_pos_as_xyz
1 x,y,z
2 1/2-x,-y,1/2+z
3 -x,1/2+y,1/2-z
4 1/2+x,1/2-y,-z
_cell_length_a                   11.49200(10)
_cell_length_b                   16.7686(2)
_cell_length_c                   22.0272(2)
_cell_angle_alpha                90
_cell_angle_beta                 90
_cell_angle_gamma                90
_cell_volume                     4244.75
_exptl_crystal_colour            colorless
_exptl_crystal_description       block
_cell_formula_units_Z            8
loop_
_atom_site_label
_atom_site_type_symbol
_atom_site_fract_x
_atom_site_fract_y
_atom_site_fract_z
S1 S -0.01450(6) 0.57400(4) 0.62494(3)
O1 O 0.26447(19) 0.41909(15) 0.50003(12)
O2 O 0.09729(19) 0.61068(13) 0.62644(10)
O3 O -0.11632(19) 0.61939(12) 0.63751(9)
O4 O -0.03583(17) 0.36950(11) 0.56617(8)
N1 N -0.03122(18) 0.53951(12) 0.55608(9)
N2 N -0.00542(19) 0.41309(12) 0.51081(8)
C1 C -0.0103(3) 0.49170(16) 0.67481(11)
C2 C -0.1133(3) 0.45841(19) 0.69566(13)
H1 H -0.184466 0.480835 0.684984
C3 C -0.1095(3) 0.3918(2) 0.73237(13)
H2 H -0.178656 0.369456 0.746238
C4 C -0.0042(3) 0.35741(18) 0.74897(12)
C5 C 0.0976(3) 0.3914(2) 0.72724(14)
H3 H 0.168744 0.368765 0.737712
C6 C 0.0958(3) 0.4580(2) 0.69035(13)
H4 H 0.164870 0.480039 0.676131
C7 C 0.1287(2) 0.51891(17) 0.48035(11)
C8 C 0.2343(3) 0.4833(2) 0.46553(14)
C9 C 0.3010(3) 0.5135(3) 0.41851(17)
H5 H 0.370310 0.488547 0.407772
C10 C 0.2649(4) 0.5804(3) 0.38772(16)
H6 H 0.310349 0.600597 0.356377
C11 C 0.1630(4) 0.6174(3) 0.40262(15)
H7 H 0.139616 0.663058 0.381987
C12 C 0.0948(3) 0.5863(2) 0.44870(13)
H8 H 0.025001 0.611205 0.458582
C13 C 0.0587(2) 0.48380(16) 0.53177(11)
H9 H 0.111412 0.468322 0.564689
C14 C -0.1477(2) 0.50952(17) 0.53861(12)
H10 H -0.195265 0.551677 0.521475
H11 H -0.187872 0.486321 0.573074
C15 C -0.1185(2) 0.44643(16) 0.49116(11)
H12 H -0.105394 0.474203 0.452614
C16 C -0.2093(3) 0.38351(18) 0.47997(12)
C17 C -0.1742(3) 0.3207(2) 0.43572(16)
H13 H -0.153289 0.345143 0.397860
H14 H -0.237959 0.284638 0.429360
H15 H -0.108697 0.291750 0.451449
C18 C 0.0437(3) 0.3060(2) 0.57329(18)
H16 H 0.039799 0.271651 0.538500
H17 H 0.024397 0.276262 0.609127
H18 H 0.121122 0.327006 0.577091
C19 C 0.3798(4) 0.3892(3) 0.4939(3)
H19 H 0.386299 0.359929 0.456572
H20 H 0.397238 0.354607 0.527397
H21 H 0.433796 0.432908 0.493512
C20 C 0.0000(4) 0.2859(2) 0.79046(15)
H22 H -0.016701 0.302332 0.831293
H23 H 0.076126 0.262454 0.788889
H24 H -0.056771 0.247454 0.777601
C21 C -0.3128(3) 0.3854(3) 0.50609(17)
H25 H -0.367608 0.346334 0.497139
H26 H -0.330822 0.425823 0.533439
S2 S -0.50724(7) 0.47635(4) 0.66417(3)
O5 O -0.4797(2) 0.67828(13) 0.74687(10)
C22 C -0.7728(4) 0.6709(3) 0.8049(2)
H27 H -0.821860 0.709713 0.820853
H28 H -0.797817 0.639041 0.772937
O6 O -0.3931(2) 0.44430(14) 0.65889(10)
O7 O -0.6063(2) 0.42725(14) 0.65444(10)
N3 N -0.4675(2) 0.61846(14) 0.79446(10)
O8 O -0.20693(19) 0.58381(16) 0.81211(10)
N4 N -0.5180(2) 0.50992(15) 0.73278(9)
C23 C -0.3592(3) 0.49214(18) 0.80793(12)
C24 C -0.6275(3) 0.5471(2) 0.75285(14)
H29 H -0.685070 0.507209 0.763557
H30 H -0.659248 0.581851 0.721782
C25 C -0.4178(2) 0.54795(18) 0.76368(12)
H31 H -0.361166 0.565480 0.733234
C26 C -0.5184(3) 0.55741(17) 0.61329(11)
C27 C -0.5887(3) 0.59417(19) 0.80811(13)
H32 H -0.584783 0.556449 0.842036
C28 C -0.6252(3) 0.5776(2) 0.58947(14)
H33 H -0.691747 0.550569 0.601803
C29 C -0.6332(3) 0.6384(2) 0.54714(16)
H34 H -0.705718 0.652392 0.531729
C30 C -0.4193(3) 0.5996(2) 0.59651(14)
H35 H -0.347521 0.587978 0.613882
C31 C -0.2505(3) 0.5132(2) 0.83213(13)
C32 C -0.4045(3) 0.4187(2) 0.82295(15)
H36 H -0.475575 0.403091 0.806620
C33 C -0.5447(5) 0.7401(2) 0.47758(18)
H37 H -0.566736 0.714498 0.440337
H38 H -0.470882 0.766041 0.472347
H39 H -0.602435 0.778944 0.488413
C34 C -0.0885(3) 0.6025(3) 0.8262(2)
H40 H -0.066077 0.650208 0.805152
H41 H -0.039273 0.559247 0.813792
H42 H -0.080788 0.610621 0.869168
C35 C -0.6268(4) 0.7114(3) 0.8786(2)
H43 H -0.558089 0.739795 0.866563
H44 H -0.609360 0.678278 0.913001
H45 H -0.686621 0.748811 0.889396
C36 C -0.3907(5) 0.7351(3) 0.7541(3)
H46 H -0.394451 0.773149 0.721534
H47 H -0.316487 0.708889 0.753433
H48 H -0.400505 0.762174 0.792141
C37 C -0.2437(4) 0.3902(3) 0.88645(17)
H49 H -0.205943 0.356465 0.913533
C38 C -0.1942(3) 0.4618(3) 0.87226(15)
H50 H -0.123224 0.476244 0.889304
C39 C -0.5352(4) 0.6785(2) 0.52737(14)
C40 C -0.3459(4) 0.3674(3) 0.86213(18)
H51 H -0.377135 0.317683 0.871443
C41 C -0.4298(3) 0.6590(2) 0.55355(16)
H52 H -0.363548 0.686889 0.541809
C42 C -0.6676(3) 0.6610(2) 0.82773(16)
loop_
_geom_bond_atom_site_label_1
_geom_bond_atom_site_label_2
_geom_bond_site_symmetry_1
_geom_bond_site_symmetry_2
S1 O2 1_555 1_555
O1 C8 1_555 1_555
O3 S1 1_555 1_555
O4 N2 1_555 1_555
N1 S1 1_555 1_555
N2 C13 1_555 1_555
C1 S1 1_555 1_555
C2 C1 1_555 1_555
H1 C2 1_555 1_555
C3 C2 1_555 1_555
H2 C3 1_555 1_555
C4 C3 1_555 1_555
C5 C4 1_555 1_555
H3 C5 1_555 1_555
C6 C1 1_555 1_555
H4 C6 1_555 1_555
C7 C8 1_555 1_555
C8 C9 1_555 1_555
C9 H5 1_555 1_555
C10 C9 1_555 1_555
H6 C10 1_555 1_555
C11 C10 1_555 1_555
H7 C11 1_555 1_555
C12 C7 1_555 1_555
H8 C12 1_555 1_555
C13 N1 1_555 1_555
H9 C13 1_555 1_555
C14 N1 1_555 1_555
H10 C14 1_555 1_555
H11 C14 1_555 1_555
C15 N2 1_555 1_555
H12 C15 1_555 1_555
C16 C15 1_555 1_555
C17 C16 1_555 1_555
H13 C17 1_555 1_555
H14 C17 1_555 1_555
H15 C17 1_555 1_555
C18 O4 1_555 1_555
H16 C18 1_555 1_555
H17 C18 1_555 1_555
H18 C18 1_555 1_555
C19 O1 1_555 1_555
H19 C19 1_555 1_555
H20 C19 1_555 1_555
H21 C19 1_555 1_555
C20 C4 1_555 1_555
H22 C20 1_555 1_555
H23 C20 1_555 1_555
H24 C20 1_555 1_555
C21 C16 1_555 1_555
H25 C21 1_555 1_555
H26 C21 1_555 1_555
S2 O6 1_555 1_555
O5 N3 1_555 1_555
C22 H27 1_555 1_555
H28 C22 1_555 1_555
O7 S2 1_555 1_555
N3 C25 1_555 1_555
O8 C31 1_555 1_555
N4 S2 1_555 1_555
C23 C25 1_555 1_555
C24 N4 1_555 1_555
H29 C24 1_555 1_555
H30 C24 1_555 1_555
C25 N4 1_555 1_555
H31 C25 1_555 1_555
C26 S2 1_555 1_555
C27 N3 1_555 1_555
H32 C27 1_555 1_555
C28 C26 1_555 1_555
H33 C28 1_555 1_555
C29 C28 1_555 1_555
H34 C29 1_555 1_555
C30 C26 1_555 1_555
H35 C30 1_555 1_555
C31 C23 1_555 1_555
C32 C23 1_555 1_555
H36 C32 1_555 1_555
C33 H37 1_555 1_555
H38 C33 1_555 1_555
H39 C33 1_555 1_555
C34 O8 1_555 1_555
H40 C34 1_555 1_555
H41 C34 1_555 1_555
H42 C34 1_555 1_555
C35 H43 1_555 1_555
H44 C35 1_555 1_555
H45 C35 1_555 1_555
C36 O5 1_555 1_555
H46 C36 1_555 1_555
H47 C36 1_555 1_555
H48 C36 1_555 1_555
C37 H49 1_555 1_555
C38 C31 1_555 1_555
H50 C38 1_555 1_555
C39 C29 1_555 1_555
C40 C32 1_555 1_555
H51 C40 1_555 1_555
C41 C30 1_555 1_555
H52 C41 1_555 1_555
C42 C22 1_555 1_555
C5 C6 1_555 1_555
C7 C13 1_555 1_555
C11 C12 1_555 1_555
C14 C15 1_555 1_555
C24 C27 1_555 1_555
C27 C42 1_555 1_555
C33 C39 1_555 1_555
C35 C42 1_555 1_555
C37 C38 1_555 1_555
C37 C40 1_555 1_555
C39 C41 1_555 1_555

#END
