
#######################################################################
#
#                 Cambridge Crystallographic Data Centre
#                                CCDC 
#
#######################################################################
#
# If this CIF has been generated from an entry in the Cambridge 
# Structural Database, then it will include bibliographic, chemical, 
# crystal, experimental, refinement or atomic coordinate data resulting 
# from the CCDC's data processing and validation procedures.
#
#######################################################################

data_VIGVEM
_chemical_formula_moiety         'C5 H6 N5 1+,C5 H5 N5,B1 F4 1-,2(H2 O1)'
_chemical_name_systematic        'Adenine-adeninium tetrafluoroborate dihydrate'
_symmetry_cell_setting           monoclinic
_symmetry_space_group_name_H-M   'P 21/m'
_symmetry_Int_Tables_number      11
_space_group_name_Hall           '-P 2yb'
loop_
_symmetry_equiv_pos_site_id
_symmetry_equiv_pos_as_xyz
1 x,y,z
2 -x,1/2+y,-z
3 -x,-y,-z
4 x,1/2-y,z
_cell_length_a                   5.358(1)
_cell_length_b                   19.468(7)
_cell_length_c                   7.905(2)
_cell_angle_alpha                90
_cell_angle_beta                 104.75(2)
_cell_angle_gamma                90
_cell_volume                     797.394
_exptl_crystal_colour            colorless
_cell_formula_units_Z            2
loop_
_atom_site_label
_atom_site_type_symbol
_atom_site_fract_x
_atom_site_fract_y
_atom_site_fract_z
O1 O -0.0825(5) 0.2500 0.5611(4)
O2 O 0.4826(6) 0.2500 0.6935(4)
B1 B 0.1209(8) 0.2500 0.0600(5)
F1 F 0.2456(5) 0.2500 0.2350(3)
F2 F -0.1403(5) 0.2500 0.0345(4)
F3 F 0.1947(5) 0.3061(1) -0.0162(3)
F3C F 0.1947(5) 0.1939(1) -0.0162(3)
N1 N -0.0852(3) 0.3612(1) 0.3670(2)
N2 N -0.3631(4) 0.4292(1) 0.1492(2)
N3 N 0.3240(4) 0.3931(1) 0.5257(3)
N4 N 0.2089(4) 0.5280(1) 0.3163(2)
N5 N -0.1692(4) 0.5395(1) 0.1184(2)
C1 C -0.3052(4) 0.3735(1) 0.2439(3)
C2 C -0.1734(4) 0.4762(1) 0.1890(3)
C3 C 0.0620(4) 0.4691(1) 0.3118(3)
C4 C 0.1094(4) 0.4078(1) 0.4057(3)
C5 C 0.0604(5) 0.5678(1) 0.1987(3)
H1 H -0.07(1) 0.314(3) 0.449(7)
H2 H -0.433(5) 0.336(2) 0.216(3)
H3 H 0.119(5) 0.612(1) 0.168(3)
H4 H 0.460(6) 0.424(2) 0.562(4)
H5 H 0.343(6) 0.354(2) 0.571(4)
H6 H -0.289(5) 0.557(2) 0.038(4)
loop_
_geom_bond_atom_site_label_1
_geom_bond_atom_site_label_2
_geom_bond_site_symmetry_1
_geom_bond_site_symmetry_2
N1 C1 1_555 1_555
N2 C1 1_555 1_555
N3 C4 1_555 1_555
N4 C3 1_555 1_555
N5 C2 1_555 1_555
C1 H2 1_555 1_555
C2 N2 1_555 1_555
C3 C2 1_555 1_555
C4 N1 1_555 1_555
C5 N4 1_555 1_555
B1 F1 1_555 1_555
F2 B1 1_555 1_555
F3 B1 1_555 1_555
H1 N1 1_555 1_555
H3 C5 1_555 1_555
H4 N3 1_555 1_555
H5 N3 1_555 1_555
H6 N5 1_555 1_555
F3C B1 1_555 1_555
N5 C5 1_555 1_555
C3 C4 1_555 1_555

#END
