
#######################################################################
#
#                 Cambridge Crystallographic Data Centre
#                                CCDC 
#
#######################################################################
#
# If this CIF has been generated from an entry in the Cambridge 
# Structural Database, then it will include bibliographic, chemical, 
# crystal, experimental, refinement or atomic coordinate data resulting 
# from the CCDC's data processing and validation procedures.
#
#######################################################################

data_VIHDAS
_chemical_formula_moiety         'C48 H76 N10 O6'
_chemical_name_systematic        
N,N'-bis(5-t-Butyl-3-(4-(2-(3-t-butylureido)-2-oxoethyl)piperazinylmethyl)salicylidene)ethane-1,2-diamine
_symmetry_cell_setting           monoclinic
_symmetry_space_group_name_H-M   'P 21/n'
_symmetry_Int_Tables_number      14
_space_group_name_Hall           '-P 2yn'
loop_
_symmetry_equiv_pos_site_id
_symmetry_equiv_pos_as_xyz
1 x,y,z
2 1/2-x,1/2+y,1/2-z
3 -x,-y,-z
4 1/2+x,1/2-y,1/2+z
_cell_length_a                   6.3692(9)
_cell_length_b                   21.174(3)
_cell_length_c                   19.273(3)
_cell_angle_alpha                90
_cell_angle_beta                 92.211(3)
_cell_angle_gamma                90
_cell_volume                     2597.25
_exptl_crystal_colour            yellow
_exptl_crystal_description       tablet
_cell_formula_units_Z            2
loop_
_atom_site_label
_atom_site_type_symbol
_atom_site_fract_x
_atom_site_fract_y
_atom_site_fract_z
O1 O 1.01008(13) 0.05157(4) 0.12701(5)
H1 H 1.1125 0.0468 0.1013
O2 O -0.12308(14) 0.10781(4) 0.50422(5)
O3 O 0.10715(16) 0.27996(4) 0.43424(5)
N1 N 1.33752(16) -0.00487(5) 0.07796(5)
N2 N 0.52887(15) 0.04423(5) 0.27243(5)
N3 N 0.31217(16) 0.07620(5) 0.39468(5)
N4 N 0.09945(17) 0.17358(5) 0.44768(6)
H2 H 0.2096 0.1724 0.4215
N5 N -0.14509(18) 0.23633(5) 0.50111(6)
H3 H -0.1996 0.2000 0.5132
C1 C 0.97118(18) -0.00365(5) 0.16007(6)
C2 C 1.52786(19) -0.00647(6) 0.03808(6)
H4 H 1.5955 -0.0484 0.0430
H5 H 1.6284 0.0258 0.0561
C3 C 0.79927(18) -0.00654(6) 0.20310(6)
C4 C 0.75366(19) -0.06391(6) 0.23385(6)
H6 H 0.6343 -0.0663 0.2618
C5 C 0.87400(19) -0.11844(6) 0.22583(6)
C6 C 1.04737(19) -0.11367(6) 0.18519(6)
H7 H 1.1343 -0.1497 0.1797
C7 C 1.09845(18) -0.05718(6) 0.15188(6)
C8 C 0.8134(2) -0.17920(6) 0.26374(7)
C9 C 0.9494(3) -0.23528(6) 0.24311(9)
H8 H 1.0975 -0.2257 0.2540
H9 H 0.9295 -0.2431 0.1932
H10 H 0.9082 -0.2729 0.2689
C10 C 0.5825(2) -0.19566(7) 0.24598(8)
H11 H 0.5448 -0.2344 0.2703
H12 H 0.5633 -0.2020 0.1958
H13 H 0.4923 -0.1610 0.2605
C11 C 0.8429(3) -0.16843(7) 0.34204(8)
H14 H 0.9901 -0.1579 0.3534
H15 H 0.8047 -0.2069 0.3668
H16 H 0.7527 -0.1335 0.3561
C12 C 1.28365(19) -0.05501(6) 0.10977(6)
H17 H 1.3669 -0.0920 0.1058
C13 C 0.66737(19) 0.05192(6) 0.21434(7)
H18 H 0.7613 0.0885 0.2235
H19 H 0.5816 0.0609 0.1716
C14 C 0.64023(19) 0.05085(6) 0.33955(7)
H20 H 0.6917 0.0947 0.3451
H21 H 0.7633 0.0223 0.3416
C15 C 0.4974(2) 0.03507(6) 0.39758(7)
H22 H 0.4525 -0.0096 0.3936
H23 H 0.5744 0.0405 0.4428
C16 C 0.20378(19) 0.07068(6) 0.32630(7)
H24 H 0.0808 0.0993 0.3241
H25 H 0.1523 0.0269 0.3196
C17 C 0.35022(18) 0.08741(6) 0.26922(7)
H26 H 0.2751 0.0839 0.2234
H27 H 0.3999 0.1315 0.2751
C18 C 0.1721(2) 0.06165(6) 0.45057(7)
H28 H 0.2577 0.0488 0.4922
H29 H 0.0826 0.0253 0.4364
C19 C 0.0318(2) 0.11629(6) 0.46980(7)
C20 C 0.0196(2) 0.23494(6) 0.46031(7)
C21 C -0.2426(2) 0.29471(6) 0.52746(7)
C22 C -0.4097(3) 0.27280(8) 0.57670(9)
H30 H -0.5153 0.2475 0.5510
H31 H -0.4773 0.3097 0.5969
H32 H -0.3437 0.2472 0.6138
C23 C -0.3465(2) 0.33168(7) 0.46774(8)
H33 H -0.4525 0.3051 0.4438
H34 H -0.2400 0.3442 0.4351
H35 H -0.4141 0.3695 0.4859
C24 C -0.0760(3) 0.33427(7) 0.56639(8)
H36 H 0.0300 0.3480 0.5341
H37 H -0.0088 0.3089 0.6035
H38 H -0.1424 0.3714 0.5866
O1B O 1.98992(13) -0.05157(4) -0.12701(5)
H1B H 1.8875 -0.0468 -0.1013
O2B O 3.12308(14) -0.10781(4) -0.50422(5)
O3B O 2.89285(16) -0.27996(4) -0.43424(5)
N1B N 1.66248(16) 0.00487(5) -0.07796(5)
N2B N 2.47113(15) -0.04423(5) -0.27243(5)
N3B N 2.68783(16) -0.07620(5) -0.39468(5)
N4B N 2.90055(17) -0.17358(5) -0.44768(6)
H2B H 2.7904 -0.1724 -0.4215
N5B N 3.14509(18) -0.23633(5) -0.50111(6)
H3B H 3.1996 -0.2000 -0.5132
C1B C 2.02882(18) 0.00365(5) -0.16007(6)
C2B C 1.47214(19) 0.00647(6) -0.03808(6)
H4B H 1.4045 0.0484 -0.0430
H5B H 1.3716 -0.0258 -0.0561
C3B C 2.20073(18) 0.00654(6) -0.20310(6)
C4B C 2.24634(19) 0.06391(6) -0.23385(6)
H6B H 2.3657 0.0663 -0.2618
C5B C 2.12600(19) 0.11844(6) -0.22583(6)
C6B C 1.95263(19) 0.11367(6) -0.18519(6)
H7B H 1.8657 0.1497 -0.1797
C7B C 1.90155(18) 0.05718(6) -0.15188(6)
C8B C 2.1866(2) 0.17920(6) -0.26374(7)
C9B C 2.0506(3) 0.23528(6) -0.24311(9)
H8B H 1.9025 0.2257 -0.2540
H9B H 2.0705 0.2431 -0.1932
H10B H 2.0918 0.2729 -0.2689
C10B C 2.4175(2) 0.19566(7) -0.24598(8)
H11B H 2.4552 0.2344 -0.2703
H12B H 2.4367 0.2020 -0.1958
H13B H 2.5077 0.1610 -0.2605
C11B C 2.1571(3) 0.16843(7) -0.34204(8)
H14B H 2.0099 0.1579 -0.3534
H15B H 2.1953 0.2069 -0.3668
H16B H 2.2473 0.1335 -0.3561
C12B C 1.71635(19) 0.05501(6) -0.10977(6)
H17B H 1.6331 0.0920 -0.1058
C13B C 2.33263(19) -0.05192(6) -0.21434(7)
H18B H 2.2387 -0.0885 -0.2235
H19B H 2.4184 -0.0609 -0.1716
C14B C 2.35977(19) -0.05085(6) -0.33955(7)
H20B H 2.3083 -0.0947 -0.3451
H21B H 2.2367 -0.0223 -0.3416
C15B C 2.5026(2) -0.03507(6) -0.39758(7)
H22B H 2.5475 0.0096 -0.3936
H23B H 2.4256 -0.0405 -0.4428
C16B C 2.79622(19) -0.07068(6) -0.32630(7)
H24B H 2.9192 -0.0993 -0.3241
H25B H 2.8477 -0.0269 -0.3196
C17B C 2.64978(18) -0.08741(6) -0.26922(7)
H26B H 2.7249 -0.0839 -0.2234
H27B H 2.6001 -0.1315 -0.2751
C18B C 2.8279(2) -0.06165(6) -0.45057(7)
H28B H 2.7423 -0.0488 -0.4922
H29B H 2.9174 -0.0253 -0.4364
C19B C 2.9682(2) -0.11629(6) -0.46980(7)
C20B C 2.9804(2) -0.23494(6) -0.46031(7)
C21B C 3.2426(2) -0.29471(6) -0.52746(7)
C22B C 3.4097(3) -0.27280(8) -0.57670(9)
H30B H 3.5153 -0.2475 -0.5510
H31B H 3.4773 -0.3097 -0.5969
H32B H 3.3437 -0.2472 -0.6138
C23B C 3.3465(2) -0.33168(7) -0.46774(8)
H33B H 3.4525 -0.3051 -0.4438
H34B H 3.2400 -0.3442 -0.4351
H35B H 3.4141 -0.3695 -0.4859
C24B C 3.0760(3) -0.33427(7) -0.56639(8)
H36B H 2.9700 -0.3480 -0.5341
H37B H 3.0088 -0.3089 -0.6035
H38B H 3.1424 -0.3714 -0.5866
loop_
_geom_bond_atom_site_label_1
_geom_bond_atom_site_label_2
_geom_bond_site_symmetry_1
_geom_bond_site_symmetry_2
O1 H1 1_555 1_555
O2 C19 1_555 1_555
O3 C20 1_555 1_555
N1 C2 1_555 1_555
N2 C13 1_555 1_555
N3 C15 1_555 1_555
N4 H2 1_555 1_555
N5 H3 1_555 1_555
C1 O1 1_555 1_555
C2 H4 1_555 1_555
H5 C2 1_555 1_555
C3 C1 1_555 1_555
C4 C3 1_555 1_555
H6 C4 1_555 1_555
C5 C4 1_555 1_555
C6 C5 1_555 1_555
H7 C6 1_555 1_555
C7 C1 1_555 1_555
C8 C5 1_555 1_555
C9 C8 1_555 1_555
H8 C9 1_555 1_555
H9 C9 1_555 1_555
H10 C9 1_555 1_555
C10 C8 1_555 1_555
H11 C10 1_555 1_555
H12 C10 1_555 1_555
H13 C10 1_555 1_555
C11 C8 1_555 1_555
H14 C11 1_555 1_555
H15 C11 1_555 1_555
H16 C11 1_555 1_555
C12 N1 1_555 1_555
H17 C12 1_555 1_555
C13 C3 1_555 1_555
H18 C13 1_555 1_555
H19 C13 1_555 1_555
C14 N2 1_555 1_555
H20 C14 1_555 1_555
H21 C14 1_555 1_555
C15 C14 1_555 1_555
H22 C15 1_555 1_555
H23 C15 1_555 1_555
C16 N3 1_555 1_555
H24 C16 1_555 1_555
H25 C16 1_555 1_555
C17 N2 1_555 1_555
H26 C17 1_555 1_555
H27 C17 1_555 1_555
C18 N3 1_555 1_555
H28 C18 1_555 1_555
H29 C18 1_555 1_555
C19 N4 1_555 1_555
C20 N4 1_555 1_555
C21 N5 1_555 1_555
C22 C21 1_555 1_555
H30 C22 1_555 1_555
H31 C22 1_555 1_555
H32 C22 1_555 1_555
C23 C21 1_555 1_555
H33 C23 1_555 1_555
H34 C23 1_555 1_555
H35 C23 1_555 1_555
C24 C21 1_555 1_555
H36 C24 1_555 1_555
H37 C24 1_555 1_555
H38 C24 1_555 1_555
O1B H1B 1_555 1_555
O2B C19B 1_555 1_555
O3B C20B 1_555 1_555
N1B C2B 1_555 1_555
N2B C13B 1_555 1_555
N3B C15B 1_555 1_555
N4B H2B 1_555 1_555
N5B H3B 1_555 1_555
C1B O1B 1_555 1_555
C2B C2 1_555 1_555
H4B C2B 1_555 1_555
H5B C2B 1_555 1_555
C3B C1B 1_555 1_555
C4B C3B 1_555 1_555
H6B C4B 1_555 1_555
C5B C4B 1_555 1_555
C6B C5B 1_555 1_555
H7B C6B 1_555 1_555
C7B C1B 1_555 1_555
C8B C5B 1_555 1_555
C9B C8B 1_555 1_555
H8B C9B 1_555 1_555
H9B C9B 1_555 1_555
H10B C9B 1_555 1_555
C10B C8B 1_555 1_555
H11B C10B 1_555 1_555
H12B C10B 1_555 1_555
H13B C10B 1_555 1_555
C11B C8B 1_555 1_555
H14B C11B 1_555 1_555
H15B C11B 1_555 1_555
H16B C11B 1_555 1_555
C12B N1B 1_555 1_555
H17B C12B 1_555 1_555
C13B C3B 1_555 1_555
H18B C13B 1_555 1_555
H19B C13B 1_555 1_555
C14B N2B 1_555 1_555
H20B C14B 1_555 1_555
H21B C14B 1_555 1_555
C15B C14B 1_555 1_555
H22B C15B 1_555 1_555
H23B C15B 1_555 1_555
C16B N3B 1_555 1_555
H24B C16B 1_555 1_555
H25B C16B 1_555 1_555
C17B N2B 1_555 1_555
H26B C17B 1_555 1_555
H27B C17B 1_555 1_555
C18B N3B 1_555 1_555
H28B C18B 1_555 1_555
H29B C18B 1_555 1_555
C19B N4B 1_555 1_555
C20B N4B 1_555 1_555
C21B N5B 1_555 1_555
C22B C21B 1_555 1_555
H30B C22B 1_555 1_555
H31B C22B 1_555 1_555
H32B C22B 1_555 1_555
C23B C21B 1_555 1_555
H33B C23B 1_555 1_555
H34B C23B 1_555 1_555
H35B C23B 1_555 1_555
C24B C21B 1_555 1_555
H36B C24B 1_555 1_555
H37B C24B 1_555 1_555
H38B C24B 1_555 1_555
N5 C20 1_555 1_555
C6 C7 1_555 1_555
C7 C12 1_555 1_555
C16 C17 1_555 1_555
C18 C19 1_555 1_555
N5B C20B 1_555 1_555
C6B C7B 1_555 1_555
C7B C12B 1_555 1_555
C16B C17B 1_555 1_555
C18B C19B 1_555 1_555

#END
