
#######################################################################
#
#                 Cambridge Crystallographic Data Centre
#                                CCDC 
#
#######################################################################
#
# If this CIF has been generated from an entry in the Cambridge 
# Structural Database, then it will include bibliographic, chemical, 
# crystal, experimental, refinement or atomic coordinate data resulting 
# from the CCDC's data processing and validation procedures.
#
#######################################################################

data_VIHFOJ
_chemical_formula_moiety         'C52 H48 N6'
_chemical_name_systematic        
2,2'-((5,11-Dihexyl-6,12-bis(4-methylphenyl)-5,11-dihydroindolo[3,2-b]carbazole-2,8-diyl)dimethylylidene)dimalononitrile
_symmetry_cell_setting           triclinic
_symmetry_space_group_name_H-M   'P -1'
_symmetry_Int_Tables_number      2
_space_group_name_Hall           '-P 1'
loop_
_symmetry_equiv_pos_site_id
_symmetry_equiv_pos_as_xyz
1 x,y,z
2 -x,-y,-z
_cell_length_a                   9.2346(14)
_cell_length_b                   10.1144(15)
_cell_length_c                   24.687(4)
_cell_angle_alpha                79.828(2)
_cell_angle_beta                 89.103(2)
_cell_angle_gamma                72.210(2)
_cell_volume                     2159.25
_cell_formula_units_Z            2
loop_
_atom_site_label
_atom_site_type_symbol
_atom_site_fract_x
_atom_site_fract_y
_atom_site_fract_z
C1 C 0.3914(4) 0.4475(4) 0.27639(13)
C2 C 0.4728(4) 0.3900(3) 0.23218(13)
C3 C 0.5841(4) 0.4414(4) 0.20453(13)
C4 C 0.6083(4) 0.5558(3) 0.22300(13)
C5 C 0.5275(4) 0.6136(3) 0.26687(13)
C6 C 0.4173(4) 0.5608(3) 0.29521(13)
C7 C 0.3348(4) 0.6346(4) 0.33927(15)
C8 C 0.2046(5) 0.7492(4) 0.32638(17)
H1 H 0.1588 0.7714 0.2913
C9 C 0.1421(5) 0.8309(5) 0.3654(2)
H2 H 0.0545 0.9071 0.3561
C10 C 0.2070(6) 0.8018(6) 0.4181(2)
C11 C 0.3327(6) 0.6850(5) 0.43141(17)
H3 H 0.3754 0.6613 0.4670
C12 C 0.3977(5) 0.6016(4) 0.39283(16)
H4 H 0.4834 0.5236 0.4028
C13 C 0.1399(7) 0.8964(6) 0.4594(2)
H5 H 0.1645 0.8431 0.4961
H6 H 0.0313 0.9323 0.4536
H7 H 0.1813 0.9738 0.4547
C14 C 0.6646(4) 0.3675(4) 0.15996(15)
C15 C 0.6026(5) 0.3988(4) 0.10675(15)
H8 H 0.5168 0.4766 0.0967
C16 C 0.6668(6) 0.3156(5) 0.06843(17)
H9 H 0.6238 0.3387 0.0329
C17 C 0.7935(6) 0.1988(6) 0.0821(2)
C18 C 0.8576(5) 0.1700(5) 0.1348(2)
H10 H 0.9446 0.0932 0.1445
C19 C 0.7949(5) 0.2535(4) 0.17342(17)
H11 H 0.8405 0.2328 0.2085
C20 C 0.8600(7) 0.1033(6) 0.0406(2)
H12 H 0.7949 0.0476 0.0362
H13 H 0.9593 0.0421 0.0537
H14 H 0.8675 0.1601 0.0058
C21 C 0.5834(4) 0.7284(3) 0.27519(14)
C22 C 0.6956(4) 0.7341(4) 0.23576(14)
C23 C 0.7738(4) 0.8338(4) 0.23265(15)
H15 H 0.8470 0.8374 0.2066
C24 C 0.7401(4) 0.9255(4) 0.26873(15)
H16 H 0.7923 0.9914 0.2672
C25 C 0.6282(4) 0.9237(4) 0.30855(14)
C26 C 0.5503(4) 0.8241(3) 0.31069(14)
H17 H 0.4755 0.8223 0.3362
C27 C 0.5861(4) 1.0164(4) 0.34833(14)
H18 H 0.5051 1.0047 0.3694
C28 C 0.6416(4) 1.1164(4) 0.36070(16)
C29 C 0.7658(5) 1.1553(4) 0.33588(17)
C30 C 0.5775(5) 1.1895(4) 0.40471(18)
C31 C 0.4176(4) 0.2742(4) 0.22444(14)
C32 C 0.3053(4) 0.2685(4) 0.26342(14)
C33 C 0.2265(4) 0.1685(4) 0.26688(15)
H19 H 0.1533 0.1653 0.2930
C34 C 0.2606(4) 0.0760(4) 0.23072(16)
H20 H 0.2087 0.0099 0.2323
C35 C 0.3725(4) 0.0783(4) 0.19108(14)
C36 C 0.4503(4) 0.1781(3) 0.18889(14)
H21 H 0.5248 0.1799 0.1633
C37 C 0.4135(4) -0.0138(4) 0.15148(14)
H22 H 0.4941 -0.0016 0.1302
C38 C 0.3587(4) -0.1145(4) 0.13882(15)
C39 C 0.2347(5) -0.1540(4) 0.16391(17)
C40 C 0.4217(5) -0.1868(4) 0.09493(19)
C41 C 0.8102(4) 0.6160(4) 0.15746(14)
H23 H 0.8033 0.7090 0.1369
H24 H 0.7748 0.5659 0.1331
C42 C 0.9738(5) 0.5383(4) 0.17427(16)
H25 H 0.9805 0.4442 0.1935
H26 H 1.0070 0.5862 0.2001
C43 C 1.0837(5) 0.5249(5) 0.12715(18)
H27 H 1.0596 0.6150 0.1022
H28 H 1.1865 0.5032 0.1422
C44 C 1.0787(5) 0.4153(6) 0.09574(18)
H29 H 0.9779 0.4407 0.0785
H30 H 1.0952 0.3267 0.1211
C45 C 1.1972(6) 0.3936(6) 0.0508(2)
H31 H 1.1782 0.4803 0.0241
H32 H 1.2983 0.3713 0.0675
C46 C 1.1904(7) 0.2756(7) 0.0220(2)
H33 H 1.2123 0.1891 0.0483
H34 H 1.2641 0.2651 -0.0060
H35 H 1.0905 0.2976 0.0055
C47 C 0.1902(4) 0.3852(4) 0.34230(14)
H36 H 0.2256 0.4350 0.3668
H37 H 0.1973 0.2920 0.3626
C48 C 0.0252(5) 0.4635(4) 0.32544(16)
H38 H -0.0094 0.4154 0.3000
H39 H 0.0175 0.5578 0.3062
C49 C -0.0787(6) 0.4745(5) 0.3741(2)
H40 H -0.1813 0.4876 0.3607
H41 H -0.0464 0.3855 0.3997
C50 C -0.0832(6) 0.5880(5) 0.40414(19)
H42 H -0.1060 0.6758 0.3779
H43 H 0.0175 0.5699 0.4204
C51 C -0.1964(6) 0.6081(6) 0.4491(2)
H44 H -0.2982 0.6296 0.4332
H45 H -0.1754 0.5208 0.4757
C52 C -0.1904(7) 0.7240(7) 0.4781(2)
H46 H -0.0888 0.7050 0.4926
H47 H -0.2595 0.7296 0.5076
H48 H -0.2190 0.8120 0.4525
N1 N 0.7092(3) 0.6322(3) 0.20429(12)
N2 N 0.2910(3) 0.3700(3) 0.29531(11)
N3 N 0.8671(5) 1.1878(4) 0.31740(17)
N4 N 0.5293(5) 1.2455(5) 0.44038(18)
N5 N 0.4709(5) -0.2447(4) 0.05971(17)
N6 N 0.1337(5) -0.1873(4) 0.18224(17)
loop_
_geom_bond_atom_site_label_1
_geom_bond_atom_site_label_2
_geom_bond_site_symmetry_1
_geom_bond_site_symmetry_2
C1 C2 1_555 1_555
C2 C3 1_555 1_555
C3 C4 1_555 1_555
C4 C5 1_555 1_555
C5 C6 1_555 1_555
C6 C1 1_555 1_555
C7 C6 1_555 1_555
C8 C7 1_555 1_555
H1 C8 1_555 1_555
C9 C8 1_555 1_555
H2 C9 1_555 1_555
C10 C9 1_555 1_555
C11 C10 1_555 1_555
H3 C11 1_555 1_555
C12 C7 1_555 1_555
H4 C12 1_555 1_555
C13 C10 1_555 1_555
H5 C13 1_555 1_555
H6 C13 1_555 1_555
H7 C13 1_555 1_555
C14 C3 1_555 1_555
C15 C14 1_555 1_555
H8 C15 1_555 1_555
C16 C15 1_555 1_555
H9 C16 1_555 1_555
C17 C16 1_555 1_555
C18 C17 1_555 1_555
H10 C18 1_555 1_555
C19 C14 1_555 1_555
H11 C19 1_555 1_555
C20 C17 1_555 1_555
H12 C20 1_555 1_555
H13 C20 1_555 1_555
H14 C20 1_555 1_555
C21 C5 1_555 1_555
C22 C21 1_555 1_555
C23 C22 1_555 1_555
H15 C23 1_555 1_555
C24 C23 1_555 1_555
H16 C24 1_555 1_555
C25 C24 1_555 1_555
C26 C21 1_555 1_555
H17 C26 1_555 1_555
C27 C25 1_555 1_555
H18 C27 1_555 1_555
C28 C27 1_555 1_555
C29 C28 1_555 1_555
C30 C28 1_555 1_555
C31 C2 1_555 1_555
C32 C31 1_555 1_555
C33 C32 1_555 1_555
H19 C33 1_555 1_555
C34 C33 1_555 1_555
H20 C34 1_555 1_555
C35 C34 1_555 1_555
C36 C31 1_555 1_555
H21 C36 1_555 1_555
C37 C35 1_555 1_555
H22 C37 1_555 1_555
C38 C37 1_555 1_555
C39 C38 1_555 1_555
C40 C38 1_555 1_555
C41 H23 1_555 1_555
H24 C41 1_555 1_555
C42 C41 1_555 1_555
H25 C42 1_555 1_555
H26 C42 1_555 1_555
C43 C42 1_555 1_555
H27 C43 1_555 1_555
H28 C43 1_555 1_555
C44 C43 1_555 1_555
H29 C44 1_555 1_555
H30 C44 1_555 1_555
C45 C44 1_555 1_555
H31 C45 1_555 1_555
H32 C45 1_555 1_555
C46 C45 1_555 1_555
H33 C46 1_555 1_555
H34 C46 1_555 1_555
H35 C46 1_555 1_555
C47 H36 1_555 1_555
H37 C47 1_555 1_555
C48 C47 1_555 1_555
H38 C48 1_555 1_555
H39 C48 1_555 1_555
C49 C48 1_555 1_555
H40 C49 1_555 1_555
H41 C49 1_555 1_555
C50 C49 1_555 1_555
H42 C50 1_555 1_555
H43 C50 1_555 1_555
C51 C50 1_555 1_555
H44 C51 1_555 1_555
H45 C51 1_555 1_555
C52 C51 1_555 1_555
H46 C52 1_555 1_555
H47 C52 1_555 1_555
H48 C52 1_555 1_555
N1 C4 1_555 1_555
N2 C1 1_555 1_555
N3 C29 1_555 1_555
N4 C30 1_555 1_555
N5 C40 1_555 1_555
N6 C39 1_555 1_555
C11 C12 1_555 1_555
C18 C19 1_555 1_555
C22 N1 1_555 1_555
C25 C26 1_555 1_555
C32 N2 1_555 1_555
C35 C36 1_555 1_555
C41 N1 1_555 1_555
C47 N2 1_555 1_555

#END
