
#######################################################################
#
#                 Cambridge Crystallographic Data Centre
#                                CCDC 
#
#######################################################################
#
# If this CIF has been generated from an entry in the Cambridge 
# Structural Database, then it will include bibliographic, chemical, 
# crystal, experimental, refinement or atomic coordinate data resulting 
# from the CCDC's data processing and validation procedures.
#
#######################################################################

data_VIHGOK
_chemical_formula_moiety         'H12 B12 2-,2(H12 Li1 N4 1+),2(H3 N1)'
_chemical_name_systematic        
'bis(tetraammine-lithium) dodecahydro-closo-dodecaborate ammine solvate'
_symmetry_cell_setting           monoclinic
_symmetry_space_group_name_H-M   'P 21/c'
_symmetry_Int_Tables_number      14
_space_group_name_Hall           '-P 2ybc'
loop_
_symmetry_equiv_pos_site_id
_symmetry_equiv_pos_as_xyz
1 x,y,z
2 -x,1/2+y,1/2-z
3 -x,-y,-z
4 x,1/2-y,1/2+z
_cell_length_a                   9.183(2)
_cell_length_b                   8.1330(10)
_cell_length_c                   16.357(3)
_cell_angle_alpha                90
_cell_angle_beta                 110.540(10)
_cell_angle_gamma                90
_cell_volume                     1143.97
_exptl_crystal_colour            colorless
_exptl_crystal_description       rhombus
_cell_formula_units_Z            2
loop_
_atom_site_label
_atom_site_type_symbol
_atom_site_fract_x
_atom_site_fract_y
_atom_site_fract_z
N1 N 0.57353(19) 0.33682(18) 0.09767(11)
H1 H 0.628(2) 0.401(2) 0.1429(12)
H2 H 0.481(2) 0.3846(19) 0.0757(10)
H3 H 0.6169(18) 0.3474(18) 0.0593(10)
N2 N 0.34983(18) 0.0127(2) 0.05451(12)
H4 H 0.279(2) 0.087(2) 0.0416(11)
H5 H 0.355(2) -0.020(3) 0.0062(15)
H6 H 0.301(2) -0.070(2) 0.0666(12)
N3 N 0.74588(19) -0.0432(2) 0.17155(12)
H7 H 0.818(2) 0.005(2) 0.1572(12)
H8 H 0.737(2) -0.139(3) 0.1485(12)
H9 H 0.784(2) -0.050(2) 0.2271(13)
N4 N 0.5124(2) 0.1521(2) 0.25906(10)
H10 H 0.4189(19) 0.1184(18) 0.2565(9)
H11 H 0.5803(19) 0.116(2) 0.3060(11)
H12 H 0.5116(18) 0.255(2) 0.2660(10)
Li1 Li 0.5495(3) 0.1073(3) 0.14504(15)
N5 N 0.83475(17) 0.5296(2) 0.27517(13)
H13 H 0.866(2) 0.441(2) 0.3045(11)
H14 H 0.8746(19) 0.608(2) 0.3110(11)
H15 H 0.882(2) 0.539(2) 0.2372(12)
B1 B 0.95748(18) 0.4054(2) 0.08085(10)
H16 H 0.9289(12) 0.3405(13) 0.1342(7)
B2 B 1.06319(18) 0.5928(2) 0.09857(10)
H17 H 1.1020(12) 0.6567(13) 0.1627(7)
B3 B 0.86374(18) 0.5910(2) 0.03208(10)
H18 H 0.7726(12) 0.6472(13) 0.0526(7)
B4 B 0.82683(18) 0.4061(2) -0.02868(10)
H19 H 0.7112(12) 0.3469(12) -0.0491(6)
B5 B 1.00221(18) 0.2915(2) -0.00021(10)
H20 H 1.0047(12) 0.1554(14) 0.0011(7)
B6 B 1.14892(18) 0.4085(2) 0.07870(10)
H21 H 1.2446(13) 0.3505(13) 0.1290(7)
B1B B 1.04252(18) 0.5946(2) -0.08085(10)
H16B H 1.0711(12) 0.6595(13) -0.1342(7)
B2B B 0.93681(18) 0.4072(2) -0.09857(10)
H17B H 0.8980(12) 0.3433(13) -0.1627(7)
B3B B 1.13626(18) 0.4090(2) -0.03208(10)
H18B H 1.2274(12) 0.3528(13) -0.0526(7)
B4B B 1.17317(18) 0.5939(2) 0.02868(10)
H19B H 1.2888(12) 0.6531(12) 0.0491(6)
B5B B 0.99779(18) 0.7085(2) 0.00021(10)
H20B H 0.9953(12) 0.8446(14) -0.0011(7)
B6B B 0.85108(18) 0.5915(2) -0.07870(10)
H21B H 0.7554(13) 0.6495(13) -0.1290(7)
loop_
_geom_bond_atom_site_label_1
_geom_bond_atom_site_label_2
_geom_bond_site_symmetry_1
_geom_bond_site_symmetry_2
N1 H1 1_555 1_555
H2 N1 1_555 1_555
H3 N1 1_555 1_555
N2 H4 1_555 1_555
H5 N2 1_555 1_555
H6 N2 1_555 1_555
N3 H7 1_555 1_555
H8 N3 1_555 1_555
H9 N3 1_555 1_555
N4 H10 1_555 1_555
H11 N4 1_555 1_555
H12 N4 1_555 1_555
Li1 N1 1_555 1_555
N5 H13 1_555 1_555
H14 N5 1_555 1_555
H15 N5 1_555 1_555
B1 H16 1_555 1_555
B2 B1 1_555 1_555
H17 B2 1_555 1_555
B3 B1 1_555 1_555
H18 B3 1_555 1_555
B4 B1 1_555 1_555
H19 B4 1_555 1_555
B5 B1 1_555 1_555
H20 B5 1_555 1_555
B6 B1 1_555 1_555
H21 B6 1_555 1_555
B1B H16B 1_555 1_555
B2B B4 1_555 1_555
H17B B2B 1_555 1_555
B3B B5 1_555 1_555
H18B B3B 1_555 1_555
B4B B2 1_555 1_555
H19B B4B 1_555 1_555
B5B B2 1_555 1_555
H20B B5B 1_555 1_555
B6B B3 1_555 1_555
H21B B6B 1_555 1_555
N2 Li1 1_555 1_555
N3 Li1 1_555 1_555
N4 Li1 1_555 1_555
B2 B3 1_555 1_555
B2 B6 1_555 1_555
B3 B4 1_555 1_555
B3 B5B 1_555 1_555
B4 B5 1_555 1_555
B4 B6B 1_555 1_555
B5 B6 1_555 1_555
B5 B2B 1_555 1_555
B6 B3B 1_555 1_555
B6 B4B 1_555 1_555
B1B B2B 1_555 1_555
B1B B3B 1_555 1_555
B1B B4B 1_555 1_555
B1B B5B 1_555 1_555
B1B B6B 1_555 1_555
B2B B3B 1_555 1_555
B2B B6B 1_555 1_555
B3B B4B 1_555 1_555
B4B B5B 1_555 1_555
B5B B6B 1_555 1_555

#END
