
#######################################################################
#
#                 Cambridge Crystallographic Data Centre
#                                CCDC 
#
#######################################################################
#
# If this CIF has been generated from an entry in the Cambridge 
# Structural Database, then it will include bibliographic, chemical, 
# crystal, experimental, refinement or atomic coordinate data resulting 
# from the CCDC's data processing and validation procedures.
#
#######################################################################

data_VIHHEB
_chemical_formula_moiety         'H10 B10 2-,5(H3 N1),2(Rb1 1+)'
_chemical_name_systematic        'di-rubidium decahydro-closo-decaborate ammine'
_symmetry_cell_setting           orthorhombic
_symmetry_space_group_name_H-M   'P n m a'
_symmetry_Int_Tables_number      62
_space_group_name_Hall           '-P 2ac 2n'
loop_
_symmetry_equiv_pos_site_id
_symmetry_equiv_pos_as_xyz
1 x,y,z
2 1/2-x,-y,1/2+z
3 1/2+x,1/2-y,1/2-z
4 -x,1/2+y,-z
5 -x,-y,-z
6 1/2+x,y,1/2-z
7 1/2-x,1/2+y,1/2+z
8 x,1/2-y,z
_cell_length_a                   13.9510(7)
_cell_length_b                   8.6750(11)
_cell_length_c                   13.9660(11)
_cell_angle_alpha                90
_cell_angle_beta                 90
_cell_angle_gamma                90
_cell_volume                     1690.23
_exptl_crystal_colour            colorless
_exptl_crystal_description       needle
_cell_formula_units_Z            4
loop_
_atom_site_label
_atom_site_type_symbol
_atom_site_fract_x
_atom_site_fract_y
_atom_site_fract_z
Rb1 Rb 0.076745(16) -0.01039(3) 0.661397(15)
B1 B 0.1801(3) 0.2500 0.8383(3)
H1 H 0.111(2) 0.2500 0.800(2)
B2 B 0.4138(3) 0.2500 0.9634(3)
H2 H 0.484(2) 0.2500 0.998(2)
B3 B 0.2800(2) 0.1439(3) 0.81726(19)
H3 H 0.2789(15) 0.067(3) 0.7603(15)
B4 B 0.2183(2) 0.1448(3) 0.9331(2)
H4 H 0.1723(15) 0.064(3) 0.9628(15)
B5 B 0.3012(3) 0.2500 1.0082(3)
H5 H 0.292(3) 0.2500 1.085(3)
B6 B 0.3451(2) 0.1009(3) 0.9265(2)
H6 H 0.3705(14) -0.019(2) 0.9369(13)
B7 B 0.3885(3) 0.2500 0.8447(3)
H7 H 0.451(2) 0.2500 0.795(2)
B3G B 0.2800(2) 0.3561(3) 0.81726(19)
H3G H 0.2789(15) 0.433(3) 0.7603(15)
B4G B 0.2183(2) 0.3552(3) 0.9331(2)
H4G H 0.1723(15) 0.436(3) 0.9628(15)
B6G B 0.3451(2) 0.3991(3) 0.9265(2)
H6G H 0.3705(14) 0.519(2) 0.9369(13)
N1 N -0.0290(2) 0.0094(4) 0.86669(18)
H8 H -0.076(2) 0.079(4) 0.847(2)
H9 H -0.063(2) -0.038(4) 0.912(2)
H10 H 0.012(2) 0.056(4) 0.893(2)
N2 N -0.0822(3) -0.2500 0.7080(4)
H11 H -0.122(6) -0.2500 0.673(6)
H12 H -0.096(3) -0.180(6) 0.738(3)
H12G H -0.096(3) -0.320(6) 0.738(3)
N3 N 0.1526(4) -0.2500 0.8162(3)
H13 H 0.184(2) -0.173(4) 0.832(2)
H14 H 0.111(4) -0.2500 0.854(4)
H13G H 0.184(2) -0.327(4) 0.832(2)
N4 N 0.2202(3) 0.2500 0.5755(3)
H15 H 0.239(2) 0.169(4) 0.547(2)
H16 H 0.254(3) 0.2500 0.619(3)
H15G H 0.239(2) 0.331(4) 0.547(2)
loop_
_geom_bond_atom_site_label_1
_geom_bond_atom_site_label_2
_geom_bond_site_symmetry_1
_geom_bond_site_symmetry_2
B1 H1 1_555 1_555
B2 H2 1_555 1_555
B3 B1 1_555 1_555
H3 B3 1_555 1_555
B4 B1 1_555 1_555
H4 B4 1_555 1_555
B5 B2 1_555 1_555
H5 B5 1_555 1_555
B6 B2 1_555 1_555
H6 B6 1_555 1_555
B7 B2 1_555 1_555
H7 B7 1_555 1_555
N1 H8 1_555 1_555
H9 N1 1_555 1_555
H10 N1 1_555 1_555
N2 H11 1_555 1_555
H12 N2 1_555 1_555
N3 H13 1_555 1_555
H14 N3 1_555 1_555
N4 H15 1_555 1_555
H16 N4 1_555 1_555
B3G B1 1_555 1_555
H3G B3G 1_555 1_555
B4G B1 1_555 1_555
H4G B4G 1_555 1_555
B6G B2 1_555 1_555
H6G B6G 1_555 1_555
H12G N2 1_555 1_555
H13G N3 1_555 1_555
H15G N4 1_555 1_555
B3 B4 1_555 1_555
B3 B6 1_555 1_555
B3 B7 1_555 1_555
B3 B3G 1_555 1_555
B4 B5 1_555 1_555
B4 B6 1_555 1_555
B4 B4G 1_555 1_555
B5 B6 1_555 1_555
B5 B4G 1_555 1_555
B5 B6G 1_555 1_555
B6 B7 1_555 1_555
B7 B3G 1_555 1_555
B7 B6G 1_555 1_555
B3G B4G 1_555 1_555
B3G B6G 1_555 1_555
B4G B6G 1_555 1_555

#END
