
#######################################################################
#
#                 Cambridge Crystallographic Data Centre
#                                CCDC 
#
#######################################################################
#
# If this CIF has been generated from an entry in the Cambridge 
# Structural Database, then it will include bibliographic, chemical, 
# crystal, experimental, refinement or atomic coordinate data resulting 
# from the CCDC's data processing and validation procedures.
#
#######################################################################

data_VIHJEE
_chemical_compound_source        'twigs and leaves of Croton mangelong'
_chemical_name_common            'Mangelonoid B methanol solvate'
_chemical_formula_moiety         'C20 H32 O2,C1 H4 O1'
_chemical_name_systematic        
'5,9-dimethyl-12-(propan-2-yl)bicyclo[9.3.1]pentadeca-1,5,9-triene-12,15-diol methanol solvate'
_symmetry_cell_setting           monoclinic
_symmetry_space_group_name_H-M   'P 21/c'
_symmetry_Int_Tables_number      14
_space_group_name_Hall           '-P 2ybc'
loop_
_symmetry_equiv_pos_site_id
_symmetry_equiv_pos_as_xyz
1 x,y,z
2 -x,1/2+y,1/2-z
3 -x,-y,-z
4 x,1/2-y,1/2+z
_cell_length_a                   9.8656(3)
_cell_length_b                   24.3596(7)
_cell_length_c                   9.1727(3)
_cell_angle_alpha                90
_cell_angle_beta                 100.123(2)
_cell_angle_gamma                90
_cell_volume                     2170.09
_exptl_crystal_colour            colorless
_exptl_crystal_description       block
_cell_formula_units_Z            4
loop_
_atom_site_label
_atom_site_type_symbol
_atom_site_fract_x
_atom_site_fract_y
_atom_site_fract_z
O1 O 0.3150(2) 0.69955(8) 0.4329(2)
H1 H 0.318053 0.721574 0.500983
O2 O 0.3245(2) 0.72807(8) 0.7118(2)
H2 H 0.303663 0.752707 0.764583
C1 C 0.2367(3) 0.65159(10) 0.4624(3)
C2 C 0.2850(3) 0.63530(10) 0.6256(3)
H3 H 0.385448 0.631465 0.643106
C3 C 0.2235(3) 0.58156(10) 0.6653(3)
H4 H 0.134601 0.573576 0.617441
C4 C 0.2843(3) 0.54478(12) 0.7617(3)
C5 C 0.2104(4) 0.49489(13) 0.8057(4)
H5 H 0.230605 0.491929 0.912812
H6 H 0.249252 0.462771 0.765998
C6 C 0.0554(4) 0.49277(13) 0.7578(4)
H7 H 0.033548 0.495465 0.650685
H8 H 0.022046 0.457564 0.786009
C7 C -0.0185(4) 0.53773(14) 0.8243(4)
H9 H 0.015179 0.545696 0.923157
C8 C -0.1241(4) 0.56728(15) 0.7616(4)
C9 C -0.1762(4) 0.61466(17) 0.8428(5)
H10 H -0.139979 0.611292 0.947745
H11 H -0.275781 0.612705 0.829757
C10 C -0.1344(4) 0.67102(16) 0.7878(5)
H12 H -0.176343 0.675987 0.684805
H13 H -0.167223 0.700006 0.845187
C11 C 0.0197(3) 0.67452(12) 0.8032(4)
H14 H 0.069354 0.666027 0.896361
C12 C 0.0943(3) 0.68813(11) 0.7016(3)
C13 C 0.0417(4) 0.70610(13) 0.5458(3)
H15 H 0.077327 0.742361 0.530510
H16 H -0.057996 0.708490 0.530218
C14 C 0.0844(3) 0.66619(13) 0.4330(3)
H17 H 0.031157 0.632705 0.433030
H18 H 0.061457 0.682337 0.335140
C15 C 0.2692(3) 0.60654(12) 0.3558(3)
H19 H 0.213402 0.574506 0.371458
C16 C 0.4188(4) 0.58826(19) 0.3882(5)
H20 H 0.477733 0.619814 0.392764
H21 H 0.436772 0.564155 0.310992
H22 H 0.436508 0.569262 0.481310
C17 C 0.2280(5) 0.62274(17) 0.1929(4)
H23 H 0.132000 0.632145 0.172771
H24 H 0.244443 0.592470 0.131309
H25 H 0.281605 0.653768 0.172410
C18 C 0.4302(4) 0.54968(17) 0.8401(5)
H26 H 0.477709 0.576138 0.790071
H27 H 0.474943 0.514690 0.840249
H28 H 0.431442 0.561367 0.940292
C19 C -0.1964(5) 0.56042(19) 0.6031(5)
H29 H -0.174184 0.590823 0.544972
H30 H -0.294132 0.559202 0.599938
H31 H -0.166771 0.526864 0.563605
C20 C 0.2470(3) 0.67931(10) 0.7320(3)
H32 H 0.274506 0.666370 0.834039
O3 O 0.5996(12) 0.7891(5) 0.5680(13)
H33 H 0.597965 0.756127 0.585311
C21 C 0.7099(11) 0.8236(4) 0.7205(14)
H34 H 0.688057 0.861998 0.718489
H35 H 0.804487 0.818847 0.710833
H36 H 0.695240 0.808039 0.812679
loop_
_geom_bond_atom_site_label_1
_geom_bond_atom_site_label_2
_geom_bond_site_symmetry_1
_geom_bond_site_symmetry_2
O1 H1 1_555 1_555
O2 H2 1_555 1_555
C1 O1 1_555 1_555
C2 C1 1_555 1_555
H3 C2 1_555 1_555
C3 C2 1_555 1_555
H4 C3 1_555 1_555
C4 C3 1_555 1_555
C5 C4 1_555 1_555
H5 C5 1_555 1_555
H6 C5 1_555 1_555
C6 C5 1_555 1_555
H7 C6 1_555 1_555
H8 C6 1_555 1_555
C7 C6 1_555 1_555
H9 C7 1_555 1_555
C8 C7 1_555 1_555
C9 C8 1_555 1_555
H10 C9 1_555 1_555
H11 C9 1_555 1_555
C10 C9 1_555 1_555
H12 C10 1_555 1_555
H13 C10 1_555 1_555
C11 C10 1_555 1_555
H14 C11 1_555 1_555
C12 C11 1_555 1_555
C13 C12 1_555 1_555
H15 C13 1_555 1_555
H16 C13 1_555 1_555
C14 C1 1_555 1_555
H17 C14 1_555 1_555
H18 C14 1_555 1_555
C15 C1 1_555 1_555
H19 C15 1_555 1_555
C16 C15 1_555 1_555
H20 C16 1_555 1_555
H21 C16 1_555 1_555
H22 C16 1_555 1_555
C17 C15 1_555 1_555
H23 C17 1_555 1_555
H24 C17 1_555 1_555
H25 C17 1_555 1_555
C18 C4 1_555 1_555
H26 C18 1_555 1_555
H27 C18 1_555 1_555
H28 C18 1_555 1_555
C19 C8 1_555 1_555
H29 C19 1_555 1_555
H30 C19 1_555 1_555
H31 C19 1_555 1_555
C20 O2 1_555 1_555
H32 C20 1_555 1_555
O3 H33 1_555 1_555
C21 O3 1_555 1_555
H34 C21 1_555 1_555
H35 C21 1_555 1_555
H36 C21 1_555 1_555
C2 C20 1_555 1_555
C12 C20 1_555 1_555
C13 C14 1_555 1_555

#END
