
#######################################################################
#
#                 Cambridge Crystallographic Data Centre
#                                CCDC 
#
#######################################################################
#
# If this CIF has been generated from an entry in the Cambridge 
# Structural Database, then it will include bibliographic, chemical, 
# crystal, experimental, refinement or atomic coordinate data resulting 
# from the CCDC's data processing and validation procedures.
#
#######################################################################

data_VIHJON
_chemical_formula_moiety         'C30 H20'
_chemical_name_systematic        4,10-Diphenylchrysene
_symmetry_cell_setting           triclinic
_symmetry_space_group_name_H-M   'P -1'
_symmetry_Int_Tables_number      2
_space_group_name_Hall           '-P 1'
loop_
_symmetry_equiv_pos_site_id
_symmetry_equiv_pos_as_xyz
1 x,y,z
2 -x,-y,-z
_cell_length_a                   10.2889(13)
_cell_length_b                   11.8850(15)
_cell_length_c                   17.653(2)
_cell_angle_alpha                70.719(2)
_cell_angle_beta                 75.589(2)
_cell_angle_gamma                82.236(2)
_cell_volume                     1970.17
_exptl_crystal_colour            white
_exptl_crystal_description       block
_cell_formula_units_Z            4
loop_
_atom_site_label
_atom_site_type_symbol
_atom_site_fract_x
_atom_site_fract_y
_atom_site_fract_z
C1 C 0.8041(2) -0.1167(2) 0.32459(14)
C2 C 0.8311(2) -0.1416(2) 0.25054(14)
H1 H 0.7898 -0.2067 0.2481
C3 C 0.9157(2) -0.0756(2) 0.17983(15)
H2 H 0.9316 -0.0954 0.1303
C4 C 0.9755(2) 0.0179(2) 0.18265(14)
H3 H 1.0328 0.0643 0.1345
C5 C 0.9529(2) 0.0464(2) 0.25649(14)
C6 C 1.0205(2) 0.1430(2) 0.25722(14)
H4 H 1.0839 0.1821 0.2095
C7 C 0.9965(2) 0.1801(2) 0.32378(13)
H5 H 1.0401 0.2474 0.3210
C8 C 0.9073(2) 0.12100(19) 0.39873(13)
C9 C 0.8852(2) 0.1613(2) 0.47089(13)
C10 C 0.9166(2) 0.2758(2) 0.47026(13)
C11 C 0.9049(2) 0.2971(2) 0.54416(14)
H6 H 0.9284 0.3724 0.5430
C12 C 0.8601(2) 0.2133(2) 0.62026(14)
H7 H 0.8568 0.2296 0.6699
C13 C 0.8210(2) 0.1071(2) 0.62184(14)
H8 H 0.7867 0.0505 0.6732
C14 C 0.8308(2) 0.0800(2) 0.54870(14)
C15 C 0.7878(2) -0.0303(2) 0.55228(14)
H9 H 0.7528 -0.0848 0.6045
C16 C 0.7949(2) -0.0607(2) 0.48410(14)
H10 H 0.7601 -0.1336 0.4894
C17 C 0.8536(2) 0.0144(2) 0.40393(13)
C18 C 0.8675(2) -0.0202(2) 0.32983(14)
C19 C 0.7065(2) -0.1961(2) 0.39186(14)
C20 C 0.7423(2) -0.3171(2) 0.42356(14)
H11 H 0.8303 -0.3471 0.4041
C21 C 0.6522(2) -0.3940(2) 0.48280(15)
H12 H 0.6788 -0.4759 0.5041
C22 C 0.5235(2) -0.3525(2) 0.51125(15)
H13 H 0.4616 -0.4055 0.5521
C23 C 0.4851(2) -0.2324(2) 0.47968(15)
H14 H 0.3964 -0.2033 0.4987
C24 C 0.5760(2) -0.1551(2) 0.42058(14)
H15 H 0.5490 -0.0732 0.3994
C25 C 0.9558(2) 0.37844(19) 0.39462(14)
C26 C 1.0775(2) 0.4312(2) 0.37881(14)
H16 H 1.1348 0.4014 0.4166
C27 C 1.1151(2) 0.5267(2) 0.30835(14)
H17 H 1.1989 0.5605 0.2976
C28 C 1.0313(2) 0.5726(2) 0.25396(15)
H18 H 1.0571 0.6380 0.2059
C29 C 0.9090(2) 0.5229(2) 0.26982(14)
H19 H 0.8509 0.5546 0.2326
C30 C 0.8713(2) 0.4274(2) 0.33937(14)
H20 H 0.7870 0.3946 0.3498
C31 C 0.6836(2) 0.6694(2) 0.11116(14)
C32 C 0.6407(2) 0.5597(2) 0.16362(15)
H21 H 0.6740 0.4904 0.1478
C33 C 0.5503(2) 0.5467(2) 0.23895(15)
H22 H 0.5210 0.4701 0.2730
C34 C 0.5045(2) 0.6454(2) 0.26314(15)
H23 H 0.4484 0.6367 0.3162
C35 C 0.5396(2) 0.7603(2) 0.21006(14)
C36 C 0.4875(2) 0.8620(2) 0.23477(14)
H24 H 0.4306 0.8514 0.2877
C37 C 0.5160(2) 0.9738(2) 0.18558(14)
H25 H 0.4817 1.0392 0.2058
C38 C 0.5962(2) 0.9964(2) 0.10431(14)
C39 C 0.6191(2) 1.1176(2) 0.04853(14)
C40 C 0.5868(2) 1.2251(2) 0.07168(14)
C41 C 0.6003(2) 1.3352(2) 0.01183(15)
H26 H 0.5758 1.4051 0.0281
C42 C 0.6483(2) 1.3478(2) -0.07144(15)
H27 H 0.6546 1.4247 -0.1112
C43 C 0.6863(2) 1.2477(2) -0.09497(14)
H28 H 0.7226 1.2552 -0.1513
C44 C 0.6721(2) 1.1329(2) -0.03645(14)
C45 C 0.7069(2) 1.0311(2) -0.06386(14)
H29 H 0.7391 1.0420 -0.1210
C46 C 0.6957(2) 0.9192(2) -0.01112(14)
H30 H 0.7230 0.8534 -0.0318
C47 C 0.6437(2) 0.8972(2) 0.07518(14)
C48 C 0.6256(2) 0.7752(2) 0.13091(14)
C49 C 0.8004(2) 0.6657(2) 0.04174(14)
C50 C 0.7955(3) 0.6099(2) -0.01545(14)
H31 H 0.7142 0.5777 -0.0127
C51 C 0.9072(3) 0.6007(2) -0.07623(15)
H32 H 0.9021 0.5630 -0.1151
C52 C 1.0261(3) 0.6464(2) -0.08032(15)
H33 H 1.1027 0.6402 -0.1221
C53 C 1.0339(3) 0.7010(2) -0.02376(15)
H34 H 1.1159 0.7321 -0.0265
C54 C 0.9219(2) 0.7105(2) 0.03687(14)
H35 H 0.9278 0.7480 0.0757
C55 C 0.5440(2) 1.22927(19) 0.15835(14)
C56 C 0.6320(2) 1.1923(2) 0.21130(15)
H36 H 0.7207 1.1629 0.1928
C57 C 0.5914(3) 1.1980(2) 0.29084(15)
H37 H 0.6522 1.1725 0.3267
C58 C 0.4627(3) 1.2407(2) 0.31827(15)
H38 H 0.4344 1.2431 0.3732
C59 C 0.3752(2) 1.2799(2) 0.26562(15)
H39 H 0.2870 1.3104 0.2841
C60 C 0.4160(2) 1.2749(2) 0.18584(15)
H40 H 0.3559 1.3029 0.1496
loop_
_geom_bond_atom_site_label_1
_geom_bond_atom_site_label_2
_geom_bond_site_symmetry_1
_geom_bond_site_symmetry_2
C1 C2 1_555 1_555
C2 H1 1_555 1_555
C3 C2 1_555 1_555
H2 C3 1_555 1_555
C4 C3 1_555 1_555
H3 C4 1_555 1_555
C5 C4 1_555 1_555
C6 C5 1_555 1_555
H4 C6 1_555 1_555
C7 C6 1_555 1_555
H5 C7 1_555 1_555
C8 C7 1_555 1_555
C9 C8 1_555 1_555
C10 C9 1_555 1_555
C11 C10 1_555 1_555
H6 C11 1_555 1_555
C12 C11 1_555 1_555
H7 C12 1_555 1_555
C13 C12 1_555 1_555
H8 C13 1_555 1_555
C14 C9 1_555 1_555
C15 C14 1_555 1_555
H9 C15 1_555 1_555
C16 C15 1_555 1_555
H10 C16 1_555 1_555
C17 C8 1_555 1_555
C18 C1 1_555 1_555
C19 C1 1_555 1_555
C20 C19 1_555 1_555
H11 C20 1_555 1_555
C21 C20 1_555 1_555
H12 C21 1_555 1_555
C22 C21 1_555 1_555
H13 C22 1_555 1_555
C23 C22 1_555 1_555
H14 C23 1_555 1_555
C24 C19 1_555 1_555
H15 C24 1_555 1_555
C25 C10 1_555 1_555
C26 C25 1_555 1_555
H16 C26 1_555 1_555
C27 C26 1_555 1_555
H17 C27 1_555 1_555
C28 C27 1_555 1_555
H18 C28 1_555 1_555
C29 C28 1_555 1_555
H19 C29 1_555 1_555
C30 C25 1_555 1_555
H20 C30 1_555 1_555
C31 C32 1_555 1_555
C32 H21 1_555 1_555
C33 C32 1_555 1_555
H22 C33 1_555 1_555
C34 C33 1_555 1_555
H23 C34 1_555 1_555
C35 C34 1_555 1_555
C36 C35 1_555 1_555
H24 C36 1_555 1_555
C37 C36 1_555 1_555
H25 C37 1_555 1_555
C38 C37 1_555 1_555
C39 C38 1_555 1_555
C40 C39 1_555 1_555
C41 C40 1_555 1_555
H26 C41 1_555 1_555
C42 C41 1_555 1_555
H27 C42 1_555 1_555
C43 C42 1_555 1_555
H28 C43 1_555 1_555
C44 C39 1_555 1_555
C45 C44 1_555 1_555
H29 C45 1_555 1_555
C46 C45 1_555 1_555
H30 C46 1_555 1_555
C47 C38 1_555 1_555
C48 C31 1_555 1_555
C49 C31 1_555 1_555
C50 C49 1_555 1_555
H31 C50 1_555 1_555
C51 C50 1_555 1_555
H32 C51 1_555 1_555
C52 C51 1_555 1_555
H33 C52 1_555 1_555
C53 C52 1_555 1_555
H34 C53 1_555 1_555
C54 C49 1_555 1_555
H35 C54 1_555 1_555
C55 C40 1_555 1_555
C56 C55 1_555 1_555
H36 C56 1_555 1_555
C57 C56 1_555 1_555
H37 C57 1_555 1_555
C58 C57 1_555 1_555
H38 C58 1_555 1_555
C59 C58 1_555 1_555
H39 C59 1_555 1_555
C60 C55 1_555 1_555
H40 C60 1_555 1_555
C5 C18 1_555 1_555
C13 C14 1_555 1_555
C16 C17 1_555 1_555
C17 C18 1_555 1_555
C23 C24 1_555 1_555
C29 C30 1_555 1_555
C35 C48 1_555 1_555
C43 C44 1_555 1_555
C46 C47 1_555 1_555
C47 C48 1_555 1_555
C53 C54 1_555 1_555
C59 C60 1_555 1_555

#END
