
#######################################################################
#
#                 Cambridge Crystallographic Data Centre
#                                CCDC 
#
#######################################################################
#
# If this CIF has been generated from an entry in the Cambridge 
# Structural Database, then it will include bibliographic, chemical, 
# crystal, experimental, refinement or atomic coordinate data resulting 
# from the CCDC's data processing and validation procedures.
#
#######################################################################

data_VIHMUU
_chemical_formula_moiety         'C26 H38 N2 O6'
_chemical_name_systematic        
4,13-bis(2-Hydroxybenzyl)-4,13-diaza-1,7,10,16-tetraoxacyclohexadecane
_symmetry_cell_setting           triclinic
_symmetry_space_group_name_H-M   'P -1'
_symmetry_Int_Tables_number      2
_space_group_name_Hall           '-P 1'
loop_
_symmetry_equiv_pos_site_id
_symmetry_equiv_pos_as_xyz
1 x,y,z
2 -x,-y,-z
_cell_length_a                   7.1374(16)
_cell_length_b                   9.307(2)
_cell_length_c                   10.839(3)
_cell_angle_alpha                90.845(4)
_cell_angle_beta                 105.008(4)
_cell_angle_gamma                112.040(4)
_cell_volume                     639.572
_exptl_crystal_colour            colorless
_exptl_crystal_description       rhombohedroids
_cell_formula_units_Z            1
loop_
_atom_site_label
_atom_site_type_symbol
_atom_site_fract_x
_atom_site_fract_y
_atom_site_fract_z
O1 O -0.45238(16) -0.21432(12) 0.26713(9)
O2 O 0.08042(17) 0.33890(13) 0.38679(10)
O3 O 0.38276(16) 0.16284(12) 0.45090(9)
N1 N 0.03750(18) 0.08302(13) 0.23209(11)
C1 C -0.0352(2) 0.37047(16) 0.27642(13)
C2 C -0.0554(2) 0.30257(16) 0.15437(13)
C3 C -0.1272(2) 0.47543(17) 0.28748(14)
H1 H -0.1094 0.5235 0.3699
C4 C -0.2453(3) 0.51012(19) 0.17784(15)
H2 H -0.3066 0.5833 0.1854
C5 C -0.2355(2) -0.11109(17) 0.31140(13)
H3 H -0.1468 -0.1697 0.3459
H4 H -0.2136 -0.0305 0.3803
C6 C 0.0633(2) 0.20133(17) 0.14221(14)
H5 H 0.2150 0.2681 0.1596
H6 H 0.0116 0.1484 0.0529
C7 C -0.1790(2) -0.03623(17) 0.19613(13)
H7 H -0.1931 -0.1177 0.1305
H8 H -0.2786 0.0126 0.1576
C8 C 0.4094(2) 0.12161(18) 0.33174(14)
H9 H 0.4674 0.2164 0.2908
H10 H 0.5086 0.0684 0.3459
C9 C -0.1794(3) 0.33589(18) 0.04656(14)
H11 H -0.1995 0.2872 -0.0362
C10 C -0.2744(3) 0.4388(2) 0.05748(15)
H12 H -0.3591 0.4603 -0.0172
C11 C -0.5219(3) -0.32801(17) 0.34970(15)
H13 H -0.4108 -0.3683 0.3836
H14 H -0.6492 -0.4167 0.2981
C12 C 0.1957(2) 0.01375(18) 0.24628(14)
H15 H 0.1475 -0.0857 0.2834
H16 H 0.2085 -0.0102 0.1603
C13 C -0.5728(2) -0.26866(18) 0.46147(14)
H17 H -0.6695 -0.2152 0.4304
H18 H -0.6435 -0.3572 0.5051
H19 H 0.102(3) 0.258(2) 0.3686(18)
C13A C 0.5728(2) 0.26866(18) 0.53853(14)
C11A C 0.5219(3) 0.32801(17) 0.65030(15)
O1A O 0.45238(16) 0.21432(12) 0.73287(9)
C5A C 0.2355(2) 0.11109(17) 0.68860(13)
H3A H 0.1468 0.1697 0.6541
H4A H 0.2136 0.0305 0.6197
C7A C 0.1790(2) 0.03623(17) 0.80387(13)
N1A N -0.03750(18) -0.08302(13) 0.76791(11)
C6A C -0.0633(2) -0.20133(17) 0.85779(14)
C2A C 0.0554(2) -0.30257(16) 0.84563(13)
C1A C 0.0352(2) -0.37047(16) 0.72358(13)
O2A O -0.08042(17) -0.33890(13) 0.61321(10)
H19A H -0.102(3) -0.258(2) 0.6314(18)
C3A C 0.1272(2) -0.47543(17) 0.71252(14)
H1A H 0.1094 -0.5235 0.6301
C4A C 0.2453(3) -0.51012(19) 0.82216(15)
H2A H 0.3066 -0.5833 0.8146
C10A C 0.2744(3) -0.4388(2) 0.94252(15)
C9A C 0.1794(3) -0.33589(18) 0.95344(14)
H11A H 0.1995 -0.2872 1.0362
H12A H 0.3591 -0.4603 1.0172
H5A H -0.2150 -0.2681 0.8404
H6A H -0.0116 -0.1484 0.9471
C12A C -0.1957(2) -0.01375(18) 0.75372(14)
C8A C -0.4094(2) -0.12161(18) 0.66826(14)
O3A O -0.38276(16) -0.16284(12) 0.54910(9)
H9A H -0.4674 -0.2164 0.7092
H10A H -0.5086 -0.0684 0.6541
H15A H -0.1475 0.0857 0.7166
H16A H -0.2085 0.0102 0.8397
H7A H 0.1931 0.1177 0.8695
H8A H 0.2786 -0.0126 0.8424
H13A H 0.4108 0.3683 0.6164
H14A H 0.6492 0.4167 0.7019
H17A H 0.6695 0.2152 0.5696
H18A H 0.6435 0.3572 0.4949
loop_
_geom_bond_atom_site_label_1
_geom_bond_atom_site_label_2
_geom_bond_site_symmetry_1
_geom_bond_site_symmetry_2
O1 C5 1_555 1_555
O2 C1 1_555 1_555
O3 C8 1_555 1_555
N1 C6 1_555 1_555
C1 C2 1_555 1_555
C2 C6 1_555 1_555
C3 C1 1_555 1_555
H1 C3 1_555 1_555
C4 C3 1_555 1_555
H2 C4 1_555 1_555
C5 H3 1_555 1_555
H4 C5 1_555 1_555
C6 H5 1_555 1_555
H6 C6 1_555 1_555
C7 N1 1_555 1_555
H7 C7 1_555 1_555
H8 C7 1_555 1_555
C8 H9 1_555 1_555
H10 C8 1_555 1_555
C9 C2 1_555 1_555
H11 C9 1_555 1_555
C10 C4 1_555 1_555
H12 C10 1_555 1_555
C11 O1 1_555 1_555
H13 C11 1_555 1_555
H14 C11 1_555 1_555
C12 N1 1_555 1_555
H15 C12 1_555 1_555
H16 C12 1_555 1_555
C13 C11 1_555 1_555
H17 C13 1_555 1_555
H18 C13 1_555 1_555
H19 O2 1_555 1_555
C13A O3 1_555 1_555
C11A C13A 1_555 1_555
O1A C11A 1_555 1_555
C5A O1A 1_555 1_555
H3A C5A 1_555 1_555
H4A C5A 1_555 1_555
C7A C5A 1_555 1_555
N1A C7A 1_555 1_555
C6A N1A 1_555 1_555
C2A C6A 1_555 1_555
C1A C2A 1_555 1_555
O2A C1A 1_555 1_555
H19A O2A 1_555 1_555
C3A C1A 1_555 1_555
H1A C3A 1_555 1_555
C4A C3A 1_555 1_555
H2A C4A 1_555 1_555
C10A C4A 1_555 1_555
C9A C2A 1_555 1_555
H11A C9A 1_555 1_555
H12A C10A 1_555 1_555
H5A C6A 1_555 1_555
H6A C6A 1_555 1_555
C12A N1A 1_555 1_555
C8A C12A 1_555 1_555
O3A C13 1_555 1_555
H9A C8A 1_555 1_555
H10A C8A 1_555 1_555
H15A C12A 1_555 1_555
H16A C12A 1_555 1_555
H7A C7A 1_555 1_555
H8A C7A 1_555 1_555
H13A C11A 1_555 1_555
H14A C11A 1_555 1_555
H17A C13A 1_555 1_555
H18A C13A 1_555 1_555
C5 C7 1_555 1_555
C8 C12 1_555 1_555
C9 C10 1_555 1_555
C10A C9A 1_555 1_555
C8A O3A 1_555 1_555

#END
