
#######################################################################
#
#                 Cambridge Crystallographic Data Centre
#                                CCDC 
#
#######################################################################
#
# If this CIF has been generated from an entry in the Cambridge 
# Structural Database, then it will include bibliographic, chemical, 
# crystal, experimental, refinement or atomic coordinate data resulting 
# from the CCDC's data processing and validation procedures.
#
#######################################################################

data_VIHMOQ
_chemical_name_common            'PDB Chemical Component code: 9TA'
_chemical_formula_moiety         'C20 H13 Br1,0.5(C14 H8 O2)'
_chemical_name_systematic        
'9,10-Anthraquinone 9-bromo-10-phenylanthracene'
_symmetry_cell_setting           triclinic
_symmetry_space_group_name_H-M   'P -1'
_symmetry_Int_Tables_number      2
_space_group_name_Hall           '-P 1'
loop_
_symmetry_equiv_pos_site_id
_symmetry_equiv_pos_as_xyz
1 x,y,z
2 -x,-y,-z
_cell_length_a                   9.269(4)
_cell_length_b                   9.734(5)
_cell_length_c                   11.437(5)
_cell_angle_alpha                105.816(5)
_cell_angle_beta                 95.281(6)
_cell_angle_gamma                99.909(5)
_cell_volume                     967.455
_exptl_crystal_colour            yellow
_exptl_crystal_description       block
_cell_formula_units_Z            2
loop_
_atom_site_label
_atom_site_type_symbol
_atom_site_fract_x
_atom_site_fract_y
_atom_site_fract_z
Br1 Br 0.36102(3) 0.57404(3) 0.38377(3)
C1 C 0.5102(3) 0.7083(3) 0.3450(2)
C2 C 0.4801(3) 0.8421(3) 0.3407(2)
C3 C 0.5953(3) 0.9449(2) 0.3168(2)
C4 C 0.7349(3) 0.9110(3) 0.3015(2)
C5 C 0.7604(3) 0.7732(3) 0.3033(2)
C6 C 0.6448(3) 0.6677(3) 0.3238(2)
C7 C 0.3420(3) 0.8829(3) 0.3594(2)
H1 H 0.2670 0.8186 0.3775
C8 C 0.3176(3) 1.0128(3) 0.3516(3)
H2 H 0.2264 1.0370 0.3648
C9 C 0.4272(3) 1.1114(3) 0.3239(3)
H3 H 0.4076 1.1993 0.3162
C10 C 0.5624(3) 1.0799(3) 0.3083(3)
H4 H 0.6351 1.1478 0.2917
C11 C 0.8989(3) 0.7333(3) 0.2838(2)
H5 H 0.9757 0.8012 0.2721
C12 C 0.9218(3) 0.5985(3) 0.2818(3)
H6 H 1.0132 0.5749 0.2687
C13 C 0.8070(3) 0.4950(3) 0.2997(3)
H7 H 0.8225 0.4023 0.2967
C14 C 0.6749(3) 0.5280(3) 0.3210(2)
H8 H 0.6014 0.4581 0.3343
C15 C 0.8574(3) 1.0237(3) 0.2853(2)
C16 C 0.8984(3) 1.0168(3) 0.1724(3)
H9 H 0.8509 0.9398 0.1046
C17 C 1.0095(3) 1.1225(3) 0.1575(3)
H10 H 1.0357 1.1164 0.0799
C18 C 1.0805(3) 1.2358(3) 0.2563(3)
H11 H 1.1546 1.3073 0.2461
C19 C 1.0427(3) 1.2441(3) 0.3699(3)
H12 H 1.0916 1.3207 0.4376
C20 C 0.9311(3) 1.1379(3) 0.3846(2)
H13 H 0.9056 1.1439 0.4623
O1 O 0.7111(3) 0.6961(2) -0.0437(2)
C21 C 0.4691(4) 0.6414(3) 0.0008(3)
C22 C 0.3593(4) 0.5388(3) 0.0232(2)
C23 C 0.2234(4) 0.5732(5) 0.0450(3)
H14 H 0.1493 0.5049 0.0595
C24 C 0.1982(5) 0.7078(6) 0.0452(4)
H15 H 0.1068 0.7306 0.0600
C25 C 0.3062(6) 0.8089(5) 0.0239(4)
H16 H 0.2880 0.9000 0.0244
C26 C 0.4420(5) 0.7767(4) 0.0017(3)
H17 H 0.5152 0.8459 -0.0127
C27 C 0.6150(4) 0.6072(3) -0.0236(3)
O1A O 0.2889(3) 0.3039(2) 0.0437(2)
C21A C 0.5309(4) 0.3586(3) -0.0008(3)
C22A C 0.6407(4) 0.4612(3) -0.0232(2)
C23A C 0.7766(4) 0.4268(5) -0.0450(3)
H14A H 0.8507 0.4951 -0.0595
C24A C 0.8018(5) 0.2922(6) -0.0452(4)
H15A H 0.8932 0.2694 -0.0600
C25A C 0.6938(6) 0.1911(5) -0.0239(4)
H16A H 0.7120 0.1000 -0.0244
C26A C 0.5580(5) 0.2233(4) -0.0017(3)
H17A H 0.4848 0.1541 0.0127
C27A C 0.3850(4) 0.3928(3) 0.0236(3)
loop_
_geom_bond_atom_site_label_1
_geom_bond_atom_site_label_2
_geom_bond_site_symmetry_1
_geom_bond_site_symmetry_2
Br1 C1 1_555 1_555
C1 C2 1_555 1_555
C2 C3 1_555 1_555
C3 C4 1_555 1_555
C4 C5 1_555 1_555
C5 C6 1_555 1_555
C6 C1 1_555 1_555
C7 C2 1_555 1_555
H1 C7 1_555 1_555
C8 C7 1_555 1_555
H2 C8 1_555 1_555
C9 C8 1_555 1_555
H3 C9 1_555 1_555
C10 C3 1_555 1_555
H4 C10 1_555 1_555
C11 C5 1_555 1_555
H5 C11 1_555 1_555
C12 C11 1_555 1_555
H6 C12 1_555 1_555
C13 C12 1_555 1_555
H7 C13 1_555 1_555
C14 C6 1_555 1_555
H8 C14 1_555 1_555
C15 C4 1_555 1_555
C16 C15 1_555 1_555
H9 C16 1_555 1_555
C17 C16 1_555 1_555
H10 C17 1_555 1_555
C18 C17 1_555 1_555
H11 C18 1_555 1_555
C19 C18 1_555 1_555
H12 C19 1_555 1_555
C20 C15 1_555 1_555
H13 C20 1_555 1_555
O1 C27 1_555 1_555
C21 C22 1_555 1_555
C22 C23 1_555 1_555
C23 H14 1_555 1_555
C24 C23 1_555 1_555
H15 C24 1_555 1_555
C25 C24 1_555 1_555
H16 C25 1_555 1_555
C26 C21 1_555 1_555
H17 C26 1_555 1_555
C27 C21 1_555 1_555
O1A C27A 1_555 1_555
C21A C22A 1_555 1_555
C22A C27 1_555 1_555
C23A C22A 1_555 1_555
H14A C23A 1_555 1_555
C24A C23A 1_555 1_555
H15A C24A 1_555 1_555
C25A C24A 1_555 1_555
H16A C25A 1_555 1_555
C26A C21A 1_555 1_555
H17A C26A 1_555 1_555
C27A C22 1_555 1_555
C9 C10 1_555 1_555
C13 C14 1_555 1_555
C19 C20 1_555 1_555
C25 C26 1_555 1_555
C21A C27A 1_555 1_555
C25A C26A 1_555 1_555

#END
