
#######################################################################
#
#                 Cambridge Crystallographic Data Centre
#                                CCDC 
#
#######################################################################
#
# If this CIF has been generated from an entry in the Cambridge 
# Structural Database, then it will include bibliographic, chemical, 
# crystal, experimental, refinement or atomic coordinate data resulting 
# from the CCDC's data processing and validation procedures.
#
#######################################################################

data_VIHMUW01
_chemical_formula_moiety         'C11 H10 Cl1 N1 O2'
_chemical_name_systematic        'ethyl 5-chloro-1H-indole-2-carboxylate'
_symmetry_cell_setting           monoclinic
_symmetry_space_group_name_H-M   'P 21/n'
_symmetry_Int_Tables_number      14
_space_group_name_Hall           '-P 2yn'
loop_
_symmetry_equiv_pos_site_id
_symmetry_equiv_pos_as_xyz
1 x,y,z
2 1/2-x,1/2+y,1/2-z
3 -x,-y,-z
4 1/2+x,1/2-y,1/2+z
_cell_length_a                   13.7168(6)
_cell_length_b                   4.57830(10)
_cell_length_c                   16.5929(11)
_cell_angle_alpha                90
_cell_angle_beta                 97.464(7)
_cell_angle_gamma                90
_cell_volume                     1033.2
_exptl_crystal_colour            colorless
_exptl_crystal_description       rod
_cell_formula_units_Z            4
loop_
_atom_site_label
_atom_site_type_symbol
_atom_site_fract_x
_atom_site_fract_y
_atom_site_fract_z
C1 C 0.52594(9) 0.5040(3) 0.35005(8)
C2 C 0.62255(10) 0.4033(3) 0.35004(8)
H1 H 0.6742 0.4669 0.3899
C3 C 0.63988(9) 0.2090(3) 0.29013(8)
H2 H 0.7044 0.1360 0.2883
C4 C 0.56188(10) 0.1181(3) 0.23127(8)
C5 C 0.46670(9) 0.2127(3) 0.23045(8)
H3 H 0.4157 0.1459 0.1905
C6 C 0.44761(9) 0.4121(3) 0.29091(8)
C7 C 0.36151(9) 0.5605(3) 0.30827(8)
H4 H 0.2972 0.5434 0.2795
C8 C 0.38999(9) 0.7341(3) 0.37519(7)
C9 C 0.33337(9) 0.9388(3) 0.41806(7)
C10 C 0.17639(10) 1.1516(3) 0.42258(8)
H5 H 0.1186 1.2025 0.3829
H6 H 0.2134 1.3334 0.4376
C11 C 0.14202(11) 1.0204(4) 0.49746(9)
H7 H 0.1002 1.1610 0.5214
H8 H 0.1044 0.8421 0.4825
H9 H 0.1991 0.9728 0.5371
N1 N 0.48871(8) 0.6981(3) 0.40047(7)
H10 H 0.5235(12) 0.789(4) 0.4411(10)
O1 O 0.23886(6) 0.9493(2) 0.38517(5)
O2 O 0.36753(7) 1.0841(2) 0.47654(6)
Cl1 Cl 0.58935(2) -0.12275(8) 0.15557(2)
loop_
_geom_bond_atom_site_label_1
_geom_bond_atom_site_label_2
_geom_bond_site_symmetry_1
_geom_bond_site_symmetry_2
C1 C2 1_555 1_555
C2 H1 1_555 1_555
C3 C2 1_555 1_555
H2 C3 1_555 1_555
C4 C3 1_555 1_555
C5 C4 1_555 1_555
H3 C5 1_555 1_555
C6 C1 1_555 1_555
C7 C6 1_555 1_555
H4 C7 1_555 1_555
C8 C7 1_555 1_555
C9 C8 1_555 1_555
C10 H5 1_555 1_555
H6 C10 1_555 1_555
C11 C10 1_555 1_555
H7 C11 1_555 1_555
H8 C11 1_555 1_555
H9 C11 1_555 1_555
N1 C1 1_555 1_555
H10 N1 1_555 1_555
O1 C9 1_555 1_555
O2 C9 1_555 1_555
Cl1 C4 1_555 1_555
C5 C6 1_555 1_555
C8 N1 1_555 1_555
C10 O1 1_555 1_555

#END
