
#######################################################################
#
#                 Cambridge Crystallographic Data Centre
#                                CCDC 
#
#######################################################################
#
# If this CIF has been generated from an entry in the Cambridge 
# Structural Database, then it will include bibliographic, chemical, 
# crystal, experimental, refinement or atomic coordinate data resulting 
# from the CCDC's data processing and validation procedures.
#
#######################################################################

data_VIHMUW
_chemical_name_common            5-chloro-2-indolecarboxylate
_chemical_formula_moiety         'C11 H10 Cl1 N1 O2'
_chemical_name_systematic        'Ethyl 5-chloro-1H-indole-2-carboxylate'
_symmetry_cell_setting           monoclinic
_symmetry_space_group_name_H-M   'P 21/n'
_symmetry_Int_Tables_number      14
_space_group_name_Hall           '-P 2yn'
loop_
_symmetry_equiv_pos_site_id
_symmetry_equiv_pos_as_xyz
1 x,y,z
2 1/2-x,1/2+y,1/2-z
3 -x,-y,-z
4 1/2+x,1/2-y,1/2+z
_cell_length_a                   10.570(3)
_cell_length_b                   5.6165(15)
_cell_length_c                   18.091(5)
_cell_angle_alpha                90
_cell_angle_beta                 105.681(4)
_cell_angle_gamma                90
_cell_volume                     1034.02
_exptl_crystal_colour            colorless
_exptl_crystal_description       Prism
_cell_formula_units_Z            4
loop_
_atom_site_label
_atom_site_type_symbol
_atom_site_fract_x
_atom_site_fract_y
_atom_site_fract_z
Cl1 Cl -0.13045(4) 0.42085(8) 0.22692(2)
O1 O 0.66173(9) 0.47768(18) 0.42020(6)
O2 O 0.64088(10) 0.82071(19) 0.48066(6)
N1 N 0.36625(12) 0.8053(2) 0.41337(7)
C1 C 0.45138(13) 0.6304(2) 0.40228(8)
C2 C 0.38288(13) 0.4566(2) 0.35442(8)
H1 H 0.4184 0.3180 0.3375
C3 C 0.24787(13) 0.5253(2) 0.33505(8)
C4 C 0.13142(13) 0.4241(2) 0.28867(8)
H2 H 0.1327 0.2784 0.2622
C5 C 0.01578(14) 0.5438(3) 0.28311(8)
C6 C 0.00980(14) 0.7623(3) 0.32068(8)
H3 H -0.0724 0.8394 0.3146
C7 C 0.12253(14) 0.8637(3) 0.36592(8)
H4 H 0.1198 1.0102 0.3917
C8 C 0.24162(13) 0.7448(2) 0.37290(8)
C9 C 0.59243(14) 0.6560(2) 0.43874(8)
C10 C 0.80352(14) 0.4908(3) 0.45279(9)
H5 H 0.8251 0.5107 0.5092
H6 H 0.8401 0.6276 0.4309
C11 C 0.85968(15) 0.2607(3) 0.43286(9)
H7 H 0.8197 0.1266 0.4529
H8 H 0.9550 0.2591 0.4558
H9 H 0.8409 0.2467 0.3769
H10 H 0.3883(17) 0.936(3) 0.4461(11)
loop_
_geom_bond_atom_site_label_1
_geom_bond_atom_site_label_2
_geom_bond_site_symmetry_1
_geom_bond_site_symmetry_2
Cl1 C5 1_555 1_555
O1 C9 1_555 1_555
O2 C9 1_555 1_555
N1 C1 1_555 1_555
C1 C2 1_555 1_555
C2 H1 1_555 1_555
C3 C2 1_555 1_555
C4 C3 1_555 1_555
H2 C4 1_555 1_555
C5 C4 1_555 1_555
C6 C5 1_555 1_555
H3 C6 1_555 1_555
C7 C6 1_555 1_555
H4 C7 1_555 1_555
C8 N1 1_555 1_555
C9 C1 1_555 1_555
C10 O1 1_555 1_555
H5 C10 1_555 1_555
H6 C10 1_555 1_555
C11 C10 1_555 1_555
H7 C11 1_555 1_555
H8 C11 1_555 1_555
H9 C11 1_555 1_555
H10 N1 1_555 1_555
C3 C8 1_555 1_555
C7 C8 1_555 1_555

#END
