
#######################################################################
#
#                 Cambridge Crystallographic Data Centre
#                                CCDC 
#
#######################################################################
#
# If this CIF has been generated from an entry in the Cambridge 
# Structural Database, then it will include bibliographic, chemical, 
# crystal, experimental, refinement or atomic coordinate data resulting 
# from the CCDC's data processing and validation procedures.
#
#######################################################################

data_VIHNIL
_chemical_name_common            
5-(trifluoromethyl)-1-methyl-1H-benzo[d]imidazole-2(3H)-thione
_chemical_formula_moiety         'C9 H7 F3 N2 S1'
_chemical_name_systematic        
1-Methyl-5-(trifluoromethyl)-1,3-dihydro-2H-benzimidazole-2-thione
_symmetry_cell_setting           monoclinic
_symmetry_space_group_name_H-M   'P 21/c'
_symmetry_Int_Tables_number      14
_space_group_name_Hall           '-P 2ybc'
loop_
_symmetry_equiv_pos_site_id
_symmetry_equiv_pos_as_xyz
1 x,y,z
2 -x,1/2+y,1/2-z
3 -x,-y,-z
4 x,1/2-y,1/2+z
_cell_length_a                   8.695(4)
_cell_length_b                   4.6757(19)
_cell_length_c                   24.134(10)
_cell_angle_alpha                90
_cell_angle_beta                 97.861(4)
_cell_angle_gamma                90
_cell_volume                     971.953
_exptl_crystal_colour            colorless
_exptl_crystal_description       block
_cell_formula_units_Z            4
loop_
_atom_site_label
_atom_site_type_symbol
_atom_site_fract_x
_atom_site_fract_y
_atom_site_fract_z
S1 S 0.23641(7) 1.46635(17) 0.49658(3)
N1 N 0.4823(2) 1.2047(5) 0.55716(9)
N2 N 0.2599(2) 1.0855(5) 0.58251(8)
C1 C 0.3726(3) 0.9340(5) 0.61642(10)
C2 C 0.6450(3) 0.7156(6) 0.67064(11)
C3 C 0.5152(3) 1.0124(5) 0.60045(10)
C4 C 0.6534(3) 0.9052(6) 0.62691(10)
H1 H 0.7480 0.9575 0.6160
C5 C 0.3272(3) 1.2504(5) 0.54584(10)
C6 C 0.5029(3) 0.6322(6) 0.68594(11)
H2 H 0.5011 0.5014 0.7149
C7 C 0.3644(3) 0.7397(6) 0.65904(11)
H3 H 0.2696 0.6836 0.6692
C8 C 0.7916(4) 0.6087(6) 0.70280(13)
C9 C 0.0934(3) 1.0664(7) 0.58446(13)
H4 H 0.0411 1.2169 0.5623
H5 H 0.0736 1.0851 0.6225
H6 H 0.0557 0.8846 0.5699
H7 H 0.548(3) 1.292(6) 0.5411(12)
F1 F 0.8047(9) 0.7178(17) 0.7568(2)
F2 F 0.9201(5) 0.701(2) 0.6862(3)
F3 F 0.7943(12) 0.3360(13) 0.7139(4)
F4? F 0.8592(16) 0.773(2) 0.7407(7)
F5? F 0.8871(12) 0.509(3) 0.6663(4)
F6? F 0.7722(17) 0.363(2) 0.7283(5)
loop_
_geom_bond_atom_site_label_1
_geom_bond_atom_site_label_2
_geom_bond_site_symmetry_1
_geom_bond_site_symmetry_2
S1 C5 1_555 1_555
N1 C3 1_555 1_555
N2 C1 1_555 1_555
C1 C3 1_555 1_555
C2 C4 1_555 1_555
C3 C4 1_555 1_555
C4 H1 1_555 1_555
C5 N1 1_555 1_555
C6 C2 1_555 1_555
H2 C6 1_555 1_555
C7 C1 1_555 1_555
H3 C7 1_555 1_555
C8 C2 1_555 1_555
C9 N2 1_555 1_555
H4 C9 1_555 1_555
H5 C9 1_555 1_555
H6 C9 1_555 1_555
H7 N1 1_555 1_555
F1 C8 1_555 1_555
F2 C8 1_555 1_555
F3 C8 1_555 1_555
N2 C5 1_555 1_555
C6 C7 1_555 1_555

#END
