
#######################################################################
#
#                 Cambridge Crystallographic Data Centre
#                                CCDC 
#
#######################################################################
#
# If this CIF has been generated from an entry in the Cambridge 
# Structural Database, then it will include bibliographic, chemical, 
# crystal, experimental, refinement or atomic coordinate data resulting 
# from the CCDC's data processing and validation procedures.
#
#######################################################################

data_VIHNUV
_chemical_formula_moiety         'C34 H42 N2 Na1 O4 1+,I1 1-'
_chemical_name_systematic        
'(4,13-bis(1-Naphthylmethyl)-4,13-diaza-1,7,10,16-tetraoxacyclohexadecane)-sodium iodide'
_symmetry_cell_setting           triclinic
_symmetry_space_group_name_H-M   'P -1'
_symmetry_Int_Tables_number      2
_space_group_name_Hall           '-P 1'
loop_
_symmetry_equiv_pos_site_id
_symmetry_equiv_pos_as_xyz
1 x,y,z
2 -x,-y,-z
_cell_length_a                   10.3046(6)
_cell_length_b                   12.3433(7)
_cell_length_c                   12.8362(7)
_cell_angle_alpha                93.3770(10)
_cell_angle_beta                 98.3800(10)
_cell_angle_gamma                97.0350(10)
_cell_volume                     1598.17
_exptl_crystal_colour            colorless
_exptl_crystal_description       rhombohedroids
_cell_formula_units_Z            2
loop_
_atom_site_label
_atom_site_type_symbol
_atom_site_fract_x
_atom_site_fract_y
_atom_site_fract_z
I1 I 0.23451(3) 0.59091(3) 0.37992(3)
O1 O -0.39796(19) 0.92637(15) 0.12779(15)
O2 O -0.14460(19) 0.90996(16) 0.07369(15)
O3 O -0.1626(2) 0.62841(18) 0.24262(18)
N1 N -0.3399(2) 0.9533(2) 0.35846(18)
O4 O -0.3081(2) 0.72574(18) 0.37018(18)
N2 N -0.1789(2) 0.67274(19) 0.0241(2)
C1 C -0.2461(3) 0.9549(2) 0.0089(2)
H1 H -0.3045 0.8960 -0.0374
H2 H -0.2066 1.0081 -0.0362
C2 C -0.4190(3) 1.0233(2) 0.2960(2)
H3 H -0.3610 1.0895 0.2829
H4 H -0.4864 1.0470 0.3367
C3 C -0.2434(3) 1.0221(3) 0.4402(2)
H5 H -0.2027 0.9742 0.4913
H6 H -0.2910 1.0721 0.4792
C4 C -0.0587(3) 0.8586(2) 0.0140(2)
H7 H 0.0206 0.8450 0.0625
H8 H -0.0287 0.9092 -0.0373
C5 C -0.0306(3) 0.9225(3) 0.3522(2)
H9 H -0.0979 0.8772 0.3785
C6 C 0.1692(3) 0.9415(3) 0.2746(3)
H10 H 0.2376 0.9088 0.2478
C7 C -0.1239(3) 0.7513(2) -0.0450(2)
H11 H -0.1959 0.7662 -0.1002
H12 H -0.0579 0.7180 -0.0808
C8 C -0.4925(3) 0.6557(2) -0.0224(3)
C9 C -0.0355(3) 1.0370(3) 0.3527(2)
C10 C -0.1352(3) 1.0891(3) 0.3951(2)
C11 C -0.4759(3) 0.6404(2) 0.0872(3)
H13 H -0.3975 0.6147 0.1192
C12 C -0.3238(3) 1.0107(2) 0.0805(2)
H14 H -0.2637 1.0597 0.1355
H15 H -0.3842 1.0549 0.0398
C13 C 0.0695(3) 0.8757(3) 0.3146(2)
H16 H 0.0714 0.7990 0.3157
C14 C 0.0677(3) 1.1032(3) 0.3129(2)
C15 C -0.0703(3) 0.6243(3) 0.0840(3)
H17 H 0.0008 0.6837 0.1145
H18 H -0.0332 0.5763 0.0346
C16 C -0.4878(3) 0.9665(3) 0.1910(2)
H19 H -0.5523 0.9045 0.2043
H20 H -0.5376 1.0186 0.1513
C17 C 0.0695(4) 1.2184(3) 0.3175(3)
H21 H 0.1373 1.2625 0.2907
C18 C -0.1278(3) 1.2013(3) 0.3989(3)
H22 H -0.1930 1.2360 0.4283
C19 C -0.3993(3) 0.6297(2) -0.0887(3)
C20 C -0.5694(3) 0.6618(3) 0.1480(3)
H23 H -0.5558 0.6505 0.2211
C21 C -0.1113(3) 0.5587(3) 0.1716(3)
H24 H -0.1797 0.4967 0.1422
H25 H -0.0342 0.5287 0.2090
C22 C -0.2730(3) 0.5872(2) -0.0430(3)
H26 H -0.2952 0.5253 -0.0003
H27 H -0.2301 0.5594 -0.1014
C23 C -0.4258(3) 0.8742(3) 0.4081(3)
H28 H -0.5032 0.8435 0.3550
H29 H -0.4591 0.9135 0.4660
C24 C -0.6858(3) 0.7006(3) 0.1026(4)
H30 H -0.7506 0.7155 0.1451
C25 C -0.0250(4) 1.2666(3) 0.3600(3)
H31 H -0.0221 1.3439 0.3636
C26 C -0.4266(4) 0.6402(3) -0.1956(3)
H32 H -0.3655 0.6213 -0.2402
C27 C -0.6345(4) 0.7053(3) -0.1784(3)
H33 H -0.7129 0.7316 -0.2093
C28 C -0.7058(3) 0.7167(3) -0.0019(4)
H34 H -0.7844 0.7438 -0.0313
C29 C -0.6123(3) 0.6941(2) -0.0683(3)
C30 C 0.1685(3) 1.0515(3) 0.2739(2)
H35 H 0.2369 1.0946 0.2469
C31 C -0.1960(5) 0.5748(3) 0.3318(4)
H36 H -0.2689 0.5146 0.3078
H37 H -0.1186 0.5418 0.3644
C32 C -0.3593(4) 0.7812(3) 0.4518(3)
H38 H -0.2866 0.8098 0.5097
H39 H -0.4238 0.7299 0.4808
C33 C -0.5452(4) 0.6791(3) -0.2402(3)
H40 H -0.5620 0.6867 -0.3139
C34 C -0.2343(9) 0.6428(5) 0.4075(4)
H41 H -0.1538 0.6782 0.4548
H42 H -0.2877 0.5970 0.4508
Na1 Na -0.25366(11) 0.79738(9) 0.20416(9)
loop_
_geom_bond_atom_site_label_1
_geom_bond_atom_site_label_2
_geom_bond_site_symmetry_1
_geom_bond_site_symmetry_2
O1 C12 1_555 1_555
O2 C1 1_555 1_555
O3 C21 1_555 1_555
N1 C2 1_555 1_555
O4 C32 1_555 1_555
N2 C7 1_555 1_555
C1 H1 1_555 1_555
H2 C1 1_555 1_555
C2 H3 1_555 1_555
H4 C2 1_555 1_555
C3 N1 1_555 1_555
H5 C3 1_555 1_555
H6 C3 1_555 1_555
C4 O2 1_555 1_555
H7 C4 1_555 1_555
H8 C4 1_555 1_555
C5 H9 1_555 1_555
C6 H10 1_555 1_555
C7 C4 1_555 1_555
H11 C7 1_555 1_555
H12 C7 1_555 1_555
C8 C11 1_555 1_555
C9 C5 1_555 1_555
C10 C3 1_555 1_555
C11 H13 1_555 1_555
C12 C1 1_555 1_555
H14 C12 1_555 1_555
H15 C12 1_555 1_555
C13 C5 1_555 1_555
H16 C13 1_555 1_555
C14 C9 1_555 1_555
C15 N2 1_555 1_555
H17 C15 1_555 1_555
H18 C15 1_555 1_555
C16 O1 1_555 1_555
H19 C16 1_555 1_555
H20 C16 1_555 1_555
C17 C14 1_555 1_555
H21 C17 1_555 1_555
C18 C10 1_555 1_555
H22 C18 1_555 1_555
C19 C8 1_555 1_555
C20 C11 1_555 1_555
H23 C20 1_555 1_555
C21 C15 1_555 1_555
H24 C21 1_555 1_555
H25 C21 1_555 1_555
C22 N2 1_555 1_555
H26 C22 1_555 1_555
H27 C22 1_555 1_555
C23 N1 1_555 1_555
H28 C23 1_555 1_555
H29 C23 1_555 1_555
C24 C20 1_555 1_555
H30 C24 1_555 1_555
C25 C17 1_555 1_555
H31 C25 1_555 1_555
C26 C19 1_555 1_555
H32 C26 1_555 1_555
C27 H33 1_555 1_555
C28 C24 1_555 1_555
H34 C28 1_555 1_555
C29 C8 1_555 1_555
C30 C6 1_555 1_555
H35 C30 1_555 1_555
C31 O3 1_555 1_555
H36 C31 1_555 1_555
H37 C31 1_555 1_555
C32 C23 1_555 1_555
H38 C32 1_555 1_555
H39 C32 1_555 1_555
C33 C26 1_555 1_555
H40 C33 1_555 1_555
C34 O4 1_555 1_555
H41 C34 1_555 1_555
H42 C34 1_555 1_555
Na1 O1 1_555 1_555
O2 Na1 1_555 1_555
O3 Na1 1_555 1_555
N1 Na1 1_555 1_555
O4 Na1 1_555 1_555
N2 Na1 1_555 1_555
C2 C16 1_555 1_555
C6 C13 1_555 1_555
C9 C10 1_555 1_555
C14 C30 1_555 1_555
C18 C25 1_555 1_555
C19 C22 1_555 1_555
C27 C29 1_555 1_555
C27 C33 1_555 1_555
C28 C29 1_555 1_555
C31 C34 1_555 1_555

#END
