
#######################################################################
#
#                 Cambridge Crystallographic Data Centre
#                                CCDC 
#
#######################################################################
#
# If this CIF has been generated from an entry in the Cambridge 
# Structural Database, then it will include bibliographic, chemical, 
# crystal, experimental, refinement or atomic coordinate data resulting 
# from the CCDC's data processing and validation procedures.
#
#######################################################################

data_VIHPEH
_chemical_formula_moiety         'C16 H16 N4 O3 S1'
_chemical_name_systematic        
2-Amino-1-(isopropylsulfonyl)-6-phenylcarbonyl-1H-imidazo(4,5-b)pyridine
_symmetry_cell_setting           monoclinic
_symmetry_space_group_name_H-M   'P 21/n'
_symmetry_Int_Tables_number      14
_space_group_name_Hall           '-P 2yn'
loop_
_symmetry_equiv_pos_site_id
_symmetry_equiv_pos_as_xyz
1 x,y,z
2 1/2-x,1/2+y,1/2-z
3 -x,-y,-z
4 1/2+x,1/2-y,1/2+z
_cell_length_a                   5.3993(6)
_cell_length_b                   20.184(4)
_cell_length_c                   14.903(2)
_cell_angle_alpha                90
_cell_angle_beta                 98.14(1)
_cell_angle_gamma                90
_cell_volume                     1607.76
_exptl_crystal_colour            'light yellow'
_chemical_melting_point          208-209deg.C
_cell_formula_units_Z            4
loop_
_atom_site_label
_atom_site_type_symbol
_atom_site_fract_x
_atom_site_fract_y
_atom_site_fract_z
S1 S 0.2750(7) 0.0395(2) 0.2878(3)
O1 O 0.053(1) 0.0783(5) 0.2796(6)
O2 O 0.257(2) -0.0310(5) 0.2953(6)
O3 O 0.314(2) 0.3486(5) 0.4984(7)
N1 N 0.454(2) 0.0645(5) 0.3828(7)
N2 N 0.817(2) 0.0726(6) 0.4798(8)
N3 N 0.720(2) -0.0312(6) 0.4122(7)
N4 N 0.786(2) 0.1885(6) 0.5175(7)
C1 C 0.673(2) 0.0330(8) 0.426(1)
C2 C 0.699(2) 0.1327(7) 0.4733(8)
C3 C 0.632(3) 0.2394(7) 0.502(1)
C4 C 0.401(2) 0.2420(8) 0.4475(8)
C5 C 0.314(2) 0.1838(7) 0.4022(8)
C6 C 0.469(2) 0.1302(7) 0.4134(9)
C7 C 0.262(3) 0.3062(8) 0.440(1)
C8 C 0.0621(2) 0.3186(7) 0.362(1)
C9 C -0.131(3) 0.3606(7) 0.377(1)
C10 C -0.327(2) 0.3737(7) 0.310(1)
C11 C -0.325(3) 0.3449(9) 0.225(1)
C12 C -0.134(3) 0.3070(8) 0.207(1)
C13 C 0.063(3) 0.2922(7) 0.274(1)
C14 C 0.452(3) 0.0574(7) 0.197(1)
C15 C 0.497(3) 0.1318(8) 0.190(1)
C16 C 0.310(3) 0.0302(9) 0.109(1)
H1 H 0.6327 -0.0440 0.3449
H2 H 0.9245 -0.0358 0.4024
H3 H 0.6858 0.2794 0.5326
H4 H 0.1551 0.1818 0.3655
H5 H -0.1278 0.3806 0.4354
H6 H -0.4606 0.4016 0.3212
H7 H -0.4626 0.3523 0.1792
H8 H -0.1333 0.2903 0.1476
H9 H 0.1967 0.2646 0.2618
H10 H 0.6095 0.0356 0.2093
H11 H 0.5863 0.1478 0.2450
H12 H 0.5919 0.1401 0.1417
H13 H 0.3409 0.1542 0.1775
H14 H 0.1527 0.0519 0.0959
H15 H 0.4044 0.0378 0.0607
H16 H 0.2838 -0.0161 0.1148
loop_
_geom_bond_atom_site_label_1
_geom_bond_atom_site_label_2
_geom_bond_site_symmetry_1
_geom_bond_site_symmetry_2
S1 O1 1_555 1_555
O2 S1 1_555 1_555
O3 C7 1_555 1_555
N1 S1 1_555 1_555
N2 C1 1_555 1_555
N3 C1 1_555 1_555
N4 C2 1_555 1_555
C1 N1 1_555 1_555
C2 N2 1_555 1_555
C3 N4 1_555 1_555
C4 C3 1_555 1_555
C5 C4 1_555 1_555
C6 N1 1_555 1_555
C7 C4 1_555 1_555
C8 C7 1_555 1_555
C9 C8 1_555 1_555
C10 C9 1_555 1_555
C11 C10 1_555 1_555
C12 C11 1_555 1_555
C13 C8 1_555 1_555
C14 S1 1_555 1_555
C15 C14 1_555 1_555
C16 C14 1_555 1_555
H1 N3 1_555 1_555
H2 N3 1_555 1_555
H3 C3 1_555 1_555
H4 C5 1_555 1_555
H5 C9 1_555 1_555
H6 C10 1_555 1_555
H7 C11 1_555 1_555
H8 C12 1_555 1_555
H9 C13 1_555 1_555
H10 C14 1_555 1_555
H11 C15 1_555 1_555
H12 C15 1_555 1_555
H13 C15 1_555 1_555
H14 C16 1_555 1_555
H15 C16 1_555 1_555
H16 C16 1_555 1_555
C2 C6 1_555 1_555
C5 C6 1_555 1_555
C12 C13 1_555 1_555

#END
