
#######################################################################
#
#                 Cambridge Crystallographic Data Centre
#                                CCDC 
#
#######################################################################
#
# If this CIF has been generated from an entry in the Cambridge 
# Structural Database, then it will include bibliographic, chemical, 
# crystal, experimental, refinement or atomic coordinate data resulting 
# from the CCDC's data processing and validation procedures.
#
#######################################################################

data_VIHQOS
_chemical_formula_moiety         'C34 H46 K1 N2 O6 1+,I1 1-'
_chemical_name_systematic        
'(4,13-bis(2-Naphthylmethyl)-4,13-diaza-1,7,10,16-tetraoxacyclohexadecane)-diaqua-potassium iodide'
_symmetry_cell_setting           monoclinic
_symmetry_space_group_name_H-M   'P 21/c'
_symmetry_Int_Tables_number      14
_space_group_name_Hall           '-P 2ybc'
loop_
_symmetry_equiv_pos_site_id
_symmetry_equiv_pos_as_xyz
1 x,y,z
2 -x,1/2+y,1/2-z
3 -x,-y,-z
4 x,1/2-y,1/2+z
_cell_length_a                   12.1173(6)
_cell_length_b                   11.5332(6)
_cell_length_c                   24.9629(13)
_cell_angle_alpha                90
_cell_angle_beta                 93.5970(10)
_cell_angle_gamma                90
_cell_volume                     3481.72
_exptl_crystal_colour            colorless
_exptl_crystal_description       rhombohedroids
_cell_formula_units_Z            4
loop_
_atom_site_label
_atom_site_type_symbol
_atom_site_fract_x
_atom_site_fract_y
_atom_site_fract_z
I1 I 0.078976(17) 0.947243(18) 0.167705(8)
K1 K -0.11834(5) 1.35404(5) 0.10254(2)
O1 O -0.04662(15) 1.56593(15) 0.14624(7)
N1 N 0.10938(17) 1.36998(17) 0.14611(8)
O2 O -0.17013(15) 1.35034(16) -0.01061(7)
O3 O -0.27730(16) 1.52074(16) 0.13429(8)
N2 N -0.34900(18) 1.33373(19) 0.06169(9)
O4 O 0.04559(15) 1.31048(17) 0.03476(7)
C1 C 0.3007(2) 1.2321(2) 0.22713(10)
H1 H 0.2855 1.1687 0.2035
C2 C 0.1121(2) 1.3113(2) 0.19931(10)
H2 H 0.0912 1.2291 0.1935
H3 H 0.0551 1.3473 0.2207
C3 C -0.6333(2) 1.1106(2) -0.01074(10)
C4 C -0.4797(2) 1.1605(2) 0.05289(11)
C5 C -0.5241(2) 1.1511(2) 0.00111(11)
H4 H -0.4804 1.1724 -0.0276
C6 C 0.2448(2) 1.4079(2) 0.26852(10)
H5 H 0.1896 1.4648 0.2733
C7 C 0.3442(2) 1.4166(2) 0.29690(11)
H6 H 0.3575 1.4800 0.3207
C8 C -0.3638(2) 1.2069(2) 0.06607(11)
H7 H -0.3405 1.1834 0.1032
H8 H -0.3131 1.1688 0.0419
C9 C -0.5455(2) 1.1246(2) 0.09507(11)
H9 H -0.5164 1.1315 0.1312
C10 C -0.1264(2) 1.6347(2) 0.17174(11)
H10 H -0.0986 1.7149 0.1766
H11 H -0.1388 1.6022 0.2076
C11 C -0.8067(2) 1.0329(2) 0.01989(12)
H12 H -0.8498 1.0067 0.0480
C12 C 0.1796(2) 1.3082(2) 0.10959(10)
H13 H 0.1685 1.2237 0.1139
H14 H 0.2580 1.3254 0.1201
C13 C 0.0564(2) 1.5667(2) 0.17761(11)
H15 H 0.0460 1.5353 0.2138
H16 H 0.0843 1.6471 0.1816
C14 C -0.0910(2) 1.2818(2) -0.03686(11)
H17 H -0.1056 1.2867 -0.0763
H18 H -0.0971 1.1996 -0.0260
C15 C 0.1388(2) 1.4930(2) 0.14967(10)
H19 H 0.1454 1.5235 0.1129
H20 H 0.2121 1.5005 0.1692
C16 C -0.4208(2) 1.3965(3) 0.09720(13)
H21 H -0.4214 1.3546 0.1318
H22 H -0.4973 1.3963 0.0807
O5 O -0.1456(3) 1.1489(2) 0.15655(11)
C17 C -0.8501(2) 1.0313(2) -0.03172(12)
H23 H -0.9236 1.0046 -0.0393
C18 C -0.2325(2) 1.6353(2) 0.13793(12)
H24 H -0.2860 1.6879 0.1540
H25 H -0.2193 1.6643 0.1016
C19 C -0.6492(2) 1.0805(2) 0.08508(11)
H26 H -0.6898 1.0541 0.1141
C20 C 0.1568(2) 1.3396(2) 0.05100(11)
H27 H 0.1688 1.4236 0.0459
H28 H 0.2080 1.2968 0.0288
C21 C 0.2220(2) 1.3154(2) 0.23198(10)
C22 C 0.0228(2) 1.3260(2) -0.02146(10)
H29 H 0.0778 1.2832 -0.0415
H30 H 0.0277 1.4093 -0.0306
C23 C -0.7874(2) 1.0687(2) -0.07408(12)
H31 H -0.8189 1.0675 -0.1099
C24 C 0.4050(2) 1.2377(2) 0.25665(10)
C25 C 0.4277(2) 1.3331(2) 0.29147(10)
C26 C -0.6816(2) 1.1066(2) -0.06381(11)
H32 H -0.6397 1.1308 -0.0927
C27 C -0.6970(2) 1.0735(2) 0.03195(10)
O6 O -0.2006(3) 1.3444(3) 0.21235(12)
C28 C -0.3603(2) 1.3783(3) 0.00676(12)
H33 H -0.3490 1.4633 0.0077
H34 H -0.4366 1.3636 -0.0081
C29 C -0.2805(2) 1.3256(3) -0.03020(11)
H35 H -0.2917 1.2407 -0.0322
H36 H -0.2940 1.3579 -0.0668
C30 C 0.4872(3) 1.1517(3) 0.25264(12)
H37 H 0.4728 1.0864 0.2301
C31 C -0.3858(2) 1.5204(3) 0.10809(14)
H38 H -0.3855 1.5639 0.0739
H39 H -0.4385 1.5585 0.1312
C32 C 0.5327(2) 1.3395(3) 0.32048(12)
H40 H 0.5485 1.4027 0.3442
C33 C 0.6104(3) 1.2565(3) 0.31461(13)
H41 H 0.6807 1.2629 0.3335
C34 C 0.5873(3) 1.1615(4) 0.28086(14)
H42 H 0.6418 1.1032 0.2775
H43 H -0.1546 1.2030 0.1887
H44 H -0.079(5) 1.096(5) 0.169(2)
H45 H -0.163(5) 1.372(5) 0.250(2)
H46 H -0.254(5) 1.408(5) 0.200(2)
loop_
_geom_bond_atom_site_label_1
_geom_bond_atom_site_label_2
_geom_bond_site_symmetry_1
_geom_bond_site_symmetry_2
K1 O1 1_555 1_555
O1 C10 1_555 1_555
N1 K1 1_555 1_555
O2 K1 1_555 1_555
O3 K1 1_555 1_555
N2 K1 1_555 1_555
O4 K1 1_555 1_555
C1 H1 1_555 1_555
C2 N1 1_555 1_555
H2 C2 1_555 1_555
H3 C2 1_555 1_555
C3 C5 1_555 1_555
C4 C5 1_555 1_555
C5 H4 1_555 1_555
C6 H5 1_555 1_555
C7 C6 1_555 1_555
H6 C7 1_555 1_555
C8 N2 1_555 1_555
H7 C8 1_555 1_555
H8 C8 1_555 1_555
C9 C4 1_555 1_555
H9 C9 1_555 1_555
C10 H10 1_555 1_555
H11 C10 1_555 1_555
C11 H12 1_555 1_555
C12 N1 1_555 1_555
H13 C12 1_555 1_555
H14 C12 1_555 1_555
C13 O1 1_555 1_555
H15 C13 1_555 1_555
H16 C13 1_555 1_555
C14 O2 1_555 1_555
H17 C14 1_555 1_555
H18 C14 1_555 1_555
C15 N1 1_555 1_555
H19 C15 1_555 1_555
H20 C15 1_555 1_555
C16 N2 1_555 1_555
H21 C16 1_555 1_555
H22 C16 1_555 1_555
O5 K1 1_555 1_555
C17 C11 1_555 1_555
H23 C17 1_555 1_555
C18 O3 1_555 1_555
H24 C18 1_555 1_555
H25 C18 1_555 1_555
C19 C9 1_555 1_555
H26 C19 1_555 1_555
C20 O4 1_555 1_555
H27 C20 1_555 1_555
H28 C20 1_555 1_555
C21 C1 1_555 1_555
C22 O4 1_555 1_555
H29 C22 1_555 1_555
H30 C22 1_555 1_555
C23 C17 1_555 1_555
H31 C23 1_555 1_555
C24 C1 1_555 1_555
C25 C7 1_555 1_555
C26 C3 1_555 1_555
H32 C26 1_555 1_555
C27 C3 1_555 1_555
O6 K1 1_555 1_555
C28 N2 1_555 1_555
H33 C28 1_555 1_555
H34 C28 1_555 1_555
C29 O2 1_555 1_555
H35 C29 1_555 1_555
H36 C29 1_555 1_555
C30 C24 1_555 1_555
H37 C30 1_555 1_555
C31 O3 1_555 1_555
H38 C31 1_555 1_555
H39 C31 1_555 1_555
C32 C25 1_555 1_555
H40 C32 1_555 1_555
C33 C32 1_555 1_555
H41 C33 1_555 1_555
C34 C30 1_555 1_555
H42 C34 1_555 1_555
H43 O5 1_555 1_555
H44 O5 1_555 1_555
H45 O6 1_555 1_555
H46 O6 1_555 1_555
C2 C21 1_555 1_555
C4 C8 1_555 1_555
C6 C21 1_555 1_555
C10 C18 1_555 1_555
C11 C27 1_555 1_555
C12 C20 1_555 1_555
C13 C15 1_555 1_555
C14 C22 1_555 1_555
C16 C31 1_555 1_555
C19 C27 1_555 1_555
C23 C26 1_555 1_555
C24 C25 1_555 1_555
C28 C29 1_555 1_555
C33 C34 1_555 1_555

#END
