
#######################################################################
#
#                 Cambridge Crystallographic Data Centre
#                                CCDC 
#
#######################################################################
#
# If this CIF has been generated from an entry in the Cambridge 
# Structural Database, then it will include bibliographic, chemical, 
# crystal, experimental, refinement or atomic coordinate data resulting 
# from the CCDC's data processing and validation procedures.
#
#######################################################################

data_VIHQIM
_chemical_formula_moiety         'C34 H42 N2 Na1 O4 1+,I1 1-'
_chemical_name_systematic        
'(4,13-bis(2-Naphthylmethyl)-4,13-diaza-1,7,10,16-tetraoxacyclohexadecane)-sodium iodide'
_symmetry_cell_setting           orthorhombic
_symmetry_space_group_name_H-M   'P n m a'
_symmetry_Int_Tables_number      62
_space_group_name_Hall           '-P 2ac 2n'
loop_
_symmetry_equiv_pos_site_id
_symmetry_equiv_pos_as_xyz
1 x,y,z
2 1/2-x,-y,1/2+z
3 1/2+x,1/2-y,1/2-z
4 -x,1/2+y,-z
5 -x,-y,-z
6 1/2+x,y,1/2-z
7 1/2-x,1/2+y,1/2+z
8 x,1/2-y,z
_cell_length_a                   12.7957(9)
_cell_length_b                   21.1947(15)
_cell_length_c                   11.9900(8)
_cell_angle_alpha                90
_cell_angle_beta                 90
_cell_angle_gamma                90
_cell_volume                     3251.7
_exptl_crystal_colour            colorless
_exptl_crystal_description       rhombohedroids
_cell_formula_units_Z            4
loop_
_atom_site_label
_atom_site_type_symbol
_atom_site_fract_x
_atom_site_fract_y
_atom_site_fract_z
I1 I 0.19929(4) 0.2500 0.08905(4)
Na1 Na 0.64077(19) 0.2500 -0.0275(2)
O1 O 0.7947(3) 0.3132(2) 0.0152(5)
N1 N 0.5847(3) 0.35701(18) 0.0626(3)
C1 C 0.3351(5) 0.5134(3) 0.2529(5)
C2 C 0.2923(4) 0.4738(3) 0.1747(5)
H1 H 0.2264 0.4835 0.1423
C3 C 0.6777(4) 0.3859(3) 0.1123(4)
H2 H 0.6905 0.3667 0.1863
H3 H 0.6647 0.4315 0.1236
C4 C 0.4330(4) 0.5004(3) 0.3014(5)
C5 C 0.3455(4) 0.4196(2) 0.1432(5)
H4 H 0.3145 0.3921 0.0901
C6 C 0.5023(4) 0.3451(2) 0.1470(4)
H5 H 0.5346 0.3241 0.2122
H6 H 0.4505 0.3154 0.1149
C7 C 0.4441(4) 0.4044(2) 0.1877(4)
C8 C 0.4784(5) 0.3604(3) -0.1101(6)
H7 H 0.4180 0.3422 -0.0697
H8 H 0.4517 0.3888 -0.1691
C9 C 0.5466(4) 0.3961(2) -0.0314(4)
H9 H 0.6074 0.4130 -0.0729
H10 H 0.5069 0.4324 -0.0012
C10 C 0.2801(5) 0.5700(3) 0.2880(6)
H11 H 0.2145 0.5806 0.2559
C11 C 0.8728(5) 0.2834(3) 0.0716(6)
H12 H 0.8704 0.2978 0.1501
H13 H 0.9402 0.2978 0.0401
O2 O 0.5389(5) 0.31223(19) -0.1572(4)
C12 C 0.4208(6) 0.5932(4) 0.4121(6)
H14 H 0.4496 0.6209 0.4662
C13 C 0.7741(4) 0.3776(3) 0.0402(6)
H15 H 0.7645 0.4012 -0.0303
H16 H 0.8352 0.3958 0.0794
C14 C 0.4863(5) 0.4434(3) 0.2664(5)
H17 H 0.5518 0.4330 0.2988
C15 C 0.3231(6) 0.6072(3) 0.3667(6)
H18 H 0.2864 0.6435 0.3915
C16 C 0.4764(6) 0.5411(3) 0.3818(6)
H19 H 0.5427 0.5324 0.4140
C17 C 0.4783(12) 0.2763(3) -0.2368(9)
H20 H 0.4047 0.2898 -0.2284
H21 H 0.5011 0.2898 -0.3120
C11G C 0.8728(5) 0.2166(3) 0.0716(6)
O1G O 0.7947(3) 0.1868(2) 0.0152(5)
N1G N 0.5847(3) 0.14299(18) 0.0626(3)
C3G C 0.6777(4) 0.1141(3) 0.1123(4)
H2G H 0.6905 0.1333 0.1863
H3G H 0.6647 0.0685 0.1236
C13G C 0.7741(4) 0.1224(3) 0.0402(6)
H15G H 0.7645 0.0988 -0.0303
H16G H 0.8352 0.1042 0.0794
C6G C 0.5023(4) 0.1549(2) 0.1470(4)
H5G H 0.5346 0.1759 0.2122
H6G H 0.4505 0.1846 0.1149
C7G C 0.4441(4) 0.0956(2) 0.1877(4)
C5G C 0.3455(4) 0.0804(2) 0.1432(5)
C2G C 0.2923(4) 0.0262(3) 0.1747(5)
C1G C 0.3351(5) -0.0134(3) 0.2529(5)
C4G C 0.4330(4) -0.0004(3) 0.3014(5)
C14G C 0.4863(5) 0.0566(3) 0.2664(5)
H17G H 0.5518 0.0670 0.2988
C16G C 0.4764(6) -0.0411(3) 0.3818(6)
C12G C 0.4208(6) -0.0932(4) 0.4121(6)
H14G H 0.4496 -0.1209 0.4662
C15G C 0.3231(6) -0.1072(3) 0.3667(6)
C10G C 0.2801(5) -0.0700(3) 0.2880(6)
H11G H 0.2145 -0.0806 0.2559
H18G H 0.2864 -0.1435 0.3915
H19G H 0.5427 -0.0324 0.4140
H1G H 0.2264 0.0165 0.1423
H4G H 0.3145 0.1079 0.0901
C9G C 0.5466(4) 0.1039(2) -0.0314(4)
C8G C 0.4784(5) 0.1396(3) -0.1101(6)
H7G H 0.4180 0.1578 -0.0697
H8G H 0.4517 0.1112 -0.1691
O2G O 0.5389(5) 0.18777(19) -0.1572(4)
C17G C 0.4783(12) 0.2237(3) -0.2368(9)
H20G H 0.4047 0.2102 -0.2284
H21G H 0.5011 0.2102 -0.3120
H9G H 0.6074 0.0870 -0.0729
H10G H 0.5069 0.0676 -0.0012
H12G H 0.8704 0.2022 0.1501
H13G H 0.9402 0.2022 0.0401
loop_
_geom_bond_atom_site_label_1
_geom_bond_atom_site_label_2
_geom_bond_site_symmetry_1
_geom_bond_site_symmetry_2
Na1 O1 1_555 1_555
O1 C11 1_555 1_555
N1 Na1 1_555 1_555
C1 C2 1_555 1_555
C2 H1 1_555 1_555
C3 N1 1_555 1_555
H2 C3 1_555 1_555
H3 C3 1_555 1_555
C4 C1 1_555 1_555
C5 C2 1_555 1_555
H4 C5 1_555 1_555
C6 N1 1_555 1_555
H5 C6 1_555 1_555
H6 C6 1_555 1_555
C7 C5 1_555 1_555
C8 H7 1_555 1_555
H8 C8 1_555 1_555
C9 N1 1_555 1_555
H9 C9 1_555 1_555
H10 C9 1_555 1_555
C10 C1 1_555 1_555
H11 C10 1_555 1_555
C11 H12 1_555 1_555
H13 C11 1_555 1_555
O2 Na1 1_555 1_555
C12 H14 1_555 1_555
C13 O1 1_555 1_555
H15 C13 1_555 1_555
H16 C13 1_555 1_555
C14 C4 1_555 1_555
H17 C14 1_555 1_555
C15 C10 1_555 1_555
H18 C15 1_555 1_555
C16 C4 1_555 1_555
H19 C16 1_555 1_555
C17 O2 1_555 1_555
H20 C17 1_555 1_555
H21 C17 1_555 1_555
C11G C11 1_555 1_555
O1G Na1 1_555 1_555
N1G Na1 1_555 1_555
C3G N1G 1_555 1_555
H2G C3G 1_555 1_555
H3G C3G 1_555 1_555
C13G O1G 1_555 1_555
H15G C13G 1_555 1_555
H16G C13G 1_555 1_555
C6G N1G 1_555 1_555
H5G C6G 1_555 1_555
H6G C6G 1_555 1_555
C7G C6G 1_555 1_555
C5G C7G 1_555 1_555
C2G C5G 1_555 1_555
C1G C2G 1_555 1_555
C4G C1G 1_555 1_555
C14G C7G 1_555 1_555
H17G C14G 1_555 1_555
C16G C4G 1_555 1_555
C12G C16G 1_555 1_555
H14G C12G 1_555 1_555
C15G C12G 1_555 1_555
C10G C1G 1_555 1_555
H11G C10G 1_555 1_555
H18G C15G 1_555 1_555
H19G C16G 1_555 1_555
H1G C2G 1_555 1_555
H4G C5G 1_555 1_555
C9G N1G 1_555 1_555
C8G C9G 1_555 1_555
H7G C8G 1_555 1_555
H8G C8G 1_555 1_555
O2G Na1 1_555 1_555
C17G C17 1_555 1_555
H20G C17G 1_555 1_555
H21G C17G 1_555 1_555
H9G C9G 1_555 1_555
H10G C9G 1_555 1_555
H12G C11G 1_555 1_555
H13G C11G 1_555 1_555
C3 C13 1_555 1_555
C6 C7 1_555 1_555
C7 C14 1_555 1_555
C8 C9 1_555 1_555
C8 O2 1_555 1_555
C12 C15 1_555 1_555
C12 C16 1_555 1_555
C11G O1G 1_555 1_555
C3G C13G 1_555 1_555
C4G C14G 1_555 1_555
C15G C10G 1_555 1_555
C8G O2G 1_555 1_555
O2G C17G 1_555 1_555

#END
