
#######################################################################
#
#                 Cambridge Crystallographic Data Centre
#                                CCDC 
#
#######################################################################
#
# If this CIF has been generated from an entry in the Cambridge 
# Structural Database, then it will include bibliographic, chemical, 
# crystal, experimental, refinement or atomic coordinate data resulting 
# from the CCDC's data processing and validation procedures.
#
#######################################################################

data_VIHROT
_chemical_formula_moiety         'C42 H46 N2 Na1 O4 1+,I3 1-,2(C4 H8 O1)'
_chemical_name_systematic        
'(4,13-bis(9-Anthrylmethyl)-4,13-diaza-1,7,10,16-tetraoxacyclohexadecane)-sodium triiodide tetrahydrofuran solvate'
_symmetry_cell_setting           triclinic
_symmetry_space_group_name_H-M   'P -1'
_symmetry_Int_Tables_number      2
_space_group_name_Hall           '-P 1'
loop_
_symmetry_equiv_pos_site_id
_symmetry_equiv_pos_as_xyz
1 x,y,z
2 -x,-y,-z
_cell_length_a                   10.4883(5)
_cell_length_b                   14.9523(8)
_cell_length_c                   15.9911(8)
_cell_angle_alpha                89.2750(10)
_cell_angle_beta                 86.0120(10)
_cell_angle_gamma                79.7080(10)
_cell_volume                     2461.47
_exptl_crystal_colour            yellow-brown
_exptl_crystal_description       rhombohedroids
_cell_formula_units_Z            2
loop_
_atom_site_label
_atom_site_type_symbol
_atom_site_fract_x
_atom_site_fract_y
_atom_site_fract_z
I1 I 0.14360(5) 0.85694(3) 0.38292(3)
I2 I 0.37289(6) 0.78056(5) 0.46870(4)
I3 I -0.09765(5) 0.93252(4) 0.30644(4)
Na1 Na 0.7361(3) 0.7838(2) 0.7360(2)
O1 O 0.7812(5) 0.8860(4) 0.6180(3)
O2 O 0.5352(5) 0.8714(4) 0.6747(3)
N1 N 0.4816(7) 0.8041(5) 0.8421(4)
O3 O 0.9120(6) 0.7377(4) 0.8278(4)
N2 N 0.9929(6) 0.7364(4) 0.6494(4)
C1 C 1.0081(8) 0.8294(5) 0.6203(5)
H1 H 1.0110 0.8679 0.6698
H2 H 1.0919 0.8254 0.5868
C2 C 1.0835(7) 0.7058(6) 0.7148(5)
H3 H 1.1701 0.7198 0.6969
H4 H 1.0928 0.6390 0.7213
C3 C 0.9029(8) 0.8729(5) 0.5695(5)
H5 H 0.9211 0.9324 0.5489
H6 H 0.8985 0.8344 0.5203
C4 C 0.5567(8) 0.9472(6) 0.6237(5)
H7 H 0.5681 0.9983 0.6596
H8 H 0.4808 0.9677 0.5903
C5 C 0.4069(8) 0.8867(8) 0.7161(6)
H9 H 0.3415 0.8911 0.6738
H10 H 0.3921 0.9447 0.7474
C6 C 0.6734(9) 0.9194(6) 0.5679(5)
H11 H 0.6598 0.8711 0.5295
H12 H 0.6922 0.9718 0.5337
C7 C 1.0384(8) 0.7501(7) 0.7973(5)
H13 H 1.1009 0.7254 0.8391
H14 H 1.0390 0.8160 0.7920
C8 C 0.3920(8) 0.8112(7) 0.7747(6)
H15 H 0.3016 0.8207 0.7998
H16 H 0.4080 0.7533 0.7431
C9 C 0.9065(11) 0.6506(9) 0.8610(8)
H17 H 0.9654 0.6374 0.9071
H18 H 0.9343 0.6040 0.8169
C10 C 0.7732(11) 0.6484(9) 0.8924(7)
H19 H 0.7684 0.5913 0.9236
H20 H 0.7401 0.7004 0.9304
O4 O 0.6980(6) 0.6538(4) 0.8194(4)
C11 C 0.8485(7) 0.5772(5) 0.6074(5)
C12 C 1.0745(8) 0.5028(5) 0.6044(5)
C13 C 0.6562(9) 0.9120(6) 0.9378(5)
C14 C 0.4858(9) 0.7158(6) 0.8858(5)
H21 H 0.3965 0.7030 0.8946
H22 H 0.5199 0.7200 0.9416
C15 C 0.6806(9) 0.9393(6) 0.8513(5)
H23 H 0.6176 0.9369 0.8119
C16 C 0.9809(7) 0.5812(5) 0.5985(5)
C17 C 0.7547(9) 0.9155(6) 0.9940(5)
C18 C 1.2098(8) 0.5001(6) 0.5920(5)
H24 H 1.2406 0.5548 0.5779
C19 C 0.5196(9) 0.8586(6) 1.0524(5)
C20 C 0.5405(9) 0.8824(6) 0.9647(5)
C21 C 0.6162(9) 0.8666(6) 1.1069(5)
C22 C 0.7490(8) 0.6532(6) 0.5990(5)
H25 H 0.7729 0.7109 0.5887
C23 C 1.0189(8) 0.6732(5) 0.5766(5)
H26 H 1.1124 0.6641 0.5582
H27 H 0.9692 0.7008 0.5294
C24 C 0.5698(8) 0.6383(6) 0.8374(6)
H28 H 0.5725 0.5816 0.8704
H29 H 0.5305 0.6300 0.7841
C25 C 0.5820(8) 0.5625(6) 0.6219(6)
H30 H 0.4921 0.5596 0.6271
C26 C 0.6220(8) 0.6480(6) 0.6050(5)
H31 H 0.5588 0.7011 0.5979
C27 C 0.8916(10) 0.9690(7) 0.8834(6)
H32 H 0.9722 0.9857 0.8650
C28 C 0.4797(11) 0.8205(7) 1.2227(6)
H33 H 0.4654 0.8072 1.2804
C29 C 0.7316(10) 0.8916(6) 1.0781(5)
H34 H 0.7971 0.8927 1.1161
C30 C 0.8070(8) 0.4917(6) 0.6242(5)
C31 C 0.4031(9) 0.8307(6) 1.0861(6)
H35 H 0.3374 0.8239 1.0499
C32 C 0.3855(11) 0.8141(7) 1.1681(6)
H36 H 0.3061 0.7975 1.1893
C33 C 0.5938(11) 0.8460(7) 1.1937(6)
H37 H 0.6586 0.8502 1.2315
C34 C 0.8683(10) 0.9457(7) 0.9641(6)
H38 H 0.9322 0.9499 1.0024
C35 C 0.9012(8) 0.4139(6) 0.6314(5)
H39 H 0.8742 0.3572 0.6421
C36 C 1.0317(8) 0.4167(6) 0.6236(5)
C37 C 0.4404(8) 0.8794(6) 0.9037(5)
H40 H 0.4242 0.9380 0.8733
H41 H 0.3581 0.8712 0.9345
C38 C 1.2553(9) 0.3391(6) 0.6194(6)
H42 H 1.3167 0.2847 0.6242
C39 C 0.7942(10) 0.9682(6) 0.8264(5)
H43 H 0.8078 0.9880 0.7703
C40 C 1.1280(9) 0.3370(6) 0.6315(5)
H44 H 1.1012 0.2810 0.6456
C41 C 1.2987(8) 0.4210(6) 0.5996(6)
H45 H 1.3891 0.4219 0.5916
C42 C 0.6725(5) 0.4845(4) 0.6306(3)
H46 H 0.6463 0.4275 0.6407
O5 O 0.5862(5) 0.5742(4) 1.1883(3)
C43 C 0.5849(5) 0.5945(4) 1.1027(3)
C44 C 0.6412(5) 0.5146(4) 1.0612(3)
C45 C 0.7309(5) 0.4503(4) 1.1306(3)
C46 C 0.7022(5) 0.4961(4) 1.1937(3)
O6 O 0.1631(5) 0.7027(4) 1.0264(3)
C47 C 0.0733(5) 0.7469(4) 1.0701(3)
C48 C 0.2037(5) 0.6350(4) 1.0756(3)
C49 C -0.0147(5) 0.6988(4) 1.1284(3)
C50 C 0.0574(5) 0.6132(4) 1.1305(3)
C51? C 0.0387(5) 0.7087(4) 1.1484(3)
C52? C 0.1636(5) 0.6266(4) 1.1409(3)
C53? C 0.7908(5) 0.5280(4) 1.1567(3)
O7? O 0.7366(5) 0.6165(4) 1.1294(3)
C54? C 0.6477(5) 0.6103(4) 1.1031(3)
loop_
_geom_bond_atom_site_label_1
_geom_bond_atom_site_label_2
_geom_bond_site_symmetry_1
_geom_bond_site_symmetry_2
I1 I2 1_555 1_555
I3 I1 1_555 1_555
Na1 O1 1_555 1_555
O1 C3 1_555 1_555
O2 Na1 1_555 1_555
N1 Na1 1_555 1_555
O3 Na1 1_555 1_555
N2 Na1 1_555 1_555
C1 N2 1_555 1_555
H1 C1 1_555 1_555
H2 C1 1_555 1_555
C2 N2 1_555 1_555
H3 C2 1_555 1_555
H4 C2 1_555 1_555
C3 C1 1_555 1_555
H5 C3 1_555 1_555
H6 C3 1_555 1_555
C4 O2 1_555 1_555
H7 C4 1_555 1_555
H8 C4 1_555 1_555
C5 O2 1_555 1_555
H9 C5 1_555 1_555
H10 C5 1_555 1_555
C6 O1 1_555 1_555
H11 C6 1_555 1_555
H12 C6 1_555 1_555
C7 O3 1_555 1_555
H13 C7 1_555 1_555
H14 C7 1_555 1_555
C8 N1 1_555 1_555
H15 C8 1_555 1_555
H16 C8 1_555 1_555
C9 O3 1_555 1_555
H17 C9 1_555 1_555
H18 C9 1_555 1_555
C10 C9 1_555 1_555
H19 C10 1_555 1_555
H20 C10 1_555 1_555
O4 Na1 1_555 1_555
C11 C16 1_555 1_555
C12 C16 1_555 1_555
C13 C15 1_555 1_555
C14 N1 1_555 1_555
H21 C14 1_555 1_555
H22 C14 1_555 1_555
C15 H23 1_555 1_555
C16 C23 1_555 1_555
C17 C13 1_555 1_555
C18 C12 1_555 1_555
H24 C18 1_555 1_555
C19 C20 1_555 1_555
C20 C13 1_555 1_555
C21 C19 1_555 1_555
C22 C11 1_555 1_555
H25 C22 1_555 1_555
C23 N2 1_555 1_555
H26 C23 1_555 1_555
H27 C23 1_555 1_555
C24 O4 1_555 1_555
H28 C24 1_555 1_555
H29 C24 1_555 1_555
C25 H30 1_555 1_555
C26 C22 1_555 1_555
H31 C26 1_555 1_555
C27 H32 1_555 1_555
C28 H33 1_555 1_555
C29 C17 1_555 1_555
H34 C29 1_555 1_555
C30 C11 1_555 1_555
C31 C19 1_555 1_555
H35 C31 1_555 1_555
C32 C28 1_555 1_555
H36 C32 1_555 1_555
C33 C21 1_555 1_555
H37 C33 1_555 1_555
C34 C17 1_555 1_555
H38 C34 1_555 1_555
C35 C30 1_555 1_555
H39 C35 1_555 1_555
C36 C12 1_555 1_555
C37 N1 1_555 1_555
H40 C37 1_555 1_555
H41 C37 1_555 1_555
C38 H42 1_555 1_555
C39 C15 1_555 1_555
H43 C39 1_555 1_555
C40 C36 1_555 1_555
H44 C40 1_555 1_555
C41 C18 1_555 1_555
H45 C41 1_555 1_555
C42 C25 1_555 1_555
H46 C42 1_555 1_555
O5 C43 1_555 1_555
C43 C44 1_555 1_555
C44 C45 1_555 1_555
C45 C46 1_555 1_555
C46 O5 1_555 1_555
O6 C47 1_555 1_555
C47 C49 1_555 1_555
C48 O6 1_555 1_555
C49 C50 1_555 1_555
C50 C48 1_555 1_555
C2 C7 1_555 1_555
C4 C6 1_555 1_555
C5 C8 1_555 1_555
C10 O4 1_555 1_555
C14 C24 1_555 1_555
C20 C37 1_555 1_555
C21 C29 1_555 1_555
C25 C26 1_555 1_555
C27 C34 1_555 1_555
C27 C39 1_555 1_555
C28 C33 1_555 1_555
C30 C42 1_555 1_555
C31 C32 1_555 1_555
C35 C36 1_555 1_555
C38 C40 1_555 1_555
C38 C41 1_555 1_555

#END
