
#######################################################################
#
#                 Cambridge Crystallographic Data Centre
#                                CCDC 
#
#######################################################################
#
# If this CIF has been generated from an entry in the Cambridge 
# Structural Database, then it will include bibliographic, chemical, 
# crystal, experimental, refinement or atomic coordinate data resulting 
# from the CCDC's data processing and validation procedures.
#
#######################################################################

data_VIHRUB
_chemical_formula_moiety         '2(C15 H8 N1 O9 1-),C13 H16 N2 2+'
_chemical_name_systematic        
"4,4'-(propane-1,3-diyl)dipyridinium bis( 4-(3,5-dicarboxyphenoxy)-3-nitrobenzoate)"
_symmetry_cell_setting           monoclinic
_symmetry_space_group_name_H-M   'C 2/c'
_symmetry_Int_Tables_number      15
_space_group_name_Hall           '-C 2yn'
loop_
_symmetry_equiv_pos_site_id
_symmetry_equiv_pos_as_xyz
1 x,y,z
2 -x,y,1/2-z
3 1/2+x,1/2+y,z
4 1/2-x,1/2+y,1/2-z
5 -x,-y,-z
6 x,-y,1/2+z
7 1/2-x,1/2-y,-z
8 1/2+x,1/2-y,1/2+z
_cell_length_a                   22.409(3)
_cell_length_b                   8.2803(10)
_cell_length_c                   22.146(3)
_cell_angle_alpha                90
_cell_angle_beta                 105.2420(10)
_cell_angle_gamma                90
_cell_volume                     3964.71
_exptl_crystal_colour            yellow
_exptl_crystal_description       block
_cell_formula_units_Z            4
loop_
_atom_site_label
_atom_site_type_symbol
_atom_site_fract_x
_atom_site_fract_y
_atom_site_fract_z
C1 C 0.72396(10) 0.2697(3) 0.64145(9)
C2 C 0.73292(10) 0.1643(3) 0.59591(10)
C3 C 0.68606(10) 0.1324(3) 0.54238(10)
H1 H 0.6932 0.0635 0.5118
C4 C 0.62863(9) 0.2038(3) 0.53465(9)
C5 C 0.62034(10) 0.3129(3) 0.57913(10)
H2 H 0.5823 0.3638 0.5735
C6 C 0.66750(10) 0.3477(3) 0.63158(10)
H3 H 0.6614 0.4235 0.6604
C7 C 0.57504(9) 0.1605(3) 0.48007(9)
C8 C 0.76841(10) 0.2738(3) 0.75234(9)
C9 C 0.82131(9) 0.3124(3) 0.79907(10)
H4 H 0.8552 0.3595 0.7890
C10 C 0.82281(9) 0.2797(3) 0.86090(9)
C11 C 0.77213(10) 0.2104(3) 0.87588(10)
H5 H 0.7733 0.1893 0.9174
C12 C 0.71973(10) 0.1727(3) 0.82858(10)
C13 C 0.71789(10) 0.2038(3) 0.76646(10)
H6 H 0.6829 0.1777 0.7347
C14 C 0.88027(10) 0.3054(3) 0.91289(10)
C15 C 0.66494(10) 0.0922(3) 0.84216(10)
N1 N 0.79214(9) 0.0813(3) 0.60284(11)
O1 O 0.82167(10) 0.0432(3) 0.65534(10)
O2 O 0.80676(10) 0.0466(4) 0.55599(11)
O3 O 0.58379(7) 0.0873(2) 0.43417(7)
O4 O 0.52271(7) 0.2036(3) 0.48462(7)
O5 O 0.92910(7) 0.3434(3) 0.89479(7)
H7 H 0.9597 0.3396 0.9248
O6 O 0.87971(8) 0.2884(3) 0.96703(7)
O7 O 0.67647(8) 0.0386(3) 0.89995(7)
H8 H 0.6449 -0.0010 0.9059
O8 O 0.61579(7) 0.0777(3) 0.80383(8)
O9 O 0.77260(7) 0.3068(2) 0.69212(7)
C16 C 0.49571(16) 0.1913(4) 0.63661(17)
H9 H 0.5015 0.0801 0.6397
C17 C 0.52873(13) 0.2944(5) 0.68575(14)
H10 H 0.5571 0.2528 0.7207
C18 C 0.51674(11) 0.4615(3) 0.67932(11)
C19 C 0.47418(13) 0.5083(4) 0.62496(12)
H11 H 0.4644 0.6173 0.6189
C20 C 0.44666(15) 0.4038(5) 0.58096(14)
H12 H 0.4189 0.4404 0.5446
C21 C 0.54655(19) 0.5826(5) 0.72703(14)
H13 H 0.5719 0.6538 0.7093
H14 H 0.5736 0.5273 0.7624
C22 C 0.5000 0.6836(6) 0.7500
H15 H 0.4778 0.7527 0.7162
N2 N 0.45829(12) 0.2525(4) 0.58852(12)
H16 H 0.4396 0.1880 0.5592
C16A C 0.50429(16) 0.1913(4) 0.86339(17)
H9A H 0.4985 0.0801 0.8603
C17A C 0.47127(13) 0.2944(5) 0.81425(14)
H10A H 0.4429 0.2528 0.7793
C18A C 0.48326(11) 0.4615(3) 0.82068(11)
C19A C 0.52582(13) 0.5083(4) 0.87504(12)
H11A H 0.5356 0.6173 0.8811
C20A C 0.55334(15) 0.4038(5) 0.91904(14)
H12A H 0.5811 0.4404 0.9554
C21A C 0.45345(19) 0.5826(5) 0.77297(14)
H13A H 0.4281 0.6538 0.7907
H14A H 0.4264 0.5273 0.7376
H15A H 0.5222 0.7527 0.7838
N2A N 0.54171(12) 0.2525(4) 0.91148(12)
H16A H 0.5604 0.1880 0.9408
H17? H 0.4778 0.7527 0.7162
loop_
_geom_bond_atom_site_label_1
_geom_bond_atom_site_label_2
_geom_bond_site_symmetry_1
_geom_bond_site_symmetry_2
C1 C2 1_555 1_555
C2 C3 1_555 1_555
C3 H1 1_555 1_555
C4 C3 1_555 1_555
C5 C4 1_555 1_555
H2 C5 1_555 1_555
C6 C1 1_555 1_555
H3 C6 1_555 1_555
C7 C4 1_555 1_555
C8 C9 1_555 1_555
C9 H4 1_555 1_555
C10 C9 1_555 1_555
C11 C10 1_555 1_555
H5 C11 1_555 1_555
C12 C11 1_555 1_555
C13 C8 1_555 1_555
H6 C13 1_555 1_555
C14 C10 1_555 1_555
C15 C12 1_555 1_555
N1 C2 1_555 1_555
O1 N1 1_555 1_555
O2 N1 1_555 1_555
O3 C7 1_555 1_555
O4 C7 1_555 1_555
O5 C14 1_555 1_555
H7 O5 1_555 1_555
O6 C14 1_555 1_555
O7 C15 1_555 1_555
H8 O7 1_555 1_555
O8 C15 1_555 1_555
O9 C1 1_555 1_555
C16 H9 1_555 1_555
C17 C16 1_555 1_555
H10 C17 1_555 1_555
C18 C17 1_555 1_555
C19 C18 1_555 1_555
H11 C19 1_555 1_555
C20 C19 1_555 1_555
H12 C20 1_555 1_555
C21 C18 1_555 1_555
H13 C21 1_555 1_555
H14 C21 1_555 1_555
C22 C21 1_555 1_555
H15 C22 1_555 1_555
N2 C16 1_555 1_555
H16 N2 1_555 1_555
C16A H9A 1_555 1_555
C17A C16A 1_555 1_555
H10A C17A 1_555 1_555
C18A C17A 1_555 1_555
C19A C18A 1_555 1_555
H11A C19A 1_555 1_555
C20A C19A 1_555 1_555
H12A C20A 1_555 1_555
C21A C22 1_555 1_555
H13A C21A 1_555 1_555
H14A C21A 1_555 1_555
H15A C22 1_555 1_555
N2A C16A 1_555 1_555
H16A N2A 1_555 1_555
C5 C6 1_555 1_555
C8 O9 1_555 1_555
C12 C13 1_555 1_555
C20 N2 1_555 1_555
C18A C21A 1_555 1_555
C20A N2A 1_555 1_555

#END
