
#######################################################################
#
#                 Cambridge Crystallographic Data Centre
#                                CCDC 
#
#######################################################################
#
# If this CIF has been generated from an entry in the Cambridge 
# Structural Database, then it will include bibliographic, chemical, 
# crystal, experimental, refinement or atomic coordinate data resulting 
# from the CCDC's data processing and validation procedures.
#
#######################################################################

data_VIHROU
_chemical_formula_moiety         'C19 H22 B1 N1 O3'
_chemical_name_systematic        
Spiro(3,3-diphenyltetrahydro-3H-pyrrolo(1,2-c)(1,3,2)oxazaborole)-1,2'-(1,3,2-dioxoborolane)
_symmetry_cell_setting           orthorhombic
_symmetry_space_group_name_H-M   'P 21 21 21'
_symmetry_Int_Tables_number      19
_space_group_name_Hall           'P 2ac 2ab'
loop_
_symmetry_equiv_pos_site_id
_symmetry_equiv_pos_as_xyz
1 x,y,z
2 1/2-x,-y,1/2+z
3 1/2+x,1/2-y,-z
4 -x,1/2+y,1/2-z
_cell_length_a                   8.0330(4)
_cell_length_b                   9.9264(4)
_cell_length_c                   20.4313(9)
_cell_angle_alpha                90
_cell_angle_beta                 90
_cell_angle_gamma                90
_cell_volume                     1629.17
_exptl_crystal_colour            colorless
_exptl_crystal_description       prism
_cell_formula_units_Z            4
loop_
_atom_site_label
_atom_site_type_symbol
_atom_site_fract_x
_atom_site_fract_y
_atom_site_fract_z
O1 O 0.73305(14) 0.16525(12) 0.71989(5)
O2 O 0.51802(16) 0.22657(11) 0.79859(5)
O3 O 0.68178(15) 0.03682(11) 0.81868(5)
N1 N 0.48835(16) 0.02770(14) 0.71992(6)
H1 H 0.5233 -0.0616 0.7200
C1 C 0.5140(2) 0.08759(16) 0.65329(7)
H2 H 0.4894 0.0206 0.6180
C2 C 0.3875(2) 0.20191(16) 0.65314(8)
H3 H 0.3591 0.2290 0.6079
H4 H 0.4307 0.2813 0.6770
C3 C 0.2364(2) 0.1419(2) 0.68806(10)
H5 H 0.1766 0.2124 0.7130
H6 H 0.1586 0.1015 0.6560
C4 C 0.3047(2) 0.03434(19) 0.73417(8)
H7 H 0.2849 0.0597 0.7804
H8 H 0.2512 -0.0537 0.7256
C5 C 0.7014(2) 0.12594(16) 0.65418(7)
C6 C 0.8086(2) 0.00278(16) 0.63607(8)
C7 C 0.8869(2) -0.07336(17) 0.68443(8)
H9 H 0.8710 -0.0508 0.7292
C8 C 0.9883(2) -0.18201(18) 0.66802(9)
H10 H 1.0399 -0.2334 0.7016
C9 C 1.0140(2) -0.21534(17) 0.60331(9)
H11 H 1.0862 -0.2875 0.5921
C10 C 0.9339(3) -0.14288(18) 0.55490(9)
H12 H 0.9489 -0.1670 0.5103
C11 C 0.8316(3) -0.03506(18) 0.57101(8)
H13 H 0.7766 0.0135 0.5373
C12 C 0.7440(2) 0.24411(16) 0.60914(7)
C13 C 0.8676(2) 0.33326(17) 0.62846(9)
H14 H 0.9226 0.3199 0.6691
C14 C 0.9120(3) 0.44179(19) 0.58925(10)
H15 H 0.9977 0.5014 0.6030
C15 C 0.8318(3) 0.4632(2) 0.53041(10)
H16 H 0.8603 0.5386 0.5041
C16 C 0.7099(3) 0.3743(2) 0.50997(9)
H17 H 0.6552 0.3883 0.4693
C17 C 0.6669(2) 0.26398(18) 0.54886(8)
H18 H 0.5846 0.2022 0.5341
C18 C 0.5183(3) 0.20363(17) 0.86773(8)
H19 H 0.4044 0.2115 0.8858
H20 H 0.5914 0.2691 0.8903
C19 C 0.5846(2) 0.06002(17) 0.87576(8)
H21 H 0.6538 0.0524 0.9157
H22 H 0.4919 -0.0054 0.8786
B1 B 0.6132(2) 0.11928(18) 0.76737(8)
loop_
_geom_bond_atom_site_label_1
_geom_bond_atom_site_label_2
_geom_bond_site_symmetry_1
_geom_bond_site_symmetry_2
O1 C5 1_555 1_555
O2 C18 1_555 1_555
O3 C19 1_555 1_555
N1 H1 1_555 1_555
C1 N1 1_555 1_555
H2 C1 1_555 1_555
C2 C1 1_555 1_555
H3 C2 1_555 1_555
H4 C2 1_555 1_555
C3 C2 1_555 1_555
H5 C3 1_555 1_555
H6 C3 1_555 1_555
C4 N1 1_555 1_555
H7 C4 1_555 1_555
H8 C4 1_555 1_555
C5 C1 1_555 1_555
C6 C5 1_555 1_555
C7 C6 1_555 1_555
H9 C7 1_555 1_555
C8 C7 1_555 1_555
H10 C8 1_555 1_555
C9 C8 1_555 1_555
H11 C9 1_555 1_555
C10 C9 1_555 1_555
H12 C10 1_555 1_555
C11 C6 1_555 1_555
H13 C11 1_555 1_555
C12 C5 1_555 1_555
C13 C12 1_555 1_555
H14 C13 1_555 1_555
C14 C13 1_555 1_555
H15 C14 1_555 1_555
C15 C14 1_555 1_555
H16 C15 1_555 1_555
C16 C15 1_555 1_555
H17 C16 1_555 1_555
C17 C12 1_555 1_555
H18 C17 1_555 1_555
C18 H19 1_555 1_555
H20 C18 1_555 1_555
C19 C18 1_555 1_555
H21 C19 1_555 1_555
H22 C19 1_555 1_555
B1 O1 1_555 1_555
O2 B1 1_555 1_555
O3 B1 1_555 1_555
N1 B1 1_555 1_555
C3 C4 1_555 1_555
C10 C11 1_555 1_555
C16 C17 1_555 1_555

#END
