
#######################################################################
#
#                 Cambridge Crystallographic Data Centre
#                                CCDC 
#
#######################################################################
#
# If this CIF has been generated from an entry in the Cambridge 
# Structural Database, then it will include bibliographic, chemical, 
# crystal, experimental, refinement or atomic coordinate data resulting 
# from the CCDC's data processing and validation procedures.
#
#######################################################################

data_VIHTAI
_chemical_formula_moiety         'C24 H27 N1 O6'
_chemical_name_systematic        
'3-(8,11b-Dimethyl-3-oxo-2,3,6,7,8,9,10,11,11a,11b-decahydro-8,11-epoxy-6a,9-methanocyclohepta(f)quinolin-4(1H)-yl)-2,4-dihydroxybenzoic acid'
_symmetry_cell_setting           hexagonal
_symmetry_space_group_name_H-M   'P 61'
_symmetry_Int_Tables_number      169
_space_group_name_Hall           'P 61'
loop_
_symmetry_equiv_pos_site_id
_symmetry_equiv_pos_as_xyz
1 x,y,z
2 x-y,x,1/6+z
3 -y,x-y,1/3+z
4 -x,-y,1/2+z
5 -x+y,-x,2/3+z
6 y,-x+y,5/6+z
_cell_length_a                   16.4900(8)
_cell_length_b                   16.4900(8)
_cell_length_c                   13.4962(13)
_cell_angle_alpha                90
_cell_angle_beta                 90
_cell_angle_gamma                120
_cell_volume                     3178.22
_cell_formula_units_Z            6
_exptl_crystal_recrystallization_method nitromethane/dichloromethane/methanol
loop_
_atom_site_label
_atom_site_type_symbol
_atom_site_fract_x
_atom_site_fract_y
_atom_site_fract_z
C1 C 0.09088(11) 0.74483(11) 0.83064(12)
C2 C 0.16058(11) 0.82633(11) 0.78541(12)
C3 C 0.13766(11) 0.89065(11) 0.74465(12)
C4 C 0.04615(11) 0.87320(11) 0.75350(12)
H1 H 0.0305 0.9168 0.7266
C5 C -0.02256(11) 0.79378(11) 0.80053(12)
H2 H -0.0843 0.7838 0.8071
C6 C -0.00010(11) 0.72836(11) 0.83836(12)
C7 C 0.21257(12) 0.97691(11) 0.69961(13)
C8 C 0.15244(11) 0.69743(11) 0.96246(13)
C9 C 0.18824(12) 0.63652(12) 1.00363(13)
H3 H 0.1669 0.6209 1.0732
H4 H 0.2575 0.6730 1.0043
C10 C 0.15750(13) 0.54592(12) 0.94732(12)
H5 H 0.0916 0.5004 0.9643
H6 H 0.1966 0.5189 0.9679
C11 C 0.16608(11) 0.56192(11) 0.83441(12)
C12 C 0.12703(11) 0.46521(11) 0.78281(12)
H7 H 0.0689 0.4225 0.8206
C13 C 0.09394(13) 0.45802(12) 0.67350(13)
C14 C 0.03142(16) 0.50109(15) 0.66028(15)
H8 H 0.0374 0.5231 0.5910
H9 H -0.0344 0.4513 0.6702
C15 C 0.05130(14) 0.58079(13) 0.72762(14)
H10 H 0.0224 0.6168 0.7130
C16 C 0.10648(11) 0.60469(11) 0.80634(12)
C17 C 0.17645(15) 0.49211(13) 0.60013(15)
H11 H 0.1553 0.4880 0.5307
H12 H 0.2258 0.5573 0.6145
C18 C 0.21090(13) 0.42247(13) 0.62040(14)
H13 H 0.2444 0.4141 0.5630
C19 C 0.12043(12) 0.33009(11) 0.65228(13)
C20 C 0.26848(12) 0.45288(13) 0.71556(15)
H14 H 0.3107 0.5216 0.7182
H15 H 0.3055 0.4211 0.7242
C21 C 0.18931(11) 0.41953(11) 0.79151(13)
H16 H 0.2128 0.4235 0.8606
C22 C 0.04286(13) 0.35397(12) 0.64415(14)
H17 H -0.0092 0.3158 0.6903
H18 H 0.0181 0.3448 0.5757
C23 C 0.10306(14) 0.24036(13) 0.60391(14)
H19 H 0.0469 0.1875 0.6326
H20 H 0.1571 0.2318 0.6151
H21 H 0.0939 0.2434 0.5326
C24 C 0.26814(11) 0.63399(12) 0.80823(14)
H22 H 0.3100 0.6136 0.8359
H23 H 0.2841 0.6951 0.8361
H24 H 0.2753 0.6391 0.7360
N1 N 0.11676(9) 0.68001(9) 0.86979(10)
O1 O 0.18594(9) 1.03507(8) 0.66659(9)
H25 H 0.2326 1.0836 0.6446
O2 O 0.29443(9) 0.99425(9) 0.69462(10)
O3 O -0.06317(8) 0.64835(8) 0.88338(9)
H26 H -0.1174 0.6389 0.8728
O4 O 0.24811(8) 0.83988(8) 0.78366(9)
H27 H 0.2838 0.8906 0.7547
O5 O 0.15746(8) 0.76281(8) 1.01200(9)
O6 O 0.13220(8) 0.32300(8) 0.75926(9)
loop_
_geom_bond_atom_site_label_1
_geom_bond_atom_site_label_2
_geom_bond_site_symmetry_1
_geom_bond_site_symmetry_2
C1 C2 1_555 1_555
C2 C3 1_555 1_555
C3 C4 1_555 1_555
C4 H1 1_555 1_555
C5 C4 1_555 1_555
H2 C5 1_555 1_555
C6 C1 1_555 1_555
C7 C3 1_555 1_555
C8 C9 1_555 1_555
C9 H3 1_555 1_555
H4 C9 1_555 1_555
C10 C9 1_555 1_555
H5 C10 1_555 1_555
H6 C10 1_555 1_555
C11 C10 1_555 1_555
C12 C11 1_555 1_555
H7 C12 1_555 1_555
C13 C12 1_555 1_555
C14 C13 1_555 1_555
H8 C14 1_555 1_555
H9 C14 1_555 1_555
C15 C14 1_555 1_555
H10 C15 1_555 1_555
C16 C11 1_555 1_555
C17 C13 1_555 1_555
H11 C17 1_555 1_555
H12 C17 1_555 1_555
C18 C17 1_555 1_555
H13 C18 1_555 1_555
C19 C18 1_555 1_555
C20 C18 1_555 1_555
H14 C20 1_555 1_555
H15 C20 1_555 1_555
C21 C12 1_555 1_555
H16 C21 1_555 1_555
C22 C13 1_555 1_555
H17 C22 1_555 1_555
H18 C22 1_555 1_555
C23 C19 1_555 1_555
H19 C23 1_555 1_555
H20 C23 1_555 1_555
H21 C23 1_555 1_555
C24 C11 1_555 1_555
H22 C24 1_555 1_555
H23 C24 1_555 1_555
H24 C24 1_555 1_555
N1 C1 1_555 1_555
O1 C7 1_555 1_555
H25 O1 1_555 1_555
O2 C7 1_555 1_555
O3 C6 1_555 1_555
H26 O3 1_555 1_555
O4 C2 1_555 1_555
H27 O4 1_555 1_555
O5 C8 1_555 1_555
O6 C19 1_555 1_555
C5 C6 1_555 1_555
C8 N1 1_555 1_555
C15 C16 1_555 1_555
C16 N1 1_555 1_555
C19 C22 1_555 1_555
C20 C21 1_555 1_555
C21 O6 1_555 1_555

#END
