
#######################################################################
#
#                 Cambridge Crystallographic Data Centre
#                                CCDC 
#
#######################################################################
#
# If this CIF has been generated from an entry in the Cambridge 
# Structural Database, then it will include bibliographic, chemical, 
# crystal, experimental, refinement or atomic coordinate data resulting 
# from the CCDC's data processing and validation procedures.
#
#######################################################################

data_VIHTUE
_chemical_formula_moiety         'C30 H35 N1 S4 Si3,C1 H1 Cl3'
_chemical_name_systematic        
"2-[5,8,11-tris(trimethylsilyl)cycloocta[1,2-b:4,3-b':5,6-b'':8,7-b''']tetrakisthiophen-2-yl]pyridine chloroform solvate"
_symmetry_cell_setting           triclinic
_symmetry_space_group_name_H-M   'P -1'
_symmetry_Int_Tables_number      2
_space_group_name_Hall           '-P 1'
loop_
_symmetry_equiv_pos_site_id
_symmetry_equiv_pos_as_xyz
1 x,y,z
2 -x,-y,-z
_cell_length_a                   9.99079(18)
_cell_length_b                   13.6904(2)
_cell_length_c                   16.1699(3)
_cell_angle_alpha                72.1274(15)
_cell_angle_beta                 73.1763(15)
_cell_angle_gamma                72.4785(15)
_cell_volume                     1959.42
_exptl_crystal_colour            yellow
_exptl_crystal_description       prism
_cell_formula_units_Z            2
loop_
_atom_site_label
_atom_site_type_symbol
_atom_site_fract_x
_atom_site_fract_y
_atom_site_fract_z
C1 C 0.4802(3) 0.6261(2) 0.06914(19)
C2 C 0.3521(3) 0.6963(2) 0.06646(18)
H1 H 0.3235 0.7353 0.0137
C3 C 0.2654(3) 0.7048(2) 0.15210(18)
C4 C 0.3319(3) 0.6382(2) 0.21919(18)
C5 C 0.2790(3) 0.6131(2) 0.31573(17)
C6 C 0.2191(3) 0.6779(2) 0.37374(18)
C7 C 0.1943(3) 0.6188(2) 0.46442(18)
H2 H 0.1541 0.6507 0.5120
C8 C 0.2348(3) 0.5115(2) 0.47542(18)
C9 C 0.2066(4) 0.9572(3) 0.3630(2)
C10 C 0.2387(3) 0.8496(2) 0.3942(2)
H3 H 0.2842 0.8155 0.4415
C11 C 0.1963(3) 0.7938(2) 0.34792(18)
C12 C 0.1302(3) 0.8607(2) 0.28097(19)
C13 C 0.0630(3) 0.8386(2) 0.22179(18)
C14 C 0.1184(3) 0.7722(2) 0.16533(18)
C15 C 0.0178(3) 0.7799(2) 0.11430(19)
H4 H 0.0388 0.7404 0.0726
C16 C -0.1109(3) 0.8495(2) 0.1317(2)
C17 C 0.5974(4) 0.5934(3) -0.0037(2)
C18 C 0.5896(5) 0.6383(4) -0.0924(2)
H5 H 0.5113 0.6914 -0.1080
C19 C 0.7038(7) 0.6007(5) -0.1568(3)
H6 H 0.7019 0.6274 -0.2168
C20 C 0.8175(6) 0.5249(5) -0.1315(4)
H7 H 0.8946 0.4994 -0.1740
C21 C 0.8175(5) 0.4865(4) -0.0433(4)
H8 H 0.8971 0.4353 -0.0271
C22 C 0.4238(11) 1.0849(9) 0.3367(8)
H9 H 0.4405 1.1414 0.3529
H10 H 0.4235 1.1048 0.2744
H11 H 0.4986 1.0227 0.3488
C23 C 0.2536(15) 1.0002(6) 0.5233(7)
H12 H 0.3114 0.9293 0.5309
H13 H 0.1579 0.9998 0.5582
H14 H 0.2947 1.0422 0.5425
C24 C 0.1014(11) 1.1822(7) 0.3887(8)
H15 H 0.0098 1.1661 0.4190
H16 H 0.1023 1.2121 0.3266
H17 H 0.1177 1.2318 0.4136
C25 C -0.4316(9) 0.8469(8) 0.1687(6)
H18 H -0.4531 0.8835 0.2147
H19 H -0.4100 0.7722 0.1938
H20 H -0.5132 0.8662 0.1421
C26 C -0.3121(10) 1.0290(6) 0.0318(6)
H21 H -0.2258 1.0500 -0.0044
H22 H -0.3508 1.0653 0.0789
H23 H -0.3813 1.0465 -0.0042
C27 C -0.2274(13) 0.8068(12) -0.0062(7)
H24 H -0.3123 0.8175 -0.0274
H25 H -0.1949 0.7332 0.0200
H26 H -0.1534 0.8302 -0.0549
N1 N 0.7098(3) 0.5181(3) 0.0215(2)
S1 S 0.50074(8) 0.56866(6) 0.17677(5)
S2 S 0.30335(8) 0.48220(5) 0.37286(4)
S3 S 0.12327(10) 0.99062(6) 0.27518(6)
S4 S -0.10979(8) 0.90795(6) 0.21193(6)
Si1 Si 0.24337(9) 0.40341(7) 0.57967(5)
Si2 Si 0.24733(13) 1.05765(8) 0.40245(8)
Si3 Si -0.27005(11) 0.88459(8) 0.08010(7)
C28 C 0.0873(10) 0.4439(7) 0.6725(5)
H27 H -0.0013 0.4636 0.6529
H28 H 0.1000 0.5028 0.6873
H29 H 0.0844 0.3857 0.7240
C29 C 0.2214(14) 0.2836(5) 0.5583(5)
H30 H 0.2289 0.2262 0.6101
H31 H 0.2951 0.2649 0.5087
H32 H 0.1287 0.2978 0.5450
C30 C 0.4202(10) 0.3811(9) 0.6059(8)
H33 H 0.4258 0.4429 0.6198
H34 H 0.4952 0.3670 0.5554
H35 H 0.4312 0.3220 0.6561
C40 C 0.7659(6) 0.3129(4) 0.2021(4)
H63 H 0.7066 0.3721 0.1665
Cl1 Cl 0.6801(3) 0.2995(2) 0.31243(18)
Cl2 Cl 0.9298(3) 0.3406(2) 0.18440(17)
Cl3 Cl 0.7915(3) 0.20034(15) 0.1654(2)
C31? C 0.314(5) 0.272(2) 0.550(2)
H36? H 0.3263 0.2167 0.6031
H37? H 0.4043 0.2706 0.5084
H38? H 0.2462 0.2603 0.5243
C32? C 0.385(4) 0.418(4) 0.621(4)
H39? H 0.3513 0.4801 0.6441
H40? H 0.4671 0.4260 0.5726
H41? H 0.4107 0.3574 0.6666
C33? C 0.096(4) 0.420(3) 0.650(2)
H42? H 0.1129 0.3908 0.7088
H43? H 0.0324 0.3860 0.6406
H44? H 0.0530 0.4945 0.6421
C34? C 0.366(6) 1.124(5) 0.301(3)
H45? H 0.4087 1.0780 0.2609
H46? H 0.4407 1.1387 0.3182
H47? H 0.3099 1.1885 0.2716
C35? C 0.098(7) 1.143(4) 0.428(5)
H48? H 0.0472 1.1145 0.4870
H49? H 0.0397 1.1564 0.3863
H50? H 0.1193 1.2071 0.4269
C36? C 0.352(8) 0.994(4) 0.482(3)
H51? H 0.3120 0.9380 0.5242
H52? H 0.3544 1.0437 0.5122
H53? H 0.4486 0.9651 0.4530
C37? C -0.248(5) 0.777(4) 0.035(2)
H54? H -0.3401 0.7713 0.0329
H55? H -0.2028 0.7130 0.0721
H56? H -0.1886 0.7877 -0.0238
C38? C -0.425(3) 0.899(3) 0.162(2)
H57? H -0.4584 0.9713 0.1656
H58? H -0.4045 0.8555 0.2187
H59? H -0.4974 0.8773 0.1489
C39? C -0.236(3) 0.9950(19) -0.0177(19)
H60? H -0.3192 1.0249 -0.0430
H61? H -0.1552 0.9692 -0.0613
H62? H -0.2144 1.0481 0.0006
H64? H 0.7195 0.3719 0.1595
Cl4? Cl 0.818(3) 0.367(2) 0.265(2)
Cl5? Cl 0.936(3) 0.266(2) 0.1453(19)
Cl6? Cl 0.668(3) 0.2280(17) 0.237(2)
loop_
_geom_bond_atom_site_label_1
_geom_bond_atom_site_label_2
_geom_bond_site_symmetry_1
_geom_bond_site_symmetry_2
C1 C2 1_555 1_555
C2 H1 1_555 1_555
C3 C2 1_555 1_555
C4 C3 1_555 1_555
C5 C4 1_555 1_555
C6 C5 1_555 1_555
C7 C6 1_555 1_555
H2 C7 1_555 1_555
C8 C7 1_555 1_555
C9 C10 1_555 1_555
C10 H3 1_555 1_555
C11 C6 1_555 1_555
C12 C11 1_555 1_555
C13 C12 1_555 1_555
C14 C3 1_555 1_555
C15 C14 1_555 1_555
H4 C15 1_555 1_555
C16 C15 1_555 1_555
C17 C1 1_555 1_555
C18 C17 1_555 1_555
H5 C18 1_555 1_555
C19 C18 1_555 1_555
H6 C19 1_555 1_555
C20 C19 1_555 1_555
H7 C20 1_555 1_555
C21 C20 1_555 1_555
H8 C21 1_555 1_555
C22 H9 1_555 1_555
H10 C22 1_555 1_555
H11 C22 1_555 1_555
C23 H12 1_555 1_555
H13 C23 1_555 1_555
H14 C23 1_555 1_555
C24 H15 1_555 1_555
H16 C24 1_555 1_555
H17 C24 1_555 1_555
C25 H18 1_555 1_555
H19 C25 1_555 1_555
H20 C25 1_555 1_555
C26 H21 1_555 1_555
H22 C26 1_555 1_555
H23 C26 1_555 1_555
C27 H24 1_555 1_555
H25 C27 1_555 1_555
H26 C27 1_555 1_555
N1 C17 1_555 1_555
S1 C1 1_555 1_555
S2 C5 1_555 1_555
S3 C9 1_555 1_555
S4 C13 1_555 1_555
Si1 C8 1_555 1_555
Si2 C9 1_555 1_555
Si3 C16 1_555 1_555
C28 Si1 1_555 1_555
H27 C28 1_555 1_555
H28 C28 1_555 1_555
H29 C28 1_555 1_555
C29 Si1 1_555 1_555
H30 C29 1_555 1_555
H31 C29 1_555 1_555
H32 C29 1_555 1_555
C30 Si1 1_555 1_555
H33 C30 1_555 1_555
H34 C30 1_555 1_555
H35 C30 1_555 1_555
C40 H63 1_555 1_555
Cl1 C40 1_555 1_555
Cl2 C40 1_555 1_555
Cl3 C40 1_555 1_555
C4 S1 1_555 1_555
C8 S2 1_555 1_555
C10 C11 1_555 1_555
C12 S3 1_555 1_555
C13 C14 1_555 1_555
C16 S4 1_555 1_555
C21 N1 1_555 1_555
C22 Si2 1_555 1_555
C23 Si2 1_555 1_555
C24 Si2 1_555 1_555
C25 Si3 1_555 1_555
C26 Si3 1_555 1_555
C27 Si3 1_555 1_555

#END
