
#######################################################################
#
#                 Cambridge Crystallographic Data Centre
#                                CCDC 
#
#######################################################################
#
# If this CIF has been generated from an entry in the Cambridge 
# Structural Database, then it will include bibliographic, chemical, 
# crystal, experimental, refinement or atomic coordinate data resulting 
# from the CCDC's data processing and validation procedures.
#
#######################################################################

data_VIHVIS
_chemical_formula_moiety         'C8 H18 N2 2+,2(Cl1 1-)'
_chemical_name_systematic        
'(S,S)-3a-Methylpyrrolo(3,4-c)piperidine dihydrochloride'
_symmetry_cell_setting           monoclinic
_symmetry_space_group_name_H-M   'P 21'
_symmetry_Int_Tables_number      4
_space_group_name_Hall           'P 2yb'
loop_
_symmetry_equiv_pos_site_id
_symmetry_equiv_pos_as_xyz
1 x,y,z
2 -x,1/2+y,-z
_cell_length_a                   7.04110(10)
_cell_length_b                   10.1530(2)
_cell_length_c                   8.2232(2)
_cell_angle_alpha                90
_cell_angle_beta                 114.7140(10)
_cell_angle_gamma                90
_cell_volume                     534.018
_exptl_crystal_colour            colorless
_exptl_crystal_description       plate
_cell_formula_units_Z            2
_exptl_crystal_recrystallization_method methanol
loop_
_atom_site_label
_atom_site_type_symbol
_atom_site_fract_x
_atom_site_fract_y
_atom_site_fract_z
Cl1 Cl 0.85176(9) 0.75219(6) 0.68992(9)
Cl2 Cl 0.56539(9) 0.52936(7) 0.09080(8)
C1 C 0.2155(4) 0.8847(2) 0.4862(3)
H1 H 0.2590 0.9717 0.4668
H2 H 0.1040 0.8958 0.5251
N1 N 0.3945(3) 0.8192(2) 0.6310(3)
H3 H 0.4276 0.8639 0.7338
H4 H 0.5060 0.8214 0.6043
C2 C 0.3477(4) 0.6792(3) 0.6577(3)
H5 H 0.2304 0.6756 0.6904
H6 H 0.4679 0.6396 0.7535
C3 C 0.2957(4) 0.6047(2) 0.4848(3)
H7 H 0.4154 0.6070 0.4554
H8 H 0.2680 0.5133 0.5016
C4 C 0.1086(3) 0.6614(2) 0.3312(3)
H9 H -0.0185 0.6436 0.3486
C5 C 0.0845(4) 0.6070(3) 0.1503(3)
H10 H 0.1446 0.5195 0.1641
H11 H -0.0620 0.6023 0.0678
N2 N 0.1992(3) 0.7014(2) 0.0832(2)
H12 H 0.1140 0.7299 -0.0270
H13 H 0.3095 0.6609 0.0766
C6 C 0.2721(4) 0.8158(2) 0.2104(3)
H14 H 0.2550 0.8983 0.1463
H15 H 0.4176 0.8057 0.2932
C7 C 0.1294(4) 0.8099(2) 0.3084(3)
C8 C -0.0832(4) 0.8723(3) 0.1948(4)
H16 H -0.0656 0.9650 0.1823
H17 H -0.1756 0.8592 0.2523
H18 H -0.1418 0.8319 0.0787
loop_
_geom_bond_atom_site_label_1
_geom_bond_atom_site_label_2
_geom_bond_site_symmetry_1
_geom_bond_site_symmetry_2
C1 H1 1_555 1_555
H2 C1 1_555 1_555
N1 C1 1_555 1_555
H3 N1 1_555 1_555
H4 N1 1_555 1_555
C2 N1 1_555 1_555
H5 C2 1_555 1_555
H6 C2 1_555 1_555
C3 C2 1_555 1_555
H7 C3 1_555 1_555
H8 C3 1_555 1_555
C4 C3 1_555 1_555
H9 C4 1_555 1_555
C5 C4 1_555 1_555
H10 C5 1_555 1_555
H11 C5 1_555 1_555
N2 C5 1_555 1_555
H12 N2 1_555 1_555
H13 N2 1_555 1_555
C6 N2 1_555 1_555
H14 C6 1_555 1_555
H15 C6 1_555 1_555
C7 C1 1_555 1_555
C8 C7 1_555 1_555
H16 C8 1_555 1_555
H17 C8 1_555 1_555
H18 C8 1_555 1_555
C4 C7 1_555 1_555
C6 C7 1_555 1_555

#END
