
#######################################################################
#
#                 Cambridge Crystallographic Data Centre
#                                CCDC 
#
#######################################################################
#
# If this CIF has been generated from an entry in the Cambridge 
# Structural Database, then it will include bibliographic, chemical, 
# crystal, experimental, refinement or atomic coordinate data resulting 
# from the CCDC's data processing and validation procedures.
#
#######################################################################

data_VIHWAM
_chemical_formula_moiety         'C22 H22 N4 O8 S1'
_chemical_name_systematic        
'2,6-Dimethoxy-4-((4-((6-methoxypyrimidin-4-yl)sulfamoyl)phenyl)carbamoyl)phenyl acetate'
_symmetry_cell_setting           triclinic
_symmetry_space_group_name_H-M   'P -1'
_symmetry_Int_Tables_number      2
_space_group_name_Hall           '-P 1'
loop_
_symmetry_equiv_pos_site_id
_symmetry_equiv_pos_as_xyz
1 x,y,z
2 -x,-y,-z
_cell_length_a                   8.7297(13)
_cell_length_b                   9.7304(14)
_cell_length_c                   14.220(2)
_cell_angle_alpha                97.970(2)
_cell_angle_beta                 92.606(2)
_cell_angle_gamma                100.195(2)
_cell_volume                     1174.3
_exptl_crystal_colour            colorless
_exptl_crystal_description       prism
_cell_formula_units_Z            2
loop_
_atom_site_label
_atom_site_type_symbol
_atom_site_fract_x
_atom_site_fract_y
_atom_site_fract_z
S1 S 0.32558(5) -0.18568(5) 0.66168(3)
O1 O 0.08175(14) 0.31709(13) 0.44620(9)
O2 O 0.44384(16) -0.14597(15) 0.73818(11)
O3 O 0.32606(16) -0.31103(14) 0.59589(11)
C1 C 0.2128(2) 0.35112(17) 0.41839(12)
N1 N 0.15419(18) -0.21250(16) 0.70483(11)
H1 H 0.0945 -0.2933 0.6877
N2 N 0.33637(17) 0.29650(16) 0.44699(11)
H2 H 0.4270 0.3346 0.4323
O4 O 0.33057(18) 0.76603(14) 0.17784(10)
C2 C 0.3272(2) -0.04176(19) 0.59896(13)
O5 O 0.5045(2) 0.56888(18) 0.17011(12)
C3 C 0.3284(2) 0.18185(18) 0.49904(12)
C4 C 0.2137(2) -0.0498(2) 0.52600(15)
H3 H 0.1371 -0.1305 0.5109
C5 C 0.3647(2) 0.4555(2) 0.29144(13)
H4 H 0.4272 0.3874 0.2911
C6 C 0.2448(2) 0.45730(18) 0.35192(12)
C7 C 0.0982(2) -0.1120(2) 0.76811(13)
C8 C 0.4423(2) 0.0769(2) 0.62196(14)
H5 H 0.5184 0.0819 0.6709
C9 C 0.4426(2) 0.1887(2) 0.57100(14)
H6 H 0.5203 0.2688 0.5854
C10 C 0.2950(2) 0.65721(19) 0.23232(13)
N3 N -0.0576(2) -0.12431(19) 0.75895(12)
O6 O 0.0864(2) 0.75897(17) 0.28528(12)
C11 C 0.2144(2) 0.0617(2) 0.47584(14)
H7 H 0.1386 0.0563 0.4267
C12 C 0.1727(2) 0.6564(2) 0.29124(14)
C13 C 0.1475(2) 0.55614(19) 0.35200(13)
H8 H 0.0665 0.5549 0.3923
N4 N -0.0399(2) 0.06682(19) 0.88630(13)
C14 C 0.2980(3) 0.7315(2) 0.08275(15)
O7 O 0.2019(2) 0.17630(19) 0.95600(13)
C15 C 0.3903(2) 0.5569(2) 0.23133(13)
C16 C 0.1912(2) -0.0106(2) 0.83315(15)
H9 H 0.2993 -0.0011 0.8379
O8 O 0.2216(2) 0.62019(19) 0.04765(12)
C17 C -0.0665(3) 0.7353(3) 0.3155(2)
H10 H -0.1145 0.8149 0.3078
H11 H -0.0626 0.7230 0.3813
H12 H -0.1264 0.6519 0.2780
C18 C 0.3687(3) 0.8459(3) 0.03078(17)
H13 H 0.3434 0.8175 -0.0363
H14 H 0.4800 0.8643 0.0434
H15 H 0.3286 0.9299 0.0515
C19 C -0.1161(3) -0.0342(3) 0.81914(17)
H16 H -0.2240 -0.0425 0.8138
C20 C 0.1132(3) 0.0774(2) 0.89163(15)
C21 C 0.5944(3) 0.4609(3) 0.1580(2)
H17 H 0.6705 0.4818 0.1129
H18 H 0.5272 0.3722 0.1350
H19 H 0.6464 0.4555 0.2180
C22 C 0.1259(4) 0.2765(3) 1.0118(2)
H20 H 0.2019 0.3412 1.0549
H21 H 0.0488 0.2272 1.0473
H22 H 0.0763 0.3279 0.9702
loop_
_geom_bond_atom_site_label_1
_geom_bond_atom_site_label_2
_geom_bond_site_symmetry_1
_geom_bond_site_symmetry_2
S1 O2 1_555 1_555
O1 C1 1_555 1_555
O3 S1 1_555 1_555
C1 N2 1_555 1_555
N1 S1 1_555 1_555
H1 N1 1_555 1_555
N2 H2 1_555 1_555
O4 C10 1_555 1_555
C2 S1 1_555 1_555
O5 C15 1_555 1_555
C3 N2 1_555 1_555
C4 C2 1_555 1_555
H3 C4 1_555 1_555
C5 H4 1_555 1_555
C6 C1 1_555 1_555
C7 N1 1_555 1_555
C8 C2 1_555 1_555
H5 C8 1_555 1_555
C9 C3 1_555 1_555
H6 C9 1_555 1_555
C10 C12 1_555 1_555
N3 C7 1_555 1_555
O6 C12 1_555 1_555
C11 C3 1_555 1_555
H7 C11 1_555 1_555
C12 C13 1_555 1_555
C13 C6 1_555 1_555
H8 C13 1_555 1_555
N4 C19 1_555 1_555
C14 O4 1_555 1_555
O7 C20 1_555 1_555
C15 C5 1_555 1_555
C16 C7 1_555 1_555
H9 C16 1_555 1_555
O8 C14 1_555 1_555
C17 O6 1_555 1_555
H10 C17 1_555 1_555
H11 C17 1_555 1_555
H12 C17 1_555 1_555
C18 C14 1_555 1_555
H13 C18 1_555 1_555
H14 C18 1_555 1_555
H15 C18 1_555 1_555
C19 N3 1_555 1_555
H16 C19 1_555 1_555
C20 N4 1_555 1_555
C21 O5 1_555 1_555
H17 C21 1_555 1_555
H18 C21 1_555 1_555
H19 C21 1_555 1_555
C22 O7 1_555 1_555
H20 C22 1_555 1_555
H21 C22 1_555 1_555
H22 C22 1_555 1_555
C4 C11 1_555 1_555
C5 C6 1_555 1_555
C8 C9 1_555 1_555
C10 C15 1_555 1_555
C16 C20 1_555 1_555

#END
