
#######################################################################
#
#                 Cambridge Crystallographic Data Centre
#                                CCDC 
#
#######################################################################
#
# If this CIF has been generated from an entry in the Cambridge 
# Structural Database, then it will include bibliographic, chemical, 
# crystal, experimental, refinement or atomic coordinate data resulting 
# from the CCDC's data processing and validation procedures.
#
#######################################################################

data_VIHWUG
_chemical_formula_moiety         'C22 H22 O3'
_chemical_name_systematic        
2-Benzylidene-6-(3,4-dimethoxybenzylidene)cyclohexanone
_symmetry_cell_setting           triclinic
_symmetry_space_group_name_H-M   'P -1'
_symmetry_Int_Tables_number      2
_space_group_name_Hall           '-P 1'
loop_
_symmetry_equiv_pos_site_id
_symmetry_equiv_pos_as_xyz
1 x,y,z
2 -x,-y,-z
_cell_length_a                   8.6409(10)
_cell_length_b                   9.8077(10)
_cell_length_c                   12.4203(14)
_cell_angle_alpha                89.263(2)
_cell_angle_beta                 70.596(2)
_cell_angle_gamma                64.224(2)
_cell_volume                     883.22
_exptl_crystal_colour            green
_exptl_crystal_description       prismatic
_cell_formula_units_Z            2
loop_
_atom_site_label
_atom_site_type_symbol
_atom_site_fract_x
_atom_site_fract_y
_atom_site_fract_z
O1 O 0.1775(2) 0.18096(19) 1.19430(14)
O2 O 0.3862(2) -0.3720(2) 0.61871(14)
O3 O 0.5672(3) -0.2143(2) 0.57241(14)
C1 C 0.2323(3) 0.2373(2) 1.11109(18)
C2 C 0.3047(4) 0.1558(3) 0.9924(2)
C3 C 0.4087(3) 0.2090(3) 0.8927(2)
H1 H 0.3431 0.2385 0.8396
H2 H 0.5290 0.1239 0.8517
C4 C 0.4351(3) 0.3427(3) 0.9275(2)
H3 H 0.4712 0.3882 0.8598
H4 H 0.5336 0.3056 0.9579
C5 C 0.2599(3) 0.4638(3) 1.0181(2)
H5 H 0.2781 0.5508 1.0350
H6 H 0.1597 0.4992 0.9891
C6 C 0.2120(3) 0.3958(2) 1.12622(19)
C7 C 0.1656(3) 0.4610(3) 1.23318(19)
H7 H 0.1476 0.4022 1.2910
C8 C 0.1392(3) 0.6127(2) 1.27190(18)
C9 C 0.0523(3) 0.7441(3) 1.2279(2)
H8 H 0.0041 0.7381 1.1724
C10 C 0.0364(4) 0.8827(3) 1.2652(2)
H9 H -0.0229 0.9694 1.2352
C11 C 0.1078(4) 0.8933(3) 1.3467(2)
H10 H 0.1003 0.9864 1.3700
C12 C 0.1902(4) 0.7662(3) 1.3938(2)
H11 H 0.2365 0.7736 1.4500
C13 C 0.2044(3) 0.6276(3) 1.3575(2)
H12 H 0.2584 0.5425 1.3907
C14 C 0.2638(3) 0.0391(3) 0.9830(2)
H13 H 0.1935 0.0251 1.0532
C15 C 0.3077(4) -0.0691(3) 0.8851(2)
C16 C 0.2210(3) -0.1605(2) 0.90747(19)
H14 H 0.1462 -0.1544 0.9829
C17 C 0.2416(3) -0.2607(2) 0.82170(19)
H15 H 0.1780 -0.3189 0.8394
C18 C 0.3557(3) -0.2758(2) 0.70954(18)
C19 C 0.4530(3) -0.1885(3) 0.68482(18)
C20 C 0.4273(4) -0.0865(3) 0.7708(2)
H16 H 0.4898 -0.0274 0.7537
C21 C 0.2961(4) -0.4670(3) 0.6421(2)
H17 H 0.3263 -0.5254 0.7012
H18 H 0.3363 -0.5355 0.5730
H19 H 0.1651 -0.4041 0.6677
C22 C 0.6845(4) -0.1426(4) 0.5455(2)
H20 H 0.6109 -0.0333 0.5598
H21 H 0.7635 -0.1747 0.4655
H22 H 0.7583 -0.1713 0.5929
loop_
_geom_bond_atom_site_label_1
_geom_bond_atom_site_label_2
_geom_bond_site_symmetry_1
_geom_bond_site_symmetry_2
O1 C1 1_555 1_555
O2 C18 1_555 1_555
O3 C19 1_555 1_555
C1 C2 1_555 1_555
C2 C3 1_555 1_555
C3 H1 1_555 1_555
H2 C3 1_555 1_555
C4 C3 1_555 1_555
H3 C4 1_555 1_555
H4 C4 1_555 1_555
C5 C4 1_555 1_555
H5 C5 1_555 1_555
H6 C5 1_555 1_555
C6 C1 1_555 1_555
C7 C6 1_555 1_555
H7 C7 1_555 1_555
C8 C7 1_555 1_555
C9 C8 1_555 1_555
H8 C9 1_555 1_555
C10 C9 1_555 1_555
H9 C10 1_555 1_555
C11 C10 1_555 1_555
H10 C11 1_555 1_555
C12 C11 1_555 1_555
H11 C12 1_555 1_555
C13 C8 1_555 1_555
H12 C13 1_555 1_555
C14 C2 1_555 1_555
H13 C14 1_555 1_555
C15 C14 1_555 1_555
C16 C15 1_555 1_555
H14 C16 1_555 1_555
C17 C16 1_555 1_555
H15 C17 1_555 1_555
C18 C17 1_555 1_555
C19 C18 1_555 1_555
C20 C15 1_555 1_555
H16 C20 1_555 1_555
C21 O2 1_555 1_555
H17 C21 1_555 1_555
H18 C21 1_555 1_555
H19 C21 1_555 1_555
C22 O3 1_555 1_555
H20 C22 1_555 1_555
H21 C22 1_555 1_555
H22 C22 1_555 1_555
C5 C6 1_555 1_555
C12 C13 1_555 1_555
C19 C20 1_555 1_555

#END
