
#######################################################################
#
#                 Cambridge Crystallographic Data Centre
#                                CCDC 
#
#######################################################################
#
# If this CIF has been generated from an entry in the Cambridge 
# Structural Database, then it will include bibliographic, chemical, 
# crystal, experimental, refinement or atomic coordinate data resulting 
# from the CCDC's data processing and validation procedures.
#
#######################################################################

data_VIHXUH
_chemical_formula_moiety         'C21 H30 O5'
_chemical_name_systematic        
1-Methoxy-7a,10'-dimethylhexahydro-1H,11'H-spiro[2-benzofuran-4,5'-[3]oxatricyclo[7.2.1.0^1,6^]dodecane]-2',11'-dione
_symmetry_cell_setting           monoclinic
_symmetry_space_group_name_H-M   'P 21'
_symmetry_Int_Tables_number      4
_space_group_name_Hall           'P 2yb'
loop_
_symmetry_equiv_pos_site_id
_symmetry_equiv_pos_as_xyz
1 x,y,z
2 -x,1/2+y,-z
_cell_length_a                   7.3963(14)
_cell_length_b                   11.650(2)
_cell_length_c                   11.440(2)
_cell_angle_alpha                90
_cell_angle_beta                 108.155(4)
_cell_angle_gamma                90
_cell_volume                     936.676
_cell_formula_units_Z            2
loop_
_atom_site_label
_atom_site_type_symbol
_atom_site_fract_x
_atom_site_fract_y
_atom_site_fract_z
C1 C 0.2957(3) 0.16307(19) 0.2711(2)
H1 H 0.3446 0.1896 0.2064
H2 H 0.3980 0.1235 0.3318
C2 C 0.1350(3) 0.07946(18) 0.2169(2)
H3 H 0.0869 0.0511 0.2813
H4 H 0.1818 0.0145 0.1818
C3 C -0.0236(3) 0.1378(2) 0.1183(2)
H5 H -0.1242 0.0826 0.0830
H6 H 0.0246 0.1641 0.0532
C4 C -0.1062(3) 0.24036(19) 0.16920(17)
C5 C 0.0545(3) 0.32302(17) 0.24159(17)
H7 H 0.0003 0.3756 0.2887
C6 C 0.0916(3) 0.3922(2) 0.1368(2)
H8 H 0.1158 0.4720 0.1606
H9 H 0.2018 0.3619 0.1183
C7 C 0.2348(3) 0.4619(2) 0.4779(2)
C8 C 0.2188(3) 0.34960(17) 0.53860(18)
C9 C 0.1974(3) 0.23827(16) 0.45593(17)
H10 H 0.0647 0.2132 0.4354
C10 C 0.2342(2) 0.26782(17) 0.33217(19)
C11 C 0.3211(3) 0.1419(2) 0.5313(2)
H11 H 0.2839 0.0696 0.4885
H12 H 0.4530 0.1561 0.5376
C12 C 0.3042(4) 0.1318(2) 0.6600(2)
H13 H 0.4044 0.0818 0.7086
H14 H 0.1834 0.0961 0.6546
C13 C 0.3174(4) 0.2483(2) 0.7271(2)
H15 H 0.4006 0.2422 0.8123
C14 C 0.3928(3) 0.3381(2) 0.6574(2)
H16 H 0.5053 0.3114 0.6391
H17 H 0.4211 0.4100 0.7022
C15 C 0.0523(3) 0.34627(18) 0.59117(18)
C16 C 0.1238(4) 0.3004(2) 0.7222(2)
H18 H 0.1511 0.3674 0.7767
C17 C -0.0204(5) 0.2277(3) 0.7598(3)
H19 H 0.0346 0.2026 0.8433
H20 H -0.0547 0.1622 0.7067
H21 H -0.1318 0.2728 0.7532
C18 C -0.2370(3) 0.1963(2) 0.2398(2)
H22 H -0.1668 0.1460 0.3046
H23 H -0.3416 0.1552 0.1847
H24 H -0.2847 0.2601 0.2746
C19 C -0.2123(3) 0.3193(2) 0.0642(2)
H25 H -0.2869 0.2737 -0.0063
C20 C 0.3973(3) 0.3548(2) 0.3632(2)
H26 H 0.5031 0.3256 0.4302
H27 H 0.4408 0.3656 0.2923
C21 C -0.4336(4) 0.4731(3) 0.0160(3)
H28 H -0.5145 0.5185 0.0491
H29 H -0.5096 0.4339 -0.0565
H30 H -0.3440 0.5223 -0.0048
O1 O -0.0727(2) 0.38295(18) 0.03194(14)
O2 O 0.3350(2) 0.46405(14) 0.39843(16)
O3 O 0.1732(3) 0.55095(15) 0.50360(17)
O4 O -0.1106(2) 0.37081(15) 0.53515(14)
O5 O -0.3342(2) 0.39147(18) 0.10491(14)
loop_
_geom_bond_atom_site_label_1
_geom_bond_atom_site_label_2
_geom_bond_site_symmetry_1
_geom_bond_site_symmetry_2
C1 H1 1_555 1_555
H2 C1 1_555 1_555
C2 C1 1_555 1_555
H3 C2 1_555 1_555
H4 C2 1_555 1_555
C3 C2 1_555 1_555
H5 C3 1_555 1_555
H6 C3 1_555 1_555
C4 C3 1_555 1_555
C5 C4 1_555 1_555
H7 C5 1_555 1_555
C6 C5 1_555 1_555
H8 C6 1_555 1_555
H9 C6 1_555 1_555
C7 C8 1_555 1_555
C8 C9 1_555 1_555
C9 H10 1_555 1_555
C10 C1 1_555 1_555
C11 C9 1_555 1_555
H11 C11 1_555 1_555
H12 C11 1_555 1_555
C12 C11 1_555 1_555
H13 C12 1_555 1_555
H14 C12 1_555 1_555
C13 C12 1_555 1_555
H15 C13 1_555 1_555
C14 C8 1_555 1_555
H16 C14 1_555 1_555
H17 C14 1_555 1_555
C15 C8 1_555 1_555
C16 C13 1_555 1_555
H18 C16 1_555 1_555
C17 C16 1_555 1_555
H19 C17 1_555 1_555
H20 C17 1_555 1_555
H21 C17 1_555 1_555
C18 C4 1_555 1_555
H22 C18 1_555 1_555
H23 C18 1_555 1_555
H24 C18 1_555 1_555
C19 C4 1_555 1_555
H25 C19 1_555 1_555
C20 C10 1_555 1_555
H26 C20 1_555 1_555
H27 C20 1_555 1_555
C21 H28 1_555 1_555
H29 C21 1_555 1_555
H30 C21 1_555 1_555
O1 C6 1_555 1_555
O2 C7 1_555 1_555
O3 C7 1_555 1_555
O4 C15 1_555 1_555
O5 C19 1_555 1_555
C5 C10 1_555 1_555
C9 C10 1_555 1_555
C13 C14 1_555 1_555
C15 C16 1_555 1_555
C19 O1 1_555 1_555
C20 O2 1_555 1_555
C21 O5 1_555 1_555

#END
