
#######################################################################
#
#                 Cambridge Crystallographic Data Centre
#                                CCDC 
#
#######################################################################
#
# If this CIF has been generated from an entry in the Cambridge 
# Structural Database, then it will include bibliographic, chemical, 
# crystal, experimental, refinement or atomic coordinate data resulting 
# from the CCDC's data processing and validation procedures.
#
#######################################################################

data_VIJKUX01
_chemical_formula_moiety         'C11 H13 N1 O6'
_chemical_name_systematic        
'dimethyl 2-(2,5-dioxopyrrolidin-1-yl)cyclopropane-1,1-dicarboxylate'
_symmetry_cell_setting           orthorhombic
_symmetry_space_group_name_H-M   'P 21 21 21'
_symmetry_Int_Tables_number      19
_space_group_name_Hall           'P 2ac 2ab'
loop_
_symmetry_equiv_pos_site_id
_symmetry_equiv_pos_as_xyz
1 x,y,z
2 1/2-x,-y,1/2+z
3 -x,1/2+y,1/2-z
4 1/2+x,1/2-y,-z
_cell_length_a                   7.02700(10)
_cell_length_b                   11.22780(10)
_cell_length_c                   15.1298(2)
_cell_angle_alpha                90
_cell_angle_beta                 90
_cell_angle_gamma                90
_cell_volume                     1193.71
_exptl_crystal_colour            colorless
_exptl_crystal_description       'rectangular prism'
_cell_formula_units_Z            4
loop_
_atom_site_label
_atom_site_type_symbol
_atom_site_fract_x
_atom_site_fract_y
_atom_site_fract_z
O1 O 0.7896(2) 0.54397(14) 0.24346(12)
O2 O 0.6014(2) 0.65455(16) 0.09208(9)
O3 O 0.3682(3) 0.47354(15) 0.37483(11)
O4 O 0.6220(3) 0.81980(15) 0.47791(13)
N1 N 0.4997(2) 0.65603(14) 0.40453(10)
O5 O 0.8917(3) 0.71520(18) 0.29551(18)
C1 C 0.5735(3) 0.70256(18) 0.24222(12)
O6 O 0.3123(3) 0.6908(3) 0.14443(13)
C2 C 0.7698(3) 0.65790(18) 0.26155(12)
C3 C 0.4390(3) 0.70656(19) 0.32209(13)
H1 H 0.3043 0.6944 0.3081
C4 C 0.5062(3) 0.5149(2) 0.51962(15)
H2 H 0.5893 0.4461 0.5231
H3 H 0.3951 0.5007 0.5562
C5 C 0.5821(3) 0.71484(18) 0.47588(14)
C6 C 0.4491(3) 0.53885(18) 0.42551(13)
C7 C 0.6095(4) 0.6267(2) 0.54890(14)
H4 H 0.5561 0.6567 0.6037
H5 H 0.7437 0.6105 0.5579
C8 C 0.5216(4) 0.8186(2) 0.28764(15)
H6 H 0.6190 0.8573 0.3229
H7 H 0.4374 0.8727 0.2565
C9 C 0.4800(3) 0.6799(2) 0.15572(13)
C10 C 0.9700(4) 0.4917(3) 0.26810(19)
H8 H 1.0675 0.5196 0.2288
H9 H 0.9613 0.4065 0.2643
H10 H 1.0009 0.5142 0.3276
C11 C 0.5195(4) 0.6378(3) 0.00494(15)
H11 H 0.6183 0.6417 -0.0388
H12 H 0.4275 0.6992 -0.0062
H13 H 0.4585 0.5614 0.0021
loop_
_geom_bond_atom_site_label_1
_geom_bond_atom_site_label_2
_geom_bond_site_symmetry_1
_geom_bond_site_symmetry_2
O1 C2 1_555 1_555
O2 C9 1_555 1_555
O3 C6 1_555 1_555
O4 C5 1_555 1_555
N1 C3 1_555 1_555
O5 C2 1_555 1_555
C1 C2 1_555 1_555
O6 C9 1_555 1_555
C3 C1 1_555 1_555
H1 C3 1_555 1_555
C4 H2 1_555 1_555
H3 C4 1_555 1_555
C5 N1 1_555 1_555
C6 N1 1_555 1_555
C7 C4 1_555 1_555
H4 C7 1_555 1_555
H5 C7 1_555 1_555
C8 C1 1_555 1_555
H6 C8 1_555 1_555
H7 C8 1_555 1_555
C9 C1 1_555 1_555
C10 O1 1_555 1_555
H8 C10 1_555 1_555
H9 C10 1_555 1_555
H10 C10 1_555 1_555
C11 O2 1_555 1_555
H11 C11 1_555 1_555
H12 C11 1_555 1_555
H13 C11 1_555 1_555
C3 C8 1_555 1_555
C4 C6 1_555 1_555
C5 C7 1_555 1_555

#END
