
#######################################################################
#
#                 Cambridge Crystallographic Data Centre
#                                CCDC 
#
#######################################################################
#
# If this CIF has been generated from an entry in the Cambridge 
# Structural Database, then it will include bibliographic, chemical, 
# crystal, experimental, refinement or atomic coordinate data resulting 
# from the CCDC's data processing and validation procedures.
#
#######################################################################

data_VIJKUX
_chemical_formula_moiety         'C11 H13 N1 O6'
_chemical_name_systematic        
'dimethyl 2-(2,5-dioxopyrrolidin-1-yl)cyclopropane-1,1-dicarboxylate'
_symmetry_cell_setting           orthorhombic
_symmetry_space_group_name_H-M   'P 21 21 21'
_symmetry_Int_Tables_number      19
_space_group_name_Hall           'P 2ac 2ab'
loop_
_symmetry_equiv_pos_site_id
_symmetry_equiv_pos_as_xyz
1 x,y,z
2 1/2-x,-y,1/2+z
3 -x,1/2+y,1/2-z
4 1/2+x,1/2-y,-z
_cell_length_a                   7.02700(10)
_cell_length_b                   11.23080(10)
_cell_length_c                   15.1304(2)
_cell_angle_alpha                90
_cell_angle_beta                 90
_cell_angle_gamma                90
_cell_volume                     1194.07
_exptl_crystal_colour            colorless
_exptl_crystal_description       block
_cell_formula_units_Z            4
loop_
_atom_site_label
_atom_site_type_symbol
_atom_site_fract_x
_atom_site_fract_y
_atom_site_fract_z
O1 O 0.2104(2) 0.45607(15) 0.24344(13)
O2 O 0.3984(2) 0.34553(16) 0.09217(9)
O3 O 0.6318(3) 0.52648(16) 0.37482(11)
N1 N 0.5002(2) 0.34400(15) 0.40457(10)
O4 O 0.3777(3) 0.18029(15) 0.47779(13)
O5 O 0.1084(3) 0.28494(18) 0.29565(18)
C1 C 0.2308(3) 0.34205(19) 0.26164(13)
O6 O 0.6880(3) 0.3096(3) 0.14445(13)
C2 C 0.4263(3) 0.29750(19) 0.24211(13)
C3 C 0.4178(3) 0.28489(19) 0.47593(14)
C4 C 0.5608(3) 0.2934(2) 0.32221(14)
H1 H 0.695576 0.305475 0.308209
C5 C 0.5509(3) 0.46094(19) 0.42546(14)
C6 C 0.4936(3) 0.4848(2) 0.51961(15)
H2 H 0.410473 0.553634 0.523093
H3 H 0.604650 0.498986 0.556217
C7 C 0.5199(3) 0.3200(2) 0.15564(14)
C8 C 0.3904(4) 0.3734(2) 0.54879(15)
H4 H 0.443517 0.343542 0.603661
H5 H 0.256159 0.389587 0.557635
C9 C 0.4783(4) 0.1814(2) 0.28756(16)
H6 H 0.380790 0.142673 0.322690
H7 H 0.562639 0.127441 0.256402
C10 C 0.0300(4) 0.5087(3) 0.2681(2)
H8 H -0.068234 0.479142 0.229841
H9 H 0.037889 0.593721 0.262595
H10 H 0.000732 0.488156 0.328150
C11 C 0.4806(4) 0.3624(3) 0.00489(15)
H11 H 0.382222 0.356907 -0.038945
H12 H 0.574410 0.301897 -0.005764
H13 H 0.539443 0.439387 0.001741
loop_
_geom_bond_atom_site_label_1
_geom_bond_atom_site_label_2
_geom_bond_site_symmetry_1
_geom_bond_site_symmetry_2
O1 C1 1_555 1_555
O2 C7 1_555 1_555
O3 C5 1_555 1_555
N1 C3 1_555 1_555
O4 C3 1_555 1_555
O5 C1 1_555 1_555
C1 C2 1_555 1_555
O6 C7 1_555 1_555
C2 C4 1_555 1_555
C3 C8 1_555 1_555
C4 N1 1_555 1_555
H1 C4 1_555 1_555
C5 N1 1_555 1_555
C6 C5 1_555 1_555
H2 C6 1_555 1_555
H3 C6 1_555 1_555
C7 C2 1_555 1_555
C8 C6 1_555 1_555
H4 C8 1_555 1_555
H5 C8 1_555 1_555
C9 C2 1_555 1_555
H6 C9 1_555 1_555
H7 C9 1_555 1_555
C10 O1 1_555 1_555
H8 C10 1_555 1_555
H9 C10 1_555 1_555
H10 C10 1_555 1_555
C11 O2 1_555 1_555
H11 C11 1_555 1_555
H12 C11 1_555 1_555
H13 C11 1_555 1_555
C4 C9 1_555 1_555

#END
