
#######################################################################
#
#                 Cambridge Crystallographic Data Centre
#                                CCDC 
#
#######################################################################
#
# If this CIF has been generated from an entry in the Cambridge 
# Structural Database, then it will include bibliographic, chemical, 
# crystal, experimental, refinement or atomic coordinate data resulting 
# from the CCDC's data processing and validation procedures.
#
#######################################################################

data_VIJMUX
_chemical_name_common            
'(3beta,5alpha,22alpha,25R)-3-hydroxyspirosolan-12-one monohydrate'
_chemical_formula_moiety         'C27 H43 N1 O3,H2 O1'
_chemical_name_systematic        '12-Oxosoladulcidine monohydrate'
_chemical_properties_biological  'potent antitumour acitivity'
_symmetry_cell_setting           orthorhombic
_symmetry_space_group_name_H-M   'P 21 21 21'
_symmetry_Int_Tables_number      19
_space_group_name_Hall           'P 2ac 2ab'
loop_
_symmetry_equiv_pos_site_id
_symmetry_equiv_pos_as_xyz
1 x,y,z
2 1/2-x,-y,1/2+z
3 -x,1/2+y,1/2-z
4 1/2+x,1/2-y,-z
_cell_length_a                   7.8670(16)
_cell_length_b                   9.5530(19)
_cell_length_c                   32.949(7)
_cell_angle_alpha                90
_cell_angle_beta                 90
_cell_angle_gamma                90
_cell_volume                     2476.23
_exptl_crystal_colour            colorless
_chemical_melting_point          '214-216 deg.C'
_cell_formula_units_Z            4
loop_
_atom_site_label
_atom_site_type_symbol
_atom_site_fract_x
_atom_site_fract_y
_atom_site_fract_z
O1 O 0.4023(9) 0.9149(7) 1.23341(19)
H43 H 0.401(11) 0.990(8) 1.248(2)
H44 H 0.329(8) 0.951(8) 1.2157(18)
O2 O 0.4870(6) 0.4279(6) 0.88461(14)
O3 O 1.0017(7) 0.5487(9) 0.97872(17)
O4 O 0.6061(7) 0.6781(6) 1.22438(14)
H1 H 0.5212 0.7235 1.2303
N1 N 0.6450(8) 0.5356(7) 0.83031(19)
C1 C 0.3179(11) 0.4309(12) 0.7506(3)
H2 H 0.3291 0.5118 0.7335
H3 H 0.2179 0.4400 0.7671
H4 H 0.3085 0.3486 0.7341
C2 C 0.4933(11) 0.5487(8) 0.8041(2)
H5 H 0.5044 0.6304 0.7868
H6 H 0.3925 0.5604 0.8207
C3 C 0.4763(10) 0.4184(9) 0.7783(2)
H7 H 0.5775 0.4102 0.7611
C4 C 0.4665(11) 0.2908(9) 0.8054(2)
H8 H 0.4647 0.2069 0.7888
H9 H 0.3621 0.2936 0.8210
C5 C 0.6177(11) 0.2855(8) 0.8341(2)
H10 H 0.6047 0.2067 0.8524
H11 H 0.7208 0.2710 0.8185
C6 C 0.6346(10) 0.4189(8) 0.8587(2)
C7 C 0.9563(9) 0.4673(9) 0.8719(2)
H12 H 1.0401 0.4646 0.8930
H13 H 0.9476 0.5609 0.8615
H14 H 0.9892 0.4050 0.8504
C8 C 0.7842(9) 0.4218(8) 0.8889(2)
H15 H 0.7978 0.3267 0.8996
C9 C 0.7181(9) 0.5150(8) 0.9241(2)
H16 H 0.7741 0.6065 0.9229
C10 C 0.5260(9) 0.5326(8) 0.9142(2)
H17 H 0.5051 0.6259 0.9029
C11 C 0.4274(9) 0.5145(9) 0.9535(2)
H18 H 0.3805 0.4209 0.9557
H19 H 0.3359 0.5823 0.9556
C12 C 0.5636(8) 0.5404(8) 0.9859(2)
H20 H 0.5912 0.6403 0.9845
C13 C 0.7201(9) 0.4616(7) 0.9680(2)
C14 C 0.6996(12) 0.3015(8) 0.9708(2)
H21 H 0.7979 0.2569 0.9593
H22 H 0.6002 0.2733 0.9560
H23 H 0.6881 0.2746 0.9987
C15 C 0.8715(10) 0.5034(9) 0.9925(2)
C16 C 0.8491(9) 0.4895(10) 1.0383(2)
H24 H 0.8530 0.3909 1.0453
H25 H 0.9446 0.5347 1.0515
C17 C 0.6874(8) 0.5507(8) 1.0551(2)
H26 H 0.6991 0.6521 1.0514
C18 C 0.5285(9) 0.5099(8) 1.0300(2)
H27 H 0.5097 0.4090 1.0331
C19 C 0.3692(9) 0.5870(9) 1.0451(2)
H28 H 0.3794 0.6857 1.0387
H29 H 0.2704 0.5509 1.0309
C20 C 0.3432(9) 0.5703(9) 1.0905(2)
H30 H 0.3172 0.4734 1.0967
H31 H 0.2477 0.6273 1.0991
C21 C 0.5022(9) 0.6147(8) 1.1134(2)
H32 H 0.5253 0.7114 1.1052
C22 C 0.6598(9) 0.5298(8) 1.1015(2)
C23 C 0.6408(11) 0.3722(8) 1.1114(2)
H33 H 0.6219 0.3606 1.1400
H34 H 0.7426 0.3237 1.1037
H35 H 0.5460 0.3345 1.0966
C24 C 0.8127(9) 0.5869(9) 1.1251(2)
H36 H 0.8382 0.6804 1.1154
H37 H 0.9107 0.5284 1.1196
C25 C 0.7848(10) 0.5929(9) 1.1713(2)
H38 H 0.7716 0.4987 1.1818
H39 H 0.8833 0.6347 1.1842
C26 C 0.6276(10) 0.6784(8) 1.1811(2)
H40 H 0.6450 0.7748 1.1719
C27 C 0.4741(10) 0.6183(8) 1.1600(2)
H41 H 0.3751 0.6749 1.1662
H42 H 0.4533 0.5241 1.1699
H45 H 0.665(10) 0.614(8) 0.846(2)
loop_
_geom_bond_atom_site_label_1
_geom_bond_atom_site_label_2
_geom_bond_site_symmetry_1
_geom_bond_site_symmetry_2
O1 H43 1_555 1_555
O2 C6 1_555 1_555
O3 C15 1_555 1_555
O4 H1 1_555 1_555
N1 C2 1_555 1_555
C1 H2 1_555 1_555
H3 C1 1_555 1_555
H4 C1 1_555 1_555
C2 H5 1_555 1_555
H6 C2 1_555 1_555
C3 C1 1_555 1_555
H7 C3 1_555 1_555
C4 C3 1_555 1_555
H8 C4 1_555 1_555
H9 C4 1_555 1_555
C5 C4 1_555 1_555
H10 C5 1_555 1_555
H11 C5 1_555 1_555
C6 N1 1_555 1_555
C7 H12 1_555 1_555
H13 C7 1_555 1_555
H14 C7 1_555 1_555
C8 C6 1_555 1_555
H15 C8 1_555 1_555
C9 C8 1_555 1_555
H16 C9 1_555 1_555
C10 O2 1_555 1_555
H17 C10 1_555 1_555
C11 C10 1_555 1_555
H18 C11 1_555 1_555
H19 C11 1_555 1_555
C12 C11 1_555 1_555
H20 C12 1_555 1_555
C13 C9 1_555 1_555
C14 C13 1_555 1_555
H21 C14 1_555 1_555
H22 C14 1_555 1_555
H23 C14 1_555 1_555
C15 C13 1_555 1_555
C16 C15 1_555 1_555
H24 C16 1_555 1_555
H25 C16 1_555 1_555
C17 C16 1_555 1_555
H26 C17 1_555 1_555
C18 C12 1_555 1_555
H27 C18 1_555 1_555
C19 C18 1_555 1_555
H28 C19 1_555 1_555
H29 C19 1_555 1_555
C20 C19 1_555 1_555
H30 C20 1_555 1_555
H31 C20 1_555 1_555
C21 C20 1_555 1_555
H32 C21 1_555 1_555
C22 C17 1_555 1_555
C23 C22 1_555 1_555
H33 C23 1_555 1_555
H34 C23 1_555 1_555
H35 C23 1_555 1_555
C24 C22 1_555 1_555
H36 C24 1_555 1_555
H37 C24 1_555 1_555
C25 C24 1_555 1_555
H38 C25 1_555 1_555
H39 C25 1_555 1_555
C26 O4 1_555 1_555
H40 C26 1_555 1_555
C27 C21 1_555 1_555
H41 C27 1_555 1_555
H42 C27 1_555 1_555
H44 O1 1_555 1_555
H45 N1 1_555 1_555
C2 C3 1_555 1_555
C5 C6 1_555 1_555
C7 C8 1_555 1_555
C9 C10 1_555 1_555
C12 C13 1_555 1_555
C17 C18 1_555 1_555
C21 C22 1_555 1_555
C25 C26 1_555 1_555
C26 C27 1_555 1_555

#END
