
#######################################################################
#
#                 Cambridge Crystallographic Data Centre
#                                CCDC 
#
#######################################################################
#
# If this CIF has been generated from an entry in the Cambridge 
# Structural Database, then it will include bibliographic, chemical, 
# crystal, experimental, refinement or atomic coordinate data resulting 
# from the CCDC's data processing and validation procedures.
#
#######################################################################

data_VIJSAL
_chemical_formula_moiety         'C21 H21 N1 O7'
_chemical_name_systematic        
'dimethyl [2-(2,5-dioxopyrrolidin-1-yl)-2-(2-hydroxynaphthalen-1-yl)ethyl]propanedioate'
_symmetry_cell_setting           orthorhombic
_symmetry_space_group_name_H-M   'P 21 21 21'
_symmetry_Int_Tables_number      19
_space_group_name_Hall           'P 2ac 2ab'
loop_
_symmetry_equiv_pos_site_id
_symmetry_equiv_pos_as_xyz
1 x,y,z
2 1/2-x,-y,1/2+z
3 -x,1/2+y,1/2-z
4 1/2+x,1/2-y,-z
_cell_length_a                   7.85730(10)
_cell_length_b                   15.3356(2)
_cell_length_c                   15.51040(10)
_cell_angle_alpha                90
_cell_angle_beta                 90
_cell_angle_gamma                90
_cell_volume                     1868.95
_exptl_crystal_colour            colorless
_exptl_crystal_description       block
_cell_formula_units_Z            4
loop_
_atom_site_label
_atom_site_type_symbol
_atom_site_fract_x
_atom_site_fract_y
_atom_site_fract_z
O1 O 0.5717(2) 0.55806(10) 0.15405(9)
O2 O 0.79852(19) 0.47257(10) 0.17994(10)
O3 O 0.6809(2) 0.27846(10) 0.45381(9)
H1 H 0.718334 0.258768 0.499156
O4 O 0.6379(2) 0.56365(10) 0.42973(9)
O5 O 0.3290(2) 0.27803(12) 0.39696(10)
O6 O 0.7178(2) 0.64051(10) 0.31390(10)
O7 O 0.4127(2) 0.36715(12) 0.12116(10)
N1 N 0.4097(2) 0.32345(11) 0.26297(10)
C1 C 0.6678(3) 0.50744(13) 0.20307(13)
C2 C 0.6574(3) 0.57548(14) 0.34504(14)
C3 C 0.2924(3) 0.29615(13) 0.32341(14)
C4 C 0.6372(3) 0.41019(13) 0.33543(13)
H2 H 0.757498 0.409350 0.349487
H3 H 0.574078 0.405009 0.388931
C5 C 0.6801(3) 0.24538(13) 0.30378(13)
C6 C 0.7297(3) 0.18604(14) 0.23636(14)
C7 C 0.7226(3) 0.22409(14) 0.38777(14)
C8 C 0.3346(3) 0.34173(14) 0.18344(13)
C9 C 0.5961(2) 0.33138(13) 0.27791(12)
H4 H 0.644495 0.345721 0.221422
C10 C 0.5937(3) 0.49798(13) 0.29293(13)
H5 H 0.469557 0.502347 0.288520
C11 C 0.8210(3) 0.10843(14) 0.25684(15)
C12 C 0.6957(3) 0.20156(15) 0.14738(14)
H6 H 0.636027 0.251382 0.131395
C13 C 0.8124(3) 0.14656(14) 0.40743(14)
H7 H 0.839249 0.133853 0.464458
C14 C 0.8739(3) 0.05096(16) 0.19058(16)
H8 H 0.933561 0.000613 0.204856
C15 C 0.1462(3) 0.32555(16) 0.19066(16)
H9 H 0.110004 0.281541 0.149647
H10 H 0.082743 0.378730 0.180003
C16 C 0.7492(3) 0.14444(17) 0.08478(15)
H11 H 0.725565 0.156494 0.027250
C17 C 0.1191(3) 0.29412(16) 0.28278(15)
H12 H 0.041351 0.332392 0.313267
H13 H 0.073034 0.235430 0.283320
C18 C 0.8599(3) 0.09040(15) 0.34390(16)
H14 H 0.918591 0.039689 0.357960
C19 C 0.6316(3) 0.57081(17) 0.06717(14)
H15 H 0.624679 0.516757 0.036138
H16 H 0.747660 0.590328 0.068433
H17 H 0.562357 0.613823 0.039034
C20 C 0.8387(3) 0.06829(17) 0.10595(17)
H18 H 0.873790 0.030034 0.062949
C21 C 0.6903(4) 0.63622(16) 0.48306(15)
H19 H 0.627661 0.687402 0.466848
H20 H 0.809824 0.646573 0.475231
H21 H 0.668254 0.622859 0.542481
loop_
_geom_bond_atom_site_label_1
_geom_bond_atom_site_label_2
_geom_bond_site_symmetry_1
_geom_bond_site_symmetry_2
O1 C1 1_555 1_555
O2 C1 1_555 1_555
O3 H1 1_555 1_555
O4 C2 1_555 1_555
O5 C3 1_555 1_555
O6 C2 1_555 1_555
O7 C8 1_555 1_555
N1 C3 1_555 1_555
C1 C10 1_555 1_555
C2 C10 1_555 1_555
C3 C17 1_555 1_555
C4 H2 1_555 1_555
H3 C4 1_555 1_555
C5 C6 1_555 1_555
C6 C11 1_555 1_555
C7 O3 1_555 1_555
C8 N1 1_555 1_555
C9 N1 1_555 1_555
H4 C9 1_555 1_555
C10 C4 1_555 1_555
H5 C10 1_555 1_555
C11 C14 1_555 1_555
C12 C6 1_555 1_555
H6 C12 1_555 1_555
C13 C7 1_555 1_555
H7 C13 1_555 1_555
C14 H8 1_555 1_555
C15 C8 1_555 1_555
H9 C15 1_555 1_555
H10 C15 1_555 1_555
C16 C12 1_555 1_555
H11 C16 1_555 1_555
C17 C15 1_555 1_555
H12 C17 1_555 1_555
H13 C17 1_555 1_555
C18 C11 1_555 1_555
H14 C18 1_555 1_555
C19 O1 1_555 1_555
H15 C19 1_555 1_555
H16 C19 1_555 1_555
H17 C19 1_555 1_555
C20 C14 1_555 1_555
H18 C20 1_555 1_555
C21 O4 1_555 1_555
H19 C21 1_555 1_555
H20 C21 1_555 1_555
H21 C21 1_555 1_555
C4 C9 1_555 1_555
C5 C7 1_555 1_555
C5 C9 1_555 1_555
C13 C18 1_555 1_555
C16 C20 1_555 1_555

#END
