
#######################################################################
#
#                 Cambridge Crystallographic Data Centre
#                                CCDC 
#
#######################################################################
#
# If this CIF has been generated from an entry in the Cambridge 
# Structural Database, then it will include bibliographic, chemical, 
# crystal, experimental, refinement or atomic coordinate data resulting 
# from the CCDC's data processing and validation procedures.
#
#######################################################################

data_VIJTIU
_chemical_formula_moiety         'C11 H13 N3 O3'
_chemical_name_systematic        
2-(hydroxyimino)-4-[(4-methylphenyl)(nitroso)amino]butanal
_symmetry_cell_setting           monoclinic
_symmetry_space_group_name_H-M   'P 21/c'
_symmetry_Int_Tables_number      14
_space_group_name_Hall           '-P 2ybc'
loop_
_symmetry_equiv_pos_site_id
_symmetry_equiv_pos_as_xyz
1 x,y,z
2 -x,1/2+y,1/2-z
3 -x,-y,-z
4 x,1/2-y,1/2+z
_cell_length_a                   5.8179(10)
_cell_length_b                   11.3981(19)
_cell_length_c                   17.623(3)
_cell_angle_alpha                90
_cell_angle_beta                 92.653(6)
_cell_angle_gamma                90
_cell_volume                     1167.38
_cell_formula_units_Z            4
loop_
_atom_site_label
_atom_site_type_symbol
_atom_site_fract_x
_atom_site_fract_y
_atom_site_fract_z
N1 N 0.2864(2) 0.78639(11) 0.08767(7)
N2 N 0.3852(3) 1.12363(12) 0.23965(8)
C1 C 0.4957(3) 1.05351(14) 0.19768(9)
O1 O 0.2046(2) 1.07001(11) 0.27292(8)
H1 H 0.1248 1.1197 0.2926
O2 O 0.0320(2) 0.75030(12) 0.16927(7)
O3 O 0.7917(2) 1.06504(12) 0.11109(8)
C2 C 0.6306(3) 0.79985(15) 0.01401(9)
H2 H 0.6784 0.8646 0.0427
N3 N 0.1535(3) 0.70935(13) 0.11882(8)
C3 C 0.4261(3) 0.74401(14) 0.02877(9)
C4 C 0.3553(3) 0.64861(14) -0.01465(9)
H3 H 0.2169 0.6114 -0.0057
C5 C 0.4915(3) 0.60895(15) -0.07142(10)
H4 H 0.4436 0.5441 -0.1000
C6 C 0.4485(3) 0.92616(14) 0.18331(9)
H5 H 0.3758 0.8925 0.2267
H6 H 0.5926 0.8852 0.1771
C7 C 0.7634(3) 0.75933(15) -0.04335(9)
H7 H 0.9003 0.7976 -0.0529
C8 C 0.6971(3) 0.66280(15) -0.08702(9)
C9 C 0.2925(3) 0.90962(14) 0.11239(9)
H8 H 0.1379 0.9350 0.1228
H9 H 0.3473 0.9582 0.0718
C10 C 0.6816(3) 1.11153(16) 0.15906(11)
H10 H 0.7170 1.1887 0.1722
C11 C 0.8429(3) 0.61874(19) -0.14940(10)
H11 H 0.7916 0.5420 -0.1649
H12 H 1.0008 0.6148 -0.1311
H13 H 0.8295 0.6713 -0.1919
loop_
_geom_bond_atom_site_label_1
_geom_bond_atom_site_label_2
_geom_bond_site_symmetry_1
_geom_bond_site_symmetry_2
N1 N3 1_555 1_555
N2 C1 1_555 1_555
C1 C6 1_555 1_555
O1 N2 1_555 1_555
H1 O1 1_555 1_555
O2 N3 1_555 1_555
O3 C10 1_555 1_555
C2 H2 1_555 1_555
C3 N1 1_555 1_555
C4 C3 1_555 1_555
H3 C4 1_555 1_555
C5 C4 1_555 1_555
H4 C5 1_555 1_555
C6 H5 1_555 1_555
H6 C6 1_555 1_555
C7 C2 1_555 1_555
H7 C7 1_555 1_555
C8 C5 1_555 1_555
C9 N1 1_555 1_555
H8 C9 1_555 1_555
H9 C9 1_555 1_555
C10 C1 1_555 1_555
H10 C10 1_555 1_555
C11 C8 1_555 1_555
H11 C11 1_555 1_555
H12 C11 1_555 1_555
H13 C11 1_555 1_555
C2 C3 1_555 1_555
C6 C9 1_555 1_555
C7 C8 1_555 1_555

#END
