
#######################################################################
#
#                 Cambridge Crystallographic Data Centre
#                                CCDC 
#
#######################################################################
#
# If this CIF has been generated from an entry in the Cambridge 
# Structural Database, then it will include bibliographic, chemical, 
# crystal, experimental, refinement or atomic coordinate data resulting 
# from the CCDC's data processing and validation procedures.
#
#######################################################################

data_VIJVEP
_chemical_formula_moiety         'C22 H16 N6,C2 Cl4,C2 H6 O1 S1'
_chemical_name_systematic        
'9,10-bis(2-Aminopyrimidin-5-yl)anthracene perchloroethene dimethylsulfoxide clathrate'
_symmetry_cell_setting           monoclinic
_symmetry_space_group_name_H-M   'P 21/c'
_symmetry_Int_Tables_number      14
_space_group_name_Hall           '-P 2ybc'
loop_
_symmetry_equiv_pos_site_id
_symmetry_equiv_pos_as_xyz
1 x,y,z
2 x,1/2-y,1/2+z
3 -x,-y,-z
4 -x,1/2+y,1/2-z
_cell_length_a                   15.332(1)
_cell_length_b                   14.316(1)
_cell_length_c                   13.8987(7)
_cell_angle_alpha                90
_cell_angle_beta                 106.294(4)
_cell_angle_gamma                90
_cell_volume                     2928.14
_exptl_crystal_colour            colorless
_exptl_crystal_description       prism
_cell_formula_units_Z            4
loop_
_atom_site_label
_atom_site_type_symbol
_atom_site_fract_x
_atom_site_fract_y
_atom_site_fract_z
C1 C 1.4864(5) 0.4145(7) 0.9431(5)
C2 C 1.4737(7) 0.3290(7) 0.8909(6)
C3 C 1.4850(8) 0.2465(7) 0.9405(8)
C4 C 1.5094(8) 0.2452(7) 1.0474(7)
C5 C 1.5224(6) 0.3247(7) 1.1001(6)
C6 C 1.5128(5) 0.4151(7) 1.0521(6)
C7 C 1.4740(5) 0.5016(6) 0.8941(6)
C8 C 1.4464(5) 0.5059(6) 0.7819(5)
C9 C 1.3577(6) 0.5176(8) 0.7276(6)
N1 N 1.3294(4) 0.5237(6) 0.6270(5)
C10 C 1.3941(5) 0.5171(6) 0.5794(6)
N2 N 1.4841(4) 0.5032(6) 0.6256(5)
C11 C 1.5072(5) 0.4971(7) 0.7255(6)
N3 N 1.3701(5) 0.5249(6) 0.4789(5)
H1 H 1.4570 0.3293 0.8197
H2 H 1.4766 0.1895 0.9041
H3 H 1.5166 0.1870 1.0816
H4 H 1.5385 0.3216 1.1712
H5 H 1.3132 0.5217 0.7632
H6 H 1.5692 0.4861 0.7599
C6B C 1.4872(5) 0.5849(7) 0.9479(6)
C1B C 1.5136(5) 0.5855(7) 1.0569(5)
C2B C 1.5263(7) 0.6710(7) 1.1091(6)
C3B C 1.5150(8) 0.7535(7) 1.0595(8)
C4B C 1.4906(8) 0.7548(7) 0.9526(7)
C5B C 1.4776(6) 0.6753(7) 0.8999(6)
H4B H 1.4615 0.6784 0.8288
H3B H 1.4834 0.8130 0.9184
H2B H 1.5234 0.8105 1.0959
H1B H 1.5430 0.6707 1.1803
C7B C 1.5260(5) 0.4984(6) 1.1059(6)
C8B C 1.5536(5) 0.4941(6) 1.2181(5)
C9B C 1.6423(6) 0.4824(8) 1.2724(6)
N1B N 1.6706(4) 0.4763(6) 1.3730(5)
C10B C 1.6059(5) 0.4829(6) 1.4206(6)
N2B N 1.5159(4) 0.4968(6) 1.3744(5)
C11B C 1.4928(5) 0.5029(7) 1.2745(6)
H6B H 1.4308 0.5139 1.2401
N3B N 1.6299(5) 0.4751(6) 1.5211(5)
H5B H 1.6868 0.4783 1.2368
C12 C 1.0000(6) 0.4114(7) 0.9510(6)
C13 C 1.0020(7) 0.3223(7) 0.9074(7)
C14 C 1.0227(8) 0.2430(8) 0.9632(8)
C15 C 1.0439(8) 0.2517(8) 1.0686(8)
C16 C 1.0448(7) 0.3333(7) 1.1142(7)
C17 C 1.0238(6) 0.4198(7) 1.0597(6)
C18 C 0.9766(5) 0.4942(7) 0.8947(5)
C19 C 0.9477(6) 0.4892(7) 0.7828(6)
C20 C 0.8591(6) 0.4755(8) 0.7276(6)
N4 N 0.8322(5) 0.4729(6) 0.6280(5)
C21 C 0.8965(6) 0.4815(7) 0.5805(6)
N5 N 0.9861(5) 0.4947(6) 0.6274(5)
C22 C 1.0089(6) 0.4973(8) 0.7266(6)
N6 N 0.8717(5) 0.4790(6) 0.4800(5)
H7 H 0.9884 0.3176 0.8365
H8 H 1.0229 0.1838 0.9324
H9 H 1.0582 0.1969 1.1084
H10 H 1.0597 0.3347 1.1853
H11 H 0.8146 0.4675 0.7625
H12 H 1.0713 0.5053 0.7614
C17B C 0.9762(6) 0.5802(7) 0.9403(6)
C12B C 1.0000(6) 0.5886(7) 1.0490(6)
C13B C 0.9980(7) 0.6777(7) 1.0926(7)
C14B C 0.9773(8) 0.7570(8) 1.0368(8)
C15B C 0.9561(8) 0.7483(8) 0.9314(8)
C16B C 0.9552(7) 0.6667(7) 0.8858(7)
H10B H 0.9403 0.6653 0.8147
H9B H 0.9418 0.8031 0.8916
H8B H 0.9771 0.8162 1.0676
H7B H 1.0116 0.6824 1.1635
C18B C 1.0234(5) 0.5058(7) 1.1053(5)
C19B C 1.0523(6) 0.5108(7) 1.2172(6)
C20B C 1.1409(6) 0.5245(8) 1.2724(6)
N4B N 1.1678(5) 0.5271(6) 1.3720(5)
C21B C 1.1035(6) 0.5185(7) 1.4195(6)
N5B N 1.0139(5) 0.5053(6) 1.3726(5)
C22B C 0.9911(6) 0.5027(8) 1.2734(6)
H12B H 0.9287 0.4947 1.2386
N6B N 1.1283(5) 0.5210(6) 1.5200(5)
H11B H 1.1854 0.5325 1.2375
C23 C 1.249(1) 0.350(3) 0.954(1)
C24 C 1.2679(9) 0.314(2) 1.031(1)
Cl1 Cl 1.2205(3) 0.3452(5) 0.8414(3)
Cl2 Cl 1.2571(3) 0.4725(4) 1.0064(6)
Cl3 Cl 1.2980(4) 0.3203(8) 1.1523(4)
Cl4 Cl 1.2612(4) 0.1831(4) 0.9874(8)
S1 S 1.3092(3) 0.7231(3) 1.1675(3)
O1 O 1.3090(7) 0.6207(7) 1.1945(8)
C25 C 1.252(1) 0.732(1) 1.038(1)
C26 C 1.224(1) 0.775(1) 1.216(1)
H13 H 1.2511 0.7958 1.0176
H14 H 1.2838 0.6962 1.0005
H15 H 1.1920 0.7097 1.0253
H16 H 1.2203 0.8400 1.2013
H17 H 1.1668 0.7466 1.1853
H18 H 1.2393 0.7660 1.2862
loop_
_geom_bond_atom_site_label_1
_geom_bond_atom_site_label_2
_geom_bond_site_symmetry_1
_geom_bond_site_symmetry_2
C1 C2 1_555 1_555
C2 C3 1_555 1_555
C3 C4 1_555 1_555
C4 C5 1_555 1_555
C5 C6 1_555 1_555
C6 C1 1_555 1_555
C7 C1 1_555 1_555
C8 C7 1_555 1_555
C9 C8 1_555 1_555
N1 C9 1_555 1_555
C10 N1 1_555 1_555
N2 C10 1_555 1_555
C11 C8 1_555 1_555
N3 C10 1_555 1_555
C12 C13 1_555 1_555
C13 C14 1_555 1_555
C14 C15 1_555 1_555
C15 C16 1_555 1_555
C16 C17 1_555 1_555
C17 C12 1_555 1_555
C18 C12 1_555 1_555
C19 C18 1_555 1_555
C20 C19 1_555 1_555
N4 C20 1_555 1_555
C21 N4 1_555 1_555
N5 C21 1_555 1_555
C22 C19 1_555 1_555
N6 C21 1_555 1_555
C23 C24 1_555 1_555
C24 Cl3 1_555 1_555
Cl1 C23 1_555 1_555
Cl2 C23 1_555 1_555
Cl4 C24 1_555 1_555
S1 O1 1_555 1_555
C25 S1 1_555 1_555
C26 S1 1_555 1_555
H1 C2 1_555 1_555
H2 C3 1_555 1_555
H3 C4 1_555 1_555
H4 C5 1_555 1_555
H5 C9 1_555 1_555
H6 C11 1_555 1_555
H7 C13 1_555 1_555
H8 C14 1_555 1_555
H9 C15 1_555 1_555
H10 C16 1_555 1_555
H11 C20 1_555 1_555
H12 C22 1_555 1_555
H13 C25 1_555 1_555
H14 C25 1_555 1_555
H15 C25 1_555 1_555
H16 C26 1_555 1_555
H17 C26 1_555 1_555
H18 C26 1_555 1_555
C6B C7 1_555 1_555
C1B C6B 1_555 1_555
C2B C1B 1_555 1_555
C3B C2B 1_555 1_555
C4B C3B 1_555 1_555
C5B C6B 1_555 1_555
H4B C5B 1_555 1_555
H3B C4B 1_555 1_555
H2B C3B 1_555 1_555
H1B C2B 1_555 1_555
C7B C6 1_555 1_555
C8B C7B 1_555 1_555
C9B C8B 1_555 1_555
N1B C9B 1_555 1_555
C10B N1B 1_555 1_555
N2B C10B 1_555 1_555
C11B C8B 1_555 1_555
H6B C11B 1_555 1_555
N3B C10B 1_555 1_555
H5B C9B 1_555 1_555
C17B C18 1_555 1_555
C12B C17B 1_555 1_555
C13B C12B 1_555 1_555
C14B C13B 1_555 1_555
C15B C14B 1_555 1_555
C16B C17B 1_555 1_555
H10B C16B 1_555 1_555
H9B C15B 1_555 1_555
H8B C14B 1_555 1_555
H7B C13B 1_555 1_555
C18B C17 1_555 1_555
C19B C18B 1_555 1_555
C20B C19B 1_555 1_555
N4B C20B 1_555 1_555
C21B N4B 1_555 1_555
N5B C21B 1_555 1_555
C22B C19B 1_555 1_555
H12B C22B 1_555 1_555
N6B C21B 1_555 1_555
H11B C20B 1_555 1_555
N2 C11 1_555 1_555
N5 C22 1_555 1_555
C1B C7B 1_555 1_555
C4B C5B 1_555 1_555
N2B C11B 1_555 1_555
C12B C18B 1_555 1_555
C15B C16B 1_555 1_555
N5B C22B 1_555 1_555

#END
