
#######################################################################
#
#                 Cambridge Crystallographic Data Centre
#                                CCDC 
#
#######################################################################
#
# If this CIF has been generated from an entry in the Cambridge 
# Structural Database, then it will include bibliographic, chemical, 
# crystal, experimental, refinement or atomic coordinate data resulting 
# from the CCDC's data processing and validation procedures.
#
#######################################################################

data_VIJYOC
_chemical_formula_moiety         'C17 H15 N1 O3'
_chemical_name_systematic        
'1-Methyl-3-indolmethylidene(isopropylidene)succinic anhydride'
_symmetry_cell_setting           triclinic
_symmetry_space_group_name_H-M   'P -1'
_symmetry_Int_Tables_number      2
_space_group_name_Hall           '-P 1'
loop_
_symmetry_equiv_pos_site_id
_symmetry_equiv_pos_as_xyz
1 x,y,z
2 -x,-y,-z
_cell_length_a                   7.308(2)
_cell_length_b                   8.845(3)
_cell_length_c                   11.323(3)
_cell_angle_alpha                100.03(2)
_cell_angle_beta                 104.81(2)
_cell_angle_gamma                97.20(2)
_cell_volume                     685.601
_cell_formula_units_Z            2
loop_
_atom_site_label
_atom_site_type_symbol
_atom_site_fract_x
_atom_site_fract_y
_atom_site_fract_z
C1 C 0.3010(3) 0.3909(3) 0.5637(2)
C2 C 0.4160(4) 0.4257(3) 0.6860(2)
C3 C 0.4648(4) 0.3017(3) 0.7389(2)
C4 C 0.3996(4) 0.1475(3) 0.6716(2)
C5 C 0.2829(4) 0.1144(3) 0.5497(2)
C6 C 0.2321(3) 0.2368(3) 0.4936(2)
C7 C 0.1204(3) 0.2462(3) 0.3702(2)
C8 C 0.0287(3) 0.1089(3) 0.2757(2)
C9 C -0.0909(3) 0.0805(2) 0.1582(2)
C10 C -0.1721(4) 0.1984(3) 0.0967(2)
C11 C -0.3050(3) -0.0347(3) -0.0400(2)
C12 C -0.1755(3) -0.0704(3) 0.0706(2)
C13 C -0.1498(3) -0.2173(3) 0.0779(2)
C14 C -0.2631(4) -0.3574(3) -0.0210(2)
C15 C -0.0071(4) -0.2559(3) 0.1841(2)
C16 C 0.1292(4) 0.4012(3) 0.3727(2)
C17 C 0.2772(4) 0.6610(3) 0.5307(3)
O1 O -0.1495(3) 0.3374(2) 0.1296(2)
O2 O -0.4064(3) -0.1141(2) -0.1370(2)
N1 N 0.2350(3) 0.4900(2) 0.4867(2)
O3 O -0.2959(2) 0.1264(2) -0.0201(2)
loop_
_geom_bond_atom_site_label_1
_geom_bond_atom_site_label_2
_geom_bond_site_symmetry_1
_geom_bond_site_symmetry_2
C1 C2 1_555 1_555
C2 C3 1_555 1_555
C3 C4 1_555 1_555
C4 C5 1_555 1_555
C5 C6 1_555 1_555
C6 C1 1_555 1_555
C7 C6 1_555 1_555
C8 C7 1_555 1_555
C9 C8 1_555 1_555
C10 C9 1_555 1_555
C11 C12 1_555 1_555
C12 C9 1_555 1_555
C13 C12 1_555 1_555
C14 C13 1_555 1_555
C15 C13 1_555 1_555
C16 C7 1_555 1_555
C17 N1 1_555 1_555
O1 C10 1_555 1_555
O2 C11 1_555 1_555
N1 C1 1_555 1_555
O3 C10 1_555 1_555
C11 O3 1_555 1_555
C16 N1 1_555 1_555

#END
