
#######################################################################
#
#                 Cambridge Crystallographic Data Centre
#                                CCDC 
#
#######################################################################
#
# If this CIF has been generated from an entry in the Cambridge 
# Structural Database, then it will include bibliographic, chemical, 
# crystal, experimental, refinement or atomic coordinate data resulting 
# from the CCDC's data processing and validation procedures.
#
#######################################################################

data_VIKCOK
_chemical_formula_moiety         'C6 H16 N1 1+,C15 H24 B12 N1 O1 1-,C4 H8 O1'
_chemical_name_systematic        
'triethylammonium 1,2-benzamido-3-(2-phenylethyl)-closo-dodecaborate(9) tetrahydrofuran solvate'
_symmetry_cell_setting           triclinic
_symmetry_space_group_name_H-M   'P -1'
_symmetry_Int_Tables_number      2
_space_group_name_Hall           '-P 1'
loop_
_symmetry_equiv_pos_site_id
_symmetry_equiv_pos_as_xyz
1 x,y,z
2 -x,-y,-z
_cell_length_a                   11.5728(9)
_cell_length_b                   12.1340(6)
_cell_length_c                   12.5359(9)
_cell_angle_alpha                78.510(5)
_cell_angle_beta                 69.758(7)
_cell_angle_gamma                87.769(5)
_cell_volume                     1617.67
_exptl_crystal_colour            yellow
_exptl_crystal_description       block
_cell_formula_units_Z            2
loop_
_atom_site_label
_atom_site_type_symbol
_atom_site_fract_x
_atom_site_fract_y
_atom_site_fract_z
O1 O 0.88970(15) 0.92310(11) 0.35770(12)
N1 N 0.95936(17) 1.00197(14) 0.16924(15)
H1 H 0.9865 1.0565 0.1106
C1 C 0.9317(2) 1.01291(17) 0.27656(19)
C2 C 0.9442(2) 1.11867(17) 0.31208(19)
C3 C 0.9813(2) 1.21819(18) 0.2319(2)
H2 H 0.9981 1.2189 0.1537
C4 C 0.9936(2) 1.31618(19) 0.2671(2)
H3 H 1.0179 1.3830 0.2127
C5 C 0.9700(3) 1.3153(2) 0.3824(2)
H4 H 0.9789 1.3815 0.4060
C6 C 0.9334(3) 1.2174(2) 0.4629(2)
H5 H 0.9176 1.2173 0.5409
C7 C 0.9197(2) 1.1185(2) 0.4289(2)
H6 H 0.8943 1.0522 0.4838
C8 C 0.6745(2) 0.92946(19) 0.2455(2)
H7 H 0.6806 0.9709 0.3021
H8 H 0.6899 0.9826 0.1728
C9 C 0.5471(3) 0.8822(3) 0.2845(5)
H9 H 0.5290 0.8358 0.3613
H10 H 0.5442 0.8333 0.2330
C10 C 0.4471(3) 0.9657(2) 0.2893(4)
C11 C 0.4082(3) 1.0273(3) 0.3746(3)
H11 H 0.4431 1.0146 0.4323
C12 C 0.3206(4) 1.1066(3) 0.3795(4)
H12 H 0.2992 1.1492 0.4370
C13 C 0.2664(3) 1.1214(3) 0.3001(5)
H13 H 0.2046 1.1735 0.3045
C14 C 0.2973(5) 1.0650(4) 0.2156(6)
H14 H 0.2577 1.0772 0.1614
C15 C 0.3914(5) 0.9853(4) 0.2077(5)
H15 H 0.4153 0.9465 0.1470
B1 B 0.8850(2) 0.8239(2) 0.3048(2)
B2 B 0.9383(2) 0.88215(19) 0.1593(2)
B3 B 0.7800(2) 0.8387(2) 0.2274(2)
B4 B 0.7756(3) 0.7151(2) 0.3334(2)
H16 H 0.6969 0.6945 0.4150
B5 B 0.9309(3) 0.6835(2) 0.3281(2)
H17 H 0.9510 0.6426 0.4060
B6 B 1.0321(3) 0.7874(2) 0.2181(2)
H18 H 1.1185 0.8133 0.2256
B7 B 1.0221(3) 0.7822(2) 0.0806(2)
H19 H 1.1010 0.8051 -0.0005
B8 B 0.8669(2) 0.8130(2) 0.0867(2)
H20 H 0.8467 0.8553 0.0093
B9 B 0.7672(3) 0.7060(2) 0.1955(2)
H21 H 0.6818 0.6775 0.1878
B10 B 0.8577(3) 0.6114(2) 0.2565(2)
H22 H 0.8305 0.5217 0.2887
B11 B 1.0152(3) 0.6566(2) 0.1859(2)
H23 H 1.0901 0.5965 0.1722
B12 B 0.9148(3) 0.6713(2) 0.1049(2)
H24 H 0.9251 0.6209 0.0385
N2 N 0.6159(2) 1.3452(2) 0.1622(2)
H25 H 0.5584 1.3833 0.2103
C16 C 0.5504(4) 1.2984(3) 0.0966(4)
H26 H 0.4836 1.2484 0.1514
H27 H 0.5143 1.3598 0.0576
C17 C 0.6281(4) 1.2368(4) 0.0107(4)
H28 H 0.6910 1.2868 -0.0475
H29 H 0.5787 1.2064 -0.0250
H30 H 0.6657 1.1766 0.0479
C18 C 0.6545(4) 1.2527(3) 0.2398(3)
H31 H 0.6043 1.1857 0.2536
H32 H 0.7395 1.2359 0.2003
C19 C 0.6441(4) 1.2791(4) 0.3503(4)
H33 H 0.6924 1.3461 0.3375
H34 H 0.6736 1.2178 0.3943
H35 H 0.5593 1.2909 0.3923
C20 C 0.7186(3) 1.4291(3) 0.0912(3)
H36 H 0.7499 1.4584 0.1429
H37 H 0.7852 1.3911 0.0422
C21 C 0.6808(4) 1.5252(3) 0.0167(3)
H38 H 0.6619 1.4984 -0.0426
H39 H 0.7469 1.5807 -0.0186
H40 H 0.6093 1.5582 0.0635
O2 O 0.5772(2) 0.5374(2) 0.7106(3)
C22 C 0.5602(4) 0.4600(5) 0.6455(7)
H41 H 0.4907 0.4090 0.6920
H42 H 0.5444 0.4998 0.5770
C23 C 0.6701(5) 0.3992(5) 0.6132(6)
H43 H 0.6929 0.3914 0.5330
H44 H 0.6583 0.3246 0.6618
C24 C 0.7637(4) 0.4609(4) 0.6277(4)
H45 H 0.8281 0.4868 0.5536
H46 H 0.8000 0.4140 0.6793
C25 C 0.7047(3) 0.5569(3) 0.6776(3)
H47 H 0.7267 0.5624 0.7443
H48 H 0.7304 0.6263 0.6207
loop_
_geom_bond_atom_site_label_1
_geom_bond_atom_site_label_2
_geom_bond_site_symmetry_1
_geom_bond_site_symmetry_2
O1 C1 1_555 1_555
N1 H1 1_555 1_555
C1 N1 1_555 1_555
C2 C1 1_555 1_555
C3 C2 1_555 1_555
H2 C3 1_555 1_555
C4 C3 1_555 1_555
H3 C4 1_555 1_555
C5 C4 1_555 1_555
H4 C5 1_555 1_555
C6 C5 1_555 1_555
H5 C6 1_555 1_555
C7 C2 1_555 1_555
H6 C7 1_555 1_555
C8 H7 1_555 1_555
H8 C8 1_555 1_555
C9 C8 1_555 1_555
H9 C9 1_555 1_555
H10 C9 1_555 1_555
C10 C9 1_555 1_555
C11 C10 1_555 1_555
H11 C11 1_555 1_555
C12 C11 1_555 1_555
H12 C12 1_555 1_555
C13 C12 1_555 1_555
H13 C13 1_555 1_555
C14 C13 1_555 1_555
H14 C14 1_555 1_555
C15 C10 1_555 1_555
H15 C15 1_555 1_555
B1 O1 1_555 1_555
B2 N1 1_555 1_555
B3 C8 1_555 1_555
B4 B1 1_555 1_555
H16 B4 1_555 1_555
B5 B1 1_555 1_555
H17 B5 1_555 1_555
B6 B1 1_555 1_555
H18 B6 1_555 1_555
B7 B2 1_555 1_555
H19 B7 1_555 1_555
B8 B2 1_555 1_555
H20 B8 1_555 1_555
B9 B3 1_555 1_555
H21 B9 1_555 1_555
B10 B4 1_555 1_555
H22 B10 1_555 1_555
B11 B5 1_555 1_555
H23 B11 1_555 1_555
B12 B7 1_555 1_555
H24 B12 1_555 1_555
N2 H25 1_555 1_555
C16 N2 1_555 1_555
H26 C16 1_555 1_555
H27 C16 1_555 1_555
C17 C16 1_555 1_555
H28 C17 1_555 1_555
H29 C17 1_555 1_555
H30 C17 1_555 1_555
C18 N2 1_555 1_555
H31 C18 1_555 1_555
H32 C18 1_555 1_555
C19 C18 1_555 1_555
H33 C19 1_555 1_555
H34 C19 1_555 1_555
H35 C19 1_555 1_555
C20 N2 1_555 1_555
H36 C20 1_555 1_555
H37 C20 1_555 1_555
C21 C20 1_555 1_555
H38 C21 1_555 1_555
H39 C21 1_555 1_555
H40 C21 1_555 1_555
O2 C22 1_555 1_555
C22 H41 1_555 1_555
H42 C22 1_555 1_555
C23 C22 1_555 1_555
H43 C23 1_555 1_555
H44 C23 1_555 1_555
C24 C23 1_555 1_555
H45 C24 1_555 1_555
H46 C24 1_555 1_555
C25 O2 1_555 1_555
H47 C25 1_555 1_555
H48 C25 1_555 1_555
C6 C7 1_555 1_555
C14 C15 1_555 1_555
B1 B2 1_555 1_555
B1 B3 1_555 1_555
B2 B3 1_555 1_555
B2 B6 1_555 1_555
B3 B4 1_555 1_555
B3 B8 1_555 1_555
B4 B5 1_555 1_555
B4 B9 1_555 1_555
B5 B6 1_555 1_555
B5 B10 1_555 1_555
B6 B7 1_555 1_555
B6 B11 1_555 1_555
B7 B8 1_555 1_555
B7 B11 1_555 1_555
B8 B9 1_555 1_555
B8 B12 1_555 1_555
B9 B10 1_555 1_555
B9 B12 1_555 1_555
B10 B11 1_555 1_555
B10 B12 1_555 1_555
B11 B12 1_555 1_555
C24 C25 1_555 1_555

#END
