
#######################################################################
#
#                 Cambridge Crystallographic Data Centre
#                                CCDC 
#
#######################################################################
#
# If this CIF has been generated from an entry in the Cambridge 
# Structural Database, then it will include bibliographic, chemical, 
# crystal, experimental, refinement or atomic coordinate data resulting 
# from the CCDC's data processing and validation procedures.
#
#######################################################################

data_VIKCIE
_chemical_formula_moiety         'C6 H16 N1 1+,C27 H38 B12 N1 O1 1-,C4 H8 O1'
_chemical_name_systematic        
'triethylammonium 1,2-benzamido-3-(1,2-bis(4-isopropylphenyl)ethenyl)-closo-dodecaborate(9) tetrahydrofuran solvate'
_symmetry_cell_setting           monoclinic
_symmetry_space_group_name_H-M   'C c'
_symmetry_Int_Tables_number      9
_space_group_name_Hall           'C -2yc'
loop_
_symmetry_equiv_pos_site_id
_symmetry_equiv_pos_as_xyz
1 x,y,z
2 x,-y,1/2+z
3 1/2+x,1/2+y,z
4 1/2+x,1/2-y,1/2+z
_cell_length_a                   11.4936(8)
_cell_length_b                   18.8083(14)
_cell_length_c                   19.7417(14)
_cell_angle_alpha                90
_cell_angle_beta                 104.611(7)
_cell_angle_gamma                90
_cell_volume                     4129.65
_exptl_crystal_colour            colorless
_exptl_crystal_description       block
_cell_formula_units_Z            4
loop_
_atom_site_label
_atom_site_type_symbol
_atom_site_fract_x
_atom_site_fract_y
_atom_site_fract_z
O1 O 0.5388(2) 0.37391(13) 0.64698(14)
N1 N 0.4261(3) 0.27542(16) 0.64320(16)
H1 H 0.414379 0.230876 0.648768
C1 C 0.5321(4) 0.30441(19) 0.65415(19)
C2 C 0.6469(4) 0.2645(2) 0.6716(2)
C3 C 0.6472(4) 0.1925(2) 0.6860(2)
H2 H 0.576159 0.169661 0.687616
C4 C 0.7545(4) 0.1543(2) 0.6980(2)
H3 H 0.755013 0.105815 0.707248
C5 C 0.8587(4) 0.1880(2) 0.6961(2)
H4 H 0.930044 0.162286 0.704296
C6 C 0.8595(4) 0.2605(2) 0.6819(2)
H5 H 0.930668 0.283267 0.680655
C7 C 0.7528(4) 0.2981(2) 0.6697(2)
H6 H 0.752364 0.346482 0.660150
C8 C 0.4139(3) 0.33172(19) 0.4921(2)
C9 C 0.3747(3) 0.2605(2) 0.4596(2)
C10 C 0.4299(4) 0.1993(2) 0.4891(2)
H7 H 0.496088 0.202695 0.527413
C11 C 0.3904(4) 0.1323(2) 0.4637(2)
H8 H 0.429359 0.091962 0.485656
C12 C 0.2938(4) 0.1250(2) 0.4061(2)
C13 C 0.2388(4) 0.1864(2) 0.3749(2)
H9 H 0.175068 0.182892 0.335295
C14 C 0.2769(4) 0.2535(2) 0.4017(2)
H10 H 0.236705 0.293906 0.380732
C15 C 0.2470(4) 0.0514(2) 0.3804(3)
H11 H 0.309946 0.016915 0.400837
C16 C 0.1379(6) 0.0334(3) 0.4063(4)
H12 H 0.157880 0.036369 0.456500
H13 H 0.111842 -0.014005 0.392034
H14 H 0.074397 0.066349 0.386986
C17 C 0.2159(8) 0.0419(4) 0.3025(3)
H15 H 0.152604 0.074266 0.281175
H16 H 0.189660 -0.006017 0.291061
H17 H 0.285492 0.051519 0.285481
C18 C 0.5169(3) 0.3614(2) 0.4869(2)
H18 H 0.539005 0.401650 0.514553
C19 C 0.6021(3) 0.34175(19) 0.4449(2)
C20 C 0.5660(3) 0.3199(2) 0.3757(2)
H19 H 0.485278 0.310070 0.355829
C21 C 0.6490(3) 0.3126(2) 0.3353(2)
H20 H 0.622344 0.298941 0.288675
C22 C 0.7710(3) 0.3253(2) 0.3634(2)
C23 C 0.8075(4) 0.3442(2) 0.4331(2)
H21 H 0.888830 0.351518 0.453669
C24 C 0.7251(4) 0.3526(2) 0.4729(2)
H22 H 0.752340 0.365789 0.519632
C25 C 0.8589(4) 0.3188(2) 0.3180(2)
H23 H 0.812881 0.317630 0.268935
C26 C 0.9310(7) 0.2511(3) 0.3333(4)
H24 H 0.971613 0.249347 0.382107
H25 H 0.989230 0.249918 0.305910
H26 H 0.878195 0.210977 0.321486
C27 C 0.9451(6) 0.3804(3) 0.3272(4)
H27 H 0.900767 0.423943 0.316846
H28 H 0.996529 0.374933 0.296053
H29 H 0.993110 0.381460 0.374692
B1 B 0.4148(4) 0.4038(2) 0.6219(2)
B2 B 0.3257(4) 0.3291(2) 0.6196(2)
B3 B 0.3354(4) 0.3688(2) 0.5385(2)
B4 B 0.3465(4) 0.4622(2) 0.5544(3)
H30 H 0.397561 0.496699 0.527318
B5 B 0.3420(4) 0.4794(2) 0.6435(3)
H31 H 0.389990 0.524753 0.673102
B6 B 0.3285(4) 0.3960(2) 0.6835(2)
H32 H 0.368611 0.387612 0.739728
B7 B 0.1903(4) 0.3540(3) 0.6401(3)
H33 H 0.141175 0.318933 0.667929
B8 B 0.1946(4) 0.3367(3) 0.5508(2)
H34 H 0.148560 0.290625 0.521544
B9 B 0.2059(4) 0.4210(2) 0.5110(3)
H35 H 0.164650 0.429860 0.454973
B10 B 0.2091(4) 0.4896(3) 0.5743(3)
H36 H 0.170436 0.542536 0.559202
B11 B 0.1992(4) 0.4482(3) 0.6538(3)
H37 H 0.154335 0.474292 0.690253
B12 B 0.1154(4) 0.4122(3) 0.5720(3)
H38 H 0.016640 0.415056 0.555537
O2 O 0.3495(3) 0.13042(16) 0.64112(18)
C28 C 0.3852(5) 0.0576(3) 0.6403(3)
H39 H 0.432525 0.043571 0.686329
H40 H 0.433655 0.051014 0.607071
C29 C 0.2750(9) 0.0143(3) 0.6200(4)
H41 H 0.278042 -0.024731 0.652477
H42 H 0.265099 -0.004992 0.573282
C30 C 0.1740(7) 0.0638(4) 0.6220(4)
H43 H 0.102199 0.052286 0.585795
H44 H 0.155343 0.062581 0.667222
C31 C 0.2232(5) 0.1342(3) 0.6090(3)
H45 H 0.208801 0.143110 0.559157
H46 H 0.186261 0.172003 0.629760
N2 N 0.2223(3) 0.57601(18) 0.41537(19)
H47 H 0.237721 0.541646 0.453920
C32 C 0.3146(5) 0.5622(3) 0.3749(3)
H48 H 0.299343 0.593697 0.334710
H49 H 0.393574 0.573577 0.404293
C33 C 0.3158(5) 0.4870(2) 0.3498(2)
H50 H 0.237943 0.475064 0.320727
H51 H 0.335400 0.455511 0.389301
H52 H 0.374856 0.482316 0.323266
C34 C 0.2361(5) 0.6492(2) 0.4485(3)
H53 H 0.235092 0.684388 0.412435
H54 H 0.167704 0.658347 0.467641
C35 C 0.3490(5) 0.6581(3) 0.5054(3)
H55 H 0.417282 0.654885 0.485821
H56 H 0.353667 0.621347 0.539728
H57 H 0.348480 0.703704 0.527099
C36 C 0.0962(4) 0.5634(3) 0.3734(3)
H58 H 0.042992 0.565624 0.404464
H59 H 0.090915 0.515747 0.354045
C37 C 0.0526(6) 0.6152(3) 0.3146(3)
H60 H -0.021491 0.598323 0.284613
H61 H 0.111746 0.619713 0.288173
H62 H 0.039528 0.660709 0.333469
loop_
_geom_bond_atom_site_label_1
_geom_bond_atom_site_label_2
_geom_bond_site_symmetry_1
_geom_bond_site_symmetry_2
O1 C1 1_555 1_555
N1 H1 1_555 1_555
C1 N1 1_555 1_555
C2 C1 1_555 1_555
C3 C2 1_555 1_555
H2 C3 1_555 1_555
C4 C3 1_555 1_555
H3 C4 1_555 1_555
C5 C4 1_555 1_555
H4 C5 1_555 1_555
C6 C5 1_555 1_555
H5 C6 1_555 1_555
C7 C2 1_555 1_555
H6 C7 1_555 1_555
C8 C9 1_555 1_555
C9 C10 1_555 1_555
C10 H7 1_555 1_555
C11 C10 1_555 1_555
H8 C11 1_555 1_555
C12 C11 1_555 1_555
C13 C12 1_555 1_555
H9 C13 1_555 1_555
C14 C9 1_555 1_555
H10 C14 1_555 1_555
C15 C12 1_555 1_555
H11 C15 1_555 1_555
C16 C15 1_555 1_555
H12 C16 1_555 1_555
H13 C16 1_555 1_555
H14 C16 1_555 1_555
C17 C15 1_555 1_555
H15 C17 1_555 1_555
H16 C17 1_555 1_555
H17 C17 1_555 1_555
C18 C8 1_555 1_555
H18 C18 1_555 1_555
C19 C18 1_555 1_555
C20 C19 1_555 1_555
H19 C20 1_555 1_555
C21 C20 1_555 1_555
H20 C21 1_555 1_555
C22 C21 1_555 1_555
C23 C22 1_555 1_555
H21 C23 1_555 1_555
C24 C19 1_555 1_555
H22 C24 1_555 1_555
C25 C22 1_555 1_555
H23 C25 1_555 1_555
C26 C25 1_555 1_555
H24 C26 1_555 1_555
H25 C26 1_555 1_555
H26 C26 1_555 1_555
C27 C25 1_555 1_555
H27 C27 1_555 1_555
H28 C27 1_555 1_555
H29 C27 1_555 1_555
B1 O1 1_555 1_555
B2 N1 1_555 1_555
B3 C8 1_555 1_555
B4 B1 1_555 1_555
H30 B4 1_555 1_555
B5 B1 1_555 1_555
H31 B5 1_555 1_555
B6 B1 1_555 1_555
H32 B6 1_555 1_555
B7 B2 1_555 1_555
H33 B7 1_555 1_555
B8 B2 1_555 1_555
H34 B8 1_555 1_555
B9 B3 1_555 1_555
H35 B9 1_555 1_555
B10 B4 1_555 1_555
H36 B10 1_555 1_555
B11 B5 1_555 1_555
H37 B11 1_555 1_555
B12 B7 1_555 1_555
H38 B12 1_555 1_555
O2 C28 1_555 1_555
C28 H39 1_555 1_555
H40 C28 1_555 1_555
C29 C28 1_555 1_555
H41 C29 1_555 1_555
H42 C29 1_555 1_555
C30 C29 1_555 1_555
H43 C30 1_555 1_555
H44 C30 1_555 1_555
C31 O2 1_555 1_555
H45 C31 1_555 1_555
H46 C31 1_555 1_555
N2 H47 1_555 1_555
C32 N2 1_555 1_555
H48 C32 1_555 1_555
H49 C32 1_555 1_555
C33 C32 1_555 1_555
H50 C33 1_555 1_555
H51 C33 1_555 1_555
H52 C33 1_555 1_555
C34 N2 1_555 1_555
H53 C34 1_555 1_555
H54 C34 1_555 1_555
C35 C34 1_555 1_555
H55 C35 1_555 1_555
H56 C35 1_555 1_555
H57 C35 1_555 1_555
C36 N2 1_555 1_555
H58 C36 1_555 1_555
H59 C36 1_555 1_555
C37 C36 1_555 1_555
H60 C37 1_555 1_555
H61 C37 1_555 1_555
H62 C37 1_555 1_555
C6 C7 1_555 1_555
C13 C14 1_555 1_555
C23 C24 1_555 1_555
B1 B2 1_555 1_555
B1 B3 1_555 1_555
B2 B3 1_555 1_555
B2 B6 1_555 1_555
B3 B4 1_555 1_555
B3 B8 1_555 1_555
B4 B5 1_555 1_555
B4 B9 1_555 1_555
B5 B6 1_555 1_555
B5 B10 1_555 1_555
B6 B7 1_555 1_555
B6 B11 1_555 1_555
B7 B8 1_555 1_555
B7 B11 1_555 1_555
B8 B9 1_555 1_555
B8 B12 1_555 1_555
B9 B10 1_555 1_555
B9 B12 1_555 1_555
B10 B11 1_555 1_555
B10 B12 1_555 1_555
B11 B12 1_555 1_555
C30 C31 1_555 1_555

#END
