
#######################################################################
#
#                 Cambridge Crystallographic Data Centre
#                                CCDC 
#
#######################################################################
#
# If this CIF has been generated from an entry in the Cambridge 
# Structural Database, then it will include bibliographic, chemical, 
# crystal, experimental, refinement or atomic coordinate data resulting 
# from the CCDC's data processing and validation procedures.
#
#######################################################################

data_VIKCEA
_chemical_formula_moiety         
'C6 H16 N1 1+,C19 H24 B12 N1 O1 S1 1-,0.5(C3 H6 O1),0.5(H2 O1)'
_chemical_name_systematic        
'triethylammonium 1,2-(thiophene-2-carboxamido)-3-(1,2-diphenylethenyl)-closo-dodecaborate(9) acetone solvate hemihydrate'
_symmetry_cell_setting           triclinic
_symmetry_space_group_name_H-M   'P -1'
_symmetry_Int_Tables_number      2
_space_group_name_Hall           '-P 1'
loop_
_symmetry_equiv_pos_site_id
_symmetry_equiv_pos_as_xyz
1 x,y,z
2 -x,-y,-z
_cell_length_a                   10.312(6)
_cell_length_b                   12.633(9)
_cell_length_c                   26.930(18)
_cell_angle_alpha                100.45(2)
_cell_angle_beta                 90.669(18)
_cell_angle_gamma                108.112(17)
_cell_volume                     3270.37
_exptl_crystal_colour            colorless
_exptl_crystal_description       block
_cell_formula_units_Z            4
loop_
_atom_site_label
_atom_site_type_symbol
_atom_site_fract_x
_atom_site_fract_y
_atom_site_fract_z
S1 S 0.71684(8) 1.08572(7) 0.83586(3)
O1 O 0.77030(19) 0.89342(16) 0.86749(7)
N1 N 0.8948(2) 0.9796(2) 0.94125(9)
H1 H 0.933624 1.037311 0.966060
C1 C 0.7286(3) 1.2249(3) 0.85403(12)
H2 H 0.692520 1.264864 0.833821
C2 C 0.7949(3) 1.2726(3) 0.90029(12)
H3 H 0.809721 1.349386 0.916101
C3 C 0.8395(3) 1.1955(2) 0.92247(12)
H4 H 0.887922 1.214365 0.954741
C4 C 0.8042(3) 1.0897(2) 0.89161(11)
C5 C 0.8258(3) 0.9868(2) 0.90136(11)
C6 C 1.0910(3) 0.9082(2) 0.86086(11)
C7 C 1.0561(3) 0.9453(2) 0.82024(11)
H5 H 0.962632 0.912691 0.808122
C8 C 1.1393(3) 1.0280(2) 0.79173(11)
C9 C 1.2813(3) 1.0537(3) 0.78859(12)
H6 H 1.330077 1.018408 0.806711
C10 C 1.3508(3) 1.1299(3) 0.75937(12)
H7 H 1.446701 1.145627 0.757452
C11 C 1.2823(3) 1.1836(3) 0.73278(12)
H8 H 1.331256 1.236799 0.713367
C12 C 1.1426(3) 1.1588(3) 0.73487(12)
H9 H 1.094659 1.194000 0.716340
C13 C 1.0723(3) 1.0826(3) 0.76400(11)
H10 H 0.976231 1.066773 0.765283
C14 C 1.2316(3) 0.9582(2) 0.88736(11)
C15 C 1.3171(3) 0.8927(3) 0.88950(12)
H11 H 1.288547 0.815718 0.872293
C16 C 1.4439(3) 0.9388(3) 0.91654(13)
H12 H 1.502067 0.893581 0.917243
C17 C 1.4859(3) 1.0506(3) 0.94253(12)
H13 H 1.571976 1.081642 0.961474
C18 C 1.4022(3) 1.1161(3) 0.94070(12)
H14 H 1.430837 1.192820 0.958277
C19 C 1.2758(3) 1.0707(3) 0.91326(11)
H15 H 1.218854 1.116759 0.912137
B1 B 0.8043(3) 0.7963(3) 0.88286(13)
B2 B 0.8999(3) 0.8583(3) 0.93962(13)
B3 B 0.9846(3) 0.8148(3) 0.88549(13)
B4 B 0.9992(4) 0.6816(3) 0.89086(13)
H16 H 1.085988 0.653644 0.875184
B5 B 1.0242(3) 0.7909(3) 0.94672(13)
H17 H 1.126745 0.836367 0.967570
B6 B 0.7333(3) 0.7607(3) 0.93921(13)
H18 H 0.645373 0.786566 0.955132
B7 B 0.7086(4) 0.6547(3) 0.88347(14)
H19 H 0.605461 0.611091 0.862840
B8 B 0.8701(3) 0.7574(3) 0.97977(13)
H20 H 0.872670 0.781003 1.021996
B9 B 0.7522(3) 0.6290(3) 0.94417(13)
H21 H 0.677464 0.566881 0.963289
B10 B 0.8317(4) 0.5837(3) 0.88912(13)
H22 H 0.808713 0.491570 0.872009
B11 B 0.8628(3) 0.6876(3) 0.84997(13)
H23 H 0.859653 0.665624 0.807674
B12 B 0.9303(3) 0.6475(3) 0.94859(13)
H24 H 0.972588 0.597294 0.970845
O2 O 0.0058(2) 0.18195(18) 0.51631(8)
N2 N -0.1015(2) 0.3135(2) 0.53584(9)
H25 H -0.169243 0.341630 0.534410
C20 C -0.1062(3) 0.2122(3) 0.51297(11)
C21 C -0.0858(3) 0.1015(3) 0.61667(11)
H26 H -0.018285 0.081825 0.596721
C22 C -0.1986(3) 0.0036(3) 0.62763(12)
C23 C -0.2362(3) -0.0982(3) 0.59205(13)
H27 H -0.187440 -0.103425 0.562481
C24 C -0.3432(4) -0.1915(3) 0.59910(15)
H28 H -0.368643 -0.259245 0.574088
C25 C -0.4121(4) -0.1860(3) 0.64199(17)
H29 H -0.486250 -0.249617 0.646661
C26 C -0.3737(4) -0.0873(3) 0.67877(16)
H30 H -0.420280 -0.084225 0.708967
C27 C -0.2675(4) 0.0070(3) 0.67165(13)
H31 H -0.241845 0.074094 0.697025
C28 C -0.0648(3) 0.2139(3) 0.63077(11)
C29 C -0.1640(3) 0.2581(2) 0.66058(11)
C30 C -0.2979(3) 0.2357(3) 0.64057(12)
H32 H -0.325797 0.192378 0.607306
C31 C -0.3902(3) 0.2760(3) 0.66883(13)
H33 H -0.481056 0.259801 0.655047
C32 C -0.3499(3) 0.3398(3) 0.71710(14)
H34 H -0.413883 0.365491 0.736834
C33 C -0.2166(3) 0.3663(3) 0.73675(13)
H35 H -0.188202 0.412075 0.769522
C34 C -0.1251(3) 0.3259(3) 0.70849(12)
H36 H -0.033507 0.344753 0.722080
B13 B 0.0362(4) 0.3776(3) 0.56542(13)
B14 B 0.1139(4) 0.2747(3) 0.55090(14)
B15 B 0.0633(3) 0.3035(3) 0.61362(13)
B16 B 0.1762(4) 0.3999(3) 0.52667(15)
H37 H 0.165720 0.402220 0.485481
B17 B 0.2918(4) 0.3368(4) 0.54944(15)
H38 H 0.355916 0.297452 0.523699
B18 B 0.2222(4) 0.2782(3) 0.60311(14)
H39 H 0.241263 0.200964 0.612107
B19 B 0.0920(4) 0.4525(3) 0.62718(14)
B20 B 0.2109(4) 0.3929(3) 0.65124(14)
H40 H 0.224238 0.392112 0.692485
B21 B 0.3514(4) 0.4138(3) 0.61228(15)
H41 H 0.457372 0.426444 0.628012
B22 B 0.3225(4) 0.4876(4) 0.56529(15)
H42 H 0.409447 0.548538 0.550194
B23 B 0.1606(4) 0.5133(3) 0.57378(15)
H43 H 0.139543 0.589211 0.564045
B24 B 0.2703(4) 0.5209(3) 0.62714(15)
H44 H 0.322404 0.604446 0.652832
S2 S -0.22384(12) -0.01065(11) 0.46781(5)
C35 C -0.2193(5) 0.1264(5) 0.4849(3)
C36 C -0.4373(7) 0.0389(4) 0.4415(5)
H45 H -0.523707 0.030938 0.425820
C37 C -0.3872(7) -0.0474(6) 0.4403(4)
H46 H -0.438147 -0.123407 0.425311
C38 C -0.3513(6) 0.1389(7) 0.4675(4)
H47 H -0.372177 0.208028 0.473767
H48 H 0.042(2) 0.481(2) 0.6484(8)
O3 O 0.3528(2) 0.6125(2) 0.82727(9)
C43 C 0.4929(4) 0.7496(3) 0.78386(14)
H52 H 0.454083 0.801653 0.805462
H53 H 0.472799 0.749833 0.748225
H54 H 0.592185 0.774373 0.791381
C44 C 0.4314(3) 0.6325(3) 0.79379(12)
C45 C 0.4737(4) 0.5415(3) 0.76236(13)
H55 H 0.571749 0.555947 0.769394
H56 H 0.455032 0.540288 0.726461
H57 H 0.422175 0.468012 0.770449
O4 O -0.3359(3) 0.3949(3) 0.54307(12)
H58 H -0.352(7) 0.435(3) 0.5206(14)
H59 H -0.416(2) 0.392(5) 0.5563(17)
N3 N 0.2742(2) 0.4471(2) 0.89291(9)
H60 H 0.316045 0.497169 0.868658
C46 C 0.2161(3) 0.5145(3) 0.93344(12)
H61 H 0.187098 0.470452 0.960548
H62 H 0.133805 0.525294 0.918695
C47 C 0.3163(3) 0.6293(3) 0.95647(13)
H63 H 0.356539 0.668735 0.929422
H64 H 0.388930 0.619326 0.977114
H65 H 0.268493 0.674439 0.977799
C48 C 0.3856(3) 0.4124(3) 0.91554(12)
H66 H 0.451105 0.480359 0.937113
H67 H 0.344192 0.357965 0.937594
C49 C 0.4627(3) 0.3591(3) 0.87706(13)
H68 H 0.491983 0.407066 0.851821
H69 H 0.403212 0.283820 0.860272
H70 H 0.543160 0.351742 0.894009
C50 C 0.1626(3) 0.3458(3) 0.86385(12)
H71 H 0.103597 0.306538 0.888065
H72 H 0.204451 0.291901 0.844508
C51 C 0.0752(3) 0.3786(3) 0.82759(13)
H73 H 0.133133 0.417900 0.803628
H74 H 0.029956 0.429114 0.846710
H75 H 0.005861 0.310141 0.808976
N4 N 0.0266(3) 0.7048(3) 0.66197(13)
C52 C 0.0383(6) 0.7244(4) 0.71667(17)
H76 H 0.028454 0.799773 0.729687
H77 H -0.039581 0.667036 0.727688
C53 C 0.1621(6) 0.7209(6) 0.7403(2)
H78 H 0.157937 0.735295 0.777175
H79 H 0.172207 0.645816 0.728954
H80 H 0.240499 0.779055 0.730960
C54 C 0.1287(6) 0.7886(4) 0.63753(18)
H81 H 0.220544 0.783410 0.644944
H82 H 0.108104 0.766087 0.600400
C55 C 0.1345(5) 0.9066(4) 0.65278(17)
H83 H 0.210646 0.954950 0.637445
H84 H 0.148367 0.928953 0.689737
H85 H 0.048503 0.915432 0.641425
C56 C -0.1148(5) 0.6913(4) 0.6400(2)
H86 H -0.136861 0.761736 0.653014
H87 H -0.112658 0.683301 0.602779
C57 C -0.2232(5) 0.5961(4) 0.6510(3)
H88 H -0.309968 0.592972 0.634592
H89 H -0.230140 0.605163 0.687707
H90 H -0.202965 0.525665 0.638224
H91 H 0.047(3) 0.6427(15) 0.6501(13)
S3? S -0.3625(7) 0.1689(4) 0.4660(3)
C39? C -0.2531(16) 0.0198(12) 0.4702(7)
H49? H -0.182442 -0.006958 0.480465
C40? C -0.3761(19) -0.0557(17) 0.4406(13)
H50? H -0.400261 -0.134206 0.425988
C41? C -0.449(2) 0.0212(7) 0.4400(16)
H51? H -0.540730 -0.003952 0.426320
C42? C -0.244(2) 0.1344(12) 0.4829(11)
loop_
_geom_bond_atom_site_label_1
_geom_bond_atom_site_label_2
_geom_bond_site_symmetry_1
_geom_bond_site_symmetry_2
S1 C1 1_555 1_555
O1 C5 1_555 1_555
N1 H1 1_555 1_555
C1 H2 1_555 1_555
C2 C1 1_555 1_555
H3 C2 1_555 1_555
C3 C2 1_555 1_555
H4 C3 1_555 1_555
C4 S1 1_555 1_555
C5 N1 1_555 1_555
C6 C7 1_555 1_555
C7 H5 1_555 1_555
C8 C7 1_555 1_555
C9 C8 1_555 1_555
H6 C9 1_555 1_555
C10 C9 1_555 1_555
H7 C10 1_555 1_555
C11 C10 1_555 1_555
H8 C11 1_555 1_555
C12 C11 1_555 1_555
H9 C12 1_555 1_555
C13 C8 1_555 1_555
H10 C13 1_555 1_555
C14 C6 1_555 1_555
C15 C14 1_555 1_555
H11 C15 1_555 1_555
C16 C15 1_555 1_555
H12 C16 1_555 1_555
C17 C16 1_555 1_555
H13 C17 1_555 1_555
C18 C17 1_555 1_555
H14 C18 1_555 1_555
C19 C14 1_555 1_555
H15 C19 1_555 1_555
B1 O1 1_555 1_555
B2 N1 1_555 1_555
B3 C6 1_555 1_555
B4 B3 1_555 1_555
H16 B4 1_555 1_555
B5 B2 1_555 1_555
H17 B5 1_555 1_555
B6 B1 1_555 1_555
H18 B6 1_555 1_555
B7 B1 1_555 1_555
H19 B7 1_555 1_555
B8 B2 1_555 1_555
H20 B8 1_555 1_555
B9 B6 1_555 1_555
H21 B9 1_555 1_555
B10 B4 1_555 1_555
H22 B10 1_555 1_555
B11 B1 1_555 1_555
H23 B11 1_555 1_555
B12 B4 1_555 1_555
H24 B12 1_555 1_555
O2 C20 1_555 1_555
N2 H25 1_555 1_555
C20 N2 1_555 1_555
C21 H26 1_555 1_555
C22 C21 1_555 1_555
C23 C22 1_555 1_555
H27 C23 1_555 1_555
C24 C23 1_555 1_555
H28 C24 1_555 1_555
C25 C24 1_555 1_555
H29 C25 1_555 1_555
C26 C25 1_555 1_555
H30 C26 1_555 1_555
C27 C22 1_555 1_555
H31 C27 1_555 1_555
C28 C21 1_555 1_555
C29 C28 1_555 1_555
C30 C29 1_555 1_555
H32 C30 1_555 1_555
C31 C30 1_555 1_555
H33 C31 1_555 1_555
C32 C31 1_555 1_555
H34 C32 1_555 1_555
C33 C32 1_555 1_555
H35 C33 1_555 1_555
C34 C29 1_555 1_555
H36 C34 1_555 1_555
B13 N2 1_555 1_555
B14 O2 1_555 1_555
B15 C28 1_555 1_555
B16 B13 1_555 1_555
H37 B16 1_555 1_555
B17 B14 1_555 1_555
H38 B17 1_555 1_555
B18 B14 1_555 1_555
H39 B18 1_555 1_555
B19 B13 1_555 1_555
B20 B15 1_555 1_555
H40 B20 1_555 1_555
B21 B17 1_555 1_555
H41 B21 1_555 1_555
B22 B16 1_555 1_555
H42 B22 1_555 1_555
B23 B13 1_555 1_555
H43 B23 1_555 1_555
B24 B19 1_555 1_555
H44 B24 1_555 1_555
S2 C35 1_555 1_555
C35 C20 1_555 1_555
C36 H45 1_555 1_555
C37 S2 1_555 1_555
H46 C37 1_555 1_555
C38 C35 1_555 1_555
H47 C38 1_555 1_555
H48 B19 1_555 1_555
O3 C44 1_555 1_555
C43 H52 1_555 1_555
H53 C43 1_555 1_555
H54 C43 1_555 1_555
C44 C43 1_555 1_555
C45 C44 1_555 1_555
H55 C45 1_555 1_555
H56 C45 1_555 1_555
H57 C45 1_555 1_555
O4 H58 1_555 1_555
H59 O4 1_555 1_555
N3 H60 1_555 1_555
C46 N3 1_555 1_555
H61 C46 1_555 1_555
H62 C46 1_555 1_555
C47 C46 1_555 1_555
H63 C47 1_555 1_555
H64 C47 1_555 1_555
H65 C47 1_555 1_555
C48 N3 1_555 1_555
H66 C48 1_555 1_555
H67 C48 1_555 1_555
C49 C48 1_555 1_555
H68 C49 1_555 1_555
H69 C49 1_555 1_555
H70 C49 1_555 1_555
C50 N3 1_555 1_555
H71 C50 1_555 1_555
H72 C50 1_555 1_555
C51 C50 1_555 1_555
H73 C51 1_555 1_555
H74 C51 1_555 1_555
H75 C51 1_555 1_555
N4 C52 1_555 1_555
C52 H76 1_555 1_555
H77 C52 1_555 1_555
C53 C52 1_555 1_555
H78 C53 1_555 1_555
H79 C53 1_555 1_555
H80 C53 1_555 1_555
C54 N4 1_555 1_555
H81 C54 1_555 1_555
H82 C54 1_555 1_555
C55 C54 1_555 1_555
H83 C55 1_555 1_555
H84 C55 1_555 1_555
H85 C55 1_555 1_555
C56 N4 1_555 1_555
H86 C56 1_555 1_555
H87 C56 1_555 1_555
C57 C56 1_555 1_555
H88 C57 1_555 1_555
H89 C57 1_555 1_555
H90 C57 1_555 1_555
H91 N4 1_555 1_555
C3 C4 1_555 1_555
C4 C5 1_555 1_555
C12 C13 1_555 1_555
C18 C19 1_555 1_555
B1 B2 1_555 1_555
B1 B3 1_555 1_555
B2 B3 1_555 1_555
B2 B6 1_555 1_555
B3 B5 1_555 1_555
B3 B11 1_555 1_555
B4 B5 1_555 1_555
B4 B11 1_555 1_555
B5 B8 1_555 1_555
B5 B12 1_555 1_555
B6 B7 1_555 1_555
B6 B8 1_555 1_555
B7 B9 1_555 1_555
B7 B10 1_555 1_555
B7 B11 1_555 1_555
B8 B9 1_555 1_555
B8 B12 1_555 1_555
B9 B10 1_555 1_555
B9 B12 1_555 1_555
B10 B11 1_555 1_555
B10 B12 1_555 1_555
C26 C27 1_555 1_555
C33 C34 1_555 1_555
B13 B14 1_555 1_555
B13 B15 1_555 1_555
B14 B15 1_555 1_555
B14 B16 1_555 1_555
B15 B18 1_555 1_555
B15 B19 1_555 1_555
B16 B17 1_555 1_555
B16 B23 1_555 1_555
B17 B18 1_555 1_555
B17 B22 1_555 1_555
B18 B20 1_555 1_555
B18 B21 1_555 1_555
B19 B20 1_555 1_555
B19 B23 1_555 1_555
B20 B21 1_555 1_555
B20 B24 1_555 1_555
B21 B22 1_555 1_555
B21 B24 1_555 1_555
B22 B23 1_555 1_555
B22 B24 1_555 1_555
B23 B24 1_555 1_555
C36 C37 1_555 1_555
C36 C38 1_555 1_555

#END
