
#######################################################################
#
#                 Cambridge Crystallographic Data Centre
#                                CCDC 
#
#######################################################################
#
# If this CIF has been generated from an entry in the Cambridge 
# Structural Database, then it will include bibliographic, chemical, 
# crystal, experimental, refinement or atomic coordinate data resulting 
# from the CCDC's data processing and validation procedures.
#
#######################################################################

data_VIKCUQ
_chemical_formula_moiety         'C6 H16 N1 1+,C16 H26 B12 N1 O1 1-,C3 H6 O1'
_chemical_name_systematic        
'triethylammonium 1,2-benzamido-3-(2-(4-methylphenyl)ethyl)-closo-dodecaborate(9) acetone solvate'
_symmetry_cell_setting           monoclinic
_symmetry_space_group_name_H-M   'P 21/n'
_symmetry_Int_Tables_number      14
_space_group_name_Hall           '-P 2yn'
loop_
_symmetry_equiv_pos_site_id
_symmetry_equiv_pos_as_xyz
1 x,y,z
2 1/2-x,1/2+y,1/2-z
3 -x,-y,-z
4 1/2+x,1/2-y,1/2+z
_cell_length_a                   11.5147(6)
_cell_length_b                   25.6474(11)
_cell_length_c                   11.6432(8)
_cell_angle_alpha                90
_cell_angle_beta                 103.851(6)
_cell_angle_gamma                90
_cell_volume                     3338.51
_exptl_crystal_colour            colorless
_exptl_crystal_description       block
_cell_formula_units_Z            4
loop_
_atom_site_label
_atom_site_type_symbol
_atom_site_fract_x
_atom_site_fract_y
_atom_site_fract_z
O1 O 0.67068(16) 0.05991(7) 0.81326(17)
N1 N 0.81921(19) 0.01410(8) 0.92597(19)
H1 H 0.849754 -0.011215 0.971756
C1 C 0.7052(2) 0.01850(10) 0.8770(2)
C2 C 0.6150(2) -0.02004(11) 0.8884(3)
C3 C 0.4992(3) -0.01303(13) 0.8290(3)
H2 H 0.478277 0.016022 0.780628
C4 C 0.4129(3) -0.04831(16) 0.8395(4)
H3 H 0.333795 -0.042873 0.799091
C5 C 0.4427(4) -0.09123(16) 0.9087(4)
H4 H 0.384079 -0.115167 0.915619
C6 C 0.5574(4) -0.09907(15) 0.9675(4)
H5 H 0.577672 -0.128499 1.014701
C7 C 0.6445(3) -0.06376(13) 0.9580(3)
H6 H 0.723479 -0.069422 0.998541
C8 C 0.8360(3) 0.01086(10) 0.6566(2)
H7 H 0.905439 -0.003156 0.633723
H8 H 0.808771 -0.015435 0.704001
C9 C 0.7388(3) 0.01955(12) 0.5461(3)
H9 H 0.672168 0.036904 0.567598
H10 H 0.768905 0.042778 0.494179
C10 C 0.6934(3) -0.02935(11) 0.4789(3)
C11 C 0.7445(3) -0.04858(12) 0.3925(3)
H11 H 0.808948 -0.031058 0.375167
C12 C 0.7024(3) -0.09320(13) 0.3310(3)
H12 H 0.739212 -0.105238 0.273136
C13 C 0.6080(3) -0.12020(13) 0.3529(3)
C14 C 0.5562(3) -0.10102(13) 0.4388(3)
H13 H 0.490746 -0.118189 0.454878
C15 C 0.5996(3) -0.05682(13) 0.5017(3)
H14 H 0.564223 -0.045357 0.561067
C16 C 0.5606(4) -0.16870(17) 0.2844(5)
H15 H 0.488344 -0.160506 0.226567
H16 H 0.544243 -0.194698 0.337655
H17 H 0.619180 -0.181771 0.245213
B1 B 0.7761(3) 0.09305(11) 0.8077(3)
B2 B 0.8914(3) 0.05830(11) 0.8934(3)
B3 B 0.8771(3) 0.06082(11) 0.7375(3)
B4 B 0.8242(3) 0.12492(12) 0.6929(3)
H18 H 0.765300 0.132554 0.605193
B5 B 0.8077(3) 0.16032(12) 0.8202(3)
H19 H 0.738306 0.190400 0.813775
B6 B 0.8517(3) 0.11902(13) 0.9455(3)
H20 H 0.810520 0.122890 1.021117
B7 B 1.0043(3) 0.10114(12) 0.9664(3)
H21 H 1.061920 0.093048 1.054508
B8 B 1.0198(3) 0.06567(12) 0.8377(3)
H22 H 1.087573 0.034942 0.843337
B9 B 0.9773(3) 0.10840(12) 0.7138(3)
H23 H 1.018975 0.105742 0.638298
B10 B 0.9368(3) 0.16897(13) 0.7639(3)
H24 H 0.952283 0.205696 0.721089
B11 B 0.9531(3) 0.16526(13) 0.9192(3)
H25 H 0.978653 0.199314 0.977196
B12 B 1.0571(3) 0.13288(12) 0.8534(3)
H26 H 1.150510 0.145949 0.868851
N2 N 0.9518(3) -0.17809(12) 0.6330(3)
H27 H 1.030971 -0.194446 0.652040
C17 C 0.8926(6) -0.1935(3) 0.5082(5)
H28 H 0.814931 -0.176737 0.486048
H29 H 0.940187 -0.180154 0.456327
C18 C 0.8761(7) -0.2489(2) 0.4877(6)
H30 H 0.851903 -0.255473 0.404167
H31 H 0.815502 -0.261398 0.524919
H32 H 0.949951 -0.266754 0.520374
C19 C 0.8911(5) -0.19456(19) 0.7255(4)
H33 H 0.941374 -0.185504 0.802377
H34 H 0.882369 -0.232180 0.722702
C20 C 0.7697(6) -0.1702(3) 0.7133(7)
H35 H 0.716038 -0.182776 0.642552
H36 H 0.776370 -0.132961 0.709103
H37 H 0.739312 -0.179295 0.780616
C21 C 0.9708(7) -0.1223(2) 0.6221(7)
H38 H 0.901995 -0.104059 0.636685
H39 H 0.973859 -0.115113 0.541127
C22 C 1.0795(6) -0.1005(2) 0.7014(8)
H40 H 1.148230 -0.119755 0.692194
H41 H 1.073082 -0.103052 0.781958
H42 H 1.087917 -0.064602 0.681777
O2 O 0.8133(5) 0.21922(19) 0.3463(5)
C23 C 0.6190(7) 0.1966(3) 0.3545(6)
H43 H 0.556888 0.222384 0.335516
H44 H 0.604104 0.173875 0.414927
H45 H 0.620092 0.176605 0.285083
C24 C 0.7338(6) 0.2223(2) 0.3969(6)
C25 C 0.7514(5) 0.2514(2) 0.5064(6)
H46 H 0.827384 0.268847 0.521823
H47 H 0.749773 0.227972 0.570294
H48 H 0.688788 0.276757 0.499715
loop_
_geom_bond_atom_site_label_1
_geom_bond_atom_site_label_2
_geom_bond_site_symmetry_1
_geom_bond_site_symmetry_2
O1 C1 1_555 1_555
N1 H1 1_555 1_555
C1 N1 1_555 1_555
C2 C1 1_555 1_555
C3 C2 1_555 1_555
H2 C3 1_555 1_555
C4 C3 1_555 1_555
H3 C4 1_555 1_555
C5 C4 1_555 1_555
H4 C5 1_555 1_555
C6 C5 1_555 1_555
H5 C6 1_555 1_555
C7 C2 1_555 1_555
H6 C7 1_555 1_555
C8 H7 1_555 1_555
H8 C8 1_555 1_555
C9 C8 1_555 1_555
H9 C9 1_555 1_555
H10 C9 1_555 1_555
C10 C9 1_555 1_555
C11 C10 1_555 1_555
H11 C11 1_555 1_555
C12 C11 1_555 1_555
H12 C12 1_555 1_555
C13 C12 1_555 1_555
C14 C13 1_555 1_555
H13 C14 1_555 1_555
C15 C10 1_555 1_555
H14 C15 1_555 1_555
C16 C13 1_555 1_555
H15 C16 1_555 1_555
H16 C16 1_555 1_555
H17 C16 1_555 1_555
B1 O1 1_555 1_555
B2 N1 1_555 1_555
B3 C8 1_555 1_555
B4 B1 1_555 1_555
H18 B4 1_555 1_555
B5 B1 1_555 1_555
H19 B5 1_555 1_555
B6 B1 1_555 1_555
H20 B6 1_555 1_555
B7 B2 1_555 1_555
H21 B7 1_555 1_555
B8 B2 1_555 1_555
H22 B8 1_555 1_555
B9 B3 1_555 1_555
H23 B9 1_555 1_555
B10 B4 1_555 1_555
H24 B10 1_555 1_555
B11 B5 1_555 1_555
H25 B11 1_555 1_555
B12 B7 1_555 1_555
H26 B12 1_555 1_555
N2 H27 1_555 1_555
C17 N2 1_555 1_555
H28 C17 1_555 1_555
H29 C17 1_555 1_555
C18 C17 1_555 1_555
H30 C18 1_555 1_555
H31 C18 1_555 1_555
H32 C18 1_555 1_555
C19 N2 1_555 1_555
H33 C19 1_555 1_555
H34 C19 1_555 1_555
C20 C19 1_555 1_555
H35 C20 1_555 1_555
H36 C20 1_555 1_555
H37 C20 1_555 1_555
C21 N2 1_555 1_555
H38 C21 1_555 1_555
H39 C21 1_555 1_555
C22 C21 1_555 1_555
H40 C22 1_555 1_555
H41 C22 1_555 1_555
H42 C22 1_555 1_555
O2 C24 1_555 1_555
C23 H43 1_555 1_555
H44 C23 1_555 1_555
H45 C23 1_555 1_555
C24 C23 1_555 1_555
C25 C24 1_555 1_555
H46 C25 1_555 1_555
H47 C25 1_555 1_555
H48 C25 1_555 1_555
C6 C7 1_555 1_555
C14 C15 1_555 1_555
B1 B2 1_555 1_555
B1 B3 1_555 1_555
B2 B3 1_555 1_555
B2 B6 1_555 1_555
B3 B4 1_555 1_555
B3 B8 1_555 1_555
B4 B5 1_555 1_555
B4 B9 1_555 1_555
B5 B6 1_555 1_555
B5 B10 1_555 1_555
B6 B7 1_555 1_555
B6 B11 1_555 1_555
B7 B8 1_555 1_555
B7 B11 1_555 1_555
B8 B9 1_555 1_555
B8 B12 1_555 1_555
B9 B10 1_555 1_555
B9 B12 1_555 1_555
B10 B11 1_555 1_555
B10 B12 1_555 1_555
B11 B12 1_555 1_555

#END
