
#######################################################################
#
#                 Cambridge Crystallographic Data Centre
#                                CCDC 
#
#######################################################################
#
# If this CIF has been generated from an entry in the Cambridge 
# Structural Database, then it will include bibliographic, chemical, 
# crystal, experimental, refinement or atomic coordinate data resulting 
# from the CCDC's data processing and validation procedures.
#
#######################################################################

data_VIKFIF
_chemical_formula_moiety         'C14 H18 N4 S2'
_chemical_name_systematic        
4,4',6,6'-Tetramethyl-2,2'-(ethylenedithio)dipyrimidine
_symmetry_cell_setting           triclinic
_symmetry_space_group_name_H-M   'P -1'
_symmetry_Int_Tables_number      2
_space_group_name_Hall           '-P 1'
loop_
_symmetry_equiv_pos_site_id
_symmetry_equiv_pos_as_xyz
1 x,y,z
2 -x,-y,-z
_cell_length_a                   8.487(5)
_cell_length_b                   9.167(5)
_cell_length_c                   10.557(5)
_cell_angle_alpha                85.282(5)
_cell_angle_beta                 83.264(5)
_cell_angle_gamma                89.711(5)
_cell_volume                     812.896
_exptl_crystal_colour            orange-yellow
_exptl_crystal_description       block
_cell_formula_units_Z            2
_exptl_crystal_recrystallization_method dichloromethane/2-propanol
loop_
_atom_site_label
_atom_site_type_symbol
_atom_site_fract_x
_atom_site_fract_y
_atom_site_fract_z
C1 C -0.1753(2) 0.1379(2) 0.4757(2)
H1 H -0.1925 0.1757 0.3909
H2 H -0.2735 0.1379 0.5309
H3 H -0.1358 0.0397 0.4734
C2 C -0.05600(17) 0.23267(15) 0.52551(16)
C3 C -0.08802(18) 0.29944(17) 0.63776(15)
H4 H -0.1856 0.2861 0.6875
C4 C 0.02799(18) 0.38698(17) 0.67507(15)
C5 C 0.0014(2) 0.4651(2) 0.79489(18)
H5 H 0.0663 0.4221 0.8564
H6 H -0.1083 0.4567 0.8295
H7 H 0.0290 0.5666 0.7755
C6 C 0.18869(18) 0.33423(17) 0.49854(14)
C7 C 0.5087(5) 0.4183(5) 0.5078(5)
H8 H 0.4760 0.3784 0.5948
H9 H 0.6158 0.3871 0.4804
N1 N 0.08528(15) 0.24921(13) 0.45450(12)
N2 N 0.16878(15) 0.40563(15) 0.60426(12)
S1 S 0.3561(4) 0.3698(6) 0.3876(3)
C1A C 1.1753(2) 0.8621(2) 0.5243(2)
H1A H 1.1925 0.8243 0.6091
H2A H 1.2735 0.8621 0.4691
H3A H 1.1358 0.9603 0.5266
C2A C 1.05600(17) 0.76733(15) 0.47449(16)
C3A C 1.08802(18) 0.70056(17) 0.36224(15)
H4A H 1.1856 0.7139 0.3125
C4A C 0.97201(18) 0.61302(17) 0.32493(15)
C5A C 0.9986(2) 0.5349(2) 0.20511(18)
H5A H 0.9337 0.5779 0.1436
H6A H 1.1083 0.5433 0.1705
H7A H 0.9710 0.4334 0.2245
C6A C 0.81131(18) 0.66577(17) 0.50146(14)
C7A C 0.4913(5) 0.5817(5) 0.4922(5)
H8A H 0.5240 0.6216 0.4052
H9A H 0.3842 0.6129 0.5196
N1A N 0.91472(15) 0.75079(13) 0.54550(12)
N2A N 0.83122(15) 0.59437(15) 0.39574(12)
S1A S 0.6439(4) 0.6302(6) 0.6124(3)
C8 C 0.3687(3) 0.0925(2) 0.7483(2)
H10 H 0.3110 0.0028 0.7725
H11 H 0.4025 0.0993 0.6580
H12 H 0.3014 0.1739 0.7686
C9 C 0.5109(2) 0.09497(17) 0.81995(15)
C10 C 0.6268(2) -0.00835(17) 0.80949(16)
H13 H 0.6211 -0.0824 0.7550
C11 C 0.7522(2) -0.00184(18) 0.88059(16)
C12 C 0.8825(3) -0.1125(3) 0.8756(3)
H14 H 0.9827 -0.0639 0.8738
H15 H 0.8822 -0.1638 0.7999
H16 H 0.8661 -0.1810 0.9498
C13 C 0.64045(18) 0.19983(16) 0.96409(14)
C14 C 0.4877(2) 0.44566(18) 1.05891(16)
H17 H 0.3960 0.3848 1.0533
H18 H 0.4659 0.4989 1.1347
N3 N 0.51650(15) 0.20336(14) 0.89806(12)
N4 N 0.75976(15) 0.10482(15) 0.95989(13)
S2 S 0.65828(6) 0.33032(5) 1.07490(4)
C8A C 0.6313(3) 0.9075(2) 1.2517(2)
H10A H 0.6890 0.9972 1.2275
H11A H 0.5975 0.9007 1.3420
H12A H 0.6986 0.8261 1.2314
C9A C 0.4891(2) 0.90503(17) 1.18005(15)
C10A C 0.3732(2) 1.00835(17) 1.19051(16)
H13A H 0.3789 1.0824 1.2450
C11A C 0.2478(2) 1.00184(18) 1.11941(16)
C12A C 0.1175(3) 1.1125(3) 1.1244(3)
H14A H 0.0173 1.0639 1.1262
H15A H 0.1178 1.1638 1.2001
H16A H 0.1339 1.1810 1.0502
C13A C 0.35955(18) 0.80017(16) 1.03591(14)
C14A C 0.5123(2) 0.55434(18) 0.94109(16)
H17A H 0.6040 0.6152 0.9467
H18A H 0.5341 0.5011 0.8653
N3A N 0.48350(15) 0.79664(14) 1.10194(12)
N4A N 0.24024(15) 0.89518(15) 1.04011(13)
S2A S 0.34172(6) 0.66968(5) 0.92510(4)
C15? C 0.4535(4) 0.5207(6) 0.4450(4)
H19? H 0.5195 0.5677 0.3719
H20? H 0.3642 0.5830 0.4692
S3? S 0.3855(4) 0.3241(4) 0.4131(4)
loop_
_geom_bond_atom_site_label_1
_geom_bond_atom_site_label_2
_geom_bond_site_symmetry_1
_geom_bond_site_symmetry_2
C1 H1 1_555 1_555
H2 C1 1_555 1_555
H3 C1 1_555 1_555
C2 C1 1_555 1_555
C3 C2 1_555 1_555
H4 C3 1_555 1_555
C4 C3 1_555 1_555
C5 C4 1_555 1_555
H5 C5 1_555 1_555
H6 C5 1_555 1_555
H7 C5 1_555 1_555
C6 N1 1_555 1_555
C7 H8 1_555 1_555
H9 C7 1_555 1_555
C8 H10 1_555 1_555
H11 C8 1_555 1_555
H12 C8 1_555 1_555
C9 C8 1_555 1_555
C10 C9 1_555 1_555
H13 C10 1_555 1_555
C11 C10 1_555 1_555
C12 C11 1_555 1_555
H14 C12 1_555 1_555
H15 C12 1_555 1_555
H16 C12 1_555 1_555
C13 N3 1_555 1_555
C14 H17 1_555 1_555
H18 C14 1_555 1_555
N1 C2 1_555 1_555
N2 C4 1_555 1_555
N3 C9 1_555 1_555
N4 C11 1_555 1_555
S1 C6 1_555 1_555
S2 C13 1_555 1_555
C1A H1A 1_555 1_555
H2A C1A 1_555 1_555
H3A C1A 1_555 1_555
C2A C1A 1_555 1_555
C3A C2A 1_555 1_555
H4A C3A 1_555 1_555
C4A C3A 1_555 1_555
C5A C4A 1_555 1_555
H5A C5A 1_555 1_555
H6A C5A 1_555 1_555
H7A C5A 1_555 1_555
C6A N1A 1_555 1_555
C7A C7 1_555 1_555
H8A C7A 1_555 1_555
H9A C7A 1_555 1_555
C8A H10A 1_555 1_555
H11A C8A 1_555 1_555
H12A C8A 1_555 1_555
C9A C8A 1_555 1_555
C10A C9A 1_555 1_555
H13A C10A 1_555 1_555
C11A C10A 1_555 1_555
C12A C11A 1_555 1_555
H14A C12A 1_555 1_555
H15A C12A 1_555 1_555
H16A C12A 1_555 1_555
C13A N3A 1_555 1_555
C14A C14 1_555 1_555
H17A C14A 1_555 1_555
H18A C14A 1_555 1_555
N1A C2A 1_555 1_555
N2A C4A 1_555 1_555
N3A C9A 1_555 1_555
N4A C11A 1_555 1_555
S1A C6A 1_555 1_555
S2A C13A 1_555 1_555
C6 N2 1_555 1_555
C7 S1 1_555 1_555
C13 N4 1_555 1_555
C14 S2 1_555 1_555
C6A N2A 1_555 1_555
C7A S1A 1_555 1_555
C13A N4A 1_555 1_555
C14A S2A 1_555 1_555

#END
