
#######################################################################
#
#                 Cambridge Crystallographic Data Centre
#                                CCDC 
#
#######################################################################
#
# If this CIF has been generated from an entry in the Cambridge 
# Structural Database, then it will include bibliographic, chemical, 
# crystal, experimental, refinement or atomic coordinate data resulting 
# from the CCDC's data processing and validation procedures.
#
#######################################################################

data_VIKKOQ
_chemical_formula_moiety         'C13 H12 Br1 N5 O2'
_chemical_name_systematic        
'Methyl 7-(4-bromophenyl)-5-methyl-4,7-dihydrotetrazolo(1,5-a)pyrimidine-6-carboxylate'
_symmetry_cell_setting           monoclinic
_symmetry_space_group_name_H-M   'P 21/c'
_symmetry_Int_Tables_number      14
_space_group_name_Hall           '-P 2ybc'
loop_
_symmetry_equiv_pos_site_id
_symmetry_equiv_pos_as_xyz
1 x,y,z
2 -x,1/2+y,1/2-z
3 -x,-y,-z
4 x,1/2-y,1/2+z
_cell_length_a                   17.907(2)
_cell_length_b                   10.1825(12)
_cell_length_c                   7.5055(8)
_cell_angle_alpha                90
_cell_angle_beta                 92.166(6)
_cell_angle_gamma                90
_cell_volume                     1367.56
_exptl_crystal_colour            colorless
_exptl_crystal_description       Prism
_cell_formula_units_Z            4
_exptl_crystal_recrystallization_method ethanol
loop_
_atom_site_label
_atom_site_type_symbol
_atom_site_fract_x
_atom_site_fract_y
_atom_site_fract_z
Br1 Br 0.004726(12) 0.27862(2) 0.46614(4)
O1 O 0.29676(9) 0.06840(16) -0.1887(2)
O2 O 0.21121(9) -0.05636(16) -0.0569(2)
N1 N 0.32618(9) -0.09411(17) 0.4092(3)
N2 N 0.31537(10) -0.17956(19) 0.5438(3)
N3 N 0.37654(10) -0.1804(2) 0.6404(3)
N4 N 0.42826(10) -0.09703(19) 0.5731(3)
N5 N 0.42234(11) 0.0382(2) 0.3083(3)
C1 C 0.27228(12) -0.0655(2) 0.2624(3)
H1 H 0.2521 -0.1504 0.2140
C2 C 0.39545(12) -0.0462(2) 0.4286(3)
C3 C 0.38423(13) 0.0551(2) 0.1451(3)
C4 C 0.31497(12) 0.0029(2) 0.1174(3)
C5 C 0.20761(12) 0.0163(2) 0.3260(3)
C6 C 0.13503(13) -0.0321(2) 0.3065(3)
H2 H 0.1270 -0.1185 0.2622
C7 C 0.07433(12) 0.0442(2) 0.3509(3)
H3 H 0.0248 0.0115 0.3353
C8 C 0.08719(12) 0.1684(2) 0.4182(3)
C9 C 0.15873(12) 0.2177(2) 0.4453(4)
H4 H 0.1665 0.3025 0.4954
C10 C 0.21876(12) 0.1413(2) 0.3980(3)
H5 H 0.2681 0.1743 0.4149
C11 C 0.42716(13) 0.1333(3) 0.0139(4)
H6 H 0.4271 0.0866 -0.1003
H7 H 0.4787 0.1448 0.0596
H8 H 0.4037 0.2195 -0.0033
C12 C 0.27653(13) 0.0108(2) -0.0590(3)
C13 C 0.16691(13) -0.0577(3) -0.2211(3)
H9 H 0.1594 0.0326 -0.2635
H10 H 0.1183 -0.0981 -0.2007
H11 H 0.1929 -0.1084 -0.3109
H12 H 0.4699(16) 0.065(3) 0.325(4)
loop_
_geom_bond_atom_site_label_1
_geom_bond_atom_site_label_2
_geom_bond_site_symmetry_1
_geom_bond_site_symmetry_2
Br1 C8 1_555 1_555
O1 C12 1_555 1_555
O2 C12 1_555 1_555
N1 N2 1_555 1_555
N2 N3 1_555 1_555
N3 N4 1_555 1_555
N4 C2 1_555 1_555
N5 C2 1_555 1_555
C1 N1 1_555 1_555
H1 C1 1_555 1_555
C2 N1 1_555 1_555
C3 N5 1_555 1_555
C4 C1 1_555 1_555
C5 C1 1_555 1_555
C6 C5 1_555 1_555
H2 C6 1_555 1_555
C7 C6 1_555 1_555
H3 C7 1_555 1_555
C8 C7 1_555 1_555
C9 C8 1_555 1_555
H4 C9 1_555 1_555
C10 C5 1_555 1_555
H5 C10 1_555 1_555
C11 C3 1_555 1_555
H6 C11 1_555 1_555
H7 C11 1_555 1_555
H8 C11 1_555 1_555
C12 C4 1_555 1_555
C13 O2 1_555 1_555
H9 C13 1_555 1_555
H10 C13 1_555 1_555
H11 C13 1_555 1_555
H12 N5 1_555 1_555
C3 C4 1_555 1_555
C9 C10 1_555 1_555

#END
