
#######################################################################
#
#                 Cambridge Crystallographic Data Centre
#                                CCDC 
#
#######################################################################
#
# If this CIF has been generated from an entry in the Cambridge 
# Structural Database, then it will include bibliographic, chemical, 
# crystal, experimental, refinement or atomic coordinate data resulting 
# from the CCDC's data processing and validation procedures.
#
#######################################################################

data_VIKMIM
_chemical_formula_moiety         'C31 H35 N1 O4'
_chemical_name_systematic        
3,3,6,6-Tetramethyl-9,10-bis(4-methoxyphenyl)-3,4,6,7,9,10-hexahydro-2H,5H-acridine-1,8-dione
_symmetry_cell_setting           monoclinic
_symmetry_space_group_name_H-M   'P 21/c'
_symmetry_Int_Tables_number      14
_space_group_name_Hall           '-P 2ybc'
loop_
_symmetry_equiv_pos_site_id
_symmetry_equiv_pos_as_xyz
1 x,y,z
2 -x,1/2+y,1/2-z
3 -x,-y,-z
4 x,1/2-y,1/2+z
_cell_length_a                   12.089(2)
_cell_length_b                   11.447(2)
_cell_length_c                   19.742(3)
_cell_angle_alpha                90
_cell_angle_beta                 101.00(1)
_cell_angle_gamma                90
_cell_volume                     2681.76
_exptl_crystal_colour            yellow
_exptl_crystal_description       block
_chemical_melting_point          '210-211 deg.C'
_cell_formula_units_Z            4
_exptl_crystal_recrystallization_method '95% ethanol'
loop_
_atom_site_label
_atom_site_type_symbol
_atom_site_fract_x
_atom_site_fract_y
_atom_site_fract_z
O1 O 0.07138(11) 0.68574(10) 0.44005(6)
O2 O 0.05738(11) 0.81855(10) 0.68178(6)
O3 O 0.48678(10) 1.01249(10) 0.58194(6)
O4 O 0.39232(10) 0.04046(9) 0.75765(6)
N1 N 0.20523(11) 0.45163(10) 0.63483(6)
C1 C 0.18762(12) 0.47332(13) 0.56401(7)
C2 C 0.20952(15) 0.37444(13) 0.51847(8)
H1 H 0.1446 0.3229 0.5108
H2 H 0.2736 0.3299 0.5422
C3 C 0.23307(14) 0.41415(15) 0.44836(8)
C4 C 0.13917(14) 0.49769(15) 0.41714(8)
H3 H 0.1577 0.5316 0.3757
H4 H 0.0701 0.4533 0.4036
C5 C 0.11775(13) 0.59541(15) 0.46429(8)
C6 C 0.14891(12) 0.57815(13) 0.53865(7)
C7 C 0.13734(13) 0.68129(13) 0.58415(7)
H5 H 0.0652 0.7190 0.5655
C8 C 0.13213(12) 0.63908(13) 0.65605(7)
C9 C 0.08587(13) 0.71922(14) 0.70107(9)
C10 C 0.07111(15) 0.67576(14) 0.77027(8)
H6 H -0.0025 0.6395 0.7656
H7 H 0.0730 0.7419 0.8012
C11 C 0.16025(15) 0.58832(13) 0.80227(8)
C12 C 0.16252(15) 0.48999(13) 0.75060(8)
H8 H 0.2277 0.4411 0.7668
H9 H 0.0958 0.4421 0.7487
C13 C 0.16692(12) 0.53187(13) 0.67876(7)
C14 C 0.22954(13) 0.77123(13) 0.58300(7)
C15 C 0.34214(14) 0.74415(14) 0.60565(8)
H10 H 0.3618 0.6694 0.6220
C16 C 0.42589(14) 0.82556(14) 0.60447(8)
H11 H 0.5010 0.8053 0.6198
C17 C 0.39797(15) 0.93730(14) 0.58049(8)
C18 C 0.28696(15) 0.96583(14) 0.55730(8)
H12 H 0.2675 1.0405 0.5406
C19 C 0.20412(14) 0.88309(13) 0.55883(8)
H13 H 0.1291 0.9034 0.5431
C20 C 0.25247(13) 0.34159(12) 0.66284(7)
C21 C 0.36409(14) 0.33708(13) 0.69585(8)
H14 H 0.4094 0.4031 0.6973
C22 C 0.40812(14) 0.23490(13) 0.72648(8)
H15 H 0.4831 0.2321 0.7489
C23 C 0.34130(14) 0.13628(13) 0.72409(8)
C24 C 0.23036(14) 0.13974(13) 0.68978(8)
H16 H 0.1857 0.0731 0.6870
C25 C 0.18620(13) 0.24343(13) 0.65957(8)
H17 H 0.1113 0.2465 0.6370
C26 C 0.23232(17) 0.30729(16) 0.40187(9)
H18 H 0.1603 0.2694 0.3961
H19 H 0.2902 0.2539 0.4226
H20 H 0.2460 0.3315 0.3576
C27 C 0.34713(15) 0.47428(18) 0.45744(10)
H21 H 0.3619 0.4962 0.4131
H22 H 0.4048 0.4218 0.4796
H23 H 0.3467 0.5428 0.4854
C28 C 0.1320(2) 0.53847(16) 0.86864(9)
H24 H 0.1289 0.6007 0.9008
H25 H 0.1891 0.4835 0.8884
H26 H 0.0603 0.4998 0.8584
C29 C 0.27496(16) 0.64781(16) 0.81856(10)
H27 H 0.2923 0.6807 0.7771
H28 H 0.3315 0.5915 0.8371
H29 H 0.2734 0.7088 0.8518
C30 C 0.46142(18) 1.12706(15) 0.55482(10)
H30 H 0.4211 1.1215 0.5081
H31 H 0.5302 1.1695 0.5559
H32 H 0.4158 1.1672 0.5822
C31 C 0.32653(16) -0.06174(14) 0.75799(9)
H33 H 0.2602 -0.0436 0.7760
H34 H 0.3698 -0.1200 0.7864
H35 H 0.3050 -0.0909 0.7118
loop_
_geom_bond_atom_site_label_1
_geom_bond_atom_site_label_2
_geom_bond_site_symmetry_1
_geom_bond_site_symmetry_2
O1 C5 1_555 1_555
O2 C9 1_555 1_555
O3 C17 1_555 1_555
O4 C23 1_555 1_555
N1 C1 1_555 1_555
C1 C2 1_555 1_555
C2 H1 1_555 1_555
H2 C2 1_555 1_555
C3 C2 1_555 1_555
C4 C3 1_555 1_555
H3 C4 1_555 1_555
H4 C4 1_555 1_555
C5 C4 1_555 1_555
C6 C1 1_555 1_555
C7 C6 1_555 1_555
H5 C7 1_555 1_555
C8 C7 1_555 1_555
C9 C8 1_555 1_555
C10 C9 1_555 1_555
H6 C10 1_555 1_555
H7 C10 1_555 1_555
C11 C10 1_555 1_555
C12 C11 1_555 1_555
H8 C12 1_555 1_555
H9 C12 1_555 1_555
C13 N1 1_555 1_555
C14 C7 1_555 1_555
C15 C14 1_555 1_555
H10 C15 1_555 1_555
C16 C15 1_555 1_555
H11 C16 1_555 1_555
C17 C16 1_555 1_555
C18 C17 1_555 1_555
H12 C18 1_555 1_555
C19 C14 1_555 1_555
H13 C19 1_555 1_555
C20 N1 1_555 1_555
C21 C20 1_555 1_555
H14 C21 1_555 1_555
C22 C21 1_555 1_555
H15 C22 1_555 1_555
C23 C22 1_555 1_555
C24 C23 1_555 1_555
H16 C24 1_555 1_555
C25 C20 1_555 1_555
H17 C25 1_555 1_555
C26 C3 1_555 1_555
H18 C26 1_555 1_555
H19 C26 1_555 1_555
H20 C26 1_555 1_555
C27 C3 1_555 1_555
H21 C27 1_555 1_555
H22 C27 1_555 1_555
H23 C27 1_555 1_555
C28 C11 1_555 1_555
H24 C28 1_555 1_555
H25 C28 1_555 1_555
H26 C28 1_555 1_555
C29 C11 1_555 1_555
H27 C29 1_555 1_555
H28 C29 1_555 1_555
H29 C29 1_555 1_555
C30 O3 1_555 1_555
H30 C30 1_555 1_555
H31 C30 1_555 1_555
H32 C30 1_555 1_555
C31 O4 1_555 1_555
H33 C31 1_555 1_555
H34 C31 1_555 1_555
H35 C31 1_555 1_555
C5 C6 1_555 1_555
C8 C13 1_555 1_555
C12 C13 1_555 1_555
C18 C19 1_555 1_555
C24 C25 1_555 1_555

#END
