
#######################################################################
#
#                 Cambridge Crystallographic Data Centre
#                                CCDC 
#
#######################################################################
#
# If this CIF has been generated from an entry in the Cambridge 
# Structural Database, then it will include bibliographic, chemical, 
# crystal, experimental, refinement or atomic coordinate data resulting 
# from the CCDC's data processing and validation procedures.
#
#######################################################################

data_VIKPOX
_chemical_name_common            
'9,14,19,24,26,28,30,32-octaethoxyhexacyclo[21.2.2.2$3,6!.2$8,11!.2$13,16!.2$18,21!]pentatriaconta-1(25),3(35),5,8,10,13,15,18,20,23,26,28,30,32-tetradecaene-4,34-dione hexanal solvate'
_chemical_formula_moiety         'C51 H60 O10,C6 H12 O1'
_chemical_name_systematic        
'pillar[4]arene[1]quinone caproaldehyde solvate'
_symmetry_cell_setting           monoclinic
_symmetry_space_group_name_H-M   'P 21/c'
_symmetry_Int_Tables_number      14
_space_group_name_Hall           '-P 2ybc'
loop_
_symmetry_equiv_pos_site_id
_symmetry_equiv_pos_as_xyz
1 x,y,z
2 -x,1/2+y,1/2-z
3 -x,-y,-z
4 x,1/2-y,1/2+z
_cell_length_a                   40.8447(15)
_cell_length_b                   11.5057(4)
_cell_length_c                   22.7109(9)
_cell_angle_alpha                90
_cell_angle_beta                 91.315(3)
_cell_angle_gamma                90
_cell_volume                     10670.1
_exptl_crystal_colour            red
_exptl_crystal_description       plate
_cell_formula_units_Z            8
loop_
_atom_site_label
_atom_site_type_symbol
_atom_site_fract_x
_atom_site_fract_y
_atom_site_fract_z
O1 O 0.68020(12) 0.2866(4) 0.19017(19)
O2 O 0.73684(13) 0.6133(4) 0.3223(2)
O3 O 0.56139(11) 0.3003(4) 0.2089(2)
O4 O 0.63106(11) 0.7129(4) 0.2014(2)
O5 O 0.51650(11) 0.2018(4) 0.41489(17)
O6 O 0.54308(12) 0.6521(4) 0.34362(19)
O7 O 0.63041(11) 0.1112(4) 0.5209(2)
O8 O 0.57200(10) 0.5410(4) 0.54643(19)
O9 O 0.72457(12) 0.1636(4) 0.3764(2)
O10 O 0.69719(11) 0.5124(4) 0.53617(19)
C1 C 0.75254(16) 0.3807(6) 0.3557(3)
H1 H 0.767670 0.445803 0.364851
H2 H 0.765815 0.311198 0.346734
C2 C 0.73111(14) 0.4116(6) 0.3028(3)
C3 C 0.71688(16) 0.3338(6) 0.2682(3)
H3 H 0.721791 0.254099 0.274820
C4 C 0.69366(15) 0.3637(6) 0.2194(3)
C5 C 0.68665(14) 0.4873(5) 0.2079(2)
C6 C 0.70230(15) 0.5668(6) 0.2416(3)
H4 H 0.698958 0.646724 0.232790
C7 C 0.72427(15) 0.5367(6) 0.2914(3)
C8 C 0.66224(15) 0.5168(6) 0.1593(3)
H5 H 0.664472 0.460998 0.126475
H6 H 0.666811 0.595657 0.144146
C9 C 0.62777(15) 0.5122(6) 0.1817(2)
C10 C 0.61047(15) 0.4085(6) 0.1822(2)
H7 H 0.620103 0.340739 0.166102
C11 C 0.57908(15) 0.4013(6) 0.2057(3)
C12 C 0.56446(15) 0.4997(6) 0.2286(3)
C13 C 0.58139(15) 0.6052(6) 0.2264(3)
H8 H 0.571262 0.673762 0.240598
C14 C 0.61262(16) 0.6121(6) 0.2040(3)
C15 C 0.57432(17) 0.1984(6) 0.1823(3)
H9 H 0.595306 0.176725 0.202033
H10 H 0.578496 0.213351 0.140202
C16 C 0.5502(2) 0.1022(7) 0.1880(4)
H11 H 0.529314 0.125217 0.169308
H12 H 0.546908 0.085728 0.229737
H13 H 0.558505 0.032488 0.168546
C17 C 0.61916(19) 0.8141(6) 0.2287(3)
H14 H 0.615164 0.798582 0.270810
H15 H 0.598236 0.838303 0.209565
C18 C 0.6439(2) 0.9075(7) 0.2231(4)
H16 H 0.646013 0.928084 0.181485
H17 H 0.665066 0.880180 0.238865
H18 H 0.636967 0.975995 0.245234
C19 C 0.53078(14) 0.4933(6) 0.2541(3)
H19 H 0.517630 0.436298 0.231035
H20 H 0.520106 0.570122 0.249296
C20 C 0.53011(13) 0.4591(6) 0.3191(3)
C21 C 0.52327(13) 0.3451(5) 0.3357(3)
H21 H 0.518791 0.288116 0.306318
C22 C 0.52295(14) 0.3138(5) 0.3951(3)
C23 C 0.52951(13) 0.3948(5) 0.4382(2)
C24 C 0.53561(13) 0.5083(5) 0.4215(3)
H22 H 0.539211 0.565775 0.450921
C25 C 0.53657(14) 0.5397(5) 0.3628(3)
C26 C 0.50342(16) 0.1190(5) 0.3740(3)
H23 H 0.520649 0.092009 0.347286
H24 H 0.485449 0.154081 0.350047
C27 C 0.49077(19) 0.0191(6) 0.4097(3)
H25 H 0.481340 -0.039838 0.383142
H26 H 0.473901 0.047193 0.436150
H27 H 0.508840 -0.015138 0.432899
C28 C 0.54741(19) 0.7407(6) 0.3870(3)
H28 H 0.565449 0.719550 0.414839
H29 H 0.527125 0.750248 0.409531
C29 C 0.5554(2) 0.8508(6) 0.3559(4)
H30 H 0.536387 0.875628 0.331864
H31 H 0.574085 0.838046 0.330444
H32 H 0.560849 0.911241 0.384888
C30 C 0.53162(13) 0.3637(5) 0.5030(2)
H33 H 0.518716 0.292579 0.510322
H34 H 0.522525 0.427671 0.526728
C31 C 0.56779(14) 0.3433(5) 0.5207(2)
C32 C 0.58163(13) 0.2347(5) 0.5148(2)
H35 H 0.568341 0.171310 0.502070
C33 C 0.61522(14) 0.2162(5) 0.5273(2)
C34 C 0.63467(13) 0.3088(5) 0.5466(2)
C35 C 0.62055(13) 0.4169(5) 0.5532(2)
H36 H 0.633693 0.480065 0.566735
C36 C 0.58721(14) 0.4353(5) 0.5404(2)
C37 C 0.61107(17) 0.0136(6) 0.5054(3)
H37 H 0.598733 0.028805 0.468137
H38 H 0.595183 -0.002705 0.536594
C38 C 0.6334(2) -0.0875(6) 0.4981(4)
H39 H 0.646947 -0.075022 0.463663
H40 H 0.620347 -0.158342 0.492502
H41 H 0.647455 -0.095606 0.533367
C39 C 0.59112(17) 0.6355(5) 0.5677(3)
H42 H 0.608495 0.654616 0.539608
H43 H 0.601562 0.615805 0.606186
C40 C 0.56802(19) 0.7374(6) 0.5742(4)
H44 H 0.557246 0.753985 0.536109
H45 H 0.580414 0.805816 0.587471
H46 H 0.551444 0.718278 0.603170
C41 C 0.67114(14) 0.2931(5) 0.5589(3)
H47 H 0.678023 0.345406 0.591467
H48 H 0.675267 0.212172 0.571836
C42 C 0.69166(13) 0.3186(5) 0.5057(3)
C43 C 0.69779(14) 0.2296(6) 0.4658(3)
H49 H 0.688454 0.154979 0.471689
C44 C 0.71749(15) 0.2489(6) 0.4174(3)
C45 C 0.73141(14) 0.3565(6) 0.4082(3)
C46 C 0.72542(15) 0.4452(6) 0.4484(3)
H50 H 0.735434 0.518991 0.443392
C47 C 0.70481(15) 0.4272(6) 0.4963(3)
C48 C 0.70840(17) 0.0534(7) 0.3821(3)
H51 H 0.684333 0.063272 0.379511
H52 H 0.714242 0.016948 0.420450
C49 C 0.7201(2) -0.0205(8) 0.3320(4)
H53 H 0.713078 0.014604 0.294469
H54 H 0.710796 -0.098659 0.335068
H55 H 0.744064 -0.025313 0.333860
C50 C 0.70949(18) 0.6271(6) 0.5280(3)
H56 H 0.702425 0.657514 0.488966
H57 H 0.733728 0.627016 0.530302
C51 C 0.69601(18) 0.7007(6) 0.5759(3)
H58 H 0.672033 0.700476 0.572984
H59 H 0.704059 0.780506 0.571915
H60 H 0.703087 0.669476 0.614281
O11 O 0.75119(17) -0.0995(6) 0.5424(3)
O12 O 0.80843(12) 0.2575(4) 0.4395(2)
O13 O 0.81027(11) -0.1078(4) 0.7488(2)
O14 O 0.77035(15) 0.3105(5) 0.6528(3)
O15 O 0.93288(11) -0.1734(4) 0.7574(2)
O16 O 0.87741(11) 0.2652(4) 0.7533(2)
O17 O 0.94974(15) -0.2340(4) 0.5277(3)
O18 O 0.97620(12) 0.1910(4) 0.6318(2)
O19 O 0.83848(13) -0.1779(5) 0.4149(2)
O20 O 0.93045(12) 0.1735(4) 0.4199(2)
C52 C 0.81671(16) 0.0410(7) 0.3824(3)
H61 H 0.808089 -0.025006 0.358764
H62 H 0.815247 0.111890 0.357788
C53 C 0.79589(14) 0.0567(6) 0.4371(3)
C54 C 0.78122(16) -0.0301(7) 0.4634(3)
H63 H 0.782048 -0.105262 0.446186
C55 C 0.76365(18) -0.0149(7) 0.5185(3)
C56 C 0.76170(15) 0.1019(6) 0.5440(3)
C57 C 0.77637(16) 0.1913(6) 0.5169(3)
H64 H 0.774956 0.266959 0.533364
C58 C 0.79459(15) 0.1742(6) 0.4623(3)
C59 C 0.74398(16) 0.1140(7) 0.6010(3)
H65 H 0.727530 0.051182 0.603946
H66 H 0.732271 0.189294 0.601437
C60 C 0.76772(14) 0.1077(6) 0.6536(3)
C61 C 0.77716(15) 0.0008(6) 0.6775(3)
H67 H 0.768144 -0.068734 0.661451
C62 C 0.79929(14) -0.0052(5) 0.7238(3)
C63 C 0.81352(14) 0.0963(5) 0.7477(3)
C64 C 0.80342(15) 0.2025(5) 0.7244(3)
H68 H 0.812123 0.272578 0.740469
C65 C 0.78070(16) 0.2074(6) 0.6778(3)
C66 C 0.79547(18) -0.2133(6) 0.7288(3)
H69 H 0.800000 -0.226099 0.686635
H70 H 0.771458 -0.210040 0.733519
C67 C 0.8098(3) -0.3085(7) 0.7650(5)
H71 H 0.832970 -0.317796 0.755835
H72 H 0.798084 -0.381064 0.756326
H73 H 0.807781 -0.289559 0.806850
C68 C 0.83893(14) 0.0889(5) 0.7977(3)
H74 H 0.838911 0.162724 0.820026
H75 H 0.832697 0.025827 0.824860
C69 C 0.87310(14) 0.0661(5) 0.7763(2)
C70 C 0.88682(15) -0.0440(5) 0.7784(3)
H76 H 0.874676 -0.106323 0.794539
C71 C 0.91803(15) -0.0653(5) 0.7575(3)
C72 C 0.93672(14) 0.0249(5) 0.7346(3)
C73 C 0.92337(14) 0.1355(5) 0.7339(3)
H77 H 0.936030 0.198499 0.719762
C74 C 0.89179(14) 0.1569(5) 0.7534(3)
C75 C 0.91881(17) -0.2622(5) 0.7931(3)
H78 H 0.896982 -0.284986 0.777203
H79 H 0.916401 -0.234353 0.834065
C76 C 0.94231(19) -0.3639(6) 0.7914(4)
H80 H 0.945467 -0.387210 0.750393
H81 H 0.933266 -0.429335 0.813362
H82 H 0.963412 -0.341082 0.809256
C77 C 0.89602(17) 0.3609(5) 0.7326(3)
H83 H 0.903595 0.345221 0.692277
H84 H 0.915454 0.373693 0.758653
C78 C 0.8744(2) 0.4660(6) 0.7326(4)
H85 H 0.855403 0.452807 0.706357
H86 H 0.886707 0.533510 0.718867
H87 H 0.866965 0.480514 0.772684
C79 C 0.96990(15) 0.0035(6) 0.7083(3)
H88 H 0.979576 -0.067910 0.725730
H89 H 0.984638 0.069304 0.718250
C80 C 0.96726(14) -0.0098(5) 0.6419(3)
C81 C 0.96059(16) -0.1175(6) 0.6168(3)
H90 H 0.958873 -0.183843 0.641422
C82 C 0.95629(17) -0.1304(5) 0.5550(3)
C83 C 0.95805(14) -0.0336(6) 0.5185(3)
C84 C 0.96476(14) 0.0732(6) 0.5439(3)
H91 H 0.966288 0.139733 0.519408
C85 C 0.96934(14) 0.0859(5) 0.6046(3)
C86 C 0.9465(3) -0.3348(7) 0.5627(5)
H92 H 0.928026 -0.326569 0.589789
H93 H 0.966831 -0.348929 0.586330
C87 C 0.9403(4) -0.4329(8) 0.5200(6)
H94 H 0.954530 -0.423900 0.486112
H95 H 0.917368 -0.431492 0.506631
H96 H 0.945097 -0.507153 0.539564
C88 C 0.98041(18) 0.2914(6) 0.5958(3)
H97 H 0.960002 0.308760 0.573142
H98 H 0.998283 0.278786 0.567779
C89 C 0.9889(2) 0.3901(7) 0.6372(4)
H99 H 0.991221 0.462088 0.614652
H100 H 1.009485 0.372825 0.658324
H101 H 0.971340 0.399516 0.665627
C90 C 0.95296(16) -0.0447(7) 0.4528(3)
H102 H 0.959307 -0.123895 0.440375
H103 H 0.967314 0.011423 0.432793
C91 C 0.91752(16) -0.0223(6) 0.4339(3)
C92 C 0.89459(17) -0.1123(6) 0.4325(3)
H104 H 0.901330 -0.188595 0.443175
C93 C 0.86210(17) -0.0926(6) 0.4157(3)
C94 C 0.85202(15) 0.0183(6) 0.3995(3)
C95 C 0.87465(16) 0.1078(6) 0.4008(3)
H105 H 0.867940 0.183790 0.389402
C96 C 0.90706(16) 0.0886(6) 0.4184(3)
C97 C 0.8476(2) -0.2925(7) 0.4322(4)
H106 H 0.857500 -0.292307 0.472365
H107 H 0.863629 -0.325172 0.404639
C98 C 0.8158(3) -0.3639(8) 0.4305(5)
H108 H 0.805577 -0.358616 0.391129
H109 H 0.800800 -0.333333 0.459689
H110 H 0.820883 -0.445331 0.439491
C99 C 0.9220(2) 0.2857(7) 0.3992(4)
H111 H 0.906824 0.323874 0.426673
H112 H 0.911036 0.280675 0.359955
C100 C 0.9537(2) 0.3549(8) 0.3956(5)
H113 H 0.968498 0.315984 0.368454
H114 H 0.964200 0.359567 0.434746
H115 H 0.948874 0.433401 0.381132
C101 C 0.7703(5) 0.4138(17) 0.6922(9)
H116 H 0.761483 0.392172 0.730931
H117 H 0.792908 0.442742 0.698395
C102 C 0.7500(5) 0.5039(14) 0.6652(10)
H118 H 0.761603 0.538454 0.632133
H119 H 0.745521 0.564142 0.694397
H120 H 0.729361 0.469933 0.650798
O21 O 0.6139(3) 0.0725(11) 0.3504(5)
C105 C 0.6064(4) 0.1674(12) 0.3507(6)
C106 C 0.6269(3) 0.2622(9) 0.3377(4)
C107 C 0.6200(2) 0.3690(9) 0.3737(4)
C108 C 0.6410(2) 0.4716(8) 0.3585(3)
C109 C 0.6342(3) 0.5826(12) 0.3920(5)
C110 C 0.6553(3) 0.6898(11) 0.3751(5)
O22 O 0.8663(11) 0.388(4) 0.5651(18)
C111 C 0.8635(7) -0.239(2) 0.6154(12)
C112 C 0.8547(5) -0.1177(16) 0.5927(8)
C113 C 0.8712(5) 0.0017(18) 0.5995(9)
C114 C 0.8603(5) 0.1013(19) 0.5773(8)
C115 C 0.8761(6) 0.204(2) 0.5816(10)
C116 C 0.8619(12) 0.294(4) 0.572(2)
C103? C 0.7809(12) 0.410(4) 0.6695(19)
H121? H 0.804939 0.413665 0.665551
H122? H 0.775714 0.422568 0.711403
C104? C 0.7643(10) 0.504(3) 0.6309(18)
H123? H 0.776889 0.516031 0.595180
H124? H 0.763359 0.577389 0.652994
H125? H 0.741975 0.479674 0.619918
loop_
_geom_bond_atom_site_label_1
_geom_bond_atom_site_label_2
_geom_bond_site_symmetry_1
_geom_bond_site_symmetry_2
O1 C4 1_555 1_555
O2 C7 1_555 1_555
O3 C11 1_555 1_555
O4 C14 1_555 1_555
O5 C22 1_555 1_555
O6 C25 1_555 1_555
O7 C33 1_555 1_555
O8 C36 1_555 1_555
O9 C44 1_555 1_555
O10 C47 1_555 1_555
C1 H1 1_555 1_555
H2 C1 1_555 1_555
C2 C1 1_555 1_555
C3 C2 1_555 1_555
H3 C3 1_555 1_555
C4 C3 1_555 1_555
C5 C4 1_555 1_555
C6 C5 1_555 1_555
H4 C6 1_555 1_555
C7 C2 1_555 1_555
C8 C5 1_555 1_555
H5 C8 1_555 1_555
H6 C8 1_555 1_555
C9 C8 1_555 1_555
C10 C9 1_555 1_555
H7 C10 1_555 1_555
C11 C10 1_555 1_555
C12 C11 1_555 1_555
C13 C12 1_555 1_555
H8 C13 1_555 1_555
C14 C9 1_555 1_555
C15 O3 1_555 1_555
H9 C15 1_555 1_555
H10 C15 1_555 1_555
C16 C15 1_555 1_555
H11 C16 1_555 1_555
H12 C16 1_555 1_555
H13 C16 1_555 1_555
C17 O4 1_555 1_555
H14 C17 1_555 1_555
H15 C17 1_555 1_555
C18 C17 1_555 1_555
H16 C18 1_555 1_555
H17 C18 1_555 1_555
H18 C18 1_555 1_555
C19 C12 1_555 1_555
H19 C19 1_555 1_555
H20 C19 1_555 1_555
C20 C19 1_555 1_555
C21 C20 1_555 1_555
H21 C21 1_555 1_555
C22 C21 1_555 1_555
C23 C22 1_555 1_555
C24 C23 1_555 1_555
H22 C24 1_555 1_555
C25 C20 1_555 1_555
C26 O5 1_555 1_555
H23 C26 1_555 1_555
H24 C26 1_555 1_555
C27 C26 1_555 1_555
H25 C27 1_555 1_555
H26 C27 1_555 1_555
H27 C27 1_555 1_555
C28 O6 1_555 1_555
H28 C28 1_555 1_555
H29 C28 1_555 1_555
C29 C28 1_555 1_555
H30 C29 1_555 1_555
H31 C29 1_555 1_555
H32 C29 1_555 1_555
C30 C23 1_555 1_555
H33 C30 1_555 1_555
H34 C30 1_555 1_555
C31 C30 1_555 1_555
C32 C31 1_555 1_555
H35 C32 1_555 1_555
C33 C32 1_555 1_555
C34 C33 1_555 1_555
C35 C34 1_555 1_555
H36 C35 1_555 1_555
C36 C31 1_555 1_555
C37 O7 1_555 1_555
H37 C37 1_555 1_555
H38 C37 1_555 1_555
C38 C37 1_555 1_555
H39 C38 1_555 1_555
H40 C38 1_555 1_555
H41 C38 1_555 1_555
C39 O8 1_555 1_555
H42 C39 1_555 1_555
H43 C39 1_555 1_555
C40 C39 1_555 1_555
H44 C40 1_555 1_555
H45 C40 1_555 1_555
H46 C40 1_555 1_555
C41 C34 1_555 1_555
H47 C41 1_555 1_555
H48 C41 1_555 1_555
C42 C41 1_555 1_555
C43 C42 1_555 1_555
H49 C43 1_555 1_555
C44 C43 1_555 1_555
C45 C1 1_555 1_555
C46 C45 1_555 1_555
H50 C46 1_555 1_555
C47 C42 1_555 1_555
C48 O9 1_555 1_555
H51 C48 1_555 1_555
H52 C48 1_555 1_555
C49 C48 1_555 1_555
H53 C49 1_555 1_555
H54 C49 1_555 1_555
H55 C49 1_555 1_555
C50 O10 1_555 1_555
H56 C50 1_555 1_555
H57 C50 1_555 1_555
C51 C50 1_555 1_555
H58 C51 1_555 1_555
H59 C51 1_555 1_555
H60 C51 1_555 1_555
O11 C55 1_555 1_555
O12 C58 1_555 1_555
O13 C62 1_555 1_555
O14 C65 1_555 1_555
O15 C71 1_555 1_555
O16 C74 1_555 1_555
O17 C82 1_555 1_555
O18 C85 1_555 1_555
O19 C93 1_555 1_555
O20 C96 1_555 1_555
C52 H61 1_555 1_555
H62 C52 1_555 1_555
C53 C52 1_555 1_555
C54 C53 1_555 1_555
H63 C54 1_555 1_555
C55 C54 1_555 1_555
C56 C55 1_555 1_555
C57 C56 1_555 1_555
H64 C57 1_555 1_555
C58 C53 1_555 1_555
C59 C56 1_555 1_555
H65 C59 1_555 1_555
H66 C59 1_555 1_555
C60 C59 1_555 1_555
C61 C60 1_555 1_555
H67 C61 1_555 1_555
C62 C61 1_555 1_555
C63 C62 1_555 1_555
C64 C63 1_555 1_555
H68 C64 1_555 1_555
C65 C60 1_555 1_555
C66 O13 1_555 1_555
H69 C66 1_555 1_555
H70 C66 1_555 1_555
C67 C66 1_555 1_555
H71 C67 1_555 1_555
H72 C67 1_555 1_555
H73 C67 1_555 1_555
C68 C63 1_555 1_555
H74 C68 1_555 1_555
H75 C68 1_555 1_555
C69 C68 1_555 1_555
C70 C69 1_555 1_555
H76 C70 1_555 1_555
C71 C70 1_555 1_555
C72 C71 1_555 1_555
C73 C72 1_555 1_555
H77 C73 1_555 1_555
C74 C69 1_555 1_555
C75 O15 1_555 1_555
H78 C75 1_555 1_555
H79 C75 1_555 1_555
C76 C75 1_555 1_555
H80 C76 1_555 1_555
H81 C76 1_555 1_555
H82 C76 1_555 1_555
C77 O16 1_555 1_555
H83 C77 1_555 1_555
H84 C77 1_555 1_555
C78 C77 1_555 1_555
H85 C78 1_555 1_555
H86 C78 1_555 1_555
H87 C78 1_555 1_555
C79 C72 1_555 1_555
H88 C79 1_555 1_555
H89 C79 1_555 1_555
C80 C79 1_555 1_555
C81 C80 1_555 1_555
H90 C81 1_555 1_555
C82 C81 1_555 1_555
C83 C82 1_555 1_555
C84 C83 1_555 1_555
H91 C84 1_555 1_555
C85 C80 1_555 1_555
C86 O17 1_555 1_555
H92 C86 1_555 1_555
H93 C86 1_555 1_555
C87 C86 1_555 1_555
H94 C87 1_555 1_555
H95 C87 1_555 1_555
H96 C87 1_555 1_555
C88 O18 1_555 1_555
H97 C88 1_555 1_555
H98 C88 1_555 1_555
C89 C88 1_555 1_555
H99 C89 1_555 1_555
H100 C89 1_555 1_555
H101 C89 1_555 1_555
C90 C83 1_555 1_555
H102 C90 1_555 1_555
H103 C90 1_555 1_555
C91 C90 1_555 1_555
C92 C91 1_555 1_555
H104 C92 1_555 1_555
C93 C92 1_555 1_555
C94 C52 1_555 1_555
C95 C94 1_555 1_555
H105 C95 1_555 1_555
C96 C91 1_555 1_555
C97 O19 1_555 1_555
H106 C97 1_555 1_555
H107 C97 1_555 1_555
C98 C97 1_555 1_555
H108 C98 1_555 1_555
H109 C98 1_555 1_555
H110 C98 1_555 1_555
C99 O20 1_555 1_555
H111 C99 1_555 1_555
H112 C99 1_555 1_555
C100 C99 1_555 1_555
H113 C100 1_555 1_555
H114 C100 1_555 1_555
H115 C100 1_555 1_555
C101 O14 1_555 1_555
H116 C101 1_555 1_555
H117 C101 1_555 1_555
C102 C101 1_555 1_555
H118 C102 1_555 1_555
H119 C102 1_555 1_555
H120 C102 1_555 1_555
O21 C105 1_555 1_555
C105 C106 1_555 1_555
C106 C107 1_555 1_555
C107 C108 1_555 1_555
C108 C109 1_555 1_555
C109 C110 1_555 1_555
O22 C116 1_555 1_555
C111 C112 1_555 1_555
C112 C113 1_555 1_555
C113 C114 1_555 1_555
C114 C115 1_555 1_555
C115 C116 1_555 1_555
C6 C7 1_555 1_555
C13 C14 1_555 1_555
C24 C25 1_555 1_555
C35 C36 1_555 1_555
C44 C45 1_555 1_555
C46 C47 1_555 1_555
C57 C58 1_555 1_555
C64 C65 1_555 1_555
C73 C74 1_555 1_555
C84 C85 1_555 1_555
C93 C94 1_555 1_555
C95 C96 1_555 1_555

#END
