
#######################################################################
#
#                 Cambridge Crystallographic Data Centre
#                                CCDC 
#
#######################################################################
#
# If this CIF has been generated from an entry in the Cambridge 
# Structural Database, then it will include bibliographic, chemical, 
# crystal, experimental, refinement or atomic coordinate data resulting 
# from the CCDC's data processing and validation procedures.
#
#######################################################################

data_VIKPUA
_chemical_formula_moiety         'C19 H20 F2 N2 O2'
_chemical_name_systematic        
4-Benzyl-5-(2-amino-1,1-difluoro-3-phenylpropyl)-1,3-oxazolidin-2-one
_symmetry_cell_setting           monoclinic
_symmetry_space_group_name_H-M   'P 21'
_symmetry_Int_Tables_number      4
_space_group_name_Hall           'P 2yb'
loop_
_symmetry_equiv_pos_site_id
_symmetry_equiv_pos_as_xyz
1 x,y,z
2 -x,1/2+y,-z
_cell_length_a                   5.533(3)
_cell_length_b                   11.360(2)
_cell_length_c                   14.010(4)
_cell_angle_alpha                90
_cell_angle_beta                 98.79(4)
_cell_angle_gamma                90
_cell_volume                     870.254
_cell_formula_units_Z            2
loop_
_atom_site_label
_atom_site_type_symbol
_atom_site_fract_x
_atom_site_fract_y
_atom_site_fract_z
F1 F 0.1027(3) 0.1257 0.8488(1)
F2 F -0.0691(4) 0.2959(3) 0.8133(1)
O1 O -0.3598(3) 0.2731(3) 0.9542(2)
O2 O -0.4360(4) 0.4517(3) 1.0095(2)
N1 N -0.3496(5) 0.0101(3) 0.8164(2)
N2 N -0.0503(5) 0.3725(3) 1.0333(2)
C1 C -0.0236(6) 0.1750(4) 1.1769(2)
C2 C -0.0742(8) 0.2632(5) 1.2408(3)
C3 C -0.241(1) 0.2474(7) 1.3019(3)
C4 C -0.363(1) 0.1426(9) 1.3016(4)
C5 C -0.318(1) 0.0538(7) 1.2392(5)
C6 C -0.1522(8) 0.0707(5) 1.1775(3)
C7 C 0.1595(7) 0.1951(4) 1.1100(3)
C8 C 0.0630(5) 0.2614(4) 1.0167(2)
C9 C -0.1500(5) 0.1996(4) 0.9524(2)
C10 C -0.1124(6) 0.1872(4) 0.8482(2)
C11 C -0.3141(6) 0.1278(3) 0.7797(2)
C12 C -0.2458(7) 0.1204(5) 0.6781(2)
C13 C -0.4508(6) 0.0758(4) 0.6030(2)
C14 C -0.6588(8) 0.1397(6) 0.5769(3)
C15 C -0.843(1) 0.102(1) 0.5051(4)
C16 C -0.817(1) -0.0011(8) 0.4593(4)
C17 C -0.617(1) -0.0679(6) 0.4857(4)
C18 C -0.430(1) -0.0289(5) 0.5559(3)
C19 C -0.2902(6) 0.3753(4) 1.0019(2)
H1 H -0.417(7) -0.036(4) 0.764(3)
H2 H -0.446(6) 0.014(3) 0.862(3)
H3 H 0.020(7) 0.422(4) 1.074(3)
H4 H -0.09(1) 0.003(5) 1.125(4)
H5 H -0.48(1) 0.121(5) 1.338(4)
H6 H 0.01(1) 0.340(6) 1.241(4)
H7 H 0.225(6) 0.122(3) 1.095(2)
H8 H 0.299(7) 0.246(4) 1.143(3)
H9 H 0.181(7) 0.270(4) 0.980(3)
H10 H -0.183(5) 0.127(3) 0.972(2)
H11 H -0.121(7) 0.081(4) 0.684(3)
H12 H -0.195(7) 0.201(4) 0.663(3)
H13 H -0.302(8) -0.071(4) 0.571(3)
H14 H -0.678(7) 0.209(5) 0.608(3)
H15 H -0.56(2) -0.13(1) 0.428(8)
H16 H -0.452(6) 0.180(3) 0.777(2)
H17 H -0.262(8) 0.307(4) 1.342(4)
H18 H -0.41(1) -0.014(6) 1.238(4)
H19 H -0.95(1) 0.150(5) 0.489(4)
loop_
_geom_bond_atom_site_label_1
_geom_bond_atom_site_label_2
_geom_bond_site_symmetry_1
_geom_bond_site_symmetry_2
F1 C10 1_555 1_555
F2 C10 1_555 1_555
O1 C9 1_555 1_555
O2 C19 1_555 1_555
N1 C11 1_555 1_555
N2 C8 1_555 1_555
C1 C2 1_555 1_555
C2 C3 1_555 1_555
C3 C4 1_555 1_555
C4 C5 1_555 1_555
C5 C6 1_555 1_555
C6 C1 1_555 1_555
C7 C1 1_555 1_555
C8 C7 1_555 1_555
C9 C8 1_555 1_555
C10 C9 1_555 1_555
C11 C10 1_555 1_555
C12 C11 1_555 1_555
C13 C12 1_555 1_555
C14 C13 1_555 1_555
C15 C14 1_555 1_555
C16 C15 1_555 1_555
C17 C16 1_555 1_555
C18 C13 1_555 1_555
C19 O1 1_555 1_555
H1 N1 1_555 1_555
H2 N1 1_555 1_555
H3 N2 1_555 1_555
H4 C6 1_555 1_555
H5 C4 1_555 1_555
H6 C2 1_555 1_555
H7 C7 1_555 1_555
H8 C7 1_555 1_555
H9 C8 1_555 1_555
H10 C9 1_555 1_555
H11 C12 1_555 1_555
H12 C12 1_555 1_555
H13 C18 1_555 1_555
H14 C14 1_555 1_555
H15 C17 1_555 1_555
H16 C11 1_555 1_555
H17 C3 1_555 1_555
H18 C5 1_555 1_555
H19 C15 1_555 1_555
N2 C19 1_555 1_555
C17 C18 1_555 1_555

#END
