
#######################################################################
#
#                 Cambridge Crystallographic Data Centre
#                                CCDC 
#
#######################################################################
#
# If this CIF has been generated from an entry in the Cambridge 
# Structural Database, then it will include bibliographic, chemical, 
# crystal, experimental, refinement or atomic coordinate data resulting 
# from the CCDC's data processing and validation procedures.
#
#######################################################################

data_VIKQUE
_chemical_formula_moiety         'C16 H18 N4 O1'
_chemical_name_systematic        
'4-(4-amino-7-t-butyl-7H-pyrrolo[2,3-d]pyrimidin-5-yl)phenol unknown solvate'
_symmetry_cell_setting           rhombohedral
_symmetry_space_group_name_H-M   'R -3'
_symmetry_Int_Tables_number      148
_space_group_name_Hall           '-R 3'
loop_
_symmetry_equiv_pos_site_id
_symmetry_equiv_pos_as_xyz
1 x,y,z
2 -y,x-y,z
3 -x+y,-x,z
4 2/3+x,1/3+y,1/3+z
5 2/3-y,1/3+x-y,1/3+z
6 2/3-x+y,1/3-x,1/3+z
7 1/3+x,2/3+y,2/3+z
8 1/3-y,2/3+x-y,2/3+z
9 1/3-x+y,2/3-x,2/3+z
10 -x,-y,-z
11 y,-x+y,-z
12 x-y,x,-z
13 1/3-x,2/3-y,2/3-z
14 1/3+y,2/3-x+y,2/3-z
15 1/3+x-y,2/3+x,2/3-z
16 2/3-x,1/3-y,1/3-z
17 2/3+y,1/3-x+y,1/3-z
18 2/3+x-y,1/3+x,1/3-z
_cell_length_a                   30.092(7)
_cell_length_b                   30.092(7)
_cell_length_c                   10.142(2)
_cell_angle_alpha                90
_cell_angle_beta                 90
_cell_angle_gamma                120
_cell_volume                     7953.46
_exptl_crystal_colour            colorless
_exptl_crystal_description       block
_cell_formula_units_Z            18
loop_
_atom_site_label
_atom_site_type_symbol
_atom_site_fract_x
_atom_site_fract_y
_atom_site_fract_z
O1 O 0.26170(10) -0.07123(9) 0.5219(2)
N1 N 0.29013(10) 0.20207(10) 0.2598(3)
N2 N 0.25733(11) 0.18147(11) 0.0394(3)
N3 N 0.29600(14) 0.14515(15) 0.4000(3)
N4 N 0.23195(12) 0.09450(11) -0.0278(3)
C1 C 0.24953(13) 0.13375(13) 0.0628(3)
C2 C 0.28218(12) 0.15448(13) 0.2802(3)
C3 C 0.26034(12) 0.11741(13) 0.1812(3)
C4 C 0.23211(13) -0.01184(13) 0.4708(3)
H1 H 0.2171 -0.0165 0.5547
C5 C 0.24743(13) 0.06471(13) 0.1620(3)
C6 C 0.25700(13) -0.03866(13) 0.4370(3)
C7 C 0.25119(13) 0.02916(13) 0.2574(3)
C8 C 0.27468(13) 0.00122(13) 0.2237(3)
H2 H 0.2889 0.0050 0.1391
C9 C 0.21211(15) 0.09398(14) -0.1623(3)
C10 C 0.27762(13) -0.03205(13) 0.3118(3)
H3 H 0.2938 -0.0505 0.2865
C11 C 0.22929(13) 0.02140(13) 0.3827(3)
H4 H 0.2123 0.0392 0.4072
C12 C 0.27670(13) 0.21183(14) 0.1414(3)
H5 H 0.2820 0.2451 0.1304
C13 C 0.23090(13) 0.05325(13) 0.0356(3)
H6 H 0.2201 0.0212 -0.0041
C14 C 0.25448(17) 0.13558(16) -0.2448(4)
H7 H 0.2672 0.1685 -0.2017
H8 H 0.2411 0.1366 -0.3311
H9 H 0.2823 0.1283 -0.2545
C15 C 0.16657(17) 0.10257(19) -0.1518(5)
H10 H 0.1404 0.0761 -0.0966
H11 H 0.1527 0.1011 -0.2390
H12 H 0.1776 0.1360 -0.1131
C16 C 0.19551(19) 0.04239(16) -0.2268(4)
H13 H 0.2244 0.0365 -0.2298
H14 H 0.1837 0.0424 -0.3158
H15 H 0.1679 0.0154 -0.1761
H16 H 0.3144(15) 0.1736(16) 0.458(4)
H17 H 0.2981(16) 0.1181(17) 0.412(4)
H18 H 0.2460(17) -0.0778(18) 0.597(3)
loop_
_geom_bond_atom_site_label_1
_geom_bond_atom_site_label_2
_geom_bond_site_symmetry_1
_geom_bond_site_symmetry_2
O1 C6 1_555 1_555
N1 C2 1_555 1_555
N2 C1 1_555 1_555
N3 C2 1_555 1_555
N4 C1 1_555 1_555
C1 C3 1_555 1_555
C2 C3 1_555 1_555
C3 C5 1_555 1_555
C4 H1 1_555 1_555
C5 C7 1_555 1_555
C6 C4 1_555 1_555
C7 C8 1_555 1_555
C8 H2 1_555 1_555
C9 N4 1_555 1_555
C10 C6 1_555 1_555
H3 C10 1_555 1_555
C11 C4 1_555 1_555
H4 C11 1_555 1_555
C12 N1 1_555 1_555
H5 C12 1_555 1_555
C13 N4 1_555 1_555
H6 C13 1_555 1_555
C14 C9 1_555 1_555
H7 C14 1_555 1_555
H8 C14 1_555 1_555
H9 C14 1_555 1_555
C15 C9 1_555 1_555
H10 C15 1_555 1_555
H11 C15 1_555 1_555
H12 C15 1_555 1_555
C16 C9 1_555 1_555
H13 C16 1_555 1_555
H14 C16 1_555 1_555
H15 C16 1_555 1_555
H16 N3 1_555 1_555
H17 N3 1_555 1_555
H18 O1 1_555 1_555
N2 C12 1_555 1_555
C5 C13 1_555 1_555
C7 C11 1_555 1_555
C8 C10 1_555 1_555

#END
