
#######################################################################
#
#                 Cambridge Crystallographic Data Centre
#                                CCDC 
#
#######################################################################
#
# If this CIF has been generated from an entry in the Cambridge 
# Structural Database, then it will include bibliographic, chemical, 
# crystal, experimental, refinement or atomic coordinate data resulting 
# from the CCDC's data processing and validation procedures.
#
#######################################################################

data_VIKRIQ
_chemical_formula_moiety         'C56 H70 N4 O2'
_chemical_name_systematic        
5,15-bis(4-Hydroxymethylphenyl)-10,20-diundecyl-21H,23H-porphine
_symmetry_cell_setting           monoclinic
_symmetry_space_group_name_H-M   'P 21/c'
_symmetry_Int_Tables_number      14
_space_group_name_Hall           '-P 2ybc'
loop_
_symmetry_equiv_pos_site_id
_symmetry_equiv_pos_as_xyz
1 x,y,z
2 x,1/2-y,1/2+z
3 -x,-y,-z
4 -x,1/2+y,1/2-z
_cell_length_a                   14.834(3)
_cell_length_b                   7.9392(16)
_cell_length_c                   20.308(4)
_cell_angle_alpha                90
_cell_angle_beta                 96.03(3)
_cell_angle_gamma                90
_cell_volume                     2378.44
_cell_formula_units_Z            2
loop_
_atom_site_label
_atom_site_type_symbol
_atom_site_fract_x
_atom_site_fract_y
_atom_site_fract_z
O1 O 0.65994(11) 0.87672(17) 0.45991(6)
H1 H 0.6490(19) 0.942(3) 0.4922(13)
N1 N 0.60025(9) 0.43691(16) 0.07421(6)
N2 N 0.47689(10) 0.72806(17) 0.04781(6)
H2 H 0.4892(14) 0.634(3) 0.0263(9)
C1 C 0.41541(11) 0.85035(19) 0.02391(7)
C2 C 0.42021(13) 0.9790(2) 0.07342(8)
H3 H 0.3851(16) 1.077(3) 0.0693(10)
C3 C 0.48250(13) 0.9327(2) 0.12433(8)
H4 H 0.5024(16) 0.997(3) 0.1656(10)
C4 C 0.51924(12) 0.7725(2) 0.10926(7)
C5 C 0.58427(11) 0.6801(2) 0.14942(7)
C6 C 0.61885(11) 0.5213(2) 0.13362(7)
C7 C 0.67298(12) 0.4171(2) 0.18143(8)
H5 H 0.6949(15) 0.444(2) 0.2268(10)
C8 C 0.68738(13) 0.2701(2) 0.15089(8)
H6 H 0.7221(16) 0.173(3) 0.1694(10)
C9 C 0.64170(11) 0.2821(2) 0.08401(7)
C10 C 0.36102(11) 0.84911(19) -0.03715(7)
C11 C 0.61529(12) 0.75279(19) 0.21651(7)
C12 C 0.70558(12) 0.7953(2) 0.23455(8)
H7 H 0.7534(14) 0.779(2) 0.2043(9)
C13 C 0.73406(12) 0.8623(2) 0.29719(8)
H8 H 0.7973(15) 0.894(2) 0.3074(9)
C14 C 0.67141(12) 0.8894(2) 0.34274(7)
C15 C 0.58103(12) 0.8451(2) 0.32517(7)
H9 H 0.5356(15) 0.861(2) 0.3569(9)
C16 C 0.55303(12) 0.7783(2) 0.26277(8)
H10 H 0.4924(16) 0.751(2) 0.2530(9)
C17 C 0.29906(12) 1.0003(2) -0.05237(8)
H11 H 0.2989(14) 1.031(2) -0.0998(9)
H12 H 0.3250(14) 1.103(3) -0.0264(9)
C18 C 0.20141(14) 0.9638(2) -0.03717(11)
H13 H 0.2042(17) 0.893(3) 0.0031(11)
H14 H 0.1689(19) 0.889(3) -0.0742(12)
C19 C 0.14621(15) 1.1232(3) -0.02723(10)
H15 H 0.0848(17) 1.093(3) -0.0156(10)
H16 H 0.1769(18) 1.185(3) 0.0143(11)
C20 C 0.13581(15) 1.2469(3) -0.08438(10)
H17 H 0.1963(18) 1.288(3) -0.0945(10)
H18 H 0.1088(18) 1.186(3) -0.1238(11)
C21 C 0.07591(16) 1.3962(3) -0.07056(10)
H19 H 0.108(2) 1.460(3) -0.0280(13)
H20 H 0.0157(19) 1.354(3) -0.0575(11)
C22 C 0.05938(16) 1.5245(3) -0.12610(10)
H21 H 0.0294(19) 1.464(3) -0.1681(12)
H22 H 0.117(2) 1.571(3) -0.1384(12)
C23 C -0.00126(15) 1.6683(3) -0.10882(10)
H23 H 0.0299(19) 1.726(3) -0.0664(12)
H24 H -0.0633(19) 1.621(3) -0.0972(11)
C24 C -0.02044(16) 1.8022(3) -0.16225(10)
H25 H -0.0512(18) 1.743(3) -0.2051(11)
H26 H 0.0391(19) 1.850(3) -0.1761(11)
C25 C -0.08144(16) 1.9436(3) -0.14200(10)
H27 H -0.1402(19) 1.892(3) -0.1284(11)
H28 H -0.048(2) 2.003(3) -0.1002(13)
C26 C -0.1060(2) 2.0748(3) -0.19464(11)
H29 H -0.141(2) 2.013(4) -0.2381(14)
H30 H -0.048(3) 2.126(4) -0.2079(15)
C27 C -0.1683(3) 2.2111(4) -0.17248(16)
H31 H -0.138(3) 2.263(4) -0.1356(18)
H32 H -0.181(3) 2.294(4) -0.2067(17)
H33 H -0.225(4) 2.149(5) -0.155(2)
C28 C 0.70064(14) 0.9666(2) 0.41025(8)
H34 H 0.6816(14) 1.090(3) 0.4100(9)
H35 H 0.769(2) 0.966(3) 0.4188(11)
C9B C 0.35830(11) 0.7179(2) -0.08401(7)
N1B N 0.39975(9) 0.56309(16) -0.07421(6)
C6B C 0.38115(11) 0.4787(2) -0.13362(7)
C5B C 0.41573(11) 0.3199(2) -0.14942(7)
C4B C 0.48076(12) 0.2275(2) -0.10926(7)
N2B N 0.52311(10) 0.27194(17) -0.04781(6)
H2B H 0.5108(14) 0.366(3) -0.0263(9)
C1B C 0.58459(11) 0.14965(19) -0.02391(7)
C2B C 0.57979(13) 0.0210(2) -0.07342(8)
H3B H 0.6149(16) -0.077(3) -0.0693(10)
C3B C 0.51750(13) 0.0673(2) -0.12433(8)
H4B H 0.4976(16) 0.003(3) -0.1656(10)
C10B C 0.63898(11) 0.15089(19) 0.03715(7)
C17B C 0.70094(12) -0.0003(2) 0.05237(8)
H11B H 0.7011(14) -0.031(2) 0.0998(9)
H12B H 0.6750(14) -0.103(3) 0.0264(9)
C18B C 0.79859(14) 0.0362(2) 0.03717(11)
H13B H 0.7958(17) 0.107(3) -0.0031(11)
H14B H 0.8311(19) 0.111(3) 0.0742(12)
C19B C 0.85379(15) -0.1232(3) 0.02723(10)
H15B H 0.9152(17) -0.093(3) 0.0156(10)
H16B H 0.8231(18) -0.185(3) -0.0143(11)
C20B C 0.86419(15) -0.2469(3) 0.08438(10)
H17B H 0.8037(18) -0.288(3) 0.0945(10)
H18B H 0.8912(18) -0.186(3) 0.1238(11)
C21B C 0.92409(16) -0.3962(3) 0.07056(10)
H19B H 0.892(2) -0.460(3) 0.0280(13)
H20B H 0.9843(19) -0.354(3) 0.0575(11)
C22B C 0.94062(16) -0.5245(3) 0.12610(10)
H21B H 0.9706(19) -0.464(3) 0.1681(12)
H22B H 0.883(2) -0.571(3) 0.1384(12)
C23B C 1.00126(15) -0.6683(3) 0.10882(10)
H23B H 0.9701(19) -0.726(3) 0.0664(12)
H24B H 1.0633(19) -0.621(3) 0.0972(11)
C24B C 1.02044(16) -0.8022(3) 0.16225(10)
H25B H 1.0512(18) -0.743(3) 0.2051(11)
H26B H 0.9609(19) -0.850(3) 0.1761(11)
C25B C 1.08144(16) -0.9436(3) 0.14200(10)
H27B H 1.1402(19) -0.892(3) 0.1284(11)
H28B H 1.048(2) -1.003(3) 0.1002(13)
C26B C 1.1060(2) -1.0748(3) 0.19464(11)
H29B H 1.141(2) -1.013(4) 0.2381(14)
H30B H 1.048(3) -1.126(4) 0.2079(15)
C27B C 1.1683(3) -1.2111(4) 0.17248(16)
H31B H 1.138(3) -1.263(4) 0.1356(18)
H32B H 1.181(3) -1.294(4) 0.2067(17)
H33B H 1.225(4) -1.149(5) 0.155(2)
C11B C 0.38471(12) 0.24721(19) -0.21651(7)
C12B C 0.29442(12) 0.2047(2) -0.23455(8)
H7B H 0.2466(14) 0.221(2) -0.2043(9)
C13B C 0.26594(12) 0.1377(2) -0.29719(8)
H8B H 0.2027(15) 0.106(2) -0.3074(9)
C14B C 0.32859(12) 0.1106(2) -0.34274(7)
C15B C 0.41897(12) 0.1549(2) -0.32517(7)
H9B H 0.4644(15) 0.139(2) -0.3569(9)
C16B C 0.44697(12) 0.2217(2) -0.26277(8)
H10B H 0.5076(16) 0.249(2) -0.2530(9)
C28B C 0.29936(14) 0.0334(2) -0.41025(8)
O1B O 0.34006(11) 0.12328(17) -0.45991(6)
H1B H 0.3510(19) 0.058(3) -0.4922(13)
H34B H 0.3184(14) -0.090(3) -0.4100(9)
H35B H 0.231(2) 0.034(3) -0.4188(11)
C7B C 0.32702(12) 0.5829(2) -0.18143(8)
H5B H 0.3051(15) 0.556(2) -0.2268(10)
C8B C 0.31262(13) 0.7299(2) -0.15089(8)
H6B H 0.2779(16) 0.827(3) -0.1694(10)
loop_
_geom_bond_atom_site_label_1
_geom_bond_atom_site_label_2
_geom_bond_site_symmetry_1
_geom_bond_site_symmetry_2
O1 H1 1_555 1_555
N1 C6 1_555 1_555
N2 H2 1_555 1_555
C1 N2 1_555 1_555
C2 C1 1_555 1_555
H3 C2 1_555 1_555
C3 C2 1_555 1_555
H4 C3 1_555 1_555
C4 N2 1_555 1_555
C5 C4 1_555 1_555
C6 C5 1_555 1_555
C7 C6 1_555 1_555
H5 C7 1_555 1_555
C8 C7 1_555 1_555
H6 C8 1_555 1_555
C9 N1 1_555 1_555
C10 C1 1_555 1_555
C11 C5 1_555 1_555
C12 C11 1_555 1_555
H7 C12 1_555 1_555
C13 C12 1_555 1_555
H8 C13 1_555 1_555
C14 C13 1_555 1_555
C15 C14 1_555 1_555
H9 C15 1_555 1_555
C16 C11 1_555 1_555
H10 C16 1_555 1_555
C17 C10 1_555 1_555
H11 C17 1_555 1_555
H12 C17 1_555 1_555
C18 C17 1_555 1_555
H13 C18 1_555 1_555
H14 C18 1_555 1_555
C19 C18 1_555 1_555
H15 C19 1_555 1_555
H16 C19 1_555 1_555
C20 C19 1_555 1_555
H17 C20 1_555 1_555
H18 C20 1_555 1_555
C21 C20 1_555 1_555
H19 C21 1_555 1_555
H20 C21 1_555 1_555
C22 C21 1_555 1_555
H21 C22 1_555 1_555
H22 C22 1_555 1_555
C23 C22 1_555 1_555
H23 C23 1_555 1_555
H24 C23 1_555 1_555
C24 C23 1_555 1_555
H25 C24 1_555 1_555
H26 C24 1_555 1_555
C25 C24 1_555 1_555
H27 C25 1_555 1_555
H28 C25 1_555 1_555
C26 C25 1_555 1_555
H29 C26 1_555 1_555
H30 C26 1_555 1_555
C27 C26 1_555 1_555
H31 C27 1_555 1_555
H32 C27 1_555 1_555
H33 C27 1_555 1_555
C28 O1 1_555 1_555
H34 C28 1_555 1_555
H35 C28 1_555 1_555
C9B C10 1_555 1_555
N1B C9B 1_555 1_555
C6B N1B 1_555 1_555
C5B C6B 1_555 1_555
C4B C5B 1_555 1_555
N2B C4B 1_555 1_555
H2B N2B 1_555 1_555
C1B N2B 1_555 1_555
C2B C1B 1_555 1_555
H3B C2B 1_555 1_555
C3B C4B 1_555 1_555
H4B C3B 1_555 1_555
C10B C9 1_555 1_555
C17B C10B 1_555 1_555
H11B C17B 1_555 1_555
H12B C17B 1_555 1_555
C18B C17B 1_555 1_555
H13B C18B 1_555 1_555
H14B C18B 1_555 1_555
C19B C18B 1_555 1_555
H15B C19B 1_555 1_555
H16B C19B 1_555 1_555
C20B C19B 1_555 1_555
H17B C20B 1_555 1_555
H18B C20B 1_555 1_555
C21B C20B 1_555 1_555
H19B C21B 1_555 1_555
H20B C21B 1_555 1_555
C22B C21B 1_555 1_555
H21B C22B 1_555 1_555
H22B C22B 1_555 1_555
C23B C22B 1_555 1_555
H23B C23B 1_555 1_555
H24B C23B 1_555 1_555
C24B C23B 1_555 1_555
H25B C24B 1_555 1_555
H26B C24B 1_555 1_555
C25B C24B 1_555 1_555
H27B C25B 1_555 1_555
H28B C25B 1_555 1_555
C26B C25B 1_555 1_555
H29B C26B 1_555 1_555
H30B C26B 1_555 1_555
C27B C26B 1_555 1_555
H31B C27B 1_555 1_555
H32B C27B 1_555 1_555
H33B C27B 1_555 1_555
C11B C5B 1_555 1_555
C12B C11B 1_555 1_555
H7B C12B 1_555 1_555
C13B C12B 1_555 1_555
H8B C13B 1_555 1_555
C14B C13B 1_555 1_555
C15B C14B 1_555 1_555
H9B C15B 1_555 1_555
C16B C11B 1_555 1_555
H10B C16B 1_555 1_555
C28B C14B 1_555 1_555
O1B C28B 1_555 1_555
H1B O1B 1_555 1_555
H34B C28B 1_555 1_555
H35B C28B 1_555 1_555
C7B C6B 1_555 1_555
H5B C7B 1_555 1_555
C8B C9B 1_555 1_555
H6B C8B 1_555 1_555
C3 C4 1_555 1_555
C8 C9 1_555 1_555
C14 C28 1_555 1_555
C15 C16 1_555 1_555
C1B C10B 1_555 1_555
C2B C3B 1_555 1_555
C15B C16B 1_555 1_555
C7B C8B 1_555 1_555

#END
