
#######################################################################
#
#                 Cambridge Crystallographic Data Centre
#                                CCDC 
#
#######################################################################
#
# If this CIF has been generated from an entry in the Cambridge 
# Structural Database, then it will include bibliographic, chemical, 
# crystal, experimental, refinement or atomic coordinate data resulting 
# from the CCDC's data processing and validation procedures.
#
#######################################################################

data_VIKRAL
_chemical_formula_moiety         'C15 H17 N5 O1'
_chemical_name_systematic        
4-(4-amino-1-t-butyl-1H-pyrazolo[3,4-d]pyrimidin-3-yl)phenol
_symmetry_cell_setting           triclinic
_symmetry_space_group_name_H-M   'P -1'
_symmetry_Int_Tables_number      2
_space_group_name_Hall           '-P 1'
loop_
_symmetry_equiv_pos_site_id
_symmetry_equiv_pos_as_xyz
1 x,y,z
2 -x,-y,-z
_cell_length_a                   6.0869(2)
_cell_length_b                   10.8484(4)
_cell_length_c                   11.8744(5)
_cell_angle_alpha                72.402(2)
_cell_angle_beta                 77.851(2)
_cell_angle_gamma                82.678(2)
_cell_volume                     728.954
_exptl_crystal_colour            colorless
_exptl_crystal_description       block
_cell_formula_units_Z            2
loop_
_atom_site_label
_atom_site_type_symbol
_atom_site_fract_x
_atom_site_fract_y
_atom_site_fract_z
O1 O 0.74294(19) -0.11939(8) 0.88219(9)
H1 H 0.6624 -0.1457 0.8460
N1 N 0.82528(18) 0.61913(10) 0.68681(10)
N2 N 0.87466(19) 0.49056(10) 0.69032(10)
N3 N 0.51695(19) 0.74476(10) 0.78083(10)
N4 N 0.2445(2) 0.38923(11) 0.95437(10)
N5 N 0.22236(19) 0.61128(10) 0.91063(10)
C1 C 0.7146(2) 0.28261(12) 0.79291(11)
C2 C 0.5434(2) 0.51042(11) 0.81225(11)
C3 C 0.7083(2) 0.42530(12) 0.76577(11)
C4 C 0.3359(2) 0.50107(12) 0.89329(11)
C5 C 0.6240(2) 0.63362(12) 0.75928(11)
C6 C 0.5454(2) 0.22201(12) 0.77138(12)
H2 H 0.4236 0.2731 0.7378
C7 C 0.7291(2) 0.01309(12) 0.84791(11)
C8 C 0.8925(2) 0.20608(12) 0.84000(12)
H3 H 1.0101 0.2458 0.8543
C9 C 0.9009(2) 0.07264(13) 0.86637(12)
H4 H 1.0253 0.0216 0.8973
C10 C 0.3209(2) 0.72273(12) 0.85511(12)
H5 H 0.2376 0.7976 0.8714
C11 C 0.9559(2) 0.71713(12) 0.58599(12)
C12 C 0.5524(2) 0.08823(13) 0.79836(13)
H6 H 0.4364 0.0481 0.7829
C13 C 1.1921(2) 0.65666(15) 0.55498(14)
H7 H 1.2624 0.6290 0.6265
H8 H 1.2826 0.7206 0.4914
H9 H 1.1835 0.5814 0.5271
C14 C 0.8358(3) 0.75119(16) 0.47928(13)
H10 H 0.8278 0.6727 0.4561
H11 H 0.9192 0.8146 0.4116
H12 H 0.6830 0.7882 0.5014
C15 C 0.9692(3) 0.83713(14) 0.62482(14)
H13 H 0.8198 0.8829 0.6335
H14 H 1.0753 0.8946 0.5641
H15 H 1.0211 0.8111 0.7019
H16 H 0.102(3) 0.3894(15) 1.0023(15)
H17 H 0.317(3) 0.3136(16) 0.9494(14)
loop_
_geom_bond_atom_site_label_1
_geom_bond_atom_site_label_2
_geom_bond_site_symmetry_1
_geom_bond_site_symmetry_2
O1 H1 1_555 1_555
N1 N2 1_555 1_555
N2 C3 1_555 1_555
N3 C5 1_555 1_555
N4 C4 1_555 1_555
N5 C4 1_555 1_555
C1 C3 1_555 1_555
C2 C3 1_555 1_555
C4 C2 1_555 1_555
C5 N1 1_555 1_555
C6 C1 1_555 1_555
H2 C6 1_555 1_555
C7 O1 1_555 1_555
C8 C1 1_555 1_555
H3 C8 1_555 1_555
C9 C7 1_555 1_555
H4 C9 1_555 1_555
C10 N3 1_555 1_555
H5 C10 1_555 1_555
C11 N1 1_555 1_555
C12 C6 1_555 1_555
H6 C12 1_555 1_555
C13 C11 1_555 1_555
H7 C13 1_555 1_555
H8 C13 1_555 1_555
H9 C13 1_555 1_555
C14 C11 1_555 1_555
H10 C14 1_555 1_555
H11 C14 1_555 1_555
H12 C14 1_555 1_555
C15 C11 1_555 1_555
H13 C15 1_555 1_555
H14 C15 1_555 1_555
H15 C15 1_555 1_555
H16 N4 1_555 1_555
H17 N4 1_555 1_555
N5 C10 1_555 1_555
C2 C5 1_555 1_555
C7 C12 1_555 1_555
C8 C9 1_555 1_555

#END
