
#######################################################################
#
#                 Cambridge Crystallographic Data Centre
#                                CCDC 
#
#######################################################################
#
# If this CIF has been generated from an entry in the Cambridge 
# Structural Database, then it will include bibliographic, chemical, 
# crystal, experimental, refinement or atomic coordinate data resulting 
# from the CCDC's data processing and validation procedures.
#
#######################################################################

data_VIKTER
_chemical_formula_moiety         '2(C8 H12 N1 1+),C8 H4 O4 2-'
_chemical_name_systematic        
'bis((R)-1-phenylethan-1-aminium) benzene-1,4-dicarboxylate'
_symmetry_cell_setting           monoclinic
_symmetry_space_group_name_H-M   'P 21'
_symmetry_Int_Tables_number      4
_space_group_name_Hall           'P 2yb'
loop_
_symmetry_equiv_pos_site_id
_symmetry_equiv_pos_as_xyz
1 x,y,z
2 -x,1/2+y,-z
_cell_length_a                   9.6460(3)
_cell_length_b                   6.2241(2)
_cell_length_c                   18.4016(5)
_cell_angle_alpha                90
_cell_angle_beta                 90.769(2)
_cell_angle_gamma                90
_cell_volume                     1104.69
_exptl_crystal_colour            colorless
_exptl_crystal_description       block
_cell_formula_units_Z            2
_exptl_crystal_preparation       Luminescent
loop_
_atom_site_label
_atom_site_type_symbol
_atom_site_fract_x
_atom_site_fract_y
_atom_site_fract_z
O1 O 0.55221(13) 0.4608(2) 0.91720(7)
O2 O 0.66628(17) 0.1548(2) 0.89603(8)
O3 O 0.93117(13) 0.6087(2) 0.57724(7)
O4 O 0.91466(16) 0.9300(2) 0.62984(7)
C1 C 0.63571(18) 0.3443(3) 0.88164(9)
C2 C 0.70467(17) 0.4482(3) 0.81646(8)
C3 C 0.67694(18) 0.6625(3) 0.79754(9)
H1 H 0.615565 0.746243 0.825891
C4 C 0.73987(18) 0.7516(3) 0.73704(9)
H2 H 0.721740 0.896963 0.724379
C5 C 0.82972(17) 0.6291(3) 0.69461(8)
C6 C 0.85703(17) 0.4159(3) 0.71356(9)
H3 H 0.917657 0.331585 0.684963
C7 C 0.79508(17) 0.3275(3) 0.77451(9)
H4 H 0.814708 0.182937 0.787666
C8 C 0.89667(17) 0.7312(3) 0.62919(9)
N1 N 0.34593(14) 0.3207(2) 1.00630(7)
H5 H 0.408143 0.347743 0.970700
H6 H 0.370962 0.198983 1.030521
H7 H 0.344534 0.433132 1.037896
C9 C 0.20444(17) 0.2915(3) 0.97297(9)
H8 H 0.175125 0.431765 0.951183
C10 C 0.10231(19) 0.2350(4) 1.03317(10)
H9 H 0.126413 0.094502 1.053811
H10 H 0.007984 0.229837 1.012794
H11 H 0.107267 0.344479 1.071386
C11 C 0.20378(16) 0.1234(3) 0.91267(9)
C12 C 0.10860(19) 0.1482(3) 0.85529(10)
H12 H 0.052290 0.273305 0.852837
C13 C 0.0957(2) -0.0088(4) 0.80172(11)
H13 H 0.029536 0.008473 0.763445
C14 C 0.1789(2) -0.1900(4) 0.80403(10)
H14 H 0.169849 -0.297359 0.767564
C15 C 0.2759(2) -0.2139(3) 0.86020(11)
H15 H 0.334566 -0.336560 0.861464
C16 C 0.28741(19) -0.0588(3) 0.91454(10)
H16 H 0.352747 -0.077445 0.953110
N2 N 0.86170(15) 1.2142(3) 0.52019(8)
H17 H 0.921594 1.205539 0.482518
H18 H 0.876293 1.101747 0.550938
H19 H 0.875904 1.339750 0.544543
C17 C 0.71518(18) 1.2072(3) 0.49141(10)
H20 H 0.690930 1.353463 0.472725
C18 C 0.6184(2) 1.1554(5) 0.55412(13)
H21 H 0.638578 1.010854 0.572504
H22 H 0.521918 1.161897 0.536837
H23 H 0.632539 1.260363 0.593222
C19 C 0.70146(19) 1.0498(3) 0.42875(10)
C20 C 0.6167(2) 1.1012(4) 0.36944(12)
H24 H 0.569645 1.235295 0.368213
C21 C 0.6003(2) 0.9582(5) 0.31206(12)
H25 H 0.541010 0.994301 0.272272
C22 C 0.6693(2) 0.7643(4) 0.31233(12)
H26 H 0.658084 0.667508 0.272774
C23 C 0.7553(2) 0.7112(4) 0.37082(11)
H27 H 0.804237 0.578758 0.370929
C24 C 0.76987(19) 0.8519(3) 0.42924(10)
H28 H 0.826710 0.813154 0.469705
loop_
_geom_bond_atom_site_label_1
_geom_bond_atom_site_label_2
_geom_bond_site_symmetry_1
_geom_bond_site_symmetry_2
O1 C1 1_555 1_555
O2 C1 1_555 1_555
O3 C8 1_555 1_555
O4 C8 1_555 1_555
C1 C2 1_555 1_555
C2 C3 1_555 1_555
C3 H1 1_555 1_555
C4 C3 1_555 1_555
H2 C4 1_555 1_555
C5 C4 1_555 1_555
C6 C5 1_555 1_555
H3 C6 1_555 1_555
C7 C2 1_555 1_555
H4 C7 1_555 1_555
C8 C5 1_555 1_555
N1 H5 1_555 1_555
H6 N1 1_555 1_555
H7 N1 1_555 1_555
C9 N1 1_555 1_555
H8 C9 1_555 1_555
C10 C9 1_555 1_555
H9 C10 1_555 1_555
H10 C10 1_555 1_555
H11 C10 1_555 1_555
C11 C9 1_555 1_555
C12 C11 1_555 1_555
H12 C12 1_555 1_555
C13 C12 1_555 1_555
H13 C13 1_555 1_555
C14 C13 1_555 1_555
H14 C14 1_555 1_555
C15 C14 1_555 1_555
H15 C15 1_555 1_555
C16 C11 1_555 1_555
H16 C16 1_555 1_555
N2 H17 1_555 1_555
H18 N2 1_555 1_555
H19 N2 1_555 1_555
C17 N2 1_555 1_555
H20 C17 1_555 1_555
C18 C17 1_555 1_555
H21 C18 1_555 1_555
H22 C18 1_555 1_555
H23 C18 1_555 1_555
C19 C17 1_555 1_555
C20 C19 1_555 1_555
H24 C20 1_555 1_555
C21 C20 1_555 1_555
H25 C21 1_555 1_555
C22 C21 1_555 1_555
H26 C22 1_555 1_555
C23 C22 1_555 1_555
H27 C23 1_555 1_555
C24 C19 1_555 1_555
H28 C24 1_555 1_555
C6 C7 1_555 1_555
C15 C16 1_555 1_555
C23 C24 1_555 1_555

#END
