
#######################################################################
#
#                 Cambridge Crystallographic Data Centre
#                                CCDC 
#
#######################################################################
#
# If this CIF has been generated from an entry in the Cambridge 
# Structural Database, then it will include bibliographic, chemical, 
# crystal, experimental, refinement or atomic coordinate data resulting 
# from the CCDC's data processing and validation procedures.
#
#######################################################################

data_VIKTUF
_chemical_name_common            
'Methylazacalix(4)pyridine hemikis(1,4-hydroquinone) clathrate'
_chemical_formula_moiety         'C24 H24 N8,0.5(C6 H6 O2)'
_chemical_name_systematic        
'2,4,6,8-Tetramethyl-2,4,6,8-tetraaza-1,3,5,7(2,6)-tetrapyridinacyclooctaphane hemikis(1,4-hydroquinone) clathrate'
_symmetry_cell_setting           monoclinic
_symmetry_space_group_name_H-M   'P 21/c'
_symmetry_Int_Tables_number      14
_space_group_name_Hall           '-P 2ybc'
loop_
_symmetry_equiv_pos_site_id
_symmetry_equiv_pos_as_xyz
1 x,y,z
2 -x,1/2+y,1/2-z
3 -x,-y,-z
4 x,1/2-y,1/2+z
_cell_length_a                   10.615(2)
_cell_length_b                   18.712(4)
_cell_length_c                   12.604(3)
_cell_angle_alpha                90
_cell_angle_beta                 98.10(3)
_cell_angle_gamma                90
_cell_volume                     2478.53
_exptl_crystal_colour            brown
_exptl_crystal_description       block
_cell_formula_units_Z            4
loop_
_atom_site_label
_atom_site_type_symbol
_atom_site_fract_x
_atom_site_fract_y
_atom_site_fract_z
O1 O 0.8666(2) 0.12170(10) 0.03521(14)
H1 H 0.8468 0.1220 0.0958
C25 C 0.9328(2) 0.06090(14) 0.0210(2)
C26 C 0.9743(2) 0.05152(14) -0.0774(2)
H26 H 0.9577 0.0865 -0.1298
C27 C 0.9601(2) 0.00911(14) 0.09821(19)
H27 H 0.9340 0.0151 0.1650
O1B O 1.1334(2) -0.12170(10) -0.03521(14)
H1B H 1.1532 -0.1220 -0.0958
C25B C 1.0672(2) -0.06090(14) -0.0210(2)
C26B C 1.0257(2) -0.05152(14) 0.0774(2)
H26B H 1.0423 -0.0865 0.1298
C27B C 1.0399(2) -0.00911(14) -0.09821(19)
H27B H 1.0660 -0.0151 -0.1650
N1 N 0.80674(19) 0.15681(11) 0.23912(16)
N2 N 0.9865(2) 0.23049(13) 0.2454(2)
N3 N 0.87298(19) 0.33215(12) 0.19786(15)
N4 N 0.7457(2) 0.42963(12) 0.15877(19)
N5 N 0.5640(2) 0.35691(11) 0.12954(16)
N6 N 0.3901(2) 0.27933(12) 0.09331(17)
N7 N 0.50231(19) 0.17759(11) 0.15364(17)
N8 N 0.6259(2) 0.08331(11) 0.2226(2)
C1 C 0.7064(3) 0.13389(13) 0.2831(2)
C2 C 0.6802(3) 0.15708(15) 0.3811(2)
H2 H 0.6104 0.1393 0.4097
C3 C 0.7586(3) 0.20696(16) 0.4361(2)
H3 H 0.7431 0.2233 0.5027
C4 C 0.8604(3) 0.23238(14) 0.3912(2)
H4 H 0.9143 0.2668 0.4263
C5 C 0.8810(2) 0.20598(14) 0.2935(2)
C6 C 1.0880(3) 0.18060(19) 0.2361(3)
H5 H 1.1524 0.2037 0.2020
H6 H 1.0548 0.1403 0.1939
H7 H 1.1242 0.1646 0.3062
C7 C 0.9824(2) 0.29738(16) 0.1997(2)
C8 C 1.0859(3) 0.3267(2) 0.1576(3)
H8 H 1.1621 0.3019 0.1587
C9 C 1.0694(3) 0.3937(2) 0.1149(3)
H9 H 1.1367 0.4147 0.0865
C10 C 0.9599(3) 0.43098(17) 0.1119(2)
H10 H 0.9505 0.4764 0.0820
C11 C 0.8615(3) 0.39749(15) 0.1562(2)
C12 C 0.7094(4) 0.49492(18) 0.1021(3)
H11 H 0.7829 0.5162 0.0784
H12 H 0.6741 0.5275 0.1490
H13 H 0.6470 0.4847 0.0412
C13 C 0.6498(3) 0.38944(13) 0.2010(2)
C14 C 0.6505(2) 0.38497(14) 0.3102(2)
H14 H 0.7125 0.4082 0.3573
C15 C 0.5572(3) 0.34526(14) 0.3481(2)
H15 H 0.5543 0.3417 0.4213
C16 C 0.4689(2) 0.31108(14) 0.2762(2)
H16 H 0.4043 0.2843 0.2996
C17 C 0.4774(2) 0.31705(13) 0.16773(19)
C18 C 0.3415(3) 0.31475(18) -0.0066(2)
H17 H 0.2831 0.2836 -0.0495
H18 H 0.4109 0.3263 -0.0448
H19 H 0.2982 0.3578 0.0085
C19 C 0.4001(2) 0.20444(15) 0.0933(2)
C20 C 0.3083(3) 0.16219(19) 0.0345(2)
H20 H 0.2380 0.1822 -0.0074
C21 C 0.3253(3) 0.0899(2) 0.0407(3)
H21 H 0.2651 0.0600 0.0027
C22 C 0.4294(3) 0.06048(16) 0.1019(3)
H22 H 0.4411 0.0112 0.1055
C23 C 0.5175(3) 0.10704(14) 0.1587(2)
C24 C 0.6553(3) 0.00866(15) 0.2390(3)
H23 H 0.5941 -0.0196 0.1938
H24 H 0.6525 -0.0035 0.3126
H25 H 0.7389 -0.0007 0.2216
loop_
_geom_bond_atom_site_label_1
_geom_bond_atom_site_label_2
_geom_bond_site_symmetry_1
_geom_bond_site_symmetry_2
O1 H1 1_555 1_555
N1 C1 1_555 1_555
N2 C5 1_555 1_555
N3 C7 1_555 1_555
N4 C11 1_555 1_555
N5 C13 1_555 1_555
N6 C17 1_555 1_555
N7 C19 1_555 1_555
N8 C1 1_555 1_555
C1 C2 1_555 1_555
C2 H2 1_555 1_555
C3 C2 1_555 1_555
H3 C3 1_555 1_555
C4 C3 1_555 1_555
H4 C4 1_555 1_555
C5 N1 1_555 1_555
C6 N2 1_555 1_555
H5 C6 1_555 1_555
H6 C6 1_555 1_555
H7 C6 1_555 1_555
C7 N2 1_555 1_555
C8 C7 1_555 1_555
H8 C8 1_555 1_555
C9 C8 1_555 1_555
H9 C9 1_555 1_555
C10 C9 1_555 1_555
H10 C10 1_555 1_555
C11 N3 1_555 1_555
C12 N4 1_555 1_555
H11 C12 1_555 1_555
H12 C12 1_555 1_555
H13 C12 1_555 1_555
C13 N4 1_555 1_555
C14 C13 1_555 1_555
H14 C14 1_555 1_555
C15 C14 1_555 1_555
H15 C15 1_555 1_555
C16 C15 1_555 1_555
H16 C16 1_555 1_555
C17 N5 1_555 1_555
C18 N6 1_555 1_555
H17 C18 1_555 1_555
H18 C18 1_555 1_555
H19 C18 1_555 1_555
C19 N6 1_555 1_555
C20 C19 1_555 1_555
H20 C20 1_555 1_555
C21 C20 1_555 1_555
H21 C21 1_555 1_555
C22 C21 1_555 1_555
H22 C22 1_555 1_555
C23 N7 1_555 1_555
C24 N8 1_555 1_555
H23 C24 1_555 1_555
H24 C24 1_555 1_555
H25 C24 1_555 1_555
C25 O1 1_555 1_555
C26 C25 1_555 1_555
H26 C26 1_555 1_555
C27 C25 1_555 1_555
H27 C27 1_555 1_555
O1B H1B 1_555 1_555
C25B O1B 1_555 1_555
C26B C27 1_555 1_555
H26B C26B 1_555 1_555
C27B C26 1_555 1_555
H27B C27B 1_555 1_555
N8 C23 1_555 1_555
C4 C5 1_555 1_555
C10 C11 1_555 1_555
C16 C17 1_555 1_555
C22 C23 1_555 1_555
C25B C26B 1_555 1_555
C25B C27B 1_555 1_555

#END
