
#######################################################################
#
#                 Cambridge Crystallographic Data Centre
#                                CCDC 
#
#######################################################################
#
# If this CIF has been generated from an entry in the Cambridge 
# Structural Database, then it will include bibliographic, chemical, 
# crystal, experimental, refinement or atomic coordinate data resulting 
# from the CCDC's data processing and validation procedures.
#
#######################################################################

data_VIKVOB
_chemical_name_common            
'Methylazacalix(4)pyridine bis(catechol) clathrate'
_chemical_formula_moiety         'C24 H24 N8,2(C6 H6 O2)'
_chemical_name_systematic        
'2,4,6,8-Tetramethyl-2,4,6,8-tetraaza-1,3,5,7(2,6)-tetrapyridinacyclooctaphane bis(catechol) clathrate'
_symmetry_cell_setting           monoclinic
_symmetry_space_group_name_H-M   'C 2/c'
_symmetry_Int_Tables_number      15
_space_group_name_Hall           '-C 2yn'
loop_
_symmetry_equiv_pos_site_id
_symmetry_equiv_pos_as_xyz
1 x,y,z
2 1/2+x,1/2+y,z
3 -x,y,1/2-z
4 1/2-x,1/2+y,1/2-z
5 -x,-y,-z
6 1/2-x,1/2-y,-z
7 x,-y,1/2+z
8 1/2+x,1/2-y,1/2+z
_cell_length_a                   18.698(4)
_cell_length_b                   9.0392(18)
_cell_length_c                   19.665(4)
_cell_angle_alpha                90.00
_cell_angle_beta                 96.78(3)
_cell_angle_gamma                90.00
_cell_volume                     3300.44
_exptl_crystal_colour            colorless
_exptl_crystal_description       block
_cell_formula_units_Z            4
loop_
_atom_site_label
_atom_site_type_symbol
_atom_site_fract_x
_atom_site_fract_y
_atom_site_fract_z
C1 C 0.60572(17) -0.2857(4) 0.09308(19)
H1 H 0.5815 -0.2207 0.0593
H2 H 0.6387 -0.3473 0.0721
H3 H 0.6317 -0.2283 0.1289
C2 C 0.57776(14) -0.4823(3) 0.17254(13)
C3 C 0.56292(16) -0.6329(3) 0.16335(15)
H7 H 0.5337 -0.6663 0.1249
C4 C 0.59220(18) -0.7304(4) 0.21208(18)
H8 H 0.5841 -0.8314 0.2063
C5 C 0.63384(16) -0.6785(4) 0.26981(17)
H9 H 0.6553 -0.7432 0.3029
C6 C 0.64252(14) -0.5275(3) 0.27682(14)
C7 C 0.7534(2) -0.4883(6) 0.3564(2)
H10 H 0.7688 -0.4402 0.3992
H11 H 0.7791 -0.4477 0.3213
H12 H 0.7631 -0.5924 0.3607
C8 C 0.36541(15) -0.4183(3) 0.11355(14)
C9 C 0.33843(17) -0.3621(4) 0.04949(15)
H13 H 0.2892 -0.3601 0.0352
C10 C 0.38701(18) -0.3102(4) 0.00876(15)
H14 H 0.3706 -0.2715 -0.0341
C11 C 0.45902(18) -0.3137(4) 0.02956(15)
H15 H 0.4919 -0.2776 0.0017
C12 C 0.48196(16) -0.3730(3) 0.09367(14)
N1 N 0.55353(13) -0.3772(3) 0.12150(12)
N2 N 0.61659(12) -0.4306(3) 0.22852(11)
N3 N 0.67769(13) -0.4654(3) 0.33873(12)
N4 N 0.43584(12) -0.4253(3) 0.13483(11)
C1B C 0.39428(17) -0.2857(4) 0.40692(19)
H1B H 0.4185 -0.2207 0.4407
H2B H 0.3613 -0.3473 0.4279
H3B H 0.3683 -0.2283 0.3711
C2B C 0.42224(14) -0.4823(3) 0.32746(13)
C3B C 0.43708(16) -0.6329(3) 0.33665(15)
H7B H 0.4663 -0.6663 0.3751
C4B C 0.40780(18) -0.7304(4) 0.28792(18)
H8B H 0.4159 -0.8314 0.2937
C5B C 0.36616(16) -0.6785(4) 0.23019(17)
H9B H 0.3447 -0.7432 0.1971
C6B C 0.35748(14) -0.5275(3) 0.22318(14)
C7B C 0.2466(2) -0.4883(6) 0.1436(2)
H10B H 0.2312 -0.4402 0.1008
H11B H 0.2209 -0.4477 0.1787
H12B H 0.2369 -0.5924 0.1393
C8B C 0.63459(15) -0.4183(3) 0.38645(14)
C9B C 0.66157(17) -0.3621(4) 0.45051(15)
H13B H 0.7108 -0.3601 0.4648
C10B C 0.61299(18) -0.3102(4) 0.49124(15)
H14B H 0.6294 -0.2715 0.5341
C11B C 0.54098(18) -0.3137(4) 0.47044(15)
H15B H 0.5081 -0.2776 0.4983
C12B C 0.51804(16) -0.3730(3) 0.40633(14)
N1B N 0.44647(13) -0.3772(3) 0.37850(12)
N2B N 0.38341(12) -0.4306(3) 0.27148(11)
N3B N 0.32231(13) -0.4654(3) 0.16127(12)
N4B N 0.56416(12) -0.4253(3) 0.36517(11)
C13 C 0.62044(17) -0.0837(3) 0.31430(15)
C14 C 0.69421(19) -0.0859(4) 0.32729(19)
H16 H 0.7211 -0.1349 0.2974
C15 C 0.7288(2) -0.0157(5) 0.3846(2)
H17 H 0.7788 -0.0185 0.3935
C16 C 0.6893(3) 0.0574(5) 0.4282(2)
H18 H 0.7126 0.1063 0.4661
C17 C 0.6156(2) 0.0589(5) 0.41611(18)
H19 H 0.5889 0.1077 0.4463
C18 C 0.58086(18) -0.0117(4) 0.35936(16)
O1 O 0.58319(14) -0.1470(3) 0.25758(13)
H20 H 0.601(3) -0.228(6) 0.250(3)
O2 O 0.50770(13) -0.0123(3) 0.34930(13)
H21 H 0.4940 -0.0595 0.3146
H4? H 0.6063 -0.3213 0.0442
H5? H 0.6526 -0.2961 0.1280
H6? H 0.5827 -0.1776 0.0902
loop_
_geom_bond_atom_site_label_1
_geom_bond_atom_site_label_2
_geom_bond_site_symmetry_1
_geom_bond_site_symmetry_2
C1 H1 1_555 1_555
H2 C1 1_555 1_555
H3 C1 1_555 1_555
C2 C3 1_555 1_555
C3 H7 1_555 1_555
C4 C3 1_555 1_555
H8 C4 1_555 1_555
C5 C4 1_555 1_555
H9 C5 1_555 1_555
C6 C5 1_555 1_555
C7 H10 1_555 1_555
H11 C7 1_555 1_555
H12 C7 1_555 1_555
C8 C9 1_555 1_555
C9 H13 1_555 1_555
C10 C9 1_555 1_555
H14 C10 1_555 1_555
C11 C10 1_555 1_555
H15 C11 1_555 1_555
C12 C11 1_555 1_555
C13 C14 1_555 1_555
C14 H16 1_555 1_555
C15 C14 1_555 1_555
H17 C15 1_555 1_555
C16 C15 1_555 1_555
H18 C16 1_555 1_555
C17 C16 1_555 1_555
H19 C17 1_555 1_555
C18 C13 1_555 1_555
N1 C1 1_555 1_555
N2 C2 1_555 1_555
N3 C6 1_555 1_555
N4 C8 1_555 1_555
O1 C13 1_555 1_555
H20 O1 1_555 1_555
O2 C18 1_555 1_555
H21 O2 1_555 1_555
C1B H1B 1_555 1_555
H2B C1B 1_555 1_555
H3B C1B 1_555 1_555
C2B C3B 1_555 1_555
C3B H7B 1_555 1_555
C4B C3B 1_555 1_555
H8B C4B 1_555 1_555
C5B C4B 1_555 1_555
H9B C5B 1_555 1_555
C6B C5B 1_555 1_555
C7B H10B 1_555 1_555
H11B C7B 1_555 1_555
H12B C7B 1_555 1_555
C8B N3 1_555 1_555
C9B C8B 1_555 1_555
H13B C9B 1_555 1_555
C10B C9B 1_555 1_555
H14B C10B 1_555 1_555
C11B C10B 1_555 1_555
H15B C11B 1_555 1_555
C12B C11B 1_555 1_555
N1B C1B 1_555 1_555
N2B C2B 1_555 1_555
N3B C8 1_555 1_555
N4B C8B 1_555 1_555
C2 N1 1_555 1_555
C6 N2 1_555 1_555
C7 N3 1_555 1_555
C12 N1 1_555 1_555
C12 N4 1_555 1_555
C17 C18 1_555 1_555
C2B N1B 1_555 1_555
C6B N2B 1_555 1_555
C6B N3B 1_555 1_555
C7B N3B 1_555 1_555
C12B N1B 1_555 1_555
C12B N4B 1_555 1_555

#END
