
#######################################################################
#
#                 Cambridge Crystallographic Data Centre
#                                CCDC 
#
#######################################################################
#
# If this CIF has been generated from an entry in the Cambridge 
# Structural Database, then it will include bibliographic, chemical, 
# crystal, experimental, refinement or atomic coordinate data resulting 
# from the CCDC's data processing and validation procedures.
#
#######################################################################

data_VIKVIV
_chemical_name_common            
'Methylazacalix(4)pyridine propane-1,3-diol clathrate'
_chemical_formula_moiety         'C24 H24 N8,C3 H8 O2'
_chemical_name_systematic        
'2,4,6,8-Tetramethyl-2,4,6,8-tetraaza-1,3,5,7(2,6)-tetrapyridinacyclooctaphane propane-1,3-diol clathrate'
_symmetry_cell_setting           monoclinic
_symmetry_space_group_name_H-M   'P 21/c'
_symmetry_Int_Tables_number      14
_space_group_name_Hall           '-P 2ybc'
loop_
_symmetry_equiv_pos_site_id
_symmetry_equiv_pos_as_xyz
1 x,y,z
2 -x,1/2+y,1/2-z
3 -x,-y,-z
4 x,1/2-y,1/2+z
_cell_length_a                   15.282(3)
_cell_length_b                   21.157(4)
_cell_length_c                   16.509(3)
_cell_angle_alpha                90
_cell_angle_beta                 106.05(3)
_cell_angle_gamma                90
_cell_volume                     5129.65
_exptl_crystal_colour            yellow
_exptl_crystal_description       Prism
_cell_formula_units_Z            8
loop_
_atom_site_label
_atom_site_type_symbol
_atom_site_fract_x
_atom_site_fract_y
_atom_site_fract_z
N1 N 0.7001(5) 0.3747(4) 0.4131(5)
N2 N 0.7558(6) 0.3766(5) 0.2946(6)
N3 N 0.6278(5) 0.4160(4) 0.2065(5)
N4 N 0.4958(7) 0.4610(6) 0.1271(6)
N5 N 0.4327(6) 0.4478(5) 0.2392(6)
N6 N 0.3705(5) 0.4288(5) 0.3532(7)
N7 N 0.5026(6) 0.3952(4) 0.4442(6)
N8 N 0.6434(6) 0.3656(4) 0.5297(6)
C1 C 0.6810(6) 0.4045(4) 0.4754(6)
C2 C 0.6904(7) 0.4669(5) 0.4879(7)
H1 H 0.6757 0.4855 0.5335
C3 C 0.7223(8) 0.5040(5) 0.4321(7)
H2 H 0.7274 0.5477 0.4379
C4 C 0.7460(6) 0.4727(5) 0.3679(6)
H3 H 0.7711 0.4944 0.3307
C5 C 0.7315(6) 0.4093(5) 0.3604(5)
C6 C 0.8201(10) 0.3237(8) 0.3173(9)
H4 H 0.8303 0.3060 0.2671
H5 H 0.7952 0.2918 0.3459
H6 H 0.8767 0.3385 0.3536
C7 C 0.6993(7) 0.3792(5) 0.2150(7)
C8 C 0.7163(10) 0.3468(7) 0.1495(9)
H7 H 0.7678 0.3216 0.1568
C9 C 0.6536(12) 0.3531(7) 0.0725(10)
H8 H 0.6625 0.3309 0.0269
C10 C 0.5784(10) 0.3910(7) 0.0602(9)
H9 H 0.5360 0.3957 0.0080
C11 C 0.5705(8) 0.4219(5) 0.1322(7)
C12 C 0.4109(10) 0.4563(10) 0.0583(9)
H10 H 0.4243 0.4403 0.0087
H11 H 0.3836 0.4974 0.0468
H12 H 0.3696 0.4281 0.0747
C13 C 0.4850(7) 0.4860(6) 0.2062(7)
C14 C 0.5276(8) 0.5374(6) 0.2408(9)
H13 H 0.5638 0.5601 0.2140
C15 C 0.5179(8) 0.5569(6) 0.3161(10)
H14 H 0.5451 0.5941 0.3410
C16 C 0.4668(7) 0.5202(6) 0.3550(8)
H15 H 0.4598 0.5317 0.4072
C17 C 0.4260(6) 0.4660(5) 0.3148(8)
C18 C 0.2795(8) 0.4139(8) 0.2994(11)
H16 H 0.2472 0.3893 0.3307
H17 H 0.2847 0.3901 0.2514
H18 H 0.2470 0.4524 0.2807
C19 C 0.4125(7) 0.3892(5) 0.4166(8)
C20 C 0.3675(10) 0.3428(8) 0.4503(9)
H19 H 0.3046 0.3384 0.4314
C21 C 0.4177(12) 0.3046(8) 0.5107(10)
H20 H 0.3877 0.2741 0.5335
C22 C 0.5115(10) 0.3084(6) 0.5408(8)
H21 H 0.5456 0.2815 0.5821
C23 C 0.5504(8) 0.3561(5) 0.5038(7)
C24 C 0.7032(10) 0.3161(7) 0.5745(9)
H22 H 0.6731 0.2931 0.6093
H23 H 0.7581 0.3346 0.6093
H24 H 0.7178 0.2878 0.5347
N9 N 0.8109(5) 0.6181(4) 0.0758(6)
N10 N 0.7327(6) 0.6231(4) 0.1806(6)
N11 N 0.8591(6) 0.5949(4) 0.2859(5)
N12 N 0.9875(7) 0.5632(6) 0.3834(6)
N13 N 1.0696(6) 0.5645(5) 0.2822(6)
N14 N 1.1495(6) 0.5741(6) 0.1821(8)
N15 N 1.0240(6) 0.5996(4) 0.0745(5)
N16 N 0.8910(7) 0.6196(5) -0.0260(6)
C25 C 0.8467(7) 0.5841(6) 0.0273(6)
C26 C 0.8464(9) 0.5210(5) 0.0238(7)
H25 H 0.8728 0.4996 -0.0127
C27 C 0.8061(8) 0.4891(5) 0.0755(7)
H26 H 0.8055 0.4451 0.0763
C28 C 0.7659(7) 0.5238(5) 0.1268(7)
H27 H 0.7356 0.5038 0.1613
C29 C 0.7720(6) 0.5881(4) 0.1254(7)
C30 C 0.6670(9) 0.6735(7) 0.1421(10)
H28 H 0.6448 0.6933 0.1849
H29 H 0.6169 0.6554 0.1001
H30 H 0.6967 0.7045 0.1164
C31 C 0.7816(7) 0.6275(5) 0.2650(8)
C32 C 0.7528(9) 0.6632(6) 0.3210(9)
H31 H 0.6993 0.6866 0.3035
C33 C 0.8022(11) 0.6643(6) 0.4018(10)
H32 H 0.7812 0.6862 0.4415
C34 C 0.8830(9) 0.6334(8) 0.4253(8)
H33 H 0.9201 0.6357 0.4803
C35 C 0.9081(7) 0.5988(5) 0.3656(8)
C36 C 1.0621(10) 0.5757(12) 0.4594(9)
H34 H 1.0383 0.5955 0.5012
H35 H 1.1059 0.6031 0.4456
H36 H 1.0909 0.5365 0.4813
C37 C 1.0120(7) 0.5326(7) 0.3151(7)
C38 C 0.9779(8) 0.4745(6) 0.2881(8)
H37 H 0.9404 0.4530 0.3146
C39 C 1.0005(9) 0.4490(5) 0.2211(8)
H38 H 0.9771 0.4100 0.1999
C40 C 1.0574(8) 0.4806(6) 0.1852(7)
H39 H 1.0736 0.4636 0.1395
C41 C 1.0906(7) 0.5381(6) 0.2179(8)
C42 C 1.2378(9) 0.5885(9) 0.2348(11)
H40 H 1.2707 0.6125 0.2035
H41 H 1.2699 0.5500 0.2543
H42 H 1.2324 0.6129 0.2823
C43 C 1.1121(9) 0.6084(6) 0.1085(8)
C44 C 1.1639(9) 0.6493(5) 0.0760(9)
H43 H 1.2261 0.6539 0.1010
C45 C 1.1198(13) 0.6833(7) 0.0049(11)
H44 H 1.1526 0.7111 -0.0192
C46 C 1.0275(13) 0.6762(7) -0.0303(10)
H45 H 0.9962 0.7003 -0.0763
C47 C 0.9833(10) 0.6318(4) 0.0055(7)
C48 C 0.8350(10) 0.6638(7) -0.0858(8)
H46 H 0.8713 0.6838 -0.1175
H47 H 0.8111 0.6953 -0.0559
H48 H 0.7856 0.6414 -0.1236
C49 C 0.5602(11) 0.2354(7) 0.3057(13)
H49 H 0.5183 0.2061 0.3205
H50 H 0.5766 0.2169 0.2582
C50 C 0.5090(15) 0.2905(7) 0.2747(14)
H51 H 0.4894 0.3081 0.3211
H52 H 0.5509 0.3208 0.2619
C51 C 0.4336(9) 0.2889(6) 0.2059(7)
H53 H 0.4480 0.2576 0.1686
H54 H 0.3860 0.2702 0.2268
O1 O 0.6361(10) 0.2350(7) 0.3704(10)
H61 H 0.6436 0.2701 0.3925
O2 O 0.392(2) 0.3358(11) 0.155(2)
H62 H 0.4268 0.3661 0.1603
C52 C 0.9297(16) 0.7665(7) 0.1672(14)
H55 H 0.9182 0.7963 0.2076
H56 H 0.9722 0.7871 0.1417
C53 C 0.9786(14) 0.7170(7) 0.2153(12)
H57 H 1.0094 0.6948 0.1797
H58 H 0.9342 0.6879 0.2262
C54 C 1.0437(11) 0.7276(4) 0.2927(5)
H59 H 1.0883 0.7562 0.2810
H60 H 1.0128 0.7510 0.3272
O3 O 0.8514(9) 0.7627(7) 0.1058(10)
H63 H 0.8409 0.7256 0.0919
O4 O 1.092(3) 0.6815(12) 0.3428(19)
H64 H 1.0723 0.6468 0.3239
loop_
_geom_bond_atom_site_label_1
_geom_bond_atom_site_label_2
_geom_bond_site_symmetry_1
_geom_bond_site_symmetry_2
N1 C1 1_555 1_555
N2 C5 1_555 1_555
N3 C7 1_555 1_555
N4 C11 1_555 1_555
N5 C13 1_555 1_555
N6 C17 1_555 1_555
N7 C19 1_555 1_555
N8 C1 1_555 1_555
N9 C25 1_555 1_555
N10 C29 1_555 1_555
N11 C31 1_555 1_555
N12 C35 1_555 1_555
N13 C37 1_555 1_555
N14 C41 1_555 1_555
N15 C43 1_555 1_555
N16 C25 1_555 1_555
C1 C2 1_555 1_555
C2 H1 1_555 1_555
C3 C2 1_555 1_555
H2 C3 1_555 1_555
C4 C3 1_555 1_555
H3 C4 1_555 1_555
C5 N1 1_555 1_555
C6 N2 1_555 1_555
H4 C6 1_555 1_555
H5 C6 1_555 1_555
H6 C6 1_555 1_555
C7 N2 1_555 1_555
C8 C7 1_555 1_555
H7 C8 1_555 1_555
C9 C8 1_555 1_555
H8 C9 1_555 1_555
C10 C9 1_555 1_555
H9 C10 1_555 1_555
C11 N3 1_555 1_555
C12 N4 1_555 1_555
H10 C12 1_555 1_555
H11 C12 1_555 1_555
H12 C12 1_555 1_555
C13 N4 1_555 1_555
C14 C13 1_555 1_555
H13 C14 1_555 1_555
C15 C14 1_555 1_555
H14 C15 1_555 1_555
C16 C15 1_555 1_555
H15 C16 1_555 1_555
C17 N5 1_555 1_555
C18 N6 1_555 1_555
H16 C18 1_555 1_555
H17 C18 1_555 1_555
H18 C18 1_555 1_555
C19 N6 1_555 1_555
C20 C19 1_555 1_555
H19 C20 1_555 1_555
C21 C20 1_555 1_555
H20 C21 1_555 1_555
C22 C21 1_555 1_555
H21 C22 1_555 1_555
C23 N7 1_555 1_555
C24 N8 1_555 1_555
H22 C24 1_555 1_555
H23 C24 1_555 1_555
H24 C24 1_555 1_555
C25 C26 1_555 1_555
C26 H25 1_555 1_555
C27 C26 1_555 1_555
H26 C27 1_555 1_555
C28 C27 1_555 1_555
H27 C28 1_555 1_555
C29 N9 1_555 1_555
C30 N10 1_555 1_555
H28 C30 1_555 1_555
H29 C30 1_555 1_555
H30 C30 1_555 1_555
C31 N10 1_555 1_555
C32 C31 1_555 1_555
H31 C32 1_555 1_555
C33 C32 1_555 1_555
H32 C33 1_555 1_555
C34 C33 1_555 1_555
H33 C34 1_555 1_555
C35 N11 1_555 1_555
C36 N12 1_555 1_555
H34 C36 1_555 1_555
H35 C36 1_555 1_555
H36 C36 1_555 1_555
C37 N12 1_555 1_555
C38 C37 1_555 1_555
H37 C38 1_555 1_555
C39 C38 1_555 1_555
H38 C39 1_555 1_555
C40 C39 1_555 1_555
H39 C40 1_555 1_555
C41 N13 1_555 1_555
C42 N14 1_555 1_555
H40 C42 1_555 1_555
H41 C42 1_555 1_555
H42 C42 1_555 1_555
C43 N14 1_555 1_555
C44 C43 1_555 1_555
H43 C44 1_555 1_555
C45 C44 1_555 1_555
H44 C45 1_555 1_555
C46 C45 1_555 1_555
H45 C46 1_555 1_555
C47 N15 1_555 1_555
C48 N16 1_555 1_555
H46 C48 1_555 1_555
H47 C48 1_555 1_555
H48 C48 1_555 1_555
C49 H49 1_555 1_555
H50 C49 1_555 1_555
C50 C49 1_555 1_555
H51 C50 1_555 1_555
H52 C50 1_555 1_555
C51 C50 1_555 1_555
H53 C51 1_555 1_555
H54 C51 1_555 1_555
C52 H55 1_555 1_555
H56 C52 1_555 1_555
C53 C52 1_555 1_555
H57 C53 1_555 1_555
H58 C53 1_555 1_555
C54 C53 1_555 1_555
H59 C54 1_555 1_555
H60 C54 1_555 1_555
O1 C49 1_555 1_555
H61 O1 1_555 1_555
O2 C51 1_555 1_555
H62 O2 1_555 1_555
O3 C52 1_555 1_555
H63 O3 1_555 1_555
O4 C54 1_555 1_555
H64 O4 1_555 1_555
N8 C23 1_555 1_555
N16 C47 1_555 1_555
C4 C5 1_555 1_555
C10 C11 1_555 1_555
C16 C17 1_555 1_555
C22 C23 1_555 1_555
C28 C29 1_555 1_555
C34 C35 1_555 1_555
C40 C41 1_555 1_555
C46 C47 1_555 1_555

#END
