
#######################################################################
#
#                 Cambridge Crystallographic Data Centre
#                                CCDC 
#
#######################################################################
#
# If this CIF has been generated from an entry in the Cambridge 
# Structural Database, then it will include bibliographic, chemical, 
# crystal, experimental, refinement or atomic coordinate data resulting 
# from the CCDC's data processing and validation procedures.
#
#######################################################################

data_VIKVUH
_chemical_name_common            'Methylazacalix(4)pyridine ethanol clathrate'
_chemical_formula_moiety         'C24 H24 N8,C2 H6 O1'
_chemical_name_systematic        
'2,4,6,8-Tetramethyl-2,4,6,8-tetraaza-1,3,5,7(2,6)-tetrapyridinacyclooctaphane ethanol clathrate'
_symmetry_cell_setting           monoclinic
_symmetry_space_group_name_H-M   'P 21/c'
_symmetry_Int_Tables_number      14
_space_group_name_Hall           '-P 2ybc'
loop_
_symmetry_equiv_pos_site_id
_symmetry_equiv_pos_as_xyz
1 x,y,z
2 -x,1/2+y,1/2-z
3 -x,-y,-z
4 x,1/2-y,1/2+z
_cell_length_a                   15.061(3)
_cell_length_b                   21.149(4)
_cell_length_c                   16.002(3)
_cell_angle_alpha                90
_cell_angle_beta                 105.57(3)
_cell_angle_gamma                90
_cell_volume                     4909.99
_exptl_crystal_colour            brown
_exptl_crystal_description       prism
_cell_formula_units_Z            8
loop_
_atom_site_label
_atom_site_type_symbol
_atom_site_fract_x
_atom_site_fract_y
_atom_site_fract_z
N1 N 0.3714(2) 0.41643(15) 0.29378(19)
N2 N 0.5035(2) 0.46508(16) 0.37368(19)
N3 N 0.5639(2) 0.44403(16) 0.2561(2)
N4 N 0.6220(2) 0.41440(17) 0.1379(2)
N5 N 0.4832(2) 0.38776(15) 0.0387(2)
N6 N 0.3397(2) 0.36766(16) -0.0514(2)
N7 N 0.2874(2) 0.37389(15) 0.0755(2)
N8 N 0.2397(2) 0.37365(16) 0.2035(2)
C1 C 0.2991(3) 0.37787(18) 0.2864(2)
C2 C 0.2836(3) 0.34411(19) 0.3560(3)
H1 H 0.2319 0.3186 0.3496
C3 C 0.3491(3) 0.3504(2) 0.4351(3)
H2 H 0.3422 0.3276 0.4827
C4 C 0.4242(3) 0.3895(2) 0.4448(3)
H3 H 0.4677 0.3940 0.4981
C5 C 0.4329(3) 0.42241(18) 0.3715(2)
C6 C 0.5881(3) 0.4610(2) 0.4437(3)
H4 H 0.5737 0.4484 0.4962
H5 H 0.6179 0.5015 0.4521
H6 H 0.6285 0.4303 0.4291
C7 C 0.5143(3) 0.48334(19) 0.2909(2)
C8 C 0.4740(3) 0.53754(19) 0.2516(3)
H7 H 0.4418 0.5641 0.2795
C9 C 0.4821(3) 0.55213(19) 0.1692(3)
H8 H 0.4558 0.5887 0.1408
C10 C 0.5306(3) 0.51068(19) 0.1303(2)
H9 H 0.5364 0.5185 0.0749
C11 C 0.5702(3) 0.45729(19) 0.1761(2)
C12 C 0.7078(3) 0.3894(3) 0.1946(3)
H10 H 0.7360 0.3613 0.1621
H11 H 0.6945 0.3667 0.2418
H12 H 0.7491 0.4237 0.2169
C13 C 0.5745(3) 0.37674(19) 0.0687(2)
C14 C 0.6182(3) 0.3287(2) 0.0352(3)
H13 H 0.6812 0.3219 0.0561
C15 C 0.5644(3) 0.2917(2) -0.0301(3)
H14 H 0.5919 0.2595 -0.0539
C16 C 0.4710(3) 0.3014(2) -0.0606(3)
H15 H 0.4346 0.2759 -0.1039
C17 C 0.4328(3) 0.35126(19) -0.0240(2)
C18 C 0.2728(3) 0.3211(2) -0.0980(3)
H16 H 0.2990 0.2975 -0.1369
H17 H 0.2182 0.3424 -0.1305
H18 H 0.2574 0.2927 -0.0572
C19 C 0.3071(3) 0.40567(18) 0.0097(2)
C20 C 0.2982(3) 0.46997(18) -0.0005(2)
H19 H 0.3103 0.4899 -0.0480
C21 C 0.2709(3) 0.5043(2) 0.0616(2)
H20 H 0.2652 0.5480 0.0569
C22 C 0.2521(3) 0.47309(18) 0.1310(2)
H21 H 0.2338 0.4952 0.1738
C23 C 0.2614(3) 0.40781(18) 0.1344(2)
C24 C 0.1760(3) 0.3200(2) 0.1810(3)
H22 H 0.1675 0.3015 0.2331
H23 H 0.2011 0.2890 0.1500
H24 H 0.1177 0.3345 0.1453
N9 N 0.9673(2) 0.59958(17) 0.4209(2)
N10 N 0.8412(2) 0.5679(2) 0.3130(2)
N11 N 0.9305(2) 0.56576(17) 0.2119(2)
N12 N 1.0195(2) 0.5701(2) 0.1113(2)
N13 N 1.1526(2) 0.59657(15) 0.2143(2)
N14 N 1.2803(2) 0.62012(16) 0.3264(2)
N15 N 1.1925(2) 0.61888(15) 0.4291(2)
N16 N 1.0999(3) 0.62341(17) 0.5270(2)
C25 C 1.0056(3) 0.63329(19) 0.4906(3)
C26 C 0.9562(3) 0.6767(2) 0.5276(3)
H25 H 0.9844 0.7001 0.5768
C27 C 0.8644(3) 0.6825(2) 0.4869(3)
H26 H 0.8298 0.7115 0.5085
C28 C 0.8213(3) 0.6475(2) 0.4158(3)
H27 H 0.7583 0.6511 0.3901
C29 C 0.8772(3) 0.6056(2) 0.3835(3)
C30 C 0.7453(3) 0.5688(3) 0.2660(3)
H28 H 0.7113 0.5928 0.2979
H29 H 0.7221 0.5263 0.2584
H30 H 0.7385 0.5880 0.2102
C31 C 0.9055(3) 0.5347(2) 0.2747(3)
C32 C 0.9364(3) 0.4762(2) 0.3041(3)
H31 H 0.9160 0.4566 0.3475
C33 C 0.9994(3) 0.4467(2) 0.2677(3)
H32 H 1.0216 0.4065 0.2857
C34 C 1.0282(3) 0.4781(2) 0.2043(3)
H33 H 1.0712 0.4598 0.1795
C35 C 0.9921(3) 0.5371(2) 0.1782(3)
C36 C 0.9475(3) 0.5901(3) 0.0351(3)
H34 H 0.9749 0.6118 -0.0043
H35 H 0.9055 0.6179 0.0527
H36 H 0.9147 0.5537 0.0070
C37 C 1.1016(3) 0.6032(2) 0.1326(3)
C38 C 1.1300(3) 0.6414(2) 0.0719(3)
H37 H 1.0937 0.6461 0.0152
C39 C 1.2126(3) 0.6709(2) 0.1001(3)
H38 H 1.2331 0.6960 0.0614
C40 C 1.2675(3) 0.6650(2) 0.1841(3)
H39 H 1.3245 0.6850 0.2024
C41 C 1.2326(3) 0.62719(19) 0.2404(3)
C42 C 1.3470(3) 0.6685(2) 0.3687(3)
H40 H 1.3723 0.6884 0.3263
H41 H 1.3958 0.6490 0.4124
H42 H 1.3168 0.6996 0.3950
C43 C 1.2348(3) 0.58550(19) 0.3799(2)
C44 C 1.2349(3) 0.52012(19) 0.3775(2)
H43 H 1.2656 0.4984 0.3431
C45 C 1.1881(3) 0.4879(2) 0.4279(3)
H44 H 1.1872 0.4440 0.4281
C46 C 1.1427(3) 0.5215(2) 0.4779(3)
H45 H 1.1100 0.5009 0.5116
C47 C 1.1474(3) 0.58673(19) 0.4762(2)
C48 C 1.1549(3) 0.6683(2) 0.5877(3)
H46 H 1.1163 0.6904 0.6170
H47 H 1.1823 0.6982 0.5568
H48 H 1.2026 0.6463 0.6294
C49 C 0.4228(6) 0.2385(3) 0.1822(6)
H49 H 0.4579 0.2031 0.1695
H50 H 0.3955 0.2240 0.2273
C50 C 0.4887(4) 0.2837(3) 0.2225(3)
H51 H 0.5287 0.2659 0.2742
H52 H 0.4581 0.3202 0.2373
H53 H 0.5243 0.2958 0.1835
O1 O 0.3533(3) 0.24541(17) 0.1129(2)
H60 H 0.347(4) 0.291(3) 0.095(4)
C51 C 1.0759(5) 0.7654(3) 0.3463(5)
H54 H 1.0754 0.8084 0.3252
H55 H 1.0351 0.7646 0.3840
C52 C 1.0348(4) 0.7277(3) 0.2743(4)
H56 H 0.9737 0.7429 0.2476
H57 H 1.0316 0.6847 0.2927
H58 H 1.0709 0.7295 0.2332
O2 O 1.1636(2) 0.75442(16) 0.3983(2)
H59 H 1.167(3) 0.708(2) 0.411(3)
loop_
_geom_bond_atom_site_label_1
_geom_bond_atom_site_label_2
_geom_bond_site_symmetry_1
_geom_bond_site_symmetry_2
N1 C1 1_555 1_555
N2 C5 1_555 1_555
N3 C7 1_555 1_555
N4 C11 1_555 1_555
N5 C13 1_555 1_555
N6 C17 1_555 1_555
N7 C19 1_555 1_555
N8 C1 1_555 1_555
N9 C25 1_555 1_555
N10 C29 1_555 1_555
N11 C31 1_555 1_555
N12 C35 1_555 1_555
N13 C37 1_555 1_555
N14 C41 1_555 1_555
N15 C43 1_555 1_555
N16 C25 1_555 1_555
C1 C2 1_555 1_555
C2 H1 1_555 1_555
C3 C2 1_555 1_555
H2 C3 1_555 1_555
C4 C3 1_555 1_555
H3 C4 1_555 1_555
C5 N1 1_555 1_555
C6 N2 1_555 1_555
H4 C6 1_555 1_555
H5 C6 1_555 1_555
H6 C6 1_555 1_555
C7 N2 1_555 1_555
C8 C7 1_555 1_555
H7 C8 1_555 1_555
C9 C8 1_555 1_555
H8 C9 1_555 1_555
C10 C9 1_555 1_555
H9 C10 1_555 1_555
C11 N3 1_555 1_555
C12 N4 1_555 1_555
H10 C12 1_555 1_555
H11 C12 1_555 1_555
H12 C12 1_555 1_555
C13 N4 1_555 1_555
C14 C13 1_555 1_555
H13 C14 1_555 1_555
C15 C14 1_555 1_555
H14 C15 1_555 1_555
C16 C15 1_555 1_555
H15 C16 1_555 1_555
C17 N5 1_555 1_555
C18 N6 1_555 1_555
H16 C18 1_555 1_555
H17 C18 1_555 1_555
H18 C18 1_555 1_555
C19 N6 1_555 1_555
C20 C19 1_555 1_555
H19 C20 1_555 1_555
C21 C20 1_555 1_555
H20 C21 1_555 1_555
C22 C21 1_555 1_555
H21 C22 1_555 1_555
C23 N7 1_555 1_555
C24 N8 1_555 1_555
H22 C24 1_555 1_555
H23 C24 1_555 1_555
H24 C24 1_555 1_555
C25 C26 1_555 1_555
C26 H25 1_555 1_555
C27 C26 1_555 1_555
H26 C27 1_555 1_555
C28 C27 1_555 1_555
H27 C28 1_555 1_555
C29 N9 1_555 1_555
C30 N10 1_555 1_555
H28 C30 1_555 1_555
H29 C30 1_555 1_555
H30 C30 1_555 1_555
C31 N10 1_555 1_555
C32 C31 1_555 1_555
H31 C32 1_555 1_555
C33 C32 1_555 1_555
H32 C33 1_555 1_555
C34 C33 1_555 1_555
H33 C34 1_555 1_555
C35 N11 1_555 1_555
C36 N12 1_555 1_555
H34 C36 1_555 1_555
H35 C36 1_555 1_555
H36 C36 1_555 1_555
C37 N12 1_555 1_555
C38 C37 1_555 1_555
H37 C38 1_555 1_555
C39 C38 1_555 1_555
H38 C39 1_555 1_555
C40 C39 1_555 1_555
H39 C40 1_555 1_555
C41 N13 1_555 1_555
C42 N14 1_555 1_555
H40 C42 1_555 1_555
H41 C42 1_555 1_555
H42 C42 1_555 1_555
C43 N14 1_555 1_555
C44 C43 1_555 1_555
H43 C44 1_555 1_555
C45 C44 1_555 1_555
H44 C45 1_555 1_555
C46 C45 1_555 1_555
H45 C46 1_555 1_555
C47 N15 1_555 1_555
C48 N16 1_555 1_555
H46 C48 1_555 1_555
H47 C48 1_555 1_555
H48 C48 1_555 1_555
C49 H49 1_555 1_555
H50 C49 1_555 1_555
C50 C49 1_555 1_555
H51 C50 1_555 1_555
H52 C50 1_555 1_555
H53 C50 1_555 1_555
C51 H54 1_555 1_555
H55 C51 1_555 1_555
C52 C51 1_555 1_555
H56 C52 1_555 1_555
H57 C52 1_555 1_555
H58 C52 1_555 1_555
O1 C49 1_555 1_555
O2 C51 1_555 1_555
H59 O2 1_555 1_555
H60 O1 1_555 1_555
N8 C23 1_555 1_555
N16 C47 1_555 1_555
C4 C5 1_555 1_555
C10 C11 1_555 1_555
C16 C17 1_555 1_555
C22 C23 1_555 1_555
C28 C29 1_555 1_555
C34 C35 1_555 1_555
C40 C41 1_555 1_555
C46 C47 1_555 1_555

#END
