
#######################################################################
#
#                 Cambridge Crystallographic Data Centre
#                                CCDC 
#
#######################################################################
#
# If this CIF has been generated from an entry in the Cambridge 
# Structural Database, then it will include bibliographic, chemical, 
# crystal, experimental, refinement or atomic coordinate data resulting 
# from the CCDC's data processing and validation procedures.
#
#######################################################################

data_VIKWAO
_chemical_name_common            'Methylazacalix(4)pyridine methanol clathrate'
_chemical_formula_moiety         'C24 H24 N8,C1 H4 O1'
_chemical_name_systematic        
'2,4,6,8-Tetramethyl-2,4,6,8-tetraaza-1,3,5,7(2,6)-tetrapyridinacyclooctaphane methanol clathrate'
_symmetry_cell_setting           monoclinic
_symmetry_space_group_name_H-M   'P 21/n'
_symmetry_Int_Tables_number      14
_space_group_name_Hall           '-P 2yn'
loop_
_symmetry_equiv_pos_site_id
_symmetry_equiv_pos_as_xyz
1 x,y,z
2 1/2-x,1/2+y,1/2-z
3 -x,-y,-z
4 1/2+x,1/2-y,1/2+z
_cell_length_a                   6.1657(12)
_cell_length_b                   18.607(4)
_cell_length_c                   20.110(4)
_cell_angle_alpha                90
_cell_angle_beta                 91.04(3)
_cell_angle_gamma                90
_cell_volume                     2306.74
_exptl_crystal_colour            colorless
_exptl_crystal_description       block
_cell_formula_units_Z            4
loop_
_atom_site_label
_atom_site_type_symbol
_atom_site_fract_x
_atom_site_fract_y
_atom_site_fract_z
N1 N 0.6150(4) 0.69112(13) -0.01699(10)
N2 N 0.6249(4) 0.79664(14) -0.07552(11)
N3 N 0.6185(4) 0.86880(13) 0.01998(12)
N4 N 0.6372(5) 0.93815(15) 0.11783(14)
N5 N 0.6383(4) 0.83586(14) 0.18253(11)
N6 N 0.6163(4) 0.72928(15) 0.24065(11)
N7 N 0.5842(4) 0.66008(13) 0.14397(11)
N8 N 0.5779(4) 0.58973(13) 0.04736(12)
C1 C 0.6702(5) 0.62299(16) -0.00683(13)
C2 C 0.8135(5) 0.58683(19) -0.04849(16)
H1 H 0.8504 0.5390 -0.0411
C3 C 0.8967(6) 0.6246(2) -0.10022(16)
H2 H 0.9919 0.6017 -0.1287
C4 C 0.8445(5) 0.69520(19) -0.11164(14)
H3 H 0.9040 0.7209 -0.1465
C5 C 0.6960(4) 0.72689(16) -0.06794(13)
C6 C 0.7454(6) 0.8470(2) -0.11571(16)
H4 H 0.8193 0.8214 -0.1500
H5 H 0.8496 0.8719 -0.0881
H6 H 0.6471 0.8811 -0.1356
C7 C 0.5056(5) 0.82777(15) -0.02182(13)
C8 C 0.2884(5) 0.81396(18) -0.01617(15)
H7 H 0.2158 0.7846 -0.0467
C9 C 0.1810(5) 0.84475(19) 0.03596(16)
H8 H 0.0333 0.8369 0.0412
C10 C 0.2948(6) 0.88729(19) 0.08019(16)
H9 H 0.2255 0.9091 0.1156
C11 C 0.5117(5) 0.89685(16) 0.07105(15)
C12 C 0.7537(7) 1.00018(19) 0.0911(2)
H10 H 0.8324 1.0238 0.1265
H11 H 0.6517 1.0332 0.0713
H12 H 0.8533 0.9842 0.0581
C13 C 0.7148(5) 0.90177(19) 0.17415(15)
C14 C 0.8637(6) 0.9339(2) 0.2189(2)
H13 H 0.9173 0.9800 0.2125
C15 C 0.9254(6) 0.8924(2) 0.27335(18)
H14 H 1.0230 0.9116 0.3044
C16 C 0.8487(6) 0.8247(2) 0.28313(16)
H15 H 0.8922 0.7975 0.3198
C17 C 0.7022(5) 0.79806(19) 0.23585(13)
C18 C 0.7382(6) 0.6743(2) 0.27698(16)
H16 H 0.8205 0.6964 0.3124
H17 H 0.8349 0.6504 0.2473
H18 H 0.6394 0.6399 0.2951
C19 C 0.4862(5) 0.70390(17) 0.18585(13)
C20 C 0.2724(5) 0.72440(19) 0.17940(15)
H19 H 0.2108 0.7559 0.2096
C21 C 0.1527(5) 0.6971(2) 0.12702(16)
H20 H 0.0067 0.7086 0.1218
C22 C 0.2523(5) 0.65218(18) 0.08225(15)
H21 H 0.1756 0.6334 0.0460
C23 C 0.4660(5) 0.63605(16) 0.09255(14)
C24 C 0.6837(6) 0.52765(18) 0.07682(18)
H22 H 0.7533 0.5004 0.0428
H23 H 0.5777 0.4982 0.0981
H24 H 0.7901 0.5432 0.1091
C25 C 0.2093 1.0524 0.2724
H25 H 0.1732 1.0305 0.3140
H26 H 0.0834 1.0531 0.2436
H27 H 0.2583 1.1007 0.2801
O1 O 0.3705 1.0137 0.2431
H28 H 0.4932 1.0443 0.2359
loop_
_geom_bond_atom_site_label_1
_geom_bond_atom_site_label_2
_geom_bond_site_symmetry_1
_geom_bond_site_symmetry_2
N1 C1 1_555 1_555
N2 C5 1_555 1_555
N3 C7 1_555 1_555
N4 C11 1_555 1_555
N5 C13 1_555 1_555
N6 C17 1_555 1_555
N7 C19 1_555 1_555
N8 C1 1_555 1_555
C1 C2 1_555 1_555
C2 H1 1_555 1_555
C3 C2 1_555 1_555
H2 C3 1_555 1_555
C4 C3 1_555 1_555
H3 C4 1_555 1_555
C5 N1 1_555 1_555
C6 N2 1_555 1_555
H4 C6 1_555 1_555
H5 C6 1_555 1_555
H6 C6 1_555 1_555
C7 N2 1_555 1_555
C8 C7 1_555 1_555
H7 C8 1_555 1_555
C9 C8 1_555 1_555
H8 C9 1_555 1_555
C10 C9 1_555 1_555
H9 C10 1_555 1_555
C11 N3 1_555 1_555
C12 N4 1_555 1_555
H10 C12 1_555 1_555
H11 C12 1_555 1_555
H12 C12 1_555 1_555
C13 N4 1_555 1_555
C14 C13 1_555 1_555
H13 C14 1_555 1_555
C15 C14 1_555 1_555
H14 C15 1_555 1_555
C16 C15 1_555 1_555
H15 C16 1_555 1_555
C17 N5 1_555 1_555
C18 N6 1_555 1_555
H16 C18 1_555 1_555
H17 C18 1_555 1_555
H18 C18 1_555 1_555
C19 N6 1_555 1_555
C20 C19 1_555 1_555
H19 C20 1_555 1_555
C21 C20 1_555 1_555
H20 C21 1_555 1_555
C22 C21 1_555 1_555
H21 C22 1_555 1_555
C23 N7 1_555 1_555
C24 N8 1_555 1_555
H22 C24 1_555 1_555
H23 C24 1_555 1_555
H24 C24 1_555 1_555
C25 H25 1_555 1_555
H26 C25 1_555 1_555
H27 C25 1_555 1_555
O1 C25 1_555 1_555
H28 O1 1_555 1_555
N8 C23 1_555 1_555
C4 C5 1_555 1_555
C10 C11 1_555 1_555
C16 C17 1_555 1_555
C22 C23 1_555 1_555

#END
