
#######################################################################
#
#                 Cambridge Crystallographic Data Centre
#                                CCDC 
#
#######################################################################
#
# If this CIF has been generated from an entry in the Cambridge 
# Structural Database, then it will include bibliographic, chemical, 
# crystal, experimental, refinement or atomic coordinate data resulting 
# from the CCDC's data processing and validation procedures.
#
#######################################################################

data_VIKXEU
_chemical_formula_moiety         'C14 H16 N2'
_chemical_name_systematic        
3,4-Dimethyl-N-(1-(1H-pyrrol-2-yl)ethylidene)aniline
_symmetry_cell_setting           monoclinic
_symmetry_space_group_name_H-M   'P 21/c'
_symmetry_Int_Tables_number      14
_space_group_name_Hall           '-P 2ybc'
loop_
_symmetry_equiv_pos_site_id
_symmetry_equiv_pos_as_xyz
1 x,y,z
2 -x,1/2+y,1/2-z
3 -x,-y,-z
4 x,1/2-y,1/2+z
_cell_length_a                   13.013(3)
_cell_length_b                   10.265(2)
_cell_length_c                   9.892(2)
_cell_angle_alpha                90
_cell_angle_beta                 110.448(4)
_cell_angle_gamma                90
_cell_volume                     1238.1
_exptl_crystal_colour            colorless
_exptl_crystal_description       block
_cell_formula_units_Z            4
loop_
_atom_site_label
_atom_site_type_symbol
_atom_site_fract_x
_atom_site_fract_y
_atom_site_fract_z
N1 N -0.17111(16) 0.46605(19) -0.02161(19)
H1 H -0.1169(19) 0.500(2) -0.040(2)
N2 N 0.03340(15) 0.40619(18) 0.18907(18)
C1 C -0.27753(19) 0.4720(2) -0.1073(3)
H2 H -0.3055 0.5154 -0.1951
C2 C -0.3370(2) 0.4029(3) -0.0421(3)
H3 H -0.4126 0.3911 -0.0773
C3 C -0.2642(2) 0.3534(3) 0.0862(3)
H4 H -0.2824 0.3022 0.1521
C4 C -0.15956(18) 0.3937(2) 0.0987(2)
C5 C -0.0541(2) 0.3664(2) 0.2080(2)
C6 C -0.0547(2) 0.2908(3) 0.3394(3)
H5 H -0.0256 0.2051 0.3377
H6 H -0.1286 0.2840 0.3384
H7 H -0.0104 0.3353 0.4253
C7 C 0.13719(19) 0.3741(2) 0.2936(2)
C8 C 0.1881(2) 0.2577(2) 0.2830(2)
H8 H 0.1532 0.1986 0.2102
C9 C 0.2905(2) 0.2303(3) 0.3809(3)
H9 H 0.3231 0.1514 0.3731
C10 C 0.34727(19) 0.3147(3) 0.4904(2)
C11 C 0.2978(2) 0.4342(2) 0.4993(2)
C12 C 0.1935(2) 0.4612(2) 0.4006(2)
H10 H 0.1608 0.5404 0.4069
C13 C 0.4574(2) 0.2778(3) 0.5978(3)
H11 H 0.4773 0.1926 0.5755
H12 H 0.4538 0.2775 0.6931
H13 H 0.5114 0.3398 0.5935
C14 C 0.3561(2) 0.5324(3) 0.6135(3)
H14 H 0.3130 0.6105 0.5992
H15 H 0.4263 0.5521 0.6071
H16 H 0.3660 0.4970 0.7071
loop_
_geom_bond_atom_site_label_1
_geom_bond_atom_site_label_2
_geom_bond_site_symmetry_1
_geom_bond_site_symmetry_2
N1 H1 1_555 1_555
N2 C5 1_555 1_555
C1 N1 1_555 1_555
H2 C1 1_555 1_555
C2 C1 1_555 1_555
H3 C2 1_555 1_555
C3 C2 1_555 1_555
H4 C3 1_555 1_555
C4 N1 1_555 1_555
C5 C4 1_555 1_555
C6 C5 1_555 1_555
H5 C6 1_555 1_555
H6 C6 1_555 1_555
H7 C6 1_555 1_555
C7 N2 1_555 1_555
C8 C7 1_555 1_555
H8 C8 1_555 1_555
C9 C8 1_555 1_555
H9 C9 1_555 1_555
C10 C9 1_555 1_555
C11 C10 1_555 1_555
C12 C7 1_555 1_555
H10 C12 1_555 1_555
C13 C10 1_555 1_555
H11 C13 1_555 1_555
H12 C13 1_555 1_555
H13 C13 1_555 1_555
C14 C11 1_555 1_555
H14 C14 1_555 1_555
H15 C14 1_555 1_555
H16 C14 1_555 1_555
C3 C4 1_555 1_555
C11 C12 1_555 1_555

#END
