
#######################################################################
#
#                 Cambridge Crystallographic Data Centre
#                                CCDC 
#
#######################################################################
#
# If this CIF has been generated from an entry in the Cambridge 
# Structural Database, then it will include bibliographic, chemical, 
# crystal, experimental, refinement or atomic coordinate data resulting 
# from the CCDC's data processing and validation procedures.
#
#######################################################################

data_VIKXIY
_chemical_name_common            
3,4-Dimethyl-N-(1-(2-thienyl)ethylidene)aniline
_chemical_formula_moiety         'C14 H15 N1 S1'
_chemical_name_systematic        
3,4-Dimethyl-N-(1-(1-thiophen-2-yl)ethylidene)aniline
_symmetry_cell_setting           monoclinic
_symmetry_space_group_name_H-M   'C 2/c'
_symmetry_Int_Tables_number      15
_space_group_name_Hall           '-C 2yn'
loop_
_symmetry_equiv_pos_site_id
_symmetry_equiv_pos_as_xyz
1 x,y,z
2 -x,y,1/2-z
3 1/2+x,1/2+y,z
4 1/2-x,1/2+y,1/2-z
5 -x,-y,-z
6 x,-y,1/2+z
7 1/2-x,1/2-y,-z
8 1/2+x,1/2-y,1/2+z
_cell_length_a                   11.1481(15)
_cell_length_b                   13.1309(18)
_cell_length_c                   17.839(2)
_cell_angle_alpha                90
_cell_angle_beta                 94.474(3)
_cell_angle_gamma                90
_cell_volume                     2603.4
_exptl_crystal_colour            yellow
_exptl_crystal_description       block
_cell_formula_units_Z            8
loop_
_atom_site_label
_atom_site_type_symbol
_atom_site_fract_x
_atom_site_fract_y
_atom_site_fract_z
S1 S 0.20232(6) 0.52375(5) 0.25492(4)
N1 N 0.37976(17) 0.62611(14) 0.35887(11)
C1 C 0.1665(3) 0.4120(2) 0.21001(16)
H1 H 0.0989 0.4036 0.1766
C2 C 0.2455(3) 0.3381(2) 0.22768(16)
H2 H 0.2389 0.2726 0.2079
C3 C 0.3407(2) 0.36991(19) 0.27980(14)
H3 H 0.4031 0.3277 0.2983
C4 C 0.3299(2) 0.47154(17) 0.29997(12)
C5 C 0.40930(19) 0.53363(16) 0.35088(12)
C6 C 0.5174(2) 0.48288(19) 0.38900(16)
H4 H 0.5516 0.5258 0.4287
H5 H 0.5759 0.4713 0.3532
H6 H 0.4943 0.4189 0.4096
C7 C 0.4550(2) 0.69472(16) 0.40323(14)
C8 C 0.5569(2) 0.7354(2) 0.37574(15)
H7 H 0.5809 0.7141 0.3295
C9 C 0.6228(2) 0.8075(2) 0.41679(16)
H8 H 0.6915 0.8338 0.3977
C10 C 0.5907(2) 0.84183(19) 0.48493(16)
C11 C 0.4879(2) 0.80154(18) 0.51412(14)
C12 C 0.4204(2) 0.72907(19) 0.47157(14)
H9 H 0.3506 0.7034 0.4897
C13 C 0.6665(3) 0.9214(2) 0.5284(2)
H10 H 0.7326 0.9407 0.5000
H11 H 0.6969 0.8936 0.5759
H12 H 0.6180 0.9801 0.5367
C14 C 0.4467(3) 0.8354(3) 0.58840(17)
H13 H 0.5100 0.8246 0.6272
H14 H 0.3771 0.7968 0.5995
H15 H 0.4265 0.9065 0.5859
loop_
_geom_bond_atom_site_label_1
_geom_bond_atom_site_label_2
_geom_bond_site_symmetry_1
_geom_bond_site_symmetry_2
S1 C1 1_555 1_555
N1 C5 1_555 1_555
C1 H1 1_555 1_555
C2 C1 1_555 1_555
H2 C2 1_555 1_555
C3 C2 1_555 1_555
H3 C3 1_555 1_555
C4 S1 1_555 1_555
C5 C4 1_555 1_555
C6 C5 1_555 1_555
H4 C6 1_555 1_555
H5 C6 1_555 1_555
H6 C6 1_555 1_555
C7 N1 1_555 1_555
C8 C7 1_555 1_555
H7 C8 1_555 1_555
C9 C8 1_555 1_555
H8 C9 1_555 1_555
C10 C9 1_555 1_555
C11 C10 1_555 1_555
C12 C7 1_555 1_555
H9 C12 1_555 1_555
C13 C10 1_555 1_555
H10 C13 1_555 1_555
H11 C13 1_555 1_555
H12 C13 1_555 1_555
C14 C11 1_555 1_555
H13 C14 1_555 1_555
H14 C14 1_555 1_555
H15 C14 1_555 1_555
C3 C4 1_555 1_555
C11 C12 1_555 1_555

#END
