
#######################################################################
#
#                 Cambridge Crystallographic Data Centre
#                                CCDC 
#
#######################################################################
#
# If this CIF has been generated from an entry in the Cambridge 
# Structural Database, then it will include bibliographic, chemical, 
# crystal, experimental, refinement or atomic coordinate data resulting 
# from the CCDC's data processing and validation procedures.
#
#######################################################################

data_VILCUO
_chemical_name_common            
(+-)-7(S)-Deformyl-21-oxogeissoschizine-oxindole
_chemical_formula_moiety         'C20 H22 N2 O4'
_chemical_name_systematic        
"Methyl (3S*,7'S*,8a'S*)-2',3',6',7',8a'-hexahydro-6'(E)-ethylidene-2,5'-dioxospiro(3H-indole-3,1'(5'H)-indolizine)-7'-yl acetate"
_symmetry_cell_setting           monoclinic
_symmetry_space_group_name_H-M   'P 21/c'
_symmetry_Int_Tables_number      14
_space_group_name_Hall           '-P 2ybc'
loop_
_symmetry_equiv_pos_site_id
_symmetry_equiv_pos_as_xyz
1 x,y,z
2 -x,1/2+y,1/2-z
3 -x,-y,-z
4 x,1/2-y,1/2+z
_cell_length_a                   10.5052(7)
_cell_length_b                   16.442(2)
_cell_length_c                   10.3415(8)
_cell_angle_alpha                90
_cell_angle_beta                 95.358(6)
_cell_angle_gamma                90
_cell_volume                     1778.45
_cell_formula_units_Z            4
loop_
_atom_site_label
_atom_site_type_symbol
_atom_site_fract_x
_atom_site_fract_y
_atom_site_fract_z
N1 N 0.02629(12) 0.55818(8) 0.35046(13)
C1 C 0.10500(13) 0.49300(9) 0.34729(14)
C2 C 0.17681(13) 0.49863(8) 0.22599(14)
C3 C 0.13566(14) 0.58097(9) 0.17219(14)
C4 C 0.16929(15) 0.62445(9) 0.06619(15)
C5 C 0.1061(2) 0.69723(10) 0.0345(2)
C6 C 0.01128(15) 0.72558(10) 0.1070(2)
C7 C -0.02182(15) 0.68342(10) 0.2161(2)
C8 C 0.04231(14) 0.61168(9) 0.24641(14)
O1 O 0.11537(10) 0.43737(6) 0.42739(10)
C9 C 0.13597(15) 0.42803(9) 0.13148(15)
C10 C 0.24558(14) 0.42101(10) 0.04599(15)
N2 N 0.35576(11) 0.44460(7) 0.13485(11)
C11 C 0.47802(14) 0.43086(8) 0.11288(14)
C12 C 0.57285(13) 0.45197(8) 0.22501(14)
C13 C 0.54738(13) 0.52330(8) 0.31360(14)
C14 C 0.40877(14) 0.55340(9) 0.28924(15)
C15 C 0.32087(13) 0.48212(9) 0.25560(13)
O2 O 0.50791(10) 0.39906(6) 0.01185(10)
C16 C 0.67155(14) 0.40119(9) 0.2470(2)
C17 C 0.7722(2) 0.40352(13) 0.3591(2)
C18 C 0.64314(15) 0.59217(9) 0.29504(15)
C19 C 0.64956(14) 0.66149(9) 0.39004(14)
O3 O 0.71330(12) 0.72152(7) 0.37851(12)
O4 O 0.57954(10) 0.64991(6) 0.48985(10)
C20 C 0.5874(2) 0.71394(11) 0.5867(2)
H1 H -0.021(2) 0.5658(10) 0.420(2)
H2 H 0.235(2) 0.6053(9) 0.015(2)
H3 H 0.1296(14) 0.7271(10) -0.040(2)
H4 H -0.032(2) 0.7759(12) 0.084(2)
H5 H -0.086(2) 0.7020(10) 0.269(2)
H6 H 0.053(2) 0.4390(9) 0.080(2)
H7 H 0.130(2) 0.3764(11) 0.184(2)
H8 H 0.2536(15) 0.3659(10) 0.016(2)
H9 H 0.2349(15) 0.4581(10) -0.031(2)
H10 H 0.5598(14) 0.5045(8) 0.401(2)
H11 H 0.4032(14) 0.5919(9) 0.2175(14)
H12 H 0.383(2) 0.5815(10) 0.366(2)
H13 H 0.3274(13) 0.4420(8) 0.3265(14)
H14 H 0.6783(15) 0.3570(10) 0.183(2)
H15 H 0.764(2) 0.4492(13) 0.422(2)
H16 H 0.770(3) 0.352(2) 0.405(3)
H17 H 0.855(3) 0.4057(15) 0.328(2)
H18 H 0.626(2) 0.6155(10) 0.206(2)
H19 H 0.730(2) 0.5719(10) 0.295(2)
H20 H 0.676(2) 0.720(2) 0.627(2)
H21 H 0.534(2) 0.6957(12) 0.651(2)
H22 H 0.557(2) 0.7638(14) 0.543(2)
loop_
_geom_bond_atom_site_label_1
_geom_bond_atom_site_label_2
_geom_bond_site_symmetry_1
_geom_bond_site_symmetry_2
N1 C1 1_555 1_555
C1 C2 1_555 1_555
C2 C3 1_555 1_555
C3 C4 1_555 1_555
C4 C5 1_555 1_555
C5 C6 1_555 1_555
C6 C7 1_555 1_555
C7 C8 1_555 1_555
C8 N1 1_555 1_555
O1 C1 1_555 1_555
C9 C2 1_555 1_555
C10 C9 1_555 1_555
N2 C10 1_555 1_555
C11 N2 1_555 1_555
C12 C11 1_555 1_555
C13 C12 1_555 1_555
C14 C13 1_555 1_555
C15 C2 1_555 1_555
O2 C11 1_555 1_555
C16 C12 1_555 1_555
C17 C16 1_555 1_555
C18 C13 1_555 1_555
C19 C18 1_555 1_555
O3 C19 1_555 1_555
O4 C19 1_555 1_555
C20 O4 1_555 1_555
H1 N1 1_555 1_555
H2 C4 1_555 1_555
H3 C5 1_555 1_555
H4 C6 1_555 1_555
H5 C7 1_555 1_555
H6 C9 1_555 1_555
H7 C9 1_555 1_555
H8 C10 1_555 1_555
H9 C10 1_555 1_555
H10 C13 1_555 1_555
H11 C14 1_555 1_555
H12 C14 1_555 1_555
H13 C15 1_555 1_555
H14 C16 1_555 1_555
H15 C17 1_555 1_555
H16 C17 1_555 1_555
H17 C17 1_555 1_555
H18 C18 1_555 1_555
H19 C18 1_555 1_555
H20 C20 1_555 1_555
H21 C20 1_555 1_555
H22 C20 1_555 1_555
C3 C8 1_555 1_555
N2 C15 1_555 1_555
C14 C15 1_555 1_555

#END
