
#######################################################################
#
#                 Cambridge Crystallographic Data Centre
#                                CCDC 
#
#######################################################################
#
# If this CIF has been generated from an entry in the Cambridge 
# Structural Database, then it will include bibliographic, chemical, 
# crystal, experimental, refinement or atomic coordinate data resulting 
# from the CCDC's data processing and validation procedures.
#
#######################################################################

data_VILCID03
_chemical_formula_moiety         'C15 H12 O4'
_chemical_name_systematic        3,3'-methylenebis(6-hydroxybenzaldehyde)
_symmetry_cell_setting           monoclinic
_symmetry_space_group_name_H-M   'P 21/n'
_symmetry_Int_Tables_number      14
_space_group_name_Hall           '-P 2yn'
loop_
_symmetry_equiv_pos_site_id
_symmetry_equiv_pos_as_xyz
1 x,y,z
2 1/2-x,1/2+y,1/2-z
3 -x,-y,-z
4 1/2+x,1/2-y,1/2+z
_cell_length_a                   7.804(2)
_cell_length_b                   11.720(3)
_cell_length_c                   13.252(4)
_cell_angle_alpha                90
_cell_angle_beta                 94.565(5)
_cell_angle_gamma                90
_cell_volume                     1208.22
_cell_formula_units_Z            4
loop_
_atom_site_label
_atom_site_type_symbol
_atom_site_fract_x
_atom_site_fract_y
_atom_site_fract_z
C1 C 0.9248(3) 0.1443(2) 0.83848(16)
H1 H 0.9851 0.1982 0.8039
C2 C 0.7420(2) 0.13257(19) 0.81071(14)
C3 C 0.6432(3) 0.0531(2) 0.85810(15)
C4 C 0.4691(3) 0.0461(2) 0.83132(17)
H2 H 0.4021 -0.0060 0.8636
C5 C 0.3949(3) 0.1156(2) 0.75729(16)
H3 H 0.2777 0.1087 0.7395
C6 C 0.4887(2) 0.19650(18) 0.70751(14)
C7 C 0.6616(3) 0.20327(19) 0.73592(14)
H4 H 0.7276 0.2566 0.7044
C8 C 0.3998(3) 0.2739(2) 0.62843(15)
H5 H 0.3315 0.3293 0.6619
H6 H 0.4863 0.3153 0.5946
C9 C 0.2847(3) 0.21124(18) 0.55001(15)
C10 C 0.3539(3) 0.1281(2) 0.49016(15)
H7 H 0.4710 0.1127 0.4999
C11 C 0.2571(3) 0.0677(2) 0.41747(16)
H8 H 0.3083 0.0131 0.3788
C12 C 0.0829(3) 0.08895(19) 0.40243(15)
C13 C 0.0077(2) 0.17224(19) 0.45959(14)
C14 C 0.1118(3) 0.2321(2) 0.53347(15)
H9 H 0.0618 0.2873 0.5721
C15 C -0.1716(3) 0.1992(2) 0.44203(18)
H10 H -0.2154 0.2568 0.4808
O1 O 1.00488(19) 0.08843(15) 0.90396(12)
O2 O 0.7118(2) -0.01823(16) 0.93164(12)
H11 H 0.8155 -0.0069 0.9408
O3 O -0.0118(2) 0.02834(14) 0.33011(11)
H12 H -0.1121 0.0497 0.3275
O4 O -0.2704(2) 0.15160(17) 0.37978(14)
loop_
_geom_bond_atom_site_label_1
_geom_bond_atom_site_label_2
_geom_bond_site_symmetry_1
_geom_bond_site_symmetry_2
C1 H1 1_555 1_555
C2 C1 1_555 1_555
C3 C2 1_555 1_555
C4 C3 1_555 1_555
H2 C4 1_555 1_555
C5 C4 1_555 1_555
H3 C5 1_555 1_555
C6 C5 1_555 1_555
C7 C2 1_555 1_555
H4 C7 1_555 1_555
C8 C6 1_555 1_555
H5 C8 1_555 1_555
H6 C8 1_555 1_555
C9 C8 1_555 1_555
C10 C9 1_555 1_555
H7 C10 1_555 1_555
C11 C10 1_555 1_555
H8 C11 1_555 1_555
C12 C11 1_555 1_555
C13 C12 1_555 1_555
C14 C9 1_555 1_555
H9 C14 1_555 1_555
C15 C13 1_555 1_555
H10 C15 1_555 1_555
O1 C1 1_555 1_555
O2 C3 1_555 1_555
H11 O2 1_555 1_555
O3 C12 1_555 1_555
H12 O3 1_555 1_555
O4 C15 1_555 1_555
C6 C7 1_555 1_555
C13 C14 1_555 1_555

#END
