
#######################################################################
#
#                 Cambridge Crystallographic Data Centre
#                                CCDC 
#
#######################################################################
#
# If this CIF has been generated from an entry in the Cambridge 
# Structural Database, then it will include bibliographic, chemical, 
# crystal, experimental, refinement or atomic coordinate data resulting 
# from the CCDC's data processing and validation procedures.
#
#######################################################################

data_VILDOJ
_chemical_formula_moiety         'C20 H26 O8'
_chemical_name_systematic        
'Methyl 3-deoxy-7,8-O-(methylethylidene)-1-O-(phenylmethyl)-\a-D-manno-2-octalopyranoside cyclic carbonate'
_symmetry_cell_setting           orthorhombic
_symmetry_space_group_name_H-M   'P 21 21 21'
_symmetry_Int_Tables_number      19
_space_group_name_Hall           'P 2ac 2ab'
loop_
_symmetry_equiv_pos_site_id
_symmetry_equiv_pos_as_xyz
1 x,y,z
2 1/2+x,1/2-y,-z
3 -x,1/2+y,1/2-z
4 1/2-x,-y,1/2+z
_cell_length_a                   10.667(3)
_cell_length_b                   10.7972(14)
_cell_length_c                   16.509(5)
_cell_angle_alpha                90
_cell_angle_beta                 90
_cell_angle_gamma                90
_cell_volume                     1901.4
_exptl_crystal_colour            colorless
_cell_formula_units_Z            4
loop_
_atom_site_label
_atom_site_type_symbol
_atom_site_fract_x
_atom_site_fract_y
_atom_site_fract_z
O1 O -0.1008(1) 0.4388(1) 0.35746(9)
C1 C -0.0501(2) 0.5240(2) 0.4150(1)
C2 C 0.0558(2) 0.4624(2) 0.4606(1)
O2 O 0.16755(1) 0.4581(1) 0.4122(1)
C3 C 0.1868(2) 0.3426(2) 0.3854(1)
O3 O 0.2700(2) 0.3143(2) 0.3408(1)
O4 O 0.1023(2) 0.2643(1) 0.41454(9)
C4 C 0.0290(2) 0.3255(2) 0.4766(1)
C5 C -0.1080(2) 0.2914(2) 0.4691(1)
C6 C -0.1721(2) 0.3429(2) 0.3940(1)
O5 O -0.2875(1) 0.3879(1) 0.42260(9)
C7 C -0.3733(2) 0.4313(3) 0.3631(2)
C8 C -0.1864(2) 0.2494(2) 0.3257(1)
O6 O -0.2732(2) 0.1593(2) 0.35010(8)
C9 C -0.3061(2) 0.0762(2) 0.2867(1)
C10 C -0.4197(2) 0.0073(2) 0.3121(1)
C11 C -0.4155(2) -0.1194(2) 0.3250(2)
C12 C -0.5205(2) -0.1821(2) 0.3523(2)
C13 C -0.6313(2) -0.1191(2) 0.3663(2)
C14 C -0.6360(2) 0.0071(2) 0.3524(2)
C15 C -0.5319(2) 0.0695(2) 0.3256(1)
C16 C -0.0135(2) 0.6366(2) 0.3657(2)
O7 O 0.0255(2) 0.7342(1) 0.4170(1)
C17 C -0.0470(2) 0.8421(2) 0.3984(2)
O8 O -0.1013(2) 0.8192(2) 0.3224(1)
C18 C -0.1230(3) 0.6897(2) 0.3186(2)
C19 C -0.1454(3) 0.8627(3) 0.4621(2)
C20 C 0.0391(3) 0.9511(2) 0.3892(2)
H1 H -0.118(3) 0.543(2) 0.4496(15)
H2 H 0.071(2) 0.503(2) 0.5133(13)
H3 H 0.062(2) 0.299(2) 0.5234(13)
H4 H -0.142(2) 0.324(2) 0.515(2)
H5 H -0.120(2) 0.202(2) 0.4717(15)
H6 H -0.340(3) 0.486(3) 0.328(2)
H7 H -0.408(3) 0.365(3) 0.331(2)
H8 H -0.434(3) 0.480(4) 0.391(2)
H9 H -0.213(2) 0.292(2) 0.2798(14)
H10 H -0.109(3) 0.217(2) 0.3117(15)
H11 H -0.233(3) 0.023(2) 0.2799(14)
H12 H -0.318(3) 0.122(3) 0.237(2)
H13 H -0.329(3) -0.157(3) 0.316(2)
H14 H -0.515(3) -0.264(3) 0.370(2)
H15 H -0.701(2) -0.163(2) 0.3876(14)
H16 H -0.711(3) 0.050(3) 0.358(2)
H17 H -0.545(3) 0.158(4) 0.312(2)
H18 H 0.050(2) 0.616(2) 0.3338(13)
H19 H -0.128(2) 0.665(3) 0.257(2)
H20 H -0.208(3) 0.671(2) 0.3393(14)
H21 H -0.198(3) 0.942(3) 0.448(2)
H22 H -0.198(3) 0.787(3) 0.456(2)
H23 H -0.100(3) 0.877(3) 0.508(2)
H24 H -0.008(3) 1.030(3) 0.375(2)
H25 H 0.090(3) 0.934(3) 0.354(2)
H26 H 0.096(4) 0.956(4) 0.450(3)
loop_
_geom_bond_atom_site_label_1
_geom_bond_atom_site_label_2
_geom_bond_site_symmetry_1
_geom_bond_site_symmetry_2
O1 C1 1_555 1_555
C1 C2 1_555 1_555
C2 O2 1_555 1_555
O2 C3 1_555 1_555
C3 O3 1_555 1_555
O4 C3 1_555 1_555
C4 C2 1_555 1_555
C5 C4 1_555 1_555
C6 O1 1_555 1_555
O5 C6 1_555 1_555
C7 O5 1_555 1_555
C8 C6 1_555 1_555
O6 C8 1_555 1_555
C9 O6 1_555 1_555
C10 C9 1_555 1_555
C11 C10 1_555 1_555
C12 C11 1_555 1_555
C13 C12 1_555 1_555
C14 C13 1_555 1_555
C15 C10 1_555 1_555
C16 C1 1_555 1_555
O7 C16 1_555 1_555
C17 O7 1_555 1_555
O8 C17 1_555 1_555
C18 C16 1_555 1_555
C19 C17 1_555 1_555
C20 C17 1_555 1_555
H1 C1 1_555 1_555
H2 C2 1_555 1_555
H3 C4 1_555 1_555
H4 C5 1_555 1_555
H5 C5 1_555 1_555
H6 C7 1_555 1_555
H7 C7 1_555 1_555
H8 C7 1_555 1_555
H9 C8 1_555 1_555
H10 C8 1_555 1_555
H11 C9 1_555 1_555
H12 C9 1_555 1_555
H13 C11 1_555 1_555
H14 C12 1_555 1_555
H15 C13 1_555 1_555
H16 C14 1_555 1_555
H17 C15 1_555 1_555
H18 C16 1_555 1_555
H19 C18 1_555 1_555
H20 C18 1_555 1_555
H21 C19 1_555 1_555
H22 C19 1_555 1_555
H23 C19 1_555 1_555
H24 C20 1_555 1_555
H25 C20 1_555 1_555
H26 C20 1_555 1_555
O4 C4 1_555 1_555
C5 C6 1_555 1_555
C14 C15 1_555 1_555
O8 C18 1_555 1_555

#END
