
#######################################################################
#
#                 Cambridge Crystallographic Data Centre
#                                CCDC 
#
#######################################################################
#
# If this CIF has been generated from an entry in the Cambridge 
# Structural Database, then it will include bibliographic, chemical, 
# crystal, experimental, refinement or atomic coordinate data resulting 
# from the CCDC's data processing and validation procedures.
#
#######################################################################

data_VILNIQ
_chemical_formula_moiety         'C29 H21 Cl1 N2 O5'
_chemical_name_systematic        
"8-(4-chlorophenyl)-15-phenyl-11,12,13,13a-tetrahydro-9aH-pyrano[3'',2'':5',6']pyrano[4',3':2,3]pyrrolo[1,2-a]quinoxaline-6,7,14(15H)-trione unknown solvate"
_symmetry_cell_setting           triclinic
_symmetry_space_group_name_H-M   'P -1'
_symmetry_Int_Tables_number      2
_space_group_name_Hall           '-P 1'
loop_
_symmetry_equiv_pos_site_id
_symmetry_equiv_pos_as_xyz
1 x,y,z
2 -x,-y,-z
_cell_length_a                   8.4128(9)
_cell_length_b                   11.6815(13)
_cell_length_c                   14.7175(19)
_cell_angle_alpha                76.986(10)
_cell_angle_beta                 79.706(10)
_cell_angle_gamma                79.156(9)
_cell_volume                     1369.92
_exptl_crystal_colour            yellow
_exptl_crystal_description       prism
_cell_formula_units_Z            2
loop_
_atom_site_label
_atom_site_type_symbol
_atom_site_fract_x
_atom_site_fract_y
_atom_site_fract_z
Cl1 Cl 0.10785(7) 0.35802(6) 0.39028(4)
O1 O 1.15832(14) 0.43754(11) 0.06632(9)
O2 O 0.85778(16) 0.38373(10) 0.18567(9)
O3 O 0.66273(12) 0.79830(10) 0.04709(8)
O4 O 0.63663(12) 0.72856(9) 0.26665(8)
O5 O 0.73675(14) 0.87727(10) 0.30535(8)
N1 N 0.91149(14) 0.82576(11) -0.03637(9)
N2 N 1.04933(14) 0.63073(11) 0.08191(9)
C1 C 1.05022(19) 0.51061(14) 0.09647(11)
C2 C 0.8881(2) 0.48502(14) 0.15681(11)
C3 C 0.79773(18) 0.59946(13) 0.17120(10)
C4 C 0.89512(17) 0.69573(13) 0.12048(10)
C5 C 0.81019(18) 0.77654(13) 0.04018(10)
C6 C 1.08419(17) 0.79763(13) -0.04434(10)
C7 C 1.1846(2) 0.86605(15) -0.11129(12)
H1 H 1.1390 0.9337 -0.1506
C8 C 1.3528(2) 0.83356(17) -0.11957(13)
H2 H 1.4195 0.8797 -0.1646
C9 C 1.4226(2) 0.73374(19) -0.06196(13)
H3 H 1.5356 0.7123 -0.0686
C10 C 1.32448(19) 0.66569(17) 0.00555(12)
H4 H 1.3711 0.5987 0.0450
C11 C 1.15595(18) 0.69757(14) 0.01432(11)
C12 C 0.83443(18) 0.90191(13) -0.11338(10)
C13 C 0.8421(2) 0.86049(15) -0.19466(12)
H5 H 0.8990 0.7856 -0.2008
C14 C 0.7637(2) 0.93208(17) -0.26734(12)
H6 H 0.7687 0.9055 -0.3229
C15 C 0.6779(2) 1.04291(17) -0.25748(13)
H7 H 0.6251 1.0904 -0.3064
C16 C 0.6706(2) 1.08311(16) -0.17588(13)
H8 H 0.6126 1.1576 -0.1695
C17 C 0.7492(2) 1.01298(15) -0.10313(12)
H9 H 0.7450 1.0401 -0.0478
C18 C 0.66706(18) 0.62500(13) 0.23640(10)
C19 C 0.74226(19) 0.82087(13) 0.23181(11)
H10 H 0.6931 0.8791 0.1814
C20 C 0.91529(17) 0.77122(13) 0.19029(10)
H11 H 0.9695 0.8383 0.1546
C21 C 1.0181(2) 0.70187(16) 0.26629(12)
H12 H 0.9819 0.6256 0.2927
H13 H 1.1319 0.6873 0.2387
C22 C 1.0015(2) 0.77202(19) 0.34397(13)
H14 H 1.0576 0.7241 0.3951
H15 H 1.0518 0.8431 0.3195
C23 C 0.8238(2) 0.80625(19) 0.38021(13)
H16 H 0.7749 0.7350 0.4071
H17 H 0.8145 0.8510 0.4295
C24 C 0.54037(19) 0.55013(14) 0.27924(11)
C25 C 0.4497(2) 0.56156(16) 0.36636(12)
H18 H 0.4766 0.6109 0.4009
C26 C 0.3198(2) 0.49997(18) 0.40181(13)
H19 H 0.2605 0.5067 0.4606
C27 C 0.2785(2) 0.42834(17) 0.34954(13)
C28 C 0.3676(2) 0.41486(17) 0.26343(13)
H20 H 0.3396 0.3657 0.2291
C29 C 0.4981(2) 0.47485(15) 0.22887(12)
H21 H 0.5593 0.4653 0.1711
loop_
_geom_bond_atom_site_label_1
_geom_bond_atom_site_label_2
_geom_bond_site_symmetry_1
_geom_bond_site_symmetry_2
Cl1 C27 1_555 1_555
O1 C1 1_555 1_555
O2 C2 1_555 1_555
O3 C5 1_555 1_555
O4 C18 1_555 1_555
O5 C19 1_555 1_555
N1 C5 1_555 1_555
N2 C1 1_555 1_555
C1 C2 1_555 1_555
C2 C3 1_555 1_555
C3 C4 1_555 1_555
C4 N2 1_555 1_555
C5 C4 1_555 1_555
C6 N1 1_555 1_555
C7 C6 1_555 1_555
H1 C7 1_555 1_555
C8 C7 1_555 1_555
H2 C8 1_555 1_555
C9 C8 1_555 1_555
H3 C9 1_555 1_555
C10 C9 1_555 1_555
H4 C10 1_555 1_555
C11 N2 1_555 1_555
C12 N1 1_555 1_555
C13 C12 1_555 1_555
H5 C13 1_555 1_555
C14 C13 1_555 1_555
H6 C14 1_555 1_555
C15 C14 1_555 1_555
H7 C15 1_555 1_555
C16 C15 1_555 1_555
H8 C16 1_555 1_555
C17 C12 1_555 1_555
H9 C17 1_555 1_555
C18 C3 1_555 1_555
C19 O4 1_555 1_555
H10 C19 1_555 1_555
C20 C4 1_555 1_555
H11 C20 1_555 1_555
C21 C20 1_555 1_555
H12 C21 1_555 1_555
H13 C21 1_555 1_555
C22 C21 1_555 1_555
H14 C22 1_555 1_555
H15 C22 1_555 1_555
C23 O5 1_555 1_555
H16 C23 1_555 1_555
H17 C23 1_555 1_555
C24 C18 1_555 1_555
C25 C24 1_555 1_555
H18 C25 1_555 1_555
C26 C25 1_555 1_555
H19 C26 1_555 1_555
C27 C26 1_555 1_555
C28 C27 1_555 1_555
H20 C28 1_555 1_555
C29 C24 1_555 1_555
H21 C29 1_555 1_555
C6 C11 1_555 1_555
C10 C11 1_555 1_555
C16 C17 1_555 1_555
C19 C20 1_555 1_555
C22 C23 1_555 1_555
C28 C29 1_555 1_555

#END
