
#######################################################################
#
#                 Cambridge Crystallographic Data Centre
#                                CCDC 
#
#######################################################################
#
# If this CIF has been generated from an entry in the Cambridge 
# Structural Database, then it will include bibliographic, chemical, 
# crystal, experimental, refinement or atomic coordinate data resulting 
# from the CCDC's data processing and validation procedures.
#
#######################################################################

data_VILNUC
_chemical_formula_moiety         'C27 H20 N2 O6 S1'
_chemical_name_systematic        
9-(4-ethoxybenzene-1-carbonyl)-8-hydroxy-6-(2-hydroxyphenyl)-2-phenyl-1-thia-3,6-diazaspiro[4.4]nona-2,8-diene-4,7-dione
_symmetry_cell_setting           monoclinic
_symmetry_space_group_name_H-M   'P 21/c'
_symmetry_Int_Tables_number      14
_space_group_name_Hall           '-P 2ybc'
loop_
_symmetry_equiv_pos_site_id
_symmetry_equiv_pos_as_xyz
1 x,y,z
2 -x,1/2+y,1/2-z
3 -x,-y,-z
4 x,1/2-y,1/2+z
_cell_length_a                   7.2746(13)
_cell_length_b                   18.022(3)
_cell_length_c                   18.036(2)
_cell_angle_alpha                90
_cell_angle_beta                 95.931(15)
_cell_angle_gamma                90
_cell_volume                     2351.91
_exptl_crystal_colour            yellow
_exptl_crystal_description       prism
_cell_formula_units_Z            4
loop_
_atom_site_label
_atom_site_type_symbol
_atom_site_fract_x
_atom_site_fract_y
_atom_site_fract_z
S1 S 0.57257(8) 0.65198(4) 0.71985(3)
O1 O 0.9002(3) 0.61172(10) 0.49684(9)
H1 H 0.972(4) 0.5784(16) 0.4927(16)
O2 O 0.9094(2) 0.47770(8) 0.58738(8)
O3 O 0.3121(3) 0.56067(14) 0.54917(11)
O4 O 0.4474(2) 0.73799(11) 0.55909(11)
N1 N 0.2411(3) 0.62610(12) 0.65106(11)
N2 N 0.6662(3) 0.53306(10) 0.63838(10)
C1 C 0.5705(3) 0.60390(13) 0.63170(12)
C2 C 0.6701(3) 0.64534(12) 0.57594(11)
C3 C 0.7941(3) 0.59965(12) 0.55061(11)
C4 C 0.8021(3) 0.52880(12) 0.59228(12)
C5 C 0.3595(3) 0.59392(16) 0.60494(14)
C6 C 0.3301(3) 0.65722(13) 0.70820(12)
C7 C 0.2393(3) 0.69997(13) 0.76323(12)
C8 C 0.3384(4) 0.73766(18) 0.81995(14)
H2 H 0.4665 0.7333 0.8262
C9 C 0.2507(5) 0.78230(18) 0.86845(15)
H3 H 0.3193 0.8083 0.9063
C10 C 0.0652(5) 0.78734(16) 0.85984(17)
H4 H 0.0049 0.8168 0.8921
C11 C -0.0336(4) 0.74991(19) 0.8047(2)
H5 H -0.1618 0.7537 0.7996
C12 C 0.0507(4) 0.70625(16) 0.75572(16)
H6 H -0.0198 0.6811 0.7177
C13 C 0.6079(3) 0.72064(14) 0.55226(12)
C14 C 0.7351(3) 0.77293(13) 0.52213(13)
C15 C 0.9241(4) 0.77142(15) 0.54159(16)
H7 H 0.9756 0.7349 0.5737
C16 C 1.0363(4) 0.82372(18) 0.5136(2)
H8 H 1.1630 0.8230 0.5276
C17 C 0.9601(6) 0.87785(17) 0.4645(2)
C18 C 0.7738(6) 0.87915(19) 0.4452(2)
H9 H 0.7223 0.9148 0.4121
C19 C 0.6641(5) 0.82881(15) 0.47412(16)
H10 H 0.5370 0.8315 0.4616
O5 O 0.9043(8) 0.5297(3) 0.7664(3)
C20 C 0.640(2) 0.4802(15) 0.7012(12)
C21 C 0.7650(10) 0.4804(3) 0.7631(3)
C22 C 0.7519(16) 0.4298(4) 0.8200(4)
H11 H 0.8391 0.4296 0.8615
C23 C 0.610(2) 0.3805(10) 0.8145(9)
H12 H 0.6028 0.3450 0.8516
C24 C 0.4806(19) 0.3823(8) 0.7565(9)
H13 H 0.3795 0.3507 0.7560
C25 C 0.4928(19) 0.4304(8) 0.6966(8)
H14 H 0.4058 0.4292 0.6550
H15 H 0.935(11) 0.531(5) 0.8118(14)
O6 O 1.0332(8) 0.9335(3) 0.4255(4)
C26 C 1.2388(11) 0.9379(5) 0.4395(5)
H16 H 1.2925 0.8893 0.4335
H17 H 1.2744 0.9547 0.4901
C27 C 1.311(4) 0.9938(12) 0.3826(15)
H18 H 1.3083 0.9705 0.3346
H19 H 1.4356 1.0080 0.3994
H20 H 1.2337 1.0370 0.3789
O7? O 0.9514(8) 0.4762(4) 0.7378(3)
C28? C 0.636(3) 0.4775(16) 0.6874(11)
C29? C 0.7721(12) 0.4527(4) 0.7389(4)
C30? C 0.7314(17) 0.4039(5) 0.7943(4)
H21? H 0.8235 0.3872 0.8299
C31? C 0.552(2) 0.3810(13) 0.7951(10)
H22? H 0.5234 0.3495 0.8331
C32? C 0.4165(17) 0.4021(8) 0.7433(8)
H23? H 0.2970 0.3842 0.7449
C33? C 0.4547(18) 0.4505(8) 0.6873(8)
H24? H 0.3625 0.4649 0.6505
H25? H 0.967(12) 0.475(5) 0.6923(17)
O8? O 1.1461(14) 0.9167(4) 0.4548(4)
C34? C 1.091(2) 0.9623(6) 0.4020(6)
H26? H 0.9996 0.9971 0.4169
H27? H 1.0418 0.9368 0.3568
C35? C 1.279(3) 1.0002(13) 0.3936(13)
H28? H 1.3766 0.9648 0.4039
H29? H 1.2965 1.0407 0.4281
H30? H 1.2794 1.0185 0.3437
loop_
_geom_bond_atom_site_label_1
_geom_bond_atom_site_label_2
_geom_bond_site_symmetry_1
_geom_bond_site_symmetry_2
S1 C1 1_555 1_555
O1 H1 1_555 1_555
O2 C4 1_555 1_555
O3 C5 1_555 1_555
O4 C13 1_555 1_555
N1 C5 1_555 1_555
N2 C1 1_555 1_555
C1 C2 1_555 1_555
C2 C3 1_555 1_555
C3 O1 1_555 1_555
C4 N2 1_555 1_555
C5 C1 1_555 1_555
C6 S1 1_555 1_555
C7 C6 1_555 1_555
C8 C7 1_555 1_555
H2 C8 1_555 1_555
C9 C8 1_555 1_555
H3 C9 1_555 1_555
C10 C9 1_555 1_555
H4 C10 1_555 1_555
C11 C10 1_555 1_555
H5 C11 1_555 1_555
C12 C7 1_555 1_555
H6 C12 1_555 1_555
C13 C2 1_555 1_555
C14 C13 1_555 1_555
C15 C14 1_555 1_555
H7 C15 1_555 1_555
C16 C15 1_555 1_555
H8 C16 1_555 1_555
C17 C16 1_555 1_555
C18 C17 1_555 1_555
H9 C18 1_555 1_555
C19 C14 1_555 1_555
H10 C19 1_555 1_555
O5 C21 1_555 1_555
C20 N2 1_555 1_555
C21 C20 1_555 1_555
C22 C21 1_555 1_555
H11 C22 1_555 1_555
C23 C22 1_555 1_555
H12 C23 1_555 1_555
C24 C23 1_555 1_555
H13 C24 1_555 1_555
C25 C20 1_555 1_555
H14 C25 1_555 1_555
H15 O5 1_555 1_555
O6 C17 1_555 1_555
C26 O6 1_555 1_555
H16 C26 1_555 1_555
H17 C26 1_555 1_555
C27 C26 1_555 1_555
H18 C27 1_555 1_555
H19 C27 1_555 1_555
H20 C27 1_555 1_555
N1 C6 1_555 1_555
C3 C4 1_555 1_555
C11 C12 1_555 1_555
C18 C19 1_555 1_555
C24 C25 1_555 1_555

#END
