
#######################################################################
#
#                 Cambridge Crystallographic Data Centre
#                                CCDC 
#
#######################################################################
#
# If this CIF has been generated from an entry in the Cambridge 
# Structural Database, then it will include bibliographic, chemical, 
# crystal, experimental, refinement or atomic coordinate data resulting 
# from the CCDC's data processing and validation procedures.
#
#######################################################################

data_VIMBIE
_chemical_name_common            
'5,17-bis(4-(pyren-1-yl)methyleneamino)-11,23-di-t-butyl-25,27-di-n-butoxy-26,28-dihydroxycalix[4]arene dichloromethane solvate'
_chemical_formula_moiety         'C78 H74 N2 O4,3(C1 H2 Cl2)'
_chemical_name_systematic        
'26,28-Dibutoxy-5,17-di-t-butyl-11,23-bis((pyren-1-ylmethylene)amino)pentacyclo[19.3.1.1^3,7^.1^9,13^.1^15,19^]octacosa-1(25),3(28),4,6,9(27),10,12,15(26),16,18,21,23-dodecaene-25,27-diol dichloromethane solvate'
_symmetry_cell_setting           monoclinic
_symmetry_space_group_name_H-M   'P 21/c'
_symmetry_Int_Tables_number      14
_space_group_name_Hall           '-P 2ybc'
loop_
_symmetry_equiv_pos_site_id
_symmetry_equiv_pos_as_xyz
1 x,y,z
2 -x,1/2+y,1/2-z
3 -x,-y,-z
4 x,1/2-y,1/2+z
_cell_length_a                   13.9497(2)
_cell_length_b                   24.5227(4)
_cell_length_c                   20.7421(3)
_cell_angle_alpha                90
_cell_angle_beta                 94.1140(10)
_cell_angle_gamma                90
_cell_volume                     7077.26
_exptl_crystal_colour            yellow
_exptl_crystal_description       block
_cell_formula_units_Z            4
loop_
_atom_site_label
_atom_site_type_symbol
_atom_site_fract_x
_atom_site_fract_y
_atom_site_fract_z
O1 O 0.00672(11) 0.75900(7) 0.99565(8)
H1 H 0.003(3) 0.6749(17) 1.0089(19)
H2 H -0.019(3) 0.714(2) 1.140(2)
C1 C 0.06883(14) 0.61726(9) 0.99384(10)
C2 C 0.08561(15) 0.56611(9) 1.02286(10)
C3 C 0.15387(15) 0.53205(9) 0.99815(10)
H3 H 0.1673 0.4986 1.0179
C4 C 0.20284(15) 0.54696(9) 0.94407(10)
C5 C 0.18553(15) 0.59849(9) 0.91653(10)
H4 H 0.2186 0.6091 0.8812
C6 C 0.11978(15) 0.63401(9) 0.94119(10)
C7 C 0.10356(16) 0.68990(9) 0.91142(10)
H5 H 0.0352 0.6975 0.9074
H6 H 0.1265 0.6900 0.8684
C8 C 0.15461(16) 0.73463(9) 0.95127(10)
C9 C 0.10524(16) 0.76737(9) 0.99289(11)
C10 C 0.15310(16) 0.80472(9) 1.03444(10)
C11 C 0.25175(17) 0.81130(10) 1.02968(11)
H7 H 0.2843 0.8370 1.0560
C12 C 0.30354(16) 0.78103(9) 0.98726(10)
C13 C 0.25356(16) 0.74211(9) 0.94883(10)
H8 H 0.2869 0.7207 0.9210
C14 C 0.10325(17) 0.83450(10) 1.08659(11)
H9 H 0.0342 0.8324 1.0774
H10 H 0.1217 0.8726 1.0869
C15 C 0.13019(16) 0.80955(9) 1.15248(11)
C16 C 0.08054(16) 0.76407(9) 1.17340(11)
C17 C 0.10622(15) 0.73943(9) 1.23346(11)
C18 C 0.18345(16) 0.76127(10) 1.27140(11)
H11 H 0.2012 0.7456 1.3113
C19 C 0.23462(16) 0.80602(9) 1.25097(11)
C20 C 0.20713(16) 0.83047(9) 1.19204(11)
H12 H 0.2401 0.8610 1.1788
C21 C 0.05312(17) 0.69077(10) 1.25848(11)
H13 H -0.0153 0.6955 1.2479
H14 H 0.0637 0.6894 1.3052
C22 C 0.08485(16) 0.63699(9) 1.23038(11)
C23 C 0.03819(15) 0.61540(9) 1.17441(10)
C24 C 0.07321(15) 0.56927(9) 1.14435(10)
C25 C 0.15157(16) 0.54252(9) 1.17505(11)
H15 H 0.1742 0.5111 1.1561
C26 C 0.19777(16) 0.56070(10) 1.23303(11)
C27 C 0.16421(17) 0.60916(10) 1.25869(11)
H16 H 0.1959 0.6234 1.2960
C28 C 0.02953(15) 0.54839(9) 1.07942(10)
H17 H 0.0272 0.5089 1.0806
H18 H -0.0359 0.5617 1.0728
C29 C 0.27549(15) 0.50549(10) 0.85989(11)
H19 H 0.2378 0.5293 0.8340
C30 C 0.33684(16) 0.46737(10) 0.82708(11)
C31 C 0.30509(17) 0.45454(10) 0.76316(11)
H20 H 0.2535 0.4738 0.7434
C32 C 0.34799(17) 0.41419(11) 0.72850(11)
H21 H 0.3245 0.4065 0.6864
C33 C 0.42584(16) 0.38511(10) 0.75616(11)
C34 C 0.47004(18) 0.34119(11) 0.72327(12)
H22 H 0.4441 0.3308 0.6826
C35 C 0.54790(18) 0.31468(11) 0.74957(12)
H23 H 0.5738 0.2861 0.7271
C36 C 0.59145(17) 0.33002(10) 0.81188(11)
C37 C 0.67566(18) 0.30576(10) 0.83823(12)
H24 H 0.7036 0.2778 0.8159
C38 C 0.71867(17) 0.32276(10) 0.89749(12)
H25 H 0.7756 0.3067 0.9140
C39 C 0.67626(17) 0.36376(10) 0.93178(11)
H26 H 0.7049 0.3749 0.9715
C40 C 0.59168(16) 0.38837(9) 0.90750(11)
C41 C 0.54684(16) 0.43181(10) 0.94112(11)
H27 H 0.5755 0.4437 0.9805
C42 C 0.46461(16) 0.45577(10) 0.91735(11)
H28 H 0.4365 0.4825 0.9416
C43 C 0.41964(15) 0.44088(9) 0.85538(11)
C44 C 0.46390(15) 0.39923(9) 0.81982(11)
C45 C 0.54769(15) 0.37216(9) 0.84649(10)
C46 C 0.39285(17) 0.83336(10) 1.26616(11)
H29 H 0.3956 0.8275 1.2220
C47 C 0.47940(17) 0.85262(10) 1.30399(11)
C48 C 0.46877(18) 0.87821(11) 1.36339(12)
H30 H 0.4075 0.8837 1.3771
C49 C 0.54759(18) 0.89535(11) 1.40169(11)
H31 H 0.5388 0.9119 1.4412
C50 C 0.64001(17) 0.88837(10) 1.38237(11)
C51 C 0.72344(18) 0.90606(10) 1.42153(11)
H32 H 0.7154 0.9219 1.4615
C52 C 0.81261(18) 0.90034(10) 1.40217(12)
H33 H 0.8649 0.9118 1.4291
C53 C 0.82841(17) 0.87667(10) 1.34033(12)
C54 C 0.92006(18) 0.87240(11) 1.31799(14)
H34 H 0.9728 0.8858 1.3431
C55 C 0.93330(19) 0.84832(12) 1.25866(15)
H35 H 0.9949 0.8454 1.2446
C56 C 0.8552(2) 0.82855(12) 1.22009(15)
H36 H 0.8648 0.8126 1.1804
C57 C 0.76264(18) 0.83260(10) 1.24060(13)
C58 C 0.6797(2) 0.81309(12) 1.20259(13)
H37 H 0.6881 0.7961 1.1633
C59 C 0.58967(19) 0.81858(12) 1.22204(13)
H38 H 0.5380 0.8050 1.1961
C60 C 0.57208(17) 0.84491(10) 1.28199(11)
C61 C 0.65299(17) 0.86296(9) 1.32189(11)
C62 C 0.74787(17) 0.85720(10) 1.30097(12)
C63 C 0.41192(17) 0.79100(11) 0.98397(11)
C64 C 0.4263(2) 0.84810(13) 0.95520(17)
H39 H 0.3970 0.8749 0.9812
H40 H 0.3969 0.8494 0.9119
H41 H 0.4937 0.8556 0.9546
C65 C 0.46185(18) 0.78828(14) 1.05252(13)
H42 H 0.4334 0.8146 1.0796
H43 H 0.5290 0.7962 1.0507
H44 H 0.4543 0.7524 1.0700
C66 C 0.45864(18) 0.74865(14) 0.94247(15)
H45 H 0.4496 0.7130 0.9601
H46 H 0.5261 0.7561 0.9421
H47 H 0.4296 0.7502 0.8991
C67 C 0.27747(18) 0.52623(10) 1.26769(12)
C68 C 0.2306(2) 0.47688(12) 1.29918(13)
H48 H 0.1932 0.4566 1.2667
H49 H 0.1895 0.4895 1.3313
H50 H 0.2797 0.4538 1.3192
C69 C 0.34742(18) 0.50539(11) 1.21942(14)
H51 H 0.3126 0.4848 1.1860
H52 H 0.3949 0.4825 1.2415
H53 H 0.3785 0.5358 1.2006
C70 C 0.3357(2) 0.55819(13) 1.31966(16)
H54 H 0.3845 0.5351 1.3400
H55 H 0.2940 0.5708 1.3514
H56 H 0.3654 0.5889 1.3004
C71 C -0.05242(17) 0.79066(11) 0.94969(12)
H57 H -0.0304 0.7865 0.9067
H58 H -0.0495 0.8290 0.9612
C72 C -0.1540(2) 0.7696(2) 0.95162(19)
H59 H -0.1737 0.7730 0.9954
H60 H -0.1552 0.7312 0.9404
C73 C -0.2261(2) 0.8001(2) 0.9057(2)
H61 H -0.2907 0.7879 0.9128
H62 H -0.2224 0.8388 0.9149
C74 C -0.2064(3) 0.79036(16) 0.83532(18)
H63 H -0.2525 0.8101 0.8077
H64 H -0.2115 0.7521 0.8258
H65 H -0.1428 0.8028 0.8280
C75 C -0.13194(15) 0.62412(10) 1.17504(11)
H66 H -0.1248 0.6261 1.2218
H67 H -0.1461 0.5867 1.1627
C76 C -0.21227(16) 0.66092(11) 1.14953(12)
H68 H -0.1936 0.6985 1.1578
H69 H -0.2686 0.6536 1.1729
C77 C -0.23852(17) 0.65389(11) 1.07756(12)
H70 H -0.1833 0.6630 1.0538
H71 H -0.2546 0.6160 1.0688
C78 C -0.32276(19) 0.68956(13) 1.05387(14)
H72 H -0.3370 0.6838 1.0084
H73 H -0.3066 0.7272 1.0615
H74 H -0.3779 0.6803 1.0768
N1 N 0.31437(14) 0.82441(8) 1.29187(9)
N2 N 0.26929(13) 0.50891(8) 0.92093(9)
O2 O 0.00097(12) 0.64896(8) 1.01877(8)
O3 O 0.00443(12) 0.74676(8) 1.13435(8)
O4 O -0.04400(11) 0.64168(7) 1.14814(7)
Cl1 Cl -0.08303(9) 0.56979(5) 1.35276(5)
C79 C -0.0208(3) 0.5209(2) 1.3102(3)
H75 H -0.0101 0.5352 1.2677
H76 H 0.0415 0.5146 1.3328
Cl2 Cl -0.08179(8) 0.45918(4) 1.30140(7)
loop_
_geom_bond_atom_site_label_1
_geom_bond_atom_site_label_2
_geom_bond_site_symmetry_1
_geom_bond_site_symmetry_2
O1 C9 1_555 1_555
H1 O2 1_555 1_555
H2 O3 1_555 1_555
C1 C2 1_555 1_555
C2 C3 1_555 1_555
C3 H3 1_555 1_555
C4 C3 1_555 1_555
C5 C4 1_555 1_555
H4 C5 1_555 1_555
C6 C1 1_555 1_555
C7 C6 1_555 1_555
H5 C7 1_555 1_555
H6 C7 1_555 1_555
C8 C7 1_555 1_555
C9 C8 1_555 1_555
C10 C9 1_555 1_555
C11 C10 1_555 1_555
H7 C11 1_555 1_555
C12 C11 1_555 1_555
C13 C8 1_555 1_555
H8 C13 1_555 1_555
C14 C10 1_555 1_555
H9 C14 1_555 1_555
H10 C14 1_555 1_555
C15 C14 1_555 1_555
C16 C15 1_555 1_555
C17 C16 1_555 1_555
C18 C17 1_555 1_555
H11 C18 1_555 1_555
C19 C18 1_555 1_555
C20 C15 1_555 1_555
H12 C20 1_555 1_555
C21 C17 1_555 1_555
H13 C21 1_555 1_555
H14 C21 1_555 1_555
C22 C21 1_555 1_555
C23 C22 1_555 1_555
C24 C23 1_555 1_555
C25 C24 1_555 1_555
H15 C25 1_555 1_555
C26 C25 1_555 1_555
C27 C22 1_555 1_555
H16 C27 1_555 1_555
C28 C2 1_555 1_555
H17 C28 1_555 1_555
H18 C28 1_555 1_555
C29 H19 1_555 1_555
C30 C29 1_555 1_555
C31 C30 1_555 1_555
H20 C31 1_555 1_555
C32 C31 1_555 1_555
H21 C32 1_555 1_555
C33 C32 1_555 1_555
C34 C33 1_555 1_555
H22 C34 1_555 1_555
C35 C34 1_555 1_555
H23 C35 1_555 1_555
C36 C35 1_555 1_555
C37 C36 1_555 1_555
H24 C37 1_555 1_555
C38 C37 1_555 1_555
H25 C38 1_555 1_555
C39 C38 1_555 1_555
H26 C39 1_555 1_555
C40 C39 1_555 1_555
C41 C40 1_555 1_555
H27 C41 1_555 1_555
C42 C41 1_555 1_555
H28 C42 1_555 1_555
C43 C30 1_555 1_555
C44 C33 1_555 1_555
C45 C36 1_555 1_555
C46 H29 1_555 1_555
C47 C46 1_555 1_555
C48 C47 1_555 1_555
H30 C48 1_555 1_555
C49 C48 1_555 1_555
H31 C49 1_555 1_555
C50 C49 1_555 1_555
C51 C50 1_555 1_555
H32 C51 1_555 1_555
C52 C51 1_555 1_555
H33 C52 1_555 1_555
C53 C52 1_555 1_555
C54 C53 1_555 1_555
H34 C54 1_555 1_555
C55 C54 1_555 1_555
H35 C55 1_555 1_555
C56 C55 1_555 1_555
H36 C56 1_555 1_555
C57 C56 1_555 1_555
C58 C57 1_555 1_555
H37 C58 1_555 1_555
C59 C58 1_555 1_555
H38 C59 1_555 1_555
C60 C47 1_555 1_555
C61 C50 1_555 1_555
C62 C53 1_555 1_555
C63 C12 1_555 1_555
C64 C63 1_555 1_555
H39 C64 1_555 1_555
H40 C64 1_555 1_555
H41 C64 1_555 1_555
C65 C63 1_555 1_555
H42 C65 1_555 1_555
H43 C65 1_555 1_555
H44 C65 1_555 1_555
C66 C63 1_555 1_555
H45 C66 1_555 1_555
H46 C66 1_555 1_555
H47 C66 1_555 1_555
C67 C26 1_555 1_555
C68 C67 1_555 1_555
H48 C68 1_555 1_555
H49 C68 1_555 1_555
H50 C68 1_555 1_555
C69 C67 1_555 1_555
H51 C69 1_555 1_555
H52 C69 1_555 1_555
H53 C69 1_555 1_555
C70 C67 1_555 1_555
H54 C70 1_555 1_555
H55 C70 1_555 1_555
H56 C70 1_555 1_555
C71 O1 1_555 1_555
H57 C71 1_555 1_555
H58 C71 1_555 1_555
C72 C71 1_555 1_555
H59 C72 1_555 1_555
H60 C72 1_555 1_555
C73 C72 1_555 1_555
H61 C73 1_555 1_555
H62 C73 1_555 1_555
C74 C73 1_555 1_555
H63 C74 1_555 1_555
H64 C74 1_555 1_555
H65 C74 1_555 1_555
C75 H66 1_555 1_555
H67 C75 1_555 1_555
C76 C75 1_555 1_555
H68 C76 1_555 1_555
H69 C76 1_555 1_555
C77 C76 1_555 1_555
H70 C77 1_555 1_555
H71 C77 1_555 1_555
C78 C77 1_555 1_555
H72 C78 1_555 1_555
H73 C78 1_555 1_555
H74 C78 1_555 1_555
N1 C19 1_555 1_555
N2 C4 1_555 1_555
O2 C1 1_555 1_555
O3 C16 1_555 1_555
O4 C23 1_555 1_555
Cl1 C79 1_555 1_555
C79 H75 1_555 1_555
H76 C79 1_555 1_555
Cl2 C79 1_555 1_555
C5 C6 1_555 1_555
C12 C13 1_555 1_555
C19 C20 1_555 1_555
C24 C28 1_555 1_555
C26 C27 1_555 1_555
C29 N2 1_555 1_555
C40 C45 1_555 1_555
C42 C43 1_555 1_555
C43 C44 1_555 1_555
C44 C45 1_555 1_555
C46 N1 1_555 1_555
C57 C62 1_555 1_555
C59 C60 1_555 1_555
C60 C61 1_555 1_555
C61 C62 1_555 1_555
C75 O4 1_555 1_555

#END
