
#######################################################################
#
#                 Cambridge Crystallographic Data Centre
#                                CCDC 
#
#######################################################################
#
# If this CIF has been generated from an entry in the Cambridge 
# Structural Database, then it will include bibliographic, chemical, 
# crystal, experimental, refinement or atomic coordinate data resulting 
# from the CCDC's data processing and validation procedures.
#
#######################################################################

data_VIMBOK
_chemical_name_common            
'5,17-bis((4-anthracen-9-yl)methyleneamino)-11,23-di-t-butyl-25,27-di-n-butoxy-26,28-dihydroxycalix[4]arene dichloromethane solvate'
_chemical_formula_moiety         'C74 H74 N2 O4,3(C1 H2 Cl2)'
_chemical_name_systematic        
'11,23-bis((9-anthrylmethylene)amino)-26,28-dibutoxy-5,17-di-t-butylpentacyclo[19.3.1.1^3,7^.1^9,13^.1^15,19^]octacosa-1(25),3(28),4,6,9(27),10,12,15(26),16,18,21,23-dodecaene-25,27-diol dichloromethane solvate'
_symmetry_cell_setting           triclinic
_symmetry_space_group_name_H-M   'P -1'
_symmetry_Int_Tables_number      2
_space_group_name_Hall           '-P 1'
loop_
_symmetry_equiv_pos_site_id
_symmetry_equiv_pos_as_xyz
1 x,y,z
2 -x,-y,-z
_cell_length_a                   13.3567(10)
_cell_length_b                   17.2015(9)
_cell_length_c                   18.0452(10)
_cell_angle_alpha                114.623(5)
_cell_angle_beta                 108.783(6)
_cell_angle_gamma                92.062(6)
_cell_volume                     3497.85
_exptl_crystal_colour            yellow
_exptl_crystal_description       slab
_cell_formula_units_Z            2
loop_
_atom_site_label
_atom_site_type_symbol
_atom_site_fract_x
_atom_site_fract_y
_atom_site_fract_z
O1 O 0.71361(18) 0.34898(15) 0.45617(15)
O2 O 0.61520(16) 0.29662(14) 0.54245(14)
O3 O 0.80569(19) 0.21619(15) 0.54505(16)
N1 N 0.7592(2) -0.14259(17) 0.42345(18)
C1 C 0.6523(3) 0.32953(19) 0.3731(2)
O4 O 0.92376(17) 0.29850(14) 0.49476(14)
C2 C 0.4767(3) 0.3191(2) 0.3991(2)
H1 H 0.4051 0.3294 0.3751
H2 H 0.5134 0.3665 0.4576
C3 C 0.8292(3) 0.3403(2) 0.3509(2)
H3 H 0.8558 0.3645 0.3193
H4 H 0.8581 0.3822 0.4126
C4 C 0.8542(2) -0.0061(2) 0.4498(2)
H5 H 0.9020 -0.0368 0.4272
C5 C 0.5390(3) 0.3165(2) 0.3415(2)
C6 C 0.9178(2) 0.0935(2) 0.3123(2)
H6 H 0.9331 0.0387 0.3032
C7 C 0.5366(3) 0.2888(2) 0.1974(2)
C8 C 0.3712(3) 0.2388(2) -0.0752(2)
C9 C 0.6482(3) 0.3050(2) 0.2305(2)
H7 H 0.6848 0.3023 0.1938
C10 C 0.4670(2) 0.0716(2) 0.4021(2)
H8 H 0.4672 0.0174 0.4019
C11 C 0.6271(2) 0.1317(2) 0.5451(2)
H9 H 0.6638 0.1886 0.5938
H10 H 0.5921 0.0996 0.5663
C12 C 0.3655(3) -0.0199(3) -0.2543(2)
H11 H 0.3227 -0.0411 -0.3134
C13 C 0.3064(3) -0.0023(2) 0.2576(2)
C14 C 0.7062(3) 0.3250(2) 0.3164(2)
C15 C 0.7967(2) 0.1283(2) 0.5121(2)
C16 C 0.6967(2) -0.0049(2) 0.4857(2)
H12 H 0.6389 -0.0345 0.4879
C17 C 0.7081(2) 0.0839(2) 0.5137(2)
C18 C 0.4369(3) 0.1011(2) -0.1048(2)
C19 C 0.6578(3) -0.4536(2) 0.3717(2)
H13 H 0.6452 -0.5136 0.3523
C20 C 0.5422(2) 0.1433(2) 0.4729(2)
C21 C 0.4230(3) -0.0732(3) -0.2267(3)
H14 H 0.4180 -0.1305 -0.2662
C22 C 0.3694(3) 0.0656(3) -0.1962(2)
C23 C 0.3047(4) 0.3727(3) -0.0533(3)
H15 H 0.3045 0.4296 -0.0161
N2 N 0.4706(2) 0.2647(2) 0.11025(19)
C24 C 0.7982(3) -0.2521(2) 0.5813(2)
H16 H 0.8162 -0.1922 0.6015
C25 C 0.9632(3) 0.1294(2) 0.4718(2)
H17 H 1.0150 0.0916 0.4638
H18 H 0.9988 0.1817 0.5267
C26 C 0.5015(3) 0.2170(2) 0.0480(2)
H19 H 0.5684 0.2013 0.0629
C27 C 0.4362(3) 0.1862(2) -0.0453(2)
C28 C 0.8771(3) 0.0484(2) 0.1490(2)
C29 C 0.7691(3) -0.0512(2) 0.4542(2)
C30 C 0.9295(2) 0.1545(2) 0.3969(2)
C31 C 0.8673(2) 0.2562(2) 0.3398(2)
C32 C 0.9075(2) 0.2357(2) 0.4101(2)
C33 C 0.8694(2) 0.0831(2) 0.4783(2)
C34 C 0.3943(2) 0.1599(2) 0.3344(2)
H20 H 0.3449 0.1660 0.2882
C35 C 0.9619(3) 0.0875(3) 0.1272(3)
H21 H 0.9576 0.0490 0.0691
H22 H 1.0325 0.0950 0.1687
H23 H 0.9489 0.1431 0.1303
C36 C 0.8842(2) 0.1121(2) 0.2416(2)
C37 C 0.8581(3) 0.1933(2) 0.2578(2)
H24 H 0.8328 0.2064 0.2107
C38 C 0.7659(3) 0.0355(3) 0.0815(2)
H25 H 0.7117 0.0128 0.0955
H26 H 0.7623 -0.0047 0.0241
H27 H 0.7538 0.0905 0.0823
C39 C 0.3047(3) 0.2022(3) -0.1664(2)
C40 C 0.2195(3) -0.0189(3) 0.2894(2)
H28 H 0.2518 -0.0264 0.3412
H29 H 0.1678 -0.0706 0.2444
H30 H 0.1840 0.0300 0.3028
C41 C 0.7354(3) -0.3060(2) 0.4906(2)
C42 C 0.8322(3) -0.2859(2) 0.6383(2)
H31 H 0.8712 -0.2489 0.6973
C43 C 0.3694(3) 0.3262(3) -0.0203(2)
H32 H 0.4131 0.3521 0.0389
C44 C 0.3916(3) 0.0774(2) 0.3316(2)
C45 C 1.0317(3) 0.3496(2) 0.5406(2)
H33 H 1.0424 0.3870 0.5147
H34 H 1.0835 0.3114 0.5360
C46 C 0.6411(3) -0.3295(2) 0.3394(2)
C47 C 0.6999(3) -0.2729(2) 0.4290(2)
C48 C 0.8972(3) -0.0407(3) 0.1420(3)
H35 H 0.8440 -0.0658 0.1552
H36 H 0.9678 -0.0341 0.1829
H37 H 0.8923 -0.0782 0.0834
C49 C 0.3061(3) 0.1191(3) -0.2237(2)
H38 H 0.2635 0.0975 -0.2829
C50 C 0.7226(3) -0.1780(2) 0.4608(2)
H39 H 0.7095 -0.1424 0.5106
C51 C 0.4970(3) 0.0445(2) -0.0787(2)
H40 H 0.5425 0.0652 -0.0203
C52 C 0.2547(3) 0.0104(3) 0.1759(2)
H41 H 0.2065 -0.0426 0.1294
H42 H 0.3099 0.0252 0.1580
H43 H 0.2150 0.0566 0.1888
C53 C 0.7128(3) -0.3989(2) 0.4610(2)
C54 C 0.4843(3) 0.2972(2) 0.2555(2)
H44 H 0.4095 0.2892 0.2349
C55 C 0.5407(2) 0.2242(2) 0.4739(2)
C56 C 0.4900(3) -0.0402(3) -0.1376(3)
H45 H 0.5299 -0.0760 -0.1183
C57 C 0.5947(3) -0.3006(2) 0.2759(2)
H46 H 0.6030 -0.2410 0.2930
C58 C 0.4678(3) 0.2328(2) 0.4035(2)
C59 C 0.5244(3) -0.4477(3) 0.1619(3)
H47 H 0.4883 -0.4860 0.1027
C60 C 0.6213(3) -0.4221(2) 0.3109(2)
C61 C 1.0488(4) 0.4055(3) 0.6379(4)
H48 H 1.0348 0.3668 0.6616
H49 H 1.1241 0.4343 0.6696
C62 C 0.5632(3) -0.4788(2) 0.2197(2)
H50 H 0.5522 -0.5388 0.2003
C63 C 0.8090(3) -0.3770(3) 0.6092(3)
H51 H 0.8340 -0.3996 0.6490
C64 C 0.3551(3) -0.0836(2) 0.2304(3)
H52 H 0.3842 -0.0959 0.2795
H53 H 0.4116 -0.0739 0.2113
H54 H 0.3002 -0.1322 0.1832
C65 C 0.2394(3) 0.2551(3) -0.1970(3)
H55 H 0.1967 0.2324 -0.2563
C66 C 0.5759(3) 0.3461(2) 0.6108(2)
H56 H 0.5548 0.3090 0.6338
H57 H 0.5132 0.3673 0.5870
C67 C 0.7503(3) -0.4314(2) 0.5234(3)
H58 H 0.7344 -0.4911 0.5052
C68 C 0.5379(3) -0.3575(3) 0.1901(3)
H59 H 0.5079 -0.3362 0.1499
C69 C 0.2384(4) 0.3360(3) -0.1425(3)
H60 H 0.1937 0.3683 -0.1636
C70 C 0.7579(4) 0.3938(4) 0.7317(3)
H61 H 0.8170 0.4437 0.7688
H62 H 0.7817 0.3498 0.6898
C71 C 1.0196(6) 0.5287(5) 0.7536(4)
H63 H 1.0165 0.4941 0.7833
H64 H 0.9715 0.5687 0.7627
H65 H 1.0919 0.5606 0.7764
C72 C 0.6630(4) 0.4211(3) 0.6826(3)
H66 H 0.6331 0.4590 0.7237
H67 H 0.6881 0.4544 0.6576
C73 C 0.9859(4) 0.4685(4) 0.6547(4)
H68 H 0.9108 0.4401 0.6309
H69 H 0.9924 0.5034 0.6252
C74 C 0.7307(6) 0.3571(6) 0.7887(4)
H70 H 0.6999 0.3979 0.8260
H71 H 0.7953 0.3476 0.8240
H72 H 0.6798 0.3028 0.7516
H73 H 0.851(5) 0.254(4) 0.543(4)
H74 H 0.669(6) 0.344(5) 0.481(5)
Cl1 Cl 0.67062(11) 0.39196(9) 0.04875(9)
Cl2 Cl 0.77992(13) 0.24672(10) 0.03454(10)
C75 C 0.7021(6) 0.3011(4) -0.0208(4)
H75 H 0.7418 0.3182 -0.0499
H76 H 0.6359 0.2611 -0.0656
Cl3 Cl 0.17856(14) 0.19601(12) 0.11329(10)
Cl4 Cl 0.2136(2) 0.37349(13) 0.13429(17)
C76 C 0.2129(4) 0.2624(3) 0.0713(3)
H77 H 0.1619 0.2428 0.0118
H78 H 0.2838 0.2567 0.0688
loop_
_geom_bond_atom_site_label_1
_geom_bond_atom_site_label_2
_geom_bond_site_symmetry_1
_geom_bond_site_symmetry_2
O1 C1 1_555 1_555
O2 C55 1_555 1_555
O3 C15 1_555 1_555
N1 C29 1_555 1_555
C1 C5 1_555 1_555
O4 C32 1_555 1_555
C2 H1 1_555 1_555
H2 C2 1_555 1_555
C3 H3 1_555 1_555
H4 C3 1_555 1_555
C4 H5 1_555 1_555
C5 C2 1_555 1_555
C6 H6 1_555 1_555
C7 C9 1_555 1_555
C8 C27 1_555 1_555
C9 H7 1_555 1_555
C10 H8 1_555 1_555
C11 H9 1_555 1_555
H10 C11 1_555 1_555
C12 H11 1_555 1_555
C13 C40 1_555 1_555
C14 C1 1_555 1_555
C15 C17 1_555 1_555
C16 H12 1_555 1_555
C17 C11 1_555 1_555
C18 C22 1_555 1_555
C19 H13 1_555 1_555
C20 C10 1_555 1_555
C21 C12 1_555 1_555
H14 C21 1_555 1_555
C22 C12 1_555 1_555
C23 H15 1_555 1_555
N2 C7 1_555 1_555
C24 H16 1_555 1_555
C25 H17 1_555 1_555
H18 C25 1_555 1_555
C26 N2 1_555 1_555
H19 C26 1_555 1_555
C27 C18 1_555 1_555
C28 C35 1_555 1_555
C29 C4 1_555 1_555
C30 C6 1_555 1_555
C31 C3 1_555 1_555
C32 C30 1_555 1_555
C33 C4 1_555 1_555
C34 H20 1_555 1_555
C35 H21 1_555 1_555
H22 C35 1_555 1_555
H23 C35 1_555 1_555
C36 C6 1_555 1_555
C37 C31 1_555 1_555
H24 C37 1_555 1_555
C38 C28 1_555 1_555
H25 C38 1_555 1_555
H26 C38 1_555 1_555
H27 C38 1_555 1_555
C39 C8 1_555 1_555
C40 H28 1_555 1_555
H29 C40 1_555 1_555
H30 C40 1_555 1_555
C41 C24 1_555 1_555
C42 C24 1_555 1_555
H31 C42 1_555 1_555
C43 C8 1_555 1_555
H32 C43 1_555 1_555
C44 C10 1_555 1_555
C45 O4 1_555 1_555
H33 C45 1_555 1_555
H34 C45 1_555 1_555
C46 C47 1_555 1_555
C47 C41 1_555 1_555
C48 C28 1_555 1_555
H35 C48 1_555 1_555
H36 C48 1_555 1_555
H37 C48 1_555 1_555
C49 C22 1_555 1_555
H38 C49 1_555 1_555
C50 N1 1_555 1_555
H39 C50 1_555 1_555
C51 C18 1_555 1_555
H40 C51 1_555 1_555
C52 C13 1_555 1_555
H41 C52 1_555 1_555
H42 C52 1_555 1_555
H43 C52 1_555 1_555
C53 C19 1_555 1_555
C54 C5 1_555 1_555
H44 C54 1_555 1_555
C55 C20 1_555 1_555
C56 C21 1_555 1_555
H45 C56 1_555 1_555
C57 C46 1_555 1_555
H46 C57 1_555 1_555
C58 C2 1_555 1_555
C59 H47 1_555 1_555
C60 C19 1_555 1_555
C61 C45 1_555 1_555
H48 C61 1_555 1_555
H49 C61 1_555 1_555
C62 C59 1_555 1_555
H50 C62 1_555 1_555
C63 C42 1_555 1_555
H51 C63 1_555 1_555
C64 C13 1_555 1_555
H52 C64 1_555 1_555
H53 C64 1_555 1_555
H54 C64 1_555 1_555
C65 C39 1_555 1_555
H55 C65 1_555 1_555
C66 O2 1_555 1_555
H56 C66 1_555 1_555
H57 C66 1_555 1_555
C67 C53 1_555 1_555
H58 C67 1_555 1_555
C68 C57 1_555 1_555
H59 C68 1_555 1_555
C69 C23 1_555 1_555
H60 C69 1_555 1_555
C70 H61 1_555 1_555
H62 C70 1_555 1_555
C71 H63 1_555 1_555
H64 C71 1_555 1_555
H65 C71 1_555 1_555
C72 C66 1_555 1_555
H66 C72 1_555 1_555
H67 C72 1_555 1_555
C73 C61 1_555 1_555
H68 C73 1_555 1_555
H69 C73 1_555 1_555
C74 C70 1_555 1_555
H70 C74 1_555 1_555
H71 C74 1_555 1_555
H72 C74 1_555 1_555
H73 O3 1_555 1_555
H74 O1 1_555 1_555
Cl1 C75 1_555 1_555
Cl2 C75 1_555 1_555
C75 H75 1_555 1_555
H76 C75 1_555 1_555
Cl3 C76 1_555 1_555
Cl4 C76 1_555 1_555
C76 H77 1_555 1_555
H78 C76 1_555 1_555
C3 C14 1_555 1_555
C7 C54 1_555 1_555
C9 C14 1_555 1_555
C11 C20 1_555 1_555
C13 C44 1_555 1_555
C15 C33 1_555 1_555
C16 C17 1_555 1_555
C16 C29 1_555 1_555
C23 C43 1_555 1_555
C25 C30 1_555 1_555
C25 C33 1_555 1_555
C26 C27 1_555 1_555
C28 C36 1_555 1_555
C31 C32 1_555 1_555
C34 C44 1_555 1_555
C34 C58 1_555 1_555
C36 C37 1_555 1_555
C39 C49 1_555 1_555
C41 C53 1_555 1_555
C46 C60 1_555 1_555
C47 C50 1_555 1_555
C51 C56 1_555 1_555
C55 C58 1_555 1_555
C59 C68 1_555 1_555
C60 C62 1_555 1_555
C63 C67 1_555 1_555
C65 C69 1_555 1_555
C70 C72 1_555 1_555
C71 C73 1_555 1_555

#END
