
#######################################################################
#
#                 Cambridge Crystallographic Data Centre
#                                CCDC 
#
#######################################################################
#
# If this CIF has been generated from an entry in the Cambridge 
# Structural Database, then it will include bibliographic, chemical, 
# crystal, experimental, refinement or atomic coordinate data resulting 
# from the CCDC's data processing and validation procedures.
#
#######################################################################

data_VIMGIJ
_chemical_name_common            
"N,N'-(((2-Aminoethyl)imino)diethane-2,1-diyl)bis(5,11,17,23-tetra-t-butyl-25,26,27-trihydroxy-28-((2-amino-2-oxoethyl)oxy)calix(4)arene) acetone dichloromethane methanol solvate dihydrate"
_chemical_formula_moiety         
'C98 H130 N4 O10,C3 H6 O1,C1 H2 Cl2,3(C1 H4 O1),2(H2 O1)'
_chemical_name_systematic        
"N,N'-(((2-Aminoethyl)imino)diethane-2,1-diyl)bis(2-((5,11,17,23-tetra-t-butyl-26,27,28-trihydroxypentacyclo[19.3.1.1^3,7^.1^9,13^.1^15,19^]octacosa-1(25),3(28),4,6,9(27),10,12,15(26),16,18,21,23-dodecaen-25-yl)oxy)acetamide) acetone dichloromethane methanol solvate dihydrate"
_symmetry_cell_setting           monoclinic
_symmetry_space_group_name_H-M   'C 2/c'
_symmetry_Int_Tables_number      15
_space_group_name_Hall           '-C 2yn'
loop_
_symmetry_equiv_pos_site_id
_symmetry_equiv_pos_as_xyz
1 x,y,z
2 -x,y,1/2-z
3 1/2+x,1/2+y,z
4 1/2-x,1/2+y,1/2-z
5 -x,-y,-z
6 x,-y,1/2+z
7 1/2-x,1/2-y,-z
8 1/2+x,1/2-y,1/2+z
_cell_length_a                   39.072(2)
_cell_length_b                   29.3895(15)
_cell_length_c                   26.1623(12)
_cell_angle_alpha                90
_cell_angle_beta                 130.363(2)
_cell_angle_gamma                90
_cell_volume                     22891
_exptl_crystal_colour            colorless
_exptl_crystal_description       platelet
_cell_formula_units_Z            8
loop_
_atom_site_label
_atom_site_type_symbol
_atom_site_fract_x
_atom_site_fract_y
_atom_site_fract_z
O1 O 0.05909(7) 0.25976(7) 0.11738(10)
O2 O 0.05689(8) 0.15871(7) 0.09072(11)
H1 H 0.0843 0.1526 0.1111
O3 O 0.14692(7) 0.14984(7) 0.16506(10)
H2 H 0.1503 0.1794 0.1767
O4 O 0.14594(7) 0.23896(7) 0.16936(12)
H3 H 0.1261 0.2512 0.1684
O5 O 0.02810(8) 0.25813(9) 0.21865(12)
O6 O 0.13730(8) 0.27074(9) 0.26456(12)
O7 O 0.14228(7) 0.34888(8) 0.37138(10)
O8 O 0.10255(7) 0.32906(9) 0.43667(11)
H4 H 0.1235 0.3182 0.4798
O9 O 0.16848(7) 0.30503(7) 0.54969(11)
H5 H 0.1595 0.2806 0.5596
O10 O 0.21252(7) 0.33609(7) 0.51222(10)
H6 H 0.2007 0.3280 0.5283
N1 N 0.05081(10) 0.20301(10) 0.18567(15)
H7 H 0.0557 0.1955 0.1629
N2 N 0.10849(11) 0.18926(11) 0.34257(16)
N3 N 0.16811(10) 0.26809(11) 0.37380(15)
H8 H 0.1763 0.2875 0.4080
N4 N 0.06467(10) 0.25790(10) 0.35234(15)
H9 H 0.0745 0.2846 0.3704
H10 H 0.0364 0.2582 0.3273
C1 C 0.06908(10) 0.31385(11) 0.05932(16)
C2 C 0.04440(10) 0.27832(11) 0.05699(15)
C3 C 0.00686(10) 0.25973(11) -0.00323(16)
C4 C -0.00801(11) 0.28076(12) -0.06217(16)
H11 H -0.0339 0.2698 -0.1029
C5 C 0.01418(11) 0.31729(12) -0.06262(17)
C6 C 0.05310(11) 0.33271(12) -0.00167(17)
H12 H 0.0691 0.3563 -0.0013
C7 C -0.00519(13) 0.34051(13) -0.12960(18)
C8 C 0.0234(2) 0.3793(3) -0.1205(3)
H13 H 0.0079 0.3954 -0.1621
H14 H 0.0512 0.3676 -0.1068
H15 H 0.0295 0.3996 -0.0868
C9 C -0.0157(3) 0.3068(3) -0.1795(3)
H16 H -0.0309 0.3215 -0.2220
H17 H -0.0347 0.2835 -0.1837
H18 H 0.0116 0.2933 -0.1653
C10 C -0.05112(19) 0.3642(2) -0.1553(3)
H19 H -0.0448 0.3847 -0.1215
H20 H -0.0717 0.3413 -0.1638
H21 H -0.0642 0.3808 -0.1958
C11 C -0.01588(11) 0.21701(11) -0.00563(16)
H22 H -0.0076 0.2122 0.0378
H23 H -0.0482 0.2208 -0.0385
C12 C -0.00240(11) 0.17587(12) -0.02386(16)
C13 C 0.03488(11) 0.14907(11) 0.02395(16)
C14 C 0.04918(11) 0.11388(12) 0.00660(17)
C15 C 0.02418(12) 0.10491(13) -0.06235(19)
H24 H 0.0332 0.0811 -0.0746
C16 C -0.01309(12) 0.12998(13) -0.11234(18)
C17 C -0.02592(11) 0.16522(13) -0.09194(17)
H25 H -0.0511 0.1824 -0.1247
C18 C -0.03990(13) 0.12182(16) -0.18693(19)
C19 C -0.03601(17) 0.16332(19) -0.2175(2)
H26 H -0.0478 0.1895 -0.2114
H27 H -0.0528 0.1583 -0.2645
H28 H -0.0050 0.1684 -0.1958
C20 C -0.02357(17) 0.0800(2) -0.2002(2)
H29 H -0.0422 0.0753 -0.2477
H30 H -0.0252 0.0538 -0.1799
H31 H 0.0069 0.0846 -0.1814
C21 C -0.08941(15) 0.1135(2) -0.2207(2)
H32 H -0.1018 0.1407 -0.2180
H33 H -0.0913 0.0891 -0.1983
H34 H -0.1060 0.1056 -0.2669
C22 C 0.09160(12) 0.08671(12) 0.05865(19)
H35 H 0.0960 0.0845 0.0996
H36 H 0.0884 0.0562 0.0420
C23 C 0.13210(11) 0.10973(11) 0.07353(17)
C24 C 0.15739(11) 0.14287(11) 0.12416(16)
C25 C 0.19079(11) 0.16756(11) 0.13252(16)
C26 C 0.19917(11) 0.15800(12) 0.08921(16)
H37 H 0.2212 0.1748 0.0937
C27 C 0.17645(12) 0.12479(13) 0.03989(17)
C28 C 0.14330(12) 0.10132(13) 0.03365(18)
H38 H 0.1277 0.0787 0.0011
C29 C 0.18761(14) 0.11188(16) -0.00471(19)
C30 C 0.14492(15) 0.1133(2) -0.0789(2)
H39 H 0.1338 0.1439 -0.0912
H40 H 0.1225 0.0938 -0.0859
H41 H 0.1518 0.1030 -0.1062
C31 C 0.22298(17) 0.14292(18) 0.0069(2)
H42 H 0.2127 0.1739 -0.0017
H43 H 0.2284 0.1345 -0.0228
H44 H 0.2503 0.1401 0.0525
C32 C 0.20649(15) 0.06220(16) 0.0142(2)
H45 H 0.2151 0.0535 -0.0116
H46 H 0.1838 0.0418 0.0045
H47 H 0.2322 0.0608 0.0611
C33 C 0.21971(11) 0.20244(11) 0.18858(16)
H48 H 0.2198 0.1949 0.2247
H49 H 0.2503 0.1997 0.2060
C34 C 0.20513(10) 0.25185(11) 0.16875(15)
C35 C 0.16808(11) 0.26869(11) 0.15911(16)
C36 C 0.15412(11) 0.31413(11) 0.14024(15)
C37 C 0.18022(11) 0.34280(11) 0.13553(16)
H50 H 0.1715 0.3730 0.1234
C38 C 0.21906(11) 0.32786(12) 0.14836(16)
C39 C 0.22978(11) 0.28201(12) 0.16273(16)
H51 H 0.2544 0.2710 0.1686
C40 C 0.24899(12) 0.36209(13) 0.14853(18)
C41 C 0.26597(17) 0.39800(18) 0.2043(2)
H52 H 0.2407 0.4133 0.1949
H53 H 0.2847 0.4198 0.2054
H54 H 0.2829 0.3830 0.2470
C42 C 0.22175(13) 0.38705(13) 0.08219(19)
H55 H 0.2095 0.3655 0.0465
H56 H 0.2407 0.4082 0.0828
H57 H 0.1977 0.4033 0.0752
C43 C 0.28861(14) 0.34023(18) 0.1611(3)
H58 H 0.3065 0.3246 0.2034
H59 H 0.3065 0.3632 0.1621
H60 H 0.2782 0.3189 0.1259
C44 C 0.11227(10) 0.33166(11) 0.12572(16)
H61 H 0.1122 0.3646 0.1244
H62 H 0.1128 0.3227 0.1619
C45 C 0.03685(11) 0.27826(11) 0.14003(16)
H63 H 0.0057 0.2846 0.1018
H64 H 0.0511 0.3066 0.1637
C46 C 0.03928(11) 0.24519(13) 0.18543(17)
C47 C 0.05240(15) 0.16574(14) 0.2232(2)
H65 H 0.0428 0.1383 0.1965
H66 H 0.0310 0.1718 0.2296
C48 C 0.09719(14) 0.15704(13) 0.2902(2)
H67 H 0.0976 0.1263 0.3042
H68 H 0.1201 0.1590 0.2860
C49 C 0.15734(15) 0.19063(14) 0.3990(2)
H69 H 0.1692 0.1600 0.4083
H70 H 0.1627 0.2016 0.4387
C50 C 0.18259(14) 0.22079(13) 0.3860(2)
H71 H 0.2145 0.2193 0.4243
H72 H 0.1782 0.2092 0.3473
C51 C 0.14687(11) 0.28900(12) 0.31478(17)
C52 C 0.13472(11) 0.33776(11) 0.31204(15)
H73 H 0.1528 0.3572 0.3078
H74 H 0.1034 0.3426 0.2732
C53 C 0.08410(16) 0.17670(15) 0.3663(2)
H75 H 0.0996 0.1521 0.3987
H76 H 0.0540 0.1665 0.3289
C54 C 0.08196(16) 0.21828(15) 0.3986(2)
H77 H 0.0623 0.2122 0.4084
H78 H 0.1117 0.2251 0.4405
C55 C 0.17904(10) 0.42170(11) 0.41159(15)
C56 C 0.14079(11) 0.39578(12) 0.37956(14)
C57 C 0.09982(10) 0.41553(12) 0.35507(15)
C58 C 0.09803(11) 0.46169(12) 0.35818(15)
H79 H 0.0708 0.4749 0.3411
C59 C 0.13496(11) 0.49031(12) 0.38566(16)
C60 C 0.17505(11) 0.46885(12) 0.41348(15)
H80 H 0.2007 0.4866 0.4345
C61 C 0.12943(13) 0.54201(13) 0.38345(19)
C62 C 0.09549(17) 0.55754(16) 0.3099(2)
H81 H 0.1054 0.5477 0.2864
H82 H 0.0933 0.5901 0.3082
H83 H 0.0666 0.5445 0.2893
C63 C 0.17429(15) 0.56698(14) 0.4175(2)
H84 H 0.1844 0.5610 0.3931
H85 H 0.1963 0.5564 0.4628
H86 H 0.1700 0.5991 0.4177
C64 C 0.11253(17) 0.55621(14) 0.4200(2)
H87 H 0.1114 0.5888 0.4210
H88 H 0.1326 0.5447 0.4651
H89 H 0.0830 0.5440 0.3969
C65 C 0.05878(11) 0.38573(13) 0.32628(16)
H90 H 0.0648 0.3549 0.3209
H91 H 0.0333 0.3970 0.2823
C66 C 0.04692(10) 0.38530(12) 0.37151(15)
C67 C 0.07161(10) 0.35698(12) 0.42843(15)
C68 C 0.06298(10) 0.35733(11) 0.47240(15)
C69 C 0.02969(10) 0.38647(11) 0.45873(15)
H92 H 0.0241 0.3869 0.4883
C70 C 0.00458(10) 0.41473(11) 0.40313(15)
C71 C 0.01453(10) 0.41301(11) 0.36062(15)
H93 H -0.0017 0.4316 0.3229
C72 C -0.03206(11) 0.44694(11) 0.38710(16)
C73 C -0.02100(13) 0.49615(13) 0.38184(19)
H94 H 0.0068 0.5053 0.4242
H95 H -0.0447 0.5160 0.3700
H96 H -0.0182 0.4977 0.3480
C74 C -0.07752(11) 0.43299(12) 0.31952(17)
H97 H -0.0760 0.4359 0.2845
H98 H -0.1008 0.4524 0.3100
H99 H -0.0840 0.4020 0.3220
C75 C -0.03622(12) 0.44583(12) 0.44113(17)
H100 H -0.0435 0.4155 0.4449
H101 H -0.0595 0.4663 0.4292
H102 H -0.0082 0.4549 0.4833
C76 C 0.09049(11) 0.32805(13) 0.53477(17)
H103 H 0.0745 0.3253 0.5514
H104 H 0.0930 0.2978 0.5226
C77 C 0.13725(11) 0.34574(11) 0.59084(16)
C78 C 0.17406(11) 0.33339(11) 0.59572(16)
C79 C 0.21687(10) 0.35125(11) 0.64806(15)
C80 C 0.22198(11) 0.38164(12) 0.69307(16)
H105 H 0.2503 0.3937 0.7269
C81 C 0.18614(12) 0.39476(13) 0.68932(16)
C82 C 0.14457(11) 0.37576(13) 0.63782(16)
H106 H 0.1202 0.3837 0.6347
C83 C 0.19190(14) 0.42705(18) 0.74030(19)
C84 C 0.15484(19) 0.4618(2) 0.7067(3)
H107 H 0.1579 0.4826 0.6815
H108 H 0.1567 0.4782 0.7401
H109 H 0.1263 0.4467 0.6769
C85 C 0.18529(19) 0.3956(2) 0.7831(3)
H110 H 0.1559 0.3822 0.7539
H111 H 0.1884 0.4138 0.8164
H112 H 0.2076 0.3720 0.8046
C86 C 0.23819(17) 0.44716(18) 0.7881(2)
H113 H 0.2600 0.4231 0.8111
H114 H 0.2404 0.4659 0.8203
H115 H 0.2437 0.4653 0.7637
C87 C 0.25720(11) 0.33795(11) 0.65480(16)
H116 H 0.2834 0.3360 0.7021
H117 H 0.2520 0.3080 0.6354
C88 C 0.26697(10) 0.37090(11) 0.62114(15)
C89 C 0.24356(10) 0.36944(11) 0.55247(15)
C90 C 0.25257(10) 0.40093(11) 0.52272(15)
C91 C 0.28581(11) 0.43332(11) 0.56315(16)
H118 H 0.2918 0.4543 0.5432
C92 C 0.31057(10) 0.43583(11) 0.63205(16)
C93 C 0.29983(11) 0.40399(12) 0.65958(16)
H119 H 0.3153 0.4050 0.7054
C94 C 0.34522(12) 0.47358(12) 0.67433(19)
C95 C 0.31942(14) 0.51723(13) 0.6617(2)
H120 H 0.3029 0.5132 0.6769
H121 H 0.2990 0.5240 0.6146
H122 H 0.3402 0.5419 0.6858
C96 C 0.37413(13) 0.48192(13) 0.6540(2)
H123 H 0.3966 0.5044 0.6830
H124 H 0.3553 0.4925 0.6084
H125 H 0.3884 0.4540 0.6578
C97 C 0.37728(14) 0.46291(15) 0.7492(2)
H126 H 0.3612 0.4637 0.7654
H127 H 0.4009 0.4851 0.7727
H128 H 0.3899 0.4332 0.7566
C98 C 0.22501(11) 0.40056(12) 0.44687(16)
H129 H 0.2407 0.4175 0.4358
H130 H 0.2214 0.3695 0.4315
O11 O 0.10092(13) 0.22874(13) -0.11259(17)
C102 C 0.10715(14) 0.23941(16) -0.0624(2)
C103 C 0.1378(2) 0.2776(2) -0.0197(3)
H140 H 0.1669 0.2657 0.0169
H141 H 0.1259 0.2939 -0.0025
H142 H 0.1403 0.2977 -0.0460
C104 C 0.08551(13) 0.21524(15) -0.0389(2)
H143 H 0.0673 0.1907 -0.0690
H144 H 0.0670 0.2363 -0.0382
H145 H 0.1084 0.2034 0.0054
O12 O 0.13905(14) 0.25256(15) -0.1705(2)
C105 C 0.1804(3) 0.2784(3) -0.1213(4)
H146 H 0.1729 0.3080 -0.1155
H147 H 0.1967 0.2815 -0.1369
H148 H 0.1986 0.2625 -0.0792
O13 O 0.11467(13) 0.23618(14) -0.2934(2)
C106 C 0.14031(19) 0.2620(2) -0.3026(3)
H149 H 0.1465 0.2912 -0.2817
H150 H 0.1240 0.2660 -0.3497
H151 H 0.1681 0.2466 -0.2826
O14 O 0.2537(4) 0.4144(4) 0.3368(6)
C107 C 0.2079(5) 0.4225(5) 0.2821(7)
H152 H 0.1976 0.4477 0.2924
H153 H 0.1907 0.3959 0.2738
H154 H 0.2042 0.4295 0.2429
O15 O 0.1157(2) 0.1649(2) 0.5470(3)
C108 C 0.1291(3) 0.1496(4) 0.6087(5)
H155 H 0.1487 0.1238 0.6240
H156 H 0.1031 0.1409 0.6029
H157 H 0.1447 0.1735 0.6413
O16 O 0.0359(3) 0.1249(3) 0.4351(5)
O17 O 0.18207(18) 0.21592(14) 0.5667(3)
O18 O 0.2454(4) 0.1761(5) 0.6304(6)
Cl1 Cl 0.10995(5) 0.47749(6) 0.52286(8)
Cl2 Cl 0.20378(5) 0.48532(5) 0.58500(8)
C109 C 0.1569(2) 0.45156(19) 0.5400(3)
H158 H 0.1636 0.4237 0.5648
H159 H 0.1495 0.4434 0.4979
C99? C -0.0087(7) 0.3897(5) -0.1263(7)
H131? H -0.0270 0.4022 -0.1707
H132? H 0.0207 0.4030 -0.0992
H133? H -0.0222 0.3961 -0.1068
C100? C 0.0327(5) 0.3302(5) -0.1398(7)
H134? H 0.0623 0.3375 -0.0990
H135? H 0.0258 0.3487 -0.1757
H136? H 0.0315 0.2987 -0.1503
C101? C -0.0484(7) 0.3181(6) -0.1936(8)
H137? H -0.0437 0.2860 -0.1926
H138? H -0.0548 0.3311 -0.2327
H139? H -0.0731 0.3236 -0.1950
loop_
_geom_bond_atom_site_label_1
_geom_bond_atom_site_label_2
_geom_bond_site_symmetry_1
_geom_bond_site_symmetry_2
O1 C2 1_555 1_555
O2 H1 1_555 1_555
O3 H2 1_555 1_555
O4 H3 1_555 1_555
O5 C46 1_555 1_555
O6 C51 1_555 1_555
O7 C52 1_555 1_555
O8 H4 1_555 1_555
O9 H5 1_555 1_555
O10 H6 1_555 1_555
N1 H7 1_555 1_555
N2 C48 1_555 1_555
N3 H8 1_555 1_555
N4 H9 1_555 1_555
H10 N4 1_555 1_555
C1 C2 1_555 1_555
C2 C3 1_555 1_555
C3 C4 1_555 1_555
C4 H11 1_555 1_555
C5 C4 1_555 1_555
C6 C1 1_555 1_555
H12 C6 1_555 1_555
C7 C5 1_555 1_555
C8 C7 1_555 1_555
H13 C8 1_555 1_555
H14 C8 1_555 1_555
H15 C8 1_555 1_555
C9 C7 1_555 1_555
H16 C9 1_555 1_555
H17 C9 1_555 1_555
H18 C9 1_555 1_555
C10 C7 1_555 1_555
H19 C10 1_555 1_555
H20 C10 1_555 1_555
H21 C10 1_555 1_555
C11 C3 1_555 1_555
H22 C11 1_555 1_555
H23 C11 1_555 1_555
C12 C11 1_555 1_555
C13 O2 1_555 1_555
C14 C13 1_555 1_555
C15 C14 1_555 1_555
H24 C15 1_555 1_555
C16 C15 1_555 1_555
C17 C12 1_555 1_555
H25 C17 1_555 1_555
C18 C16 1_555 1_555
C19 C18 1_555 1_555
H26 C19 1_555 1_555
H27 C19 1_555 1_555
H28 C19 1_555 1_555
C20 C18 1_555 1_555
H29 C20 1_555 1_555
H30 C20 1_555 1_555
H31 C20 1_555 1_555
C21 C18 1_555 1_555
H32 C21 1_555 1_555
H33 C21 1_555 1_555
H34 C21 1_555 1_555
C22 C14 1_555 1_555
H35 C22 1_555 1_555
H36 C22 1_555 1_555
C23 C22 1_555 1_555
C24 O3 1_555 1_555
C25 C24 1_555 1_555
C26 C25 1_555 1_555
H37 C26 1_555 1_555
C27 C26 1_555 1_555
C28 C23 1_555 1_555
H38 C28 1_555 1_555
C29 C27 1_555 1_555
C30 C29 1_555 1_555
H39 C30 1_555 1_555
H40 C30 1_555 1_555
H41 C30 1_555 1_555
C31 C29 1_555 1_555
H42 C31 1_555 1_555
H43 C31 1_555 1_555
H44 C31 1_555 1_555
C32 C29 1_555 1_555
H45 C32 1_555 1_555
H46 C32 1_555 1_555
H47 C32 1_555 1_555
C33 C25 1_555 1_555
H48 C33 1_555 1_555
H49 C33 1_555 1_555
C34 C33 1_555 1_555
C35 O4 1_555 1_555
C36 C35 1_555 1_555
C37 C36 1_555 1_555
H50 C37 1_555 1_555
C38 C37 1_555 1_555
C39 C34 1_555 1_555
H51 C39 1_555 1_555
C40 C38 1_555 1_555
C41 C40 1_555 1_555
H52 C41 1_555 1_555
H53 C41 1_555 1_555
H54 C41 1_555 1_555
C42 C40 1_555 1_555
H55 C42 1_555 1_555
H56 C42 1_555 1_555
H57 C42 1_555 1_555
C43 C40 1_555 1_555
H58 C43 1_555 1_555
H59 C43 1_555 1_555
H60 C43 1_555 1_555
C44 C1 1_555 1_555
H61 C44 1_555 1_555
H62 C44 1_555 1_555
C45 O1 1_555 1_555
H63 C45 1_555 1_555
H64 C45 1_555 1_555
C46 N1 1_555 1_555
C47 N1 1_555 1_555
H65 C47 1_555 1_555
H66 C47 1_555 1_555
C48 C47 1_555 1_555
H67 C48 1_555 1_555
H68 C48 1_555 1_555
C49 N2 1_555 1_555
H69 C49 1_555 1_555
H70 C49 1_555 1_555
C50 N3 1_555 1_555
H71 C50 1_555 1_555
H72 C50 1_555 1_555
C51 N3 1_555 1_555
C52 C51 1_555 1_555
H73 C52 1_555 1_555
H74 C52 1_555 1_555
C53 N2 1_555 1_555
H75 C53 1_555 1_555
H76 C53 1_555 1_555
C54 N4 1_555 1_555
H77 C54 1_555 1_555
H78 C54 1_555 1_555
C55 C56 1_555 1_555
C56 O7 1_555 1_555
C57 C56 1_555 1_555
C58 C57 1_555 1_555
H79 C58 1_555 1_555
C59 C58 1_555 1_555
C60 C55 1_555 1_555
H80 C60 1_555 1_555
C61 C59 1_555 1_555
C62 C61 1_555 1_555
H81 C62 1_555 1_555
H82 C62 1_555 1_555
H83 C62 1_555 1_555
C63 C61 1_555 1_555
H84 C63 1_555 1_555
H85 C63 1_555 1_555
H86 C63 1_555 1_555
C64 C61 1_555 1_555
H87 C64 1_555 1_555
H88 C64 1_555 1_555
H89 C64 1_555 1_555
C65 C57 1_555 1_555
H90 C65 1_555 1_555
H91 C65 1_555 1_555
C66 C65 1_555 1_555
C67 O8 1_555 1_555
C68 C67 1_555 1_555
C69 C68 1_555 1_555
H92 C69 1_555 1_555
C70 C69 1_555 1_555
C71 C66 1_555 1_555
H93 C71 1_555 1_555
C72 C70 1_555 1_555
C73 C72 1_555 1_555
H94 C73 1_555 1_555
H95 C73 1_555 1_555
H96 C73 1_555 1_555
C74 C72 1_555 1_555
H97 C74 1_555 1_555
H98 C74 1_555 1_555
H99 C74 1_555 1_555
C75 C72 1_555 1_555
H100 C75 1_555 1_555
H101 C75 1_555 1_555
H102 C75 1_555 1_555
C76 C68 1_555 1_555
H103 C76 1_555 1_555
H104 C76 1_555 1_555
C77 C76 1_555 1_555
C78 O9 1_555 1_555
C79 C78 1_555 1_555
C80 C79 1_555 1_555
H105 C80 1_555 1_555
C81 C80 1_555 1_555
C82 C77 1_555 1_555
H106 C82 1_555 1_555
C83 C81 1_555 1_555
C84 C83 1_555 1_555
H107 C84 1_555 1_555
H108 C84 1_555 1_555
H109 C84 1_555 1_555
C85 C83 1_555 1_555
H110 C85 1_555 1_555
H111 C85 1_555 1_555
H112 C85 1_555 1_555
C86 C83 1_555 1_555
H113 C86 1_555 1_555
H114 C86 1_555 1_555
H115 C86 1_555 1_555
C87 C79 1_555 1_555
H116 C87 1_555 1_555
H117 C87 1_555 1_555
C88 C87 1_555 1_555
C89 O10 1_555 1_555
C90 C89 1_555 1_555
C91 C90 1_555 1_555
H118 C91 1_555 1_555
C92 C91 1_555 1_555
C93 C88 1_555 1_555
H119 C93 1_555 1_555
C94 C92 1_555 1_555
C95 C94 1_555 1_555
H120 C95 1_555 1_555
H121 C95 1_555 1_555
H122 C95 1_555 1_555
C96 C94 1_555 1_555
H123 C96 1_555 1_555
H124 C96 1_555 1_555
H125 C96 1_555 1_555
C97 C94 1_555 1_555
H126 C97 1_555 1_555
H127 C97 1_555 1_555
H128 C97 1_555 1_555
C98 C55 1_555 1_555
H129 C98 1_555 1_555
H130 C98 1_555 1_555
O11 C102 1_555 1_555
C102 C103 1_555 1_555
C103 H140 1_555 1_555
H141 C103 1_555 1_555
H142 C103 1_555 1_555
C104 C102 1_555 1_555
H143 C104 1_555 1_555
H144 C104 1_555 1_555
H145 C104 1_555 1_555
O12 C105 1_555 1_555
C105 H146 1_555 1_555
H147 C105 1_555 1_555
H148 C105 1_555 1_555
O13 C106 1_555 1_555
C106 H149 1_555 1_555
H150 C106 1_555 1_555
H151 C106 1_555 1_555
O14 C107 1_555 1_555
C107 H152 1_555 1_555
H153 C107 1_555 1_555
H154 C107 1_555 1_555
O15 C108 1_555 1_555
C108 H155 1_555 1_555
H156 C108 1_555 1_555
H157 C108 1_555 1_555
Cl1 C109 1_555 1_555
Cl2 C109 1_555 1_555
C109 H158 1_555 1_555
H159 C109 1_555 1_555
C5 C6 1_555 1_555
C12 C13 1_555 1_555
C16 C17 1_555 1_555
C23 C24 1_555 1_555
C27 C28 1_555 1_555
C34 C35 1_555 1_555
C36 C44 1_555 1_555
C38 C39 1_555 1_555
C45 C46 1_555 1_555
C49 C50 1_555 1_555
C53 C54 1_555 1_555
C59 C60 1_555 1_555
C66 C67 1_555 1_555
C70 C71 1_555 1_555
C77 C78 1_555 1_555
C81 C82 1_555 1_555
C88 C89 1_555 1_555
C90 C98 1_555 1_555
C92 C93 1_555 1_555

#END
