
#######################################################################
#
#                 Cambridge Crystallographic Data Centre
#                                CCDC 
#
#######################################################################
#
# If this CIF has been generated from an entry in the Cambridge 
# Structural Database, then it will include bibliographic, chemical, 
# crystal, experimental, refinement or atomic coordinate data resulting 
# from the CCDC's data processing and validation procedures.
#
#######################################################################

data_VIMGUV
_chemical_name_common            
N-t-Butyl-N'-(5-cyano-2-(4-methylphenoxy)phenylsulfonyl)urea
_chemical_formula_moiety         'C19 H21 N3 O4 S1'
_chemical_name_systematic        
N-(t-Butylcarbamoyl)-5-cyano-2-(4-methylphenoxy)benzenesulfonamide
_chemical_properties_biological  'TXA2 receptor antagonist'
_symmetry_cell_setting           monoclinic
_symmetry_space_group_name_H-M   'P 2/c'
_symmetry_Int_Tables_number      13
_space_group_name_Hall           '-P 2yc'
loop_
_symmetry_equiv_pos_site_id
_symmetry_equiv_pos_as_xyz
1 x,y,z
2 -x,y,1/2-z
3 -x,-y,-z
4 x,-y,1/2+z
_cell_length_a                   10.6408(5)
_cell_length_b                   15.8571(4)
_cell_length_c                   24.8678(9)
_cell_angle_alpha                90
_cell_angle_beta                 93.534(4)
_cell_angle_gamma                90
_cell_volume                     4188.02
_exptl_crystal_colour            colorless
_exptl_crystal_description       plate
_cell_formula_units_Z            8
loop_
_atom_site_label
_atom_site_type_symbol
_atom_site_fract_x
_atom_site_fract_y
_atom_site_fract_z
C1 C 0.2478(4) 0.34567(19) 0.71760(14)
C2 C 0.1999(3) 0.27413(18) 0.74231(13)
C3 C 0.1411(3) 0.2811(2) 0.78966(13)
H1 H 0.1117 0.2330 0.8063
C4 C 0.1256(4) 0.3597(2) 0.81270(14)
C5 C 0.1699(4) 0.4306(2) 0.78713(16)
H2 H 0.1582 0.4836 0.8021
C6 C 0.2304(5) 0.4241(2) 0.74040(16)
H3 H 0.2597 0.4723 0.7239
C7 C 0.4395(4) 0.15059(19) 0.67005(13)
C8 C 0.4692(4) 0.1714(3) 0.57238(13)
C9 C 0.5765(5) 0.2355(3) 0.58006(19)
H4 H 0.5425 0.2899 0.5879
H5 H 0.6210 0.2387 0.5477
H6 H 0.6334 0.2180 0.6094
C10 C 0.3760(5) 0.2005(4) 0.52702(16)
H7 H 0.3126 0.1581 0.5203
H8 H 0.4198 0.2097 0.4949
H9 H 0.3369 0.2522 0.5373
C11 C 0.5219(5) 0.0853(3) 0.56087(17)
H10 H 0.5763 0.0674 0.5909
H11 H 0.5687 0.0880 0.5291
H12 H 0.4540 0.0458 0.5552
C12 C 0.3584(4) 0.4019(2) 0.64509(16)
C13 C 0.2939(5) 0.4314(3) 0.60054(18)
H13 H 0.2162 0.4086 0.5891
C14 C 0.3464(6) 0.4966(3) 0.57221(19)
H14 H 0.3034 0.5171 0.5412
C15 C 0.4586(6) 0.5312(3) 0.5886(2)
C16 C 0.5211(5) 0.5000(3) 0.6333(2)
H15 H 0.5982 0.5233 0.6450
C17 C 0.4723(5) 0.4342(3) 0.66215(18)
H16 H 0.5165 0.4125 0.6925
C18 C 0.5124(7) 0.6055(3) 0.5577(2)
H17 H 0.6016 0.5982 0.5558
H18 H 0.4962 0.6572 0.5762
H19 H 0.4730 0.6074 0.5220
C19 C 0.0640(5) 0.3668(3) 0.86226(17)
N1 N 0.3536(3) 0.14991(17) 0.71095(11)
H20 H 0.389(3) 0.140(2) 0.7423(14)
N2 N 0.3965(3) 0.1687(2) 0.62053(11)
H21 H 0.315(4) 0.176(2) 0.6176(15)
N3 N 0.0159(5) 0.3723(3) 0.90141(17)
O1 O 0.1532(2) 0.11652(14) 0.74811(11)
O2 O 0.1541(2) 0.18033(15) 0.65792(10)
O3 O 0.5490(2) 0.13168(16) 0.68322(9)
O4 O 0.3089(3) 0.33206(14) 0.67201(11)
S1 S 0.20576(8) 0.17400(5) 0.71188(3)
C20 C 0.2504(4) 0.84444(19) 0.72155(14)
C21 C 0.3037(3) 0.77223(18) 0.74597(13)
C22 C 0.3757(3) 0.7775(2) 0.79362(13)
H22 H 0.4087 0.7289 0.8099
C23 C 0.3993(3) 0.8559(2) 0.81748(14)
C24 C 0.3493(4) 0.9278(2) 0.79213(16)
H23 H 0.3659 0.9804 0.8075
C25 C 0.2762(4) 0.9227(2) 0.74515(17)
H24 H 0.2437 0.9715 0.7289
C26 C 0.0426(4) 0.6513(2) 0.67085(13)
C27 C -0.0109(6) 0.6762(3) 0.57342(16)
C28 C -0.1127(7) 0.7391(4) 0.5820(2)
H25 H -0.1565 0.7235 0.6131
H26 H -0.1708 0.7403 0.5509
H27 H -0.0760 0.7940 0.5875
C29 C 0.0753(8) 0.7068(4) 0.52928(19)
H28 H 0.1187 0.7571 0.5413
H29 H 0.0251 0.7185 0.4968
H30 H 0.1357 0.6637 0.5225
C30 C -0.0640(7) 0.5897(3) 0.5595(2)
H31 H 0.0036 0.5516 0.5532
H32 H -0.1194 0.5935 0.5276
H33 H -0.1100 0.5692 0.5888
C31 C 0.1176(4) 0.9018(2) 0.64997(15)
C32 C 0.1664(4) 0.9354(3) 0.60546(18)
H34 H 0.2414 0.9151 0.5932
C33 C 0.1022(5) 1.0002(3) 0.57886(18)
H35 H 0.1349 1.0231 0.5483
C34 C -0.0070(5) 1.0316(3) 0.59587(18)
C35 C -0.0529(5) 0.9967(3) 0.64028(19)
H36 H -0.1276 1.0176 0.6527
C36 C 0.0072(5) 0.9317(3) 0.66756(17)
H37 H -0.0269 0.9083 0.6977
C37 C -0.0738(6) 1.1053(3) 0.5675(2)
H38 H -0.0607 1.1554 0.5887
H39 H -0.1623 1.0936 0.5629
H40 H -0.0406 1.1135 0.5328
C38 C 0.4732(4) 0.8609(3) 0.86787(17)
N4 N 0.1387(3) 0.64971(18) 0.71261(11)
H41 H 0.115(4) 0.643(2) 0.7430(15)
N5 N 0.0752(4) 0.6698(2) 0.62208(12)
H42 H 0.154(4) 0.682(3) 0.6185(17)
N6 N 0.5319(4) 0.8638(3) 0.90760(16)
O5 O 0.3479(2) 0.61399(14) 0.75181(11)
O6 O 0.3266(3) 0.67820(15) 0.66139(10)
O7 O -0.0635(3) 0.63208(18) 0.68313(10)
O8 O 0.1775(3) 0.83257(14) 0.67533(11)
S2 S 0.28779(9) 0.67228(5) 0.71509(4)
loop_
_geom_bond_atom_site_label_1
_geom_bond_atom_site_label_2
_geom_bond_site_symmetry_1
_geom_bond_site_symmetry_2
C1 C2 1_555 1_555
C2 C3 1_555 1_555
C3 H1 1_555 1_555
C4 C3 1_555 1_555
C5 C4 1_555 1_555
H2 C5 1_555 1_555
C6 C1 1_555 1_555
H3 C6 1_555 1_555
C7 N1 1_555 1_555
C8 C9 1_555 1_555
C9 H4 1_555 1_555
H5 C9 1_555 1_555
H6 C9 1_555 1_555
C10 C8 1_555 1_555
H7 C10 1_555 1_555
H8 C10 1_555 1_555
H9 C10 1_555 1_555
C11 C8 1_555 1_555
H10 C11 1_555 1_555
H11 C11 1_555 1_555
H12 C11 1_555 1_555
C12 C13 1_555 1_555
C13 H13 1_555 1_555
C14 C13 1_555 1_555
H14 C14 1_555 1_555
C15 C14 1_555 1_555
C16 C15 1_555 1_555
H15 C16 1_555 1_555
C17 C12 1_555 1_555
H16 C17 1_555 1_555
C18 C15 1_555 1_555
H17 C18 1_555 1_555
H18 C18 1_555 1_555
H19 C18 1_555 1_555
C19 C4 1_555 1_555
N1 H20 1_555 1_555
N2 C7 1_555 1_555
H21 N2 1_555 1_555
N3 C19 1_555 1_555
O1 S1 1_555 1_555
O2 S1 1_555 1_555
O3 C7 1_555 1_555
O4 C1 1_555 1_555
S1 C2 1_555 1_555
C20 C21 1_555 1_555
C21 C22 1_555 1_555
C22 H22 1_555 1_555
C23 C22 1_555 1_555
C24 C23 1_555 1_555
H23 C24 1_555 1_555
C25 C20 1_555 1_555
H24 C25 1_555 1_555
C26 N4 1_555 1_555
C27 C28 1_555 1_555
C28 H25 1_555 1_555
H26 C28 1_555 1_555
H27 C28 1_555 1_555
C29 C27 1_555 1_555
H28 C29 1_555 1_555
H29 C29 1_555 1_555
H30 C29 1_555 1_555
C30 C27 1_555 1_555
H31 C30 1_555 1_555
H32 C30 1_555 1_555
H33 C30 1_555 1_555
C31 C32 1_555 1_555
C32 H34 1_555 1_555
C33 C32 1_555 1_555
H35 C33 1_555 1_555
C34 C33 1_555 1_555
C35 C34 1_555 1_555
H36 C35 1_555 1_555
C36 C31 1_555 1_555
H37 C36 1_555 1_555
C37 C34 1_555 1_555
H38 C37 1_555 1_555
H39 C37 1_555 1_555
H40 C37 1_555 1_555
C38 C23 1_555 1_555
N4 H41 1_555 1_555
N5 C26 1_555 1_555
H42 N5 1_555 1_555
N6 C38 1_555 1_555
O5 S2 1_555 1_555
O6 S2 1_555 1_555
O7 C26 1_555 1_555
O8 C20 1_555 1_555
S2 C21 1_555 1_555
C5 C6 1_555 1_555
C8 N2 1_555 1_555
C12 O4 1_555 1_555
C16 C17 1_555 1_555
N1 S1 1_555 1_555
C24 C25 1_555 1_555
C27 N5 1_555 1_555
C31 O8 1_555 1_555
C35 C36 1_555 1_555
N4 S2 1_555 1_555

#END
