
#######################################################################
#
#                 Cambridge Crystallographic Data Centre
#                                CCDC 
#
#######################################################################
#
# If this CIF has been generated from an entry in the Cambridge 
# Structural Database, then it will include bibliographic, chemical, 
# crystal, experimental, refinement or atomic coordinate data resulting 
# from the CCDC's data processing and validation procedures.
#
#######################################################################

data_VIMJEI
_chemical_formula_moiety         'C15 H12 N4'
_chemical_name_systematic        (E)-2-(2-Benzylidenehydrazino)quinoxaline
_symmetry_cell_setting           monoclinic
_symmetry_space_group_name_H-M   'P 21/c'
_symmetry_Int_Tables_number      14
_space_group_name_Hall           '-P 2ybc'
loop_
_symmetry_equiv_pos_site_id
_symmetry_equiv_pos_as_xyz
1 x,y,z
2 -x,1/2+y,1/2-z
3 -x,-y,-z
4 x,1/2-y,1/2+z
_cell_length_a                   6.483(7)
_cell_length_b                   21.36(3)
_cell_length_c                   17.56(2)
_cell_angle_alpha                90
_cell_angle_beta                 90.96(3)
_cell_angle_gamma                90
_cell_volume                     2431.31
_exptl_crystal_colour            yellow
_exptl_crystal_description       plate
_cell_formula_units_Z            8
loop_
_atom_site_label
_atom_site_type_symbol
_atom_site_fract_x
_atom_site_fract_y
_atom_site_fract_z
N1 N 0.7490(6) 0.0664(2) 0.2295(3)
H1 H 0.6255 0.0710 0.2488
N2 N 0.7784(7) 0.0263(2) 0.1701(2)
N3 N 0.8709(6) 0.1423(2) 0.3100(2)
N4 N 1.2779(6) 0.1176(2) 0.2642(3)
C1 C 0.6185(8) -0.0034(3) 0.1444(3)
H2 H 0.4895 0.0022 0.1683
C2 C 1.2388(8) 0.1641(2) 0.3166(3)
C3 C 1.0337(8) 0.1764(2) 0.3390(3)
C4 C 0.9119(8) 0.0995(2) 0.2588(3)
C5 C 1.1200(8) 0.0867(3) 0.2363(3)
H3 H 1.1435 0.0547 0.1998
C6 C 1.4011(8) 0.1993(3) 0.3484(3)
H4 H 1.5392 0.1904 0.3346
C7 C 1.3623(9) 0.2460(3) 0.3989(3)
H5 H 1.4727 0.2704 0.4194
C8 C 1.1581(8) 0.2583(3) 0.4208(3)
H6 H 1.1327 0.2910 0.4561
C9 C 0.9960(8) 0.2244(2) 0.3925(3)
H7 H 0.8596 0.2329 0.4084
C10 C 0.6324(8) -0.0453(2) 0.0796(3)
C11 C 0.8206(8) -0.0522(2) 0.0408(3)
H8 H 0.9423 -0.0324 0.0597
C12 C 0.8266(8) -0.0883(3) -0.0251(3)
H9 H 0.9516 -0.0916 -0.0523
C13 C 0.6512(9) -0.1193(2) -0.0516(3)
H10 H 0.6569 -0.1443 -0.0962
C14 C 0.4697(9) -0.1139(3) -0.0130(3)
H11 H 0.3508 -0.1358 -0.0307
C15 C 0.4583(8) -0.0765(2) 0.0519(3)
H12 H 0.3309 -0.0724 0.0773
N5 N 0.5632(7) 0.0473(2) 0.4258(3)
H13 H 0.6889 0.0381 0.4114
N6 N 0.5319(7) 0.0931(2) 0.4788(3)
N7 N 0.4338(6) -0.0241(2) 0.3404(2)
N8 N 0.0300(7) -0.0014(2) 0.3931(3)
C16 C 0.6922(8) 0.1224(3) 0.5034(3)
H14 H 0.8246 0.1118 0.4850
C17 C 0.0636(7) -0.0459(2) 0.3370(3)
C18 C 0.2674(8) -0.0567(2) 0.3112(3)
C19 C 0.3968(8) 0.0159(2) 0.3955(3)
C20 C 0.1921(8) 0.0272(3) 0.4214(3)
H15 H 0.1730 0.0569 0.4610
C21 C -0.1004(8) -0.0807(2) 0.3053(3)
H16 H -0.2367 -0.0739 0.3224
C22 C -0.0658(8) -0.1243(3) 0.2500(3)
H17 H -0.1779 -0.1475 0.2290
C23 C 0.1353(8) -0.1348(3) 0.2242(3)
H18 H 0.1581 -0.1648 0.1853
C24 C 0.2992(8) -0.1020(2) 0.2547(3)
H19 H 0.4347 -0.1100 0.2374
C25 C 0.6707(8) 0.1725(2) 0.5602(3)
C26 C 0.8431(8) 0.2067(2) 0.5831(3)
H20 H 0.9742 0.1968 0.5630
C27 C 0.8257(8) 0.2551(3) 0.6351(3)
H21 H 0.9437 0.2792 0.6487
C28 C 0.6367(9) 0.2685(3) 0.6674(3)
H22 H 0.6257 0.3008 0.7043
C29 C 0.4637(9) 0.2340(2) 0.6453(3)
H23 H 0.3335 0.2434 0.6665
C30 C 0.4804(8) 0.1856(2) 0.5919(3)
H24 H 0.3623 0.1618 0.5776
loop_
_geom_bond_atom_site_label_1
_geom_bond_atom_site_label_2
_geom_bond_site_symmetry_1
_geom_bond_site_symmetry_2
N1 H1 1_555 1_555
N2 N1 1_555 1_555
N3 C3 1_555 1_555
N4 C2 1_555 1_555
C1 N2 1_555 1_555
H2 C1 1_555 1_555
C2 C3 1_555 1_555
C3 C9 1_555 1_555
C4 N1 1_555 1_555
C5 N4 1_555 1_555
H3 C5 1_555 1_555
C6 C2 1_555 1_555
H4 C6 1_555 1_555
C7 C6 1_555 1_555
H5 C7 1_555 1_555
C8 C7 1_555 1_555
H6 C8 1_555 1_555
C9 C8 1_555 1_555
H7 C9 1_555 1_555
C10 C1 1_555 1_555
C11 C10 1_555 1_555
H8 C11 1_555 1_555
C12 C11 1_555 1_555
H9 C12 1_555 1_555
C13 C12 1_555 1_555
H10 C13 1_555 1_555
C14 C13 1_555 1_555
H11 C14 1_555 1_555
C15 C10 1_555 1_555
H12 C15 1_555 1_555
N5 H13 1_555 1_555
N6 N5 1_555 1_555
N7 C18 1_555 1_555
N8 C17 1_555 1_555
C16 N6 1_555 1_555
H14 C16 1_555 1_555
C17 C18 1_555 1_555
C18 C24 1_555 1_555
C19 N5 1_555 1_555
C20 N8 1_555 1_555
H15 C20 1_555 1_555
C21 C17 1_555 1_555
H16 C21 1_555 1_555
C22 C21 1_555 1_555
H17 C22 1_555 1_555
C23 C22 1_555 1_555
H18 C23 1_555 1_555
C24 C23 1_555 1_555
H19 C24 1_555 1_555
C25 C16 1_555 1_555
C26 C25 1_555 1_555
H20 C26 1_555 1_555
C27 C26 1_555 1_555
H21 C27 1_555 1_555
C28 C27 1_555 1_555
H22 C28 1_555 1_555
C29 C28 1_555 1_555
H23 C29 1_555 1_555
C30 C25 1_555 1_555
H24 C30 1_555 1_555
N3 C4 1_555 1_555
C4 C5 1_555 1_555
C14 C15 1_555 1_555
N7 C19 1_555 1_555
C19 C20 1_555 1_555
C29 C30 1_555 1_555

#END
