
#######################################################################
#
#                 Cambridge Crystallographic Data Centre
#                                CCDC 
#
#######################################################################
#
# If this CIF has been generated from an entry in the Cambridge 
# Structural Database, then it will include bibliographic, chemical, 
# crystal, experimental, refinement or atomic coordinate data resulting 
# from the CCDC's data processing and validation procedures.
#
#######################################################################

data_VIMKIN
_chemical_formula_moiety         'C15 H11 Br1 N4'
_chemical_name_systematic        
(E)-2-(2-(2-bromobenzylidene)hydrazinyl)quinoxaline
_symmetry_cell_setting           orthorhombic
_symmetry_space_group_name_H-M   'P b c a'
_symmetry_Int_Tables_number      61
_space_group_name_Hall           '-P 2ac 2ab'
loop_
_symmetry_equiv_pos_site_id
_symmetry_equiv_pos_as_xyz
1 x,y,z
2 1/2-x,-y,1/2+z
3 1/2+x,1/2-y,-z
4 -x,1/2+y,1/2-z
5 -x,-y,-z
6 1/2+x,y,1/2-z
7 1/2-x,1/2+y,z
8 x,1/2-y,1/2+z
_cell_length_a                   6.9712(10)
_cell_length_b                   12.6370(17)
_cell_length_c                   30.182(4)
_cell_angle_alpha                90
_cell_angle_beta                 90
_cell_angle_gamma                90
_cell_volume                     2658.88
_exptl_crystal_colour            orange
_exptl_crystal_description       block
_cell_formula_units_Z            8
loop_
_atom_site_label
_atom_site_type_symbol
_atom_site_fract_x
_atom_site_fract_y
_atom_site_fract_z
Br1 Br 0.39687(4) 0.149640(17) 0.675406(7)
N1 N 0.3115(3) 0.41428(13) 0.54660(5)
H1 H 0.3062 0.3488 0.5368
N2 N 0.3658(2) 0.43422(14) 0.58896(5)
N3 N 0.2215(2) 0.47221(13) 0.47821(5)
N4 N 0.2243(3) 0.68390(13) 0.50878(5)
C1 C 0.3983(3) 0.35361(15) 0.61377(6)
H2 H 0.3805 0.2839 0.6027
C2 C 0.2651(3) 0.49677(15) 0.51929(6)
C3 C 0.2626(3) 0.60435(15) 0.53486(6)
H3 H 0.2898 0.6179 0.5652
C4 C 0.1833(3) 0.66023(15) 0.46498(6)
C5 C 0.1456(3) 0.74266(16) 0.43479(7)
H4 H 0.1517 0.8143 0.4443
C6 C 0.0998(3) 0.71909(17) 0.39149(7)
H5 H 0.0747 0.7747 0.3711
C7 C 0.0899(3) 0.61298(17) 0.37716(6)
H6 H 0.0559 0.5976 0.3474
C8 C 0.1293(3) 0.53186(16) 0.40601(6)
H7 H 0.1234 0.4606 0.3961
C9 C 0.1786(3) 0.55420(15) 0.45052(6)
C10 C 0.4632(3) 0.37079(16) 0.65936(6)
C11 C 0.4813(3) 0.28886(16) 0.69008(6)
C12 C 0.5554(3) 0.30484(18) 0.73237(7)
H8 H 0.5685 0.2472 0.7523
C13 C 0.6097(3) 0.40581(19) 0.74502(7)
H9 H 0.6604 0.4176 0.7738
C14 C 0.5904(3) 0.48965(18) 0.71575(7)
H10 H 0.6263 0.5590 0.7246
C15 C 0.5186(3) 0.47229(17) 0.67353(6)
H11 H 0.5066 0.5303 0.6537
loop_
_geom_bond_atom_site_label_1
_geom_bond_atom_site_label_2
_geom_bond_site_symmetry_1
_geom_bond_site_symmetry_2
Br1 C11 1_555 1_555
N1 H1 1_555 1_555
N2 N1 1_555 1_555
N3 C2 1_555 1_555
N4 C3 1_555 1_555
C1 N2 1_555 1_555
H2 C1 1_555 1_555
C2 N1 1_555 1_555
C3 C2 1_555 1_555
H3 C3 1_555 1_555
C4 N4 1_555 1_555
C5 C4 1_555 1_555
H4 C5 1_555 1_555
C6 C5 1_555 1_555
H5 C6 1_555 1_555
C7 C6 1_555 1_555
H6 C7 1_555 1_555
C8 C7 1_555 1_555
H7 C8 1_555 1_555
C9 N3 1_555 1_555
C10 C1 1_555 1_555
C11 C10 1_555 1_555
C12 C11 1_555 1_555
H8 C12 1_555 1_555
C13 C12 1_555 1_555
H9 C13 1_555 1_555
C14 C13 1_555 1_555
H10 C14 1_555 1_555
C15 C10 1_555 1_555
H11 C15 1_555 1_555
C4 C9 1_555 1_555
C8 C9 1_555 1_555
C14 C15 1_555 1_555

#END
