
#######################################################################
#
#                 Cambridge Crystallographic Data Centre
#                                CCDC 
#
#######################################################################
#
# If this CIF has been generated from an entry in the Cambridge 
# Structural Database, then it will include bibliographic, chemical, 
# crystal, experimental, refinement or atomic coordinate data resulting 
# from the CCDC's data processing and validation procedures.
#
#######################################################################

data_VIMLIP
_chemical_formula_moiety         'C10 H16 N2 O1'
_chemical_name_systematic        5-butyl-2,6-dimethylpyrimidin-4(3H)-one
_symmetry_cell_setting           triclinic
_symmetry_space_group_name_H-M   'P -1'
_symmetry_Int_Tables_number      2
_space_group_name_Hall           '-P 1'
loop_
_symmetry_equiv_pos_site_id
_symmetry_equiv_pos_as_xyz
1 x,y,z
2 -x,-y,-z
_cell_length_a                   4.8866(10)
_cell_length_b                   10.088(2)
_cell_length_c                   11.577(2)
_cell_angle_alpha                114.58(3)
_cell_angle_beta                 96.59(3)
_cell_angle_gamma                90.66(3)
_cell_volume                     514.445
_exptl_crystal_colour            colorless
_exptl_crystal_description       prism
_cell_formula_units_Z            2
loop_
_atom_site_label
_atom_site_type_symbol
_atom_site_fract_x
_atom_site_fract_y
_atom_site_fract_z
H1 H 0.080(5) -0.121(2) 0.486(2)
N1 N 0.2340(3) -0.11539(17) 0.54175(15)
C1 C 0.3369(4) -0.2416(2) 0.53596(19)
N2 N 0.5477(3) -0.24411(18) 0.61445(16)
C2 C 0.6644(4) -0.1109(2) 0.70538(18)
C3 C 0.5775(4) 0.0206(2) 0.71561(18)
C4 C 0.3419(4) 0.0204(2) 0.62815(18)
O1 O 0.2368(3) 0.13178(15) 0.62791(13)
C5 C 0.1944(5) -0.3791(2) 0.4351(2)
H2 H 0.292062 -0.461054 0.435334
H3 H 0.190037 -0.376764 0.352913
H4 H 0.009020 -0.388177 0.452183
C6 C 0.894(2) -0.1269(17) 0.7965(10)
H5 H 0.816789 -0.161311 0.852533
H6 H 0.992409 -0.033920 0.846394
H7 H 1.017507 -0.195675 0.748754
C7 C 0.7045(4) 0.1655(3) 0.8131(2)
H8 H 0.905(5) 0.158(2) 0.829(2)
H9 H 0.689(5) 0.239(2) 0.780(2)
C8 C 0.5876(5) 0.2224(3) 0.9395(2)
H10 H 0.591(4) 0.143(2) 0.976(2)
H11 H 0.401(5) 0.234(2) 0.934(2)
C9 C 0.7302(5) 0.3648(3) 1.0390(2)
H12 H 0.919(6) 0.347(2) 1.056(2)
H13 H 0.747(5) 0.437(3) 1.001(3)
C10 C 0.6057(5) 0.4272(3) 1.1627(2)
H14 H 0.415246 0.443539 1.145298
H15 H 0.703987 0.518138 1.219827
H16 H 0.618531 0.359728 1.201694
C11? C 0.9037(17) -0.1241(14) 0.7935(10)
H17? H 0.867296 -0.075456 0.880669
H18? H 1.068666 -0.079751 0.783238
H19? H 0.927814 -0.225389 0.772863
loop_
_geom_bond_atom_site_label_1
_geom_bond_atom_site_label_2
_geom_bond_site_symmetry_1
_geom_bond_site_symmetry_2
H1 N1 1_555 1_555
N1 C1 1_555 1_555
C1 N2 1_555 1_555
N2 C2 1_555 1_555
C2 C3 1_555 1_555
C3 C4 1_555 1_555
C4 N1 1_555 1_555
O1 C4 1_555 1_555
C5 C1 1_555 1_555
H2 C5 1_555 1_555
H3 C5 1_555 1_555
H4 C5 1_555 1_555
C6 C2 1_555 1_555
H5 C6 1_555 1_555
H6 C6 1_555 1_555
H7 C6 1_555 1_555
C7 C3 1_555 1_555
H8 C7 1_555 1_555
H9 C7 1_555 1_555
C8 C7 1_555 1_555
H10 C8 1_555 1_555
H11 C8 1_555 1_555
C9 C8 1_555 1_555
H12 C9 1_555 1_555
H13 C9 1_555 1_555
C10 C9 1_555 1_555
H14 C10 1_555 1_555
H15 C10 1_555 1_555
H16 C10 1_555 1_555

#END
