
#######################################################################
#
#                 Cambridge Crystallographic Data Centre
#                                CCDC 
#
#######################################################################
#
# If this CIF has been generated from an entry in the Cambridge 
# Structural Database, then it will include bibliographic, chemical, 
# crystal, experimental, refinement or atomic coordinate data resulting 
# from the CCDC's data processing and validation procedures.
#
#######################################################################

data_VIMLAF
_chemical_formula_moiety         'C27 H28 O2'
_chemical_name_systematic        
(+-)-(E)-(1S,2R,6R)-1,1'-(2-(2,2-di-p-tolylvinyl)bicyclo(4.1.0)hept-3-ene-7,7-diyl)diethanone
_symmetry_cell_setting           monoclinic
_symmetry_space_group_name_H-M   'P 21/c'
_symmetry_Int_Tables_number      14
_space_group_name_Hall           '-P 2ybc'
loop_
_symmetry_equiv_pos_site_id
_symmetry_equiv_pos_as_xyz
1 x,y,z
2 -x,1/2+y,1/2-z
3 -x,-y,-z
4 x,1/2-y,1/2+z
_cell_length_a                   7.0258(2)
_cell_length_b                   31.5160(12)
_cell_length_c                   10.1725(4)
_cell_angle_alpha                90
_cell_angle_beta                 108.069(2)
_cell_angle_gamma                90
_cell_volume                     2141.36
_exptl_crystal_colour            colorless
_exptl_crystal_description       prism
_chemical_melting_point          '150-152 deg.C'
_cell_formula_units_Z            4
_exptl_crystal_recrystallization_method dichloromethane/hexanes
loop_
_atom_site_label
_atom_site_type_symbol
_atom_site_fract_x
_atom_site_fract_y
_atom_site_fract_z
O1 O 0.5643(5) 0.23124(9) 0.3296(3)
O2 O 0.2016(6) 0.20233(12) -0.0953(4)
C1 C 0.7292(8) 0.26893(13) 0.1947(5)
H1 H 0.7859 0.2847 0.2785
H2 H 0.6510 0.2876 0.1238
H3 H 0.8347 0.2566 0.1658
C2 C 0.5965(7) 0.23404(13) 0.2199(5)
C3 C 0.4932(7) 0.20535(13) 0.0991(5)
C4 C 0.2972(8) 0.22194(15) 0.0076(5)
C5 C 0.2183(9) 0.26291(15) 0.0454(6)
H4 H 0.0922 0.2694 -0.0221
H5 H 0.3119 0.2853 0.0476
H6 H 0.2005 0.2602 0.1348
C6 C 0.6067(8) 0.17875(13) 0.0231(5)
H7 H 0.5571 0.1771 -0.0760
C7 C 0.8292(8) 0.17794(15) 0.0686(5)
H8 H 0.8751 0.1556 0.0216
H9 H 0.8778 0.2047 0.0473
C8 C 0.9243(9) 0.17047(15) 0.2195(6)
H10 H 1.0593 0.1797 0.2638
C9 C 0.8278(8) 0.15152(13) 0.2961(5)
H11 H 0.8892 0.1487 0.3941
C10 C 0.6201(8) 0.13380(13) 0.2393(5)
H12 H 0.6419 0.1050 0.2173
C11 C 0.4981(8) 0.15711(13) 0.1089(5)
H13 H 0.4044 0.1372 0.0526
C12 C 0.5083(7) 0.13017(13) 0.3440(5)
H14 H 0.5042 0.1543 0.4008
C13 C 0.4075(7) 0.09600(13) 0.3626(5)
C14 C 0.3879(7) 0.05754(13) 0.2734(5)
C15 C 0.2598(8) 0.05646(14) 0.1392(5)
H15 H 0.1841 0.0814 0.1018
C16 C 0.2401(8) 0.02052(15) 0.0575(5)
H16 H 0.1483 0.0207 -0.0348
C17 C 0.3472(8) -0.01557(14) 0.1065(5)
C18 C 0.3244(9) -0.05487(15) 0.0187(5)
H17 H 0.2288 -0.0497 -0.0704
H18 H 0.2786 -0.0779 0.0629
H19 H 0.4513 -0.0621 0.0077
C19 C 0.4764(8) -0.01510(14) 0.2392(5)
H20 H 0.5529 -0.0401 0.2755
C20 C 0.4975(7) 0.02063(13) 0.3235(5)
H21 H 0.5859 0.0205 0.4168
C21 C 0.2970(7) 0.09479(13) 0.4667(5)
C22 C 0.3381(8) 0.12276(13) 0.5777(5)
H22 H 0.4473 0.1423 0.5917
C23 C 0.2251(8) 0.12338(14) 0.6670(5)
H23 H 0.2576 0.1434 0.7419
C24 C 0.0682(7) 0.09545(15) 0.6516(5)
C25 C -0.0580(9) 0.09718(17) 0.7484(5)
H24 H -0.0102 0.1195 0.8145
H25 H -0.0487 0.0706 0.7959
H26 H -0.1950 0.1025 0.6959
C26 C 0.0312(8) 0.06628(15) 0.5465(5)
H27 H -0.0736 0.0458 0.5365
C27 C 0.1419(7) 0.06560(14) 0.4541(5)
H28 H 0.1134 0.0449 0.3812
loop_
_geom_bond_atom_site_label_1
_geom_bond_atom_site_label_2
_geom_bond_site_symmetry_1
_geom_bond_site_symmetry_2
O1 C2 1_555 1_555
O2 C4 1_555 1_555
C1 H1 1_555 1_555
H2 C1 1_555 1_555
H3 C1 1_555 1_555
C2 C1 1_555 1_555
C3 C2 1_555 1_555
C4 C3 1_555 1_555
C5 C4 1_555 1_555
H4 C5 1_555 1_555
H5 C5 1_555 1_555
H6 C5 1_555 1_555
C6 C3 1_555 1_555
H7 C6 1_555 1_555
C7 C6 1_555 1_555
H8 C7 1_555 1_555
H9 C7 1_555 1_555
C8 C7 1_555 1_555
H10 C8 1_555 1_555
C9 C8 1_555 1_555
H11 C9 1_555 1_555
C10 C9 1_555 1_555
H12 C10 1_555 1_555
C11 C3 1_555 1_555
H13 C11 1_555 1_555
C12 C10 1_555 1_555
H14 C12 1_555 1_555
C13 C12 1_555 1_555
C14 C13 1_555 1_555
C15 C14 1_555 1_555
H15 C15 1_555 1_555
C16 C15 1_555 1_555
H16 C16 1_555 1_555
C17 C16 1_555 1_555
C18 C17 1_555 1_555
H17 C18 1_555 1_555
H18 C18 1_555 1_555
H19 C18 1_555 1_555
C19 C17 1_555 1_555
H20 C19 1_555 1_555
C20 C14 1_555 1_555
H21 C20 1_555 1_555
C21 C13 1_555 1_555
C22 C21 1_555 1_555
H22 C22 1_555 1_555
C23 C22 1_555 1_555
H23 C23 1_555 1_555
C24 C23 1_555 1_555
C25 C24 1_555 1_555
H24 C25 1_555 1_555
H25 C25 1_555 1_555
H26 C25 1_555 1_555
C26 C24 1_555 1_555
H27 C26 1_555 1_555
C27 C21 1_555 1_555
H28 C27 1_555 1_555
C6 C11 1_555 1_555
C10 C11 1_555 1_555
C19 C20 1_555 1_555
C26 C27 1_555 1_555

#END
