
#######################################################################
#
#                 Cambridge Crystallographic Data Centre
#                                CCDC 
#
#######################################################################
#
# If this CIF has been generated from an entry in the Cambridge 
# Structural Database, then it will include bibliographic, chemical, 
# crystal, experimental, refinement or atomic coordinate data resulting 
# from the CCDC's data processing and validation procedures.
#
#######################################################################

data_VIMXAS
_chemical_formula_moiety         'C22 H19 N3 O1'
_chemical_name_systematic        
(1-Benzyl-1H-1,2,3-triazol-4-yl)(diphenyl)methanol
_symmetry_cell_setting           orthorhombic
_symmetry_space_group_name_H-M   'P 21 21 21'
_symmetry_Int_Tables_number      19
_space_group_name_Hall           'P 2ac 2ab'
loop_
_symmetry_equiv_pos_site_id
_symmetry_equiv_pos_as_xyz
1 x,y,z
2 1/2+x,1/2-y,-z
3 -x,1/2+y,1/2-z
4 1/2-x,-y,1/2+z
_cell_length_a                   6.0283(3)
_cell_length_b                   16.9381(8)
_cell_length_c                   17.1386(9)
_cell_angle_alpha                90
_cell_angle_beta                 90
_cell_angle_gamma                90
_cell_volume                     1749.99
_exptl_crystal_colour            colorless
_exptl_crystal_description       platelet
_cell_formula_units_Z            4
loop_
_atom_site_label
_atom_site_type_symbol
_atom_site_fract_x
_atom_site_fract_y
_atom_site_fract_z
O1 O 1.4479(5) 0.26140(19) 0.85008(18)
N1 N 1.1442(7) 0.2982(3) 0.9641(3)
N2 N 1.0001(7) 0.3384(3) 1.0063(2)
N3 N 0.8498(7) 0.3688(3) 0.9562(3)
C1 C 1.2200(7) 0.2583(3) 0.8272(3)
C2 C 1.1446(8) 0.1724(3) 0.8189(3)
C3 C 1.2913(9) 0.1177(3) 0.7872(3)
C4 C 1.2292(9) 0.0409(3) 0.7741(3)
C5 C 1.0172(10) 0.0159(3) 0.7944(3)
C6 C 0.8709(9) 0.0680(3) 0.8275(3)
C7 C 0.9324(8) 0.1465(3) 0.8393(3)
C8 C 1.2058(8) 0.2973(3) 0.7467(3)
C9 C 1.3846(9) 0.3404(3) 0.7168(3)
C10 C 1.3756(10) 0.3708(3) 0.6418(3)
C11 C 1.1911(10) 0.3602(3) 0.5963(3)
C12 C 1.0133(10) 0.3186(3) 0.6254(3)
C13 C 1.0172(9) 0.2879(3) 0.7000(3)
C14 C 1.0854(8) 0.3028(3) 0.8871(3)
C15 C 0.8983(8) 0.3487(3) 0.8823(3)
C16 C 0.6531(8) 0.4096(3) 0.9872(3)
C17 C 0.6096(9) 0.4895(3) 0.9508(3)
C18 C 0.7644(10) 0.5496(3) 0.9594(3)
C19 C 0.7232(11) 0.6247(3) 0.9306(4)
C20 C 0.5224(13) 0.6401(4) 0.8933(4)
C21 C 0.3686(11) 0.5805(4) 0.8840(3)
C22 C 0.4139(10) 0.5049(4) 0.9131(3)
H1 H 1.4753 0.2241 0.8809
H2 H 1.4376 0.1339 0.7743
H3 H 1.3309 0.0048 0.7513
H4 H 0.9737 -0.0372 0.7852
H5 H 0.7273 0.0506 0.8425
H6 H 0.8293 0.1826 0.8613
H7 H 1.5127 0.3488 0.7480
H8 H 1.4986 0.3994 0.6217
H9 H 1.1859 0.3814 0.5450
H10 H 0.8859 0.3108 0.5937
H11 H 0.8918 0.2603 0.7197
H12 H 0.8198 0.3633 0.8364
H13 H 0.6716 0.4165 1.0442
H14 H 0.5215 0.3757 0.9788
H15 H 0.9005 0.5392 0.9853
H16 H 0.8309 0.6653 0.9362
H17 H 0.4914 0.6916 0.8743
H18 H 0.2325 0.5908 0.8579
H19 H 0.3079 0.4639 0.9067
loop_
_geom_bond_atom_site_label_1
_geom_bond_atom_site_label_2
_geom_bond_site_symmetry_1
_geom_bond_site_symmetry_2
O1 C1 1_555 1_555
N1 N2 1_555 1_555
N2 N3 1_555 1_555
N3 C15 1_555 1_555
C1 C2 1_555 1_555
C2 C3 1_555 1_555
C3 C4 1_555 1_555
C4 C5 1_555 1_555
C5 C6 1_555 1_555
C6 C7 1_555 1_555
C7 C2 1_555 1_555
C8 C1 1_555 1_555
C9 C8 1_555 1_555
C10 C9 1_555 1_555
C11 C10 1_555 1_555
C12 C11 1_555 1_555
C13 C8 1_555 1_555
C14 N1 1_555 1_555
C15 C14 1_555 1_555
C16 N3 1_555 1_555
C17 C16 1_555 1_555
C18 C17 1_555 1_555
C19 C18 1_555 1_555
C20 C19 1_555 1_555
C21 C20 1_555 1_555
C22 C17 1_555 1_555
H1 O1 1_555 1_555
H2 C3 1_555 1_555
H3 C4 1_555 1_555
H4 C5 1_555 1_555
H5 C6 1_555 1_555
H6 C7 1_555 1_555
H7 C9 1_555 1_555
H8 C10 1_555 1_555
H9 C11 1_555 1_555
H10 C12 1_555 1_555
H11 C13 1_555 1_555
H12 C15 1_555 1_555
H13 C16 1_555 1_555
H14 C16 1_555 1_555
H15 C18 1_555 1_555
H16 C19 1_555 1_555
H17 C20 1_555 1_555
H18 C21 1_555 1_555
H19 C22 1_555 1_555
C1 C14 1_555 1_555
C12 C13 1_555 1_555
C21 C22 1_555 1_555

#END
