
#######################################################################
#
#                 Cambridge Crystallographic Data Centre
#                                CCDC 
#
#######################################################################
#
# If this CIF has been generated from an entry in the Cambridge 
# Structural Database, then it will include bibliographic, chemical, 
# crystal, experimental, refinement or atomic coordinate data resulting 
# from the CCDC's data processing and validation procedures.
#
#######################################################################

data_VIMXOG
_chemical_formula_moiety         'C34 H32 N4'
_chemical_name_systematic        
3-((1-Benzyl-5-butyl-1H-1,2,3-triazol-4-yl)(diphenyl)methyl)-1H-indole
_symmetry_cell_setting           monoclinic
_symmetry_space_group_name_H-M   'P 21/n'
_symmetry_Int_Tables_number      14
_space_group_name_Hall           '-P 2yn'
loop_
_symmetry_equiv_pos_site_id
_symmetry_equiv_pos_as_xyz
1 x,y,z
2 1/2-x,1/2+y,1/2-z
3 -x,-y,-z
4 1/2+x,1/2-y,1/2+z
_cell_length_a                   12.2277(3)
_cell_length_b                   15.3525(3)
_cell_length_c                   15.6825(3)
_cell_angle_alpha                90
_cell_angle_beta                 112.0205(7)
_cell_angle_gamma                90
_cell_volume                     2729.24
_exptl_crystal_colour            colorless
_exptl_crystal_description       platelet
_cell_formula_units_Z            4
loop_
_atom_site_label
_atom_site_type_symbol
_atom_site_fract_x
_atom_site_fract_y
_atom_site_fract_z
N1 N 0.52085(10) 0.34369(8) 0.50620(8)
N2 N 0.57972(11) 0.40845(9) 0.48810(8)
N3 N 0.50974(11) 0.44219(8) 0.40669(8)
N4 N 0.20777(11) 0.17124(8) 0.19455(8)
C1 C 0.41316(12) 0.33626(9) 0.43651(9)
C2 C 0.40501(13) 0.39963(9) 0.37135(9)
C3 C 0.31301(14) 0.42396(10) 0.28024(10)
C4 C 0.33598(14) 0.38346(11) 0.19814(11)
C5 C 0.26428(17) 0.42356(16) 0.10715(12)
C6 C 0.29290(18) 0.38240(16) 0.03035(13)
C7 C 0.55341(14) 0.51527(10) 0.36893(10)
C8 C 0.59467(13) 0.48923(11) 0.29320(11)
C9 C 0.65427(16) 0.41182(14) 0.29669(14)
C10 C 0.6871(2) 0.38787(16) 0.22424(16)
C11 C 0.66330(19) 0.44213(15) 0.14967(15)
C12 C 0.6051(2) 0.51948(15) 0.14602(15)
C13 C 0.57065(18) 0.54325(12) 0.21754(12)
C14 C 0.32648(12) 0.26319(9) 0.43233(9)
C15 C 0.20893(12) 0.29735(10) 0.43585(9)
C16 C 0.18040(13) 0.38510(10) 0.43479(10)
C17 C 0.07362(14) 0.41093(11) 0.43974(11)
C18 C -0.00634(15) 0.34990(12) 0.44549(11)
C19 C 0.02076(14) 0.26209(12) 0.44663(11)
C20 C 0.12701(13) 0.23609(10) 0.44201(10)
C21 C 0.37942(12) 0.20169(9) 0.51610(9)
C22 C 0.39573(13) 0.23240(10) 0.60409(10)
C23 C 0.43531(14) 0.17683(11) 0.67968(10)
C24 C 0.45954(14) 0.09035(11) 0.66905(11)
C25 C 0.44264(14) 0.05934(11) 0.58264(11)
C26 C 0.40300(13) 0.11472(10) 0.50658(10)
C27 C 0.19478(13) 0.20757(10) 0.27039(10)
C28 C 0.30191(12) 0.21689(9) 0.34087(9)
C29 C 0.38844(13) 0.18524(9) 0.30601(10)
C30 C 0.51220(13) 0.18128(10) 0.34123(10)
C31 C 0.56849(14) 0.15236(11) 0.28494(11)
C32 C 0.50432(15) 0.12657(11) 0.19374(12)
C33 C 0.38280(15) 0.12833(10) 0.15754(11)
C34 C 0.32591(13) 0.15803(9) 0.21421(10)
H1 H 0.3107 0.4882 0.2740
H2 H 0.2349 0.4045 0.2782
H3 H 0.4207 0.3899 0.2089
H4 H 0.3183 0.3204 0.1956
H5 H 0.1501 0.1586 0.1422
H6 H 0.2806 0.4868 0.1093
H7 H 0.1793 0.4157 0.0948
H8 H 0.3769 0.3905 0.0423
H9 H 0.2455 0.4101 -0.0282
H10 H 0.2748 0.3200 0.0272
H11 H 0.6197 0.5430 0.4191
H12 H 0.4898 0.5591 0.3447
H13 H 0.6728 0.3749 0.3489
H14 H 0.7260 0.3339 0.2262
H15 H 0.6871 0.4261 0.1007
H16 H 0.5885 0.5568 0.0944
H17 H 0.5304 0.5968 0.2147
H18 H 0.2343 0.4279 0.4306
H19 H 0.0556 0.4712 0.4392
H20 H -0.0791 0.3679 0.4486
H21 H -0.0336 0.2196 0.4506
H22 H 0.1447 0.1757 0.4430
H23 H 0.3796 0.2917 0.6123
H24 H 0.4458 0.1984 0.7390
H25 H 0.4876 0.0527 0.7209
H26 H 0.4581 -0.0001 0.5747
H27 H 0.3920 0.0925 0.4474
H28 H 0.1214 0.2240 0.2734
H29 H 0.5565 0.1982 0.4028
H30 H 0.6522 0.1498 0.3083
H31 H 0.5455 0.1076 0.1564
H32 H 0.3394 0.1100 0.0962
loop_
_geom_bond_atom_site_label_1
_geom_bond_atom_site_label_2
_geom_bond_site_symmetry_1
_geom_bond_site_symmetry_2
N1 N2 1_555 1_555
N2 N3 1_555 1_555
N3 C2 1_555 1_555
N4 C27 1_555 1_555
C1 N1 1_555 1_555
C2 C1 1_555 1_555
C3 C2 1_555 1_555
C4 C3 1_555 1_555
C5 C4 1_555 1_555
C6 C5 1_555 1_555
C7 N3 1_555 1_555
C8 C7 1_555 1_555
C9 C8 1_555 1_555
C10 C9 1_555 1_555
C11 C10 1_555 1_555
C12 C11 1_555 1_555
C13 C8 1_555 1_555
C14 C1 1_555 1_555
C15 C14 1_555 1_555
C16 C15 1_555 1_555
C17 C16 1_555 1_555
C18 C17 1_555 1_555
C19 C18 1_555 1_555
C20 C15 1_555 1_555
C21 C14 1_555 1_555
C22 C21 1_555 1_555
C23 C22 1_555 1_555
C24 C23 1_555 1_555
C25 C24 1_555 1_555
C26 C21 1_555 1_555
C27 C28 1_555 1_555
C28 C14 1_555 1_555
C29 C28 1_555 1_555
C30 C29 1_555 1_555
C31 C30 1_555 1_555
C32 C31 1_555 1_555
C33 C32 1_555 1_555
C34 N4 1_555 1_555
H1 C3 1_555 1_555
H2 C3 1_555 1_555
H3 C4 1_555 1_555
H4 C4 1_555 1_555
H5 N4 1_555 1_555
H6 C5 1_555 1_555
H7 C5 1_555 1_555
H8 C6 1_555 1_555
H9 C6 1_555 1_555
H10 C6 1_555 1_555
H11 C7 1_555 1_555
H12 C7 1_555 1_555
H13 C9 1_555 1_555
H14 C10 1_555 1_555
H15 C11 1_555 1_555
H16 C12 1_555 1_555
H17 C13 1_555 1_555
H18 C16 1_555 1_555
H19 C17 1_555 1_555
H20 C18 1_555 1_555
H21 C19 1_555 1_555
H22 C20 1_555 1_555
H23 C22 1_555 1_555
H24 C23 1_555 1_555
H25 C24 1_555 1_555
H26 C25 1_555 1_555
H27 C26 1_555 1_555
H28 C27 1_555 1_555
H29 C30 1_555 1_555
H30 C31 1_555 1_555
H31 C32 1_555 1_555
H32 C33 1_555 1_555
C12 C13 1_555 1_555
C19 C20 1_555 1_555
C25 C26 1_555 1_555
C29 C34 1_555 1_555
C33 C34 1_555 1_555

#END
