
#######################################################################
#
#                 Cambridge Crystallographic Data Centre
#                                CCDC 
#
#######################################################################
#
# If this CIF has been generated from an entry in the Cambridge 
# Structural Database, then it will include bibliographic, chemical, 
# crystal, experimental, refinement or atomic coordinate data resulting 
# from the CCDC's data processing and validation procedures.
#
#######################################################################

data_VIMYAU
_chemical_formula_moiety         'C23 H17 N1 O1'
_chemical_name_systematic        
2'-methyl-2-phenylspiro[indene-1,1'-isoindol]-3'(2'H)-one
_symmetry_cell_setting           orthorhombic
_symmetry_space_group_name_H-M   'P 21 21 21'
_symmetry_Int_Tables_number      19
_space_group_name_Hall           'P 2ac 2ab'
loop_
_symmetry_equiv_pos_site_id
_symmetry_equiv_pos_as_xyz
1 x,y,z
2 1/2-x,-y,1/2+z
3 1/2+x,1/2-y,-z
4 -x,1/2+y,1/2-z
_cell_length_a                   7.92466(18)
_cell_length_b                   11.5149(3)
_cell_length_c                   19.0209(6)
_cell_angle_alpha                90
_cell_angle_beta                 90
_cell_angle_gamma                90
_cell_volume                     1735.69
_exptl_crystal_colour            colorless
_exptl_crystal_description       prism
_cell_formula_units_Z            4
loop_
_atom_site_label
_atom_site_type_symbol
_atom_site_fract_x
_atom_site_fract_y
_atom_site_fract_z
C1 C -0.1436(6) 0.4918(4) 0.6643(3)
C2 C -0.0030(6) 0.4294(4) 0.6317(2)
C3 C -0.0039(9) 0.3314(5) 0.5903(3)
H1 H -0.1042 0.2933 0.5797
C4 C 0.1469(12) 0.2919(5) 0.5653(4)
H2 H 0.1499 0.2253 0.5377
C5 C 0.2950(10) 0.3497(6) 0.5803(3)
H3 H 0.3955 0.3234 0.5607
C6 C 0.2976(7) 0.4460(5) 0.6239(3)
H4 H 0.3981 0.4829 0.6358
C7 C 0.1442(6) 0.4847(4) 0.6489(3)
C8 C 0.1107(6) 0.5834(5) 0.7008(3)
C9 C 0.1976(6) 0.6951(5) 0.6861(3)
C10 C 0.3074(8) 0.7244(6) 0.7334(4)
H5 H 0.3785 0.7885 0.7315
C11 C 0.3001(9) 0.6381(6) 0.7908(4)
C12 C 0.1846(7) 0.5579(6) 0.7746(3)
C13 C 0.1457(9) 0.4702(7) 0.8185(3)
H6 H 0.0636 0.4161 0.8062
C14 C 0.2291(10) 0.4616(9) 0.8814(4)
H7 H 0.2035 0.4007 0.9117
C15 C 0.3459(12) 0.5388(11) 0.9001(4)
H8 H 0.3991 0.5328 0.9435
C16 C 0.3890(9) 0.6308(8) 0.8533(5)
H9 H 0.4736 0.6837 0.8643
C17 C 0.1671(13) 0.7617(6) 0.6161(3)
C18 C 0.0779(8) 0.7190(4) 0.5587(4)
H10 H 0.0308 0.6451 0.5604
C19 C 0.0589(8) 0.7868(7) 0.4988(3)
H11 H -0.0008 0.7582 0.4604
C20 C 0.1292(10) 0.8973(7) 0.4962(4)
H12 H 0.1165 0.9427 0.4561
C21 C 0.2184(13) 0.9400(5) 0.5535(5)
H13 H 0.2654 1.0140 0.5518
C22 C 0.2374(14) 0.8722(7) 0.6135(4)
H14 H 0.2971 0.9008 0.6519
C23 C -0.1744(9) 0.6601(6) 0.7442(5)
H15 H -0.2416 0.7114 0.7159
H16 H -0.0998 0.7048 0.7733
H17 H -0.2469 0.6138 0.7733
N1 N -0.0764(5) 0.5849(4) 0.6989(3)
O1 O -0.2947(4) 0.4679(4) 0.6638(2)
C24? C 0.185(4) 0.791(3) 0.6244(9)
C25? C 0.082(3) 0.7133(17) 0.5890(11)
H18? H 0.0452 0.6460 0.6113
C26? C 0.033(3) 0.736(2) 0.5202(10)
H19? H -0.0367 0.6840 0.4965
C27? C 0.087(3) 0.837(3) 0.4868(10)
H20? H 0.0543 0.8519 0.4408
C28? C 0.191(5) 0.915(3) 0.5223(19)
H21? H 0.2272 0.9819 0.4999
C29? C 0.240(5) 0.892(3) 0.5911(18)
H22? H 0.3091 0.9440 0.6148
loop_
_geom_bond_atom_site_label_1
_geom_bond_atom_site_label_2
_geom_bond_site_symmetry_1
_geom_bond_site_symmetry_2
C1 C2 1_555 1_555
C2 C3 1_555 1_555
C3 H1 1_555 1_555
C4 C3 1_555 1_555
H2 C4 1_555 1_555
C5 C4 1_555 1_555
H3 C5 1_555 1_555
C6 C5 1_555 1_555
H4 C6 1_555 1_555
C7 C2 1_555 1_555
C8 C7 1_555 1_555
C9 C8 1_555 1_555
C10 C9 1_555 1_555
H5 C10 1_555 1_555
C11 C10 1_555 1_555
C12 C8 1_555 1_555
C13 C12 1_555 1_555
H6 C13 1_555 1_555
C14 C13 1_555 1_555
H7 C14 1_555 1_555
C15 C14 1_555 1_555
H8 C15 1_555 1_555
C16 C11 1_555 1_555
H9 C16 1_555 1_555
C17 C9 1_555 1_555
C18 C17 1_555 1_555
H10 C18 1_555 1_555
C19 C18 1_555 1_555
H11 C19 1_555 1_555
C20 C19 1_555 1_555
H12 C20 1_555 1_555
C21 C20 1_555 1_555
H13 C21 1_555 1_555
C22 C17 1_555 1_555
H14 C22 1_555 1_555
C23 H15 1_555 1_555
H16 C23 1_555 1_555
H17 C23 1_555 1_555
N1 C1 1_555 1_555
O1 C1 1_555 1_555
C6 C7 1_555 1_555
C8 N1 1_555 1_555
C11 C12 1_555 1_555
C15 C16 1_555 1_555
C21 C22 1_555 1_555
C23 N1 1_555 1_555

#END
