
#######################################################################
#
#                 Cambridge Crystallographic Data Centre
#                                CCDC 
#
#######################################################################
#
# If this CIF has been generated from an entry in the Cambridge 
# Structural Database, then it will include bibliographic, chemical, 
# crystal, experimental, refinement or atomic coordinate data resulting 
# from the CCDC's data processing and validation procedures.
#
#######################################################################

data_VINCUS
_chemical_formula_moiety         '2(C24 H20 P1 1+),C8 H4 O2 S2 2-'
_chemical_name_systematic        
'bis(Tetraphenylphosphonium) benzene-1,4-dicarbothioate'
_symmetry_cell_setting           triclinic
_symmetry_space_group_name_H-M   'P -1'
_symmetry_Int_Tables_number      2
_space_group_name_Hall           '-P 1'
loop_
_symmetry_equiv_pos_site_id
_symmetry_equiv_pos_as_xyz
1 x,y,z
2 -x,-y,-z
_cell_length_a                   9.0494(6)
_cell_length_b                   9.5133(7)
_cell_length_c                   14.0642(10)
_cell_angle_alpha                75.1370(10)
_cell_angle_beta                 71.7650(10)
_cell_angle_gamma                80.8380(10)
_cell_volume                     1107.38
_exptl_crystal_colour            yellow
_exptl_crystal_description       Needle
_cell_formula_units_Z            1
loop_
_atom_site_label
_atom_site_type_symbol
_atom_site_fract_x
_atom_site_fract_y
_atom_site_fract_z
S1 S 0.61132(4) 0.64807(4) 0.20562(3)
O1 O 0.58680(11) 0.90805(11) 0.24496(7)
C1 C 0.57768(14) 0.83506(14) 0.18601(10)
C2 C 0.53706(14) 0.91754(14) 0.08911(10)
C3 C 0.46400(16) 0.85613(15) 0.03755(10)
H1 H 0.4393 0.7597 0.0625
C4 C 0.57215(16) 1.06251(15) 0.05046(10)
H2 H 0.6204 1.1051 0.0842
S1A S 0.38868(4) 1.35193(4) -0.20562(3)
O1A O 0.41320(11) 1.09195(11) -0.24496(7)
C1A C 0.42232(14) 1.16494(14) -0.18601(10)
C2A C 0.46294(14) 1.08246(14) -0.08911(10)
C3A C 0.53600(16) 1.14387(15) -0.03755(10)
H1A H 0.5607 1.2403 -0.0625
C4A C 0.42785(16) 0.93749(15) -0.05046(10)
H2A H 0.3796 0.8949 -0.0842
C5 C 0.66877(16) 0.37669(14) 0.46219(10)
H3 H 0.6486 0.4737 0.4676
P1 P 0.98484(4) 0.14454(3) 0.27361(2)
C6 C 1.02117(15) -0.04941(14) 0.29180(9)
C7 C 0.79041(15) 0.33758(14) 0.38267(10)
H4 H 0.8528 0.4078 0.3353
C8 C 1.04045(16) 0.15047(15) 0.06865(10)
H5 H 1.1115 0.0702 0.0794
C9 C 1.15767(16) 0.21925(14) 0.38020(11)
H6 H 1.0810 0.1795 0.4385
C10 C 0.81919(14) 0.19181(14) 0.37374(9)
C11 C 0.72532(15) 0.08714(14) 0.44492(10)
H7 H 0.7434 -0.0096 0.4388
C12 C 0.57656(15) 0.27194(15) 0.53394(10)
H8 H 0.4960 0.2986 0.5879
C13 C 0.60468(15) 0.12759(15) 0.52514(10)
H9 H 0.5426 0.0576 0.5731
C14 C 1.14693(15) 0.22174(13) 0.28293(10)
C15 C 0.95297(15) 0.21572(14) 0.14992(10)
C16 C 1.16179(15) -0.12198(14) 0.30627(10)
H10 H 1.2401 -0.0701 0.3071
C17 C 0.82778(17) 0.39149(16) 0.03663(11)
H11 H 0.7573 0.4721 0.0254
C18 C 1.18315(16) -0.27309(15) 0.31948(10)
H12 H 1.2771 -0.3226 0.3279
C19 C 0.92514(15) -0.27731(14) 0.30486(10)
H13 H 0.8465 -0.3297 0.3052
C20 C 0.91361(17) 0.32637(16) -0.04379(11)
H14 H 0.8998 0.3630 -0.1087
C21 C 0.84699(16) 0.33634(15) 0.13384(10)
H15 H 0.7894 0.3797 0.1879
C22 C 1.06499(16) -0.35006(14) 0.32013(10)
H16 H 1.0791 -0.4513 0.3309
C23 C 1.26125(16) 0.28150(16) 0.19553(11)
H17 H 1.2547 0.2828 0.1306
C24 C 1.38540(18) 0.33926(18) 0.20642(13)
H18 H 1.4618 0.3801 0.1484
C25 C 1.01999(17) 0.20686(16) -0.02795(11)
H19 H 1.0779 0.1644 -0.0824
C26 C 1.28304(17) 0.27627(15) 0.38968(12)
H20 H 1.2910 0.2741 0.4544
C27 C 0.90388(15) -0.12688(14) 0.28922(10)
H21 H 0.8120 -0.0774 0.2770
C28 C 1.39614(17) 0.33639(16) 0.30271(12)
H22 H 1.4798 0.3751 0.3091
loop_
_geom_bond_atom_site_label_1
_geom_bond_atom_site_label_2
_geom_bond_site_symmetry_1
_geom_bond_site_symmetry_2
S1 C1 1_555 1_555
O1 C1 1_555 1_555
C1 C2 1_555 1_555
C2 C3 1_555 1_555
C3 H1 1_555 1_555
C4 C2 1_555 1_555
H2 C4 1_555 1_555
C5 H3 1_555 1_555
P1 C6 1_555 1_555
C6 C16 1_555 1_555
C7 C5 1_555 1_555
H4 C7 1_555 1_555
C8 H5 1_555 1_555
C9 H6 1_555 1_555
C10 P1 1_555 1_555
C11 C10 1_555 1_555
H7 C11 1_555 1_555
C12 C5 1_555 1_555
H8 C12 1_555 1_555
C13 C11 1_555 1_555
H9 C13 1_555 1_555
C14 P1 1_555 1_555
C15 P1 1_555 1_555
C16 H10 1_555 1_555
C17 H11 1_555 1_555
C18 C16 1_555 1_555
H12 C18 1_555 1_555
C19 H13 1_555 1_555
C20 C17 1_555 1_555
H14 C20 1_555 1_555
C21 C15 1_555 1_555
H15 C21 1_555 1_555
C22 C18 1_555 1_555
H16 C22 1_555 1_555
C23 C14 1_555 1_555
H17 C23 1_555 1_555
C24 C23 1_555 1_555
H18 C24 1_555 1_555
C25 C8 1_555 1_555
H19 C25 1_555 1_555
C26 C9 1_555 1_555
H20 C26 1_555 1_555
C27 C6 1_555 1_555
H21 C27 1_555 1_555
C28 C24 1_555 1_555
H22 C28 1_555 1_555
S1A C1A 1_555 1_555
O1A C1A 1_555 1_555
C1A C2A 1_555 1_555
C2A C3A 1_555 1_555
C3A C4 1_555 1_555
H1A C3A 1_555 1_555
C4A C3 1_555 1_555
H2A C4A 1_555 1_555
C7 C10 1_555 1_555
C8 C15 1_555 1_555
C9 C14 1_555 1_555
C12 C13 1_555 1_555
C17 C21 1_555 1_555
C19 C22 1_555 1_555
C19 C27 1_555 1_555
C20 C25 1_555 1_555
C26 C28 1_555 1_555
C2A C4A 1_555 1_555

#END
