
#######################################################################
#
#                 Cambridge Crystallographic Data Centre
#                                CCDC 
#
#######################################################################
#
# If this CIF has been generated from an entry in the Cambridge 
# Structural Database, then it will include bibliographic, chemical, 
# crystal, experimental, refinement or atomic coordinate data resulting 
# from the CCDC's data processing and validation procedures.
#
#######################################################################

data_VINCAY
_chemical_formula_moiety         '2(C24 H20 P1 1+),C8 H4 S4 2-'
_chemical_name_systematic        
'bis(Tetraphenylphosphonium) benzene-1,4-dicarbodithioate'
_symmetry_cell_setting           monoclinic
_symmetry_space_group_name_H-M   'P 21/n'
_symmetry_Int_Tables_number      14
_space_group_name_Hall           '-P 2yn'
loop_
_symmetry_equiv_pos_site_id
_symmetry_equiv_pos_as_xyz
1 x,y,z
2 1/2-x,1/2+y,1/2-z
3 -x,-y,-z
4 1/2+x,1/2-y,1/2+z
_cell_length_a                   10.0469(7)
_cell_length_b                   15.7502(11)
_cell_length_c                   14.6751(10)
_cell_angle_alpha                90
_cell_angle_beta                 90.4120(10)
_cell_angle_gamma                90
_cell_volume                     2322.14
_exptl_crystal_colour            brown
_exptl_crystal_description       Block
_cell_formula_units_Z            2
loop_
_atom_site_label
_atom_site_type_symbol
_atom_site_fract_x
_atom_site_fract_y
_atom_site_fract_z
C1 C 0.0103(3) 0.06394(15) 0.06768(15)
C2 C 0.1230(3) 0.02190(15) 0.03548(16)
H1 H 0.2080 0.0363 0.0596
C3 C 0.0216(3) 0.13299(15) 0.13782(17)
C4 C -0.1132(3) 0.04032(15) 0.03094(16)
H2 H -0.1917 0.0674 0.0519
S1 S 0.16795(7) 0.18424(4) 0.14900(5)
S2 S -0.10945(7) 0.15446(5) 0.19971(5)
C1B C -0.0103(3) -0.06394(15) -0.06768(15)
C2B C -0.1230(3) -0.02190(15) -0.03548(16)
H1B H -0.2080 -0.0363 -0.0596
C3B C -0.0216(3) -0.13299(15) -0.13782(17)
C4B C 0.1132(3) -0.04032(15) -0.03094(16)
H2B H 0.1917 -0.0674 -0.0519
S1B S -0.16795(7) -0.18424(4) -0.14900(5)
S2B S 0.10945(7) -0.15446(5) -0.19971(5)
P1 P 0.27006(6) 0.12650(4) 0.48144(4)
C5 C 0.3209(2) 0.10311(14) 0.59562(15)
C6 C 0.4036(2) 0.17527(14) 0.41987(15)
C7 C 0.2245(2) 0.02991(15) 0.42403(16)
C8 C 0.5228(2) 0.30134(15) 0.37767(16)
H3 H 0.5343 0.3611 0.3808
C9 C 0.1210(3) 0.25215(16) 0.56274(18)
H4 H 0.1794 0.2454 0.6135
C10 C 0.4198(2) 0.26276(15) 0.42443(16)
H5 H 0.3604 0.2961 0.4596
C11 C 0.6086(2) 0.25259(16) 0.32663(16)
H6 H 0.6785 0.2791 0.2940
C12 C 0.1875(3) -0.12089(16) 0.42257(18)
H7 H 0.1871 -0.1739 0.4534
C13 C 0.1346(2) 0.20062(15) 0.48595(16)
C14 C 0.2235(2) -0.04774(15) 0.46916(17)
H8 H 0.2474 -0.0506 0.5318
C15 C 0.2293(3) 0.06463(16) 0.65454(17)
H9 H 0.1410 0.0532 0.6345
C16 C 0.4856(3) 0.10311(17) 0.71530(18)
H10 H 0.5720 0.1174 0.7371
C17 C 0.2691(3) 0.04359(16) 0.74220(18)
H11 H 0.2086 0.0165 0.7822
C18 C 0.0503(2) 0.21101(17) 0.41162(18)
H12 H 0.0599 0.1764 0.3591
C19 C 0.4481(3) 0.12351(15) 0.62651(17)
H13 H 0.5090 0.1512 0.5872
C20 C 0.4915(2) 0.12609(15) 0.36962(17)
H14 H 0.4816 0.0661 0.3675
C21 C 0.1923(3) 0.03326(16) 0.33096(17)
H15 H 0.1964 0.0856 0.2990
C22 C 0.5935(3) 0.16507(16) 0.32272(18)
H16 H 0.6533 0.1319 0.2877
C23 C -0.0481(3) 0.27266(18) 0.4149(2)
H17 H -0.1064 0.2801 0.3642
C24 C 0.1523(3) -0.11700(16) 0.33150(19)
H18 H 0.1264 -0.1672 0.3001
C25 C 0.3971(3) 0.06210(17) 0.77151(18)
H19 H 0.4243 0.0463 0.8313
C26 C 0.0214(3) 0.31339(17) 0.5643(2)
H20 H 0.0113 0.3486 0.6164
C27 C 0.1547(3) -0.04015(17) 0.28607(18)
H21 H 0.1303 -0.0378 0.2235
C28 C -0.0623(3) 0.32312(17) 0.4907(2)
H22 H -0.1304 0.3649 0.4921
loop_
_geom_bond_atom_site_label_1
_geom_bond_atom_site_label_2
_geom_bond_site_symmetry_1
_geom_bond_site_symmetry_2
C1 C2 1_555 1_555
C2 H1 1_555 1_555
C3 C1 1_555 1_555
C4 C1 1_555 1_555
H2 C4 1_555 1_555
S1 C3 1_555 1_555
S2 C3 1_555 1_555
P1 C5 1_555 1_555
C5 C15 1_555 1_555
C6 P1 1_555 1_555
C7 P1 1_555 1_555
C8 H3 1_555 1_555
C9 H4 1_555 1_555
C10 C6 1_555 1_555
H5 C10 1_555 1_555
C11 C8 1_555 1_555
H6 C11 1_555 1_555
C12 H7 1_555 1_555
C13 P1 1_555 1_555
C14 C7 1_555 1_555
H8 C14 1_555 1_555
C15 H9 1_555 1_555
C16 H10 1_555 1_555
C17 C15 1_555 1_555
H11 C17 1_555 1_555
C18 C13 1_555 1_555
H12 C18 1_555 1_555
C19 C5 1_555 1_555
H13 C19 1_555 1_555
C20 C6 1_555 1_555
H14 C20 1_555 1_555
C21 C7 1_555 1_555
H15 C21 1_555 1_555
C22 C11 1_555 1_555
H16 C22 1_555 1_555
C23 C18 1_555 1_555
H17 C23 1_555 1_555
C24 C12 1_555 1_555
H18 C24 1_555 1_555
C25 C16 1_555 1_555
H19 C25 1_555 1_555
C26 C9 1_555 1_555
H20 C26 1_555 1_555
C27 C21 1_555 1_555
H21 C27 1_555 1_555
C28 C23 1_555 1_555
H22 C28 1_555 1_555
C1B C2B 1_555 1_555
C2B C4 1_555 1_555
H1B C2B 1_555 1_555
C3B C1B 1_555 1_555
C4B C2 1_555 1_555
H2B C4B 1_555 1_555
S1B C3B 1_555 1_555
S2B C3B 1_555 1_555
C8 C10 1_555 1_555
C9 C13 1_555 1_555
C12 C14 1_555 1_555
C16 C19 1_555 1_555
C17 C25 1_555 1_555
C20 C22 1_555 1_555
C24 C27 1_555 1_555
C26 C28 1_555 1_555
C1B C4B 1_555 1_555

#END
