
#######################################################################
#
#                 Cambridge Crystallographic Data Centre
#                                CCDC 
#
#######################################################################
#
# If this CIF has been generated from an entry in the Cambridge 
# Structural Database, then it will include bibliographic, chemical, 
# crystal, experimental, refinement or atomic coordinate data resulting 
# from the CCDC's data processing and validation procedures.
#
#######################################################################

data_VINKOU
_chemical_formula_moiety         '2(C15 H24 O4),H2 O1'
_chemical_name_systematic        
'2-(4,8-Dimethyl-7-oxospiro[4.5]dec-1-yl)-3-hydroxypropanoic acid monohydrate'
_symmetry_cell_setting           orthorhombic
_symmetry_space_group_name_H-M   'P 21 21 21'
_symmetry_Int_Tables_number      19
_space_group_name_Hall           'P 2ac 2ab'
loop_
_symmetry_equiv_pos_site_id
_symmetry_equiv_pos_as_xyz
1 x,y,z
2 1/2-x,-y,1/2+z
3 -x,1/2+y,1/2-z
4 1/2+x,1/2-y,-z
_cell_length_a                   6.6776(13)
_cell_length_b                   19.663(4)
_cell_length_c                   23.491(5)
_cell_angle_alpha                90
_cell_angle_beta                 90
_cell_angle_gamma                90
_cell_volume                     3084.41
_cell_formula_units_Z            4
loop_
_atom_site_label
_atom_site_type_symbol
_atom_site_fract_x
_atom_site_fract_y
_atom_site_fract_z
C1 C 0.6107(12) 1.1203(4) 0.0803(3)
C2 C 0.7774(12) 1.0780(4) 0.0560(3)
H1 H 0.8931 1.0830 0.0813
C3 C 0.8366(14) 1.1079(3) -0.0023(3)
H2 H 0.9638 1.0888 -0.0143
H3 H 0.7365 1.0956 -0.0305
C4 C 0.7368(12) 1.0001(3) 0.0489(3)
H4 H 0.6226 0.9953 0.0230
C5 C 0.9120(14) 0.9610(4) 0.0227(3)
H5 H 0.9034 0.9622 -0.0185
H6 H 1.0381 0.9814 0.0341
C6 C 0.9001(16) 0.8882(4) 0.0438(4)
H7 H 0.8878 0.8568 0.0121
H8 H 1.0183 0.8765 0.0657
C7 C 0.7142(14) 0.8863(4) 0.0809(3)
H9 H 0.7395 0.8564 0.1135
C8 C 0.5346(16) 0.8580(4) 0.0467(4)
H10 H 0.4192 0.8553 0.0710
H11 H 0.5666 0.8134 0.0327
H12 H 0.5064 0.8876 0.0152
C9 C 0.6881(12) 0.9599(4) 0.1026(3)
C10 C 0.8383(11) 0.9739(4) 0.1510(3)
H13 H 0.9727 0.9644 0.1375
H14 H 0.8321 1.0217 0.1611
C11 C 0.7994(13) 0.9324(4) 0.2026(3)
C12 C 0.5906(13) 0.9345(4) 0.2264(3)
H15 H 0.5718 0.9795 0.2434
C13 C 0.5596(14) 0.8833(4) 0.2725(3)
H16 H 0.4225 0.8844 0.2847
H17 H 0.6454 0.8938 0.3041
H18 H 0.5911 0.8388 0.2584
C14 C 0.4375(12) 0.9273(4) 0.1800(3)
H19 H 0.3066 0.9388 0.1951
H20 H 0.4333 0.8802 0.1677
C15 C 0.4802(12) 0.9722(4) 0.1289(3)
H21 H 0.4703 1.0194 0.1404
H22 H 0.3788 0.9640 0.1001
O1 O 0.6169(8) 1.1533(2) 0.1236(2)
O2 O 0.4443(9) 1.1181(2) 0.0475(2)
H23 H 0.3972 1.0796 0.0483
O3 O 0.8529(9) 1.1812(2) 0.0007(2)
H24 H 0.9413 1.1915 0.0234
O4 O 0.9293(9) 0.8959(3) 0.2232(2)
C16 C 0.1644(14) 0.1566(4) 0.1968(3)
C17 C -0.0072(11) 0.1862(4) 0.2308(3)
H25 H -0.1224 0.1557 0.2265
C18 C -0.0631(14) 0.2554(3) 0.2036(3)
H26 H -0.1909 0.2706 0.2185
H27 H 0.0372 0.2891 0.2135
C19 C 0.0311(13) 0.1953(4) 0.2951(3)
H28 H 0.1480 0.2251 0.2992
C20 C -0.1452(13) 0.2295(4) 0.3272(3)
H29 H -0.1320 0.2786 0.3257
H30 H -0.2715 0.2169 0.3097
C21 C -0.1401(16) 0.2056(5) 0.3882(3)
H31 H -0.2610 0.1807 0.3977
H32 H -0.1267 0.2438 0.4141
C22 C 0.0414(14) 0.1599(4) 0.3914(3)
H33 H 0.0098 0.1215 0.4163
C23 C 0.2217(16) 0.1974(4) 0.4159(3)
H34 H 0.2561 0.2348 0.3916
H35 H 0.3332 0.1667 0.4185
H36 H 0.1893 0.2142 0.4532
C24 C 0.0707(11) 0.1324(3) 0.3294(3)
C25 C -0.0902(11) 0.0764(3) 0.3174(3)
H37 H -0.2229 0.0952 0.3235
H38 H -0.0810 0.0621 0.2780
C26 C -0.0603(14) 0.0164(4) 0.3556(4)
C27 C 0.1437(13) -0.0166(4) 0.3517(3)
H39 H 0.1588 -0.0358 0.3134
C28 C 0.1696(15) -0.0713(4) 0.3931(3)
H40 H 0.0871 -0.1093 0.3825
H41 H 0.1313 -0.0554 0.4302
H42 H 0.3075 -0.0852 0.3937
C29 C 0.3025(12) 0.0393(4) 0.3595(4)
H43 H 0.2984 0.0553 0.3985
H44 H 0.4340 0.0200 0.3528
C30 C 0.2722(11) 0.0993(4) 0.3198(3)
H45 H 0.3773 0.1325 0.3262
H46 H 0.2814 0.0840 0.2806
O5 O 0.1565(9) 0.1047(3) 0.1711(2)
O6 O 0.3267(9) 0.1946(3) 0.1971(2)
H47 H 0.3709 0.1971 0.2296
O7 O -0.0755(9) 0.2494(2) 0.1423(2)
H48 H -0.1551 0.2192 0.1340
O8 O -0.1892(10) -0.0026(3) 0.3869(3)
O9 O 0.8059(8) 0.7180(2) 0.44016(18)
loop_
_geom_bond_atom_site_label_1
_geom_bond_atom_site_label_2
_geom_bond_site_symmetry_1
_geom_bond_site_symmetry_2
C1 C2 1_555 1_555
C2 H1 1_555 1_555
C3 C2 1_555 1_555
H2 C3 1_555 1_555
H3 C3 1_555 1_555
C4 C2 1_555 1_555
H4 C4 1_555 1_555
C5 C4 1_555 1_555
H5 C5 1_555 1_555
H6 C5 1_555 1_555
C6 C5 1_555 1_555
H7 C6 1_555 1_555
H8 C6 1_555 1_555
C7 C6 1_555 1_555
H9 C7 1_555 1_555
C8 C7 1_555 1_555
H10 C8 1_555 1_555
H11 C8 1_555 1_555
H12 C8 1_555 1_555
C9 C4 1_555 1_555
C10 C9 1_555 1_555
H13 C10 1_555 1_555
H14 C10 1_555 1_555
C11 C10 1_555 1_555
C12 C11 1_555 1_555
H15 C12 1_555 1_555
C13 C12 1_555 1_555
H16 C13 1_555 1_555
H17 C13 1_555 1_555
H18 C13 1_555 1_555
C14 C12 1_555 1_555
H19 C14 1_555 1_555
H20 C14 1_555 1_555
C15 C9 1_555 1_555
H21 C15 1_555 1_555
H22 C15 1_555 1_555
O1 C1 1_555 1_555
O2 C1 1_555 1_555
H23 O2 1_555 1_555
O3 C3 1_555 1_555
H24 O3 1_555 1_555
O4 C11 1_555 1_555
C16 C17 1_555 1_555
C17 H25 1_555 1_555
C18 C17 1_555 1_555
H26 C18 1_555 1_555
H27 C18 1_555 1_555
C19 C17 1_555 1_555
H28 C19 1_555 1_555
C20 C19 1_555 1_555
H29 C20 1_555 1_555
H30 C20 1_555 1_555
C21 C20 1_555 1_555
H31 C21 1_555 1_555
H32 C21 1_555 1_555
C22 C21 1_555 1_555
H33 C22 1_555 1_555
C23 C22 1_555 1_555
H34 C23 1_555 1_555
H35 C23 1_555 1_555
H36 C23 1_555 1_555
C24 C19 1_555 1_555
C25 C24 1_555 1_555
H37 C25 1_555 1_555
H38 C25 1_555 1_555
C26 C25 1_555 1_555
C27 C26 1_555 1_555
H39 C27 1_555 1_555
C28 C27 1_555 1_555
H40 C28 1_555 1_555
H41 C28 1_555 1_555
H42 C28 1_555 1_555
C29 C27 1_555 1_555
H43 C29 1_555 1_555
H44 C29 1_555 1_555
C30 C24 1_555 1_555
H45 C30 1_555 1_555
H46 C30 1_555 1_555
O5 C16 1_555 1_555
O6 C16 1_555 1_555
H47 O6 1_555 1_555
O7 C18 1_555 1_555
H48 O7 1_555 1_555
O8 C26 1_555 1_555
C7 C9 1_555 1_555
C14 C15 1_555 1_555
C22 C24 1_555 1_555
C29 C30 1_555 1_555

#END
