
#######################################################################
#
#                 Cambridge Crystallographic Data Centre
#                                CCDC 
#
#######################################################################
#
# If this CIF has been generated from an entry in the Cambridge 
# Structural Database, then it will include bibliographic, chemical, 
# crystal, experimental, refinement or atomic coordinate data resulting 
# from the CCDC's data processing and validation procedures.
#
#######################################################################

data_VINLUZ
_chemical_formula_moiety         'C20 H12 O3'
_chemical_name_systematic        9-Benzoyloxyphenalenone
_symmetry_cell_setting           monoclinic
_symmetry_space_group_name_H-M   'P 1 1 21/n'
_symmetry_Int_Tables_number      14
_space_group_name_Hall           '-P 2n'
loop_
_symmetry_equiv_pos_site_id
_symmetry_equiv_pos_as_xyz
1 x,y,z
2 1/2-x,1/2-y,1/2+z
3 -x,-y,-z
4 1/2+x,1/2+y,1/2-z
_cell_length_a                   7.095(10)
_cell_length_b                   9.968(4)
_cell_length_c                   21.104(6)
_cell_angle_alpha                90
_cell_angle_beta                 90
_cell_angle_gamma                100.8(1)
_cell_volume                     1466.1
_chemical_melting_point          145deg.C
_cell_formula_units_Z            4
loop_
_atom_site_label
_atom_site_type_symbol
_atom_site_fract_x
_atom_site_fract_y
_atom_site_fract_z
O1 O 0.1994(6) 0.3891(4) 0.4272(2)
O2 O 0.1667(7) 0.2005(4) 0.3334(2)
O3 O 0.4867(6) 0.4236(4) 0.3769(2)
C1 C 0.2420(10) 0.2835(7) 0.4647(3)
C2 C 0.2823(11) 0.3178(7) 0.5285(3)
C3 C 0.3051(11) 0.2180(8) 0.5703(3)
C4 C 0.2877(10) 0.0804(7) 0.5510(3)
C5 C 0.3070(10) -0.0256(9) 0.5944(3)
C6 C 0.2899(11) -0.1556(9) 0.5743(3)
C7 C 0.2498(11) -0.1884(7) 0.5100(3)
C8 C 0.2288(9) -0.0883(7) 0.4663(3)
C9 C 0.1900(11) -0.1215(7) 0.4001(3)
C10 C 0.1697(11) -0.0257(7) 0.3576(3)
C11 C 0.1851(9) 0.1151(7) 0.3743(3)
C12 C 0.2280(9) 0.1532(6) 0.4424(2)
C13 C 0.2481(8) 0.0487(6) 0.4861(3)
C14 C 0.3275(10) 0.4392(7) 0.3783(3)
C15 C 0.2305(9) 0.5243(6) 0.3350(3)
C16 C 0.0363(10) 0.5185(7) 0.3352(3)
C17 C -0.0444(11) 0.5993(8) 0.2932(3)
C18 C 0.0738(13) 0.6808(8) 0.2504(3)
C19 C 0.2661(12) 0.6853(7) 0.2497(3)
C20 C 0.3498(8) 0.6041(7) 0.2915(3)
loop_
_geom_bond_atom_site_label_1
_geom_bond_atom_site_label_2
_geom_bond_site_symmetry_1
_geom_bond_site_symmetry_2
O1 C1 1_555 1_555
O2 C11 1_555 1_555
O3 C14 1_555 1_555
C1 C2 1_555 1_555
C2 C3 1_555 1_555
C3 C4 1_555 1_555
C4 C5 1_555 1_555
C5 C6 1_555 1_555
C6 C7 1_555 1_555
C7 C8 1_555 1_555
C8 C9 1_555 1_555
C9 C10 1_555 1_555
C10 C11 1_555 1_555
C11 C12 1_555 1_555
C12 C1 1_555 1_555
C13 C4 1_555 1_555
C14 O1 1_555 1_555
C15 C14 1_555 1_555
C16 C15 1_555 1_555
C17 C16 1_555 1_555
C18 C17 1_555 1_555
C19 C18 1_555 1_555
C20 C15 1_555 1_555
C8 C13 1_555 1_555
C12 C13 1_555 1_555
C19 C20 1_555 1_555

#END
