
#######################################################################
#
#                 Cambridge Crystallographic Data Centre
#                                CCDC 
#
#######################################################################
#
# If this CIF has been generated from an entry in the Cambridge 
# Structural Database, then it will include bibliographic, chemical, 
# crystal, experimental, refinement or atomic coordinate data resulting 
# from the CCDC's data processing and validation procedures.
#
#######################################################################

data_VINLIP
_chemical_formula_moiety         'C41 H31 N3'
_chemical_name_systematic        
1-Benzyl-4,4,9,9-tetraphenyl-4,9-dihydro-1H-naphtho[2,3-d][1,2,3]triazole
_symmetry_cell_setting           triclinic
_symmetry_space_group_name_H-M   'P -1'
_symmetry_Int_Tables_number      2
_space_group_name_Hall           '-P 1'
loop_
_symmetry_equiv_pos_site_id
_symmetry_equiv_pos_as_xyz
1 x,y,z
2 -x,-y,-z
_cell_length_a                   10.2979(3)
_cell_length_b                   12.0395(3)
_cell_length_c                   14.1704(3)
_cell_angle_alpha                68.3447(7)
_cell_angle_beta                 81.3593(7)
_cell_angle_gamma                67.5264(7)
_cell_volume                     1508.78
_exptl_crystal_colour            colorless
_exptl_crystal_description       block
_cell_formula_units_Z            2
loop_
_atom_site_label
_atom_site_type_symbol
_atom_site_fract_x
_atom_site_fract_y
_atom_site_fract_z
N1 N 0.32374(9) 0.67008(9) 0.46453(7)
N2 N 0.44637(10) 0.66310(9) 0.49460(7)
N3 N 0.49750(10) 0.73747(9) 0.41771(7)
C1 C 0.29573(11) 0.75108(10) 0.36731(8)
C2 C 0.17947(11) 0.78034(10) 0.29928(8)
C3 C 0.17252(11) 0.90670(10) 0.21104(8)
C4 C 0.04643(11) 0.98044(11) 0.15792(8)
C5 C 0.03456(12) 1.08915(11) 0.07377(9)
C6 C 0.14929(12) 1.12810(11) 0.04170(9)
C7 C 0.27362(12) 1.05828(11) 0.09516(9)
C8 C 0.28780(11) 0.94743(10) 0.17981(8)
C9 C 0.43237(11) 0.87142(10) 0.23178(8)
C10 C 0.40744(11) 0.79152(10) 0.33859(8)
C11 C 0.25076(12) 0.58767(10) 0.53375(8)
C12 C 0.14565(12) 0.64745(10) 0.60365(8)
C13 C 0.17571(13) 0.71827(12) 0.65024(9)
C14 C 0.08037(16) 0.76704(14) 0.71816(11)
C15 C -0.04555(15) 0.74603(15) 0.73975(11)
C16 C -0.07634(14) 0.67613(15) 0.69370(10)
C17 C 0.01937(12) 0.62614(12) 0.62588(9)
C18 C 0.03730(11) 0.80190(11) 0.35655(8)
C19 C -0.00853(12) 0.89849(11) 0.39923(9)
C20 C -0.13929(13) 0.92871(12) 0.44631(9)
C21 C -0.22606(13) 0.86215(14) 0.45219(10)
C22 C -0.18074(13) 0.76471(14) 0.41232(10)
C23 C -0.04971(12) 0.73445(12) 0.36442(9)
C24 C 0.22030(12) 0.67343(10) 0.25245(8)
C25 C 0.33892(12) 0.56301(11) 0.28449(9)
C26 C 0.37998(14) 0.47203(12) 0.23720(11)
C27 C 0.30356(16) 0.48861(13) 0.15776(11)
C28 C 0.18360(16) 0.59689(13) 0.12628(10)
C29 C 0.14269(14) 0.68816(12) 0.17280(9)
C30 C 0.52671(11) 0.77808(10) 0.17669(8)
C31 C 0.48056(13) 0.76849(12) 0.09361(9)
C32 C 0.56531(14) 0.67912(13) 0.04903(10)
C33 C 0.69807(14) 0.59864(13) 0.08607(10)
C34 C 0.74656(13) 0.60784(12) 0.16835(9)
C35 C 0.66162(12) 0.69610(11) 0.21334(9)
C36 C 0.49911(11) 0.96529(10) 0.23351(8)
C37 C 0.60578(12) 0.99044(11) 0.16641(9)
C38 C 0.65724(12) 1.08231(12) 0.16590(10)
C39 C 0.60317(13) 1.14949(12) 0.23244(10)
C40 C 0.49601(14) 1.12552(12) 0.29939(10)
C41 C 0.44406(12) 1.03468(11) 0.29973(9)
H1 H -0.0331 0.9553 0.1802
H2 H -0.0516 1.1368 0.0382
H3 H 0.1426 1.2020 -0.0164
H4 H 0.3513 1.0863 0.0739
H5 H 0.3214 0.5076 0.5755
H6 H 0.2013 0.5647 0.4931
H7 H 0.2619 0.7333 0.6355
H8 H 0.1017 0.8150 0.7499
H9 H -0.1107 0.7796 0.7862
H10 H -0.1630 0.6620 0.7082
H11 H -0.0019 0.5774 0.5948
H12 H 0.0506 0.9440 0.3960
H13 H -0.1694 0.9950 0.4745
H14 H -0.3162 0.8835 0.4835
H15 H -0.2393 0.7179 0.4175
H16 H -0.0197 0.6674 0.3370
H17 H 0.3923 0.5498 0.3393
H18 H 0.4614 0.3977 0.2597
H19 H 0.3327 0.4267 0.1250
H20 H 0.1293 0.6084 0.0725
H21 H 0.0607 0.7619 0.1503
H22 H 0.3899 0.8237 0.0669
H23 H 0.5317 0.6734 -0.0072
H24 H 0.7557 0.5376 0.0556
H25 H 0.8381 0.5535 0.1938
H26 H 0.6954 0.7011 0.2699
H27 H 0.6440 0.9447 0.1205
H28 H 0.7300 1.0989 0.1195
H29 H 0.6390 1.2114 0.2323
H30 H 0.4581 1.1715 0.3451
H31 H 0.3702 1.0194 0.3455
loop_
_geom_bond_atom_site_label_1
_geom_bond_atom_site_label_2
_geom_bond_site_symmetry_1
_geom_bond_site_symmetry_2
N1 N2 1_555 1_555
N2 N3 1_555 1_555
N3 C10 1_555 1_555
C1 N1 1_555 1_555
C2 C1 1_555 1_555
C3 C2 1_555 1_555
C4 C3 1_555 1_555
C5 C4 1_555 1_555
C6 C5 1_555 1_555
C7 C6 1_555 1_555
C8 C3 1_555 1_555
C9 C8 1_555 1_555
C10 C1 1_555 1_555
C11 N1 1_555 1_555
C12 C11 1_555 1_555
C13 C12 1_555 1_555
C14 C13 1_555 1_555
C15 C14 1_555 1_555
C16 C15 1_555 1_555
C17 C12 1_555 1_555
C18 C2 1_555 1_555
C19 C18 1_555 1_555
C20 C19 1_555 1_555
C21 C20 1_555 1_555
C22 C21 1_555 1_555
C23 C18 1_555 1_555
C24 C2 1_555 1_555
C25 C24 1_555 1_555
C26 C25 1_555 1_555
C27 C26 1_555 1_555
C28 C27 1_555 1_555
C29 C24 1_555 1_555
C30 C9 1_555 1_555
C31 C30 1_555 1_555
C32 C31 1_555 1_555
C33 C32 1_555 1_555
C34 C33 1_555 1_555
C35 C30 1_555 1_555
C36 C9 1_555 1_555
C37 C36 1_555 1_555
C38 C37 1_555 1_555
C39 C38 1_555 1_555
C40 C39 1_555 1_555
C41 C36 1_555 1_555
H1 C4 1_555 1_555
H2 C5 1_555 1_555
H3 C6 1_555 1_555
H4 C7 1_555 1_555
H5 C11 1_555 1_555
H6 C11 1_555 1_555
H7 C13 1_555 1_555
H8 C14 1_555 1_555
H9 C15 1_555 1_555
H10 C16 1_555 1_555
H11 C17 1_555 1_555
H12 C19 1_555 1_555
H13 C20 1_555 1_555
H14 C21 1_555 1_555
H15 C22 1_555 1_555
H16 C23 1_555 1_555
H17 C25 1_555 1_555
H18 C26 1_555 1_555
H19 C27 1_555 1_555
H20 C28 1_555 1_555
H21 C29 1_555 1_555
H22 C31 1_555 1_555
H23 C32 1_555 1_555
H24 C33 1_555 1_555
H25 C34 1_555 1_555
H26 C35 1_555 1_555
H27 C37 1_555 1_555
H28 C38 1_555 1_555
H29 C39 1_555 1_555
H30 C40 1_555 1_555
H31 C41 1_555 1_555
C7 C8 1_555 1_555
C9 C10 1_555 1_555
C16 C17 1_555 1_555
C22 C23 1_555 1_555
C28 C29 1_555 1_555
C34 C35 1_555 1_555
C40 C41 1_555 1_555

#END
