
#######################################################################
#
#                 Cambridge Crystallographic Data Centre
#                                CCDC 
#
#######################################################################
#
# If this CIF has been generated from an entry in the Cambridge 
# Structural Database, then it will include bibliographic, chemical, 
# crystal, experimental, refinement or atomic coordinate data resulting 
# from the CCDC's data processing and validation procedures.
#
#######################################################################

data_VINMAJ
_chemical_formula_moiety         'C6 H6 N12 O12,C3 H7 N4 1+,N1 O3 1-'
_chemical_name_systematic        
'3-amino-1-methyl-1H-1,2,3-triazol-3-ium nitrate 1,3,4,7,8,10-hexanitro-octahydro-1H-5,2,6-(epiminomethanetriylimino)imidazo[4,5-b]pyrazine unknown solvate'
_symmetry_cell_setting           monoclinic
_symmetry_space_group_name_H-M   'P 21/n'
_symmetry_Int_Tables_number      14
_space_group_name_Hall           '-P 2yn'
loop_
_symmetry_equiv_pos_site_id
_symmetry_equiv_pos_as_xyz
1 x,y,z
2 1/2-x,1/2+y,1/2-z
3 -x,-y,-z
4 1/2+x,1/2-y,1/2+z
_cell_length_a                   7.70210(10)
_cell_length_b                   25.8034(4)
_cell_length_c                   11.7215(2)
_cell_angle_alpha                90
_cell_angle_beta                 91.9310(10)
_cell_angle_gamma                90
_cell_volume                     2328.21
_exptl_crystal_colour            colorless
_exptl_crystal_description       block
_cell_formula_units_Z            4
_exptl_crystal_preparation       explosive
loop_
_atom_site_label
_atom_site_type_symbol
_atom_site_fract_x
_atom_site_fract_y
_atom_site_fract_z
O1 O 0.19132(18) 0.44093(5) 0.24194(11)
O2 O 0.39091(17) 0.45723(5) 0.37266(11)
O3 O 0.49007(19) 0.41130(5) 0.61402(11)
O4 O 0.30151(17) 0.37136(5) 0.71618(10)
O5 O -0.07230(17) 0.32950(6) 0.66918(10)
O6 O -0.23102(16) 0.32234(6) 0.51386(12)
O7 O 0.12821(17) 0.17776(5) 0.33491(13)
O8 O -0.01175(16) 0.23620(5) 0.23379(10)
O9 O 0.46380(17) 0.17536(4) 0.44385(12)
O10 O 0.64545(16) 0.22312(5) 0.35203(11)
O11 O 0.47742(17) 0.28317(5) 0.13406(11)
O12 O 0.25234(19) 0.33004(6) 0.08708(10)
N1 N 0.25761(17) 0.38074(5) 0.37293(11)
N2 N 0.28446(19) 0.42938(5) 0.32404(12)
N3 N 0.36441(16) 0.33923(5) 0.54540(11)
N4 N 0.38470(18) 0.37701(5) 0.63101(11)
N5 N 0.05912(16) 0.32920(5) 0.50216(11)
N6 N -0.09326(18) 0.32570(6) 0.56664(12)
N7 N 0.09904(17) 0.25680(5) 0.40383(11)
N8 N 0.07161(17) 0.22099(6) 0.31812(12)
N9 N 0.41676(16) 0.26057(5) 0.43008(11)
N10 N 0.51509(17) 0.21596(5) 0.40548(12)
N11 N 0.29882(17) 0.30671(5) 0.26887(11)
N12 N 0.34755(19) 0.30793(6) 0.15474(12)
C1 C 0.04176(19) 0.30997(6) 0.38575(13)
H1 H -0.081921 0.311246 0.357067
C2 C 0.16386(19) 0.34182(6) 0.30527(13)
H2 H 0.097665 0.357482 0.238998
C3 C 0.4378(2) 0.30510(6) 0.35823(13)
H3 H 0.555180 0.305490 0.324317
C4 C 0.4069(2) 0.35531(6) 0.43100(13)
H4 H 0.511553 0.378270 0.432434
C5 C 0.25091(19) 0.25468(6) 0.48306(13)
H5 H 0.248770 0.222862 0.531694
C6 C 0.21716(19) 0.30505(6) 0.55558(13)
H6 H 0.198531 0.296139 0.637290
O13 O 0.55374(19) 0.39410(6) 0.20215(15)
O14 O 0.7757(3) 0.41811(7) 0.11490(19)
O15 O 0.7802(2) 0.34440(7) 0.19931(15)
N13 N 0.70456(19) 0.38571(6) 0.17214(12)
N14 N 0.03309(18) 0.44490(5) 0.87585(12)
N15 N 0.14247(18) 0.46703(5) 0.80659(12)
N16 N 0.29029(18) 0.46705(5) 0.86657(12)
N17 N 0.44275(18) 0.48725(6) 0.82283(13)
H7 H 0.463675 0.472739 0.756375
H8 H 0.431848 0.521123 0.813278
C7 C 0.2775(3) 0.44577(7) 0.97042(15)
H9 H 0.367321 0.441616 1.027228
C8 C 0.1085(3) 0.43147(7) 0.97679(15)
H10 H 0.054755 0.415369 1.039359
C9 C -0.1473(2) 0.43576(7) 0.83662(18)
H11 H -0.187633 0.464913 0.789159
H12 H -0.220998 0.432529 0.902780
H13 H -0.153631 0.403733 0.791733
loop_
_geom_bond_atom_site_label_1
_geom_bond_atom_site_label_2
_geom_bond_site_symmetry_1
_geom_bond_site_symmetry_2
O1 N2 1_555 1_555
O2 N2 1_555 1_555
O3 N4 1_555 1_555
O4 N4 1_555 1_555
O5 N6 1_555 1_555
O6 N6 1_555 1_555
O7 N8 1_555 1_555
O8 N8 1_555 1_555
O9 N10 1_555 1_555
O10 N10 1_555 1_555
O11 N12 1_555 1_555
O12 N12 1_555 1_555
N1 N2 1_555 1_555
N3 N4 1_555 1_555
N5 N6 1_555 1_555
N7 N8 1_555 1_555
N9 N10 1_555 1_555
N11 N12 1_555 1_555
C1 N5 1_555 1_555
H1 C1 1_555 1_555
C2 N1 1_555 1_555
H2 C2 1_555 1_555
C3 N9 1_555 1_555
H3 C3 1_555 1_555
C4 N1 1_555 1_555
H4 C4 1_555 1_555
C5 N7 1_555 1_555
H5 C5 1_555 1_555
C6 N3 1_555 1_555
H6 C6 1_555 1_555
O13 N13 1_555 1_555
O14 N13 1_555 1_555
O15 N13 1_555 1_555
N14 N15 1_555 1_555
N15 N16 1_555 1_555
N16 N17 1_555 1_555
N17 H7 1_555 1_555
H8 N17 1_555 1_555
C7 N16 1_555 1_555
H9 C7 1_555 1_555
C8 N14 1_555 1_555
H10 C8 1_555 1_555
C9 N14 1_555 1_555
H11 C9 1_555 1_555
H12 C9 1_555 1_555
H13 C9 1_555 1_555
N3 C4 1_555 1_555
N5 C6 1_555 1_555
N7 C1 1_555 1_555
N9 C5 1_555 1_555
N11 C2 1_555 1_555
N11 C3 1_555 1_555
C1 C2 1_555 1_555
C3 C4 1_555 1_555
C5 C6 1_555 1_555
C7 C8 1_555 1_555

#END
