
#######################################################################
#
#                 Cambridge Crystallographic Data Centre
#                                CCDC 
#
#######################################################################
#
# If this CIF has been generated from an entry in the Cambridge 
# Structural Database, then it will include bibliographic, chemical, 
# crystal, experimental, refinement or atomic coordinate data resulting 
# from the CCDC's data processing and validation procedures.
#
#######################################################################

data_VINMOV
_chemical_formula_moiety         'C25 H22 Br1 Cl1 N2 O5 S1'
_chemical_name_systematic        
N-((2S,3R)-3-(2-Bromophenyl)-3-chloro-1-oxo-1-(2-oxo-4-phenyl-1,3-oxazolidin-3-yl)propan-2-yl)-4-methylbenzenesulfonamide
_symmetry_cell_setting           orthorhombic
_symmetry_space_group_name_H-M   'P 21 21 21'
_symmetry_Int_Tables_number      19
_space_group_name_Hall           'P 2ac 2ab'
loop_
_symmetry_equiv_pos_site_id
_symmetry_equiv_pos_as_xyz
1 x,y,z
2 1/2-x,-y,1/2+z
3 -x,1/2+y,1/2-z
4 1/2+x,1/2-y,-z
_cell_length_a                   9.5426(5)
_cell_length_b                   10.1688(5)
_cell_length_c                   25.5115(13)
_cell_angle_alpha                90
_cell_angle_beta                 90
_cell_angle_gamma                90
_cell_volume                     2475.55
_exptl_crystal_colour            colorless
_cell_formula_units_Z            4
loop_
_atom_site_label
_atom_site_type_symbol
_atom_site_fract_x
_atom_site_fract_y
_atom_site_fract_z
Br1 Br 0.68154(2) 0.14790(2) 0.846121(9)
Cl1 Cl 0.29358(6) -0.04223(5) 0.84063(2)
S1 S 0.18671(5) 0.34547(5) 0.975376(18)
N1 N 0.30104(17) 0.25061(16) 0.94610(6)
H1 H 0.364(2) 0.238(2) 0.9650(8)
N2 N 0.09321(16) -0.04423(17) 0.94750(6)
O1 O 0.07474(16) 0.26712(17) 0.99725(7)
O2 O 0.26628(18) 0.42972(15) 1.00892(6)
O3 O 0.31205(15) -0.01890(15) 0.97902(6)
O4 O -0.02428(15) 0.06115(16) 0.87898(7)
O5 O -0.09788(15) -0.12980(16) 0.91077(6)
C1 C 0.5223(2) 0.2319(2) 0.81638(7)
C2 C 0.5477(2) 0.3235(2) 0.77705(8)
H2 H 0.6396 0.3384 0.7653
C3 C 0.4387(3) 0.3919(3) 0.75558(8)
H3 H 0.4560 0.4544 0.7292
C4 C 0.3034(3) 0.3697(2) 0.77239(8)
H4 H 0.2289 0.4177 0.7577
C5 C 0.2772(2) 0.2773(2) 0.81063(8)
H5 H 0.1844 0.2613 0.8213
C6 C 0.3872(2) 0.20695(19) 0.83381(8)
C7 C 0.35653(19) 0.1041(2) 0.87443(8)
H6 H 0.4449 0.0819 0.8927
C8 C 0.24607(17) 0.14115(19) 0.91561(7)
H7 H 0.1578 0.1674 0.8981
C9 C 0.1163(2) 0.4361(2) 0.92302(8)
C10 C 0.1953(3) 0.5367(2) 0.90194(9)
H8 H 0.2833 0.5580 0.9161
C11 C 0.1426(3) 0.6058(3) 0.85948(11)
H9 H 0.1958 0.6742 0.8447
C12 C 0.0125(3) 0.5756(3) 0.83842(12)
C13 C -0.0639(3) 0.4739(3) 0.86041(12)
H10 H -0.1516 0.4521 0.8461
C14 C -0.0149(2) 0.4043(3) 0.90255(10)
H11 H -0.0686 0.3364 0.9174
C15 C -0.0421(5) 0.6525(4) 0.79155(16)
H12 H -0.0482 0.7450 0.8006
H13 H -0.1343 0.6202 0.7820
H14 H 0.0213 0.6414 0.7622
C16 C 0.22081(19) 0.0206(2) 0.95019(7)
C17 C -0.0115(2) -0.0270(2) 0.90919(8)
C18 C -0.0707(2) -0.2104(2) 0.95565(9)
H15 H -0.0706 -0.3036 0.9459
H16 H -0.1423 -0.1963 0.9826
C19 C 0.0744(2) -0.16874(19) 0.97598(8)
H17 H 0.1458 -0.2331 0.9644
C20 C 0.07679(18) -0.1577(2) 1.03475(7)
C21 C 0.0890(2) -0.2722(2) 1.06389(10)
H18 H 0.0989 -0.3536 1.0468
C22 C 0.0866(3) -0.2673(3) 1.11807(10)
H19 H 0.0945 -0.3453 1.1376
C23 C 0.0729(2) -0.1494(3) 1.14333(9)
H20 H 0.0718 -0.1460 1.1802
C24 C 0.0609(3) -0.0359(3) 1.11438(9)
H21 H 0.0506 0.0452 1.1317
C25 C 0.0637(2) -0.0393(2) 1.06041(9)
H22 H 0.0566 0.0391 1.0411
loop_
_geom_bond_atom_site_label_1
_geom_bond_atom_site_label_2
_geom_bond_site_symmetry_1
_geom_bond_site_symmetry_2
Br1 C1 1_555 1_555
Cl1 C7 1_555 1_555
S1 N1 1_555 1_555
N1 H1 1_555 1_555
N2 C16 1_555 1_555
O1 S1 1_555 1_555
O2 S1 1_555 1_555
O3 C16 1_555 1_555
O4 C17 1_555 1_555
O5 C17 1_555 1_555
C1 C2 1_555 1_555
C2 H2 1_555 1_555
C3 C2 1_555 1_555
H3 C3 1_555 1_555
C4 C3 1_555 1_555
H4 C4 1_555 1_555
C5 C4 1_555 1_555
H5 C5 1_555 1_555
C6 C1 1_555 1_555
C7 C6 1_555 1_555
H6 C7 1_555 1_555
C8 N1 1_555 1_555
H7 C8 1_555 1_555
C9 S1 1_555 1_555
C10 C9 1_555 1_555
H8 C10 1_555 1_555
C11 C10 1_555 1_555
H9 C11 1_555 1_555
C12 C11 1_555 1_555
C13 C12 1_555 1_555
H10 C13 1_555 1_555
C14 C9 1_555 1_555
H11 C14 1_555 1_555
C15 C12 1_555 1_555
H12 C15 1_555 1_555
H13 C15 1_555 1_555
H14 C15 1_555 1_555
C16 C8 1_555 1_555
C17 N2 1_555 1_555
C18 O5 1_555 1_555
H15 C18 1_555 1_555
H16 C18 1_555 1_555
C19 N2 1_555 1_555
H17 C19 1_555 1_555
C20 C19 1_555 1_555
C21 C20 1_555 1_555
H18 C21 1_555 1_555
C22 C21 1_555 1_555
H19 C22 1_555 1_555
C23 C22 1_555 1_555
H20 C23 1_555 1_555
C24 C23 1_555 1_555
H21 C24 1_555 1_555
C25 C20 1_555 1_555
H22 C25 1_555 1_555
C5 C6 1_555 1_555
C7 C8 1_555 1_555
C13 C14 1_555 1_555
C18 C19 1_555 1_555
C24 C25 1_555 1_555

#END
