
#######################################################################
#
#                 Cambridge Crystallographic Data Centre
#                                CCDC 
#
#######################################################################
#
# If this CIF has been generated from an entry in the Cambridge 
# Structural Database, then it will include bibliographic, chemical, 
# crystal, experimental, refinement or atomic coordinate data resulting 
# from the CCDC's data processing and validation procedures.
#
#######################################################################

data_VINNIR
_chemical_formula_moiety         'C6 H7 B1 N2'
_chemical_name_systematic        2,3-Dihydro-1H-1,3,2-benzodiazaborole
_symmetry_cell_setting           orthorhombic
_symmetry_space_group_name_H-M   'P b c n'
_symmetry_Int_Tables_number      60
_space_group_name_Hall           '-P 2n 2ab'
loop_
_symmetry_equiv_pos_site_id
_symmetry_equiv_pos_as_xyz
1 x,y,z
2 1/2-x,1/2-y,1/2+z
3 -x,y,1/2-z
4 1/2+x,1/2-y,-z
5 -x,-y,-z
6 1/2+x,1/2+y,1/2-z
7 x,-y,1/2+z
8 1/2-x,1/2+y,z
_cell_length_a                   14.90(2)
_cell_length_b                   11.363(17)
_cell_length_c                   7.394(11)
_cell_angle_alpha                90
_cell_angle_beta                 90
_cell_angle_gamma                90
_cell_volume                     1251.87
_exptl_crystal_colour            colorless
_exptl_crystal_description       needle
_cell_formula_units_Z            8
loop_
_atom_site_label
_atom_site_type_symbol
_atom_site_fract_x
_atom_site_fract_y
_atom_site_fract_z
N1 N 0.3211(7) 0.2313(11) 0.3478(16)
H1 H 0.3418 0.2888 0.2845
N2 N 0.3037(11) 0.0640(15) 0.522(2)
H2 H 0.3159 0.0010 0.5816
B1 B 0.3695(11) 0.1338(14) 0.427(3)
H3 H 0.4307 0.1190 0.4183
C1 C 0.2342(5) 0.2094(9) 0.3985(12)
C2 C 0.1641(7) 0.2866(9) 0.3623(13)
H4 H 0.1740 0.3527 0.2908
C3 C 0.0793(6) 0.2650(10) 0.4330(14)
H5 H 0.0324 0.3166 0.4088
C4 C 0.0645(5) 0.1662(11) 0.5398(14)
H6 H 0.0078 0.1518 0.5871
C5 C 0.1346(8) 0.0891(8) 0.5760(11)
H7 H 0.1248 0.0230 0.6475
C6 C 0.2195(6) 0.1106(7) 0.5053(11)
N3? N 0.3351(7) 0.1441(13) 0.3464(14)
H8? H 0.3569 0.1984 0.2785
N4? N 0.3169(10) -0.0230(15) 0.5180(16)
H9? H 0.3272 -0.0884 0.5726
B2? B 0.3816(10) 0.0466(16) 0.4228(19)
H10? H 0.4426 0.0311 0.4127
C7? C 0.2497(5) 0.1331(10) 0.4031(15)
C8? C 0.1773(7) 0.2061(9) 0.3643(14)
H11? H 0.1858 0.2735 0.2949
C9? C 0.0924(6) 0.1784(10) 0.4291(14)
H12? H 0.0440 0.2272 0.4031
C10? C 0.0797(6) 0.0777(11) 0.5328(14)
H13? H 0.0229 0.0592 0.5762
C11? C 0.1521(8) 0.0048(8) 0.5717(12)
H14? H 0.1436 -0.0626 0.6411
C12? C 0.2370(7) 0.0325(9) 0.5069(12)
loop_
_geom_bond_atom_site_label_1
_geom_bond_atom_site_label_2
_geom_bond_site_symmetry_1
_geom_bond_site_symmetry_2
N1 H1 1_555 1_555
N2 H2 1_555 1_555
B1 N1 1_555 1_555
H3 B1 1_555 1_555
C1 N1 1_555 1_555
C2 C1 1_555 1_555
H4 C2 1_555 1_555
C3 C2 1_555 1_555
H5 C3 1_555 1_555
C4 C3 1_555 1_555
H6 C4 1_555 1_555
C5 C4 1_555 1_555
H7 C5 1_555 1_555
C6 N2 1_555 1_555
N2 B1 1_555 1_555
C1 C6 1_555 1_555
C5 C6 1_555 1_555

#END
