
#######################################################################
#
#                 Cambridge Crystallographic Data Centre
#                                CCDC 
#
#######################################################################
#
# If this CIF has been generated from an entry in the Cambridge 
# Structural Database, then it will include bibliographic, chemical, 
# crystal, experimental, refinement or atomic coordinate data resulting 
# from the CCDC's data processing and validation procedures.
#
#######################################################################

data_VINPOY
_chemical_formula_moiety         
'C37 H45 N1 O14,C16 H14 N2 2+,2(F6 P1 1-),C2 H3 N1,H2 O1'
_chemical_name_systematic        
"(5,5'-(Pyridin-2,6-diylbis(carbonyloxymethyl))-bis(1,3-phenylene))-32-crown-10 N,N'-dimethyl-2,7-diazapyrenium clathrate bis(hexafluorophosphate) acetonitrile solvate monohydrate"
_symmetry_cell_setting           triclinic
_symmetry_space_group_name_H-M   'P -1'
_symmetry_Int_Tables_number      2
_space_group_name_Hall           '-P 1'
loop_
_symmetry_equiv_pos_site_id
_symmetry_equiv_pos_as_xyz
1 x,y,z
2 -x,-y,-z
_cell_length_a                   11.5990(12)
_cell_length_b                   12.2724(12)
_cell_length_c                   21.607(2)
_cell_angle_alpha                104.641(2)
_cell_angle_beta                 93.065(2)
_cell_angle_gamma                92.351(2)
_cell_volume                     2966.84
_exptl_crystal_colour            yellow
_exptl_crystal_description       prismatic
_cell_formula_units_Z            2
loop_
_atom_site_label
_atom_site_type_symbol
_atom_site_fract_x
_atom_site_fract_y
_atom_site_fract_z
P1 P 0.15764(15) 0.95301(14) 0.09963(7)
F1 F 0.0326(4) 0.9482(5) 0.0787(3)
F2 F 0.2872(7) 0.9583(11) 0.1231(6)
F3 F 0.1266(4) 0.9970(4) 0.17109(18)
F4 F 0.1685(8) 0.9291(8) 0.0274(3)
F5 F 0.1308(7) 0.8308(4) 0.1037(3)
F6 F 0.1696(9) 1.0831(5) 0.1051(3)
P2 P 0.2272(2) 0.13473(17) 0.39291(9)
F7 F 0.2398(9) 0.0374(7) 0.4220(4)
F8 F 0.2831(7) 0.2355(5) 0.3719(3)
F9 F 0.3479(10) 0.1550(14) 0.4216(9)
F10 F 0.1362(16) 0.2197(10) 0.4271(13)
F11 F 0.2250(16) 0.0621(7) 0.3249(3)
F12 F 0.1166(7) 0.0847(11) 0.3805(7)
O1 O 0.7164(4) 0.9790(4) 0.40748(19)
O2 O 0.5862(3) 0.8473(3) 0.36099(14)
O3 O 0.6574(5) 0.7921(5) 0.0799(2)
O4 O 0.5323(3) 0.7434(3) 0.14032(14)
O5 O 0.5951(2) 0.4675(3) 0.41581(14)
O6 O 0.7117(2) 0.2802(2) 0.35295(13)
O7 O 0.7871(2) 0.1620(2) 0.23369(13)
O8 O 0.6485(3) 0.1649(2) 0.12254(13)
O9 O 0.5117(2) 0.3127(3) 0.07627(14)
O10 O 0.2066(3) 0.5974(3) 0.41696(15)
O11 O -0.0122(2) 0.5224(3) 0.35531(15)
O12 O -0.1563(2) 0.5119(2) 0.24058(16)
O13 O -0.0745(3) 0.4157(3) 0.11990(16)
O14 O 0.1240(3) 0.4398(3) 0.06126(18)
N1 N 0.6629(3) 0.8428(3) 0.24611(17)
C1 C 0.6800(5) 0.9082(4) 0.3607(2)
C2 C 0.7317(4) 0.8889(3) 0.2982(2)
C3 C 0.8475(4) 0.9210(4) 0.2962(3)
H1 H 0.8931 0.9517 0.3338
C4 C 0.8930(4) 0.9065(4) 0.2378(3)
H2 H 0.9702 0.9270 0.2350
C5 C 0.8232(4) 0.8614(4) 0.1833(2)
H3 H 0.8519 0.8516 0.1429
C6 C 0.7091(4) 0.8307(3) 0.1898(2)
C7 C 0.6313(5) 0.7864(4) 0.1315(2)
C8 C 0.5341(4) 0.8554(4) 0.4222(2)
H4 H 0.4731 0.9081 0.4275
H5 H 0.5920 0.8811 0.4576
C9 C 0.4858(4) 0.7391(4) 0.42033(19)
C10 C 0.5584(4) 0.6538(4) 0.4199(2)
H6 H 0.6379 0.6685 0.4216
C11 C 0.5144(4) 0.5459(4) 0.41674(19)
C12 C 0.3964(4) 0.5219(3) 0.41505(17)
H7 H 0.3669 0.4494 0.4129
C13 C 0.3243(4) 0.6086(4) 0.41663(19)
C14 C 0.3674(4) 0.7169(4) 0.41842(19)
H8 H 0.3171 0.7740 0.4183
C15 C 0.4497(4) 0.7033(4) 0.0855(2)
H9 H 0.4872 0.7032 0.0464
H10 H 0.3866 0.7536 0.0887
C16 C 0.4029(4) 0.5857(4) 0.08282(19)
C17 C 0.4765(4) 0.5000(4) 0.08271(19)
H11 H 0.5562 0.5155 0.0866
C18 C 0.4322(4) 0.3916(4) 0.07681(18)
C19 C 0.3137(4) 0.3663(4) 0.06976(19)
H12 H 0.2839 0.2930 0.0654
C20 C 0.2415(4) 0.4523(4) 0.0694(2)
C21 C 0.2860(4) 0.5621(4) 0.0765(2)
H13 H 0.2360 0.6196 0.0770
C22 C 0.5567(4) 0.3549(4) 0.4143(2)
H14 H 0.5048 0.3234 0.3768
H15 H 0.5160 0.3538 0.4522
C23 C 0.6619(4) 0.2878(4) 0.4122(2)
H16 H 0.7172 0.3241 0.4474
H17 H 0.6408 0.2128 0.4165
C24 C 0.8122(4) 0.2181(4) 0.3473(2)
H18 H 0.7925 0.1411 0.3485
H19 H 0.8677 0.2513 0.3830
C25 C 0.8641(3) 0.2185(4) 0.2859(2)
H20 H 0.8802 0.2956 0.2838
H21 H 0.9364 0.1813 0.2836
C26 C 0.8326(4) 0.1615(4) 0.1744(2)
H22 H 0.9046 0.1235 0.1709
H23 H 0.8489 0.2385 0.1720
C27 C 0.7501(4) 0.1035(4) 0.1209(2)
H24 H 0.7850 0.0977 0.0805
H25 H 0.7304 0.0278 0.1244
C28 C 0.5751(4) 0.1280(4) 0.0659(2)
H26 H 0.5505 0.0493 0.0598
H27 H 0.6169 0.1348 0.0292
C29 C 0.4719(4) 0.1975(4) 0.0706(2)
H28 H 0.4198 0.1704 0.0327
H29 H 0.4308 0.1926 0.1078
C30 C 0.1542(4) 0.4894(4) 0.4141(2)
H30 H 0.1808 0.4639 0.4512
H31 H 0.1741 0.4349 0.3757
C31 C 0.0265(4) 0.5008(4) 0.4133(2)
H32 H -0.0120 0.4319 0.4179
H33 H 0.0082 0.5622 0.4489
C32 C -0.1274(4) 0.5560(4) 0.3549(2)
H34 H -0.1378 0.6141 0.3936
H35 H -0.1803 0.4921 0.3537
C33 C -0.1528(4) 0.5996(4) 0.2983(3)
H36 H -0.2266 0.6342 0.3019
H37 H -0.0937 0.6571 0.2968
C34 C -0.1812(4) 0.5527(4) 0.1856(3)
H38 H -0.1220 0.6094 0.1832
H39 H -0.2550 0.5874 0.1888
C35 C -0.1851(4) 0.4572(4) 0.1264(2)
H40 H -0.2405 0.3980 0.1298
H41 H -0.2088 0.4834 0.0891
C36 C -0.0575(4) 0.3495(5) 0.0572(2)
H42 H -0.0819 0.3889 0.0255
H43 H -0.1022 0.2781 0.0485
C37 C 0.0681(4) 0.3301(4) 0.0544(2)
H44 H 0.0949 0.2979 0.0888
H45 H 0.0837 0.2794 0.0137
O15 O 0.0343(16) 0.6707(15) 0.1366(10)
H63 H -0.006(4) 0.658(4) 0.0969(17)
N2 N 0.2488(5) 0.6945(4) 0.2514(2)
N3 N 0.4535(3) 0.1734(3) 0.23682(15)
C38 C 0.2092(4) 0.4990(4) 0.2391(2)
C39 C 0.1733(5) 0.6070(5) 0.2446(2)
H46 H 0.0946 0.6188 0.2435
C40 C 0.3622(5) 0.6832(4) 0.2534(2)
H47 H 0.4121 0.7464 0.2579
C41 C 0.4069(4) 0.5799(4) 0.24912(19)
C42 C 0.3280(4) 0.4860(4) 0.24258(17)
C43 C 0.3711(3) 0.3787(3) 0.23895(17)
C44 C 0.2929(3) 0.2848(4) 0.23304(19)
C45 C 0.1706(4) 0.3006(4) 0.2293(2)
H48 H 0.1186 0.2390 0.2249
C46 C 0.1303(4) 0.4026(5) 0.2320(2)
H49 H 0.0510 0.4108 0.2293
C47 C 0.4905(3) 0.3658(3) 0.24283(17)
C48 C 0.5681(4) 0.4625(4) 0.2488(2)
H50 H 0.6475 0.4544 0.2502
C49 C 0.5271(4) 0.5653(4) 0.2523(2)
H51 H 0.5787 0.6273 0.2569
C50 C 0.5289(4) 0.2613(4) 0.24121(18)
H52 H 0.6079 0.2511 0.2432
C51 C 0.3387(4) 0.1828(4) 0.23278(19)
H53 H 0.2894 0.1197 0.2298
C52 C 0.2049(6) 0.8099(5) 0.2585(3)
H54 H 0.1744 0.8169 0.2175
H55 H 0.2672 0.8656 0.2743
H56 H 0.1450 0.8213 0.2881
C53 C 0.4978(4) 0.0610(4) 0.2366(2)
H57 H 0.5803 0.0683 0.2449
H58 H 0.4787 0.0095 0.1955
H59 H 0.4631 0.0328 0.2692
N4 N 0.9731(10) 0.1908(6) 0.6216(5)
C54 C 0.9475(6) 0.1663(6) 0.5704(5)
C55 C 0.9131(6) 0.1362(6) 0.5051(3)
H60 H 0.9188 0.0565 0.4883
H61 H 0.9623 0.1762 0.4829
H62 H 0.8345 0.1553 0.4993
F13? F 0.243(2) 0.925(2) 0.1479(12)
F14? F 0.2141(10) 0.8550(12) 0.0487(6)
F15? F 0.235(2) 1.0304(16) 0.0860(13)
F16? F 0.1706(17) 0.2149(11) 0.3549(7)
F17? F 0.2336(15) 0.2030(11) 0.4609(4)
F18? F 0.3243(14) 0.0748(17) 0.3521(9)
loop_
_geom_bond_atom_site_label_1
_geom_bond_atom_site_label_2
_geom_bond_site_symmetry_1
_geom_bond_site_symmetry_2
P1 F1 1_555 1_555
P2 F7 1_555 1_555
O1 C1 1_555 1_555
O2 C1 1_555 1_555
O3 C7 1_555 1_555
O4 C7 1_555 1_555
O5 C11 1_555 1_555
O6 C23 1_555 1_555
O7 C25 1_555 1_555
O8 C27 1_555 1_555
O9 C18 1_555 1_555
O10 C13 1_555 1_555
O11 C31 1_555 1_555
O12 C33 1_555 1_555
O13 C35 1_555 1_555
O14 C20 1_555 1_555
O15 H63 1_555 1_555
N1 C2 1_555 1_555
N2 C39 1_555 1_555
N3 C50 1_555 1_555
N4 C54 1_555 1_555
F2 P1 1_555 1_555
F3 P1 1_555 1_555
F4 P1 1_555 1_555
F5 P1 1_555 1_555
F6 P1 1_555 1_555
F8 P2 1_555 1_555
F9 P2 1_555 1_555
F10 P2 1_555 1_555
F11 P2 1_555 1_555
F12 P2 1_555 1_555
C1 C2 1_555 1_555
C2 C3 1_555 1_555
C3 H1 1_555 1_555
C4 C3 1_555 1_555
H2 C4 1_555 1_555
C5 C4 1_555 1_555
H3 C5 1_555 1_555
C6 N1 1_555 1_555
C7 C6 1_555 1_555
C8 O2 1_555 1_555
H4 C8 1_555 1_555
H5 C8 1_555 1_555
C9 C8 1_555 1_555
C10 C9 1_555 1_555
H6 C10 1_555 1_555
C11 C10 1_555 1_555
C12 C11 1_555 1_555
H7 C12 1_555 1_555
C13 C12 1_555 1_555
C14 C9 1_555 1_555
H8 C14 1_555 1_555
C15 O4 1_555 1_555
H9 C15 1_555 1_555
H10 C15 1_555 1_555
C16 C15 1_555 1_555
C17 C16 1_555 1_555
H11 C17 1_555 1_555
C18 C17 1_555 1_555
C19 C18 1_555 1_555
H12 C19 1_555 1_555
C20 C19 1_555 1_555
C21 C16 1_555 1_555
H13 C21 1_555 1_555
C22 O5 1_555 1_555
H14 C22 1_555 1_555
H15 C22 1_555 1_555
C23 C22 1_555 1_555
H16 C23 1_555 1_555
H17 C23 1_555 1_555
C24 O6 1_555 1_555
H18 C24 1_555 1_555
H19 C24 1_555 1_555
C25 C24 1_555 1_555
H20 C25 1_555 1_555
H21 C25 1_555 1_555
C26 O7 1_555 1_555
H22 C26 1_555 1_555
H23 C26 1_555 1_555
C27 C26 1_555 1_555
H24 C27 1_555 1_555
H25 C27 1_555 1_555
C28 O8 1_555 1_555
H26 C28 1_555 1_555
H27 C28 1_555 1_555
C29 O9 1_555 1_555
H28 C29 1_555 1_555
H29 C29 1_555 1_555
C30 O10 1_555 1_555
H30 C30 1_555 1_555
H31 C30 1_555 1_555
C31 C30 1_555 1_555
H32 C31 1_555 1_555
H33 C31 1_555 1_555
C32 O11 1_555 1_555
H34 C32 1_555 1_555
H35 C32 1_555 1_555
C33 C32 1_555 1_555
H36 C33 1_555 1_555
H37 C33 1_555 1_555
C34 O12 1_555 1_555
H38 C34 1_555 1_555
H39 C34 1_555 1_555
C35 C34 1_555 1_555
H40 C35 1_555 1_555
H41 C35 1_555 1_555
C36 O13 1_555 1_555
H42 C36 1_555 1_555
H43 C36 1_555 1_555
C37 O14 1_555 1_555
H44 C37 1_555 1_555
H45 C37 1_555 1_555
C38 C39 1_555 1_555
C39 H46 1_555 1_555
C40 N2 1_555 1_555
H47 C40 1_555 1_555
C41 C40 1_555 1_555
C42 C38 1_555 1_555
C43 C42 1_555 1_555
C44 C43 1_555 1_555
C45 C44 1_555 1_555
H48 C45 1_555 1_555
C46 C38 1_555 1_555
H49 C46 1_555 1_555
C47 C43 1_555 1_555
C48 C47 1_555 1_555
H50 C48 1_555 1_555
C49 C41 1_555 1_555
H51 C49 1_555 1_555
C50 C47 1_555 1_555
H52 C50 1_555 1_555
C51 N3 1_555 1_555
H53 C51 1_555 1_555
C52 N2 1_555 1_555
H54 C52 1_555 1_555
H55 C52 1_555 1_555
H56 C52 1_555 1_555
C53 N3 1_555 1_555
H57 C53 1_555 1_555
H58 C53 1_555 1_555
H59 C53 1_555 1_555
C54 C55 1_555 1_555
C55 H60 1_555 1_555
H61 C55 1_555 1_555
H62 C55 1_555 1_555
C5 C6 1_555 1_555
C13 C14 1_555 1_555
C20 C21 1_555 1_555
C28 C29 1_555 1_555
C36 C37 1_555 1_555
C41 C42 1_555 1_555
C44 C51 1_555 1_555
C45 C46 1_555 1_555
C48 C49 1_555 1_555

#END
