
#######################################################################
#
#                 Cambridge Crystallographic Data Centre
#                                CCDC 
#
#######################################################################
#
# If this CIF has been generated from an entry in the Cambridge 
# Structural Database, then it will include bibliographic, chemical, 
# crystal, experimental, refinement or atomic coordinate data resulting 
# from the CCDC's data processing and validation procedures.
#
#######################################################################

data_VINPAK
_chemical_compound_source        'twigs and leaves of Swietenia mahogani'
_chemical_formula_moiety         'C27 H36 O8'
_chemical_name_systematic        'Swiemahogin A'
_symmetry_cell_setting           orthorhombic
_symmetry_space_group_name_H-M   'P 21 21 21'
_symmetry_Int_Tables_number      19
_space_group_name_Hall           'P 2ac 2ab'
loop_
_symmetry_equiv_pos_site_id
_symmetry_equiv_pos_as_xyz
1 x,y,z
2 1/2-x,-y,1/2+z
3 -x,1/2+y,1/2-z
4 1/2+x,1/2-y,-z
_cell_length_a                   8.1449(6)
_cell_length_b                   14.8803(12)
_cell_length_c                   21.1839(17)
_cell_angle_alpha                90
_cell_angle_beta                 90
_cell_angle_gamma                90
_cell_volume                     2567.46
_exptl_crystal_colour            colorless
_exptl_crystal_description       prismatic
_chemical_melting_point          '508-509 K'
_cell_formula_units_Z            4
_exptl_crystal_recrystallization_method methanol/chloroform
loop_
_atom_site_label
_atom_site_type_symbol
_atom_site_fract_x
_atom_site_fract_y
_atom_site_fract_z
O1 O 0.6468(3) 0.6508(2) 0.55878(11)
O2 O 0.1697(4) 0.51414(16) 0.70384(12)
O3 O -0.0475(3) 0.57451(15) 0.65610(11)
O4 O 0.2980(2) 0.79868(11) 0.85918(8)
O5 O 0.0460(2) 0.76840(14) 0.89293(10)
O6 O 0.4865(2) 0.73727(13) 0.96480(8)
O7 O 0.7585(3) 0.64707(15) 0.98473(9)
O8 O 1.0373(3) 0.43618(17) 0.90805(11)
C1 C 0.5987(4) 0.77201(19) 0.69989(12)
H1 H 0.6633 0.8077 0.7260
C2 C 0.6639(4) 0.7459(2) 0.64591(14)
H2 H 0.7713 0.7626 0.6369
C3 C 0.5748(4) 0.6918(2) 0.59980(12)
C4 C 0.3893(4) 0.6920(2) 0.60514(11)
C5 C 0.3456(3) 0.68080(17) 0.67674(10)
H3 H 0.3903 0.6220 0.6886
C6 C 0.1603(4) 0.67277(18) 0.68723(12)
H4 H 0.1334 0.6971 0.7284
H5 H 0.1039 0.7088 0.6558
C7 C 0.0987(4) 0.5779(2) 0.68340(12)
C8 C 0.4544(3) 0.75102(14) 0.85124(10)
C9 C 0.4426(3) 0.69722(14) 0.78841(9)
C10 C 0.4284(3) 0.74903(16) 0.72300(10)
C11 C 0.5770(3) 0.62559(15) 0.78791(10)
H6 H 0.5768 0.5946 0.7476
H7 H 0.6834 0.6538 0.7934
C12 C 0.5474(3) 0.55850(15) 0.84095(9)
H8 H 0.6257 0.5097 0.8371
H9 H 0.4382 0.5333 0.8364
C13 C 0.5634(3) 0.60047(14) 0.90666(9)
C14 C 0.4513(3) 0.68498(14) 0.90979(9)
C15 C 0.2685(3) 0.66397(18) 0.91383(11)
H10 H 0.2411 0.6120 0.8882
H11 H 0.2359 0.6525 0.9571
C16 C 0.1871(3) 0.74678(18) 0.88891(10)
C17 C 0.7466(3) 0.62587(17) 0.91869(11)
C18 C 0.5075(3) 0.53213(18) 0.95633(11)
H12 H 0.5878 0.4852 0.9598
H13 H 0.4040 0.5068 0.9439
H14 H 0.4956 0.5616 0.9964
C19 C 0.3280(4) 0.83645(18) 0.72764(13)
H15 H 0.3059 0.8588 0.6860
H16 H 0.3893 0.8805 0.7509
H17 H 0.2262 0.8246 0.7489
C20 C 0.8672(3) 0.55347(17) 0.90200(11)
C21 C 0.9287(4) 0.4898(2) 0.93913(14)
H18 H 0.9007 0.4827 0.9814
C22 C 0.9449(3) 0.53905(19) 0.84236(12)
H19 H 0.9286 0.5728 0.8059
C23 C 1.0442(4) 0.4690(2) 0.84825(14)
H20 H 1.1092 0.4457 0.8161
C24 C 0.3162(5) 0.6140(3) 0.56771(14)
H21 H 0.3470 0.5582 0.5871
H22 H 0.3570 0.6156 0.5252
H23 H 0.1987 0.6191 0.5673
C25 C 0.3315(6) 0.7813(3) 0.57530(15)
H24 H 0.2159 0.7887 0.5824
H25 H 0.3527 0.7802 0.5307
H26 H 0.3900 0.8304 0.5942
C26 C 0.5876(3) 0.82221(16) 0.85430(13)
H27 H 0.5944 0.8455 0.8965
H28 H 0.5616 0.8701 0.8256
H29 H 0.6910 0.7960 0.8427
C27 C -0.1238(7) 0.4870(3) 0.6496(2)
H30 H -0.1737 0.4701 0.6889
H31 H -0.0419 0.4434 0.6383
H32 H -0.2061 0.4894 0.6172
H33 H 0.340(3) 0.6662(15) 0.7922(10)
H34 H 0.569(4) 0.716(2) 0.9780(15)
H35 H 0.842(5) 0.678(3) 0.9879(18)
H36 H 0.775(3) 0.6791(17) 0.8936(11)
loop_
_geom_bond_atom_site_label_1
_geom_bond_atom_site_label_2
_geom_bond_site_symmetry_1
_geom_bond_site_symmetry_2
O1 C3 1_555 1_555
O2 C7 1_555 1_555
O3 C7 1_555 1_555
O4 C8 1_555 1_555
O5 C16 1_555 1_555
O6 C14 1_555 1_555
O7 C17 1_555 1_555
O8 C21 1_555 1_555
C1 H1 1_555 1_555
C2 C1 1_555 1_555
H2 C2 1_555 1_555
C3 C2 1_555 1_555
C4 C3 1_555 1_555
C5 C4 1_555 1_555
H3 C5 1_555 1_555
C6 C5 1_555 1_555
H4 C6 1_555 1_555
H5 C6 1_555 1_555
C7 C6 1_555 1_555
C8 C9 1_555 1_555
C9 C10 1_555 1_555
C10 C1 1_555 1_555
C11 C9 1_555 1_555
H6 C11 1_555 1_555
H7 C11 1_555 1_555
C12 C11 1_555 1_555
H8 C12 1_555 1_555
H9 C12 1_555 1_555
C13 C12 1_555 1_555
C14 C8 1_555 1_555
C15 C14 1_555 1_555
H10 C15 1_555 1_555
H11 C15 1_555 1_555
C16 O4 1_555 1_555
C17 C13 1_555 1_555
C18 C13 1_555 1_555
H12 C18 1_555 1_555
H13 C18 1_555 1_555
H14 C18 1_555 1_555
C19 C10 1_555 1_555
H15 C19 1_555 1_555
H16 C19 1_555 1_555
H17 C19 1_555 1_555
C20 C17 1_555 1_555
C21 C20 1_555 1_555
H18 C21 1_555 1_555
C22 C20 1_555 1_555
H19 C22 1_555 1_555
C23 O8 1_555 1_555
H20 C23 1_555 1_555
C24 C4 1_555 1_555
H21 C24 1_555 1_555
H22 C24 1_555 1_555
H23 C24 1_555 1_555
C25 C4 1_555 1_555
H24 C25 1_555 1_555
H25 C25 1_555 1_555
H26 C25 1_555 1_555
C26 C8 1_555 1_555
H27 C26 1_555 1_555
H28 C26 1_555 1_555
H29 C26 1_555 1_555
C27 O3 1_555 1_555
H30 C27 1_555 1_555
H31 C27 1_555 1_555
H32 C27 1_555 1_555
H33 C9 1_555 1_555
H34 O6 1_555 1_555
H35 O7 1_555 1_555
H36 C17 1_555 1_555
C5 C10 1_555 1_555
C13 C14 1_555 1_555
C15 C16 1_555 1_555
C22 C23 1_555 1_555

#END
