
#######################################################################
#
#                 Cambridge Crystallographic Data Centre
#                                CCDC 
#
#######################################################################
#
# If this CIF has been generated from an entry in the Cambridge 
# Structural Database, then it will include bibliographic, chemical, 
# crystal, experimental, refinement or atomic coordinate data resulting 
# from the CCDC's data processing and validation procedures.
#
#######################################################################

data_VINQUF
_chemical_formula_moiety         'C48 H40 N4 O6,2(C1 H1 Cl3)'
_chemical_name_systematic        
'5,17-bis(p-Methoxyphenylazo)-26,28-dihydroxy-25,27-bis(propargyloxy)calix(4)arene chloroform solvate'
_symmetry_cell_setting           triclinic
_symmetry_space_group_name_H-M   'P -1'
_symmetry_Int_Tables_number      2
_space_group_name_Hall           '-P 1'
loop_
_symmetry_equiv_pos_site_id
_symmetry_equiv_pos_as_xyz
1 x,y,z
2 -x,-y,-z
_cell_length_a                   13.5391(6)
_cell_length_b                   14.2081(7)
_cell_length_c                   14.2656(7)
_cell_angle_alpha                74.752(1)
_cell_angle_beta                 65.904(1)
_cell_angle_gamma                72.891(1)
_cell_volume                     2361.89
_exptl_crystal_colour            orange-yellow
_exptl_crystal_description       plate
_chemical_melting_point          226-228deg.C
_cell_formula_units_Z            2
_exptl_crystal_recrystallization_method dichloromethane/methanol
loop_
_atom_site_label
_atom_site_type_symbol
_atom_site_fract_x
_atom_site_fract_y
_atom_site_fract_z
O1 O 0.6921(2) 0.0441(2) 0.0526(2)
H1 H 0.7375 0.0251 0.0834
O2 O 0.8602(2) -0.0058(2) 0.1293(2)
O3 O 0.8153(3) 0.2158(2) 0.0588(2)
H2 H 0.7715 0.2340 0.0263
O4 O 0.6871(2) 0.2555(2) -0.0625(2)
O5 O -0.1064(3) -0.2639(3) 0.5974(3)
O6 O 0.5659(3) 0.7421(3) 0.6647(3)
N1 N 0.2889(3) -0.0657(3) 0.2866(3)
N2 N 0.2892(3) -0.1407(3) 0.3558(3)
N3 N 0.7124(3) 0.4503(3) 0.3557(3)
N4 N 0.6359(3) 0.5270(3) 0.3622(3)
C1 C 0.5043(4) 0.0645(3) 0.0883(3)
C2 C 0.4038(4) 0.0357(3) 0.1488(3)
H3 H 0.3400 0.0690 0.1316
C3 C 0.3954(3) -0.0407(3) 0.2337(3)
C4 C 0.4882(4) -0.0885(3) 0.2598(3)
H4 H 0.4818 -0.1398 0.3189
C5 C 0.5897(3) -0.0633(3) 0.2019(3)
C6 C 0.6902(3) -0.1188(3) 0.2315(3)
H5 H 0.6754 -0.1830 0.2767
H6 H 0.7544 -0.1340 0.1676
C7 C 0.7193(3) -0.0600(3) 0.2878(3)
C8 C 0.6618(4) -0.0579(3) 0.3939(4)
H7 H 0.6076 -0.0973 0.4320
C9 C 0.6828(4) 0.0011(3) 0.4444(3)
H8 H 0.6451 -0.0003 0.5172
C10 C 0.7577(4) 0.0617(3) 0.3895(3)
H9 H 0.7692 0.1035 0.4246
C11 C 0.8176(3) 0.0626(3) 0.2825(3)
C12 C 0.8926(3) 0.1355(3) 0.2223(3)
H10 H 0.9399 0.1168 0.1530
H11 H 0.9416 0.1319 0.2596
C13 C 0.8266(3) 0.2411(3) 0.2090(3)
C14 C 0.8006(4) 0.3025(3) 0.2813(3)
H12 H 0.8303 0.2794 0.3352
C15 C 0.7322(4) 0.3965(3) 0.2762(3)
C16 C 0.6909(4) 0.4315(3) 0.1962(3)
H13 H 0.6441 0.4959 0.1927
C17 C 0.7168(4) 0.3739(3) 0.1212(3)
C18 C 0.6703(4) 0.4162(3) 0.0348(3)
H14 H 0.6469 0.4896 0.0298
H15 H 0.7291 0.4011 -0.0322
C19 C 0.5727(4) 0.3738(3) 0.0529(3)
C20 C 0.4680(4) 0.4124(3) 0.1201(3)
H16 H 0.4580 0.4675 0.1513
C21 C 0.3788(4) 0.3722(3) 0.1419(3)
H17 H 0.3072 0.4013 0.1854
C22 C 0.3936(4) 0.2894(3) 0.1004(3)
H18 H 0.3320 0.2607 0.1178
C23 C 0.4962(4) 0.2471(3) 0.0338(3)
C24 C 0.5119(4) 0.1502(3) -0.0021(3)
H19 H 0.4543 0.1563 -0.0304
H20 H 0.5852 0.1368 -0.0581
C25 C 0.5971(3) 0.0145(3) 0.1150(3)
C26 C 0.7997(3) -0.0019(3) 0.2351(3)
C27 C 0.7848(3) 0.2775(3) 0.1291(3)
C28 C 0.5833(3) 0.2935(3) 0.0081(3)
C29 C 0.1825(4) -0.1659(3) 0.4109(3)
C30 C 0.1830(4) -0.2630(3) 0.4640(4)
H21 H 0.2515 -0.3086 0.4594
C31 C 0.0858(4) -0.2934(3) 0.5229(4)
H22 H 0.0871 -0.3605 0.5575
C32 C -0.0146(4) -0.2272(4) 0.5325(4)
C33 C -0.0162(4) -0.1300(4) 0.4795(4)
H23 H -0.0847 -0.0839 0.4854
C34 C 0.0830(4) -0.1008(4) 0.4178(4)
H24 H 0.0822 -0.0349 0.3798
C35 C -0.2102(4) -0.1944(5) 0.6210(5)
H25 H -0.2692 -0.2296 0.6683
H26 H -0.2245 -0.1627 0.5566
H27 H -0.2082 -0.1432 0.6544
C36 C 0.9551(3) -0.0894(3) 0.1095(4)
H28 H 0.9850 -0.0948 0.0348
H29 H 0.9307 -0.1520 0.1499
C37 C 1.0427(3) -0.0778(3) 0.1381(3)
C38 C 1.1141(4) -0.0679(4) 0.1599(4)
C39 C 0.6186(4) 0.5792(3) 0.4419(3)
C40 C 0.6893(5) 0.5585(4) 0.4970(5)
H30 H 0.7529 0.5057 0.4829
C41 C 0.6675(6) 0.6136(5) 0.5706(5)
H31 H 0.7156 0.5980 0.6084
C42 C 0.5766(4) 0.6919(4) 0.5914(4)
C43 C 0.5051(4) 0.7131(3) 0.5395(4)
H32 H 0.4412 0.7655 0.5549
C44 C 0.5273(4) 0.6570(3) 0.4638(4)
H33 H 0.4788 0.6725 0.4266
C45 C 0.4719(4) 0.8161(4) 0.6993(4)
H34 H 0.4777 0.8446 0.7519
H35 H 0.4061 0.7871 0.7298
H36 H 0.4659 0.8688 0.6405
C46 C 0.7125(4) 0.3081(4) -0.1679(3)
H37 H 0.7788 0.2676 -0.2137
H38 H 0.7312 0.3716 -0.1715
C47 C 0.6237(4) 0.3301(3) -0.2071(4)
C48 C 0.5519(5) 0.3524(5) -0.2408(4)
C49 C 0.0836(5) 0.3292(5) 0.0660(5)
H39 H 0.0060 0.3428 0.0681
Cl1 Cl 0.07962(13) 0.33131(15) 0.18948(13)
Cl2 Cl 0.15300(17) 0.20731(16) 0.03356(14)
Cl3 Cl 0.14968(17) 0.42054(17) -0.02606(16)
C50 C 0.9622(8) 0.6042(6) 0.2898(7)
H40 H 0.8996 0.5731 0.3024
Cl4 Cl 1.03251(19) 0.63475(16) 0.15543(16)
Cl5 Cl 1.0543(2) 0.52130(17) 0.3467(2)
Cl6 Cl 0.9113(3) 0.7128(2) 0.34503(19)
loop_
_geom_bond_atom_site_label_1
_geom_bond_atom_site_label_2
_geom_bond_site_symmetry_1
_geom_bond_site_symmetry_2
O1 H1 1_555 1_555
O2 C26 1_555 1_555
O3 H2 1_555 1_555
O4 C28 1_555 1_555
O5 C32 1_555 1_555
O6 C42 1_555 1_555
N1 N2 1_555 1_555
N2 C29 1_555 1_555
N3 N4 1_555 1_555
N4 C39 1_555 1_555
C1 C2 1_555 1_555
C2 H3 1_555 1_555
C3 N1 1_555 1_555
C4 C3 1_555 1_555
H4 C4 1_555 1_555
C5 C4 1_555 1_555
C6 C5 1_555 1_555
H5 C6 1_555 1_555
H6 C6 1_555 1_555
C7 C6 1_555 1_555
C8 C7 1_555 1_555
H7 C8 1_555 1_555
C9 C8 1_555 1_555
H8 C9 1_555 1_555
C10 C9 1_555 1_555
H9 C10 1_555 1_555
C11 C10 1_555 1_555
C12 C11 1_555 1_555
H10 C12 1_555 1_555
H11 C12 1_555 1_555
C13 C12 1_555 1_555
C14 C13 1_555 1_555
H12 C14 1_555 1_555
C15 N3 1_555 1_555
C16 C15 1_555 1_555
H13 C16 1_555 1_555
C17 C16 1_555 1_555
C18 C17 1_555 1_555
H14 C18 1_555 1_555
H15 C18 1_555 1_555
C19 C18 1_555 1_555
C20 C19 1_555 1_555
H16 C20 1_555 1_555
C21 C20 1_555 1_555
H17 C21 1_555 1_555
C22 C21 1_555 1_555
H18 C22 1_555 1_555
C23 C22 1_555 1_555
C24 C1 1_555 1_555
H19 C24 1_555 1_555
H20 C24 1_555 1_555
C25 O1 1_555 1_555
C26 C7 1_555 1_555
C27 O3 1_555 1_555
C28 C19 1_555 1_555
C29 C30 1_555 1_555
C30 H21 1_555 1_555
C31 C30 1_555 1_555
H22 C31 1_555 1_555
C32 C31 1_555 1_555
C33 C32 1_555 1_555
H23 C33 1_555 1_555
C34 C29 1_555 1_555
H24 C34 1_555 1_555
C35 O5 1_555 1_555
H25 C35 1_555 1_555
H26 C35 1_555 1_555
H27 C35 1_555 1_555
C36 O2 1_555 1_555
H28 C36 1_555 1_555
H29 C36 1_555 1_555
C37 C36 1_555 1_555
C38 C37 1_555 1_555
C39 C40 1_555 1_555
C40 H30 1_555 1_555
C41 C40 1_555 1_555
H31 C41 1_555 1_555
C42 C41 1_555 1_555
C43 C42 1_555 1_555
H32 C43 1_555 1_555
C44 C39 1_555 1_555
H33 C44 1_555 1_555
C45 O6 1_555 1_555
H34 C45 1_555 1_555
H35 C45 1_555 1_555
H36 C45 1_555 1_555
C46 O4 1_555 1_555
H37 C46 1_555 1_555
H38 C46 1_555 1_555
C47 C46 1_555 1_555
C48 C47 1_555 1_555
C49 H39 1_555 1_555
Cl1 C49 1_555 1_555
Cl2 C49 1_555 1_555
Cl3 C49 1_555 1_555
C50 H40 1_555 1_555
Cl4 C50 1_555 1_555
Cl5 C50 1_555 1_555
Cl6 C50 1_555 1_555
C1 C25 1_555 1_555
C2 C3 1_555 1_555
C5 C25 1_555 1_555
C11 C26 1_555 1_555
C13 C27 1_555 1_555
C14 C15 1_555 1_555
C17 C27 1_555 1_555
C23 C24 1_555 1_555
C23 C28 1_555 1_555
C33 C34 1_555 1_555
C43 C44 1_555 1_555

#END
