
#######################################################################
#
#                 Cambridge Crystallographic Data Centre
#                                CCDC 
#
#######################################################################
#
# If this CIF has been generated from an entry in the Cambridge 
# Structural Database, then it will include bibliographic, chemical, 
# crystal, experimental, refinement or atomic coordinate data resulting 
# from the CCDC's data processing and validation procedures.
#
#######################################################################

data_VINREQ
_chemical_formula_moiety         'C9 H9 Cl1 N2 O2'
_chemical_name_systematic        N-Nitroso-2-(2-chlorophenyl)-1,3-oxazolidine
_symmetry_cell_setting           orthorhombic
_symmetry_space_group_name_H-M   'P 21 21 21'
_symmetry_Int_Tables_number      19
_space_group_name_Hall           'P 2ac 2ab'
loop_
_symmetry_equiv_pos_site_id
_symmetry_equiv_pos_as_xyz
1 x,y,z
2 1/2-x,-y,1/2+z
3 -x,1/2+y,1/2-z
4 1/2+x,1/2-y,-z
_cell_length_a                   6.6705(2)
_cell_length_b                   10.9436(3)
_cell_length_c                   13.3939(4)
_cell_angle_alpha                90
_cell_angle_beta                 90
_cell_angle_gamma                90
_cell_volume                     977.745
_exptl_crystal_colour            colorless
_cell_formula_units_Z            4
_exptl_crystal_recrystallization_method 'ethyl acetate'
loop_
_atom_site_label
_atom_site_type_symbol
_atom_site_fract_x
_atom_site_fract_y
_atom_site_fract_z
Cl1 Cl 0.18627(12) 0.00099(9) 0.62030(7)
C1 C 0.3828(5) 0.1051(3) 0.6215(2)
C2 C 0.6984(5) 0.1766(3) 0.5634(2)
H1 H 0.8077 0.1697 0.5206
C3 C 0.5443(4) 0.0924(2) 0.55667(18)
C4 C 0.3762(5) 0.2003(3) 0.6899(2)
H2 H 0.2670 0.2083 0.7326
C5 C 0.5298(5) 0.2816(3) 0.6944(2)
H3 H 0.5248 0.3455 0.7400
N1 N 0.7361(4) -0.1468(2) 0.58711(19)
N2 N 0.7147(4) -0.0980(2) 0.49978(16)
C6 C 0.6984(6) -0.0615(3) 0.3321(2)
H4 H 0.7834 -0.0313 0.2787
H5 H 0.5953 -0.1134 0.3037
O1 O 0.6113(4) 0.03772(18) 0.38717(14)
C7 C 0.5549(4) -0.0082(3) 0.4807(2)
H6 H 0.4251 -0.0496 0.4757
C8 C 0.8201(6) -0.1302(3) 0.4088(2)
H7 H 0.8170 -0.2176 0.3968
H8 H 0.9582 -0.1025 0.4102
C9 C 0.6938(6) 0.2702(3) 0.6317(2)
H9 H 0.7996 0.3254 0.6358
O2 O 0.8681(4) -0.2255(2) 0.59157(18)
loop_
_geom_bond_atom_site_label_1
_geom_bond_atom_site_label_2
_geom_bond_site_symmetry_1
_geom_bond_site_symmetry_2
Cl1 C1 1_555 1_555
C1 C3 1_555 1_555
C2 H1 1_555 1_555
C3 C2 1_555 1_555
C4 C1 1_555 1_555
H2 C4 1_555 1_555
C5 C4 1_555 1_555
H3 C5 1_555 1_555
N1 N2 1_555 1_555
N2 C7 1_555 1_555
C6 H4 1_555 1_555
H5 C6 1_555 1_555
O1 C6 1_555 1_555
C7 C3 1_555 1_555
H6 C7 1_555 1_555
C8 N2 1_555 1_555
H7 C8 1_555 1_555
H8 C8 1_555 1_555
C9 C2 1_555 1_555
H9 C9 1_555 1_555
O2 N1 1_555 1_555
C5 C9 1_555 1_555
C6 C8 1_555 1_555
O1 C7 1_555 1_555

#END
