
#######################################################################
#
#                 Cambridge Crystallographic Data Centre
#                                CCDC 
#
#######################################################################
#
# If this CIF has been generated from an entry in the Cambridge 
# Structural Database, then it will include bibliographic, chemical, 
# crystal, experimental, refinement or atomic coordinate data resulting 
# from the CCDC's data processing and validation procedures.
#
#######################################################################

data_VINTIV
_chemical_formula_moiety         'C20 H26 S2'
_chemical_name_systematic        2,15-Dithia(3.3)(1,3)adamantanometacyclophane
_symmetry_cell_setting           monoclinic
_symmetry_space_group_name_H-M   'P 21/n'
_symmetry_Int_Tables_number      14
_space_group_name_Hall           '-P 2yn'
loop_
_symmetry_equiv_pos_site_id
_symmetry_equiv_pos_as_xyz
1 x,y,z
2 1/2-x,1/2+y,1/2-z
3 -x,-y,-z
4 1/2+x,1/2-y,1/2+z
_cell_length_a                   9.850(5)
_cell_length_b                   11.214(6)
_cell_length_c                   16.045(7)
_cell_angle_alpha                90
_cell_angle_beta                 102.81(4)
_cell_angle_gamma                90
_cell_volume                     1728.19
_chemical_melting_point          163-164deg.C
_cell_formula_units_Z            4
loop_
_atom_site_label
_atom_site_type_symbol
_atom_site_fract_x
_atom_site_fract_y
_atom_site_fract_z
S1 S 0.5604(1) 0.0665(1) 0.3530(1)
S2 S 0.1572(1) 0.0968(1) 0.0574(1)
C1 C 0.4168(2) 0.0977(2) 0.4043(1)
C2 C 0.2894(2) 0.1561(2) 0.3491(1)
C3 C 0.2154(2) 0.0994(2) 0.2755(1)
C4 C 0.1085(2) 0.1585(2) 0.2192(1)
C5 C 0.0702(3) 0.2707(2) 0.2409(2)
C6 C 0.1385(3) 0.3255(2) 0.3158(2)
C7 C 0.2500(3) 0.2684(2) 0.3684(1)
C8 C 0.0427(2) 0.1057(2) 0.1328(1)
C9 C 0.2298(2) 0.2466(2) 0.0570(1)
C10 C 0.3881(2) 0.2561(2) 0.0911(1)
C11 C 0.4254(2) 0.2263(2) 0.1863(1)
C12 C 0.4695(2) 0.1718(2) 0.0444(1)
C13 C 0.4335(2) 0.3850(2) 0.0798(1)
C14 C 0.5911(2) 0.3985(2) 0.1162(1)
C15 C 0.6250(2) 0.3672(2) 0.2116(1)
C16 C 0.6694(2) 0.3145(2) 0.0685(1)
C17 C 0.6261(2) 0.1862(2) 0.0805(1)
C18 C 0.6593(2) 0.1546(2) 0.1764(1)
C19 C 0.5807(2) 0.2390(2) 0.2246(1)
C20 C 0.6125(2) 0.2128(2) 0.3212(1)
H1 H 0.4511 0.1496 0.4519
H2 H 0.3881 0.0234 0.4247
H3 H 0.2384 0.0189 0.2635
H4 H -0.0050 0.3115 0.2035
H5 H 0.1086 0.4023 0.3312
H6 H 0.3005 0.3080 0.4189
H7 H 0.0118 0.0264 0.1417
H8 H -0.0361 0.1540 0.1074
H9 H 0.1855 0.2967 0.0916
H10 H 0.2084 0.2751 -0.0009
H11 H 0.3980 0.1456 0.1940
H12 H 0.3755 0.2794 0.2158
H13 H 0.4486 0.1909 -0.0155
H14 H 0.4429 0.0909 0.0520
H15 H 0.4126 0.4048 0.0201
H16 H 0.3840 0.4379 0.1095
H17 H 0.6188 0.4793 0.1091
H18 H 0.5760 0.4207 0.2413
H19 H 0.7234 0.3752 0.2340
H20 H 0.7678 0.3229 0.0908
H21 H 0.6475 0.3339 0.0088
H22 H 0.6765 0.1337 0.0510
H23 H 0.7576 0.1625 0.1991
H24 H 0.6314 0.0739 0.1835
H25 H 0.7112 0.2202 0.3424
H26 H 0.5655 0.2719 0.3477
loop_
_geom_bond_atom_site_label_1
_geom_bond_atom_site_label_2
_geom_bond_site_symmetry_1
_geom_bond_site_symmetry_2
S1 C1 1_555 1_555
S2 C8 1_555 1_555
C1 C2 1_555 1_555
C2 C3 1_555 1_555
C3 C4 1_555 1_555
C4 C5 1_555 1_555
C5 C6 1_555 1_555
C6 C7 1_555 1_555
C7 C2 1_555 1_555
C8 C4 1_555 1_555
C9 S2 1_555 1_555
C10 C9 1_555 1_555
C11 C10 1_555 1_555
C12 C10 1_555 1_555
C13 C10 1_555 1_555
C14 C13 1_555 1_555
C15 C14 1_555 1_555
C16 C14 1_555 1_555
C17 C12 1_555 1_555
C18 C17 1_555 1_555
C19 C11 1_555 1_555
C20 S1 1_555 1_555
H1 C1 1_555 1_555
H2 C1 1_555 1_555
H3 C3 1_555 1_555
H4 C5 1_555 1_555
H5 C6 1_555 1_555
H6 C7 1_555 1_555
H7 C8 1_555 1_555
H8 C8 1_555 1_555
H9 C9 1_555 1_555
H10 C9 1_555 1_555
H11 C11 1_555 1_555
H12 C11 1_555 1_555
H13 C12 1_555 1_555
H14 C12 1_555 1_555
H15 C13 1_555 1_555
H16 C13 1_555 1_555
H17 C14 1_555 1_555
H18 C15 1_555 1_555
H19 C15 1_555 1_555
H20 C16 1_555 1_555
H21 C16 1_555 1_555
H22 C17 1_555 1_555
H23 C18 1_555 1_555
H24 C18 1_555 1_555
H25 C20 1_555 1_555
H26 C20 1_555 1_555
C15 C19 1_555 1_555
C16 C17 1_555 1_555
C18 C19 1_555 1_555
C19 C20 1_555 1_555

#END
