
#######################################################################
#
#                 Cambridge Crystallographic Data Centre
#                                CCDC 
#
#######################################################################
#
# If this CIF has been generated from an entry in the Cambridge 
# Structural Database, then it will include bibliographic, chemical, 
# crystal, experimental, refinement or atomic coordinate data resulting 
# from the CCDC's data processing and validation procedures.
#
#######################################################################

data_VINVOG
_chemical_formula_moiety         'C15 H13 N1 O2'
_chemical_name_systematic        
(1,4-dihydro-2H-3,1-benzoxazin-2-yl)(phenyl)methanone
_symmetry_cell_setting           monoclinic
_symmetry_space_group_name_H-M   'P 21/c'
_symmetry_Int_Tables_number      14
_space_group_name_Hall           '-P 2ybc'
loop_
_symmetry_equiv_pos_site_id
_symmetry_equiv_pos_as_xyz
1 x,y,z
2 -x,1/2+y,1/2-z
3 -x,-y,-z
4 x,1/2-y,1/2+z
_cell_length_a                   10.650(11)
_cell_length_b                   5.122(6)
_cell_length_c                   21.86(2)
_cell_angle_alpha                90
_cell_angle_beta                 97.939(17)
_cell_angle_gamma                90
_cell_volume                     1181.02
_exptl_crystal_colour            colorless
_exptl_crystal_description       block
_cell_formula_units_Z            4
loop_
_atom_site_label
_atom_site_type_symbol
_atom_site_fract_x
_atom_site_fract_y
_atom_site_fract_z
O1 O -0.00203(11) 0.3289(3) 0.16416(5)
O2 O -0.09087(13) 0.2673(3) 0.01367(6)
N1 N 0.12043(15) 0.1849(4) 0.08914(7)
C1 C 0.2858(2) 0.0152(4) 0.24196(10)
C2 C 0.3712(2) -0.1667(5) 0.22755(11)
C3 C 0.20170(17) 0.1330(4) 0.19669(8)
C4 C -0.3641(2) 0.9468(5) 0.08848(12)
C5 C 0.10392(18) 0.3226(4) 0.21192(8)
C6 C -0.2925(2) 0.5897(5) 0.03376(11)
C7 C 0.03925(17) 0.3823(4) 0.10645(8)
C8 C -0.3860(2) 0.7614(5) 0.04353(13)
C9 C -0.15422(19) 0.7934(4) 0.11425(9)
C10 C -0.07878(17) 0.4067(4) 0.05851(8)
C11 C -0.17557(17) 0.6014(4) 0.06951(8)
C12 C -0.2481(2) 0.9654(4) 0.12349(10)
C13 C 0.20412(17) 0.0676(4) 0.13528(9)
C14 C 0.29077(19) -0.1164(5) 0.12094(10)
C15 C 0.3721(2) -0.2319(5) 0.16710(11)
H1 H 0.4277(2) -0.2445(5) 0.25844(11)
H2 H 0.4290(2) -0.3573(5) 0.15703(11)
H3 H 0.29375(19) -0.1616(5) 0.07997(10)
H4 H 0.2845(2) 0.0602(4) 0.28307(10)
H5 H -0.3079(2) 0.4645(5) 0.00283(11)
H6 H -0.4650(2) 0.7515(5) 0.01941(13)
H7 H -0.4286(2) 1.0612(5) 0.09530(12)
H8 H -0.2329(2) 1.0945(4) 0.15351(10)
H9 H -0.07527(19) 0.8058(4) 0.13828(9)
H10 H 0.08476(17) 0.5491(4) 0.10922(8)
H11 H 0.14110(18) 0.4954(4) 0.21710(8)
H12 H 0.07555(18) 0.2728(4) 0.25057(8)
H13 H 0.11793(15) 0.1390(4) 0.05115(7)
loop_
_geom_bond_atom_site_label_1
_geom_bond_atom_site_label_2
_geom_bond_site_symmetry_1
_geom_bond_site_symmetry_2
O1 C5 1_555 1_555
O2 C10 1_555 1_555
N1 C7 1_555 1_555
C1 C2 1_555 1_555
C2 C15 1_555 1_555
C3 C1 1_555 1_555
C4 C8 1_555 1_555
C5 C3 1_555 1_555
C6 C8 1_555 1_555
C7 O1 1_555 1_555
C8 H6 1_555 1_555
C9 C11 1_555 1_555
C10 C7 1_555 1_555
C11 C6 1_555 1_555
C12 C4 1_555 1_555
C13 N1 1_555 1_555
C14 C13 1_555 1_555
C15 C14 1_555 1_555
H1 C2 1_555 1_555
H2 C15 1_555 1_555
H3 C14 1_555 1_555
H4 C1 1_555 1_555
H5 C6 1_555 1_555
H7 C4 1_555 1_555
H8 C12 1_555 1_555
H9 C9 1_555 1_555
H10 C7 1_555 1_555
H11 C5 1_555 1_555
H12 C5 1_555 1_555
H13 N1 1_555 1_555
C3 C13 1_555 1_555
C9 C12 1_555 1_555
C10 C11 1_555 1_555

#END
