
#######################################################################
#
#                 Cambridge Crystallographic Data Centre
#                                CCDC 
#
#######################################################################
#
# If this CIF has been generated from an entry in the Cambridge 
# Structural Database, then it will include bibliographic, chemical, 
# crystal, experimental, refinement or atomic coordinate data resulting 
# from the CCDC's data processing and validation procedures.
#
#######################################################################

data_VINVEW
_chemical_formula_moiety         'C42 H48 N24 O12,H1 Cl1,24(H2 O1)'
_chemical_name_systematic        
'hexamethylcucurbit[3,3]uril hydrochloride solvate hydrate'
_symmetry_cell_setting           triclinic
_symmetry_space_group_name_H-M   'P -1'
_symmetry_Int_Tables_number      2
_space_group_name_Hall           '-P 1'
loop_
_symmetry_equiv_pos_site_id
_symmetry_equiv_pos_as_xyz
1 x,y,z
2 -x,-y,-z
_cell_length_a                   16.4068(10)
_cell_length_b                   21.1877(13)
_cell_length_c                   21.5464(14)
_cell_angle_alpha                94.8270(10)
_cell_angle_beta                 105.6160(10)
_cell_angle_gamma                110.7170(10)
_cell_volume                     6611.99
_exptl_crystal_colour            colorless
_cell_formula_units_Z            4
loop_
_atom_site_label
_atom_site_type_symbol
_atom_site_fract_x
_atom_site_fract_y
_atom_site_fract_z
Cl2 Cl 0.32557(7) 0.72326(7) 0.41373(6)
C1 C 0.6987(2) 0.75495(17) 0.60882(15)
C2 C 0.5549(2) 0.67036(16) 0.54726(14)
C3 C 0.6078(2) 0.63808(16) 0.59900(15)
C4 C 0.5856(2) 0.58399(16) 0.49248(15)
C5 C 0.7686(2) 0.69696(17) 0.68648(15)
H1 H 0.7393 0.6737 0.7164
H2 H 0.8060 0.7445 0.7085
C6 C 0.6435(2) 0.53022(16) 0.58107(16)
H3 H 0.6155 0.4896 0.5462
H4 H 0.6223 0.5174 0.6178
C7 C 0.9225(2) 0.70002(15) 0.69077(14)
C8 C 0.8037(2) 0.59054(16) 0.66574(15)
H5 H 0.7813 0.5728 0.7011
C9 C 0.8961(2) 0.58370(15) 0.66819(14)
H6 H 0.9114 0.5553 0.6994
C10 C 0.7864(2) 0.52686(16) 0.56560(15)
C11 C 1.0603(2) 0.67233(16) 0.71079(14)
H7 H 1.0897 0.7148 0.7434
H8 H 1.0725 0.6366 0.7321
C12 C 0.9425(2) 0.52915(16) 0.58284(15)
H9 H 0.9090 0.4928 0.5439
H10 H 0.9701 0.5098 0.6178
C13 C 1.1418(2) 0.74511(15) 0.64726(14)
C14 C 1.1046(2) 0.62618(16) 0.61561(15)
C15 C 1.1577(2) 0.66767(16) 0.57006(15)
C16 C 1.0060(2) 0.59329(16) 0.50628(16)
C17 C 1.2169(2) 0.79886(16) 0.57158(15)
H11 H 1.2682 0.7953 0.5595
H12 H 1.2414 0.8391 0.6064
C18 C 1.0998(2) 0.65385(17) 0.44253(16)
H13 H 1.1629 0.6617 0.4456
H14 H 1.0600 0.6130 0.4089
C19 C 1.1200(2) 0.85855(15) 0.51701(15)
C20 C 1.1471(2) 0.78266(15) 0.44827(14)
H15 H 1.2072 0.7894 0.4436
C21 C 1.1006(2) 0.82330(15) 0.40646(14)
H16 H 1.1412 0.8528 0.3852
C22 C 1.0131(2) 0.70551(15) 0.36560(15)
C23 C 1.0563(2) 0.92073(15) 0.43932(16)
H17 H 1.0946 0.9466 0.4154
H18 H 1.0693 0.9510 0.4802
C24 C 0.9719(2) 0.78506(16) 0.29758(14)
H19 H 0.9414 0.7427 0.2648
H20 H 1.0170 0.8176 0.2823
C25 C 0.9029(2) 0.91633(14) 0.42959(15)
C26 C 0.9221(2) 0.88333(15) 0.32877(14)
C27 C 0.8220(2) 0.88230(15) 0.31633(15)
C28 C 0.8161(2) 0.76979(15) 0.29132(14)
C29 C 0.7537(2) 0.92526(15) 0.39827(16)
H21 H 0.7184 0.9372 0.3607
H22 H 0.7815 0.9650 0.4340
C30 C 0.6672(2) 0.77641(16) 0.27982(14)
H23 H 0.6458 0.7328 0.2498
H24 H 0.6408 0.8055 0.2566
C31 C 0.6908(2) 0.86992(16) 0.48027(16)
C32 C 0.6119(2) 0.81351(16) 0.37066(15)
H25 H 0.5720 0.8307 0.3407
C33 C 0.5639(2) 0.77260(16) 0.41555(15)
H26 H 0.5003 0.7689 0.4055
C34 C 0.6024(2) 0.69992(16) 0.35078(14)
C35 C 0.5943(2) 0.79879(16) 0.53902(15)
H27 H 0.5289 0.7874 0.5287
H28 H 0.6264 0.8405 0.5727
C36 C 0.5118(2) 0.64474(16) 0.41984(15)
H29 H 0.4994 0.6046 0.3880
H30 H 0.4534 0.6474 0.4178
C37 C 0.4576(2) 0.65894(19) 0.54778(17)
H31 H 0.4198 0.6106 0.5358
H32 H 0.4600 0.6767 0.5910
H33 H 0.4319 0.6824 0.5169
C38 C 0.5634(2) 0.61381(19) 0.65103(16)
H34 H 0.5621 0.6524 0.6769
H35 H 0.5017 0.5806 0.6299
H36 H 0.5983 0.5931 0.6790
C39 C 1.1513(2) 0.58384(17) 0.65446(17)
H37 H 1.2102 0.6142 0.6845
H38 H 1.1135 0.5589 0.6786
H39 H 1.1592 0.5520 0.6245
C40 C 1.2472(2) 0.65976(19) 0.57099(18)
H40 H 1.2339 0.6127 0.5536
H41 H 1.2756 0.6889 0.5445
H42 H 1.2882 0.6727 0.6154
C41 C 0.9813(2) 0.93424(18) 0.29621(17)
H43 H 0.9917 0.9803 0.3146
H44 H 1.0392 0.9298 0.3039
H45 H 0.9500 0.9245 0.2498
C42 C 0.7919(3) 0.92147(17) 0.26509(17)
H46 H 0.8310 0.9695 0.2792
H47 H 0.7962 0.9042 0.2240
H48 H 0.7294 0.9155 0.2597
N1 N 0.61536(17) 0.74296(13) 0.56516(13)
N2 N 0.69850(17) 0.69570(13) 0.62897(12)
N3 N 0.55451(18) 0.63586(13) 0.48527(12)
N4 N 0.61183(18) 0.58198(13) 0.55804(12)
N5 N 0.82869(18) 0.66431(13) 0.67247(13)
N6 N 0.96166(18) 0.65441(13) 0.68858(13)
N7 N 0.74270(18) 0.55085(14) 0.60166(13)
N8 N 0.87884(18) 0.55254(14) 0.60197(13)
N9 N 1.10123(18) 0.68092(13) 0.65925(13)
N10 N 1.17626(18) 0.73943(13) 0.59646(12)
N11 N 1.01479(17) 0.58356(14) 0.56908(12)
N12 N 1.08699(19) 0.64106(14) 0.50466(13)
N13 N 1.15470(18) 0.80902(13) 0.51523(12)
N14 N 1.08077(18) 0.86349(13) 0.45415(13)
N15 N 1.08107(19) 0.71182(13) 0.42207(13)
N16 N 1.01911(17) 0.77119(13) 0.35880(12)
N17 N 0.96073(17) 0.90069(13) 0.40096(12)
N18 N 0.82577(18) 0.91165(13) 0.38165(13)
N19 N 0.90395(18) 0.81275(13) 0.30312(12)
N20 N 0.76480(18) 0.80833(13) 0.29761(13)
N21 N 0.69186(18) 0.86928(13) 0.41736(13)
N22 N 0.61977(19) 0.81200(14) 0.48090(13)
N23 N 0.63415(17) 0.76396(13) 0.33587(12)
N24 N 0.56792(19) 0.70576(13) 0.40176(13)
O1 O 0.76434(15) 0.81136(11) 0.63017(11)
O2 O 0.96200(15) 0.76342(11) 0.70817(11)
O3 O 1.14965(16) 0.79899(11) 0.67787(11)
O4 O 1.12394(16) 0.89311(12) 0.56715(11)
O5 O 0.91854(15) 0.93263(11) 0.48917(10)
O6 O 0.74506(16) 0.91564(12) 0.52890(11)
O7 O 0.58585(17) 0.54398(11) 0.44794(11)
O8 O 0.75075(16) 0.48948(12) 0.51140(11)
O9 O 0.93762(16) 0.56244(12) 0.45755(11)
O10 O 0.95702(16) 0.65269(11) 0.32809(11)
O11 O 0.78346(16) 0.70705(11) 0.27348(11)
O12 O 0.60289(17) 0.64793(11) 0.32280(11)
C43 C 0.2526(2) 0.20418(17) 0.19314(15)
C44 C 0.1024(2) 0.13337(16) 0.12405(15)
C45 C 0.1454(2) 0.08972(17) 0.16788(15)
C46 C 0.1199(2) 0.04975(16) 0.05579(15)
C47 C 0.3008(2) 0.13217(19) 0.26340(16)
H49 H 0.3325 0.1752 0.2953
H50 H 0.2666 0.0978 0.2840
C48 C 0.1908(2) -0.00930(17) 0.13158(16)
H51 H 0.1662 -0.0455 0.0928
H52 H 0.1730 -0.0302 0.1668
C49 C 0.4596(2) 0.15206(17) 0.26953(15)
C50 C 0.3489(2) 0.04191(17) 0.21853(14)
H53 H 0.3263 0.0095 0.2459
C51 C 0.4434(2) 0.04623(17) 0.21451(14)
H54 H 0.4614 0.0115 0.2348
C52 C 0.3377(2) 0.01314(15) 0.10802(14)
C53 C 0.6041(2) 0.13893(18) 0.27085(15)
H55 H 0.6298 0.1785 0.3066
H56 H 0.6210 0.1028 0.2880
C54 C 0.4916(2) 0.01658(16) 0.11715(15)
H57 H 0.5129 -0.0136 0.1424
H58 H 0.4585 -0.0088 0.0723
C55 C 0.6820(2) 0.22420(16) 0.21455(14)
C56 C 0.65602(19) 0.10963(15) 0.17305(14)
C57 C 0.7209(2) 0.16103(15) 0.14001(14)
C58 C 0.5779(2) 0.09510(15) 0.06017(15)
C59 C 0.7694(2) 0.29274(16) 0.14976(15)
H59 H 0.7823 0.3298 0.1853
H60 H 0.8278 0.2953 0.1455
C60 C 0.6986(2) 0.16007(15) 0.01498(15)
H61 H 0.7646 0.1729 0.0283
H62 H 0.6705 0.1210 -0.0215
C61 C 0.6829(2) 0.35403(15) 0.09083(14)
C62 C 0.7293(2) 0.28736(15) 0.02700(14)
H63 H 0.7945 0.3026 0.0310
C63 C 0.6823(2) 0.32685(15) -0.01675(15)
H64 H 0.7242 0.3576 -0.0363
C64 C 0.6080(2) 0.20944(16) -0.06300(14)
C65 C 0.6343(2) 0.42288(15) 0.01329(15)
H65 H 0.6692 0.4457 -0.0140
H66 H 0.6538 0.4552 0.0542
C66 C 0.5486(2) 0.28555(16) -0.12277(15)
H67 H 0.5189 0.2445 -0.1572
H68 H 0.5873 0.3218 -0.1392
C67 C 0.4812(2) 0.41503(15) 0.01450(14)
C68 C 0.4875(2) 0.37646(15) -0.08947(14)
C69 C 0.3851(2) 0.36690(15) -0.09442(14)
C70 C 0.3919(2) 0.25822(15) -0.11744(14)
C71 C 0.3232(2) 0.40612(16) -0.00640(16)
H69 H 0.2861 0.4204 -0.0410
H70 H 0.3517 0.4432 0.0319
C72 C 0.2388(2) 0.25328(15) -0.12777(14)
H71 H 0.2080 0.2785 -0.1537
H72 H 0.2222 0.2091 -0.1553
C73 C 0.2665(2) 0.34015(16) 0.07419(16)
C74 C 0.1848(2) 0.29168(16) -0.03776(15)
H73 H 0.1481 0.3108 -0.0682
C75 C 0.1303(2) 0.25096(16) 0.00457(15)
H74 H 0.0710 0.2551 -0.0023
C76 C 0.1599(2) 0.17578(16) -0.06365(15)
C77 C 0.1684(2) 0.26523(17) 0.12914(16)
H75 H 0.1056 0.2611 0.1220
H76 H 0.2078 0.3031 0.1660
C78 C 0.0537(2) 0.12292(16) -0.00321(15)
H77 H 0.0305 0.0843 -0.0396
H78 H 0.0023 0.1340 -0.0001
C79 C 0.0117(2) 0.13250(19) 0.12953(18)
H79 H 0.0208 0.1531 0.1736
H80 H -0.0106 0.1580 0.0993
H81 H -0.0324 0.0858 0.1191
C80 C 0.0902(3) 0.0525(2) 0.21008(18)
H82 H 0.0315 0.0194 0.1821
H83 H 0.1231 0.0295 0.2365
H84 H 0.0813 0.0854 0.2382
C81 C 0.6914(2) 0.06058(17) 0.20523(15)
H85 H 0.7470 0.0859 0.2411
H86 H 0.6461 0.0307 0.2215
H87 H 0.7040 0.0336 0.1738
C82 C 0.8148(2) 0.15932(17) 0.15199(16)
H88 H 0.8085 0.1145 0.1331
H89 H 0.8497 0.1933 0.1321
H90 H 0.8460 0.1691 0.1985
C83 C 0.5297(2) 0.42232(16) -0.13241(16)
H91 H 0.4958 0.4018 -0.1779
H92 H 0.5276 0.4666 -0.1227
H93 H 0.5926 0.4276 -0.1238
C84 C 0.3411(2) 0.39990(16) -0.14558(16)
H94 H 0.3364 0.3791 -0.1884
H95 H 0.2808 0.3933 -0.1439
H96 H 0.3782 0.4483 -0.1369
N25 N 0.17534(19) 0.20272(14) 0.14698(13)
N26 N 0.23609(18) 0.14125(14) 0.20740(13)
N27 N 0.09181(18) 0.10243(13) 0.05766(12)
N28 N 0.14978(18) 0.03980(13) 0.11816(13)
N29 N 0.36845(19) 0.11124(15) 0.24695(14)
N30 N 0.50480(18) 0.11525(15) 0.24958(13)
N31 N 0.29011(17) 0.01912(14) 0.15008(13)
N32 N 0.42815(18) 0.03450(14) 0.14438(12)
N33 N 0.64531(17) 0.15776(13) 0.22029(12)
N34 N 0.72554(18) 0.22779(13) 0.16754(12)
N35 N 0.57074(17) 0.07557(13) 0.11726(12)
N36 N 0.66592(17) 0.13899(13) 0.06992(12)
N37 N 0.71677(18) 0.30349(13) 0.09027(12)
N38 N 0.65562(18) 0.36485(13) 0.02727(12)
N39 N 0.67830(17) 0.21686(13) -0.00708(12)
N40 N 0.60510(18) 0.27218(13) -0.06683(12)
N41 N 0.53648(17) 0.40545(13) -0.02010(12)
N42 N 0.39490(17) 0.39551(13) -0.02786(12)
N43 N 0.47797(17) 0.30592(12) -0.10902(12)
N44 N 0.33737(17) 0.29111(12) -0.10985(12)
N45 N 0.26314(18) 0.34513(13) 0.00994(13)
N46 N 0.19290(19) 0.28251(13) 0.07143(12)
N47 N 0.20507(18) 0.24147(13) -0.07241(12)
N48 N 0.11944(18) 0.18099(13) -0.01693(13)
O13 O 0.32324(16) 0.25624(12) 0.21943(12)
O14 O 0.49587(17) 0.21118(13) 0.30180(12)
O15 O 0.67916(18) 0.27326(12) 0.24734(12)
O16 O 0.67744(16) 0.38550(12) 0.13891(11)
O17 O 0.50810(16) 0.44026(12) 0.07365(10)
O18 O 0.32378(17) 0.38101(12) 0.12300(11)
O19 O 0.11437(15) 0.01435(11) 0.00549(10)
O20 O 0.30411(15) -0.00802(11) 0.04913(10)
O21 O 0.51648(14) 0.07471(11) 0.00672(10)
O22 O 0.55779(15) 0.15547(11) -0.10180(10)
O23 O 0.36827(16) 0.19559(11) -0.13295(10)
O24 O 0.15624(16) 0.12286(11) -0.09409(11)
Cl1 Cl 0.94890(7) 0.27640(6) 0.06159(6)
loop_
_geom_bond_atom_site_label_1
_geom_bond_atom_site_label_2
_geom_bond_site_symmetry_1
_geom_bond_site_symmetry_2
C1 N1 1_555 1_555
C2 C3 1_555 1_555
C3 C38 1_555 1_555
C4 N3 1_555 1_555
C5 H1 1_555 1_555
H2 C5 1_555 1_555
C6 H3 1_555 1_555
H4 C6 1_555 1_555
C7 N5 1_555 1_555
C8 H5 1_555 1_555
C9 C8 1_555 1_555
H6 C9 1_555 1_555
C10 N7 1_555 1_555
C11 H7 1_555 1_555
H8 C11 1_555 1_555
C12 H9 1_555 1_555
H10 C12 1_555 1_555
C13 N9 1_555 1_555
C14 C15 1_555 1_555
C15 C40 1_555 1_555
C16 N11 1_555 1_555
C17 H11 1_555 1_555
H12 C17 1_555 1_555
C18 H13 1_555 1_555
H14 C18 1_555 1_555
C19 N13 1_555 1_555
C20 H15 1_555 1_555
C21 C20 1_555 1_555
H16 C21 1_555 1_555
C22 N15 1_555 1_555
C23 H17 1_555 1_555
H18 C23 1_555 1_555
C24 H19 1_555 1_555
H20 C24 1_555 1_555
C25 N17 1_555 1_555
C26 C27 1_555 1_555
C27 C42 1_555 1_555
C28 N19 1_555 1_555
C29 H21 1_555 1_555
H22 C29 1_555 1_555
C30 H23 1_555 1_555
H24 C30 1_555 1_555
C31 N21 1_555 1_555
C32 H25 1_555 1_555
C33 C32 1_555 1_555
H26 C33 1_555 1_555
C34 N23 1_555 1_555
C35 H27 1_555 1_555
H28 C35 1_555 1_555
C36 H29 1_555 1_555
H30 C36 1_555 1_555
C37 C2 1_555 1_555
H31 C37 1_555 1_555
H32 C37 1_555 1_555
H33 C37 1_555 1_555
C38 H34 1_555 1_555
H35 C38 1_555 1_555
H36 C38 1_555 1_555
C39 C14 1_555 1_555
H37 C39 1_555 1_555
H38 C39 1_555 1_555
H39 C39 1_555 1_555
C40 H40 1_555 1_555
H41 C40 1_555 1_555
H42 C40 1_555 1_555
C41 C26 1_555 1_555
H43 C41 1_555 1_555
H44 C41 1_555 1_555
H45 C41 1_555 1_555
C42 H46 1_555 1_555
H47 C42 1_555 1_555
H48 C42 1_555 1_555
N1 C2 1_555 1_555
N2 C1 1_555 1_555
N3 C2 1_555 1_555
N4 C3 1_555 1_555
N5 C5 1_555 1_555
N6 C7 1_555 1_555
N7 C6 1_555 1_555
N8 C9 1_555 1_555
N9 C11 1_555 1_555
N10 C13 1_555 1_555
N11 C12 1_555 1_555
N12 C15 1_555 1_555
N13 C17 1_555 1_555
N14 C19 1_555 1_555
N15 C18 1_555 1_555
N16 C21 1_555 1_555
N17 C23 1_555 1_555
N18 C25 1_555 1_555
N19 C24 1_555 1_555
N20 C27 1_555 1_555
N21 C29 1_555 1_555
N22 C31 1_555 1_555
N23 C30 1_555 1_555
N24 C33 1_555 1_555
O1 C1 1_555 1_555
O2 C7 1_555 1_555
O3 C13 1_555 1_555
O4 C19 1_555 1_555
O5 C25 1_555 1_555
O6 C31 1_555 1_555
O7 C4 1_555 1_555
O8 C10 1_555 1_555
O9 C16 1_555 1_555
O10 C22 1_555 1_555
O11 C28 1_555 1_555
O12 C34 1_555 1_555
C43 N25 1_555 1_555
C44 C45 1_555 1_555
C45 C80 1_555 1_555
C46 N27 1_555 1_555
C47 H49 1_555 1_555
H50 C47 1_555 1_555
C48 H51 1_555 1_555
H52 C48 1_555 1_555
C49 N29 1_555 1_555
C50 H53 1_555 1_555
C51 C50 1_555 1_555
H54 C51 1_555 1_555
C52 N31 1_555 1_555
C53 H55 1_555 1_555
H56 C53 1_555 1_555
C54 H57 1_555 1_555
H58 C54 1_555 1_555
C55 N33 1_555 1_555
C56 C57 1_555 1_555
C57 C82 1_555 1_555
C58 N35 1_555 1_555
C59 H59 1_555 1_555
H60 C59 1_555 1_555
C60 H61 1_555 1_555
H62 C60 1_555 1_555
C61 N37 1_555 1_555
C62 H63 1_555 1_555
C63 C62 1_555 1_555
H64 C63 1_555 1_555
C64 N39 1_555 1_555
C65 H65 1_555 1_555
H66 C65 1_555 1_555
C66 H67 1_555 1_555
H68 C66 1_555 1_555
C67 N41 1_555 1_555
C68 C69 1_555 1_555
C69 C84 1_555 1_555
C70 N43 1_555 1_555
C71 H69 1_555 1_555
H70 C71 1_555 1_555
C72 H71 1_555 1_555
H72 C72 1_555 1_555
C73 N45 1_555 1_555
C74 H73 1_555 1_555
C75 C74 1_555 1_555
H74 C75 1_555 1_555
C76 N47 1_555 1_555
C77 H75 1_555 1_555
H76 C77 1_555 1_555
C78 H77 1_555 1_555
H78 C78 1_555 1_555
C79 C44 1_555 1_555
H79 C79 1_555 1_555
H80 C79 1_555 1_555
H81 C79 1_555 1_555
C80 H82 1_555 1_555
H83 C80 1_555 1_555
H84 C80 1_555 1_555
C81 C56 1_555 1_555
H85 C81 1_555 1_555
H86 C81 1_555 1_555
H87 C81 1_555 1_555
C82 H88 1_555 1_555
H89 C82 1_555 1_555
H90 C82 1_555 1_555
C83 C68 1_555 1_555
H91 C83 1_555 1_555
H92 C83 1_555 1_555
H93 C83 1_555 1_555
C84 H94 1_555 1_555
H95 C84 1_555 1_555
H96 C84 1_555 1_555
N25 C44 1_555 1_555
N26 C43 1_555 1_555
N27 C44 1_555 1_555
N28 C45 1_555 1_555
N29 C47 1_555 1_555
N30 C49 1_555 1_555
N31 C48 1_555 1_555
N32 C51 1_555 1_555
N33 C53 1_555 1_555
N34 C55 1_555 1_555
N35 C54 1_555 1_555
N36 C57 1_555 1_555
N37 C59 1_555 1_555
N38 C61 1_555 1_555
N39 C60 1_555 1_555
N40 C63 1_555 1_555
N41 C65 1_555 1_555
N42 C67 1_555 1_555
N43 C66 1_555 1_555
N44 C69 1_555 1_555
N45 C71 1_555 1_555
N46 C73 1_555 1_555
N47 C72 1_555 1_555
N48 C75 1_555 1_555
O13 C43 1_555 1_555
O14 C49 1_555 1_555
O15 C55 1_555 1_555
O16 C61 1_555 1_555
O17 C67 1_555 1_555
O18 C73 1_555 1_555
O19 C46 1_555 1_555
O20 C52 1_555 1_555
O21 C58 1_555 1_555
O22 C64 1_555 1_555
O23 C70 1_555 1_555
O24 C76 1_555 1_555
C3 N2 1_555 1_555
C4 N4 1_555 1_555
C5 N2 1_555 1_555
C6 N4 1_555 1_555
C8 N5 1_555 1_555
C8 N7 1_555 1_555
C9 N6 1_555 1_555
C10 N8 1_555 1_555
C11 N6 1_555 1_555
C12 N8 1_555 1_555
C14 N9 1_555 1_555
C14 N11 1_555 1_555
C15 N10 1_555 1_555
C16 N12 1_555 1_555
C17 N10 1_555 1_555
C18 N12 1_555 1_555
C20 N13 1_555 1_555
C20 N15 1_555 1_555
C21 N14 1_555 1_555
C22 N16 1_555 1_555
C23 N14 1_555 1_555
C24 N16 1_555 1_555
C26 N17 1_555 1_555
C26 N19 1_555 1_555
C27 N18 1_555 1_555
C28 N20 1_555 1_555
C29 N18 1_555 1_555
C30 N20 1_555 1_555
C32 N21 1_555 1_555
C32 N23 1_555 1_555
C33 N22 1_555 1_555
C34 N24 1_555 1_555
C35 N1 1_555 1_555
C35 N22 1_555 1_555
C36 N3 1_555 1_555
C36 N24 1_555 1_555
C45 N26 1_555 1_555
C46 N28 1_555 1_555
C47 N26 1_555 1_555
C48 N28 1_555 1_555
C50 N29 1_555 1_555
C50 N31 1_555 1_555
C51 N30 1_555 1_555
C52 N32 1_555 1_555
C53 N30 1_555 1_555
C54 N32 1_555 1_555
C56 N33 1_555 1_555
C56 N35 1_555 1_555
C57 N34 1_555 1_555
C58 N36 1_555 1_555
C59 N34 1_555 1_555
C60 N36 1_555 1_555
C62 N37 1_555 1_555
C62 N39 1_555 1_555
C63 N38 1_555 1_555
C64 N40 1_555 1_555
C65 N38 1_555 1_555
C66 N40 1_555 1_555
C68 N41 1_555 1_555
C68 N43 1_555 1_555
C69 N42 1_555 1_555
C70 N44 1_555 1_555
C71 N42 1_555 1_555
C72 N44 1_555 1_555
C74 N45 1_555 1_555
C74 N47 1_555 1_555
C75 N46 1_555 1_555
C76 N48 1_555 1_555
C77 N25 1_555 1_555
C77 N46 1_555 1_555
C78 N27 1_555 1_555
C78 N48 1_555 1_555

#END
