
#######################################################################
#
#                 Cambridge Crystallographic Data Centre
#                                CCDC 
#
#######################################################################
#
# If this CIF has been generated from an entry in the Cambridge 
# Structural Database, then it will include bibliographic, chemical, 
# crystal, experimental, refinement or atomic coordinate data resulting 
# from the CCDC's data processing and validation procedures.
#
#######################################################################

data_VIPBAA
_chemical_formula_moiety         'C25 H20 N4 O2'
_chemical_name_systematic        
'4-(4-methylphenyl)-6-(pyrimidin-2-yl)-4,5,6,10c-tetrahydropyrrolo[3,4-c]carbazole-1,3(2H,3aH)-dione unknown solvate'
_symmetry_cell_setting           triclinic
_symmetry_space_group_name_H-M   'P -1'
_symmetry_Int_Tables_number      2
_space_group_name_Hall           '-P 1'
loop_
_symmetry_equiv_pos_site_id
_symmetry_equiv_pos_as_xyz
1 x,y,z
2 -x,-y,-z
_cell_length_a                   9.1577(9)
_cell_length_b                   10.7173(7)
_cell_length_c                   13.3021(10)
_cell_angle_alpha                106.893(3)
_cell_angle_beta                 91.497(4)
_cell_angle_gamma                91.349(3)
_cell_volume                     1248.12
_exptl_crystal_colour            colorless
_cell_formula_units_Z            2
loop_
_atom_site_label
_atom_site_type_symbol
_atom_site_fract_x
_atom_site_fract_y
_atom_site_fract_z
C1 C 0.4103(6) 0.5204(9) 0.1081(4)
C2 C 0.5162(4) 0.4903(5) 0.1861(3)
H1 H 0.5534 0.4001 0.1587
C3 C 0.4389(4) 0.5068(4) 0.2872(3)
C4 C 0.3210(4) 0.4276(4) 0.3074(3)
C5 C 0.2465(5) 0.3149(5) 0.2451(4)
H2 H 0.2722 0.2762 0.1744
C6 C 0.1353(6) 0.2614(5) 0.2884(4)
H3 H 0.0845 0.1844 0.2473
C7 C 0.0962(5) 0.3188(4) 0.3918(4)
H4 H 0.0193 0.2797 0.4198
C8 C 0.1666(4) 0.4312(4) 0.4547(3)
H5 H 0.1380 0.4711 0.5246
C9 C 0.2812(4) 0.4833(4) 0.4111(3)
C10 C 0.4698(4) 0.6062(4) 0.3758(3)
C11 C 0.5964(4) 0.7004(4) 0.3907(3)
H6 H 0.6386 0.7196 0.4631
H7 H 0.5645 0.7831 0.3795
C12 C 0.7114(4) 0.6379(4) 0.3102(3)
H8 H 0.7387 0.5558 0.3265
C13 C 0.6401(5) 0.5939(4) 0.1987(3)
H9 H 0.7175 0.5545 0.1486
C14 C 0.5679(8) 0.6981(5) 0.1591(4)
C15 C 0.3581(4) 0.6886(4) 0.5517(3)
C16 C 0.2675(6) 0.7405(4) 0.7140(3)
H10 H 0.2144 0.7176 0.7669
C17 C 0.3211(7) 0.8662(5) 0.7338(4)
H11 H 0.3068 0.9305 0.7988
C18 C 0.3966(5) 0.8939(4) 0.6545(4)
H12 H 0.4381 0.9793 0.6668
C19 C 0.8519(4) 0.7183(4) 0.3212(3)
C20 C 0.8583(5) 0.8532(4) 0.3539(4)
H13 H 0.7704 0.8993 0.3691
C21 C 0.9902(5) 0.9227(5) 0.3650(4)
H14 H 0.9905 1.0153 0.3874
C22 C 1.1214(5) 0.8608(5) 0.3443(4)
C23 C 1.1155(5) 0.7253(4) 0.3104(4)
H15 H 1.2035 0.6796 0.2939
C24 C 0.9841(4) 0.6556(4) 0.3000(3)
H16 H 0.9840 0.5630 0.2779
C25 C 1.2666(5) 0.9361(5) 0.3565(5)
H17 H 1.2493 1.0299 0.3768
H18 H 1.3165 0.9111 0.2896
H19 H 1.3278 0.9160 0.4109
N1 N 0.4393(6) 0.6437(7) 0.1044(3)
H20 H 0.3826 0.6849 0.0710
N2 N 0.3731(3) 0.5952(3) 0.4538(2)
N3 N 0.2873(4) 0.6488(3) 0.6231(3)
N4 N 0.4146(4) 0.8074(3) 0.5614(3)
O1 O 0.3095(4) 0.4528(7) 0.0579(3)
O2 O 0.6087(8) 0.8076(4) 0.1721(3)
loop_
_geom_bond_atom_site_label_1
_geom_bond_atom_site_label_2
_geom_bond_site_symmetry_1
_geom_bond_site_symmetry_2
C1 C2 1_555 1_555
C2 H1 1_555 1_555
C3 C2 1_555 1_555
C4 C3 1_555 1_555
C5 C4 1_555 1_555
H2 C5 1_555 1_555
C6 C5 1_555 1_555
H3 C6 1_555 1_555
C7 C6 1_555 1_555
H4 C7 1_555 1_555
C8 C7 1_555 1_555
H5 C8 1_555 1_555
C9 C4 1_555 1_555
C10 C3 1_555 1_555
C11 C10 1_555 1_555
H6 C11 1_555 1_555
H7 C11 1_555 1_555
C12 C11 1_555 1_555
H8 C12 1_555 1_555
C13 C2 1_555 1_555
H9 C13 1_555 1_555
C14 C13 1_555 1_555
C15 N2 1_555 1_555
C16 H10 1_555 1_555
C17 C16 1_555 1_555
H11 C17 1_555 1_555
C18 C17 1_555 1_555
H12 C18 1_555 1_555
C19 C12 1_555 1_555
C20 C19 1_555 1_555
H13 C20 1_555 1_555
C21 C20 1_555 1_555
H14 C21 1_555 1_555
C22 C21 1_555 1_555
C23 C22 1_555 1_555
H15 C23 1_555 1_555
C24 C19 1_555 1_555
H16 C24 1_555 1_555
C25 C22 1_555 1_555
H17 C25 1_555 1_555
H18 C25 1_555 1_555
H19 C25 1_555 1_555
N1 C1 1_555 1_555
H20 N1 1_555 1_555
N2 C9 1_555 1_555
N3 C15 1_555 1_555
N4 C15 1_555 1_555
O1 C1 1_555 1_555
O2 C14 1_555 1_555
C8 C9 1_555 1_555
C10 N2 1_555 1_555
C12 C13 1_555 1_555
C14 N1 1_555 1_555
C16 N3 1_555 1_555
C18 N4 1_555 1_555
C23 C24 1_555 1_555

#END
