
#######################################################################
#
#                 Cambridge Crystallographic Data Centre
#                                CCDC 
#
#######################################################################
#
# If this CIF has been generated from an entry in the Cambridge 
# Structural Database, then it will include bibliographic, chemical, 
# crystal, experimental, refinement or atomic coordinate data resulting 
# from the CCDC's data processing and validation procedures.
#
#######################################################################

data_VIPCAY
_chemical_formula_moiety         'C17 H22 O3'
_chemical_name_systematic        
2-(2,6-Dimethoxyphenyl)-6,6-dimethylbicyclo(3.1.1)hept-3-en-2-ol
_symmetry_cell_setting           hexagonal
_symmetry_space_group_name_H-M   'P 61'
_symmetry_Int_Tables_number      169
_space_group_name_Hall           'P 61'
loop_
_symmetry_equiv_pos_site_id
_symmetry_equiv_pos_as_xyz
1 x,y,z
2 -y,x-y,1/3+z
3 -x+y,-x,2/3+z
4 -x,-y,1/2+z
5 y,-x+y,5/6+z
6 x-y,x,1/6+z
_cell_length_a                   10.257(4)
_cell_length_b                   10.257(4)
_cell_length_c                   24.313(15)
_cell_angle_alpha                90
_cell_angle_beta                 90
_cell_angle_gamma                120
_cell_volume                     2215.18
_exptl_crystal_colour            colorless
_chemical_melting_point          147-148deg.C
_cell_formula_units_Z            6
loop_
_atom_site_label
_atom_site_type_symbol
_atom_site_fract_x
_atom_site_fract_y
_atom_site_fract_z
O1 O 0.6057(3) 0.2991(3) 0.3333(6)
O2 O 0.8017(3) 0.4149(3) 0.2523(6)
O3 O 0.7753(3) 0.7265(3) 0.3888(6)
C1 C 0.6164(4) 0.4442(4) 0.3285(6)
C2 C 0.5290(4) 0.4526(4) 0.2793(6)
C3 C 0.3515(4) 0.3548(4) 0.2851(6)
C4 C 0.3687(5) 0.4860(4) 0.3219(6)
C5 C 0.4226(5) 0.4727(4) 0.3769(6)
C6 C 0.5447(5) 0.4577(4) 0.3802(6)
C7 C 0.5075(4) 0.5910(5) 0.2867(6)
C8 C 0.2770(5) 0.3457(6) 0.2301(6)
C9 C 0.2756(4) 0.1975(4) 0.3103(6)
C10 C 0.7856(4) 0.5668(4) 0.3216(6)
C11 C 0.8748(4) 0.5454(4) 0.2829(6)
C12 C 1.0271(4) 0.6463(5) 0.2764(6)
C13 C 1.0924(5) 0.7733(5) 0.3078(6)
C14 C 1.0139(5) 0.8006(4) 0.3458(6)
C15 C 0.8599(4) 0.6995(4) 0.3523(6)
C16 C 0.8856(6) 0.3843(6) 0.2141(6)
C17 C 0.8431(7) 0.8436(6) 0.4271(6)
H1 H 0.6434 0.2789 0.2907
H2 H 0.5673 0.4444 0.2441
H3 H 0.2852 0.5035 0.3213
H4 H 0.3721 0.4757 0.4098
H5 H 0.5862 0.4543 0.4152
H6 H 0.4836 0.6243 0.2533
H7 H 0.5858 0.6733 0.3068
H8 H 0.2888 0.2847 0.2048
H9 H 0.3073 0.4327 0.2100
H10 H 0.1859 0.2986 0.2272
H11 H 0.3092 0.1939 0.3457
H12 H 0.1856 0.1666 0.3187
H13 H 0.2674 0.1186 0.2871
H14 H 1.0854 0.6256 0.2506
H15 H 1.1966 0.8456 0.3022
H16 H 1.0621 0.8889 0.3684
H17 H 0.8337 0.2806 0.2005
H18 H 0.9825 0.3952 0.2454
H19 H 0.9375 0.4823 0.1858
H20 H 0.7587 0.8447 0.4520
H21 H 0.8968 0.9437 0.4051
H22 H 0.9338 0.8536 0.4468
loop_
_geom_bond_atom_site_label_1
_geom_bond_atom_site_label_2
_geom_bond_site_symmetry_1
_geom_bond_site_symmetry_2
O1 C1 1_555 1_555
O2 C11 1_555 1_555
O3 C15 1_555 1_555
C1 C2 1_555 1_555
C2 C3 1_555 1_555
C3 C4 1_555 1_555
C4 C5 1_555 1_555
C5 C6 1_555 1_555
C6 C1 1_555 1_555
C7 C2 1_555 1_555
C8 C3 1_555 1_555
C9 C3 1_555 1_555
C10 C1 1_555 1_555
C11 C10 1_555 1_555
C12 C11 1_555 1_555
C13 C12 1_555 1_555
C14 C13 1_555 1_555
C15 C10 1_555 1_555
C16 O2 1_555 1_555
C17 O3 1_555 1_555
H1 O1 1_555 1_555
H2 C2 1_555 1_555
H3 C4 1_555 1_555
H4 C5 1_555 1_555
H5 C6 1_555 1_555
H6 C7 1_555 1_555
H7 C7 1_555 1_555
H8 C8 1_555 1_555
H9 C8 1_555 1_555
H10 C8 1_555 1_555
H11 C9 1_555 1_555
H12 C9 1_555 1_555
H13 C9 1_555 1_555
H14 C12 1_555 1_555
H15 C13 1_555 1_555
H16 C14 1_555 1_555
H17 C16 1_555 1_555
H18 C16 1_555 1_555
H19 C16 1_555 1_555
H20 C17 1_555 1_555
H21 C17 1_555 1_555
H22 C17 1_555 1_555
C4 C7 1_555 1_555
C14 C15 1_555 1_555

#END
