
#######################################################################
#
#                 Cambridge Crystallographic Data Centre
#                                CCDC 
#
#######################################################################
#
# If this CIF has been generated from an entry in the Cambridge 
# Structural Database, then it will include bibliographic, chemical, 
# crystal, experimental, refinement or atomic coordinate data resulting 
# from the CCDC's data processing and validation procedures.
#
#######################################################################

data_VIPDOP
_chemical_formula_moiety         'C21 H23 N3 O3'
_chemical_name_systematic        
'Ethyl 8-oxo-1,4-diphenylhexahydro-6H-pyrazolo[1,2-a][1,2,4]triazine-3-carboxylate'
_symmetry_cell_setting           triclinic
_symmetry_space_group_name_H-M   'P -1'
_symmetry_Int_Tables_number      2
_space_group_name_Hall           '-P 1'
loop_
_symmetry_equiv_pos_site_id
_symmetry_equiv_pos_as_xyz
1 x,y,z
2 -x,-y,-z
_cell_length_a                   7.7984(16)
_cell_length_b                   12.308(3)
_cell_length_c                   20.443(4)
_cell_angle_alpha                86.23(3)
_cell_angle_beta                 79.79(3)
_cell_angle_gamma                88.39(3)
_cell_volume                     1926.65
_exptl_crystal_colour            colorless
_exptl_crystal_description       rod
_cell_formula_units_Z            4
loop_
_atom_site_label
_atom_site_type_symbol
_atom_site_fract_x
_atom_site_fract_y
_atom_site_fract_z
O1 O -0.1382(3) 0.10337(18) 0.15448(11)
O2 O 0.2961(3) 0.02095(15) 0.34680(10)
O3 O 0.3445(3) 0.17299(15) 0.39564(10)
N1 N -0.0412(3) 0.22533(19) 0.21920(12)
N2 N -0.0870(3) 0.26493(19) 0.28489(13)
N3 N 0.2435(3) 0.16293(18) 0.23770(12)
H1 H 0.2385 0.0911 0.2357
C1 C -0.1607(4) 0.1567(3) 0.20367(17)
C2 C -0.3196(4) 0.1617(3) 0.25765(16)
H2 H -0.3316 0.0937 0.2867
H3 H -0.4270 0.1747 0.2386
C3 C -0.2814(4) 0.2576(3) 0.29553(17)
H4 H -0.3333 0.3256 0.2782
H5 H -0.3298 0.2456 0.3435
C4 C 0.1452(4) 0.2215(2) 0.19193(16)
H6 H 0.1597 0.1797 0.1509
C5 C 0.2193(4) 0.3345(2) 0.17076(15)
C6 C 0.1158(4) 0.4268(2) 0.16735(17)
H7 H -0.0064 0.4228 0.1825
C7 C 0.1899(5) 0.5262(3) 0.14172(18)
H8 H 0.1178 0.5893 0.1395
C8 C 0.3662(5) 0.5330(3) 0.11969(19)
H9 H 0.4161 0.6004 0.1017
C9 C 0.4706(5) 0.4413(3) 0.12390(19)
H10 H 0.5930 0.4460 0.1094
C10 C 0.3982(4) 0.3427(2) 0.14911(16)
H11 H 0.4711 0.2800 0.1517
C11 C 0.1920(4) 0.1936(2) 0.30612(15)
H12 H 0.2306 0.2697 0.3088
C12 C 0.2841(4) 0.1188(2) 0.35060(15)
C13 C 0.4187(4) 0.1090(2) 0.44684(15)
H13 H 0.5278 0.0718 0.4269
H14 H 0.3355 0.0534 0.4694
C14 C 0.4547(5) 0.1876(3) 0.49527(16)
H15 H 0.5424 0.2394 0.4728
H16 H 0.4982 0.1477 0.5322
H17 H 0.3470 0.2271 0.5125
C15 C -0.0083(4) 0.1889(2) 0.33164(15)
H18 H -0.0496 0.1134 0.3291
C16 C -0.0541(4) 0.2222(2) 0.40230(15)
C17 C -0.0667(4) 0.3306(3) 0.41747(17)
H19 H -0.0562 0.3866 0.3827
C18 C -0.0945(4) 0.3573(3) 0.4833(2)
H20 H -0.1053 0.4316 0.4936
C19 C -0.1068(5) 0.2769(3) 0.5342(2)
H21 H -0.1221 0.2959 0.5792
C20 C -0.0970(5) 0.1691(3) 0.51967(18)
H22 H -0.1069 0.1135 0.5546
C21 C -0.0728(4) 0.1422(3) 0.45442(17)
H23 H -0.0688 0.0677 0.4447
O4 O 0.7585(3) 0.93331(17) 0.36425(11)
O5 O 0.3473(3) 0.96316(17) 0.15881(11)
O6 O 0.4032(3) 0.82118(16) 0.09514(11)
N4 N 0.7088(3) 0.80206(18) 0.29532(12)
N5 N 0.7825(3) 0.76303(19) 0.23118(12)
N6 N 0.4264(3) 0.83338(18) 0.26431(12)
H24 H 0.4100 0.9047 0.2679
C22 C 0.8051(4) 0.8801(2) 0.31543(17)
C23 C 0.9778(4) 0.8831(3) 0.26846(16)
H25 H 1.0762 0.8762 0.2932
H26 H 0.9895 0.9514 0.2397
C24 C 0.9705(4) 0.7849(2) 0.22775(17)
H27 H 1.0279 0.8008 0.1810
H28 H 1.0299 0.7212 0.2465
C25 C 0.5205(4) 0.7877(2) 0.31530(15)
H29 H 0.4818 0.8287 0.3561
C26 C 0.4803(4) 0.6675(2) 0.33394(15)
C27 C 0.5682(4) 0.6097(3) 0.37843(17)
H30 H 0.6612 0.6426 0.3938
C28 C 0.5212(5) 0.5041(3) 0.40078(18)
H31 H 0.5812 0.4656 0.4319
C29 C 0.3885(5) 0.4545(3) 0.37832(18)
H32 H 0.3562 0.3823 0.3941
C30 C 0.3025(4) 0.5107(2) 0.33258(18)
H33 H 0.2132 0.4764 0.3157
C31 C 0.3470(4) 0.6169(2) 0.31154(16)
H34 H 0.2851 0.6559 0.2812
C32 C 0.5045(4) 0.8077(2) 0.19711(15)
H35 H 0.4857 0.7288 0.1923
C33 C 0.4094(4) 0.8735(2) 0.14938(16)
C34 C 0.3301(4) 0.8810(3) 0.04207(17)
H36 H 0.3760 0.9558 0.0347
H37 H 0.2016 0.8856 0.0540
C35 C 0.3832(5) 0.8194(3) -0.01947(18)
H38 H 0.3316 0.8548 -0.0559
H39 H 0.3423 0.7444 -0.0107
H40 H 0.5105 0.8188 -0.0320
C36 C 0.7033(4) 0.8287(2) 0.17965(15)
H41 H 0.7255 0.9077 0.1824
C37 C 0.7813(4) 0.7934(2) 0.11142(15)
C38 C 0.7956(4) 0.6838(2) 0.09808(17)
H42 H 0.7592 0.6298 0.1328
C39 C 0.8623(4) 0.6529(3) 0.03486(18)
H43 H 0.8714 0.5778 0.0263
C40 C 0.9157(4) 0.7302(3) -0.01609(18)
H44 H 0.9623 0.7085 -0.0595
C41 C 0.9012(4) 0.8395(3) -0.00366(17)
H45 H 0.9377 0.8931 -0.0386
C42 C 0.8335(4) 0.8709(3) 0.05980(16)
H46 H 0.8227 0.9461 0.0680
loop_
_geom_bond_atom_site_label_1
_geom_bond_atom_site_label_2
_geom_bond_site_symmetry_1
_geom_bond_site_symmetry_2
O1 C1 1_555 1_555
O2 C12 1_555 1_555
O3 C12 1_555 1_555
N1 N2 1_555 1_555
N2 C3 1_555 1_555
N3 H1 1_555 1_555
C1 N1 1_555 1_555
C2 C1 1_555 1_555
H2 C2 1_555 1_555
H3 C2 1_555 1_555
C3 C2 1_555 1_555
H4 C3 1_555 1_555
H5 C3 1_555 1_555
C4 N1 1_555 1_555
H6 C4 1_555 1_555
C5 C4 1_555 1_555
C6 C5 1_555 1_555
H7 C6 1_555 1_555
C7 C6 1_555 1_555
H8 C7 1_555 1_555
C8 C7 1_555 1_555
H9 C8 1_555 1_555
C9 C8 1_555 1_555
H10 C9 1_555 1_555
C10 C5 1_555 1_555
H11 C10 1_555 1_555
C11 N3 1_555 1_555
H12 C11 1_555 1_555
C12 C11 1_555 1_555
C13 O3 1_555 1_555
H13 C13 1_555 1_555
H14 C13 1_555 1_555
C14 C13 1_555 1_555
H15 C14 1_555 1_555
H16 C14 1_555 1_555
H17 C14 1_555 1_555
C15 N2 1_555 1_555
H18 C15 1_555 1_555
C16 C15 1_555 1_555
C17 C16 1_555 1_555
H19 C17 1_555 1_555
C18 C17 1_555 1_555
H20 C18 1_555 1_555
C19 C18 1_555 1_555
H21 C19 1_555 1_555
C20 C19 1_555 1_555
H22 C20 1_555 1_555
C21 C16 1_555 1_555
H23 C21 1_555 1_555
O4 C22 1_555 1_555
O5 C33 1_555 1_555
O6 C33 1_555 1_555
N4 N5 1_555 1_555
N5 C24 1_555 1_555
N6 H24 1_555 1_555
C22 N4 1_555 1_555
C23 C22 1_555 1_555
H25 C23 1_555 1_555
H26 C23 1_555 1_555
C24 C23 1_555 1_555
H27 C24 1_555 1_555
H28 C24 1_555 1_555
C25 N4 1_555 1_555
H29 C25 1_555 1_555
C26 C25 1_555 1_555
C27 C26 1_555 1_555
H30 C27 1_555 1_555
C28 C27 1_555 1_555
H31 C28 1_555 1_555
C29 C28 1_555 1_555
H32 C29 1_555 1_555
C30 C29 1_555 1_555
H33 C30 1_555 1_555
C31 C26 1_555 1_555
H34 C31 1_555 1_555
C32 N6 1_555 1_555
H35 C32 1_555 1_555
C33 C32 1_555 1_555
C34 O6 1_555 1_555
H36 C34 1_555 1_555
H37 C34 1_555 1_555
C35 C34 1_555 1_555
H38 C35 1_555 1_555
H39 C35 1_555 1_555
H40 C35 1_555 1_555
C36 N5 1_555 1_555
H41 C36 1_555 1_555
C37 C36 1_555 1_555
C38 C37 1_555 1_555
H42 C38 1_555 1_555
C39 C38 1_555 1_555
H43 C39 1_555 1_555
C40 C39 1_555 1_555
H44 C40 1_555 1_555
C41 C40 1_555 1_555
H45 C41 1_555 1_555
C42 C37 1_555 1_555
H46 C42 1_555 1_555
N3 C4 1_555 1_555
C9 C10 1_555 1_555
C11 C15 1_555 1_555
C20 C21 1_555 1_555
N6 C25 1_555 1_555
C30 C31 1_555 1_555
C32 C36 1_555 1_555
C41 C42 1_555 1_555

#END
