
#######################################################################
#
#                 Cambridge Crystallographic Data Centre
#                                CCDC 
#
#######################################################################
#
# If this CIF has been generated from an entry in the Cambridge 
# Structural Database, then it will include bibliographic, chemical, 
# crystal, experimental, refinement or atomic coordinate data resulting 
# from the CCDC's data processing and validation procedures.
#
#######################################################################

data_VIPDUV
_chemical_formula_moiety         'C21 H22 Br1 N3 O3'
_chemical_name_systematic        
'Ethyl 4-(2-bromophenyl)-8-oxo-1-phenylhexahydro-6H-pyrazolo[1,2-a][1,2,4]triazine-3-carboxylate'
_symmetry_cell_setting           orthorhombic
_symmetry_space_group_name_H-M   'P 21 21 21'
_symmetry_Int_Tables_number      19
_space_group_name_Hall           'P 2ac 2ab'
loop_
_symmetry_equiv_pos_site_id
_symmetry_equiv_pos_as_xyz
1 x,y,z
2 1/2-x,-y,1/2+z
3 -x,1/2+y,1/2-z
4 1/2+x,1/2-y,-z
_cell_length_a                   8.7551(18)
_cell_length_b                   13.090(3)
_cell_length_c                   16.971(3)
_cell_angle_alpha                90
_cell_angle_beta                 90
_cell_angle_gamma                90
_cell_volume                     1944.95
_exptl_crystal_colour            colorless
_exptl_crystal_description       block
_cell_formula_units_Z            4
loop_
_atom_site_label
_atom_site_type_symbol
_atom_site_fract_x
_atom_site_fract_y
_atom_site_fract_z
Br1 Br 0.22656(4) 0.69158(2) 0.821720(19)
O1 O -0.2736(3) 0.73528(14) 0.50251(12)
O2 O 0.3819(2) 0.55780(18) 0.61951(14)
O3 O 0.3146(2) 0.41631(14) 0.68545(11)
N1 N -0.1255(3) 0.63200(16) 0.57904(13)
N2 N -0.1250(3) 0.59029(16) 0.65777(12)
N3 N 0.1080(3) 0.55114(17) 0.54116(13)
H1 H 0.1568 0.6079 0.5369
C1 C -0.2014(3) 0.6718(2) 0.70416(16)
H2 H -0.1261 0.7222 0.7238
H3 H -0.2572 0.6426 0.7496
C2 C -0.3117(3) 0.7212(2) 0.64555(17)
H4 H -0.4142 0.6895 0.6488
H5 H -0.3212 0.7955 0.6553
C3 C -0.2380(3) 0.70044(19) 0.56628(16)
C4 C -0.0484(3) 0.5723(2) 0.51870(15)
H6 H -0.0456 0.6145 0.4696
C5 C -0.1350(3) 0.4735(2) 0.49953(15)
C6 C -0.2825(4) 0.45634(19) 0.52303(16)
H7 H -0.3321 0.5050 0.5558
C7 C -0.3614(4) 0.3685(2) 0.49963(19)
H8 H -0.4639 0.3577 0.5160
C8 C -0.2886(4) 0.2978(2) 0.45257(19)
H9 H -0.3409 0.2377 0.4366
C9 C -0.1413(4) 0.3139(3) 0.42879(18)
H10 H -0.0924 0.2652 0.3959
C10 C -0.0630(4) 0.4005(2) 0.45228(18)
H11 H 0.0399 0.4105 0.4362
C11 C 0.1183(3) 0.5093(2) 0.62086(16)
H12 H 0.0707 0.4398 0.6212
C12 C 0.2871(3) 0.4988(2) 0.64118(16)
C13 C 0.4719(3) 0.4033(2) 0.71154(18)
H13 H 0.5419 0.4225 0.6681
H14 H 0.4899 0.3304 0.7242
C14 C 0.5073(4) 0.4671(3) 0.78256(19)
H15 H 0.4993 0.5396 0.7688
H16 H 0.6113 0.4522 0.8006
H17 H 0.4346 0.4511 0.8247
C15 C 0.0362(3) 0.57657(19) 0.68288(16)
H18 H 0.0874 0.6448 0.6857
C16 C 0.0361(3) 0.5284(2) 0.76330(16)
C17 C 0.1194(3) 0.5645(2) 0.82723(17)
C18 C 0.1260(4) 0.5129(3) 0.89877(17)
H19 H 0.1879 0.5379 0.9405
C19 C 0.0414(4) 0.4249(3) 0.90812(18)
H20 H 0.0449 0.3888 0.9567
C20 C -0.0480(4) 0.3890(2) 0.84744(18)
H21 H -0.1093 0.3299 0.8548
C21 C -0.0484(3) 0.4394(2) 0.77570(17)
H22 H -0.1079 0.4126 0.7337
loop_
_geom_bond_atom_site_label_1
_geom_bond_atom_site_label_2
_geom_bond_site_symmetry_1
_geom_bond_site_symmetry_2
Br1 C17 1_555 1_555
O1 C3 1_555 1_555
O2 C12 1_555 1_555
O3 C12 1_555 1_555
N1 N2 1_555 1_555
N2 C1 1_555 1_555
N3 H1 1_555 1_555
C1 H2 1_555 1_555
H3 C1 1_555 1_555
C2 C1 1_555 1_555
H4 C2 1_555 1_555
H5 C2 1_555 1_555
C3 N1 1_555 1_555
C4 N1 1_555 1_555
H6 C4 1_555 1_555
C5 C4 1_555 1_555
C6 C5 1_555 1_555
H7 C6 1_555 1_555
C7 C6 1_555 1_555
H8 C7 1_555 1_555
C8 C7 1_555 1_555
H9 C8 1_555 1_555
C9 C8 1_555 1_555
H10 C9 1_555 1_555
C10 C5 1_555 1_555
H11 C10 1_555 1_555
C11 N3 1_555 1_555
H12 C11 1_555 1_555
C12 C11 1_555 1_555
C13 O3 1_555 1_555
H13 C13 1_555 1_555
H14 C13 1_555 1_555
C14 C13 1_555 1_555
H15 C14 1_555 1_555
H16 C14 1_555 1_555
H17 C14 1_555 1_555
C15 N2 1_555 1_555
H18 C15 1_555 1_555
C16 C15 1_555 1_555
C17 C16 1_555 1_555
C18 C17 1_555 1_555
H19 C18 1_555 1_555
C19 C18 1_555 1_555
H20 C19 1_555 1_555
C20 C19 1_555 1_555
H21 C20 1_555 1_555
C21 C16 1_555 1_555
H22 C21 1_555 1_555
N3 C4 1_555 1_555
C2 C3 1_555 1_555
C9 C10 1_555 1_555
C11 C15 1_555 1_555
C20 C21 1_555 1_555

#END
