
#######################################################################
#
#                 Cambridge Crystallographic Data Centre
#                                CCDC 
#
#######################################################################
#
# If this CIF has been generated from an entry in the Cambridge 
# Structural Database, then it will include bibliographic, chemical, 
# crystal, experimental, refinement or atomic coordinate data resulting 
# from the CCDC's data processing and validation procedures.
#
#######################################################################

data_VIPGAF
_chemical_formula_moiety         'C30 H24 N2 O3,C1 H1 Cl3'
_chemical_name_systematic        
"phenyl(6a-phenyl-6a,6b-dihydro-5H,8H,14H-dibenzo[d,d']imidazo[4,3-b:5,1-b']bis[1,3]oxazin-14-yl)methanone chloroform solvate"
_symmetry_cell_setting           monoclinic
_symmetry_space_group_name_H-M   'P 21/c'
_symmetry_Int_Tables_number      14
_space_group_name_Hall           '-P 2ybc'
loop_
_symmetry_equiv_pos_site_id
_symmetry_equiv_pos_as_xyz
1 x,y,z
2 -x,1/2+y,1/2-z
3 -x,-y,-z
4 x,1/2-y,1/2+z
_cell_length_a                   9.4260(17)
_cell_length_b                   35.767(7)
_cell_length_c                   8.3219(15)
_cell_angle_alpha                90
_cell_angle_beta                 99.035(3)
_cell_angle_gamma                90
_cell_volume                     2770.83
_cell_formula_units_Z            4
loop_
_atom_site_label
_atom_site_type_symbol
_atom_site_fract_x
_atom_site_fract_y
_atom_site_fract_z
C1 C -0.0413(3) 0.68111(8) 0.0658(4)
C2 C 0.0446(4) 0.66418(12) -0.0337(4)
H1 H 0.1127 0.6466 0.0094
C3 C 0.0296(5) 0.67329(16) -0.1963(5)
H2 H 0.0867 0.6615 -0.2626
C4 C -0.0684(5) 0.69943(14) -0.2606(5)
H3 H -0.0764 0.7058 -0.3700
C5 C -0.1547(6) 0.71627(14) -0.1649(5)
H4 H -0.2224 0.7339 -0.2091
C6 C -0.1411(5) 0.70706(11) -0.0026(4)
H5 H -0.2003 0.7185 0.0622
C7 C -0.0337(3) 0.67292(8) 0.2417(4)
C8 C 0.0883(3) 0.64937(8) 0.3361(3)
H6 H 0.0827 0.6504 0.4526
C9 C 0.3129(3) 0.62539(8) 0.2854(4)
H7 H 0.3226 0.6235 0.1702
C10 C 0.2159(3) 0.59376(8) 0.3280(3)
C11 C 0.5293(4) 0.65628(9) 0.3494(5)
H8 H 0.5351 0.6582 0.2343
H9 H 0.6262 0.6544 0.4088
C12 C 0.4567(4) 0.68997(8) 0.4037(4)
C13 C 0.3061(3) 0.68958(8) 0.3893(3)
C14 C 0.2356(4) 0.71937(9) 0.4499(4)
H10 H 0.1360 0.7193 0.4414
C15 C 0.3145(5) 0.74905(10) 0.5227(5)
H11 H 0.2672 0.7689 0.5633
C16 C 0.4619(5) 0.74974(11) 0.5363(5)
H12 H 0.5138 0.7700 0.5848
C17 C 0.5319(4) 0.72010(10) 0.4773(4)
H13 H 0.6316 0.7204 0.4874
C18 C 0.1513(4) 0.56349(10) 0.5601(4)
H14 H 0.1521 0.5682 0.6751
H15 H 0.1857 0.5382 0.5492
C19 C -0.0007(3) 0.56617(9) 0.4734(4)
C20 C -0.0353(3) 0.58920(8) 0.3395(4)
C21 C -0.1759(3) 0.59110(9) 0.2586(4)
H16 H -0.1982 0.6064 0.1680
C22 C -0.2816(4) 0.57041(10) 0.3120(5)
H17 H -0.3759 0.5721 0.2592
C23 C -0.2473(4) 0.54701(11) 0.4452(5)
H18 H -0.3189 0.5328 0.4810
C24 C -0.1090(4) 0.54466(11) 0.5244(5)
H19 H -0.0869 0.5286 0.6128
C25 C 0.2370(3) 0.55781(8) 0.2378(4)
C26 C 0.3533(4) 0.53530(9) 0.2958(5)
H20 H 0.4119 0.5413 0.3929
C27 C 0.3828(5) 0.50395(10) 0.2101(6)
H21 H 0.4615 0.4891 0.2492
C28 C 0.2963(5) 0.49469(11) 0.0676(5)
H22 H 0.3164 0.4735 0.0104
C29 C 0.1806(5) 0.51654(11) 0.0092(5)
H23 H 0.1218 0.5100 -0.0870
C30 C 0.1502(4) 0.54846(10) 0.0927(4)
H24 H 0.0723 0.5635 0.0517
N1 N 0.2323(3) 0.65924(7) 0.3109(3)
N2 N 0.0759(3) 0.61024(7) 0.2810(3)
O1 O -0.1241(3) 0.68473(7) 0.3172(3)
O2 O 0.4480(2) 0.62362(6) 0.3791(3)
O3 O 0.2475(2) 0.58890(6) 0.5010(2)
C31 C 0.4964(4) 0.62003(11) 0.7739(5)
H25 H 0.4500 0.6159 0.6615
Cl1 Cl 0.43723(15) 0.58520(3) 0.89718(14)
Cl2 Cl 0.68128(16) 0.61703(5) 0.7806(2)
Cl3 Cl 0.4475(2) 0.66391(4) 0.83530(19)
loop_
_geom_bond_atom_site_label_1
_geom_bond_atom_site_label_2
_geom_bond_site_symmetry_1
_geom_bond_site_symmetry_2
C1 C2 1_555 1_555
C2 H1 1_555 1_555
C3 C2 1_555 1_555
H2 C3 1_555 1_555
C4 C3 1_555 1_555
H3 C4 1_555 1_555
C5 C4 1_555 1_555
H4 C5 1_555 1_555
C6 C1 1_555 1_555
H5 C6 1_555 1_555
C7 C1 1_555 1_555
C8 C7 1_555 1_555
H6 C8 1_555 1_555
C9 H7 1_555 1_555
C10 C9 1_555 1_555
C11 H8 1_555 1_555
H9 C11 1_555 1_555
C12 C11 1_555 1_555
C13 C12 1_555 1_555
C14 C13 1_555 1_555
H10 C14 1_555 1_555
C15 C14 1_555 1_555
H11 C15 1_555 1_555
C16 C15 1_555 1_555
H12 C16 1_555 1_555
C17 C12 1_555 1_555
H13 C17 1_555 1_555
C18 H14 1_555 1_555
H15 C18 1_555 1_555
C19 C18 1_555 1_555
C20 C19 1_555 1_555
C21 C20 1_555 1_555
H16 C21 1_555 1_555
C22 C21 1_555 1_555
H17 C22 1_555 1_555
C23 C22 1_555 1_555
H18 C23 1_555 1_555
C24 C19 1_555 1_555
H19 C24 1_555 1_555
C25 C10 1_555 1_555
C26 C25 1_555 1_555
H20 C26 1_555 1_555
C27 C26 1_555 1_555
H21 C27 1_555 1_555
C28 C27 1_555 1_555
H22 C28 1_555 1_555
C29 C28 1_555 1_555
H23 C29 1_555 1_555
C30 C25 1_555 1_555
H24 C30 1_555 1_555
N1 C8 1_555 1_555
N2 C8 1_555 1_555
O1 C7 1_555 1_555
O2 C9 1_555 1_555
O3 C10 1_555 1_555
C31 H25 1_555 1_555
Cl1 C31 1_555 1_555
Cl2 C31 1_555 1_555
Cl3 C31 1_555 1_555
C5 C6 1_555 1_555
C9 N1 1_555 1_555
C10 N2 1_555 1_555
C11 O2 1_555 1_555
C13 N1 1_555 1_555
C16 C17 1_555 1_555
C18 O3 1_555 1_555
C20 N2 1_555 1_555
C23 C24 1_555 1_555
C29 C30 1_555 1_555

#END
