
#######################################################################
#
#                 Cambridge Crystallographic Data Centre
#                                CCDC 
#
#######################################################################
#
# If this CIF has been generated from an entry in the Cambridge 
# Structural Database, then it will include bibliographic, chemical, 
# crystal, experimental, refinement or atomic coordinate data resulting 
# from the CCDC's data processing and validation procedures.
#
#######################################################################

data_VIPHEJ
_chemical_formula_moiety         'C44 H34 N6 O8,2(C4 H11 N1),2(C1 H1 Cl3)'
_chemical_name_systematic        
'tetraethyl 29,32,33,34,37,38-hexaazanonacyclo[18.8.4.4^6,15^.1^2,5^.1^16,19^.0^9,36^.0^12,35^.0^23,31^.0^26,30^]octatriaconta-1(28),2,4,6,8,10,12,14,16,18,20,22,24,26,29,31,34,36-octadecaene-3,4,17,18-tetracarboxylate 2-methylpropan-2-amine chloroform solvate'
_symmetry_cell_setting           orthorhombic
_symmetry_space_group_name_H-M   'P 2 21 21'
_symmetry_Int_Tables_number      18
_space_group_name_Hall           'P 2bc 2'
loop_
_symmetry_equiv_pos_site_id
_symmetry_equiv_pos_as_xyz
1 x,y,z
2 -x,1/2-y,1/2+z
3 x,-y,-z
4 -x,1/2+y,1/2-z
_cell_length_a                   8.8324(4)
_cell_length_b                   21.5358(9)
_cell_length_c                   28.5635(12)
_cell_angle_alpha                90
_cell_angle_beta                 90
_cell_angle_gamma                90
_cell_volume                     5433.14
_exptl_crystal_colour            orange
_exptl_crystal_description       Plates
_cell_formula_units_Z            4
loop_
_atom_site_label
_atom_site_type_symbol
_atom_site_fract_x
_atom_site_fract_y
_atom_site_fract_z
N1 N 0.9343(4) 0.26815(13) 0.31407(11)
H1 H 0.8853 0.2586 0.2882
C1 C 0.9541(5) 0.32624(16) 0.33146(13)
C2 C 1.0395(4) 0.32367(17) 0.37307(13)
C3 C 1.0734(4) 0.26048(17) 0.38054(13)
C4 C 1.0030(4) 0.22753(16) 0.34329(12)
O1 O 1.0042(4) 0.40793(14) 0.42641(11)
C5 C 1.0876(5) 0.37591(18) 0.40325(14)
O2 O 1.2382(4) 0.38382(13) 0.40157(10)
C6 C 1.3012(6) 0.4317(2) 0.43161(19)
H2 H 1.2510 0.4310 0.4626
H3 H 1.2857 0.4732 0.4174
C7 C 1.4669(7) 0.4186(3) 0.4368(2)
H4 H 1.5151 0.4192 0.4059
H5 H 1.4808 0.3777 0.4512
H6 H 1.5131 0.4504 0.4567
O3 O 1.2595(3) 0.19603(12) 0.41720(10)
C8 C 1.1707(5) 0.23917(17) 0.41887(13)
O4 O 1.1577(4) 0.27491(12) 0.45722(9)
C9 C 1.2692(5) 0.2622(2) 0.49420(14)
H7 H 1.3733 0.2671 0.4819
H8 H 1.2573 0.2193 0.5060
C10 C 1.2412(7) 0.3075(2) 0.53241(16)
H9 H 1.2539 0.3498 0.5204
H10 H 1.3133 0.3003 0.5579
H11 H 1.1377 0.3023 0.5442
N2 N 0.7962(3) 0.36528(13) 0.27052(11)
N3 N 0.6177(4) 0.33598(13) 0.19459(10)
C11 C 0.8874(5) 0.37891(16) 0.30658(13)
C12 C 0.9161(5) 0.44122(18) 0.31985(15)
H12 H 0.9817 0.4500 0.3454
C13 C 0.8492(5) 0.48821(17) 0.29583(16)
H13 H 0.8655 0.5300 0.3053
C14 C 0.7557(5) 0.47543(17) 0.25687(14)
C15 C 0.6839(5) 0.52317(18) 0.23027(16)
H14 H 0.7002 0.5655 0.2383
C16 C 0.5931(5) 0.50884(18) 0.19388(16)
H15 H 0.5464 0.5412 0.1765
C17 C 0.5661(5) 0.44568(17) 0.18120(14)
C18 C 0.4698(5) 0.42883(18) 0.14433(15)
H16 H 0.4209 0.4602 0.1265
C19 C 0.4458(5) 0.36813(18) 0.13381(14)
H17 H 0.3789 0.3570 0.1091
C20 C 0.5212(4) 0.32162(17) 0.15988(13)
C21 C 0.6372(5) 0.39685(16) 0.20587(13)
C22 C 0.7333(4) 0.41221(16) 0.24548(13)
N4 N 0.5675(4) 0.21423(14) 0.18032(11)
H18 H 0.6164 0.2240 0.2061
C23 C 0.5471(4) 0.15593(16) 0.16352(13)
C24 C 0.4616(4) 0.15824(17) 0.12210(13)
C25 C 0.4283(4) 0.22146(17) 0.11394(13)
C26 C 0.5005(5) 0.25457(17) 0.15093(13)
O5 O 0.4935(4) 0.07254(13) 0.06977(10)
C27 C 0.4125(5) 0.10518(18) 0.09220(14)
O6 O 0.2612(4) 0.09713(13) 0.09532(11)
C28 C 0.1971(6) 0.0484(2) 0.06593(19)
H19 H 0.2190 0.0071 0.0795
H20 H 0.2415 0.0502 0.0341
C29 C 0.0310(6) 0.0589(3) 0.0638(3)
H21 H 0.0107 0.0992 0.0490
H22 H -0.0109 0.0588 0.0955
H23 H -0.0164 0.0258 0.0453
O7 O 0.2466(3) 0.28600(13) 0.07531(10)
C30 C 0.3319(5) 0.24193(18) 0.07503(14)
O8 O 0.3409(4) 0.20343(15) 0.03847(10)
C31 C 0.2183(8) 0.2050(4) 0.0024(2)
H24 H 0.2026 0.1630 -0.0109
H25 H 0.1221 0.2191 0.0166
C32 C 0.2651(9) 0.2480(4) -0.0344(3)
H26 H 0.1915 0.2468 -0.0601
H27 H 0.3651 0.2359 -0.0462
H28 H 0.2700 0.2902 -0.0216
N5 N 0.7040(3) 0.11668(13) 0.22460(11)
N6 N 0.8837(4) 0.14598(13) 0.29986(10)
C33 C 0.6105(5) 0.10298(17) 0.18914(13)
C34 C 0.5779(5) 0.04075(18) 0.17712(15)
H29 H 0.5111 0.0319 0.1519
C35 C 0.6423(5) -0.00631(18) 0.20166(16)
H30 H 0.6224 -0.0481 0.1931
C36 C 0.7380(5) 0.00654(17) 0.23951(15)
C37 C 0.8062(5) -0.04112(17) 0.26708(15)
H31 H 0.7852 -0.0834 0.2602
C38 C 0.9003(5) -0.02694(17) 0.30283(15)
H32 H 0.9468 -0.0593 0.3203
C39 C 0.9306(5) 0.03650(17) 0.31467(14)
C40 C 1.0297(5) 0.05329(18) 0.35090(14)
H33 H 1.0786 0.0219 0.3687
C41 C 1.0561(5) 0.11414(17) 0.36070(14)
H34 H 1.1246 0.1253 0.3849
C42 C 0.9808(4) 0.16075(16) 0.33448(13)
C43 C 0.8620(4) 0.08513(16) 0.28941(13)
C44 C 0.7644(4) 0.06967(16) 0.25006(13)
N7 N -0.1223(4) 0.23862(17) 0.21806(11)
C47 C 0.0125(5) 0.23505(17) 0.18611(13)
C48 C -0.0437(6) 0.2159(2) 0.13766(14)
H40 H -0.0959 0.1758 0.1398
H41 H 0.0427 0.2121 0.1163
H42 H -0.1139 0.2474 0.1257
C49 C 0.0821(5) 0.29934(18) 0.18546(15)
H43 H 0.0086 0.3291 0.1730
H44 H 0.1726 0.2991 0.1656
H45 H 0.1102 0.3114 0.2174
C50 C 0.1193(5) 0.18688(19) 0.20642(16)
H46 H 0.1475 0.1989 0.2383
H47 H 0.2105 0.1843 0.1870
H48 H 0.0688 0.1464 0.2071
H49 H -0.162(4) 0.2048(18) 0.2204(13)
H50 H -0.180(4) 0.2642(17) 0.2095(13)
N8 N 0.6251(4) 0.24433(16) 0.27656(12)
C51 C 0.4925(5) 0.24733(17) 0.30911(13)
C52 C 0.5504(6) 0.2659(2) 0.35700(15)
H51 H 0.6220 0.2346 0.3683
H52 H 0.4651 0.2690 0.3788
H53 H 0.6014 0.3062 0.3549
C53 C 0.4220(5) 0.18300(18) 0.30923(16)
H54 H 0.3951 0.1712 0.2771
H55 H 0.3307 0.1833 0.3287
H56 H 0.4947 0.1530 0.3219
C54 C 0.3849(5) 0.29586(19) 0.28904(16)
H57 H 0.4343 0.3366 0.2893
H58 H 0.2927 0.2975 0.3081
H59 H 0.3584 0.2847 0.2568
H60 H 0.687(5) 0.2186(19) 0.2857(14)
H61 H 0.672(5) 0.279(2) 0.2758(14)
C55 C 0.0095(6) 0.3884(2) 0.05128(17)
H62 H 0.0670 0.3501 0.0600
Cl1 Cl -0.03094(19) 0.38524(8) -0.00874(5)
Cl2 Cl -0.15838(17) 0.39037(6) 0.08434(5)
Cl3 Cl 0.12290(16) 0.45304(7) 0.06366(5)
C56 C 0.4957(6) 0.1005(2) 0.44590(16)
H63 H 0.4446 0.1397 0.4357
Cl4 Cl 0.37077(16) 0.03827(6) 0.43605(5)
Cl5 Cl 0.66141(16) 0.09117(6) 0.41234(5)
Cl6 Cl 0.5372(2) 0.10663(8) 0.50575(5)
C45? C 0.242(3) 0.2310(12) 0.0003(10)
H35? H 0.1359 0.2348 0.0106
H36? H 0.2802 0.2722 -0.0096
C46? C 0.259(2) 0.1846(8) -0.0374(6)
H37? H 0.2058 0.1993 -0.0655
H38? H 0.2144 0.1451 -0.0273
H39? H 0.3662 0.1787 -0.0445
loop_
_geom_bond_atom_site_label_1
_geom_bond_atom_site_label_2
_geom_bond_site_symmetry_1
_geom_bond_site_symmetry_2
N1 H1 1_555 1_555
C1 N1 1_555 1_555
C2 C1 1_555 1_555
C3 C2 1_555 1_555
C4 N1 1_555 1_555
O1 C5 1_555 1_555
C5 C2 1_555 1_555
O2 C5 1_555 1_555
C6 O2 1_555 1_555
H2 C6 1_555 1_555
H3 C6 1_555 1_555
C7 C6 1_555 1_555
H4 C7 1_555 1_555
H5 C7 1_555 1_555
H6 C7 1_555 1_555
O3 C8 1_555 1_555
C8 C3 1_555 1_555
O4 C8 1_555 1_555
C9 O4 1_555 1_555
H7 C9 1_555 1_555
H8 C9 1_555 1_555
C10 C9 1_555 1_555
H9 C10 1_555 1_555
H10 C10 1_555 1_555
H11 C10 1_555 1_555
N2 C11 1_555 1_555
N3 C20 1_555 1_555
C11 C1 1_555 1_555
C12 C11 1_555 1_555
H12 C12 1_555 1_555
C13 C12 1_555 1_555
H13 C13 1_555 1_555
C14 C13 1_555 1_555
C15 C14 1_555 1_555
H14 C15 1_555 1_555
C16 C15 1_555 1_555
H15 C16 1_555 1_555
C17 C16 1_555 1_555
C18 C17 1_555 1_555
H16 C18 1_555 1_555
C19 C18 1_555 1_555
H17 C19 1_555 1_555
C20 C19 1_555 1_555
C21 N3 1_555 1_555
C22 N2 1_555 1_555
N4 H18 1_555 1_555
C23 N4 1_555 1_555
C24 C23 1_555 1_555
C25 C24 1_555 1_555
C26 C20 1_555 1_555
O5 C27 1_555 1_555
C27 C24 1_555 1_555
O6 C27 1_555 1_555
C28 O6 1_555 1_555
H19 C28 1_555 1_555
H20 C28 1_555 1_555
C29 C28 1_555 1_555
H21 C29 1_555 1_555
H22 C29 1_555 1_555
H23 C29 1_555 1_555
O7 C30 1_555 1_555
C30 C25 1_555 1_555
O8 C30 1_555 1_555
C31 O8 1_555 1_555
H24 C31 1_555 1_555
H25 C31 1_555 1_555
C32 C31 1_555 1_555
H26 C32 1_555 1_555
H27 C32 1_555 1_555
H28 C32 1_555 1_555
N5 C33 1_555 1_555
N6 C42 1_555 1_555
C33 C23 1_555 1_555
C34 C33 1_555 1_555
H29 C34 1_555 1_555
C35 C34 1_555 1_555
H30 C35 1_555 1_555
C36 C35 1_555 1_555
C37 C36 1_555 1_555
H31 C37 1_555 1_555
C38 C37 1_555 1_555
H32 C38 1_555 1_555
C39 C38 1_555 1_555
C40 C39 1_555 1_555
H33 C40 1_555 1_555
C41 C40 1_555 1_555
H34 C41 1_555 1_555
C42 C4 1_555 1_555
C43 N6 1_555 1_555
C44 N5 1_555 1_555
N7 C47 1_555 1_555
C47 C48 1_555 1_555
C48 H40 1_555 1_555
H41 C48 1_555 1_555
H42 C48 1_555 1_555
C49 C47 1_555 1_555
H43 C49 1_555 1_555
H44 C49 1_555 1_555
H45 C49 1_555 1_555
C50 C47 1_555 1_555
H46 C50 1_555 1_555
H47 C50 1_555 1_555
H48 C50 1_555 1_555
H49 N7 1_555 1_555
H50 N7 1_555 1_555
N8 C51 1_555 1_555
C51 C52 1_555 1_555
C52 H51 1_555 1_555
H52 C52 1_555 1_555
H53 C52 1_555 1_555
C53 C51 1_555 1_555
H54 C53 1_555 1_555
H55 C53 1_555 1_555
H56 C53 1_555 1_555
C54 C51 1_555 1_555
H57 C54 1_555 1_555
H58 C54 1_555 1_555
H59 C54 1_555 1_555
H60 N8 1_555 1_555
H61 N8 1_555 1_555
C55 H62 1_555 1_555
Cl1 C55 1_555 1_555
Cl2 C55 1_555 1_555
Cl3 C55 1_555 1_555
C56 H63 1_555 1_555
Cl4 C56 1_555 1_555
Cl5 C56 1_555 1_555
Cl6 C56 1_555 1_555
C3 C4 1_555 1_555
C14 C22 1_555 1_555
C17 C21 1_555 1_555
C21 C22 1_555 1_555
N4 C26 1_555 1_555
C25 C26 1_555 1_555
C36 C44 1_555 1_555
C39 C43 1_555 1_555
C41 C42 1_555 1_555
C43 C44 1_555 1_555

#END
