
#######################################################################
#
#                 Cambridge Crystallographic Data Centre
#                                CCDC 
#
#######################################################################
#
# If this CIF has been generated from an entry in the Cambridge 
# Structural Database, then it will include bibliographic, chemical, 
# crystal, experimental, refinement or atomic coordinate data resulting 
# from the CCDC's data processing and validation procedures.
#
#######################################################################

data_VIPHAF
_chemical_formula_moiety         'C44 H34 N6 O8'
_chemical_name_systematic        
'Tetraethyl 29,32,33,34,37,38-hexaazanonacyclo[18.8.4.4^6,15^.1^2,5^.1^16,19^.0^9,36^.0^12,35^.0^23,31^.0^26,30^]octatriaconta-1(28),2,4,6,8,10,12,14,16,18,20,22,24,26,29,31,34,36-octadecaene-3,4,17,18-tetracarboxylate'
_symmetry_cell_setting           monoclinic
_symmetry_space_group_name_H-M   'C 2/c'
_symmetry_Int_Tables_number      15
_space_group_name_Hall           '-C 2yn'
loop_
_symmetry_equiv_pos_site_id
_symmetry_equiv_pos_as_xyz
1 x,y,z
2 -x,y,1/2-z
3 1/2+x,1/2+y,z
4 1/2-x,1/2+y,1/2-z
5 -x,-y,-z
6 x,-y,1/2+z
7 1/2-x,1/2-y,-z
8 1/2+x,1/2-y,1/2+z
_cell_length_a                   34.411(2)
_cell_length_b                   6.0867(4)
_cell_length_c                   16.9122(11)
_cell_angle_alpha                90
_cell_angle_beta                 94.046(6)
_cell_angle_gamma                90
_cell_volume                     3533.42
_exptl_crystal_colour            yellow
_exptl_crystal_description       Plates
_cell_formula_units_Z            4
loop_
_atom_site_label
_atom_site_type_symbol
_atom_site_fract_x
_atom_site_fract_y
_atom_site_fract_z
O1 O 0.44056(4) 0.6693(2) 0.43446(8)
O2 O 0.45150(4) 0.7860(2) 0.56017(7)
O3 O 0.42967(4) 1.2594(2) 0.56145(8)
O4 O 0.40874(4) 1.1232(2) 0.67455(8)
N1 N 0.32434(4) 0.8395(2) 0.50741(8)
H1 H 0.2993 0.8131 0.4979
C1 C 0.35301(5) 0.7182(3) 0.47754(10)
C2 C 0.38827(5) 0.8108(3) 0.50653(10)
C3 C 0.37912(5) 0.9913(3) 0.55536(10)
C4 C 0.33910(5) 1.0074(3) 0.55393(10)
C5 C 0.42856(6) 0.7443(3) 0.49447(11)
C6 C 0.49250(6) 0.7341(4) 0.55892(12)
H2 H 0.5023 0.7784 0.5077
H3 H 0.4967 0.5742 0.5660
C7 C 0.51339(6) 0.8591(4) 0.62597(13)
H4 H 0.5088 1.0168 0.6184
H5 H 0.5414 0.8290 0.6268
H6 H 0.5035 0.8128 0.6763
C8 C 0.40864(6) 1.1398(3) 0.59555(11)
C9 C 0.43698(8) 1.2611(4) 0.72035(14)
H7 H 0.4620 1.2605 0.6948
H8 H 0.4418 1.1995 0.7743
C10 C 0.42284(8) 1.4890(5) 0.72587(15)
H9 H 0.4206 1.5551 0.6729
H10 H 0.4413 1.5743 0.7604
H11 H 0.3973 1.4891 0.7480
N2 N 0.30357(4) 0.4779(2) 0.42655(8)
N3 N 0.22445(4) 0.3859(2) 0.41516(8)
C11 C 0.34163(5) 0.5212(3) 0.43112(10)
C12 C 0.36893(6) 0.3880(3) 0.39571(11)
H12 H 0.3958 0.4244 0.3997
C13 C 0.35580(6) 0.2048(3) 0.35545(11)
H13 H 0.3737 0.1132 0.3307
C14 C 0.31615(6) 0.1512(3) 0.35044(10)
C15 C 0.30162(6) -0.0470(3) 0.31335(10)
H14 H 0.3189 -0.1407 0.2877
C16 C 0.26377(6) -0.1016(3) 0.31449(10)
H15 H 0.2549 -0.2369 0.2918
C17 C 0.23676(6) 0.0405(3) 0.34929(10)
C18 C 0.19701(6) -0.0095(3) 0.34833(10)
H16 H 0.1875 -0.1436 0.3257
C19 C 0.17208(6) 0.1341(3) 0.37976(10)
H17 H 0.1451 0.1006 0.3801
C20 C 0.18684(6) 0.3331(3) 0.41182(10)
C21 C 0.24946(5) 0.2421(3) 0.38446(9)
C22 C 0.29062(5) 0.2950(3) 0.38728(10)
O1F O 0.05944(4) 0.8307(2) 0.56554(8)
O2F O 0.04850(4) 0.7140(2) 0.43983(7)
O3F O 0.07033(4) 0.2406(2) 0.43855(8)
O4F O 0.09126(4) 0.3768(2) 0.32545(8)
N1F N 0.17566(4) 0.6605(2) 0.49259(8)
H1F H 0.2007 0.6869 0.5021
C1F C 0.14699(5) 0.7818(3) 0.52246(10)
C2F C 0.11173(5) 0.6892(3) 0.49347(10)
C3F C 0.12088(5) 0.5087(3) 0.44464(10)
C4F C 0.16090(5) 0.4926(3) 0.44607(10)
C5F C 0.07144(6) 0.7557(3) 0.50553(11)
C6F C 0.00750(6) 0.7659(4) 0.44108(12)
H2F H -0.0023 0.7216 0.4923
H3F H 0.0033 0.9258 0.4340
C7F C -0.01339(6) 0.6409(4) 0.37403(13)
H4F H -0.0088 0.4832 0.3816
H5F H -0.0414 0.6710 0.3732
H6F H -0.0035 0.6872 0.3237
C8F C 0.09136(6) 0.3602(3) 0.40445(11)
C9F C 0.06302(8) 0.2389(4) 0.27965(14)
H7F H 0.0380 0.2395 0.3052
H8F H 0.0582 0.3005 0.2257
C10F C 0.07716(8) 0.0110(5) 0.27413(15)
H9F H 0.0794 -0.0551 0.3271
H10F H 0.0587 -0.0743 0.2396
H11F H 0.1027 0.0109 0.2520
N2F N 0.19643(4) 1.0221(2) 0.57345(8)
N3F N 0.27555(4) 1.1141(2) 0.58484(8)
C11F C 0.15837(5) 0.9788(3) 0.56888(10)
C12F C 0.13107(6) 1.1120(3) 0.60429(11)
H12F H 0.1042 1.0756 0.6003
C13F C 0.14420(6) 1.2952(3) 0.64455(11)
H13F H 0.1263 1.3868 0.6693
C14F C 0.18385(6) 1.3488(3) 0.64956(10)
C15F C 0.19838(6) 1.5470(3) 0.68665(10)
H14F H 0.1811 1.6407 0.7123
C16F C 0.23623(6) 1.6016(3) 0.68551(10)
H15F H 0.2451 1.7369 0.7082
C17F C 0.26324(6) 1.4595(3) 0.65071(10)
C18F C 0.30299(6) 1.5095(3) 0.65167(10)
H16F H 0.3125 1.6436 0.6743
C19F C 0.32792(6) 1.3659(3) 0.62024(10)
H17F H 0.3549 1.3994 0.6199
C20F C 0.31316(6) 1.1669(3) 0.58818(10)
C21F C 0.25054(5) 1.2579(3) 0.61554(9)
C22F C 0.20938(5) 1.2050(3) 0.61272(10)
loop_
_geom_bond_atom_site_label_1
_geom_bond_atom_site_label_2
_geom_bond_site_symmetry_1
_geom_bond_site_symmetry_2
O1 C5 1_555 1_555
O2 C5 1_555 1_555
O3 C8 1_555 1_555
O4 C8 1_555 1_555
N1 H1 1_555 1_555
C1 N1 1_555 1_555
C2 C1 1_555 1_555
C3 C2 1_555 1_555
C4 N1 1_555 1_555
C5 C2 1_555 1_555
C6 O2 1_555 1_555
H2 C6 1_555 1_555
H3 C6 1_555 1_555
C7 C6 1_555 1_555
H4 C7 1_555 1_555
H5 C7 1_555 1_555
H6 C7 1_555 1_555
C8 C3 1_555 1_555
C9 O4 1_555 1_555
H7 C9 1_555 1_555
H8 C9 1_555 1_555
C10 C9 1_555 1_555
H9 C10 1_555 1_555
H10 C10 1_555 1_555
H11 C10 1_555 1_555
N2 C11 1_555 1_555
N3 C20 1_555 1_555
C11 C1 1_555 1_555
C12 C11 1_555 1_555
H12 C12 1_555 1_555
C13 C12 1_555 1_555
H13 C13 1_555 1_555
C14 C13 1_555 1_555
C15 C14 1_555 1_555
H14 C15 1_555 1_555
C16 C15 1_555 1_555
H15 C16 1_555 1_555
C17 C16 1_555 1_555
C18 C17 1_555 1_555
H16 C18 1_555 1_555
C19 C18 1_555 1_555
H17 C19 1_555 1_555
C20 C19 1_555 1_555
C21 N3 1_555 1_555
C22 N2 1_555 1_555
O1F C5F 1_555 1_555
O2F C5F 1_555 1_555
O3F C8F 1_555 1_555
O4F C8F 1_555 1_555
N1F H1F 1_555 1_555
C1F N1F 1_555 1_555
C2F C1F 1_555 1_555
C3F C2F 1_555 1_555
C4F C20 1_555 1_555
C5F C2F 1_555 1_555
C6F O2F 1_555 1_555
H2F C6F 1_555 1_555
H3F C6F 1_555 1_555
C7F C6F 1_555 1_555
H4F C7F 1_555 1_555
H5F C7F 1_555 1_555
H6F C7F 1_555 1_555
C8F C3F 1_555 1_555
C9F O4F 1_555 1_555
H7F C9F 1_555 1_555
H8F C9F 1_555 1_555
C10F C9F 1_555 1_555
H9F C10F 1_555 1_555
H10F C10F 1_555 1_555
H11F C10F 1_555 1_555
N2F C11F 1_555 1_555
N3F C20F 1_555 1_555
C11F C1F 1_555 1_555
C12F C11F 1_555 1_555
H12F C12F 1_555 1_555
C13F C12F 1_555 1_555
H13F C13F 1_555 1_555
C14F C13F 1_555 1_555
C15F C14F 1_555 1_555
H14F C15F 1_555 1_555
C16F C15F 1_555 1_555
H15F C16F 1_555 1_555
C17F C16F 1_555 1_555
C18F C17F 1_555 1_555
H16F C18F 1_555 1_555
C19F C18F 1_555 1_555
H17F C19F 1_555 1_555
C20F C4 1_555 1_555
C21F N3F 1_555 1_555
C22F N2F 1_555 1_555
C3 C4 1_555 1_555
C14 C22 1_555 1_555
C17 C21 1_555 1_555
C21 C22 1_555 1_555
N1F C4F 1_555 1_555
C3F C4F 1_555 1_555
C14F C22F 1_555 1_555
C17F C21F 1_555 1_555
C19F C20F 1_555 1_555
C21F C22F 1_555 1_555

#END
