
#######################################################################
#
#                 Cambridge Crystallographic Data Centre
#                                CCDC 
#
#######################################################################
#
# If this CIF has been generated from an entry in the Cambridge 
# Structural Database, then it will include bibliographic, chemical, 
# crystal, experimental, refinement or atomic coordinate data resulting 
# from the CCDC's data processing and validation procedures.
#
#######################################################################

data_VIPLUE
_chemical_formula_moiety         'C22 H19 N3'
_chemical_name_systematic        
2-(1-phenylbut-1-en-2-yl)-1-(pyrimidin-2-yl)-1H-indole
_symmetry_cell_setting           monoclinic
_symmetry_space_group_name_H-M   'P 21/c'
_symmetry_Int_Tables_number      14
_space_group_name_Hall           '-P 2ybc'
loop_
_symmetry_equiv_pos_site_id
_symmetry_equiv_pos_as_xyz
1 x,y,z
2 -x,1/2+y,1/2-z
3 -x,-y,-z
4 x,1/2-y,1/2+z
_cell_length_a                   10.5762(7)
_cell_length_b                   7.8869(6)
_cell_length_c                   19.9879(16)
_cell_angle_alpha                90
_cell_angle_beta                 91.535(3)
_cell_angle_gamma                90
_cell_volume                     1666.66
_exptl_crystal_colour            colorless
_exptl_crystal_description       tabular
_cell_formula_units_Z            4
loop_
_atom_site_label
_atom_site_type_symbol
_atom_site_fract_x
_atom_site_fract_y
_atom_site_fract_z
N1 N 0.61711(10) 0.75878(14) 0.17384(5)
N2 N 0.66803(9) 0.64589(13) 0.27934(5)
N3 N 0.46317(10) 0.61058(15) 0.23688(6)
C1 C 0.40468(13) 0.73464(19) 0.13215(7)
H1 H 0.3423 0.7586 0.0984
C2 C 0.52774(13) 0.78961(18) 0.12704(7)
H2 H 0.5499 0.8522 0.0885
C3 C 0.57825(11) 0.67183(16) 0.22643(6)
C4 C 0.79950(11) 0.62547(15) 0.27226(6)
C5 C 0.85111(11) 0.53818(15) 0.21416(6)
C6 C 0.78392(11) 0.41306(15) 0.18481(6)
H3 H 0.7076 0.3834 0.2059
C7 C 0.81255(11) 0.31585(16) 0.12437(6)
C8 C 0.86062(12) 0.39199(17) 0.06755(6)
H4 H 0.8806 0.5094 0.0685
C9 C 0.87978(12) 0.29997(18) 0.00978(7)
H5 H 0.9127 0.3545 -0.0284
C10 C 0.85109(12) 0.12842(18) 0.00740(7)
H6 H 0.8646 0.0648 -0.0321
C11 C 0.37673(13) 0.64374(19) 0.18833(7)
H7 H 0.2930 0.6027 0.1930
C12 C 0.64785(12) 0.70846(15) 0.34382(6)
C13 C 0.76674(12) 0.72917(15) 0.37580(6)
C14 C 0.85978(12) 0.67532(16) 0.32980(6)
H8 H 0.9487 0.6745 0.3381
C15 C 0.98287(11) 0.59060(16) 0.19556(6)
H9 H 1.0170 0.5055 0.1644
H10 H 1.0379 0.5911 0.2364
C16 C 0.98807(13) 0.76500(16) 0.16280(7)
H11 H 0.9430 0.7615 0.1193
H12 H 1.0765 0.7969 0.1564
H13 H 0.9480 0.8487 0.1917
C17 C 0.78303(11) 0.14248(16) 0.12108(7)
H14 H 0.7493 0.0875 0.1589
C18 C 0.80263(12) 0.05101(17) 0.06332(7)
H15 H 0.7826 -0.0664 0.0620
C19 C 0.77252(12) 0.79368(16) 0.44107(7)
H16 H 0.8518 0.8091 0.4637
C20 C 0.66154(13) 0.83460(17) 0.47203(7)
H17 H 0.6648 0.8794 0.5162
C21 C 0.54426(13) 0.81096(17) 0.43931(7)
H18 H 0.4691 0.8387 0.4619
C22 C 0.53548(12) 0.74807(16) 0.37483(7)
H19 H 0.4558 0.7325 0.3526
loop_
_geom_bond_atom_site_label_1
_geom_bond_atom_site_label_2
_geom_bond_site_symmetry_1
_geom_bond_site_symmetry_2
N1 C2 1_555 1_555
N2 C3 1_555 1_555
N3 C3 1_555 1_555
C1 H1 1_555 1_555
C2 C1 1_555 1_555
H2 C2 1_555 1_555
C3 N1 1_555 1_555
C4 N2 1_555 1_555
C5 C4 1_555 1_555
C6 C5 1_555 1_555
H3 C6 1_555 1_555
C7 C6 1_555 1_555
C8 C7 1_555 1_555
H4 C8 1_555 1_555
C9 C8 1_555 1_555
H5 C9 1_555 1_555
C10 C9 1_555 1_555
H6 C10 1_555 1_555
C11 N3 1_555 1_555
H7 C11 1_555 1_555
C12 N2 1_555 1_555
C13 C12 1_555 1_555
C14 C4 1_555 1_555
H8 C14 1_555 1_555
C15 C5 1_555 1_555
H9 C15 1_555 1_555
H10 C15 1_555 1_555
C16 C15 1_555 1_555
H11 C16 1_555 1_555
H12 C16 1_555 1_555
H13 C16 1_555 1_555
C17 C7 1_555 1_555
H14 C17 1_555 1_555
C18 C10 1_555 1_555
H15 C18 1_555 1_555
C19 C13 1_555 1_555
H16 C19 1_555 1_555
C20 C19 1_555 1_555
H17 C20 1_555 1_555
C21 C20 1_555 1_555
H18 C21 1_555 1_555
C22 C12 1_555 1_555
H19 C22 1_555 1_555
C1 C11 1_555 1_555
C13 C14 1_555 1_555
C17 C18 1_555 1_555
C21 C22 1_555 1_555

#END
