
#######################################################################
#
#                 Cambridge Crystallographic Data Centre
#                                CCDC 
#
#######################################################################
#
# If this CIF has been generated from an entry in the Cambridge 
# Structural Database, then it will include bibliographic, chemical, 
# crystal, experimental, refinement or atomic coordinate data resulting 
# from the CCDC's data processing and validation procedures.
#
#######################################################################

data_VIPMOZ
_chemical_formula_moiety         'C24 H20 N2 O4'
_chemical_name_systematic        
3,5,11,13-tetramethyl-4,12-dinitropentacyclo[6.6.6.0^2,7^.0^9,14^.0^15,20^]icosa-2,4,6,9,11,13,15,17,19-nonaene
_symmetry_cell_setting           orthorhombic
_symmetry_space_group_name_H-M   'P b c n'
_symmetry_Int_Tables_number      60
_space_group_name_Hall           '-P 2n 2ab'
loop_
_symmetry_equiv_pos_site_id
_symmetry_equiv_pos_as_xyz
1 x,y,z
2 1/2+x,1/2-y,-z
3 -x,y,1/2-z
4 1/2-x,1/2-y,1/2+z
5 -x,-y,-z
6 1/2-x,1/2+y,z
7 x,-y,1/2+z
8 1/2+x,1/2+y,1/2-z
_cell_length_a                   19.9666(6)
_cell_length_b                   9.5284(3)
_cell_length_c                   22.9273(7)
_cell_angle_alpha                90
_cell_angle_beta                 90
_cell_angle_gamma                90
_cell_volume                     4361.91
_cell_formula_units_Z            8
loop_
_atom_site_label
_atom_site_type_symbol
_atom_site_fract_x
_atom_site_fract_y
_atom_site_fract_z
C1 C 0.40021(11) 0.8866(2) 0.40564(9)
N1 N 0.29358(14) 0.8346(3) 0.56096(10)
C2 C 0.35009(11) 0.7832(2) 0.40855(10)
C3 C 0.41553(11) 0.6341(2) 0.34503(9)
C4 C 0.43740(11) 0.8863(2) 0.34751(9)
C5 C 0.46473(11) 0.7387(2) 0.34160(9)
C6 C 0.41378(11) 0.9730(2) 0.45221(10)
C7 C 0.33521(13) 0.7983(2) 0.30304(11)
C8 C 0.53109(12) 0.7038(2) 0.33409(10)
C9 C 0.34518(12) 0.6959(2) 0.35310(10)
C10 C 0.38487(13) 0.9007(2) 0.30025(9)
O1 O 0.50488(18) 0.2415(2) 0.37651(17)
C11 C 0.43170(13) 0.4922(2) 0.34280(11)
C12 C 0.37895(13) 0.9577(2) 0.50462(10)
O2 O 0.31649(19) 0.7609(3) 0.59745(12)
C13 C 0.32996(13) 0.8533(3) 0.50607(10)
C14 C 0.31308(11) 0.7656(2) 0.45964(11)
C15 C 0.55016(13) 0.5625(3) 0.33140(10)
N2 N 0.52031(17) 0.3156(3) 0.33640(14)
C16 C 0.50073(14) 0.4635(3) 0.33670(11)
C17 C 0.38458(16) 1.0022(3) 0.25643(12)
O3 O 0.5557(2) 0.2758(3) 0.29520(19)
C18 C 0.39417(17) 1.0493(3) 0.55713(12)
C19 C 0.62344(15) 0.5279(4) 0.32507(15)
C20 C 0.28531(16) 0.7935(3) 0.26191(13)
C21 C 0.37897(16) 0.3794(3) 0.34643(16)
C22 C 0.25816(17) 0.6569(3) 0.46388(15)
C23 C 0.3348(2) 0.9997(3) 0.21500(12)
C24 C 0.28542(18) 0.8948(4) 0.21682(13)
O4 O 0.2447(3) 0.8969(7) 0.5693(2)
H1 H 0.44677(11) 1.0429(2) 0.44872(10)
H2 H 0.56357(12) 0.7748(2) 0.33076(10)
H3 H 0.41802(16) 1.0716(3) 0.25524(12)
H4 H 0.3338(2) 1.0681(3) 0.18548(12)
H5 H 0.25217(18) 0.8919(4) 0.18782(13)
H6 H 0.25177(16) 0.7244(3) 0.26368(13)
H7 H 0.47262(11) 0.9592(2) 0.34522(9)
H8 H 0.30982(12) 0.6233(2) 0.35506(10)
H9 H 0.4122(12) 0.9917(5) 0.5883(4)
H10 H 0.4267(10) 1.1203(17) 0.5464(3)
H11 H 0.3533(3) 1.094(2) 0.5703(7)
H12 H 0.65006(16) 0.6090(10) 0.3359(12)
H13 H 0.6346(3) 0.4497(19) 0.3504(9)
H14 H 0.6328(3) 0.503(3) 0.2849(3)
H15 H 0.3765(10) 0.344(2) 0.3861(3)
H16 H 0.3359(3) 0.4182(8) 0.3353(12)
H17 H 0.3905(7) 0.3032(14) 0.3202(9)
H18 H 0.21492(18) 0.7033(4) 0.4639(14)
H19 H 0.2609(10) 0.594(2) 0.4308(7)
H20 H 0.2634(9) 0.604(2) 0.4997(7)
K1? K 0.57536(15) 0.5253(4) 0.49123(9)
loop_
_geom_bond_atom_site_label_1
_geom_bond_atom_site_label_2
_geom_bond_site_symmetry_1
_geom_bond_site_symmetry_2
C1 C2 1_555 1_555
N1 O2 1_555 1_555
C2 C9 1_555 1_555
C3 C5 1_555 1_555
C4 C1 1_555 1_555
C5 C4 1_555 1_555
C6 C1 1_555 1_555
C7 C9 1_555 1_555
C8 C5 1_555 1_555
C9 C3 1_555 1_555
C10 C4 1_555 1_555
O1 N2 1_555 1_555
C11 C3 1_555 1_555
C12 C6 1_555 1_555
C13 N1 1_555 1_555
C14 C2 1_555 1_555
C15 C8 1_555 1_555
N2 C16 1_555 1_555
C16 C11 1_555 1_555
C17 C10 1_555 1_555
O3 N2 1_555 1_555
C18 C12 1_555 1_555
C19 C15 1_555 1_555
C20 C7 1_555 1_555
C21 C11 1_555 1_555
C22 C14 1_555 1_555
C23 C17 1_555 1_555
C24 C20 1_555 1_555
O4 N1 1_555 1_555
H1 C6 1_555 1_555
H2 C8 1_555 1_555
H3 C17 1_555 1_555
H4 C23 1_555 1_555
H5 C24 1_555 1_555
H6 C20 1_555 1_555
H7 C4 1_555 1_555
H8 C9 1_555 1_555
H9 C18 1_555 1_555
H10 C18 1_555 1_555
H11 C18 1_555 1_555
H12 C19 1_555 1_555
H13 C19 1_555 1_555
H14 C19 1_555 1_555
H15 C21 1_555 1_555
H16 C21 1_555 1_555
H17 C21 1_555 1_555
H18 C22 1_555 1_555
H19 C22 1_555 1_555
H20 C22 1_555 1_555
C7 C10 1_555 1_555
C12 C13 1_555 1_555
C13 C14 1_555 1_555
C15 C16 1_555 1_555
C23 C24 1_555 1_555

#END
