
#######################################################################
#
#                 Cambridge Crystallographic Data Centre
#                                CCDC 
#
#######################################################################
#
# If this CIF has been generated from an entry in the Cambridge 
# Structural Database, then it will include bibliographic, chemical, 
# crystal, experimental, refinement or atomic coordinate data resulting 
# from the CCDC's data processing and validation procedures.
#
#######################################################################

data_VIPNOY
_chemical_formula_moiety         'C15 H18 N2 Se1'
_chemical_name_systematic        
N,N-Dimethyl-N'-(1-(1-naphthyl)ethyl)selenourea
_chemical_properties_biological  'Jack bean urease inhibitor'
_symmetry_cell_setting           orthorhombic
_symmetry_space_group_name_H-M   'P 21 21 21'
_symmetry_Int_Tables_number      19
_space_group_name_Hall           'P 2ac 2ab'
loop_
_symmetry_equiv_pos_site_id
_symmetry_equiv_pos_as_xyz
1 x,y,z
2 1/2-x,-y,1/2+z
3 1/2+x,1/2-y,-z
4 -x,1/2+y,1/2-z
_cell_length_a                   10.8735(18)
_cell_length_b                   11.1924(18)
_cell_length_c                   23.286(4)
_cell_angle_alpha                90
_cell_angle_beta                 90
_cell_angle_gamma                90
_cell_volume                     2833.92
_exptl_crystal_colour            'pale orange'
_exptl_crystal_description       block
_cell_formula_units_Z            8
loop_
_atom_site_label
_atom_site_type_symbol
_atom_site_fract_x
_atom_site_fract_y
_atom_site_fract_z
Se1 Se 0.57535(4) 0.57610(4) 0.02902(2)
N1 N 0.4773(3) 0.7368(3) 0.10851(14)
N2 N 0.6869(3) 0.7297(3) 0.10939(15)
C1 C 0.3525(4) 0.7089(3) 0.08877(18)
C2 C 0.2994(4) 0.5992(3) 0.11914(16)
C3 C 0.3481(4) 0.5568(3) 0.16892(18)
C4 C 0.2933(6) 0.4601(4) 0.1980(2)
C5 C 0.1886(5) 0.4090(4) 0.1770(2)
C6 C 0.0300(5) 0.3949(4) 0.1029(3)
C7 C -0.0185(5) 0.4316(6) 0.0525(3)
C8 C 0.0373(4) 0.5233(5) 0.0216(3)
C9 C 0.1378(4) 0.5792(4) 0.04255(18)
C10 C 0.1927(4) 0.5444(3) 0.09545(18)
C11 C 0.1353(4) 0.4488(3) 0.1256(2)
C12 C 0.2744(4) 0.8178(4) 0.1004(2)
C13 C 0.5817(4) 0.6899(3) 0.08700(16)
C14 C 0.8066(4) 0.6966(4) 0.0864(2)
C15 C 0.6881(4) 0.8091(4) 0.15981(19)
H1 H 0.48450 0.78730 0.13614
H2 H 0.41856 0.59203 0.18397
H3 H 0.32858 0.43095 0.23157
H4 H 0.15192 0.34675 0.19716
H5 H -0.00725 0.33271 0.12287
H6 H -0.08935 0.39549 0.03833
H7 H 0.00505 0.54630 -0.01373
H8 H 0.17210 0.64196 0.02188
H9 H 0.27961 0.83829 0.14031
H10 H 0.19046 0.80087 0.09055
H11 H 0.30358 0.88341 0.07757
H12 H 0.84509 0.63990 0.11161
H13 H 0.85735 0.76652 0.08341
H14 H 0.79643 0.66154 0.04910
H15 H 0.65194 0.88451 0.14979
H16 H 0.77138 0.82134 0.17216
H17 H 0.64173 0.77316 0.19035
Se2 Se 0.43997(5) 0.08167(4) 0.19120(2)
N3 N 0.5435(3) 0.2741(3) 0.13176(14)
N4 N 0.3631(3) 0.2084(3) 0.09307(15)
C16 C 0.6488(3) 0.2757(3) 0.17094(19)
C17 C 0.7491(3) 0.1869(3) 0.15235(16)
C18 C 0.7472(4) 0.1332(4) 0.09955(19)
C19 C 0.8407(4) 0.0537(4) 0.08215(19)
C20 C 0.9351(5) 0.0284(4) 0.11730(18)
C21 C 1.0415(4) 0.0593(4) 0.2098(2)
C22 C 1.0495(4) 0.1117(4) 0.2623(2)
C23 C 0.9560(4) 0.1885(4) 0.2802(2)
C24 C 0.8582(4) 0.2127(4) 0.24583(18)
C25 C 0.8481(3) 0.1612(3) 0.19000(17)
C26 C 0.9425(3) 0.0810(3) 0.17229(17)
C27 C 0.6974(4) 0.4043(4) 0.1706(2)
C28 C 0.4483(4) 0.1970(3) 0.13397(17)
C29 C 0.2500(4) 0.1387(4) 0.0921(2)
C30 C 0.3746(4) 0.2994(4) 0.04849(19)
H18 H 0.54224 0.32701 0.10498
H19 H 0.68270 0.14963 0.07453
H20 H 0.83689 0.01837 0.04603
H21 H 0.99618 -0.02419 0.10531
H22 H 1.10346 0.00725 0.19831
H23 H 1.11660 0.09662 0.28597
H24 H 0.96063 0.22368 0.31631
H25 H 0.79685 0.26378 0.25890
H26 H 0.72061 0.42605 0.13227
H27 H 0.76764 0.40991 0.19544
H28 H 0.63423 0.45740 0.18403
H29 H 0.25390 0.07764 0.12103
H30 H 0.24032 0.10228 0.05507
H31 H 0.18123 0.19013 0.09965
H32 H 0.37040 0.37726 0.06565
H33 H 0.30884 0.29052 0.02130
H34 H 0.45202 0.29022 0.02919
loop_
_geom_bond_atom_site_label_1
_geom_bond_atom_site_label_2
_geom_bond_site_symmetry_1
_geom_bond_site_symmetry_2
Se1 C13 1_555 1_555
N1 C1 1_555 1_555
N2 C13 1_555 1_555
C1 C2 1_555 1_555
C2 C3 1_555 1_555
C3 C4 1_555 1_555
C4 C5 1_555 1_555
C5 C11 1_555 1_555
C6 C7 1_555 1_555
C7 C8 1_555 1_555
C8 C9 1_555 1_555
C9 C10 1_555 1_555
C10 C2 1_555 1_555
C11 C6 1_555 1_555
C12 C1 1_555 1_555
C13 N1 1_555 1_555
C14 N2 1_555 1_555
C15 N2 1_555 1_555
Se2 C28 1_555 1_555
N3 C16 1_555 1_555
N4 C28 1_555 1_555
C16 C17 1_555 1_555
C17 C18 1_555 1_555
C18 C19 1_555 1_555
C19 C20 1_555 1_555
C20 C26 1_555 1_555
C21 C22 1_555 1_555
C22 C23 1_555 1_555
C23 C24 1_555 1_555
C24 C25 1_555 1_555
C25 C17 1_555 1_555
C26 C21 1_555 1_555
C27 C16 1_555 1_555
C28 N3 1_555 1_555
C29 N4 1_555 1_555
C30 N4 1_555 1_555
H1 N1 1_555 1_555
H2 C3 1_555 1_555
H3 C4 1_555 1_555
H4 C5 1_555 1_555
H5 C6 1_555 1_555
H6 C7 1_555 1_555
H7 C8 1_555 1_555
H8 C9 1_555 1_555
H9 C12 1_555 1_555
H10 C12 1_555 1_555
H11 C12 1_555 1_555
H12 C14 1_555 1_555
H13 C14 1_555 1_555
H14 C14 1_555 1_555
H15 C15 1_555 1_555
H16 C15 1_555 1_555
H17 C15 1_555 1_555
H18 N3 1_555 1_555
H19 C18 1_555 1_555
H20 C19 1_555 1_555
H21 C20 1_555 1_555
H22 C21 1_555 1_555
H23 C22 1_555 1_555
H24 C23 1_555 1_555
H25 C24 1_555 1_555
H26 C27 1_555 1_555
H27 C27 1_555 1_555
H28 C27 1_555 1_555
H29 C29 1_555 1_555
H30 C29 1_555 1_555
H31 C29 1_555 1_555
H32 C30 1_555 1_555
H33 C30 1_555 1_555
H34 C30 1_555 1_555
C10 C11 1_555 1_555
C25 C26 1_555 1_555

#END
