
#######################################################################
#
#                 Cambridge Crystallographic Data Centre
#                                CCDC 
#
#######################################################################
#
# If this CIF has been generated from an entry in the Cambridge 
# Structural Database, then it will include bibliographic, chemical, 
# crystal, experimental, refinement or atomic coordinate data resulting 
# from the CCDC's data processing and validation procedures.
#
#######################################################################

data_VIPNUE
_chemical_formula_moiety         'C11 H12 N2 S1'
_chemical_name_systematic        N,N-Dimethyl-1H-indole-1-carbothioamide
_symmetry_cell_setting           monoclinic
_symmetry_space_group_name_H-M   'P 21/c'
_symmetry_Int_Tables_number      14
_space_group_name_Hall           '-P 2ybc'
loop_
_symmetry_equiv_pos_site_id
_symmetry_equiv_pos_as_xyz
1 x,y,z
2 -x,1/2+y,1/2-z
3 -x,-y,-z
4 x,1/2-y,1/2+z
_cell_length_a                   7.329(3)
_cell_length_b                   7.643(3)
_cell_length_c                   18.594(7)
_cell_angle_alpha                90
_cell_angle_beta                 101.276(6)
_cell_angle_gamma                90
_cell_volume                     1021.45
_exptl_crystal_colour            'pale yellow'
_exptl_crystal_description       prism
_chemical_melting_point          '235 deg.C'
_cell_formula_units_Z            4
loop_
_atom_site_label
_atom_site_type_symbol
_atom_site_fract_x
_atom_site_fract_y
_atom_site_fract_z
S1 S 0.23466(12) -0.27157(10) 0.06787(4)
N1 N 0.3380(4) -0.0092(3) 0.16633(14)
N2 N 0.2802(3) 0.0619(3) 0.03717(12)
C1 C 0.4969(4) 0.0761(4) 0.19905(16)
C2 C 0.5039(4) 0.0878(3) 0.27259(13)
C3 C 0.2916(5) -0.0002(4) 0.35645(15)
C4 C 0.1255(5) -0.0824(4) 0.35766(18)
C5 C 0.0179(5) -0.1513(5) 0.29322(19)
C6 C 0.0735(4) -0.1393(4) 0.22672(16)
C7 C 0.2408(4) -0.0546(3) 0.22378(13)
C8 C 0.3481(4) 0.0123(3) 0.28931(14)
C9 C 0.2863(4) -0.0600(3) 0.08877(14)
C10 C 0.2944(6) 0.2517(4) 0.0513(2)
C11 C 0.2429(6) 0.0155(5) -0.04073(17)
H1 H 0.608(5) 0.118(5) 0.1773(18)
H2 H 0.59959 0.13911 0.30622
H3 H 0.366(5) 0.049(5) 0.398(2)
H4 H 0.073(6) -0.089(5) 0.407(2)
H5 H -0.102(5) -0.204(5) 0.293(2)
H6 H 0.003(6) -0.204(5) 0.184(2)
H7 H 0.287(6) 0.288(5) 0.099(3)
H8 H 0.401(6) 0.301(6) 0.042(2)
H9 H 0.190(6) 0.304(5) 0.025(2)
H10 H 0.312(7) 0.089(7) -0.063(3)
H11 H 0.304(6) -0.085(6) -0.047(2)
H12 H 0.119(7) 0.010(6) -0.060(2)
loop_
_geom_bond_atom_site_label_1
_geom_bond_atom_site_label_2
_geom_bond_site_symmetry_1
_geom_bond_site_symmetry_2
S1 C9 1_555 1_555
N1 C1 1_555 1_555
N2 C9 1_555 1_555
C1 C2 1_555 1_555
C2 C8 1_555 1_555
C3 C4 1_555 1_555
C4 C5 1_555 1_555
C5 C6 1_555 1_555
C6 C7 1_555 1_555
C7 N1 1_555 1_555
C8 C3 1_555 1_555
C9 N1 1_555 1_555
C10 N2 1_555 1_555
C11 N2 1_555 1_555
H1 C1 1_555 1_555
H2 C2 1_555 1_555
H3 C3 1_555 1_555
H4 C4 1_555 1_555
H5 C5 1_555 1_555
H6 C6 1_555 1_555
H7 C10 1_555 1_555
H8 C10 1_555 1_555
H9 C10 1_555 1_555
H10 C11 1_555 1_555
H11 C11 1_555 1_555
H12 C11 1_555 1_555
C7 C8 1_555 1_555

#END
