
#######################################################################
#
#                 Cambridge Crystallographic Data Centre
#                                CCDC 
#
#######################################################################
#
# If this CIF has been generated from an entry in the Cambridge 
# Structural Database, then it will include bibliographic, chemical, 
# crystal, experimental, refinement or atomic coordinate data resulting 
# from the CCDC's data processing and validation procedures.
#
#######################################################################

data_VIPPAO
_chemical_formula_moiety         'C30 H30 N2 O8'
_chemical_name_systematic        
"diethyl 18-hydroxy-16,19-dioxo-7,7a,9,10,18,19-hexahydro-6H,8H-benzo[5',6']indolizino[1',8a':4,5]furo[3,2-b]pyrrolo[1,2-a]quinoline-16a,18(16H)-dicarboxylate"
_symmetry_cell_setting           monoclinic
_symmetry_space_group_name_H-M   'P 21'
_symmetry_Int_Tables_number      4
_space_group_name_Hall           'P 2yb'
loop_
_symmetry_equiv_pos_site_id
_symmetry_equiv_pos_as_xyz
1 x,y,z
2 -x,1/2+y,-z
_cell_length_a                   8.9395(2)
_cell_length_b                   16.5805(4)
_cell_length_c                   9.5520(3)
_cell_angle_alpha                90
_cell_angle_beta                 112.421(3)
_cell_angle_gamma                90
_cell_volume                     1308.78
_exptl_crystal_colour            'yellowish yellow'
_exptl_crystal_description       plate
_cell_formula_units_Z            2
loop_
_atom_site_label
_atom_site_type_symbol
_atom_site_fract_x
_atom_site_fract_y
_atom_site_fract_z
O1 O 0.6723(2) 0.57146(13) 0.4165(2)
O2 O 0.6424(3) 0.72047(14) 0.6662(2)
O3 O 0.8242(3) 0.62252(14) 0.6884(2)
O4 O 0.4462(3) 0.57392(16) 0.1204(3)
O5 O 0.7065(3) 0.56010(18) 0.0523(3)
O6 O 0.5341(3) 0.37076(16) 0.0860(3)
O7 O 0.5799(4) 0.72896(16) 0.3171(3)
N1 N 0.6952(3) 0.43039(16) 0.4013(3)
O8 O 0.2984(3) 0.42833(18) 0.0570(3)
N2 N 0.3026(3) 0.59420(18) 0.4839(3)
C1 C 0.6874(3) 0.66122(18) 0.6200(3)
C2 C 0.8237(3) 0.41712(19) 0.3600(3)
C3 C 0.5426(3) 0.50614(19) 0.1751(3)
C4 C 0.7007(4) 0.5119(2) 0.1455(3)
C5 C 0.5903(3) 0.49804(18) 0.3487(3)
C6 C 0.4612(3) 0.55885(19) 0.5118(3)
C7 C 0.8324(4) 0.4577(2) 0.2335(3)
C8 C 0.9585(4) 0.4408(2) 0.1865(4)
H1 H 0.9648 0.4691 0.1024
C9 C 0.9465(4) 0.3625(2) 0.4382(4)
H2 H 0.9466 0.3371 0.5273
C10 C 0.5777(3) 0.61871(19) 0.4747(3)
C11 C 0.4414(4) 0.4311(2) 0.0965(3)
C12 C 0.4515(3) 0.48605(19) 0.4043(3)
H3 H 0.3455 0.4872 0.3160
C13 C 0.9207(4) 0.6502(2) 0.8422(3)
H4 H 0.8541 0.6510 0.9046
H5 H 0.9623 0.7053 0.8398
C14 C 1.0679(4) 0.3453(2) 0.3863(4)
H6 H 1.1481 0.3065 0.4382
C15 C 1.0745(4) 0.3837(3) 0.2595(4)
H7 H 1.1573 0.3710 0.2238
C16 C 0.4932(4) 0.6862(2) 0.3586(3)
C17 C 0.3179(4) 0.6955(2) 0.3075(3)
C18 C 0.2294(4) 0.6500(2) 0.3739(4)
C19 C 0.4829(4) 0.4005(2) 0.4730(4)
H8 H 0.4528 0.3972 0.5624
H9 H 0.4194 0.3600 0.3975
C20 C 0.6634(4) 0.38624(19) 0.5183(3)
H10 H 0.7263 0.4083 0.6202
H11 H 0.6881 0.3281 0.5164
C21 C 0.2402(6) 0.7546(3) 0.1988(4)
H12 H 0.3010 0.7847 0.1543
C22 C 0.5128(4) 0.5354(2) 0.6800(3)
H13 H 0.5905 0.4900 0.7060
H14 H 0.5637 0.5818 0.7465
C23 C 0.2220(4) 0.5564(3) 0.5733(4)
H15 H 0.1363 0.5190 0.5103
H16 H 0.1727 0.5975 0.6175
C24 C 0.0616(4) 0.6661(3) 0.3283(4)
H17 H -0.0012 0.6365 0.3713
C25 C 1.0576(4) 0.5921(3) 0.9064(4)
H18 H 1.1271 0.5950 0.8482
H19 H 1.0148 0.5373 0.9009
H20 H 1.1209 0.6060 1.0124
C26 C 0.3553(5) 0.5107(2) 0.6971(4)
H21 H 0.3381 0.4518 0.6836
H22 H 0.3581 0.5258 0.7983
C27 C 0.4621(5) 0.2907(2) 0.0471(5)
H23 H 0.4252 0.2814 -0.0634
H24 H 0.3679 0.2854 0.0769
C28 C 0.0770(6) 0.7695(3) 0.1554(5)
H25 H 0.0252 0.8097 0.0818
C29 C -0.0103(5) 0.7249(3) 0.2213(5)
H26 H -0.1227 0.7351 0.1919
C30 C 0.5909(6) 0.2312(2) 0.1319(5)
H27 H 0.6832 0.2371 0.1013
H28 H 0.5475 0.1763 0.1090
H29 H 0.6262 0.2412 0.2409
H30 H 0.486(8) 0.599(4) 0.075(6)
loop_
_geom_bond_atom_site_label_1
_geom_bond_atom_site_label_2
_geom_bond_site_symmetry_1
_geom_bond_site_symmetry_2
O1 C5 1_555 1_555
O2 C1 1_555 1_555
O3 C1 1_555 1_555
O4 C3 1_555 1_555
O5 C4 1_555 1_555
O6 C11 1_555 1_555
O7 C16 1_555 1_555
N1 C2 1_555 1_555
O8 C11 1_555 1_555
N2 C6 1_555 1_555
C1 C10 1_555 1_555
C2 C7 1_555 1_555
C3 C4 1_555 1_555
C4 C7 1_555 1_555
C5 N1 1_555 1_555
C6 C10 1_555 1_555
C7 C8 1_555 1_555
C8 H1 1_555 1_555
C9 C2 1_555 1_555
H2 C9 1_555 1_555
C10 O1 1_555 1_555
C11 C3 1_555 1_555
C12 C5 1_555 1_555
H3 C12 1_555 1_555
C13 O3 1_555 1_555
H4 C13 1_555 1_555
H5 C13 1_555 1_555
C14 C9 1_555 1_555
H6 C14 1_555 1_555
C15 C8 1_555 1_555
H7 C15 1_555 1_555
C16 C10 1_555 1_555
C17 C16 1_555 1_555
C18 N2 1_555 1_555
C19 C12 1_555 1_555
H8 C19 1_555 1_555
H9 C19 1_555 1_555
C20 N1 1_555 1_555
H10 C20 1_555 1_555
H11 C20 1_555 1_555
C21 C17 1_555 1_555
H12 C21 1_555 1_555
C22 C6 1_555 1_555
H13 C22 1_555 1_555
H14 C22 1_555 1_555
C23 N2 1_555 1_555
H15 C23 1_555 1_555
H16 C23 1_555 1_555
C24 C18 1_555 1_555
H17 C24 1_555 1_555
C25 C13 1_555 1_555
H18 C25 1_555 1_555
H19 C25 1_555 1_555
H20 C25 1_555 1_555
C26 C22 1_555 1_555
H21 C26 1_555 1_555
H22 C26 1_555 1_555
C27 O6 1_555 1_555
H23 C27 1_555 1_555
H24 C27 1_555 1_555
C28 C21 1_555 1_555
H25 C28 1_555 1_555
C29 C24 1_555 1_555
H26 C29 1_555 1_555
C30 C27 1_555 1_555
H27 C30 1_555 1_555
H28 C30 1_555 1_555
H29 C30 1_555 1_555
H30 O4 1_555 1_555
C3 C5 1_555 1_555
C6 C12 1_555 1_555
C14 C15 1_555 1_555
C17 C18 1_555 1_555
C19 C20 1_555 1_555
C23 C26 1_555 1_555
C28 C29 1_555 1_555

#END
