
#######################################################################
#
#                 Cambridge Crystallographic Data Centre
#                                CCDC 
#
#######################################################################
#
# If this CIF has been generated from an entry in the Cambridge 
# Structural Database, then it will include bibliographic, chemical, 
# crystal, experimental, refinement or atomic coordinate data resulting 
# from the CCDC's data processing and validation procedures.
#
#######################################################################

data_VIPPES
_chemical_formula_moiety         'C32 H34 N2 O8,C1 H2 Cl2'
_chemical_name_systematic        
'diethyl 11,22,23,24-tetraoxo-6,7,8,9,17,18,19,20-octahydro-5,21:10,16-dimethanodibenzo[b,k][1,10]diazacyclo-octadecine-10,21(11H,22H)-dicarboxylate dichloromethane solvate'
_symmetry_cell_setting           orthorhombic
_symmetry_space_group_name_H-M   'P 21 21 21'
_symmetry_Int_Tables_number      19
_space_group_name_Hall           'P 2ac 2ab'
loop_
_symmetry_equiv_pos_site_id
_symmetry_equiv_pos_as_xyz
1 x,y,z
2 1/2-x,-y,1/2+z
3 -x,1/2+y,1/2-z
4 1/2+x,1/2-y,-z
_cell_length_a                   8.67852(19)
_cell_length_b                   14.8429(4)
_cell_length_c                   24.4916(6)
_cell_angle_alpha                90
_cell_angle_beta                 90
_cell_angle_gamma                90
_cell_volume                     3154.87
_exptl_crystal_colour            colorless
_exptl_crystal_description       plate
_cell_formula_units_Z            4
loop_
_atom_site_label
_atom_site_type_symbol
_atom_site_fract_x
_atom_site_fract_y
_atom_site_fract_z
Cl1 Cl 0.88658(13) 0.69492(10) 0.12192(5)
Cl2 Cl 0.6460(2) 0.56353(10) 0.14213(6)
C1 C 0.6877(5) 0.6780(3) 0.1335(2)
H1 H 0.6559 0.7116 0.1666
H2 H 0.6284 0.7018 0.1022
O1 O 0.7535(3) 0.21956(17) 0.21434(11)
O2 O 0.4216(3) 0.31101(17) 0.47732(11)
O3 O 0.3472(3) 0.4756(2) 0.56836(10)
O4 O 0.6985(3) 0.35039(19) 0.17324(10)
O5 O 0.4563(3) 0.33469(17) 0.27088(12)
O6 O 0.2839(3) 0.61799(18) 0.46855(12)
O7 O 0.1165(3) 0.4326(2) 0.53551(11)
O8 O 0.9804(3) 0.4050(2) 0.24878(13)
N1 N 0.5338(3) 0.47946(19) 0.28056(11)
N2 N 0.6087(3) 0.41677(19) 0.47324(11)
C2 C 0.5604(4) 0.3898(2) 0.27269(13)
C3 C 0.4581(4) 0.3899(2) 0.47487(13)
C4 C 0.8079(4) 0.5212(2) 0.27350(13)
C5 C 0.6553(4) 0.5071(2) 0.46817(13)
C6 C 0.5463(4) 0.5769(2) 0.46427(13)
C7 C 0.7265(4) 0.3566(2) 0.26791(13)
C8 C 0.7284(4) 0.2983(2) 0.21618(14)
C9 C 0.6528(4) 0.5443(2) 0.28371(13)
C10 C 0.3159(4) 0.5194(2) 0.34254(13)
H3 H 0.2214 0.5567 0.3429
H4 H 0.3959 0.5518 0.3637
C11 C 0.8517(4) 0.4278(2) 0.26156(13)
C12 C 0.3809(4) 0.5589(2) 0.46886(12)
C13 C 0.7622(4) 0.2982(2) 0.31868(14)
H5 H 0.6837 0.2500 0.3216
H6 H 0.8638 0.2689 0.3137
C14 C 0.3706(4) 0.5087(2) 0.28412(14)
H7 H 0.3048 0.4638 0.2654
H8 H 0.3587 0.5669 0.2648
C15 C 0.3293(4) 0.4608(2) 0.47342(13)
C16 C 0.7325(5) 0.6982(3) 0.29432(16)
H9 H 0.7070 0.7591 0.3022
C17 C 0.7640(4) 0.3521(2) 0.37161(14)
H10 H 0.6825 0.3987 0.3702
H11 H 0.8645 0.3831 0.3753
C18 C 0.2820(4) 0.4294(2) 0.37048(13)
H12 H 0.2094 0.3950 0.3473
H13 H 0.3790 0.3945 0.3726
C19 C 0.5959(5) 0.6660(3) 0.45757(14)
H14 H 0.5215 0.7128 0.4549
C20 C 0.6182(5) 0.6345(2) 0.29466(15)
H15 H 0.5150 0.6516 0.3024
C21 C 0.7209(4) 0.3403(2) 0.47585(14)
H16 H 0.6861 0.2967 0.5038
H17 H 0.8228 0.3637 0.4873
C22 C 0.7379(4) 0.2918(2) 0.42123(14)
H18 H 0.6437 0.2556 0.4148
H19 H 0.8254 0.2492 0.4240
C23 C 0.2477(4) 0.4538(2) 0.52907(14)
C24 C 0.9208(4) 0.5874(3) 0.27280(15)
H20 H 1.0246 0.5712 0.2653
C25 C 0.8124(4) 0.5320(3) 0.46610(17)
H21 H 0.8888 0.4864 0.4691
C26 C 0.2138(4) 0.4363(2) 0.42795(14)
H22 H 0.1655 0.3779 0.4372
H23 H 0.1312 0.4823 0.4275
C27 C 0.7502(5) 0.6874(3) 0.45473(17)
H24 H 0.7823 0.7479 0.4493
C28 C 0.2846(6) 0.4799(3) 0.62364(15)
H25 H 0.3690 0.4728 0.6505
H26 H 0.2103 0.4301 0.6292
C29 C 0.8573(5) 0.6190(3) 0.45997(18)
H27 H 0.9641 0.6331 0.4593
C30 C 0.7163(5) 0.3089(3) 0.11932(15)
H28 H 0.6529 0.3421 0.0924
H29 H 0.6791 0.2459 0.1206
C31 C 0.8849(5) 0.6762(3) 0.28274(17)
H30 H 0.9623 0.7214 0.2817
C32 C 0.2054(7) 0.5686(3) 0.63244(18)
H31 H 0.1171 0.5735 0.6076
H32 H 0.2778 0.6178 0.6251
H33 H 0.1694 0.5725 0.6703
C33 C 0.8810(6) 0.3103(5) 0.10189(19)
H34 H 0.8896 0.2863 0.0647
H35 H 0.9422 0.2732 0.1269
H36 H 0.9194 0.3724 0.1026
loop_
_geom_bond_atom_site_label_1
_geom_bond_atom_site_label_2
_geom_bond_site_symmetry_1
_geom_bond_site_symmetry_2
Cl1 C1 1_555 1_555
Cl2 C1 1_555 1_555
C1 H1 1_555 1_555
H2 C1 1_555 1_555
O1 C8 1_555 1_555
O2 C3 1_555 1_555
O3 C23 1_555 1_555
O4 C8 1_555 1_555
O5 C2 1_555 1_555
O6 C12 1_555 1_555
O7 C23 1_555 1_555
O8 C11 1_555 1_555
N1 C2 1_555 1_555
N2 C3 1_555 1_555
C2 C7 1_555 1_555
C3 C15 1_555 1_555
C4 C9 1_555 1_555
C5 N2 1_555 1_555
C6 C5 1_555 1_555
C7 C8 1_555 1_555
C9 N1 1_555 1_555
C10 H3 1_555 1_555
H4 C10 1_555 1_555
C11 C4 1_555 1_555
C12 C6 1_555 1_555
C13 C7 1_555 1_555
H5 C13 1_555 1_555
H6 C13 1_555 1_555
C14 N1 1_555 1_555
H7 C14 1_555 1_555
H8 C14 1_555 1_555
C15 C12 1_555 1_555
C16 H9 1_555 1_555
C17 C13 1_555 1_555
H10 C17 1_555 1_555
H11 C17 1_555 1_555
C18 C10 1_555 1_555
H12 C18 1_555 1_555
H13 C18 1_555 1_555
C19 C6 1_555 1_555
H14 C19 1_555 1_555
C20 C9 1_555 1_555
H15 C20 1_555 1_555
C21 N2 1_555 1_555
H16 C21 1_555 1_555
H17 C21 1_555 1_555
C22 C17 1_555 1_555
H18 C22 1_555 1_555
H19 C22 1_555 1_555
C23 C15 1_555 1_555
C24 C4 1_555 1_555
H20 C24 1_555 1_555
C25 C5 1_555 1_555
H21 C25 1_555 1_555
C26 C15 1_555 1_555
H22 C26 1_555 1_555
H23 C26 1_555 1_555
C27 C19 1_555 1_555
H24 C27 1_555 1_555
C28 O3 1_555 1_555
H25 C28 1_555 1_555
H26 C28 1_555 1_555
C29 C25 1_555 1_555
H27 C29 1_555 1_555
C30 O4 1_555 1_555
H28 C30 1_555 1_555
H29 C30 1_555 1_555
C31 C16 1_555 1_555
H30 C31 1_555 1_555
C32 C28 1_555 1_555
H31 C32 1_555 1_555
H32 C32 1_555 1_555
H33 C32 1_555 1_555
C33 C30 1_555 1_555
H34 C33 1_555 1_555
H35 C33 1_555 1_555
H36 C33 1_555 1_555
C7 C11 1_555 1_555
C10 C14 1_555 1_555
C16 C20 1_555 1_555
C18 C26 1_555 1_555
C21 C22 1_555 1_555
C24 C31 1_555 1_555
C27 C29 1_555 1_555

#END
