
#######################################################################
#
#                 Cambridge Crystallographic Data Centre
#                                CCDC 
#
#######################################################################
#
# If this CIF has been generated from an entry in the Cambridge 
# Structural Database, then it will include bibliographic, chemical, 
# crystal, experimental, refinement or atomic coordinate data resulting 
# from the CCDC's data processing and validation procedures.
#
#######################################################################

data_VIPPIV
_chemical_formula_moiety         'C20 H20 Cl1 N3 O3'
_chemical_name_systematic        
'Methyl 1-(4-chlorophenyl)-8-oxo-4-phenylhexahydro-6H-pyrazolo[1,2-a][1,2,4]triazine-3-carboxylate'
_symmetry_cell_setting           orthorhombic
_symmetry_space_group_name_H-M   'P 21 21 21'
_symmetry_Int_Tables_number      19
_space_group_name_Hall           'P 2ac 2ab'
loop_
_symmetry_equiv_pos_site_id
_symmetry_equiv_pos_as_xyz
1 x,y,z
2 1/2-x,-y,1/2+z
3 -x,1/2+y,1/2-z
4 1/2+x,1/2-y,-z
_cell_length_a                   8.5029(8)
_cell_length_b                   10.6433(10)
_cell_length_c                   21.447(2)
_cell_angle_alpha                90
_cell_angle_beta                 90
_cell_angle_gamma                90
_cell_volume                     1940.93
_exptl_crystal_description       block
_cell_formula_units_Z            4
loop_
_atom_site_label
_atom_site_type_symbol
_atom_site_fract_x
_atom_site_fract_y
_atom_site_fract_z
C1 C -0.3389(3) 0.4548(2) 0.03633(11)
C2 C -0.3284(3) 0.5416(2) 0.08285(11)
H1 H -0.4156 0.5892 0.0942
C3 C -0.1862(2) 0.5578(2) 0.11296(10)
H2 H -0.1781 0.6169 0.1447
C4 C -0.0569(2) 0.4881(2) 0.09678(9)
C5 C -0.0723(3) 0.3997(2) 0.05071(11)
H3 H 0.0138 0.3507 0.0397
C6 C -0.2145(3) 0.3825(3) 0.02037(12)
H4 H -0.2242 0.3219 -0.0106
C7 C 0.0980(2) 0.5042(2) 0.13085(10)
H5 H 0.1782 0.4528 0.1102
C8 C 0.2133(2) 0.48562(19) 0.23407(9)
H6 H 0.3016 0.4325 0.2211
C9 C 0.2638(2) 0.62459(19) 0.23131(9)
H7 H 0.1782 0.6775 0.2471
C10 C 0.1535(2) 0.7110(2) 0.07751(10)
C11 C 0.2747(3) 0.8098(3) 0.08879(11)
H8 H 0.2314 0.8931 0.0822
H9 H 0.3646 0.7984 0.0616
C12 C 0.3198(3) 0.7909(2) 0.15608(10)
H10 H 0.4291 0.8128 0.1632
H11 H 0.2538 0.8404 0.1836
C13 C 0.4111(2) 0.64902(19) 0.26905(9)
C14 C 0.4056(3) 0.7197(2) 0.32232(11)
H12 H 0.3116 0.7569 0.3345
C15 C 0.5396(3) 0.7361(3) 0.35803(13)
H13 H 0.5343 0.7838 0.3943
C16 C 0.6782(3) 0.6835(2) 0.34101(12)
H14 H 0.7674 0.6949 0.3654
C17 C 0.6856(3) 0.6141(2) 0.28788(11)
H15 H 0.7807 0.5786 0.2757
C18 C 0.5529(2) 0.5960(2) 0.25199(10)
H16 H 0.5591 0.5477 0.2159
C19 C 0.1685(2) 0.4538(2) 0.30032(10)
C20 C 0.2659(3) 0.3965(3) 0.39918(10)
H17 H 0.2707 0.4786 0.4176
H18 H 0.3478 0.3448 0.4163
H19 H 0.1655 0.3592 0.4079
Cl1 Cl -0.51632(9) 0.43648(8) -0.00294(4)
N1 N 0.0789(2) 0.46084(17) 0.19403(8)
H20 H -0.0047 0.4235 0.2069
N2 N 0.14888(18) 0.63620(17) 0.13014(8)
N3 N 0.29325(18) 0.65521(16) 0.16534(7)
O1 O 0.0727(2) 0.69716(17) 0.03164(7)
O2 O 0.04222(19) 0.4768(2) 0.32225(9)
O3 O 0.28672(17) 0.40679(15) 0.33239(6)
loop_
_geom_bond_atom_site_label_1
_geom_bond_atom_site_label_2
_geom_bond_site_symmetry_1
_geom_bond_site_symmetry_2
C1 C2 1_555 1_555
C2 H1 1_555 1_555
C3 C2 1_555 1_555
H2 C3 1_555 1_555
C4 C3 1_555 1_555
C5 C4 1_555 1_555
H3 C5 1_555 1_555
C6 C1 1_555 1_555
H4 C6 1_555 1_555
C7 C4 1_555 1_555
H5 C7 1_555 1_555
C8 H6 1_555 1_555
C9 C8 1_555 1_555
H7 C9 1_555 1_555
C10 C11 1_555 1_555
C11 H8 1_555 1_555
H9 C11 1_555 1_555
C12 C11 1_555 1_555
H10 C12 1_555 1_555
H11 C12 1_555 1_555
C13 C9 1_555 1_555
C14 C13 1_555 1_555
H12 C14 1_555 1_555
C15 C14 1_555 1_555
H13 C15 1_555 1_555
C16 C15 1_555 1_555
H14 C16 1_555 1_555
C17 C16 1_555 1_555
H15 C17 1_555 1_555
C18 C13 1_555 1_555
H16 C18 1_555 1_555
C19 C8 1_555 1_555
C20 H17 1_555 1_555
H18 C20 1_555 1_555
H19 C20 1_555 1_555
Cl1 C1 1_555 1_555
N1 C7 1_555 1_555
H20 N1 1_555 1_555
N2 C7 1_555 1_555
N3 C9 1_555 1_555
O1 C10 1_555 1_555
O2 C19 1_555 1_555
O3 C19 1_555 1_555
C5 C6 1_555 1_555
C8 N1 1_555 1_555
C10 N2 1_555 1_555
C12 N3 1_555 1_555
C17 C18 1_555 1_555
C20 O3 1_555 1_555
N2 N3 1_555 1_555

#END
