
#######################################################################
#
#                 Cambridge Crystallographic Data Centre
#                                CCDC 
#
#######################################################################
#
# If this CIF has been generated from an entry in the Cambridge 
# Structural Database, then it will include bibliographic, chemical, 
# crystal, experimental, refinement or atomic coordinate data resulting 
# from the CCDC's data processing and validation procedures.
#
#######################################################################

data_VIPPAM
_chemical_formula_moiety         'C10 H20 N4 S2'
_chemical_name_systematic        1,4-bis(N,N-Dimethylcarbothioamide)piperazine
_symmetry_cell_setting           triclinic
_symmetry_space_group_name_H-M   'P -1'
_symmetry_Int_Tables_number      2
_space_group_name_Hall           '-P 1'
loop_
_symmetry_equiv_pos_site_id
_symmetry_equiv_pos_as_xyz
1 x,y,z
2 -x,-y,-z
_cell_length_a                   5.6783(16)
_cell_length_b                   6.4775(18)
_cell_length_c                   10.078(3)
_cell_angle_alpha                77.647(4)
_cell_angle_beta                 75.433(4)
_cell_angle_gamma                70.893(4)
_cell_volume                     335.472
_exptl_crystal_colour            colorless
_exptl_crystal_description       prism
_chemical_melting_point          '200 deg.C'
_cell_formula_units_Z            1
loop_
_atom_site_label
_atom_site_type_symbol
_atom_site_fract_x
_atom_site_fract_y
_atom_site_fract_z
S1 S 0.39508(12) 0.81726(10) 0.24636(7)
N1 N 0.8013(3) 0.5274(3) 0.11944(18)
N2 N 0.5479(4) 0.3815(3) 0.3069(2)
C1 C 0.8320(4) 0.3717(4) 0.0247(2)
C2 C 0.5882(4) 0.5634(4) 0.2240(2)
C3 C 0.8941(4) 0.7139(4) 0.0448(2)
C4 C 0.7521(5) 0.1791(4) 0.3325(3)
C5 C 0.3058(5) 0.3887(5) 0.4026(3)
H1 H 0.73012 0.44540 -0.04534
H2 H 0.77064 0.24862 0.07633
H3 H 0.87978 0.81189 0.10881
H4 H 0.79267 0.79652 -0.02413
H5 H 0.91218 0.19976 0.28197
H6 H 0.72352 0.05968 0.30263
H7 H 0.75448 0.14495 0.42977
H8 H 0.30988 0.42796 0.48842
H9 H 0.27764 0.24625 0.41943
H10 H 0.17069 0.49659 0.36280
S1A S 1.60492(12) 0.18274(10) -0.24636(7)
N1A N 1.1987(3) 0.4726(3) -0.11944(18)
N2A N 1.4521(4) 0.6185(3) -0.3069(2)
C1A C 1.1680(4) 0.6283(4) -0.0247(2)
C2A C 1.4118(4) 0.4366(4) -0.2240(2)
C3A C 1.1059(4) 0.2861(4) -0.0448(2)
C4A C 1.2479(5) 0.8209(4) -0.3325(3)
C5A C 1.6942(5) 0.6113(5) -0.4026(3)
H1A H 1.26988 0.55460 0.04534
H2A H 1.22936 0.75138 -0.07633
H3A H 1.12022 0.18811 -0.10881
H4A H 1.20733 0.20348 0.02413
H5A H 1.08782 0.80024 -0.28197
H6A H 1.27648 0.94032 -0.30263
H7A H 1.24552 0.85505 -0.42977
H8A H 1.69012 0.57204 -0.48842
H9A H 1.72236 0.75375 -0.41943
H10A H 1.82931 0.50341 -0.36280
loop_
_geom_bond_atom_site_label_1
_geom_bond_atom_site_label_2
_geom_bond_site_symmetry_1
_geom_bond_site_symmetry_2
S1 C2 1_555 1_555
N1 C1 1_555 1_555
N2 C2 1_555 1_555
C1 H1 1_555 1_555
C2 N1 1_555 1_555
C3 N1 1_555 1_555
C4 N2 1_555 1_555
C5 N2 1_555 1_555
H2 C1 1_555 1_555
H3 C3 1_555 1_555
H4 C3 1_555 1_555
H5 C4 1_555 1_555
H6 C4 1_555 1_555
H7 C4 1_555 1_555
H8 C5 1_555 1_555
H9 C5 1_555 1_555
H10 C5 1_555 1_555
S1A C2A 1_555 1_555
N1A C1A 1_555 1_555
N2A C2A 1_555 1_555
C1A C3 1_555 1_555
C2A N1A 1_555 1_555
C3A C1 1_555 1_555
C4A N2A 1_555 1_555
C5A N2A 1_555 1_555
H1A C1A 1_555 1_555
H2A C1A 1_555 1_555
H3A C3A 1_555 1_555
H4A C3A 1_555 1_555
H5A C4A 1_555 1_555
H6A C4A 1_555 1_555
H7A C4A 1_555 1_555
H8A C5A 1_555 1_555
H9A C5A 1_555 1_555
H10A C5A 1_555 1_555
N1A C3A 1_555 1_555

#END
