
#######################################################################
#
#                 Cambridge Crystallographic Data Centre
#                                CCDC 
#
#######################################################################
#
# If this CIF has been generated from an entry in the Cambridge 
# Structural Database, then it will include bibliographic, chemical, 
# crystal, experimental, refinement or atomic coordinate data resulting 
# from the CCDC's data processing and validation procedures.
#
#######################################################################

data_VIPRER
_chemical_formula_moiety         'C23 H26 N2 O3'
_chemical_name_systematic        
(4-Methoxyphenyl)(2-methyl-1-(2-(4-morpholinyl)ethyl)-1H-indol-3-yl)methanone
_chemical_properties_biological  
'antinociceptive activity in rodent assays and inhibitory activity against prostoglandin synthesis in mouse brain microsomes in vitro'
_symmetry_cell_setting           triclinic
_symmetry_space_group_name_H-M   'P -1'
_symmetry_Int_Tables_number      2
_space_group_name_Hall           '-P 1'
loop_
_symmetry_equiv_pos_site_id
_symmetry_equiv_pos_as_xyz
1 x,y,z
2 -x,-y,-z
_cell_length_a                   8.519(27)
_cell_length_b                   12.017(45)
_cell_length_c                   19.382(87)
_cell_angle_alpha                86.96(33)
_cell_angle_beta                 86.02(32)
_cell_angle_gamma                88.74(28)
_cell_volume                     1976.29
_exptl_crystal_colour            white
_chemical_melting_point          104-105deg.C
_cell_formula_units_Z            4
loop_
_atom_site_label
_atom_site_type_symbol
_atom_site_fract_x
_atom_site_fract_y
_atom_site_fract_z
C1 C 0.0813(6) -0.0739(4) 0.7612(3)
C2 C 0.1005(6) -0.1656(4) 0.8066(3)
N1 N 0.0588(5) -0.2591(3) 0.7764(2)
C3 C 0.0097(6) -0.2311(4) 0.7112(3)
C4 C -0.0418(7) -0.2981(5) 0.6624(3)
C5 C -0.0830(8) -0.2494(6) 0.6003(4)
C6 C -0.0774(8) -0.1340(5) 0.5885(4)
C7 C -0.0265(7) -0.0656(5) 0.6367(3)
C8 C 0.0227(6) -0.1141(4) 0.6999(3)
C9 C 0.1623(7) -0.1738(5) 0.8769(3)
C10 C 0.0528(7) -0.3714(4) 0.8091(3)
C11 C -0.1066(6) -0.3922(4) 0.8480(3)
N2 N -0.1012(5) -0.4843(3) 0.8991(2)
C12 C -0.0718(7) -0.5909(4) 0.8683(3)
C13 C -0.0668(7) -0.6830(5) 0.9242(3)
O1 O -0.2109(4) -0.6894(3) 0.9652(2)
C14 C -0.2417(7) -0.5852(4) 0.9969(3)
C15 C -0.2495(6) -0.4903(4) 0.9434(3)
C16 C 0.1144(6) 0.0399(4) 0.7778(3)
C17 C 0.1532(6) 0.1268(4) 0.7225(3)
C18 C 0.2448(7) 0.1057(5) 0.6635(3)
C19 C 0.2853(7) 0.1915(5) 0.6143(3)
C20 C 0.2275(7) 0.2964(5) 0.6263(3)
C21 C 0.1360(7) 0.3194(5) 0.6836(3)
C22 C 0.0995(7) 0.2352(4) 0.7321(3)
C23 C 0.3688(9) 0.3748(6) 0.5259(4)
O2 O 0.2538(5) 0.3892(4) 0.5791(2)
O3 O 0.1129(5) 0.0678(3) 0.8384(2)
H1 H -0.0509 -0.3769 0.6725
H2 H -0.1111 -0.2954 0.5643
H3 H -0.1114 -0.1007 0.5458
H4 H -0.0255 0.0139 0.6285
H5 H 0.1870 -0.1009 0.8904
H6 H 0.2554 -0.2204 0.8765
H7 H 0.0831 -0.2057 0.9092
H8 H 0.0705 -0.4249 0.7742
H9 H 0.1330 -0.3804 0.8416
H10 H -0.1812 -0.4085 0.8152
H11 H -0.1395 -0.3257 0.8707
H12 H -0.1555 -0.6053 0.8395
H13 H 0.0262 -0.5885 0.8407
H14 H 0.0163 -0.6681 0.9532
H15 H -0.0460 -0.7530 0.9033
H16 H -0.3379 -0.5896 1.0257
H17 H -0.1562 -0.5710 1.0247
H18 H -0.2697 -0.4210 0.9651
H19 H -0.3340 -0.5047 0.9151
H20 H 0.2800 0.0307 0.6559
H21 H 0.3543 0.1777 0.5743
H22 H 0.0958 0.3938 0.6896
H23 H 0.0379 0.2513 0.7739
H24 H 0.3769 0.4429 0.4978
H25 H 0.3411 0.3154 0.4981
H26 H 0.4680 0.3574 0.5450
C24 C 0.4879(6) 0.5641(4) 0.2371(3)
C25 C 0.5285(6) 0.6557(4) 0.1942(3)
N3 N 0.4661(5) 0.7495(3) 0.2235(2)
C26 C 0.3800(6) 0.7196(4) 0.2844(3)
C27 C 0.2897(7) 0.7865(5) 0.3292(3)
C28 C 0.2085(7) 0.7342(5) 0.3854(3)
C29 C 0.2171(7) 0.6199(5) 0.3968(3)
C30 C 0.3076(7) 0.5527(5) 0.3531(3)
C31 C 0.3921(6) 0.6037(4) 0.2950(3)
C32 C 0.6240(7) 0.6640(5) 0.1274(3)
C33 C 0.4739(6) 0.8622(4) 0.1922(3)
C34 C 0.3350(7) 0.8884(4) 0.1484(3)
N4 N 0.3614(5) 0.9820(3) 0.0981(2)
C35 C 0.3806(7) 1.0865(4) 0.1309(3)
C36 C 0.4074(7) 1.1791(5) 0.0759(3)
O4 O 0.2782(4) 1.1913(3) 0.0331(2)
C37 C 0.2579(7) 1.0892(4) 0.0005(3)
C38 C 0.2307(6) 0.9937(4) 0.0527(3)
C39 C 0.5288(6) 0.4488(4) 0.2218(3)
C40 C 0.5346(6) 0.3613(4) 0.2786(3)
C41 C 0.6100(7) 0.3766(5) 0.3380(3)
C42 C 0.6251(7) 0.2912(4) 0.3887(3)
C43 C 0.5561(7) 0.1917(5) 0.3802(3)
C44 C 0.4769(7) 0.1751(5) 0.3228(3)
C45 C 0.4677(7) 0.2591(4) 0.2721(3)
C46 C 0.6545(8) 0.1077(6) 0.4848(3)
O5 O 0.5572(5) 0.1016(4) 0.4279(2)
O6 O 0.5588(4) 0.4200(3) 0.1617(2)
H27 H 0.2856 0.8659 0.3210
H28 H 0.1474 0.7781 0.4178
H29 H 0.1559 0.5858 0.4354
H30 H 0.3139 0.4734 0.3618
H31 H 0.6596 0.5909 0.1151
H32 H 0.7132 0.7104 0.1308
H33 H 0.5593 0.6958 0.0925
H34 H 0.4726 0.9142 0.2281
H35 H 0.5698 0.8695 0.1633
H36 H 0.2440 0.9044 0.1785
H37 H 0.3166 0.8235 0.1235
H38 H 0.2863 1.1042 0.1585
H39 H 0.4677 1.0800 0.1598
H40 H 0.4995 1.1593 0.0474
H41 H 0.4239 1.2484 0.0965
H42 H 0.1706 1.0977 -0.0282
H43 H 0.3518 1.0726 -0.0276
H44 H 0.2205 0.9255 0.0298
H45 H 0.1353 1.0090 0.0801
H46 H 0.6530 0.4483 0.3443
H47 H 0.6827 0.3016 0.4287
H48 H 0.4259 0.1055 0.3189
H49 H 0.4150 0.2468 0.2311
H50 H 0.6454 0.0404 0.5137
H51 H 0.6204 0.1701 0.5113
H52 H 0.7623 0.1171 0.4679
loop_
_geom_bond_atom_site_label_1
_geom_bond_atom_site_label_2
_geom_bond_site_symmetry_1
_geom_bond_site_symmetry_2
C1 C2 1_555 1_555
C2 N1 1_555 1_555
N1 C3 1_555 1_555
C3 C4 1_555 1_555
C4 C5 1_555 1_555
C5 C6 1_555 1_555
C6 C7 1_555 1_555
C7 C8 1_555 1_555
C8 C1 1_555 1_555
C9 C2 1_555 1_555
C10 N1 1_555 1_555
C11 C10 1_555 1_555
N2 C11 1_555 1_555
C12 N2 1_555 1_555
C13 C12 1_555 1_555
O1 C13 1_555 1_555
C14 O1 1_555 1_555
C15 N2 1_555 1_555
C16 C1 1_555 1_555
C17 C16 1_555 1_555
C18 C17 1_555 1_555
C19 C18 1_555 1_555
C20 C19 1_555 1_555
C21 C20 1_555 1_555
C22 C17 1_555 1_555
C23 O2 1_555 1_555
O2 C20 1_555 1_555
O3 C16 1_555 1_555
C24 C25 1_555 1_555
C25 N3 1_555 1_555
N3 C26 1_555 1_555
C26 C27 1_555 1_555
C27 C28 1_555 1_555
C28 C29 1_555 1_555
C29 C30 1_555 1_555
C30 C31 1_555 1_555
C31 C24 1_555 1_555
C32 C25 1_555 1_555
C33 N3 1_555 1_555
C34 C33 1_555 1_555
N4 C34 1_555 1_555
C35 N4 1_555 1_555
C36 C35 1_555 1_555
O4 C36 1_555 1_555
C37 O4 1_555 1_555
C38 N4 1_555 1_555
C39 C24 1_555 1_555
C40 C39 1_555 1_555
C41 C40 1_555 1_555
C42 C41 1_555 1_555
C43 C42 1_555 1_555
C44 C43 1_555 1_555
C45 C40 1_555 1_555
C46 O5 1_555 1_555
O5 C43 1_555 1_555
O6 C39 1_555 1_555
H1 C4 1_555 1_555
H2 C5 1_555 1_555
H3 C6 1_555 1_555
H4 C7 1_555 1_555
H5 C9 1_555 1_555
H6 C9 1_555 1_555
H7 C9 1_555 1_555
H8 C10 1_555 1_555
H9 C10 1_555 1_555
H10 C11 1_555 1_555
H11 C11 1_555 1_555
H12 C12 1_555 1_555
H13 C12 1_555 1_555
H14 C13 1_555 1_555
H15 C13 1_555 1_555
H16 C14 1_555 1_555
H17 C14 1_555 1_555
H18 C15 1_555 1_555
H19 C15 1_555 1_555
H20 C18 1_555 1_555
H21 C19 1_555 1_555
H22 C21 1_555 1_555
H23 C22 1_555 1_555
H24 C23 1_555 1_555
H25 C23 1_555 1_555
H26 C23 1_555 1_555
H27 C27 1_555 1_555
H28 C28 1_555 1_555
H29 C29 1_555 1_555
H30 C30 1_555 1_555
H31 C32 1_555 1_555
H32 C32 1_555 1_555
H33 C32 1_555 1_555
H34 C33 1_555 1_555
H35 C33 1_555 1_555
H36 C34 1_555 1_555
H37 C34 1_555 1_555
H38 C35 1_555 1_555
H39 C35 1_555 1_555
H40 C36 1_555 1_555
H41 C36 1_555 1_555
H42 C37 1_555 1_555
H43 C37 1_555 1_555
H44 C38 1_555 1_555
H45 C38 1_555 1_555
H46 C41 1_555 1_555
H47 C42 1_555 1_555
H48 C44 1_555 1_555
H49 C45 1_555 1_555
H50 C46 1_555 1_555
H51 C46 1_555 1_555
H52 C46 1_555 1_555
C3 C8 1_555 1_555
C14 C15 1_555 1_555
C21 C22 1_555 1_555
C26 C31 1_555 1_555
C37 C38 1_555 1_555
C44 C45 1_555 1_555

#END
