
#######################################################################
#
#                 Cambridge Crystallographic Data Centre
#                                CCDC 
#
#######################################################################
#
# If this CIF has been generated from an entry in the Cambridge 
# Structural Database, then it will include bibliographic, chemical, 
# crystal, experimental, refinement or atomic coordinate data resulting 
# from the CCDC's data processing and validation procedures.
#
#######################################################################

data_VIPSIZ
_chemical_formula_moiety         'C30 H30 N2 O8'
_chemical_name_systematic        
"diethyl 18-hydroxy-16,19-dioxo-7,7a,9,10,18,19-hexahydro-6H,8H-benzo[5',6']indolizino[1',8a':4,5]furo[3,2-b]pyrrolo[1,2-a]quinoline-16a,18(16H)-dicarboxylate"
_symmetry_cell_setting           orthorhombic
_symmetry_space_group_name_H-M   'P b c a'
_symmetry_Int_Tables_number      61
_space_group_name_Hall           '-P 2ac 2ab'
loop_
_symmetry_equiv_pos_site_id
_symmetry_equiv_pos_as_xyz
1 x,y,z
2 1/2-x,-y,1/2+z
3 -x,1/2+y,1/2-z
4 1/2+x,1/2-y,-z
5 -x,-y,-z
6 1/2+x,y,1/2-z
7 x,1/2-y,1/2+z
8 1/2-x,1/2+y,z
_cell_length_a                   15.307(5)
_cell_length_b                   15.690(8)
_cell_length_c                   21.677(9)
_cell_angle_alpha                90
_cell_angle_beta                 90
_cell_angle_gamma                90
_cell_volume                     5206.1
_exptl_crystal_colour            yellow
_exptl_crystal_description       block
_cell_formula_units_Z            8
loop_
_atom_site_label
_atom_site_type_symbol
_atom_site_fract_x
_atom_site_fract_y
_atom_site_fract_z
O1 O 0.35286(11) 0.57036(11) 0.63957(7)
O2 O 0.23011(15) 0.66382(12) 0.57790(9)
H1 H 0.255099 0.696750 0.552958
O3 O 0.42644(12) 0.63694(11) 0.78585(7)
O4 O 0.41510(12) 0.71194(12) 0.69680(8)
O5 O 0.18030(11) 0.48891(12) 0.48623(9)
O6 O 0.33516(13) 0.64193(12) 0.48420(8)
O7 O 0.47826(12) 0.47122(12) 0.69264(9)
N1 N 0.29741(13) 0.43640(12) 0.59671(9)
N2 N 0.25649(13) 0.51491(14) 0.78642(9)
C1 C 0.31157(16) 0.45318(15) 0.80812(10)
C2 C 0.39010(16) 0.43702(15) 0.77820(11)
C3 C 0.36586(15) 0.49263(15) 0.50500(10)
O8 O 0.09854(14) 0.5482(2) 0.55885(11)
C4 C 0.41472(15) 0.48642(15) 0.72380(11)
C5 C 0.35176(15) 0.42339(15) 0.54691(10)
C6 C 0.40330(15) 0.64795(16) 0.72698(11)
C7 C 0.35844(15) 0.56492(15) 0.70456(10)
C8 C 0.32105(16) 0.57525(16) 0.51311(11)
C9 C 0.26499(15) 0.55872(15) 0.72733(10)
C10 C 0.29179(18) 0.40414(17) 0.86117(11)
H2 H 0.237744 0.413046 0.881729
C11 C 0.27865(14) 0.52374(15) 0.61746(10)
C12 C 0.44659(18) 0.37502(16) 0.80264(12)
H3 H 0.500486 0.364434 0.782297
C13 C 0.39210(16) 0.34333(17) 0.53643(12)
H4 H 0.383016 0.297233 0.564111
C14 C 0.42086(16) 0.48085(18) 0.45508(11)
H5 H 0.432301 0.526858 0.427764
C15 C 0.22034(17) 0.64639(16) 0.74041(12)
H6 H 0.259718 0.685672 0.762872
H7 H 0.199877 0.674009 0.701973
C16 C 0.34890(19) 0.34388(18) 0.88371(12)
H8 H 0.333886 0.312383 0.919608
C17 C 0.21898(15) 0.51178(16) 0.67279(11)
H9 H 0.161594 0.539873 0.664278
C18 C 0.24913(17) 0.57730(15) 0.56176(11)
C19 C 0.18186(17) 0.54556(19) 0.82082(12)
H10 H 0.199786 0.567554 0.861711
H11 H 0.138146 0.499764 0.826669
C20 C 0.42685(19) 0.32886(18) 0.85507(12)
H12 H 0.466512 0.287685 0.870812
C21 C 0.45952(17) 0.4017(2) 0.44474(12)
H13 H 0.496231 0.393818 0.409868
C22 C 0.14512(18) 0.61746(18) 0.78017(13)
H14 H 0.096470 0.596195 0.754314
H15 H 0.123411 0.665033 0.805968
C23 C 0.27751(19) 0.37021(16) 0.64222(12)
H16 H 0.328454 0.357818 0.668896
H17 H 0.257535 0.316904 0.622266
C24 C 0.16655(17) 0.5360(2) 0.53584(12)
C25 C 0.44467(18) 0.33370(19) 0.48540(12)
H18 H 0.471337 0.280098 0.477584
C26 C 0.47131(19) 0.70941(18) 0.81601(13)
H19 H 0.511732 0.736027 0.786013
H20 H 0.506707 0.687528 0.850798
C27 C 0.20494(19) 0.41266(18) 0.67775(12)
H21 H 0.206466 0.394579 0.721493
H22 H 0.147542 0.396666 0.660164
C28 C 0.4103(2) 0.7756(2) 0.83961(15)
H23 H 0.443434 0.819612 0.861552
H24 H 0.368232 0.749297 0.867897
H25 H 0.378937 0.801537 0.804940
C29 C 0.10766(19) 0.4434(2) 0.45837(15)
H26 H 0.120423 0.433028 0.414227
H27 H 0.054318 0.478876 0.460910
C30 C 0.0918(4) 0.3608(3) 0.4896(2)
H28 H 0.075729 0.371148 0.532750
H29 H 0.144995 0.326159 0.488054
H30 H 0.044185 0.330648 0.468759
loop_
_geom_bond_atom_site_label_1
_geom_bond_atom_site_label_2
_geom_bond_site_symmetry_1
_geom_bond_site_symmetry_2
O1 C7 1_555 1_555
O2 H1 1_555 1_555
O3 C6 1_555 1_555
O4 C6 1_555 1_555
O5 C24 1_555 1_555
O6 C8 1_555 1_555
O7 C4 1_555 1_555
N1 C5 1_555 1_555
N2 C1 1_555 1_555
C1 C2 1_555 1_555
C2 C4 1_555 1_555
C3 C5 1_555 1_555
O8 C24 1_555 1_555
C4 C7 1_555 1_555
C5 C13 1_555 1_555
C6 C7 1_555 1_555
C7 C9 1_555 1_555
C8 C3 1_555 1_555
C9 N2 1_555 1_555
C10 C1 1_555 1_555
H2 C10 1_555 1_555
C11 O1 1_555 1_555
C12 C2 1_555 1_555
H3 C12 1_555 1_555
C13 H4 1_555 1_555
C14 C3 1_555 1_555
H5 C14 1_555 1_555
C15 C9 1_555 1_555
H6 C15 1_555 1_555
H7 C15 1_555 1_555
C16 C10 1_555 1_555
H8 C16 1_555 1_555
C17 C9 1_555 1_555
H9 C17 1_555 1_555
C18 O2 1_555 1_555
C19 N2 1_555 1_555
H10 C19 1_555 1_555
H11 C19 1_555 1_555
C20 C12 1_555 1_555
H12 C20 1_555 1_555
C21 C14 1_555 1_555
H13 C21 1_555 1_555
C22 C15 1_555 1_555
H14 C22 1_555 1_555
H15 C22 1_555 1_555
C23 N1 1_555 1_555
H16 C23 1_555 1_555
H17 C23 1_555 1_555
C24 C18 1_555 1_555
C25 C13 1_555 1_555
H18 C25 1_555 1_555
C26 O3 1_555 1_555
H19 C26 1_555 1_555
H20 C26 1_555 1_555
C27 C17 1_555 1_555
H21 C27 1_555 1_555
H22 C27 1_555 1_555
C28 C26 1_555 1_555
H23 C28 1_555 1_555
H24 C28 1_555 1_555
H25 C28 1_555 1_555
C29 O5 1_555 1_555
H26 C29 1_555 1_555
H27 C29 1_555 1_555
C30 C29 1_555 1_555
H28 C30 1_555 1_555
H29 C30 1_555 1_555
H30 C30 1_555 1_555
N1 C11 1_555 1_555
C8 C18 1_555 1_555
C11 C17 1_555 1_555
C11 C18 1_555 1_555
C16 C20 1_555 1_555
C19 C22 1_555 1_555
C21 C25 1_555 1_555
C23 C27 1_555 1_555

#END
