
#######################################################################
#
#                 Cambridge Crystallographic Data Centre
#                                CCDC 
#
#######################################################################
#
# If this CIF has been generated from an entry in the Cambridge 
# Structural Database, then it will include bibliographic, chemical, 
# crystal, experimental, refinement or atomic coordinate data resulting 
# from the CCDC's data processing and validation procedures.
#
#######################################################################

data_VIPWUN
_chemical_formula_moiety         'C12 H9 N2 1+,C2 H8 N1 O6 P2 1-,2(H2 O1)'
_chemical_name_systematic        
'1,10-Phenanthrolinium 1-aminoethylidenediphosphonate dihydrate'
_symmetry_cell_setting           triclinic
_symmetry_space_group_name_H-M   'P -1'
_symmetry_Int_Tables_number      2
_space_group_name_Hall           '-P 1'
loop_
_symmetry_equiv_pos_site_id
_symmetry_equiv_pos_as_xyz
1 x,y,z
2 -x,-y,-z
_cell_length_a                   7.0561(6)
_cell_length_b                   9.9086(8)
_cell_length_c                   13.0837(10)
_cell_angle_alpha                83.777(1)
_cell_angle_beta                 79.444(1)
_cell_angle_gamma                85.213(1)
_cell_volume                     892.086
_exptl_crystal_colour            colorless
_exptl_crystal_description       block
_cell_formula_units_Z            2
loop_
_atom_site_label
_atom_site_type_symbol
_atom_site_fract_x
_atom_site_fract_y
_atom_site_fract_z
C1 C 0.3173(3) 0.3603(2) 0.33641(16)
C2 C 0.1837(4) 0.4833(3) 0.3694(2)
N1 N 0.3638(3) 0.37430(18) 0.22441(12)
H1 H 0.2693 0.3439 0.1983
H2 H 0.4738 0.3262 0.2038
H3 H 0.3771 0.4615 0.2017
O1 O 0.6875(2) 0.26223(17) 0.32640(13)
O2 O 0.6155(3) 0.50375(18) 0.35831(14)
O3 O 0.5013(2) 0.32428(16) 0.50411(12)
O4 O 0.3377(3) 0.08847(19) 0.3501(2)
O5 O 0.0448(3) 0.2051(3) 0.29997(16)
O6 O 0.0858(3) 0.2022(2) 0.48743(15)
P1 P 0.54322(8) 0.35702(5) 0.38780(4)
P2 P 0.18518(8) 0.20623(6) 0.37810(5)
H4 H 0.574(5) 0.557(4) 0.406(3)
H5 H -0.086(7) 0.247(4) 0.314(3)
H9 H 0.065(5) 0.483(3) 0.343(3)
H10 H 0.156(5) 0.484(3) 0.442(3)
H11 H 0.243(5) 0.562(3) 0.343(3)
C3 C 0.6448(5) 0.3238(4) 0.0046(2)
C4 C 0.6616(5) 0.2990(4) -0.0998(3)
C5 C 0.7021(4) 0.1703(4) -0.1265(2)
C6 C 0.7293(4) 0.0633(3) -0.04894(19)
C7 C 0.7084(3) 0.0991(3) 0.05419(18)
C8 C 0.7391(3) -0.0064(2) 0.13480(17)
C9 C 0.7865(3) -0.1417(3) 0.1128(2)
C10 C 0.8167(4) -0.2393(3) 0.1955(3)
C11 C 0.8032(4) -0.2025(3) 0.2942(2)
C12 C 0.7562(4) -0.0672(3) 0.31214(19)
C13 C 0.7769(4) -0.0749(4) -0.0698(2)
C14 C 0.8040(4) -0.1729(4) 0.0066(3)
N2 N 0.6643(3) 0.2270(2) 0.08127(17)
N3 N 0.7260(3) 0.0246(2) 0.23446(15)
H6 H 0.620(6) 0.423(4) 0.026(3)
H7 H 0.634(6) 0.374(4) -0.152(3)
H8 H 0.716(5) 0.144(4) -0.194(3)
H12 H 0.705(4) 0.103(3) 0.246(2)
H15 H 0.854(5) -0.325(4) 0.181(3)
H16 H 0.822(5) -0.264(4) 0.353(3)
H17 H 0.742(4) -0.036(3) 0.381(2)
H18 H 0.794(6) -0.094(4) -0.134(3)
H19 H 0.839(6) -0.264(4) -0.008(3)
O7 O 0.2571(3) 0.84972(19) 0.39920(16)
H13 H 0.147(3) 0.839(4) 0.440(2)
H14 H 0.336(4) 0.810(4) 0.435(3)
O8 O 0.9916(6) 0.4462(4) 0.1298(3)
loop_
_geom_bond_atom_site_label_1
_geom_bond_atom_site_label_2
_geom_bond_site_symmetry_1
_geom_bond_site_symmetry_2
C1 C2 1_555 1_555
C2 H9 1_555 1_555
C3 C4 1_555 1_555
C4 C5 1_555 1_555
C5 C6 1_555 1_555
C6 C7 1_555 1_555
C7 C8 1_555 1_555
C8 C9 1_555 1_555
C9 C10 1_555 1_555
C10 C11 1_555 1_555
C11 C12 1_555 1_555
C12 N3 1_555 1_555
C13 C6 1_555 1_555
C14 C9 1_555 1_555
N1 C1 1_555 1_555
H1 N1 1_555 1_555
H2 N1 1_555 1_555
H3 N1 1_555 1_555
N2 C3 1_555 1_555
N3 C8 1_555 1_555
O1 P1 1_555 1_555
O2 P1 1_555 1_555
O3 P1 1_555 1_555
O4 P2 1_555 1_555
O5 P2 1_555 1_555
O6 P2 1_555 1_555
O7 H13 1_555 1_555
P1 C1 1_555 1_555
P2 C1 1_555 1_555
H4 O2 1_555 1_555
H5 O5 1_555 1_555
H6 C3 1_555 1_555
H7 C4 1_555 1_555
H8 C5 1_555 1_555
H10 C2 1_555 1_555
H11 C2 1_555 1_555
H12 N3 1_555 1_555
H14 O7 1_555 1_555
H15 C10 1_555 1_555
H16 C11 1_555 1_555
H17 C12 1_555 1_555
H18 C13 1_555 1_555
H19 C14 1_555 1_555
C7 N2 1_555 1_555
C13 C14 1_555 1_555

#END
