
#######################################################################
#
#                 Cambridge Crystallographic Data Centre
#                                CCDC 
#
#######################################################################
#
# If this CIF has been generated from an entry in the Cambridge 
# Structural Database, then it will include bibliographic, chemical, 
# crystal, experimental, refinement or atomic coordinate data resulting 
# from the CCDC's data processing and validation procedures.
#
#######################################################################

data_VIPXUQ
_chemical_formula_moiety         'C4 H12 N1 O3 1+,C7 H5 N2 O4 1-'
_chemical_name_systematic        
'1,3-dihydroxy-2-(hydroxymethyl)propan-2-aminium 2-amino-4-nitrobenzoate'
_symmetry_cell_setting           monoclinic
_symmetry_space_group_name_H-M   'P 21/c'
_symmetry_Int_Tables_number      14
_space_group_name_Hall           '-P 2ybc'
loop_
_symmetry_equiv_pos_site_id
_symmetry_equiv_pos_as_xyz
1 x,y,z
2 -x,1/2+y,1/2-z
3 -x,-y,-z
4 x,1/2-y,1/2+z
_cell_length_a                   13.6269(6)
_cell_length_b                   9.4976(3)
_cell_length_c                   10.2042(4)
_cell_angle_alpha                90
_cell_angle_beta                 90.355(2)
_cell_angle_gamma                90
_cell_volume                     1320.63
_exptl_crystal_colour            orange
_exptl_crystal_description       slab
_cell_formula_units_Z            4
loop_
_atom_site_label
_atom_site_type_symbol
_atom_site_fract_x
_atom_site_fract_y
_atom_site_fract_z
O1 O 0.23149(10) 1.04393(14) 0.76677(13)
O2 O 0.14548(9) 0.92617(13) 0.61598(12)
O3 O 0.65621(10) 0.73923(15) 0.52281(13)
O4 O 0.56887(10) 0.60326(14) 0.39818(13)
N1 N 0.42471(12) 1.07055(17) 0.72756(15)
H1 H 0.3741(11) 1.100(2) 0.7735(18)
H2 H 0.4832(9) 1.086(2) 0.7608(19)
N2 N 0.57664(12) 0.69917(16) 0.47821(14)
C1 C 0.31934(13) 0.89761(19) 0.61872(16)
C2 C 0.41270(14) 0.95131(18) 0.65438(16)
C3 C 0.49671(14) 0.88243(19) 0.60661(16)
H3 H 0.5603 0.9150 0.6306
C4 C 0.48646(13) 0.76770(19) 0.52504(17)
C5 C 0.39602(14) 0.71363(19) 0.48678(17)
H4 H 0.3910 0.6348 0.4298
C6 C 0.31356(14) 0.78010(19) 0.53561(17)
H5 H 0.2507 0.7448 0.5120
C7 C 0.22586(14) 0.96075(18) 0.66953(16)
O5 O 0.93618(10) 0.33420(13) 0.11526(12)
H6 H 0.9100(15) 0.357(2) 0.0431(13)
O6 O 0.91226(10) 0.77428(13) 0.16735(13)
H7 H 0.8659(12) 0.820(2) 0.201(2)
O7 O 0.85135(10) 0.48735(14) 0.47852(12)
H8 H 0.8181(15) 0.511(2) 0.5444(16)
N3 N 0.99779(11) 0.55298(16) 0.30064(15)
H9 H 1.0132(15) 0.4938(17) 0.3649(15)
H10 H 1.0077(15) 0.6377(13) 0.3343(18)
H11 H 1.0380(12) 0.542(2) 0.2325(14)
C8 C 0.89311(13) 0.53736(18) 0.25643(16)
C9 C 0.87415(14) 0.38355(18) 0.21779(17)
H12 H 0.8839 0.3232 0.2959
H13 H 0.8049 0.3738 0.1894
C10 C 0.87791(14) 0.63603(18) 0.13984(17)
H14 H 0.9132 0.5982 0.0630
H15 H 0.8072 0.6399 0.1174
C11 C 0.82764(14) 0.5772(2) 0.37062(17)
H16 H 0.8386 0.6769 0.3951
H17 H 0.7578 0.5655 0.3457
loop_
_geom_bond_atom_site_label_1
_geom_bond_atom_site_label_2
_geom_bond_site_symmetry_1
_geom_bond_site_symmetry_2
O1 C7 1_555 1_555
O2 C7 1_555 1_555
O3 N2 1_555 1_555
O4 N2 1_555 1_555
N1 H1 1_555 1_555
H2 N1 1_555 1_555
N2 C4 1_555 1_555
C1 C2 1_555 1_555
C2 N1 1_555 1_555
C3 C2 1_555 1_555
H3 C3 1_555 1_555
C4 C3 1_555 1_555
C5 C4 1_555 1_555
H4 C5 1_555 1_555
C6 C1 1_555 1_555
H5 C6 1_555 1_555
C7 C1 1_555 1_555
O5 H6 1_555 1_555
O6 H7 1_555 1_555
O7 H8 1_555 1_555
N3 H9 1_555 1_555
H10 N3 1_555 1_555
H11 N3 1_555 1_555
C8 N3 1_555 1_555
C9 O5 1_555 1_555
H12 C9 1_555 1_555
H13 C9 1_555 1_555
C10 O6 1_555 1_555
H14 C10 1_555 1_555
H15 C10 1_555 1_555
C11 O7 1_555 1_555
H16 C11 1_555 1_555
H17 C11 1_555 1_555
C5 C6 1_555 1_555
C8 C9 1_555 1_555
C8 C10 1_555 1_555
C8 C11 1_555 1_555

#END
