
#######################################################################
#
#                 Cambridge Crystallographic Data Centre
#                                CCDC 
#
#######################################################################
#
# If this CIF has been generated from an entry in the Cambridge 
# Structural Database, then it will include bibliographic, chemical, 
# crystal, experimental, refinement or atomic coordinate data resulting 
# from the CCDC's data processing and validation procedures.
#
#######################################################################

data_VIPXAU
_chemical_formula_moiety         'C10 H9 N2 1+,C3 H11 N1 O9 P3 1-,2(H2 O1)'
_chemical_name_systematic        
"2,2'-Bipyridinium hydrogen 1-aminopropane-1,1,3-triphosphonate dihydrate"
_symmetry_cell_setting           triclinic
_symmetry_space_group_name_H-M   'P -1'
_symmetry_Int_Tables_number      2
_space_group_name_Hall           '-P 1'
loop_
_symmetry_equiv_pos_site_id
_symmetry_equiv_pos_as_xyz
1 x,y,z
2 -x,-y,-z
_cell_length_a                   7.4045(5)
_cell_length_b                   11.7344(8)
_cell_length_c                   12.4850(8)
_cell_angle_alpha                74.1490(10)
_cell_angle_beta                 85.3890(10)
_cell_angle_gamma                72.9030(10)
_cell_volume                     997.424
_exptl_crystal_colour            colorless
_exptl_crystal_description       block
_cell_formula_units_Z            2
loop_
_atom_site_label
_atom_site_type_symbol
_atom_site_fract_x
_atom_site_fract_y
_atom_site_fract_z
C1 C 0.1673(3) 0.6550(2) 0.6572(2)
C2 C 0.2273(4) 0.5838(2) 0.5852(2)
C3 C 0.2989(4) 0.6340(2) 0.4836(2)
C4 C 0.3089(4) 0.7541(2) 0.45644(18)
C5 C 0.2463(3) 0.82448(18) 0.53207(15)
C6 C 0.2460(3) 0.95425(18) 0.51457(15)
C7 C 0.2961(3) 1.0218(2) 0.41344(18)
C8 C 0.2955(4) 1.1416(2) 0.4045(2)
C9 C 0.2439(3) 1.1893(2) 0.4944(2)
C10 C 0.1917(4) 1.1158(2) 0.5919(2)
N2 N 0.1789(2) 0.77121(17) 0.63014(14)
N3 N 0.1929(3) 0.99911(17) 0.60297(15)
H12 H 0.147(3) 0.813(2) 0.6744(19)
H13 H 0.121(4) 0.628(2) 0.727(2)
H14 H 0.223(4) 0.504(3) 0.607(2)
H15 H 0.349(5) 0.581(3) 0.429(3)
H16 H 0.354(4) 0.790(3) 0.386(2)
H17 H 0.330(4) 0.984(3) 0.350(3)
H18 H 0.335(4) 1.187(3) 0.333(3)
H19 H 0.235(4) 1.274(3) 0.490(3)
H20 H 0.147(4) 1.143(3) 0.653(2)
C11 C 0.3640(2) 0.28142(14) 0.95542(13)
C12 C 0.4418(2) 0.39273(15) 0.90168(15)
C13 C 0.6247(3) 0.36079(17) 0.83668(16)
N1 N 0.17560(19) 0.33147(13) 1.00690(12)
O1 O 0.49127(18) 0.13762(12) 0.80765(12)
O2 O 0.18147(17) 0.13241(12) 0.90873(11)
O3 O 0.20403(19) 0.32127(12) 0.75944(11)
O4 O 0.69235(18) 0.10037(12) 1.02652(12)
O5 O 0.39448(19) 0.09480(13) 1.14043(12)
O6 O 0.5581(2) 0.25626(13) 1.13624(13)
O7 O 0.8755(2) 0.45105(16) 0.70057(12)
O8 O 0.5921(2) 0.60254(13) 0.74337(12)
O9 O 0.84169(18) 0.48611(12) 0.89342(11)
P1 P 0.30926(6) 0.21295(4) 0.84874(4)
P2 P 0.51615(6) 0.17483(4) 1.07298(4)
P3 P 0.74137(6) 0.47987(4) 0.79711(3)
H1 H 0.187(3) 0.384(2) 1.051(2)
H2 H 0.089(3) 0.377(2) 0.955(2)
H3 H 0.135(3) 0.268(2) 1.054(2)
H4 H 0.236(6) 0.034(4) 0.934(4)
H5 H 0.434(5) 0.019(4) 1.145(3)
H6 H 0.452(3) 0.424(2) 0.9608(19)
H7 H 0.346(3) 0.455(2) 0.8533(18)
H8 H 0.598(4) 0.343(2) 0.767(2)
H9 H 0.717(4) 0.296(3) 0.877(2)
H10 H 0.544(6) 0.650(4) 0.789(3)
H11 H 0.967(4) 0.405(3) 0.722(3)
O10 O 0.0356(2) 0.81361(17) 0.83491(13)
H21 H -0.017(4) 0.889(3) 0.834(2)
H22 H 0.153(6) 0.798(3) 0.862(3)
O11 O 0.8993(2) 0.06514(18) 0.81094(16)
H23 H 0.795(3) 0.095(4) 0.845(4)
H24 H 0.984(3) 0.105(2) 0.848(2)
loop_
_geom_bond_atom_site_label_1
_geom_bond_atom_site_label_2
_geom_bond_site_symmetry_1
_geom_bond_site_symmetry_2
C1 C2 1_555 1_555
C2 C3 1_555 1_555
C3 C4 1_555 1_555
C4 C5 1_555 1_555
C5 C6 1_555 1_555
C6 C7 1_555 1_555
C7 C8 1_555 1_555
C8 C9 1_555 1_555
C9 C10 1_555 1_555
C10 N3 1_555 1_555
C11 C12 1_555 1_555
C12 C13 1_555 1_555
C13 P3 1_555 1_555
N1 C11 1_555 1_555
N2 C1 1_555 1_555
N3 C6 1_555 1_555
O1 P1 1_555 1_555
O2 P1 1_555 1_555
O3 P1 1_555 1_555
O4 P2 1_555 1_555
O5 P2 1_555 1_555
O6 P2 1_555 1_555
O7 P3 1_555 1_555
O8 P3 1_555 1_555
O9 P3 1_555 1_555
O10 H21 1_555 1_555
O11 H23 1_555 1_555
P1 C11 1_555 1_555
P2 C11 1_555 1_555
H1 N1 1_555 1_555
H2 N1 1_555 1_555
H3 N1 1_555 1_555
H4 O2 1_555 1_555
H5 O5 1_555 1_555
H6 C12 1_555 1_555
H7 C12 1_555 1_555
H8 C13 1_555 1_555
H9 C13 1_555 1_555
H10 O8 1_555 1_555
H11 O7 1_555 1_555
H12 N2 1_555 1_555
H13 C1 1_555 1_555
H14 C2 1_555 1_555
H15 C3 1_555 1_555
H16 C4 1_555 1_555
H17 C7 1_555 1_555
H18 C8 1_555 1_555
H19 C9 1_555 1_555
H20 C10 1_555 1_555
H22 O10 1_555 1_555
H24 O11 1_555 1_555
C5 N2 1_555 1_555

#END
