
#######################################################################
#
#                 Cambridge Crystallographic Data Centre
#                                CCDC 
#
#######################################################################
#
# If this CIF has been generated from an entry in the Cambridge 
# Structural Database, then it will include bibliographic, chemical, 
# crystal, experimental, refinement or atomic coordinate data resulting 
# from the CCDC's data processing and validation procedures.
#
#######################################################################

data_VIPXOK
_chemical_formula_moiety         'C6 H16 N1 O1 1+,C7 H5 N2 O4 1-'
_chemical_name_systematic        
'N-(2-hydroxyethyl)-2-methylpropan-2-aminium 2-amino-4-nitrobenzoate'
_symmetry_cell_setting           monoclinic
_symmetry_space_group_name_H-M   'C 2/c'
_symmetry_Int_Tables_number      15
_space_group_name_Hall           '-C 2yn'
loop_
_symmetry_equiv_pos_site_id
_symmetry_equiv_pos_as_xyz
1 x,y,z
2 -x,y,1/2-z
3 1/2+x,1/2+y,z
4 1/2-x,1/2+y,1/2-z
5 -x,-y,-z
6 x,-y,1/2+z
7 1/2-x,1/2-y,-z
8 1/2+x,1/2-y,1/2+z
_cell_length_a                   21.1138(5)
_cell_length_b                   12.3635(5)
_cell_length_c                   13.1909(4)
_cell_angle_alpha                90
_cell_angle_beta                 120.627(2)
_cell_angle_gamma                90
_cell_volume                     2963.02
_exptl_crystal_colour            orange
_exptl_crystal_description       slab
_cell_formula_units_Z            8
loop_
_atom_site_label
_atom_site_type_symbol
_atom_site_fract_x
_atom_site_fract_y
_atom_site_fract_z
O1 O 0.38287(6) 0.76025(10) 0.01169(10)
O2 O 0.29310(6) 0.63783(10) -0.04670(10)
O3 O 0.63480(6) 0.33794(10) 0.24135(11)
O4 O 0.54488(7) 0.22405(10) 0.17418(13)
N1 N 0.52324(7) 0.69991(12) 0.14202(13)
N2 N 0.56872(7) 0.31665(12) 0.18823(12)
C1 C 0.41726(8) 0.57689(13) 0.05554(13)
C2 C 0.49416(8) 0.59915(13) 0.12014(12)
C3 C 0.54245(8) 0.51022(13) 0.16275(13)
H1 H 0.5941 0.5221 0.2073
C4 C 0.51565(8) 0.40665(13) 0.14053(13)
C5 C 0.44091(8) 0.38249(14) 0.07707(13)
H2 H 0.4235 0.3101 0.0624
C6 C 0.39357(8) 0.46956(14) 0.03667(13)
H3 H 0.3421 0.4558 -0.0063
C7 C 0.36039(8) 0.66455(14) 0.00382(13)
H4 H 0.4925(9) 0.7539(12) 0.1137(17)
H5 H 0.5715(5) 0.7082(16) 0.1885(15)
O5 O 0.69062(6) 0.71809(10) 0.29593(11)
N3 N 0.79731(7) 0.56819(12) 0.45647(12)
C8 C 0.84793(9) 0.47891(15) 0.53503(16)
C9 C 0.80464(11) 0.37480(16) 0.5120(2)
H6 H 0.7623 0.3876 0.5219
H7 H 0.8363 0.3192 0.5678
H8 H 0.7873 0.3503 0.4313
C10 C 0.87684(12) 0.51860(17) 0.66040(17)
H9 H 0.8355 0.5298 0.6732
H10 H 0.9032 0.5870 0.6724
H11 H 0.9104 0.4646 0.7163
C11 C 0.91074(10) 0.46495(17) 0.51089(19)
H12 H 0.9478 0.4160 0.5696
H13 H 0.9333 0.5355 0.5155
H14 H 0.8916 0.4344 0.4320
C12 C 0.75766(9) 0.54960(16) 0.32642(15)
H15 H 0.7141 0.5033 0.3028
H16 H 0.7905 0.5118 0.3049
C13 C 0.73361(9) 0.65690(16) 0.26214(15)
H17 H 0.7777 0.6992 0.2789
H18 H 0.7046 0.6434 0.1762
H19 H 0.7197(10) 0.7625(14) 0.3464(15)
H20 H 0.8263(9) 0.6272(11) 0.4739(16)
H21 H 0.7637(8) 0.5810(16) 0.4767(16)
loop_
_geom_bond_atom_site_label_1
_geom_bond_atom_site_label_2
_geom_bond_site_symmetry_1
_geom_bond_site_symmetry_2
O1 C7 1_555 1_555
O2 C7 1_555 1_555
O3 N2 1_555 1_555
O4 N2 1_555 1_555
N1 C2 1_555 1_555
N2 C4 1_555 1_555
C1 C2 1_555 1_555
C2 C3 1_555 1_555
C3 H1 1_555 1_555
C4 C3 1_555 1_555
C5 C4 1_555 1_555
H2 C5 1_555 1_555
C6 C1 1_555 1_555
H3 C6 1_555 1_555
C7 C1 1_555 1_555
H4 N1 1_555 1_555
H5 N1 1_555 1_555
O5 C13 1_555 1_555
N3 C8 1_555 1_555
C8 C9 1_555 1_555
C9 H6 1_555 1_555
H7 C9 1_555 1_555
H8 C9 1_555 1_555
C10 C8 1_555 1_555
H9 C10 1_555 1_555
H10 C10 1_555 1_555
H11 C10 1_555 1_555
C11 C8 1_555 1_555
H12 C11 1_555 1_555
H13 C11 1_555 1_555
H14 C11 1_555 1_555
C12 N3 1_555 1_555
H15 C12 1_555 1_555
H16 C12 1_555 1_555
C13 C12 1_555 1_555
H17 C13 1_555 1_555
H18 C13 1_555 1_555
H19 O5 1_555 1_555
H20 N3 1_555 1_555
H21 N3 1_555 1_555
C5 C6 1_555 1_555

#END
