
#######################################################################
#
#                 Cambridge Crystallographic Data Centre
#                                CCDC 
#
#######################################################################
#
# If this CIF has been generated from an entry in the Cambridge 
# Structural Database, then it will include bibliographic, chemical, 
# crystal, experimental, refinement or atomic coordinate data resulting 
# from the CCDC's data processing and validation procedures.
#
#######################################################################

data_VIQBUV
_chemical_formula_moiety         'C13 H13 N1 O2'
_chemical_name_systematic        2-(ethylamino)-3-methyl-1,4-naphthoquinone
_symmetry_cell_setting           monoclinic
_symmetry_space_group_name_H-M   'C 2/c'
_symmetry_Int_Tables_number      15
_space_group_name_Hall           '-C 2yn'
loop_
_symmetry_equiv_pos_site_id
_symmetry_equiv_pos_as_xyz
1 x,y,z
2 -x,y,1/2-z
3 1/2+x,1/2+y,z
4 1/2-x,1/2+y,1/2-z
5 -x,-y,-z
6 x,-y,1/2+z
7 1/2-x,1/2-y,-z
8 1/2+x,1/2-y,1/2+z
_cell_length_a                   32.938(5)
_cell_length_b                   4.522(5)
_cell_length_c                   14.844(5)
_cell_angle_alpha                90
_cell_angle_beta                 94.650(5)
_cell_angle_gamma                90
_cell_volume                     2203.67
_exptl_crystal_colour            orange
_exptl_crystal_description       block
_cell_formula_units_Z            8
loop_
_atom_site_label
_atom_site_type_symbol
_atom_site_fract_x
_atom_site_fract_y
_atom_site_fract_z
O1 O 0.67030(6) 0.1119(5) -0.08264(11)
O2 O 0.60690(5) 0.0688(5) 0.23450(10)
N1 N 0.60528(6) -0.2030(5) -0.07611(12)
H1 H 0.6194 -0.1590 -0.1204
C1 C 0.60159(7) -0.0819(5) 0.08399(14)
C2 C 0.67422(7) 0.2822(5) 0.06704(14)
C3 C 0.61802(7) -0.0687(5) 0.00185(14)
C4 C 0.65705(7) 0.2697(5) 0.14983(14)
C5 C 0.70847(8) 0.4567(6) 0.05824(18)
H2 H 0.7201 0.4644 0.0033
C6 C 0.62073(7) 0.0812(5) 0.16006(14)
C7 C 0.65571(7) 0.1107(6) -0.00994(14)
C8 C 0.67414(8) 0.4360(6) 0.22170(16)
H3 H 0.6627 0.4299 0.2769
C9 C 0.70762(9) 0.6088(6) 0.21238(19)
H4 H 0.7187 0.7205 0.2609
C10 C 0.72504(8) 0.6174(7) 0.1305(2)
H5 H 0.7481 0.7326 0.1246
C11 C 0.56430(8) -0.2543(7) 0.10405(17)
H6 H 0.5592 -0.2270 0.1663
H7 H 0.5413 -0.1854 0.0660
H8 H 0.5686 -0.4604 0.0927
C12 C 0.57245(10) -0.4069(7) -0.09974(19)
H9 H 0.5677 -0.5266 -0.0474
H10 H 0.5803 -0.5384 -0.1469
C13 C 0.53460(11) -0.2550(12) -0.1312(3)
H11 H 0.5136 -0.3985 -0.1461
H12 H 0.5264 -0.1276 -0.0842
H13 H 0.5390 -0.1394 -0.1837
loop_
_geom_bond_atom_site_label_1
_geom_bond_atom_site_label_2
_geom_bond_site_symmetry_1
_geom_bond_site_symmetry_2
O1 C7 1_555 1_555
O2 C6 1_555 1_555
N1 H1 1_555 1_555
C1 C3 1_555 1_555
C2 C4 1_555 1_555
C3 N1 1_555 1_555
C4 C6 1_555 1_555
C5 C2 1_555 1_555
H2 C5 1_555 1_555
C6 C1 1_555 1_555
C7 C2 1_555 1_555
C8 C4 1_555 1_555
H3 C8 1_555 1_555
C9 C8 1_555 1_555
H4 C9 1_555 1_555
C10 C5 1_555 1_555
H5 C10 1_555 1_555
C11 C1 1_555 1_555
H6 C11 1_555 1_555
H7 C11 1_555 1_555
H8 C11 1_555 1_555
C12 N1 1_555 1_555
H9 C12 1_555 1_555
H10 C12 1_555 1_555
C13 C12 1_555 1_555
H11 C13 1_555 1_555
H12 C13 1_555 1_555
H13 C13 1_555 1_555
C3 C7 1_555 1_555
C9 C10 1_555 1_555

#END
