
#######################################################################
#
#                 Cambridge Crystallographic Data Centre
#                                CCDC 
#
#######################################################################
#
# If this CIF has been generated from an entry in the Cambridge 
# Structural Database, then it will include bibliographic, chemical, 
# crystal, experimental, refinement or atomic coordinate data resulting 
# from the CCDC's data processing and validation procedures.
#
#######################################################################

data_VIQCAB02
_chemical_formula_moiety         'C24 H20 Cl2 O2'
_chemical_name_systematic        
1,4-bis(2-(4-Chlorophenyl)vinyl)-2,5-dimethoxybenzene
_symmetry_cell_setting           monoclinic
_symmetry_space_group_name_H-M   'P 21/c'
_symmetry_Int_Tables_number      14
_space_group_name_Hall           '-P 2ybc'
loop_
_symmetry_equiv_pos_site_id
_symmetry_equiv_pos_as_xyz
1 x,y,z
2 -x,1/2+y,1/2-z
3 -x,-y,-z
4 x,1/2-y,1/2+z
_cell_length_a                   9.771(5)
_cell_length_b                   23.104(11)
_cell_length_c                   10.856(4)
_cell_angle_alpha                90
_cell_angle_beta                 123.75(3)
_cell_angle_gamma                90
_cell_volume                     2037.71
_cell_formula_units_Z            4
loop_
_atom_site_label
_atom_site_type_symbol
_atom_site_fract_x
_atom_site_fract_y
_atom_site_fract_z
Cl1 Cl 0.34848(14) -0.40600(4) -0.38917(12)
O1 O 0.7676(3) -0.06388(11) -0.2909(3)
C1 C 0.3474(4) -0.33359(15) -0.4323(4)
C2 C 0.2652(4) -0.31657(15) -0.5773(4)
H1 H 0.2096 -0.3434 -0.6536
C3 C 0.2667(4) -0.25801(15) -0.6079(4)
H2 H 0.2094 -0.2458 -0.7061
C4 C 0.3506(4) -0.21781(15) -0.4968(4)
C5 C 0.4312(5) -0.23703(16) -0.3516(4)
H3 H 0.4878 -0.2106 -0.2746
C6 C 0.4291(4) -0.29445(16) -0.3190(4)
H4 H 0.4827 -0.3066 -0.2211
C7 C 0.3575(5) -0.15695(15) -0.5343(4)
H5 H 0.2739 -0.1440 -0.6277
C8 C 0.4740(5) -0.11920(15) -0.4447(4)
H6 H 0.5568 -0.1330 -0.3520
C9 C 0.4864(5) -0.05901(15) -0.4751(4)
C10 C 0.3501(5) -0.02688(16) -0.5821(4)
H7 H 0.2481 -0.0450 -0.6378
C11 C 0.6383(5) -0.03050(17) -0.3920(4)
C12 C 0.9248(5) -0.03733(17) -0.1993(4)
H8 H 0.9191 -0.0077 -0.1401
H9 H 0.9569 -0.0204 -0.2602
H10 H 1.0043 -0.0660 -0.1356
Cl1B Cl 0.65152(14) 0.40600(4) -0.61083(12)
O1B O 0.2324(3) 0.06388(11) -0.7091(3)
C1B C 0.6526(4) 0.33359(15) -0.5677(4)
C2B C 0.7348(4) 0.31657(15) -0.4227(4)
H1B H 0.7904 0.3434 -0.3464
C3B C 0.7333(4) 0.25801(15) -0.3921(4)
H2B H 0.7906 0.2458 -0.2939
C4B C 0.6494(4) 0.21781(15) -0.5032(4)
C5B C 0.5688(5) 0.23703(16) -0.6484(4)
H3B H 0.5122 0.2106 -0.7254
C6B C 0.5709(4) 0.29445(16) -0.6810(4)
H4B H 0.5173 0.3066 -0.7789
C7B C 0.6425(5) 0.15695(15) -0.4657(4)
H5B H 0.7261 0.1440 -0.3723
C8B C 0.5260(5) 0.11920(15) -0.5553(4)
H6B H 0.4432 0.1330 -0.6480
C9B C 0.5136(5) 0.05901(15) -0.5249(4)
C10B C 0.6499(5) 0.02688(16) -0.4179(4)
H7B H 0.7519 0.0450 -0.3622
C11B C 0.3617(5) 0.03050(17) -0.6080(4)
C12B C 0.0752(5) 0.03733(17) -0.8007(4)
H8B H 0.0809 0.0077 -0.8599
H9B H 0.0431 0.0204 -0.7398
H10B H -0.0043 0.0660 -0.8644
Cl2 Cl -0.15038(15) -0.40705(5) -0.40723(13)
O2 O 0.2658(4) -0.06714(11) -0.3025(3)
C13 C -0.1518(5) -0.33335(15) -0.4411(4)
C14 C -0.2366(5) -0.29681(16) -0.4073(4)
H11 H -0.2953 -0.3113 -0.3699
C15 C -0.2338(4) -0.23821(16) -0.4294(4)
H12 H -0.2917 -0.2134 -0.4066
C16 C -0.1477(4) -0.21506(16) -0.4845(4)
C17 C -0.0671(4) -0.25386(16) -0.5205(4)
H13 H -0.0104 -0.2400 -0.5605
C18 C -0.0690(4) -0.31245(16) -0.4985(4)
H14 H -0.0134 -0.3377 -0.5230
C19 C -0.1401(5) -0.15241(15) -0.4987(4)
H15 H -0.2298 -0.1308 -0.5167
C20 C -0.0187(5) -0.12415(16) -0.4884(4)
H16 H 0.0695 -0.1455 -0.4743
C21 C -0.0114(5) -0.06041(16) -0.4976(4)
C22 C 0.1386(5) -0.03216(18) -0.4014(4)
C23 C -0.1481(5) -0.02744(17) -0.5962(4)
H17 H -0.2478 -0.0458 -0.6619
C24 C 0.4165(5) -0.04082(17) -0.1916(4)
H18 H 0.4569 -0.0173 -0.2378
H19 H 0.4958 -0.0703 -0.1329
H20 H 0.3987 -0.0170 -0.1293
Cl2B Cl 0.15038(15) 0.40705(5) -0.59277(13)
O2B O -0.2658(4) 0.06714(11) -0.6975(3)
C13B C 0.1518(5) 0.33335(15) -0.5589(4)
C14B C 0.2366(5) 0.29681(16) -0.5927(4)
H11B H 0.2953 0.3113 -0.6301
C15B C 0.2338(4) 0.23821(16) -0.5706(4)
H12B H 0.2917 0.2134 -0.5934
C16B C 0.1477(4) 0.21506(16) -0.5155(4)
C17B C 0.0671(4) 0.25386(16) -0.4795(4)
H13B H 0.0104 0.2400 -0.4395
C18B C 0.0690(4) 0.31245(16) -0.5015(4)
H14B H 0.0134 0.3377 -0.4770
C19B C 0.1401(5) 0.15241(15) -0.5013(4)
H15B H 0.2298 0.1308 -0.4833
C20B C 0.0187(5) 0.12415(16) -0.5116(4)
H16B H -0.0695 0.1455 -0.5257
C21B C 0.0114(5) 0.06041(16) -0.5024(4)
C22B C -0.1386(5) 0.03216(18) -0.5986(4)
C23B C 0.1481(5) 0.02744(17) -0.4038(4)
H17B H 0.2478 0.0458 -0.3381
C24B C -0.4165(5) 0.04082(17) -0.8084(4)
H18B H -0.4569 0.0173 -0.7622
H19B H -0.4958 0.0703 -0.8671
H20B H -0.3987 0.0170 -0.8707
loop_
_geom_bond_atom_site_label_1
_geom_bond_atom_site_label_2
_geom_bond_site_symmetry_1
_geom_bond_site_symmetry_2
Cl1 C1 1_555 1_555
O1 C11 1_555 1_555
C1 C2 1_555 1_555
C2 H1 1_555 1_555
C3 C2 1_555 1_555
H2 C3 1_555 1_555
C4 C3 1_555 1_555
C5 C4 1_555 1_555
H3 C5 1_555 1_555
C6 C1 1_555 1_555
H4 C6 1_555 1_555
C7 C4 1_555 1_555
H5 C7 1_555 1_555
C8 C7 1_555 1_555
H6 C8 1_555 1_555
C9 C8 1_555 1_555
C10 C9 1_555 1_555
H7 C10 1_555 1_555
C11 C9 1_555 1_555
C12 O1 1_555 1_555
H8 C12 1_555 1_555
H9 C12 1_555 1_555
H10 C12 1_555 1_555
Cl2 C13 1_555 1_555
O2 C22 1_555 1_555
C13 C14 1_555 1_555
C14 H11 1_555 1_555
C15 C14 1_555 1_555
H12 C15 1_555 1_555
C16 C15 1_555 1_555
C17 C16 1_555 1_555
H13 C17 1_555 1_555
C18 C13 1_555 1_555
H14 C18 1_555 1_555
C19 C16 1_555 1_555
H15 C19 1_555 1_555
C20 C19 1_555 1_555
H16 C20 1_555 1_555
C21 C20 1_555 1_555
C22 C21 1_555 1_555
C23 C21 1_555 1_555
H17 C23 1_555 1_555
C24 O2 1_555 1_555
H18 C24 1_555 1_555
H19 C24 1_555 1_555
H20 C24 1_555 1_555
Cl1B C1B 1_555 1_555
O1B C11B 1_555 1_555
C1B C2B 1_555 1_555
C2B H1B 1_555 1_555
C3B C2B 1_555 1_555
H2B C3B 1_555 1_555
C4B C3B 1_555 1_555
C5B C4B 1_555 1_555
H3B C5B 1_555 1_555
C6B C1B 1_555 1_555
H4B C6B 1_555 1_555
C7B C4B 1_555 1_555
H5B C7B 1_555 1_555
C8B C7B 1_555 1_555
H6B C8B 1_555 1_555
C9B C8B 1_555 1_555
C10B C11 1_555 1_555
H7B C10B 1_555 1_555
C11B C10 1_555 1_555
C12B O1B 1_555 1_555
H8B C12B 1_555 1_555
H9B C12B 1_555 1_555
H10B C12B 1_555 1_555
Cl2B C13B 1_555 1_555
O2B C22B 1_555 1_555
C13B C14B 1_555 1_555
C14B H11B 1_555 1_555
C15B C14B 1_555 1_555
H12B C15B 1_555 1_555
C16B C15B 1_555 1_555
C17B C16B 1_555 1_555
H13B C17B 1_555 1_555
C18B C13B 1_555 1_555
H14B C18B 1_555 1_555
C19B C16B 1_555 1_555
H15B C19B 1_555 1_555
C20B C19B 1_555 1_555
H16B C20B 1_555 1_555
C21B C20B 1_555 1_555
C22B C23 1_555 1_555
C23B C22 1_555 1_555
H17B C23B 1_555 1_555
C24B O2B 1_555 1_555
H18B C24B 1_555 1_555
H19B C24B 1_555 1_555
H20B C24B 1_555 1_555
C5 C6 1_555 1_555
C17 C18 1_555 1_555
C5B C6B 1_555 1_555
C9B C10B 1_555 1_555
C9B C11B 1_555 1_555
C17B C18B 1_555 1_555
C21B C22B 1_555 1_555
C21B C23B 1_555 1_555

#END
