
#######################################################################
#
#                 Cambridge Crystallographic Data Centre
#                                CCDC 
#
#######################################################################
#
# If this CIF has been generated from an entry in the Cambridge 
# Structural Database, then it will include bibliographic, chemical, 
# crystal, experimental, refinement or atomic coordinate data resulting 
# from the CCDC's data processing and validation procedures.
#
#######################################################################

data_VIQCEG
_chemical_formula_moiety         'C17 H21 N1 O2'
_chemical_name_systematic        2-(hexylamino)-3-methyl-1,4-naphthoquinone
_symmetry_cell_setting           monoclinic
_symmetry_space_group_name_H-M   'P 21'
_symmetry_Int_Tables_number      4
_space_group_name_Hall           'P 2yb'
loop_
_symmetry_equiv_pos_site_id
_symmetry_equiv_pos_as_xyz
1 x,y,z
2 -x,1/2+y,-z
_cell_length_a                   7.568(5)
_cell_length_b                   4.720(5)
_cell_length_c                   20.796(5)
_cell_angle_alpha                90
_cell_angle_beta                 90.236(5)
_cell_angle_gamma                90
_cell_volume                     742.847
_exptl_crystal_colour            orange
_exptl_crystal_description       block
_cell_formula_units_Z            2
loop_
_atom_site_label
_atom_site_type_symbol
_atom_site_fract_x
_atom_site_fract_y
_atom_site_fract_z
O1 O 0.6186(3) 0.4164(7) 0.88969(11)
O2 O -0.0145(3) 0.5131(6) 0.78096(12)
C1 C 0.3249(4) 0.2567(6) 0.88783(12)
C2 C 0.1597(4) 0.2847(6) 0.85858(13)
C3 C 0.2841(4) 0.6422(6) 0.77791(12)
N1 N 0.6036(3) 0.7341(6) 0.78956(12)
H1 H 0.6874 0.7110 0.8171
C4 C 0.3469(4) 0.0721(7) 0.93918(13)
H2 H 0.4569 0.0550 0.9589
C5 C 0.4748(3) 0.4244(7) 0.86369(12)
C6 C 0.4488(4) 0.6097(6) 0.80535(12)
C7 C 0.6775(4) 0.7238(8) 0.67330(14)
H3 H 0.5702 0.6184 0.6644
H4 H 0.7718 0.5885 0.6809
C8 C 0.1356(4) 0.4859(6) 0.80387(14)
C9 C 0.0192(4) 0.1230(7) 0.88051(15)
H5 H -0.0912 0.1389 0.8610
C10 C 0.6515(4) 0.9014(8) 0.73308(14)
H6 H 0.7598 1.0040 0.7422
H7 H 0.5593 1.0398 0.7249
C11 C 0.2383(4) 0.8323(8) 0.72174(15)
H8 H 0.1146 0.8157 0.7121
H9 H 0.2654 1.0252 0.7326
H10 H 0.3059 0.7766 0.6849
C12 C 0.2069(5) -0.0854(8) 0.96085(15)
H11 H 0.2219 -0.2081 0.9954
C13 C 0.7231(5) 0.9044(9) 0.61529(15)
H12 H 0.8354 0.9974 0.6231
H13 H 0.6340 1.0507 0.6104
C14 C 0.0434(4) -0.0617(8) 0.93130(16)
H14 H -0.0507 -0.1709 0.9457
C15 C 0.7351(5) 0.7383(9) 0.55294(16)
H15 H 0.8298 0.6010 0.5570
H16 H 0.6258 0.6339 0.5470
C16 C 0.7672(6) 0.9130(11) 0.49397(16)
H17 H 0.8789 1.0113 0.4990
H18 H 0.6751 1.0553 0.4908
C17 C 0.7716(7) 0.7473(14) 0.43199(18)
H19 H 0.7927 0.8741 0.3968
H20 H 0.8646 0.6091 0.4340
H21 H 0.6604 0.6532 0.4257
loop_
_geom_bond_atom_site_label_1
_geom_bond_atom_site_label_2
_geom_bond_site_symmetry_1
_geom_bond_site_symmetry_2
O1 C5 1_555 1_555
O2 C8 1_555 1_555
C1 C2 1_555 1_555
C2 C8 1_555 1_555
C3 C6 1_555 1_555
N1 H1 1_555 1_555
C4 C1 1_555 1_555
H2 C4 1_555 1_555
C5 C1 1_555 1_555
C6 N1 1_555 1_555
C7 H3 1_555 1_555
H4 C7 1_555 1_555
C8 C3 1_555 1_555
C9 C2 1_555 1_555
H5 C9 1_555 1_555
C10 N1 1_555 1_555
H6 C10 1_555 1_555
H7 C10 1_555 1_555
C11 C3 1_555 1_555
H8 C11 1_555 1_555
H9 C11 1_555 1_555
H10 C11 1_555 1_555
C12 C4 1_555 1_555
H11 C12 1_555 1_555
C13 C7 1_555 1_555
H12 C13 1_555 1_555
H13 C13 1_555 1_555
C14 C9 1_555 1_555
H14 C14 1_555 1_555
C15 C13 1_555 1_555
H15 C15 1_555 1_555
H16 C15 1_555 1_555
C16 C15 1_555 1_555
H17 C16 1_555 1_555
H18 C16 1_555 1_555
C17 C16 1_555 1_555
H19 C17 1_555 1_555
H20 C17 1_555 1_555
H21 C17 1_555 1_555
C5 C6 1_555 1_555
C7 C10 1_555 1_555
C12 C14 1_555 1_555

#END
