
#######################################################################
#
#                 Cambridge Crystallographic Data Centre
#                                CCDC 
#
#######################################################################
#
# If this CIF has been generated from an entry in the Cambridge 
# Structural Database, then it will include bibliographic, chemical, 
# crystal, experimental, refinement or atomic coordinate data resulting 
# from the CCDC's data processing and validation procedures.
#
#######################################################################

data_VIQCIJ
_chemical_formula_moiety         'C22 H26 O6,0.5(H2 O1)'
_chemical_name_systematic        
'4-(3,4-dimethoxyphenyl)-2-hydroxy-6,7-dimethoxy-2,3-dimethyl-3,4-dihydronaphthalen-1(2H)-one hemihydrate'
_symmetry_cell_setting           triclinic
_symmetry_space_group_name_H-M   'P -1'
_symmetry_Int_Tables_number      2
_space_group_name_Hall           '-P 1'
loop_
_symmetry_equiv_pos_site_id
_symmetry_equiv_pos_as_xyz
1 x,y,z
2 -x,-y,-z
_cell_length_a                   8.1666(8)
_cell_length_b                   12.3232(10)
_cell_length_c                   20.795(2)
_cell_angle_alpha                85.685(8)
_cell_angle_beta                 80.440(8)
_cell_angle_gamma                89.993(7)
_cell_volume                     2057.7
_exptl_crystal_colour            'light colorless'
_exptl_crystal_description       plate
_cell_formula_units_Z            4
loop_
_atom_site_label
_atom_site_type_symbol
_atom_site_fract_x
_atom_site_fract_y
_atom_site_fract_z
O1 O 0.5438(7) 0.5865(4) 0.1728(2)
O2 O 0.8464(7) 0.9190(4) 0.0388(3)
O3 O 0.8607(6) 1.1343(4) 0.0496(3)
H1 H 0.9191 1.0933 0.0266
O4 O 0.3619(6) 0.6650(4) 0.2713(2)
O5 O 0.8624(7) 1.0063(5) 0.3863(3)
O6 O 0.6316(7) 1.1041(5) 0.4628(3)
C1 C 0.7172(9) 1.0758(6) 0.0843(4)
C2 C 0.6441(8) 0.8816(5) 0.1338(4)
C3 C 0.5516(8) 0.6975(5) 0.1736(4)
C4 C 0.7076(9) 1.0209(5) 0.2971(4)
H2 H 0.7898 0.9850 0.2706
C5 C 0.5525(8) 0.9217(5) 0.1892(3)
C6 C 0.4540(9) 0.7414(6) 0.2282(3)
C7 C 0.6942(9) 1.1061(6) 0.1548(3)
H3 H 0.7980 1.0875 0.1707
C8 C 0.4445(9) 1.1094(6) 0.3128(4)
H4 H 0.3510 1.1348 0.2966
C9 C 0.6007(10) 1.0893(6) 0.4010(4)
C10 C 0.7445(9) 0.9536(6) 0.0827(4)
C11 C 0.5677(9) 1.0574(5) 0.2723(4)
C12 C 0.5550(9) 1.0431(6) 0.2017(4)
H5 H 0.4490 1.0738 0.1935
C13 C 0.5699(9) 1.1052(6) 0.0508(4)
H6 H 0.5578 1.1829 0.0476
H7 H 0.4709 1.0720 0.0759
H8 H 0.5877 1.0795 0.0078
C14 C 0.6443(9) 0.7681(6) 0.1261(4)
H9 H 0.7065 0.7410 0.0893
C15 C 0.7257(9) 1.0367(6) 0.3590(4)
C16 C 0.6570(10) 0.5404(6) 0.1217(4)
H10 H 0.6334 0.5683 0.0799
H11 H 0.6443 0.4627 0.1259
H12 H 0.7689 0.5596 0.1253
C17 C 0.6721(9) 1.2300(6) 0.1597(4)
H13 H 0.7584 1.2685 0.1296
H14 H 0.6783 1.2476 0.2035
H15 H 0.5659 1.2509 0.1492
C18 C 0.4988(13) 1.1534(8) 0.5045(4)
H16 H 0.4704 1.2212 0.4835
H17 H 0.5336 1.1664 0.5451
H18 H 0.4037 1.1055 0.5127
C19 C 0.4536(9) 0.8503(6) 0.2357(4)
H19 H 0.3877 0.8774 0.2716
C20 C 0.4592(10) 1.1238(6) 0.3773(4)
H20 H 0.3742 1.1564 0.4044
C21 C 1.0096(10) 0.9862(7) 0.3421(4)
H21 H 1.0349 1.0479 0.3110
H22 H 0.9935 0.9229 0.3196
H23 H 1.0999 0.9743 0.3660
C22 C 0.2571(10) 0.7028(6) 0.3264(4)
H24 H 0.1811 0.7550 0.3120
H25 H 0.3236 0.7365 0.3536
H26 H 0.1958 0.6426 0.3511
O7 O 0.3475(6) 0.5719(4) 0.0403(3)
O8 O 0.3606(6) 0.3549(4) 0.0502(3)
H27 H 0.4283 0.4027 0.0341
O9 O 0.0434(6) 0.8691(4) 0.1731(2)
O10 O -0.1390(7) 0.7680(4) 0.2717(2)
O11 O 0.1368(8) 0.2668(5) 0.4601(3)
O12 O 0.3659(7) 0.3877(5) 0.3857(3)
C23 C 0.0656(9) 0.3719(6) 0.2728(4)
C24 C 0.0531(9) 0.4066(5) 0.2021(3)
H28 H -0.0524 0.3781 0.1934
C25 C 0.2284(9) 0.3664(6) 0.3597(4)
C26 C 0.0506(8) 0.5308(6) 0.1905(4)
C27 C -0.0463(8) 0.5899(6) 0.2375(4)
H29 H -0.1080 0.5538 0.2745
C28 C 0.1044(10) 0.2991(6) 0.4004(4)
C29 C -0.0499(9) 0.7028(6) 0.2284(4)
C30 C 0.1426(9) 0.5857(6) 0.1348(3)
C31 C 0.2187(9) 0.4031(5) 0.0861(4)
C32 C 0.1424(8) 0.7001(5) 0.1279(4)
H30 H 0.2062 0.7366 0.0915
C33 C 0.0500(9) 0.7579(6) 0.1737(4)
C34 C 0.2458(8) 0.5262(5) 0.0842(4)
C35 C 0.0695(9) 0.3831(6) 0.0512(4)
H31 H 0.0889 0.4200 0.0083
H32 H -0.0297 0.4103 0.0760
H33 H 0.0566 0.3064 0.0478
C36 C 0.1565(9) 0.9284(6) 0.1225(4)
H34 H 0.1375 0.9084 0.0806
H35 H 0.2686 0.9114 0.1276
H36 H 0.1392 1.0051 0.1254
C37 C 0.1954(9) 0.3536(5) 0.1561(3)
H37 H 0.2987 0.3667 0.1727
C38 C -0.0555(9) 0.3064(6) 0.3128(3)
H38 H -0.1498 0.2853 0.2971
C39 C -0.2405(11) 0.7164(7) 0.3285(4)
H39 H -0.3267 0.6745 0.3154
H40 H -0.2893 0.7709 0.3561
H41 H -0.1735 0.6693 0.3520
C40 C 0.2065(10) 0.4012(6) 0.2968(4)
H42 H 0.2875 0.4449 0.2703
C41 C 0.1685(10) 0.2306(6) 0.1601(4)
H43 H 0.1750 0.2004 0.2035
H44 H 0.2525 0.1990 0.1294
H45 H 0.0610 0.2148 0.1499
C42 C -0.0347(10) 0.2728(6) 0.3764(4)
H46 H -0.1179 0.2313 0.4031
C43 C 0.0223(13) 0.1863(8) 0.5004(4)
H47 H 0.0221 0.1207 0.4782
H48 H -0.0878 0.2153 0.5074
H49 H 0.0581 0.1704 0.5417
C44 C 0.5126(10) 0.4233(7) 0.3398(4)
H50 H 0.5223 0.3819 0.3021
H51 H 0.6091 0.4123 0.3602
H52 H 0.5036 0.4991 0.3268
O14 O 0.765(3) 0.4883(16) 0.4784(9)
O14A O 1.235(3) 0.5117(16) 0.5216(9)
O13? O 0.924(2) 0.4555(16) 0.5229(10)
loop_
_geom_bond_atom_site_label_1
_geom_bond_atom_site_label_2
_geom_bond_site_symmetry_1
_geom_bond_site_symmetry_2
O1 C3 1_555 1_555
O2 C10 1_555 1_555
O3 H1 1_555 1_555
O4 C6 1_555 1_555
O5 C15 1_555 1_555
O6 C9 1_555 1_555
C1 O3 1_555 1_555
C2 C5 1_555 1_555
C3 C6 1_555 1_555
C4 H2 1_555 1_555
C5 C12 1_555 1_555
C6 C19 1_555 1_555
C7 C1 1_555 1_555
H3 C7 1_555 1_555
C8 H4 1_555 1_555
C9 C15 1_555 1_555
C10 C1 1_555 1_555
C11 C4 1_555 1_555
C12 C7 1_555 1_555
H5 C12 1_555 1_555
C13 C1 1_555 1_555
H6 C13 1_555 1_555
H7 C13 1_555 1_555
H8 C13 1_555 1_555
C14 C2 1_555 1_555
H9 C14 1_555 1_555
C15 C4 1_555 1_555
C16 O1 1_555 1_555
H10 C16 1_555 1_555
H11 C16 1_555 1_555
H12 C16 1_555 1_555
C17 C7 1_555 1_555
H13 C17 1_555 1_555
H14 C17 1_555 1_555
H15 C17 1_555 1_555
C18 O6 1_555 1_555
H16 C18 1_555 1_555
H17 C18 1_555 1_555
H18 C18 1_555 1_555
C19 C5 1_555 1_555
H19 C19 1_555 1_555
C20 C8 1_555 1_555
H20 C20 1_555 1_555
C21 O5 1_555 1_555
H21 C21 1_555 1_555
H22 C21 1_555 1_555
H23 C21 1_555 1_555
C22 O4 1_555 1_555
H24 C22 1_555 1_555
H25 C22 1_555 1_555
H26 C22 1_555 1_555
O7 C34 1_555 1_555
O8 H27 1_555 1_555
O9 C33 1_555 1_555
O10 C29 1_555 1_555
O11 C28 1_555 1_555
O12 C25 1_555 1_555
C23 C24 1_555 1_555
C24 H28 1_555 1_555
C25 C28 1_555 1_555
C26 C24 1_555 1_555
C27 C26 1_555 1_555
H29 C27 1_555 1_555
C28 C42 1_555 1_555
C29 C27 1_555 1_555
C30 C26 1_555 1_555
C31 O8 1_555 1_555
C32 C30 1_555 1_555
H30 C32 1_555 1_555
C33 C29 1_555 1_555
C34 C30 1_555 1_555
C35 C31 1_555 1_555
H31 C35 1_555 1_555
H32 C35 1_555 1_555
H33 C35 1_555 1_555
C36 O9 1_555 1_555
H34 C36 1_555 1_555
H35 C36 1_555 1_555
H36 C36 1_555 1_555
C37 C24 1_555 1_555
H37 C37 1_555 1_555
C38 C23 1_555 1_555
H38 C38 1_555 1_555
C39 O10 1_555 1_555
H39 C39 1_555 1_555
H40 C39 1_555 1_555
H41 C39 1_555 1_555
C40 C23 1_555 1_555
H42 C40 1_555 1_555
C41 C37 1_555 1_555
H43 C41 1_555 1_555
H44 C41 1_555 1_555
H45 C41 1_555 1_555
C42 C38 1_555 1_555
H46 C42 1_555 1_555
C43 O11 1_555 1_555
H47 C43 1_555 1_555
H48 C43 1_555 1_555
H49 C43 1_555 1_555
C44 O12 1_555 1_555
H50 C44 1_555 1_555
H51 C44 1_555 1_555
H52 C44 1_555 1_555
C2 C10 1_555 1_555
C3 C14 1_555 1_555
C8 C11 1_555 1_555
C9 C20 1_555 1_555
C11 C12 1_555 1_555
C25 C40 1_555 1_555
C31 C34 1_555 1_555
C31 C37 1_555 1_555
C32 C33 1_555 1_555

#END
