
#######################################################################
#
#                 Cambridge Crystallographic Data Centre
#                                CCDC 
#
#######################################################################
#
# If this CIF has been generated from an entry in the Cambridge 
# Structural Database, then it will include bibliographic, chemical, 
# crystal, experimental, refinement or atomic coordinate data resulting 
# from the CCDC's data processing and validation procedures.
#
#######################################################################

data_VIQPUH
_chemical_formula_moiety         'C8 H12 N1 1+,C8 H6 Cl1 O3 1-'
_chemical_name_systematic        
'(R)-1-Phenylethanaminium (S)-4-chloromandelate'
_symmetry_cell_setting           monoclinic
_symmetry_space_group_name_H-M   'P 21'
_symmetry_Int_Tables_number      4
_space_group_name_Hall           'P 2yb'
loop_
_symmetry_equiv_pos_site_id
_symmetry_equiv_pos_as_xyz
1 x,y,z
2 -x,1/2+y,-z
_cell_length_a                   10.4091(7)
_cell_length_b                   5.7635(4)
_cell_length_c                   13.2544(10)
_cell_angle_alpha                90
_cell_angle_beta                 96.831(4)
_cell_angle_gamma                90
_cell_volume                     789.525
_exptl_crystal_colour            colorless
_exptl_crystal_description       plate
_cell_formula_units_Z            2
_exptl_crystal_recrystallization_method methanol
loop_
_atom_site_label
_atom_site_type_symbol
_atom_site_fract_x
_atom_site_fract_y
_atom_site_fract_z
Cl1 Cl 0.62566(7) 0.61666(16) 1.01588(5)
C1 C 0.6271(2) 0.5894(5) 0.88508(17)
C2 C 0.5788(3) 0.7663(5) 0.82206(19)
H1 H 0.5408 0.8990 0.8490
C3 C 0.5863(2) 0.7484(4) 0.71887(18)
H2 H 0.5529 0.8702 0.6751
C4 C 0.64141(18) 0.5567(4) 0.67818(16)
C5 C 0.6887(2) 0.3804(4) 0.74326(19)
H3 H 0.7267 0.2473 0.7165
C6 C 0.6815(2) 0.3952(5) 0.84688(19)
H4 H 0.7137 0.2730 0.8909
C7 C 0.64285(18) 0.5435(3) 0.56394(15)
H5 H 0.6574 0.7033 0.5382
O1 O 0.52152(12) 0.4619(3) 0.51580(11)
H6 H 0.4701 0.5740 0.5053
C8 C 0.74941(19) 0.3868(4) 0.53386(15)
O2 O 0.72224(14) 0.1839(3) 0.50678(13)
O3 O 0.86102(13) 0.4771(3) 0.53936(11)
N1 N 0.87681(16) -0.1239(3) 0.42117(14)
H7 H 0.8657 -0.2587 0.4548
H8 H 0.8332 -0.0076 0.4487
H9 H 0.9625 -0.0885 0.4267
C9 C 0.6876(2) -0.2471(5) 0.30409(19)
H10 H 0.6898 -0.4075 0.3288
H11 H 0.6480 -0.2430 0.2332
H12 H 0.6366 -0.1517 0.3458
C10 C 0.8256(2) -0.1521(4) 0.31099(16)
H13 H 0.8223 0.0045 0.2783
C11 C 0.91365(19) -0.3052(4) 0.25701(17)
C12 C 0.9388(2) -0.2491(4) 0.15998(17)
H14 H 0.9041 -0.1103 0.1292
C13 C 1.0142(2) -0.3926(5) 0.10662(18)
H15 H 1.0293 -0.3536 0.0394
C14 C 1.0672(2) -0.5923(5) 0.15193(19)
H16 H 1.1194 -0.6903 0.1160
C15 C 1.0443(2) -0.6496(4) 0.24955(19)
H17 H 1.0815 -0.7859 0.2810
C16 C 0.9671(2) -0.5080(4) 0.30114(17)
H18 H 0.9502 -0.5495 0.3677
loop_
_geom_bond_atom_site_label_1
_geom_bond_atom_site_label_2
_geom_bond_site_symmetry_1
_geom_bond_site_symmetry_2
Cl1 C1 1_555 1_555
C1 C2 1_555 1_555
C2 H1 1_555 1_555
C3 C2 1_555 1_555
H2 C3 1_555 1_555
C4 C3 1_555 1_555
C5 C4 1_555 1_555
H3 C5 1_555 1_555
C6 C1 1_555 1_555
H4 C6 1_555 1_555
C7 C4 1_555 1_555
H5 C7 1_555 1_555
O1 C7 1_555 1_555
H6 O1 1_555 1_555
C8 C7 1_555 1_555
O2 C8 1_555 1_555
O3 C8 1_555 1_555
N1 H7 1_555 1_555
H8 N1 1_555 1_555
H9 N1 1_555 1_555
C9 H10 1_555 1_555
H11 C9 1_555 1_555
H12 C9 1_555 1_555
C10 N1 1_555 1_555
H13 C10 1_555 1_555
C11 C10 1_555 1_555
C12 C11 1_555 1_555
H14 C12 1_555 1_555
C13 C12 1_555 1_555
H15 C13 1_555 1_555
C14 C13 1_555 1_555
H16 C14 1_555 1_555
C15 C14 1_555 1_555
H17 C15 1_555 1_555
C16 C11 1_555 1_555
H18 C16 1_555 1_555
C5 C6 1_555 1_555
C9 C10 1_555 1_555
C15 C16 1_555 1_555

#END
