
#######################################################################
#
#                 Cambridge Crystallographic Data Centre
#                                CCDC 
#
#######################################################################
#
# If this CIF has been generated from an entry in the Cambridge 
# Structural Database, then it will include bibliographic, chemical, 
# crystal, experimental, refinement or atomic coordinate data resulting 
# from the CCDC's data processing and validation procedures.
#
#######################################################################

data_VIQROF
_chemical_formula_moiety         'C29 H40 O1 S1'
_chemical_name_systematic        
2,6-bis(3,5-dimethyladamantan-1-yl)-4H-thiopyran-4-one
_symmetry_cell_setting           monoclinic
_symmetry_space_group_name_H-M   'P 21/c'
_symmetry_Int_Tables_number      14
_space_group_name_Hall           '-P 2ybc'
loop_
_symmetry_equiv_pos_site_id
_symmetry_equiv_pos_as_xyz
1 x,y,z
2 -x,1/2+y,1/2-z
3 -x,-y,-z
4 x,1/2-y,1/2+z
_cell_length_a                   12.5724(15)
_cell_length_b                   14.6614(17)
_cell_length_c                   12.9715(15)
_cell_angle_alpha                90
_cell_angle_beta                 90.377(2)
_cell_angle_gamma                90
_cell_volume                     2390.97
_exptl_crystal_colour            colorless
_exptl_crystal_description       Prism
_cell_formula_units_Z            4
loop_
_atom_site_label
_atom_site_type_symbol
_atom_site_fract_x
_atom_site_fract_y
_atom_site_fract_z
S1 S 0.97016(3) 0.12299(2) 0.74326(3)
O1 O 1.02661(8) -0.16496(6) 0.81969(8)
C1 C 1.06382(10) 0.04983(9) 0.68989(10)
C2 C 0.81863(10) 0.10800(9) 0.89283(10)
C3 C 1.21207(10) 0.02733(9) 0.56138(10)
H1 H 1.2588 0.0043 0.6173
H2 H 1.1735 -0.0253 0.5314
C4 C 0.93534(11) -0.02982(9) 0.85649(10)
H3 H 0.9003 -0.0595 0.9118
C5 C 1.05939(10) 0.13059(9) 0.51794(10)
H4 H 1.0186 0.0792 0.4878
H5 H 1.0081 0.1755 0.5455
C6 C 0.90830(10) 0.05801(9) 0.83792(10)
C7 C 1.33952(11) 0.15349(9) 0.52514(10)
H6 H 1.3838 0.1829 0.4718
H7 H 1.3873 0.1318 0.5809
C8 C 1.13138(10) 0.09501(9) 0.60659(10)
C9 C 1.28065(11) 0.07190(9) 0.47775(10)
C10 C 1.07385(10) -0.03816(9) 0.71969(10)
H8 H 1.1255 -0.0740 0.6851
C11 C 0.72313(11) 0.11764(9) 0.81792(10)
H9 H 0.7455 0.1521 0.7561
H10 H 0.6997 0.0563 0.7953
C12 C 1.01279(11) -0.08285(9) 0.79983(10)
C13 C 1.19351(11) 0.17724(9) 0.65218(10)
H11 H 1.1427 0.2218 0.6811
H12 H 1.2403 0.1559 0.7089
C14 C 0.85419(11) 0.20437(9) 0.92753(11)
H13 H 0.9146 0.1993 0.9766
H14 H 0.8783 0.2397 0.8670
C15 C 1.26117(11) 0.22392(9) 0.56908(10)
C16 C 1.12689(11) 0.17561(9) 0.43407(10)
H15 H 1.0796 0.1979 0.3771
C17 C 0.68938(11) 0.10447(10) 1.04262(11)
C18 C 0.78124(11) 0.05532(9) 0.98869(10)
H16 H 0.7578 -0.0065 0.9679
H17 H 0.8415 0.0486 1.0376
C19 C 0.59730(11) 0.11356(10) 0.96566(11)
H18 H 0.5370 0.1448 0.9994
H19 H 0.5730 0.0520 0.9448
C20 C 1.18731(11) 0.25617(9) 0.48153(10)
H20 H 1.1359 0.3011 0.5088
H21 H 1.2299 0.2866 0.4276
C21 C 0.76151(12) 0.25392(10) 0.97927(12)
H22 H 0.7851 0.3162 1.0008
C22 C 1.35949(12) 0.00189(10) 0.43580(11)
H23 H 1.3204 -0.0496 0.4059
H24 H 1.4053 -0.0200 0.4920
H25 H 1.4034 0.0304 0.3826
C23 C 1.20657(11) 0.10642(9) 0.39131(10)
H26 H 1.2494 0.1354 0.3365
H27 H 1.1677 0.0543 0.3605
C24 C 1.32047(11) 0.30470(10) 0.61664(11)
H28 H 1.3671 0.2830 0.6722
H29 H 1.2691 0.3483 0.6446
H30 H 1.3633 0.3347 0.5636
C25 C 0.72609(12) 0.20038(10) 1.07453(11)
H31 H 0.6670 0.2329 1.1087
H32 H 0.7860 0.1956 1.1242
C26 C 0.65445(12) 0.04954(11) 1.13680(11)
H33 H 0.7141 0.0442 1.1854
H34 H 0.6318 -0.0115 1.1149
H35 H 0.5950 0.0807 1.1704
C27 C 0.62975(11) 0.16734(10) 0.86957(11)
C28 C 0.53568(12) 0.17437(13) 0.79477(12)
H36 H 0.5571 0.2088 0.7336
H37 H 0.4766 0.2058 0.8286
H38 H 0.5130 0.1130 0.7742
C29 C 0.66859(13) 0.26234(10) 0.90334(13)
H39 H 0.6914 0.2974 0.8421
H40 H 0.6095 0.2959 0.9363
loop_
_geom_bond_atom_site_label_1
_geom_bond_atom_site_label_2
_geom_bond_site_symmetry_1
_geom_bond_site_symmetry_2
S1 C1 1_555 1_555
O1 C12 1_555 1_555
C1 C8 1_555 1_555
C2 C6 1_555 1_555
C3 H1 1_555 1_555
H2 C3 1_555 1_555
C4 H3 1_555 1_555
C5 H4 1_555 1_555
H5 C5 1_555 1_555
C6 S1 1_555 1_555
C7 H6 1_555 1_555
H7 C7 1_555 1_555
C8 C3 1_555 1_555
C9 C3 1_555 1_555
C10 C1 1_555 1_555
H8 C10 1_555 1_555
C11 C2 1_555 1_555
H9 C11 1_555 1_555
H10 C11 1_555 1_555
C12 C4 1_555 1_555
C13 C8 1_555 1_555
H11 C13 1_555 1_555
H12 C13 1_555 1_555
C14 C2 1_555 1_555
H13 C14 1_555 1_555
H14 C14 1_555 1_555
C15 C7 1_555 1_555
C16 C5 1_555 1_555
H15 C16 1_555 1_555
C17 C18 1_555 1_555
C18 C2 1_555 1_555
H16 C18 1_555 1_555
H17 C18 1_555 1_555
C19 C17 1_555 1_555
H18 C19 1_555 1_555
H19 C19 1_555 1_555
C20 C15 1_555 1_555
H20 C20 1_555 1_555
H21 C20 1_555 1_555
C21 C14 1_555 1_555
H22 C21 1_555 1_555
C22 C9 1_555 1_555
H23 C22 1_555 1_555
H24 C22 1_555 1_555
H25 C22 1_555 1_555
C23 C9 1_555 1_555
H26 C23 1_555 1_555
H27 C23 1_555 1_555
C24 C15 1_555 1_555
H28 C24 1_555 1_555
H29 C24 1_555 1_555
H30 C24 1_555 1_555
C25 C17 1_555 1_555
H31 C25 1_555 1_555
H32 C25 1_555 1_555
C26 C17 1_555 1_555
H33 C26 1_555 1_555
H34 C26 1_555 1_555
H35 C26 1_555 1_555
C27 C11 1_555 1_555
C28 C27 1_555 1_555
H36 C28 1_555 1_555
H37 C28 1_555 1_555
H38 C28 1_555 1_555
C29 C21 1_555 1_555
H39 C29 1_555 1_555
H40 C29 1_555 1_555
C4 C6 1_555 1_555
C5 C8 1_555 1_555
C7 C9 1_555 1_555
C10 C12 1_555 1_555
C13 C15 1_555 1_555
C16 C20 1_555 1_555
C16 C23 1_555 1_555
C19 C27 1_555 1_555
C21 C25 1_555 1_555
C27 C29 1_555 1_555

#END
