
#######################################################################
#
#                 Cambridge Crystallographic Data Centre
#                                CCDC 
#
#######################################################################
#
# If this CIF has been generated from an entry in the Cambridge 
# Structural Database, then it will include bibliographic, chemical, 
# crystal, experimental, refinement or atomic coordinate data resulting 
# from the CCDC's data processing and validation procedures.
#
#######################################################################

data_VIQRIZ
_chemical_formula_moiety         'C29 H40 O1 Te1'
_chemical_name_systematic        
2,6-bis(3,5-dimethyladamantan-1-yl)-4H-telluropyran-4-one
_symmetry_cell_setting           monoclinic
_symmetry_space_group_name_H-M   'P 21/c'
_symmetry_Int_Tables_number      14
_space_group_name_Hall           '-P 2ybc'
loop_
_symmetry_equiv_pos_site_id
_symmetry_equiv_pos_as_xyz
1 x,y,z
2 -x,1/2+y,1/2-z
3 -x,-y,-z
4 x,1/2-y,1/2+z
_cell_length_a                   13.0932(11)
_cell_length_b                   14.8364(12)
_cell_length_c                   12.7664(10)
_cell_angle_alpha                90
_cell_angle_beta                 92.2810(10)
_cell_angle_gamma                90
_cell_volume                     2477.98
_exptl_crystal_colour            yellow
_exptl_crystal_description       plates
_cell_formula_units_Z            4
loop_
_atom_site_label
_atom_site_type_symbol
_atom_site_fract_x
_atom_site_fract_y
_atom_site_fract_z
Te1 Te 0.545222(7) 0.153873(6) 0.267297(7)
O1 O 0.47451(8) -0.14355(6) 0.17108(8)
C1 C 0.23542(11) 0.21984(10) 0.43588(11)
C2 C 0.16130(11) 0.14643(9) 0.47067(12)
H1 H 0.1183 0.1263 0.4095
H2 H 0.1157 0.1718 0.5232
C3 C 0.36683(10) 0.09793(9) 0.39961(10)
C4 C 0.87932(11) 0.16338(10) 0.11888(12)
C5 C 0.43111(10) -0.02243(9) 0.27641(10)
H3 H 0.3803 -0.0601 0.3044
C6 C 0.21929(11) 0.06518(10) 0.51826(11)
C7 C 0.69500(10) 0.10938(9) 0.09778(11)
C8 C 0.30531(10) 0.17932(10) 0.35401(11)
H4 H 0.3533 0.2261 0.3308
H5 H 0.2633 0.1595 0.2921
C9 C 0.30195(11) 0.25011(10) 0.53173(11)
H6 H 0.3508 0.2969 0.5102
H7 H 0.2580 0.2767 0.5850
C10 C 0.66485(11) 0.20278(9) 0.05196(12)
H8 H 0.6056 0.1961 0.0019
H9 H 0.6446 0.2433 0.1092
C11 C 0.72690(10) 0.04865(9) 0.00686(10)
H10 H 0.7470 -0.0113 0.0348
H11 H 0.6679 0.0402 -0.0431
C12 C 0.75484(12) 0.24415(10) -0.00413(13)
H12 H 0.7344 0.3045 -0.0329
C13 C 0.43674(10) 0.06130(9) 0.31692(10)
C14 C 0.60692(10) 0.06841(9) 0.15625(10)
C15 C 0.57143(10) -0.01569(9) 0.14075(10)
H13 H 0.6024 -0.0485 0.0866
C16 C 0.29011(10) 0.02662(9) 0.43591(10)
H14 H 0.2483 0.0050 0.3746
H15 H 0.3281 -0.0256 0.4662
C17 C 0.43064(11) 0.13069(10) 0.49703(11)
H16 H 0.4701 0.0796 0.5278
H17 H 0.4797 0.1774 0.4758
C18 C 0.17687(11) 0.29977(10) 0.38765(12)
H18 H 0.2254 0.3458 0.3660
H19 H 0.1320 0.3254 0.4396
H20 H 0.1357 0.2794 0.3264
C19 C 0.36075(11) 0.16966(10) 0.57917(11)
H21 H 0.4032 0.1902 0.6415
C20 C 0.78861(10) 0.12136(10) 0.17437(11)
H22 H 0.7697 0.1606 0.2333
H23 H 0.8091 0.0620 0.2036
C21 C 0.49200(10) -0.06395(9) 0.19528(10)
C22 C 0.28556(12) 0.09734(10) 0.61301(11)
H24 H 0.2413 0.1223 0.6670
H25 H 0.3238 0.0457 0.6441
C23 C 0.81656(11) 0.08955(10) -0.05125(11)
C24 C 0.90713(11) 0.10132(11) 0.02781(11)
H26 H 0.9658 0.1273 -0.0083
H27 H 0.9280 0.0416 0.0560
C25 C 0.14418(12) -0.00715(11) 0.55135(12)
H28 H 0.0992 0.0179 0.6035
H29 H 0.1821 -0.0584 0.5818
H30 H 0.1030 -0.0274 0.4900
C26 C 0.78456(12) 0.18239(11) -0.09424(12)
H31 H 0.8419 0.2096 -0.1315
H32 H 0.7258 0.1756 -0.1449
C27 C 0.84612(12) 0.25540(11) 0.07356(13)
H33 H 0.8271 0.2959 0.1312
H34 H 0.9038 0.2832 0.0375
C28 C 0.84568(12) 0.02666(12) -0.13970(12)
H35 H 0.7872 0.0195 -0.1894
H36 H 0.8650 -0.0323 -0.1105
H37 H 0.9035 0.0523 -0.1760
C29 C 0.97054(12) 0.17371(13) 0.19615(14)
H38 H 0.9518 0.2131 0.2539
H39 H 1.0280 0.2002 0.1601
H40 H 0.9904 0.1144 0.2240
loop_
_geom_bond_atom_site_label_1
_geom_bond_atom_site_label_2
_geom_bond_site_symmetry_1
_geom_bond_site_symmetry_2
Te1 C13 1_555 1_555
O1 C21 1_555 1_555
C1 C2 1_555 1_555
C2 H1 1_555 1_555
H2 C2 1_555 1_555
C3 C8 1_555 1_555
C4 C20 1_555 1_555
C5 H3 1_555 1_555
C6 C2 1_555 1_555
C7 C10 1_555 1_555
C8 C1 1_555 1_555
H4 C8 1_555 1_555
H5 C8 1_555 1_555
C9 C1 1_555 1_555
H6 C9 1_555 1_555
H7 C9 1_555 1_555
C10 H8 1_555 1_555
H9 C10 1_555 1_555
C11 C7 1_555 1_555
H10 C11 1_555 1_555
H11 C11 1_555 1_555
C12 C10 1_555 1_555
H12 C12 1_555 1_555
C13 C3 1_555 1_555
C14 Te1 1_555 1_555
C15 C14 1_555 1_555
H13 C15 1_555 1_555
C16 C3 1_555 1_555
H14 C16 1_555 1_555
H15 C16 1_555 1_555
C17 C3 1_555 1_555
H16 C17 1_555 1_555
H17 C17 1_555 1_555
C18 C1 1_555 1_555
H18 C18 1_555 1_555
H19 C18 1_555 1_555
H20 C18 1_555 1_555
C19 C9 1_555 1_555
H21 C19 1_555 1_555
C20 C7 1_555 1_555
H22 C20 1_555 1_555
H23 C20 1_555 1_555
C21 C5 1_555 1_555
C22 C6 1_555 1_555
H24 C22 1_555 1_555
H25 C22 1_555 1_555
C23 C11 1_555 1_555
C24 C4 1_555 1_555
H26 C24 1_555 1_555
H27 C24 1_555 1_555
C25 C6 1_555 1_555
H28 C25 1_555 1_555
H29 C25 1_555 1_555
H30 C25 1_555 1_555
C26 C12 1_555 1_555
H31 C26 1_555 1_555
H32 C26 1_555 1_555
C27 C4 1_555 1_555
H33 C27 1_555 1_555
H34 C27 1_555 1_555
C28 C23 1_555 1_555
H35 C28 1_555 1_555
H36 C28 1_555 1_555
H37 C28 1_555 1_555
C29 C4 1_555 1_555
H38 C29 1_555 1_555
H39 C29 1_555 1_555
H40 C29 1_555 1_555
C5 C13 1_555 1_555
C6 C16 1_555 1_555
C7 C14 1_555 1_555
C12 C27 1_555 1_555
C15 C21 1_555 1_555
C17 C19 1_555 1_555
C19 C22 1_555 1_555
C23 C24 1_555 1_555
C23 C26 1_555 1_555

#END
