
#######################################################################
#
#                 Cambridge Crystallographic Data Centre
#                                CCDC 
#
#######################################################################
#
# If this CIF has been generated from an entry in the Cambridge 
# Structural Database, then it will include bibliographic, chemical, 
# crystal, experimental, refinement or atomic coordinate data resulting 
# from the CCDC's data processing and validation procedures.
#
#######################################################################

data_VIQRUL
_chemical_formula_moiety         'C29 H40 O1 Se1'
_chemical_name_systematic        
2,6-bis(3,5-dimethyladamantan-1-yl)-4H-selenopyran-4-one
_symmetry_cell_setting           monoclinic
_symmetry_space_group_name_H-M   'P 21/c'
_symmetry_Int_Tables_number      14
_space_group_name_Hall           '-P 2ybc'
loop_
_symmetry_equiv_pos_site_id
_symmetry_equiv_pos_as_xyz
1 x,y,z
2 -x,1/2+y,1/2-z
3 -x,-y,-z
4 x,1/2-y,1/2+z
_cell_length_a                   12.832(2)
_cell_length_b                   14.788(3)
_cell_length_c                   13.056(3)
_cell_angle_alpha                90
_cell_angle_beta                 90.761(4)
_cell_angle_gamma                90
_cell_volume                     2477.28
_exptl_crystal_colour            colorless
_exptl_crystal_description       plates
_cell_formula_units_Z            4
loop_
_atom_site_label
_atom_site_type_symbol
_atom_site_fract_x
_atom_site_fract_y
_atom_site_fract_z
Se1 Se 0.466290(16) 0.363739(13) 0.740271(16)
C1 C 0.31523(13) 0.39066(12) 0.89658(13)
C2 C 0.63344(13) 0.40303(11) 0.60456(13)
C3 C 0.57155(13) 0.53081(12) 0.71945(13)
H1 H 0.6224 0.5676 0.6874
C4 C 0.56494(13) 0.44512(11) 0.68648(13)
C5 C 0.71103(13) 0.47181(12) 0.56163(13)
H2 H 0.7557 0.4951 0.6181
H3 H 0.6722 0.5235 0.5317
C6 C 0.43314(14) 0.52316(12) 0.85487(13)
H4 H 0.3998 0.5545 0.9089
C7 C 0.56484(14) 0.36730(13) 0.51460(14)
H5 H 0.5150 0.3219 0.5405
H6 H 0.5244 0.4179 0.4842
C8 C 0.40342(13) 0.43735(11) 0.84007(13)
C9 C 0.78004(15) 0.42946(14) 0.47928(14)
C10 C 0.69539(14) 0.32237(12) 0.64993(13)
H7 H 0.7401 0.3439 0.7073
H8 H 0.6462 0.2771 0.6773
C11 C 0.76367(15) 0.27771(13) 0.56849(15)
O1 O 0.52387(12) 0.65526(9) 0.81809(12)
C12 C 0.51005(14) 0.57426(12) 0.79856(14)
C13 C 0.22133(14) 0.37983(14) 0.82303(14)
H9 H 0.2424 0.3439 0.7627
H10 H 0.1987 0.4402 0.7986
C14 C 0.69312(16) 0.24503(14) 0.48021(15)
H11 H 0.7361 0.2157 0.4273
H12 H 0.6432 0.1997 0.5061
C15 C 0.28004(14) 0.44610(13) 0.98953(14)
H13 H 0.2578 0.5070 0.9664
H14 H 0.3395 0.4537 1.0378
C16 C 0.83920(15) 0.34923(14) 0.52714(16)
H15 H 0.8846 0.3713 0.5837
H16 H 0.8842 0.3213 0.4749
C17 C 0.34954(16) 0.29628(13) 0.93534(17)
H17 H 0.3723 0.2589 0.8768
H18 H 0.4091 0.3027 0.9838
C18 C 0.25851(19) 0.24972(16) 0.9891(2)
H19 H 0.2811 0.1885 1.0132
C19 C 0.18966(15) 0.40002(16) 1.04502(15)
C20 C 0.63320(15) 0.32429(14) 0.43271(14)
H20 H 0.5882 0.3018 0.3750
C21 C 0.85611(18) 0.50020(16) 0.43959(18)
H21 H 0.9004 0.5217 0.4963
H22 H 0.8170 0.5512 0.4103
H23 H 0.8998 0.4731 0.3867
C22 C 0.70969(17) 0.39451(16) 0.39237(14)
H24 H 0.7530 0.3670 0.3385
H25 H 0.6706 0.4456 0.3615
C23 C 0.09911(15) 0.38963(17) 0.96881(16)
H26 H 0.0396 0.3606 1.0035
H27 H 0.0764 0.4502 0.9452
C24 C 0.12976(16) 0.33251(17) 0.87593(17)
C25 C 0.82350(18) 0.19876(15) 0.61636(18)
H28 H 0.8671 0.1703 0.5644
H29 H 0.7741 0.1542 0.6427
H30 H 0.8677 0.2210 0.6727
C26 C 0.03752(18) 0.3241(3) 0.8014(2)
H31 H 0.0578 0.2874 0.7425
H32 H 0.0165 0.3845 0.7779
H33 H -0.0210 0.2952 0.8361
C27 C 0.22541(19) 0.30643(18) 1.08085(18)
H34 H 0.2847 0.3127 1.1296
H35 H 0.1678 0.2758 1.1167
C28 C 0.1676(2) 0.23975(17) 0.9141(2)
H36 H 0.1096 0.2080 0.9480
H37 H 0.1895 0.2027 0.8549
C29 C 0.15685(19) 0.4583(2) 1.13606(17)
H38 H 0.1344 0.5179 1.1114
H39 H 0.2160 0.4655 1.1836
H40 H 0.0992 0.4289 1.1715
loop_
_geom_bond_atom_site_label_1
_geom_bond_atom_site_label_2
_geom_bond_site_symmetry_1
_geom_bond_site_symmetry_2
Se1 C4 1_555 1_555
C1 C8 1_555 1_555
C2 C4 1_555 1_555
C3 H1 1_555 1_555
C4 C3 1_555 1_555
C5 C2 1_555 1_555
H2 C5 1_555 1_555
H3 C5 1_555 1_555
C6 H4 1_555 1_555
C7 C2 1_555 1_555
H5 C7 1_555 1_555
H6 C7 1_555 1_555
C8 Se1 1_555 1_555
C9 C5 1_555 1_555
C10 C2 1_555 1_555
H7 C10 1_555 1_555
H8 C10 1_555 1_555
C11 C10 1_555 1_555
O1 C12 1_555 1_555
C12 C3 1_555 1_555
C13 C1 1_555 1_555
H9 C13 1_555 1_555
H10 C13 1_555 1_555
C14 C11 1_555 1_555
H11 C14 1_555 1_555
H12 C14 1_555 1_555
C15 C1 1_555 1_555
H13 C15 1_555 1_555
H14 C15 1_555 1_555
C16 C9 1_555 1_555
H15 C16 1_555 1_555
H16 C16 1_555 1_555
C17 C1 1_555 1_555
H17 C17 1_555 1_555
H18 C17 1_555 1_555
C18 C17 1_555 1_555
H19 C18 1_555 1_555
C19 C15 1_555 1_555
C20 C7 1_555 1_555
H20 C20 1_555 1_555
C21 C9 1_555 1_555
H21 C21 1_555 1_555
H22 C21 1_555 1_555
H23 C21 1_555 1_555
C22 C9 1_555 1_555
H24 C22 1_555 1_555
H25 C22 1_555 1_555
C23 C19 1_555 1_555
H26 C23 1_555 1_555
H27 C23 1_555 1_555
C24 C13 1_555 1_555
C25 C11 1_555 1_555
H28 C25 1_555 1_555
H29 C25 1_555 1_555
H30 C25 1_555 1_555
C26 C24 1_555 1_555
H31 C26 1_555 1_555
H32 C26 1_555 1_555
H33 C26 1_555 1_555
C27 C18 1_555 1_555
H34 C27 1_555 1_555
H35 C27 1_555 1_555
C28 C18 1_555 1_555
H36 C28 1_555 1_555
H37 C28 1_555 1_555
C29 C19 1_555 1_555
H38 C29 1_555 1_555
H39 C29 1_555 1_555
H40 C29 1_555 1_555
C6 C8 1_555 1_555
C6 C12 1_555 1_555
C11 C16 1_555 1_555
C14 C20 1_555 1_555
C19 C27 1_555 1_555
C20 C22 1_555 1_555
C23 C24 1_555 1_555
C24 C28 1_555 1_555

#END
