
#######################################################################
#
#                 Cambridge Crystallographic Data Centre
#                                CCDC 
#
#######################################################################
#
# If this CIF has been generated from an entry in the Cambridge 
# Structural Database, then it will include bibliographic, chemical, 
# crystal, experimental, refinement or atomic coordinate data resulting 
# from the CCDC's data processing and validation procedures.
#
#######################################################################

data_VIQRAR
_chemical_formula_moiety         'C17 H16 O2,0.667(H2 O1)'
_chemical_name_systematic        
'9-allyl-9,10-dihydrophenanthrene-9,10-diol hydrate'
_symmetry_cell_setting           monoclinic
_symmetry_space_group_name_H-M   'P 21/c'
_symmetry_Int_Tables_number      14
_space_group_name_Hall           '-P 2ybc'
loop_
_symmetry_equiv_pos_site_id
_symmetry_equiv_pos_as_xyz
1 x,y,z
2 -x,1/2+y,1/2-z
3 -x,-y,-z
4 x,1/2-y,1/2+z
_cell_length_a                   12.8293(4)
_cell_length_b                   12.6148(3)
_cell_length_c                   26.2619(6)
_cell_angle_alpha                90
_cell_angle_beta                 96.995(3)
_cell_angle_gamma                90
_cell_volume                     4218.57
_cell_formula_units_Z            12
loop_
_atom_site_label
_atom_site_type_symbol
_atom_site_fract_x
_atom_site_fract_y
_atom_site_fract_z
O1 O 0.78475(13) 0.26924(12) -0.00013(5)
O2 O 0.64612(13) 0.15962(13) 0.05859(6)
C1 C 0.76725(16) 0.30729(16) 0.04950(7)
C2 C 0.80170(17) 0.31838(17) 0.15901(8)
C3 C 0.68052(16) 0.39210(16) 0.04347(8)
H1 H 0.6146 0.3586 0.0304
H2 H 0.6727 0.4211 0.0770
C4 C 0.88639(16) 0.35449(16) 0.12980(8)
C5 C 0.87083(16) 0.35025(16) 0.07580(8)
C6 C 0.73777(16) 0.21297(16) 0.08183(8)
H3 H 0.7961 0.1623 0.0843
C7 C 0.70129(19) 0.48056(17) 0.00857(9)
H4 H 0.7626 0.5192 0.0173
C8 C 0.72520(17) 0.24945(17) 0.13545(8)
C9 C 0.94975(17) 0.38461(17) 0.04813(9)
H5 H 0.9390 0.3828 0.0125
C10 C 0.98219(18) 0.39185(18) 0.15365(9)
H6 H 0.9938 0.3946 0.1893
C11 C 0.7938(2) 0.3512(2) 0.20928(8)
H7 H 0.8438 0.3972 0.2256
C12 C 0.64429(19) 0.2152(2) 0.16146(9)
H8 H 0.5939 0.1692 0.1455
C13 C 1.06013(19) 0.42488(19) 0.12550(11)
H9 H 1.1236 0.4495 0.1422
C14 C 1.04403(19) 0.42150(19) 0.07264(10)
H10 H 1.0965 0.4440 0.0536
C15 C 0.6377(2) 0.2491(2) 0.21126(10)
H11 H 0.5826 0.2265 0.2285
C16 C 0.7127(2) 0.3160(2) 0.23477(9)
H12 H 0.7089 0.3378 0.2683
C17 C 0.6419(3) 0.5091(2) -0.03296(12)
H13 H 0.574(2) 0.477(2) -0.0407(11)
H14 H 0.663(2) 0.569(3) -0.0532(11)
H15 H 0.725(2) 0.257(2) -0.0185(10)
H16 H 0.666(2) 0.107(2) 0.0396(11)
O3 O 0.38709(11) 0.80920(13) 0.06616(6)
O4 O 0.55488(13) 0.83255(13) 0.00465(6)
C18 C 0.49337(15) 0.78964(16) 0.08737(8)
C19 C 0.49305(16) 0.69695(16) 0.12415(7)
C20 C 0.66623(16) 0.72466(15) 0.06517(8)
C21 C 0.58383(16) 0.63501(16) 0.13418(7)
C22 C 0.55567(16) 0.75450(16) 0.04412(8)
H17 H 0.5216 0.6908 0.0286
C23 C 0.67805(16) 0.66248(16) 0.10974(8)
C24 C 0.40507(18) 0.6720(2) 0.14751(8)
H18 H 0.3451 0.7137 0.1413
C25 C 0.77807(18) 0.62806(19) 0.12881(9)
H19 H 0.7870 0.5860 0.1581
C26 C 0.75314(18) 0.75127(17) 0.04158(9)
H20 H 0.7450 0.7923 0.0119
C27 C 0.54051(18) 0.89048(18) 0.11427(9)
H21 H 0.6137 0.8772 0.1266
H22 H 0.5382 0.9473 0.0893
C28 C 0.86405(19) 0.6552(2) 0.10507(11)
H23 H 0.9305 0.6316 0.1184
C29 C 0.85221(19) 0.7172(2) 0.06172(11)
H24 H 0.9106 0.7363 0.0460
C30 C 0.5816(2) 0.54826(19) 0.16686(9)
H25 H 0.6411 0.5060 0.1735
C31 C 0.4854(2) 0.9266(2) 0.15847(12)
H26 H 0.4911 0.8819 0.1869
C32 C 0.4936(2) 0.5237(2) 0.18947(9)
H27 H 0.4938 0.4653 0.2111
C33 C 0.4054(2) 0.5859(2) 0.17999(9)
H28 H 0.3458 0.5699 0.1955
C34 C 0.4327(3) 1.0093(3) 0.16189(18)
H29 H 0.403(3) 1.028(3) 0.1976(15)
H30 H 0.434(4) 1.052(5) 0.125(2)
H31 H 0.500(2) 0.826(2) -0.0152(11)
H32 H 0.383(2) 0.869(2) 0.0549(11)
O5 O 1.01646(12) 0.48314(13) 0.41957(6)
O6 O 0.85097(14) 0.61585(14) 0.44421(7)
C35 C 0.94107(16) 0.52363(17) 0.37991(8)
C36 C 0.89803(17) 0.62857(17) 0.39798(8)
H33 H 0.9574 0.6773 0.4053
C37 C 0.88962(18) 0.33355(19) 0.35578(9)
H34 H 0.9309 0.3270 0.3292
C38 C 0.85250(17) 0.44136(17) 0.36759(9)
H35 H 0.8128 0.4366 0.3967
H36 H 0.8052 0.4665 0.3385
C39 C 0.8685(2) 0.2476(2) 0.37996(11)
C40 C 0.8225(2) 0.67769(18) 0.35677(10)
C41 C 0.99548(19) 0.54879(19) 0.33325(8)
C42 C 0.8487(2) 0.6749(2) 0.30709(10)
C43 C 0.9478(2) 0.6227(2) 0.29737(9)
C44 C 1.0892(2) 0.5003(2) 0.32567(10)
H37 H 1.1200 0.4511 0.3492
C45 C 0.7321(2) 0.7290(2) 0.36763(13)
H38 H 0.7163 0.7319 0.4012
C46 C 1.0903(4) 0.5989(3) 0.24766(13)
H39 H 1.1222 0.6161 0.2188
C47 C 1.1372(3) 0.5262(3) 0.28213(13)
H40 H 1.2003 0.4945 0.2766
C48 C 0.9981(3) 0.6461(3) 0.25493(11)
H41 H 0.9683 0.6950 0.2310
C49 C 0.7798(3) 0.7230(3) 0.26791(13)
H42 H 0.7944 0.7211 0.2341
C50 C 0.6659(3) 0.7757(3) 0.32897(19)
H43 H 0.6047 0.8090 0.3362
C51 C 0.6907(4) 0.7730(3) 0.28018(18)
H44 H 0.6462 0.8057 0.2543
H45 H 0.893(2) 0.177(2) 0.3711(10)
H46 H 0.826(2) 0.250(2) 0.4072(11)
H47 H 0.989(3) 0.440(3) 0.4423(13)
H48 H 0.905(3) 0.619(3) 0.4693(14)
O7 O 0.67955(17) 1.00351(14) -0.01562(8)
H49 H 0.642(3) 0.952(3) -0.0062(12)
H50 H 0.736(3) 0.977(3) -0.0262(15)
O8 O 0.94394(16) 0.37742(17) 0.49828(7)
H51 H 0.883(3) 0.327(3) 0.4967(13)
H52 H 0.913(4) 0.428(4) 0.5210(18)
loop_
_geom_bond_atom_site_label_1
_geom_bond_atom_site_label_2
_geom_bond_site_symmetry_1
_geom_bond_site_symmetry_2
O1 C1 1_555 1_555
O2 C6 1_555 1_555
C1 C3 1_555 1_555
C2 C4 1_555 1_555
C3 H1 1_555 1_555
H2 C3 1_555 1_555
C4 C5 1_555 1_555
C5 C1 1_555 1_555
C6 C1 1_555 1_555
H3 C6 1_555 1_555
C7 C3 1_555 1_555
H4 C7 1_555 1_555
C8 C2 1_555 1_555
C9 C5 1_555 1_555
H5 C9 1_555 1_555
C10 C4 1_555 1_555
H6 C10 1_555 1_555
C11 C2 1_555 1_555
H7 C11 1_555 1_555
C12 C8 1_555 1_555
H8 C12 1_555 1_555
C13 C10 1_555 1_555
H9 C13 1_555 1_555
C14 C9 1_555 1_555
H10 C14 1_555 1_555
C15 C12 1_555 1_555
H11 C15 1_555 1_555
C16 C11 1_555 1_555
H12 C16 1_555 1_555
C17 C7 1_555 1_555
H13 C17 1_555 1_555
H14 C17 1_555 1_555
H15 O1 1_555 1_555
H16 O2 1_555 1_555
O3 C18 1_555 1_555
O4 C22 1_555 1_555
C18 C19 1_555 1_555
C19 C21 1_555 1_555
C20 C22 1_555 1_555
C21 C23 1_555 1_555
C22 C18 1_555 1_555
H17 C22 1_555 1_555
C23 C20 1_555 1_555
C24 C19 1_555 1_555
H18 C24 1_555 1_555
C25 C23 1_555 1_555
H19 C25 1_555 1_555
C26 C20 1_555 1_555
H20 C26 1_555 1_555
C27 C18 1_555 1_555
H21 C27 1_555 1_555
H22 C27 1_555 1_555
C28 C25 1_555 1_555
H23 C28 1_555 1_555
C29 C26 1_555 1_555
H24 C29 1_555 1_555
C30 C21 1_555 1_555
H25 C30 1_555 1_555
C31 C27 1_555 1_555
H26 C31 1_555 1_555
C32 C30 1_555 1_555
H27 C32 1_555 1_555
C33 C24 1_555 1_555
H28 C33 1_555 1_555
C34 C31 1_555 1_555
H29 C34 1_555 1_555
H30 C34 1_555 1_555
H31 O4 1_555 1_555
H32 O3 1_555 1_555
O5 C35 1_555 1_555
O6 C36 1_555 1_555
C35 C36 1_555 1_555
C36 H33 1_555 1_555
C37 H34 1_555 1_555
C38 C35 1_555 1_555
H35 C38 1_555 1_555
H36 C38 1_555 1_555
C39 C37 1_555 1_555
C40 C36 1_555 1_555
C41 C35 1_555 1_555
C42 C40 1_555 1_555
C43 C41 1_555 1_555
C44 C41 1_555 1_555
H37 C44 1_555 1_555
C45 C40 1_555 1_555
H38 C45 1_555 1_555
C46 H39 1_555 1_555
C47 C44 1_555 1_555
H40 C47 1_555 1_555
C48 C43 1_555 1_555
H41 C48 1_555 1_555
C49 C42 1_555 1_555
H42 C49 1_555 1_555
C50 C45 1_555 1_555
H43 C50 1_555 1_555
C51 C49 1_555 1_555
H44 C51 1_555 1_555
H45 C39 1_555 1_555
H46 C39 1_555 1_555
H47 O5 1_555 1_555
H48 O6 1_555 1_555
O7 H49 1_555 1_555
H50 O7 1_555 1_555
O8 H51 1_555 1_555
H52 O8 1_555 1_555
C6 C8 1_555 1_555
C13 C14 1_555 1_555
C15 C16 1_555 1_555
C28 C29 1_555 1_555
C32 C33 1_555 1_555
C37 C38 1_555 1_555
C42 C43 1_555 1_555
C46 C47 1_555 1_555
C46 C48 1_555 1_555
C50 C51 1_555 1_555

#END
