
#######################################################################
#
#                 Cambridge Crystallographic Data Centre
#                                CCDC 
#
#######################################################################
#
# If this CIF has been generated from an entry in the Cambridge 
# Structural Database, then it will include bibliographic, chemical, 
# crystal, experimental, refinement or atomic coordinate data resulting 
# from the CCDC's data processing and validation procedures.
#
#######################################################################

data_VIQSAS
_chemical_formula_moiety         'C44 H52 N3 1+,Cl2 O2 P1 1-,0.5(C6 H12)'
_chemical_name_systematic        
'(3-(anilinomethylene)-5-t-butyl-2-(3,6-di-t-butyl-9H-carbazol-9-yl)cyclohex-1-en-1-yl)-N-phenylmethaniminium phosphorodichloridate cyclohexane solvate'
_symmetry_cell_setting           triclinic
_symmetry_space_group_name_H-M   'P -1'
_symmetry_Int_Tables_number      2
_space_group_name_Hall           '-P 1'
loop_
_symmetry_equiv_pos_site_id
_symmetry_equiv_pos_as_xyz
1 x,y,z
2 -x,-y,-z
_cell_length_a                   11.2603(6)
_cell_length_b                   12.6892(6)
_cell_length_c                   17.0029(8)
_cell_angle_alpha                91.1100(10)
_cell_angle_beta                 91.1960(10)
_cell_angle_gamma                109.8480(10)
_cell_volume                     2283.73
_exptl_crystal_colour            'dark red'
_exptl_crystal_description       prism
_cell_formula_units_Z            2
loop_
_atom_site_label
_atom_site_type_symbol
_atom_site_fract_x
_atom_site_fract_y
_atom_site_fract_z
N1 N 0.4069(3) 0.5235(3) 0.6777(2)
H1 H 0.3638 0.4669 0.7063
C1 C 0.3789(2) 0.5140(3) 0.59638(16)
C2 C 0.3006(2) 0.4100(2) 0.56519(16)
H2 H 0.2702 0.3475 0.5983
C3 C 0.2677(3) 0.3989(3) 0.4851(2)
H3 H 0.2130 0.3291 0.4639
C4 C 0.3146(2) 0.4894(3) 0.43646(15)
H4 H 0.2938 0.4812 0.3817
C5 C 0.3916(2) 0.5914(3) 0.46784(14)
H5 H 0.4234 0.6533 0.4345
C6 C 0.4231(2) 0.6043(3) 0.54759(14)
H6 H 0.4750 0.6752 0.5688
C7 C 0.48966(15) 0.60723(13) 0.71453(9)
H7 H 0.5497 0.6585 0.6827
N2 N 0.69177(13) 0.78826(10) 0.76970(8)
N3 N 0.73042(14) 0.90933(12) 0.99578(9)
H8 H 0.6911 0.8720 1.0376
C8 C 0.78947(15) 0.75355(12) 0.74211(9)
C9 C 0.80891(16) 0.65161(13) 0.75133(9)
H9 H 0.7513 0.5923 0.7790
C10 C 0.91591(16) 0.64024(13) 0.71853(10)
H10 H 0.9309 0.5715 0.7245
C11 C 1.00365(15) 0.72615(13) 0.67662(10)
C12 C 0.98293(15) 0.82769(13) 0.66998(9)
H11 H 1.0408 0.8872 0.6427
C13 C 0.87692(15) 0.84217(12) 0.70349(9)
C14 C 0.83453(15) 0.93748(13) 0.71066(9)
C15 C 0.88754(16) 1.04960(13) 0.68949(10)
H12 H 0.9649 1.0740 0.6626
C16 C 0.82633(16) 1.12523(13) 0.70811(10)
C17 C 0.70958(17) 1.08534(14) 0.74575(10)
H13 H 0.6664 1.1363 0.7567
C18 C 0.65489(16) 0.97443(14) 0.76753(10)
H14 H 0.5762 0.9494 0.7929
C19 C 0.72053(15) 0.90159(12) 0.75059(9)
C20 C 0.59859(15) 0.72829(12) 0.82288(9)
C21 C 0.60657(15) 0.76826(13) 0.90106(9)
C22 C 0.49942(16) 0.71552(15) 0.95585(10)
H15 H 0.4821 0.7756 0.9864
H16 H 0.5260 0.6688 0.9936
C23 C 0.37828(16) 0.64321(14) 0.91267(10)
H17 H 0.3475 0.6953 0.8814
C24 C 0.40831(16) 0.56462(14) 0.85330(10)
H18 H 0.4441 0.5140 0.8813
H19 H 0.3297 0.5180 0.8250
C25 C 0.50164(15) 0.63159(13) 0.79518(9)
C26 C 0.71120(15) 0.85941(13) 0.92523(10)
H20 H 0.7747 0.8886 0.8878
C27 C 0.82913(16) 1.01129(14) 1.01483(10)
C28 C 0.90298(18) 1.07835(14) 0.95753(11)
H21 H 0.8875 1.0569 0.9034
C29 C 0.99948(19) 1.17679(15) 0.98044(12)
H22 H 1.0516 1.2217 0.9419
C30 C 1.02012(19) 1.20982(15) 1.05906(12)
H23 H 1.0859 1.2774 1.0742
C31 C 0.9450(2) 1.14446(16) 1.11556(12)
H24 H 0.9587 1.1680 1.1694
C32 C 0.84976(18) 1.04473(16) 1.09416(11)
H25 H 0.7990 0.9996 1.1332
C33 C 1.11800(17) 0.70507(15) 0.64135(11)
C34 C 1.07223(19) 0.60851(16) 0.57912(12)
H26 H 1.0187 0.5404 0.6040
H27 H 1.1454 0.5950 0.5566
H28 H 1.0236 0.6289 0.5373
C35 C 1.1940(2) 0.6733(2) 0.70654(13)
H29 H 1.2201 0.7332 0.7472
H30 H 1.2690 0.6629 0.6844
H31 H 1.1416 0.6034 0.7299
C36 C 1.20515(19) 0.80779(17) 0.60042(13)
H32 H 1.2355 0.8710 0.6383
H33 H 1.1584 0.8274 0.5571
H34 H 1.2773 0.7908 0.5796
C37 C 0.88339(17) 1.25033(14) 0.69069(11)
C38 C 1.00895(19) 1.27765(16) 0.64836(15)
H35 H 0.9962 1.2308 0.6003
H36 H 1.0716 1.2627 0.6831
H37 H 1.0391 1.3569 0.6347
C39 C 0.9065(2) 1.31695(16) 0.76926(13)
H38 H 0.9614 1.2914 0.8038
H39 H 0.8256 1.3050 0.7944
H40 H 0.9472 1.3969 0.7596
C40 C 0.79163(18) 1.28518(15) 0.63820(11)
H41 H 0.7758 1.2414 0.5886
H42 H 0.8286 1.3651 0.6273
H43 H 0.7119 1.2713 0.6651
C41 C 0.27028(17) 0.58215(16) 0.96886(11)
C42 C 0.3002(2) 0.4941(2) 1.01640(15)
H44 H 0.2347 0.4645 1.0551
H45 H 0.3824 0.5279 1.0437
H46 H 0.3030 0.4330 0.9811
C43 C 0.2467(2) 0.6698(2) 1.02438(13)
H47 H 0.1715 0.6338 1.0549
H48 H 0.2336 0.7294 0.9933
H49 H 0.3200 0.7020 1.0603
C44 C 0.1475(2) 0.5262(2) 0.91945(14)
H50 H 0.0781 0.4905 0.9545
H51 H 0.1590 0.4693 0.8835
H52 H 0.1274 0.5830 0.8890
P1 P 0.37027(6) 0.25328(4) 0.79164(3)
O1 O 0.2954(3) 0.3188(2) 0.7580(3)
O2 O 0.3727(4) 0.2067(4) 0.8701(2)
Cl1 Cl 0.55971(7) 0.35084(7) 0.77653(5)
Cl2 Cl 0.35830(12) 0.12296(7) 0.71725(6)
O3? O 0.2854(12) 0.3138(12) 0.7775(9)
O4? O 0.3456(9) 0.2239(8) 0.8741(6)
Cl3? Cl 0.5316(4) 0.3188(3) 0.7548(2)
Cl4? Cl 0.2887(4) 0.1112(3) 0.7169(2)
N4? N 0.3974(10) 0.5003(7) 0.6871(6)
H53? H 0.3616 0.4491 0.7215
C45? C 0.3639(9) 0.4770(7) 0.6044(6)
C46? C 0.3005(8) 0.3675(8) 0.5822(5)
H54? H 0.2825 0.3102 0.6198
C47? C 0.2633(10) 0.3419(10) 0.5046(6)
H55? H 0.2165 0.2670 0.4881
C48? C 0.2946(11) 0.4256(11) 0.4515(8)
H56? H 0.2687 0.4061 0.3980
C49? C 0.3579(9) 0.5308(9) 0.4692(6)
H57? H 0.3795 0.5863 0.4303
C50? C 0.3939(9) 0.5585(9) 0.5522(6)
H58? H 0.4381 0.6339 0.5688
H59? H 0.5412 0.6589 0.6782
loop_
_geom_bond_atom_site_label_1
_geom_bond_atom_site_label_2
_geom_bond_site_symmetry_1
_geom_bond_site_symmetry_2
P1 O1 1_555 1_555
O2 P1 1_555 1_555
Cl1 P1 1_555 1_555
Cl2 P1 1_555 1_555
N1 H1 1_555 1_555
C1 N1 1_555 1_555
C2 C1 1_555 1_555
H2 C2 1_555 1_555
C3 C2 1_555 1_555
H3 C3 1_555 1_555
C4 C3 1_555 1_555
H4 C4 1_555 1_555
C5 C4 1_555 1_555
H5 C5 1_555 1_555
C6 C1 1_555 1_555
H6 C6 1_555 1_555
C7 N1 1_555 1_555
H7 C7 1_555 1_555
N2 C8 1_555 1_555
N3 H8 1_555 1_555
C8 C9 1_555 1_555
C9 H9 1_555 1_555
C10 C9 1_555 1_555
H10 C10 1_555 1_555
C11 C10 1_555 1_555
C12 C11 1_555 1_555
H11 C12 1_555 1_555
C13 C8 1_555 1_555
C14 C13 1_555 1_555
C15 C14 1_555 1_555
H12 C15 1_555 1_555
C16 C15 1_555 1_555
C17 C16 1_555 1_555
H13 C17 1_555 1_555
C18 C17 1_555 1_555
H14 C18 1_555 1_555
C19 N2 1_555 1_555
C20 N2 1_555 1_555
C21 C20 1_555 1_555
C22 C21 1_555 1_555
H15 C22 1_555 1_555
H16 C22 1_555 1_555
C23 C22 1_555 1_555
H17 C23 1_555 1_555
C24 C23 1_555 1_555
H18 C24 1_555 1_555
H19 C24 1_555 1_555
C25 C7 1_555 1_555
C26 N3 1_555 1_555
H20 C26 1_555 1_555
C27 N3 1_555 1_555
C28 C27 1_555 1_555
H21 C28 1_555 1_555
C29 C28 1_555 1_555
H22 C29 1_555 1_555
C30 C29 1_555 1_555
H23 C30 1_555 1_555
C31 C30 1_555 1_555
H24 C31 1_555 1_555
C32 C27 1_555 1_555
H25 C32 1_555 1_555
C33 C11 1_555 1_555
C34 C33 1_555 1_555
H26 C34 1_555 1_555
H27 C34 1_555 1_555
H28 C34 1_555 1_555
C35 C33 1_555 1_555
H29 C35 1_555 1_555
H30 C35 1_555 1_555
H31 C35 1_555 1_555
C36 C33 1_555 1_555
H32 C36 1_555 1_555
H33 C36 1_555 1_555
H34 C36 1_555 1_555
C37 C16 1_555 1_555
C38 C37 1_555 1_555
H35 C38 1_555 1_555
H36 C38 1_555 1_555
H37 C38 1_555 1_555
C39 C37 1_555 1_555
H38 C39 1_555 1_555
H39 C39 1_555 1_555
H40 C39 1_555 1_555
C40 C37 1_555 1_555
H41 C40 1_555 1_555
H42 C40 1_555 1_555
H43 C40 1_555 1_555
C41 C23 1_555 1_555
C42 C41 1_555 1_555
H44 C42 1_555 1_555
H45 C42 1_555 1_555
H46 C42 1_555 1_555
C43 C41 1_555 1_555
H47 C43 1_555 1_555
H48 C43 1_555 1_555
H49 C43 1_555 1_555
C44 C41 1_555 1_555
H50 C44 1_555 1_555
H51 C44 1_555 1_555
H52 C44 1_555 1_555
C5 C6 1_555 1_555
C12 C13 1_555 1_555
C14 C19 1_555 1_555
C18 C19 1_555 1_555
C20 C25 1_555 1_555
C21 C26 1_555 1_555
C24 C25 1_555 1_555
C31 C32 1_555 1_555

#END
