
#######################################################################
#
#                 Cambridge Crystallographic Data Centre
#                                CCDC 
#
#######################################################################
#
# If this CIF has been generated from an entry in the Cambridge 
# Structural Database, then it will include bibliographic, chemical, 
# crystal, experimental, refinement or atomic coordinate data resulting 
# from the CCDC's data processing and validation procedures.
#
#######################################################################

data_VIQTEX
_chemical_formula_moiety         'C23 H18 O2'
_chemical_name_systematic        
(3-methoxyphenyl)[3-methyl-2-(phenylethynyl)phenyl]methanone
_symmetry_cell_setting           monoclinic
_symmetry_space_group_name_H-M   'P 21/n'
_symmetry_Int_Tables_number      14
_space_group_name_Hall           '-P 2yn'
loop_
_symmetry_equiv_pos_site_id
_symmetry_equiv_pos_as_xyz
1 x,y,z
2 1/2-x,1/2+y,1/2-z
3 -x,-y,-z
4 1/2+x,1/2-y,1/2+z
_cell_length_a                   10.4316(6)
_cell_length_b                   8.2273(6)
_cell_length_c                   20.4207(12)
_cell_angle_alpha                90
_cell_angle_beta                 95.117(2)
_cell_angle_gamma                90
_cell_volume                     1745.6
_cell_formula_units_Z            4
loop_
_atom_site_label
_atom_site_type_symbol
_atom_site_fract_x
_atom_site_fract_y
_atom_site_fract_z
C1 C 0.8709(2) 0.4565(3) 0.21615(10)
H1 H 0.790538 0.518823 0.213013
H2 H 0.879424 0.400349 0.174426
H3 H 0.943906 0.530337 0.225556
C2 C 0.86233(18) 0.3984(3) 0.33007(10)
C3 C 0.86850(17) 0.2808(3) 0.37921(11)
H4 H 0.878210 0.169501 0.368249
C4 C 0.86059(18) 0.3252(3) 0.44344(10)
H5 H 0.865287 0.244358 0.476782
C5 C 0.84586(17) 0.4863(3) 0.46013(9)
H6 H 0.837461 0.516076 0.504492
C6 C 0.84345(16) 0.6040(2) 0.41154(9)
C7 C 0.85200(17) 0.5604(3) 0.34613(9)
H7 H 0.850724 0.641416 0.312943
C8 C 0.83862(17) 0.7783(3) 0.42914(9)
C9 C 0.77263(17) 0.8286(2) 0.48841(9)
C10 C 0.84088(18) 0.9187(3) 0.53709(9)
H8 H 0.928118 0.946628 0.532857
C11 C 0.7821(2) 0.9681(3) 0.59193(10)
H9 H 0.829327 1.028425 0.625643
C12 C 0.65495(19) 0.9298(3) 0.59754(9)
H10 H 0.615716 0.965076 0.635289
C13 C 0.58282(18) 0.8415(3) 0.54990(9)
C14 C 0.64274(17) 0.7887(2) 0.49417(9)
C15 C 0.56887(17) 0.7024(2) 0.44327(9)
C16 C 0.50212(18) 0.6323(3) 0.40160(9)
C17 C 0.42218(18) 0.5407(3) 0.35409(9)
C18 C 0.29180(19) 0.5219(3) 0.36136(10)
H11 H 0.254884 0.574262 0.396643
C19 C 0.2159(2) 0.4278(3) 0.31774(11)
H12 H 0.126970 0.414884 0.323205
C20 C 0.2685(2) 0.3521(3) 0.26609(11)
H13 H 0.215994 0.286168 0.236399
C21 C 0.3963(2) 0.3719(3) 0.25757(11)
H14 H 0.431948 0.320714 0.221645
C22 C 0.4737(2) 0.4661(3) 0.30106(10)
H15 H 0.562184 0.479956 0.294759
C23 C 0.44393(18) 0.8016(3) 0.55603(10)
H16 H 0.419332 0.840400 0.598519
H17 H 0.431646 0.683649 0.553102
H18 H 0.390179 0.854721 0.520456
O1 O 0.89210(14) 0.88029(18) 0.39768(6)
O2 O 0.86916(14) 0.3401(2) 0.26763(7)
loop_
_geom_bond_atom_site_label_1
_geom_bond_atom_site_label_2
_geom_bond_site_symmetry_1
_geom_bond_site_symmetry_2
C1 H1 1_555 1_555
H2 C1 1_555 1_555
H3 C1 1_555 1_555
C2 C3 1_555 1_555
C3 H4 1_555 1_555
C4 C3 1_555 1_555
H5 C4 1_555 1_555
C5 C4 1_555 1_555
H6 C5 1_555 1_555
C6 C5 1_555 1_555
C7 C2 1_555 1_555
H7 C7 1_555 1_555
C8 C6 1_555 1_555
C9 C8 1_555 1_555
C10 C9 1_555 1_555
H8 C10 1_555 1_555
C11 C10 1_555 1_555
H9 C11 1_555 1_555
C12 C11 1_555 1_555
H10 C12 1_555 1_555
C13 C12 1_555 1_555
C14 C9 1_555 1_555
C15 C14 1_555 1_555
C16 C15 1_555 1_555
C17 C16 1_555 1_555
C18 C17 1_555 1_555
H11 C18 1_555 1_555
C19 C18 1_555 1_555
H12 C19 1_555 1_555
C20 C19 1_555 1_555
H13 C20 1_555 1_555
C21 C20 1_555 1_555
H14 C21 1_555 1_555
C22 C17 1_555 1_555
H15 C22 1_555 1_555
C23 C13 1_555 1_555
H16 C23 1_555 1_555
H17 C23 1_555 1_555
H18 C23 1_555 1_555
O1 C8 1_555 1_555
O2 C1 1_555 1_555
C2 O2 1_555 1_555
C6 C7 1_555 1_555
C13 C14 1_555 1_555
C21 C22 1_555 1_555

#END
