
#######################################################################
#
#                 Cambridge Crystallographic Data Centre
#                                CCDC 
#
#######################################################################
#
# If this CIF has been generated from an entry in the Cambridge 
# Structural Database, then it will include bibliographic, chemical, 
# crystal, experimental, refinement or atomic coordinate data resulting 
# from the CCDC's data processing and validation procedures.
#
#######################################################################

data_VIQXEB
_chemical_formula_moiety         'C17 H13 N1 O3'
_chemical_name_systematic        
N-[(2-oxo-1-benzofuran-3(2H)-ylidene)(phenyl)methyl]acetamide
_symmetry_cell_setting           monoclinic
_symmetry_space_group_name_H-M   'P 21/n'
_symmetry_Int_Tables_number      14
_space_group_name_Hall           '-P 2yn'
loop_
_symmetry_equiv_pos_site_id
_symmetry_equiv_pos_as_xyz
1 x,y,z
2 1/2-x,1/2+y,1/2-z
3 -x,-y,-z
4 1/2+x,1/2-y,1/2+z
_cell_length_a                   7.2208(4)
_cell_length_b                   20.7332(12)
_cell_length_c                   9.3909(5)
_cell_angle_alpha                90
_cell_angle_beta                 96.815(3)
_cell_angle_gamma                90
_cell_volume                     1395.98
_exptl_crystal_colour            colorless
_exptl_crystal_description       block
_cell_formula_units_Z            4
loop_
_atom_site_label
_atom_site_type_symbol
_atom_site_fract_x
_atom_site_fract_y
_atom_site_fract_z
O1 O 0.8185(4) 0.40528(14) 0.4154(3)
C1 C 0.8133(6) 0.4219(2) 0.2707(4)
N1 N 0.6851(5) 0.58561(17) 0.5714(4)
H1 H 0.6771 0.5509 0.6242
O2 O 0.7671(5) 0.45732(15) 0.6170(3)
C2 C 0.8421(6) 0.3789(2) 0.1642(5)
H2 H 0.8718 0.3350 0.1843
O3 O 0.6729(6) 0.69501(17) 0.5805(4)
C3 C 0.8253(7) 0.4031(2) 0.0263(5)
H3 H 0.8460 0.3754 -0.0509
C4 C 0.7507(7) 0.5093(2) 0.1080(5)
H4 H 0.7193 0.5530 0.0874
C5 C 0.7789(8) 0.4669(2) -0.0014(5)
H5 H 0.7660 0.4820 -0.0975
C6 C 0.7692(6) 0.48673(19) 0.2476(4)
C7 C 0.7756(6) 0.4597(2) 0.4885(5)
C8 C 0.7472(6) 0.51355(19) 0.3882(4)
C9 C 0.7106(6) 0.5748(2) 0.4300(4)
C10 C 0.6997(6) 0.62931(19) 0.3264(4)
C11 C 0.5308(8) 0.6545(2) 0.2698(6)
H6 H 0.4185 0.6381 0.2991
C12 C 0.5243(10) 0.7040(2) 0.1696(6)
H7 H 0.4075 0.7209 0.1292
C13 C 0.6865(10) 0.7283(2) 0.1291(6)
H8 H 0.6818 0.7629 0.0623
C14 C 0.8552(9) 0.7033(2) 0.1840(5)
H9 H 0.9673 0.7201 0.1549
C15 C 0.8615(8) 0.6534(2) 0.2823(5)
H10 H 0.9784 0.6356 0.3198
C16 C 0.6705(7) 0.6437(2) 0.6408(5)
C17 C 0.6518(7) 0.6372(3) 0.7980(5)
H11 H 0.5811 0.6739 0.8292
H12 H 0.7760 0.6364 0.8528
H13 H 0.5860 0.5970 0.8145
loop_
_geom_bond_atom_site_label_1
_geom_bond_atom_site_label_2
_geom_bond_site_symmetry_1
_geom_bond_site_symmetry_2
O1 C1 1_555 1_555
C1 C2 1_555 1_555
N1 H1 1_555 1_555
O2 C7 1_555 1_555
C2 H2 1_555 1_555
O3 C16 1_555 1_555
C3 C2 1_555 1_555
H3 C3 1_555 1_555
C4 H4 1_555 1_555
C5 C3 1_555 1_555
H5 C5 1_555 1_555
C6 C1 1_555 1_555
C7 O1 1_555 1_555
C8 C6 1_555 1_555
C9 N1 1_555 1_555
C10 C9 1_555 1_555
C11 C10 1_555 1_555
H6 C11 1_555 1_555
C12 C11 1_555 1_555
H7 C12 1_555 1_555
C13 C12 1_555 1_555
H8 C13 1_555 1_555
C14 C13 1_555 1_555
H9 C14 1_555 1_555
C15 C10 1_555 1_555
H10 C15 1_555 1_555
C16 N1 1_555 1_555
C17 C16 1_555 1_555
H11 C17 1_555 1_555
H12 C17 1_555 1_555
H13 C17 1_555 1_555
C4 C5 1_555 1_555
C4 C6 1_555 1_555
C7 C8 1_555 1_555
C8 C9 1_555 1_555
C14 C15 1_555 1_555

#END
