
#######################################################################
#
#                 Cambridge Crystallographic Data Centre
#                                CCDC 
#
#######################################################################
#
# If this CIF has been generated from an entry in the Cambridge 
# Structural Database, then it will include bibliographic, chemical, 
# crystal, experimental, refinement or atomic coordinate data resulting 
# from the CCDC's data processing and validation procedures.
#
#######################################################################

data_VIQYEC
_chemical_formula_moiety         'C15 H9 N1 O2'
_chemical_name_systematic        
3-phenyl-2'H-spiro[azirene-2,3'-[1]benzofuran]-2'-one
_symmetry_cell_setting           monoclinic
_symmetry_space_group_name_H-M   'P 21/n'
_symmetry_Int_Tables_number      14
_space_group_name_Hall           '-P 2yn'
loop_
_symmetry_equiv_pos_site_id
_symmetry_equiv_pos_as_xyz
1 x,y,z
2 1/2-x,1/2+y,1/2-z
3 -x,-y,-z
4 1/2+x,1/2-y,1/2+z
_cell_length_a                   7.786(13)
_cell_length_b                   7.257(6)
_cell_length_c                   20.913(14)
_cell_angle_alpha                90
_cell_angle_beta                 92.00(8)
_cell_angle_gamma                90
_cell_volume                     1180.93
_exptl_crystal_colour            colorless
_exptl_crystal_description       block
_cell_formula_units_Z            4
loop_
_atom_site_label
_atom_site_type_symbol
_atom_site_fract_x
_atom_site_fract_y
_atom_site_fract_z
O1 O 0.47850(13) 0.86246(16) 0.72877(5)
C1 C 0.3050(2) 0.8630(2) 0.74236(8)
N1 N 0.2917(2) 1.0374(2) 0.57842(7)
O2 O 0.62888(17) 0.8851(2) 0.63921(7)
C2 C 0.2427(2) 0.8493(2) 0.80215(8)
H1 H 0.315417 0.838149 0.838167
C3 C -0.0391(2) 0.8703(3) 0.75259(9)
H2 H -0.157550 0.873035 0.756811
C4 C 0.0677(2) 0.8526(3) 0.80671(9)
H3 H 0.019704 0.842847 0.846675
C5 C 0.2025(2) 0.8802(2) 0.68750(7)
C6 C 0.0281(2) 0.8839(2) 0.69248(9)
H4 H -0.043792 0.895364 0.656249
C7 C 0.3180(2) 0.8931(2) 0.63396(8)
C8 C 0.2837(2) 0.8676(2) 0.56557(8)
C9 C 0.4929(2) 0.8808(2) 0.66352(9)
C10 C 0.24943(19) 0.7409(2) 0.51320(7)
C11 C 0.2030(2) 0.8118(3) 0.45356(8)
H5 H 0.192301 0.938402 0.447880
C12 C 0.1728(3) 0.6944(3) 0.40281(9)
H6 H 0.141644 0.741754 0.362735
C13 C 0.1885(3) 0.5081(3) 0.41116(10)
H7 H 0.167971 0.429459 0.376610
C14 C 0.2343(3) 0.4361(3) 0.46987(11)
H8 H 0.244849 0.309270 0.475074
C15 C 0.2646(3) 0.5524(3) 0.52136(9)
H9 H 0.295082 0.504129 0.561347
loop_
_geom_bond_atom_site_label_1
_geom_bond_atom_site_label_2
_geom_bond_site_symmetry_1
_geom_bond_site_symmetry_2
O1 C1 1_555 1_555
C1 C2 1_555 1_555
N1 C7 1_555 1_555
O2 C9 1_555 1_555
C2 H1 1_555 1_555
C3 H2 1_555 1_555
C4 C2 1_555 1_555
H3 C4 1_555 1_555
C5 C1 1_555 1_555
C6 C3 1_555 1_555
H4 C6 1_555 1_555
C7 C5 1_555 1_555
C8 N1 1_555 1_555
C9 O1 1_555 1_555
C10 C8 1_555 1_555
C11 C10 1_555 1_555
H5 C11 1_555 1_555
C12 C11 1_555 1_555
H6 C12 1_555 1_555
C13 C12 1_555 1_555
H7 C13 1_555 1_555
C14 C13 1_555 1_555
H8 C14 1_555 1_555
C15 C10 1_555 1_555
H9 C15 1_555 1_555
C3 C4 1_555 1_555
C5 C6 1_555 1_555
C7 C8 1_555 1_555
C7 C9 1_555 1_555
C14 C15 1_555 1_555

#END
