
#######################################################################
#
#                 Cambridge Crystallographic Data Centre
#                                CCDC 
#
#######################################################################
#
# If this CIF has been generated from an entry in the Cambridge 
# Structural Database, then it will include bibliographic, chemical, 
# crystal, experimental, refinement or atomic coordinate data resulting 
# from the CCDC's data processing and validation procedures.
#
#######################################################################

data_VIQZIH01
_chemical_formula_moiety         'C24 H20 B1 1-,C12 H24 K1 O6 1+'
_chemical_name_systematic        '(18-crown-6)-potassium tetraphenylborate'
_symmetry_cell_setting           monoclinic
_symmetry_space_group_name_H-M   'P 21/n'
_symmetry_Int_Tables_number      14
_space_group_name_Hall           '-P 2yn'
loop_
_symmetry_equiv_pos_site_id
_symmetry_equiv_pos_as_xyz
1 x,y,z
2 1/2-x,1/2+y,1/2-z
3 -x,-y,-z
4 1/2+x,1/2-y,1/2+z
_cell_length_a                   14.5831(5)
_cell_length_b                   14.0002(6)
_cell_length_c                   17.5535(8)
_cell_angle_alpha                90
_cell_angle_beta                 111.2770(10)
_cell_angle_gamma                90
_cell_volume                     3339.55
_exptl_crystal_description       block
_cell_formula_units_Z            4
loop_
_atom_site_label
_atom_site_type_symbol
_atom_site_fract_x
_atom_site_fract_y
_atom_site_fract_z
K1 K 0.46850(10) 0.80994(19) 0.58738(11)
O1 O 0.5699(4) 0.9740(5) 0.6833(3)
O2 O 0.6397(4) 0.8987(3) 0.5678(3)
O3 O 0.5122(10) 0.7989(7) 0.4436(9)
O4 O 0.3225(7) 0.7569(6) 0.4289(6)
O5 O 0.2675(5) 0.8182(4) 0.5569(4)
O6 O 0.3922(8) 0.9152(6) 0.6855(6)
C1 C 0.6604(9) 0.9879(10) 0.6889(9)
H1 H 0.6835 1.0494 0.7142
H2 H 0.7026 0.9386 0.7225
C2 C 0.6629(12) 0.9858(13) 0.6180(10)
H3 H 0.7287 1.0052 0.6228
H4 H 0.6184 1.0351 0.5867
C3 C 0.6474(9) 0.8872(10) 0.5013(8)
H5 H 0.7155 0.8691 0.5140
H6 H 0.6407 0.9506 0.4778
C4 C 0.5965(13) 0.8309(10) 0.4396(10)
H7 H 0.6371 0.7766 0.4382
H8 H 0.5821 0.8659 0.3889
C5 C 0.4543(13) 0.7419(11) 0.3794(9)
H9 H 0.4951 0.6923 0.3696
H10 H 0.4288 0.7806 0.3304
C6 C 0.3718(10) 0.6972(8) 0.3942(6)
H11 H 0.3254 0.6736 0.3426
H12 H 0.3961 0.6426 0.4298
C7 C 0.2502(8) 0.7050(8) 0.4523(8)
H13 H 0.2821 0.6579 0.4940
H14 H 0.2031 0.6728 0.4054
C8 C 0.2010(10) 0.7782(7) 0.4841(8)
H15 H 0.1753 0.8280 0.4435
H16 H 0.1462 0.7497 0.4946
C9 C 0.2375(7) 0.8679(8) 0.6054(8)
H17 H 0.2131 0.8221 0.6350
H18 H 0.1806 0.9034 0.5705
C10 C 0.2991(13) 0.9375(14) 0.6678(12)
H19 H 0.2867 1.0020 0.6463
H20 H 0.2828 0.9344 0.7167
C11 C 0.4477(10) 0.9786(14) 0.7432(8)
H21 H 0.4344 0.9711 0.7932
H22 H 0.4310 1.0435 0.7237
C12 C 0.5567(8) 0.9596(8) 0.7600(5)
H23 H 0.5977 1.0034 0.8011
H24 H 0.5740 0.8947 0.7793
B1 B 0.42275(18) 0.53756(18) 0.72521(15)
C13 C 0.31622(16) 0.52890(16) 0.64875(13)
C14 C 0.30155(18) 0.4639(2) 0.58411(16)
H25 H 0.3538 0.4249 0.5857
C15 C 0.2139(2) 0.4548(2) 0.51845(18)
H26 H 0.2088 0.4115 0.4770
C16 C 0.1343(2) 0.5099(2) 0.51452(18)
H27 H 0.0754 0.5055 0.4701
C17 C 0.14378(19) 0.5713(2) 0.57740(18)
H28 H 0.0900 0.6077 0.5764
C18 C 0.23173(18) 0.58003(19) 0.64231(16)
H29 H 0.2349 0.6223 0.6841
C19 C 0.46238(16) 0.42955(15) 0.75878(13)
C20 C 0.4001(2) 0.35187(18) 0.75276(17)
H30 H 0.3329 0.3597 0.7245
C21 C 0.4344(3) 0.26309(19) 0.78730(19)
H31 H 0.3903 0.2131 0.7815
C22 C 0.5323(3) 0.2493(2) 0.82954(18)
H32 H 0.5554 0.1903 0.8531
C23 C 0.5957(2) 0.3229(2) 0.83681(18)
H33 H 0.6627 0.3142 0.8655
C24 C 0.56137(19) 0.41060(18) 0.80180(16)
H34 H 0.6067 0.4593 0.8073
C25 C 0.41334(16) 0.60044(16) 0.80148(13)
C26 C 0.42897(17) 0.56274(18) 0.87875(14)
H35 H 0.4457 0.4985 0.8881
C27 C 0.4207(2) 0.6167(2) 0.94227(15)
H36 H 0.4323 0.5882 0.9928
C28 C 0.3961(2) 0.7107(2) 0.93171(17)
H37 H 0.3897 0.7465 0.9742
C29 C 0.3807(2) 0.7519(2) 0.85692(17)
H38 H 0.3647 0.8163 0.8487
C30 C 0.3891(2) 0.69737(18) 0.79356(16)
H39 H 0.3780 0.7269 0.7435
C31 C 0.50702(16) 0.58715(15) 0.69455(13)
C32 C 0.57515(19) 0.65327(19) 0.74101(17)
H40 H 0.5692 0.6760 0.7888
C33 C 0.6520(2) 0.6872(2) 0.7195(2)
H41 H 0.6962 0.7311 0.7531
C34 C 0.6634(2) 0.65686(19) 0.64967(18)
H42 H 0.7151 0.6790 0.6353
C35 C 0.5973(2) 0.5937(2) 0.60180(19)
H43 H 0.6034 0.5722 0.5537
C36 C 0.5204(2) 0.5605(2) 0.62348(17)
H44 H 0.4756 0.5182 0.5884
K2? K 0.4552(5) 0.8562(15) 0.5657(7)
O7? O 0.5950(5) 0.9288(6) 0.7115(5)
O8? O 0.6106(8) 0.9368(9) 0.5478(7)
O9? O 0.5194(13) 0.7691(10) 0.4523(11)
O10? O 0.3332(13) 0.7381(12) 0.4418(10)
O11? O 0.2595(7) 0.8630(8) 0.5377(6)
O12? O 0.3921(11) 0.9487(8) 0.6728(9)
C37? C 0.6831(9) 0.9608(11) 0.6925(10)
H45? H 0.7298 0.9084 0.7068
H46? H 0.7134 1.0129 0.7296
C38? C 0.6718(13) 0.9956(14) 0.6016(11)
H47? H 0.6462 1.0603 0.5923
H48? H 0.7354 0.9950 0.5958
C39? C 0.6389(13) 0.9050(12) 0.4797(9)
H49? H 0.7097 0.9113 0.4960
H50? H 0.6090 0.9477 0.4338
C40? C 0.6099(15) 0.8011(11) 0.4504(12)
H51? H 0.6079 0.7956 0.3947
H52? H 0.6613 0.7588 0.4841
C41? C 0.4537(19) 0.7185(15) 0.3900(14)
H53? H 0.4886 0.6692 0.3726
H54? H 0.4232 0.7608 0.3440
C42? C 0.3813(16) 0.6765(11) 0.4122(10)
H55? H 0.3345 0.6450 0.3647
H56? H 0.4111 0.6279 0.4531
C43? C 0.2388(12) 0.7332(12) 0.4486(13)
H57? H 0.1924 0.7140 0.3955
H58? H 0.2414 0.6814 0.4860
C44? C 0.1971(15) 0.8124(11) 0.4738(12)
H59? H 0.1700 0.8553 0.4276
H60? H 0.1428 0.7899 0.4886
C45? C 0.2254(10) 0.8990(10) 0.5889(10)
H61? H 0.1761 0.8552 0.5934
H62? H 0.1914 0.9574 0.5650
C46? C 0.2892(18) 0.9206(18) 0.6686(15)
H63? H 0.2942 0.8655 0.7034
H64? H 0.2615 0.9727 0.6897
C47? C 0.4690(14) 0.9690(19) 0.7539(11)
H65? H 0.4449 1.0161 0.7826
H66? H 0.4845 0.9111 0.7864
C48? C 0.5547(9) 1.0038(8) 0.7433(8)
H67? H 0.5382 1.0575 0.7058
H68? H 0.6020 1.0251 0.7953
loop_
_geom_bond_atom_site_label_1
_geom_bond_atom_site_label_2
_geom_bond_site_symmetry_1
_geom_bond_site_symmetry_2
K1 O1 1_555 1_555
O1 C1 1_555 1_555
O2 K1 1_555 1_555
O3 K1 1_555 1_555
O4 K1 1_555 1_555
O5 K1 1_555 1_555
O6 K1 1_555 1_555
C1 H1 1_555 1_555
H2 C1 1_555 1_555
C2 O2 1_555 1_555
H3 C2 1_555 1_555
H4 C2 1_555 1_555
C3 O2 1_555 1_555
H5 C3 1_555 1_555
H6 C3 1_555 1_555
C4 O3 1_555 1_555
H7 C4 1_555 1_555
H8 C4 1_555 1_555
C5 O3 1_555 1_555
H9 C5 1_555 1_555
H10 C5 1_555 1_555
C6 O4 1_555 1_555
H11 C6 1_555 1_555
H12 C6 1_555 1_555
C7 O4 1_555 1_555
H13 C7 1_555 1_555
H14 C7 1_555 1_555
C8 O5 1_555 1_555
H15 C8 1_555 1_555
H16 C8 1_555 1_555
C9 O5 1_555 1_555
H17 C9 1_555 1_555
H18 C9 1_555 1_555
C10 O6 1_555 1_555
H19 C10 1_555 1_555
H20 C10 1_555 1_555
C11 O6 1_555 1_555
H21 C11 1_555 1_555
H22 C11 1_555 1_555
C12 O1 1_555 1_555
H23 C12 1_555 1_555
H24 C12 1_555 1_555
B1 C13 1_555 1_555
C13 C14 1_555 1_555
C14 H25 1_555 1_555
C15 C14 1_555 1_555
H26 C15 1_555 1_555
C16 C15 1_555 1_555
H27 C16 1_555 1_555
C17 C16 1_555 1_555
H28 C17 1_555 1_555
C18 C13 1_555 1_555
H29 C18 1_555 1_555
C19 B1 1_555 1_555
C20 C19 1_555 1_555
H30 C20 1_555 1_555
C21 C20 1_555 1_555
H31 C21 1_555 1_555
C22 C21 1_555 1_555
H32 C22 1_555 1_555
C23 C22 1_555 1_555
H33 C23 1_555 1_555
C24 C19 1_555 1_555
H34 C24 1_555 1_555
C25 B1 1_555 1_555
C26 C25 1_555 1_555
H35 C26 1_555 1_555
C27 C26 1_555 1_555
H36 C27 1_555 1_555
C28 C27 1_555 1_555
H37 C28 1_555 1_555
C29 C28 1_555 1_555
H38 C29 1_555 1_555
C30 C25 1_555 1_555
H39 C30 1_555 1_555
C31 B1 1_555 1_555
C32 C31 1_555 1_555
H40 C32 1_555 1_555
C33 C32 1_555 1_555
H41 C33 1_555 1_555
C34 C33 1_555 1_555
H42 C34 1_555 1_555
C35 C34 1_555 1_555
H43 C35 1_555 1_555
C36 C31 1_555 1_555
H44 C36 1_555 1_555
C1 C2 1_555 1_555
C3 C4 1_555 1_555
C5 C6 1_555 1_555
C7 C8 1_555 1_555
C9 C10 1_555 1_555
C11 C12 1_555 1_555
C17 C18 1_555 1_555
C23 C24 1_555 1_555
C29 C30 1_555 1_555
C35 C36 1_555 1_555

#END
