
#######################################################################
#
#                 Cambridge Crystallographic Data Centre
#                                CCDC 
#
#######################################################################
#
# If this CIF has been generated from an entry in the Cambridge 
# Structural Database, then it will include bibliographic, chemical, 
# crystal, experimental, refinement or atomic coordinate data resulting 
# from the CCDC's data processing and validation procedures.
#
#######################################################################

data_VIRDIL
_chemical_formula_moiety         'C17 H14 F1 N3 O3 S1'
_chemical_name_systematic        
5-(2,3-Dihydro-1,4-benzodioxin-6-yl)-3-(((2-fluorophenyl)amino)methyl)-1,3,4-oxadiazole-2(3H)-thione
_symmetry_cell_setting           monoclinic
_symmetry_space_group_name_H-M   'P 21/c'
_symmetry_Int_Tables_number      14
_space_group_name_Hall           '-P 2ybc'
loop_
_symmetry_equiv_pos_site_id
_symmetry_equiv_pos_as_xyz
1 x,y,z
2 -x,1/2+y,1/2-z
3 -x,-y,-z
4 x,1/2-y,1/2+z
_cell_length_a                   8.7363(8)
_cell_length_b                   13.7156(13)
_cell_length_c                   13.7374(12)
_cell_angle_alpha                90
_cell_angle_beta                 102.965(3)
_cell_angle_gamma                90
_cell_volume                     1604.1
_cell_formula_units_Z            4
loop_
_atom_site_label
_atom_site_type_symbol
_atom_site_fract_x
_atom_site_fract_y
_atom_site_fract_z
C1 C 0.2786(2) 0.49375(15) 0.25713(16)
C2 C 0.1746(2) 0.57706(16) 0.23026(16)
C3 C 0.4322(3) 0.39319(16) 0.38511(16)
C4 C 0.3336(3) 0.47143(16) 0.35702(17)
H1 H 0.3037 0.5096 0.4056
C5 C 0.3217(3) 0.43645(18) 0.18451(17)
H2 H 0.2841 0.4505 0.1172
C6 C 0.4202(3) 0.35895(18) 0.21310(19)
H3 H 0.4493 0.3205 0.1645
C7 C -0.0414(3) 0.78295(17) 0.26432(18)
H4 H -0.1119 0.8161 0.2097
H5 H -0.1041 0.7568 0.3083
C8 C 0.1362(3) 0.92363(17) 0.27258(19)
C9 C 0.0119(3) 0.67344(17) 0.12932(17)
C10 C 0.4771(3) 0.33687(17) 0.31226(18)
C11 C 0.2406(3) 0.9865(2) 0.3312(3)
C12 C 0.6518(4) 0.2559(3) 0.4398(3)
H6 H 0.6932 0.1910 0.4567
H7 H 0.7399 0.3007 0.4511
C13 C 0.1088(3) 0.9370(2) 0.1701(2)
H8 H 0.0400 0.8958 0.1276
C14 C 0.1835(4) 1.0118(2) 0.1303(3)
H9 H 0.1633 1.0207 0.0615
C15 C 0.5510(4) 0.2814(2) 0.5049(2)
H10 H 0.4679 0.2332 0.4981
H11 H 0.6110 0.2795 0.5735
C16 C 0.2863(5) 1.0723(2) 0.1917(4)
H12 H 0.3373 1.1214 0.1647
C17 C 0.3138(4) 1.0602(2) 0.2927(4)
H13 H 0.3820 1.1019 0.3351
F1 F 0.2700(2) 0.97337(14) 0.43153(16)
N1 N 0.1373(2) 0.64147(13) 0.28825(14)
N2 N 0.0352(2) 0.70217(13) 0.22388(14)
N3 N 0.0671(2) 0.85125(14) 0.31794(16)
H14 H 0.0912 0.8475 0.3821
O1 O 0.10326(17) 0.59186(11) 0.13162(11)
O2 O 0.4834(2) 0.37436(13) 0.48478(12)
O3 O 0.5752(2) 0.25805(14) 0.33614(14)
S1 S -0.09745(8) 0.71920(6) 0.02608(5)
loop_
_geom_bond_atom_site_label_1
_geom_bond_atom_site_label_2
_geom_bond_site_symmetry_1
_geom_bond_site_symmetry_2
C1 C2 1_555 1_555
C2 N1 1_555 1_555
C3 C4 1_555 1_555
C4 C1 1_555 1_555
H1 C4 1_555 1_555
C5 C1 1_555 1_555
H2 C5 1_555 1_555
C6 C5 1_555 1_555
H3 C6 1_555 1_555
C7 H4 1_555 1_555
H5 C7 1_555 1_555
C8 C11 1_555 1_555
C9 N2 1_555 1_555
C10 C3 1_555 1_555
C11 C17 1_555 1_555
C12 H6 1_555 1_555
H7 C12 1_555 1_555
C13 C8 1_555 1_555
H8 C13 1_555 1_555
C14 C13 1_555 1_555
H9 C14 1_555 1_555
C15 C12 1_555 1_555
H10 C15 1_555 1_555
H11 C15 1_555 1_555
C16 C14 1_555 1_555
H12 C16 1_555 1_555
C17 C16 1_555 1_555
H13 C17 1_555 1_555
F1 C11 1_555 1_555
N1 N2 1_555 1_555
N2 C7 1_555 1_555
N3 C7 1_555 1_555
H14 N3 1_555 1_555
O1 C2 1_555 1_555
O2 C3 1_555 1_555
O3 C10 1_555 1_555
S1 C9 1_555 1_555
C6 C10 1_555 1_555
C8 N3 1_555 1_555
C9 O1 1_555 1_555
C12 O3 1_555 1_555
C15 O2 1_555 1_555

#END
