
#######################################################################
#
#                 Cambridge Crystallographic Data Centre
#                                CCDC 
#
#######################################################################
#
# If this CIF has been generated from an entry in the Cambridge 
# Structural Database, then it will include bibliographic, chemical, 
# crystal, experimental, refinement or atomic coordinate data resulting 
# from the CCDC's data processing and validation procedures.
#
#######################################################################

data_VIRGOS
_chemical_formula_moiety         'C6 H4 N2 S1'
_chemical_name_systematic        1,2,3-Benzothiadiazole
_symmetry_cell_setting           orthorhombic
_symmetry_space_group_name_H-M   'P c a b'
_symmetry_Int_Tables_number      61
_space_group_name_Hall           '-P 2bc 2ac'
loop_
_symmetry_equiv_pos_site_id
_symmetry_equiv_pos_as_xyz
1 x,y,z
2 1/2-x,y,1/2+z
3 1/2+x,1/2-y,z
4 -x,1/2-y,1/2+z
5 -x,-y,-z
6 1/2+x,-y,1/2-z
7 1/2-x,1/2+y,-z
8 x,1/2+y,1/2-z
_cell_length_a                   7.279(2)
_cell_length_b                   10.502(3)
_cell_length_c                   15.784(4)
_cell_angle_alpha                90
_cell_angle_beta                 90
_cell_angle_gamma                90
_cell_volume                     1206.59
_exptl_crystal_colour            colorless
_cell_formula_units_Z            8
loop_
_atom_site_label
_atom_site_type_symbol
_atom_site_fract_x
_atom_site_fract_y
_atom_site_fract_z
S1 S 0.2499(1) 0.4739(1) 0.4637(1)
N1 N 0.3887(4) 0.2642(2) 0.5016(1)
N2 N 0.3447(4) 0.3310(2) 0.4369(1)
C1 C 0.3498(3) 0.3233(2) 0.5778(2)
C2 C 0.3860(4) 0.2720(3) 0.6579(2)
C3 C 0.3393(4) 0.3424(3) 0.7273(2)
C4 C 0.2575(5) 0.4625(3) 0.7187(2)
C5 C 0.2242(4) 0.5146(2) 0.6409(2)
C6 C 0.2696(4) 0.4435(2) 0.5696(2)
loop_
_geom_bond_atom_site_label_1
_geom_bond_atom_site_label_2
_geom_bond_site_symmetry_1
_geom_bond_site_symmetry_2
S1 N2 1_555 1_555
N1 N2 1_555 1_555
C1 N1 1_555 1_555
C2 C1 1_555 1_555
C3 C2 1_555 1_555
C4 C3 1_555 1_555
C5 C4 1_555 1_555
C6 S1 1_555 1_555
C1 C6 1_555 1_555
C5 C6 1_555 1_555

#END
