
#######################################################################
#
#                 Cambridge Crystallographic Data Centre
#                                CCDC 
#
#######################################################################
#
# If this CIF has been generated from an entry in the Cambridge 
# Structural Database, then it will include bibliographic, chemical, 
# crystal, experimental, refinement or atomic coordinate data resulting 
# from the CCDC's data processing and validation procedures.
#
#######################################################################

data_VIRPUK
_chemical_formula_moiety         'C24 H18 O1'
_chemical_name_systematic        
4-methylidene-2,3,5-triphenylcyclopent-2-en-1-one
_symmetry_cell_setting           monoclinic
_symmetry_space_group_name_H-M   'P 21/n'
_symmetry_Int_Tables_number      14
_space_group_name_Hall           '-P 2yn'
loop_
_symmetry_equiv_pos_site_id
_symmetry_equiv_pos_as_xyz
1 x,y,z
2 1/2-x,1/2+y,1/2-z
3 -x,-y,-z
4 1/2+x,1/2-y,1/2+z
_cell_length_a                   15.729(9)
_cell_length_b                   5.689(3)
_cell_length_c                   19.303(10)
_cell_angle_alpha                90
_cell_angle_beta                 97.988(13)
_cell_angle_gamma                90
_cell_volume                     1710.52
_exptl_crystal_colour            colorless
_exptl_crystal_description       prism
_cell_formula_units_Z            4
loop_
_atom_site_label
_atom_site_type_symbol
_atom_site_fract_x
_atom_site_fract_y
_atom_site_fract_z
O1 O 0.5311(3) -0.2466(9) 0.5331(2)
C1 C 0.5340(4) -0.0093(11) 0.7003(3)
C2 C 0.4954(5) -0.1564(13) 0.6489(3)
C3 C 0.4208(5) -0.3143(13) 0.6493(3)
C4 C 0.5044(5) -0.1496(13) 0.8869(3)
C5 C 0.4144(5) -0.5196(12) 0.6095(3)
C6 C 0.6050(5) 0.1249(13) 0.6761(3)
C7 C 0.5408(5) -0.1311(13) 0.5865(4)
C8 C 0.4435(5) 0.2313(13) 0.8567(3)
C9 C 0.6046(5) 0.0771(12) 0.5991(3)
C10 C 0.4614(5) 0.0469(14) 0.9043(4)
C11 C 0.8125(5) -0.2102(14) 0.5666(4)
C12 C 0.5114(4) 0.0116(12) 0.7728(3)
C13 C 0.3554(5) -0.2591(13) 0.6885(4)
C14 C 0.6887(4) 0.0287(12) 0.5737(3)
C15 C 0.6598(5) 0.2600(13) 0.7177(4)
C16 C 0.7169(5) 0.1794(13) 0.5262(3)
C17 C 0.8409(5) -0.0672(15) 0.5184(4)
C18 C 0.4700(5) 0.2120(13) 0.7912(3)
C19 C 0.2796(5) -0.6053(14) 0.6487(4)
C20 C 0.5299(5) -0.1682(13) 0.8216(3)
C21 C 0.2850(5) -0.4003(13) 0.6875(4)
C22 C 0.3435(5) -0.6639(12) 0.6087(4)
C23 C 0.7931(5) 0.1302(16) 0.4970(4)
C24 C 0.7368(5) -0.1679(14) 0.5945(4)
H1 H 0.33572 -0.82801 0.5792
H2 H 0.45707 -0.55154 0.57359
H3 H 0.23078 -0.70874 0.63992
H4 H 0.23845 -0.36682 0.71645
H5 H 0.35532 -0.11148 0.71724
H6 H 0.65629 0.30167 0.76352
H7 H 0.71457 0.35408 0.70271
H8 H 0.67534 0.31797 0.5057
H9 H 0.82055 0.24474 0.4628
H10 H 0.89274 -0.12182 0.4973
H11 H 0.83861 -0.34955 0.5917
H12 H 0.72085 -0.28272 0.62112
H13 H 0.57497 0.23061 0.56748
H14 H 0.4624 0.34301 0.76377
H15 H 0.44083 0.08385 0.95702
H16 H 0.51958 -0.25512 0.93197
H17 H 0.55621 -0.33206 0.80655
H18 H 0.40701 0.38325 0.8723
loop_
_geom_bond_atom_site_label_1
_geom_bond_atom_site_label_2
_geom_bond_site_symmetry_1
_geom_bond_site_symmetry_2
O1 C7 1_555 1_555
C1 C2 1_555 1_555
C2 C3 1_555 1_555
C3 C5 1_555 1_555
C4 C10 1_555 1_555
C5 C22 1_555 1_555
C6 C1 1_555 1_555
C7 C2 1_555 1_555
C8 C10 1_555 1_555
C9 C6 1_555 1_555
C10 H15 1_555 1_555
C11 C17 1_555 1_555
C12 C1 1_555 1_555
C13 C3 1_555 1_555
C14 C9 1_555 1_555
C15 C6 1_555 1_555
C16 C14 1_555 1_555
C17 C23 1_555 1_555
C18 C8 1_555 1_555
C19 C21 1_555 1_555
C20 C4 1_555 1_555
C21 C13 1_555 1_555
C22 C19 1_555 1_555
C23 C16 1_555 1_555
C24 C11 1_555 1_555
H1 C22 1_555 1_555
H2 C5 1_555 1_555
H3 C19 1_555 1_555
H4 C21 1_555 1_555
H5 C13 1_555 1_555
H6 C15 1_555 1_555
H7 C15 1_555 1_555
H8 C16 1_555 1_555
H9 C23 1_555 1_555
H10 C17 1_555 1_555
H11 C11 1_555 1_555
H12 C24 1_555 1_555
H13 C9 1_555 1_555
H14 C18 1_555 1_555
H16 C4 1_555 1_555
H17 C20 1_555 1_555
H18 C8 1_555 1_555
C7 C9 1_555 1_555
C12 C18 1_555 1_555
C12 C20 1_555 1_555
C14 C24 1_555 1_555

#END
