
#######################################################################
#
#                 Cambridge Crystallographic Data Centre
#                                CCDC 
#
#######################################################################
#
# If this CIF has been generated from an entry in the Cambridge 
# Structural Database, then it will include bibliographic, chemical, 
# crystal, experimental, refinement or atomic coordinate data resulting 
# from the CCDC's data processing and validation procedures.
#
#######################################################################

data_VIRXEC
_chemical_formula_moiety         'C19 H16 O3'
_chemical_name_systematic        
'methyl 4-oxo-2,3-diphenylcyclopent-2-ene-1-carboxylate'
_symmetry_cell_setting           monoclinic
_symmetry_space_group_name_H-M   'P 21/n'
_symmetry_Int_Tables_number      14
_space_group_name_Hall           '-P 2yn'
loop_
_symmetry_equiv_pos_site_id
_symmetry_equiv_pos_as_xyz
1 x,y,z
2 1/2-x,1/2+y,1/2-z
3 -x,-y,-z
4 1/2+x,1/2-y,1/2+z
_cell_length_a                   10.175(5)
_cell_length_b                   10.113(4)
_cell_length_c                   14.764(6)
_cell_angle_alpha                90
_cell_angle_beta                 103.703(5)
_cell_angle_gamma                90
_cell_volume                     1475.97
_exptl_crystal_colour            colorless
_exptl_crystal_description       block
_cell_formula_units_Z            4
loop_
_atom_site_label
_atom_site_type_symbol
_atom_site_fract_x
_atom_site_fract_y
_atom_site_fract_z
O1 O 0.96079(17) 0.17297(16) 0.94737(12)
O2 O 0.95204(16) 0.32122(15) 1.05847(11)
O3 O 0.62832(18) -0.15276(16) 0.97179(12)
C1 C 0.9020(2) 0.2216(2) 1.00114(15)
C2 C 0.4920(2) 0.0270(2) 0.81538(15)
C3 C 0.6620(2) 0.1796(2) 0.92004(15)
C4 C 0.3793(2) 0.1099(2) 0.78801(16)
C5 C 0.4937(2) -0.0920(2) 0.76826(17)
C6 C 0.5933(2) 0.5422(2) 0.76762(18)
C7 C 0.6190(2) 0.4238(2) 0.91180(16)
C8 C 0.6039(2) 0.0613(2) 0.89613(15)
C9 C 0.6350(2) 0.3080(2) 0.77262(16)
C10 C 0.6138(2) 0.4270(2) 0.72347(17)
C11 C 0.5959(2) 0.5406(2) 0.86193(18)
C12 C 0.6372(2) 0.3051(2) 0.86771(16)
C13 C 0.2703(2) 0.0739(2) 0.71597(16)
C14 C 0.6628(2) -0.0373(2) 0.96922(16)
C15 C 1.0862(2) 0.3668(3) 1.05492(19)
C16 C 0.3848(3) -0.1285(2) 0.69602(17)
C17 C 0.7695(3) 0.0304(2) 1.04261(16)
C18 C 0.2735(2) -0.0462(2) 0.67059(16)
C19 C 0.7658(2) 0.1762(2) 1.01320(16)
H1 H 0.57916 0.62792 0.7265
H2 H 0.58149 0.62433 0.88823
H3 H 0.61794 0.41945 0.98017
H4 H 0.60997 0.42512 0.65588
H5 H 0.64588 0.21858 0.73894
H6 H 0.2739 0.1866 0.67102
H7 H 0.193 -0.07455 0.61964
H8 H 0.38728 -0.21522 0.6601
H9 H 0.57086 -0.15924 0.78588
H10 H 0.37966 0.19767 0.82522
H11 H 0.85747 -0.01122 1.03983
H12 H 0.75147 0.01478 1.10583
H13 H 0.73364 0.24225 1.05951
H14 H 1.07942 0.40268 0.98976
H15 H 1.10442 0.44068 1.10676
H16 H 1.15442 0.29468 1.06676
loop_
_geom_bond_atom_site_label_1
_geom_bond_atom_site_label_2
_geom_bond_site_symmetry_1
_geom_bond_site_symmetry_2
O1 C1 1_555 1_555
O2 C1 1_555 1_555
O3 C14 1_555 1_555
C1 C19 1_555 1_555
C2 C4 1_555 1_555
C3 C8 1_555 1_555
C4 C13 1_555 1_555
C5 C2 1_555 1_555
C6 C10 1_555 1_555
C7 C11 1_555 1_555
C8 C2 1_555 1_555
C9 C10 1_555 1_555
C10 H4 1_555 1_555
C11 C6 1_555 1_555
C12 C3 1_555 1_555
C13 C18 1_555 1_555
C14 C8 1_555 1_555
C15 O2 1_555 1_555
C16 C5 1_555 1_555
C17 C14 1_555 1_555
C18 C16 1_555 1_555
C19 C3 1_555 1_555
H1 C6 1_555 1_555
H2 C11 1_555 1_555
H3 C7 1_555 1_555
H5 C9 1_555 1_555
H6 C13 1_555 1_555
H7 C18 1_555 1_555
H8 C16 1_555 1_555
H9 C5 1_555 1_555
H10 C4 1_555 1_555
H11 C17 1_555 1_555
H12 C17 1_555 1_555
H13 C19 1_555 1_555
H14 C15 1_555 1_555
H15 C15 1_555 1_555
H16 C15 1_555 1_555
C7 C12 1_555 1_555
C9 C12 1_555 1_555
C17 C19 1_555 1_555

#END
