
#######################################################################
#
#                 Cambridge Crystallographic Data Centre
#                                CCDC 
#
#######################################################################
#
# If this CIF has been generated from an entry in the Cambridge 
# Structural Database, then it will include bibliographic, chemical, 
# crystal, experimental, refinement or atomic coordinate data resulting 
# from the CCDC's data processing and validation procedures.
#
#######################################################################

data_VISCAC
_chemical_formula_moiety         'C26 H26 N4 O3'
_chemical_name_systematic        
'ethyl ((2-((bis(pyridin-2-ylmethyl)amino)methyl)quinolin-8-yl)oxy)acetate'
_symmetry_cell_setting           triclinic
_symmetry_space_group_name_H-M   'P -1'
_symmetry_Int_Tables_number      2
_space_group_name_Hall           '-P 1'
loop_
_symmetry_equiv_pos_site_id
_symmetry_equiv_pos_as_xyz
1 x,y,z
2 -x,-y,-z
_cell_length_a                   8.7696(5)
_cell_length_b                   11.2545(6)
_cell_length_c                   12.6605(7)
_cell_angle_alpha                111.203(4)
_cell_angle_beta                 93.678(4)
_cell_angle_gamma                93.657(4)
_cell_volume                     1157.48
_exptl_crystal_colour            colorless
_exptl_crystal_description       block
_cell_formula_units_Z            2
loop_
_atom_site_label
_atom_site_type_symbol
_atom_site_fract_x
_atom_site_fract_y
_atom_site_fract_z
C1 C 0.3077(2) 0.5502(2) -0.39987(17)
C2 C -0.0436(3) 0.6941(2) 0.27430(18)
H1 H -0.1176 0.7268 0.3238
C3 C 0.5292(2) 0.87968(19) -0.13420(17)
N1 N 0.5641(2) 0.97406(17) -0.17070(16)
C4 C 0.3160(2) 0.6892(2) -0.32569(17)
H2 H 0.4085 0.7331 -0.3373
H3 H 0.2288 0.7267 -0.3478
C5 C 0.0687(3) 0.6247(2) 0.3032(2)
H4 H 0.0685 0.6122 0.3719
C6 C 0.3615(2) 0.84261(19) -0.13352(19)
H5 H 0.3393 0.8568 -0.0561
H6 H 0.3011 0.8970 -0.1605
C7 C 0.6395(3) 0.8202(2) -0.09519(19)
H7 H 0.6108 0.7546 -0.0701
N2 N 0.2046(2) 0.5118(2) -0.48932(18)
C8 C 0.7147(3) 1.0084(3) -0.1680(2)
H8 H 0.7416 1.0742 -0.1933
C9 C 0.7923(3) 0.8577(3) -0.0932(2)
H9 H 0.8681 0.8185 -0.0667
C10 C 0.4032(3) 0.4694(2) -0.3768(2)
H10 H 0.4754 0.4999 -0.3138
C11 C 0.8297(3) 0.9540(3) -0.1311(2)
H11 H 0.9318 0.9816 -0.1316
C12 C 0.3915(4) 0.3428(3) -0.4477(3)
H12 H 0.4550 0.2862 -0.4334
C13 C 0.2841(4) 0.3021(3) -0.5398(3)
H13 H 0.2722 0.2171 -0.5894
C14 C 0.1963(4) 0.3885(3) -0.5567(3)
H14 H 0.1246 0.3603 -0.6200
N3 N 0.31654(17) 0.70833(15) -0.20521(13)
C15 C 0.0694(2) 0.66595(18) 0.09819(17)
C16 C 0.1725(2) 0.64446(18) -0.06998(17)
C17 C -0.0448(2) 0.71398(19) 0.17394(17)
C18 C 0.1803(2) 0.59552(19) 0.12835(19)
C19 C 0.1773(3) 0.5757(2) 0.2321(2)
H15 H 0.2501 0.5288 0.2518
C20 C 0.2864(2) 0.5725(2) -0.0465(2)
H16 H 0.3590 0.5416 -0.0977
C21 C 0.2899(3) 0.5482(2) 0.0507(2)
H17 H 0.3647 0.5003 0.0662
N4 N 0.06654(17) 0.68961(14) -0.00075(13)
O1 O -0.15120(17) 0.77779(15) 0.13702(12)
C22 C -0.2643(3) 0.8311(2) 0.2112(2)
H18 H -0.3093 0.7669 0.2373
H19 H -0.3453 0.8561 0.1699
C23 C 0.1659(2) 0.6676(2) -0.18012(17)
H20 H 0.1244 0.5896 -0.2418
H21 H 0.0970 0.7329 -0.1760
O2 O -0.2852(2) 0.96529(18) 0.39727(15)
O3 O -0.0827(3) 1.01128(19) 0.31676(18)
C24 C -0.1966(3) 0.9469(3) 0.3131(2)
C25 C -0.2355(5) 1.0784(3) 0.4992(3)
H22 H -0.1268 1.0794 0.5196
H23 H -0.2515 1.1552 0.4836
C26 C -0.3130(6) 1.0777(4) 0.5847(4)
H24 H -0.4210 1.0692 0.5622
H25 H -0.2866 1.1564 0.6484
H26 H -0.2880 1.0070 0.6058
loop_
_geom_bond_atom_site_label_1
_geom_bond_atom_site_label_2
_geom_bond_site_symmetry_1
_geom_bond_site_symmetry_2
C1 C4 1_555 1_555
C2 H1 1_555 1_555
C3 N1 1_555 1_555
N1 C8 1_555 1_555
C4 H2 1_555 1_555
H3 C4 1_555 1_555
C5 C2 1_555 1_555
H4 C5 1_555 1_555
C6 C3 1_555 1_555
H5 C6 1_555 1_555
H6 C6 1_555 1_555
C7 C3 1_555 1_555
H7 C7 1_555 1_555
N2 C1 1_555 1_555
C8 H8 1_555 1_555
C9 C7 1_555 1_555
H9 C9 1_555 1_555
C10 C1 1_555 1_555
H10 C10 1_555 1_555
C11 C8 1_555 1_555
H11 C11 1_555 1_555
C12 C10 1_555 1_555
H12 C12 1_555 1_555
C13 C12 1_555 1_555
H13 C13 1_555 1_555
C14 N2 1_555 1_555
H14 C14 1_555 1_555
N3 C4 1_555 1_555
C15 C17 1_555 1_555
C16 C20 1_555 1_555
C17 C2 1_555 1_555
C18 C15 1_555 1_555
C19 C5 1_555 1_555
H15 C19 1_555 1_555
C20 H16 1_555 1_555
C21 C18 1_555 1_555
H17 C21 1_555 1_555
N4 C15 1_555 1_555
O1 C17 1_555 1_555
C22 O1 1_555 1_555
H18 C22 1_555 1_555
H19 C22 1_555 1_555
C23 N3 1_555 1_555
H20 C23 1_555 1_555
H21 C23 1_555 1_555
O2 C24 1_555 1_555
O3 C24 1_555 1_555
C24 C22 1_555 1_555
C25 O2 1_555 1_555
H22 C25 1_555 1_555
H23 C25 1_555 1_555
C26 C25 1_555 1_555
H24 C26 1_555 1_555
H25 C26 1_555 1_555
H26 C26 1_555 1_555
C6 N3 1_555 1_555
C9 C11 1_555 1_555
C13 C14 1_555 1_555
C16 N4 1_555 1_555
C16 C23 1_555 1_555
C18 C19 1_555 1_555
C20 C21 1_555 1_555

#END
