
#######################################################################
#
#                 Cambridge Crystallographic Data Centre
#                                CCDC 
#
#######################################################################
#
# If this CIF has been generated from an entry in the Cambridge 
# Structural Database, then it will include bibliographic, chemical, 
# crystal, experimental, refinement or atomic coordinate data resulting 
# from the CCDC's data processing and validation procedures.
#
#######################################################################

data_VISHAH
_chemical_formula_moiety         'C54 H76 B2 N4'
_chemical_name_systematic        
B,B'-bis(1,3-bis(2,6-di-isopropylphenyl)imidazol-2-ylidene)diborane
_symmetry_cell_setting           monoclinic
_symmetry_space_group_name_H-M   'P 21/n'
_symmetry_Int_Tables_number      14
_space_group_name_Hall           '-P 2yn'
loop_
_symmetry_equiv_pos_site_id
_symmetry_equiv_pos_as_xyz
1 x,y,z
2 1/2-x,1/2+y,1/2-z
3 -x,-y,-z
4 1/2+x,1/2-y,1/2+z
_cell_length_a                   12.8024(17)
_cell_length_b                   14.372(2)
_cell_length_c                   14.466(2)
_cell_angle_alpha                90
_cell_angle_beta                 110.296(2)
_cell_angle_gamma                90
_cell_volume                     2496.43
_exptl_crystal_colour            colorless
_exptl_crystal_description       block
_chemical_melting_point          249deg.C
_cell_formula_units_Z            2
loop_
_atom_site_label
_atom_site_type_symbol
_atom_site_fract_x
_atom_site_fract_y
_atom_site_fract_z
B1 B 1.00564(15) -0.01180(13) 0.06365(14)
H1 H 1.0954(15) 0.0012(13) 0.1168(13)
H2 H 0.9775(15) -0.0864(14) 0.0708(14)
N1 N 0.94672(10) 0.14469(9) 0.12901(9)
N2 N 0.81363(10) 0.04538(9) 0.07543(9)
C1 C 0.92430(12) 0.05710(10) 0.09011(10)
C2 C 0.85212(14) 0.18528(12) 0.13695(14)
H3 H 0.8472 0.2445 0.1610
C3 C 0.76970(14) 0.12414(12) 0.10385(13)
H4 H 0.6964 0.1325 0.1004
C4 C 0.75122(13) -0.04041(11) 0.05042(12)
C5 C 0.67744(13) -0.05307(12) -0.04543(12)
C6 C 0.61547(16) -0.13501(14) -0.06491(15)
H5 H 0.5663 -0.1464 -0.1284
C7 C 0.62573(19) -0.19912(15) 0.00782(17)
H6 H 0.5841 -0.2536 -0.0071
C8 C 0.69655(18) -0.18383(15) 0.10208(16)
H7 H 0.7008 -0.2275 0.1507
C9 C 0.76215(15) -0.10448(14) 0.12651(14)
C10 C 0.83841(19) -0.08742(17) 0.23157(15)
H8 H 0.8937 -0.0410 0.2296
C11 C 0.9015(3) -0.1740(2) 0.2815(2)
H9 H 0.9440 -0.1978 0.2435
H10 H 0.8495 -0.2205 0.2858
H11 H 0.9508 -0.1584 0.3465
C12 C 0.7740(3) -0.0471(2) 0.29295(19)
H12 H 0.7350 0.0078 0.2614
H13 H 0.8249 -0.0313 0.3573
H14 H 0.7214 -0.0922 0.2989
C13 C 0.65992(14) 0.01908(12) -0.12557(12)
H15 H 0.7247 0.0606 -0.1056
C14 C 0.65127(19) -0.02399(15) -0.22332(14)
H16 H 0.7169 -0.0601 -0.2155
H17 H 0.6445 0.0243 -0.2709
H18 H 0.5869 -0.0635 -0.2457
C15 C 0.5571(2) 0.07774(18) -0.13650(19)
H19 H 0.5472 0.1230 -0.1876
H20 H 0.5666 0.1089 -0.0754
H21 H 0.4928 0.0382 -0.1533
C16 C 1.05552(13) 0.18667(11) 0.17335(12)
C17 C 1.09103(14) 0.25265(11) 0.12031(13)
C18 C 1.19456(15) 0.29390(13) 0.16754(15)
H22 H 1.2222 0.3363 0.1332
C19 C 1.25659(16) 0.27331(14) 0.26370(16)
H23 H 1.3252 0.3019 0.2939
C20 C 1.21733(15) 0.21052(13) 0.31504(14)
H24 H 1.2592 0.1984 0.3806
C21 C 1.11642(14) 0.16439(12) 0.27167(12)
C22 C 1.07476(16) 0.09622(14) 0.33099(13)
H25 H 1.0019 0.0739 0.2876
C23 C 1.1477(2) 0.01273(17) 0.3636(2)
H26 H 1.1168 -0.0282 0.3999
H27 H 1.2208 0.0320 0.4049
H28 H 1.1524 -0.0193 0.3069
C24 C 1.0567(3) 0.1427(2) 0.4176(2)
H29 H 1.0085 0.1955 0.3951
H30 H 1.1269 0.1629 0.4637
H31 H 1.0230 0.0994 0.4493
C25 C 1.01807(16) 0.28611(12) 0.01927(13)
H32 H 0.9594 0.2397 -0.0086
C26 C 0.9622(2) 0.37774(15) 0.02999(18)
H33 H 0.9230 0.3693 0.0751
H34 H 0.9108 0.3963 -0.0331
H35 H 1.0180 0.4250 0.0547
C27 C 1.0798(2) 0.29868(19) -0.05198(18)
H36 H 1.1135 0.2408 -0.0593
H37 H 1.1365 0.3451 -0.0270
H38 H 1.0285 0.3181 -0.1148
B1B B 0.99436(15) 0.01180(13) -0.06365(14)
H1B H 0.9046(15) -0.0012(13) -0.1168(13)
H2B H 1.0225(15) 0.0864(14) -0.0708(14)
N1B N 1.05328(10) -0.14469(9) -0.12901(9)
N2B N 1.18637(10) -0.04538(9) -0.07543(9)
C1B C 1.07570(12) -0.05710(10) -0.09011(10)
C2B C 1.14788(14) -0.18528(12) -0.13695(14)
H3B H 1.1528 -0.2445 -0.1610
C3B C 1.23030(14) -0.12414(12) -0.10385(13)
H4B H 1.3036 -0.1325 -0.1004
C4B C 1.24878(13) 0.04041(11) -0.05042(12)
C5B C 1.32256(13) 0.05307(12) 0.04543(12)
C6B C 1.38453(16) 0.13501(14) 0.06491(15)
H5B H 1.4337 0.1464 0.1284
C7B C 1.37427(19) 0.19912(15) -0.00782(17)
H6B H 1.4159 0.2536 0.0071
C8B C 1.30345(18) 0.18383(15) -0.10208(16)
H7B H 1.2992 0.2275 -0.1507
C9B C 1.23785(15) 0.10448(14) -0.12651(14)
C10B C 1.16159(19) 0.08742(17) -0.23157(15)
H8B H 1.1063 0.0410 -0.2296
C11B C 1.0985(3) 0.1740(2) -0.2815(2)
H9B H 1.0560 0.1978 -0.2435
H10B H 1.1505 0.2205 -0.2858
H11B H 1.0492 0.1584 -0.3465
C12B C 1.2260(3) 0.0471(2) -0.29295(19)
H12B H 1.2650 -0.0078 -0.2614
H13B H 1.1751 0.0313 -0.3573
H14B H 1.2786 0.0922 -0.2989
C13B C 1.34008(14) -0.01908(12) 0.12557(12)
H15B H 1.2753 -0.0606 0.1056
C14B C 1.34873(19) 0.02399(15) 0.22332(14)
H16B H 1.2831 0.0601 0.2155
H17B H 1.3555 -0.0243 0.2709
H18B H 1.4131 0.0635 0.2457
C15B C 1.4429(2) -0.07774(18) 0.13650(19)
H19B H 1.4528 -0.1230 0.1876
H20B H 1.4334 -0.1089 0.0754
H21B H 1.5072 -0.0382 0.1533
C16B C 0.94448(13) -0.18667(11) -0.17335(12)
C17B C 0.90897(14) -0.25265(11) -0.12031(13)
C18B C 0.80544(15) -0.29390(13) -0.16754(15)
H22B H 0.7778 -0.3363 -0.1332
C19B C 0.74341(16) -0.27331(14) -0.26370(16)
H23B H 0.6748 -0.3019 -0.2939
C20B C 0.78267(15) -0.21052(13) -0.31504(14)
H24B H 0.7408 -0.1984 -0.3806
C21B C 0.88358(14) -0.16439(12) -0.27167(12)
C22B C 0.92524(16) -0.09622(14) -0.33099(13)
H25B H 0.9981 -0.0739 -0.2876
C23B C 0.8523(2) -0.01273(17) -0.3636(2)
H26B H 0.8832 0.0282 -0.3999
H27B H 0.7792 -0.0320 -0.4049
H28B H 0.8476 0.0193 -0.3069
C24B C 0.9433(3) -0.1427(2) -0.4176(2)
H29B H 0.9915 -0.1955 -0.3951
H30B H 0.8731 -0.1629 -0.4637
H31B H 0.9770 -0.0994 -0.4493
C25B C 0.98193(16) -0.28611(12) -0.01927(13)
H32B H 1.0406 -0.2397 0.0086
C26B C 1.0378(2) -0.37774(15) -0.02999(18)
H33B H 1.0770 -0.3693 -0.0751
H34B H 1.0892 -0.3963 0.0331
H35B H 0.9820 -0.4250 -0.0547
C27B C 0.9202(2) -0.29868(19) 0.05198(18)
H36B H 0.8865 -0.2408 0.0593
H37B H 0.8635 -0.3451 0.0270
H38B H 0.9715 -0.3181 0.1148
loop_
_geom_bond_atom_site_label_1
_geom_bond_atom_site_label_2
_geom_bond_site_symmetry_1
_geom_bond_site_symmetry_2
B1 H1 1_555 1_555
H2 B1 1_555 1_555
N1 C1 1_555 1_555
N2 C1 1_555 1_555
C1 B1 1_555 1_555
C2 N1 1_555 1_555
H3 C2 1_555 1_555
C3 N2 1_555 1_555
H4 C3 1_555 1_555
C4 N2 1_555 1_555
C5 C4 1_555 1_555
C6 C5 1_555 1_555
H5 C6 1_555 1_555
C7 C6 1_555 1_555
H6 C7 1_555 1_555
C8 C7 1_555 1_555
H7 C8 1_555 1_555
C9 C4 1_555 1_555
C10 C9 1_555 1_555
H8 C10 1_555 1_555
C11 C10 1_555 1_555
H9 C11 1_555 1_555
H10 C11 1_555 1_555
H11 C11 1_555 1_555
C12 C10 1_555 1_555
H12 C12 1_555 1_555
H13 C12 1_555 1_555
H14 C12 1_555 1_555
C13 C5 1_555 1_555
H15 C13 1_555 1_555
C14 C13 1_555 1_555
H16 C14 1_555 1_555
H17 C14 1_555 1_555
H18 C14 1_555 1_555
C15 C13 1_555 1_555
H19 C15 1_555 1_555
H20 C15 1_555 1_555
H21 C15 1_555 1_555
C16 N1 1_555 1_555
C17 C16 1_555 1_555
C18 C17 1_555 1_555
H22 C18 1_555 1_555
C19 C18 1_555 1_555
H23 C19 1_555 1_555
C20 C19 1_555 1_555
H24 C20 1_555 1_555
C21 C16 1_555 1_555
C22 C21 1_555 1_555
H25 C22 1_555 1_555
C23 C22 1_555 1_555
H26 C23 1_555 1_555
H27 C23 1_555 1_555
H28 C23 1_555 1_555
C24 C22 1_555 1_555
H29 C24 1_555 1_555
H30 C24 1_555 1_555
H31 C24 1_555 1_555
C25 C17 1_555 1_555
H32 C25 1_555 1_555
C26 C25 1_555 1_555
H33 C26 1_555 1_555
H34 C26 1_555 1_555
H35 C26 1_555 1_555
C27 C25 1_555 1_555
H36 C27 1_555 1_555
H37 C27 1_555 1_555
H38 C27 1_555 1_555
B1B B1 1_555 1_555
H1B B1B 1_555 1_555
H2B B1B 1_555 1_555
N1B C1B 1_555 1_555
N2B C1B 1_555 1_555
C1B B1B 1_555 1_555
C2B N1B 1_555 1_555
H3B C2B 1_555 1_555
C3B N2B 1_555 1_555
H4B C3B 1_555 1_555
C4B N2B 1_555 1_555
C5B C4B 1_555 1_555
C6B C5B 1_555 1_555
H5B C6B 1_555 1_555
C7B C6B 1_555 1_555
H6B C7B 1_555 1_555
C8B C7B 1_555 1_555
H7B C8B 1_555 1_555
C9B C4B 1_555 1_555
C10B C9B 1_555 1_555
H8B C10B 1_555 1_555
C11B C10B 1_555 1_555
H9B C11B 1_555 1_555
H10B C11B 1_555 1_555
H11B C11B 1_555 1_555
C12B C10B 1_555 1_555
H12B C12B 1_555 1_555
H13B C12B 1_555 1_555
H14B C12B 1_555 1_555
C13B C5B 1_555 1_555
H15B C13B 1_555 1_555
C14B C13B 1_555 1_555
H16B C14B 1_555 1_555
H17B C14B 1_555 1_555
H18B C14B 1_555 1_555
C15B C13B 1_555 1_555
H19B C15B 1_555 1_555
H20B C15B 1_555 1_555
H21B C15B 1_555 1_555
C16B N1B 1_555 1_555
C17B C16B 1_555 1_555
C18B C17B 1_555 1_555
H22B C18B 1_555 1_555
C19B C18B 1_555 1_555
H23B C19B 1_555 1_555
C20B C19B 1_555 1_555
H24B C20B 1_555 1_555
C21B C16B 1_555 1_555
C22B C21B 1_555 1_555
H25B C22B 1_555 1_555
C23B C22B 1_555 1_555
H26B C23B 1_555 1_555
H27B C23B 1_555 1_555
H28B C23B 1_555 1_555
C24B C22B 1_555 1_555
H29B C24B 1_555 1_555
H30B C24B 1_555 1_555
H31B C24B 1_555 1_555
C25B C17B 1_555 1_555
H32B C25B 1_555 1_555
C26B C25B 1_555 1_555
H33B C26B 1_555 1_555
H34B C26B 1_555 1_555
H35B C26B 1_555 1_555
C27B C25B 1_555 1_555
H36B C27B 1_555 1_555
H37B C27B 1_555 1_555
H38B C27B 1_555 1_555
C2 C3 1_555 1_555
C8 C9 1_555 1_555
C20 C21 1_555 1_555
C2B C3B 1_555 1_555
C8B C9B 1_555 1_555
C20B C21B 1_555 1_555

#END
