
#######################################################################
#
#                 Cambridge Crystallographic Data Centre
#                                CCDC 
#
#######################################################################
#
# If this CIF has been generated from an entry in the Cambridge 
# Structural Database, then it will include bibliographic, chemical, 
# crystal, experimental, refinement or atomic coordinate data resulting 
# from the CCDC's data processing and validation procedures.
#
#######################################################################

data_VISJAK
_chemical_formula_moiety         'C22 H16 Cl1 N1 O6'
_chemical_name_systematic        
3-chloro-10-ethoxy-8-phenyl-10,11-dihydropyrano[4',3':2,3]pyrrolo[2,1-c][1,4]benzoxazine-6,7,12-trione
_symmetry_cell_setting           triclinic
_symmetry_space_group_name_H-M   'P -1'
_symmetry_Int_Tables_number      2
_space_group_name_Hall           '-P 1'
loop_
_symmetry_equiv_pos_site_id
_symmetry_equiv_pos_as_xyz
1 x,y,z
2 -x,-y,-z
_cell_length_a                   6.7580(10)
_cell_length_b                   10.5620(10)
_cell_length_c                   14.603(2)
_cell_angle_alpha                95.850(10)
_cell_angle_beta                 101.440(10)
_cell_angle_gamma                106.050(10)
_cell_volume                     968.11
_exptl_crystal_colour            yellow
_exptl_crystal_description       prismatic
_chemical_melting_point          '239 deg.C'
_cell_formula_units_Z            2
loop_
_atom_site_label
_atom_site_type_symbol
_atom_site_fract_x
_atom_site_fract_y
_atom_site_fract_z
Cl1 Cl 0.27968(12) 0.00943(7) 0.80649(5)
O1 O 0.4990(2) 0.29285(17) 1.19604(11)
O2 O 0.6619(3) 0.47945(19) 1.29774(13)
O3 O 0.9969(3) 0.73698(16) 1.07456(12)
O4 O 0.6949(3) 0.51189(16) 0.94077(12)
O5 O 1.0164(3) 0.34232(17) 1.35748(11)
O6 O 1.1807(3) 0.54710(16) 1.32246(12)
N1 N 0.7208(3) 0.40505(18) 1.07058(12)
C1 C 0.6604(4) 0.4090(3) 1.22843(18)
C2 C 0.8305(3) 0.4350(2) 1.17113(16)
C3 C 0.9818(4) 0.3517(2) 1.19499(16)
H1 H 0.9002 0.2589 1.1898
H2 H 1.0704 0.3568 1.1499
C4 C 1.1198(4) 0.4017(2) 1.29390(17)
H3 H 1.2493 0.3759 1.2973
C5 C 1.1212(4) 0.6280(2) 1.26380(17)
C6 C 0.9589(4) 0.5788(2) 1.18546(17)
C7 C 0.9215(4) 0.6291(2) 1.09719(17)
C8 C 0.7652(3) 0.5115(2) 1.02397(18)
C9 C 0.5614(3) 0.2811(2) 1.03821(16)
C10 C 0.4608(3) 0.2237(2) 1.10485(16)
C11 C 0.3120(4) 0.0993(2) 1.08108(18)
H4 H 0.2494 0.0605 1.1268
C12 C 0.2568(4) 0.0329(2) 0.98966(18)
H5 H 0.1571 -0.0514 0.9730
C13 C 0.3505(4) 0.0922(2) 0.92246(17)
C14 C 0.5050(4) 0.2146(2) 0.94542(17)
H6 H 0.5700 0.2517 0.8998
C15 C 1.1468(5) 0.3635(3) 1.45237(18)
H7 H 1.1767 0.4552 1.4825
H8 H 1.2804 0.3475 1.4499
C16 C 1.0344(5) 0.2719(3) 1.5069(2)
H9 H 1.1197 0.2858 1.5702
H10 H 1.0072 0.1814 1.4773
H11 H 0.9025 0.2883 1.5091
C17 C 1.2462(4) 0.7680(2) 1.29839(17)
C18 C 1.4522(5) 0.8011(3) 1.35265(19)
H12 H 1.5154 0.7345 1.3636
C19 C 1.5629(5) 0.9323(4) 1.3903(2)
H13 H 1.7006 0.9541 1.4270
C20 C 1.4715(6) 1.0314(3) 1.3741(2)
H14 H 1.5483 1.1202 1.3987
C21 C 1.2668(6) 0.9998(3) 1.3218(2)
H15 H 1.2041 1.0670 1.3122
C22 C 1.1538(5) 0.8689(3) 1.28341(18)
H16 H 1.0156 0.8480 1.2474
loop_
_geom_bond_atom_site_label_1
_geom_bond_atom_site_label_2
_geom_bond_site_symmetry_1
_geom_bond_site_symmetry_2
Cl1 C13 1_555 1_555
O1 C1 1_555 1_555
O2 C1 1_555 1_555
O3 C7 1_555 1_555
O4 C8 1_555 1_555
O5 C4 1_555 1_555
O6 C4 1_555 1_555
N1 C2 1_555 1_555
C1 C2 1_555 1_555
C2 C3 1_555 1_555
C3 H1 1_555 1_555
H2 C3 1_555 1_555
C4 C3 1_555 1_555
H3 C4 1_555 1_555
C5 O6 1_555 1_555
C6 C2 1_555 1_555
C7 C6 1_555 1_555
C8 N1 1_555 1_555
C9 N1 1_555 1_555
C10 O1 1_555 1_555
C11 C10 1_555 1_555
H4 C11 1_555 1_555
C12 C11 1_555 1_555
H5 C12 1_555 1_555
C13 C12 1_555 1_555
C14 C9 1_555 1_555
H6 C14 1_555 1_555
C15 O5 1_555 1_555
H7 C15 1_555 1_555
H8 C15 1_555 1_555
C16 C15 1_555 1_555
H9 C16 1_555 1_555
H10 C16 1_555 1_555
H11 C16 1_555 1_555
C17 C5 1_555 1_555
C18 C17 1_555 1_555
H12 C18 1_555 1_555
C19 C18 1_555 1_555
H13 C19 1_555 1_555
C20 C19 1_555 1_555
H14 C20 1_555 1_555
C21 C20 1_555 1_555
H15 C21 1_555 1_555
C22 C17 1_555 1_555
H16 C22 1_555 1_555
C5 C6 1_555 1_555
C7 C8 1_555 1_555
C9 C10 1_555 1_555
C13 C14 1_555 1_555
C21 C22 1_555 1_555

#END
