
#######################################################################
#
#                 Cambridge Crystallographic Data Centre
#                                CCDC 
#
#######################################################################
#
# If this CIF has been generated from an entry in the Cambridge 
# Structural Database, then it will include bibliographic, chemical, 
# crystal, experimental, refinement or atomic coordinate data resulting 
# from the CCDC's data processing and validation procedures.
#
#######################################################################

data_VISLUH
_chemical_compound_source        'twigs and leaves of Baeckea frutescens'
_chemical_name_common            'Baeckfrutone E'
_chemical_formula_moiety         'C24 H36 O3'
_chemical_name_systematic        
7-methoxy-6,6',6',8,8-pentamethyl-4-(propan-2-yl)-4,8-dihydrospiro[1-benzopyran-2,2'-bicyclo[3.1.1]heptan]-5(3H)-one
_symmetry_cell_setting           monoclinic
_symmetry_space_group_name_H-M   'P 21'
_symmetry_Int_Tables_number      4
_space_group_name_Hall           'P 2yb'
loop_
_symmetry_equiv_pos_site_id
_symmetry_equiv_pos_as_xyz
1 x,y,z
2 -x,1/2+y,-z
_cell_length_a                   13.1359(3)
_cell_length_b                   6.17790(10)
_cell_length_c                   14.0896(3)
_cell_angle_alpha                90
_cell_angle_beta                 110.7050(10)
_cell_angle_gamma                90
_cell_volume                     1069.55
_exptl_crystal_colour            colorless
_exptl_crystal_description       prism
_cell_formula_units_Z            2
_exptl_crystal_recrystallization_method 
'Re-crystallisation from solvent: chloroform/methanol'
loop_
_atom_site_label
_atom_site_type_symbol
_atom_site_fract_x
_atom_site_fract_y
_atom_site_fract_z
O1 O 0.19582(10) 0.5499(2) 0.68597(9)
O2 O 0.20937(10) 0.6353(3) 0.35659(10)
O3 O 0.46282(11) 0.9974(2) 0.63747(10)
C1 C 0.20210(16) 0.7581(3) 0.99740(14)
H1 H 0.1657 0.8219 1.0406
H2 H 0.2249 0.8734 0.9615
H3 H 0.2661 0.6764 1.0395
C2 C 0.12382(15) 0.6066(3) 0.92059(14)
C3 C 0.15249(14) 0.5007(3) 0.83169(13)
H4 H 0.1825 0.3506 0.8456
C4 C 0.21388(14) 0.6515(3) 0.78485(13)
C5 C 0.25376(14) 0.6324(3) 0.63169(13)
C6 C 0.19966(14) 0.5821(3) 0.52055(14)
C7 C 0.25926(14) 0.6829(3) 0.45810(13)
C8 C 0.27440(17) 0.5305(4) 0.30663(15)
H5 H 0.2580 0.5933 0.2390
H6 H 0.2578 0.3754 0.3003
H7 H 0.3517 0.5515 0.3466
C9 C 0.39369(17) 0.9379(4) 0.42796(15)
H8 H 0.4552 0.8550 0.4229
H9 H 0.4193 1.0798 0.4581
H10 H 0.3389 0.9575 0.3601
C10 C 0.34406(15) 0.8174(3) 0.49360(15)
C11 C 0.19565(16) 0.3341(3) 0.50747(15)
H11 H 0.2700 0.2767 0.5297
H12 H 0.1577 0.2979 0.4359
H13 H 0.1567 0.2701 0.5485
C12 C 0.02447(15) 0.7057(3) 0.83478(14)
H14 H -0.0440 0.7168 0.8503
C13 C 0.05756(16) 0.9106(3) 0.79337(15)
H15 H 0.0692 1.0279 0.8440
H16 H -0.0026 0.9553 0.7311
C14 C 0.16311(15) 0.8821(3) 0.76797(14)
H17 H 0.1465 0.9224 0.6960
H18 H 0.2184 0.9854 0.8099
C15 C 0.02944(15) 0.5134(3) 0.76647(14)
H19 H 0.0140 0.5525 0.6946
H20 H -0.0132 0.3854 0.7725
C16 C 0.08864(17) 0.4325(3) 0.98030(16)
H21 H 0.1523 0.3484 1.0211
H22 H 0.0353 0.3361 0.9329
H23 H 0.0558 0.5018 1.0251
C17 C 0.33645(14) 0.6510(3) 0.84176(14)
H24 H 0.3626 0.4994 0.8517
H25 H 0.3519 0.7161 0.9096
C18 C 0.39989(15) 0.7765(3) 0.78600(14)
H26 H 0.3969 0.9338 0.8015
C19 C 0.34625(15) 0.7474(3) 0.67256(14)
C20 C 0.39053(14) 0.8613(3) 0.60442(14)
C21 C 0.52159(15) 0.7067(4) 0.82470(14)
H27 H 0.5583 0.7925 0.7858
C22 C 0.53805(16) 0.4683(4) 0.80645(15)
H28 H 0.6147 0.4426 0.8161
H29 H 0.4925 0.4292 0.7370
H30 H 0.5176 0.3797 0.8546
C23 C 0.57694(16) 0.7648(4) 0.93657(16)
H31 H 0.5465 0.6758 0.9777
H32 H 0.5645 0.9181 0.9466
H33 H 0.6553 0.7377 0.9572
C24 C 0.08351(14) 0.6780(3) 0.48447(14)
H34 H 0.0433 0.6170 0.5250
H35 H 0.0458 0.6421 0.4128
H36 H 0.0878 0.8356 0.4927
loop_
_geom_bond_atom_site_label_1
_geom_bond_atom_site_label_2
_geom_bond_site_symmetry_1
_geom_bond_site_symmetry_2
O1 C4 1_555 1_555
O2 C7 1_555 1_555
O3 C20 1_555 1_555
C1 H1 1_555 1_555
H2 C1 1_555 1_555
H3 C1 1_555 1_555
C2 C1 1_555 1_555
C3 C2 1_555 1_555
H4 C3 1_555 1_555
C4 C3 1_555 1_555
C5 O1 1_555 1_555
C6 C5 1_555 1_555
C7 C6 1_555 1_555
C8 O2 1_555 1_555
H5 C8 1_555 1_555
H6 C8 1_555 1_555
H7 C8 1_555 1_555
C9 H8 1_555 1_555
H9 C9 1_555 1_555
H10 C9 1_555 1_555
C10 C7 1_555 1_555
C11 C6 1_555 1_555
H11 C11 1_555 1_555
H12 C11 1_555 1_555
H13 C11 1_555 1_555
C12 C2 1_555 1_555
H14 C12 1_555 1_555
C13 C12 1_555 1_555
H15 C13 1_555 1_555
H16 C13 1_555 1_555
C14 C4 1_555 1_555
H17 C14 1_555 1_555
H18 C14 1_555 1_555
C15 C3 1_555 1_555
H19 C15 1_555 1_555
H20 C15 1_555 1_555
C16 C2 1_555 1_555
H21 C16 1_555 1_555
H22 C16 1_555 1_555
H23 C16 1_555 1_555
C17 C4 1_555 1_555
H24 C17 1_555 1_555
H25 C17 1_555 1_555
C18 C17 1_555 1_555
H26 C18 1_555 1_555
C19 C5 1_555 1_555
C20 C10 1_555 1_555
C21 C18 1_555 1_555
H27 C21 1_555 1_555
C22 C21 1_555 1_555
H28 C22 1_555 1_555
H29 C22 1_555 1_555
H30 C22 1_555 1_555
C23 C21 1_555 1_555
H31 C23 1_555 1_555
H32 C23 1_555 1_555
H33 C23 1_555 1_555
C24 C6 1_555 1_555
H34 C24 1_555 1_555
H35 C24 1_555 1_555
H36 C24 1_555 1_555
C9 C10 1_555 1_555
C12 C15 1_555 1_555
C13 C14 1_555 1_555
C18 C19 1_555 1_555
C19 C20 1_555 1_555

#END
