
#######################################################################
#
#                 Cambridge Crystallographic Data Centre
#                                CCDC 
#
#######################################################################
#
# If this CIF has been generated from an entry in the Cambridge 
# Structural Database, then it will include bibliographic, chemical, 
# crystal, experimental, refinement or atomic coordinate data resulting 
# from the CCDC's data processing and validation procedures.
#
#######################################################################

data_VISMAO
_chemical_compound_source        'twigs and leaves of Baeckea frutescens'
_chemical_name_common            'Baeckfrutone G'
_chemical_formula_moiety         'C23 H34 O3'
_chemical_name_systematic        
7-methoxy-8,8-dimethyl-4,5'-bis(propan-2-yl)-4,8-dihydrospiro[1-benzopyran-2,2'-bicyclo[3.1.0]hexan]-5(3H)-one
_chemical_properties_biological  'anti-inflammatory activity'
_symmetry_cell_setting           monoclinic
_symmetry_space_group_name_H-M   'C c'
_symmetry_Int_Tables_number      9
_space_group_name_Hall           'C -2yc'
loop_
_symmetry_equiv_pos_site_id
_symmetry_equiv_pos_as_xyz
1 x,y,z
2 x,-y,1/2+z
3 1/2+x,1/2+y,z
4 1/2+x,1/2-y,1/2+z
_cell_length_a                   12.2126(5)
_cell_length_b                   13.9809(5)
_cell_length_c                   11.9794(5)
_cell_angle_alpha                90
_cell_angle_beta                 99.4350(10)
_cell_angle_gamma                90
_cell_volume                     2017.73
_exptl_crystal_colour            colorless
_exptl_crystal_description       block
_cell_formula_units_Z            4
_exptl_crystal_recrystallization_method 
'Re-crystallisation from solvent: chloroform/methanol'
loop_
_atom_site_label
_atom_site_type_symbol
_atom_site_fract_x
_atom_site_fract_y
_atom_site_fract_z
O1 O 0.33278(12) 0.74383(9) 0.22819(11)
O2 O 0.49328(11) 0.78370(9) 0.61119(11)
O3 O 0.37718(13) 0.47687(9) 0.47356(12)
C1 C 0.28019(17) 0.68644(14) 0.13504(15)
H1 H 0.3317 0.6366 0.1186
H2 H 0.2597 0.7270 0.0682
H3 H 0.2133 0.6566 0.1549
C2 C 0.36627(15) 0.69913(13) 0.32787(15)
C3 C 0.42396(16) 0.76791(13) 0.41532(16)
C4 C 0.45554(15) 0.71935(12) 0.52912(15)
C5 C 0.48591(16) 0.75275(13) 0.72640(15)
C6 C 0.53905(17) 0.82800(13) 0.80730(15)
H4 H 0.6217 0.8286 0.8290
C7 C 0.46761(16) 0.84205(13) 0.89888(16)
C8 C 0.51544(18) 0.85161(14) 1.02425(17)
H5 H 0.4518 0.8624 1.0657
C9 C 0.5715(2) 0.75803(15) 1.06812(18)
H6 H 0.6355 0.7461 1.0303
H7 H 0.5185 0.7052 1.0522
H8 H 0.5964 0.7628 1.1500
C10 C 0.5959(2) 0.93458(16) 1.05274(19)
H9 H 0.6575 0.9279 1.0102
H10 H 0.6249 0.9342 1.1340
H11 H 0.5571 0.9950 1.0324
C11 C 0.47519(18) 0.92042(13) 0.81383(16)
H12 H 0.5181 0.9785 0.8405
H13 H 0.4095 0.9319 0.7551
C12 C 0.34701(16) 0.85386(13) 0.42640(16)
H14 H 0.3306 0.8873 0.3537
H15 H 0.3839 0.8979 0.4843
H16 H 0.2777 0.8310 0.4483
C13 C 0.35118(15) 0.60596(13) 0.34830(16)
H17 H 0.3124 0.5671 0.2898
C14 C 0.39282(15) 0.56289(13) 0.45796(16)
C15 C 0.45049(15) 0.62442(14) 0.54831(15)
C16 C 0.49934(15) 0.58029(13) 0.66081(15)
H18 H 0.4379 0.5467 0.6907
C17 C 0.58897(16) 0.50430(13) 0.64639(16)
H19 H 0.5521 0.4542 0.5936
C18 C 0.68576(18) 0.54428(15) 0.59436(18)
H20 H 0.7273 0.5903 0.6467
H21 H 0.6570 0.5763 0.5228
H22 H 0.7350 0.4918 0.5803
C19 C 0.63103(17) 0.45519(14) 0.75944(18)
H23 H 0.6799 0.4019 0.7473
H24 H 0.5678 0.4308 0.7917
H25 H 0.6723 0.5014 0.8118
C20 C 0.54576(16) 0.65724(13) 0.74753(16)
H26 H 0.5391 0.6345 0.8244
H27 H 0.6256 0.6667 0.7447
C21 C 0.53207(16) 0.80360(13) 0.37780(16)
H28 H 0.5791 0.7487 0.3668
H29 H 0.5719 0.8457 0.4362
H30 H 0.5138 0.8391 0.3066
C22 C 0.36372(16) 0.74928(13) 0.74362(16)
H31 H 0.3182 0.7955 0.6933
H32 H 0.3324 0.6844 0.7283
C23 C 0.36788(16) 0.77648(13) 0.86879(16)
H33 H 0.2989 0.8099 0.8796
H34 H 0.3765 0.7186 0.9171
loop_
_geom_bond_atom_site_label_1
_geom_bond_atom_site_label_2
_geom_bond_site_symmetry_1
_geom_bond_site_symmetry_2
O1 C1 1_555 1_555
O2 C4 1_555 1_555
O3 C14 1_555 1_555
C1 H1 1_555 1_555
H2 C1 1_555 1_555
H3 C1 1_555 1_555
C2 O1 1_555 1_555
C3 C2 1_555 1_555
C4 C3 1_555 1_555
C5 O2 1_555 1_555
C6 C5 1_555 1_555
H4 C6 1_555 1_555
C7 C6 1_555 1_555
C8 C7 1_555 1_555
H5 C8 1_555 1_555
C9 C8 1_555 1_555
H6 C9 1_555 1_555
H7 C9 1_555 1_555
H8 C9 1_555 1_555
C10 C8 1_555 1_555
H9 C10 1_555 1_555
H10 C10 1_555 1_555
H11 C10 1_555 1_555
C11 C6 1_555 1_555
H12 C11 1_555 1_555
H13 C11 1_555 1_555
C12 C3 1_555 1_555
H14 C12 1_555 1_555
H15 C12 1_555 1_555
H16 C12 1_555 1_555
C13 C2 1_555 1_555
H17 C13 1_555 1_555
C14 C13 1_555 1_555
C15 C4 1_555 1_555
C16 C15 1_555 1_555
H18 C16 1_555 1_555
C17 C16 1_555 1_555
H19 C17 1_555 1_555
C18 C17 1_555 1_555
H20 C18 1_555 1_555
H21 C18 1_555 1_555
H22 C18 1_555 1_555
C19 C17 1_555 1_555
H23 C19 1_555 1_555
H24 C19 1_555 1_555
H25 C19 1_555 1_555
C20 C5 1_555 1_555
H26 C20 1_555 1_555
H27 C20 1_555 1_555
C21 C3 1_555 1_555
H28 C21 1_555 1_555
H29 C21 1_555 1_555
H30 C21 1_555 1_555
C22 C5 1_555 1_555
H31 C22 1_555 1_555
H32 C22 1_555 1_555
C23 C7 1_555 1_555
H33 C23 1_555 1_555
H34 C23 1_555 1_555
C7 C11 1_555 1_555
C14 C15 1_555 1_555
C16 C20 1_555 1_555
C22 C23 1_555 1_555

#END
