
#######################################################################
#
#                 Cambridge Crystallographic Data Centre
#                                CCDC 
#
#######################################################################
#
# If this CIF has been generated from an entry in the Cambridge 
# Structural Database, then it will include bibliographic, chemical, 
# crystal, experimental, refinement or atomic coordinate data resulting 
# from the CCDC's data processing and validation procedures.
#
#######################################################################

data_VISRUL
_chemical_formula_moiety         'C22 H26 N2 O5'
_chemical_name_systematic        
'(Z)-Di-t-butyl 1-oxoazepino(3,4-b)indole-2,10(1H,3H)-dicarboxylate'
_symmetry_cell_setting           triclinic
_symmetry_space_group_name_H-M   'P -1'
_symmetry_Int_Tables_number      2
_space_group_name_Hall           '-P 1'
loop_
_symmetry_equiv_pos_site_id
_symmetry_equiv_pos_as_xyz
1 x,y,z
2 -x,-y,-z
_cell_length_a                   7.7412(15)
_cell_length_b                   9.4702(19)
_cell_length_c                   15.071(3)
_cell_angle_alpha                96.07(3)
_cell_angle_beta                 102.10(3)
_cell_angle_gamma                97.26(3)
_cell_volume                     1061.65
_exptl_crystal_colour            colorless
_exptl_crystal_description       prism
_chemical_melting_point          '127-128 deg.C'
_cell_formula_units_Z            2
_exptl_crystal_recrystallization_method 'diethyl ether'
loop_
_atom_site_label
_atom_site_type_symbol
_atom_site_fract_x
_atom_site_fract_y
_atom_site_fract_z
C1 C 0.14108(18) 0.04128(15) 0.34463(10)
C2 C 0.00861(18) 0.07717(15) 0.26672(10)
C3 C 0.14228(19) 0.32741(16) 0.33087(11)
H1 H 0.1439 0.4208 0.3099
H2 H 0.2573 0.2972 0.3304
C4 C 0.1160(2) 0.34042(19) 0.42585(12)
H3 H 0.0922 0.4266 0.4528
C5 C 0.1264(2) 0.22984(19) 0.47252(11)
H4 H 0.1060 0.2397 0.5314
C6 C 0.16817(18) 0.09421(16) 0.43562(10)
C7 C 0.24467(18) -0.01168(18) 0.48706(10)
C8 C 0.2995(2) -0.0165(2) 0.58118(11)
H5 H 0.2892 0.0589 0.6237
C9 C 0.3688(2) -0.1348(2) 0.60935(12)
H6 H 0.4046 -0.1399 0.6717
C10 C 0.3862(2) -0.2466(2) 0.54650(13)
H7 H 0.4333 -0.3254 0.5679
C11 C 0.3360(2) -0.24514(19) 0.45296(12)
H8 H 0.3500 -0.3198 0.4110
C12 C 0.26333(18) -0.12568(17) 0.42516(10)
C13 C 0.24406(19) -0.15984(17) 0.25837(10)
C14 C 0.2685(2) -0.11257(16) 0.10423(10)
C15 C 0.4445(2) -0.1639(2) 0.10282(13)
H9 H 0.4477 -0.2520 0.1289
H10 H 0.5405 -0.0925 0.1379
H11 H 0.4575 -0.1800 0.0408
C16 C 0.1085(2) -0.22483(19) 0.06007(12)
H12 H 0.1199 -0.3116 0.0870
H13 H 0.1025 -0.2441 -0.0044
H14 H 0.0016 -0.1903 0.0695
C17 C 0.2561(3) 0.02594(19) 0.06361(12)
H15 H 0.3593 0.0953 0.0928
H16 H 0.1501 0.0623 0.0730
H17 H 0.2511 0.0083 -0.0009
C18 C -0.15293(19) 0.27010(15) 0.21879(10)
C19 C -0.2879(2) 0.49067(15) 0.20934(10)
C20 C -0.4693(3) 0.4268(2) 0.2147(2)
H18 H -0.5032 0.3359 0.1761
H19 H -0.5526 0.4901 0.1946
H20 H -0.4697 0.4129 0.2768
C21 C -0.2738(4) 0.5016(3) 0.11306(16)
H21 H -0.1542 0.5425 0.1125
H22 H -0.3560 0.5618 0.0866
H23 H -0.3023 0.4076 0.0781
C22 C -0.2303(4) 0.6332(2) 0.2676(2)
H24 H -0.1124 0.6719 0.2628
H25 H -0.2293 0.6218 0.3302
H26 H -0.3120 0.6976 0.2473
N1 N 0.20054(15) -0.09232(13) 0.33645(8)
N2 N 0.00018(15) 0.22324(12) 0.26709(8)
O1 O -0.08968(14) -0.01663(11) 0.21214(8)
O2 O -0.26359(17) 0.19889(12) 0.15916(9)
O3 O -0.15369(15) 0.40459(11) 0.25164(8)
O4 O 0.26549(17) -0.28327(12) 0.25063(8)
O5 O 0.26125(13) -0.06599(10) 0.20106(6)
loop_
_geom_bond_atom_site_label_1
_geom_bond_atom_site_label_2
_geom_bond_site_symmetry_1
_geom_bond_site_symmetry_2
C1 C2 1_555 1_555
C2 N2 1_555 1_555
C3 H1 1_555 1_555
H2 C3 1_555 1_555
C4 C3 1_555 1_555
H3 C4 1_555 1_555
C5 C4 1_555 1_555
H4 C5 1_555 1_555
C6 C1 1_555 1_555
C7 C6 1_555 1_555
C8 C7 1_555 1_555
H5 C8 1_555 1_555
C9 C8 1_555 1_555
H6 C9 1_555 1_555
C10 C9 1_555 1_555
H7 C10 1_555 1_555
C11 C10 1_555 1_555
H8 C11 1_555 1_555
C12 C7 1_555 1_555
C13 N1 1_555 1_555
C14 C15 1_555 1_555
C15 H9 1_555 1_555
H10 C15 1_555 1_555
H11 C15 1_555 1_555
C16 C14 1_555 1_555
H12 C16 1_555 1_555
H13 C16 1_555 1_555
H14 C16 1_555 1_555
C17 C14 1_555 1_555
H15 C17 1_555 1_555
H16 C17 1_555 1_555
H17 C17 1_555 1_555
C18 N2 1_555 1_555
C19 C20 1_555 1_555
C20 H18 1_555 1_555
H19 C20 1_555 1_555
H20 C20 1_555 1_555
C21 C19 1_555 1_555
H21 C21 1_555 1_555
H22 C21 1_555 1_555
H23 C21 1_555 1_555
C22 C19 1_555 1_555
H24 C22 1_555 1_555
H25 C22 1_555 1_555
H26 C22 1_555 1_555
N1 C1 1_555 1_555
N2 C3 1_555 1_555
O1 C2 1_555 1_555
O2 C18 1_555 1_555
O3 C18 1_555 1_555
O4 C13 1_555 1_555
O5 C13 1_555 1_555
C5 C6 1_555 1_555
C11 C12 1_555 1_555
C12 N1 1_555 1_555
C14 O5 1_555 1_555
C19 O3 1_555 1_555

#END
