
#######################################################################
#
#                 Cambridge Crystallographic Data Centre
#                                CCDC 
#
#######################################################################
#
# If this CIF has been generated from an entry in the Cambridge 
# Structural Database, then it will include bibliographic, chemical, 
# crystal, experimental, refinement or atomic coordinate data resulting 
# from the CCDC's data processing and validation procedures.
#
#######################################################################

data_VISVOL
_chemical_formula_moiety         'C17 H18 N1 O5 P1'
_chemical_name_systematic        
'dimethyl (4-benzyl-2-oxo-3,4-dihydro-2H-1,4-benzoxazin-3-yl)phosphonate'
_symmetry_cell_setting           triclinic
_symmetry_space_group_name_H-M   'P -1'
_symmetry_Int_Tables_number      2
_space_group_name_Hall           '-P 1'
loop_
_symmetry_equiv_pos_site_id
_symmetry_equiv_pos_as_xyz
1 x,y,z
2 -x,-y,-z
_cell_length_a                   9.5039(7)
_cell_length_b                   10.0075(8)
_cell_length_c                   10.6869(8)
_cell_angle_alpha                64.045(2)
_cell_angle_beta                 69.351(2)
_cell_angle_gamma                83.294(2)
_cell_volume                     854.35
_exptl_crystal_colour            colorless
_exptl_crystal_description       block
_cell_formula_units_Z            2
loop_
_atom_site_label
_atom_site_type_symbol
_atom_site_fract_x
_atom_site_fract_y
_atom_site_fract_z
C1 C 0.6337(3) 0.3625(2) 0.1865(2)
H1 H 0.559622 0.296862 0.195524
H2 H 0.711343 0.389153 0.090503
C2 C 0.5588(2) 0.5017(2) 0.1937(2)
C3 C 0.5646(3) 0.6254(3) 0.0637(3)
H3 H 0.619836 0.624303 -0.027038
C4 C 0.4882(5) 0.7506(3) 0.0689(4)
H4 H 0.491573 0.833319 -0.018349
C5 C 0.4078(5) 0.7525(4) 0.2024(5)
H5 H 0.357512 0.836922 0.206025
C6 C 0.4014(4) 0.6286(4) 0.3320(4)
H6 H 0.345360 0.629425 0.422710
C7 C 0.4775(3) 0.5045(3) 0.3274(3)
H7 H 0.473992 0.422119 0.414919
C8 C 0.8328(2) 0.3394(2) 0.2935(2)
C9 C 0.9058(2) 0.4744(2) 0.1853(2)
H8 H 0.868254 0.533128 0.109591
C10 C 1.0347(3) 0.5218(3) 0.1899(3)
H9 H 1.081995 0.613123 0.118217
C11 C 1.0933(3) 0.4344(3) 0.3003(4)
H10 H 1.181107 0.466000 0.301121
C12 C 1.0220(3) 0.3008(3) 0.4090(3)
H11 H 1.060480 0.241643 0.483767
C13 C 0.8928(2) 0.2564(2) 0.4049(2)
C14 C 0.6891(2) 0.1206(2) 0.3648(2)
H12 H 0.585180 0.092836 0.385150
C15 C 1.1035(3) 0.0930(5) 0.1577(4)
H13 H 1.156959 0.029795 0.111630
H14 H 1.163962 0.115257 0.202251
H15 H 1.082482 0.183724 0.084642
C16 C 0.7976(6) -0.2334(4) 0.2765(4)
H16 H 0.738846 -0.243047 0.223712
H17 H 0.793509 -0.326425 0.360053
H18 H 0.900172 -0.206596 0.212225
C17 C 0.7151(2) 0.0546(2) 0.5115(2)
N1 N 0.70104(19) 0.28232(17) 0.30109(18)
O1 O 0.9651(2) 0.0187(2) 0.26905(18)
O2 O 0.7388(3) -0.1211(2) 0.3261(3)
O3 O 0.8211(2) 0.1248(2) 0.0872(2)
O4 O 0.6519(2) -0.0558(2) 0.61509(19)
O5 O 0.81762(18) 0.12591(17) 0.52330(16)
P1 P 0.81146(7) 0.04060(5) 0.24113(6)
loop_
_geom_bond_atom_site_label_1
_geom_bond_atom_site_label_2
_geom_bond_site_symmetry_1
_geom_bond_site_symmetry_2
C1 H1 1_555 1_555
H2 C1 1_555 1_555
C2 C1 1_555 1_555
C3 C2 1_555 1_555
H3 C3 1_555 1_555
C4 C3 1_555 1_555
H4 C4 1_555 1_555
C5 C4 1_555 1_555
H5 C5 1_555 1_555
C6 C5 1_555 1_555
H6 C6 1_555 1_555
C7 C2 1_555 1_555
H7 C7 1_555 1_555
C8 C9 1_555 1_555
C9 H8 1_555 1_555
C10 C9 1_555 1_555
H9 C10 1_555 1_555
C11 C10 1_555 1_555
H10 C11 1_555 1_555
C12 C11 1_555 1_555
H11 C12 1_555 1_555
C13 C8 1_555 1_555
C14 H12 1_555 1_555
C15 H13 1_555 1_555
H14 C15 1_555 1_555
H15 C15 1_555 1_555
C16 H16 1_555 1_555
H17 C16 1_555 1_555
H18 C16 1_555 1_555
C17 C14 1_555 1_555
N1 C1 1_555 1_555
O1 C15 1_555 1_555
O2 C16 1_555 1_555
O3 P1 1_555 1_555
O4 C17 1_555 1_555
O5 C13 1_555 1_555
P1 C14 1_555 1_555
C6 C7 1_555 1_555
C8 N1 1_555 1_555
C12 C13 1_555 1_555
C14 N1 1_555 1_555
C17 O5 1_555 1_555
O1 P1 1_555 1_555
O2 P1 1_555 1_555

#END
