
#######################################################################
#
#                 Cambridge Crystallographic Data Centre
#                                CCDC 
#
#######################################################################
#
# If this CIF has been generated from an entry in the Cambridge 
# Structural Database, then it will include bibliographic, chemical, 
# crystal, experimental, refinement or atomic coordinate data resulting 
# from the CCDC's data processing and validation procedures.
#
#######################################################################

data_VISWIF
_chemical_formula_moiety         'C10 H16 N2 O1 S2'
_chemical_name_systematic        
'O-(2-(3-Isopropyl-2-methyl-1H-imidazol-3-ium-1-yl)ethyl) carbonodithioate'
_symmetry_cell_setting           monoclinic
_symmetry_space_group_name_H-M   'P 21/n'
_symmetry_Int_Tables_number      14
_space_group_name_Hall           '-P 2yn'
loop_
_symmetry_equiv_pos_site_id
_symmetry_equiv_pos_as_xyz
1 x,y,z
2 1/2-x,1/2+y,1/2-z
3 -x,-y,-z
4 1/2+x,1/2-y,1/2+z
_cell_length_a                   7.0242(4)
_cell_length_b                   15.4761(9)
_cell_length_c                   11.2508(7)
_cell_angle_alpha                90
_cell_angle_beta                 92.0820(10)
_cell_angle_gamma                90
_cell_volume                     1222.24
_exptl_crystal_colour            yellow
_exptl_crystal_description       block
_cell_formula_units_Z            4
loop_
_atom_site_label
_atom_site_type_symbol
_atom_site_fract_x
_atom_site_fract_y
_atom_site_fract_z
S1 S 0.01283(11) 0.80011(5) 0.61492(8)
S2 S 0.33218(11) 0.91041(6) 0.71438(8)
O1 O 0.0030(3) 0.96857(12) 0.65270(19)
N1 N -0.1012(3) 1.14777(15) 0.9043(2)
N2 N -0.2383(3) 1.09000(15) 0.7491(2)
C1 C -0.3564(4) 1.07586(19) 0.8436(3)
H1 H -0.4729 1.0472 0.8408
C2 C -0.2713(4) 1.05489(19) 0.6290(3)
H2 H -0.2101 1.0920 0.5723
H3 H -0.4070 1.0550 0.6096
C3 C -0.0848(4) 1.13407(18) 0.7880(3)
C4 C 0.1078(4) 0.8938(2) 0.6593(3)
C5 C 0.0772(5) 1.1618(2) 0.7183(3)
H4 H 0.1672 1.1924 0.7689
H5 H 0.0327 1.1990 0.6550
H6 H 0.1377 1.1120 0.6855
C6 C -0.1964(4) 0.96475(19) 0.6173(3)
H7 H -0.2636 0.9256 0.6684
H8 H -0.2122 0.9448 0.5358
C7 C -0.2701(4) 1.11138(19) 0.9392(3)
H9 H -0.3156 1.1116 1.0158
C8 C 0.0436(4) 1.1900(2) 0.9842(3)
H10 H 0.1278 1.2240 0.9346
C9 C 0.1630(5) 1.1214(2) 1.0468(3)
H11 H 0.2198 1.0850 0.9888
H12 H 0.0838 1.0872 1.0962
H13 H 0.2614 1.1485 1.0951
C10 C -0.0496(5) 1.2513(2) 1.0683(3)
H14 H -0.1229 1.2932 1.0235
H15 H 0.0465 1.2801 1.1164
H16 H -0.1321 1.2195 1.1186
loop_
_geom_bond_atom_site_label_1
_geom_bond_atom_site_label_2
_geom_bond_site_symmetry_1
_geom_bond_site_symmetry_2
S1 C4 1_555 1_555
S2 C4 1_555 1_555
O1 C4 1_555 1_555
N1 C3 1_555 1_555
N2 C1 1_555 1_555
C1 H1 1_555 1_555
C2 N2 1_555 1_555
H2 C2 1_555 1_555
H3 C2 1_555 1_555
C3 N2 1_555 1_555
C5 C3 1_555 1_555
H4 C5 1_555 1_555
H5 C5 1_555 1_555
H6 C5 1_555 1_555
C6 O1 1_555 1_555
H7 C6 1_555 1_555
H8 C6 1_555 1_555
C7 N1 1_555 1_555
H9 C7 1_555 1_555
C8 N1 1_555 1_555
H10 C8 1_555 1_555
C9 C8 1_555 1_555
H11 C9 1_555 1_555
H12 C9 1_555 1_555
H13 C9 1_555 1_555
C10 C8 1_555 1_555
H14 C10 1_555 1_555
H15 C10 1_555 1_555
H16 C10 1_555 1_555
C1 C7 1_555 1_555
C2 C6 1_555 1_555

#END
