
#######################################################################
#
#                 Cambridge Crystallographic Data Centre
#                                CCDC 
#
#######################################################################
#
# If this CIF has been generated from an entry in the Cambridge 
# Structural Database, then it will include bibliographic, chemical, 
# crystal, experimental, refinement or atomic coordinate data resulting 
# from the CCDC's data processing and validation procedures.
#
#######################################################################

data_VISWEB
_chemical_formula_moiety         'C10 H16 N2 O1 S2'
_chemical_name_systematic        
'O-(2-(2-Isopropyl-1-methyl-1H-imidazol-3-ium-3-yl)ethyl) carbonodithioate'
_symmetry_cell_setting           monoclinic
_symmetry_space_group_name_H-M   'P 21/n'
_symmetry_Int_Tables_number      14
_space_group_name_Hall           '-P 2yn'
loop_
_symmetry_equiv_pos_site_id
_symmetry_equiv_pos_as_xyz
1 x,y,z
2 1/2-x,1/2+y,1/2-z
3 -x,-y,-z
4 1/2+x,1/2-y,1/2+z
_cell_length_a                   10.7382(3)
_cell_length_b                   10.2853(3)
_cell_length_c                   11.9959(3)
_cell_angle_alpha                90
_cell_angle_beta                 114.8370(10)
_cell_angle_gamma                90
_cell_volume                     1202.35
_exptl_crystal_colour            yellow
_exptl_crystal_description       block
_cell_formula_units_Z            4
loop_
_atom_site_label
_atom_site_type_symbol
_atom_site_fract_x
_atom_site_fract_y
_atom_site_fract_z
S1 S 0.96173(6) 0.13767(5) 0.21609(5)
S2 S 0.94666(6) 0.31704(5) 0.01311(5)
O1 O 0.83619(14) 0.08280(14) -0.01105(12)
N1 N 0.60361(16) -0.06114(16) -0.16750(14)
C1 C 0.91254(19) 0.17763(19) 0.06715(18)
C2 C 0.6006(2) -0.16275(19) -0.09824(17)
N2 N 0.47721(17) -0.16014(16) -0.09459(15)
C3 C 0.4031(2) -0.0558(2) -0.16155(19)
H1 H 0.3148 -0.0326 -0.1732
C4 C 0.7823(2) 0.1032(2) -0.14188(18)
H2 H 0.8555 0.1258 -0.1656
H3 H 0.7153 0.1730 -0.1668
C5 C 0.4813(2) 0.0062(2) -0.20691(18)
H4 H 0.4577 0.0805 -0.2557
C6 C 0.7168(2) -0.2539(2) -0.03159(19)
H5 H 0.7818 -0.2435 -0.0688
C7 C 0.7159(2) -0.0233(2) -0.20086(19)
H6 H 0.6801 -0.0148 -0.2894
H7 H 0.7848 -0.0914 -0.1756
C8 C 0.7938(2) -0.2143(2) 0.1035(2)
H8 H 0.8177 -0.1238 0.1083
H9 H 0.8758 -0.2654 0.1412
H10 H 0.7361 -0.2287 0.1455
C9 C 0.6776(3) -0.3976(2) -0.0439(3)
H11 H 0.6300 -0.4196 -0.1293
H12 H 0.6190 -0.4139 -0.0031
H13 H 0.7591 -0.4496 -0.0071
C10 C 0.4217(2) -0.2531(2) -0.0349(2)
H14 H 0.4895 -0.3181 0.0068
H15 H 0.3415 -0.2939 -0.0957
H16 H 0.3975 -0.2083 0.0234
loop_
_geom_bond_atom_site_label_1
_geom_bond_atom_site_label_2
_geom_bond_site_symmetry_1
_geom_bond_site_symmetry_2
S1 C1 1_555 1_555
S2 C1 1_555 1_555
O1 C1 1_555 1_555
N1 C2 1_555 1_555
C2 N2 1_555 1_555
N2 C3 1_555 1_555
C3 H1 1_555 1_555
C4 O1 1_555 1_555
H2 C4 1_555 1_555
H3 C4 1_555 1_555
C5 N1 1_555 1_555
H4 C5 1_555 1_555
C6 C2 1_555 1_555
H5 C6 1_555 1_555
C7 N1 1_555 1_555
H6 C7 1_555 1_555
H7 C7 1_555 1_555
C8 C6 1_555 1_555
H8 C8 1_555 1_555
H9 C8 1_555 1_555
H10 C8 1_555 1_555
C9 C6 1_555 1_555
H11 C9 1_555 1_555
H12 C9 1_555 1_555
H13 C9 1_555 1_555
C10 N2 1_555 1_555
H14 C10 1_555 1_555
H15 C10 1_555 1_555
H16 C10 1_555 1_555
C3 C5 1_555 1_555
C4 C7 1_555 1_555

#END
