
#######################################################################
#
#                 Cambridge Crystallographic Data Centre
#                                CCDC 
#
#######################################################################
#
# If this CIF has been generated from an entry in the Cambridge 
# Structural Database, then it will include bibliographic, chemical, 
# crystal, experimental, refinement or atomic coordinate data resulting 
# from the CCDC's data processing and validation procedures.
#
#######################################################################

data_VISZIH
_chemical_formula_moiety         'C27 H25 N3 O9'
_chemical_name_systematic        
'2-(4-(4-acetoxy-3-(diacetylamino)phenyl)-1-acetyl-1H-pyrazol-3-yl)-5-acetoxyphenyl acetate'
_symmetry_cell_setting           monoclinic
_symmetry_space_group_name_H-M   'P 21/c'
_symmetry_Int_Tables_number      14
_space_group_name_Hall           '-P 2ybc'
loop_
_symmetry_equiv_pos_site_id
_symmetry_equiv_pos_as_xyz
1 x,y,z
2 -x,1/2+y,1/2-z
3 -x,-y,-z
4 x,1/2-y,1/2+z
_cell_length_a                   13.676(3)
_cell_length_b                   13.952(3)
_cell_length_c                   14.091(3)
_cell_angle_alpha                90
_cell_angle_beta                 99.560(4)
_cell_angle_gamma                90
_cell_volume                     2651.33
_exptl_crystal_colour            colorless
_exptl_crystal_description       plate
_chemical_melting_point          '205.4-207.3 deg.C'
_cell_formula_units_Z            4
_exptl_crystal_recrystallization_method ethanol
loop_
_atom_site_label
_atom_site_type_symbol
_atom_site_fract_x
_atom_site_fract_y
_atom_site_fract_z
N1 N 0.08283(19) 0.47568(18) 0.17578(19)
N2 N 0.51992(19) 0.64748(17) 0.09303(18)
N3 N 0.56797(18) 0.56009(18) 0.09634(18)
O1 O 0.5263(2) 0.7589(2) 0.3409(2)
O2 O 0.38378(17) 0.68076(14) 0.31312(16)
O3 O 0.3293(3) 1.0400(2) 0.1682(3)
O4 O 0.20017(16) 0.95098(18) 0.17552(17)
O5 O 0.69534(15) 0.46961(17) 0.06686(16)
O6 O 0.1315(2) 0.4720(2) 0.4338(2)
O7 O 0.13816(17) 0.35295(15) 0.33145(18)
O8 O -0.0384(2) 0.58595(18) 0.1324(2)
O9 O 0.08333(18) 0.32784(18) 0.11145(18)
C1 C 0.3519(2) 0.7382(2) 0.2304(2)
C2 C 0.2965(2) 0.8179(2) 0.2433(2)
H1 H 0.2850 0.8361 0.3040
C3 C 0.2589(2) 0.8693(2) 0.1626(3)
C4 C 0.2728(2) 0.8428(3) 0.0730(3)
H2 H 0.2444 0.8776 0.0192
C5 C 0.3304(2) 0.7626(2) 0.0638(2)
H3 H 0.3410 0.7441 0.0029
C6 C 0.3720(2) 0.7098(2) 0.1422(2)
C7 C 0.4406(2) 0.6298(2) 0.1323(2)
C8 C 0.5176(2) 0.4918(2) 0.1377(2)
H4 H 0.5364 0.4280 0.1476
C9 C 0.4356(2) 0.5325(2) 0.1618(2)
C10 C 0.3584(2) 0.4867(2) 0.2071(2)
C11 C 0.2588(2) 0.50341(19) 0.1734(2)
H5 H 0.2409 0.5444 0.1214
C12 C 0.1860(2) 0.4607(2) 0.2151(2)
C13 C 0.2120(3) 0.4001(2) 0.2920(2)
C14 C 0.3097(3) 0.3808(2) 0.3254(2)
H6 H 0.3269 0.3388 0.3767
C15 C 0.3829(2) 0.4233(2) 0.2832(2)
H7 H 0.4491 0.4093 0.3060
C16 C 0.5026(3) 0.6252(2) 0.4400(3)
H8 H 0.5630 0.5933 0.4323
H9 H 0.4505 0.5789 0.4385
H10 H 0.5121 0.6584 0.5005
C17 C 0.4753(3) 0.6951(3) 0.3606(3)
C18 C 0.1815(3) 1.1184(3) 0.1885(3)
H11 H 0.2126 1.1758 0.1706
H12 H 0.1732 1.1226 0.2547
H13 H 0.1178 1.1111 0.1486
C19 C 0.2446(4) 1.0344(3) 0.1755(3)
C20 C 0.7030(2) 0.6365(2) 0.0272(2)
H14 H 0.7640 0.6202 0.0060
H15 H 0.7156 0.6830 0.0779
H16 H 0.6576 0.6628 -0.0257
C21 C 0.6590(2) 0.5489(3) 0.0633(2)
C22 C 0.0207(3) 0.3406(3) 0.4356(3)
H17 H -0.0083 0.3776 0.4811
H18 H 0.0476 0.2823 0.4655
H19 H -0.0291 0.3255 0.3812
C23 C 0.1014(3) 0.3968(3) 0.4029(3)
C24 C 0.0950(3) 0.6365(2) 0.2510(3)
H20 H 0.1458 0.6671 0.2224
H21 H 0.1248 0.6033 0.3083
H22 H 0.0497 0.6840 0.2672
C25 C 0.0400(3) 0.5663(3) 0.1812(3)
C26 C -0.0757(2) 0.3979(3) 0.0943(3)
H23 H -0.0927 0.4449 0.0445
H24 H -0.1070 0.4141 0.1483
H25 H -0.0979 0.3359 0.0704
C27 C 0.0342(3) 0.3963(3) 0.1252(2)
loop_
_geom_bond_atom_site_label_1
_geom_bond_atom_site_label_2
_geom_bond_site_symmetry_1
_geom_bond_site_symmetry_2
N1 C12 1_555 1_555
N2 N3 1_555 1_555
N3 C8 1_555 1_555
O1 C17 1_555 1_555
O2 C1 1_555 1_555
O3 C19 1_555 1_555
O4 C3 1_555 1_555
O5 C21 1_555 1_555
O6 C23 1_555 1_555
O7 C13 1_555 1_555
O8 C25 1_555 1_555
O9 C27 1_555 1_555
C1 C2 1_555 1_555
C2 H1 1_555 1_555
C3 C2 1_555 1_555
C4 C3 1_555 1_555
H2 C4 1_555 1_555
C5 C4 1_555 1_555
H3 C5 1_555 1_555
C6 C1 1_555 1_555
C7 N2 1_555 1_555
C8 H4 1_555 1_555
C9 C7 1_555 1_555
C10 C9 1_555 1_555
C11 C10 1_555 1_555
H5 C11 1_555 1_555
C12 C11 1_555 1_555
C13 C12 1_555 1_555
C14 C13 1_555 1_555
H6 C14 1_555 1_555
C15 C10 1_555 1_555
H7 C15 1_555 1_555
C16 H8 1_555 1_555
H9 C16 1_555 1_555
H10 C16 1_555 1_555
C17 O2 1_555 1_555
C18 H11 1_555 1_555
H12 C18 1_555 1_555
H13 C18 1_555 1_555
C19 O4 1_555 1_555
C20 H14 1_555 1_555
H15 C20 1_555 1_555
H16 C20 1_555 1_555
C21 N3 1_555 1_555
C22 H17 1_555 1_555
H18 C22 1_555 1_555
H19 C22 1_555 1_555
C23 O7 1_555 1_555
C24 H20 1_555 1_555
H21 C24 1_555 1_555
H22 C24 1_555 1_555
C25 N1 1_555 1_555
C26 H23 1_555 1_555
H24 C26 1_555 1_555
H25 C26 1_555 1_555
C27 N1 1_555 1_555
C5 C6 1_555 1_555
C6 C7 1_555 1_555
C8 C9 1_555 1_555
C14 C15 1_555 1_555
C16 C17 1_555 1_555
C18 C19 1_555 1_555
C20 C21 1_555 1_555
C22 C23 1_555 1_555
C24 C25 1_555 1_555
C26 C27 1_555 1_555

#END
