
#######################################################################
#
#                 Cambridge Crystallographic Data Centre
#                                CCDC 
#
#######################################################################
#
# If this CIF has been generated from an entry in the Cambridge 
# Structural Database, then it will include bibliographic, chemical, 
# crystal, experimental, refinement or atomic coordinate data resulting 
# from the CCDC's data processing and validation procedures.
#
#######################################################################

data_VITCAE
_chemical_formula_moiety         'C10 H10 N2 O4'
_chemical_name_systematic        
'Methyl 4-cyano-5-(imino(methoxy)methyl)-2-methyl-3-furoate'
_symmetry_cell_setting           triclinic
_symmetry_space_group_name_H-M   'P -1'
_symmetry_Int_Tables_number      2
_space_group_name_Hall           '-P 1'
loop_
_symmetry_equiv_pos_site_id
_symmetry_equiv_pos_as_xyz
1 x,y,z
2 -x,-y,-z
_cell_length_a                   7.107(2)
_cell_length_b                   7.758(2)
_cell_length_c                   10.620(3)
_cell_angle_alpha                75.924(5)
_cell_angle_beta                 79.636(6)
_cell_angle_gamma                71.112(6)
_cell_volume                     534.106
_exptl_crystal_colour            colorless
_exptl_crystal_description       prismatic
_cell_formula_units_Z            2
loop_
_atom_site_label
_atom_site_type_symbol
_atom_site_fract_x
_atom_site_fract_y
_atom_site_fract_z
N1 N 0.2528(4) 0.3606(4) 0.7912(3)
N2 N 0.2435(5) 1.0602(4) 0.6238(3)
O1 O 0.2582(3) 0.9173(2) 0.89479(18)
O2 O 0.2364(4) 0.3418(3) 1.1158(2)
O3 O 0.2308(3) 0.5329(3) 1.24382(19)
O4 O 0.2738(4) 0.7662(3) 0.6045(2)
C1 C 0.2583(4) 0.8057(4) 0.8139(3)
C2 C 0.2540(4) 0.6375(4) 0.8844(3)
C3 C 0.2492(4) 0.6451(3) 1.0189(3)
C4 C 0.2548(4) 0.8182(4) 1.0185(3)
C5 C 0.2565(5) 0.9175(4) 1.1207(3)
H1 H 0.3908 0.8868 1.1417
H2 H 0.1728 0.8809 1.1975
H3 H 0.2069 1.0491 1.0893
C6 C 0.2542(4) 0.4817(4) 0.8334(3)
C7 C 0.2579(4) 0.8953(4) 0.6745(3)
C8 C 0.2838(7) 0.8275(6) 0.4652(3)
H4 H 0.1518 0.8934 0.4408
H5 H 0.3390 0.7217 0.4241
H6 H 0.3674 0.9084 0.4376
C9 C 0.2396(4) 0.4900(4) 1.1288(3)
C10 C 0.2080(6) 0.3917(5) 1.3573(3)
H7 H 0.0786 0.3741 1.3644
H8 H 0.2203 0.4301 1.4341
H9 H 0.3100 0.2771 1.3489
H10 H 0.250(6) 1.114(5) 0.685(3)
loop_
_geom_bond_atom_site_label_1
_geom_bond_atom_site_label_2
_geom_bond_site_symmetry_1
_geom_bond_site_symmetry_2
N1 C6 1_555 1_555
N2 C7 1_555 1_555
O1 C1 1_555 1_555
O2 C9 1_555 1_555
O3 C9 1_555 1_555
O4 C7 1_555 1_555
C1 C2 1_555 1_555
C2 C3 1_555 1_555
C3 C4 1_555 1_555
C4 O1 1_555 1_555
C5 C4 1_555 1_555
H1 C5 1_555 1_555
H2 C5 1_555 1_555
H3 C5 1_555 1_555
C6 C2 1_555 1_555
C7 C1 1_555 1_555
C8 O4 1_555 1_555
H4 C8 1_555 1_555
H5 C8 1_555 1_555
H6 C8 1_555 1_555
C9 C3 1_555 1_555
C10 O3 1_555 1_555
H7 C10 1_555 1_555
H8 C10 1_555 1_555
H9 C10 1_555 1_555
H10 N2 1_555 1_555

#END
