
#######################################################################
#
#                 Cambridge Crystallographic Data Centre
#                                CCDC 
#
#######################################################################
#
# If this CIF has been generated from an entry in the Cambridge 
# Structural Database, then it will include bibliographic, chemical, 
# crystal, experimental, refinement or atomic coordinate data resulting 
# from the CCDC's data processing and validation procedures.
#
#######################################################################

data_VITCUX
_chemical_formula_moiety         'C21 H23 N5 O2,0.5(C1 H2 Cl2)'
_chemical_name_systematic        
"(+-)-(1RS)-(Z)-2'-amino-4'-(benzyloxy)-3,4-dimethylspiro(cyclohex-3-ene-1,7'-pyrimido(4,5-b)(1,4)diazepin)-8'(9'H)-one dichloromethane solvate"
_symmetry_cell_setting           triclinic
_symmetry_space_group_name_H-M   'P -1'
_symmetry_Int_Tables_number      2
_space_group_name_Hall           '-P 1'
loop_
_symmetry_equiv_pos_site_id
_symmetry_equiv_pos_as_xyz
1 x,y,z
2 -x,-y,-z
_cell_length_a                   13.9256(10)
_cell_length_b                   17.2683(14)
_cell_length_c                   18.013(2)
_cell_angle_alpha                92.962(3)
_cell_angle_beta                 106.058(3)
_cell_angle_gamma                90.082(4)
_cell_volume                     4156.48
_exptl_crystal_colour            colorless
_exptl_crystal_description       plate
_chemical_melting_point          '203.8-205.0 deg.C (dec.)'
_cell_formula_units_Z            8
_exptl_crystal_recrystallization_method n-butanol/dichloromethane
loop_
_atom_site_label
_atom_site_type_symbol
_atom_site_fract_x
_atom_site_fract_y
_atom_site_fract_z
O3 O 0.37104 -0.16906 0.81989
O4 O 0.46710 0.15619 0.67629
N6 N 0.47506 -0.09629 0.77582
N7 N 0.35895 0.04644 0.71599
N8 N 0.74723 0.01115 0.72205
N9 N 0.61123 -0.04191 0.75098
N10 N 0.60862 0.08527 0.69932
C22 C 0.51420 -0.03018 0.75136
C23 C 0.46206 0.03461 0.72768
C24 C 0.30879 0.01420 0.75723
C25 C 0.34659 -0.03190 0.82882
C26 C 0.39576 -0.10531 0.80685
C27 C 0.65476 0.01822 0.72456
C28 C 0.51540 0.09166 0.70050
C29 C 0.52283 0.21830 0.65278
C30 C 0.44875 0.27055 0.60415
C31 C 0.44207 0.27255 0.52409
C32 C 0.36843 0.32873 0.48429
C33 C 0.31050 0.36652 0.51477
C34 C 0.32287 0.36684 0.59254
C35 C 0.39106 0.32025 0.63480
C36 C 0.25681 -0.05278 0.85682
C37 C 0.21149 0.01701 0.88687
C38 C 0.26743 0.08083 0.91625
C39 C 0.37482 0.09014 0.91720
C40 C 0.41863 0.01609 0.89409
C41 C 0.10546 0.00783 0.88858
C42 C 0.22673 0.15238 0.94890
H26 H 0.50589 -0.13845 0.77052
H27 H 0.23991 0.02012 0.74063
H28 H 0.77583 0.04782 0.70507
H29 H 0.77950 -0.03016 0.73738
H30 H 0.56392 0.24721 0.69806
H31 H 0.56609 0.19641 0.62346
H32 H 0.48004 0.24177 0.49947
H33 H 0.36445 0.33687 0.43289
H34 H 0.25888 0.39443 0.48396
H35 H 0.28467 0.39884 0.61584
H36 H 0.39982 0.32163 0.68794
H37 H 0.27729 -0.08885 0.89760
H38 H 0.20652 -0.07864 0.81444
H39 H 0.38013 0.12964 0.88209
H40 H 0.41347 0.10786 0.96881
H41 H 0.47755 0.02875 0.87809
H42 H 0.43970 -0.01506 0.93889
H43 H 0.06163 0.02345 0.84072
H44 H 0.09203 -0.04548 0.89539
H45 H 0.09457 0.03964 0.93071
H46 H 0.18125 0.13688 0.97707
H47 H 0.28097 0.18216 0.98298
H48 H 0.19223 0.18335 0.90728
O5 O 0.12776 0.60941 0.16936
O6 O 0.03780 0.94691 0.31841
N11 N 0.02486 0.68514 0.21458
N12 N 0.14350 0.83171 0.27935
N13 N -0.24859 0.79823 0.26666
N14 N -0.11157 0.74488 0.23818
N15 N -0.10787 0.87569 0.29203
C43 C -0.01497 0.75265 0.23871
C44 C 0.03927 0.82084 0.26535
C45 C 0.19313 0.79481 0.23960
C46 C 0.15128 0.74677 0.16325
C47 C 0.09846 0.67496 0.18091
C48 C -0.15204 0.80572 0.26608
C49 C -0.01533 0.87972 0.29021
C50 C -0.01419 1.01172 0.34575
C51 C 0.06488 1.06576 0.39543
C52 C 0.09623 1.12565 0.36645
C53 C 0.16906 1.17871 0.41320
C54 C 0.20568 1.16677 0.48874
C55 C 0.18054 1.10401 0.52154
C56 C 0.10998 1.05009 0.47278
C57 C 0.24018 0.72444 0.13118
C58 C 0.28799 0.79469 0.10703
C59 C 0.23497 0.86067 0.08953
C60 C 0.12779 0.86828 0.08945
C61 C 0.07816 0.79288 0.10136
C62 C 0.39057 0.78280 0.10476
C63 C 0.28163 0.93484 0.07204
H49 H -0.05693 0.99283 0.37547
H50 H -0.05518 1.03825 0.30222
H51 H 0.29005 0.69880 0.17048
H52 H 0.21703 0.68804 0.08689
H53 H 0.09044 0.88796 0.04051
H54 H 0.12387 0.90625 0.13008
H55 H 0.05819 0.76192 0.05295
H56 H 0.01869 0.80443 0.11767
H57 H 0.40402 0.81287 0.06530
H58 H 0.39994 0.72885 0.09347
H59 H 0.43543 0.79883 0.15401
H60 H 0.35110 0.93755 0.10024
H61 H 0.24802 0.97883 0.08724
H62 H 0.27523 0.93493 0.01759
H63 H -0.00253 0.64293 0.22273
H64 H 0.26235 0.79727 0.25899
H65 H -0.28100 0.75560 0.24951
H66 H -0.27753 0.83611 0.28417
H67 H 0.07028 1.13369 0.31408
H68 H 0.19088 1.22090 0.39180
H69 H 0.25024 1.20321 0.51983
H70 H 0.20809 1.09623 0.57381
H71 H 0.09393 1.00454 0.49236
O7 O 0.63711 0.66562 0.17271
O8 O 0.84034 0.34448 0.32256
N16 N 0.77455 0.59475 0.21785
N17 N 0.70434 0.45578 0.28131
N18 N 1.08741 0.48859 0.27039
N19 N 0.92897 0.54089 0.24122
N20 N 0.96481 0.41630 0.29569
C64 C 0.83283 0.52941 0.24178
C65 C 0.79848 0.46660 0.26821
C66 C 0.62493 0.48549 0.24008
C67 C 0.61407 0.52779 0.16557
C68 C 0.67457 0.60156 0.18592
C69 C 0.98877 0.48263 0.26711
C70 C 0.87134 0.40894 0.29419
C71 C 0.91695 0.28709 0.34869
C72 C 0.87861 0.23328 0.39605
C73 C 0.92749 0.22959 0.47461
C74 C 0.89174 0.18040 0.52037
C75 C 0.80595 0.13733 0.48535
C76 C 0.76476 0.13593 0.40825
C77 C 0.80066 0.18374 0.36676
C78 C 0.50222 0.54552 0.13392
C79 C 0.43518 0.47459 0.10463
C80 C 0.47457 0.40804 0.08412
C81 C 0.58521 0.39887 0.08685
C82 C 0.64197 0.47649 0.10277
C83 C 0.33120 0.48339 0.09890
C84 C 0.41370 0.33405 0.05494
H24 H 1.10894 0.52972 0.25527
H25 H 1.12603 0.45126 0.28672
H72 H 0.80784 0.63774 0.22455
H73 H 0.56786 0.48104 0.25690
H74 H 0.97851 0.31219 0.37942
H75 H 0.93024 0.25889 0.30470
H76 H 0.98429 0.26014 0.49663
H77 H 0.92447 0.17672 0.57256
H78 H 0.77610 0.10878 0.51559
H79 H 0.71201 0.10200 0.38450
H80 H 0.77001 0.18308 0.31383
H81 H 0.48008 0.57270 0.17456
H82 H 0.49413 0.58011 0.09194
H83 H 0.61621 0.36421 0.12703
H84 H 0.58985 0.37551 0.03785
H85 H 0.62761 0.50387 0.05534
H86 H 0.71318 0.46697 0.11886
H87 H 0.30154 0.51585 0.05720
H88 H 0.32383 0.50679 0.14649
H89 H 0.29851 0.43342 0.08917
H90 H 0.34422 0.34408 0.04881
H91 H 0.43537 0.29482 0.09156
H92 H 0.42303 0.31649 0.00601
Cl1 Cl 0.51554 0.06868 0.45872
C85 C 0.57496 -0.02319 0.49722
Cl1A Cl 0.48446 -0.06868 0.54128
C85A C 0.42504 0.02319 0.50278
O1 O 0.13961 0.10913 0.17546
O2 O 0.33117 0.45156 0.31284
N1 N 0.27259 0.18625 0.21854
N2 N 0.19811 0.33413 0.27468
N3 N 0.58480 0.29974 0.27499
N4 N 0.42673 0.24515 0.24408
N5 N 0.46125 0.37734 0.29252
C1 C 0.33247 0.25400 0.24215
C2 C 0.29158 0.32370 0.26382
C3 C 0.11896 0.29820 0.23416
C4 C 0.10926 0.24437 0.16184
C5 C 0.17322 0.17573 0.18565
C6 C 0.48873 0.30781 0.27123
C7 C 0.36399 0.38338 0.28911
C8 C 0.40324 0.51472 0.34188
C9 C 0.35874 0.56841 0.39324
C10 C 0.30413 0.62947 0.36486
C11 C 0.26969 0.67822 0.41619
C12 C 0.28784 0.66679 0.49155
C13 C 0.33468 0.60132 0.51874
C14 C 0.37235 0.55007 0.47010
C15 C 0.07955 0.36168 0.07957
C16 C -0.02825 0.35478 0.07926
C17 C -0.06717 0.29096 0.10161
C18 C -0.00135 0.22204 0.13162
C19 C 0.13723 0.28700 0.09644
C20 C -0.17020 0.28312 0.09853
C21 C -0.08939 0.42578 0.05038
H1 H 0.30527 0.14385 0.22652
H2 H 0.06145 0.30544 0.25019
H3 H 0.62566 0.33841 0.29059
H4 H 0.60611 0.25586 0.26181
H5 H 0.41419 0.54237 0.29934
H6 H 0.46663 0.49483 0.37149
H7 H 0.28953 0.63918 0.31264
H8 H 0.23213 0.72087 0.39677
H9 H 0.26872 0.70302 0.52453
H10 H 0.34222 0.58984 0.56990
H11 H 0.40534 0.50529 0.48880
H12 H 0.11200 0.40171 0.11816
H13 H 0.08250 0.37809 0.02954
H14 H -0.02319 0.20022 0.17289
H15 H -0.00992 0.18230 0.09013
H16 H 0.20835 0.29878 0.11188
H17 H 0.12254 0.25324 0.04982
H18 H -0.18070 0.30450 0.14587
H19 H -0.18929 0.22922 0.09178
H20 H -0.20995 0.31038 0.05585
H21 H -0.12674 0.41589 -0.00270
H22 H -0.04533 0.46957 0.05448
H23 H -0.13460 0.43659 0.08116
Cl2? Cl 0.04399 0.43532 0.54374
loop_
_geom_bond_atom_site_label_1
_geom_bond_atom_site_label_2
_geom_bond_site_symmetry_1
_geom_bond_site_symmetry_2
O1 C5 1_555 1_555
O2 C7 1_555 1_555
N1 C1 1_555 1_555
N2 C2 1_555 1_555
N3 C6 1_555 1_555
N4 C1 1_555 1_555
N5 C6 1_555 1_555
C1 C2 1_555 1_555
C2 C7 1_555 1_555
C3 N2 1_555 1_555
C4 C3 1_555 1_555
C5 N1 1_555 1_555
C6 N4 1_555 1_555
C7 N5 1_555 1_555
C8 O2 1_555 1_555
C9 C8 1_555 1_555
C10 C9 1_555 1_555
C11 C10 1_555 1_555
C12 C11 1_555 1_555
C13 C12 1_555 1_555
C14 C9 1_555 1_555
C15 C16 1_555 1_555
C16 C17 1_555 1_555
C17 C18 1_555 1_555
C18 C4 1_555 1_555
C19 C4 1_555 1_555
C20 C17 1_555 1_555
C21 C16 1_555 1_555
O3 C26 1_555 1_555
O4 C28 1_555 1_555
N6 C22 1_555 1_555
N7 C23 1_555 1_555
N8 C27 1_555 1_555
N9 C22 1_555 1_555
N10 C27 1_555 1_555
C22 C23 1_555 1_555
C23 C28 1_555 1_555
C24 N7 1_555 1_555
C25 C24 1_555 1_555
C26 N6 1_555 1_555
C27 N9 1_555 1_555
C28 N10 1_555 1_555
C29 O4 1_555 1_555
C30 C29 1_555 1_555
C31 C30 1_555 1_555
C32 C31 1_555 1_555
C33 C32 1_555 1_555
C34 C33 1_555 1_555
C35 C30 1_555 1_555
C36 C25 1_555 1_555
C37 C36 1_555 1_555
C38 C37 1_555 1_555
C39 C38 1_555 1_555
C40 C25 1_555 1_555
C41 C37 1_555 1_555
C42 C38 1_555 1_555
O5 C47 1_555 1_555
O6 C49 1_555 1_555
N11 C43 1_555 1_555
N12 C44 1_555 1_555
N13 C48 1_555 1_555
N14 C43 1_555 1_555
N15 C48 1_555 1_555
C43 C44 1_555 1_555
C44 C49 1_555 1_555
C45 N12 1_555 1_555
C46 C45 1_555 1_555
C47 N11 1_555 1_555
C48 N14 1_555 1_555
C49 N15 1_555 1_555
C50 O6 1_555 1_555
C51 C50 1_555 1_555
C52 C51 1_555 1_555
C53 C52 1_555 1_555
C54 C53 1_555 1_555
C55 C54 1_555 1_555
C56 C51 1_555 1_555
C57 C46 1_555 1_555
C58 C57 1_555 1_555
C59 C58 1_555 1_555
C60 C59 1_555 1_555
C61 C46 1_555 1_555
C62 C58 1_555 1_555
C63 C59 1_555 1_555
O7 C68 1_555 1_555
O8 C70 1_555 1_555
N16 C64 1_555 1_555
N17 C65 1_555 1_555
N18 C69 1_555 1_555
N19 C64 1_555 1_555
N20 C69 1_555 1_555
C64 C65 1_555 1_555
C65 C70 1_555 1_555
C66 N17 1_555 1_555
C67 C66 1_555 1_555
C68 N16 1_555 1_555
C69 N19 1_555 1_555
C70 N20 1_555 1_555
C71 O8 1_555 1_555
C72 C71 1_555 1_555
C73 C72 1_555 1_555
C74 C73 1_555 1_555
C75 C74 1_555 1_555
C76 C75 1_555 1_555
C77 C72 1_555 1_555
C78 C67 1_555 1_555
C79 C78 1_555 1_555
C80 C79 1_555 1_555
C81 C80 1_555 1_555
C82 C67 1_555 1_555
C83 C79 1_555 1_555
C84 C80 1_555 1_555
Cl1 C85 1_555 1_555
C85 Cl1A 1_555 1_555
H1 N1 1_555 1_555
H2 C3 1_555 1_555
H3 N3 1_555 1_555
H4 N3 1_555 1_555
H5 C8 1_555 1_555
H6 C8 1_555 1_555
H7 C10 1_555 1_555
H8 C11 1_555 1_555
H9 C12 1_555 1_555
H10 C13 1_555 1_555
H11 C14 1_555 1_555
H12 C15 1_555 1_555
H13 C15 1_555 1_555
H14 C18 1_555 1_555
H15 C18 1_555 1_555
H16 C19 1_555 1_555
H17 C19 1_555 1_555
H18 C20 1_555 1_555
H19 C20 1_555 1_555
H20 C20 1_555 1_555
H21 C21 1_555 1_555
H22 C21 1_555 1_555
H23 C21 1_555 1_555
H24 N18 1_555 1_555
H25 N18 1_555 1_555
H26 N6 1_555 1_555
H27 C24 1_555 1_555
H28 N8 1_555 1_555
H29 N8 1_555 1_555
H30 C29 1_555 1_555
H31 C29 1_555 1_555
H32 C31 1_555 1_555
H33 C32 1_555 1_555
H34 C33 1_555 1_555
H35 C34 1_555 1_555
H36 C35 1_555 1_555
H37 C36 1_555 1_555
H38 C36 1_555 1_555
H39 C39 1_555 1_555
H40 C39 1_555 1_555
H41 C40 1_555 1_555
H42 C40 1_555 1_555
H43 C41 1_555 1_555
H44 C41 1_555 1_555
H45 C41 1_555 1_555
H46 C42 1_555 1_555
H47 C42 1_555 1_555
H48 C42 1_555 1_555
H49 C50 1_555 1_555
H50 C50 1_555 1_555
H51 C57 1_555 1_555
H52 C57 1_555 1_555
H53 C60 1_555 1_555
H54 C60 1_555 1_555
H55 C61 1_555 1_555
H56 C61 1_555 1_555
H57 C62 1_555 1_555
H58 C62 1_555 1_555
H59 C62 1_555 1_555
H60 C63 1_555 1_555
H61 C63 1_555 1_555
H62 C63 1_555 1_555
H63 N11 1_555 1_555
H64 C45 1_555 1_555
H65 N13 1_555 1_555
H66 N13 1_555 1_555
H67 C52 1_555 1_555
H68 C53 1_555 1_555
H69 C54 1_555 1_555
H70 C55 1_555 1_555
H71 C56 1_555 1_555
H72 N16 1_555 1_555
H73 C66 1_555 1_555
H74 C71 1_555 1_555
H75 C71 1_555 1_555
H76 C73 1_555 1_555
H77 C74 1_555 1_555
H78 C75 1_555 1_555
H79 C76 1_555 1_555
H80 C77 1_555 1_555
H81 C78 1_555 1_555
H82 C78 1_555 1_555
H83 C81 1_555 1_555
H84 C81 1_555 1_555
H85 C82 1_555 1_555
H86 C82 1_555 1_555
H87 C83 1_555 1_555
H88 C83 1_555 1_555
H89 C83 1_555 1_555
H90 C84 1_555 1_555
H91 C84 1_555 1_555
H92 C84 1_555 1_555
Cl1A C85A 1_555 1_555
C85A Cl1 1_555 1_555
C4 C5 1_555 1_555
C13 C14 1_555 1_555
C15 C19 1_555 1_555
C25 C26 1_555 1_555
C34 C35 1_555 1_555
C39 C40 1_555 1_555
C46 C47 1_555 1_555
C55 C56 1_555 1_555
C60 C61 1_555 1_555
C67 C68 1_555 1_555
C76 C77 1_555 1_555
C81 C82 1_555 1_555

#END
