
#######################################################################
#
#                 Cambridge Crystallographic Data Centre
#                                CCDC 
#
#######################################################################
#
# If this CIF has been generated from an entry in the Cambridge 
# Structural Database, then it will include bibliographic, chemical, 
# crystal, experimental, refinement or atomic coordinate data resulting 
# from the CCDC's data processing and validation procedures.
#
#######################################################################

data_VITGAJ
_chemical_formula_moiety         'C25 H25 N1'
_chemical_name_systematic        N,N-dibenzyl-5-phenylpenta-2,4-dien-1-amine
_symmetry_cell_setting           orthorhombic
_symmetry_space_group_name_H-M   'P n a 21'
_symmetry_Int_Tables_number      33
_space_group_name_Hall           'P 2c -2n'
loop_
_symmetry_equiv_pos_site_id
_symmetry_equiv_pos_as_xyz
1 x,y,z
2 -x,-y,1/2+z
3 1/2+x,1/2-y,z
4 1/2-x,1/2+y,1/2+z
_cell_length_a                   19.430(5)
_cell_length_b                   16.292(4)
_cell_length_c                   6.4481(15)
_cell_angle_alpha                90
_cell_angle_beta                 90
_cell_angle_gamma                90
_cell_volume                     2041.17
_exptl_crystal_colour            colorless
_exptl_crystal_description       block
_cell_formula_units_Z            4
loop_
_atom_site_label
_atom_site_type_symbol
_atom_site_fract_x
_atom_site_fract_y
_atom_site_fract_z
C1 C 1.10608(9) 0.54329(10) 0.2054(4)
C2 C 1.15367(11) 0.54364(11) 0.0445(4)
H1 H 1.1437 0.5727 -0.0760
C3 C 1.21517(11) 0.50205(15) 0.0588(4)
H2 H 1.2465 0.5038 -0.0502
C4 C 1.23014(11) 0.45804(13) 0.2345(5)
H3 H 1.2718 0.4302 0.2453
C5 C 1.18385(11) 0.45524(13) 0.3935(4)
H4 H 1.1937 0.4246 0.5115
C6 C 1.12243(11) 0.49778(12) 0.3800(4)
H5 H 1.0916 0.4958 0.4901
C7 C 1.04259(9) 0.59131(11) 0.1838(4)
H6 H 1.0344 0.6136 0.0532
C8 C 0.99536(9) 0.60696(10) 0.3269(3)
H7 H 1.0010 0.5829 0.4565
C9 C 0.93559(9) 0.65886(11) 0.2961(4)
H8 H 0.9292 0.6809 0.1644
C10 C 0.88915(9) 0.67773(12) 0.4397(4)
H9 H 0.8961 0.6566 0.5720
C11 C 0.82707(9) 0.72957(12) 0.4074(4)
H10 H 0.8270 0.7499 0.2660
H11 H 0.7862 0.6961 0.4259
C12 C 0.87660(10) 0.86151(12) 0.5013(4)
H12 H 0.8604 0.8950 0.3869
H13 H 0.9184 0.8341 0.4569
C13 C 0.89270(9) 0.91592(12) 0.6820(4)
C14 C 0.87975(10) 0.99966(13) 0.6789(4)
H14 H 0.8592 1.0231 0.5629
C15 C 0.89694(12) 1.04873(15) 0.8454(4)
H15 H 0.8872 1.1046 0.8415
C16 C 0.92828(12) 1.01579(19) 1.0162(5)
H16 H 0.9404 1.0490 1.1276
C17 C 0.94168(11) 0.93267(19) 1.0212(4)
H17 H 0.9633 0.9097 1.1361
C18 C 0.92314(10) 0.88349(15) 0.8560(4)
H18 H 0.9314 0.8273 0.8626
C19 C 0.75566(9) 0.83755(12) 0.5497(4)
H19 H 0.7402 0.8430 0.4073
H20 H 0.7590 0.8922 0.6084
C20 C 0.70290(9) 0.78910(10) 0.6700(3)
C21 C 0.63692(10) 0.77913(12) 0.5945(4)
H21 H 0.6256 0.7988 0.4634
C22 C 0.58753(11) 0.73986(14) 0.7134(5)
H22 H 0.5432 0.7334 0.6619
C23 C 0.60354(11) 0.71054(13) 0.9057(5)
H23 H 0.5701 0.6843 0.9849
C24 C 0.66899(11) 0.71971(13) 0.9821(4)
H24 H 0.6801 0.6998 1.1131
C25 C 0.71830(10) 0.75863(13) 0.8631(4)
H25 H 0.7627 0.7643 0.9148
N1 N 0.82424(7) 0.79949(9) 0.5510(3)
loop_
_geom_bond_atom_site_label_1
_geom_bond_atom_site_label_2
_geom_bond_site_symmetry_1
_geom_bond_site_symmetry_2
C1 C2 1_555 1_555
C2 H1 1_555 1_555
C3 C2 1_555 1_555
H2 C3 1_555 1_555
C4 C3 1_555 1_555
H3 C4 1_555 1_555
C5 C4 1_555 1_555
H4 C5 1_555 1_555
C6 C1 1_555 1_555
H5 C6 1_555 1_555
C7 C1 1_555 1_555
H6 C7 1_555 1_555
C8 C7 1_555 1_555
H7 C8 1_555 1_555
C9 C8 1_555 1_555
H8 C9 1_555 1_555
C10 C9 1_555 1_555
H9 C10 1_555 1_555
C11 C10 1_555 1_555
H10 C11 1_555 1_555
H11 C11 1_555 1_555
C12 H12 1_555 1_555
H13 C12 1_555 1_555
C13 C12 1_555 1_555
C14 C13 1_555 1_555
H14 C14 1_555 1_555
C15 C14 1_555 1_555
H15 C15 1_555 1_555
C16 C15 1_555 1_555
H16 C16 1_555 1_555
C17 C16 1_555 1_555
H17 C17 1_555 1_555
C18 C13 1_555 1_555
H18 C18 1_555 1_555
C19 H19 1_555 1_555
H20 C19 1_555 1_555
C20 C19 1_555 1_555
C21 C20 1_555 1_555
H21 C21 1_555 1_555
C22 C21 1_555 1_555
H22 C22 1_555 1_555
C23 C22 1_555 1_555
H23 C23 1_555 1_555
C24 C23 1_555 1_555
H24 C24 1_555 1_555
C25 C20 1_555 1_555
H25 C25 1_555 1_555
N1 C11 1_555 1_555
C5 C6 1_555 1_555
C12 N1 1_555 1_555
C17 C18 1_555 1_555
C19 N1 1_555 1_555
C24 C25 1_555 1_555

#END
