
#######################################################################
#
#                 Cambridge Crystallographic Data Centre
#                                CCDC 
#
#######################################################################
#
# If this CIF has been generated from an entry in the Cambridge 
# Structural Database, then it will include bibliographic, chemical, 
# crystal, experimental, refinement or atomic coordinate data resulting 
# from the CCDC's data processing and validation procedures.
#
#######################################################################

data_VITMAO
_chemical_formula_moiety         'C18 H16 N5 3+,C10 H4 O8 2-,N1 O3 1-'
_chemical_name_systematic        
"4,4',4''-(Imidazol-2,4,5-triyl)tris(pyridinium) dihydrogen benzene-1,2,4,5-tetracarboxylate nitrate"
_symmetry_cell_setting           monoclinic
_symmetry_space_group_name_H-M   'C 2/c'
_symmetry_Int_Tables_number      15
_space_group_name_Hall           '-C 2yn'
loop_
_symmetry_equiv_pos_site_id
_symmetry_equiv_pos_as_xyz
1 x,y,z
2 -x,y,1/2-z
3 1/2+x,1/2+y,z
4 1/2-x,1/2+y,1/2-z
5 -x,-y,-z
6 x,-y,1/2+z
7 1/2-x,1/2-y,-z
8 1/2+x,1/2-y,1/2+z
_cell_length_a                   20.243(4)
_cell_length_b                   18.774(4)
_cell_length_c                   13.784(3)
_cell_angle_alpha                90
_cell_angle_beta                 98.48(3)
_cell_angle_gamma                90
_cell_volume                     5181.23
_exptl_crystal_colour            yellow
_exptl_crystal_description       BLOCK
_cell_formula_units_Z            8
loop_
_atom_site_label
_atom_site_type_symbol
_atom_site_fract_x
_atom_site_fract_y
_atom_site_fract_z
O1 O -0.24987(8) 0.07546(9) 0.2971(2)
H1 H -0.2212 0.0438 0.2890
O2 O -0.25957(7) 0.18448(9) 0.34497(15)
O3 O -0.06564(7) -0.02946(7) 0.37862(16)
O4 O -0.16373(9) -0.01178(8) 0.29182(15)
O5 O 0.08674(6) 0.25661(8) 0.38722(12)
O6 O 0.09963(7) 0.14111(8) 0.39653(14)
O7 O 0.00182(7) 0.34574(7) 0.37642(15)
H2 H 0.0332 0.3153 0.3818
O8 O -0.10487(7) 0.35223(8) 0.32885(16)
C1 C -0.22449(10) 0.13494(11) 0.32893(18)
C2 C -0.14916(9) 0.14328(9) 0.34292(14)
C3 C -0.09928(9) 0.09040(9) 0.35078(14)
C4 C -0.03301(9) 0.11221(9) 0.36699(14)
H3 H -0.0002 0.0771 0.3758
C5 C -0.01242(8) 0.18284(9) 0.37097(14)
C6 C -0.06239(9) 0.23592(9) 0.36001(14)
C7 C -0.12849(9) 0.21390(9) 0.34920(15)
H4 H -0.1613 0.2489 0.3459
C8 C -0.11029(10) 0.01035(10) 0.34138(17)
C9 C 0.06339(9) 0.19282(10) 0.38608(15)
C10 C -0.05495(10) 0.31616(10) 0.35440(17)
O9 O 0.33870(11) -0.02730(12) 0.4998(2)
O10 O 0.36644(10) 0.07393(11) 0.5664(2)
O11 O 0.26995(10) 0.05742(11) 0.4884(2)
N1 N 0.32583(10) 0.03470(11) 0.51918(18)
N2 N 0.56452(8) -0.00931(8) 0.17226(15)
H5 H 0.5722 -0.0543 0.1771
N3 N 0.78302(8) 0.27153(10) 0.13575(14)
H6 H 0.8257 0.2720 0.1384
N4 N 0.30023(9) 0.43200(11) 0.07093(15)
H7 H 0.2647 0.4575 0.0585
N5 N 0.46702(7) 0.23457(8) 0.12597(12)
N6 N 0.53601(7) 0.32661(7) 0.12357(12)
H8 H 0.5497 0.3699 0.1217
C11 C 0.50734(10) 0.01315(10) 0.12077(17)
H9 H 0.4755 -0.0197 0.0935
C12 C 0.49550(9) 0.08488(10) 0.10808(16)
H10 H 0.4557 0.1008 0.0722
C13 C 0.54349(9) 0.13359(9) 0.14926(15)
C14 C 0.60038(9) 0.10745(10) 0.20729(16)
H11 H 0.6317 0.1387 0.2399
C15 C 0.61001(10) 0.03560(11) 0.21620(18)
H12 H 0.6487 0.0180 0.2533
C16 C 0.53094(8) 0.21007(9) 0.13452(14)
C17 C 0.57512(9) 0.26650(9) 0.13107(14)
C18 C 0.64761(8) 0.26899(9) 0.13145(15)
C19 C 0.68099(9) 0.21097(10) 0.09735(16)
H13 H 0.6572 0.1712 0.0716
C20 C 0.74900(10) 0.21329(11) 0.10219(17)
H14 H 0.7717 0.1742 0.0821
C21 C 0.75261(10) 0.32888(11) 0.16526(18)
H15 H 0.7774 0.3690 0.1869
C22 C 0.68448(9) 0.32861(10) 0.16366(17)
H16 H 0.6632 0.3686 0.1843
C23 C 0.47137(8) 0.30475(9) 0.11962(14)
C24 C 0.41266(9) 0.35112(10) 0.10617(14)
C25 C 0.34937(9) 0.31968(11) 0.09795(17)
H17 H 0.3451 0.2707 0.1047
C26 C 0.29403(10) 0.36188(14) 0.07990(18)
H18 H 0.2517 0.3415 0.0738
C27 C 0.35936(12) 0.46403(13) 0.08043(19)
H19 H 0.3619 0.5133 0.0750
C28 C 0.41646(10) 0.42443(10) 0.09825(17)
H20 H 0.4579 0.4467 0.1051
loop_
_geom_bond_atom_site_label_1
_geom_bond_atom_site_label_2
_geom_bond_site_symmetry_1
_geom_bond_site_symmetry_2
O1 H1 1_555 1_555
O2 C1 1_555 1_555
O3 C8 1_555 1_555
O4 C8 1_555 1_555
O5 C9 1_555 1_555
O6 C9 1_555 1_555
O7 H2 1_555 1_555
O8 C10 1_555 1_555
C1 O1 1_555 1_555
C2 C1 1_555 1_555
C3 C2 1_555 1_555
C4 C3 1_555 1_555
H3 C4 1_555 1_555
C5 C4 1_555 1_555
C6 C5 1_555 1_555
C7 C2 1_555 1_555
H4 C7 1_555 1_555
C8 C3 1_555 1_555
C9 C5 1_555 1_555
C10 O7 1_555 1_555
O9 N1 1_555 1_555
O10 N1 1_555 1_555
O11 N1 1_555 1_555
N2 H5 1_555 1_555
N3 H6 1_555 1_555
N4 H7 1_555 1_555
N5 C16 1_555 1_555
N6 H8 1_555 1_555
C11 N2 1_555 1_555
H9 C11 1_555 1_555
C12 C11 1_555 1_555
H10 C12 1_555 1_555
C13 C12 1_555 1_555
C14 C13 1_555 1_555
H11 C14 1_555 1_555
C15 N2 1_555 1_555
H12 C15 1_555 1_555
C16 C13 1_555 1_555
C17 N6 1_555 1_555
C18 C17 1_555 1_555
C19 C18 1_555 1_555
H13 C19 1_555 1_555
C20 N3 1_555 1_555
H14 C20 1_555 1_555
C21 N3 1_555 1_555
H15 C21 1_555 1_555
C22 C18 1_555 1_555
H16 C22 1_555 1_555
C23 N5 1_555 1_555
C24 C23 1_555 1_555
C25 C24 1_555 1_555
H17 C25 1_555 1_555
C26 N4 1_555 1_555
H18 C26 1_555 1_555
C27 N4 1_555 1_555
H19 C27 1_555 1_555
C28 C24 1_555 1_555
H20 C28 1_555 1_555
C6 C7 1_555 1_555
C6 C10 1_555 1_555
N6 C23 1_555 1_555
C14 C15 1_555 1_555
C16 C17 1_555 1_555
C19 C20 1_555 1_555
C21 C22 1_555 1_555
C25 C26 1_555 1_555
C27 C28 1_555 1_555

#END
