
#######################################################################
#
#                 Cambridge Crystallographic Data Centre
#                                CCDC 
#
#######################################################################
#
# If this CIF has been generated from an entry in the Cambridge 
# Structural Database, then it will include bibliographic, chemical, 
# crystal, experimental, refinement or atomic coordinate data resulting 
# from the CCDC's data processing and validation procedures.
#
#######################################################################

data_VITNOC
_chemical_formula_moiety         'C10 H11 Cl1 I1 N1 O1'
_chemical_name_systematic        
'(Z)-N-Isopropoxy-4-chlorobenzencarboximidoyl iodide'
_symmetry_cell_setting           monoclinic
_symmetry_space_group_name_H-M   'P 21/n'
_symmetry_Int_Tables_number      14
_space_group_name_Hall           '-P 2yn'
loop_
_symmetry_equiv_pos_site_id
_symmetry_equiv_pos_as_xyz
1 x,y,z
2 1/2-x,1/2+y,1/2-z
3 -x,-y,-z
4 1/2+x,1/2-y,1/2+z
_cell_length_a                   15.670(4)
_cell_length_b                   5.742(4)
_cell_length_c                   27.156(7)
_cell_angle_alpha                90
_cell_angle_beta                 102.71(2)
_cell_angle_gamma                90
_cell_volume                     2383.55
_exptl_crystal_colour            colorless
_chemical_melting_point          46.9-47.5deg.C
_cell_formula_units_Z            8
loop_
_atom_site_label
_atom_site_type_symbol
_atom_site_fract_x
_atom_site_fract_y
_atom_site_fract_z
I1 I 0.92589(7) 0.55861(22) 0.19632(4)
Cl2 Cl 0.8178(3) 1.1978(8) -0.03862(16)
O1 O 1.0708(5) 0.2995(18) 0.1668(3)
N1 N 1.0396(7) 0.4393(21) 0.1260(4)
C1 C 0.8651(9) 1.021(3) 0.0117(6)
C2 C 0.9044(9) 0.814(3) 0.0028(6)
C3 C 0.9399(9) 0.671(3) 0.0419(6)
C4 C 0.9367(8) 0.731(3) 0.0900(5)
C5 C 0.8963(9) 0.930(3) 0.0994(5)
C6 C 0.8592(9) 1.0766(25) 0.0601(7)
C7 C 0.9769(9) 0.5782(23) 0.1313(5)
C8 C 1.1378(8) 0.153(3) 0.1557(5)
C9 C 1.1597(12) -0.004(3) 0.1987(7)
C10 C 1.2147(11) 0.307(4) 0.1496(7)
H1 H 0.907 0.775 -0.031
H2 H 0.965 0.524 0.037
H3 H 0.897 0.970 0.133
H4 H 0.833 1.219 0.066
H5 H 1.118 0.067 0.125
H12 H 1.228 0.357 0.184
H13 H 1.197 0.434 0.127
H14 H 1.261 0.227 0.140
H18 H 1.173 0.022 0.234
H19 H 1.211 -0.082 0.195
H20 H 1.116 -0.122 0.194
I2 I 0.71846(7) 1.08714(25) 0.19643(4)
Cl1 Cl 0.6515(3) 1.6969(8) -0.04206(16)
O2 O 0.5552(5) 0.8199(17) 0.1673(3)
N2 N 0.5562(8) 0.9565(20) 0.1252(4)
C11 C 0.6430(9) 1.523(3) 0.0091(6)
C12 C 0.6816(9) 1.5849(25) 0.0566(7)
C13 C 0.6757(9) 1.449(3) 0.0968(5)
C14 C 0.5919(9) 1.176(3) 0.0409(6)
C15 C 0.5966(9) 1.325(3) 0.0004(5)
C16 C 0.6305(7) 1.2449(22) 0.0896(5)
C17 C 0.6208(8) 1.0926(23) 0.1306(5)
C18 C 0.4792(9) 0.665(3) 0.1577(6)
C19 C 0.4901(12) 0.503(3) 0.1985(7)
C20 C 0.4004(11) 0.815(3) 0.1534(7)
H6 H 0.717 1.721 0.063
H7 H 0.703 1.497 0.130
H8 H 0.559 1.035 0.036
H9 H 0.568 1.288 -0.033
H10 H 0.477 0.582 0.127
H11 H 0.531 0.378 0.205
H15 H 0.434 0.440 0.199
H16 H 0.509 0.596 0.228
H17 H 0.384 0.854 0.119
H21 H 0.412 0.955 0.172
H22 H 0.353 0.739 0.163
loop_
_geom_bond_atom_site_label_1
_geom_bond_atom_site_label_2
_geom_bond_site_symmetry_1
_geom_bond_site_symmetry_2
I1 C7 1_555 1_555
I2 C17 1_555 1_555
Cl1 C11 1_555 1_555
Cl2 C1 1_555 1_555
O1 N1 1_555 1_555
O2 N2 1_555 1_555
N1 C7 1_555 1_555
N2 C17 1_555 1_555
C1 C2 1_555 1_555
C2 C3 1_555 1_555
C3 C4 1_555 1_555
C4 C5 1_555 1_555
C5 C6 1_555 1_555
C6 C1 1_555 1_555
C7 C4 1_555 1_555
C8 O1 1_555 1_555
C9 C8 1_555 1_555
C10 C8 1_555 1_555
C11 C12 1_555 1_555
C12 C13 1_555 1_555
C13 C16 1_555 1_555
C14 C15 1_555 1_555
C15 C11 1_555 1_555
C16 C14 1_555 1_555
C17 C16 1_555 1_555
C18 O2 1_555 1_555
C19 C18 1_555 1_555
C20 C18 1_555 1_555
H1 C2 1_555 1_555
H2 C3 1_555 1_555
H3 C5 1_555 1_555
H4 C6 1_555 1_555
H5 C8 1_555 1_555
H6 C12 1_555 1_555
H7 C13 1_555 1_555
H8 C14 1_555 1_555
H9 C15 1_555 1_555
H10 C18 1_555 1_555
H11 C19 1_555 1_555
H12 C10 1_555 1_555
H13 C10 1_555 1_555
H14 C10 1_555 1_555
H15 C19 1_555 1_555
H16 C19 1_555 1_555
H17 C20 1_555 1_555
H18 C9 1_555 1_555
H19 C9 1_555 1_555
H20 C9 1_555 1_555
H21 C20 1_555 1_555
H22 C20 1_555 1_555

#END
