
#######################################################################
#
#                 Cambridge Crystallographic Data Centre
#                                CCDC 
#
#######################################################################
#
# If this CIF has been generated from an entry in the Cambridge 
# Structural Database, then it will include bibliographic, chemical, 
# crystal, experimental, refinement or atomic coordinate data resulting 
# from the CCDC's data processing and validation procedures.
#
#######################################################################

data_VITSEW
_chemical_formula_moiety         'C9 H18 O4'
_chemical_name_systematic        1,1,2,2-tetrakis(Hydroxymethyl)-cyclopentane
_symmetry_cell_setting           triclinic
_symmetry_space_group_name_H-M   'P -1'
_symmetry_Int_Tables_number      2
_space_group_name_Hall           '-P 1'
loop_
_symmetry_equiv_pos_site_id
_symmetry_equiv_pos_as_xyz
1 x,y,z
2 -x,-y,-z
_cell_length_a                   7.342(3)
_cell_length_b                   11.857(3)
_cell_length_c                   6.333(2)
_cell_angle_alpha                100.47(3)
_cell_angle_beta                 115.57(3)
_cell_angle_gamma                85.51(4)
_cell_volume                     489.037
_cell_formula_units_Z            2
loop_
_atom_site_label
_atom_site_type_symbol
_atom_site_fract_x
_atom_site_fract_y
_atom_site_fract_z
O1 O 0.3136(4) 0.0296(2) 0.3626(5)
O2 O -0.0483(4) 0.1394(2) -0.1114(5)
O3 O -0.0482(4) 0.3605(2) 0.0627(6)
O4 O 0.3135(4) 0.4705(2) -0.0490(5)
C1 C 0.5224(5) 0.1504(3) 0.1646(7)
C2 C 0.6619(6) 0.2500(3) 0.3312(9)
C3 C 0.5222(5) 0.3496(3) 0.3576(7)
C4 C 0.3089(5) 0.3173(2) 0.1656(6)
C5 C 0.3089(5) 0.1828(2) 0.1433(6)
C6 C 0.2811(5) 0.1491(3) 0.3510(6)
C7 C 0.1527(6) 0.1181(3) -0.0887(6)
C8 C 0.1527(6) 0.3821(3) 0.2407(7)
C9 C 0.2816(5) 0.3508(3) -0.0699(6)
H1 H 0.526 0.140 -0.004
H2 H 0.572 0.074 0.235
H3 H 0.754 0.274 0.258
H4 H 0.754 0.226 0.497
H5 H 0.572 0.426 0.337
H6 H 0.526 0.361 0.530
H7 H 0.380 0.197 0.513
H8 H 0.130 0.170 0.331
H9 H 0.166 0.145 -0.232
H10 H 0.183 0.030 -0.095
H11 H 0.166 0.356 0.399
H12 H 0.183 0.471 0.277
H13 H 0.380 0.303 -0.133
H14 H 0.130 0.330 -0.201
loop_
_geom_bond_atom_site_label_1
_geom_bond_atom_site_label_2
_geom_bond_site_symmetry_1
_geom_bond_site_symmetry_2
O1 C6 1_555 1_555
O2 C7 1_555 1_555
O3 C8 1_555 1_555
O4 C9 1_555 1_555
C1 C2 1_555 1_555
C2 C3 1_555 1_555
C3 C4 1_555 1_555
C4 C5 1_555 1_555
C5 C1 1_555 1_555
C6 C5 1_555 1_555
C7 C5 1_555 1_555
C8 C4 1_555 1_555
C9 C4 1_555 1_555
H1 C1 1_555 1_555
H2 C1 1_555 1_555
H3 C2 1_555 1_555
H4 C2 1_555 1_555
H5 C3 1_555 1_555
H6 C3 1_555 1_555
H7 C6 1_555 1_555
H8 C6 1_555 1_555
H9 C7 1_555 1_555
H10 C7 1_555 1_555
H11 C8 1_555 1_555
H12 C8 1_555 1_555
H13 C9 1_555 1_555
H14 C9 1_555 1_555

#END
