
#######################################################################
#
#                 Cambridge Crystallographic Data Centre
#                                CCDC 
#
#######################################################################
#
# If this CIF has been generated from an entry in the Cambridge 
# Structural Database, then it will include bibliographic, chemical, 
# crystal, experimental, refinement or atomic coordinate data resulting 
# from the CCDC's data processing and validation procedures.
#
#######################################################################

data_VITWEC
_chemical_formula_moiety         'C23 H24 F2 O3'
_chemical_name_systematic        
9-(2,4-Difluorophenyl)-3,3,6,6-tetramethyl-3,4,5,6,7,9-hexahydro-1H-xanthene-1,8(2H)-dione
_symmetry_cell_setting           triclinic
_symmetry_space_group_name_H-M   'P -1'
_symmetry_Int_Tables_number      2
_space_group_name_Hall           '-P 1'
loop_
_symmetry_equiv_pos_site_id
_symmetry_equiv_pos_as_xyz
1 x,y,z
2 -x,-y,-z
_cell_length_a                   9.6810(4)
_cell_length_b                   10.4290(4)
_cell_length_c                   11.8840(5)
_cell_angle_alpha                69.288(2)
_cell_angle_beta                 74.895(2)
_cell_angle_gamma                63.406(2)
_cell_volume                     996.033
_exptl_crystal_colour            colorless
_exptl_crystal_description       block
_cell_formula_units_Z            2
_exptl_crystal_recrystallization_method ethanol
loop_
_atom_site_label
_atom_site_type_symbol
_atom_site_fract_x
_atom_site_fract_y
_atom_site_fract_z
F1 F 0.58177(9) 0.33825(10) 0.21213(9)
F2 F 0.72300(13) 0.44738(12) 0.50286(9)
O1 O 0.84119(12) -0.15460(12) 0.39286(9)
O2 O 0.65242(9) 0.17594(9) 0.02533(7)
O3 O 1.11867(11) 0.17515(13) 0.07618(10)
C1 C 0.74840(14) -0.10446(13) 0.32037(11)
C2 C 0.63396(15) -0.17246(15) 0.33580(11)
H1 H 0.6041 -0.2087 0.4218
H2 H 0.6856 -0.2578 0.3029
C3 C 0.48605(14) -0.06656(14) 0.27502(11)
C4 C 0.53389(14) 0.00773(14) 0.14367(11)
H3 H 0.5750 -0.0643 0.0971
H4 H 0.4424 0.0891 0.1094
C5 C 0.65262(13) 0.06655(12) 0.13208(10)
C6 C 0.75128(12) 0.01894(12) 0.21271(10)
C7 C 0.86725(12) 0.08662(13) 0.19491(10)
H5 H 0.9692 0.0051 0.2097
C8 C 0.87933(12) 0.17859(13) 0.06498(10)
C9 C 1.01106(13) 0.22456(14) 0.01719(12)
C10 C 1.01073(15) 0.32985(16) -0.10760(13)
H6 H 1.0736 0.2719 -0.1646
H7 H 1.0605 0.3935 -0.1099
C11 C 0.85044(15) 0.42923(14) -0.15076(12)
C12 C 0.76661(16) 0.32723(14) -0.13191(11)
H8 H 0.6587 0.3880 -0.1454
H9 H 0.8143 0.2703 -0.1911
C13 C 0.77272(13) 0.22295(13) -0.00826(10)
C14 C 0.38365(17) 0.05031(19) 0.34291(15)
H10 H 0.4406 0.1052 0.3437
H11 H 0.3532 0.0020 0.4246
H12 H 0.2925 0.1174 0.3032
C15 C 0.39565(18) -0.15434(18) 0.27371(14)
H13 H 0.3623 -0.1999 0.3555
H14 H 0.4616 -0.2302 0.2333
H15 H 0.3064 -0.0880 0.2316
C16 C 0.75801(18) 0.54296(16) -0.07819(15)
H16 H 0.6554 0.6002 -0.1024
H17 H 0.8098 0.6083 -0.0931
H18 H 0.7506 0.4920 0.0066
C17 C 0.8681(2) 0.51037(19) -0.28546(14)
H19 H 0.7671 0.5682 -0.3125
H20 H 0.9287 0.4387 -0.3308
H21 H 0.9196 0.5752 -0.2976
C18 C 0.82627(12) 0.18056(13) 0.28097(10)
C19 C 0.92946(14) 0.15185(14) 0.35771(11)
H22 H 1.0239 0.0699 0.3589
C20 C 0.89720(16) 0.24020(16) 0.43221(12)
H23 H 0.9683 0.2190 0.4825
C21 C 0.75792(18) 0.35938(16) 0.42986(12)
C22 C 0.64974(16) 0.39404(15) 0.35770(13)
H24 H 0.5549 0.4753 0.3580
C23 C 0.68774(14) 0.30316(14) 0.28486(11)
F3? F 1.0560(15) 0.0461(17) 0.3554(14)
H25? H 0.6157 0.3255 0.2350
loop_
_geom_bond_atom_site_label_1
_geom_bond_atom_site_label_2
_geom_bond_site_symmetry_1
_geom_bond_site_symmetry_2
F1 C23 1_555 1_555
F2 C21 1_555 1_555
O1 C1 1_555 1_555
O2 C5 1_555 1_555
O3 C9 1_555 1_555
C1 C2 1_555 1_555
C2 H1 1_555 1_555
H2 C2 1_555 1_555
C3 C2 1_555 1_555
C4 C3 1_555 1_555
H3 C4 1_555 1_555
H4 C4 1_555 1_555
C5 C4 1_555 1_555
C6 C1 1_555 1_555
C7 C6 1_555 1_555
H5 C7 1_555 1_555
C8 C7 1_555 1_555
C9 C8 1_555 1_555
C10 C9 1_555 1_555
H6 C10 1_555 1_555
H7 C10 1_555 1_555
C11 C10 1_555 1_555
C12 C11 1_555 1_555
H8 C12 1_555 1_555
H9 C12 1_555 1_555
C13 O2 1_555 1_555
C14 C3 1_555 1_555
H10 C14 1_555 1_555
H11 C14 1_555 1_555
H12 C14 1_555 1_555
C15 C3 1_555 1_555
H13 C15 1_555 1_555
H14 C15 1_555 1_555
H15 C15 1_555 1_555
C16 C11 1_555 1_555
H16 C16 1_555 1_555
H17 C16 1_555 1_555
H18 C16 1_555 1_555
C17 C11 1_555 1_555
H19 C17 1_555 1_555
H20 C17 1_555 1_555
H21 C17 1_555 1_555
C18 C7 1_555 1_555
C19 C18 1_555 1_555
H22 C19 1_555 1_555
C20 C19 1_555 1_555
H23 C20 1_555 1_555
C21 C20 1_555 1_555
C22 C21 1_555 1_555
H24 C22 1_555 1_555
C23 C18 1_555 1_555
C5 C6 1_555 1_555
C8 C13 1_555 1_555
C12 C13 1_555 1_555
C22 C23 1_555 1_555

#END
