
#######################################################################
#
#                 Cambridge Crystallographic Data Centre
#                                CCDC 
#
#######################################################################
#
# If this CIF has been generated from an entry in the Cambridge 
# Structural Database, then it will include bibliographic, chemical, 
# crystal, experimental, refinement or atomic coordinate data resulting 
# from the CCDC's data processing and validation procedures.
#
#######################################################################

data_VITZUT
_chemical_formula_moiety         'C28 H46 Cl2 Mg2 O2,C7 H8'
_chemical_name_systematic        
'bis((\m~2~-Chloro)-(\h^5^-pentamethyl-cyclopentadienyl)-tetrahydrofuran-magnesium) toluene solvate'
_symmetry_cell_setting           monoclinic
_symmetry_space_group_name_H-M   'C 2/c'
_symmetry_Int_Tables_number      15
_space_group_name_Hall           '-C 2yn'
loop_
_symmetry_equiv_pos_site_id
_symmetry_equiv_pos_as_xyz
1 x,y,z
2 1/2+x,1/2+y,z
3 -x,y,1/2-z
4 1/2-x,1/2+y,1/2-z
5 -x,-y,-z
6 1/2-x,1/2-y,-z
7 x,-y,1/2+z
8 1/2+x,1/2-y,1/2+z
_cell_length_a                   21.51(2)
_cell_length_b                   11.778(6)
_cell_length_c                   14.04(1)
_cell_angle_alpha                90
_cell_angle_beta                 95.17(7)
_cell_angle_gamma                90
_cell_volume                     3542.49
_exptl_crystal_colour            colorless
_cell_formula_units_Z            4
loop_
_atom_site_label
_atom_site_type_symbol
_atom_site_fract_x
_atom_site_fract_y
_atom_site_fract_z
Cl1 Cl 0.2880(2) 0.3555(4) 0.0660(3)
Mg1 Mg 0.3087(2) 0.1576(5) 0.0348(3)
O1 O 0.3612(5) 0.188(1) -0.0743(8)
C1 C 0.370(1) -0.115(2) 0.016(1)
C2 C 0.2369(9) -0.088(2) 0.098(1)
C3 C 0.2482(9) 0.116(2) 0.246(1)
C4 C 0.3861(7) 0.217(2) 0.251(1)
C5 C 0.4595(8) 0.076(2) 0.108(1)
C6 C 0.361(8) 0.120(2) -0.161(1)
C7 C 0.4046(9) 0.179(2) -0.220(1)
C8 C 0.446(1) 0.252(2) -0.152(2)
C9 C 0.4035(9) 0.281(2) -0.080(1)
C17 C 0.3500(6) -0.0239(9) 0.0809(7)
C18 C 0.2921(6) -0.0130(9) 0.1213(7)
C19 C 0.2976(6) 0.0777(9) 0.1882(7)
C20 C 0.3589(6) 0.1229(9) 0.1890(7)
C21 C 0.3912(6) 0.0602(9) 0.1227(7)
H1 H 0.334(1) -0.129(2) -0.030(1)
H2 H 0.381(1) -0.184(2) 0.049(1)
H3 H 0.404(1) -0.089(2) -0.017(1)
H4 H 0.2278(9) -0.099(2) 0.031(2)
H5 H 0.2017(9) -0.054(2) 0.124(2)
H6 H 0.2464(9) -0.160(2) 0.128(2)
H7 H 0.2132(9) 0.081(2) 0.215(2)
H8 H 0.2449(9) 0.198(2) 0.240(2)
H9 H 0.2509(9) 0.098(2) 0.315(2)
H10 H 0.3575(8) 0.277(1) 0.204(1)
H11 H 0.4230(8) 0.250(1) 0.229(1)
H12 H 0.3964(8) 0.174(1) 0.302(1)
H13 H 0.4784(8) 0.146(2) 0.130(1)
H14 H 0.4645(8) 0.066(2) 0.041(1)
H15 H 0.4802(8) 0.014(2) 0.143(1)
H16 H 0.3220(9) 0.115(2) -0.194(1)
H17 H 0.3789(9) 0.046(2) -0.148(1)
H18 H 0.3829(9) 0.233(2) -0.263(1)
H19 H 0.4288(9) 0.130(2) -0.257(1)
H20 H 0.464(1) 0.319(2) -0.178(2)
H21 H 0.478(1) 0.205(2) -0.122(2)
H22 H 0.4236(9) 0.295(2) -0.015(1)
H23 H 0.3804(9) 0.349(2) -0.099(1)
Mg1E Mg 0.1913(2) 0.3424(5) -0.0348(3)
Cl1E Cl 0.2120(2) 0.1445(4) -0.0660(3)
O1E O 0.1388(5) 0.312(1) 0.0743(8)
C17E C 0.1500(6) 0.5239(9) -0.0809(7)
C18E C 0.2079(6) 0.5130(9) -0.1213(7)
C19E C 0.2024(6) 0.4223(9) -0.1882(7)
C20E C 0.1411(6) 0.3771(9) -0.1890(7)
C21E C 0.1088(6) 0.4398(9) -0.1227(7)
C6E C 0.139(8) 0.380(2) 0.161(1)
C9E C 0.0965(9) 0.219(2) 0.080(1)
C1E C 0.130(1) 0.615(2) -0.016(1)
C2E C 0.2631(9) 0.588(2) -0.098(1)
C3E C 0.2518(9) 0.384(2) -0.246(1)
C4E C 0.1139(7) 0.283(2) -0.251(1)
C5E C 0.0405(8) 0.424(2) -0.108(1)
C7E C 0.0954(9) 0.321(2) 0.220(1)
H16E H 0.1780(9) 0.385(2) 0.194(1)
H17E H 0.1211(9) 0.454(2) 0.148(1)
C8E C 0.054(1) 0.248(2) 0.152(2)
H22E H 0.0764(9) 0.205(2) 0.015(1)
H23E H 0.1196(9) 0.151(2) 0.099(1)
H1E H 0.166(1) 0.629(2) 0.030(1)
H2E H 0.119(1) 0.684(2) -0.049(1)
H3E H 0.096(1) 0.589(2) 0.017(1)
H4E H 0.2722(9) 0.599(2) -0.031(2)
H5E H 0.2983(9) 0.554(2) -0.124(2)
H6E H 0.2536(9) 0.660(2) -0.128(2)
H7E H 0.2868(9) 0.419(2) -0.215(2)
H8E H 0.2551(9) 0.302(2) -0.240(2)
H9E H 0.2491(9) 0.402(2) -0.315(2)
H10E H 0.1425(8) 0.223(1) -0.204(1)
H11E H 0.0770(8) 0.250(1) -0.229(1)
H12E H 0.1036(8) 0.326(1) -0.302(1)
H13E H 0.0216(8) 0.354(2) -0.130(1)
H14E H 0.0355(8) 0.434(2) -0.041(1)
H15E H 0.0198(8) 0.486(2) -0.143(1)
H18E H 0.1171(9) 0.267(2) 0.263(1)
H19E H 0.0712(9) 0.370(2) 0.257(1)
H20E H 0.036(1) 0.181(2) 0.178(2)
H21E H 0.022(1) 0.295(2) 0.122(2)
C10? C -0.082(3) -0.030(5) 0.614(4)
C11? C 0.067(1) 0.067(2) 0.485(2)
C12? C 0.053(1) 0.007(2) 0.400(2)
C13? C 0.000(1) -0.062(2) 0.388(2)
C14? C -0.039(1) -0.070(2) 0.462(2)
C15? C -0.026(1) -0.010(2) 0.546(2)
C16? C 0.027(1) 0.058(2) 0.558(2)
H24? H 0.103(1) 0.114(2) 0.493(2)
H25? H 0.080(1) 0.013(2) 0.350(2)
H26? H -0.009(1) -0.103(2) 0.330(2)
H27? H -0.076(1) -0.118(2) 0.453(2)
H28? H 0.037(1) 0.100(2) 0.617(2)
H29? H -0.105(3) -0.093(5) 0.637(4)
H30? H -0.059(3) -0.055(5) 0.562(4)
H31? H -0.053(3) -0.001(5) 0.665(4)
loop_
_geom_bond_atom_site_label_1
_geom_bond_atom_site_label_2
_geom_bond_site_symmetry_1
_geom_bond_site_symmetry_2
Cl1 Mg1 1_555 1_555
Mg1 O1 1_555 1_555
O1 C6 1_555 1_555
C1 C17 1_555 1_555
C2 C18 1_555 1_555
C3 C19 1_555 1_555
C4 C20 1_555 1_555
C5 C21 1_555 1_555
C6 C7 1_555 1_555
C7 C8 1_555 1_555
C8 C9 1_555 1_555
C9 O1 1_555 1_555
C17 Mg1 1_555 1_555
C18 Mg1 1_555 1_555
C19 Mg1 1_555 1_555
C20 Mg1 1_555 1_555
C21 Mg1 1_555 1_555
H1 C1 1_555 1_555
H2 C1 1_555 1_555
H3 C1 1_555 1_555
H4 C2 1_555 1_555
H5 C2 1_555 1_555
H6 C2 1_555 1_555
H7 C3 1_555 1_555
H8 C3 1_555 1_555
H9 C3 1_555 1_555
H10 C4 1_555 1_555
H11 C4 1_555 1_555
H12 C4 1_555 1_555
H13 C5 1_555 1_555
H14 C5 1_555 1_555
H15 C5 1_555 1_555
H16 C6 1_555 1_555
H17 C6 1_555 1_555
H18 C7 1_555 1_555
H19 C7 1_555 1_555
H20 C8 1_555 1_555
H21 C8 1_555 1_555
H22 C9 1_555 1_555
H23 C9 1_555 1_555
Mg1E Cl1 1_555 1_555
Cl1E Mg1 1_555 1_555
O1E Mg1E 1_555 1_555
C17E Mg1E 1_555 1_555
C18E Mg1E 1_555 1_555
C19E Mg1E 1_555 1_555
C20E Mg1E 1_555 1_555
C21E Mg1E 1_555 1_555
C6E O1E 1_555 1_555
C9E O1E 1_555 1_555
C1E C17E 1_555 1_555
C2E C18E 1_555 1_555
C3E C19E 1_555 1_555
C4E C20E 1_555 1_555
C5E C21E 1_555 1_555
C7E C6E 1_555 1_555
H16E C6E 1_555 1_555
H17E C6E 1_555 1_555
C8E C9E 1_555 1_555
H22E C9E 1_555 1_555
H23E C9E 1_555 1_555
H1E C1E 1_555 1_555
H2E C1E 1_555 1_555
H3E C1E 1_555 1_555
H4E C2E 1_555 1_555
H5E C2E 1_555 1_555
H6E C2E 1_555 1_555
H7E C3E 1_555 1_555
H8E C3E 1_555 1_555
H9E C3E 1_555 1_555
H10E C4E 1_555 1_555
H11E C4E 1_555 1_555
H12E C4E 1_555 1_555
H13E C5E 1_555 1_555
H14E C5E 1_555 1_555
H15E C5E 1_555 1_555
H18E C7E 1_555 1_555
H19E C7E 1_555 1_555
H20E C8E 1_555 1_555
H21E C8E 1_555 1_555
C17 C18 1_555 1_555
C17 C21 1_555 1_555
C18 C19 1_555 1_555
C19 C20 1_555 1_555
C20 C21 1_555 1_555
Mg1E Cl1E 1_555 1_555
C17E C18E 1_555 1_555
C17E C21E 1_555 1_555
C18E C19E 1_555 1_555
C19E C20E 1_555 1_555
C20E C21E 1_555 1_555
C7E C8E 1_555 1_555

#END
