
#######################################################################
#
#                 Cambridge Crystallographic Data Centre
#                                CCDC 
#
#######################################################################
#
# If this CIF has been generated from an entry in the Cambridge 
# Structural Database, then it will include bibliographic, chemical, 
# crystal, experimental, refinement or atomic coordinate data resulting 
# from the CCDC's data processing and validation procedures.
#
#######################################################################

data_VIVWEE
_chemical_formula_moiety         'C32 H30 N4 O2,C1 H4 O1'
_chemical_name_systematic        
"N,N'-diethyl-N,N'-bis(4-methylphenyl)-1,10-phenanthroline-2,9-dicarboxamide methanol solvate"
_symmetry_cell_setting           monoclinic
_symmetry_space_group_name_H-M   'P 21/n'
_symmetry_Int_Tables_number      14
_space_group_name_Hall           '-P 2yn'
loop_
_symmetry_equiv_pos_site_id
_symmetry_equiv_pos_as_xyz
1 x,y,z
2 1/2-x,1/2+y,1/2-z
3 -x,-y,-z
4 1/2+x,1/2-y,1/2+z
_cell_length_a                   13.509(9)
_cell_length_b                   16.514(11)
_cell_length_c                   13.872(9)
_cell_angle_alpha                90
_cell_angle_beta                 95.833(9)
_cell_angle_gamma                90
_cell_volume                     3078.65
_cell_formula_units_Z            4
_chemical_properties_physical    Air-sensitive
loop_
_atom_site_label
_atom_site_type_symbol
_atom_site_fract_x
_atom_site_fract_y
_atom_site_fract_z
N1 N 0.31345(19) 0.83773(15) 0.4465(2)
C1 C 0.3991(2) 0.87740(19) 0.4302(2)
N2 N 0.3078(2) 0.94451(17) 0.2944(2)
C2 C 0.3956(2) 0.93385(19) 0.3502(2)
C3 C 0.4896(2) 0.8656(2) 0.4880(3)
C4 C 0.4823(3) 0.9775(2) 0.3340(3)
C5 C 0.3169(2) 0.7872(2) 0.5205(2)
C6 C 0.4041(3) 0.7714(3) 0.5817(3)
H1 H 0.4034 0.7348 0.6325
C7 C 0.3058(3) 0.9981(2) 0.2230(3)
C8 C 0.4898(3) 0.8105(3) 0.5657(3)
H2 H 0.5481 0.8009 0.6057
C9 C 0.5759(3) 0.9103(2) 0.4684(3)
H3 H 0.6354 0.9021 0.5071
N3 N 0.1609(2) 0.76845(18) 0.5921(2)
C10 C 0.2238(3) 0.7406(2) 0.5306(3)
C11 C 0.4755(4) 1.0335(3) 0.2573(4)
H4 H 0.5311 1.0629 0.2439
C12 C 0.5728(3) 0.9632(3) 0.3960(3)
H5 H 0.6301 0.9916 0.3852
C13 C 0.1773(3) 0.8443(2) 0.6423(3)
C14 C 0.1624(3) 1.1102(2) 0.2661(3)
C15 C 0.3879(4) 1.0443(3) 0.2034(4)
H6 H 0.3822 1.0822 0.1535
N4 N 0.1413(3) 1.0572(2) 0.1855(3)
O1 O 0.2076(3) 0.6785(2) 0.4830(3)
C16 C 0.1429(3) 1.0861(3) 0.3564(3)
H7 H 0.1157 1.0353 0.3656
C17 C 0.2083(4) 1.0039(3) 0.1590(3)
C18 C 0.2031(3) 1.2142(3) 0.4249(4)
C19 C 0.1641(3) 1.1383(3) 0.4340(3)
H8 H 0.1514 1.1209 0.4953
C20 C 0.1310(4) 0.9142(3) 0.6040(4)
H9 H 0.0928 0.9134 0.5443
C21 C 0.2034(3) 1.1861(3) 0.2542(4)
H10 H 0.2182 1.2026 0.1932
C22 C 0.2223(3) 1.2374(3) 0.3330(4)
H11 H 0.2486 1.2886 0.3238
C23 C 0.2343(4) 0.8483(3) 0.7307(4)
H12 H 0.2657 0.8019 0.7567
O2 O 0.1942(4) 0.9606(3) 0.0879(3)
C24 C 0.0648(3) 0.7285(3) 0.5993(4)
H13 H 0.0120 0.7653 0.5752
H14 H 0.0606 0.6812 0.5575
C25 C 0.1438(5) 0.9856(3) 0.6579(5)
H15 H 0.1139 1.0328 0.6327
C26 C 0.1987(4) 0.9888(3) 0.7464(5)
C27 C 0.0282(6) 1.0547(4) 0.1352(5)
H16 H 0.0153 1.0043 0.1004
H17 H -0.0184 1.0597 0.1837
C28 C 0.2447(4) 0.9195(4) 0.7799(4)
H18 H 0.2846 0.9209 0.8386
C29 C 0.0192(8) 1.1201(5) 0.0718(7)
H19 H 0.0734 1.1195 0.0320
H20 H 0.0207 1.1696 0.1081
H21 H -0.0427 1.1162 0.0314
C30 C 0.0476(5) 0.7032(4) 0.6968(6)
H22 H 0.0323 0.7497 0.7341
H23 H 0.1062 0.6772 0.7272
H24 H -0.0072 0.6659 0.6934
C31 C 0.2065(7) 1.0686(4) 0.8044(7)
H25 H 0.1412 1.0911 0.8067
H26 H 0.2471 1.1064 0.7735
H27 H 0.2359 1.0581 0.8691
C32 C 0.2263(5) 1.2680(4) 0.5123(5)
H28 H 0.2398 1.3219 0.4914
H29 H 0.2836 1.2473 0.5513
H30 H 0.1704 1.2689 0.5498
O3 O 0.0990(3) 0.8783(3) 0.3632(4)
H31 H 0.1590 0.8718 0.3760
C33 C 0.0639(5) 0.8221(5) 0.3023(6)
H32 H 0.0626 0.8421 0.2372
H33 H -0.0023 0.8079 0.3153
H34 H 0.1059 0.7751 0.3096
loop_
_geom_bond_atom_site_label_1
_geom_bond_atom_site_label_2
_geom_bond_site_symmetry_1
_geom_bond_site_symmetry_2
N1 C1 1_555 1_555
C1 C2 1_555 1_555
N2 C2 1_555 1_555
C2 C4 1_555 1_555
C3 C1 1_555 1_555
C4 C11 1_555 1_555
C5 N1 1_555 1_555
C6 C5 1_555 1_555
H1 C6 1_555 1_555
C7 N2 1_555 1_555
C8 C3 1_555 1_555
H2 C8 1_555 1_555
C9 C3 1_555 1_555
H3 C9 1_555 1_555
N3 C10 1_555 1_555
C10 C5 1_555 1_555
C11 H4 1_555 1_555
C12 C4 1_555 1_555
H5 C12 1_555 1_555
C13 N3 1_555 1_555
C14 N4 1_555 1_555
C15 C7 1_555 1_555
H6 C15 1_555 1_555
N4 C17 1_555 1_555
O1 C10 1_555 1_555
C16 C14 1_555 1_555
H7 C16 1_555 1_555
C17 C7 1_555 1_555
C18 C19 1_555 1_555
C19 C16 1_555 1_555
H8 C19 1_555 1_555
C20 C13 1_555 1_555
H9 C20 1_555 1_555
C21 C14 1_555 1_555
H10 C21 1_555 1_555
C22 C18 1_555 1_555
H11 C22 1_555 1_555
C23 C13 1_555 1_555
H12 C23 1_555 1_555
O2 C17 1_555 1_555
C24 N3 1_555 1_555
H13 C24 1_555 1_555
H14 C24 1_555 1_555
C25 C20 1_555 1_555
H15 C25 1_555 1_555
C26 C25 1_555 1_555
C27 N4 1_555 1_555
H16 C27 1_555 1_555
H17 C27 1_555 1_555
C28 C23 1_555 1_555
H18 C28 1_555 1_555
C29 C27 1_555 1_555
H19 C29 1_555 1_555
H20 C29 1_555 1_555
H21 C29 1_555 1_555
C30 C24 1_555 1_555
H22 C30 1_555 1_555
H23 C30 1_555 1_555
H24 C30 1_555 1_555
C31 C26 1_555 1_555
H25 C31 1_555 1_555
H26 C31 1_555 1_555
H27 C31 1_555 1_555
C32 C18 1_555 1_555
H28 C32 1_555 1_555
H29 C32 1_555 1_555
H30 C32 1_555 1_555
O3 H31 1_555 1_555
C33 O3 1_555 1_555
H32 C33 1_555 1_555
H33 C33 1_555 1_555
H34 C33 1_555 1_555
C6 C8 1_555 1_555
C9 C12 1_555 1_555
C11 C15 1_555 1_555
C21 C22 1_555 1_555
C26 C28 1_555 1_555

#END
