
#######################################################################
#
#                 Cambridge Crystallographic Data Centre
#                                CCDC 
#
#######################################################################
#
# If this CIF has been generated from an entry in the Cambridge 
# Structural Database, then it will include bibliographic, chemical, 
# crystal, experimental, refinement or atomic coordinate data resulting 
# from the CCDC's data processing and validation procedures.
#
#######################################################################

data_VIWGUF
_chemical_formula_moiety         'C19 H21 N3 O3,C1 H1 Cl3'
_chemical_name_systematic        
'Methyl 4-anilino-6-(4-methylphenyl)-2-oxohexahydropyrimidine-5-carboxylate chloroform solvate'
_symmetry_cell_setting           triclinic
_symmetry_space_group_name_H-M   'P -1'
_symmetry_Int_Tables_number      2
_space_group_name_Hall           '-P 1'
loop_
_symmetry_equiv_pos_site_id
_symmetry_equiv_pos_as_xyz
1 x,y,z
2 -x,-y,-z
_cell_length_a                   5.8412(17)
_cell_length_b                   13.592(4)
_cell_length_c                   13.837(4)
_cell_angle_alpha                82.192(3)
_cell_angle_beta                 80.418(3)
_cell_angle_gamma                82.120(4)
_cell_volume                     1065.8
_cell_formula_units_Z            2
loop_
_atom_site_label
_atom_site_type_symbol
_atom_site_fract_x
_atom_site_fract_y
_atom_site_fract_z
C1 C 0.7801(5) 0.5965(2) 1.2873(2)
H1 H 0.6458 0.5731 1.2758
C2 C 0.8263(6) 0.5900(2) 1.3825(2)
H2 H 0.7248 0.5611 1.4342
C3 C 1.0219(6) 0.6260(3) 1.4019(2)
H3 H 1.0503 0.6234 1.4664
C4 C 1.1737(5) 0.6656(2) 1.3242(2)
H4 H 1.3071 0.6891 1.3366
C5 C 1.1312(5) 0.6711(2) 1.2267(2)
H5 H 1.2370 0.6972 1.1749
C6 C 0.9309(4) 0.6376(2) 1.2077(2)
C7 C 1.0181(4) 0.6712(2) 1.0247(2)
H6 H 1.0961 0.7286 1.0318
C8 C 1.2848(4) 0.5719(2) 0.9056(2)
C9 C 1.0121(4) 0.7131(2) 0.8409(2)
H7 H 1.0905 0.7735 0.8340
C10 C 0.8659(4) 0.7009(2) 0.9434(2)
H8 H 0.7601 0.6502 0.9459
C11 C 0.7243(4) 0.8004(2) 0.9617(2)
C12 C 0.3600(5) 0.8938(2) 0.9885(3)
H9 H 0.3854 0.9143 1.0492
H10 H 0.1968 0.8884 0.9913
H11 H 0.4089 0.9424 0.9346
C13 C 0.8567(5) 0.7234(2) 0.7612(2)
C14 C 0.7555(5) 0.8165(2) 0.7267(2)
H12 H 0.7922 0.8734 0.7484
C15 C 0.5989(6) 0.8258(2) 0.6595(2)
H13 H 0.5289 0.8889 0.6383
C16 C 0.5457(5) 0.7432(2) 0.6238(2)
C17 C 0.3745(6) 0.7548(3) 0.5509(3)
H14 H 0.4515 0.7297 0.4907
H15 H 0.3180 0.8242 0.5373
H16 H 0.2454 0.7179 0.5783
C18 C 0.6541(5) 0.6509(2) 0.6572(2)
H17 H 0.6238 0.5942 0.6329
C19 C 0.8052(5) 0.6402(2) 0.7251(2)
H18 H 0.8732 0.5769 0.7468
N1 N 0.8668(4) 0.64588(17) 1.11482(17)
H19 H 0.7271 0.6352 1.1109
N2 N 1.1956(4) 0.58842(16) 0.99839(17)
H20 H 1.2460 0.5478 1.0456
N3 N 1.1871(4) 0.62721(18) 0.83237(18)
H21 H 1.2331 0.6099 0.7741
O1 O 1.4514(3) 0.50558(14) 0.88721(15)
O2 O 0.8119(3) 0.87438(14) 0.96367(16)
O3 O 0.4950(3) 0.79699(14) 0.97406(16)
C20 C 0.2112(5) 0.1113(3) 0.6993(2)
H22 H 0.1503 0.1820 0.7010
Cl1 Cl 0.50747(14) 0.09647(7) 0.71310(8)
Cl2 Cl 0.05462(16) 0.04120(9) 0.79662(8)
Cl3 Cl 0.17457(17) 0.07565(8) 0.58698(8)
loop_
_geom_bond_atom_site_label_1
_geom_bond_atom_site_label_2
_geom_bond_site_symmetry_1
_geom_bond_site_symmetry_2
C1 H1 1_555 1_555
C2 C1 1_555 1_555
H2 C2 1_555 1_555
C3 C2 1_555 1_555
H3 C3 1_555 1_555
C4 C3 1_555 1_555
H4 C4 1_555 1_555
C5 C4 1_555 1_555
H5 C5 1_555 1_555
C6 C1 1_555 1_555
C7 H6 1_555 1_555
C8 N2 1_555 1_555
C9 H7 1_555 1_555
C10 C7 1_555 1_555
H8 C10 1_555 1_555
C11 C10 1_555 1_555
C12 H9 1_555 1_555
H10 C12 1_555 1_555
H11 C12 1_555 1_555
C13 C9 1_555 1_555
C14 C13 1_555 1_555
H12 C14 1_555 1_555
C15 C14 1_555 1_555
H13 C15 1_555 1_555
C16 C15 1_555 1_555
C17 C16 1_555 1_555
H14 C17 1_555 1_555
H15 C17 1_555 1_555
H16 C17 1_555 1_555
C18 C16 1_555 1_555
H17 C18 1_555 1_555
C19 C13 1_555 1_555
H18 C19 1_555 1_555
N1 C6 1_555 1_555
H19 N1 1_555 1_555
N2 C7 1_555 1_555
H20 N2 1_555 1_555
N3 C8 1_555 1_555
H21 N3 1_555 1_555
O1 C8 1_555 1_555
O2 C11 1_555 1_555
O3 C11 1_555 1_555
C20 H22 1_555 1_555
Cl1 C20 1_555 1_555
Cl2 C20 1_555 1_555
Cl3 C20 1_555 1_555
C5 C6 1_555 1_555
C7 N1 1_555 1_555
C9 C10 1_555 1_555
C9 N3 1_555 1_555
C12 O3 1_555 1_555
C18 C19 1_555 1_555

#END
