
#######################################################################
#
#                 Cambridge Crystallographic Data Centre
#                                CCDC 
#
#######################################################################
#
# If this CIF has been generated from an entry in the Cambridge 
# Structural Database, then it will include bibliographic, chemical, 
# crystal, experimental, refinement or atomic coordinate data resulting 
# from the CCDC's data processing and validation procedures.
#
#######################################################################

data_VIWNIA
_chemical_formula_moiety         'C17 H25 Br1 N2 O3 S2'
_chemical_name_systematic        
N-(4-(1-Bromovinyl)-1-((4-methylphenyl)sulfonyl)pyrrolidin-3-yl)-2-methylpropane-2-sulfinamide
_symmetry_cell_setting           orthorhombic
_symmetry_space_group_name_H-M   'P 21 21 21'
_symmetry_Int_Tables_number      19
_space_group_name_Hall           'P 2ac 2ab'
loop_
_symmetry_equiv_pos_site_id
_symmetry_equiv_pos_as_xyz
1 x,y,z
2 1/2-x,-y,1/2+z
3 -x,1/2+y,1/2-z
4 1/2+x,1/2-y,-z
_cell_length_a                   11.7403(4)
_cell_length_b                   12.2518(4)
_cell_length_c                   14.7310(5)
_cell_angle_alpha                90
_cell_angle_beta                 90
_cell_angle_gamma                90
_cell_volume                     2118.9
_exptl_crystal_colour            colorless
_exptl_crystal_description       BLOCK
_cell_formula_units_Z            4
loop_
_atom_site_label
_atom_site_type_symbol
_atom_site_fract_x
_atom_site_fract_y
_atom_site_fract_z
Br1 Br -0.64638(4) -0.79298(3) -0.08117(2)
S1 S -0.58824(6) -1.03421(6) 0.21673(4)
S2 S -0.83580(6) -0.61504(6) 0.17123(5)
O1 O -0.48641(18) -1.08888(17) 0.18945(16)
O2 O -0.6271(2) -1.04254(19) 0.30825(12)
O3 O -0.8698(2) -0.6366(2) 0.2654(2)
N1 N -0.5666(2) -0.90551(18) 0.19676(14)
N2 N -0.69806(19) -0.63819(18) 0.15892(16)
C1 C -0.9740(4) -1.1637(5) -0.0325(4)
C2 C -0.8777(2) -1.1350(2) 0.03006(19)
C3 C -0.7664(3) -1.1316(3) -0.0017(2)
C4 C -0.6775(2) -1.1035(2) 0.05515(18)
C5 C -0.6994(2) -1.0778(2) 0.14486(17)
C6 C -0.8094(3) -1.0822(2) 0.1778(2)
C7 C -0.8967(3) -1.1116(3) 0.1204(2)
C8 C -0.5124(3) -0.8753(2) 0.1095(2)
C9 C -0.5481(2) -0.7576(2) 0.09461(18)
C10 C -0.6652(2) -0.75055(19) 0.14044(16)
C11 C -0.6527(3) -0.8240(2) 0.22357(19)
C12 C -0.5435(2) -0.7202(2) -0.00051(17)
C13 C -0.4746(5) -0.6450(3) -0.0315(3)
C14 C -0.8333(2) -0.4659(2) 0.1573(2)
C15 C -0.8012(5) -0.4449(5) 0.0578(4)
C16 C -0.7497(4) -0.4137(4) 0.2215(4)
C17 C -0.9553(3) -0.4307(4) 0.1762(5)
H1 H -0.667(2) -0.613(2) 0.1963(16)
H2 H -0.956(5) -1.221(5) -0.061(4)
H3 H -0.991(5) -1.105(5) -0.074(4)
H4 H -1.046(5) -1.171(4) 0.002(3)
H5 H -0.746(2) -1.153(3) -0.053(2)
H6 H -0.601(2) -1.107(2) 0.0353(17)
H7 H -0.822(2) -1.067(3) 0.236(2)
H8 H -0.969(3) -1.120(2) 0.1435(19)
H9 H -0.434(3) -0.881(2) 0.1052(18)
H10 H -0.543(2) -0.917(3) 0.055(2)
H11 H -0.505(2) -0.718(2) 0.1252(16)
H12 H -0.7167(18) -0.7784(19) 0.1017(14)
H13 H -0.628(3) -0.789(3) 0.274(2)
H14 H -0.723(3) -0.856(3) 0.231(2)
H15 H -0.476(4) -0.623(4) -0.093(4)
H16 H -0.423(3) -0.605(4) 0.011(3)
H17 H -0.840(5) -0.492(5) 0.022(3)
H18 H -0.722(4) -0.475(4) 0.041(3)
H19 H -0.778(6) -0.376(7) 0.078(5)
H20 H -0.761(3) -0.346(3) 0.220(2)
H21 H -0.775(3) -0.443(3) 0.289(2)
H22 H -0.666(4) -0.438(3) 0.198(3)
H23 H -0.962(3) -0.349(3) 0.164(2)
H24 H -1.004(4) -0.469(4) 0.129(3)
H25 H -0.967(5) -0.432(5) 0.236(4)
loop_
_geom_bond_atom_site_label_1
_geom_bond_atom_site_label_2
_geom_bond_site_symmetry_1
_geom_bond_site_symmetry_2
Br1 C12 1_555 1_555
S1 O1 1_555 1_555
S2 O3 1_555 1_555
O2 S1 1_555 1_555
N1 S1 1_555 1_555
N2 S2 1_555 1_555
C1 C2 1_555 1_555
C2 C3 1_555 1_555
C3 C4 1_555 1_555
C4 C5 1_555 1_555
C5 S1 1_555 1_555
C6 C5 1_555 1_555
C7 C2 1_555 1_555
C8 N1 1_555 1_555
C9 C8 1_555 1_555
C10 N2 1_555 1_555
C11 N1 1_555 1_555
C12 C9 1_555 1_555
C13 C12 1_555 1_555
C14 S2 1_555 1_555
C15 C14 1_555 1_555
C16 C14 1_555 1_555
C17 C14 1_555 1_555
H1 N2 1_555 1_555
H2 C1 1_555 1_555
H3 C1 1_555 1_555
H4 C1 1_555 1_555
H5 C3 1_555 1_555
H6 C4 1_555 1_555
H7 C6 1_555 1_555
H8 C7 1_555 1_555
H9 C8 1_555 1_555
H10 C8 1_555 1_555
H11 C9 1_555 1_555
H12 C10 1_555 1_555
H13 C11 1_555 1_555
H14 C11 1_555 1_555
H15 C13 1_555 1_555
H16 C13 1_555 1_555
H17 C15 1_555 1_555
H18 C15 1_555 1_555
H19 C15 1_555 1_555
H20 C16 1_555 1_555
H21 C16 1_555 1_555
H22 C16 1_555 1_555
H23 C17 1_555 1_555
H24 C17 1_555 1_555
H25 C17 1_555 1_555
C6 C7 1_555 1_555
C9 C10 1_555 1_555
C10 C11 1_555 1_555

#END
