
#######################################################################
#
#                 Cambridge Crystallographic Data Centre
#                                CCDC 
#
#######################################################################
#
# If this CIF has been generated from an entry in the Cambridge 
# Structural Database, then it will include bibliographic, chemical, 
# crystal, experimental, refinement or atomic coordinate data resulting 
# from the CCDC's data processing and validation procedures.
#
#######################################################################

data_VIWPUN
_chemical_formula_moiety         'C54 H74 B2 N4'
_chemical_name_systematic        
B,B'-bis(1,3-bis(2,6-di-isopropylphenyl)imidazol-2-ylidene)diborene
_symmetry_cell_setting           orthorhombic
_symmetry_space_group_name_H-M   'P 21 21 21'
_symmetry_Int_Tables_number      19
_space_group_name_Hall           'P 2ac 2ab'
loop_
_symmetry_equiv_pos_site_id
_symmetry_equiv_pos_as_xyz
1 x,y,z
2 1/2-x,-y,1/2+z
3 -x,1/2+y,1/2-z
4 1/2+x,1/2-y,-z
_cell_length_a                   12.3979(16)
_cell_length_b                   21.067(3)
_cell_length_c                   39.689(5)
_cell_angle_alpha                90
_cell_angle_beta                 90
_cell_angle_gamma                90
_cell_volume                     10366.2
_exptl_crystal_colour            red
_exptl_crystal_description       sheet
_chemical_melting_point          237deg.C
_cell_formula_units_Z            8
_chemical_properties_physical    air-sensitive
loop_
_atom_site_label
_atom_site_type_symbol
_atom_site_fract_x
_atom_site_fract_y
_atom_site_fract_z
B1 B 1.1880(12) 0.9713(6) -0.0271(3)
H1 H 1.097(2) 0.975(3) -0.0234(16)
B2 B 1.2651(11) 1.0297(7) -0.0292(3)
H2 H 1.356(2) 1.030(3) -0.0268(17)
N1 N 1.3134(6) 0.8692(4) -0.0326(2)
N2 N 1.1488(6) 0.8502(4) -0.01830(18)
N3 N 1.2936(6) 1.1506(4) -0.0171(2)
N4 N 1.1371(7) 1.1289(4) -0.03780(19)
C1 C 1.2179(8) 0.9002(5) -0.0261(2)
C2 C 1.3035(9) 0.8046(5) -0.0293(2)
H3 H 1.3578 0.7748 -0.0325
C3 C 1.2012(8) 0.7924(5) -0.0206(2)
H4 H 1.1711 0.7526 -0.0168
C4 C 1.0404(8) 0.8569(5) -0.0050(3)
C5 C 0.9553(9) 0.8508(5) -0.0268(3)
C6 C 0.8521(11) 0.8530(5) -0.0120(4)
H5 H 0.7905 0.8489 -0.0252
C7 C 0.8440(11) 0.8612(6) 0.0228(4)
H6 H 0.7754 0.8620 0.0323
C8 C 0.9324(11) 0.8682(6) 0.0442(3)
H7 H 0.9236 0.8758 0.0671
C9 C 1.0340(10) 0.8634(5) 0.0299(3)
C10 C 1.1285(11) 0.8683(6) 0.0529(3)
H8 H 1.1933 0.8657 0.0388
C11 C 1.1360(12) 0.9298(6) 0.0726(3)
H9 H 1.1388 0.9649 0.0573
H10 H 1.2001 0.9294 0.0862
H11 H 1.0739 0.9339 0.0869
C12 C 1.1297(11) 0.8095(6) 0.0764(3)
H12 H 1.1258 0.7715 0.0631
H13 H 1.0689 0.8112 0.0914
H14 H 1.1952 0.8093 0.0893
C13 C 0.9676(10) 0.8398(5) -0.0634(3)
H15 H 1.0368 0.8182 -0.0667
C14 C 0.9731(11) 0.9035(6) -0.0829(3)
H16 H 1.0309 0.9289 -0.0741
H17 H 0.9061 0.9258 -0.0803
H18 H 0.9857 0.8952 -0.1064
C15 C 0.8785(10) 0.7969(5) -0.0791(3)
H19 H 0.8780 0.7565 -0.0680
H20 H 0.8931 0.7908 -0.1027
H21 H 0.8095 0.8169 -0.0765
C16 C 1.4157(10) 0.8957(5) -0.0436(4)
C17 C 1.4389(12) 0.8934(6) -0.0781(4)
C18 C 1.5446(16) 0.9148(8) -0.0872(5)
H22 H 1.5661 0.9152 -0.1097
C19 C 1.6126(18) 0.9344(10) -0.0628(6)
H23 H 1.6814 0.9468 -0.0694
C20 C 1.5889(12) 0.9378(6) -0.0288(5)
H24 H 1.6383 0.9530 -0.0131
C21 C 1.4857(10) 0.9169(5) -0.0195(4)
C22 C 1.4549(10) 0.9195(5) 0.0173(3)
H25 H 1.3767 0.9255 0.0189
C23 C 1.4843(10) 0.8551(5) 0.0339(3)
H26 H 1.4488 0.8212 0.0221
H27 H 1.4614 0.8553 0.0570
H28 H 1.5610 0.8489 0.0329
C24 C 1.5107(11) 0.9722(5) 0.0375(3)
H29 H 1.4922 1.0127 0.0282
H30 H 1.5874 0.9664 0.0365
H31 H 1.4873 0.9703 0.0606
C25 C 1.3594(13) 0.8723(7) -0.1033(3)
H32 H 1.2980 0.8546 -0.0909
C26 C 1.4015(12) 0.8200(6) -0.1267(3)
H33 H 1.4266 0.7848 -0.1134
H34 H 1.4599 0.8362 -0.1400
H35 H 1.3444 0.8060 -0.1412
C27 C 1.3156(15) 0.9277(7) -0.1251(3)
H36 H 1.2864 0.9601 -0.1107
H37 H 1.2601 0.9122 -0.1398
H38 H 1.3733 0.9452 -0.1383
C28 C 1.2313(8) 1.0996(5) -0.0277(3)
C29 C 1.2370(8) 1.2064(5) -0.0194(3)
H39 H 1.2617 1.2462 -0.0128
C30 C 1.1410(9) 1.1941(5) -0.0326(2)
H40 H 1.0870 1.2233 -0.0375
C31 C 1.0463(9) 1.1023(5) -0.0561(3)
C32 C 1.0500(12) 1.1032(6) -0.0907(4)
C33 C 0.9590(15) 1.0847(7) -0.1079(4)
H41 H 0.9582 1.0844 -0.1313
C34 C 0.8694(13) 1.0666(7) -0.0900(5)
H42 H 0.8080 1.0547 -0.1019
C35 C 0.8661(11) 1.0654(6) -0.0554(4)
H43 H 0.8039 1.0526 -0.0442
C36 C 0.9580(10) 1.0836(5) -0.0374(3)
C37 C 0.9578(9) 1.0819(5) 0.0004(3)
H44 H 1.0325 1.0761 0.0079
C38 C 0.9174(9) 1.1441(5) 0.0151(3)
H45 H 0.9622 1.1783 0.0075
H46 H 0.9199 1.1419 0.0393
H47 H 0.8444 1.1513 0.0080
C39 C 0.8898(9) 1.0270(5) 0.0154(3)
H48 H 0.9180 0.9871 0.0078
H49 H 0.8162 1.0312 0.0083
H50 H 0.8932 1.0286 0.0396
C40 C 1.1467(14) 1.1257(8) -0.1098(3)
H51 H 1.2063 1.1299 -0.0937
C41 C 1.1812(14) 1.0769(8) -0.1366(3)
H52 H 1.1962 1.0370 -0.1260
H53 H 1.2447 1.0919 -0.1480
H54 H 1.1240 1.0716 -0.1527
C42 C 1.1290(16) 1.1904(8) -0.1260(4)
H55 H 1.1100 1.2207 -0.1089
H56 H 1.0717 1.1876 -0.1422
H57 H 1.1940 1.2038 -0.1370
C43 C 1.3964(8) 1.1468(5) -0.0014(3)
C44 C 1.4877(10) 1.1438(5) -0.0223(3)
C45 C 1.5892(9) 1.1399(5) -0.0063(4)
H58 H 1.6518 1.1363 -0.0190
C46 C 1.5946(12) 1.1415(6) 0.0276(4)
H59 H 1.6622 1.1406 0.0377
C47 C 1.5066(11) 1.1445(5) 0.0475(3)
H60 H 1.5142 1.1449 0.0708
C48 C 1.4022(9) 1.1469(5) 0.0328(3)
C49 C 1.3054(10) 1.1510(7) 0.0550(3)
H61 H 1.2437 1.1588 0.0402
C50 C 1.3103(11) 1.2068(7) 0.0789(3)
H62 H 1.3236 1.2449 0.0663
H63 H 1.3676 1.2004 0.0948
H64 H 1.2430 1.2105 0.0907
C51 C 1.2806(12) 1.0913(8) 0.0738(4)
H65 H 1.2734 1.0569 0.0582
H66 H 1.2144 1.0965 0.0861
H67 H 1.3381 1.0823 0.0893
C52 C 1.4745(9) 1.1455(5) -0.0605(3)
H68 H 1.4000 1.1337 -0.0659
C53 C 1.5491(12) 1.1003(6) -0.0789(3)
H69 H 1.5366 1.0578 -0.0711
H70 H 1.6226 1.1119 -0.0746
H71 H 1.5353 1.1026 -0.1027
C54 C 1.4949(15) 1.2114(6) -0.0741(3)
H72 H 1.4446 1.2406 -0.0642
H73 H 1.4860 1.2113 -0.0981
H74 H 1.5671 1.2242 -0.0686
B3 B 0.7239(11) 0.9815(6) 0.2189(3)
H75 H 0.634(2) 0.982(4) 0.2136(19)
B4 B 0.8002(11) 0.9234(6) 0.2238(3)
H76 H 0.890(2) 0.928(4) 0.2304(19)
N5 N 0.6895(7) 1.1010(4) 0.2299(2)
N6 N 0.8571(7) 1.0818(4) 0.2174(2)
N7 N 0.6767(7) 0.8215(4) 0.2116(2)
N8 N 0.8330(7) 0.8022(4) 0.2322(2)
C55 C 0.7585(9) 1.0527(5) 0.2223(3)
C56 C 0.7442(10) 1.1582(5) 0.2298(2)
H77 H 0.7152 1.1980 0.2343
C57 C 0.8458(9) 1.1453(5) 0.2220(3)
H78 H 0.9007 1.1751 0.2200
C58 C 0.9584(10) 1.0541(5) 0.2062(4)
C59 C 0.9736(14) 1.0583(7) 0.1715(5)
C60 C 1.074(2) 1.0383(10) 0.1595(7)
H79 H 1.0907 1.0386 0.1367
C61 C 1.148(2) 1.0185(10) 0.1829(7)
H80 H 1.2157 1.0073 0.1748
C62 C 1.1321(13) 1.0132(7) 0.2172(5)
H81 H 1.1864 0.9978 0.2312
C63 C 1.0276(11) 1.0326(5) 0.2311(5)
C64 C 0.9994(13) 1.0323(6) 0.2673(4)
H82 H 0.9214 1.0256 0.2693
C65 C 1.0276(10) 1.0974(5) 0.2837(3)
H83 H 0.9866 1.1304 0.2730
H84 H 1.1032 1.1058 0.2809
H85 H 1.0105 1.0961 0.3073
C66 C 1.0564(12) 0.9796(6) 0.2861(4)
H86 H 1.0346 0.9393 0.2771
H87 H 1.0377 0.9816 0.3096
H88 H 1.1329 0.9844 0.2837
C67 C 0.891(3) 1.095(2) 0.1494(9)
H89 H 0.8342 1.1158 0.1622
C68 C 0.851(5) 1.039(2) 0.1266(16)
H90 H 0.7962 1.0157 0.1384
H91 H 0.9100 1.0117 0.1213
H92 H 0.8211 1.0563 0.1062
C69 C 0.959(5) 1.140(3) 0.1268(15)
H93 H 0.9846 1.1749 0.1401
H94 H 0.9155 1.1554 0.1087
H95 H 1.0200 1.1171 0.1178
C70 C 0.5786(9) 1.0971(5) 0.2399(4)
C71 C 0.5018(12) 1.0972(5) 0.2131(4)
C72 C 0.3963(15) 1.0950(7) 0.2230(5)
H96 H 0.3415 1.0950 0.2070
C73 C 0.3710(17) 1.0928(8) 0.2576(6)
H97 H 0.2986 1.0902 0.2636
C74 C 0.4448(14) 1.0943(7) 0.2827(5)
H98 H 0.4234 1.0943 0.3051
C75 C 0.5546(11) 1.0956(6) 0.2740(4)
C76 C 0.6417(13) 1.0980(8) 0.3002(3)
H99 H 0.7112 1.1020 0.2886
C77 C 0.6429(13) 1.0365(7) 0.3205(4)
H100 H 0.6527 1.0012 0.3055
H101 H 0.5757 1.0320 0.3322
H102 H 0.7011 1.0377 0.3364
C78 C 0.6280(13) 1.1546(7) 0.3230(3)
H103 H 0.6339 1.1929 0.3100
H104 H 0.6830 1.1541 0.3400
H105 H 0.5583 1.1529 0.3335
C79 C 0.5336(12) 1.0957(7) 0.1764(4)
H106 H 0.6109 1.0862 0.1752
C80 C 0.5166(17) 1.1629(6) 0.1628(4)
H107 H 0.5572 1.1925 0.1761
H108 H 0.4413 1.1735 0.1639
H109 H 0.5404 1.1649 0.1398
C81 C 0.4758(13) 1.0485(7) 0.1551(4)
H110 H 0.5088 1.0467 0.1332
H111 H 0.4017 1.0608 0.1528
H112 H 0.4798 1.0074 0.1655
C82 C 0.7694(8) 0.8523(5) 0.2230(3)
C83 C 0.6870(9) 0.7567(5) 0.2141(3)
H113 H 0.6359 0.7268 0.2077
C84 C 0.7828(10) 0.7447(5) 0.2274(3)
H114 H 0.8108 0.7049 0.2325
C85 C 0.9364(10) 0.8065(5) 0.2499(3)
C86 C 1.0313(10) 0.8054(5) 0.2317(3)
C87 C 1.1248(9) 0.8082(5) 0.2502(3)
H115 H 1.1902 0.8059 0.2388
C88 C 1.1269(11) 0.8142(5) 0.2847(4)
H116 H 1.1923 0.8183 0.2959
C89 C 1.0309(12) 0.8142(5) 0.3025(3)
H117 H 1.0316 0.8173 0.3259
C90 C 0.9307(10) 0.8092(5) 0.2848(3)
C91 C 0.8250(11) 0.8083(8) 0.3040(3)
H118 H 0.7659 0.8055 0.2877
C92 C 0.8160(12) 0.7540(8) 0.3276(4)
H119 H 0.8203 0.7149 0.3152
H120 H 0.7481 0.7560 0.3392
H121 H 0.8737 0.7558 0.3437
C93 C 0.8130(12) 0.8721(8) 0.3238(4)
H122 H 0.7461 0.8720 0.3359
H123 H 0.8139 0.9070 0.3082
H124 H 0.8718 0.8763 0.3394
C94 C 1.0331(9) 0.7975(5) 0.1941(3)
H125 H 0.9639 0.7787 0.1876
C95 C 1.1215(9) 0.7531(5) 0.1814(3)
H126 H 1.1170 0.7498 0.1573
H127 H 1.1121 0.7119 0.1912
H128 H 1.1908 0.7697 0.1876
C96 C 1.0409(12) 0.8603(6) 0.1768(3)
H129 H 0.9838 0.8875 0.1845
H130 H 1.0347 0.8544 0.1529
H131 H 1.1092 0.8795 0.1819
C97 C 0.5815(8) 0.8480(5) 0.1955(3)
C98 C 0.5762(10) 0.8500(5) 0.1606(3)
C99 C 0.4794(11) 0.8673(6) 0.1460(3)
H132 H 0.4719 0.8675 0.1227
C100 C 0.3940(12) 0.8843(6) 0.1664(4)
H133 H 0.3298 0.8974 0.1565
C101 C 0.4010(10) 0.8824(5) 0.2005(4)
H134 H 0.3406 0.8922 0.2134
C102 C 0.4967(10) 0.8662(5) 0.2164(3)
C103 C 0.5067(9) 0.8648(6) 0.2542(3)
H135 H 0.5834 0.8692 0.2597
C104 C 0.4473(11) 0.9201(6) 0.2707(3)
H136 H 0.4725 0.9594 0.2612
H137 H 0.4608 0.9198 0.2945
H138 H 0.3713 0.9160 0.2667
C105 C 0.4675(10) 0.8009(6) 0.2691(3)
H139 H 0.5080 0.7667 0.2593
H140 H 0.3923 0.7953 0.2641
H141 H 0.4778 0.8010 0.2930
C106 C 0.6730(11) 0.8313(8) 0.1393(3)
H142 H 0.7319 0.8183 0.1542
C107 C 0.7084(13) 0.8910(8) 0.1193(4)
H143 H 0.7253 0.9246 0.1348
H144 H 0.6509 0.9042 0.1047
H145 H 0.7710 0.8811 0.1061
C108 C 0.6489(11) 0.7772(7) 0.1147(3)
H146 H 0.6298 0.7397 0.1272
H147 H 0.7116 0.7687 0.1013
H148 H 0.5900 0.7891 0.1003
C109? C 0.893(3) 1.0774(17) 0.1445(7)
H149? H 0.8218 1.0717 0.1552
C110? C 0.891(5) 1.032(2) 0.1137(10)
H150? H 0.8368 1.0452 0.0981
H151? H 0.8763 0.9895 0.1212
H152? H 0.9606 1.0328 0.1028
C111? C 0.893(5) 1.1472(16) 0.1319(12)
H153? H 0.8359 1.1530 0.1158
H154? H 0.9609 1.1563 0.1214
H155? H 0.8822 1.1753 0.1506
loop_
_geom_bond_atom_site_label_1
_geom_bond_atom_site_label_2
_geom_bond_site_symmetry_1
_geom_bond_site_symmetry_2
B1 H1 1_555 1_555
B2 B1 1_555 1_555
H2 B2 1_555 1_555
N1 C1 1_555 1_555
N2 C1 1_555 1_555
N3 C28 1_555 1_555
N4 C28 1_555 1_555
C1 B1 1_555 1_555
C2 N1 1_555 1_555
H3 C2 1_555 1_555
C3 N2 1_555 1_555
H4 C3 1_555 1_555
C4 N2 1_555 1_555
C5 C4 1_555 1_555
C6 C5 1_555 1_555
H5 C6 1_555 1_555
C7 C6 1_555 1_555
H6 C7 1_555 1_555
C8 C7 1_555 1_555
H7 C8 1_555 1_555
C9 C4 1_555 1_555
C10 C9 1_555 1_555
H8 C10 1_555 1_555
C11 C10 1_555 1_555
H9 C11 1_555 1_555
H10 C11 1_555 1_555
H11 C11 1_555 1_555
C12 C10 1_555 1_555
H12 C12 1_555 1_555
H13 C12 1_555 1_555
H14 C12 1_555 1_555
C13 C5 1_555 1_555
H15 C13 1_555 1_555
C14 C13 1_555 1_555
H16 C14 1_555 1_555
H17 C14 1_555 1_555
H18 C14 1_555 1_555
C15 C13 1_555 1_555
H19 C15 1_555 1_555
H20 C15 1_555 1_555
H21 C15 1_555 1_555
C16 N1 1_555 1_555
C17 C16 1_555 1_555
C18 C17 1_555 1_555
H22 C18 1_555 1_555
C19 C18 1_555 1_555
H23 C19 1_555 1_555
C20 C19 1_555 1_555
H24 C20 1_555 1_555
C21 C16 1_555 1_555
C22 C21 1_555 1_555
H25 C22 1_555 1_555
C23 C22 1_555 1_555
H26 C23 1_555 1_555
H27 C23 1_555 1_555
H28 C23 1_555 1_555
C24 C22 1_555 1_555
H29 C24 1_555 1_555
H30 C24 1_555 1_555
H31 C24 1_555 1_555
C25 C17 1_555 1_555
H32 C25 1_555 1_555
C26 C25 1_555 1_555
H33 C26 1_555 1_555
H34 C26 1_555 1_555
H35 C26 1_555 1_555
C27 C25 1_555 1_555
H36 C27 1_555 1_555
H37 C27 1_555 1_555
H38 C27 1_555 1_555
C28 B2 1_555 1_555
C29 N3 1_555 1_555
H39 C29 1_555 1_555
C30 N4 1_555 1_555
H40 C30 1_555 1_555
C31 N4 1_555 1_555
C32 C31 1_555 1_555
C33 C32 1_555 1_555
H41 C33 1_555 1_555
C34 C33 1_555 1_555
H42 C34 1_555 1_555
C35 C34 1_555 1_555
H43 C35 1_555 1_555
C36 C31 1_555 1_555
C37 C36 1_555 1_555
H44 C37 1_555 1_555
C38 C37 1_555 1_555
H45 C38 1_555 1_555
H46 C38 1_555 1_555
H47 C38 1_555 1_555
C39 C37 1_555 1_555
H48 C39 1_555 1_555
H49 C39 1_555 1_555
H50 C39 1_555 1_555
C40 C32 1_555 1_555
H51 C40 1_555 1_555
C41 C40 1_555 1_555
H52 C41 1_555 1_555
H53 C41 1_555 1_555
H54 C41 1_555 1_555
C42 C40 1_555 1_555
H55 C42 1_555 1_555
H56 C42 1_555 1_555
H57 C42 1_555 1_555
C43 N3 1_555 1_555
C44 C43 1_555 1_555
C45 C44 1_555 1_555
H58 C45 1_555 1_555
C46 C45 1_555 1_555
H59 C46 1_555 1_555
C47 C46 1_555 1_555
H60 C47 1_555 1_555
C48 C43 1_555 1_555
C49 C48 1_555 1_555
H61 C49 1_555 1_555
C50 C49 1_555 1_555
H62 C50 1_555 1_555
H63 C50 1_555 1_555
H64 C50 1_555 1_555
C51 C49 1_555 1_555
H65 C51 1_555 1_555
H66 C51 1_555 1_555
H67 C51 1_555 1_555
C52 C44 1_555 1_555
H68 C52 1_555 1_555
C53 C52 1_555 1_555
H69 C53 1_555 1_555
H70 C53 1_555 1_555
H71 C53 1_555 1_555
C54 C52 1_555 1_555
H72 C54 1_555 1_555
H73 C54 1_555 1_555
H74 C54 1_555 1_555
B3 H75 1_555 1_555
B4 B3 1_555 1_555
H76 B4 1_555 1_555
N5 C55 1_555 1_555
N6 C55 1_555 1_555
N7 C82 1_555 1_555
N8 C82 1_555 1_555
C55 B3 1_555 1_555
C56 N5 1_555 1_555
H77 C56 1_555 1_555
C57 N6 1_555 1_555
H78 C57 1_555 1_555
C58 N6 1_555 1_555
C59 C58 1_555 1_555
C60 C59 1_555 1_555
H79 C60 1_555 1_555
C61 C60 1_555 1_555
H80 C61 1_555 1_555
C62 C61 1_555 1_555
H81 C62 1_555 1_555
C63 C58 1_555 1_555
C64 C63 1_555 1_555
H82 C64 1_555 1_555
C65 C64 1_555 1_555
H83 C65 1_555 1_555
H84 C65 1_555 1_555
H85 C65 1_555 1_555
C66 C64 1_555 1_555
H86 C66 1_555 1_555
H87 C66 1_555 1_555
H88 C66 1_555 1_555
C67 C59 1_555 1_555
H89 C67 1_555 1_555
C68 C67 1_555 1_555
H90 C68 1_555 1_555
H91 C68 1_555 1_555
H92 C68 1_555 1_555
C69 C67 1_555 1_555
H93 C69 1_555 1_555
H94 C69 1_555 1_555
H95 C69 1_555 1_555
C70 N5 1_555 1_555
C71 C70 1_555 1_555
C72 C71 1_555 1_555
H96 C72 1_555 1_555
C73 C72 1_555 1_555
H97 C73 1_555 1_555
C74 C73 1_555 1_555
H98 C74 1_555 1_555
C75 C70 1_555 1_555
C76 C75 1_555 1_555
H99 C76 1_555 1_555
C77 C76 1_555 1_555
H100 C77 1_555 1_555
H101 C77 1_555 1_555
H102 C77 1_555 1_555
C78 C76 1_555 1_555
H103 C78 1_555 1_555
H104 C78 1_555 1_555
H105 C78 1_555 1_555
C79 C71 1_555 1_555
H106 C79 1_555 1_555
C80 C79 1_555 1_555
H107 C80 1_555 1_555
H108 C80 1_555 1_555
H109 C80 1_555 1_555
C81 C79 1_555 1_555
H110 C81 1_555 1_555
H111 C81 1_555 1_555
H112 C81 1_555 1_555
C82 B4 1_555 1_555
C83 N7 1_555 1_555
H113 C83 1_555 1_555
C84 N8 1_555 1_555
H114 C84 1_555 1_555
C85 N8 1_555 1_555
C86 C85 1_555 1_555
C87 C86 1_555 1_555
H115 C87 1_555 1_555
C88 C87 1_555 1_555
H116 C88 1_555 1_555
C89 C88 1_555 1_555
H117 C89 1_555 1_555
C90 C85 1_555 1_555
C91 C90 1_555 1_555
H118 C91 1_555 1_555
C92 C91 1_555 1_555
H119 C92 1_555 1_555
H120 C92 1_555 1_555
H121 C92 1_555 1_555
C93 C91 1_555 1_555
H122 C93 1_555 1_555
H123 C93 1_555 1_555
H124 C93 1_555 1_555
C94 C86 1_555 1_555
H125 C94 1_555 1_555
C95 C94 1_555 1_555
H126 C95 1_555 1_555
H127 C95 1_555 1_555
H128 C95 1_555 1_555
C96 C94 1_555 1_555
H129 C96 1_555 1_555
H130 C96 1_555 1_555
H131 C96 1_555 1_555
C97 N7 1_555 1_555
C98 C97 1_555 1_555
C99 C98 1_555 1_555
H132 C99 1_555 1_555
C100 C99 1_555 1_555
H133 C100 1_555 1_555
C101 C100 1_555 1_555
H134 C101 1_555 1_555
C102 C97 1_555 1_555
C103 C102 1_555 1_555
H135 C103 1_555 1_555
C104 C103 1_555 1_555
H136 C104 1_555 1_555
H137 C104 1_555 1_555
H138 C104 1_555 1_555
C105 C103 1_555 1_555
H139 C105 1_555 1_555
H140 C105 1_555 1_555
H141 C105 1_555 1_555
C106 C98 1_555 1_555
H142 C106 1_555 1_555
C107 C106 1_555 1_555
H143 C107 1_555 1_555
H144 C107 1_555 1_555
H145 C107 1_555 1_555
C108 C106 1_555 1_555
H146 C108 1_555 1_555
H147 C108 1_555 1_555
H148 C108 1_555 1_555
C2 C3 1_555 1_555
C8 C9 1_555 1_555
C20 C21 1_555 1_555
C29 C30 1_555 1_555
C35 C36 1_555 1_555
C47 C48 1_555 1_555
C56 C57 1_555 1_555
C62 C63 1_555 1_555
C74 C75 1_555 1_555
C83 C84 1_555 1_555
C89 C90 1_555 1_555
C101 C102 1_555 1_555

#END
