
#######################################################################
#
#                 Cambridge Crystallographic Data Centre
#                                CCDC 
#
#######################################################################
#
# If this CIF has been generated from an entry in the Cambridge 
# Structural Database, then it will include bibliographic, chemical, 
# crystal, experimental, refinement or atomic coordinate data resulting 
# from the CCDC's data processing and validation procedures.
#
#######################################################################

data_VIXFIS
_chemical_name_common            
5,11,17,23-Tetra-t-butyl-28-(ethoxycarbonylmethoxy)-25,26,27-tris(N-hexylcarbamoylmethoxy)-2,8,14,20-tetrathiacalix(4)arene
_chemical_formula_moiety         'C68 H99 N3 O9 S4'
_chemical_name_systematic        
5,11,17,23-Tetra-t-butyl-28-(ethoxycarbonylmethoxy)-25,26,27-tris(N-hexylcarbamoylmethoxy)-2,8,14,20-tetrathiapentacyclo(19.3.1.1^3,7^.1^9,13^.1^15,19^)octacosa-1(25),3,5,7(28),9,11,13(27),15,17,19(26),21,23-dodecaene
_symmetry_cell_setting           monoclinic
_symmetry_space_group_name_H-M   'P 21/n'
_symmetry_Int_Tables_number      14
_space_group_name_Hall           '-P 2yn'
loop_
_symmetry_equiv_pos_site_id
_symmetry_equiv_pos_as_xyz
1 x,y,z
2 1/2-x,1/2+y,1/2-z
3 -x,-y,-z
4 1/2+x,1/2-y,1/2+z
_cell_length_a                   17.680(4)
_cell_length_b                   21.407(5)
_cell_length_c                   20.337(5)
_cell_angle_alpha                90
_cell_angle_beta                 110.957(6)
_cell_angle_gamma                90
_cell_volume                     7187.89
_exptl_crystal_colour            white
_exptl_crystal_description       rod
_chemical_melting_point          '169 deg.C(dec.)'
_cell_formula_units_Z            4
_exptl_crystal_recrystallization_method dichloromethane/acetonitrile
loop_
_atom_site_label
_atom_site_type_symbol
_atom_site_fract_x
_atom_site_fract_y
_atom_site_fract_z
S1 S 0.07158(11) 0.58133(9) 0.47771(10)
S2 S -0.09983(12) 0.74591(8) 0.26483(9)
S3 S -0.04953(12) 0.93901(9) 0.45433(12)
S4 S 0.13307(13) 0.77985(10) 0.66455(10)
O1 O -0.0225(3) 0.8637(2) 0.3390(2)
O2 O 0.0379(3) 0.7036(2) 0.4074(2)
O3 O 0.1649(3) 0.6909(2) 0.5579(2)
O4 O -0.0192(3) 0.8454(2) 0.5725(3)
O5 O 0.0835(5) 0.9609(4) 0.3096(4)
O6 O 0.1497(5) 0.6466(4) 0.3597(4)
O7 O 0.3705(4) 0.6454(3) 0.6257(4)
O8 O -0.1258(5) 0.8128(4) 0.6327(6)
O9 O 0.1932(4) 0.7385(3) 0.3401(4)
N1 N 0.2736(4) 0.6269(4) 0.5220(4)
H1 H 0.2232 0.6319 0.4973
N2 N 0.0294(5) 0.9037(5) 0.2131(6)
H2 H -0.0131 0.8834 0.1879
N3 N -0.1392(5) 0.9105(4) 0.6590(5)
H3 H -0.1222 0.9484 0.6612
C1 C 0.0971(4) 0.6765(3) 0.5745(4)
C2 C 0.0758(5) 0.7132(3) 0.6223(4)
C3 C 0.0099(5) 0.6956(4) 0.6385(4)
H4 H -0.0043 0.7201 0.6700
C4 C -0.0363(5) 0.6440(4) 0.6109(4)
C5 C -0.0155(5) 0.6110(4) 0.5608(4)
H5 H -0.0470 0.5768 0.5391
C6 C 0.0494(5) 0.6266(3) 0.5420(3)
C7 C -0.0122(4) 0.6008(3) 0.4000(3)
C8 C -0.0699(4) 0.5562(3) 0.3708(3)
H6 H -0.0641 0.5174 0.3926
C9 C -0.1367(4) 0.5663(3) 0.3099(3)
C10 C -0.1404(4) 0.6255(3) 0.2808(4)
H7 H -0.1842 0.6342 0.2399
C11 C -0.0837(4) 0.6729(3) 0.3080(3)
C12 C -0.0181(4) 0.6597(3) 0.3695(4)
C13 C -0.1311(5) 0.7910(3) 0.3239(4)
C14 C -0.1992(5) 0.7741(4) 0.3389(4)
H8 H -0.2288 0.7393 0.3168
C15 C -0.2240(5) 0.8071(4) 0.3852(4)
C16 C -0.1767(5) 0.8567(4) 0.4190(4)
H9 H -0.1912 0.8788 0.4520
C17 C -0.1085(5) 0.8750(3) 0.4059(4)
C18 C -0.0878(4) 0.8433(3) 0.3558(4)
C19 C 0.0489(5) 0.8592(3) 0.5567(4)
C20 C 0.1218(5) 0.8304(3) 0.5928(4)
C21 C 0.1893(4) 0.8466(3) 0.5771(4)
H10 H 0.2389 0.8287 0.6034
C22 C 0.1866(5) 0.8883(4) 0.5240(4)
C23 C 0.1116(5) 0.9130(3) 0.4868(4)
H11 H 0.1071 0.9400 0.4497
C24 C 0.0424(4) 0.9000(3) 0.5013(4)
C25 C -0.1071(5) 0.6233(4) 0.6314(5)
C26 C -0.1834(7) 0.6461(10) 0.5751(9)
H12 H -0.2222 0.6577 0.5960
H13 H -0.2056 0.6134 0.5413
H14 H -0.1712 0.6817 0.5519
C27 C -0.1051(9) 0.6518(7) 0.6987(7)
H15 H -0.1053 0.6965 0.6947
H16 H -0.0569 0.6388 0.7362
H17 H -0.1518 0.6387 0.7086
C28 C -0.1069(8) 0.5530(5) 0.6405(8)
H18 H -0.1466 0.5416 0.6605
H19 H -0.0543 0.5397 0.6712
H20 H -0.1198 0.5332 0.5954
C29 C -0.2018(5) 0.5174(4) 0.2798(4)
C30 C -0.2706(7) 0.5385(5) 0.2167(6)
H21 H -0.2999 0.5709 0.2300
H22 H -0.3062 0.5040 0.1973
H23 H -0.2502 0.5543 0.1821
C31 C -0.2332(7) 0.4979(6) 0.3366(6)
H24 H -0.2675 0.5301 0.3433
H25 H -0.1884 0.4912 0.3798
H26 H -0.2636 0.4599 0.3229
C32 C -0.1645(7) 0.4592(5) 0.2650(8)
H27 H -0.2025 0.4255 0.2566
H28 H -0.1168 0.4494 0.3048
H29 H -0.1501 0.4654 0.2242
C33 C -0.3012(5) 0.7903(5) 0.3983(5)
C34 C -0.3722(6) 0.8120(10) 0.3401(8)
H30 H -0.4204 0.7966 0.3460
H31 H -0.3699 0.7968 0.2964
H32 H -0.3731 0.8568 0.3395
C35 C -0.3003(9) 0.8123(10) 0.4673(8)
H33 H -0.3092 0.8566 0.4654
H34 H -0.2487 0.8030 0.5028
H35 H -0.3423 0.7917 0.4785
C36 C -0.3085(10) 0.7202(8) 0.4001(12)
H36 H -0.3536 0.7095 0.4137
H37 H -0.2597 0.7031 0.4336
H38 H -0.3170 0.7035 0.3543
C37 C 0.2596(5) 0.9064(4) 0.5077(5)
C38 C 0.2501(7) 0.8846(6) 0.4338(6)
H39 H 0.2508 0.8398 0.4326
H40 H 0.2939 0.9008 0.4215
H41 H 0.1996 0.8996 0.4009
C39 C 0.3379(5) 0.8796(6) 0.5614(6)
H42 H 0.3429 0.8928 0.6079
H43 H 0.3835 0.8944 0.5509
H44 H 0.3361 0.8348 0.5591
C40 C 0.2687(6) 0.9774(5) 0.5108(6)
H45 H 0.2186 0.9963 0.4818
H46 H 0.3110 0.9893 0.4940
H47 H 0.2822 0.9913 0.5585
C41 C 0.2423(4) 0.6815(4) 0.6117(4)
H48 H 0.2356 0.6567 0.6491
H49 H 0.2644 0.7217 0.6313
C42 C 0.3006(5) 0.6498(4) 0.5859(5)
C43 C 0.3241(8) 0.5931(8) 0.4897(7)
H50 H 0.3794 0.6082 0.5093
H51 H 0.3040 0.6008 0.4394
C44 C 0.3222(11) 0.5235(10) 0.5034(15)
H52 H 0.2941 0.5180 0.5362
H53 H 0.2887 0.5042 0.4595
C45 C 0.3990(19) 0.4864(13) 0.531(2)
C46 C 0.0851(5) 0.7386(4) 0.3773(5)
H54 H 0.1139 0.7708 0.4103
H55 H 0.0492 0.7593 0.3353
C47 C 0.1439(7) 0.7016(5) 0.3585(5)
C48 C 0.2535(9) 0.7094(6) 0.3184(9)
H56 H 0.2278 0.6897 0.2729
H57 H 0.2813 0.6773 0.3520
C49 C 0.3107(9) 0.7552(7) 0.3139(10)
H58 H 0.2859 0.7958 0.3067
H59 H 0.3275 0.7453 0.2752
H60 H 0.3570 0.7552 0.3569
C50 C -0.0426(5) 0.9138(4) 0.2902(4)
H61 H -0.0585 0.9501 0.3108
H62 H -0.0875 0.9022 0.2481
C51 C 0.0303(6) 0.9284(4) 0.2726(6)
C52 C 0.0979(10) 0.9088(9) 0.1869(9)
H63 H 0.0802 0.9320 0.1431
H64 H 0.1419 0.9318 0.2209
C53 C 0.1273(15) 0.8472(14) 0.175(2)
H65 H 0.1572 0.8549 0.1445
H66 H 0.1675 0.8357 0.2206
C54 C 0.081(2) 0.7898(16) 0.149(2)
C55 C 0.060(3) 0.724(3) 0.088(2)
C56 C -0.0042(15) 0.7255(15) 0.016(2)
H67 H -0.0551 0.7361 0.0202
H68 H -0.0082 0.6852 -0.0055
H69 H 0.0096 0.7562 -0.0120
C57 C -0.0294(5) 0.8861(4) 0.6238(5)
H70 H -0.0359 0.9287 0.6065
H71 H 0.0180 0.8844 0.6666
C58 C -0.1029(6) 0.8663(6) 0.6386(5)
C59 C -0.2089(11) 0.8960(7) 0.6782(12)
C60 C -0.3383(12) 0.9349(12) 0.6886(13)
C61 C -0.3900(16) 0.9889(15) 0.6622(16)
C62 C -0.498(2) 1.030(2) 0.622(2)
C63 C 0.444(5) 0.424(2) 0.558(3)
C64 C 0.450(3) 0.4260(19) 0.635(3)
C65 C 0.512(2) 0.374(2) 0.647(3)
C66 C 0.047(3) 0.793(3) 0.068(3)
C67 C -0.2641(11) 0.9483(9) 0.6667(13)
C68 C -0.469(3) 0.968(2) 0.667(3)
C69? C 0.402(2) 0.423(2) 0.566(5)
C70? C 0.486(3) 0.422(3) 0.624(3)
C71? C 0.577(3) 0.412(5) 0.667(3)
C72? C 0.073(6) 0.807(5) 0.091(4)
C73? C -0.247(2) 0.9363(15) 0.719(2)
C74? C -0.435(3) 0.996(5) 0.615(4)
loop_
_geom_bond_atom_site_label_1
_geom_bond_atom_site_label_2
_geom_bond_site_symmetry_1
_geom_bond_site_symmetry_2
S1 C6 1_555 1_555
S2 C11 1_555 1_555
S3 C17 1_555 1_555
S4 C2 1_555 1_555
O1 C18 1_555 1_555
O2 C12 1_555 1_555
O3 C1 1_555 1_555
O4 C19 1_555 1_555
O5 C51 1_555 1_555
O6 C47 1_555 1_555
O7 C42 1_555 1_555
O8 C58 1_555 1_555
O9 C47 1_555 1_555
N1 H1 1_555 1_555
N2 H2 1_555 1_555
N3 H3 1_555 1_555
C1 C2 1_555 1_555
C2 C3 1_555 1_555
C3 H4 1_555 1_555
C4 C3 1_555 1_555
C5 C4 1_555 1_555
H5 C5 1_555 1_555
C6 C1 1_555 1_555
C7 S1 1_555 1_555
C8 C7 1_555 1_555
H6 C8 1_555 1_555
C9 C8 1_555 1_555
C10 C9 1_555 1_555
H7 C10 1_555 1_555
C11 C10 1_555 1_555
C12 C7 1_555 1_555
C13 S2 1_555 1_555
C14 C13 1_555 1_555
H8 C14 1_555 1_555
C15 C14 1_555 1_555
C16 C15 1_555 1_555
H9 C16 1_555 1_555
C17 C16 1_555 1_555
C18 C13 1_555 1_555
C19 C20 1_555 1_555
C20 S4 1_555 1_555
C21 C20 1_555 1_555
H10 C21 1_555 1_555
C22 C21 1_555 1_555
C23 C22 1_555 1_555
H11 C23 1_555 1_555
C24 S3 1_555 1_555
C25 C4 1_555 1_555
C26 C25 1_555 1_555
H12 C26 1_555 1_555
H13 C26 1_555 1_555
H14 C26 1_555 1_555
C27 C25 1_555 1_555
H15 C27 1_555 1_555
H16 C27 1_555 1_555
H17 C27 1_555 1_555
C28 C25 1_555 1_555
H18 C28 1_555 1_555
H19 C28 1_555 1_555
H20 C28 1_555 1_555
C29 C9 1_555 1_555
C30 C29 1_555 1_555
H21 C30 1_555 1_555
H22 C30 1_555 1_555
H23 C30 1_555 1_555
C31 C29 1_555 1_555
H24 C31 1_555 1_555
H25 C31 1_555 1_555
H26 C31 1_555 1_555
C32 C29 1_555 1_555
H27 C32 1_555 1_555
H28 C32 1_555 1_555
H29 C32 1_555 1_555
C33 C15 1_555 1_555
C34 C33 1_555 1_555
H30 C34 1_555 1_555
H31 C34 1_555 1_555
H32 C34 1_555 1_555
C35 C33 1_555 1_555
H33 C35 1_555 1_555
H34 C35 1_555 1_555
H35 C35 1_555 1_555
C36 C33 1_555 1_555
H36 C36 1_555 1_555
H37 C36 1_555 1_555
H38 C36 1_555 1_555
C37 C22 1_555 1_555
C38 C37 1_555 1_555
H39 C38 1_555 1_555
H40 C38 1_555 1_555
H41 C38 1_555 1_555
C39 C37 1_555 1_555
H42 C39 1_555 1_555
H43 C39 1_555 1_555
H44 C39 1_555 1_555
C40 C37 1_555 1_555
H45 C40 1_555 1_555
H46 C40 1_555 1_555
H47 C40 1_555 1_555
C41 O3 1_555 1_555
H48 C41 1_555 1_555
H49 C41 1_555 1_555
C42 N1 1_555 1_555
C43 N1 1_555 1_555
H50 C43 1_555 1_555
H51 C43 1_555 1_555
C44 C43 1_555 1_555
H52 C44 1_555 1_555
H53 C44 1_555 1_555
C45 C44 1_555 1_555
C46 O2 1_555 1_555
H54 C46 1_555 1_555
H55 C46 1_555 1_555
C47 C46 1_555 1_555
C48 O9 1_555 1_555
H56 C48 1_555 1_555
H57 C48 1_555 1_555
C49 C48 1_555 1_555
H58 C49 1_555 1_555
H59 C49 1_555 1_555
H60 C49 1_555 1_555
C50 O1 1_555 1_555
H61 C50 1_555 1_555
H62 C50 1_555 1_555
C51 N2 1_555 1_555
C52 N2 1_555 1_555
H63 C52 1_555 1_555
H64 C52 1_555 1_555
C53 C52 1_555 1_555
H65 C53 1_555 1_555
H66 C53 1_555 1_555
C54 C53 1_555 1_555
C55 C56 1_555 1_555
C56 H67 1_555 1_555
H68 C56 1_555 1_555
H69 C56 1_555 1_555
C57 O4 1_555 1_555
H70 C57 1_555 1_555
H71 C57 1_555 1_555
C58 N3 1_555 1_555
C59 N3 1_555 1_555
C60 C61 1_555 1_555
C61 C68 1_555 1_555
C62 C68 1_555 1_555
C63 C45 1_555 1_555
C64 C63 1_555 1_555
C65 C64 1_555 1_555
C66 C54 1_555 1_555
C67 C59 1_555 1_555
C5 C6 1_555 1_555
C11 C12 1_555 1_555
C17 C18 1_555 1_555
C19 C24 1_555 1_555
C23 C24 1_555 1_555
C41 C42 1_555 1_555
C50 C51 1_555 1_555
C55 C66 1_555 1_555
C57 C58 1_555 1_555
C60 C67 1_555 1_555

#END
