
#######################################################################
#
#                 Cambridge Crystallographic Data Centre
#                                CCDC 
#
#######################################################################
#
# If this CIF has been generated from an entry in the Cambridge 
# Structural Database, then it will include bibliographic, chemical, 
# crystal, experimental, refinement or atomic coordinate data resulting 
# from the CCDC's data processing and validation procedures.
#
#######################################################################

data_VIXFOY
_chemical_name_common            
5,11,17,23-Tetra-t-butyl-28-(ethoxycarbonylmethoxy)-25,26,27-tris(N-propylcarbamoylmethoxy)-2,8,14,20-tetrathiacalix(4)arene
_chemical_formula_moiety         'C59 H81 N3 O9 S4'
_chemical_name_systematic        
5,11,17,23-Tetra-t-butyl-28-(ethoxycarbonylmethoxy)-25,26,27-tris(N-propylcarbamoylmethoxy)-2,8,14,20-tetrathiapentacyclo(19.3.1.1^3,7^.1^9,13^.1^15,19^)octacosa-1(25),3,5,7(28),9,11,13(27),15,17,19(26),21,23-dodecaene
_symmetry_cell_setting           monoclinic
_symmetry_space_group_name_H-M   'C 2/c'
_symmetry_Int_Tables_number      15
_space_group_name_Hall           '-C 2yn'
loop_
_symmetry_equiv_pos_site_id
_symmetry_equiv_pos_as_xyz
1 x,y,z
2 1/2+x,1/2+y,z
3 -x,y,1/2-z
4 1/2-x,1/2+y,1/2-z
5 -x,-y,-z
6 1/2-x,1/2-y,-z
7 x,-y,1/2+z
8 1/2+x,1/2-y,1/2+z
_cell_length_a                   31.310(4)
_cell_length_b                   21.062(3)
_cell_length_c                   21.817(3)
_cell_angle_alpha                90
_cell_angle_beta                 118.632(2)
_cell_angle_gamma                90
_cell_volume                     12627.9
_exptl_crystal_colour            colorless
_exptl_crystal_description       needle
_chemical_melting_point          '243 deg.C(dec.)'
_cell_formula_units_Z            8
_exptl_crystal_recrystallization_method dichloromethane/acetonitrile
loop_
_atom_site_label
_atom_site_type_symbol
_atom_site_fract_x
_atom_site_fract_y
_atom_site_fract_z
S1 S 0.16841(5) -0.00839(6) 0.63015(8)
S2 S 0.25287(6) 0.18845(7) 0.56097(8)
S3 S 0.19952(7) -0.17286(7) 0.45534(8)
S4 S 0.25908(6) 0.03572(7) 0.35929(8)
O1 O 0.17076(13) 0.11478(16) 0.56129(18)
O2 O 0.17820(15) -0.04902(17) 0.49646(19)
O3 O 0.18510(15) -0.05872(17) 0.36457(19)
O4 O 0.29793(13) 0.09680(17) 0.50182(19)
O5 O 0.1000(3) 0.2192(4) 0.4988(5)
O6 O 0.0868(2) -0.1040(3) 0.4183(3)
O7 O 0.1064(2) -0.1070(2) 0.1899(3)
O8 O 0.3907(2) 0.0737(5) 0.5857(5)
O9 O 0.0533(3) -0.0090(3) 0.4054(5)
N1 N 0.0710(3) 0.1611(7) 0.5483(6)
H1 H 0.0753 0.1464 0.5876
N2 N 0.1120(2) -0.1392(3) 0.2909(3)
H2 H 0.1268 -0.1346 0.3355
N3 N 0.4157(3) 0.1509(5) 0.5500(6)
H3 H 0.4083 0.1803 0.5192
C1 C 0.2159(2) 0.0915(2) 0.6063(3)
C2 C 0.2577(2) 0.1206(2) 0.6129(3)
C3 C 0.3033(2) 0.0973(3) 0.6597(3)
H4 H 0.3309 0.1169 0.6630
C4 C 0.3087(2) 0.0452(3) 0.7019(3)
C5 C 0.2665(2) 0.0156(3) 0.6912(3)
H5 H 0.2692 -0.0203 0.7175
C6 C 0.2205(2) 0.0359(2) 0.6438(3)
C7 C 0.18478(19) -0.0824(2) 0.6082(3)
C8 C 0.1981(2) -0.1314(2) 0.6572(3)
H6 H 0.1966 -0.1237 0.6981
C9 C 0.2134(2) -0.1907(2) 0.6483(3)
C10 C 0.2147(2) -0.1999(2) 0.5856(3)
H7 H 0.2254 -0.2387 0.5776
C11 C 0.2005(2) -0.1530(2) 0.5356(3)
C12 C 0.18580(18) -0.0934(2) 0.5463(3)
C13 C 0.2448(2) -0.1225(2) 0.4553(3)
C14 C 0.2931(3) -0.1371(3) 0.4987(3)
H8 H 0.3003 -0.1719 0.5283
C15 C 0.3313(3) -0.1028(3) 0.5004(3)
C16 C 0.3188(2) -0.0495(3) 0.4578(3)
H9 H 0.3435 -0.0239 0.4594
C17 C 0.2710(2) -0.0328(3) 0.4132(3)
C18 C 0.2332(2) -0.0713(2) 0.4093(3)
C19 C 0.2278(2) 0.0869(2) 0.3894(3)
C20 C 0.1805(2) 0.1053(3) 0.3428(3)
H10 H 0.1659 0.0889 0.2977
C21 C 0.1541(2) 0.1469(3) 0.3608(3)
C22 C 0.1773(2) 0.1699(2) 0.4290(3)
H11 H 0.1604 0.1971 0.4433
C23 C 0.2249(2) 0.1536(2) 0.4763(3)
C24 C 0.2506(2) 0.1127(2) 0.4561(3)
C25 C 0.3586(2) 0.0213(4) 0.7560(3)
C26 C 0.3991(3) 0.0481(7) 0.7468(6)
H12 H 0.4288 0.0264 0.7772
H13 H 0.4025 0.0925 0.7582
H14 H 0.3921 0.0427 0.6992
C27 C 0.3668(3) 0.0390(8) 0.8274(4)
H15 H 0.3724 0.0839 0.8342
H16 H 0.3945 0.0166 0.8620
H17 H 0.3385 0.0280 0.8316
C28 C 0.3608(5) -0.0492(6) 0.7553(10)
H18 H 0.3586 -0.0631 0.7120
H19 H 0.3343 -0.0666 0.7602
H20 H 0.3911 -0.0634 0.7934
C29 C 0.2310(3) -0.2407(3) 0.7057(3)
C30 C 0.2336(8) -0.2208(11) 0.7691(10)
H21 H 0.2458 -0.2549 0.8023
H22 H 0.2018 -0.2089 0.7612
H23 H 0.2551 -0.1850 0.7870
C31 C 0.2843(8) -0.2600(12) 0.7191(10)
H24 H 0.2977 -0.2916 0.7552
H25 H 0.3049 -0.2232 0.7334
H26 H 0.2823 -0.2767 0.6769
C32 C 0.1992(11) -0.3001(7) 0.6743(9)
H27 H 0.2013 -0.3136 0.6339
H28 H 0.1660 -0.2901 0.6612
H29 H 0.2104 -0.3335 0.7084
C36 C 0.3849(3) -0.1226(4) 0.5457(4)
C37 C 0.4008(8) -0.0991(13) 0.6183(9)
H39 H 0.4356 -0.1015 0.6452
H40 H 0.3864 -0.1248 0.6398
H41 H 0.3907 -0.0558 0.6164
C38 C 0.3900(8) -0.1956(10) 0.5498(18)
H42 H 0.3771 -0.2127 0.5035
H43 H 0.3724 -0.2126 0.5719
H44 H 0.4238 -0.2068 0.5766
C39 C 0.4163(9) -0.097(2) 0.5166(18)
H45 H 0.4187 -0.0513 0.5223
H46 H 0.4019 -0.1068 0.4678
H47 H 0.4482 -0.1150 0.5410
C43 C 0.1029(2) 0.1671(3) 0.3104(3)
C44 C 0.0689(3) 0.1454(7) 0.3383(5)
H57 H 0.0680 0.0998 0.3387
H58 H 0.0368 0.1616 0.3089
H59 H 0.0807 0.1611 0.3849
C45 C 0.1008(3) 0.2393(5) 0.3040(6)
H60 H 0.1127 0.2579 0.3495
H61 H 0.0678 0.2525 0.2747
H62 H 0.1206 0.2531 0.2839
C46 C 0.0856(3) 0.1420(6) 0.2380(4)
H63 H 0.1076 0.1549 0.2215
H64 H 0.0537 0.1585 0.2075
H65 H 0.0842 0.0964 0.2386
C47 C 0.1541(3) 0.1605(3) 0.5923(4)
H66 H 0.1764 0.1962 0.6079
H67 H 0.1540 0.1420 0.6329
C48 C 0.1059(3) 0.1827(4) 0.5443(4)
C49 C 0.0202(7) 0.160(2) 0.4851(18)
H68 H 0.0187 0.1921 0.4528
H69 H 0.0162 0.1190 0.4620
C51 C -0.0111(7) 0.1663(18) 0.4942(16)
H72 H 0.0010 0.1965 0.5323
H73 H -0.0128 0.1262 0.5148
C52 C -0.0648(5) 0.1850(11) 0.4509(8)
H74 H -0.0741 0.2111 0.4786
H75 H -0.0845 0.1474 0.4367
H76 H -0.0693 0.2082 0.4103
C53 C 0.1358(2) -0.0120(3) 0.4644(3)
H77 H 0.1383 0.0165 0.4314
H78 H 0.1338 0.0138 0.4998
C54 C 0.0905(3) -0.0489(4) 0.4275(4)
C55 C 0.1690(3) -0.0640(3) 0.2910(3)
H79 H 0.1955 -0.0806 0.2846
H80 H 0.1612 -0.0220 0.2704
C56 C 0.1263(3) -0.1054(3) 0.2539(4)
C57 C 0.0716(3) -0.1846(4) 0.2593(4)
H81 H 0.0452 -0.1659 0.2179
H82 H 0.0596 -0.1933 0.2921
C58 C 0.0868(4) -0.2469(4) 0.2397(6)
H83 H 0.1115 -0.2672 0.2816
H84 H 0.1009 -0.2380 0.2095
C59 C 0.0445(4) -0.2913(5) 0.2030(6)
H85 H 0.0311 -0.3013 0.2333
H86 H 0.0553 -0.3297 0.1909
H87 H 0.0200 -0.2715 0.1613
C60 C 0.3319(2) 0.1392(3) 0.4978(4)
H88 H 0.3254 0.1822 0.5068
H89 H 0.3285 0.1379 0.4512
C61 C 0.3824(3) 0.1205(4) 0.5503(6)
C62 C 0.4686(4) 0.1399(10) 0.6005(11)
H90 H 0.4783 0.1670 0.6409
H91 H 0.4731 0.0961 0.6164
C63 C 0.4999(12) 0.1527(17) 0.569(2)
H92 H 0.5344 0.1510 0.6021
H93 H 0.4917 0.1913 0.5416
C64 C 0.0049(5) -0.0367(9) 0.3637(11)
H94 H 0.0032 -0.0784 0.3812
H95 H -0.0028 -0.0406 0.3152
C65 C -0.0293(8) 0.0075(9) 0.3705(17)
H96 H -0.0265 0.0031 0.4161
H97 H -0.0619 -0.0022 0.3356
H98 H -0.0215 0.0503 0.3643
C66 C 0.4801(9) 0.0927(15) 0.5263(18)
H99 H 0.4514 0.0794 0.5281
H100 H 0.5042 0.0599 0.5450
H101 H 0.4721 0.1010 0.4788
C33? C 0.2693(15) -0.2104(14) 0.7788(14)
H30? H 0.2792 -0.2419 0.8148
H31? H 0.2545 -0.1753 0.7897
H32? H 0.2973 -0.1957 0.7758
C34? C 0.2479(12) -0.2968(9) 0.6936(11)
H33? H 0.2670 -0.3184 0.7371
H34? H 0.2676 -0.2883 0.6718
H35? H 0.2208 -0.3230 0.6634
C35? C 0.1864(14) -0.2531(14) 0.720(2)
H36? H 0.1571 -0.2373 0.6813
H37? H 0.1920 -0.2316 0.7619
H38? H 0.1833 -0.2979 0.7251
C40? C 0.3938(10) -0.163(2) 0.608(2)
H48? H 0.4274 -0.1753 0.6320
H49? H 0.3738 -0.2004 0.5917
H50? H 0.3858 -0.1394 0.6383
C41? C 0.3977(11) -0.166(2) 0.5011(17)
H51? H 0.3985 -0.1417 0.4644
H52? H 0.3736 -0.1988 0.4811
H53? H 0.4290 -0.1848 0.5296
C42? C 0.4186(10) -0.0673(16) 0.571(2)
H54? H 0.4516 -0.0822 0.5963
H55? H 0.4113 -0.0417 0.6011
H56? H 0.4147 -0.0424 0.5318
C50? C 0.0208(16) 0.209(3) 0.5298(16)
H70? H 0.0194 0.2217 0.5715
H71? H 0.0190 0.2459 0.5022
loop_
_geom_bond_atom_site_label_1
_geom_bond_atom_site_label_2
_geom_bond_site_symmetry_1
_geom_bond_site_symmetry_2
S1 C6 1_555 1_555
S2 C2 1_555 1_555
S3 C11 1_555 1_555
S4 C17 1_555 1_555
O1 C1 1_555 1_555
O2 C12 1_555 1_555
O3 C18 1_555 1_555
O4 C24 1_555 1_555
O5 C48 1_555 1_555
O6 C54 1_555 1_555
O7 C56 1_555 1_555
O8 C61 1_555 1_555
O9 C54 1_555 1_555
N1 H1 1_555 1_555
N2 H2 1_555 1_555
N3 H3 1_555 1_555
C1 C2 1_555 1_555
C2 C3 1_555 1_555
C3 H4 1_555 1_555
C4 C3 1_555 1_555
C5 C4 1_555 1_555
H5 C5 1_555 1_555
C6 C1 1_555 1_555
C7 S1 1_555 1_555
C8 C7 1_555 1_555
H6 C8 1_555 1_555
C9 C8 1_555 1_555
C10 C9 1_555 1_555
H7 C10 1_555 1_555
C11 C10 1_555 1_555
C12 C7 1_555 1_555
C13 S3 1_555 1_555
C14 C13 1_555 1_555
H8 C14 1_555 1_555
C15 C14 1_555 1_555
C16 C15 1_555 1_555
H9 C16 1_555 1_555
C17 C16 1_555 1_555
C18 C13 1_555 1_555
C19 S4 1_555 1_555
C20 C19 1_555 1_555
H10 C20 1_555 1_555
C21 C20 1_555 1_555
C22 C21 1_555 1_555
H11 C22 1_555 1_555
C23 S2 1_555 1_555
C24 C19 1_555 1_555
C25 C4 1_555 1_555
C26 C25 1_555 1_555
H12 C26 1_555 1_555
H13 C26 1_555 1_555
H14 C26 1_555 1_555
C27 C25 1_555 1_555
H15 C27 1_555 1_555
H16 C27 1_555 1_555
H17 C27 1_555 1_555
C28 C25 1_555 1_555
H18 C28 1_555 1_555
H19 C28 1_555 1_555
H20 C28 1_555 1_555
C29 C9 1_555 1_555
C30 C29 1_555 1_555
H21 C30 1_555 1_555
H22 C30 1_555 1_555
H23 C30 1_555 1_555
C31 C29 1_555 1_555
H24 C31 1_555 1_555
H25 C31 1_555 1_555
H26 C31 1_555 1_555
C32 C29 1_555 1_555
H27 C32 1_555 1_555
H28 C32 1_555 1_555
H29 C32 1_555 1_555
C36 C15 1_555 1_555
C37 C36 1_555 1_555
H39 C37 1_555 1_555
H40 C37 1_555 1_555
H41 C37 1_555 1_555
C38 C36 1_555 1_555
H42 C38 1_555 1_555
H43 C38 1_555 1_555
H44 C38 1_555 1_555
C39 C36 1_555 1_555
H45 C39 1_555 1_555
H46 C39 1_555 1_555
H47 C39 1_555 1_555
C43 C21 1_555 1_555
C44 C43 1_555 1_555
H57 C44 1_555 1_555
H58 C44 1_555 1_555
H59 C44 1_555 1_555
C45 C43 1_555 1_555
H60 C45 1_555 1_555
H61 C45 1_555 1_555
H62 C45 1_555 1_555
C46 C43 1_555 1_555
H63 C46 1_555 1_555
H64 C46 1_555 1_555
H65 C46 1_555 1_555
C47 O1 1_555 1_555
H66 C47 1_555 1_555
H67 C47 1_555 1_555
C48 N1 1_555 1_555
C49 N1 1_555 1_555
H68 C49 1_555 1_555
H69 C49 1_555 1_555
C51 C49 1_555 1_555
H72 C51 1_555 1_555
H73 C51 1_555 1_555
C52 C51 1_555 1_555
H74 C52 1_555 1_555
H75 C52 1_555 1_555
H76 C52 1_555 1_555
C53 O2 1_555 1_555
H77 C53 1_555 1_555
H78 C53 1_555 1_555
C54 C53 1_555 1_555
C55 O3 1_555 1_555
H79 C55 1_555 1_555
H80 C55 1_555 1_555
C56 N2 1_555 1_555
C57 N2 1_555 1_555
H81 C57 1_555 1_555
H82 C57 1_555 1_555
C58 C57 1_555 1_555
H83 C58 1_555 1_555
H84 C58 1_555 1_555
C59 C58 1_555 1_555
H85 C59 1_555 1_555
H86 C59 1_555 1_555
H87 C59 1_555 1_555
C60 O4 1_555 1_555
H88 C60 1_555 1_555
H89 C60 1_555 1_555
C61 N3 1_555 1_555
C62 N3 1_555 1_555
H90 C62 1_555 1_555
H91 C62 1_555 1_555
C63 C62 1_555 1_555
H92 C63 1_555 1_555
H93 C63 1_555 1_555
C64 O9 1_555 1_555
H94 C64 1_555 1_555
H95 C64 1_555 1_555
C65 C64 1_555 1_555
H96 C65 1_555 1_555
H97 C65 1_555 1_555
H98 C65 1_555 1_555
C66 C63 1_555 1_555
H99 C66 1_555 1_555
H100 C66 1_555 1_555
H101 C66 1_555 1_555
C5 C6 1_555 1_555
C11 C12 1_555 1_555
C17 C18 1_555 1_555
C22 C23 1_555 1_555
C23 C24 1_555 1_555
C47 C48 1_555 1_555
C55 C56 1_555 1_555
C60 C61 1_555 1_555

#END
