
#######################################################################
#
#                 Cambridge Crystallographic Data Centre
#                                CCDC 
#
#######################################################################
#
# If this CIF has been generated from an entry in the Cambridge 
# Structural Database, then it will include bibliographic, chemical, 
# crystal, experimental, refinement or atomic coordinate data resulting 
# from the CCDC's data processing and validation procedures.
#
#######################################################################

data_VIXFAK
_chemical_name_common            
5,11,17,23-Tetra-t-butyl-25,26,27,28-tetrakis(N-butylcarbamoylmethoxy)-2,8,14,20-tetrathiacalix(4)arene
_chemical_formula_moiety         'C64 H92 N4 O8 S4'
_chemical_name_systematic        
5,11,17,23-Tetra-t-butyl-25,26,27,28-tetrakis(N-butylcarbamoylmethoxy)-2,8,14,20-tetrathiapentacyclo(19.3.1.1^3,7^.1^9,13^.1^15,19^)octacosa-1(25),3,5,7(28),9,11,13(27),15,17,19(26),21,23-dodecaene
_symmetry_cell_setting           triclinic
_symmetry_space_group_name_H-M   'P -1'
_symmetry_Int_Tables_number      2
_space_group_name_Hall           '-P 1'
loop_
_symmetry_equiv_pos_site_id
_symmetry_equiv_pos_as_xyz
1 x,y,z
2 -x,-y,-z
_cell_length_a                   14.009(3)
_cell_length_b                   14.575(3)
_cell_length_c                   18.252(4)
_cell_angle_alpha                81.998(5)
_cell_angle_beta                 84.215(5)
_cell_angle_gamma                70.699(4)
_cell_volume                     3477.02
_exptl_crystal_colour            colorless
_exptl_crystal_description       square
_chemical_melting_point          '218 deg.C(dec.)'
_cell_formula_units_Z            2
_exptl_crystal_recrystallization_method dichloromethane/acetonitrile
loop_
_atom_site_label
_atom_site_type_symbol
_atom_site_fract_x
_atom_site_fract_y
_atom_site_fract_z
S1 S 0.01829(10) 0.52520(10) 0.39189(7)
S2 S 0.05877(11) 0.13077(10) 0.43979(8)
S3 S 0.02743(11) 0.52707(10) 0.08735(7)
S4 S 0.15493(12) 0.12637(11) 0.13442(8)
O1 O 0.1316(2) 0.3056(2) 0.41732(17)
O2 O 0.1224(3) 0.2114(2) 0.29244(18)
O3 O 0.1762(3) 0.3251(2) 0.09180(18)
O4 O -0.0705(2) 0.5405(2) 0.24217(17)
O5 O 0.2771(3) 0.2660(3) 0.5754(2)
O6 O 0.3209(3) 0.1057(3) 0.3377(2)
O7 O 0.3775(3) 0.2637(4) 0.0787(2)
O8 O -0.2582(3) 0.6323(3) 0.1723(2)
N1 N 0.2875(4) 0.1697(4) 0.4855(3)
H1 H 0.2641 0.1661 0.4446
N2 N 0.3802(4) 0.1463(4) 0.2232(3)
H2 H 0.3640 0.1771 0.1802
N3 N 0.3769(4) 0.3097(4) -0.0442(3)
H3 H 0.3404 0.3302 -0.0819
N4 N -0.3064(3) 0.6981(3) 0.2786(2)
H4 H -0.2877 0.7121 0.3179
C1 C -0.0324(4) 0.4273(4) 0.4056(2)
C2 C -0.1378(4) 0.4504(4) 0.4116(3)
H5 H -0.1777 0.5158 0.4055
C3 C -0.1849(4) 0.3791(4) 0.4262(3)
C4 C -0.1209(4) 0.2821(4) 0.4295(3)
H6 H -0.1497 0.2323 0.4355
C5 C -0.0160(4) 0.2573(4) 0.4243(3)
C6 C 0.0283(4) 0.3300(4) 0.4154(3)
C7 C 0.0683(4) 0.0836(4) 0.3541(3)
C8 C 0.0481(4) -0.0036(4) 0.3564(3)
H7 H 0.0233 -0.0299 0.4006
C9 C 0.0642(4) -0.0527(4) 0.2934(3)
C10 C 0.0962(4) -0.0078(4) 0.2286(3)
H8 H 0.1042 -0.0379 0.1857
C11 C 0.1171(4) 0.0796(4) 0.2234(3)
C12 C 0.1065(4) 0.1244(4) 0.2881(3)
C13 C 0.0553(4) 0.2399(4) 0.1221(3)
C14 C -0.0451(5) 0.2433(5) 0.1316(3)
H9 H -0.0595 0.1848 0.1417
C15 C -0.1253(4) 0.3311(5) 0.1266(3)
C16 C -0.0998(4) 0.4161(4) 0.1137(3)
H10 H -0.1513 0.4759 0.1134
C17 C -0.0010(4) 0.4156(4) 0.1014(3)
C18 C 0.0772(4) 0.3264(4) 0.1031(3)
C19 C 0.0882(4) 0.5158(4) 0.1714(3)
C20 C 0.1923(4) 0.5007(4) 0.1686(3)
H11 H 0.2284 0.4962 0.1228
C21 C 0.2430(4) 0.4924(4) 0.2305(3)
C22 C 0.1876(4) 0.4967(3) 0.2981(3)
H12 H 0.2207 0.4890 0.3413
C23 C 0.0840(4) 0.5122(3) 0.3029(3)
C24 C 0.0331(4) 0.5238(3) 0.2391(3)
C25 C -0.2987(4) 0.4069(4) 0.4430(3)
C26 C -0.3563(5) 0.4933(7) 0.3903(5)
H13 H -0.4278 0.5062 0.4007
H14 H -0.3387 0.4783 0.3401
H15 H -0.3389 0.5499 0.3967
C27 C -0.3214(6) 0.4332(9) 0.5189(5)
H16 H -0.2601 0.4109 0.5449
H17 H -0.3689 0.4030 0.5439
H18 H -0.3500 0.5030 0.5177
C28 C -0.3406(6) 0.3263(7) 0.4355(6)
H19 H -0.3097 0.2703 0.4697
H20 H -0.3262 0.3088 0.3858
H21 H -0.4125 0.3484 0.4462
C29 C 0.0447(6) -0.1497(5) 0.2960(4)
C30 C 0.0756(16) -0.2125(8) 0.3666(6)
H22 H 0.0664 -0.1720 0.4056
H23 H 0.1456 -0.2514 0.3612
H24 H 0.0348 -0.2546 0.3784
C31 C 0.0921(10) -0.2083(6) 0.2360(5)
H25 H 0.1624 -0.2135 0.2293
H26 H 0.0591 -0.1778 0.1911
H27 H 0.0859 -0.2725 0.2479
C32 C -0.0656(8) -0.1304(9) 0.2959(16)
H28 H -0.1001 -0.0842 0.3302
H29 H -0.0805 -0.1904 0.3104
H30 H -0.0880 -0.1042 0.2470
C33 C -0.2357(5) 0.3353(6) 0.1364(4)
C34 C -0.2837(6) 0.3894(9) 0.2033(6)
H31 H -0.3524 0.3895 0.2124
H32 H -0.2829 0.4556 0.1937
H33 H -0.2460 0.3574 0.2459
C35 C -0.2496(6) 0.2363(7) 0.1455(7)
H34 H -0.2211 0.2040 0.1022
H35 H -0.3206 0.2439 0.1519
H36 H -0.2160 0.1979 0.1882
C36 C -0.2887(6) 0.3927(7) 0.0678(5)
H37 H -0.2581 0.3595 0.0252
H38 H -0.2823 0.4569 0.0611
H39 H -0.3591 0.3979 0.0736
C37 C 0.3566(4) 0.4765(5) 0.2273(4)
C38 C 0.4084(5) 0.3827(6) 0.2722(6)
H40 H 0.3787 0.3835 0.3219
H41 H 0.4791 0.3749 0.2729
H42 H 0.4008 0.3292 0.2507
C39 C 0.3758(5) 0.5598(6) 0.2579(5)
H43 H 0.3569 0.5578 0.3100
H44 H 0.3363 0.6210 0.2328
H45 H 0.4464 0.5534 0.2502
C40 C 0.4027(5) 0.4750(8) 0.1479(4)
H46 H 0.4713 0.4750 0.1473
H47 H 0.3639 0.5318 0.1177
H48 H 0.4020 0.4171 0.1287
C41 C 0.1627(4) 0.3294(4) 0.4829(3)
H49 H 0.1052 0.3446 0.5187
H50 H 0.1826 0.3877 0.4702
C42 C 0.2473(4) 0.2510(5) 0.5178(3)
C43 C 0.3719(6) 0.0836(7) 0.5168(5)
H51 H 0.4235 0.1066 0.5321
H52 H 0.4025 0.0411 0.4785
C44 C 0.3335(15) 0.0231(12) 0.5853(8)
C45 C 0.329(6) -0.068(3) 0.590(2)
C47 C 0.2739(12) -0.0956(10) 0.6475(8)
C48 C 0.2098(4) 0.2322(4) 0.2592(3)
H53 H 0.2105 0.2928 0.2750
H54 H 0.2049 0.2427 0.2059
C49 C 0.3090(5) 0.1540(4) 0.2768(4)
C50 C 0.4850(6) 0.0882(7) 0.2334(5)
H55 H 0.5219 0.1307 0.2428
H56 H 0.4879 0.0408 0.2767
C51 C 0.5351(7) 0.0363(6) 0.1701(5)
H57 H 0.5291 0.0836 0.1263
H58 H 0.4998 -0.0082 0.1621
C52 C 0.6477(7) -0.0221(7) 0.1783(6)
H59 H 0.6835 0.0234 0.1829
H60 H 0.6539 -0.0658 0.2240
C53 C 0.6987(9) -0.0808(9) 0.1169(7)
H61 H 0.6822 -0.1404 0.1229
H62 H 0.7707 -0.0959 0.1178
H63 H 0.6762 -0.0441 0.0705
C54 C 0.2213(4) 0.3063(5) 0.0195(3)
H64 H 0.1907 0.3611 -0.0166
H65 H 0.2116 0.2482 0.0058
C55 C 0.3330(4) 0.2916(5) 0.0219(4)
C56 C 0.4874(7) 0.2957(9) -0.0548(4)
H66 H 0.5097 0.3149 -0.0124
H67 H 0.5003 0.3369 -0.0986
C57 C 0.5483(8) 0.1862(12) -0.0636(7)
C58 C 0.638(4) 0.127(8) -0.089(3)
C60 C 0.7136(16) 0.128(3) -0.0577(16)
C61 C -0.1286(4) 0.6415(4) 0.2435(3)
H68 H -0.1008 0.6812 0.2060
H69 H -0.1260 0.6617 0.2915
C62 C -0.2358(4) 0.6553(4) 0.2288(3)
C63 C -0.4142(4) 0.7221(5) 0.2690(4)
H70 H -0.4301 0.6619 0.2711
H71 H -0.4293 0.7576 0.2203
C64 C -0.4797(5) 0.7817(5) 0.3255(4)
H72 H -0.4627 0.8413 0.3242
H73 H -0.4655 0.7456 0.3742
C65 C -0.5907(5) 0.8082(6) 0.3148(5)
H74 H -0.6053 0.8466 0.2670
H75 H -0.6072 0.7488 0.3142
C66 C -0.6551(6) 0.8636(7) 0.3723(6)
H76 H -0.6397 0.8269 0.4199
H77 H -0.7249 0.8754 0.3638
H78 H -0.6430 0.9250 0.3708
C46? C 0.291(3) -0.022(2) 0.554(2)
C59? C 0.666(3) 0.211(2) -0.071(2)
loop_
_geom_bond_atom_site_label_1
_geom_bond_atom_site_label_2
_geom_bond_site_symmetry_1
_geom_bond_site_symmetry_2
S1 C1 1_555 1_555
S2 C5 1_555 1_555
S3 C17 1_555 1_555
S4 C11 1_555 1_555
O1 C6 1_555 1_555
O2 C12 1_555 1_555
O3 C18 1_555 1_555
O4 C24 1_555 1_555
O5 C42 1_555 1_555
O6 C49 1_555 1_555
O7 C55 1_555 1_555
O8 C62 1_555 1_555
N1 H1 1_555 1_555
N2 H2 1_555 1_555
N3 H3 1_555 1_555
N4 H4 1_555 1_555
C1 C2 1_555 1_555
C2 H5 1_555 1_555
C3 C2 1_555 1_555
C4 C3 1_555 1_555
H6 C4 1_555 1_555
C5 C4 1_555 1_555
C6 C1 1_555 1_555
C7 S2 1_555 1_555
C8 C7 1_555 1_555
H7 C8 1_555 1_555
C9 C8 1_555 1_555
C10 C9 1_555 1_555
H8 C10 1_555 1_555
C11 C10 1_555 1_555
C12 C7 1_555 1_555
C13 S4 1_555 1_555
C14 C13 1_555 1_555
H9 C14 1_555 1_555
C15 C14 1_555 1_555
C16 C15 1_555 1_555
H10 C16 1_555 1_555
C17 C16 1_555 1_555
C18 C13 1_555 1_555
C19 S3 1_555 1_555
C20 C19 1_555 1_555
H11 C20 1_555 1_555
C21 C20 1_555 1_555
C22 C21 1_555 1_555
H12 C22 1_555 1_555
C23 S1 1_555 1_555
C24 C19 1_555 1_555
C25 C3 1_555 1_555
C26 C25 1_555 1_555
H13 C26 1_555 1_555
H14 C26 1_555 1_555
H15 C26 1_555 1_555
C27 C25 1_555 1_555
H16 C27 1_555 1_555
H17 C27 1_555 1_555
H18 C27 1_555 1_555
C28 C25 1_555 1_555
H19 C28 1_555 1_555
H20 C28 1_555 1_555
H21 C28 1_555 1_555
C29 C9 1_555 1_555
C30 C29 1_555 1_555
H22 C30 1_555 1_555
H23 C30 1_555 1_555
H24 C30 1_555 1_555
C31 C29 1_555 1_555
H25 C31 1_555 1_555
H26 C31 1_555 1_555
H27 C31 1_555 1_555
C32 C29 1_555 1_555
H28 C32 1_555 1_555
H29 C32 1_555 1_555
H30 C32 1_555 1_555
C33 C15 1_555 1_555
C34 C33 1_555 1_555
H31 C34 1_555 1_555
H32 C34 1_555 1_555
H33 C34 1_555 1_555
C35 C33 1_555 1_555
H34 C35 1_555 1_555
H35 C35 1_555 1_555
H36 C35 1_555 1_555
C36 C33 1_555 1_555
H37 C36 1_555 1_555
H38 C36 1_555 1_555
H39 C36 1_555 1_555
C37 C21 1_555 1_555
C38 C37 1_555 1_555
H40 C38 1_555 1_555
H41 C38 1_555 1_555
H42 C38 1_555 1_555
C39 C37 1_555 1_555
H43 C39 1_555 1_555
H44 C39 1_555 1_555
H45 C39 1_555 1_555
C40 C37 1_555 1_555
H46 C40 1_555 1_555
H47 C40 1_555 1_555
H48 C40 1_555 1_555
C41 O1 1_555 1_555
H49 C41 1_555 1_555
H50 C41 1_555 1_555
C42 N1 1_555 1_555
C43 N1 1_555 1_555
H51 C43 1_555 1_555
H52 C43 1_555 1_555
C44 C43 1_555 1_555
C45 C44 1_555 1_555
C47 C45 1_555 1_555
C48 O2 1_555 1_555
H53 C48 1_555 1_555
H54 C48 1_555 1_555
C49 N2 1_555 1_555
C50 N2 1_555 1_555
H55 C50 1_555 1_555
H56 C50 1_555 1_555
C51 C50 1_555 1_555
H57 C51 1_555 1_555
H58 C51 1_555 1_555
C52 C51 1_555 1_555
H59 C52 1_555 1_555
H60 C52 1_555 1_555
C53 C52 1_555 1_555
H61 C53 1_555 1_555
H62 C53 1_555 1_555
H63 C53 1_555 1_555
C54 O3 1_555 1_555
H64 C54 1_555 1_555
H65 C54 1_555 1_555
C55 N3 1_555 1_555
C56 N3 1_555 1_555
H66 C56 1_555 1_555
H67 C56 1_555 1_555
C57 C56 1_555 1_555
C58 C57 1_555 1_555
C60 C58 1_555 1_555
C61 O4 1_555 1_555
H68 C61 1_555 1_555
H69 C61 1_555 1_555
C62 N4 1_555 1_555
C63 N4 1_555 1_555
H70 C63 1_555 1_555
H71 C63 1_555 1_555
C64 C63 1_555 1_555
H72 C64 1_555 1_555
H73 C64 1_555 1_555
C65 C64 1_555 1_555
H74 C65 1_555 1_555
H75 C65 1_555 1_555
C66 C65 1_555 1_555
H76 C66 1_555 1_555
H77 C66 1_555 1_555
H78 C66 1_555 1_555
C5 C6 1_555 1_555
C11 C12 1_555 1_555
C17 C18 1_555 1_555
C22 C23 1_555 1_555
C23 C24 1_555 1_555
C41 C42 1_555 1_555
C48 C49 1_555 1_555
C54 C55 1_555 1_555
C61 C62 1_555 1_555

#END
