
#######################################################################
#
#                 Cambridge Crystallographic Data Centre
#                                CCDC 
#
#######################################################################
#
# If this CIF has been generated from an entry in the Cambridge 
# Structural Database, then it will include bibliographic, chemical, 
# crystal, experimental, refinement or atomic coordinate data resulting 
# from the CCDC's data processing and validation procedures.
#
#######################################################################

data_VIXJET
_chemical_formula_moiety         'C14 H11 N1 O1'
_chemical_name_systematic        3-(4-Methylphenyl)-1,2-benzoxazole
_symmetry_cell_setting           monoclinic
_symmetry_space_group_name_H-M   'P 21/c'
_symmetry_Int_Tables_number      14
_space_group_name_Hall           '-P 2ybc'
loop_
_symmetry_equiv_pos_site_id
_symmetry_equiv_pos_as_xyz
1 x,y,z
2 -x,1/2+y,1/2-z
3 -x,-y,-z
4 x,1/2-y,1/2+z
_cell_length_a                   25.1525(18)
_cell_length_b                   11.4250(4)
_cell_length_c                   7.5575(3)
_cell_angle_alpha                90
_cell_angle_beta                 94.475(7)
_cell_angle_gamma                90
_cell_volume                     2165.16
_exptl_crystal_colour            colorless
_exptl_crystal_description       prism
_cell_formula_units_Z            8
loop_
_atom_site_label
_atom_site_type_symbol
_atom_site_fract_x
_atom_site_fract_y
_atom_site_fract_z
O1 O 0.44108(4) 0.97186(12) 0.40351(18)
N1 N 0.38751(5) 0.98981(12) 0.4427(2)
C1 C 0.14279(6) 0.85816(19) 0.5887(3)
H1 H 0.1218 0.8941 0.4919
H2 H 0.1368 0.8982 0.6971
H3 H 0.1327 0.7775 0.5981
C2 C 0.20082(6) 0.86559(14) 0.5559(2)
C3 C 0.23235(6) 0.96002(14) 0.6157(2)
H4 H 0.2172 1.0201 0.6779
C4 C 0.28529(6) 0.96604(13) 0.5847(2)
H5 H 0.3055 1.0298 0.6268
C5 C 0.30927(5) 0.87804(12) 0.49085(17)
C6 C 0.36564(6) 0.88614(13) 0.45248(18)
C7 C 0.40279(5) 0.79531(14) 0.41952(17)
C8 C 0.44901(6) 0.85466(16) 0.3896(2)
C9 C 0.49593(6) 0.8004(2) 0.3510(2)
H6 H 0.5265 0.8427 0.3314
C10 C 0.49471(7) 0.6812(2) 0.3436(2)
H7 H 0.5251 0.6410 0.3159
C11 C 0.40301(6) 0.67286(15) 0.4149(2)
H8 H 0.3728 0.6300 0.4373
C12 C 0.44922(6) 0.61809(17) 0.3764(2)
H9 H 0.4502 0.5368 0.3720
C13 C 0.27788(6) 0.78358(13) 0.43247(19)
H10 H 0.2928 0.7233 0.3702
C14 C 0.22495(6) 0.77819(14) 0.4657(2)
H11 H 0.2049 0.7136 0.4260
O2 O 0.05775(5) 0.47912(12) 0.6083(2)
N2 N 0.11212(6) 0.49602(13) 0.5772(2)
C15 C 0.35814(6) 0.34035(19) 0.4758(3)
H12 H 0.3667 0.2585 0.4798
H13 H 0.3784 0.3802 0.5705
H14 H 0.3667 0.3723 0.3640
C16 C 0.29963(6) 0.35611(14) 0.4961(2)
C17 C 0.26319(6) 0.27290(13) 0.4327(2)
H15 H 0.2751 0.2074 0.3742
C18 C 0.20962(6) 0.28478(13) 0.45445(19)
H16 H 0.1860 0.2273 0.4104
C19 C 0.19031(5) 0.38100(12) 0.54085(17)
C20 C 0.13332(6) 0.39197(13) 0.56803(18)
C21 C 0.09492(5) 0.30166(14) 0.59109(17)
C22 C 0.04869(6) 0.36208(17) 0.6163(2)
C23 C 0.00088(6) 0.3088(2) 0.6484(2)
H17 H -0.0298 0.3519 0.6637
C24 C 0.00144(7) 0.1902(2) 0.6561(2)
H18 H -0.0296 0.1507 0.6792
C25 C 0.22692(6) 0.46559(13) 0.60546(19)
H19 H 0.2151 0.5310 0.6642
C26 C 0.28034(6) 0.45295(14) 0.5830(2)
H20 H 0.3041 0.5103 0.6268
C27 C 0.04710(7) 0.12602(17) 0.6303(2)
H21 H 0.0457 0.0447 0.6349
C28 C 0.09415(6) 0.17951(15) 0.5983(2)
H22 H 0.1246 0.1359 0.5818
loop_
_geom_bond_atom_site_label_1
_geom_bond_atom_site_label_2
_geom_bond_site_symmetry_1
_geom_bond_site_symmetry_2
O1 N1 1_555 1_555
N1 C6 1_555 1_555
C1 H1 1_555 1_555
H2 C1 1_555 1_555
H3 C1 1_555 1_555
C2 C1 1_555 1_555
C3 C2 1_555 1_555
H4 C3 1_555 1_555
C4 C3 1_555 1_555
H5 C4 1_555 1_555
C5 C4 1_555 1_555
C6 C5 1_555 1_555
C7 C6 1_555 1_555
C8 O1 1_555 1_555
C9 C8 1_555 1_555
H6 C9 1_555 1_555
C10 C9 1_555 1_555
H7 C10 1_555 1_555
C11 C7 1_555 1_555
H8 C11 1_555 1_555
C12 C10 1_555 1_555
H9 C12 1_555 1_555
C13 C5 1_555 1_555
H10 C13 1_555 1_555
C14 C2 1_555 1_555
H11 C14 1_555 1_555
O2 N2 1_555 1_555
N2 C20 1_555 1_555
C15 H12 1_555 1_555
H13 C15 1_555 1_555
H14 C15 1_555 1_555
C16 C15 1_555 1_555
C17 C16 1_555 1_555
H15 C17 1_555 1_555
C18 C17 1_555 1_555
H16 C18 1_555 1_555
C19 C18 1_555 1_555
C20 C19 1_555 1_555
C21 C20 1_555 1_555
C22 O2 1_555 1_555
C23 C22 1_555 1_555
H17 C23 1_555 1_555
C24 C23 1_555 1_555
H18 C24 1_555 1_555
C25 C19 1_555 1_555
H19 C25 1_555 1_555
C26 C16 1_555 1_555
H20 C26 1_555 1_555
C27 C24 1_555 1_555
H21 C27 1_555 1_555
C28 C21 1_555 1_555
H22 C28 1_555 1_555
C7 C8 1_555 1_555
C11 C12 1_555 1_555
C13 C14 1_555 1_555
C21 C22 1_555 1_555
C25 C26 1_555 1_555
C27 C28 1_555 1_555

#END
