
#######################################################################
#
#                 Cambridge Crystallographic Data Centre
#                                CCDC 
#
#######################################################################
#
# If this CIF has been generated from an entry in the Cambridge 
# Structural Database, then it will include bibliographic, chemical, 
# crystal, experimental, refinement or atomic coordinate data resulting 
# from the CCDC's data processing and validation procedures.
#
#######################################################################

data_VIXQOJ
_chemical_formula_moiety         'C32 H34 N4 O2,2(C1 H2 Cl2)'
_chemical_name_systematic        
'Ethyl 5-amino-2,3-bis(4-t-butylphenyl)-4,4,6-tricyanocyclohexa-1,5-diene-1-carboxylate dichloromethane solvate'
_symmetry_cell_setting           monoclinic
_symmetry_space_group_name_H-M   'P 21/c'
_symmetry_Int_Tables_number      14
_space_group_name_Hall           '-P 2ybc'
loop_
_symmetry_equiv_pos_site_id
_symmetry_equiv_pos_as_xyz
1 x,y,z
2 -x,1/2+y,1/2-z
3 -x,-y,-z
4 x,1/2-y,1/2+z
_cell_length_a                   11.9375(9)
_cell_length_b                   11.4575(9)
_cell_length_c                   26.5022(19)
_cell_angle_alpha                90
_cell_angle_beta                 92.363(6)
_cell_angle_gamma                90
_cell_volume                     3621.73
_exptl_crystal_colour            colorless
_exptl_crystal_description       block
_chemical_melting_point          '180-182 deg.C'
_cell_formula_units_Z            4
loop_
_atom_site_label
_atom_site_type_symbol
_atom_site_fract_x
_atom_site_fract_y
_atom_site_fract_z
C1 C 0.5800(3) 0.3085(3) 0.68079(15)
C2 C 0.6014(3) 0.3293(3) 0.62458(15)
C3 C 0.7098(3) 0.2620(3) 0.60807(15)
H1 H 0.7093 0.2637 0.5703
C4 C 0.6999(3) 0.1346(3) 0.62384(14)
C5 C 0.6464(3) 0.1062(3) 0.66621(15)
C6 C 0.5965(3) 0.1972(3) 0.69800(15)
C7 C 0.6115(3) 0.4554(4) 0.61332(15)
C8 C 0.5037(4) 0.2819(4) 0.59477(16)
C9 C 0.5715(3) 0.1707(3) 0.74902(16)
C10 C 0.6278(3) -0.0181(3) 0.68077(14)
C11 C 0.7018(4) -0.2103(3) 0.68262(18)
H2 H 0.6426 -0.2382 0.6583
H3 H 0.6797 -0.2299 0.7172
C12 C 0.8130(4) -0.2655(4) 0.6718(2)
H4 H 0.8706 -0.2366 0.6961
H5 H 0.8336 -0.2452 0.6375
H6 H 0.8070 -0.3505 0.6749
C13 C 0.8170(3) 0.3225(3) 0.62720(15)
C14 C 0.8707(3) 0.2973(4) 0.67320(16)
H7 H 0.8408 0.2393 0.6944
C15 C 0.9680(4) 0.3559(4) 0.68858(17)
H8 H 1.0023 0.3381 0.7206
C16 C 1.0173(3) 0.4405(3) 0.65838(16)
C17 C 0.9619(3) 0.4648(3) 0.61229(15)
H9 H 0.9917 0.5226 0.5910
C18 C 0.8647(3) 0.4072(3) 0.59664(15)
H10 H 0.8299 0.4254 0.5647
C19 C 1.1268(3) 0.5012(4) 0.67614(17)
C20 C 1.1112(4) 0.5630(5) 0.7264(2)
H11 H 1.0866 0.5064 0.7513
H12 H 1.0545 0.6244 0.7218
H13 H 1.1825 0.5979 0.7382
C21 C 1.1644(5) 0.5925(6) 0.6374(2)
H14 H 1.1081 0.6546 0.6341
H15 H 1.1725 0.5548 0.6046
H16 H 1.2365 0.6261 0.6490
C22 C 1.2191(4) 0.4073(5) 0.6835(2)
H17 H 1.2895 0.4446 0.6950
H18 H 1.2297 0.3673 0.6514
H19 H 1.1965 0.3506 0.7088
C23 C 0.7485(3) 0.0459(3) 0.58990(15)
C24 C 0.8638(3) 0.0313(4) 0.58792(19)
H20 H 0.9129 0.0813 0.6070
C25 C 0.9079(4) -0.0566(4) 0.55794(18)
H21 H 0.9869 -0.0652 0.5573
C26 C 0.8404(3) -0.1312(3) 0.52929(15)
C27 C 0.7242(4) -0.1122(4) 0.53013(17)
H22 H 0.6751 -0.1597 0.5099
C28 C 0.6797(3) -0.0259(4) 0.55980(17)
H23 H 0.6007 -0.0155 0.5596
C29 C 0.8877(4) -0.2298(3) 0.49661(16)
C30 C 0.8723(4) -0.1959(4) 0.44082(16)
H24 H 0.9076 -0.1200 0.4353
H25 H 0.7921 -0.1909 0.4316
H26 H 0.9072 -0.2551 0.4199
C31 C 1.0130(4) -0.2499(4) 0.50968(19)
H27 H 1.0236 -0.2659 0.5459
H28 H 1.0555 -0.1799 0.5011
H29 H 1.0397 -0.3165 0.4904
C32 C 0.8238(4) -0.3446(4) 0.50624(18)
H30 H 0.7454 -0.3360 0.4944
H31 H 0.8271 -0.3618 0.5425
H32 H 0.8585 -0.4086 0.4880
N1 N 0.5424(3) 0.3989(3) 0.70724(14)
H37 H 0.527(4) 0.466(3) 0.6919(16)
H38 H 0.536(4) 0.397(4) 0.7409(8)
N2 N 0.6176(3) 0.5533(3) 0.60522(15)
N3 N 0.4311(3) 0.2420(4) 0.57134(17)
N4 N 0.5515(3) 0.1499(3) 0.79045(14)
O1 O 0.5367(2) -0.0534(2) 0.69387(11)
O2 O 0.7179(2) -0.0840(2) 0.67748(10)
C33 C 0.7443(9) 0.0372(19) 0.3278(6)
H33 H 0.7030 0.0997 0.3091
H34 H 0.7092 0.0275 0.3607
Cl1 Cl 0.7284(3) -0.0920(3) 0.29394(19)
Cl2 Cl 0.8739(4) 0.0798(3) 0.33814(16)
C34 C 0.5795(5) 0.2849(5) 0.4372(2)
H35 H 0.4976 0.2763 0.4407
H36 H 0.5930 0.2994 0.4012
Cl3 Cl 0.64657(19) 0.15640(17) 0.45640(9)
Cl4 Cl 0.62844(14) 0.40511(14) 0.47358(6)
loop_
_geom_bond_atom_site_label_1
_geom_bond_atom_site_label_2
_geom_bond_site_symmetry_1
_geom_bond_site_symmetry_2
C1 C2 1_555 1_555
C2 C3 1_555 1_555
C3 H1 1_555 1_555
C4 C3 1_555 1_555
C5 C4 1_555 1_555
C6 C1 1_555 1_555
C7 C2 1_555 1_555
C8 C2 1_555 1_555
C9 C6 1_555 1_555
C10 C5 1_555 1_555
C11 H2 1_555 1_555
H3 C11 1_555 1_555
C12 C11 1_555 1_555
H4 C12 1_555 1_555
H5 C12 1_555 1_555
H6 C12 1_555 1_555
C13 C3 1_555 1_555
C14 C13 1_555 1_555
H7 C14 1_555 1_555
C15 C14 1_555 1_555
H8 C15 1_555 1_555
C16 C15 1_555 1_555
C17 C16 1_555 1_555
H9 C17 1_555 1_555
C18 C13 1_555 1_555
H10 C18 1_555 1_555
C19 C16 1_555 1_555
C20 C19 1_555 1_555
H11 C20 1_555 1_555
H12 C20 1_555 1_555
H13 C20 1_555 1_555
C21 C19 1_555 1_555
H14 C21 1_555 1_555
H15 C21 1_555 1_555
H16 C21 1_555 1_555
C22 C19 1_555 1_555
H17 C22 1_555 1_555
H18 C22 1_555 1_555
H19 C22 1_555 1_555
C23 C4 1_555 1_555
C24 C23 1_555 1_555
H20 C24 1_555 1_555
C25 C24 1_555 1_555
H21 C25 1_555 1_555
C26 C25 1_555 1_555
C27 C26 1_555 1_555
H22 C27 1_555 1_555
C28 C23 1_555 1_555
H23 C28 1_555 1_555
C29 C26 1_555 1_555
C30 C29 1_555 1_555
H24 C30 1_555 1_555
H25 C30 1_555 1_555
H26 C30 1_555 1_555
C31 C29 1_555 1_555
H27 C31 1_555 1_555
H28 C31 1_555 1_555
H29 C31 1_555 1_555
C32 C29 1_555 1_555
H30 C32 1_555 1_555
H31 C32 1_555 1_555
H32 C32 1_555 1_555
C33 H33 1_555 1_555
H34 C33 1_555 1_555
C34 H35 1_555 1_555
H36 C34 1_555 1_555
Cl1 C33 1_555 1_555
Cl2 C33 1_555 1_555
Cl3 C34 1_555 1_555
Cl4 C34 1_555 1_555
N1 C1 1_555 1_555
H37 N1 1_555 1_555
H38 N1 1_555 1_555
N2 C7 1_555 1_555
N3 C8 1_555 1_555
N4 C9 1_555 1_555
O1 C10 1_555 1_555
O2 C10 1_555 1_555
C5 C6 1_555 1_555
C11 O2 1_555 1_555
C17 C18 1_555 1_555
C27 C28 1_555 1_555

#END
