
#######################################################################
#
#                 Cambridge Crystallographic Data Centre
#                                CCDC 
#
#######################################################################
#
# If this CIF has been generated from an entry in the Cambridge 
# Structural Database, then it will include bibliographic, chemical, 
# crystal, experimental, refinement or atomic coordinate data resulting 
# from the CCDC's data processing and validation procedures.
#
#######################################################################

data_VIXQEZ
_chemical_formula_moiety         'C14 H11 Cl1 N2 O2'
_chemical_name_systematic        
'Ethyl 3-(4-chlorophenyl)-2,2-dicyanocyclopropanecarboxylate'
_symmetry_cell_setting           monoclinic
_symmetry_space_group_name_H-M   'P 21/c'
_symmetry_Int_Tables_number      14
_space_group_name_Hall           '-P 2ybc'
loop_
_symmetry_equiv_pos_site_id
_symmetry_equiv_pos_as_xyz
1 x,y,z
2 -x,1/2+y,1/2-z
3 -x,-y,-z
4 x,1/2-y,1/2+z
_cell_length_a                   8.1061(13)
_cell_length_b                   11.0894(18)
_cell_length_c                   15.395(3)
_cell_angle_alpha                90
_cell_angle_beta                 86.357(2)
_cell_angle_gamma                90
_cell_volume                     1381.09
_exptl_crystal_colour            colorless
_exptl_crystal_description       needle
_chemical_melting_point          '175-176 deg.C'
_cell_formula_units_Z            4
_exptl_crystal_recrystallization_method ethanol
loop_
_atom_site_label
_atom_site_type_symbol
_atom_site_fract_x
_atom_site_fract_y
_atom_site_fract_z
C1 C -0.0605(2) 0.52193(15) 0.13574(11)
C2 C 0.0831(2) 0.48247(16) 0.16952(12)
H1 H 0.1395 0.5313 0.2068
C3 C 0.1423(2) 0.36841(17) 0.14693(12)
H2 H 0.2394 0.3410 0.1693
C4 C 0.05916(19) 0.29497(15) 0.09180(11)
C5 C -0.0874(2) 0.33738(15) 0.05958(11)
H3 H -0.1455 0.2886 0.0230
C6 C -0.1471(2) 0.45091(15) 0.08147(11)
H4 H -0.2446 0.4788 0.0598
C7 C 0.11381(19) 0.17095(14) 0.06627(10)
H5 H 0.0240 0.1199 0.0476
C8 C 0.2451(2) 0.10208(15) 0.10853(11)
H6 H 0.3014 0.1445 0.1540
C9 C 0.2818(2) 0.14746(15) 0.01468(11)
C10 C 0.3997(2) 0.24528(19) 0.00377(13)
C11 C 0.2848(2) 0.06394(18) -0.05736(14)
C12 C 0.2199(2) -0.03054(16) 0.12132(11)
C13 C 0.2869(2) -0.19877(17) 0.20576(13)
H7 H 0.2892 -0.2462 0.1527
H8 H 0.1826 -0.2131 0.2385
C14 C 0.4267(3) -0.2330(2) 0.25829(17)
H9 H 0.4183 -0.3170 0.2731
H10 H 0.4230 -0.1857 0.3106
H11 H 0.5292 -0.2186 0.2252
Cl1 Cl -0.13235(7) 0.66621(4) 0.16305(3)
N1 N 0.4941(2) 0.32104(19) -0.00451(15)
N2 N 0.2904(3) 0.0003(2) -0.11565(14)
O1 O 0.1323(2) -0.09003(12) 0.07851(10)
O2 O 0.30517(15) -0.07064(11) 0.18496(8)
loop_
_geom_bond_atom_site_label_1
_geom_bond_atom_site_label_2
_geom_bond_site_symmetry_1
_geom_bond_site_symmetry_2
C1 C2 1_555 1_555
C2 H1 1_555 1_555
C3 C2 1_555 1_555
H2 C3 1_555 1_555
C4 C3 1_555 1_555
C5 C4 1_555 1_555
H3 C5 1_555 1_555
C6 C1 1_555 1_555
H4 C6 1_555 1_555
C7 C4 1_555 1_555
H5 C7 1_555 1_555
C8 C7 1_555 1_555
H6 C8 1_555 1_555
C9 C7 1_555 1_555
C10 C9 1_555 1_555
C11 C9 1_555 1_555
C12 C8 1_555 1_555
C13 H7 1_555 1_555
H8 C13 1_555 1_555
C14 C13 1_555 1_555
H9 C14 1_555 1_555
H10 C14 1_555 1_555
H11 C14 1_555 1_555
Cl1 C1 1_555 1_555
N1 C10 1_555 1_555
N2 C11 1_555 1_555
O1 C12 1_555 1_555
O2 C12 1_555 1_555
C5 C6 1_555 1_555
C8 C9 1_555 1_555
C13 O2 1_555 1_555

#END
