
#######################################################################
#
#                 Cambridge Crystallographic Data Centre
#                                CCDC 
#
#######################################################################
#
# If this CIF has been generated from an entry in the Cambridge 
# Structural Database, then it will include bibliographic, chemical, 
# crystal, experimental, refinement or atomic coordinate data resulting 
# from the CCDC's data processing and validation procedures.
#
#######################################################################

data_VIXQID
_chemical_formula_moiety         'C14 H11 Br1 N2 O2'
_chemical_name_systematic        
'Ethyl 3-(2-bromophenyl)-2,2-dicyanocyclopropanecarboxylate'
_symmetry_cell_setting           monoclinic
_symmetry_space_group_name_H-M   'P 21/n'
_symmetry_Int_Tables_number      14
_space_group_name_Hall           '-P 2yn'
loop_
_symmetry_equiv_pos_site_id
_symmetry_equiv_pos_as_xyz
1 x,y,z
2 1/2-x,1/2+y,1/2-z
3 -x,-y,-z
4 1/2+x,1/2-y,1/2+z
_cell_length_a                   7.0199(7)
_cell_length_b                   8.0123(5)
_cell_length_c                   24.381(2)
_cell_angle_alpha                90
_cell_angle_beta                 95.198(8)
_cell_angle_gamma                90
_cell_volume                     1365.68
_exptl_crystal_colour            colorless
_exptl_crystal_description       needle
_chemical_melting_point          '191-193 deg.C'
_cell_formula_units_Z            4
_exptl_crystal_recrystallization_method ethanol
loop_
_atom_site_label
_atom_site_type_symbol
_atom_site_fract_x
_atom_site_fract_y
_atom_site_fract_z
C1 C -0.0167(5) 0.7306(5) 0.42878(16)
C2 C -0.0826(5) 0.7563(6) 0.48054(16)
H1 H -0.0103 0.7184 0.5130
C3 C -0.2549(5) 0.8380(6) 0.48367(17)
H2 H -0.3022 0.8556 0.5185
C4 C -0.3584(5) 0.8940(5) 0.43638(17)
H3 H -0.4767 0.9500 0.4388
C5 C -0.2904(5) 0.8690(5) 0.38536(16)
H4 H -0.3621 0.9087 0.3531
C6 C -0.1178(5) 0.7859(5) 0.38105(14)
C7 C -0.0449(5) 0.7550(5) 0.32580(14)
H5 H -0.0351 0.6349 0.3153
C8 C -0.0873(5) 0.8732(5) 0.27855(15)
H6 H -0.1666 0.9731 0.2858
C9 C -0.1197(5) 0.7974(5) 0.22227(15)
C10 C 0.1176(4) 0.8692(5) 0.30789(15)
C11 C 0.1727(5) 1.0077(5) 0.34340(16)
C12 C 0.2753(5) 0.7903(5) 0.28173(15)
C13 C -0.2764(5) 0.8310(5) 0.13290(15)
H7 H -0.4026 0.8749 0.1181
H8 H -0.2851 0.7077 0.1341
C14 C -0.1253(5) 0.8821(6) 0.09521(17)
H9 H -0.1579 0.8355 0.0584
H10 H -0.0003 0.8395 0.1101
H11 H -0.1204 1.0041 0.0929
N1 N 0.2111(5) 1.1127(5) 0.37391(14)
N2 N 0.4031(4) 0.7314(5) 0.26339(15)
O1 O -0.0567(3) 0.6618(3) 0.21087(10)
O2 O -0.2289(3) 0.8952(3) 0.18837(10)
Br1 Br 0.21987(5) 0.61603(6) 0.425220(16)
loop_
_geom_bond_atom_site_label_1
_geom_bond_atom_site_label_2
_geom_bond_site_symmetry_1
_geom_bond_site_symmetry_2
C1 C2 1_555 1_555
C2 H1 1_555 1_555
C3 C2 1_555 1_555
H2 C3 1_555 1_555
C4 C3 1_555 1_555
H3 C4 1_555 1_555
C5 C4 1_555 1_555
H4 C5 1_555 1_555
C6 C1 1_555 1_555
C7 C6 1_555 1_555
H5 C7 1_555 1_555
C8 C7 1_555 1_555
H6 C8 1_555 1_555
C9 C8 1_555 1_555
C10 C7 1_555 1_555
C11 C10 1_555 1_555
C12 C10 1_555 1_555
C13 H7 1_555 1_555
H8 C13 1_555 1_555
C14 C13 1_555 1_555
H9 C14 1_555 1_555
H10 C14 1_555 1_555
H11 C14 1_555 1_555
N1 C11 1_555 1_555
N2 C12 1_555 1_555
O1 C9 1_555 1_555
O2 C9 1_555 1_555
Br1 C1 1_555 1_555
C5 C6 1_555 1_555
C8 C10 1_555 1_555
C13 O2 1_555 1_555

#END
