
#######################################################################
#
#                 Cambridge Crystallographic Data Centre
#                                CCDC 
#
#######################################################################
#
# If this CIF has been generated from an entry in the Cambridge 
# Structural Database, then it will include bibliographic, chemical, 
# crystal, experimental, refinement or atomic coordinate data resulting 
# from the CCDC's data processing and validation procedures.
#
#######################################################################

data_VIXQIC
_chemical_formula_moiety         'C22 H20 O8'
_chemical_name_systematic        
"Methyl 1-(methoxycarbonylmethyl)-5,6-(methylenedioxy-O,O')-3-(3,4-methylenedioxyphenyl)indan-2-carboxylate"
_symmetry_cell_setting           triclinic
_symmetry_space_group_name_H-M   'P -1'
_symmetry_Int_Tables_number      2
_space_group_name_Hall           '-P 1'
loop_
_symmetry_equiv_pos_site_id
_symmetry_equiv_pos_as_xyz
1 x,y,z
2 -x,-y,-z
_cell_length_a                   9.6624(2)
_cell_length_b                   9.9038(2)
_cell_length_c                   11.0881(2)
_cell_angle_alpha                92.4930(15)
_cell_angle_beta                 115.0200(13)
_cell_angle_gamma                95.6930(13)
_cell_volume                     952.451
_cell_formula_units_Z            2
loop_
_atom_site_label
_atom_site_type_symbol
_atom_site_fract_x
_atom_site_fract_y
_atom_site_fract_z
O1 O 0.35951(11) 0.89299(9) 0.01320(9)
O2 O 0.53127(11) 0.80088(10) 0.18719(10)
O3 O -0.11691(11) 1.14324(11) 0.37332(10)
O4 O 0.61626(13) 1.25751(11) 0.47131(11)
O5 O -0.05308(13) 0.46050(11) 0.24851(10)
O6 O 0.11646(12) 1.24650(11) 0.53911(11)
O7 O -0.25190(12) 0.41581(10) 0.03473(11)
O8 O 0.54332(13) 1.37131(10) 0.28869(11)
C1 C 0.40425(15) 0.86123(12) 0.12591(13)
C2 C 0.06676(16) 0.67384(14) 0.20656(14)
C3 C 0.15774(15) 0.89924(13) 0.14685(13)
C4 C 0.13471(15) 0.99351(13) 0.24697(13)
C5 C 0.28093(16) 1.14900(14) 0.44743(14)
C6 C 0.05107(15) 0.76544(13) 0.10911(13)
C7 C -0.00619(16) 1.01557(14) 0.24672(13)
C8 C 0.27414(15) 1.05901(13) 0.34285(13)
C9 C -0.17563(16) 0.61920(14) -0.05428(14)
C10 C 0.40733(16) 1.02146(13) 0.31543(13)
C11 C -0.04084(16) 0.56101(13) 0.16997(14)
C12 C 0.54970(16) 1.25788(14) 0.35208(15)
C13 C 0.46758(16) 1.13500(14) 0.25333(14)
C14 C 0.33122(15) 0.88796(13) 0.21939(13)
C15 C -0.06768(16) 0.73710(14) -0.01829(14)
C16 C 0.00264(16) 1.10369(14) 0.34943(14)
C17 C -0.15903(15) 0.53413(13) 0.04272(14)
C18 C 0.14193(17) 1.16691(14) 0.44720(14)
C19 C -0.17660(19) 0.36045(16) 0.15978(16)
C20 C -0.04600(18) 1.22726(17) 0.49741(16)
C21 C 0.61281(19) 0.77184(18) 0.10744(17)
C22 C 0.6236(3) 1.49687(19) 0.3723(3)
H1 H 0.3753(18) 1.1931(15) 0.5168(15)
H2 H 0.3475(17) 0.8153(16) 0.2781(15)
H3 H 0.1384(16) 0.9448(14) 0.0655(15)
H4 H -0.2574(19) 0.6000(16) -0.1425(17)
H5 H 0.1506(19) 0.6901(16) 0.2962(17)
H6 H -0.1065(19) 0.9723(17) 0.1784(16)
H7 H 0.4958(17) 1.0004(15) 0.3972(15)
H8 H 0.3828(18) 1.1608(15) 0.1726(16)
H9 H -0.0774(18) 0.8002(17) -0.0865(16)
H10 H 0.5469(19) 1.1043(17) 0.2258(16)
H11 H 0.711(2) 0.7450(19) 0.1701(18)
H12 H -0.084(2) 1.314(2) 0.4809(19)
H13 H -0.250(2) 0.3373(19) 0.1979(19)
H14 H -0.127(2) 0.2794(19) 0.1442(17)
H15 H -0.067(2) 1.1788(19) 0.5663(19)
H16 H 0.551(2) 0.698(2) 0.0386(19)
H17 H 0.632(2) 0.856(2) 0.0648(18)
H18 H 0.735(4) 1.492(3) 0.417(3)
H19 H 0.587(3) 1.565(3) 0.318(3)
H20 H 0.589(4) 1.512(3) 0.443(3)
loop_
_geom_bond_atom_site_label_1
_geom_bond_atom_site_label_2
_geom_bond_site_symmetry_1
_geom_bond_site_symmetry_2
O1 C1 1_555 1_555
O2 C1 1_555 1_555
O3 C16 1_555 1_555
O4 C12 1_555 1_555
O5 C11 1_555 1_555
O6 C18 1_555 1_555
O7 C17 1_555 1_555
O8 C12 1_555 1_555
C1 C14 1_555 1_555
C2 C6 1_555 1_555
C3 C4 1_555 1_555
C4 C7 1_555 1_555
C5 C8 1_555 1_555
C6 C3 1_555 1_555
C7 C16 1_555 1_555
C8 C4 1_555 1_555
C9 C15 1_555 1_555
C10 C8 1_555 1_555
C11 C2 1_555 1_555
C12 C13 1_555 1_555
C13 C10 1_555 1_555
C14 C3 1_555 1_555
C15 C6 1_555 1_555
C16 C18 1_555 1_555
C17 C9 1_555 1_555
C18 C5 1_555 1_555
C19 O5 1_555 1_555
C20 O3 1_555 1_555
C21 O2 1_555 1_555
C22 O8 1_555 1_555
H1 C5 1_555 1_555
H2 C14 1_555 1_555
H3 C3 1_555 1_555
H4 C9 1_555 1_555
H5 C2 1_555 1_555
H6 C7 1_555 1_555
H7 C10 1_555 1_555
H8 C13 1_555 1_555
H9 C15 1_555 1_555
H10 C13 1_555 1_555
H11 C21 1_555 1_555
H12 C20 1_555 1_555
H13 C19 1_555 1_555
H14 C19 1_555 1_555
H15 C20 1_555 1_555
H16 C21 1_555 1_555
H17 C21 1_555 1_555
H18 C22 1_555 1_555
H19 C22 1_555 1_555
H20 C22 1_555 1_555
O6 C20 1_555 1_555
O7 C19 1_555 1_555
C10 C14 1_555 1_555
C11 C17 1_555 1_555

#END
