
#######################################################################
#
#                 Cambridge Crystallographic Data Centre
#                                CCDC 
#
#######################################################################
#
# If this CIF has been generated from an entry in the Cambridge 
# Structural Database, then it will include bibliographic, chemical, 
# crystal, experimental, refinement or atomic coordinate data resulting 
# from the CCDC's data processing and validation procedures.
#
#######################################################################

data_VIYCOX
_chemical_formula_moiety         'C34 H25 Cl1 F1 N3 O1,C3 H6 O1'
_chemical_name_systematic        
'(4-Chlorophenyl)(6-(4-fluorophenyl)-7-(2-phenyl-1H-indol-3-yl)-1,2,3,4-tetrahydropyrrolo[1,2-a]pyrimidin-8-yl)methanone acetone solvate'
_symmetry_cell_setting           monoclinic
_symmetry_space_group_name_H-M   'P 21/c'
_symmetry_Int_Tables_number      14
_space_group_name_Hall           '-P 2ybc'
loop_
_symmetry_equiv_pos_site_id
_symmetry_equiv_pos_as_xyz
1 x,y,z
2 -x,1/2+y,1/2-z
3 -x,-y,-z
4 x,1/2-y,1/2+z
_cell_length_a                   14.5594(11)
_cell_length_b                   12.2199(9)
_cell_length_c                   18.6797(14)
_cell_angle_alpha                90
_cell_angle_beta                 106.9240(10)
_cell_angle_gamma                90
_cell_volume                     3179.46
_exptl_crystal_colour            orange
_exptl_crystal_description       block
_cell_formula_units_Z            4
loop_
_atom_site_label
_atom_site_type_symbol
_atom_site_fract_x
_atom_site_fract_y
_atom_site_fract_z
Cl1 Cl 0.37004(7) 1.08592(9) 0.47903(6)
F1 F -0.00408(14) 0.17983(15) 0.31071(9)
O1 O 0.25300(16) 0.74086(16) 0.71644(10)
N1 N 0.18819(15) 0.43828(16) 0.61542(10)
N2 N 0.23237(17) 0.51883(19) 0.73530(11)
H1 H 0.2490 0.5764 0.7625
N3 N 0.18512(18) 0.70003(18) 0.35590(11)
H2 H 0.1983 0.7030 0.3139
C1 C 0.2204(3) 0.4163(3) 0.77016(15)
H3 H 0.2022 0.4304 0.8153
H4 H 0.2805 0.3763 0.7839
C2 C 0.1436(2) 0.3488(3) 0.71660(16)
H5 H 0.0821 0.3852 0.7079
H6 H 0.1393 0.2781 0.7389
C3 C 0.1646(2) 0.3324(2) 0.64269(14)
H7 H 0.2180 0.2822 0.6491
H8 H 0.1090 0.3010 0.6065
C4 C 0.21777(18) 0.5255(2) 0.66026(13)
C5 C 0.22637(18) 0.6174(2) 0.61656(12)
C6 C 0.19668(16) 0.57902(19) 0.53936(12)
C7 C 0.17338(17) 0.47057(19) 0.54029(12)
C8 C 0.13049(17) 0.39479(19) 0.47861(12)
C9 C 0.04783(19) 0.4252(2) 0.42298(13)
H9 H 0.0222 0.4947 0.4242
C10 C 0.00306(19) 0.3539(2) 0.36575(13)
H10 H -0.0522 0.3744 0.3288
C11 C 0.0427(2) 0.2522(2) 0.36526(14)
C12 C 0.1246(2) 0.2190(2) 0.41772(15)
H11 H 0.1500 0.1497 0.4156
C13 C 0.25333(19) 0.7220(2) 0.65052(13)
C14 C 0.28366(18) 0.8121(2) 0.60819(13)
C15 C 0.3437(2) 0.7917(2) 0.56354(16)
H12 H 0.3654 0.7210 0.5598
C16 C 0.3711(2) 0.8766(3) 0.52467(17)
H13 H 0.4113 0.8631 0.4951
C17 C 0.3381(2) 0.9806(3) 0.53045(18)
C18 C 0.2800(2) 1.0029(3) 0.57499(19)
H14 H 0.2587 1.0738 0.5786
C19 C 0.2536(2) 0.9188(2) 0.61443(16)
H15 H 0.2154 0.9337 0.6454
C20 C 0.18414(17) 0.64338(19) 0.47021(12)
C21 C 0.12323(18) 0.73788(19) 0.44970(12)
C22 C 0.06257(19) 0.7932(2) 0.48360(14)
H16 H 0.0586 0.7715 0.5303
C23 C 0.0085(2) 0.8808(2) 0.44666(16)
H17 H -0.0331 0.9168 0.4682
C24 C 0.0161(2) 0.9149(2) 0.37792(17)
H18 H -0.0190 0.9754 0.3549
C25 C 0.0744(2) 0.8614(2) 0.34250(15)
H19 H 0.0785 0.8846 0.2961
C26 C 0.1265(2) 0.7720(2) 0.37842(13)
C27 C 0.21975(18) 0.6224(2) 0.41082(12)
C28 C 0.27863(19) 0.5305(2) 0.39760(14)
C29 C 0.2620(3) 0.4867(3) 0.32636(17)
H20 H 0.2141 0.5162 0.2867
C30 C 0.3166(3) 0.3987(3) 0.3138(2)
H21 H 0.3046 0.3703 0.2658
C31 C 0.3869(3) 0.3542(3) 0.3709(2)
H22 H 0.4226 0.2952 0.3621
C32 C 0.4047(2) 0.3968(3) 0.4412(2)
H23 H 0.4531 0.3670 0.4804
C33 C 0.3514(2) 0.4840(3) 0.45463(17)
H24 H 0.3646 0.5120 0.5029
C34 C 0.16865(19) 0.2917(2) 0.47413(14)
H25 H 0.2251 0.2711 0.5098
O2 O 0.4916(10) 0.4281(17) 0.7200(13)
C35 C 0.4671(5) 0.3201(13) 0.6930(6)
C36 C 0.3927(4) 0.2689(6) 0.6943(6)
H26 H 0.3529 0.3155 0.7141
H27 H 0.4104 0.2053 0.7254
H28 H 0.3580 0.2469 0.6444
C37 C 0.5376(7) 0.2358(14) 0.6546(6)
H29 H 0.5038 0.1688 0.6376
H30 H 0.5969 0.2198 0.6920
H31 H 0.5507 0.2724 0.6132
loop_
_geom_bond_atom_site_label_1
_geom_bond_atom_site_label_2
_geom_bond_site_symmetry_1
_geom_bond_site_symmetry_2
Cl1 C17 1_555 1_555
F1 C11 1_555 1_555
O1 C13 1_555 1_555
N1 C3 1_555 1_555
N2 H1 1_555 1_555
N3 H2 1_555 1_555
C1 N2 1_555 1_555
H3 C1 1_555 1_555
H4 C1 1_555 1_555
C2 C1 1_555 1_555
H5 C2 1_555 1_555
H6 C2 1_555 1_555
C3 C2 1_555 1_555
H7 C3 1_555 1_555
H8 C3 1_555 1_555
C4 N1 1_555 1_555
C5 C4 1_555 1_555
C6 C5 1_555 1_555
C7 N1 1_555 1_555
C8 C7 1_555 1_555
C9 C8 1_555 1_555
H9 C9 1_555 1_555
C10 C9 1_555 1_555
H10 C10 1_555 1_555
C11 C10 1_555 1_555
C12 C11 1_555 1_555
H11 C12 1_555 1_555
C13 C5 1_555 1_555
C14 C13 1_555 1_555
C15 C14 1_555 1_555
H12 C15 1_555 1_555
C16 C15 1_555 1_555
H13 C16 1_555 1_555
C17 C16 1_555 1_555
C18 C17 1_555 1_555
H14 C18 1_555 1_555
C19 C14 1_555 1_555
H15 C19 1_555 1_555
C20 C6 1_555 1_555
C21 C20 1_555 1_555
C22 C21 1_555 1_555
H16 C22 1_555 1_555
C23 C22 1_555 1_555
H17 C23 1_555 1_555
C24 C23 1_555 1_555
H18 C24 1_555 1_555
C25 C24 1_555 1_555
H19 C25 1_555 1_555
C26 N3 1_555 1_555
C27 N3 1_555 1_555
C28 C27 1_555 1_555
C29 C28 1_555 1_555
H20 C29 1_555 1_555
C30 C29 1_555 1_555
H21 C30 1_555 1_555
C31 C30 1_555 1_555
H22 C31 1_555 1_555
C32 C31 1_555 1_555
H23 C32 1_555 1_555
C33 C28 1_555 1_555
H24 C33 1_555 1_555
C34 C8 1_555 1_555
H25 C34 1_555 1_555
O2 C35 1_555 1_555
C35 C36 1_555 1_555
C36 H26 1_555 1_555
H27 C36 1_555 1_555
H28 C36 1_555 1_555
C37 C35 1_555 1_555
H29 C37 1_555 1_555
H30 C37 1_555 1_555
H31 C37 1_555 1_555
N2 C4 1_555 1_555
C6 C7 1_555 1_555
C12 C34 1_555 1_555
C18 C19 1_555 1_555
C20 C27 1_555 1_555
C21 C26 1_555 1_555
C25 C26 1_555 1_555
C32 C33 1_555 1_555

#END
