
#######################################################################
#
#                 Cambridge Crystallographic Data Centre
#                                CCDC 
#
#######################################################################
#
# If this CIF has been generated from an entry in the Cambridge 
# Structural Database, then it will include bibliographic, chemical, 
# crystal, experimental, refinement or atomic coordinate data resulting 
# from the CCDC's data processing and validation procedures.
#
#######################################################################

data_VIYJIW
_chemical_compound_source        'Roots of Nepeta leucophylla'
_chemical_name_common            'Coleon U 12-methyl ether'
_chemical_formula_moiety         'C21 H28 O5'
_chemical_name_systematic        
(R)-2,3,4,4a-Tetrahydro-5,8,10-trihydroxy-6-methoxy-1,1,4a-trimethyl-7-(1-methylethyl)-9-(1H)-phenanthrenone
_symmetry_cell_setting           trigonal
_symmetry_space_group_name_H-M   'P 32'
_symmetry_Int_Tables_number      145
_space_group_name_Hall           'P 32'
loop_
_symmetry_equiv_pos_site_id
_symmetry_equiv_pos_as_xyz
1 x,y,z
2 -y,x-y,2/3+z
3 -x+y,-x,1/3+z
_cell_length_a                   8.538(2)
_cell_length_b                   8.538(2)
_cell_length_c                   21.756(5)
_cell_angle_alpha                90
_cell_angle_beta                 90
_cell_angle_gamma                120
_cell_volume                     1373.48
_exptl_crystal_colour            'reddish orange'
_chemical_melting_point          172-173deg.C
_cell_formula_units_Z            3
loop_
_atom_site_label
_atom_site_type_symbol
_atom_site_fract_x
_atom_site_fract_y
_atom_site_fract_z
C1 C 0.3708(5) 0.1378(5) 0.1400
C2 C 0.4713(5) 0.1414(6) 0.0813(2)
C3 C 0.6455(5) 0.1445(5) 0.0967(2)
C4 C 0.7824(5) 0.3263(5) 0.1263(2)
C5 C 0.6845(4) 0.3903(4) 0.1698(2)
C6 C 0.7659(5) 0.5605(5) 0.1916(2)
C7 C 0.6778(4) 0.6302(4) 0.2324(2)
C8 C 0.4942(4) 0.5120(4) 0.2535(2)
C9 C 0.4042(4) 0.3285(4) 0.2340(2)
C10 C 0.4978(5) 0.2505(4) 0.1942(2)
C11 C 0.2319(5) 0.2202(4) 0.2563(2)
C12 C 0.1531(4) 0.2884(4) 0.2969(2)
C13 C 0.2358(5) 0.4678(4) 0.3151(2)
C14 C 0.4116(4) 0.5802(4) 0.2923(2)
C15 C 0.1399(5) 0.5369(5) 0.3568(2)
C16 C 0.1167(5) 0.6828(5) 0.3263(3)
C17 C 0.2244(6) 0.5932(5) 0.4205(2)
C18 C 0.8757(5) 0.4629(5) 0.0733(2)
C19 C 0.9289(5) 0.3079(5) 0.1612(2)
C20 C 0.5287(5) 0.1239(5) 0.2379(2)
C21 C -0.0232(5) 0.0765(5) 0.3729(2)
O1 O 0.9402(3) 0.6858(3) 0.1761(2)
O2 O 0.7673(3) 0.7939(3) 0.2478(2)
O3 O 0.1318(3) 0.0401(3) 0.2410(2)
O4 O -0.0221(3) 0.1646(3) 0.3162(2)
O5 O 0.4982(3) 0.7554(3) 0.3104(2)
H1 H 0.2933 0.1858 0.1303
H2 H 0.2958 0.0147 0.1529
H3 H 0.3955 0.0382 0.0563
H4 H 0.5003 0.2480 0.0580
H5 H 0.6203 0.0475 0.1245
H6 H 0.6962 0.1265 0.0598
H7 H 0.0198 0.4370 0.3629
H8 H 0.0621 0.6416 0.2866
H9 H 0.0412 0.7113 0.3510
H10 H 0.2334 0.7888 0.3215
H11 H 0.1590 0.6353 0.4448
H12 H 0.2203 0.4906 0.4401
H13 H 0.3479 0.6880 0.4164
H14 H 0.9612 0.5787 0.0900
H15 H 0.9372 0.4216 0.0466
H16 H 0.7855 0.4737 0.0503
H17 H 1.0129 0.4218 0.1795
H18 H 0.8735 0.2179 0.1928
H19 H 0.9918 0.2723 0.1330
H20 H 0.6078 0.1935 0.2708
H21 H 0.4142 0.0345 0.2545
H22 H 0.5817 0.0650 0.2155
H23 H -0.1455 -0.0068 0.3848
H24 H 0.0409 0.0120 0.3667
H25 H 0.0352 0.1651 0.4047
H26 H 0.9766 0.7800 0.1981
H27 H 0.0211 0.0024 0.2489
H28 H 0.6038 0.8086 0.2949
loop_
_geom_bond_atom_site_label_1
_geom_bond_atom_site_label_2
_geom_bond_site_symmetry_1
_geom_bond_site_symmetry_2
C1 C2 1_555 1_555
C2 C3 1_555 1_555
C3 C4 1_555 1_555
C4 C5 1_555 1_555
C5 C6 1_555 1_555
C6 C7 1_555 1_555
C7 C8 1_555 1_555
C8 C9 1_555 1_555
C9 C10 1_555 1_555
C10 C1 1_555 1_555
C11 C9 1_555 1_555
C12 C11 1_555 1_555
C13 C12 1_555 1_555
C14 C8 1_555 1_555
C15 C13 1_555 1_555
C16 C15 1_555 1_555
C17 C15 1_555 1_555
C18 C4 1_555 1_555
C19 C4 1_555 1_555
C20 C10 1_555 1_555
C21 O4 1_555 1_555
O1 C6 1_555 1_555
O2 C7 1_555 1_555
O3 C11 1_555 1_555
O4 C12 1_555 1_555
O5 C14 1_555 1_555
H1 C1 1_555 1_555
H2 C1 1_555 1_555
H3 C2 1_555 1_555
H4 C2 1_555 1_555
H5 C3 1_555 1_555
H6 C3 1_555 1_555
H7 C15 1_555 1_555
H8 C16 1_555 1_555
H9 C16 1_555 1_555
H10 C16 1_555 1_555
H11 C17 1_555 1_555
H12 C17 1_555 1_555
H13 C17 1_555 1_555
H14 C18 1_555 1_555
H15 C18 1_555 1_555
H16 C18 1_555 1_555
H17 C19 1_555 1_555
H18 C19 1_555 1_555
H19 C19 1_555 1_555
H20 C20 1_555 1_555
H21 C20 1_555 1_555
H22 C20 1_555 1_555
H23 C21 1_555 1_555
H24 C21 1_555 1_555
H25 C21 1_555 1_555
H26 O1 1_555 1_555
H27 O3 1_555 1_555
H28 O5 1_555 1_555
C5 C10 1_555 1_555
C13 C14 1_555 1_555

#END
