
#######################################################################
#
#                 Cambridge Crystallographic Data Centre
#                                CCDC 
#
#######################################################################
#
# If this CIF has been generated from an entry in the Cambridge 
# Structural Database, then it will include bibliographic, chemical, 
# crystal, experimental, refinement or atomic coordinate data resulting 
# from the CCDC's data processing and validation procedures.
#
#######################################################################

data_VIYJEU
_chemical_formula_moiety         'C24 H20 N2 O8'
_chemical_name_systematic        
"5,5'-(1,4-phenylenebis(methyleneimino))diisophthalic acid"
_symmetry_cell_setting           monoclinic
_symmetry_space_group_name_H-M   'P 21/c'
_symmetry_Int_Tables_number      14
_space_group_name_Hall           '-P 2ybc'
loop_
_symmetry_equiv_pos_site_id
_symmetry_equiv_pos_as_xyz
1 x,y,z
2 -x,1/2+y,1/2-z
3 -x,-y,-z
4 x,1/2-y,1/2+z
_cell_length_a                   10.5171(4)
_cell_length_b                   18.7049(6)
_cell_length_c                   10.6498(6)
_cell_angle_alpha                90
_cell_angle_beta                 102.156(4)
_cell_angle_gamma                90
_cell_volume                     2048.07
_exptl_crystal_colour            red
_exptl_crystal_description       block
_cell_formula_units_Z            4
loop_
_atom_site_label
_atom_site_type_symbol
_atom_site_fract_x
_atom_site_fract_y
_atom_site_fract_z
O1 O 0.24031(13) 0.60963(8) 0.58254(15)
H1 H 0.196(4) 0.586(2) 0.621(4)
O2 O 0.27953(14) 0.50707(8) 0.48920(16)
O3 O 0.57363(15) 0.50146(8) 0.18934(16)
H2 H 0.610(4) 0.481(2) 0.138(4)
O4 O 0.63345(16) 0.60412(8) 0.11400(18)
O5 O 0.90396(14) 0.46451(8) 0.28778(17)
H3 H 0.858(4) 0.445(2) 0.331(4)
O6 O 0.87916(16) 0.56264(9) 0.39811(18)
O7 O 1.31833(14) 0.56888(8) -0.02667(16)
H4 H 1.356(4) 0.544(2) -0.070(4)
O8 O 1.22974(14) 0.46623(8) 0.02052(17)
N1 N 1.12175(16) 0.75542(9) 0.21576(18)
H5 H 1.1876(14) 0.7751(10) 0.187(2)
N2 N 0.47014(16) 0.79568(9) 0.36885(19)
H6 H 0.4301(18) 0.8189(10) 0.4203(17)
C1 C 0.53235(18) 0.83745(11) 0.2844(2)
H7 H 0.5186 0.8887 0.3006
H8 H 0.4881 0.8272 0.1947
C2 C 0.67681(18) 0.82503(10) 0.2969(2)
C3 C 0.75409(19) 0.79663(10) 0.4067(2)
H9 H 0.7168 0.7844 0.4777
C4 C 0.88529(19) 0.78607(10) 0.4135(2)
H10 H 0.9371 0.7660 0.4892
C5 C 0.94301(18) 0.80408(10) 0.3125(2)
C6 C 0.86588(19) 0.83322(10) 0.2023(2)
H11 H 0.9037 0.8463 0.1321
C7 C 0.73417(19) 0.84317(11) 0.1946(2)
H12 H 0.6821 0.8626 0.1185
C8 C 1.08732(18) 0.79212(11) 0.3238(2)
H13 H 1.1316 0.8391 0.3341
H14 H 1.1209 0.7641 0.4026
C9 C 1.11069(18) 0.68170(10) 0.2046(2)
C10 C 1.02888(18) 0.64264(10) 0.2666(2)
H15 H 0.9819 0.6664 0.3213
C11 C 1.01564(18) 0.56928(10) 0.2488(2)
C12 C 1.08386(17) 0.53260(11) 0.1707(2)
H16 H 1.0742 0.4824 0.1589
C13 C 1.16662(18) 0.57139(10) 0.1104(2)
C14 C 1.18030(18) 0.64462(10) 0.1269(2)
H17 H 1.2377 0.6700 0.0850
C15 C 1.24315(18) 0.53333(11) 0.0291(2)
C16 C 0.92752(19) 0.52943(11) 0.3163(2)
C17 C 0.45821(17) 0.72268(10) 0.3602(2)
C18 C 0.51773(18) 0.68299(10) 0.2767(2)
H18 H 0.5647 0.7069 0.2222
C19 C 0.50849(18) 0.60905(10) 0.2732(2)
C20 C 0.43734(17) 0.57238(10) 0.3491(2)
H19 H 0.4313 0.5217 0.3462
C21 C 0.37533(17) 0.61180(10) 0.4294(2)
C22 C 0.38640(17) 0.68549(10) 0.4360(2)
H20 H 0.3447 0.7113 0.4928
C23 C 0.29343(18) 0.57378(11) 0.5064(2)
C24 C 0.57618(18) 0.56941(10) 0.1860(2)
H21? H 0.232(4) 0.490(2) 0.534(4)
H22? H 0.681(4) 0.577(2) 0.084(5)
H23? H 0.827(4) 0.539(2) 0.429(5)
H24? H 1.279(4) 0.448(2) -0.020(4)
loop_
_geom_bond_atom_site_label_1
_geom_bond_atom_site_label_2
_geom_bond_site_symmetry_1
_geom_bond_site_symmetry_2
O1 H1 1_555 1_555
O2 C23 1_555 1_555
O3 H2 1_555 1_555
O4 C24 1_555 1_555
O5 H3 1_555 1_555
O6 C16 1_555 1_555
O7 H4 1_555 1_555
O8 C15 1_555 1_555
N1 H5 1_555 1_555
N2 H6 1_555 1_555
C1 N2 1_555 1_555
H7 C1 1_555 1_555
H8 C1 1_555 1_555
C2 C1 1_555 1_555
C3 C2 1_555 1_555
H9 C3 1_555 1_555
C4 C3 1_555 1_555
H10 C4 1_555 1_555
C5 C4 1_555 1_555
C6 C5 1_555 1_555
H11 C6 1_555 1_555
C7 C2 1_555 1_555
H12 C7 1_555 1_555
C8 N1 1_555 1_555
H13 C8 1_555 1_555
H14 C8 1_555 1_555
C9 N1 1_555 1_555
C10 C9 1_555 1_555
H15 C10 1_555 1_555
C11 C10 1_555 1_555
C12 C11 1_555 1_555
H16 C12 1_555 1_555
C13 C12 1_555 1_555
C14 C9 1_555 1_555
H17 C14 1_555 1_555
C15 O7 1_555 1_555
C16 O5 1_555 1_555
C17 N2 1_555 1_555
C18 C17 1_555 1_555
H18 C18 1_555 1_555
C19 C18 1_555 1_555
C20 C19 1_555 1_555
H19 C20 1_555 1_555
C21 C20 1_555 1_555
C22 C17 1_555 1_555
H20 C22 1_555 1_555
C23 O1 1_555 1_555
C24 O3 1_555 1_555
C5 C8 1_555 1_555
C6 C7 1_555 1_555
C11 C16 1_555 1_555
C13 C14 1_555 1_555
C13 C15 1_555 1_555
C19 C24 1_555 1_555
C21 C22 1_555 1_555
C21 C23 1_555 1_555

#END
