
#######################################################################
#
#                 Cambridge Crystallographic Data Centre
#                                CCDC 
#
#######################################################################
#
# If this CIF has been generated from an entry in the Cambridge 
# Structural Database, then it will include bibliographic, chemical, 
# crystal, experimental, refinement or atomic coordinate data resulting 
# from the CCDC's data processing and validation procedures.
#
#######################################################################

data_VIYTII
_chemical_formula_moiety         'C17 H18 O4 S2'
_chemical_name_systematic        
1,1'-(Prop-1-ene-2,3-diyldisulfonyl)bis(4-methylbenzene)
_symmetry_cell_setting           monoclinic
_symmetry_space_group_name_H-M   'P 21/c'
_symmetry_Int_Tables_number      14
_space_group_name_Hall           '-P 2ybc'
loop_
_symmetry_equiv_pos_site_id
_symmetry_equiv_pos_as_xyz
1 x,y,z
2 -x,1/2+y,1/2-z
3 -x,-y,-z
4 x,1/2-y,1/2+z
_cell_length_a                   15.6737(5)
_cell_length_b                   11.2694(4)
_cell_length_c                   19.6400(6)
_cell_angle_alpha                90
_cell_angle_beta                 108.0320(10)
_cell_angle_gamma                90
_cell_volume                     3298.69
_exptl_crystal_colour            colorless
_cell_formula_units_Z            8
loop_
_atom_site_label
_atom_site_type_symbol
_atom_site_fract_x
_atom_site_fract_y
_atom_site_fract_z
C1 C 0.3444(3) 0.0554(4) 0.0717(2)
C2 C 0.3183(3) 0.1835(4) 0.0631(2)
H1 H 0.2699 0.1971 0.0849
H2 H 0.2936 0.2016 0.0114
C3 C 0.4136(4) 0.0062(5) 0.0576(3)
H3 H 0.4526 0.0536 0.0403
H4 H 0.4244 -0.0765 0.0649
C4 C 0.2810(3) -0.0083(4) 0.1868(2)
C5 C 0.3429(3) -0.0741(4) 0.2387(2)
H5 H 0.3792 -0.1316 0.2254
C6 C 0.3514(3) -0.0554(4) 0.3102(2)
H6 H 0.3938 -0.1003 0.3460
C7 C 0.2986(3) 0.0284(4) 0.3302(2)
C8 C 0.2369(3) 0.0935(4) 0.2776(2)
H7 H 0.2005 0.1508 0.2910
C9 C 0.2273(3) 0.0764(4) 0.2058(2)
H8 H 0.1850 0.1215 0.1700
C10 C 0.3078(4) 0.0495(6) 0.4080(3)
H9 H 0.3254 0.1321 0.4204
H10 H 0.3537 -0.0036 0.4379
H11 H 0.2502 0.0338 0.4162
C11 C 0.4454(3) 0.2486(4) 0.1946(2)
C12 C 0.5105(3) 0.1621(4) 0.2199(2)
H12 H 0.5359 0.1222 0.1882
C13 C 0.5379(3) 0.1349(4) 0.2926(2)
H13 H 0.5819 0.0751 0.3102
C14 C 0.5024(3) 0.1935(4) 0.3400(2)
C15 C 0.4375(3) 0.2804(4) 0.3129(2)
H14 H 0.4128 0.3215 0.3446
C16 C 0.4083(3) 0.3081(4) 0.2405(2)
H15 H 0.3636 0.3670 0.2226
C17 C 0.5343(4) 0.1631(5) 0.4184(2)
H16 H 0.5031 0.2130 0.4440
H17 H 0.5991 0.1769 0.4376
H18 H 0.5215 0.0794 0.4248
O1 O 0.2936(3) -0.1573(3) 0.08944(18)
O2 O 0.1778(2) -0.0006(3) 0.05570(17)
O3 O 0.4807(2) 0.2639(3) 0.07387(18)
O4 O 0.3657(3) 0.3992(3) 0.09326(18)
S1 S 0.26627(8) -0.03739(11) 0.09599(6)
S2 S 0.40827(8) 0.28430(11) 0.10269(6)
C18 C 0.1330(5) 0.9128(8) 0.8876(3)
H19 H 0.1161 0.9801 0.8536
H20 H 0.1298 0.9382 0.9350
C19 C 0.2128(7) 0.8712(9) 0.8918(3)
C20 C 0.2656(5) 0.7821(6) 0.9212(3)
H21 H 0.2464 0.7251 0.9490
H22 H 0.3229 0.7748 0.9145
C21 C 0.0445(3) 0.7586(4) 0.7590(2)
C22 C 0.0748(3) 0.6589(4) 0.7329(3)
H23 H 0.1081 0.6001 0.7649
C23 C 0.0561(3) 0.6451(4) 0.6598(3)
H24 H 0.0757 0.5756 0.6417
C24 C 0.0090(3) 0.7317(5) 0.6125(3)
C25 C -0.0177(3) 0.8329(4) 0.6402(2)
H25 H -0.0479 0.8939 0.6085
C26 C -0.0013(3) 0.8472(4) 0.7133(2)
H26 H -0.0211 0.9164 0.7316
C27 C -0.0117(5) 0.7134(6) 0.5329(3)
H27 H 0.0368 0.6678 0.5236
H28 H -0.0170 0.7906 0.5090
H29 H -0.0683 0.6699 0.5143
C28 C 0.2246(3) 0.9978(4) 0.7683(2)
C29 C 0.2500(3) 0.8990(4) 0.7376(3)
H30 H 0.2841 0.8376 0.7668
C30 C 0.2254(3) 0.8906(5) 0.6642(3)
H31 H 0.2425 0.8228 0.6428
C31 C 0.1761(3) 0.9795(5) 0.6212(2)
C32 C 0.1496(3) 1.0764(4) 0.6526(2)
H32 H 0.1150 1.1372 0.6232
C33 C 0.1727(3) 1.0865(4) 0.7263(2)
H33 H 0.1534 1.1526 0.7477
C34 C 0.1528(4) 0.9709(7) 0.5409(3)
H34 H 0.0899 0.9935 0.5187
H35 H 0.1618 0.8893 0.5275
H36 H 0.1915 1.0245 0.5243
O5 O -0.0261(3) 0.8176(3) 0.85740(19)
O6 O 0.0866(3) 0.6588(5) 0.8839(2)
O7 O 0.2374(3) 1.1215(5) 0.8815(2)
O8 O 0.3606(4) 0.9815(4) 0.8851(2)
S3 S 0.05565(9) 0.76927(14) 0.85092(6)
S4 S 0.26591(13) 1.00998(16) 0.86165(7)
loop_
_geom_bond_atom_site_label_1
_geom_bond_atom_site_label_2
_geom_bond_site_symmetry_1
_geom_bond_site_symmetry_2
C1 C2 1_555 1_555
C2 H1 1_555 1_555
H2 C2 1_555 1_555
C3 C1 1_555 1_555
H3 C3 1_555 1_555
H4 C3 1_555 1_555
C4 C5 1_555 1_555
C5 H5 1_555 1_555
C6 C5 1_555 1_555
H6 C6 1_555 1_555
C7 C6 1_555 1_555
C8 C7 1_555 1_555
H7 C8 1_555 1_555
C9 C4 1_555 1_555
H8 C9 1_555 1_555
C10 C7 1_555 1_555
H9 C10 1_555 1_555
H10 C10 1_555 1_555
H11 C10 1_555 1_555
C11 C12 1_555 1_555
C12 H12 1_555 1_555
C13 C12 1_555 1_555
H13 C13 1_555 1_555
C14 C13 1_555 1_555
C15 C14 1_555 1_555
H14 C15 1_555 1_555
C16 C11 1_555 1_555
H15 C16 1_555 1_555
C17 C14 1_555 1_555
H16 C17 1_555 1_555
H17 C17 1_555 1_555
H18 C17 1_555 1_555
O1 S1 1_555 1_555
O2 S1 1_555 1_555
O3 S2 1_555 1_555
O4 S2 1_555 1_555
S1 C1 1_555 1_555
S2 C2 1_555 1_555
C18 H19 1_555 1_555
H20 C18 1_555 1_555
C19 C18 1_555 1_555
C20 C19 1_555 1_555
H21 C20 1_555 1_555
H22 C20 1_555 1_555
C21 C22 1_555 1_555
C22 H23 1_555 1_555
C23 C22 1_555 1_555
H24 C23 1_555 1_555
C24 C23 1_555 1_555
C25 C24 1_555 1_555
H25 C25 1_555 1_555
C26 C21 1_555 1_555
H26 C26 1_555 1_555
C27 C24 1_555 1_555
H27 C27 1_555 1_555
H28 C27 1_555 1_555
H29 C27 1_555 1_555
C28 C29 1_555 1_555
C29 H30 1_555 1_555
C30 C29 1_555 1_555
H31 C30 1_555 1_555
C31 C30 1_555 1_555
C32 C31 1_555 1_555
H32 C32 1_555 1_555
C33 C28 1_555 1_555
H33 C33 1_555 1_555
C34 C31 1_555 1_555
H34 C34 1_555 1_555
H35 C34 1_555 1_555
H36 C34 1_555 1_555
O5 S3 1_555 1_555
O6 S3 1_555 1_555
O7 S4 1_555 1_555
O8 S4 1_555 1_555
S3 C18 1_555 1_555
S4 C19 1_555 1_555
C4 S1 1_555 1_555
C8 C9 1_555 1_555
C11 S2 1_555 1_555
C15 C16 1_555 1_555
C21 S3 1_555 1_555
C25 C26 1_555 1_555
C28 S4 1_555 1_555
C32 C33 1_555 1_555

#END
