
#######################################################################
#
#                 Cambridge Crystallographic Data Centre
#                                CCDC 
#
#######################################################################
#
# If this CIF has been generated from an entry in the Cambridge 
# Structural Database, then it will include bibliographic, chemical, 
# crystal, experimental, refinement or atomic coordinate data resulting 
# from the CCDC's data processing and validation procedures.
#
#######################################################################

data_VIYZUA
_chemical_formula_moiety         'C17 H16 N3 O1 1+,Cl1 1-'
_chemical_name_systematic        
'syn-4-Methyl-2-((1E)-(2-(quinolinium-4-yl)hydrazin-1-ylidene)methyl)phenol chloride'
_symmetry_cell_setting           monoclinic
_symmetry_space_group_name_H-M   'C 2/c'
_symmetry_Int_Tables_number      15
_space_group_name_Hall           '-C 2yn'
loop_
_symmetry_equiv_pos_site_id
_symmetry_equiv_pos_as_xyz
1 x,y,z
2 -x,y,1/2-z
3 1/2+x,1/2+y,z
4 1/2-x,1/2+y,1/2-z
5 -x,-y,-z
6 x,-y,1/2+z
7 1/2-x,1/2-y,-z
8 1/2+x,1/2-y,1/2+z
_cell_length_a                   14.4610(5)
_cell_length_b                   11.3073(5)
_cell_length_c                   17.8849(7)
_cell_angle_alpha                90
_cell_angle_beta                 91.904(2)
_cell_angle_gamma                90
_cell_volume                     2922.83
_exptl_crystal_colour            yellow
_exptl_crystal_description       block
_cell_formula_units_Z            8
loop_
_atom_site_label
_atom_site_type_symbol
_atom_site_fract_x
_atom_site_fract_y
_atom_site_fract_z
O1 O 0.02138(11) 0.47535(15) 0.12608(10)
H1 H 0.003(2) 0.5453(13) 0.1301(18)
N1 N 0.32597(14) -0.14681(17) -0.04473(11)
H2 H 0.3669(15) -0.196(2) -0.0623(14)
N2 N 0.15609(13) 0.12403(17) 0.01962(11)
H3 H 0.1113(14) 0.151(2) -0.0101(12)
N3 N 0.18822(14) 0.19878(17) 0.07635(10)
C1 C 0.35486(17) -0.0705(2) 0.00768(13)
H4 H 0.4161 -0.0778 0.0281
C2 C 0.29924(16) 0.0183(2) 0.03325(13)
H5 H 0.3209 0.0697 0.0721
C3 C 0.20988(16) 0.0320(2) 0.00107(12)
C4 C 0.17603(16) -0.0539(2) -0.05280(12)
C5 C 0.08510(16) -0.0546(2) -0.08437(13)
H6 H 0.0424 0.0046 -0.0704
C6 C 0.05773(17) -0.1401(2) -0.13507(14)
H7 H -0.0039 -0.1402 -0.1552
C7 C 0.12026(19) -0.2273(2) -0.15735(14)
H8 H 0.1009 -0.2856 -0.1928
C8 C 0.20936(18) -0.2286(2) -0.12815(13)
H9 H 0.2517 -0.2873 -0.1437
C9 C 0.23768(16) -0.1432(2) -0.07536(13)
C10 C 0.13718(16) 0.2895(2) 0.08839(12)
H10 H 0.0823 0.3023 0.0588
C11 C 0.16376(16) 0.3730(2) 0.14774(12)
C12 C 0.10372(15) 0.4659(2) 0.16584(12)
C13 C 0.12906(17) 0.5458(2) 0.22192(13)
H11 H 0.0881 0.6077 0.2347
C14 C 0.21416(17) 0.5349(2) 0.25928(13)
H12 H 0.2307 0.5897 0.2977
C15 C 0.27605(17) 0.4453(2) 0.24161(13)
C16 C 0.24958(16) 0.3650(2) 0.18642(13)
H13 H 0.2907 0.3028 0.1744
C17 C 0.37007(18) 0.4372(2) 0.28085(15)
H14 H 0.3964 0.3586 0.2726
H15 H 0.3636 0.4501 0.3346
H16 H 0.4111 0.4976 0.2608
Cl1 Cl -0.01586(4) 0.74192(6) 0.09629(4)
loop_
_geom_bond_atom_site_label_1
_geom_bond_atom_site_label_2
_geom_bond_site_symmetry_1
_geom_bond_site_symmetry_2
O1 H1 1_555 1_555
N1 H2 1_555 1_555
N2 H3 1_555 1_555
N3 N2 1_555 1_555
C1 N1 1_555 1_555
H4 C1 1_555 1_555
C2 C1 1_555 1_555
H5 C2 1_555 1_555
C3 N2 1_555 1_555
C4 C3 1_555 1_555
C5 C4 1_555 1_555
H6 C5 1_555 1_555
C6 C5 1_555 1_555
H7 C6 1_555 1_555
C7 C6 1_555 1_555
H8 C7 1_555 1_555
C8 C7 1_555 1_555
H9 C8 1_555 1_555
C9 N1 1_555 1_555
C10 N3 1_555 1_555
H10 C10 1_555 1_555
C11 C10 1_555 1_555
C12 O1 1_555 1_555
C13 C12 1_555 1_555
H11 C13 1_555 1_555
C14 C13 1_555 1_555
H12 C14 1_555 1_555
C15 C14 1_555 1_555
C16 C11 1_555 1_555
H13 C16 1_555 1_555
C17 C15 1_555 1_555
H14 C17 1_555 1_555
H15 C17 1_555 1_555
H16 C17 1_555 1_555
C2 C3 1_555 1_555
C4 C9 1_555 1_555
C8 C9 1_555 1_555
C11 C12 1_555 1_555
C15 C16 1_555 1_555

#END
