
#######################################################################
#
#                 Cambridge Crystallographic Data Centre
#                                CCDC 
#
#######################################################################
#
# If this CIF has been generated from an entry in the Cambridge 
# Structural Database, then it will include bibliographic, chemical, 
# crystal, experimental, refinement or atomic coordinate data resulting 
# from the CCDC's data processing and validation procedures.
#
#######################################################################

data_VIZBAJ
_chemical_formula_moiety         'C17 H16 N3 O1 1+,Cl1 1-'
_chemical_name_systematic        
'anti-4-Methyl-2-(quinolinium-4-ylcarbonohydrazonoyl)phenol chloride'
_symmetry_cell_setting           monoclinic
_symmetry_space_group_name_H-M   'P 21/n'
_symmetry_Int_Tables_number      14
_space_group_name_Hall           '-P 2yn'
loop_
_symmetry_equiv_pos_site_id
_symmetry_equiv_pos_as_xyz
1 x,y,z
2 1/2-x,1/2+y,1/2-z
3 -x,-y,-z
4 1/2+x,1/2-y,1/2+z
_cell_length_a                   10.8795(10)
_cell_length_b                   10.7730(11)
_cell_length_c                   13.1257(7)
_cell_angle_alpha                90
_cell_angle_beta                 104.806(5)
_cell_angle_gamma                90
_cell_volume                     1487.32
_exptl_crystal_colour            yellow
_exptl_crystal_description       block
_cell_formula_units_Z            4
loop_
_atom_site_label
_atom_site_type_symbol
_atom_site_fract_x
_atom_site_fract_y
_atom_site_fract_z
O1 O 0.6153(5) -0.2430(4) 0.0940(4)
H1 H 0.609(7) -0.1668(18) 0.105(5)
N1 N 0.4947(5) 0.1809(5) 0.3756(4)
H2 H 0.459(5) 0.190(6) 0.428(3)
N2 N 0.6407(5) 0.1206(5) 0.1207(4)
H3 H 0.684(6) 0.178(4) 0.096(5)
N3 N 0.6461(5) 0.0005(5) 0.0860(4)
C1 C 0.5171(6) 0.0672(6) 0.3500(5)
H4 H 0.4985 0.0000 0.3905
C2 C 0.5671(6) 0.0428(6) 0.2652(5)
H5 H 0.5803 -0.0406 0.2469
C3 C 0.5980(6) 0.1399(6) 0.2067(5)
C4 C 0.5800(6) 0.2648(6) 0.2385(4)
C5 C 0.6088(6) 0.3729(6) 0.1884(5)
H6 H 0.6431 0.3649 0.1290
C6 C 0.5885(6) 0.4894(7) 0.2234(6)
H7 H 0.6105 0.5605 0.1890
C7 C 0.5354(6) 0.5040(6) 0.3095(5)
H8 H 0.5215 0.5848 0.3333
C8 C 0.5039(6) 0.4025(6) 0.3587(5)
H9 H 0.4679 0.4126 0.4169
C9 C 0.5243(6) 0.2824(6) 0.3241(5)
C10 C 0.6919(6) -0.0167(6) 0.0055(5)
H10 H 0.7192 0.0529 -0.0273
C11 C 0.7026(6) -0.1394(6) -0.0355(5)
C12 C 0.6689(6) -0.2476(6) 0.0101(5)
C13 C 0.6894(6) -0.3636(6) -0.0287(5)
H11 H 0.6679 -0.4369 0.0031
C14 C 0.7417(6) -0.3714(7) -0.1145(5)
H12 H 0.7558 -0.4510 -0.1404
C15 C 0.7737(6) -0.2677(6) -0.1633(5)
C16 C 0.7557(6) -0.1532(6) -0.1219(5)
H13 H 0.7801 -0.0809 -0.1531
C17 C 0.8300(7) -0.2808(7) -0.2565(5)
H14 H 0.9229 -0.2858 -0.2317
H15 H 0.8065 -0.2087 -0.3028
H16 H 0.7974 -0.3565 -0.2955
Cl1 Cl 0.84264(16) 0.28930(17) 0.04299(13)
loop_
_geom_bond_atom_site_label_1
_geom_bond_atom_site_label_2
_geom_bond_site_symmetry_1
_geom_bond_site_symmetry_2
O1 H1 1_555 1_555
N1 H2 1_555 1_555
N2 H3 1_555 1_555
N3 N2 1_555 1_555
C1 N1 1_555 1_555
H4 C1 1_555 1_555
C2 C1 1_555 1_555
H5 C2 1_555 1_555
C3 N2 1_555 1_555
C4 C3 1_555 1_555
C5 C4 1_555 1_555
H6 C5 1_555 1_555
C6 C5 1_555 1_555
H7 C6 1_555 1_555
C7 C6 1_555 1_555
H8 C7 1_555 1_555
C8 C7 1_555 1_555
H9 C8 1_555 1_555
C9 N1 1_555 1_555
C10 N3 1_555 1_555
H10 C10 1_555 1_555
C11 C10 1_555 1_555
C12 O1 1_555 1_555
C13 C12 1_555 1_555
H11 C13 1_555 1_555
C14 C13 1_555 1_555
H12 C14 1_555 1_555
C15 C14 1_555 1_555
C16 C11 1_555 1_555
H13 C16 1_555 1_555
C17 C15 1_555 1_555
H14 C17 1_555 1_555
H15 C17 1_555 1_555
H16 C17 1_555 1_555
C2 C3 1_555 1_555
C4 C9 1_555 1_555
C8 C9 1_555 1_555
C11 C12 1_555 1_555
C15 C16 1_555 1_555

#END
