
#######################################################################
#
#                 Cambridge Crystallographic Data Centre
#                                CCDC 
#
#######################################################################
#
# If this CIF has been generated from an entry in the Cambridge 
# Structural Database, then it will include bibliographic, chemical, 
# crystal, experimental, refinement or atomic coordinate data resulting 
# from the CCDC's data processing and validation procedures.
#
#######################################################################

data_VIZNUP
_chemical_formula_moiety         'C92 H74 N6 O6,6.5(C6 H4 Cl2)'
_chemical_name_systematic        
'tris(2,7-di-t-butylphenanthro[4,5-abc]phenazine-4,5-dione) 1,2-dichlorobenzene solvate'
_symmetry_cell_setting           monoclinic
_symmetry_space_group_name_H-M   'P 21/c'
_symmetry_Int_Tables_number      14
_space_group_name_Hall           '-P 2ybc'
loop_
_symmetry_equiv_pos_site_id
_symmetry_equiv_pos_as_xyz
1 x,y,z
2 -x,1/2+y,1/2-z
3 -x,-y,-z
4 x,1/2-y,1/2+z
_cell_length_a                   22.1444(4)
_cell_length_b                   37.2740(8)
_cell_length_c                   27.7739(5)
_cell_angle_alpha                90
_cell_angle_beta                 94.0785(16)
_cell_angle_gamma                90
_cell_volume                     22866.8
_exptl_crystal_colour            orange
_exptl_crystal_description       block
_cell_formula_units_Z            8
loop_
_atom_site_label
_atom_site_type_symbol
_atom_site_fract_x
_atom_site_fract_y
_atom_site_fract_z
C1 C -0.0907(2) 0.61398(13) 0.31370(16)
H1 H -0.1136 0.5994 0.2894
C2 C -0.0748(2) 0.59381(13) 0.36074(16)
C3 C -0.0944(2) 0.56053(13) 0.37103(16)
H2 H -0.1160 0.5470 0.3475
C4 C -0.0817(2) 0.54662(13) 0.41816(16)
N1 N -0.10466(18) 0.51447(11) 0.42997(14)
C5 C -0.0942(2) 0.50362(13) 0.47549(16)
C6 C -0.1194(2) 0.46918(13) 0.48999(17)
C7 C -0.1550(2) 0.44837(14) 0.4568(2)
H3 H -0.1615 0.4563 0.4251
C8 C -0.1809(3) 0.41610(16) 0.4702(2)
C9 C -0.1685(2) 0.40430(16) 0.5170(2)
H4 H -0.1840 0.3824 0.5263
C10 C -0.1329(2) 0.42455(15) 0.5508(2)
C11 C -0.1238(3) 0.41108(16) 0.6008(2)
O1 O -0.1416(2) 0.38221(15) 0.6138(2)
O2 O -0.0862(2) 0.42538(13) 0.68066(16)
C12 C -0.0908(3) 0.43512(15) 0.6388(2)
C13 C -0.0656(2) 0.46955(13) 0.62239(17)
C14 C -0.0348(2) 0.49145(15) 0.65571(19)
H5 H -0.0292 0.4838 0.6876
C15 C -0.0117(2) 0.52491(14) 0.64298(17)
C16 C -0.0194(2) 0.53462(14) 0.59467(16)
H6 H -0.0034 0.5563 0.5850
C17 C -0.0506(2) 0.51290(13) 0.56007(16)
C18 C -0.05936(19) 0.52488(13) 0.51011(16)
N2 N -0.03572(17) 0.55626(11) 0.49897(13)
C19 C -0.0464(2) 0.56782(13) 0.45279(16)
C20 C -0.0249(2) 0.60206(13) 0.44062(16)
H7 H -0.0006 0.6153 0.4628
C21 C -0.0407(2) 0.61531(13) 0.39541(16)
C22 C -0.0296(2) 0.65335(13) 0.37873(16)
H8 H -0.0066 0.6679 0.4031
C23 C -0.09301(19) 0.66784(13) 0.36558(16)
C24 C -0.1191(2) 0.69676(13) 0.38582(16)
H9 H -0.0980 0.7099 0.4100
C25 C -0.1789(2) 0.70648(13) 0.36935(17)
N3 N -0.20656(17) 0.73359(12) 0.39133(14)
C26 C -0.2618(2) 0.74250(14) 0.37314(16)
C27 C -0.2969(2) 0.76928(14) 0.39816(17)
C28 C -0.2769(3) 0.78039(16) 0.44512(18)
H10 H -0.2404 0.7718 0.4592
C29 C -0.3114(3) 0.80427(17) 0.47080(18)
C30 C -0.3627(3) 0.81894(18) 0.4471(2)
H11 H -0.3851 0.8356 0.4633
C31 C -0.3820(2) 0.80961(17) 0.39988(19)
C32 C -0.4355(3) 0.82693(17) 0.3756(2)
O3 O -0.4615(3) 0.85194(16) 0.3928(2)
O4 O -0.50837(18) 0.82406(12) 0.30903(15)
C33 C -0.4608(2) 0.81183(15) 0.32694(19)
C34 C -0.4276(2) 0.78243(14) 0.30528(17)
C35 C -0.4509(2) 0.76730(15) 0.26171(18)
H12 H -0.4860 0.7769 0.2464
C36 C -0.4232(2) 0.73843(14) 0.24061(17)
C37 C -0.3696(2) 0.72557(14) 0.26407(17)
H13 H -0.3497 0.7066 0.2504
C38 C -0.3449(2) 0.74039(14) 0.30754(16)
C39 C -0.2884(2) 0.72625(13) 0.33050(16)
N4 N -0.26314(18) 0.69836(11) 0.31011(14)
C40 C -0.2092(2) 0.68721(13) 0.33059(16)
C41 C -0.1825(2) 0.65606(13) 0.31202(16)
H14 H -0.2034 0.6422 0.2885
C42 C -0.1256(2) 0.64688(13) 0.32945(16)
C43 C -0.0319(2) 0.62884(13) 0.29629(15)
C44 C -0.0108(2) 0.62224(14) 0.25204(17)
H15 H -0.0328 0.6081 0.2295
C45 C 0.0455(2) 0.63750(14) 0.24140(16)
N5 N 0.06894(18) 0.62925(12) 0.19948(14)
C46 C 0.1230(2) 0.64280(13) 0.19162(16)
C47 C 0.1522(2) 0.63167(14) 0.14835(16)
C48 C 0.1246(2) 0.60563(14) 0.11718(17)
H16 H 0.0863 0.5971 0.1230
C49 C 0.1531(2) 0.59241(14) 0.07796(17)
C50 C 0.2103(3) 0.60618(15) 0.07020(18)
H17 H 0.2304 0.5976 0.0442
C51 C 0.2380(2) 0.63190(14) 0.09943(17)
C52 C 0.2981(2) 0.64599(15) 0.08830(18)
O5 O 0.3232(2) 0.63782(14) 0.05257(15)
O6 O 0.3801(2) 0.68332(14) 0.11625(16)
C53 C 0.3300(2) 0.67305(16) 0.12384(18)
C54 C 0.2976(2) 0.68459(14) 0.16622(17)
C55 C 0.3261(2) 0.70825(16) 0.19929(18)
H18 H 0.3639 0.7174 0.1933
C56 C 0.2995(2) 0.71861(15) 0.24133(17)
C57 C 0.2423(2) 0.70510(15) 0.24782(17)
H19 H 0.2232 0.7120 0.2751
C58 C 0.2122(2) 0.68148(14) 0.21512(16)
C59 C 0.1535(2) 0.66677(14) 0.22518(16)
N6 N 0.13111(18) 0.67495(12) 0.26696(14)
C60 C 0.0780(2) 0.65992(14) 0.27636(16)
C61 C 0.0543(2) 0.66602(14) 0.32144(16)
H20 H 0.0750 0.6806 0.3443
C62 C 0.0011(2) 0.65056(13) 0.33135(16)
C63 C -0.1086(2) 0.45789(13) 0.53826(17)
C64 C -0.0747(2) 0.47985(13) 0.57350(16)
C65 C -0.3504(2) 0.78309(14) 0.37556(18)
C66 C -0.3736(2) 0.76943(14) 0.32877(16)
C67 C 0.2097(2) 0.64518(13) 0.14033(16)
C68 C 0.2401(2) 0.67070(13) 0.17336(16)
C69 C -0.2225(3) 0.39520(17) 0.4338(2)
C70 C -0.2708(6) 0.4200(3) 0.4115(7)
H21 H -0.2934 0.4301 0.4364
H22 H -0.2976 0.4066 0.3894
H23 H -0.2521 0.4389 0.3944
C71 C -0.1853(4) 0.3795(4) 0.3956(4)
H24 H -0.1553 0.3637 0.4105
H25 H -0.1658 0.3985 0.3793
H26 H -0.2113 0.3663 0.3728
C72 C -0.2536(8) 0.3642(4) 0.4590(4)
H27 H -0.2780 0.3737 0.4832
H28 H -0.2234 0.3485 0.4739
H29 H -0.2787 0.3510 0.4356
C73 C 0.0204(3) 0.54906(16) 0.68122(18)
C74 C -0.0238(5) 0.5578(4) 0.7187(4)
H30 H -0.0044 0.5730 0.7430
H31 H -0.0366 0.5360 0.7332
H32 H -0.0583 0.5700 0.7035
C75 C 0.0757(4) 0.5289(3) 0.7045(4)
H33 H 0.1031 0.5233 0.6802
H34 H 0.0627 0.5071 0.7189
H35 H 0.0960 0.5437 0.7288
C76 C 0.0449(6) 0.5833(3) 0.6597(3)
H36 H 0.0724 0.5771 0.6358
H37 H 0.0658 0.5972 0.6848
H38 H 0.0120 0.5971 0.6449
C77 C -0.2913(3) 0.81218(19) 0.5237(2)
C78 C -0.2304(4) 0.8307(3) 0.5265(3)
H39 H -0.2179 0.8356 0.5597
H40 H -0.2336 0.8528 0.5088
H41 H -0.2012 0.8154 0.5129
C79 C -0.2883(4) 0.7766(2) 0.5513(2)
H42 H -0.3276 0.7656 0.5493
H43 H -0.2753 0.7809 0.5845
H44 H -0.2600 0.7608 0.5373
C80 C -0.3378(4) 0.8365(2) 0.5474(3)
H45 H -0.3768 0.8252 0.5451
H46 H -0.3404 0.8592 0.5311
H47 H -0.3249 0.8403 0.5808
C81 C -0.4494(2) 0.71998(15) 0.19447(18)
C82 C -0.4000(3) 0.7161(2) 0.1587(2)
H48 H -0.3666 0.7027 0.1736
H49 H -0.3862 0.7395 0.1499
H50 H -0.4162 0.7038 0.1304
C83 C -0.5016(2) 0.74133(17) 0.1700(2)
H51 H -0.5169 0.7291 0.1412
H52 H -0.4876 0.7647 0.1617
H53 H -0.5334 0.7436 0.1916
C84 C -0.4719(3) 0.68273(17) 0.2077(2)
H54 H -0.4391 0.6693 0.2234
H55 H -0.4868 0.6704 0.1789
H56 H -0.5039 0.6851 0.2291
C85 C 0.1245(3) 0.56221(15) 0.04658(19)
C86 C 0.1564(4) 0.52704(18) 0.0610(3)
H57 H 0.1391 0.5078 0.0416
H58 H 0.1515 0.5222 0.0945
H59 H 0.1988 0.5291 0.0561
C87 C 0.1314(4) 0.5698(2) -0.0070(2)
H60 H 0.1132 0.5507 -0.0262
H61 H 0.1736 0.5714 -0.0126
H62 H 0.1118 0.5920 -0.0159
C88 C 0.0563(3) 0.5580(2) 0.0528(3)
H63 H 0.0403 0.5390 0.0324
H64 H 0.0358 0.5800 0.0440
H65 H 0.0502 0.5524 0.0858
C89 C 0.3311(3) 0.74265(18) 0.27962(19)
C90 C 0.3357(6) 0.7258(4) 0.3283(3)
H66 H 0.2974 0.7155 0.3347
H67 H 0.3467 0.7437 0.3522
H68 H 0.3660 0.7073 0.3294
C91 C 0.3886(4) 0.7597(3) 0.2662(3)
H69 H 0.3825 0.7702 0.2347
H70 H 0.4198 0.7418 0.2659
H71 H 0.4006 0.7779 0.2893
C92 C 0.2872(5) 0.7771(3) 0.2840(4)
H72 H 0.2827 0.7893 0.2535
H73 H 0.3046 0.7932 0.3082
H74 H 0.2482 0.7693 0.2930
C93 C 0.43757(19) 0.62731(12) 0.66702(16)
H75 H 0.4202 0.6159 0.6947
C94 C 0.40075(19) 0.65890(13) 0.64690(16)
C95 C 0.3470(2) 0.67013(13) 0.66274(17)
H76 H 0.3315 0.6594 0.6895
C96 C 0.3153(2) 0.69814(13) 0.63806(16)
N7 N 0.26038(18) 0.70799(11) 0.65204(14)
C97 C 0.2305(2) 0.73260(13) 0.62596(16)
C98 C 0.1706(2) 0.74293(14) 0.63961(18)
C99 C 0.1466(2) 0.72669(15) 0.6799(2)
H77 H 0.1695 0.7096 0.6975
C100 C 0.0895(2) 0.73570(16) 0.6939(2)
C101 C 0.0578(2) 0.76237(16) 0.6683(2)
H78 H 0.0204 0.7696 0.6782
C102 C 0.0801(2) 0.77879(15) 0.62809(19)
C103 C 0.0436(2) 0.80644(15) 0.6015(2)
O7 O -0.0031(2) 0.81827(14) 0.61574(18)
O8 O 0.03530(19) 0.84288(13) 0.53108(16)
C104 C 0.0665(2) 0.82120(15) 0.5542(2)
C105 C 0.1259(2) 0.80856(14) 0.53959(18)
C106 C 0.1480(2) 0.82112(16) 0.49706(18)
H79 H 0.1239 0.8365 0.4775
C107 C 0.2048(2) 0.81158(15) 0.48270(17)
C108 C 0.2389(2) 0.78888(14) 0.51303(17)
H80 H 0.2777 0.7829 0.5050
C109 C 0.2181(2) 0.77441(13) 0.55534(16)
C110 C 0.2547(2) 0.74882(13) 0.58471(16)
N8 N 0.30901(17) 0.74060(11) 0.57146(14)
C111 C 0.3405(2) 0.71530(12) 0.59763(15)
C112 C 0.3973(2) 0.70369(13) 0.58269(17)
H81 H 0.4146 0.7149 0.5571
C113 C 0.4260(2) 0.67572(13) 0.60652(16)
C114 C 0.4844(2) 0.65824(12) 0.59324(16)
H82 H 0.5019 0.6698 0.5657
C115 C 0.4667(2) 0.61885(12) 0.58358(16)
C116 C 0.4690(2) 0.60032(13) 0.54133(17)
H83 H 0.4829 0.6113 0.5142
C117 C 0.4499(2) 0.56400(13) 0.53963(16)
N9 N 0.4475(2) 0.54585(11) 0.49688(15)
C118 C 0.4304(2) 0.51173(13) 0.49805(18)
C119 C 0.4208(2) 0.49196(14) 0.45247(18)
C120 C 0.4257(3) 0.50890(15) 0.40834(18)
H84 H 0.4379 0.5328 0.4081
C121 C 0.4131(3) 0.49133(16) 0.36438(18)
C122 C 0.3944(3) 0.45586(15) 0.3666(2)
H85 H 0.3857 0.4435 0.3378
C123 C 0.3880(3) 0.43824(15) 0.40916(19)
C124 C 0.3637(3) 0.40113(15) 0.4094(2)
O9 O 0.3377(2) 0.38767(13) 0.37412(19)
O10 O 0.3710(3) 0.34702(12) 0.45393(18)
C125 C 0.3745(3) 0.37951(16) 0.4558(2)
C126 C 0.3872(3) 0.39966(15) 0.5010(2)
C127 C 0.3882(3) 0.38151(17) 0.5449(2)
H86 H 0.3815 0.3569 0.5449
C128 C 0.3991(3) 0.39926(16) 0.5889(2)
C129 C 0.4078(3) 0.43637(16) 0.5870(2)
H87 H 0.4135 0.4491 0.6158
C130 C 0.4083(3) 0.45495(14) 0.54325(19)
C131 C 0.4187(2) 0.49382(14) 0.54176(18)
N10 N 0.4180(2) 0.51161(12) 0.58289(16)
C132 C 0.4316(2) 0.54682(12) 0.58208(17)
C133 C 0.4266(2) 0.56714(13) 0.62450(17)
H88 H 0.4125 0.5566 0.6519
C134 C 0.4428(2) 0.60224(12) 0.62487(16)
C135 C 0.5018(2) 0.64059(14) 0.67816(16)
C136 C 0.5349(2) 0.63443(14) 0.72073(17)
H89 H 0.5190 0.6213 0.7453
C137 C 0.5942(2) 0.64867(14) 0.72637(16)
N11 N 0.62858(18) 0.64105(12) 0.76745(15)
C138 C 0.6822(2) 0.65696(14) 0.77290(17)
C139 C 0.7217(2) 0.64767(15) 0.81544(17)
C140 C 0.7077(2) 0.61846(16) 0.84411(19)
H90 H 0.6724 0.6056 0.8361
C141 C 0.7447(2) 0.60796(16) 0.88426(19)
C142 C 0.7952(2) 0.62929(17) 0.8967(2)
H91 H 0.8197 0.6239 0.9243
C143 C 0.8099(2) 0.65861(16) 0.86846(18)
C144 C 0.8632(2) 0.68071(17) 0.88324(18)
O11 O 0.8914(2) 0.67738(15) 0.92256(15)
O12 O 0.93082(17) 0.72522(13) 0.85804(15)
C145 C 0.8836(2) 0.70941(15) 0.84843(18)
C146 C 0.8449(2) 0.71634(15) 0.80342(17)
C147 C 0.8612(2) 0.74310(15) 0.77216(17)
H92 H 0.8962 0.7563 0.7799
C148 C 0.8265(2) 0.75078(14) 0.72917(16)
C149 C 0.7745(2) 0.72999(14) 0.71929(17)
H93 H 0.7509 0.7342 0.6908
C150 C 0.7565(2) 0.70308(14) 0.75057(17)
C151 C 0.7013(2) 0.68267(14) 0.73904(17)
N12 N 0.66934(17) 0.68846(12) 0.69755(14)
C152 C 0.6165(2) 0.67095(14) 0.68995(16)
C153 C 0.5821(2) 0.67462(13) 0.64479(16)
H94 H 0.5973 0.6877 0.6198
C154 C 0.5267(2) 0.65860(13) 0.63890(16)
C155 C 0.1370(2) 0.76882(13) 0.61232(17)
C156 C 0.1603(2) 0.78428(14) 0.56956(17)
C157 C 0.4016(2) 0.45583(14) 0.45412(18)
C158 C 0.3982(3) 0.43682(14) 0.49949(19)
C159 C 0.7743(2) 0.66728(14) 0.82594(17)
C160 C 0.7920(2) 0.69591(14) 0.79371(17)
C161 C 0.0630(3) 0.71644(17) 0.7367(2)
C162 C 0.0521(5) 0.7431(3) 0.7765(3)
H95 H 0.0282 0.7627 0.7634
H96 H 0.0902 0.7520 0.7903
H97 H 0.0310 0.7314 0.8012
C163 C 0.0003(4) 0.7002(3) 0.7180(4)
H98 H -0.0259 0.7190 0.7055
H99 H -0.0179 0.6884 0.7441
H100 H 0.0062 0.6831 0.6928
C164 C 0.1007(4) 0.6853(3) 0.7563(4)
H101 H 0.1070 0.6687 0.7306
H102 H 0.0800 0.6734 0.7809
H103 H 0.1391 0.6940 0.7697
C165 C 0.2265(3) 0.82462(17) 0.43429(19)
C166 C 0.1903(3) 0.8045(2) 0.3933(2)
H104 H 0.1479 0.8090 0.3952
H105 H 0.1980 0.7793 0.3962
H106 H 0.2025 0.8128 0.3627
C167 C 0.2153(4) 0.86498(18) 0.4286(3)
H107 H 0.2376 0.8776 0.4542
H108 H 0.1729 0.8699 0.4298
H109 H 0.2285 0.8728 0.3981
C168 C 0.2936(3) 0.8172(2) 0.4302(2)
H110 H 0.3168 0.8295 0.4557
H111 H 0.3053 0.8256 0.3995
H112 H 0.3009 0.7919 0.4328
C169 C 0.4206(3) 0.50942(18) 0.3160(2)
C170 C 0.3698(4) 0.4991(3) 0.2785(3)
H113 H 0.3760 0.5108 0.2485
H114 H 0.3316 0.5063 0.2895
H115 H 0.3699 0.4736 0.2738
C171 C 0.4217(5) 0.55031(19) 0.3202(3)
H116 H 0.4269 0.5606 0.2891
H117 H 0.4547 0.5574 0.3424
H118 H 0.3842 0.5585 0.3317
C172 C 0.4819(4) 0.4980(3) 0.2976(3)
H119 H 0.4872 0.5093 0.2672
H120 H 0.4826 0.4724 0.2936
H121 H 0.5141 0.5050 0.3206
C173 C 0.3989(4) 0.37911(19) 0.6363(3)
C174 C 0.3332(6) 0.3730(7) 0.6466(5)
H122 H 0.3130 0.3958 0.6483
H123 H 0.3315 0.3607 0.6768
H124 H 0.3135 0.3589 0.6212
C175 C 0.4274(7) 0.3996(3) 0.6786(3)
H125 H 0.4068 0.4220 0.6815
H126 H 0.4693 0.4039 0.6738
H127 H 0.4244 0.3858 0.7075
C176 C 0.4328(14) 0.3444(4) 0.6330(6)
H128 H 0.4151 0.3305 0.6065
H129 H 0.4305 0.3311 0.6625
H130 H 0.4744 0.3493 0.6279
C177 C 0.7282(3) 0.57495(17) 0.9130(2)
C178 C 0.6691(3) 0.5822(2) 0.9375(3)
H131 H 0.6585 0.5614 0.9555
H132 H 0.6372 0.5875 0.9134
H133 H 0.6749 0.6023 0.9590
C179 C 0.7208(4) 0.54237(19) 0.8796(3)
H134 H 0.7102 0.5218 0.8980
H135 H 0.7581 0.5379 0.8652
H136 H 0.6893 0.5470 0.8548
C180 C 0.7778(3) 0.5658(2) 0.9522(3)
H137 H 0.7661 0.5449 0.9696
H138 H 0.7834 0.5856 0.9741
H139 H 0.8149 0.5610 0.9376
C181 C 0.8430(2) 0.77975(14) 0.69360(18)
C182 C 0.8599(3) 0.76197(18) 0.64666(19)
H140 H 0.8704 0.7801 0.6242
H141 H 0.8260 0.7484 0.6330
H142 H 0.8938 0.7462 0.6534
C183 C 0.7888(2) 0.80478(17) 0.6836(2)
H143 H 0.7991 0.8231 0.6613
H144 H 0.7785 0.8157 0.7133
H145 H 0.7549 0.7913 0.6699
C184 C 0.8964(3) 0.80264(18) 0.7133(2)
H146 H 0.9052 0.8205 0.6899
H147 H 0.9312 0.7876 0.7198
H148 H 0.8863 0.8142 0.7426
Cl1 Cl 1.09829(11) 0.59669(7) 0.82454(8)
Cl2 Cl 1.03099(9) 0.65456(6) 0.88445(8)
C185 C 1.0487(2) 0.58388(14) 0.86638(16)
C186 C 1.0201(2) 0.60933(11) 0.89335(18)
C187 C 0.9804(2) 0.59847(16) 0.92713(17)
H149 H 0.9612 0.6155 0.9452
C188 C 0.9694(2) 0.56217(18) 0.93393(19)
H150 H 0.9429 0.5549 0.9565
C189 C 0.9981(3) 0.53673(12) 0.9070(2)
H151 H 0.9908 0.5124 0.9115
C190 C 1.0378(3) 0.54758(12) 0.8732(2)
H152 H 1.0570 0.5306 0.8551
Cl3 Cl 0.43566(8) 0.67903(5) 0.46137(6)
Cl4 Cl 0.37743(15) 0.61391(10) 0.4055(2)
C191 C 0.35878(15) 0.67851(12) 0.44542(17)
C192 C 0.3330(2) 0.65019(11) 0.4187(2)
C193 C 0.2713(2) 0.65029(13) 0.4052(2)
H153 H 0.2541 0.6313 0.3873
C194 C 0.23544(15) 0.67871(14) 0.41849(19)
H154 H 0.1942 0.6788 0.4095
C195 C 0.26121(18) 0.70703(11) 0.44524(16)
H155 H 0.2372 0.7260 0.4541
C196 C 0.32288(19) 0.70693(10) 0.45871(14)
H156 H 0.3401 0.7259 0.4766
Cl5 Cl 0.57772(12) 0.71898(7) 0.48539(11)
Cl6 Cl 0.49829(10) 0.74711(6) 0.39319(7)
C197 C 0.5262(2) 0.75244(12) 0.48970(16)
C198 C 0.4914(2) 0.76506(14) 0.44961(13)
C199 C 0.4487(2) 0.79180(15) 0.45494(17)
H157 H 0.4254 0.8002 0.4281
C200 C 0.4407(2) 0.80594(15) 0.5004(2)
H158 H 0.4121 0.8238 0.5039
C201 C 0.4755(3) 0.79332(16) 0.54046(15)
H159 H 0.4701 0.8028 0.5708
C202 C 0.5182(2) 0.76657(15) 0.53513(13)
H160 H 0.5415 0.7581 0.5620
Cl7 Cl -0.24247(13) 0.68530(7) 0.60537(9)
Cl8 Cl -0.11146(15) 0.65055(12) 0.61226(11)
C203 C -0.2101(3) 0.66917(18) 0.55471(17)
C204 C -0.1533(3) 0.6531(2) 0.55794(18)
C205 C -0.1305(3) 0.6381(2) 0.5171(2)
H161 H -0.0925 0.6274 0.5193
C206 C -0.1644(3) 0.6392(2) 0.47311(19)
H162 H -0.1492 0.6292 0.4458
C207 C -0.2212(3) 0.6553(2) 0.46987(16)
H163 H -0.2439 0.6561 0.4404
C208 C -0.2440(2) 0.6703(2) 0.5107(2)
H164 H -0.2820 0.6810 0.5085
Cl9 Cl 0.0947(3) 0.6796(2) 0.4974(3)
Cl10 Cl 0.07993(18) 0.74180(11) 0.42494(14)
C209 C 0.0393(5) 0.7113(3) 0.5041(4)
C210 C 0.0319(3) 0.7384(2) 0.4698(3)
C211 C -0.0152(3) 0.76284(17) 0.4719(2)
H165 H -0.0201 0.7810 0.4490
C212 C -0.0549(4) 0.7602(2) 0.5083(4)
H166 H -0.0864 0.7766 0.5097
C213 C -0.0475(6) 0.7331(3) 0.5426(4)
H167 H -0.0741 0.7314 0.5670
C214 C -0.0004(7) 0.7087(3) 0.5405(4)
H168 H 0.0046 0.6905 0.5635
Cl11 Cl 0.26805(17) 0.07106(9) 0.42166(10)
Cl12 Cl 0.14712(18) 0.02611(10) 0.43033(12)
C215 C 0.2607(4) 0.02746(15) 0.4005(3)
C216 C 0.2080(3) 0.00803(19) 0.4056(2)
C217 C 0.2031(4) -0.02702(19) 0.3887(3)
H169 H 0.1679 -0.0400 0.3921
C218 C 0.2511(5) -0.04264(16) 0.3666(3)
H170 H 0.2478 -0.0661 0.3553
C219 C 0.3038(4) -0.0232(2) 0.3615(3)
H171 H 0.3359 -0.0337 0.3468
C220 C 0.3086(3) 0.0118(2) 0.3785(3)
H172 H 0.3439 0.0248 0.3750
Cl13 Cl 0.36003(19) 0.59318(13) 0.18664(15)
Cl14 Cl 0.3137(3) 0.62502(13) 0.2820(2)
C221 C 0.2920(3) 0.5777(2) 0.2077(3)
C222 C 0.2720(4) 0.5944(2) 0.2484(3)
C223 C 0.2162(4) 0.5852(3) 0.2649(3)
H173 H 0.2028 0.5963 0.2921
C224 C 0.1804(4) 0.5594(3) 0.2406(4)
H174 H 0.1431 0.5533 0.2516
C225 C 0.2004(5) 0.5427(2) 0.1999(4)
H175 H 0.1765 0.5255 0.1837
C226 C 0.2562(5) 0.5519(2) 0.1834(2)
H176 H 0.2696 0.5408 0.1562
Cl15 Cl 0.87695(9) 0.55431(6) 0.82825(7)
Cl16 Cl 0.92273(7) 0.62940(5) 0.79444(6)
C227 C 0.83869(19) 0.57646(12) 0.78103(14)
C228 C 0.86026(16) 0.60921(12) 0.76558(14)
C229 C 0.8311(2) 0.62650(10) 0.72613(15)
H177 H 0.8455 0.6484 0.7158
C230 C 0.7804(2) 0.61103(13) 0.70213(14)
H178 H 0.7609 0.6226 0.6757
C231 C 0.75880(18) 0.57827(13) 0.71758(17)
H179 H 0.7249 0.5679 0.7015
C232 C 0.7880(2) 0.56099(11) 0.75703(18)
H180 H 0.7735 0.5391 0.7674
Cl17 Cl 0.4131(2) 1.01945(11) 0.47659(17)
Cl18 Cl 0.31016(18) 0.96538(11) 0.50266(16)
C233 C 0.4168(4) 0.97497(14) 0.4624(3)
C234 C 0.3712(3) 0.95128(18) 0.4730(3)
C235 C 0.3761(4) 0.91508(17) 0.4620(3)
H181 H 0.3455 0.8992 0.4691
C236 C 0.4266(4) 0.90257(15) 0.4402(3)
H182 H 0.4299 0.8783 0.4328
C237 C 0.4723(4) 0.9263(2) 0.4296(3)
H183 H 0.5061 0.9179 0.4150
C238 C 0.4674(3) 0.9625(2) 0.4406(3)
H184 H 0.4979 0.9783 0.4335
Cl19 Cl 0.5720(5) 0.4898(2) 0.8629(4)
Cl20 Cl 0.4442(5) 0.4722(4) 0.8155(5)
C239 C 0.5343(5) 0.4520(3) 0.8797(4)
C240 C 0.4775(5) 0.4446(3) 0.8573(4)
C241 C 0.4466(4) 0.4138(3) 0.8694(4)
H185 H 0.4086 0.4089 0.8545
C242 C 0.4726(6) 0.3903(2) 0.9039(5)
H186 H 0.4519 0.3697 0.9120
C243 C 0.5294(6) 0.3977(4) 0.9263(4)
H187 H 0.5467 0.3820 0.9493
C244 C 0.5602(5) 0.4285(4) 0.9142(4)
H188 H 0.5982 0.4335 0.9292
Cl21 Cl 0.3344(7) 0.4565(3) 0.7445(6)
Cl22 Cl 0.3162(3) 0.38127(16) 0.7972(3)
C245 C 0.2642(6) 0.4430(4) 0.7587(6)
C246 C 0.2569(5) 0.4120(3) 0.7854(5)
C247 C 0.2042(6) 0.4067(3) 0.8089(4)
H189 H 0.1994 0.3859 0.8267
C248 C 0.1588(4) 0.4325(4) 0.8056(4)
H190 H 0.1235 0.4290 0.8213
C249 C 0.1661(6) 0.4636(3) 0.7789(5)
H191 H 0.1357 0.4808 0.7767
C250 C 0.2188(8) 0.4688(3) 0.7555(6)
H192 H 0.2237 0.4896 0.7376
Cl23 Cl 0.2503(5) -0.0636(3) 0.2186(3)
Cl24 Cl 0.2487(3) -0.1340(2) 0.2745(3)
C251 C 0.3147(5) -0.0778(3) 0.2513(3)
C252 C 0.3149(3) -0.1106(2) 0.2752(3)
C253 C 0.3669(4) -0.1222(2) 0.3017(3)
H193 H 0.3670 -0.1441 0.3177
C254 C 0.4187(4) -0.1010(3) 0.3042(4)
H194 H 0.4535 -0.1088 0.3219
C255 C 0.4185(5) -0.0682(3) 0.2803(5)
H195 H 0.4531 -0.0541 0.2820
C256 C 0.3665(6) -0.0566(2) 0.2538(4)
H196 H 0.3663 -0.0347 0.2378
Cl25 Cl -0.2280(2) 0.4774(2) 0.6460(3)
Cl26 Cl -0.2909(3) 0.4539(2) 0.5512(4)
C257 C -0.2275(5) 0.5058(3) 0.5992(3)
C258 C -0.2552(4) 0.4945(3) 0.5552(4)
C259 C -0.2541(5) 0.5164(4) 0.5148(3)
H197 H -0.2726 0.5089 0.4854
C260 C -0.2254(6) 0.5496(4) 0.5183(5)
H198 H -0.2247 0.5643 0.4913
C261 C -0.1978(5) 0.5608(3) 0.5622(7)
H199 H -0.1786 0.5830 0.5646
C262 C -0.1988(5) 0.5389(3) 0.6026(5)
H200 H -0.1803 0.5465 0.6320
C263? C 0.3003(7) 0.7483(5) 0.3249(5)
H201? H 0.2849 0.7259 0.3357
H202? H 0.2675 0.7649 0.3190
H203? H 0.3287 0.7579 0.3494
C264? C 0.3575(8) 0.7751(4) 0.2573(6)
H204? H 0.3764 0.7682 0.2287
H205? H 0.3871 0.7857 0.2799
H206? H 0.3259 0.7921 0.2491
C265? C 0.3891(7) 0.7189(5) 0.2966(7)
H207? H 0.3761 0.6971 0.3111
H208? H 0.4146 0.7321 0.3197
H209? H 0.4113 0.7132 0.2691
C266? C -0.1930(17) 0.3606(7) 0.4177(14)
H210? H -0.2203 0.3484 0.3949
H211? H -0.1838 0.3455 0.4452
H212? H -0.1563 0.3663 0.4029
C267? C -0.2837(10) 0.3873(9) 0.4539(11)
H213? H -0.3024 0.4094 0.4625
H214? H -0.2777 0.3724 0.4820
H215? H -0.3094 0.3751 0.4299
C268? C -0.2387(15) 0.4172(7) 0.3872(8)
H216? H -0.2576 0.4393 0.3955
H217? H -0.2661 0.4037 0.3659
H218? H -0.2025 0.4223 0.3714
C269? C 0.0852(7) 0.5543(8) 0.6702(10)
H219? H 0.1051 0.5695 0.6943
H220? H 0.0866 0.5653 0.6390
H221? H 0.1052 0.5315 0.6702
C270? C -0.0148(13) 0.5848(6) 0.6762(11)
H222? H -0.0560 0.5810 0.6837
H223? H -0.0141 0.5935 0.6437
H224? H 0.0038 0.6022 0.6981
C271? C 0.0147(14) 0.5374(8) 0.7337(6)
H225? H -0.0272 0.5340 0.7391
H226? H 0.0315 0.5557 0.7550
H227? H 0.0363 0.5154 0.7396
C272? C 0.0604(13) 0.6766(4) 0.7293(11)
H228? H 0.0984 0.6683 0.7189
H229? H 0.0286 0.6709 0.7053
H230? H 0.0526 0.6650 0.7592
C273? C 0.1122(11) 0.7235(8) 0.7794(9)
H231? H 0.1140 0.7487 0.7865
H232? H 0.1510 0.7155 0.7703
H233? H 0.1016 0.7105 0.8075
C274? C 0.0055(9) 0.7326(7) 0.7544(10)
H234? H 0.0114 0.7578 0.7602
H235? H -0.0039 0.7211 0.7839
H236? H -0.0274 0.7292 0.7304
Cl27? Cl 0.0493(6) 0.6779(4) 0.5711(5)
Cl28? Cl 0.1006(6) 0.6993(4) 0.4680(5)
C275? C 0.0162(14) 0.7093(10) 0.5335(10)
C276? C 0.0406(16) 0.7207(10) 0.4919(11)
C277? C 0.0133(16) 0.7492(9) 0.4663(12)
H237? H 0.0282 0.7571 0.4377
C278? C -0.0366(16) 0.7656(10) 0.4842(12)
H238? H -0.0554 0.7843 0.4668
C279? C -0.0594(16) 0.7550(9) 0.5274(12)
H239? H -0.0887 0.7686 0.5414
C280? C -0.0373(14) 0.7237(10) 0.5489(12)
H240? H -0.0575 0.7126 0.5730
Cl29? Cl 0.3226(6) 0.5514(3) 0.1476(4)
Cl30? Cl 0.3769(5) 0.6128(3) 0.2151(5)
C281? C 0.2791(9) 0.5729(7) 0.1884(8)
C282? C 0.3076(9) 0.5944(8) 0.2244(9)
C283? C 0.2742(12) 0.6075(9) 0.2615(10)
H241? H 0.2880 0.6273 0.2794
C284? C 0.2197(14) 0.5908(11) 0.2716(13)
H242? H 0.1977 0.5979 0.2972
C285? C 0.2007(14) 0.5626(10) 0.2403(11)
H243? H 0.1663 0.5500 0.2476
C286? C 0.2295(12) 0.5519(9) 0.1989(11)
H244? H 0.2164 0.5324 0.1800
Cl31? Cl 0.3158(12) -0.1443(7) 0.3114(9)
Cl32? Cl 0.2324(8) -0.0999(7) 0.2385(8)
C287? C 0.3455(12) -0.1105(9) 0.2786(14)
C288? C 0.3092(10) -0.0923(9) 0.2435(13)
C289? C 0.3279(14) -0.0587(9) 0.2272(14)
H245? H 0.3032 -0.0457 0.2050
C290? C 0.3836(17) -0.0450(10) 0.2448(17)
H246? H 0.3968 -0.0232 0.2332
C291? C 0.4193(17) -0.0632(12) 0.2792(19)
H247? H 0.4581 -0.0551 0.2884
C292? C 0.3969(16) -0.0940(11) 0.3001(15)
H248? H 0.4161 -0.1034 0.3282
Cl33? Cl -0.2754(7) 0.5028(4) 0.4898(4)
Cl34? Cl -0.2492(8) 0.4625(4) 0.6144(6)
C293? C -0.245(3) 0.5182(8) 0.5455(9)
C294? C -0.229(3) 0.5029(10) 0.5898(11)
C295? C -0.200(3) 0.5253(11) 0.6255(10)
H249? H -0.2009 0.5192 0.6579
C296? C -0.170(2) 0.5559(11) 0.6129(13)
H250? H -0.1474 0.5694 0.6358
C297? C -0.175(2) 0.5660(13) 0.5637(14)
H251? H -0.1455 0.5783 0.5484
C298? C -0.230(2) 0.5552(7) 0.5413(13)
H252? H -0.2556 0.5712 0.5243
C299? C 0.0466(6) 0.3929(4) 0.8725(4)
C300? C 0.0914(8) 0.3760(5) 0.9153(7)
C301? C 0.0832(13) 0.3835(8) 0.9544(10)
C302? C -0.0281(7) 0.4648(4) 0.8067(5)
C303? C 0.0287(6) 0.4601(4) 0.8332(5)
C304? C -0.3280(10) 0.5051(6) 0.3406(8)
C305? C -0.2622(11) 0.5193(7) 0.3777(8)
C306? C -0.2045(9) 0.4965(6) 0.3609(7)
loop_
_geom_bond_atom_site_label_1
_geom_bond_atom_site_label_2
_geom_bond_site_symmetry_1
_geom_bond_site_symmetry_2
C1 H1 1_555 1_555
C2 C1 1_555 1_555
C3 C2 1_555 1_555
H2 C3 1_555 1_555
C4 C3 1_555 1_555
N1 C4 1_555 1_555
C5 N1 1_555 1_555
C6 C5 1_555 1_555
C7 C6 1_555 1_555
H3 C7 1_555 1_555
C8 C7 1_555 1_555
C9 C8 1_555 1_555
H4 C9 1_555 1_555
C10 C9 1_555 1_555
C11 C10 1_555 1_555
O1 C11 1_555 1_555
O2 C12 1_555 1_555
C12 C11 1_555 1_555
C13 C12 1_555 1_555
C14 C13 1_555 1_555
H5 C14 1_555 1_555
C15 C14 1_555 1_555
C16 C15 1_555 1_555
H6 C16 1_555 1_555
C17 C16 1_555 1_555
C18 C5 1_555 1_555
N2 C18 1_555 1_555
C19 C4 1_555 1_555
C20 C19 1_555 1_555
H7 C20 1_555 1_555
C21 C2 1_555 1_555
C22 C21 1_555 1_555
H8 C22 1_555 1_555
C23 C22 1_555 1_555
C24 C23 1_555 1_555
H9 C24 1_555 1_555
C25 C24 1_555 1_555
N3 C25 1_555 1_555
C26 N3 1_555 1_555
C27 C26 1_555 1_555
C28 C27 1_555 1_555
H10 C28 1_555 1_555
C29 C28 1_555 1_555
C30 C29 1_555 1_555
H11 C30 1_555 1_555
C31 C30 1_555 1_555
C32 C31 1_555 1_555
O3 C32 1_555 1_555
O4 C33 1_555 1_555
C33 C32 1_555 1_555
C34 C33 1_555 1_555
C35 C34 1_555 1_555
H12 C35 1_555 1_555
C36 C35 1_555 1_555
C37 C36 1_555 1_555
H13 C37 1_555 1_555
C38 C37 1_555 1_555
C39 C26 1_555 1_555
N4 C39 1_555 1_555
C40 C25 1_555 1_555
C41 C40 1_555 1_555
H14 C41 1_555 1_555
C42 C1 1_555 1_555
C43 C1 1_555 1_555
C44 C43 1_555 1_555
H15 C44 1_555 1_555
C45 C44 1_555 1_555
N5 C45 1_555 1_555
C46 N5 1_555 1_555
C47 C46 1_555 1_555
C48 C47 1_555 1_555
H16 C48 1_555 1_555
C49 C48 1_555 1_555
C50 C49 1_555 1_555
H17 C50 1_555 1_555
C51 C50 1_555 1_555
C52 C51 1_555 1_555
O5 C52 1_555 1_555
O6 C53 1_555 1_555
C53 C52 1_555 1_555
C54 C53 1_555 1_555
C55 C54 1_555 1_555
H18 C55 1_555 1_555
C56 C55 1_555 1_555
C57 C56 1_555 1_555
H19 C57 1_555 1_555
C58 C57 1_555 1_555
C59 C46 1_555 1_555
N6 C59 1_555 1_555
C60 C45 1_555 1_555
C61 C60 1_555 1_555
H20 C61 1_555 1_555
C62 C22 1_555 1_555
C63 C6 1_555 1_555
C64 C13 1_555 1_555
C65 C27 1_555 1_555
C66 C34 1_555 1_555
C67 C47 1_555 1_555
C68 C54 1_555 1_555
C69 C8 1_555 1_555
C70 C69 1_555 1_555
H21 C70 1_555 1_555
H22 C70 1_555 1_555
H23 C70 1_555 1_555
C71 C69 1_555 1_555
H24 C71 1_555 1_555
H25 C71 1_555 1_555
H26 C71 1_555 1_555
C72 C69 1_555 1_555
H27 C72 1_555 1_555
H28 C72 1_555 1_555
H29 C72 1_555 1_555
C73 C15 1_555 1_555
C74 C73 1_555 1_555
H30 C74 1_555 1_555
H31 C74 1_555 1_555
H32 C74 1_555 1_555
C75 C73 1_555 1_555
H33 C75 1_555 1_555
H34 C75 1_555 1_555
H35 C75 1_555 1_555
C76 C73 1_555 1_555
H36 C76 1_555 1_555
H37 C76 1_555 1_555
H38 C76 1_555 1_555
C77 C29 1_555 1_555
C78 C77 1_555 1_555
H39 C78 1_555 1_555
H40 C78 1_555 1_555
H41 C78 1_555 1_555
C79 C77 1_555 1_555
H42 C79 1_555 1_555
H43 C79 1_555 1_555
H44 C79 1_555 1_555
C80 C77 1_555 1_555
H45 C80 1_555 1_555
H46 C80 1_555 1_555
H47 C80 1_555 1_555
C81 C36 1_555 1_555
C82 C81 1_555 1_555
H48 C82 1_555 1_555
H49 C82 1_555 1_555
H50 C82 1_555 1_555
C83 C81 1_555 1_555
H51 C83 1_555 1_555
H52 C83 1_555 1_555
H53 C83 1_555 1_555
C84 C81 1_555 1_555
H54 C84 1_555 1_555
H55 C84 1_555 1_555
H56 C84 1_555 1_555
C85 C49 1_555 1_555
C86 C85 1_555 1_555
H57 C86 1_555 1_555
H58 C86 1_555 1_555
H59 C86 1_555 1_555
C87 C85 1_555 1_555
H60 C87 1_555 1_555
H61 C87 1_555 1_555
H62 C87 1_555 1_555
C88 C85 1_555 1_555
H63 C88 1_555 1_555
H64 C88 1_555 1_555
H65 C88 1_555 1_555
C89 C56 1_555 1_555
C90 C89 1_555 1_555
H66 C90 1_555 1_555
H67 C90 1_555 1_555
H68 C90 1_555 1_555
C91 C89 1_555 1_555
H69 C91 1_555 1_555
H70 C91 1_555 1_555
H71 C91 1_555 1_555
C92 C89 1_555 1_555
H72 C92 1_555 1_555
H73 C92 1_555 1_555
H74 C92 1_555 1_555
C93 H75 1_555 1_555
C94 C93 1_555 1_555
C95 C94 1_555 1_555
H76 C95 1_555 1_555
C96 C95 1_555 1_555
N7 C96 1_555 1_555
C97 N7 1_555 1_555
C98 C97 1_555 1_555
C99 C98 1_555 1_555
H77 C99 1_555 1_555
C100 C99 1_555 1_555
C101 C100 1_555 1_555
H78 C101 1_555 1_555
C102 C101 1_555 1_555
C103 C102 1_555 1_555
O7 C103 1_555 1_555
O8 C104 1_555 1_555
C104 C103 1_555 1_555
C105 C104 1_555 1_555
C106 C105 1_555 1_555
H79 C106 1_555 1_555
C107 C106 1_555 1_555
C108 C107 1_555 1_555
H80 C108 1_555 1_555
C109 C108 1_555 1_555
C110 C97 1_555 1_555
N8 C110 1_555 1_555
C111 C96 1_555 1_555
C112 C111 1_555 1_555
H81 C112 1_555 1_555
C113 C94 1_555 1_555
C114 C113 1_555 1_555
H82 C114 1_555 1_555
C115 C114 1_555 1_555
C116 C115 1_555 1_555
H83 C116 1_555 1_555
C117 C116 1_555 1_555
N9 C117 1_555 1_555
C118 N9 1_555 1_555
C119 C118 1_555 1_555
C120 C119 1_555 1_555
H84 C120 1_555 1_555
C121 C120 1_555 1_555
C122 C121 1_555 1_555
H85 C122 1_555 1_555
C123 C122 1_555 1_555
C124 C123 1_555 1_555
O9 C124 1_555 1_555
O10 C125 1_555 1_555
C125 C124 1_555 1_555
C126 C125 1_555 1_555
C127 C126 1_555 1_555
H86 C127 1_555 1_555
C128 C127 1_555 1_555
C129 C128 1_555 1_555
H87 C129 1_555 1_555
C130 C129 1_555 1_555
C131 C118 1_555 1_555
N10 C131 1_555 1_555
C132 C117 1_555 1_555
C133 C132 1_555 1_555
H88 C133 1_555 1_555
C134 C93 1_555 1_555
C135 C93 1_555 1_555
C136 C135 1_555 1_555
H89 C136 1_555 1_555
C137 C136 1_555 1_555
N11 C137 1_555 1_555
C138 N11 1_555 1_555
C139 C138 1_555 1_555
C140 C139 1_555 1_555
H90 C140 1_555 1_555
C141 C140 1_555 1_555
C142 C141 1_555 1_555
H91 C142 1_555 1_555
C143 C142 1_555 1_555
C144 C143 1_555 1_555
O11 C144 1_555 1_555
O12 C145 1_555 1_555
C145 C144 1_555 1_555
C146 C145 1_555 1_555
C147 C146 1_555 1_555
H92 C147 1_555 1_555
C148 C147 1_555 1_555
C149 C148 1_555 1_555
H93 C149 1_555 1_555
C150 C149 1_555 1_555
C151 C138 1_555 1_555
N12 C151 1_555 1_555
C152 C137 1_555 1_555
C153 C152 1_555 1_555
H94 C153 1_555 1_555
C154 C114 1_555 1_555
C155 C98 1_555 1_555
C156 C105 1_555 1_555
C157 C119 1_555 1_555
C158 C126 1_555 1_555
C159 C139 1_555 1_555
C160 C146 1_555 1_555
C161 C100 1_555 1_555
C162 C161 1_555 1_555
H95 C162 1_555 1_555
H96 C162 1_555 1_555
H97 C162 1_555 1_555
C163 C161 1_555 1_555
H98 C163 1_555 1_555
H99 C163 1_555 1_555
H100 C163 1_555 1_555
C164 C161 1_555 1_555
H101 C164 1_555 1_555
H102 C164 1_555 1_555
H103 C164 1_555 1_555
C165 C107 1_555 1_555
C166 C165 1_555 1_555
H104 C166 1_555 1_555
H105 C166 1_555 1_555
H106 C166 1_555 1_555
C167 C165 1_555 1_555
H107 C167 1_555 1_555
H108 C167 1_555 1_555
H109 C167 1_555 1_555
C168 C165 1_555 1_555
H110 C168 1_555 1_555
H111 C168 1_555 1_555
H112 C168 1_555 1_555
C169 C121 1_555 1_555
C170 C169 1_555 1_555
H113 C170 1_555 1_555
H114 C170 1_555 1_555
H115 C170 1_555 1_555
C171 C169 1_555 1_555
H116 C171 1_555 1_555
H117 C171 1_555 1_555
H118 C171 1_555 1_555
C172 C169 1_555 1_555
H119 C172 1_555 1_555
H120 C172 1_555 1_555
H121 C172 1_555 1_555
C173 C128 1_555 1_555
C174 C173 1_555 1_555
H122 C174 1_555 1_555
H123 C174 1_555 1_555
H124 C174 1_555 1_555
C175 C173 1_555 1_555
H125 C175 1_555 1_555
H126 C175 1_555 1_555
H127 C175 1_555 1_555
C176 C173 1_555 1_555
H128 C176 1_555 1_555
H129 C176 1_555 1_555
H130 C176 1_555 1_555
C177 C141 1_555 1_555
C178 C177 1_555 1_555
H131 C178 1_555 1_555
H132 C178 1_555 1_555
H133 C178 1_555 1_555
C179 C177 1_555 1_555
H134 C179 1_555 1_555
H135 C179 1_555 1_555
H136 C179 1_555 1_555
C180 C177 1_555 1_555
H137 C180 1_555 1_555
H138 C180 1_555 1_555
H139 C180 1_555 1_555
C181 C148 1_555 1_555
C182 C181 1_555 1_555
H140 C182 1_555 1_555
H141 C182 1_555 1_555
H142 C182 1_555 1_555
C183 C181 1_555 1_555
H143 C183 1_555 1_555
H144 C183 1_555 1_555
H145 C183 1_555 1_555
C184 C181 1_555 1_555
H146 C184 1_555 1_555
H147 C184 1_555 1_555
H148 C184 1_555 1_555
Cl1 C185 1_555 1_555
Cl2 C186 1_555 1_555
C185 C186 1_555 1_555
C186 C187 1_555 1_555
C187 H149 1_555 1_555
C188 C187 1_555 1_555
H150 C188 1_555 1_555
C189 C188 1_555 1_555
H151 C189 1_555 1_555
C190 C185 1_555 1_555
H152 C190 1_555 1_555
Cl3 C191 1_555 1_555
Cl4 C192 1_555 1_555
C191 C192 1_555 1_555
C192 C193 1_555 1_555
C193 H153 1_555 1_555
C194 C193 1_555 1_555
H154 C194 1_555 1_555
C195 C194 1_555 1_555
H155 C195 1_555 1_555
C196 C191 1_555 1_555
H156 C196 1_555 1_555
Cl5 C197 1_555 1_555
Cl6 C198 1_555 1_555
C197 C198 1_555 1_555
C198 C199 1_555 1_555
C199 H157 1_555 1_555
C200 C199 1_555 1_555
H158 C200 1_555 1_555
C201 C200 1_555 1_555
H159 C201 1_555 1_555
C202 C197 1_555 1_555
H160 C202 1_555 1_555
Cl7 C203 1_555 1_555
Cl8 C204 1_555 1_555
C203 C204 1_555 1_555
C204 C205 1_555 1_555
C205 H161 1_555 1_555
C206 C205 1_555 1_555
H162 C206 1_555 1_555
C207 C206 1_555 1_555
H163 C207 1_555 1_555
C208 C203 1_555 1_555
H164 C208 1_555 1_555
Cl9 C209 1_555 1_555
Cl10 C210 1_555 1_555
C209 C210 1_555 1_555
C210 C211 1_555 1_555
C211 H165 1_555 1_555
C212 C211 1_555 1_555
H166 C212 1_555 1_555
C213 C212 1_555 1_555
H167 C213 1_555 1_555
C214 C209 1_555 1_555
H168 C214 1_555 1_555
Cl11 C215 1_555 1_555
Cl12 C216 1_555 1_555
C215 C216 1_555 1_555
C216 C217 1_555 1_555
C217 H169 1_555 1_555
C218 C217 1_555 1_555
H170 C218 1_555 1_555
C219 C218 1_555 1_555
H171 C219 1_555 1_555
C220 C215 1_555 1_555
H172 C220 1_555 1_555
Cl13 C221 1_555 1_555
Cl14 C222 1_555 1_555
C221 C222 1_555 1_555
C222 C223 1_555 1_555
C223 H173 1_555 1_555
C224 C223 1_555 1_555
H174 C224 1_555 1_555
C225 C224 1_555 1_555
H175 C225 1_555 1_555
C226 C221 1_555 1_555
H176 C226 1_555 1_555
Cl15 C227 1_555 1_555
Cl16 C228 1_555 1_555
C227 C228 1_555 1_555
C228 C229 1_555 1_555
C229 H177 1_555 1_555
C230 C229 1_555 1_555
H178 C230 1_555 1_555
C231 C230 1_555 1_555
H179 C231 1_555 1_555
C232 C227 1_555 1_555
H180 C232 1_555 1_555
Cl17 C233 1_555 1_555
Cl18 C234 1_555 1_555
C233 C234 1_555 1_555
C234 C235 1_555 1_555
C235 H181 1_555 1_555
C236 C235 1_555 1_555
H182 C236 1_555 1_555
C237 C236 1_555 1_555
H183 C237 1_555 1_555
C238 C233 1_555 1_555
H184 C238 1_555 1_555
Cl19 C239 1_555 1_555
Cl20 C240 1_555 1_555
C239 C240 1_555 1_555
C240 C241 1_555 1_555
C241 H185 1_555 1_555
C242 C241 1_555 1_555
H186 C242 1_555 1_555
C243 C242 1_555 1_555
H187 C243 1_555 1_555
C244 C239 1_555 1_555
H188 C244 1_555 1_555
Cl21 C245 1_555 1_555
Cl22 C246 1_555 1_555
C245 C246 1_555 1_555
C246 C247 1_555 1_555
C247 H189 1_555 1_555
C248 C247 1_555 1_555
H190 C248 1_555 1_555
C249 C248 1_555 1_555
H191 C249 1_555 1_555
C250 C245 1_555 1_555
H192 C250 1_555 1_555
Cl23 C251 1_555 1_555
Cl24 C252 1_555 1_555
C251 C252 1_555 1_555
C252 C253 1_555 1_555
C253 H193 1_555 1_555
C254 C253 1_555 1_555
H194 C254 1_555 1_555
C255 C254 1_555 1_555
H195 C255 1_555 1_555
C256 C251 1_555 1_555
H196 C256 1_555 1_555
Cl25 C257 1_555 1_555
Cl26 C258 1_555 1_555
C257 C258 1_555 1_555
C258 C259 1_555 1_555
C259 H197 1_555 1_555
C260 C259 1_555 1_555
H198 C260 1_555 1_555
C261 C260 1_555 1_555
H199 C261 1_555 1_555
C262 C257 1_555 1_555
H200 C262 1_555 1_555
C10 C63 1_555 1_555
C17 C18 1_555 1_555
C17 C64 1_555 1_555
N2 C19 1_555 1_555
C20 C21 1_555 1_555
C23 C42 1_555 1_555
C31 C65 1_555 1_555
C38 C39 1_555 1_555
C38 C66 1_555 1_555
N4 C40 1_555 1_555
C41 C42 1_555 1_555
C43 C62 1_555 1_555
C51 C67 1_555 1_555
C58 C59 1_555 1_555
C58 C68 1_555 1_555
N6 C60 1_555 1_555
C61 C62 1_555 1_555
C63 C64 1_555 1_555
C65 C66 1_555 1_555
C67 C68 1_555 1_555
C102 C155 1_555 1_555
C109 C110 1_555 1_555
C109 C156 1_555 1_555
N8 C111 1_555 1_555
C112 C113 1_555 1_555
C115 C134 1_555 1_555
C123 C157 1_555 1_555
C130 C131 1_555 1_555
C130 C158 1_555 1_555
N10 C132 1_555 1_555
C133 C134 1_555 1_555
C135 C154 1_555 1_555
C143 C159 1_555 1_555
C150 C151 1_555 1_555
C150 C160 1_555 1_555
N12 C152 1_555 1_555
C153 C154 1_555 1_555
C155 C156 1_555 1_555
C157 C158 1_555 1_555
C159 C160 1_555 1_555
C189 C190 1_555 1_555
C195 C196 1_555 1_555
C201 C202 1_555 1_555
C207 C208 1_555 1_555
C213 C214 1_555 1_555
C219 C220 1_555 1_555
C225 C226 1_555 1_555
C231 C232 1_555 1_555
C237 C238 1_555 1_555
C243 C244 1_555 1_555
C249 C250 1_555 1_555
C255 C256 1_555 1_555
C261 C262 1_555 1_555

#END
