
#######################################################################
#
#                 Cambridge Crystallographic Data Centre
#                                CCDC 
#
#######################################################################
#
# If this CIF has been generated from an entry in the Cambridge 
# Structural Database, then it will include bibliographic, chemical, 
# crystal, experimental, refinement or atomic coordinate data resulting 
# from the CCDC's data processing and validation procedures.
#
#######################################################################

data_VIZPAX
_chemical_formula_moiety         'C27 H23 Br1 O3 S1'
_chemical_name_systematic        
2-Benzoyl-3-(4-bromophenyl)-5-(2-oxo-2-phenylethyl)tetrahydro-2H-thiopyran-4-carbaldehyde
_symmetry_cell_setting           monoclinic
_symmetry_space_group_name_H-M   'C 2'
_symmetry_Int_Tables_number      5
_space_group_name_Hall           'C 2y'
loop_
_symmetry_equiv_pos_site_id
_symmetry_equiv_pos_as_xyz
1 x,y,z
2 -x,y,-z
3 1/2+x,1/2+y,z
4 1/2-x,1/2+y,-z
_cell_length_a                   31.361(5)
_cell_length_b                   5.4611(8)
_cell_length_c                   13.461(2)
_cell_angle_alpha                90
_cell_angle_beta                 91.404(4)
_cell_angle_gamma                90
_cell_volume                     2304.71
_cell_formula_units_Z            4
loop_
_atom_site_label
_atom_site_type_symbol
_atom_site_fract_x
_atom_site_fract_y
_atom_site_fract_z
O1 O 0.83886(7) 0.6674(4) -0.14315(19)
C1 C 0.87398(10) -0.0324(6) 0.4322(2)
C2 C 0.86173(12) -0.0689(7) 0.6076(3)
H1 H 0.8492 -0.0111 0.6649
Br1 Br 1.01646(2) 0.32492(10) -0.35101(3)
S1 S 0.79748(2) 0.32362(18) 0.03631(5)
C3 C 0.88233(8) 0.3206(6) -0.02088(19)
H2 H 0.8836 0.4806 0.0120
C4 C 0.97520(8) 0.3277(8) -0.2500(2)
C5 C 0.83648(8) 0.2822(5) -0.0612(2)
H3 H 0.8338 0.1157 -0.0878
O2 O 0.84694(8) 0.2980(5) 0.33894(16)
C6 C 0.91458(8) 0.3212(7) -0.10297(19)
C7 C 0.79046(9) 0.3863(5) -0.2177(2)
C8 C 0.78241(11) 0.5378(7) -0.2994(3)
H4 H 0.7977 0.6827 -0.3060
C9 C 0.94432(9) 0.5116(6) -0.1088(3)
H5 H 0.9437 0.6379 -0.0626
C10 C 0.72933(11) 0.2593(7) -0.3618(3)
H6 H 0.7092 0.2153 -0.4104
C11 C 0.76721(10) 0.1713(6) -0.2093(2)
H7 H 0.7722 0.0679 -0.1554
C12 C 0.89873(11) -0.2430(6) 0.4374(2)
H8 H 0.9109 -0.3032 0.3801
C13 C 0.75192(13) 0.4743(8) -0.3707(3)
H9 H 0.7466 0.5768 -0.4248
C14 C 0.91631(10) 0.1332(6) -0.1721(2)
H10 H 0.8970 0.0042 -0.1688
C15 C 0.97441(10) 0.5158(6) -0.1816(3)
H11 H 0.9939 0.6436 -0.1847
O3 O 0.96389(9) -0.0315(6) 0.0925(2)
C16 C 0.94652(10) 0.1348(6) -0.2465(2)
H12 H 0.9474 0.0088 -0.2929
C17 C 0.85538(10) 0.0549(7) 0.5190(2)
H13 H 0.8388 0.1961 0.5169
C18 C 0.94010(10) 0.1396(7) 0.0872(2)
H14 H 0.9511 0.2939 0.1020
C19 C 0.73664(11) 0.1105(7) -0.2811(3)
H15 H 0.7209 -0.0327 -0.2745
C20 C 0.88651(13) -0.2779(7) 0.6118(3)
H16 H 0.8904 -0.3607 0.6717
C21 C 0.90562(12) -0.3648(7) 0.5265(3)
H17 H 0.9228 -0.5034 0.5293
C22 C 0.89355(9) 0.1213(6) 0.0583(2)
H18 H 0.8880 -0.0405 0.0293
C23 C 0.82335(9) 0.4634(5) -0.1416(2)
C24 C 0.81902(10) 0.1022(6) 0.1231(2)
H19 H 0.8023 0.1044 0.1828
H20 H 0.8166 -0.0600 0.0941
C25 C 0.86590(9) 0.1522(6) 0.1512(2)
H21 H 0.8681 0.3237 0.1722
C26 C 0.87932(10) -0.0070(6) 0.2403(2)
H22 H 0.8670 -0.1689 0.2323
H23 H 0.9101 -0.0246 0.2420
C27 C 0.86526(10) 0.1015(7) 0.3376(2)
loop_
_geom_bond_atom_site_label_1
_geom_bond_atom_site_label_2
_geom_bond_site_symmetry_1
_geom_bond_site_symmetry_2
O1 C23 1_555 1_555
C1 C12 1_555 1_555
C2 H1 1_555 1_555
Br1 C4 1_555 1_555
S1 C5 1_555 1_555
C3 H2 1_555 1_555
C4 C15 1_555 1_555
C5 C3 1_555 1_555
H3 C5 1_555 1_555
O2 C27 1_555 1_555
C6 C3 1_555 1_555
C7 C8 1_555 1_555
C8 H4 1_555 1_555
C9 C6 1_555 1_555
H5 C9 1_555 1_555
C10 H6 1_555 1_555
C11 C7 1_555 1_555
H7 C11 1_555 1_555
C12 H8 1_555 1_555
C13 C8 1_555 1_555
H9 C13 1_555 1_555
C14 C6 1_555 1_555
H10 C14 1_555 1_555
C15 C9 1_555 1_555
H11 C15 1_555 1_555
O3 C18 1_555 1_555
C16 C4 1_555 1_555
H12 C16 1_555 1_555
C17 C1 1_555 1_555
H13 C17 1_555 1_555
C18 H14 1_555 1_555
C19 C10 1_555 1_555
H15 C19 1_555 1_555
C20 C2 1_555 1_555
H16 C20 1_555 1_555
C21 C12 1_555 1_555
H17 C21 1_555 1_555
C22 C3 1_555 1_555
H18 C22 1_555 1_555
C23 C5 1_555 1_555
C24 S1 1_555 1_555
H19 C24 1_555 1_555
H20 C24 1_555 1_555
C25 C22 1_555 1_555
H21 C25 1_555 1_555
C26 C25 1_555 1_555
H22 C26 1_555 1_555
H23 C26 1_555 1_555
C27 C1 1_555 1_555
C2 C17 1_555 1_555
C7 C23 1_555 1_555
C10 C13 1_555 1_555
C11 C19 1_555 1_555
C14 C16 1_555 1_555
C18 C22 1_555 1_555
C20 C21 1_555 1_555
C24 C25 1_555 1_555
C26 C27 1_555 1_555

#END
