
#######################################################################
#
#                 Cambridge Crystallographic Data Centre
#                                CCDC 
#
#######################################################################
#
# If this CIF has been generated from an entry in the Cambridge 
# Structural Database, then it will include bibliographic, chemical, 
# crystal, experimental, refinement or atomic coordinate data resulting 
# from the CCDC's data processing and validation procedures.
#
#######################################################################

data_VIZTEE
_chemical_compound_source        'aerial parts of Abies georgei'
_chemical_name_common            
'5,11-bis(4-Hydroxyphenyl)-12c,12d-dihydro-4,6,10,12-tetraoxanaphtho[7,8,1,2,3-nopqr]tetraphene-2,5a,8,11a(5H,11H)-tetrol dihydrate'
_chemical_formula_moiety         'C30 H22 O10,2(H2 O1)'
_chemical_name_systematic        'Abiesanol A dihydrate'
_chemical_properties_biological  
'Anti-inflammatory activity; potent inhibition of LPS-induced nitric oxide production in RAW264.7 macrophages, whilst showing no cytotoxicity against the macrophages'
_symmetry_cell_setting           triclinic
_symmetry_space_group_name_H-M   'P 1'
_symmetry_Int_Tables_number      1
_space_group_name_Hall           'P 1'
loop_
_symmetry_equiv_pos_site_id
_symmetry_equiv_pos_as_xyz
1 x,y,z
_cell_length_a                   6.300(5)
_cell_length_b                   8.938(7)
_cell_length_c                   12.522(11)
_cell_angle_alpha                70.323(15)
_cell_angle_beta                 77.243(15)
_cell_angle_gamma                76.697(14)
_cell_volume                     638.163
_exptl_crystal_colour            'pale yellow'
_exptl_crystal_description       prismatic
_cell_formula_units_Z            1
_exptl_crystal_recrystallization_method methanol/water
loop_
_atom_site_label
_atom_site_type_symbol
_atom_site_fract_x
_atom_site_fract_y
_atom_site_fract_z
O1 O 0.5940(3) -0.1271(2) 0.33611(15)
O2 O 0.2822(3) -0.1754(3) 0.13687(18)
O3 O 0.6605(3) -0.23287(19) 0.13431(15)
O4 O 1.0608(4) 0.2303(2) 0.29772(17)
H1 H 1.1185 0.3048 0.2510
O5 O 0.8708(3) 0.1892(2) -0.21264(16)
O6 O 0.3479(3) 0.3554(2) -0.05995(18)
H2 H 0.3594 0.4509 -0.0877
O7 O 0.7027(3) 0.30252(18) -0.01902(14)
O8 O 1.3477(4) -0.3141(2) -0.0927(2)
O9 O 0.3823(4) -0.8111(2) 0.58985(19)
H3 H 0.5049 -0.8677 0.5897
O10 O 0.7357(4) 0.9533(2) -0.3887(2)
H4 H 0.8646 0.9667 -0.4098
C1 C 0.4244(4) -0.1728(3) 0.2989(2)
H5 H 0.2838 -0.1080 0.3210
C2 C 0.4583(4) -0.1362(3) 0.1670(2)
C3 C 0.4595(4) 0.0441(3) 0.1101(2)
H6 H 0.3112 0.1034 0.1273
C4 C 0.7299(4) 0.2212(3) 0.0935(2)
C5 C 0.8765(4) 0.2723(3) 0.1365(2)
H7 H 0.9459 0.3594 0.0919
C6 C 0.9166(4) 0.1897(3) 0.2479(2)
C7 C 0.8175(4) 0.0579(3) 0.3150(2)
H8 H 0.8475 0.0028 0.3891
C8 C 0.6724(4) 0.0103(3) 0.2689(2)
C9 C 0.6186(4) 0.0940(2) 0.1597(2)
C10 C 0.4155(4) -0.3463(3) 0.3702(2)
C11 C 0.2147(4) -0.3931(3) 0.4282(2)
H9 H 0.0849 -0.3185 0.4193
C12 C 0.2056(4) -0.5497(3) 0.4990(2)
H10 H 0.0702 -0.5803 0.5362
C13 C 0.3984(5) -0.6597(3) 0.5141(2)
C14 C 0.5997(4) -0.6165(3) 0.4557(2)
H11 H 0.7288 -0.6920 0.4640
C15 C 0.6076(4) -0.4602(3) 0.3847(2)
H12 H 0.7430 -0.4309 0.3463
C16 C 0.6608(4) 0.2921(3) -0.1994(2)
H13 H 0.5617 0.2687 -0.2398
C17 C 0.5555(4) 0.2605(3) -0.0721(2)
C18 C 0.5255(4) 0.0845(3) -0.0195(2)
H14 H 0.4112 0.0649 -0.0526
C19 C 0.7951(4) -0.1740(3) 0.0319(2)
C20 C 0.9942(4) -0.2724(3) 0.0129(2)
H15 H 1.0245 -0.3764 0.0621
C21 C 1.1475(4) -0.2133(3) -0.0809(2)
C22 C 1.1050(5) -0.0594(3) -0.1570(2)
H16 H 1.2105 -0.0208 -0.2193
C23 C 0.9011(4) 0.0352(3) -0.1377(2)
C24 C 0.7400(4) -0.0209(3) -0.0456(2)
C25 C 0.6940(4) 0.4647(3) -0.25677(19)
C26 C 0.5421(5) 0.5743(3) -0.3236(2)
H17 H 0.4275 0.5380 -0.3380
C27 C 0.5589(5) 0.7373(3) -0.3691(2)
H18 H 0.4568 0.8092 -0.4136
C28 C 0.7282(4) 0.7902(3) -0.3472(2)
C29 C 0.8856(5) 0.6822(3) -0.2834(2)
H19 H 1.0018 0.7188 -0.2708
C30 C 0.8686(4) 0.5205(3) -0.2390(2)
H20 H 0.9745 0.4485 -0.1971
H21 H 0.313(8) -0.271(3) 0.148(4)
H22 H 1.432(7) -0.270(5) -0.152(4)
O11 O 0.3279(4) 0.4619(3) 0.1920(3)
H23 H 0.458(4) 0.434(7) 0.191(5)
H25 H 0.209(6) 0.516(8) 0.188(7)
O12 O 0.1155(5) 0.0425(3) 0.5256(2)
H24 H 0.133(8) 0.097(5) 0.455(2)
H26 H 0.184(6) 0.087(4) 0.554(3)
loop_
_geom_bond_atom_site_label_1
_geom_bond_atom_site_label_2
_geom_bond_site_symmetry_1
_geom_bond_site_symmetry_2
O1 C1 1_555 1_555
O2 C2 1_555 1_555
O3 C2 1_555 1_555
O4 H1 1_555 1_555
O5 C16 1_555 1_555
O6 H2 1_555 1_555
O7 C4 1_555 1_555
O8 C21 1_555 1_555
O9 H3 1_555 1_555
O10 H4 1_555 1_555
O11 H23 1_555 1_555
O12 H24 1_555 1_555
C1 H5 1_555 1_555
C2 C1 1_555 1_555
C3 C2 1_555 1_555
H6 C3 1_555 1_555
C4 C5 1_555 1_555
C5 H7 1_555 1_555
C6 O4 1_555 1_555
C7 C6 1_555 1_555
H8 C7 1_555 1_555
C8 O1 1_555 1_555
C9 C3 1_555 1_555
C10 C1 1_555 1_555
C11 C10 1_555 1_555
H9 C11 1_555 1_555
C12 C11 1_555 1_555
H10 C12 1_555 1_555
C13 O9 1_555 1_555
C14 C13 1_555 1_555
H11 C14 1_555 1_555
C15 C10 1_555 1_555
H12 C15 1_555 1_555
C16 H13 1_555 1_555
C17 O6 1_555 1_555
C18 C3 1_555 1_555
H14 C18 1_555 1_555
C19 O3 1_555 1_555
C20 C19 1_555 1_555
H15 C20 1_555 1_555
C21 C20 1_555 1_555
C22 C21 1_555 1_555
H16 C22 1_555 1_555
C23 O5 1_555 1_555
C24 C18 1_555 1_555
C25 C16 1_555 1_555
C26 C25 1_555 1_555
H17 C26 1_555 1_555
C27 C26 1_555 1_555
H18 C27 1_555 1_555
C28 O10 1_555 1_555
C29 C28 1_555 1_555
H19 C29 1_555 1_555
C30 C25 1_555 1_555
H20 C30 1_555 1_555
H21 O2 1_555 1_555
H22 O8 1_555 1_555
H25 O11 1_555 1_555
H26 O12 1_555 1_555
O7 C17 1_555 1_555
C4 C9 1_555 1_555
C5 C6 1_555 1_555
C7 C8 1_555 1_555
C8 C9 1_555 1_555
C12 C13 1_555 1_555
C14 C15 1_555 1_555
C16 C17 1_555 1_555
C17 C18 1_555 1_555
C19 C24 1_555 1_555
C22 C23 1_555 1_555
C23 C24 1_555 1_555
C27 C28 1_555 1_555
C29 C30 1_555 1_555

#END
