
#######################################################################
#
#                 Cambridge Crystallographic Data Centre
#                                CCDC 
#
#######################################################################
#
# If this CIF has been generated from an entry in the Cambridge 
# Structural Database, then it will include bibliographic, chemical, 
# crystal, experimental, refinement or atomic coordinate data resulting 
# from the CCDC's data processing and validation procedures.
#
#######################################################################

data_VIZWIM
_chemical_formula_moiety         'C23 H19 N1 O2 S1'
_chemical_name_systematic        
4-Benzyl-4-(benzylsulfanyl)-2-phenyl-1,3-oxazol-5(4H)-one
_symmetry_cell_setting           monoclinic
_symmetry_space_group_name_H-M   'P 21'
_symmetry_Int_Tables_number      4
_space_group_name_Hall           'P 2yb'
loop_
_symmetry_equiv_pos_site_id
_symmetry_equiv_pos_as_xyz
1 x,y,z
2 -x,1/2+y,-z
_cell_length_a                   8.4040(2)
_cell_length_b                   10.9966(2)
_cell_length_c                   11.7955(4)
_cell_angle_alpha                90
_cell_angle_beta                 110.235(4)
_cell_angle_gamma                90
_cell_volume                     1022.81
_cell_formula_units_Z            2
loop_
_atom_site_label
_atom_site_type_symbol
_atom_site_fract_x
_atom_site_fract_y
_atom_site_fract_z
S1 S 0.26519(6) 0.86603(4) 0.24742(5)
O1 O 0.3364(2) 0.72684(15) 0.50905(15)
O2 O 0.29406(17) 0.56269(11) 0.38950(12)
N1 N 0.1318(2) 0.63710(14) 0.20659(14)
C1 C 0.1628(2) 0.73810(17) 0.29152(18)
C2 C 0.2745(2) 0.68363(18) 0.41164(18)
C3 C 0.2039(2) 0.54514(17) 0.26665(16)
C4 C 0.2035(2) 0.42116(18) 0.22159(18)
C5 C 0.3213(3) 0.33607(19) 0.2865(2)
H1 H 0.3997 0.3560 0.3618
C6 C 0.3215(4) 0.2211(2) 0.2387(3)
H2 H 0.4014 0.1640 0.2814
C7 C 0.2057(4) 0.1914(2) 0.1299(3)
H3 H 0.2074 0.1142 0.0981
C8 C 0.0854(4) 0.2747(3) 0.0659(2)
H4 H 0.0047 0.2530 -0.0078
C9 C 0.0848(3) 0.38983(19) 0.1113(2)
H5 H 0.0047 0.4464 0.0679
C10 C -0.0055(3) 0.78832(19) 0.2994(2)
H6 H 0.0189 0.8596 0.3511
H7 H -0.0785 0.8134 0.2195
C11 C -0.0978(3) 0.69655(19) 0.3483(2)
C12 C -0.1890(3) 0.6034(3) 0.2779(3)
H8 H -0.1975 0.5979 0.1974
C13 C -0.2690(4) 0.5170(3) 0.3265(4)
H9 H -0.3287 0.4534 0.2785
C14 C -0.2603(4) 0.5254(3) 0.4435(4)
H10 H -0.3149 0.4682 0.4752
C15 C -0.1724(4) 0.6167(4) 0.5131(3)
H11 H -0.1668 0.6222 0.5931
C16 C -0.0897(4) 0.7030(3) 0.4671(3)
H12 H -0.0287 0.7652 0.5166
C17 C 0.4618(3) 0.7985(2) 0.2455(3)
H13 H 0.5326 0.7749 0.3265
H14 H 0.4381 0.7269 0.1944
C18 C 0.5502(3) 0.8931(2) 0.1967(2)
C19 C 0.6483(3) 0.9810(2) 0.2705(3)
H15 H 0.6607 0.9827 0.3520
C20 C 0.7285(4) 1.0670(3) 0.2243(5)
H16 H 0.7947 1.1266 0.2748
C21 C 0.7116(5) 1.0654(4) 0.1053(6)
H17 H 0.7659 1.1235 0.0744
C22 C 0.6152(6) 0.9786(6) 0.0327(4)
H18 H 0.6030 0.9772 -0.0487
C23 C 0.5349(4) 0.8922(4) 0.0778(3)
H19 H 0.4695 0.8326 0.0267
loop_
_geom_bond_atom_site_label_1
_geom_bond_atom_site_label_2
_geom_bond_site_symmetry_1
_geom_bond_site_symmetry_2
S1 C1 1_555 1_555
O1 C2 1_555 1_555
O2 C2 1_555 1_555
N1 C1 1_555 1_555
C1 C2 1_555 1_555
C3 O2 1_555 1_555
C4 C3 1_555 1_555
C5 C4 1_555 1_555
H1 C5 1_555 1_555
C6 C5 1_555 1_555
H2 C6 1_555 1_555
C7 C6 1_555 1_555
H3 C7 1_555 1_555
C8 C7 1_555 1_555
H4 C8 1_555 1_555
C9 C4 1_555 1_555
H5 C9 1_555 1_555
C10 C1 1_555 1_555
H6 C10 1_555 1_555
H7 C10 1_555 1_555
C11 C10 1_555 1_555
C12 C11 1_555 1_555
H8 C12 1_555 1_555
C13 C12 1_555 1_555
H9 C13 1_555 1_555
C14 C13 1_555 1_555
H10 C14 1_555 1_555
C15 C14 1_555 1_555
H11 C15 1_555 1_555
C16 C11 1_555 1_555
H12 C16 1_555 1_555
C17 S1 1_555 1_555
H13 C17 1_555 1_555
H14 C17 1_555 1_555
C18 C17 1_555 1_555
C19 C18 1_555 1_555
H15 C19 1_555 1_555
C20 C19 1_555 1_555
H16 C20 1_555 1_555
C21 C20 1_555 1_555
H17 C21 1_555 1_555
C22 C21 1_555 1_555
H18 C22 1_555 1_555
C23 C18 1_555 1_555
H19 C23 1_555 1_555
N1 C3 1_555 1_555
C8 C9 1_555 1_555
C15 C16 1_555 1_555
C22 C23 1_555 1_555

#END
