
#######################################################################
#
#                 Cambridge Crystallographic Data Centre
#                                CCDC 
#
#######################################################################
#
# If this CIF has been generated from an entry in the Cambridge 
# Structural Database, then it will include bibliographic, chemical, 
# crystal, experimental, refinement or atomic coordinate data resulting 
# from the CCDC's data processing and validation procedures.
#
#######################################################################

data_VIZXOT
_chemical_formula_moiety         'C30 H32 N4'
_chemical_name_systematic        
4,4'-(2,4-bis(pyridin-4-yl)cyclobutane-1,3-diyl)bis(N,N-dimethylaniline)
_symmetry_cell_setting           monoclinic
_symmetry_space_group_name_H-M   'C 2/c'
_symmetry_Int_Tables_number      15
_space_group_name_Hall           '-C 2yn'
loop_
_symmetry_equiv_pos_site_id
_symmetry_equiv_pos_as_xyz
1 x,y,z
2 -x,y,1/2-z
3 1/2+x,1/2+y,z
4 1/2-x,1/2+y,1/2-z
5 -x,-y,-z
6 x,-y,1/2+z
7 1/2-x,1/2-y,-z
8 1/2+x,1/2-y,1/2+z
_cell_length_a                   23.166(5)
_cell_length_b                   11.003(2)
_cell_length_c                   9.6330(19)
_cell_angle_alpha                90
_cell_angle_beta                 91.67(3)
_cell_angle_gamma                90
_cell_volume                     2454.37
_exptl_crystal_colour            colorless
_exptl_crystal_description       block
_cell_formula_units_Z            4
loop_
_atom_site_label
_atom_site_type_symbol
_atom_site_fract_x
_atom_site_fract_y
_atom_site_fract_z
N1 N -0.12781(4) 0.08386(9) 0.34546(11)
N2 N 0.21597(4) 0.48468(8) 0.38134(10)
C1 C -0.14278(5) 0.08343(11) 0.47858(13)
H1 H -0.1758 0.0408 0.5017
C2 C -0.11207(5) 0.14263(10) 0.58397(12)
H2 H -0.1241 0.1375 0.6750
C3 C -0.06316(5) 0.20975(10) 0.55322(12)
C4 C -0.04739(5) 0.21074(11) 0.41486(12)
H3 H -0.0151 0.2541 0.3884
C5 C -0.08012(6) 0.14681(12) 0.31670(13)
H4 H -0.0683 0.1477 0.2253
C6 C -0.02904(5) 0.27871(10) 0.66140(12)
H5 H -0.0342 0.3661 0.6456
C7 C 0.03660(4) 0.25051(10) 0.68241(11)
H6 H 0.0421 0.1627 0.6722
C8 C 0.08169(5) 0.31420(10) 0.60052(11)
C9 C 0.12213(5) 0.24764(10) 0.52824(12)
H7 H 0.1200 0.1633 0.5298
C10 C 0.16550(5) 0.30229(10) 0.45398(12)
H8 H 0.1914 0.2541 0.4065
C11 C 0.17092(5) 0.42906(10) 0.44948(11)
C12 C 0.12953(5) 0.49722(10) 0.52068(12)
H9 H 0.1312 0.5816 0.5186
C13 C 0.08643(5) 0.44051(11) 0.59377(12)
H10 H 0.0599 0.4881 0.6397
C14 C 0.24760(5) 0.41298(11) 0.28156(13)
H11 H 0.2213 0.3836 0.2103
H12 H 0.2658 0.3453 0.3281
H13 H 0.2766 0.4628 0.2405
C15 C 0.21211(5) 0.61429(10) 0.35107(13)
H14 H 0.2091 0.6588 0.4363
H15 H 0.1786 0.6297 0.2927
H16 H 0.2461 0.6398 0.3043
N1A N 0.12781(4) 0.08386(9) 1.15454(11)
N2A N -0.21597(4) 0.48468(8) 1.11866(10)
C1A C 0.14278(5) 0.08343(11) 1.02142(13)
H1A H 0.1758 0.0408 0.9983
C2A C 0.11207(5) 0.14263(10) 0.91603(12)
H2A H 0.1241 0.1375 0.8250
C3A C 0.06316(5) 0.20975(10) 0.94678(12)
C4A C 0.04739(5) 0.21074(11) 1.08514(12)
H3A H 0.0151 0.2541 1.1116
C5A C 0.08012(6) 0.14681(12) 1.18330(13)
H4A H 0.0683 0.1477 1.2747
C6A C 0.02904(5) 0.27871(10) 0.83860(12)
H5A H 0.0342 0.3661 0.8544
C7A C -0.03660(4) 0.25051(10) 0.81759(11)
H6A H -0.0421 0.1627 0.8278
C8A C -0.08169(5) 0.31420(10) 0.89948(11)
C9A C -0.12213(5) 0.24764(10) 0.97176(12)
H7A H -0.1200 0.1633 0.9702
C10A C -0.16550(5) 0.30229(10) 1.04602(12)
H8A H -0.1914 0.2541 1.0935
C11A C -0.17092(5) 0.42906(10) 1.05052(11)
C12A C -0.12953(5) 0.49722(10) 0.97932(12)
H9A H -0.1312 0.5816 0.9814
C13A C -0.08643(5) 0.44051(11) 0.90623(12)
H10A H -0.0599 0.4881 0.8603
C14A C -0.24760(5) 0.41298(11) 1.21844(13)
H11A H -0.2213 0.3836 1.2897
H12A H -0.2658 0.3453 1.1719
H13A H -0.2766 0.4628 1.2595
C15A C -0.21211(5) 0.61429(10) 1.14893(13)
H14A H -0.2091 0.6588 1.0637
H15A H -0.1786 0.6297 1.2073
H16A H -0.2461 0.6398 1.1957
loop_
_geom_bond_atom_site_label_1
_geom_bond_atom_site_label_2
_geom_bond_site_symmetry_1
_geom_bond_site_symmetry_2
N1 C1 1_555 1_555
N2 C11 1_555 1_555
C1 H1 1_555 1_555
C2 C1 1_555 1_555
H2 C2 1_555 1_555
C3 C2 1_555 1_555
C4 C3 1_555 1_555
H3 C4 1_555 1_555
C5 N1 1_555 1_555
H4 C5 1_555 1_555
C6 C3 1_555 1_555
H5 C6 1_555 1_555
C7 C6 1_555 1_555
H6 C7 1_555 1_555
C8 C7 1_555 1_555
C9 C8 1_555 1_555
H7 C9 1_555 1_555
C10 C9 1_555 1_555
H8 C10 1_555 1_555
C11 C10 1_555 1_555
C12 C11 1_555 1_555
H9 C12 1_555 1_555
C13 C8 1_555 1_555
H10 C13 1_555 1_555
C14 N2 1_555 1_555
H11 C14 1_555 1_555
H12 C14 1_555 1_555
H13 C14 1_555 1_555
C15 N2 1_555 1_555
H14 C15 1_555 1_555
H15 C15 1_555 1_555
H16 C15 1_555 1_555
N1A C1A 1_555 1_555
N2A C11A 1_555 1_555
C1A H1A 1_555 1_555
C2A C1A 1_555 1_555
H2A C2A 1_555 1_555
C3A C2A 1_555 1_555
C4A C3A 1_555 1_555
H3A C4A 1_555 1_555
C5A N1A 1_555 1_555
H4A C5A 1_555 1_555
C6A C7 1_555 1_555
H5A C6A 1_555 1_555
C7A C6 1_555 1_555
H6A C7A 1_555 1_555
C8A C7A 1_555 1_555
C9A C8A 1_555 1_555
H7A C9A 1_555 1_555
C10A C9A 1_555 1_555
H8A C10A 1_555 1_555
C11A C10A 1_555 1_555
C12A C11A 1_555 1_555
H9A C12A 1_555 1_555
C13A C8A 1_555 1_555
H10A C13A 1_555 1_555
C14A N2A 1_555 1_555
H11A C14A 1_555 1_555
H12A C14A 1_555 1_555
H13A C14A 1_555 1_555
C15A N2A 1_555 1_555
H14A C15A 1_555 1_555
H15A C15A 1_555 1_555
H16A C15A 1_555 1_555
C4 C5 1_555 1_555
C12 C13 1_555 1_555
C3A C6A 1_555 1_555
C4A C5A 1_555 1_555
C6A C7A 1_555 1_555
C12A C13A 1_555 1_555

#END
