
#######################################################################
#
#                 Cambridge Crystallographic Data Centre
#                                CCDC 
#
#######################################################################
#
# If this CIF has been generated from an entry in the Cambridge 
# Structural Database, then it will include bibliographic, chemical, 
# crystal, experimental, refinement or atomic coordinate data resulting 
# from the CCDC's data processing and validation procedures.
#
#######################################################################

data_VIZXEI01
_chemical_formula_moiety         'C16 H17 N1 O2'
_chemical_name_systematic        
1-(2-Phenylethyl)-3,3a,4,5-tetrahydro-1H-indole-2,6-dione
_symmetry_cell_setting           triclinic
_symmetry_space_group_name_H-M   'P -1'
_symmetry_Int_Tables_number      2
_space_group_name_Hall           '-P 1'
loop_
_symmetry_equiv_pos_site_id
_symmetry_equiv_pos_as_xyz
1 x,y,z
2 -x,-y,-z
_cell_length_a                   7.0030(14)
_cell_length_b                   9.0250(18)
_cell_length_c                   11.797(2)
_cell_angle_alpha                108.61(3)
_cell_angle_beta                 91.00(3)
_cell_angle_gamma                108.31(3)
_cell_volume                     665.069
_exptl_crystal_colour            colorless
_exptl_crystal_description       block
_cell_formula_units_Z            2
loop_
_atom_site_label
_atom_site_type_symbol
_atom_site_fract_x
_atom_site_fract_y
_atom_site_fract_z
N1 N 0.25483(18) 0.60162(14) 0.86170(11)
O1 O -0.03211(17) 0.62155(14) 0.94645(10)
O2 O 0.66725(16) 0.42209(15) 0.56790(10)
C1 C 0.0488(2) 0.54645(18) 0.87033(13)
C2 C -0.0445(2) 0.38323(19) 0.76992(13)
H1 H -0.1777 0.3749 0.7336
H2 H -0.0636 0.2895 0.7999
C3 C 0.1074(4) 0.3821(4) 0.6774(3)
H3 H 0.0740 0.4334 0.6195
C4 C 0.1400(4) 0.2214(4) 0.6072(3)
H4 H 0.1665 0.1663 0.6631
H5 H 0.0172 0.1453 0.5500
C5 C 0.3178(2) 0.26022(18) 0.53969(13)
H6 H 0.2732 0.2835 0.4690
H7 H 0.3567 0.1596 0.5085
C6 C 0.5048(2) 0.40383(18) 0.60904(12)
C7 C 0.4869(2) 0.51753(17) 0.72326(12)
H8 H 0.6041 0.6034 0.7717
C8 C 0.3050(2) 0.50146(17) 0.76039(13)
C9 C 0.3959(2) 0.75367(16) 0.94796(13)
H9 H 0.3201 0.8278 0.9877
H10 H 0.4954 0.8115 0.9043
C10 C 0.5089(2) 0.72169(16) 1.04393(13)
H11 H 0.4100 0.6615 1.0867
H12 H 0.5889 0.6509 1.0049
C11 C 0.6485(2) 0.88197(16) 1.13334(12)
C12 C 0.5779(2) 0.97674(18) 1.22958(13)
H13 H 0.4395 0.9380 1.2412
C13 C 0.7068(3) 1.12701(19) 1.30874(14)
H14 H 0.6566 1.1907 1.3741
C14 C 0.9074(3) 1.18393(19) 1.29268(15)
H15 H 0.9958 1.2873 1.3465
C15 C 0.9793(3) 1.0907(2) 1.19852(16)
H16 H 1.1181 1.1295 1.1878
C16 C 0.8512(2) 0.94103(18) 1.11928(13)
H17 H 0.9027 0.8779 1.0544
C17? C 0.1276(7) 0.3399(7) 0.7168(5)
C18? C 0.1168(7) 0.2858(8) 0.5818(4)
H18? H 0.1555 0.2559 0.7467
H19? H 0.0912 0.3709 0.5535
H20? H 0.0022 0.1805 0.5452
loop_
_geom_bond_atom_site_label_1
_geom_bond_atom_site_label_2
_geom_bond_site_symmetry_1
_geom_bond_site_symmetry_2
N1 C1 1_555 1_555
O1 C1 1_555 1_555
O2 C6 1_555 1_555
C1 C2 1_555 1_555
C2 H1 1_555 1_555
H2 C2 1_555 1_555
C3 C2 1_555 1_555
H3 C3 1_555 1_555
C4 C3 1_555 1_555
H4 C4 1_555 1_555
H5 C4 1_555 1_555
C5 C4 1_555 1_555
H6 C5 1_555 1_555
H7 C5 1_555 1_555
C6 C5 1_555 1_555
C7 C6 1_555 1_555
H8 C7 1_555 1_555
C8 N1 1_555 1_555
C9 N1 1_555 1_555
H9 C9 1_555 1_555
H10 C9 1_555 1_555
C10 C9 1_555 1_555
H11 C10 1_555 1_555
H12 C10 1_555 1_555
C11 C10 1_555 1_555
C12 C11 1_555 1_555
H13 C12 1_555 1_555
C13 C12 1_555 1_555
H14 C13 1_555 1_555
C14 C13 1_555 1_555
H15 C14 1_555 1_555
C15 C14 1_555 1_555
H16 C15 1_555 1_555
C16 C11 1_555 1_555
H17 C16 1_555 1_555
C3 C8 1_555 1_555
C7 C8 1_555 1_555
C15 C16 1_555 1_555

#END
