
#######################################################################
#
#                 Cambridge Crystallographic Data Centre
#                                CCDC 
#
#######################################################################
#
# If this CIF has been generated from an entry in the Cambridge 
# Structural Database, then it will include bibliographic, chemical, 
# crystal, experimental, refinement or atomic coordinate data resulting 
# from the CCDC's data processing and validation procedures.
#
#######################################################################

data_VOBJIG
_chemical_formula_moiety         'C20 H24 O2 S2'
_chemical_name_systematic        
2,6-Dioxa-9,13-dithia-1,7(1,2)-dibenzenacyclotetradecaphane
_symmetry_cell_setting           monoclinic
_symmetry_space_group_name_H-M   'P 21/n'
_symmetry_Int_Tables_number      14
_space_group_name_Hall           '-P 2yn'
loop_
_symmetry_equiv_pos_site_id
_symmetry_equiv_pos_as_xyz
1 x,y,z
2 1/2-x,1/2+y,1/2-z
3 -x,-y,-z
4 1/2+x,1/2-y,1/2+z
_cell_length_a                   11.6616(6)
_cell_length_b                   11.3384(6)
_cell_length_c                   14.1323(8)
_cell_angle_alpha                90
_cell_angle_beta                 96.6480(10)
_cell_angle_gamma                90
_cell_volume                     1856.06
_exptl_crystal_colour            colorless
_exptl_crystal_description       block
_cell_formula_units_Z            4
_exptl_crystal_recrystallization_method 'ethyl acetate'
_exptl_crystal_preparation       photoluminescent
loop_
_atom_site_label
_atom_site_type_symbol
_atom_site_fract_x
_atom_site_fract_y
_atom_site_fract_z
S1 S 0.34033(3) 0.76265(3) -0.28856(2)
S2 S 0.17451(3) 0.63959(3) 0.00973(3)
O1 O 0.38735(8) 0.91535(9) -0.03871(7)
O2 O 0.10276(8) 0.91234(9) -0.03115(7)
C1 C 0.25492(12) 1.04358(13) 0.02587(10)
H1 H 0.2186 1.0622 0.0840
H2 H 0.2983 1.1142 0.0092
C2 C 0.33862(12) 0.94291(13) 0.04728(10)
H3 H 0.4003 0.9660 0.0980
H4 H 0.2980 0.8733 0.0694
C3 C 0.46014(11) 0.82047(12) -0.03717(10)
C4 C 0.49916(12) 0.75810(13) 0.04541(10)
H5 H 0.4749 0.7803 0.1048
C5 C 0.57352(13) 0.66357(14) 0.04037(11)
H6 H 0.5995 0.6206 0.0965
C6 C 0.61020(13) 0.63114(14) -0.04538(12)
H7 H 0.6618 0.5668 -0.0483
C7 C 0.57092(12) 0.69350(14) -0.12706(11)
H8 H 0.5962 0.6713 -0.1860
C8 C 0.49530(11) 0.78783(12) -0.12455(10)
C9 C 0.44749(12) 0.84966(13) -0.21483(10)
H9 H 0.5118 0.8686 -0.2522
H10 H 0.4119 0.9250 -0.1981
C10 C 0.23981(12) 0.72011(13) -0.20548(10)
H11 H 0.2437 0.7790 -0.1535
H12 H 0.1605 0.7216 -0.2390
C11 C 0.26332(12) 0.59809(12) -0.16213(10)
H13 H 0.3389 0.5991 -0.1222
H14 H 0.2683 0.5404 -0.2141
C12 C 0.17042(12) 0.55771(13) -0.10128(10)
H15 H 0.1812 0.4728 -0.0867
H16 H 0.0935 0.5677 -0.1381
C13 C 0.02533(12) 0.69001(13) 0.00818(11)
H17 H -0.0246 0.6206 0.0150
H18 H 0.0203 0.7416 0.0640
C14 C -0.02059(11) 0.75608(13) -0.08024(10)
C15 C -0.10567(13) 0.70709(16) -0.14545(12)
H19 H -0.1364 0.6318 -0.1330
C16 C -0.14647(14) 0.76626(17) -0.22855(12)
H20 H -0.2049 0.7318 -0.2723
C17 C -0.10187(13) 0.87504(17) -0.24728(11)
H21 H -0.1292 0.9150 -0.3046
C18 C -0.01723(12) 0.92727(14) -0.18337(10)
H22 H 0.0133 1.0024 -0.1967
C19 C 0.02224(11) 0.86799(13) -0.09947(10)
C20 C 0.16135(11) 1.01790(12) -0.05429(10)
H23 H 0.1062 1.0845 -0.0624
H24 H 0.1955 1.0071 -0.1147
loop_
_geom_bond_atom_site_label_1
_geom_bond_atom_site_label_2
_geom_bond_site_symmetry_1
_geom_bond_site_symmetry_2
S1 C9 1_555 1_555
S2 C12 1_555 1_555
O1 C2 1_555 1_555
O2 C19 1_555 1_555
C1 H1 1_555 1_555
H2 C1 1_555 1_555
C2 C1 1_555 1_555
H3 C2 1_555 1_555
H4 C2 1_555 1_555
C3 O1 1_555 1_555
C4 C3 1_555 1_555
H5 C4 1_555 1_555
C5 C4 1_555 1_555
H6 C5 1_555 1_555
C6 C5 1_555 1_555
H7 C6 1_555 1_555
C7 C6 1_555 1_555
H8 C7 1_555 1_555
C8 C3 1_555 1_555
C9 C8 1_555 1_555
H9 C9 1_555 1_555
H10 C9 1_555 1_555
C10 S1 1_555 1_555
H11 C10 1_555 1_555
H12 C10 1_555 1_555
C11 C10 1_555 1_555
H13 C11 1_555 1_555
H14 C11 1_555 1_555
C12 C11 1_555 1_555
H15 C12 1_555 1_555
H16 C12 1_555 1_555
C13 S2 1_555 1_555
H17 C13 1_555 1_555
H18 C13 1_555 1_555
C14 C13 1_555 1_555
C15 C14 1_555 1_555
H19 C15 1_555 1_555
C16 C15 1_555 1_555
H20 C16 1_555 1_555
C17 C16 1_555 1_555
H21 C17 1_555 1_555
C18 C17 1_555 1_555
H22 C18 1_555 1_555
C19 C14 1_555 1_555
C20 O2 1_555 1_555
H23 C20 1_555 1_555
H24 C20 1_555 1_555
C1 C20 1_555 1_555
C7 C8 1_555 1_555
C18 C19 1_555 1_555

#END
