
#######################################################################
#
#                 Cambridge Crystallographic Data Centre
#                                CCDC 
#
#######################################################################
#
# If this CIF has been generated from an entry in the Cambridge 
# Structural Database, then it will include bibliographic, chemical, 
# crystal, experimental, refinement or atomic coordinate data resulting 
# from the CCDC's data processing and validation procedures.
#
#######################################################################

data_VOBRIP
_chemical_formula_moiety         'C18 H14 F6 N2'
_chemical_name_systematic        
bis(3,3,3-Trifluoro-1-phenylpropylidene)hydrazine
_symmetry_cell_setting           monoclinic
_symmetry_space_group_name_H-M   'P 21/n'
_symmetry_Int_Tables_number      14
_space_group_name_Hall           '-P 2yn'
loop_
_symmetry_equiv_pos_site_id
_symmetry_equiv_pos_as_xyz
1 x,y,z
2 1/2-x,1/2+y,1/2-z
3 -x,-y,-z
4 1/2+x,1/2-y,1/2+z
_cell_length_a                   5.0722(4)
_cell_length_b                   16.4935(19)
_cell_length_c                   9.7980(9)
_cell_angle_alpha                90
_cell_angle_beta                 96.202(5)
_cell_angle_gamma                90
_cell_volume                     814.887
_exptl_crystal_colour            yellow
_exptl_crystal_description       plate
_cell_formula_units_Z            2
loop_
_atom_site_label
_atom_site_type_symbol
_atom_site_fract_x
_atom_site_fract_y
_atom_site_fract_z
C1 C 0.3410(4) 0.45158(16) 0.3613(2)
C2 C 0.4825(4) 0.48771(17) 0.2469(2)
H1 H 0.6654 0.5025 0.2841
H2 H 0.4947 0.4461 0.175
C3 C 0.3486(5) 0.56037(19) 0.1834(2)
C4 C 0.1320(4) 0.39001(16) 0.3312(2)
C5 C 0.0585(5) 0.36101(17) 0.1985(2)
H3 H 0.145 0.3811 0.1241
C6 C -0.1382(5) 0.30351(18) 0.1746(3)
H4 H -0.186 0.2844 0.0838
C7 C -0.2664(5) 0.27346(19) 0.2809(3)
H5 H -0.4021 0.2339 0.2637
C8 C -0.1957(5) 0.30142(19) 0.4127(3)
H6 H -0.2825 0.2807 0.4866
C9 C -0.0009(5) 0.35887(17) 0.4375(3)
H7 H 0.0446 0.3779 0.5285
F1 F 0.1027(3) 0.54592(12) 0.12415(18)
F2 F 0.4822(4) 0.59091(11) 0.08411(16)
F3 F 0.3252(3) 0.62092(11) 0.27123(16)
N1 N 0.3992(4) 0.47128(14) 0.48876(19)
C1B C 0.6590(4) 0.54842(16) 0.6387(2)
C2B C 0.5175(4) 0.51229(17) 0.7531(2)
H1B H 0.3346 0.4975 0.7159
H2B H 0.5053 0.5539 0.825
C3B C 0.6514(5) 0.43963(19) 0.8166(2)
C4B C 0.8680(4) 0.60999(16) 0.6688(2)
C5B C 0.9415(5) 0.63899(17) 0.8015(2)
H3B H 0.855 0.6189 0.8759
C6B C 1.1382(5) 0.69649(18) 0.8254(3)
H4B H 1.186 0.7156 0.9162
C7B C 1.2664(5) 0.72654(19) 0.7191(3)
H5B H 1.4021 0.7661 0.7363
C8B C 1.1957(5) 0.69858(19) 0.5873(3)
H6B H 1.2825 0.7193 0.5134
C9B C 1.0009(5) 0.64113(17) 0.5625(3)
H7B H 0.9554 0.6221 0.4715
F1B F 0.8973(3) 0.45408(12) 0.87585(18)
F2B F 0.5178(4) 0.40909(11) 0.91589(16)
F3B F 0.6748(3) 0.37908(11) 0.72877(16)
N1B N 0.6008(4) 0.52872(14) 0.51124(19)
loop_
_geom_bond_atom_site_label_1
_geom_bond_atom_site_label_2
_geom_bond_site_symmetry_1
_geom_bond_site_symmetry_2
C1 C2 1_555 1_555
C2 H1 1_555 1_555
H2 C2 1_555 1_555
C3 C2 1_555 1_555
C4 C1 1_555 1_555
C5 C4 1_555 1_555
H3 C5 1_555 1_555
C6 C5 1_555 1_555
H4 C6 1_555 1_555
C7 C6 1_555 1_555
H5 C7 1_555 1_555
C8 C7 1_555 1_555
H6 C8 1_555 1_555
C9 C4 1_555 1_555
H7 C9 1_555 1_555
F1 C3 1_555 1_555
F2 C3 1_555 1_555
F3 C3 1_555 1_555
N1 C1 1_555 1_555
C1B C2B 1_555 1_555
C2B H1B 1_555 1_555
H2B C2B 1_555 1_555
C3B C2B 1_555 1_555
C4B C1B 1_555 1_555
C5B C4B 1_555 1_555
H3B C5B 1_555 1_555
C6B C5B 1_555 1_555
H4B C6B 1_555 1_555
C7B C6B 1_555 1_555
H5B C7B 1_555 1_555
C8B C7B 1_555 1_555
H6B C8B 1_555 1_555
C9B C4B 1_555 1_555
H7B C9B 1_555 1_555
F1B C3B 1_555 1_555
F2B C3B 1_555 1_555
F3B C3B 1_555 1_555
N1B N1 1_555 1_555
C8 C9 1_555 1_555
C1B N1B 1_555 1_555
C8B C9B 1_555 1_555

#END
