
#######################################################################
#
#                 Cambridge Crystallographic Data Centre
#                                CCDC 
#
#######################################################################
#
# If this CIF has been generated from an entry in the Cambridge 
# Structural Database, then it will include bibliographic, chemical, 
# crystal, experimental, refinement or atomic coordinate data resulting 
# from the CCDC's data processing and validation procedures.
#
#######################################################################

data_VOBSIO
_chemical_name_common            
"Sodium tris(2,2'-bipyridine)cryptatium acetonitrile solvate"
_chemical_formula_moiety         'C36 H30 N8 Na1,C2 H3 N1'
_chemical_name_systematic        
"(tris(6,6'-(2,2'-Bipyridine)dimethyl)diamine cryptand radical anion)-sodium(i) acetonitrile solvate"
_symmetry_cell_setting           tetragonal
_symmetry_space_group_name_H-M   'I 41'
_symmetry_Int_Tables_number      80
_space_group_name_Hall           'I 4bw'
loop_
_symmetry_equiv_pos_site_id
_symmetry_equiv_pos_as_xyz
1 x,y,z
2 1/2+x,1/2+y,1/2+z
3 -y,1/2+x,1/4+z
4 1/2-y,x,3/4+z
5 -x,-y,z
6 1/2-x,1/2-y,1/2+z
7 y,1/2-x,1/4+z
8 1/2+y,-x,3/4+z
_cell_length_a                   14.685(4)
_cell_length_b                   14.685(4)
_cell_length_c                   14.731(4)
_cell_angle_alpha                90
_cell_angle_beta                 90
_cell_angle_gamma                90
_cell_volume                     3176.73
_exptl_crystal_colour            'deep blue-violet'
_cell_formula_units_Z            4
_chemical_properties_physical    'Highly air-sensitive'
loop_
_atom_site_label
_atom_site_type_symbol
_atom_site_fract_x
_atom_site_fract_y
_atom_site_fract_z
Na1 Na 1.0000 0.0000 0.703
N1 N 1.0089(2) 0.0929(2) 0.5544(2)
C1 C 1.0147(3) 0.1833(3) 0.5542(3)
C2 C 1.0190(3) 0.2364(3) 0.4758(3)
C3 C 1.0182(4) 0.1921(3) 0.3925(3)
C4 C 1.0116(3) 0.1013(3) 0.3903(3)
C5 C 1.0042(2) 0.0479(3) 0.4713(3)
C6 C 1.0192(3) 0.2296(3) 0.6445(3)
N2 N 0.9641(2) 0.1854(2) 0.7142(2)
C7 C 0.8684(3) 0.1971(2) 0.6924(3)
C8 C 0.8096(2) 0.1467(2) 0.7574(3)
C9 C 0.7346(3) 0.1870(3) 0.7994(3)
C10 C 0.6857(3) 0.1387(3) 0.8631(3)
C11 C 0.7117(3) 0.0507(3) 0.8818(3)
C12 C 0.7839(3) 0.0122(3) 0.8345(3)
N3 N 0.8317(2) 0.0598(2) 0.7727(2)
C13 C 0.8109(3) -0.0836(2) 0.8511(3)
C14 C 0.7528(3) -0.1438(3) 0.8944(3)
C15 C 0.7822(3) -0.2322(3) 0.9093(3)
C16 C 0.8661(3) -0.2576(3) 0.8793(3)
C17 C 0.9201(3) -0.1957(2) 0.8352(3)
N4 N 0.8951(2) -0.1088(2) 0.8219(2)
C18 C 0.9862(3) 0.2218(3) 0.8041(3)
H1 H 1.0223 0.3009 0.4792
H2 H 1.0223 0.2259 0.3376
H3 H 1.0118 0.0712 0.3332
H4 H 0.9984 0.2904 0.6374
H5 H 1.0808 0.2300 0.6642
H6 H 0.8574 0.1748 0.6328
H7 H 0.8536 0.2600 0.6950
H8 H 0.7172 0.2474 0.7842
H9 H 0.6352 0.1655 0.8934
H10 H 0.6804 0.0163 0.9267
H11 H 0.6940 -0.1248 0.9135
H12 H 0.7442 -0.2745 0.9400
H13 H 0.8872 -0.3180 0.8889
H14 H 0.9431 0.1991 0.8465
H15 H 0.9824 0.2863 0.8018
N1D N 0.9911(2) -0.0929(2) 0.5544(2)
N2D N 1.0359(2) -0.1854(2) 0.7142(2)
N3D N 1.1683(2) -0.0598(2) 0.7727(2)
N4D N 1.1049(2) 0.1088(2) 0.8219(2)
C5D C 0.9958(2) -0.0479(3) 0.4713(3)
C18D C 1.0138(3) -0.2218(3) 0.8041(3)
C17D C 1.0799(3) 0.1957(2) 0.8352(3)
C1D C 0.9853(3) -0.1833(3) 0.5542(3)
C6D C 0.9808(3) -0.2296(3) 0.6445(3)
C7D C 1.1316(3) -0.1971(2) 0.6924(3)
C8D C 1.1904(2) -0.1467(2) 0.7574(3)
C12D C 1.2161(3) -0.0122(3) 0.8345(3)
C13D C 1.1891(3) 0.0836(2) 0.8511(3)
C4D C 0.9884(3) -0.1013(3) 0.3903(3)
H14D H 1.0569 -0.1991 0.8465
H15D H 1.0176 -0.2863 0.8018
C16D C 1.1339(3) 0.2576(3) 0.8793(3)
C2D C 0.9810(3) -0.2364(3) 0.4758(3)
H4D H 1.0016 -0.2904 0.6374
H5D H 0.9192 -0.2300 0.6642
H6D H 1.1426 -0.1748 0.6328
H7D H 1.1464 -0.2600 0.6950
C9D C 1.2654(3) -0.1870(3) 0.7994(3)
C11D C 1.2883(3) -0.0507(3) 0.8818(3)
C14D C 1.2472(3) 0.1438(3) 0.8944(3)
C3D C 0.9818(4) -0.1921(3) 0.3925(3)
H3D H 0.9882 -0.0712 0.3332
C15D C 1.2178(3) 0.2322(3) 0.9093(3)
H13D H 1.1128 0.3180 0.8889
H1D H 0.9777 -0.3009 0.4792
C10D C 1.3143(3) -0.1387(3) 0.8631(3)
H8D H 1.2828 -0.2474 0.7842
H10D H 1.3196 -0.0163 0.9267
H11D H 1.3060 0.1248 0.9135
H2D H 0.9777 -0.2259 0.3376
H12D H 1.2558 0.2745 0.9400
H9D H 1.3648 -0.1655 0.8934
N5 N 0.0000 0.0000 -0.0070(8)
C19 C 0.0000 0.0000 0.0874(6)
C20 C 0.0000 0.0000 0.1596(6)
loop_
_geom_bond_atom_site_label_1
_geom_bond_atom_site_label_2
_geom_bond_site_symmetry_1
_geom_bond_site_symmetry_2
Na1 N1 1_555 1_555
N1 C1 1_555 1_555
C1 C2 1_555 1_555
C2 C3 1_555 1_555
C3 C4 1_555 1_555
C4 C5 1_555 1_555
C5 N1 1_555 1_555
C6 C1 1_555 1_555
N2 Na1 1_555 1_555
C7 N2 1_555 1_555
C8 C7 1_555 1_555
C9 C8 1_555 1_555
C10 C9 1_555 1_555
C11 C10 1_555 1_555
C12 C11 1_555 1_555
N3 Na1 1_555 1_555
C13 C12 1_555 1_555
C14 C13 1_555 1_555
C15 C14 1_555 1_555
C16 C15 1_555 1_555
C17 C16 1_555 1_555
N4 Na1 1_555 1_555
C18 N2 1_555 1_555
H1 C2 1_555 1_555
H2 C3 1_555 1_555
H3 C4 1_555 1_555
H4 C6 1_555 1_555
H5 C6 1_555 1_555
H6 C7 1_555 1_555
H7 C7 1_555 1_555
H8 C9 1_555 1_555
H9 C10 1_555 1_555
H10 C11 1_555 1_555
H11 C14 1_555 1_555
H12 C15 1_555 1_555
H13 C16 1_555 1_555
H14 C18 1_555 1_555
H15 C18 1_555 1_555
N5 C19 1_555 1_555
C19 C20 1_555 1_555
N1D Na1 1_555 1_555
N2D Na1 1_555 1_555
N3D Na1 1_555 1_555
N4D Na1 1_555 1_555
C5D C5 1_555 1_555
C18D C17 1_555 1_555
C17D C18 1_555 1_555
C1D N1D 1_555 1_555
C6D N2D 1_555 1_555
C7D N2D 1_555 1_555
C8D N3D 1_555 1_555
C12D N3D 1_555 1_555
C13D N4D 1_555 1_555
C4D C5D 1_555 1_555
H14D C18D 1_555 1_555
H15D C18D 1_555 1_555
C16D C17D 1_555 1_555
C2D C1D 1_555 1_555
H4D C6D 1_555 1_555
H5D C6D 1_555 1_555
H6D C7D 1_555 1_555
H7D C7D 1_555 1_555
C9D C8D 1_555 1_555
C11D C12D 1_555 1_555
C14D C13D 1_555 1_555
C3D C4D 1_555 1_555
H3D C4D 1_555 1_555
C15D C16D 1_555 1_555
H13D C16D 1_555 1_555
H1D C2D 1_555 1_555
C10D C9D 1_555 1_555
H8D C9D 1_555 1_555
H10D C11D 1_555 1_555
H11D C14D 1_555 1_555
H2D C3D 1_555 1_555
H12D C15D 1_555 1_555
H9D C10D 1_555 1_555
C6 N2 1_555 1_555
C8 N3 1_555 1_555
C12 N3 1_555 1_555
C13 N4 1_555 1_555
C17 N4 1_555 1_555
N1D C5D 1_555 1_555
N2D C18D 1_555 1_555
N4D C17D 1_555 1_555
C1D C6D 1_555 1_555
C7D C8D 1_555 1_555
C12D C13D 1_555 1_555
C2D C3D 1_555 1_555
C11D C10D 1_555 1_555
C14D C15D 1_555 1_555

#END
