
#######################################################################
#
#                 Cambridge Crystallographic Data Centre
#                                CCDC 
#
#######################################################################
#
# If this CIF has been generated from an entry in the Cambridge 
# Structural Database, then it will include bibliographic, chemical, 
# crystal, experimental, refinement or atomic coordinate data resulting 
# from the CCDC's data processing and validation procedures.
#
#######################################################################

data_VOBTIR
_chemical_formula_moiety         'C24 H18 Br2 N2 O4'
_chemical_name_systematic        
'bis(2-Bromoethyl) 15,16-dicyanotetracyclo[6.6.2.0^2,7^.0^9,14^]hexadeca-2,4,6,9,11,13-hexaene-15,16-dicarboxylate'
_symmetry_cell_setting           triclinic
_symmetry_space_group_name_H-M   'P -1'
_symmetry_Int_Tables_number      2
_space_group_name_Hall           '-P 1'
loop_
_symmetry_equiv_pos_site_id
_symmetry_equiv_pos_as_xyz
1 x,y,z
2 -x,-y,-z
_cell_length_a                   9.1585(4)
_cell_length_b                   10.6984(4)
_cell_length_c                   12.9679(4)
_cell_angle_alpha                71.118(2)
_cell_angle_beta                 70.036(2)
_cell_angle_gamma                72.006(2)
_cell_volume                     1101.51
_exptl_crystal_colour            colorless
_exptl_crystal_description       prism
_chemical_melting_point          '133-135 deg.C'
_cell_formula_units_Z            2
_exptl_crystal_recrystallization_method 'chloroform/di-isopropyl ether'
loop_
_atom_site_label
_atom_site_type_symbol
_atom_site_fract_x
_atom_site_fract_y
_atom_site_fract_z
C1 C 0.7280(3) 0.1916(2) 0.1441(2)
C2 C 0.8885(3) 0.1916(3) 0.0993(2)
H1 H 0.9466 0.1640 0.0311
C3 C 0.9633(3) 0.2329(3) 0.1560(2)
H2 H 1.0728 0.2353 0.1253
C4 C 0.8787(3) 0.2706(3) 0.2573(2)
H3 H 0.9311 0.2989 0.2948
C5 C 0.7187(3) 0.2673(3) 0.3038(2)
H4 H 0.6615 0.2914 0.3735
C6 C 0.6438(3) 0.2281(2) 0.2464(2)
C7 C 0.4718(3) 0.2165(2) 0.2853(2)
H5 H 0.4140 0.2432 0.3583
C8 C 0.3967(3) 0.3053(2) 0.1907(2)
C9 C 0.2625(3) 0.4107(3) 0.2008(2)
H6 H 0.2043 0.4287 0.2726
C10 C 0.2148(3) 0.4896(3) 0.1041(2)
H7 H 0.1244 0.5631 0.1098
C11 C 0.2979(3) 0.4618(3) -0.0002(2)
H8 H 0.2636 0.5160 -0.0655
C12 C 0.4313(3) 0.3550(3) -0.0105(2)
H9 H 0.4871 0.3347 -0.0818
C13 C 0.4814(3) 0.2785(3) 0.0857(2)
C14 C 0.6246(3) 0.1607(3) 0.0901(2)
H10 H 0.6845 0.1449 0.0133
C15 C 0.5538(3) 0.0353(2) 0.1719(2)
C16 C 0.4261(3) 0.0255(3) 0.1309(2)
C17 C 0.6851(3) -0.0966(3) 0.1700(2)
C18 C 0.7363(4) -0.3350(3) 0.2161(3)
H11 H 0.8175 -0.3284 0.1421
H12 H 0.6804 -0.4054 0.2255
C19 C 0.8181(4) -0.3774(3) 0.3087(3)
H13 H 0.8567 -0.3003 0.3082
H14 H 0.9119 -0.4524 0.2937
C20 C 0.4789(3) 0.0631(2) 0.2962(2)
C21 C 0.5845(3) -0.0235(3) 0.3686(2)
C22 C 0.3113(3) 0.0317(3) 0.3524(2)
C23 C 0.1744(3) -0.1473(3) 0.4354(2)
H15 H 0.1045 -0.0923 0.4897
H16 H 0.1972 -0.2429 0.4784
C24 C 0.0883(4) -0.1356(3) 0.3515(3)
H17 H 0.0818 -0.0441 0.2995
H18 H -0.0217 -0.1471 0.3922
N1 N 0.3285(3) 0.0225(2) 0.09664(19)
N2 N 0.6691(3) -0.0875(2) 0.42334(19)
O1 O 0.8238(2) -0.0976(2) 0.13225(16)
O2 O 0.6221(2) -0.20561(19) 0.21607(16)
O3 O 0.1910(2) 0.11703(19) 0.36593(15)
O4 O 0.3233(2) -0.10204(18) 0.38130(15)
Br1 Br 0.67900(6) -0.43593(4) 0.45614(3)
Br2 Br 0.19701(4) -0.27161(3) 0.26416(3)
loop_
_geom_bond_atom_site_label_1
_geom_bond_atom_site_label_2
_geom_bond_site_symmetry_1
_geom_bond_site_symmetry_2
C1 C2 1_555 1_555
C2 H1 1_555 1_555
C3 C2 1_555 1_555
H2 C3 1_555 1_555
C4 C3 1_555 1_555
H3 C4 1_555 1_555
C5 C4 1_555 1_555
H4 C5 1_555 1_555
C6 C1 1_555 1_555
C7 C6 1_555 1_555
H5 C7 1_555 1_555
C8 C7 1_555 1_555
C9 C8 1_555 1_555
H6 C9 1_555 1_555
C10 C9 1_555 1_555
H7 C10 1_555 1_555
C11 C10 1_555 1_555
H8 C11 1_555 1_555
C12 C11 1_555 1_555
H9 C12 1_555 1_555
C13 C8 1_555 1_555
C14 C1 1_555 1_555
H10 C14 1_555 1_555
C15 C14 1_555 1_555
C16 C15 1_555 1_555
C17 C15 1_555 1_555
C18 H11 1_555 1_555
H12 C18 1_555 1_555
C19 C18 1_555 1_555
H13 C19 1_555 1_555
H14 C19 1_555 1_555
C20 C7 1_555 1_555
C21 C20 1_555 1_555
C22 C20 1_555 1_555
C23 H15 1_555 1_555
H16 C23 1_555 1_555
C24 C23 1_555 1_555
H17 C24 1_555 1_555
H18 C24 1_555 1_555
N1 C16 1_555 1_555
N2 C21 1_555 1_555
O1 C17 1_555 1_555
O2 C17 1_555 1_555
O3 C22 1_555 1_555
O4 C22 1_555 1_555
Br1 C19 1_555 1_555
Br2 C24 1_555 1_555
C5 C6 1_555 1_555
C12 C13 1_555 1_555
C13 C14 1_555 1_555
C15 C20 1_555 1_555
C18 O2 1_555 1_555
C23 O4 1_555 1_555

#END
