
#######################################################################
#
#                 Cambridge Crystallographic Data Centre
#                                CCDC 
#
#######################################################################
#
# If this CIF has been generated from an entry in the Cambridge 
# Structural Database, then it will include bibliographic, chemical, 
# crystal, experimental, refinement or atomic coordinate data resulting 
# from the CCDC's data processing and validation procedures.
#
#######################################################################

data_VOBTOX
_chemical_formula_moiety         'C26 H22 Br2 N2 O4'
_chemical_name_systematic        
'bis(2-Bromoethyl) 15,16-dicyano-1,8-dimethyltetracyclo[6.6.2.0^2,7^.0^9,14^]hexadeca-2,4,6,9,11,13-hexaene-15,16-dicarboxylate'
_symmetry_cell_setting           triclinic
_symmetry_space_group_name_H-M   'P -1'
_symmetry_Int_Tables_number      2
_space_group_name_Hall           '-P 1'
loop_
_symmetry_equiv_pos_site_id
_symmetry_equiv_pos_as_xyz
1 x,y,z
2 -x,-y,-z
_cell_length_a                   8.6803(5)
_cell_length_b                   12.0174(7)
_cell_length_c                   12.8522(6)
_cell_angle_alpha                103.893(3)
_cell_angle_beta                 109.426(3)
_cell_angle_gamma                99.204(3)
_cell_volume                     1184.51
_exptl_crystal_colour            colorless
_exptl_crystal_description       block
_chemical_melting_point          '155-157 deg.C'
_cell_formula_units_Z            2
_exptl_crystal_recrystallization_method chloroform/n-heptane
loop_
_atom_site_label
_atom_site_type_symbol
_atom_site_fract_x
_atom_site_fract_y
_atom_site_fract_z
C1 C 0.0287(4) 0.1560(3) 0.4401(3)
C2 C 0.0802(5) 0.1660(4) 0.5574(3)
H1 H 0.0197 0.1983 0.6013
C3 C 0.2203(5) 0.1285(4) 0.6092(4)
H2 H 0.2568 0.1360 0.6895
C4 C 0.3079(5) 0.0806(4) 0.5463(4)
H3 H 0.4038 0.0549 0.5831
C5 C 0.2565(5) 0.0697(4) 0.4294(4)
H4 H 0.3167 0.0363 0.3858
C6 C 0.1174(4) 0.1078(3) 0.3763(3)
C7 C 0.0484(4) 0.1029(4) 0.2493(3)
C8 C 0.1391(5) 0.0439(4) 0.1779(4)
H5 H 0.1221 -0.0399 0.1737
H6 H 0.2604 0.0838 0.2148
H7 H 0.0933 0.0498 0.0993
C9 C -0.1420(5) 0.0436(4) 0.2000(3)
C10 C -0.2278(5) -0.0555(4) 0.1028(3)
H8 H -0.1687 -0.0918 0.0598
C11 C -0.4007(5) -0.1017(4) 0.0684(4)
H9 H -0.4598 -0.1695 0.0015
C12 C -0.4873(5) -0.0496(4) 0.1307(4)
H10 H -0.6055 -0.0816 0.1068
C13 C -0.4016(5) 0.0495(4) 0.2282(3)
H11 H -0.4609 0.0860 0.2709
C14 C -0.2291(4) 0.0949(3) 0.2630(3)
C15 C -0.1186(4) 0.1990(3) 0.3727(3)
C16 C -0.2139(5) 0.2501(4) 0.4442(3)
H12 H -0.3043 0.2774 0.3964
H13 H -0.1357 0.3171 0.5118
H14 H -0.2633 0.1886 0.4706
C17 C -0.0323(4) 0.2965(3) 0.3302(3)
C18 C 0.0965(5) 0.3891(4) 0.4365(3)
C19 C -0.1583(5) 0.3578(4) 0.2646(3)
C20 C -0.1723(5) 0.5348(4) 0.2141(4)
H15 H -0.1113 0.6199 0.2523
H16 H -0.2824 0.5228 0.2226
C21 C -0.2017(6) 0.5010(4) 0.0875(4)
H17 H -0.2817 0.4213 0.0450
H18 H -0.0939 0.4997 0.0771
C22 C 0.0591(4) 0.2362(4) 0.2498(3)
C23 C -0.0291(5) 0.2339(4) 0.1276(4)
C24 C 0.2455(5) 0.3118(4) 0.2933(3)
C25 C 0.4140(5) 0.4915(4) 0.2990(4)
H19 H 0.4497 0.4895 0.2332
H20 H 0.4990 0.4688 0.3576
C26 C 0.4044(6) 0.6129(4) 0.3512(4)
H21 H 0.5205 0.6660 0.3921
H22 H 0.3539 0.6114 0.4097
N1 N 0.1929(4) 0.4567(3) 0.5208(3)
N2 N -0.0951(4) 0.2286(3) 0.0332(3)
O1 O -0.3074(3) 0.3147(3) 0.2144(2)
O2 O -0.0744(3) 0.4638(2) 0.2696(2)
O3 O 0.3643(3) 0.2872(3) 0.3526(3)
O4 O 0.2483(3) 0.4072(3) 0.2579(2)
Br1 Br -0.29662(8) 0.62141(5) 0.02995(5)
Br2 Br 0.27177(7) 0.67772(5) 0.23790(5)
loop_
_geom_bond_atom_site_label_1
_geom_bond_atom_site_label_2
_geom_bond_site_symmetry_1
_geom_bond_site_symmetry_2
C1 C2 1_555 1_555
C2 H1 1_555 1_555
C3 C2 1_555 1_555
H2 C3 1_555 1_555
C4 C3 1_555 1_555
H3 C4 1_555 1_555
C5 C4 1_555 1_555
H4 C5 1_555 1_555
C6 C1 1_555 1_555
C7 C6 1_555 1_555
C8 C7 1_555 1_555
H5 C8 1_555 1_555
H6 C8 1_555 1_555
H7 C8 1_555 1_555
C9 C7 1_555 1_555
C10 C9 1_555 1_555
H8 C10 1_555 1_555
C11 C10 1_555 1_555
H9 C11 1_555 1_555
C12 C11 1_555 1_555
H10 C12 1_555 1_555
C13 C12 1_555 1_555
H11 C13 1_555 1_555
C14 C9 1_555 1_555
C15 C1 1_555 1_555
C16 C15 1_555 1_555
H12 C16 1_555 1_555
H13 C16 1_555 1_555
H14 C16 1_555 1_555
C17 C15 1_555 1_555
C18 C17 1_555 1_555
C19 C17 1_555 1_555
C20 H15 1_555 1_555
H16 C20 1_555 1_555
C21 C20 1_555 1_555
H17 C21 1_555 1_555
H18 C21 1_555 1_555
C22 C7 1_555 1_555
C23 C22 1_555 1_555
C24 C22 1_555 1_555
C25 H19 1_555 1_555
H20 C25 1_555 1_555
C26 C25 1_555 1_555
H21 C26 1_555 1_555
H22 C26 1_555 1_555
N1 C18 1_555 1_555
N2 C23 1_555 1_555
O1 C19 1_555 1_555
O2 C19 1_555 1_555
O3 C24 1_555 1_555
O4 C24 1_555 1_555
Br1 C21 1_555 1_555
Br2 C26 1_555 1_555
C5 C6 1_555 1_555
C13 C14 1_555 1_555
C14 C15 1_555 1_555
C17 C22 1_555 1_555
C20 O2 1_555 1_555
C25 O4 1_555 1_555

#END
