
#######################################################################
#
#                 Cambridge Crystallographic Data Centre
#                                CCDC 
#
#######################################################################
#
# If this CIF has been generated from an entry in the Cambridge 
# Structural Database, then it will include bibliographic, chemical, 
# crystal, experimental, refinement or atomic coordinate data resulting 
# from the CCDC's data processing and validation procedures.
#
#######################################################################

data_VOBWEP01
_chemical_formula_moiety         'C2 N10 2-,2(C2 H7 N6 1+),2(H2 O1)'
_chemical_name_systematic        
"bis(1,5-diamino-4-methyltetrazolium) 5,5'-(diazenediyl)bis(tetrazolate) dihydrate"
_symmetry_cell_setting           triclinic
_symmetry_space_group_name_H-M   'P -1'
_symmetry_Int_Tables_number      2
_space_group_name_Hall           '-P 1'
loop_
_symmetry_equiv_pos_site_id
_symmetry_equiv_pos_as_xyz
1 x,y,z
2 -x,-y,-z
_cell_length_a                   7.424(3)
_cell_length_b                   8.120(3)
_cell_length_c                   9.086(4)
_cell_angle_alpha                108.541(4)
_cell_angle_beta                 112.646(4)
_cell_angle_gamma                98.946(2)
_cell_volume                     454.443
_exptl_crystal_colour            yellow
_exptl_crystal_description       Prism
_cell_formula_units_Z            1
loop_
_atom_site_label
_atom_site_type_symbol
_atom_site_fract_x
_atom_site_fract_y
_atom_site_fract_z
O1 O 0.34161(17) 0.71890(15) 0.49326(14)
H1 H 0.462(3) 0.730(3) 0.589(3)
H2 H 0.307(3) 0.613(3) 0.400(3)
N1 N 0.36960(18) 0.23145(15) 0.71471(15)
N2 N 0.36435(19) 0.40434(16) 0.79260(15)
N3 N 0.22669(19) 0.43546(16) 0.67813(15)
N4 N 0.13981(17) 0.28165(15) 0.52323(14)
N5 N -0.0317(2) 0.25422(17) 0.37152(16)
N6 N 0.17985(19) -0.01144(17) 0.42645(16)
C1 C 0.2273(2) 0.15257(18) 0.54559(17)
C2 C 0.5045(2) 0.1520(2) 0.81445(18)
H3 H 0.4215 0.0487 0.8184
H4 H 0.5955 0.2449 0.9340
H5 H 0.5876 0.1088 0.7582
H6 H -0.133(3) 0.283(2) 0.400(2)
H7 H 0.007(3) 0.325(2) 0.323(2)
H8 H 0.245(3) -0.095(2) 0.453(2)
H9 H 0.082(3) -0.046(2) 0.316(2)
N7 N 0.77021(18) 0.61461(16) 0.79508(15)
N8 N 0.68680(18) 0.74868(16) 0.78593(15)
N9 N 0.74961(18) 0.87490(16) 0.94499(15)
N10 N 0.87617(18) 0.82543(16) 1.06236(15)
N11 N 1.00682(17) 0.57667(15) 1.05218(14)
C3 C 0.8847(2) 0.66653(18) 0.96669(17)
N7A N 1.22979(18) 0.38539(16) 1.20492(15)
N8A N 1.31320(18) 0.25132(16) 1.21407(15)
N9A N 1.25039(18) 0.12510(16) 1.05501(15)
N10A N 1.12383(18) 0.17457(16) 0.93764(15)
N11A N 0.99318(17) 0.42333(15) 0.94782(14)
C3A C 1.1153(2) 0.33347(18) 1.03331(17)
loop_
_geom_bond_atom_site_label_1
_geom_bond_atom_site_label_2
_geom_bond_site_symmetry_1
_geom_bond_site_symmetry_2
O1 H1 1_555 1_555
H2 O1 1_555 1_555
N1 N2 1_555 1_555
N2 N3 1_555 1_555
N3 N4 1_555 1_555
N4 N5 1_555 1_555
N5 H6 1_555 1_555
N6 C1 1_555 1_555
C1 N1 1_555 1_555
C2 N1 1_555 1_555
H3 C2 1_555 1_555
H4 C2 1_555 1_555
H5 C2 1_555 1_555
H7 N5 1_555 1_555
H8 N6 1_555 1_555
H9 N6 1_555 1_555
N7 N8 1_555 1_555
N8 N9 1_555 1_555
N9 N10 1_555 1_555
N10 C3 1_555 1_555
N11 C3 1_555 1_555
C3 N7 1_555 1_555
N7A N8A 1_555 1_555
N8A N9A 1_555 1_555
N9A N10A 1_555 1_555
N10A C3A 1_555 1_555
N11A N11 1_555 1_555
C3A N7A 1_555 1_555
N4 C1 1_555 1_555
N11A C3A 1_555 1_555

#END
