
#######################################################################
#
#                 Cambridge Crystallographic Data Centre
#                                CCDC 
#
#######################################################################
#
# If this CIF has been generated from an entry in the Cambridge 
# Structural Database, then it will include bibliographic, chemical, 
# crystal, experimental, refinement or atomic coordinate data resulting 
# from the CCDC's data processing and validation procedures.
#
#######################################################################

data_VOBXIU
_chemical_formula_moiety         'C6 H12 N2 O3,H2 O1'
_chemical_name_systematic        '\b-alanyl-L-alanine monohydrate'
_symmetry_cell_setting           triclinic
_symmetry_space_group_name_H-M   'P -1'
_symmetry_Int_Tables_number      2
_space_group_name_Hall           '-P 1'
loop_
_symmetry_equiv_pos_site_id
_symmetry_equiv_pos_as_xyz
1 x,y,z
2 -x,-y,-z
_cell_length_a                   5.7442(17)
_cell_length_b                   8.994(3)
_cell_length_c                   9.140(3)
_cell_angle_alpha                97.33(3)
_cell_angle_beta                 100.98(3)
_cell_angle_gamma                102.89(2)
_cell_volume                     444.683
_exptl_crystal_colour            black
_exptl_crystal_description       needle
_chemical_melting_point          'decomposes above 220 deg.C'
_cell_formula_units_Z            2
loop_
_atom_site_label
_atom_site_type_symbol
_atom_site_fract_x
_atom_site_fract_y
_atom_site_fract_z
C1 C 0.2647(5) 0.7345(3) 0.8171(3)
H1 H 0.4306 0.8004 0.8456
H2 H 0.2001 0.7333 0.7108
C2 C 0.2677(5) 0.5705(3) 0.8422(3)
H3 H 0.3173 0.5708 0.9498
H4 H 0.1036 0.5031 0.8054
C3 C 0.4414(4) 0.5078(3) 0.7613(3)
C4 C 0.4916(4) 0.2983(3) 0.5832(3)
H5 H 0.5898 0.3718 0.5342
C5 C 0.6660(4) 0.2335(3) 0.6920(3)
C6 C 0.3272(5) 0.1669(3) 0.4625(3)
H6 H 0.2184 0.2066 0.3937
H7 H 0.2331 0.0923 0.5091
H8 H 0.4256 0.1181 0.4081
O1 O 0.6621(3) 0.5723(2) 0.7885(2)
O2 O 0.6045(3) 0.1956(2) 0.8099(2)
O3 O 0.8559(3) 0.2175(2) 0.6528(2)
N1 N 0.1103(3) 0.7976(2) 0.9094(2)
H11 H 0.1099 0.8934 0.8944
H12 H 0.1707 0.7994 1.0069
H13 H -0.0423 0.7378 0.8820
N2 N 0.3416(3) 0.3785(2) 0.6600(2)
H14 H 0.1853 0.3412 0.6392
O4 O 0.1460(4) 0.0966(2) 0.8599(2)
H9 H 0.041(6) 0.114(4) 0.796(3)
H10 H 0.281(7) 0.139(4) 0.841(3)
loop_
_geom_bond_atom_site_label_1
_geom_bond_atom_site_label_2
_geom_bond_site_symmetry_1
_geom_bond_site_symmetry_2
C1 H1 1_555 1_555
H2 C1 1_555 1_555
C2 C1 1_555 1_555
H3 C2 1_555 1_555
H4 C2 1_555 1_555
C3 C2 1_555 1_555
C4 H5 1_555 1_555
C5 C4 1_555 1_555
C6 C4 1_555 1_555
H6 C6 1_555 1_555
H7 C6 1_555 1_555
H8 C6 1_555 1_555
O1 C3 1_555 1_555
O2 C5 1_555 1_555
O3 C5 1_555 1_555
O4 H9 1_555 1_555
H10 O4 1_555 1_555
N1 C1 1_555 1_555
H11 N1 1_555 1_555
H12 N1 1_555 1_555
H13 N1 1_555 1_555
N2 C3 1_555 1_555
H14 N2 1_555 1_555
C4 N2 1_555 1_555

#END
