
#######################################################################
#
#                 Cambridge Crystallographic Data Centre
#                                CCDC 
#
#######################################################################
#
# If this CIF has been generated from an entry in the Cambridge 
# Structural Database, then it will include bibliographic, chemical, 
# crystal, experimental, refinement or atomic coordinate data resulting 
# from the CCDC's data processing and validation procedures.
#
#######################################################################

data_VOBXOA
_chemical_formula_moiety         'C14 H20 N2 O3,H2 O1'
_chemical_name_systematic        '\f-aminovaleryl-L-phenylalanine monohydrate'
_symmetry_cell_setting           monoclinic
_symmetry_space_group_name_H-M   'P 21'
_symmetry_Int_Tables_number      4
_space_group_name_Hall           'P 2yb'
loop_
_symmetry_equiv_pos_site_id
_symmetry_equiv_pos_as_xyz
1 x,y,z
2 -x,1/2+y,-z
_cell_length_a                   4.8848(11)
_cell_length_b                   28.461(7)
_cell_length_c                   10.9493(15)
_cell_angle_alpha                90
_cell_angle_beta                 102.655(16)
_cell_angle_gamma                90
_cell_volume                     1485.26
_exptl_crystal_colour            white
_exptl_crystal_description       needle
_chemical_melting_point          'decomposes above 190 deg.C'
_cell_formula_units_Z            4
loop_
_atom_site_label
_atom_site_type_symbol
_atom_site_fract_x
_atom_site_fract_y
_atom_site_fract_z
O1 O 0.9981(9) 0.69059(14) 1.5591(4)
H1 H 0.868(8) 0.6686(16) 1.574(5)
H2 H 1.145(7) 0.6806(19) 1.616(5)
C1 C 0.4153(12) 0.0326(2) 0.3359(6)
H3 H 0.2833 0.0360 0.3899
H4 H 0.3079 0.0269 0.2516
C2 C 0.5774(13) 0.0788(2) 0.3370(6)
H5 H 0.7254 0.0724 0.2915
C3 C 0.5922(13) 0.1067(2) 0.5509(6)
C4 C 0.7737(12) 0.1178(2) 0.6779(5)
H6 H 0.8461 0.0885 0.7176
H7 H 0.9330 0.1362 0.6660
C5 C 0.6300(13) 0.1441(2) 0.7654(6)
H8 H 0.4757 0.1252 0.7809
H9 H 0.5520 0.1730 0.7254
C6 C 0.8290(12) 0.1561(2) 0.8924(5)
H10 H 0.9340 0.1283 0.9256
H11 H 0.9620 0.1799 0.8794
C7 C 0.6688(12) 0.1737(2) 0.9846(5)
H12 H 0.5599 0.2010 0.9503
H13 H 0.5392 0.1496 0.9991
C8 C 0.5994(12) -0.0095(2) 0.3784(6)
C9 C 0.6490(14) -0.0275(3) 0.4997(7)
H14 H 0.5613 -0.0137 0.5580
C10 C 0.8242(15) -0.0652(3) 0.5352(7)
H15 H 0.8473 -0.0768 0.6162
C11 C 0.9595(15) -0.0851(2) 0.4584(8)
H16 H 1.0799 -0.1102 0.4854
C12 C 0.9219(17) -0.0685(3) 0.3342(8)
H17 H 1.0178 -0.0819 0.2784
C13 C 0.7379(14) -0.0315(2) 0.2983(7)
H18 H 0.7066 -0.0211 0.2158
C14 C 0.4117(14) 0.1209(2) 0.2701(6)
O2 O 0.3341(8) 0.11110(14) 0.5290(3)
O3 O 0.1799(9) 0.11042(15) 0.1953(4)
O4 O 0.5084(9) 0.16174(15) 0.2883(4)
N1 N 0.7247(10) 0.09154(15) 0.4666(5)
H37 H 0.9043 0.0888 0.4871
N2 N 0.8582(10) 0.18649(16) 1.1053(4)
H38 H 0.7569 0.1969 1.1581
H39 H 0.9757 0.2089 1.0924
H40 H 0.9558 0.1613 1.1378
C15 C 0.5756(14) 0.9459(2) 0.8568(5)
C16 C 0.8180(16) 0.9573(3) 0.9505(6)
H19 H 0.9561 0.9348 0.9772
C17 C 0.848(2) 1.0022(3) 1.0022(8)
H20 H 1.0024 1.0089 1.0663
C18 C 0.663(2) 1.0351(3) 0.9618(9)
H21 H 0.6950 1.0652 0.9950
C19 C 0.4282(19) 1.0268(3) 0.8738(11)
H22 H 0.2940 1.0502 0.8501
C20 C 0.3911(18) 0.9826(3) 0.8195(8)
H23 H 0.2350 0.9774 0.7551
C21 C 0.5280(12) 0.89711(19) 0.8028(6)
H24 H 0.7079 0.8818 0.8083
H25 H 0.4361 0.8993 0.7149
C22 C 0.3466(13) 0.86688(18) 0.8715(6)
H26 H 0.1838 0.8856 0.8805
C23 C 0.3734(13) 0.8390(2) 1.0813(6)
C24 C 0.5582(12) 0.8225(3) 1.2017(6)
H27 H 0.6877 0.8476 1.2345
H28 H 0.6688 0.7962 1.1831
C25 C 0.4123(12) 0.8076(2) 1.3022(5)
H29 H 0.2770 0.7833 1.2692
H30 H 0.3097 0.8342 1.3249
C26 C 0.6110(12) 0.7891(2) 1.4197(6)
H31 H 0.7126 0.7623 1.3973
H32 H 0.7470 0.8133 1.4525
C27 C 0.4637(13) 0.7746(2) 1.5199(6)
H33 H 0.3530 0.8007 1.5392
H34 H 0.3365 0.7489 1.4893
C28 C 0.2385(13) 0.8228(2) 0.7934(6)
O5 O 0.1164(8) 0.83790(14) 1.0641(4)
O7 O 0.0351(9) 0.83137(14) 0.7010(4)
O8 O 0.3467(8) 0.78364(15) 0.8232(4)
N3 N 0.5067(9) 0.85552(17) 0.9958(5)
H41 H 0.6856 0.8594 1.0144
N4 N 0.6609(10) 0.75975(17) 1.6339(4)
H42 H 0.5663 0.7512 1.6911
H43 H 0.7748 0.7835 1.6635
H44 H 0.7617 0.7356 1.6167
O6 O 1.1771(8) 0.25498(14) 1.0223(4)
H35 H 1.343(5) 0.2624(18) 1.059(5)
H36 H 1.067(8) 0.2788(13) 1.005(6)
loop_
_geom_bond_atom_site_label_1
_geom_bond_atom_site_label_2
_geom_bond_site_symmetry_1
_geom_bond_site_symmetry_2
O1 H1 1_555 1_555
H2 O1 1_555 1_555
C1 H3 1_555 1_555
H4 C1 1_555 1_555
C2 C1 1_555 1_555
H5 C2 1_555 1_555
C3 C4 1_555 1_555
C4 H6 1_555 1_555
H7 C4 1_555 1_555
C5 C4 1_555 1_555
H8 C5 1_555 1_555
H9 C5 1_555 1_555
C6 C5 1_555 1_555
H10 C6 1_555 1_555
H11 C6 1_555 1_555
C7 C6 1_555 1_555
H12 C7 1_555 1_555
H13 C7 1_555 1_555
C8 C1 1_555 1_555
C9 C8 1_555 1_555
H14 C9 1_555 1_555
C10 C9 1_555 1_555
H15 C10 1_555 1_555
C11 C10 1_555 1_555
H16 C11 1_555 1_555
C12 C11 1_555 1_555
H17 C12 1_555 1_555
C13 C8 1_555 1_555
H18 C13 1_555 1_555
C14 C2 1_555 1_555
C15 C16 1_555 1_555
C16 H19 1_555 1_555
C17 C16 1_555 1_555
H20 C17 1_555 1_555
C18 C17 1_555 1_555
H21 C18 1_555 1_555
C19 C18 1_555 1_555
H22 C19 1_555 1_555
C20 C15 1_555 1_555
H23 C20 1_555 1_555
C21 C15 1_555 1_555
H24 C21 1_555 1_555
H25 C21 1_555 1_555
C22 C21 1_555 1_555
H26 C22 1_555 1_555
C23 C24 1_555 1_555
C24 H27 1_555 1_555
H28 C24 1_555 1_555
C25 C24 1_555 1_555
H29 C25 1_555 1_555
H30 C25 1_555 1_555
C26 C25 1_555 1_555
H31 C26 1_555 1_555
H32 C26 1_555 1_555
C27 C26 1_555 1_555
H33 C27 1_555 1_555
H34 C27 1_555 1_555
C28 C22 1_555 1_555
O2 C3 1_555 1_555
O3 C14 1_555 1_555
O4 C14 1_555 1_555
O5 C23 1_555 1_555
O6 H35 1_555 1_555
H36 O6 1_555 1_555
O7 C28 1_555 1_555
O8 C28 1_555 1_555
N1 C2 1_555 1_555
H37 N1 1_555 1_555
N2 C7 1_555 1_555
H38 N2 1_555 1_555
H39 N2 1_555 1_555
H40 N2 1_555 1_555
N3 C22 1_555 1_555
H41 N3 1_555 1_555
N4 C27 1_555 1_555
H42 N4 1_555 1_555
H43 N4 1_555 1_555
H44 N4 1_555 1_555
C3 N1 1_555 1_555
C12 C13 1_555 1_555
C19 C20 1_555 1_555
C23 N3 1_555 1_555

#END
