
#######################################################################
#
#                 Cambridge Crystallographic Data Centre
#                                CCDC 
#
#######################################################################
#
# If this CIF has been generated from an entry in the Cambridge 
# Structural Database, then it will include bibliographic, chemical, 
# crystal, experimental, refinement or atomic coordinate data resulting 
# from the CCDC's data processing and validation procedures.
#
#######################################################################

data_VOBXUH
_chemical_formula_moiety         'C16 H7 Cl2 N3 O2,C4 H8 O2'
_chemical_name_systematic        
'7-(4-Aminophenyl)-3,4-dichloro-2,5-dioxobicyclo[4.2.0]octa-3,7-diene-1,6-dicarbonitrile ethyl acetate solvate'
_symmetry_cell_setting           monoclinic
_symmetry_space_group_name_H-M   'C 2/c'
_symmetry_Int_Tables_number      15
_space_group_name_Hall           '-C 2yn'
loop_
_symmetry_equiv_pos_site_id
_symmetry_equiv_pos_as_xyz
1 x,y,z
2 -x,y,1/2-z
3 1/2+x,1/2+y,z
4 1/2-x,1/2+y,1/2-z
5 -x,-y,-z
6 x,-y,1/2+z
7 1/2-x,1/2-y,-z
8 1/2+x,1/2-y,1/2+z
_cell_length_a                   30.9145(17)
_cell_length_b                   6.8610(4)
_cell_length_c                   23.821(2)
_cell_angle_alpha                90
_cell_angle_beta                 128.3790(10)
_cell_angle_gamma                90
_cell_volume                     3960.79
_exptl_crystal_colour            red
_exptl_crystal_description       rod
_cell_formula_units_Z            8
loop_
_atom_site_label
_atom_site_type_symbol
_atom_site_fract_x
_atom_site_fract_y
_atom_site_fract_z
Cl1 Cl 0.336125(14) 0.32710(5) 0.384954(18)
Cl2 Cl 0.282058(14) -0.07768(5) 0.312086(18)
O1 O 0.40624(4) 0.46719(14) 0.35158(5)
O2 O 0.31003(4) -0.20930(13) 0.22291(5)
N1 N 0.39529(5) -0.13479(18) 0.17571(6)
N2 N 0.09983(5) 0.04156(19) -0.12125(6)
H1 H 0.0937(8) -0.090(2) -0.1386(10)
H2 H 0.0712(7) 0.134(2) -0.1446(9)
N3 N 0.47712(5) 0.3117(2) 0.29310(6)
C1 C 0.34545(5) 0.08083(17) 0.21022(6)
C2 C 0.30141(5) 0.21587(18) 0.14804(6)
C3 C 0.33002(5) 0.3788(2) 0.18235(6)
H3 H 0.3245(7) 0.520(2) 0.1711(9)
C4 C 0.37674(5) 0.27573(18) 0.25075(6)
C5 C 0.37823(5) 0.33176(18) 0.31395(7)
C6 C 0.34183(5) 0.2242(2) 0.32447(6)
C7 C 0.31847(5) 0.05299(18) 0.29297(7)
C8 C 0.32439(5) -0.04328(18) 0.24199(6)
C9 C 0.37419(5) -0.04232(19) 0.19246(6)
C10 C 0.24942(5) 0.16794(17) 0.07964(6)
C11 C 0.23619(5) -0.02332(19) 0.05285(7)
H4 H 0.2627(6) -0.134(2) 0.0817(8)
C12 C 0.18717(5) -0.06502(19) -0.01337(7)
H5 H 0.1790(6) -0.202(2) -0.0301(9)
C13 C 0.14842(5) 0.08242(19) -0.05550(6)
C14 C 0.16139(5) 0.27415(19) -0.02867(7)
H6 H 0.1347(6) 0.381(2) -0.0576(8)
C15 C 0.21081(5) 0.31565(19) 0.03717(7)
H7 H 0.2188(6) 0.4537(19) 0.0524(8)
C16 C 0.43297(5) 0.2951(2) 0.27329(6)
O3 O 0.43369(7) 0.0460(3) -0.15235(9)
O4 O 0.48380(4) 0.21287(15) -0.04959(5)
C17 C 0.52007(7) 0.1845(3) -0.11164(11)
H8 H 0.5128 0.3272 -0.1362
H9 H 0.5210 0.0742 -0.1438
H10 H 0.5595 0.1855 -0.0578
C18 C 0.47473(6) 0.1388(2) -0.10758(7)
C19 C 0.43919(6) 0.1898(2) -0.04490(8)
H11 H 0.4042(6) 0.239(2) -0.0911(7)
H12 H 0.4375(7) 0.050(2) -0.0363(9)
C20 C 0.45377(7) 0.3145(3) 0.01677(9)
H13 H 0.4910(8) 0.273(3) 0.0638(10)
H14 H 0.4210(7) 0.306(3) 0.0175(11)
H15 H 0.4587(7) 0.454(2) 0.0089(10)
O3D O 0.56631(7) -0.0460(3) 0.15235(9)
O4D O 0.51620(4) -0.21287(15) 0.04959(5)
C17D C 0.47993(7) -0.1845(3) 0.11164(11)
H8D H 0.4872 -0.3272 0.1362
H9D H 0.4790 -0.0742 0.1438
H10D H 0.4405 -0.1855 0.0578
C18D C 0.52527(6) -0.1388(2) 0.10758(7)
C19D C 0.56081(6) -0.1898(2) 0.04490(8)
H11D H 0.5958(6) -0.239(2) 0.0911(7)
H12D H 0.5625(7) -0.050(2) 0.0363(9)
C20D C 0.54623(7) -0.3145(3) -0.01677(9)
H13D H 0.5090(8) -0.273(3) -0.0638(10)
H14D H 0.5790(7) -0.306(3) -0.0175(11)
H15D H 0.5413(7) -0.454(2) -0.0089(10)
O5? O 0.4415(9) 0.000(4) -0.1507(15)
O6? O 0.5321(7) -0.025(2) -0.0594(9)
C21? C 0.5653(10) -0.260(4) 0.0220(15)
H16? H 0.5971 -0.3038 0.0179
H17? H 0.5566 -0.3797 0.0437
H18? H 0.5796 -0.1339 0.0574
C22? C 0.5197(13) -0.213(4) -0.0424(17)
H19? H 0.4849 -0.1991 -0.0417
H20? H 0.5100 -0.3233 -0.0816
C23? C 0.4883(8) 0.070(3) -0.1182(10)
C24? C 0.5044(8) 0.222(3) -0.1441(12)
H21? H 0.5399 0.3003 -0.0987
H22? H 0.4702 0.3231 -0.1775
H23? H 0.5153 0.1568 -0.1755
loop_
_geom_bond_atom_site_label_1
_geom_bond_atom_site_label_2
_geom_bond_site_symmetry_1
_geom_bond_site_symmetry_2
Cl1 C6 1_555 1_555
Cl2 C7 1_555 1_555
O1 C5 1_555 1_555
O2 C8 1_555 1_555
N1 C9 1_555 1_555
N2 H1 1_555 1_555
H2 N2 1_555 1_555
N3 C16 1_555 1_555
C1 C2 1_555 1_555
C2 C3 1_555 1_555
C3 H3 1_555 1_555
C4 C1 1_555 1_555
C5 C4 1_555 1_555
C6 C5 1_555 1_555
C7 C6 1_555 1_555
C8 C1 1_555 1_555
C9 C1 1_555 1_555
C10 C2 1_555 1_555
C11 C10 1_555 1_555
H4 C11 1_555 1_555
C12 C11 1_555 1_555
H5 C12 1_555 1_555
C13 N2 1_555 1_555
C14 C13 1_555 1_555
H6 C14 1_555 1_555
C15 C10 1_555 1_555
H7 C15 1_555 1_555
C16 C4 1_555 1_555
O3 C18 1_555 1_555
O4 C18 1_555 1_555
C17 H8 1_555 1_555
H9 C17 1_555 1_555
H10 C17 1_555 1_555
C18 C17 1_555 1_555
C19 O4 1_555 1_555
H11 C19 1_555 1_555
H12 C19 1_555 1_555
C20 C19 1_555 1_555
H13 C20 1_555 1_555
H14 C20 1_555 1_555
H15 C20 1_555 1_555
O3D C18D 1_555 1_555
O4D C18D 1_555 1_555
C17D H8D 1_555 1_555
H9D C17D 1_555 1_555
H10D C17D 1_555 1_555
C18D C17D 1_555 1_555
C19D O4D 1_555 1_555
H11D C19D 1_555 1_555
H12D C19D 1_555 1_555
C20D C19D 1_555 1_555
H13D C20D 1_555 1_555
H14D C20D 1_555 1_555
H15D C20D 1_555 1_555
C3 C4 1_555 1_555
C7 C8 1_555 1_555
C12 C13 1_555 1_555
C14 C15 1_555 1_555

#END
