
#######################################################################
#
#                 Cambridge Crystallographic Data Centre
#                                CCDC 
#
#######################################################################
#
# If this CIF has been generated from an entry in the Cambridge 
# Structural Database, then it will include bibliographic, chemical, 
# crystal, experimental, refinement or atomic coordinate data resulting 
# from the CCDC's data processing and validation procedures.
#
#######################################################################

data_VOBXOB
_chemical_formula_moiety         'C20 H13 Cl2 N3 O2'
_chemical_name_systematic        
3,4-Dichloro-2,5-dioxo-7-(4-(pyrrolidin-1-yl)phenyl)bicyclo[4.2.0]octa-3,7-diene-1,6-dicarbonitrile
_symmetry_cell_setting           orthorhombic
_symmetry_space_group_name_H-M   'P 21 21 21'
_symmetry_Int_Tables_number      19
_space_group_name_Hall           'P 2ac 2ab'
loop_
_symmetry_equiv_pos_site_id
_symmetry_equiv_pos_as_xyz
1 x,y,z
2 1/2+x,1/2-y,-z
3 -x,1/2+y,1/2-z
4 1/2-x,-y,1/2+z
_cell_length_a                   6.5367(3)
_cell_length_b                   15.6717(8)
_cell_length_c                   16.9484(8)
_cell_angle_alpha                90
_cell_angle_beta                 90
_cell_angle_gamma                90
_cell_volume                     1736.21
_exptl_crystal_colour            black
_exptl_crystal_description       needle
_cell_formula_units_Z            4
loop_
_atom_site_label
_atom_site_type_symbol
_atom_site_fract_x
_atom_site_fract_y
_atom_site_fract_z
Cl1 Cl 0.00831(7) 0.44411(3) 0.41424(3)
Cl2 Cl 0.43770(7) 0.44990(3) 0.32785(3)
O1 O 0.63348(19) 0.28224(8) 0.33124(9)
O2 O -0.0604(2) 0.27466(8) 0.48373(7)
N1 N 0.4141(2) 0.13698(10) -0.04990(9)
N2 N 0.5925(3) 0.06846(10) 0.37495(10)
N3 N 0.0692(3) 0.06165(10) 0.48685(10)
C1 C 0.2088(3) 0.17730(11) 0.27101(11)
C2 C 0.3397(3) 0.19335(11) 0.34553(10)
C3 C 0.4544(3) 0.27875(11) 0.34580(10)
C4 C 0.3290(3) 0.35673(11) 0.35913(10)
C5 C 0.1471(3) 0.35480(11) 0.39648(10)
C6 C 0.0628(3) 0.27424(11) 0.43091(10)
C7 C 0.1295(3) 0.19073(11) 0.39201(10)
C8 C 0.0320(3) 0.17598(11) 0.31157(10)
H1 H -0.112(3) 0.1688(12) 0.2978(11)
C9 C 0.2671(3) 0.16728(11) 0.18938(10)
C10 C 0.4701(3) 0.17404(11) 0.16293(11)
H2 H 0.568(4) 0.1849(15) 0.1990(14)
C11 C 0.5196(3) 0.16382(11) 0.08410(11)
H3 H 0.645(3) 0.1715(13) 0.0686(11)
C12 C 0.3672(3) 0.14641(11) 0.02764(10)
C13 C 0.1615(3) 0.14028(12) 0.05425(11)
H4 H 0.053(3) 0.1319(12) 0.0169(12)
C14 C 0.1160(3) 0.14957(12) 0.13283(11)
H5 H -0.027(4) 0.1474(15) 0.1537(14)
C15 C 0.6249(3) 0.12651(13) -0.07789(11)
H6 H 0.685(4) 0.0782(15) -0.0566(14)
H7 H 0.694(4) 0.1739(15) -0.0724(13)
C16 C 0.5991(4) 0.10651(18) -0.16502(13)
H8 H 0.7061 0.1431 -0.1998
H9 H 0.6257 0.0395 -0.1759
C17 C 0.3895(6) 0.1293(3) -0.1856(2)
H10 H 0.326(7) 0.090(3) -0.222(3)
H11 H 0.424(6) 0.183(3) -0.197(2)
C18 C 0.2631(3) 0.11351(15) -0.11017(12)
H12 H 0.1295 0.1540 -0.1077
H13 H 0.2171 0.0476 -0.1050
C19 C 0.4830(3) 0.12363(11) 0.36418(10)
C20 C 0.1006(3) 0.11917(11) 0.44734(10)
H14? H 0.6177 0.1640 -0.1995
H15? H 0.7137 0.0611 -0.1835
C21? C 0.3946(8) 0.0710(4) -0.1776(3)
H16? H 0.3956 0.0081 -0.1724
H17? H 0.3413 0.0865 -0.2304
H18? H 0.1836 0.1692 -0.1318
H19? H 0.1525 0.0690 -0.0868
loop_
_geom_bond_atom_site_label_1
_geom_bond_atom_site_label_2
_geom_bond_site_symmetry_1
_geom_bond_site_symmetry_2
Cl1 C5 1_555 1_555
Cl2 C4 1_555 1_555
O1 C3 1_555 1_555
O2 C6 1_555 1_555
N1 C12 1_555 1_555
N2 C19 1_555 1_555
N3 C20 1_555 1_555
C1 C2 1_555 1_555
C2 C3 1_555 1_555
C3 C4 1_555 1_555
C4 C5 1_555 1_555
C5 C6 1_555 1_555
C6 C7 1_555 1_555
C7 C2 1_555 1_555
C8 C1 1_555 1_555
H1 C8 1_555 1_555
C9 C1 1_555 1_555
C10 C9 1_555 1_555
H2 C10 1_555 1_555
C11 C10 1_555 1_555
H3 C11 1_555 1_555
C12 C11 1_555 1_555
C13 C12 1_555 1_555
H4 C13 1_555 1_555
C14 C9 1_555 1_555
H5 C14 1_555 1_555
C15 N1 1_555 1_555
H6 C15 1_555 1_555
H7 C15 1_555 1_555
C16 C15 1_555 1_555
H8 C16 1_555 1_555
H9 C16 1_555 1_555
C17 C16 1_555 1_555
H10 C17 1_555 1_555
H11 C17 1_555 1_555
C18 N1 1_555 1_555
H12 C18 1_555 1_555
H13 C18 1_555 1_555
C19 C2 1_555 1_555
C20 C7 1_555 1_555
C7 C8 1_555 1_555
C13 C14 1_555 1_555
C17 C18 1_555 1_555

#END
