
#######################################################################
#
#                 Cambridge Crystallographic Data Centre
#                                CCDC 
#
#######################################################################
#
# If this CIF has been generated from an entry in the Cambridge 
# Structural Database, then it will include bibliographic, chemical, 
# crystal, experimental, refinement or atomic coordinate data resulting 
# from the CCDC's data processing and validation procedures.
#
#######################################################################

data_VOBYAO
_chemical_formula_moiety         'C22 H19 Cl2 N3 O2'
_chemical_name_systematic        
3,4-Dichloro-7-(4-(diisopropylamino)phenyl)-2-oxo-1-oxaspiro[4.4]nona-3,6,8-triene-6,9-dicarbonitrile
_symmetry_cell_setting           monoclinic
_symmetry_space_group_name_H-M   'P 21/n'
_symmetry_Int_Tables_number      14
_space_group_name_Hall           '-P 2yn'
loop_
_symmetry_equiv_pos_site_id
_symmetry_equiv_pos_as_xyz
1 x,y,z
2 1/2-x,1/2+y,1/2-z
3 -x,-y,-z
4 1/2+x,1/2-y,1/2+z
_cell_length_a                   15.9300(5)
_cell_length_b                   7.6127(2)
_cell_length_c                   16.6530(5)
_cell_angle_alpha                90
_cell_angle_beta                 95.7550(10)
_cell_angle_gamma                90
_cell_volume                     2009.34
_exptl_crystal_colour            black
_exptl_crystal_description       prism
_cell_formula_units_Z            4
loop_
_atom_site_label
_atom_site_type_symbol
_atom_site_fract_x
_atom_site_fract_y
_atom_site_fract_z
Cl1 Cl 0.197681(17) 0.11975(4) 0.246258(18)
Cl2 Cl 0.10688(2) 0.02157(4) 0.423041(17)
O1 O -0.07554(6) 0.17824(12) 0.37558(6)
O2 O -0.03747(5) 0.27041(11) 0.25620(5)
N1 N -0.04630(7) -0.14539(14) 0.13135(6)
N2 N 0.10753(7) 0.67707(16) 0.28911(6)
N3 N 0.28178(6) 0.85034(13) -0.07548(6)
C1 C 0.03651(7) 0.25925(15) 0.21282(7)
C2 C 0.06782(7) 0.43405(16) 0.18530(7)
C3 C 0.07798(7) 0.43046(15) 0.10453(7)
C4 C 0.04489(7) 0.25954(15) 0.07351(7)
H1 H 0.0427(9) 0.2248(19) 0.0191(9)
C5 C 0.01895(7) 0.16316(16) 0.13358(7)
C6 C 0.09946(7) 0.16237(16) 0.27138(7)
C7 C 0.06521(8) 0.12402(16) 0.33818(7)
C8 C -0.02281(8) 0.18915(16) 0.32993(7)
C9 C -0.01728(7) -0.00754(16) 0.13036(7)
C10 C 0.08992(7) 0.56885(16) 0.24208(7)
C11 C 0.11780(6) 0.55403(16) 0.05497(7)
C12 C 0.12857(7) 0.51557(16) -0.02592(7)
H2 H 0.1012(8) 0.415(2) -0.0522(8)
C13 C 0.17757(7) 0.61761(16) -0.07068(7)
H3 H 0.1811(8) 0.5861(18) -0.1232(9)
C14 C 0.22294(7) 0.76479(15) -0.03651(7)
C15 C 0.20400(7) 0.81444(16) 0.04192(7)
H4 H 0.2283(9) 0.912(2) 0.0676(9)
C16 C 0.15439(7) 0.71243(16) 0.08555(7)
H5 H 0.1465(8) 0.7470(19) 0.1368(9)
C17 C 0.30895(8) 0.78093(17) -0.15167(7)
H6 H 0.2899(8) 0.6584(19) -0.1568(8)
C18 C 0.26825(10) 0.8830(2) -0.22371(8)
H7 H 0.2853(10) 1.007(2) -0.2185(10)
H8 H 0.2100(11) 0.886(2) -0.2222(11)
H9 H 0.2845(11) 0.836(2) -0.2743(11)
C19 C 0.40491(9) 0.7742(2) -0.15049(9)
H10 H 0.4194(10) 0.720(2) -0.1999(10)
H11 H 0.4285(10) 0.893(2) -0.1479(10)
H12 H 0.4307(11) 0.707(2) -0.1020(11)
C20 C 0.32022(7) 1.01964(15) -0.04807(7)
H13 H 0.3503(8) 1.0574(17) -0.0929(8)
C21 C 0.25679(8) 1.16618(18) -0.03745(9)
H14 H 0.2848(9) 1.276(2) -0.0415(9)
H15 H 0.2324(10) 1.162(2) 0.0162(10)
H16 H 0.2119(12) 1.160(3) -0.0804(12)
C22 C 0.38617(8) 1.00117(19) 0.02443(8)
H17 H 0.4145(10) 1.116(2) 0.0348(9)
H18 H 0.4272(10) 0.914(2) 0.0142(10)
H19 H 0.3608(10) 0.964(2) 0.0742(10)
loop_
_geom_bond_atom_site_label_1
_geom_bond_atom_site_label_2
_geom_bond_site_symmetry_1
_geom_bond_site_symmetry_2
Cl1 C6 1_555 1_555
Cl2 C7 1_555 1_555
O1 C8 1_555 1_555
O2 C1 1_555 1_555
N1 C9 1_555 1_555
N2 C10 1_555 1_555
N3 C14 1_555 1_555
C1 C2 1_555 1_555
C2 C3 1_555 1_555
C3 C4 1_555 1_555
C4 H1 1_555 1_555
C5 C1 1_555 1_555
C6 C1 1_555 1_555
C7 C6 1_555 1_555
C8 O2 1_555 1_555
C9 C5 1_555 1_555
C10 C2 1_555 1_555
C11 C3 1_555 1_555
C12 C11 1_555 1_555
H2 C12 1_555 1_555
C13 C12 1_555 1_555
H3 C13 1_555 1_555
C14 C13 1_555 1_555
C15 C14 1_555 1_555
H4 C15 1_555 1_555
C16 C11 1_555 1_555
H5 C16 1_555 1_555
C17 N3 1_555 1_555
H6 C17 1_555 1_555
C18 C17 1_555 1_555
H7 C18 1_555 1_555
H8 C18 1_555 1_555
H9 C18 1_555 1_555
C19 C17 1_555 1_555
H10 C19 1_555 1_555
H11 C19 1_555 1_555
H12 C19 1_555 1_555
C20 N3 1_555 1_555
H13 C20 1_555 1_555
C21 C20 1_555 1_555
H14 C21 1_555 1_555
H15 C21 1_555 1_555
H16 C21 1_555 1_555
C22 C20 1_555 1_555
H17 C22 1_555 1_555
H18 C22 1_555 1_555
H19 C22 1_555 1_555
C4 C5 1_555 1_555
C7 C8 1_555 1_555
C15 C16 1_555 1_555

#END
