
#######################################################################
#
#                 Cambridge Crystallographic Data Centre
#                                CCDC 
#
#######################################################################
#
# If this CIF has been generated from an entry in the Cambridge 
# Structural Database, then it will include bibliographic, chemical, 
# crystal, experimental, refinement or atomic coordinate data resulting 
# from the CCDC's data processing and validation procedures.
#
#######################################################################

data_VOBYES
_chemical_formula_moiety         'C28 H15 Cl2 N3 O2'
_chemical_name_systematic        
3,4-Dichloro-7-(4-(diphenylamino)phenyl)-2-oxo-1-oxaspiro[4.4]nona-3,6,8-triene-6,9-dicarbonitrile
_symmetry_cell_setting           monoclinic
_symmetry_space_group_name_H-M   'P 21/n'
_symmetry_Int_Tables_number      14
_space_group_name_Hall           '-P 2yn'
loop_
_symmetry_equiv_pos_site_id
_symmetry_equiv_pos_as_xyz
1 x,y,z
2 1/2-x,1/2+y,1/2-z
3 -x,-y,-z
4 1/2+x,1/2-y,1/2+z
_cell_length_a                   20.6767(17)
_cell_length_b                   8.0336(7)
_cell_length_c                   30.553(3)
_cell_angle_alpha                90
_cell_angle_beta                 109.634(2)
_cell_angle_gamma                90
_cell_volume                     4780.03
_exptl_crystal_colour            black
_exptl_crystal_description       rod
_cell_formula_units_Z            8
loop_
_atom_site_label
_atom_site_type_symbol
_atom_site_fract_x
_atom_site_fract_y
_atom_site_fract_z
H1 H 0.0436(10) 0.502(3) 0.9528(8)
H2 H 0.2058(15) 0.398(3) 0.8767(9)
H3 H 0.1739(15) 0.487(4) 0.8008(9)
H4 H 0.0083(14) 0.703(3) 0.8142(8)
H5 H 0.0306(14) 0.610(3) 0.8867(8)
H6 H 0.1898(15) 0.793(4) 0.7858(10)
H7 H 0.2742(16) 0.844(4) 0.7507(9)
H8 H 0.2461(15) 0.772(3) 0.6725(10)
H9 H 0.1399(15) 0.669(4) 0.6319(10)
H10 H 0.0508(9) 0.614(3) 0.6667(7)
H11 H 0.0036(17) 0.910(4) 0.7056(10)
H12 H -0.114(2) 0.949(5) 0.6633(13)
H13 H -0.194(2) 0.738(5) 0.6643(13)
H14 H -0.153(2) 0.480(5) 0.7070(12)
H15 H -0.0303(15) 0.465(4) 0.7458(10)
C1 C 0.24383(14) 0.0811(3) 1.05875(9)
C2 C 0.27736(14) 0.2378(3) 1.07988(8)
C3 C 0.24459(13) 0.3645(3) 1.05462(8)
C4 C 0.18706(13) 0.3004(3) 1.01298(8)
C5 C 0.11675(13) 0.3714(3) 1.00669(8)
C6 C 0.09096(13) 0.4463(3) 0.96534(8)
C7 C 0.13943(13) 0.4287(3) 0.93885(8)
C8 C 0.19489(13) 0.3442(3) 0.96615(8)
C9 C 0.08418(14) 0.3539(3) 1.04094(9)
C10 C 0.25546(14) 0.2917(3) 0.95827(8)
C11 C 0.12265(12) 0.4915(3) 0.89186(8)
C12 C 0.16489(14) 0.4591(3) 0.86510(8)
C13 C 0.14750(14) 0.5152(3) 0.81984(8)
C14 C 0.08728(12) 0.6070(3) 0.79967(8)
C15 C 0.04564(13) 0.6427(3) 0.82634(8)
C16 C 0.06305(12) 0.5851(3) 0.87120(8)
C17 C 0.11679(13) 0.6951(3) 0.73131(8)
C18 C 0.17961(14) 0.7659(3) 0.75566(9)
C19 C 0.22764(15) 0.7926(4) 0.73380(9)
C20 C 0.21194(15) 0.7524(3) 0.68720(9)
C21 C 0.14827(15) 0.6892(3) 0.66237(9)
C22 C 0.10057(14) 0.6578(3) 0.68406(9)
C23 C -0.00405(13) 0.6824(3) 0.72814(8)
C24 C -0.02795(17) 0.8274(4) 0.70369(10)
C25 C -0.09746(18) 0.8459(5) 0.67994(12)
C26 C -0.14340(17) 0.7250(5) 0.68155(10)
C27 C -0.11981(16) 0.5808(4) 0.70603(9)
C28 C -0.05027(15) 0.5576(4) 0.72855(9)
N1 N 0.05813(13) 0.3366(3) 1.06775(8)
N2 N 0.30573(12) 0.2460(3) 0.95380(8)
N3 N 0.06746(11) 0.6614(3) 0.75347(7)
O1 O 0.18886(9) 0.1231(2) 1.02027(6)
O2 O 0.25818(11) -0.0591(2) 1.07080(7)
Cl1 Cl 0.34694(4) 0.23678(10) 1.12873(3)
Cl2 Cl 0.25916(4) 0.57152(7) 1.06326(2)
H16 H 0.0611(14) -0.021(3) 0.9606(10)
H17 H 0.1586(13) 0.046(3) 0.8427(8)
H18 H 0.2685(15) -0.051(3) 0.8607(9)
H19 H 0.2569(14) -0.253(3) 0.9829(9)
H20 H 0.1533(14) -0.154(3) 0.9638(9)
H21 H 0.3047(16) -0.379(4) 0.8557(10)
H22 H 0.3639(15) -0.410(4) 0.8047(10)
H23 H 0.4722(15) -0.287(3) 0.8190(9)
H24 H 0.5222(16) -0.146(4) 0.8871(9)
H25 H 0.4643(14) -0.100(3) 0.9402(9)
H26 H 0.4028(15) -0.497(4) 0.9653(10)
H27 H 0.4606(19) -0.566(5) 1.0408(12)
H28 H 0.4750(16) -0.398(4) 1.1051(11)
H29 H 0.4275(18) -0.133(4) 1.0905(12)
H30 H 0.3711(17) -0.050(4) 1.0120(11)
C29 C -0.11427(13) 0.3576(3) 0.82305(9)
C30 C -0.14478(13) 0.1935(3) 0.80648(8)
C31 C -0.10277(12) 0.0750(3) 0.82984(8)
C32 C -0.03844(12) 0.1532(3) 0.86325(8)
C33 C -0.02135(13) 0.1037(3) 0.91374(8)
C34 C 0.03974(13) 0.0291(3) 0.92940(8)
C35 C 0.07253(12) 0.0263(3) 0.89303(8)
C36 C 0.02728(12) 0.1014(3) 0.85475(8)
C37 C -0.06387(13) 0.1448(3) 0.94088(9)
C38 C 0.03363(13) 0.1320(3) 0.81059(8)
C39 C 0.14023(12) -0.0403(3) 0.90183(8)
C40 C 0.17746(13) -0.0178(3) 0.87108(8)
C41 C 0.24322(13) -0.0769(3) 0.88121(8)
C42 C 0.27619(13) -0.1623(3) 0.92334(8)
C43 C 0.23818(13) -0.1904(3) 0.95317(8)
C44 C 0.17318(13) -0.1300(3) 0.94276(8)
C45 C 0.37826(13) -0.2338(3) 0.90234(8)
C46 C 0.34842(15) -0.3256(4) 0.86201(10)
C47 C 0.38394(16) -0.3450(4) 0.83077(10)
C48 C 0.44839(16) -0.2773(3) 0.83987(10)
C49 C 0.47806(15) -0.1888(4) 0.88050(10)
C50 C 0.44288(14) -0.1655(3) 0.91155(9)
C51 C 0.38115(13) -0.2637(3) 0.98243(8)
C52 C 0.40873(15) -0.4217(4) 0.99119(10)
C53 C 0.44451(17) -0.4683(4) 1.03643(11)
C54 C 0.45111(16) -0.3618(4) 1.07295(11)
C55 C 0.42305(16) -0.2043(4) 1.06408(10)
C56 C 0.38875(15) -0.1540(4) 1.01924(9)
N4 N -0.09496(13) 0.1821(3) 0.96364(8)
N5 N 0.03550(13) 0.1607(3) 0.77421(8)
N6 N 0.34356(11) -0.2149(3) 0.93549(7)
O3 O -0.05172(9) 0.3291(2) 0.85693(6)
O4 O -0.13570(10) 0.4943(2) 0.81192(7)
Cl3 Cl -0.22183(4) 0.17313(9) 0.76345(2)
Cl4 Cl -0.11317(3) -0.13400(7) 0.82506(2)
loop_
_geom_bond_atom_site_label_1
_geom_bond_atom_site_label_2
_geom_bond_site_symmetry_1
_geom_bond_site_symmetry_2
H1 C6 1_555 1_555
H2 C12 1_555 1_555
H3 C13 1_555 1_555
H4 C15 1_555 1_555
H5 C16 1_555 1_555
H6 C18 1_555 1_555
H7 C19 1_555 1_555
H8 C20 1_555 1_555
H9 C21 1_555 1_555
H10 C22 1_555 1_555
H11 C24 1_555 1_555
H12 C25 1_555 1_555
H13 C26 1_555 1_555
H14 C27 1_555 1_555
H15 C28 1_555 1_555
C1 C2 1_555 1_555
C2 C3 1_555 1_555
C3 C4 1_555 1_555
C4 C5 1_555 1_555
C5 C6 1_555 1_555
C6 C7 1_555 1_555
C7 C8 1_555 1_555
C8 C4 1_555 1_555
C9 C5 1_555 1_555
C10 C8 1_555 1_555
C11 C7 1_555 1_555
C12 C11 1_555 1_555
C13 C12 1_555 1_555
C14 C13 1_555 1_555
C15 C14 1_555 1_555
C16 C11 1_555 1_555
C17 C18 1_555 1_555
C18 C19 1_555 1_555
C19 C20 1_555 1_555
C20 C21 1_555 1_555
C21 C22 1_555 1_555
C22 C17 1_555 1_555
C23 C24 1_555 1_555
C24 C25 1_555 1_555
C25 C26 1_555 1_555
C26 C27 1_555 1_555
C27 C28 1_555 1_555
C28 C23 1_555 1_555
N1 C9 1_555 1_555
N2 C10 1_555 1_555
N3 C14 1_555 1_555
O1 C1 1_555 1_555
O2 C1 1_555 1_555
Cl1 C2 1_555 1_555
Cl2 C3 1_555 1_555
H16 C34 1_555 1_555
H17 C40 1_555 1_555
H18 C41 1_555 1_555
H19 C43 1_555 1_555
H20 C44 1_555 1_555
H21 C46 1_555 1_555
H22 C47 1_555 1_555
H23 C48 1_555 1_555
H24 C49 1_555 1_555
H25 C50 1_555 1_555
H26 C52 1_555 1_555
H27 C53 1_555 1_555
H28 C54 1_555 1_555
H29 C55 1_555 1_555
H30 C56 1_555 1_555
C29 C30 1_555 1_555
C30 C31 1_555 1_555
C31 C32 1_555 1_555
C32 C33 1_555 1_555
C33 C34 1_555 1_555
C34 C35 1_555 1_555
C35 C36 1_555 1_555
C36 C32 1_555 1_555
C37 C33 1_555 1_555
C38 C36 1_555 1_555
C39 C35 1_555 1_555
C40 C39 1_555 1_555
C41 C40 1_555 1_555
C42 C41 1_555 1_555
C43 C42 1_555 1_555
C44 C39 1_555 1_555
C45 C46 1_555 1_555
C46 C47 1_555 1_555
C47 C48 1_555 1_555
C48 C49 1_555 1_555
C49 C50 1_555 1_555
C50 C45 1_555 1_555
C51 C52 1_555 1_555
C52 C53 1_555 1_555
C53 C54 1_555 1_555
C54 C55 1_555 1_555
C55 C56 1_555 1_555
C56 C51 1_555 1_555
N4 C37 1_555 1_555
N5 C38 1_555 1_555
N6 C42 1_555 1_555
O3 C29 1_555 1_555
O4 C29 1_555 1_555
Cl3 C30 1_555 1_555
Cl4 C31 1_555 1_555
C4 O1 1_555 1_555
C15 C16 1_555 1_555
C17 N3 1_555 1_555
C23 N3 1_555 1_555
C32 O3 1_555 1_555
C43 C44 1_555 1_555
C45 N6 1_555 1_555
C51 N6 1_555 1_555

#END
