
#######################################################################
#
#                 Cambridge Crystallographic Data Centre
#                                CCDC 
#
#######################################################################
#
# If this CIF has been generated from an entry in the Cambridge 
# Structural Database, then it will include bibliographic, chemical, 
# crystal, experimental, refinement or atomic coordinate data resulting 
# from the CCDC's data processing and validation procedures.
#
#######################################################################

data_VOCKEF
_chemical_formula_moiety         'C28 H34 N2 O10,3(H2 O1)'
_chemical_name_systematic        
'Methyl 4-((2-methyl-3-oxo-2,3,4,9-tetrahydro-1H-\b-carbolin-1-yl)methyl)-2-((3,4,5-trihydroxy-6-(hydroxymethyl)tetrahydro-2H-pyran-2-yl)oxy)-3-vinyl-3,4-dihydro-2H-pyran-5-carboxylate trihydrate'
_symmetry_cell_setting           triclinic
_symmetry_space_group_name_H-M   'P 1'
_symmetry_Int_Tables_number      1
_space_group_name_Hall           'P 1'
loop_
_symmetry_equiv_pos_site_id
_symmetry_equiv_pos_as_xyz
1 x,y,z
_cell_length_a                   6.8950(6)
_cell_length_b                   8.9636(8)
_cell_length_c                   12.1832(11)
_cell_angle_alpha                87.0970(10)
_cell_angle_beta                 87.8420(10)
_cell_angle_gamma                79.4280(10)
_cell_volume                     738.931
_exptl_crystal_colour            yellow
_exptl_crystal_description       piece
_cell_formula_units_Z            1
loop_
_atom_site_label
_atom_site_type_symbol
_atom_site_fract_x
_atom_site_fract_y
_atom_site_fract_z
O1 O 0.72348(14) 0.17553(11) 0.65525(8)
H1 H 0.7723 0.2388 0.6880
H2 H 0.6538 0.1367 0.7051
O2 O 0.35041(12) 0.65241(10) 0.48262(7)
O3 O 0.08993(13) 0.66204(10) 0.60596(8)
O4 O -0.10194(17) 0.74171(13) 0.81089(10)
H3 H -0.1608 0.8256 0.8333
O5 O 0.17466(13) 0.70900(10) 0.32472(7)
O6 O -0.03527(14) 1.19933(11) -0.04610(8)
O7 O 0.24591(14) 0.82637(11) 0.00259(7)
O8 O 0.44059(14) 0.99218(11) 0.03929(8)
O9 O 0.44504(14) 0.33583(10) 0.51459(8)
H4 H 0.5317 0.2733 0.5476
O10 O 0.28256(14) 0.21895(10) 0.71549(8)
H5 H 0.2414 0.1393 0.7024
O11 O -0.11741(13) 0.37414(10) 0.76896(8)
H6 H -0.0769 0.3230 0.8259
N1 N 0.39438(16) 1.35516(12) 0.28123(9)
H7 H 0.3908 1.3346 0.3526
N2 N 0.01707(15) 1.19074(12) 0.13566(9)
C1 C 0.7761(2) 1.57956(15) 0.19007(13)
H8 H 0.8756 1.6289 0.2153
C2 C 0.66919(19) 1.50340(14) 0.26600(12)
H9 H 0.6947 1.4984 0.3423
C3 C 0.52263(18) 1.43458(14) 0.22504(11)
C4 C 0.27199(18) 1.31339(13) 0.20546(10)
C5 C 0.10863(17) 1.23007(13) 0.23605(10)
H10 H 0.0052 1.3017 0.2764
C6 C 0.17517(17) 1.09198(13) 0.31488(10)
H11 H 0.0598 1.0429 0.3329
H12 H 0.2153 1.1294 0.3841
C7 C 0.34535(17) 0.97009(13) 0.27333(9)
H13 H 0.4535 1.0213 0.2420
C8 C 0.42875(16) 0.85646(13) 0.36760(10)
H14 H 0.5350 0.7789 0.3346
C9 C 0.26607(17) 0.77400(13) 0.41175(10)
H15 H 0.1637 0.8454 0.4530
C10 C 0.21377(18) 0.56844(14) 0.53090(10)
H16 H 0.1327 0.5367 0.4729
C11 C -0.06299(18) 0.58806(13) 0.65420(10)
H17 H -0.1374 0.5541 0.5941
C12 C -0.20292(19) 0.70117(15) 0.72106(11)
H18 H -0.2529 0.7928 0.6744
H19 H -0.3170 0.6558 0.7484
C13 C 0.03467(18) 0.44853(13) 0.72283(10)
H20 H 0.1078 0.4822 0.7836
C14 C 0.17871(18) 0.34298(13) 0.65124(10)
H21 H 0.1028 0.3023 0.5950
C15 C 0.32744(18) 0.42877(13) 0.59204(10)
H22 H 0.4140 0.4610 0.6469
C16 C 0.20934(17) 0.75148(14) 0.21862(10)
H23 H 0.1782 0.6898 0.1631
C17 C 0.28480(17) 0.87493(13) 0.18686(10)
C18 C -0.15390(18) 1.11401(14) 0.15395(11)
H24 H -0.2597 1.1614 0.1051
H25 H -0.2011 1.1233 0.2306
H26 H -0.1145 1.0063 0.1383
C19 C 0.05709(18) 1.23580(14) 0.03167(10)
C20 C 0.21225(18) 1.33280(14) 0.00499(10)
H27 H 0.3078 1.2818 -0.0501
H28 H 0.1476 1.4314 -0.0287
C21 C 0.32104(18) 1.36169(14) 0.10181(10)
C22 C 0.48305(18) 1.44051(13) 0.11164(11)
C23 C 0.59689(19) 1.51547(14) 0.03664(11)
H29 H 0.5755 1.5181 -0.0401
C24 C 0.7407(2) 1.58531(16) 0.07718(13)
H30 H 0.8168 1.6381 0.0276
C25 C 0.52096(18) 0.93033(13) 0.45527(10)
H31 H 0.4397 0.9805 0.5119
C26 C 0.7138(2) 0.92642(17) 0.45456(12)
H32 H 0.7960 0.8765 0.3981
H33 H 0.7701 0.9736 0.5105
C27 C 0.33278(18) 0.90461(14) 0.07024(10)
C28 C 0.2989(2) 0.84578(18) -0.11292(11)
H34 H 0.2680 0.9538 -0.1356
H35 H 0.2240 0.7885 -0.1567
H36 H 0.4405 0.8082 -0.1245
O12 O 0.71143(14) 0.02558(11) 0.87078(8)
H37 H 0.7848 0.0744 0.9061
H38 H 0.6195 0.0168 0.9174
O13 O 0.10260(14) 0.99142(11) 0.63939(9)
H39 H -0.0225 1.0353 0.6484
H40 H 0.1057 0.9007 0.6501
loop_
_geom_bond_atom_site_label_1
_geom_bond_atom_site_label_2
_geom_bond_site_symmetry_1
_geom_bond_site_symmetry_2
O1 H1 1_555 1_555
H2 O1 1_555 1_555
O2 C9 1_555 1_555
O3 C10 1_555 1_555
O4 H3 1_555 1_555
O5 C9 1_555 1_555
O6 C19 1_555 1_555
O7 C27 1_555 1_555
O8 C27 1_555 1_555
O9 H4 1_555 1_555
O10 H5 1_555 1_555
O11 H6 1_555 1_555
N1 H7 1_555 1_555
N2 C5 1_555 1_555
C1 H8 1_555 1_555
C2 C1 1_555 1_555
H9 C2 1_555 1_555
C3 N1 1_555 1_555
C4 N1 1_555 1_555
C5 C4 1_555 1_555
H10 C5 1_555 1_555
C6 C5 1_555 1_555
H11 C6 1_555 1_555
H12 C6 1_555 1_555
C7 C6 1_555 1_555
H13 C7 1_555 1_555
C8 C7 1_555 1_555
H14 C8 1_555 1_555
C9 C8 1_555 1_555
H15 C9 1_555 1_555
C10 O2 1_555 1_555
H16 C10 1_555 1_555
C11 O3 1_555 1_555
H17 C11 1_555 1_555
C12 O4 1_555 1_555
H18 C12 1_555 1_555
H19 C12 1_555 1_555
C13 O11 1_555 1_555
H20 C13 1_555 1_555
C14 O10 1_555 1_555
H21 C14 1_555 1_555
C15 O9 1_555 1_555
H22 C15 1_555 1_555
C16 O5 1_555 1_555
H23 C16 1_555 1_555
C17 C7 1_555 1_555
C18 N2 1_555 1_555
H24 C18 1_555 1_555
H25 C18 1_555 1_555
H26 C18 1_555 1_555
C19 N2 1_555 1_555
C20 C19 1_555 1_555
H27 C20 1_555 1_555
H28 C20 1_555 1_555
C21 C4 1_555 1_555
C22 C3 1_555 1_555
C23 C22 1_555 1_555
H29 C23 1_555 1_555
C24 C1 1_555 1_555
H30 C24 1_555 1_555
C25 C8 1_555 1_555
H31 C25 1_555 1_555
C26 C25 1_555 1_555
H32 C26 1_555 1_555
H33 C26 1_555 1_555
C27 C17 1_555 1_555
C28 O7 1_555 1_555
H34 C28 1_555 1_555
H35 C28 1_555 1_555
H36 C28 1_555 1_555
O12 H37 1_555 1_555
H38 O12 1_555 1_555
O13 H39 1_555 1_555
H40 O13 1_555 1_555
C2 C3 1_555 1_555
C10 C15 1_555 1_555
C11 C12 1_555 1_555
C11 C13 1_555 1_555
C13 C14 1_555 1_555
C14 C15 1_555 1_555
C16 C17 1_555 1_555
C20 C21 1_555 1_555
C21 C22 1_555 1_555
C23 C24 1_555 1_555

#END
