
#######################################################################
#
#                 Cambridge Crystallographic Data Centre
#                                CCDC 
#
#######################################################################
#
# If this CIF has been generated from an entry in the Cambridge 
# Structural Database, then it will include bibliographic, chemical, 
# crystal, experimental, refinement or atomic coordinate data resulting 
# from the CCDC's data processing and validation procedures.
#
#######################################################################

data_VODGAW
_chemical_formula_moiety         'C18 H7 N5 O11,C8 H8 S4,0.5(C2 H3 N1)'
_chemical_name_systematic        
'9-(5-Nitrofuran-2-ylidene)-2,4,5,7-tetranitrofluorene 3,4-dimethyltetrathiafulvalene acetonitrile solvate'
_symmetry_cell_setting           monoclinic
_symmetry_space_group_name_H-M   'P 21/n'
_symmetry_Int_Tables_number      14
_space_group_name_Hall           '-P 2yn'
loop_
_symmetry_equiv_pos_site_id
_symmetry_equiv_pos_as_xyz
1 x,y,z
2 1/2+x,1/2-y,1/2+z
3 -x,-y,-z
4 1/2-x,1/2+y,1/2-z
_cell_length_a                   16.872(3)
_cell_length_b                   7.755(1)
_cell_length_c                   23.201(6)
_cell_angle_alpha                90
_cell_angle_beta                 103.99(1)
_cell_angle_gamma                90
_cell_volume                     2945.63
_exptl_crystal_colour            brown
_exptl_crystal_description       plate
_cell_formula_units_Z            4
loop_
_atom_site_label
_atom_site_type_symbol
_atom_site_fract_x
_atom_site_fract_y
_atom_site_fract_z
O1 O 0.4098(3) 1.0799(8) 0.4711(2)
O2 O 0.2879(3) 1.0741(7) 0.4118(2)
O3 O 0.2445(3) 0.8092(8) 0.2177(2)
O4 O 0.3298(3) 0.6027(7) 0.2140(2)
O5 O 0.3972(3) 0.8904(7) 0.1654(2)
O6 O 0.4021(3) 0.6798(7) 0.1051(2)
O7 O 0.6736(4) 0.4456(9) 0.1339(3)
O8 O 0.7448(3) 0.3921(7) 0.2230(2)
O9 O 0.8692(4) 0.4585(10) 0.3363(3)
O10 O 0.9516(8) 0.3832(17) 0.4271(6)
O12 O 0.7644(3) 0.5912(6) 0.3888(2)
N1 N 0.3613(4) 1.0379(8) 0.4246(3)
N2 N 0.3104(4) 0.7396(9) 0.2351(3)
N3 N 0.4248(4) 0.7533(9) 0.1528(3)
N4 N 0.6851(5) 0.4549(9) 0.1878(4)
N5 N 0.8871(12) 0.444(3) 0.3935(8)
C1 C 0.4748(4) 0.8893(9) 0.3952(3)
H1 H 0.5082 0.9101 0.4328
C2 C 0.3936(4) 0.9382(9) 0.3808(3)
C3 C 0.3408(4) 0.8960(9) 0.3276(3)
H2 H 0.2858 0.9249 0.3209
C4 C 0.3705(4) 0.8129(9) 0.2859(3)
C5 C 0.4951(4) 0.6788(9) 0.1969(3)
C6 C 0.5533(5) 0.5967(9) 0.1741(3)
H3 H 0.5434 0.5737 0.1337
C7 C 0.6252(4) 0.5481(9) 0.2135(3)
C8 C 0.6439(4) 0.5820(9) 0.2732(3)
H4 H 0.6941 0.5518 0.2978
C9 C 0.5871(4) 0.7318(9) 0.3559(3)
C10 C 0.5050(4) 0.8056(8) 0.3522(3)
C11 C 0.4553(4) 0.7760(9) 0.2953(3)
C12 C 0.5060(4) 0.7071(9) 0.2578(3)
C13 C 0.5842(4) 0.6679(9) 0.2959(3)
C14 C 0.6449(4) 0.7368(9) 0.4082(3)
H5 H 0.6271 0.7924 0.4383
C15 C 0.7256(4) 0.6783(9) 0.4268(3)
C16 C 0.7795(4) 0.6959(10) 0.4815(3)
H6 H 0.7695 0.7502 0.5148
C17 C 0.8538(5) 0.6149(10) 0.4779(4)
H7 H 0.9015 0.6039 0.5077
C18 C 0.8402(4) 0.5575(10) 0.4221(4)
S1 S 0.71786(15) 0.1863(3) 0.45064(12)
S2 S 0.57923(15) 0.3764(3) 0.47634(11)
S3 S 0.61630(15) 0.1468(3) 0.31084(11)
S4 S 0.47461(14) 0.3218(3) 0.33975(12)
C21 C 0.6191(6) 0.2678(11) 0.4226(4)
C22 C 0.7349(6) 0.2840(11) 0.5205(4)
C23 C 0.6692(7) 0.3740(11) 0.5318(4)
C24 C 0.5770(5) 0.2493(11) 0.3658(4)
C25 C 0.5305(7) 0.1788(12) 0.2539(5)
H8 H 0.5293 0.1393 0.2158
C26 C 0.4663(6) 0.2568(12) 0.2665(4)
H9 H 0.4195 0.2798 0.2368
C27 C 0.8154(6) 0.2613(14) 0.5613(5)
H10 H 0.8553 0.3061 0.5419
H11 H 0.8265 0.1416 0.5705
H12 H 0.8183 0.3242 0.5974
C28 C 0.6705(7) 0.4744(12) 0.5867(5)
H13 H 0.7220 0.4621 0.6153
H14 H 0.6276 0.4324 0.6037
H15 H 0.6612 0.5940 0.5766
O11? O 0.9657(7) 0.4576(16) 0.4153(5)
N6? N 0.8959(10) 0.498(2) 0.3858(9)
N7? N 0.9931(16) 0.755(4) 0.4113(12)
C19? C 1.002(2) 0.848(5) 0.4537(16)
C20? C 1.016(3) 0.974(6) 0.506(2)
loop_
_geom_bond_atom_site_label_1
_geom_bond_atom_site_label_2
_geom_bond_site_symmetry_1
_geom_bond_site_symmetry_2
S1 C21 1_555 1_555
S2 C21 1_555 1_555
S3 C24 1_555 1_555
S4 C24 1_555 1_555
O1 N1 1_555 1_555
O2 N1 1_555 1_555
O3 N2 1_555 1_555
O4 N2 1_555 1_555
O5 N3 1_555 1_555
O6 N3 1_555 1_555
O7 N4 1_555 1_555
O8 N4 1_555 1_555
O9 N5 1_555 1_555
O10 N5 1_555 1_555
O12 C15 1_555 1_555
N1 C2 1_555 1_555
N2 C4 1_555 1_555
N3 C5 1_555 1_555
N4 C7 1_555 1_555
N5 C18 1_555 1_555
C1 H1 1_555 1_555
C2 C1 1_555 1_555
C3 C2 1_555 1_555
H2 C3 1_555 1_555
C4 C3 1_555 1_555
C5 C6 1_555 1_555
C6 H3 1_555 1_555
C7 C6 1_555 1_555
C8 C7 1_555 1_555
H4 C8 1_555 1_555
C9 C10 1_555 1_555
C10 C1 1_555 1_555
C11 C4 1_555 1_555
C12 C5 1_555 1_555
C13 C8 1_555 1_555
C14 C9 1_555 1_555
H5 C14 1_555 1_555
C15 C14 1_555 1_555
C16 C15 1_555 1_555
H6 C16 1_555 1_555
C17 C16 1_555 1_555
H7 C17 1_555 1_555
C18 O12 1_555 1_555
C21 C24 1_555 1_555
C22 S1 1_555 1_555
C23 S2 1_555 1_555
C25 S3 1_555 1_555
H8 C25 1_555 1_555
C26 S4 1_555 1_555
H9 C26 1_555 1_555
C27 C22 1_555 1_555
H10 C27 1_555 1_555
H11 C27 1_555 1_555
H12 C27 1_555 1_555
C28 C23 1_555 1_555
H13 C28 1_555 1_555
H14 C28 1_555 1_555
H15 C28 1_555 1_555
C9 C13 1_555 1_555
C10 C11 1_555 1_555
C11 C12 1_555 1_555
C12 C13 1_555 1_555
C17 C18 1_555 1_555
C22 C23 1_555 1_555
C25 C26 1_555 1_555

#END
