
#######################################################################
#
#                 Cambridge Crystallographic Data Centre
#                                CCDC 
#
#######################################################################
#
# If this CIF has been generated from an entry in the Cambridge 
# Structural Database, then it will include bibliographic, chemical, 
# crystal, experimental, refinement or atomic coordinate data resulting 
# from the CCDC's data processing and validation procedures.
#
#######################################################################

data_VODJAZ
_chemical_compound_source        'soft coral Pachyclavularia violacea'
_chemical_formula_moiety         'C24 H34 O7'
_chemical_name_systematic        'Pachyclavulariolide H'
_symmetry_cell_setting           orthorhombic
_symmetry_space_group_name_H-M   'P 21 21 21'
_symmetry_Int_Tables_number      19
_space_group_name_Hall           'P 2ac 2ab'
loop_
_symmetry_equiv_pos_site_id
_symmetry_equiv_pos_as_xyz
1 x,y,z
2 1/2-x,-y,1/2+z
3 1/2+x,1/2-y,-z
4 -x,1/2+y,1/2-z
_cell_length_a                   9.150(2)
_cell_length_b                   14.461(4)
_cell_length_c                   17.972(3)
_cell_angle_alpha                90
_cell_angle_beta                 90
_cell_angle_gamma                90
_cell_volume                     2378.02
_exptl_crystal_colour            colorless
_exptl_crystal_description       prism
_chemical_melting_point          215-216deg.C
_cell_formula_units_Z            4
_exptl_crystal_recrystallization_method 'ethyl acetate'
loop_
_atom_site_label
_atom_site_type_symbol
_atom_site_fract_x
_atom_site_fract_y
_atom_site_fract_z
O1 O -0.0321(6) 0.1237(4) 0.3284(3)
O2 O -0.0556(6) 0.2238(4) 0.4227(3)
O3 O 0.5866(6) 0.1076(3) 0.1576(3)
O4 O 0.3691(5) 0.2994(3) 0.2345(3)
O5 O 0.1885(7) 0.3192(4) 0.1504(4)
O6 O 0.4770(5) 0.1469(4) 0.3281(3)
O7 O 0.4247(8) 0.0031(4) 0.3671(4)
C1 C 0.2151(8) 0.1483(5) 0.3058(4)
C2 C 0.0858(9) 0.0931(5) 0.2799(4)
C3 C 0.0303(9) 0.1066(5) 0.1985(4)
C4 C 0.1046(9) 0.0509(5) 0.1377(5)
C5 C 0.1898(9) -0.0209(5) 0.1470(5)
C6 C 0.269(1) -0.0753(5) 0.0896(5)
C7 C 0.431(1) -0.0479(6) 0.0862(5)
C8 C 0.457(1) 0.0489(6) 0.0492(5)
C9 C 0.599(1) 0.0904(6) 0.0787(5)
C10 C 0.641(1) 0.1869(6) 0.0483(4)
C11 C 0.5466(9) 0.2519(5) 0.0947(5)
C12 C 0.5494(8) 0.2054(5) 0.1727(4)
C13 C 0.3955(8) 0.2064(5) 0.2075(4)
C14 C 0.3642(8) 0.1370(5) 0.2716(4)
C15 C 0.1788(9) 0.2040(5) 0.3606(5)
C16 C 0.021(1) 0.1889(6) 0.3767(5)
C17 C 0.261(1) 0.2725(5) 0.4072(5)
C18 C 0.061(1) 0.0906(6) 0.0621(5)
C19 C 0.456(1) 0.0426(6) -0.0377(5)
C20 C 0.6719(8) 0.2490(6) 0.2214(5)
C21 C 0.2599(9) 0.3463(6) 0.2008(5)
C22 C 0.239(1) 0.4375(5) 0.2383(5)
C23 C 0.494(1) 0.0716(6) 0.3735(5)
C24 C 0.610(1) 0.0943(7) 0.4308(5)
H1 H 0.1040 0.0293 0.2884
H2 H -0.0706 0.0910 0.1978
H3 H 0.0416 0.1701 0.1864
H4 H 0.2027 -0.0409 0.1969
H5 H 0.2619 -0.1392 0.1015
H6 H 0.2253 -0.0644 0.0425
H7 H 0.4682 -0.0462 0.1354
H8 H 0.4818 -0.0933 0.0582
H9 H 0.3793 0.0885 0.0637
H10 H 0.6771 0.0485 0.0700
H11 H 0.7415 0.1991 0.0554
H12 H 0.6175 0.1920 -0.0031
H13 H 0.5877 0.3122 0.0965
H14 H 0.4498 0.2553 0.0758
H15 H 0.3271 0.1945 0.1689
H16 H 0.3706 0.0762 0.2518
H17 H 0.2583 0.2539 0.4579
H18 H 0.3601 0.2751 0.3910
H19 H 0.2179 0.3318 0.4022
H20 H 0.0910 0.1534 0.0591
H21 H 0.1071 0.0562 0.0237
H22 H -0.0420 0.0870 0.0564
H23 H 0.3657 0.0168 -0.0538
H24 H 0.4667 0.1028 -0.0583
H25 H 0.5342 0.0045 -0.0539
H26 H 0.6793 0.2162 0.2670
H27 H 0.7623 0.2458 0.1956
H28 H 0.6487 0.3119 0.2313
H29 H 0.3272 0.4724 0.2348
H30 H 0.1623 0.4703 0.2149
H31 H 0.2161 0.4278 0.2892
H32 H 0.6238 0.0427 0.4626
H33 H 0.6991 0.1085 0.4062
H34 H 0.5794 0.1461 0.4593
loop_
_geom_bond_atom_site_label_1
_geom_bond_atom_site_label_2
_geom_bond_site_symmetry_1
_geom_bond_site_symmetry_2
O1 C2 1_555 1_555
O2 C16 1_555 1_555
O3 C9 1_555 1_555
O4 C13 1_555 1_555
O5 C21 1_555 1_555
O6 C14 1_555 1_555
O7 C23 1_555 1_555
C1 C2 1_555 1_555
C2 C3 1_555 1_555
C3 C4 1_555 1_555
C4 C5 1_555 1_555
C5 C6 1_555 1_555
C6 C7 1_555 1_555
C7 C8 1_555 1_555
C8 C9 1_555 1_555
C9 C10 1_555 1_555
C10 C11 1_555 1_555
C11 C12 1_555 1_555
C12 O3 1_555 1_555
C13 C12 1_555 1_555
C14 C1 1_555 1_555
C15 C1 1_555 1_555
C16 O1 1_555 1_555
C17 C15 1_555 1_555
C18 C4 1_555 1_555
C19 C8 1_555 1_555
C20 C12 1_555 1_555
C21 O4 1_555 1_555
C22 C21 1_555 1_555
C23 O6 1_555 1_555
C24 C23 1_555 1_555
H1 C2 1_555 1_555
H2 C3 1_555 1_555
H3 C3 1_555 1_555
H4 C5 1_555 1_555
H5 C6 1_555 1_555
H6 C6 1_555 1_555
H7 C7 1_555 1_555
H8 C7 1_555 1_555
H9 C8 1_555 1_555
H10 C9 1_555 1_555
H11 C10 1_555 1_555
H12 C10 1_555 1_555
H13 C11 1_555 1_555
H14 C11 1_555 1_555
H15 C13 1_555 1_555
H16 C14 1_555 1_555
H17 C17 1_555 1_555
H18 C17 1_555 1_555
H19 C17 1_555 1_555
H20 C18 1_555 1_555
H21 C18 1_555 1_555
H22 C18 1_555 1_555
H23 C19 1_555 1_555
H24 C19 1_555 1_555
H25 C19 1_555 1_555
H26 C20 1_555 1_555
H27 C20 1_555 1_555
H28 C20 1_555 1_555
H29 C22 1_555 1_555
H30 C22 1_555 1_555
H31 C22 1_555 1_555
H32 C24 1_555 1_555
H33 C24 1_555 1_555
H34 C24 1_555 1_555
C13 C14 1_555 1_555
C15 C16 1_555 1_555

#END
