
#######################################################################
#
#                 Cambridge Crystallographic Data Centre
#                                CCDC 
#
#######################################################################
#
# If this CIF has been generated from an entry in the Cambridge 
# Structural Database, then it will include bibliographic, chemical, 
# crystal, experimental, refinement or atomic coordinate data resulting 
# from the CCDC's data processing and validation procedures.
#
#######################################################################

data_VODNOR
_chemical_formula_moiety         'C22 H27 N1 O7 S1'
_chemical_name_systematic        
'6-(6,6-dimethyl-2-oxo-5-phenylmorpholin-3-yl)-2,4-dimethoxy-3-methylphenyl methanesulfonate'
_symmetry_cell_setting           orthorhombic
_symmetry_space_group_name_H-M   'P 21 21 21'
_symmetry_Int_Tables_number      19
_space_group_name_Hall           'P 2ac 2ab'
loop_
_symmetry_equiv_pos_site_id
_symmetry_equiv_pos_as_xyz
1 x,y,z
2 1/2-x,-y,1/2+z
3 1/2+x,1/2-y,-z
4 -x,1/2+y,1/2-z
_cell_length_a                   10.960(1)
_cell_length_b                   19.211(2)
_cell_length_c                   10.805(1)
_cell_angle_alpha                90
_cell_angle_beta                 90
_cell_angle_gamma                90
_cell_volume                     2275.02
_exptl_crystal_colour            colorless
_exptl_crystal_description       block
_cell_formula_units_Z            4
loop_
_atom_site_label
_atom_site_type_symbol
_atom_site_fract_x
_atom_site_fract_y
_atom_site_fract_z
S1 S 0.1746(3) 0.0724(1) 1.0086(3)
O1 O 0.1030(7) 0.3868(3) 1.2241(6)
O2 O 0.2492(7) 0.2329(3) 0.9177(6)
O3 O 0.2608(6) 0.1262(3) 1.0818(6)
O4 O 0.1258(6) 0.1543(3) 1.5509(5)
O5 O 0.3115(6) 0.1714(3) 1.4802(6)
O6 O 0.1981(7) 0.0066(3) 1.0652(7)
O7 O 0.0525(7) 0.1005(3) 1.0065(8)
N1 N 0.0447(8) 0.1047(4) 1.3248(7)
C1 C 0.2160(9) 0.2463(5) 1.0382(8)
C2 C 0.1796(10) 0.3115(5) 1.0731(9)
C3 C 0.1413(10) 0.3210(5) 1.1967(9)
C4 C 0.1418(8) 0.2663(4) 1.2804(8)
C5 C 0.1771(9) 0.1993(4) 1.2429(8)
C6 C 0.2143(9) 0.1914(5) 1.1218(9)
C7 C 0.056(1) 0.4011(5) 1.3444(10)
C8 C 0.176(1) 0.3710(5) 0.9833(9)
C9 C 0.1683(10) 0.1365(5) 1.3271(9)
C10 C 0.2079(10) 0.1547(5) 1.459(1)
C11 C -0.0421(9) 0.1400(4) 1.4040(9)
C12 C -0.0003(10) 0.1274(5) 1.5388(9)
C13 C -0.2032(10) 0.0479(5) 1.3525(10)
C14 C -0.173(1) 0.1177(4) 1.3780(8)
C15 C -0.266(1) 0.1670(5) 1.3749(9)
C16 C -0.385(1) 0.1470(6) 1.351(1)
C17 C -0.323(1) 0.0297(5) 1.332(1)
C18 C -0.415(1) 0.0788(6) 1.330(1)
C19 C 0.376(1) 0.2433(7) 0.894(1)
C20 C 0.0037(10) 0.0509(5) 1.5742(10)
C21 C -0.0733(9) 0.1693(5) 1.6304(9)
C22 C 0.240(1) 0.0736(6) 0.8606(10)
H1 H 0.2239 0.1026 1.2967
H2 H -0.0361 0.1885 1.3878
H3 H 0.1186 0.3939 1.4041
H4 H 0.0291 0.4480 1.3480
H5 H 0.2553 0.3908 0.9763
H6 H 0.1505 0.3546 0.9045
H7 H 0.1206 0.4053 1.0120
H8 H 0.4224 0.2215 0.9578
H9 H 0.3933 0.2918 0.8936
H10 H 0.3252 0.0646 0.8670
H11 H 0.2278 0.1180 0.8239
H12 H -0.0770 0.0331 1.5787
H13 H 0.0484 0.0257 1.5135
H14 H 0.0424 0.0459 1.6524
H15 H -0.0333 0.1690 1.7084
H16 H -0.0804 0.2159 1.6018
H17 H -0.1523 0.1496 1.6388
H18 H -0.1410 0.0135 1.3494
H19 H -0.2482 0.2147 1.3895
H20 H -0.4477 0.1814 1.3483
H21 H -0.3431 -0.0178 1.3186
H22 H -0.4976 0.0655 1.3149
H23 H 0.1180 0.2742 1.3638
H24 H 0.0341 0.0923 1.2588
H25 H -0.0103 0.3708 1.3612
H26 H 0.3968 0.2237 0.8166
H27 H 0.2030 0.0388 0.8107
loop_
_geom_bond_atom_site_label_1
_geom_bond_atom_site_label_2
_geom_bond_site_symmetry_1
_geom_bond_site_symmetry_2
S1 O3 1_555 1_555
O1 C3 1_555 1_555
O2 C1 1_555 1_555
O3 C6 1_555 1_555
O4 C10 1_555 1_555
O5 C10 1_555 1_555
O6 S1 1_555 1_555
O7 S1 1_555 1_555
N1 C9 1_555 1_555
C1 C2 1_555 1_555
C2 C3 1_555 1_555
C3 C4 1_555 1_555
C4 C5 1_555 1_555
C5 C6 1_555 1_555
C6 C1 1_555 1_555
C7 O1 1_555 1_555
C8 C2 1_555 1_555
C9 C5 1_555 1_555
C10 C9 1_555 1_555
C11 N1 1_555 1_555
C12 O4 1_555 1_555
C13 C14 1_555 1_555
C14 C11 1_555 1_555
C15 C14 1_555 1_555
C16 C15 1_555 1_555
C17 C13 1_555 1_555
C18 C16 1_555 1_555
C19 O2 1_555 1_555
C20 C12 1_555 1_555
C21 C12 1_555 1_555
C22 S1 1_555 1_555
H1 C9 1_555 1_555
H2 C11 1_555 1_555
H3 C7 1_555 1_555
H4 C7 1_555 1_555
H5 C8 1_555 1_555
H6 C8 1_555 1_555
H7 C8 1_555 1_555
H8 C19 1_555 1_555
H9 C19 1_555 1_555
H10 C22 1_555 1_555
H11 C22 1_555 1_555
H12 C20 1_555 1_555
H13 C20 1_555 1_555
H14 C20 1_555 1_555
H15 C21 1_555 1_555
H16 C21 1_555 1_555
H17 C21 1_555 1_555
H18 C13 1_555 1_555
H19 C15 1_555 1_555
H20 C16 1_555 1_555
H21 C17 1_555 1_555
H22 C18 1_555 1_555
H23 C4 1_555 1_555
H24 N1 1_555 1_555
H25 C7 1_555 1_555
H26 C19 1_555 1_555
H27 C22 1_555 1_555
C11 C12 1_555 1_555
C17 C18 1_555 1_555

#END
