
#######################################################################
#
#                 Cambridge Crystallographic Data Centre
#                                CCDC 
#
#######################################################################
#
# If this CIF has been generated from an entry in the Cambridge 
# Structural Database, then it will include bibliographic, chemical, 
# crystal, experimental, refinement or atomic coordinate data resulting 
# from the CCDC's data processing and validation procedures.
#
#######################################################################

data_VOFBUO
_chemical_formula_moiety         'C24 H28 N2 O4 S4'
_chemical_name_systematic        
4,5-Dithia-(3',6',9',12'-tetraoxatetradecyl)-2-bis(2-pyridyl)methylene-1,3-dithiole
_symmetry_cell_setting           monoclinic
_symmetry_space_group_name_H-M   'P 21/c'
_symmetry_Int_Tables_number      14
_space_group_name_Hall           '-P 2ybc'
loop_
_symmetry_equiv_pos_site_id
_symmetry_equiv_pos_as_xyz
1 x,y,z
2 -x,1/2+y,1/2-z
3 -x,-y,-z
4 x,1/2-y,1/2+z
_cell_length_a                   24.396(7)
_cell_length_b                   10.121(3)
_cell_length_c                   10.180(3)
_cell_angle_alpha                90
_cell_angle_beta                 96.305(5)
_cell_angle_gamma                90
_cell_volume                     2498.36
_exptl_crystal_colour            orange
_exptl_crystal_description       block
_chemical_melting_point          86-87deg.C
_cell_formula_units_Z            4
loop_
_atom_site_label
_atom_site_type_symbol
_atom_site_fract_x
_atom_site_fract_y
_atom_site_fract_z
S1 S 0.31659(5) 0.29709(10) 0.91179(12)
S2 S 0.29077(5) 0.03351(11) 0.80655(12)
S3 S 0.20022(5) 0.12655(12) 0.60540(12)
S4 S 0.22717(6) 0.42269(12) 0.72085(14)
N1 N 0.4150(2) -0.1211(4) 0.9273(5)
N2 N 0.43868(19) 0.0747(5) 1.2091(5)
O1 O 0.17888(16) 0.6961(3) 0.7875(4)
O2 O 0.08116(17) 0.6214(4) 0.9391(4)
O3 O 0.06562(15) 0.3439(4) 0.9218(4)
O4 O 0.08737(15) 0.0642(3) 0.8537(4)
C1 C 0.4217(3) -0.2554(6) 0.9212(6)
H1 H 0.4478 -0.2887 0.8699
C2 C 0.3923(2) -0.3409(5) 0.9860(6)
H2 H 0.3974 -0.4317 0.9804
C3 C 0.3549(3) -0.2888(5) 1.0595(6)
H3 H 0.3337 -0.3455 1.1052
C4 C 0.3471(2) -0.1576(4) 1.0691(5)
H4 H 0.3215 -0.1241 1.1217
C5 C 0.37656(19) -0.0774(4) 1.0023(4)
C6 C 0.36892(18) 0.0691(4) 1.0109(4)
C7 C 0.40275(18) 0.1429(4) 1.1133(4)
C8 C 0.39794(15) 0.2720(3) 1.1150(4)
H5 H 0.3747 0.3150 1.0502
C9 C 0.4262(2) 0.3393(4) 1.2086(5)
H6 H 0.4222 0.4307 1.2083
C10 C 0.4609(2) 0.2838(5) 1.3064(5)
H7 H 0.4794 0.3361 1.3720
C11 C 0.4681(2) 0.1513(5) 1.3071(5)
H8 H 0.4923 0.1116 1.3722
C12 C 0.33120(17) 0.1277(4) 0.9246(4)
C13 C 0.25140(18) 0.1629(4) 0.7345(4)
C14 C 0.26400(18) 0.2824(4) 0.7819(4)
C15 C 0.2601(2) 0.5532(4) 0.8191(5)
H9 H 0.2550 0.5399 0.9113
H10 H 0.2994 0.5534 0.8111
C16 C 0.2350(2) 0.6832(5) 0.7714(6)
H11 H 0.2552 0.7543 0.8189
H12 H 0.2395 0.6933 0.6785
C17 C 0.1680(3) 0.7291(5) 0.9181(6)
H13 H 0.1864 0.8115 0.9441
H14 H 0.1831 0.6609 0.9785
C18 C 0.1087(3) 0.7426(6) 0.9286(8)
H15 H 0.1038 0.7960 1.0055
H16 H 0.0918 0.7892 0.8513
C19 C 0.0705(3) 0.5512(6) 0.8209(6)
H17 H 0.1048 0.5202 0.7919
H18 H 0.0523 0.6079 0.7527
C20 C 0.0340(3) 0.4356(6) 0.8443(6)
H19 H 0.0031 0.4646 0.8894
H20 H 0.0197 0.3960 0.7608
C21 C 0.0364(3) 0.2323(5) 0.9562(7)
H21 H 0.0064 0.2145 0.8879
H22 H 0.0208 0.2487 1.0383
C22 C 0.0734(2) 0.1173(5) 0.9718(5)
H23 H 0.1069 0.1429 1.0257
H24 H 0.0558 0.0489 1.0192
C23 C 0.1298(2) 0.1316(5) 0.7979(5)
H25 H 0.1599 0.1509 0.8657
H26 H 0.1160 0.2145 0.7596
C24 C 0.14958(19) 0.0466(4) 0.6945(4)
H27 H 0.1184 0.0209 0.6325
H28 H 0.1655 -0.0331 0.7354
loop_
_geom_bond_atom_site_label_1
_geom_bond_atom_site_label_2
_geom_bond_site_symmetry_1
_geom_bond_site_symmetry_2
S1 C12 1_555 1_555
S2 C12 1_555 1_555
S3 C13 1_555 1_555
S4 C14 1_555 1_555
N1 C1 1_555 1_555
N2 C7 1_555 1_555
O1 C16 1_555 1_555
O2 C18 1_555 1_555
O3 C20 1_555 1_555
O4 C22 1_555 1_555
C1 H1 1_555 1_555
C2 C1 1_555 1_555
H2 C2 1_555 1_555
C3 C2 1_555 1_555
H3 C3 1_555 1_555
C4 C3 1_555 1_555
H4 C4 1_555 1_555
C5 N1 1_555 1_555
C6 C5 1_555 1_555
C7 C6 1_555 1_555
C8 C7 1_555 1_555
H5 C8 1_555 1_555
C9 C8 1_555 1_555
H6 C9 1_555 1_555
C10 C9 1_555 1_555
H7 C10 1_555 1_555
C11 N2 1_555 1_555
H8 C11 1_555 1_555
C12 C6 1_555 1_555
C13 S2 1_555 1_555
C14 S1 1_555 1_555
C15 S4 1_555 1_555
H9 C15 1_555 1_555
H10 C15 1_555 1_555
C16 C15 1_555 1_555
H11 C16 1_555 1_555
H12 C16 1_555 1_555
C17 O1 1_555 1_555
H13 C17 1_555 1_555
H14 C17 1_555 1_555
C18 C17 1_555 1_555
H15 C18 1_555 1_555
H16 C18 1_555 1_555
C19 O2 1_555 1_555
H17 C19 1_555 1_555
H18 C19 1_555 1_555
C20 C19 1_555 1_555
H19 C20 1_555 1_555
H20 C20 1_555 1_555
C21 O3 1_555 1_555
H21 C21 1_555 1_555
H22 C21 1_555 1_555
C22 C21 1_555 1_555
H23 C22 1_555 1_555
H24 C22 1_555 1_555
C23 O4 1_555 1_555
H25 C23 1_555 1_555
H26 C23 1_555 1_555
C24 S3 1_555 1_555
H27 C24 1_555 1_555
H28 C24 1_555 1_555
C4 C5 1_555 1_555
C10 C11 1_555 1_555
C13 C14 1_555 1_555
C23 C24 1_555 1_555

#END
