
#######################################################################
#
#                 Cambridge Crystallographic Data Centre
#                                CCDC 
#
#######################################################################
#
# If this CIF has been generated from an entry in the Cambridge 
# Structural Database, then it will include bibliographic, chemical, 
# crystal, experimental, refinement or atomic coordinate data resulting 
# from the CCDC's data processing and validation procedures.
#
#######################################################################

data_VOFCUQ
_chemical_formula_moiety         'C8 H10 N2 O1 S1'
_chemical_name_systematic        1-(4-Hydroxyphenyl)-3-methylthiourea
_symmetry_cell_setting           monoclinic
_symmetry_space_group_name_H-M   'P 21/n'
_symmetry_Int_Tables_number      14
_space_group_name_Hall           '-P 2yn'
loop_
_symmetry_equiv_pos_site_id
_symmetry_equiv_pos_as_xyz
1 x,y,z
2 1/2-x,1/2+y,1/2-z
3 -x,-y,-z
4 1/2+x,1/2-y,1/2+z
_cell_length_a                   10.4061(7)
_cell_length_b                   6.9530(5)
_cell_length_c                   13.4637(9)
_cell_angle_alpha                90
_cell_angle_beta                 111.4290(10)
_cell_angle_gamma                90
_cell_volume                     906.806
_exptl_crystal_colour            colorless
_exptl_crystal_description       block
_cell_formula_units_Z            4
loop_
_atom_site_label
_atom_site_type_symbol
_atom_site_fract_x
_atom_site_fract_y
_atom_site_fract_z
C1 C 0.3510(2) 0.2262(3) -0.16189(13)
H1 H 0.3298 0.2213 -0.2352
C2 C 0.24805(19) 0.2024(3) -0.12091(14)
H2 H 0.1574 0.1826 -0.1669
C3 C 0.27922(17) 0.2078(2) -0.01198(12)
C4 C 0.41387(19) 0.2358(2) 0.05543(13)
H3 H 0.4355 0.2371 0.1288
C5 C 0.51723(18) 0.2620(2) 0.01507(13)
H4 H 0.6077 0.2827 0.0611
C6 C 0.48571(18) 0.2574(2) -0.09362(13)
C7 C 0.12173(17) 0.2853(2) 0.08408(12)
C8 C 0.1342(2) 0.5959(3) 0.17245(16)
H5 H 0.0354 0.5940 0.1493
H6 H 0.1642 0.7216 0.1607
H7 H 0.1736 0.5653 0.2471
N1 N 0.17238(16) 0.1675(2) 0.02778(12)
H8 H 0.130(2) 0.067(3) 0.0017(16)
N2 N 0.17879(14) 0.4552(2) 0.11241(11)
H9 H 0.238(2) 0.484(3) 0.0912(16)
O1 O 0.59161(15) 0.2829(2) -0.12949(12)
H10 H 0.555(3) 0.281(4) -0.200(2)
S1 S -0.01368(5) 0.20752(8) 0.11610(4)
loop_
_geom_bond_atom_site_label_1
_geom_bond_atom_site_label_2
_geom_bond_site_symmetry_1
_geom_bond_site_symmetry_2
C1 H1 1_555 1_555
C2 C1 1_555 1_555
H2 C2 1_555 1_555
C3 C2 1_555 1_555
C4 C3 1_555 1_555
H3 C4 1_555 1_555
C5 C4 1_555 1_555
H4 C5 1_555 1_555
C6 C1 1_555 1_555
C7 N1 1_555 1_555
C8 H5 1_555 1_555
H6 C8 1_555 1_555
H7 C8 1_555 1_555
N1 C3 1_555 1_555
H8 N1 1_555 1_555
N2 C7 1_555 1_555
H9 N2 1_555 1_555
O1 C6 1_555 1_555
H10 O1 1_555 1_555
S1 C7 1_555 1_555
C5 C6 1_555 1_555
C8 N2 1_555 1_555

#END
