
#######################################################################
#
#                 Cambridge Crystallographic Data Centre
#                                CCDC 
#
#######################################################################
#
# If this CIF has been generated from an entry in the Cambridge 
# Structural Database, then it will include bibliographic, chemical, 
# crystal, experimental, refinement or atomic coordinate data resulting 
# from the CCDC's data processing and validation procedures.
#
#######################################################################

data_VOFCOK
_chemical_formula_moiety         'C13 H20 N2 O2,H2 O1'
_chemical_name_systematic        '1-Hexyl-3-(4-hydroxyphenyl)urea monohydrate'
_symmetry_cell_setting           triclinic
_symmetry_space_group_name_H-M   'P -1'
_symmetry_Int_Tables_number      2
_space_group_name_Hall           '-P 1'
loop_
_symmetry_equiv_pos_site_id
_symmetry_equiv_pos_as_xyz
1 x,y,z
2 -x,-y,-z
_cell_length_a                   8.6450(18)
_cell_length_b                   10.533(2)
_cell_length_c                   16.581(3)
_cell_angle_alpha                77.112(4)
_cell_angle_beta                 84.771(5)
_cell_angle_gamma                81.819(4)
_cell_volume                     1454.05
_exptl_crystal_colour            colorless
_exptl_crystal_description       plate
_cell_formula_units_Z            4
loop_
_atom_site_label
_atom_site_type_symbol
_atom_site_fract_x
_atom_site_fract_y
_atom_site_fract_z
C1 C 0.0708(7) 0.7114(5) 0.1154(4)
C2 C 0.1436(8) 0.6870(6) 0.1885(4)
H1 H 0.1447 0.7549 0.2159
C3 C 0.2150(7) 0.5635(5) 0.2215(3)
H2 H 0.2629 0.5485 0.2714
C4 C 0.2167(6) 0.4610(5) 0.1816(3)
C5 C 0.1430(7) 0.4859(5) 0.1082(3)
H3 H 0.1416 0.4182 0.0807
C6 C 0.0716(7) 0.6098(6) 0.0753(3)
H4 H 0.0235 0.6252 0.0255
C7 C 0.2486(7) 0.2186(5) 0.2237(3)
C8 C 0.3058(8) -0.0158(5) 0.2858(4)
H5 H 0.4017 -0.0758 0.2845
H6 H 0.2398 -0.0293 0.2449
C9 C 0.2224(8) -0.0465(6) 0.3710(4)
H7 H 0.2870 -0.0283 0.4109
H8 H 0.1252 0.0123 0.3710
C10 C 0.1856(9) -0.1864(6) 0.3994(4)
H9 H 0.2828 -0.2454 0.4009
H10 H 0.1227 -0.2056 0.3591
C11 C 0.0979(10) -0.2136(7) 0.4851(5)
H11 H 0.1635 -0.1980 0.5255
H12 H 0.0040 -0.1509 0.4840
C12 C 0.0543(12) -0.3415(8) 0.5125(6)
H13 H 0.1480 -0.4047 0.5159
H14 H -0.0093 -0.3587 0.4718
C13 C -0.0360(13) -0.3615(10) 0.5959(5)
H15 H 0.0337 -0.3661 0.6386
H16 H -0.0819 -0.4417 0.6054
H17 H -0.1171 -0.2892 0.5965
N1 N 0.2971(5) 0.3380(4) 0.2169(3)
H18 H 0.3860 0.3385 0.2361
N2 N 0.3430(5) 0.1183(4) 0.2640(3)
H19 H 0.4308 0.1336 0.2780
O1 O -0.0010(6) 0.8354(4) 0.0851(3)
H20 H -0.0338 0.8385 0.0397
O2 O 0.1233(4) 0.2060(3) 0.1960(2)
C14 C 0.6670(7) -0.2410(5) 0.3964(4)
C15 C 0.7384(9) -0.2234(6) 0.3185(4)
H21 H 0.7558 -0.2926 0.2910
C16 C 0.7845(8) -0.1033(6) 0.2805(4)
H22 H 0.8342 -0.0925 0.2277
C17 C 0.7583(6) 0.0004(5) 0.3195(4)
C18 C 0.6858(7) -0.0178(5) 0.3984(4)
H23 H 0.6674 0.0521 0.4252
C19 C 0.6402(7) -0.1382(5) 0.4382(3)
H24 H 0.5928 -0.1501 0.4916
C20 C 0.7324(7) 0.2427(5) 0.2719(3)
C21 C 0.7402(7) 0.4749(5) 0.2098(3)
H25 H 0.8204 0.5313 0.2081
H26 H 0.6627 0.4903 0.2538
C22 C 0.6628(7) 0.5123(5) 0.1283(3)
H27 H 0.5761 0.4617 0.1316
H28 H 0.7376 0.4900 0.0848
C23 C 0.6022(8) 0.6580(6) 0.1056(4)
H29 H 0.6898 0.7086 0.0981
H30 H 0.5332 0.6818 0.1508
C24 C 0.5131(8) 0.6928(6) 0.0259(4)
H31 H 0.5822 0.6663 -0.0186
H32 H 0.4255 0.6421 0.0342
C25 C 0.4524(10) 0.8348(7) -0.0010(5)
H33 H 0.3868 0.8621 0.0443
H34 H 0.5405 0.8851 -0.0115
C26 C 0.3605(11) 0.8682(8) -0.0764(4)
H35 H 0.4183 0.8309 -0.1196
H36 H 0.3416 0.9618 -0.0947
H37 H 0.2623 0.8333 -0.0635
N3 N 0.8137(5) 0.1205(4) 0.2804(3)
H38 H 0.9087 0.1157 0.2598
N4 N 0.8103(6) 0.3399(4) 0.2290(3)
H39 H 0.9061 0.3210 0.2121
O3 O 0.6261(6) -0.3637(4) 0.4334(3)
H40 H 0.5798 -0.3609 0.4786
O4 O 0.5961(4) 0.2583(3) 0.3024(2)
O5 O 0.4768(6) 0.4227(5) 0.4076(3)
H41 H 0.541(8) 0.356(5) 0.418(6)
H42 H 0.523(9) 0.487(5) 0.388(6)
O6 O 0.1002(9) 0.0884(5) 0.0655(3)
H43 H 0.086(13) 0.130(7) 0.103(4)
H44 H 0.080(13) 0.013(4) 0.085(5)
loop_
_geom_bond_atom_site_label_1
_geom_bond_atom_site_label_2
_geom_bond_site_symmetry_1
_geom_bond_site_symmetry_2
C1 C2 1_555 1_555
C2 H1 1_555 1_555
C3 C2 1_555 1_555
H2 C3 1_555 1_555
C4 C3 1_555 1_555
C5 C4 1_555 1_555
H3 C5 1_555 1_555
C6 C1 1_555 1_555
H4 C6 1_555 1_555
C7 N1 1_555 1_555
C8 H5 1_555 1_555
H6 C8 1_555 1_555
C9 C8 1_555 1_555
H7 C9 1_555 1_555
H8 C9 1_555 1_555
C10 C9 1_555 1_555
H9 C10 1_555 1_555
H10 C10 1_555 1_555
C11 C10 1_555 1_555
H11 C11 1_555 1_555
H12 C11 1_555 1_555
C12 C11 1_555 1_555
H13 C12 1_555 1_555
H14 C12 1_555 1_555
C13 C12 1_555 1_555
H15 C13 1_555 1_555
H16 C13 1_555 1_555
H17 C13 1_555 1_555
N1 C4 1_555 1_555
H18 N1 1_555 1_555
N2 C7 1_555 1_555
H19 N2 1_555 1_555
O1 C1 1_555 1_555
H20 O1 1_555 1_555
O2 C7 1_555 1_555
C14 C15 1_555 1_555
C15 H21 1_555 1_555
C16 C15 1_555 1_555
H22 C16 1_555 1_555
C17 C16 1_555 1_555
C18 C17 1_555 1_555
H23 C18 1_555 1_555
C19 C14 1_555 1_555
H24 C19 1_555 1_555
C20 N3 1_555 1_555
C21 H25 1_555 1_555
H26 C21 1_555 1_555
C22 C21 1_555 1_555
H27 C22 1_555 1_555
H28 C22 1_555 1_555
C23 C22 1_555 1_555
H29 C23 1_555 1_555
H30 C23 1_555 1_555
C24 C23 1_555 1_555
H31 C24 1_555 1_555
H32 C24 1_555 1_555
C25 C24 1_555 1_555
H33 C25 1_555 1_555
H34 C25 1_555 1_555
C26 C25 1_555 1_555
H35 C26 1_555 1_555
H36 C26 1_555 1_555
H37 C26 1_555 1_555
N3 C17 1_555 1_555
H38 N3 1_555 1_555
N4 C20 1_555 1_555
H39 N4 1_555 1_555
O3 C14 1_555 1_555
H40 O3 1_555 1_555
O4 C20 1_555 1_555
O5 H41 1_555 1_555
H42 O5 1_555 1_555
O6 H43 1_555 1_555
H44 O6 1_555 1_555
C5 C6 1_555 1_555
C8 N2 1_555 1_555
C18 C19 1_555 1_555
C21 N4 1_555 1_555

#END
