
#######################################################################
#
#                 Cambridge Crystallographic Data Centre
#                                CCDC 
#
#######################################################################
#
# If this CIF has been generated from an entry in the Cambridge 
# Structural Database, then it will include bibliographic, chemical, 
# crystal, experimental, refinement or atomic coordinate data resulting 
# from the CCDC's data processing and validation procedures.
#
#######################################################################

data_VOFDIF
_chemical_formula_moiety         'C15 H15 N3 O4'
_chemical_name_systematic        
1-(2-(4-Hydroxyphenyl)ethyl)-3-(4-nitrophenyl)urea
_symmetry_cell_setting           orthorhombic
_symmetry_space_group_name_H-M   'P 21 21 21'
_symmetry_Int_Tables_number      19
_space_group_name_Hall           'P 2ac 2ab'
loop_
_symmetry_equiv_pos_site_id
_symmetry_equiv_pos_as_xyz
1 x,y,z
2 1/2-x,-y,1/2+z
3 -x,1/2+y,1/2-z
4 1/2+x,1/2-y,-z
_cell_length_a                   4.8257(3)
_cell_length_b                   6.4493(4)
_cell_length_c                   46.105(4)
_cell_angle_alpha                90
_cell_angle_beta                 90
_cell_angle_gamma                90
_cell_volume                     1434.9
_exptl_crystal_colour            colorless
_exptl_crystal_description       plate
_cell_formula_units_Z            4
loop_
_atom_site_label
_atom_site_type_symbol
_atom_site_fract_x
_atom_site_fract_y
_atom_site_fract_z
C1 C 0.3760(9) 0.9111(7) 0.20491(9)
C2 C 0.1605(9) 0.8003(7) 0.21727(9)
H1 H 0.0752 0.8482 0.2341
C3 C 0.0742(9) 0.6205(7) 0.20464(9)
H2 H -0.0680 0.5440 0.2131
C4 C 0.1979(9) 0.5511(7) 0.17926(9)
C5 C 0.4197(9) 0.6619(7) 0.16753(9)
H3 H 0.5079 0.6143 0.1509
C6 C 0.5070(9) 0.8413(7) 0.18064(9)
H4 H 0.6555 0.9151 0.1730
C7 C 0.1942(9) 0.2596(7) 0.14418(9)
C8 C 0.0938(12) 0.0106(8) 0.10639(12)
H5 H 0.2862 -0.0296 0.1087
H6 H 0.0795 0.0925 0.0888
C9 C -0.0788(13) -0.1797(9) 0.10319(12)
H7 H -0.2728 -0.1403 0.1028
H8 H -0.0501 -0.2681 0.1199
C10 C -0.0136(11) -0.2999(8) 0.07630(10)
C11 C 0.1883(12) -0.4518(8) 0.07621(11)
H9 H 0.2842 -0.4795 0.0933
C12 C 0.2514(11) -0.5627(8) 0.05181(11)
H10 H 0.3921 -0.6612 0.0524
C13 C 0.1109(10) -0.5304(8) 0.02673(10)
C14 C -0.0901(12) -0.3786(9) 0.02582(11)
H11 H -0.1867 -0.3522 0.0088
C15 C -0.1454(11) -0.2668(9) 0.05053(13)
H12 H -0.2795 -0.1634 0.0496
N1 N 0.4624(8) 1.1045(6) 0.21832(8)
N2 N 0.0880(8) 0.3739(6) 0.16625(9)
N3 N 0.0123(8) 0.1364(6) 0.13076(9)
O1 O 0.6688(8) 1.1913(6) 0.20818(8)
O2 O 0.3341(8) 1.1753(6) 0.23853(8)
H13 H -0.047(13) 0.331(10) 0.1724(12)
O3 O 0.4391(6) 0.2683(5) 0.13730(7)
H14 H -0.161(12) 0.168(8) 0.1338(10)
O4 O 0.1534(8) -0.6399(7) 0.00177(8)
H15 H 0.301(15) -0.725(13) 0.0040(15)
loop_
_geom_bond_atom_site_label_1
_geom_bond_atom_site_label_2
_geom_bond_site_symmetry_1
_geom_bond_site_symmetry_2
C1 C2 1_555 1_555
C2 H1 1_555 1_555
C3 C2 1_555 1_555
H2 C3 1_555 1_555
C4 C3 1_555 1_555
C5 C4 1_555 1_555
H3 C5 1_555 1_555
C6 C1 1_555 1_555
H4 C6 1_555 1_555
C7 N2 1_555 1_555
C8 H5 1_555 1_555
H6 C8 1_555 1_555
C9 C8 1_555 1_555
H7 C9 1_555 1_555
H8 C9 1_555 1_555
C10 C9 1_555 1_555
C11 C10 1_555 1_555
H9 C11 1_555 1_555
C12 C11 1_555 1_555
H10 C12 1_555 1_555
C13 C12 1_555 1_555
C14 C13 1_555 1_555
H11 C14 1_555 1_555
C15 C10 1_555 1_555
H12 C15 1_555 1_555
N1 C1 1_555 1_555
N2 C4 1_555 1_555
N3 C7 1_555 1_555
O1 N1 1_555 1_555
O2 N1 1_555 1_555
H13 N2 1_555 1_555
O3 C7 1_555 1_555
H14 N3 1_555 1_555
O4 C13 1_555 1_555
H15 O4 1_555 1_555
C5 C6 1_555 1_555
C8 N3 1_555 1_555
C14 C15 1_555 1_555

#END
