
#######################################################################
#
#                 Cambridge Crystallographic Data Centre
#                                CCDC 
#
#######################################################################
#
# If this CIF has been generated from an entry in the Cambridge 
# Structural Database, then it will include bibliographic, chemical, 
# crystal, experimental, refinement or atomic coordinate data resulting 
# from the CCDC's data processing and validation procedures.
#
#######################################################################

data_VOFDOJ
_chemical_compound_source        'Stem bark of Goniothalamus giganteus'
_chemical_name_common            9-Deoxygoniopyrone
_chemical_formula_moiety         'C13 H14 O4'
_chemical_name_systematic        
8-Hydroxy-7-phenyl-2,6-dioxabicyclo(3.3.1)nonan-3-one
_symmetry_cell_setting           orthorhombic
_symmetry_space_group_name_H-M   'P 21 21 21'
_symmetry_Int_Tables_number      19
_space_group_name_Hall           'P 2ac 2ab'
loop_
_symmetry_equiv_pos_site_id
_symmetry_equiv_pos_as_xyz
1 x,y,z
2 1/2+x,1/2-y,-z
3 -x,1/2+y,1/2-z
4 1/2-x,-y,1/2+z
_cell_length_a                   6.1946(7)
_cell_length_b                   7.9942(7)
_cell_length_c                   22.429(2)
_cell_angle_alpha                90
_cell_angle_beta                 90
_cell_angle_gamma                90
_cell_volume                     1110.7
_exptl_crystal_colour            colorless
_chemical_melting_point          203-204deg.C
_cell_formula_units_Z            4
loop_
_atom_site_label
_atom_site_type_symbol
_atom_site_fract_x
_atom_site_fract_y
_atom_site_fract_z
O1 O 1.5027(3) 0.4572(2) 0.1668(8)
O2 O 1.4225(5) 0.2111(3) 0.1329(1)
O3 O 1.0059(3) 0.6506(3) 0.1611(8)
O4 O 1.3622(4) 0.8928(2) 0.1812(9)
C1 C 1.4422(5) 0.6119(3) 0.1967(1)
C2 C 1.3592(6) 0.3365(3) 0.1563(1)
C3 C 1.1273(6) 0.3595(4) 0.1749(1)
C4 C 1.0703(5) 0.5262(4) 0.2038(1)
C5 C 1.1708(4) 0.6919(3) 0.1187(1)
C6 C 1.3803(5) 0.7405(3) 0.1497(1)
C7 C 1.2603(6) 0.5851(4) 0.2397(1)
C8 C 1.0914(5) 0.8309(3) 0.0795(1)
C9 C 0.9176(5) 0.9322(4) 0.0946(1)
C10 C 0.8537(6) 1.0626(4) 0.0578(1)
C11 C 0.9646(6) 1.0925(4) 0.0055(1)
C12 C 1.1364(6) 0.9938(4) -0.0101(1)
C13 C 1.1983(5) 0.8628(4) 0.0261(1)
H1 H 1.345(8) 0.976(5) 0.157(2)
H2 H 1.040 0.349 0.140
H3 H 1.091 0.273 0.201
H4 H 0.949 0.511 0.230
H5 H 1.229 0.687 0.260
H6 H 1.301 0.503 0.269
H7 H 1.561 0.653 0.220
H8 H 1.485 0.747 0.118
H9 H 1.202 0.597 0.095
H10 H 0.841 0.911 0.131
H11 H 0.731 1.133 0.068
H12 H 0.918 1.179 -0.021
H13 H 1.220 1.018 -0.045
H14 H 1.314 0.791 0.013
loop_
_geom_bond_atom_site_label_1
_geom_bond_atom_site_label_2
_geom_bond_site_symmetry_1
_geom_bond_site_symmetry_2
O1 C1 1_555 1_555
O2 C2 1_555 1_555
O3 C4 1_555 1_555
O4 C6 1_555 1_555
C1 C6 1_555 1_555
C2 O1 1_555 1_555
C3 C2 1_555 1_555
C4 C3 1_555 1_555
C5 O3 1_555 1_555
C6 C5 1_555 1_555
C7 C1 1_555 1_555
C8 C5 1_555 1_555
C9 C8 1_555 1_555
C10 C9 1_555 1_555
C11 C10 1_555 1_555
C12 C11 1_555 1_555
C13 C8 1_555 1_555
H1 O4 1_555 1_555
H2 C3 1_555 1_555
H3 C3 1_555 1_555
H4 C4 1_555 1_555
H5 C7 1_555 1_555
H6 C7 1_555 1_555
H7 C1 1_555 1_555
H8 C6 1_555 1_555
H9 C5 1_555 1_555
H10 C9 1_555 1_555
H11 C10 1_555 1_555
H12 C11 1_555 1_555
H13 C12 1_555 1_555
H14 C13 1_555 1_555
C4 C7 1_555 1_555
C12 C13 1_555 1_555

#END
