
#######################################################################
#
#                 Cambridge Crystallographic Data Centre
#                                CCDC 
#
#######################################################################
#
# If this CIF has been generated from an entry in the Cambridge 
# Structural Database, then it will include bibliographic, chemical, 
# crystal, experimental, refinement or atomic coordinate data resulting 
# from the CCDC's data processing and validation procedures.
#
#######################################################################

data_VOFDOL
_chemical_formula_moiety         'C13 H11 N3 O4'
_chemical_name_systematic        1-(4-Hydroxyphenyl)-3-(4-nitrophenyl)urea
_symmetry_cell_setting           orthorhombic
_symmetry_space_group_name_H-M   'P 21 21 21'
_symmetry_Int_Tables_number      19
_space_group_name_Hall           'P 2ac 2ab'
loop_
_symmetry_equiv_pos_site_id
_symmetry_equiv_pos_as_xyz
1 x,y,z
2 1/2-x,-y,1/2+z
3 -x,1/2+y,1/2-z
4 1/2+x,1/2-y,-z
_cell_length_a                   4.7597(8)
_cell_length_b                   6.3882(11)
_cell_length_c                   39.586(7)
_cell_angle_alpha                90
_cell_angle_beta                 90
_cell_angle_gamma                90
_cell_volume                     1203.65
_exptl_crystal_colour            colorless
_exptl_crystal_description       plate
_cell_formula_units_Z            4
loop_
_atom_site_label
_atom_site_type_symbol
_atom_site_fract_x
_atom_site_fract_y
_atom_site_fract_z
C1 C 0.7555(6) 1.5122(5) 0.03320(7)
C2 C 0.8978(6) 1.3252(6) 0.03396(7)
H1 H 1.0383 1.2992 0.0182
C3 C 0.8344(6) 1.1759(5) 0.05790(7)
H2 H 0.9304 1.0491 0.0581
C4 C 0.6283(6) 1.2148(5) 0.08159(7)
C5 C 0.4909(7) 1.4025(5) 0.08086(7)
H3 H 0.3530 1.4298 0.0969
C6 C 0.5520(7) 1.5540(5) 0.05670(8)
H4 H 0.4567 1.6810 0.0565
C7 C 0.7197(6) 0.9357(4) 0.12316(7)
C8 C 0.6947(6) 0.6439(4) 0.16407(7)
C9 C 0.9120(6) 0.5249(5) 0.15090(7)
H5 H 0.9978 0.5658 0.1309
C10 C 1.0018(7) 0.3480(5) 0.16706(7)
H6 H 1.1499 0.2700 0.1583
C11 C 0.8701(6) 0.2869(4) 0.19641(7)
C12 C 0.6589(6) 0.4029(5) 0.21067(7)
H7 H 0.5760 0.3617 0.2309
C13 C 0.5722(6) 0.5824(5) 0.19434(7)
H8 H 0.4298 0.6633 0.2037
N1 N 0.5433(5) 1.0637(4) 0.10611(6)
H9 H 0.367(8) 1.048(5) 0.1100(7)
N2 N 0.5851(6) 0.8179(4) 0.14736(6)
H10 H 0.415(8) 0.843(6) 0.1486(7)
N3 N 0.9633(6) 0.0947(4) 0.21305(7)
O1 O 0.8222(6) 1.6557(4) 0.00811(6)
H11 H 0.624(10) 1.724(9) 0.0041(11)
O2 O 0.9727(4) 0.9253(4) 0.11819(5)
O3 O 1.1661(5) 0.0018(4) 0.20159(6)
O4 O 0.8319(5) 0.0344(4) 0.23767(6)
loop_
_geom_bond_atom_site_label_1
_geom_bond_atom_site_label_2
_geom_bond_site_symmetry_1
_geom_bond_site_symmetry_2
C1 C2 1_555 1_555
C2 H1 1_555 1_555
C3 C2 1_555 1_555
H2 C3 1_555 1_555
C4 C3 1_555 1_555
C5 C4 1_555 1_555
H3 C5 1_555 1_555
C6 C1 1_555 1_555
H4 C6 1_555 1_555
C7 N1 1_555 1_555
C8 C9 1_555 1_555
C9 H5 1_555 1_555
C10 C9 1_555 1_555
H6 C10 1_555 1_555
C11 C10 1_555 1_555
C12 C11 1_555 1_555
H7 C12 1_555 1_555
C13 C8 1_555 1_555
H8 C13 1_555 1_555
N1 C4 1_555 1_555
H9 N1 1_555 1_555
N2 C7 1_555 1_555
H10 N2 1_555 1_555
N3 C11 1_555 1_555
O1 C1 1_555 1_555
H11 O1 1_555 1_555
O2 C7 1_555 1_555
O3 N3 1_555 1_555
O4 N3 1_555 1_555
C5 C6 1_555 1_555
C8 N2 1_555 1_555
C12 C13 1_555 1_555

#END
