
#######################################################################
#
#                 Cambridge Crystallographic Data Centre
#                                CCDC 
#
#######################################################################
#
# If this CIF has been generated from an entry in the Cambridge 
# Structural Database, then it will include bibliographic, chemical, 
# crystal, experimental, refinement or atomic coordinate data resulting 
# from the CCDC's data processing and validation procedures.
#
#######################################################################

data_VOFDUP
_chemical_compound_source        'Stem bark of Goniothalamus giganteus'
_chemical_name_common            7-epi-Goniofufurone
_chemical_formula_moiety         'C13 H14 O5'
_chemical_name_systematic        
(3aS*,5S*,6R*,6aS*,7R*)-6-Hydroxy-5-(\a-hydroxybenzyl)-3a,5,6,6a-tetrahydrofuro(3,2-b)furan-2(3H)-one
_symmetry_cell_setting           orthorhombic
_symmetry_space_group_name_H-M   'P 21 21 21'
_symmetry_Int_Tables_number      19
_space_group_name_Hall           'P 2ac 2ab'
loop_
_symmetry_equiv_pos_site_id
_symmetry_equiv_pos_as_xyz
1 x,y,z
2 1/2+x,1/2-y,-z
3 -x,1/2+y,1/2-z
4 1/2-x,-y,1/2+z
_cell_length_a                   7.8365(6)
_cell_length_b                   11.825(1)
_cell_length_c                   13.1699(8)
_cell_angle_alpha                90
_cell_angle_beta                 90
_cell_angle_gamma                90
_cell_volume                     1220.41
_chemical_melting_point          190-192deg.C
_cell_formula_units_Z            4
loop_
_atom_site_label
_atom_site_type_symbol
_atom_site_fract_x
_atom_site_fract_y
_atom_site_fract_z
O1 O -0.3944(3) 0.8764(2) 0.3032(2)
O2 O -0.5209(4) 0.7257(3) 0.3670(2)
O3 O -0.0233(4) 0.8291(2) 0.3639(2)
O4 O -0.0130(4) 1.0418(2) 0.2501(3)
O5 O 0.2137(3) 0.7272(2) 0.2348(2)
C1 C -0.4138(5) 0.7973(4) 0.3751(3)
C2 C -0.2856(6) 0.8144(5) 0.4576(3)
C3 C -0.1570(5) 0.8909(4) 0.4123(3)
C4 C -0.0343(4) 0.8418(3) 0.2553(3)
C5 C -0.1282(5) 0.9519(3) 0.2389(3)
C6 C -0.2533(5) 0.9497(3) 0.3272(3)
C7 C 0.1442(5) 0.8370(3) 0.2119(3)
C8 C 0.1458(5) 0.8548(3) 0.0982(3)
C9 C 0.2183(6) 0.9495(3) 0.0569(3)
C10 C 0.2190(6) 0.9652(4) -0.0478(4)
C11 C 0.1497(6) 0.8864(4) -0.1107(3)
C12 C 0.0749(5) 0.7910(4) -0.0701(3)
C13 C 0.0732(5) 0.7742(3) 0.0336(3)
H1 H -0.111(7) 1.097(5) 0.253(4)
H2 H 0.360(8) 0.732(5) 0.286(4)
H3 H -0.090(4) 0.772(3) 0.224(3)
H4 H -0.191(5) 0.940(3) 0.173(3)
H5 H 0.231(4) 0.891(2) 0.247(2)
H6 H -0.089(5) 0.961(3) 0.460(3)
H7 H -0.311(5) 1.034(4) 0.345(3)
H8 H 0.285(5) 1.015(3) 0.104(3)
H9 H 0.277(7) 1.044(4) -0.079(4)
H10 H 0.169(5) 0.890(3) -0.183(3)
H11 H 0.022(5) 0.742(3) -0.116(3)
H12 H 0.010(5) 0.725(3) 0.063(3)
loop_
_geom_bond_atom_site_label_1
_geom_bond_atom_site_label_2
_geom_bond_site_symmetry_1
_geom_bond_site_symmetry_2
O1 C1 1_555 1_555
O2 C1 1_555 1_555
O3 C3 1_555 1_555
O4 C5 1_555 1_555
O5 C7 1_555 1_555
C1 C2 1_555 1_555
C2 C3 1_555 1_555
C3 C6 1_555 1_555
C4 O3 1_555 1_555
C5 C4 1_555 1_555
C6 O1 1_555 1_555
C7 C4 1_555 1_555
C8 C7 1_555 1_555
C9 C8 1_555 1_555
C10 C9 1_555 1_555
C11 C10 1_555 1_555
C12 C11 1_555 1_555
C13 C8 1_555 1_555
H1 O4 1_555 1_555
H2 O5 1_555 1_555
H3 C4 1_555 1_555
H4 C5 1_555 1_555
H5 C7 1_555 1_555
H6 C3 1_555 1_555
H7 C6 1_555 1_555
H8 C9 1_555 1_555
H9 C10 1_555 1_555
H10 C11 1_555 1_555
H11 C12 1_555 1_555
H12 C13 1_555 1_555
C5 C6 1_555 1_555
C12 C13 1_555 1_555

#END
