
#######################################################################
#
#                 Cambridge Crystallographic Data Centre
#                                CCDC 
#
#######################################################################
#
# If this CIF has been generated from an entry in the Cambridge 
# Structural Database, then it will include bibliographic, chemical, 
# crystal, experimental, refinement or atomic coordinate data resulting 
# from the CCDC's data processing and validation procedures.
#
#######################################################################

data_VOFJIK
_chemical_name_common            
'bis(Cyclomaltoheptaose) tris(o-aminobenzoic acid) clathrate hydrate'
_chemical_formula_moiety         '2(C42 H70 O35),3(C7 H7 N1 O2),23(H2 O1)'
_chemical_name_systematic        
'bis(\b-Cyclodextrin) tris(o-aminobenzoic acid) clathrate hydrate'
_symmetry_cell_setting           triclinic
_symmetry_space_group_name_H-M   'P 1'
_symmetry_Int_Tables_number      1
_space_group_name_Hall           'P 1'
loop_
_symmetry_equiv_pos_site_id
_symmetry_equiv_pos_as_xyz
1 x,y,z
_cell_length_a                   15.249(2)
_cell_length_b                   15.2998(16)
_cell_length_c                   17.853(3)
_cell_angle_alpha                99.5650(10)
_cell_angle_beta                 113.421(5)
_cell_angle_gamma                101.931(2)
_cell_volume                     3593.57
_exptl_crystal_colour            colorless
_exptl_crystal_description       prism
_cell_formula_units_Z            1
loop_
_atom_site_label
_atom_site_type_symbol
_atom_site_fract_x
_atom_site_fract_y
_atom_site_fract_z
O1 O 0.3291(3) 0.3982(3) -0.0135(3)
O2 O 0.2772(4) 0.3329(3) 0.1057(3)
H1 H 0.2666 0.3824 0.0956
O3 O 0.3692(4) 0.1898(3) 0.1079(3)
H2 H 0.3977 0.1502 0.1001
O4 O 0.2247(4) 0.2594(3) -0.1162(3)
O5 O 0.1692(5) 0.0778(4) -0.2047(4)
H3 H 0.1697 0.0234 -0.2214
O6 O 0.4231(4) 0.1502(3) -0.0303(3)
O7 O 0.4749(4) 0.0673(3) 0.1034(3)
H4 H 0.4580 0.1161 0.1036
O8 O 0.6729(4) 0.1014(4) 0.1304(3)
H5 H 0.6819 0.1444 0.1711
O9 O 0.4395(4) 0.0276(3) -0.1150(3)
O10 O 0.5530(4) -0.0550(3) -0.1807(3)
H6 H 0.5717 -0.0743 -0.2169
O11 O 0.7118(4) 0.1414(3) -0.0060(3)
O12 O 0.8552(4) 0.1066(3) 0.1289(3)
H7 H 0.9075 0.1046 0.1685
O13 O 1.0120(4) 0.2698(3) 0.1698(3)
H8 H 1.0350 0.3280 0.1863
O14 O 0.8063(4) 0.1352(3) -0.0802(3)
O15 O 0.9363(6) 0.2206(5) -0.1425(4)
H9 H 0.9714 0.2589 -0.1559
O16 O 0.9767(3) 0.3696(3) 0.0441(3)
O17 O 1.1495(4) 0.4358(3) 0.1989(3)
H10 H 1.1686 0.4757 0.2451
O18 O 1.1586(4) 0.6290(3) 0.2202(3)
H11 H 1.1270 0.6404 0.2480
O19 O 1.0603(4) 0.4529(3) -0.0192(3)
O20 O 1.1123(4) 0.6104(3) -0.0770(3)
H12 H 1.1298 0.5743 -0.1054
O21 O 1.0232(3) 0.6663(3) 0.0756(3)
O22 O 1.1419(4) 0.8071(3) 0.2315(3)
H13 H 1.1381 0.7505 0.2220
O23 O 0.9831(4) 0.8752(3) 0.2284(3)
H14 H 0.9379 0.8531 0.2416
O24 O 1.0022(4) 0.7802(3) 0.0049(3)
O25 O 0.8942(5) 0.8960(4) -0.0728(4)
H15 H 0.8653 0.9295 -0.0551
O26 O 0.8052(3) 0.8071(3) 0.0677(3)
O27 O 0.8164(4) 0.9193(3) 0.2141(3)
H16 H 0.8314 0.9764 0.2367
O28 O 0.6294(4) 0.8197(3) 0.1951(3)
H17 H 0.5692 0.7896 0.1781
O29 O 0.6703(3) 0.8526(3) -0.0163(3)
O30 O 0.4620(4) 0.8228(3) -0.1181(3)
H18 H 0.4999 0.8720 -0.1169
O31 O 0.5003(3) 0.6885(3) 0.0315(3)
O32 O 0.4459(3) 0.7126(3) 0.1617(3)
H19 H 0.4143 0.7249 0.1892
O33 O 0.3660(4) 0.5205(3) 0.1417(3)
H20 H 0.3132 0.5310 0.1394
O34 O 0.3340(3) 0.6210(3) -0.0676(3)
O35 O 0.1601(4) 0.4817(3) -0.1798(3)
H21 H 0.1500 0.5255 -0.2016
C1 C 0.2436(5) 0.3205(4) -0.0401(4)
H43 H 0.1841 0.3428 -0.0488
C2 C 0.2630(5) 0.2712(4) 0.0302(4)
H44 H 0.2033 0.2162 0.0120
C3 C 0.3537(6) 0.2377(4) 0.0441(4)
H45 H 0.4142 0.2918 0.0622
C4 C 0.3308(5) 0.1722(5) -0.0409(4)
H46 H 0.2758 0.1141 -0.0556
C5 C 0.3035(6) 0.2187(5) -0.1101(5)
H47 H 0.3640 0.2668 -0.1028
C6 C 0.2595(7) 0.1440(6) -0.1956(5)
H48 H 0.2427 0.1732 -0.2429
H49 H 0.3090 0.1116 -0.1967
C7 C 0.4203(6) 0.0554(4) -0.0451(4)
H50 H 0.3525 0.0162 -0.0571
C8 C 0.4973(5) 0.0446(4) 0.0340(4)
H51 H 0.4985 -0.0214 0.0241
C9 C 0.5990(5) 0.1076(4) 0.0539(4)
H52 H 0.5971 0.1732 0.0601
C10 C 0.6188(5) 0.0760(4) -0.0208(4)
H53 H 0.6255 0.0119 -0.0252
C11 C 0.5362(5) 0.0788(4) -0.1037(4)
H54 H 0.5381 0.1450 -0.1013
C12 C 0.5465(6) 0.0363(4) -0.1812(4)
H55 H 0.4877 0.0338 -0.2333
H56 H 0.6074 0.0748 -0.1809
C13 C 0.7858(5) 0.1054(4) -0.0177(4)
H57 H 0.7601 0.0359 -0.0356
C14 C 0.8786(5) 0.1367(4) 0.0667(4)
H58 H 0.9297 0.1085 0.0602
C15 C 0.9216(5) 0.2426(4) 0.0925(4)
H59 H 0.8723 0.2717 0.1017
C16 C 0.9417(5) 0.2716(4) 0.0219(4)
H60 H 0.9935 0.2452 0.0147
C17 C 0.8443(6) 0.2358(4) -0.0613(4)
H61 H 0.7936 0.2647 -0.0549
C18 C 0.8593(7) 0.2547(6) -0.1355(5)
H62 H 0.7959 0.2246 -0.1882
H63 H 0.8773 0.3225 -0.1286
C19 C 1.0713(5) 0.4102(4) 0.0465(4)
H64 H 1.1034 0.3605 0.0404
C20 C 1.1375(5) 0.4814(4) 0.1321(4)
H65 H 1.2048 0.5083 0.1351
C21 C 1.0925(5) 0.5587(4) 0.1425(4)
H66 H 1.0267 0.5332 0.1428
C22 C 1.0766(5) 0.6015(4) 0.0698(4)
H67 H 1.1431 0.6346 0.0744
C23 C 1.0157(5) 0.5275(4) -0.0165(4)
H68 H 0.9452 0.5019 -0.0256
C24 C 1.0153(5) 0.5668(4) -0.0898(4)
H69 H 0.9811 0.5157 -0.1432
H70 H 0.9769 0.6122 -0.0960
C25 C 1.0635(5) 0.7591(4) 0.0767(4)
H71 H 1.1312 0.7670 0.0787
C26 C 1.0744(5) 0.8236(4) 0.1571(4)
H72 H 1.1015 0.8892 0.1579
C27 C 0.9723(5) 0.8109(5) 0.1537(4)
H73 H 0.9437 0.7457 0.1532
C28 C 0.9048(5) 0.8307(4) 0.0750(4)
H74 H 0.9283 0.8981 0.0788
C29 C 0.9001(5) 0.7707(4) -0.0053(4)
H75 H 0.8653 0.7042 -0.0143
C30 C 0.8472(6) 0.8004(5) -0.0835(4)
H76 H 0.8482 0.7610 -0.1330
H77 H 0.7764 0.7915 -0.0951
C31 C 0.7565(5) 0.8776(4) 0.0620(4)
H78 H 0.8040 0.9367 0.0672
C32 C 0.7292(5) 0.8924(4) 0.1355(4)
H79 H 0.6965 0.9429 0.1327
C33 C 0.6559(5) 0.8036(4) 0.1275(4)
H80 H 0.6880 0.7527 0.1309
C34 C 0.5648(5) 0.7777(4) 0.0416(4)
H81 H 0.5287 0.8255 0.0397
C35 C 0.5959(5) 0.7688(4) -0.0296(4)
H82 H 0.6249 0.7159 -0.0306
C36 C 0.5091(5) 0.7519(4) -0.1165(4)
H83 H 0.5342 0.7493 -0.1598
H84 H 0.4593 0.6911 -0.1310
C37 C 0.4001(5) 0.6833(4) 0.0126(4)
H85 H 0.3913 0.7464 0.0135
C38 C 0.3782(5) 0.6494(4) 0.0811(4)
H86 H 0.3081 0.6476 0.0702
C39 C 0.3879(5) 0.5522(4) 0.0778(4)
H87 H 0.4576 0.5533 0.0885
C40 C 0.3143(5) 0.4889(4) -0.0097(4)
H88 H 0.2440 0.4846 -0.0197
C41 C 0.3356(5) 0.5259(4) -0.0779(4)
H89 H 0.4028 0.5225 -0.0719
C42 C 0.2578(5) 0.4743(4) -0.1656(4)
H90 H 0.2768 0.4991 -0.2066
H91 H 0.2550 0.4080 -0.1759
O36 O 1.1841(3) 0.7894(3) 0.5209(3)
O37 O 1.2462(4) 0.7690(3) 0.3910(3)
H22 H 1.2044 0.7957 0.3942
O38 O 1.1994(4) 0.5720(3) 0.3615(3)
H23 H 1.1818 0.5162 0.3614
O39 O 1.3212(3) 0.7477(3) 0.6070(3)
O40 O 1.4101(4) 0.6145(3) 0.6737(3)
H24 H 1.4269 0.5753 0.6998
O41 O 1.1760(3) 0.5020(3) 0.4910(3)
O42 O 1.1826(4) 0.3852(3) 0.3578(3)
H25 H 1.1960 0.3452 0.3293
O43 O 1.0062(4) 0.2342(3) 0.3184(3)
H26 H 1.0013 0.2536 0.2760
O44 O 1.1949(4) 0.3927(3) 0.5675(3)
O45 O 1.1305(5) 0.2561(5) 0.6336(4)
H27 H 1.1036 0.2211 0.6551
O46 O 0.9353(3) 0.2427(3) 0.4414(3)
O47 O 0.8362(4) 0.0964(3) 0.2902(3)
H28 H 0.8815 0.1455 0.3020
O48 O 0.6381(4) 0.0914(3) 0.2711(3)
H29 H 0.6238 0.1245 0.2375
O49 O 0.8728(4) 0.1469(3) 0.5102(3)
O50 O 0.7325(4) 0.0788(4) 0.5721(4)
H30 H 0.7744 0.0605 0.6080
O51 O 0.6328(4) 0.1973(3) 0.4138(3)
O52 O 0.4559(4) 0.1169(3) 0.2566(3)
H31 H 0.5140 0.1156 0.2654
O53 O 0.3929(4) 0.2786(3) 0.2667(3)
H32 H 0.4042 0.3350 0.2675
O54 O 0.5325(4) 0.1981(3) 0.4836(3)
O55 O 0.4188(7) 0.2736(6) 0.5534(6)
H33 H 0.3783 0.2976 0.5227
O56 O 0.4974(3) 0.4139(3) 0.4268(3)
O57 O 0.3498(4) 0.4443(3) 0.2837(3)
H34 H 0.3190 0.4699 0.2478
O58 O 0.4711(4) 0.6245(3) 0.3091(3)
H35 H 0.5184 0.6728 0.3228
O59 O 0.4778(4) 0.5293(3) 0.5158(3)
O60 O 0.5324(4) 0.7121(3) 0.6190(3)
H36 H 0.4924 0.6819 0.6338
O61 O 0.6358(3) 0.7097(3) 0.4714(3)
O62 O 0.5790(3) 0.8029(3) 0.3441(3)
H37 H 0.5613 0.7455 0.3381
O63 O 0.7761(4) 0.8786(3) 0.3628(3)
H38 H 0.7232 0.8876 0.3304
O64 O 0.7291(4) 0.8530(3) 0.5726(3)
O65 O 0.8801(5) 1.0067(4) 0.6831(4)
H39 H 0.8572 1.0110 0.7188
O66 O 0.9349(3) 0.8827(3) 0.5116(3)
O67 O 0.9690(3) 0.9638(3) 0.3893(3)
H40 H 0.9140 0.9308 0.3832
O68 O 1.1160(4) 0.8743(3) 0.3873(3)
H41 H 1.1510 0.9277 0.3937
O69 O 1.0975(3) 0.9669(3) 0.6113(3)
O70 O 1.1864(5) 0.9055(4) 0.7528(3)
H42 H 1.1551 0.8512 0.7481
C43 C 1.2833(5) 0.7863(5) 0.5387(4)
H92 H 1.3281 0.8507 0.5533
C44 C 1.2766(5) 0.7277(4) 0.4579(4)
H93 H 1.3448 0.7222 0.4696
C45 C 1.2070(5) 0.6313(5) 0.4366(4)
H94 H 1.1390 0.6357 0.4270
C46 C 1.2476(5) 0.5902(4) 0.5105(4)
H95 H 1.3130 0.5808 0.5172
C47 C 1.2626(5) 0.6544(4) 0.5936(4)
H96 H 1.1957 0.6554 0.5899
C48 C 1.3184(5) 0.6231(4) 0.6705(4)
H97 H 1.3314 0.6689 0.7228
H98 H 1.2767 0.5625 0.6675
C49 C 1.2134(5) 0.4255(4) 0.5047(4)
H99 H 1.2873 0.4459 0.5235
C50 C 1.1630(6) 0.3496(5) 0.4213(4)
H100 H 1.1929 0.2976 0.4300
C51 C 1.0520(5) 0.3119(4) 0.3933(4)
H101 H 1.0194 0.3618 0.3824
C52 C 1.0393(5) 0.2767(4) 0.4642(4)
H102 H 1.0708 0.2258 0.4737
C53 C 1.0900(5) 0.3573(4) 0.5456(4)
H103 H 1.0578 0.4078 0.5362
C54 C 1.0851(6) 0.3274(5) 0.6204(5)
H104 H 1.1204 0.3811 0.6719
H105 H 1.0144 0.3046 0.6096
C55 C 0.8997(5) 0.1503(4) 0.4428(4)
H106 H 0.9535 0.1198 0.4503
C56 C 0.8094(5) 0.0983(4) 0.3581(4)
H107 H 0.7844 0.0329 0.3590
C57 C 0.7267(5) 0.1437(4) 0.3467(4)
H108 H 0.7493 0.2089 0.3442
C58 C 0.7011(5) 0.1437(4) 0.4211(4)
H109 H 0.6684 0.0785 0.4180
C59 C 0.7944(5) 0.1879(4) 0.5061(4)
H110 H 0.8193 0.2559 0.5128
C60 C 0.7753(6) 0.1750(5) 0.5815(5)
H111 H 0.8393 0.2006 0.6342
H112 H 0.7292 0.2100 0.5867
C61 C 0.5386(6) 0.1548(5) 0.4103(5)
H113 H 0.5299 0.0873 0.4060
C62 C 0.4585(5) 0.1656(4) 0.3319(4)
H114 H 0.3923 0.1389 0.3309
C63 C 0.4725(5) 0.2678(4) 0.3377(4)
H115 H 0.5384 0.2972 0.3392
C64 C 0.4688(6) 0.3144(4) 0.4166(4)
H116 H 0.3993 0.2926 0.4107
C65 C 0.5426(7) 0.2962(5) 0.4954(5)
H117 H 0.6130 0.3324 0.5109
C66 C 0.5169(10) 0.3213(7) 0.5701(6)
H118 H 0.5647 0.3077 0.6201
H119 H 0.5261 0.3890 0.5851
C67 C 0.4310(5) 0.4624(4) 0.4358(4)
H120 H 0.3696 0.4174 0.4303
C68 C 0.4023(5) 0.5100(4) 0.3656(4)
H121 H 0.3576 0.5466 0.3728
C69 C 0.4971(5) 0.5773(4) 0.3732(4)
H122 H 0.5445 0.5429 0.3684
C70 C 0.5450(5) 0.6483(4) 0.4606(4)
H123 H 0.4984 0.6847 0.4632
C71 C 0.5665(5) 0.5990(4) 0.5307(4)
H124 H 0.6193 0.5688 0.5323
C72 C 0.6011(6) 0.6642(5) 0.6167(4)
H125 H 0.6115 0.6284 0.6592
H126 H 0.6663 0.7099 0.6326
C73 C 0.6481(5) 0.8068(4) 0.4936(4)
H127 H 0.5858 0.8157 0.4955
C74 C 0.6623(5) 0.8476(4) 0.4244(4)
H128 H 0.6672 0.9150 0.4391
C75 C 0.7597(5) 0.8399(4) 0.4239(4)
H129 H 0.7582 0.7732 0.4122
C76 C 0.8432(5) 0.8939(4) 0.5104(4)
H130 H 0.8469 0.9612 0.5213
C77 C 0.8251(5) 0.8541(5) 0.5790(4)
H131 H 0.8322 0.7902 0.5738
C78 C 0.8964(7) 0.9173(5) 0.6682(5)
H132 H 0.8878 0.8863 0.7104
H133 H 0.9663 0.9266 0.6768
C79 C 1.0156(5) 0.9636(4) 0.5372(4)
H134 H 0.9935 1.0199 0.5466
C80 C 1.0480(5) 0.9616(4) 0.4659(4)
H135 H 1.1059 1.0184 0.4844
C81 C 1.0831(5) 0.8772(5) 0.4524(4)
H136 H 1.0256 0.8201 0.4343
C82 C 1.1665(5) 0.8771(4) 0.5333(4)
H137 H 1.2285 0.9283 0.5487
C83 C 1.1353(5) 0.8871(4) 0.6057(4)
H138 H 1.0815 0.8294 0.5942
C84 C 1.2213(5) 0.9035(5) 0.6907(4)
H139 H 1.2529 0.8533 0.6893
H140 H 1.2723 0.9634 0.7048
C85 C 0.6200(9) 0.3693(8) 0.8705(8)
C86 C 0.6785(8) 0.4589(7) 0.8824(7)
C87 C 0.6873(10) 0.5323(8) 0.9477(9)
H141 H 0.7259 0.5933 0.9556
C88 C 0.6438(11) 0.5196(8) 0.9988(9)
H142 H 0.6513 0.5695 1.0427
C89 C 0.5875(11) 0.4300(8) 0.9840(9)
H143 H 0.5551 0.4191 1.0188
C90 C 0.5756(9) 0.3577(7) 0.9242(8)
H144 H 0.5365 0.2976 0.9181
C91 C 0.7233(9) 0.4811(7) 0.8270(7)
N3 N 0.6124(8) 0.2928(6) 0.8101(6)
H163 H 0.5791 0.2364 0.8058
H164 H 0.6409 0.3012 0.7765
O75 O 0.7289(8) 0.4189(6) 0.7732(5)
O76 O 0.7630(7) 0.5690(5) 0.8348(6)
H167 H 0.7742 0.5733 0.7930
C92 C 0.9164(9) 0.6197(6) 0.6030(5)
C93 C 0.8513(10) 0.5368(6) 0.5957(6)
C94 C 0.8041(11) 0.4665(6) 0.5197(7)
H145 H 0.7596 0.4098 0.5147
C95 C 0.8220(12) 0.4791(8) 0.4512(6)
H146 H 0.7897 0.4310 0.3993
C96 C 0.8871(12) 0.5620(8) 0.4586(6)
H147 H 0.8993 0.5706 0.4117
C97 C 0.9343(9) 0.6323(6) 0.5345(7)
H148 H 0.9788 0.6890 0.5395
C98 C 0.8195(11) 0.5245(9) 0.6640(9)
N4 N 0.9688(9) 0.6922(8) 0.6809(8)
H165 H 0.9602 0.6849 0.7256
H166 H 1.0096 0.7441 0.6841
O77 O 0.8373(7) 0.5920(8) 0.7238(6)
O78 O 0.7670(11) 0.4365(8) 0.6490(7)
H168 H 0.7520 0.4317 0.6889
O71 O 0.6279(11) 0.3140(9) 0.2043(9)
O72 O 0.7706(10) 0.3109(9) 0.2035(8)
H149 H 0.7445 0.2536 0.1937
C99 C 0.6874(10) 0.5148(10) 0.2340(10)
C100 C 0.7439(12) 0.4569(8) 0.2248(11)
C101 C 0.8379(12) 0.4943(10) 0.2299(11)
H150 H 0.8766 0.4548 0.2236
C102 C 0.8754(10) 0.5896(11) 0.2441(11)
H151 H 0.9397 0.6152 0.2476
C103 C 0.8189(13) 0.6474(8) 0.2533(12)
H152 H 0.8446 0.7125 0.2630
C104 C 0.7249(12) 0.6100(10) 0.2483(12)
H153 H 0.6863 0.6496 0.2545
C105 C 0.7045(14) 0.3569(11) 0.2075(10)
N1 N 0.5824(18) 0.4650(16) 0.2233(14)
H154 H 0.5622 0.4041 0.2121
H155 H 0.5428 0.4976 0.2283
O79 O 0.5988(4) 0.8989(3) 0.6881(3)
O80 O 0.0143(5) 0.3151(4) 0.7737(3)
O81 O 0.5046(4) 0.9301(3) 0.2701(3)
O82 O 0.1988(5) 0.7992(4) 0.9613(4)
O83 O 0.2658(5) 0.7923(4) 0.8396(4)
O84 O 0.5500(5) 0.9951(4) 0.5658(4)
O85 O 0.0337(5) 0.1474(4) 0.6996(4)
O86 O 0.1402(6) 0.6143(5) 0.7366(5)
O87 O 0.8053(5) 0.9829(4) 0.7989(4)
O88 O 0.4098(6) 0.1552(5) 0.7166(5)
O89 O 0.3423(6) 0.3067(6) 0.6744(5)
O90 O 0.3335(6) 0.7567(6) 0.2348(5)
O91 O 0.3799(6) 0.8990(5) 0.0972(4)
O92 O 0.2288(6) 0.0442(5) 0.1312(5)
O93 O 0.4263(6) 0.8730(6) 0.4107(5)
O94 O 0.0239(7) 0.0615(6) 0.2117(7)
O95 O 0.4459(6) 0.4910(6) 0.7693(5)
O96 O 0.3108(6) 0.9500(5) 0.2524(6)
O97 O 0.3936(7) 0.0778(6) 0.5527(6)
O98 O 0.0517(7) 0.0895(6) 0.8879(5)
O99 O 0.2644(8) 0.0167(7) 0.3846(6)
O100 O 0.0986(9) 0.9436(7) 0.9611(7)
O101 O 0.2091(11) 0.2339(10) 0.2808(11)
O102 O 0.1630(11) 0.2105(10) 0.1448(11)
O103 O 0.0929(17) 0.0929(15) 0.3650(16)
N2? N 0.8293(19) 0.6965(12) 0.2712(19)
H156? H 0.8925 0.7107 0.2810
H157? H 0.7999 0.7403 0.2711
O73? O 0.9639(16) 0.4878(14) 0.2758(14)
H158? H 0.9200 0.4391 0.2677
O74? O 0.9739(15) 0.6349(11) 0.2816(14)
C106? C 0.7753(12) 0.6038(9) 0.2559(11)
C107? C 0.8205(11) 0.5337(10) 0.2558(8)
C108? C 0.7658(14) 0.4423(10) 0.2405(15)
H159? H 0.7967 0.3944 0.2405
C109? C 0.6660(14) 0.4212(11) 0.2253(17)
H160? H 0.6287 0.3587 0.2148
C110? C 0.6209(12) 0.4913(14) 0.2253(14)
H161? H 0.5527 0.4769 0.2149
C111? C 0.6755(13) 0.5827(13) 0.2406(14)
H162? H 0.6447 0.6306 0.2407
C112? C 0.9272(12) 0.5543(10) 0.2722(8)
O104? O 0.060(2) 0.8698(17) 0.8695(16)
O105? O 0.7896(18) 0.9185(17) 0.7695(15)
O106? O 0.219(3) 0.180(2) 0.328(2)
loop_
_geom_bond_atom_site_label_1
_geom_bond_atom_site_label_2
_geom_bond_site_symmetry_1
_geom_bond_site_symmetry_2
O1 C1 1_555 1_555
O2 H1 1_555 1_555
O3 H2 1_555 1_555
O4 C1 1_555 1_555
O5 H3 1_555 1_555
O6 C4 1_555 1_555
O7 H4 1_555 1_555
O8 H5 1_555 1_555
O9 C7 1_555 1_555
O10 H6 1_555 1_555
O11 C10 1_555 1_555
O12 H7 1_555 1_555
O13 H8 1_555 1_555
O14 C13 1_555 1_555
O15 H9 1_555 1_555
O16 C16 1_555 1_555
O17 H10 1_555 1_555
O18 H11 1_555 1_555
O19 C19 1_555 1_555
O20 H12 1_555 1_555
O21 C22 1_555 1_555
O22 H13 1_555 1_555
O23 H14 1_555 1_555
O24 C25 1_555 1_555
O25 H15 1_555 1_555
O26 C28 1_555 1_555
O27 H16 1_555 1_555
O28 H17 1_555 1_555
O29 C31 1_555 1_555
O30 H18 1_555 1_555
O31 C34 1_555 1_555
O32 H19 1_555 1_555
O33 H20 1_555 1_555
O34 C37 1_555 1_555
O35 H21 1_555 1_555
O36 C43 1_555 1_555
O37 H22 1_555 1_555
O38 H23 1_555 1_555
O39 C43 1_555 1_555
O40 H24 1_555 1_555
O41 C46 1_555 1_555
O42 H25 1_555 1_555
O43 H26 1_555 1_555
O44 C49 1_555 1_555
O45 H27 1_555 1_555
O46 C52 1_555 1_555
O47 H28 1_555 1_555
O48 H29 1_555 1_555
O49 C55 1_555 1_555
O50 H30 1_555 1_555
O51 C58 1_555 1_555
O52 H31 1_555 1_555
O53 H32 1_555 1_555
O54 C61 1_555 1_555
O55 H33 1_555 1_555
O56 C64 1_555 1_555
O57 H34 1_555 1_555
O58 H35 1_555 1_555
O59 C67 1_555 1_555
O60 H36 1_555 1_555
O61 C70 1_555 1_555
O62 H37 1_555 1_555
O63 H38 1_555 1_555
O64 C73 1_555 1_555
O65 H39 1_555 1_555
O66 C76 1_555 1_555
O67 H40 1_555 1_555
O68 H41 1_555 1_555
O69 C79 1_555 1_555
O70 H42 1_555 1_555
C1 H43 1_555 1_555
C2 O2 1_555 1_555
H44 C2 1_555 1_555
C3 O3 1_555 1_555
H45 C3 1_555 1_555
C4 C3 1_555 1_555
H46 C4 1_555 1_555
C5 O4 1_555 1_555
H47 C5 1_555 1_555
C6 O5 1_555 1_555
H48 C6 1_555 1_555
H49 C6 1_555 1_555
C7 O6 1_555 1_555
H50 C7 1_555 1_555
C8 O7 1_555 1_555
H51 C8 1_555 1_555
C9 O8 1_555 1_555
H52 C9 1_555 1_555
C10 C9 1_555 1_555
H53 C10 1_555 1_555
C11 O9 1_555 1_555
H54 C11 1_555 1_555
C12 O10 1_555 1_555
H55 C12 1_555 1_555
H56 C12 1_555 1_555
C13 O11 1_555 1_555
H57 C13 1_555 1_555
C14 O12 1_555 1_555
H58 C14 1_555 1_555
C15 O13 1_555 1_555
H59 C15 1_555 1_555
C16 C15 1_555 1_555
H60 C16 1_555 1_555
C17 O14 1_555 1_555
H61 C17 1_555 1_555
C18 O15 1_555 1_555
H62 C18 1_555 1_555
H63 C18 1_555 1_555
C19 O16 1_555 1_555
H64 C19 1_555 1_555
C20 O17 1_555 1_555
H65 C20 1_555 1_555
C21 O18 1_555 1_555
H66 C21 1_555 1_555
C22 C21 1_555 1_555
H67 C22 1_555 1_555
C23 O19 1_555 1_555
H68 C23 1_555 1_555
C24 O20 1_555 1_555
H69 C24 1_555 1_555
H70 C24 1_555 1_555
C25 O21 1_555 1_555
H71 C25 1_555 1_555
C26 O22 1_555 1_555
H72 C26 1_555 1_555
C27 O23 1_555 1_555
H73 C27 1_555 1_555
C28 C27 1_555 1_555
H74 C28 1_555 1_555
C29 O24 1_555 1_555
H75 C29 1_555 1_555
C30 O25 1_555 1_555
H76 C30 1_555 1_555
H77 C30 1_555 1_555
C31 O26 1_555 1_555
H78 C31 1_555 1_555
C32 O27 1_555 1_555
H79 C32 1_555 1_555
C33 O28 1_555 1_555
H80 C33 1_555 1_555
C34 C33 1_555 1_555
H81 C34 1_555 1_555
C35 O29 1_555 1_555
H82 C35 1_555 1_555
C36 O30 1_555 1_555
H83 C36 1_555 1_555
H84 C36 1_555 1_555
C37 O31 1_555 1_555
H85 C37 1_555 1_555
C38 O32 1_555 1_555
H86 C38 1_555 1_555
C39 O33 1_555 1_555
H87 C39 1_555 1_555
C40 O1 1_555 1_555
H88 C40 1_555 1_555
C41 O34 1_555 1_555
H89 C41 1_555 1_555
C42 O35 1_555 1_555
H90 C42 1_555 1_555
H91 C42 1_555 1_555
C43 H92 1_555 1_555
C44 O37 1_555 1_555
H93 C44 1_555 1_555
C45 O38 1_555 1_555
H94 C45 1_555 1_555
C46 C45 1_555 1_555
H95 C46 1_555 1_555
C47 O39 1_555 1_555
H96 C47 1_555 1_555
C48 O40 1_555 1_555
H97 C48 1_555 1_555
H98 C48 1_555 1_555
C49 O41 1_555 1_555
H99 C49 1_555 1_555
C50 O42 1_555 1_555
H100 C50 1_555 1_555
C51 O43 1_555 1_555
H101 C51 1_555 1_555
C52 C51 1_555 1_555
H102 C52 1_555 1_555
C53 O44 1_555 1_555
H103 C53 1_555 1_555
C54 O45 1_555 1_555
H104 C54 1_555 1_555
H105 C54 1_555 1_555
C55 O46 1_555 1_555
H106 C55 1_555 1_555
C56 O47 1_555 1_555
H107 C56 1_555 1_555
C57 O48 1_555 1_555
H108 C57 1_555 1_555
C58 C57 1_555 1_555
H109 C58 1_555 1_555
C59 O49 1_555 1_555
H110 C59 1_555 1_555
C60 O50 1_555 1_555
H111 C60 1_555 1_555
H112 C60 1_555 1_555
C61 O51 1_555 1_555
H113 C61 1_555 1_555
C62 O52 1_555 1_555
H114 C62 1_555 1_555
C63 O53 1_555 1_555
H115 C63 1_555 1_555
C64 C63 1_555 1_555
H116 C64 1_555 1_555
C65 O54 1_555 1_555
H117 C65 1_555 1_555
C66 O55 1_555 1_555
H118 C66 1_555 1_555
H119 C66 1_555 1_555
C67 O56 1_555 1_555
H120 C67 1_555 1_555
C68 O57 1_555 1_555
H121 C68 1_555 1_555
C69 O58 1_555 1_555
H122 C69 1_555 1_555
C70 C69 1_555 1_555
H123 C70 1_555 1_555
C71 O59 1_555 1_555
H124 C71 1_555 1_555
C72 O60 1_555 1_555
H125 C72 1_555 1_555
H126 C72 1_555 1_555
C73 O61 1_555 1_555
H127 C73 1_555 1_555
C74 O62 1_555 1_555
H128 C74 1_555 1_555
C75 O63 1_555 1_555
H129 C75 1_555 1_555
C76 C75 1_555 1_555
H130 C76 1_555 1_555
C77 O64 1_555 1_555
H131 C77 1_555 1_555
C78 O65 1_555 1_555
H132 C78 1_555 1_555
H133 C78 1_555 1_555
C79 O66 1_555 1_555
H134 C79 1_555 1_555
C80 O67 1_555 1_555
H135 C80 1_555 1_555
C81 O68 1_555 1_555
H136 C81 1_555 1_555
C82 O36 1_555 1_555
H137 C82 1_555 1_555
C83 O69 1_555 1_555
H138 C83 1_555 1_555
C84 O70 1_555 1_555
H139 C84 1_555 1_555
H140 C84 1_555 1_555
C85 C86 1_555 1_555
C86 C87 1_555 1_555
C87 H141 1_555 1_555
C88 C87 1_555 1_555
H142 C88 1_555 1_555
C89 C88 1_555 1_555
H143 C89 1_555 1_555
C90 C85 1_555 1_555
H144 C90 1_555 1_555
C91 C86 1_555 1_555
C92 C93 1_555 1_555
C93 C94 1_555 1_555
C94 H145 1_555 1_555
C95 C94 1_555 1_555
H146 C95 1_555 1_555
C96 C95 1_555 1_555
H147 C96 1_555 1_555
C97 C92 1_555 1_555
H148 C97 1_555 1_555
C98 C93 1_555 1_555
O71 C105 1_555 1_555
O72 H149 1_555 1_555
C99 C100 1_555 1_555
C100 C101 1_555 1_555
C101 H150 1_555 1_555
C102 C101 1_555 1_555
H151 C102 1_555 1_555
C103 C102 1_555 1_555
H152 C103 1_555 1_555
C104 C99 1_555 1_555
H153 C104 1_555 1_555
C105 O72 1_555 1_555
N1 C99 1_555 1_555
H154 N1 1_555 1_555
H155 N1 1_555 1_555
N3 C85 1_555 1_555
H163 N3 1_555 1_555
H164 N3 1_555 1_555
N4 C92 1_555 1_555
H165 N4 1_555 1_555
H166 N4 1_555 1_555
O75 C91 1_555 1_555
O76 C91 1_555 1_555
H167 O76 1_555 1_555
O77 C98 1_555 1_555
O78 C98 1_555 1_555
H168 O78 1_555 1_555
C1 C2 1_555 1_555
C2 C3 1_555 1_555
C4 C5 1_555 1_555
C5 C6 1_555 1_555
C7 C8 1_555 1_555
C8 C9 1_555 1_555
C10 C11 1_555 1_555
C11 C12 1_555 1_555
C13 C14 1_555 1_555
C14 C15 1_555 1_555
C16 C17 1_555 1_555
C17 C18 1_555 1_555
C19 C20 1_555 1_555
C20 C21 1_555 1_555
C22 C23 1_555 1_555
C23 C24 1_555 1_555
C25 C26 1_555 1_555
C26 C27 1_555 1_555
C28 C29 1_555 1_555
C29 C30 1_555 1_555
C31 C32 1_555 1_555
C32 C33 1_555 1_555
C34 C35 1_555 1_555
C35 C36 1_555 1_555
C37 C38 1_555 1_555
C38 C39 1_555 1_555
C39 C40 1_555 1_555
C40 C41 1_555 1_555
C41 C42 1_555 1_555
C43 C44 1_555 1_555
C44 C45 1_555 1_555
C46 C47 1_555 1_555
C47 C48 1_555 1_555
C49 C50 1_555 1_555
C50 C51 1_555 1_555
C52 C53 1_555 1_555
C53 C54 1_555 1_555
C55 C56 1_555 1_555
C56 C57 1_555 1_555
C58 C59 1_555 1_555
C59 C60 1_555 1_555
C61 C62 1_555 1_555
C62 C63 1_555 1_555
C64 C65 1_555 1_555
C65 C66 1_555 1_555
C67 C68 1_555 1_555
C68 C69 1_555 1_555
C70 C71 1_555 1_555
C71 C72 1_555 1_555
C73 C74 1_555 1_555
C74 C75 1_555 1_555
C76 C77 1_555 1_555
C77 C78 1_555 1_555
C79 C80 1_555 1_555
C80 C81 1_555 1_555
C81 C82 1_555 1_555
C82 C83 1_555 1_555
C83 C84 1_555 1_555
C89 C90 1_555 1_555
C96 C97 1_555 1_555
C100 C105 1_555 1_555
C103 C104 1_555 1_555

#END
