
#######################################################################
#
#                 Cambridge Crystallographic Data Centre
#                                CCDC 
#
#######################################################################
#
# If this CIF has been generated from an entry in the Cambridge 
# Structural Database, then it will include bibliographic, chemical, 
# crystal, experimental, refinement or atomic coordinate data resulting 
# from the CCDC's data processing and validation procedures.
#
#######################################################################

data_VOFKUX
_chemical_formula_moiety         'C44 H43 N13,3.5(H2 O1)'
_chemical_name_systematic        
'1,1,4,7,7-pentakis(Benzimidazol-2-ylmethyl)-1,4,7-triazaheptane hydrate'
_symmetry_cell_setting           orthorhombic
_symmetry_space_group_name_H-M   'C 2 2 21'
_symmetry_Int_Tables_number      20
_space_group_name_Hall           'C 2n 2'
loop_
_symmetry_equiv_pos_site_id
_symmetry_equiv_pos_as_xyz
1 x,y,z
2 -x,-y,1/2+z
3 -x,y,1/2-z
4 x,-y,-z
5 1/2+x,1/2+y,z
6 1/2-x,1/2-y,1/2+z
7 1/2-x,1/2+y,1/2-z
8 1/2+x,1/2-y,-z
_cell_length_a                   8.3956(5)
_cell_length_b                   29.5409(18)
_cell_length_c                   35.872(2)
_cell_angle_alpha                90
_cell_angle_beta                 90
_cell_angle_gamma                90
_cell_volume                     8896.74
_exptl_crystal_colour            colorless
_exptl_crystal_description       block
_cell_formula_units_Z            8
loop_
_atom_site_label
_atom_site_type_symbol
_atom_site_fract_x
_atom_site_fract_y
_atom_site_fract_z
C1 C 0.5856(6) 0.8356(2) 0.80249(13)
C2 C 0.5365(7) 0.8773(2) 0.81422(16)
H1 H 0.4578 0.8806 0.8322
C3 C 0.6097(8) 0.9145(2) 0.79795(18)
H2 H 0.5812 0.9434 0.8056
C4 C 0.7234(9) 0.9093(2) 0.77072(16)
H3 H 0.7691 0.9348 0.7600
C5 C 0.7707(8) 0.8672(2) 0.75912(14)
H4 H 0.8485 0.8637 0.7409
C6 C 0.6987(7) 0.8302(2) 0.77549(14)
C7 C 0.6355(7) 0.7638(2) 0.79472(15)
C8 C 0.6268(7) 0.71447(19) 0.80092(17)
H5 H 0.5202 0.7040 0.7950
H6 H 0.7004 0.6995 0.7842
C9 C 0.8314(7) 0.70766(17) 0.84937(15)
H7 H 0.8375 0.7111 0.8762
H8 H 0.8682 0.7358 0.8384
C10 C 0.9465(6) 0.67045(17) 0.83798(14)
C11 C 1.0815(7) 0.60921(19) 0.83634(17)
C12 C 1.1513(9) 0.5684(2) 0.8445(2)
H9 H 1.1307 0.5537 0.8669
C13 C 1.2526(10) 0.5498(2) 0.8185(3)
H10 H 1.3037 0.5225 0.8235
C14 C 1.2792(10) 0.5719(3) 0.7842(3)
H11 H 1.3448 0.5584 0.7665
C15 C 1.2103(9) 0.6130(2) 0.7764(2)
H12 H 1.2311 0.6282 0.7542
C16 C 1.1073(7) 0.63077(19) 0.80331(17)
C17 C 0.5969(8) 0.65805(19) 0.85085(19)
H13 H 0.6718 0.6433 0.8675
H14 H 0.5855 0.6391 0.8289
C18 C 0.4377(6) 0.66097(16) 0.87017(13)
H15 H 0.3699 0.6818 0.8566
H16 H 0.3873 0.6314 0.8696
C19 C 0.4665(7) 0.72552(14) 0.91297(13)
H17 H 0.5571 0.7355 0.8983
H18 H 0.4897 0.7322 0.9389
C20 C 0.3234(6) 0.75236(15) 0.90139(13)
C21 C 0.1616(6) 0.79247(16) 0.86848(13)
C22 C 0.0864(7) 0.81890(17) 0.84198(14)
H19 H 0.1349 0.8249 0.8192
C23 C -0.0617(8) 0.83616(17) 0.85011(16)
H20 H -0.1134 0.8544 0.8328
C24 C -0.1349(7) 0.82647(17) 0.88402(17)
H21 H -0.2361 0.8380 0.8885
C25 C -0.0641(7) 0.80054(16) 0.91124(15)
H22 H -0.1135 0.7943 0.9339
C26 C 0.0851(6) 0.78457(15) 0.90252(13)
C27 C 0.3137(6) 0.65906(16) 0.93124(13)
H23 H 0.2167 0.6627 0.9168
H24 H 0.3038 0.6776 0.9534
C28 C 0.3275(6) 0.61025(15) 0.94289(13)
H25 H 0.2303 0.6015 0.9556
H26 H 0.3368 0.5917 0.9207
C29 C 0.4572(6) 0.62419(15) 1.00328(13)
H27 H 0.4717 0.6563 0.9987
H28 H 0.5467 0.6140 1.0182
C30 C 0.3093(6) 0.61813(15) 1.02558(12)
C31 C 0.1390(6) 0.58639(16) 1.06422(12)
C32 C 0.0542(8) 0.55897(19) 1.08930(14)
H29 H 0.0978 0.5329 1.0997
C33 C -0.0970(8) 0.5733(2) 1.09742(15)
H30 H -0.1575 0.5567 1.1143
C34 C -0.1634(8) 0.6117(2) 1.08139(17)
H31 H -0.2670 0.6198 1.0876
C35 C -0.0812(7) 0.63756(19) 1.05697(15)
H32 H -0.1275 0.6630 1.0462
C36 C 0.0742(6) 0.62520(16) 1.04841(13)
C37 C 0.4847(7) 0.55179(14) 0.97205(13)
H33 H 0.3871 0.5384 0.9814
H34 H 0.5685 0.5462 0.9901
C38 C 0.5279(6) 0.53049(15) 0.93571(13)
C39 C 0.5344(6) 0.48783(14) 0.88711(13)
C40 C 0.5127(8) 0.45480(17) 0.86065(15)
H35 H 0.4424 0.4310 0.8646
C41 C 0.5992(8) 0.45818(19) 0.82767(16)
H36 H 0.5875 0.4360 0.8095
C42 C 0.7042(7) 0.4945(2) 0.82142(15)
H37 H 0.7611 0.4961 0.7992
C43 C 0.7232(7) 0.52750(17) 0.84754(14)
H38 H 0.7900 0.5521 0.8433
C44 C 0.6405(6) 0.52324(14) 0.88032(13)
N1 N 0.5471(5) 0.79266(15) 0.81400(11)
H39 H 0.4780 0.7857 0.8307
N2 N 0.7301(6) 0.78419(17) 0.77066(11)
N3 N 0.6647(6) 0.70174(14) 0.83931(14)
N4 N 0.9774(6) 0.63465(16) 0.85797(12)
N5 N 1.0202(5) 0.67041(13) 0.80518(11)
H40 H 1.0147 0.6911 0.7884
N6 N 0.4501(5) 0.67598(12) 0.90881(10)
N7 N 0.3099(5) 0.77233(13) 0.86854(11)
N8 N 0.1936(5) 0.75915(12) 0.92267(10)
H41 H 0.1803 0.7493 0.9450
N9 N 0.4629(5) 0.60061(11) 0.96735(10)
N10 N 0.1852(5) 0.64460(13) 1.02456(11)
N11 N 0.2891(5) 0.58218(13) 1.04915(10)
H42 H 0.3569 0.5611 1.0537
N12 N 0.6316(5) 0.55015(13) 0.91190(11)
H43 H 0.6830 0.5749 0.9157
N13 N 0.4654(5) 0.49286(12) 0.92220(11)
O1 O 1.0000 0.73816(15) 0.7500
H44 H 0.9970 0.7293 0.7284
H44B H 1.0030 0.7293 0.7716
O2 O 0.1326(7) 0.73303(14) 0.99805(11)
H46 H 0.2226 0.7478 0.9903
H47 H 0.0952 0.7242 0.9804
O3 O 0.8466(11) 0.6204(3) 0.92870(15)
H48 H 0.8166 0.6043 0.9438
H49 H 0.9205 0.6340 0.9305
O4 O 0.7906(14) 0.6976(3) 0.9675(2)
H50 H 0.8647 0.7087 0.9649
H51 H 0.7405 0.6854 0.9528
H45? H 1.0757 0.7558 0.7518
O5? O 0.976(2) 0.5234(4) 0.9859(3)
loop_
_geom_bond_atom_site_label_1
_geom_bond_atom_site_label_2
_geom_bond_site_symmetry_1
_geom_bond_site_symmetry_2
C1 C2 1_555 1_555
C2 H1 1_555 1_555
C3 C2 1_555 1_555
H2 C3 1_555 1_555
C4 C3 1_555 1_555
H3 C4 1_555 1_555
C5 C4 1_555 1_555
H4 C5 1_555 1_555
C6 C1 1_555 1_555
C7 C8 1_555 1_555
C8 H5 1_555 1_555
H6 C8 1_555 1_555
C9 H7 1_555 1_555
H8 C9 1_555 1_555
C10 C9 1_555 1_555
C11 C12 1_555 1_555
C12 H9 1_555 1_555
C13 C12 1_555 1_555
H10 C13 1_555 1_555
C14 C13 1_555 1_555
H11 C14 1_555 1_555
C15 C14 1_555 1_555
H12 C15 1_555 1_555
C16 C11 1_555 1_555
C17 H13 1_555 1_555
H14 C17 1_555 1_555
C18 C17 1_555 1_555
H15 C18 1_555 1_555
H16 C18 1_555 1_555
C19 H17 1_555 1_555
H18 C19 1_555 1_555
C20 C19 1_555 1_555
C21 C22 1_555 1_555
C22 H19 1_555 1_555
C23 C22 1_555 1_555
H20 C23 1_555 1_555
C24 C23 1_555 1_555
H21 C24 1_555 1_555
C25 C24 1_555 1_555
H22 C25 1_555 1_555
C26 C21 1_555 1_555
C27 H23 1_555 1_555
H24 C27 1_555 1_555
C28 C27 1_555 1_555
H25 C28 1_555 1_555
H26 C28 1_555 1_555
C29 H27 1_555 1_555
H28 C29 1_555 1_555
C30 C29 1_555 1_555
C31 C32 1_555 1_555
C32 H29 1_555 1_555
C33 C32 1_555 1_555
H30 C33 1_555 1_555
C34 C33 1_555 1_555
H31 C34 1_555 1_555
C35 C34 1_555 1_555
H32 C35 1_555 1_555
C36 C31 1_555 1_555
C37 H33 1_555 1_555
H34 C37 1_555 1_555
C38 C37 1_555 1_555
C39 C40 1_555 1_555
C40 H35 1_555 1_555
C41 C40 1_555 1_555
H36 C41 1_555 1_555
C42 C41 1_555 1_555
H37 C42 1_555 1_555
C43 C42 1_555 1_555
H38 C43 1_555 1_555
C44 C39 1_555 1_555
N1 C1 1_555 1_555
H39 N1 1_555 1_555
N2 C6 1_555 1_555
N3 C8 1_555 1_555
N4 C10 1_555 1_555
N5 C10 1_555 1_555
H40 N5 1_555 1_555
N6 C18 1_555 1_555
N7 C20 1_555 1_555
N8 C20 1_555 1_555
H41 N8 1_555 1_555
N9 C28 1_555 1_555
N10 C30 1_555 1_555
N11 C30 1_555 1_555
H42 N11 1_555 1_555
N12 C38 1_555 1_555
H43 N12 1_555 1_555
N13 C38 1_555 1_555
O1 H44 1_555 1_555
O2 H46 1_555 1_555
H47 O2 1_555 1_555
O3 H48 1_555 1_555
H49 O3 1_555 1_555
O4 H50 1_555 1_555
H51 O4 1_555 1_555
H44B O1 1_555 1_555
C5 C6 1_555 1_555
C7 N1 1_555 1_555
C7 N2 1_555 1_555
C9 N3 1_555 1_555
C11 N4 1_555 1_555
C15 C16 1_555 1_555
C16 N5 1_555 1_555
C17 N3 1_555 1_555
C19 N6 1_555 1_555
C21 N7 1_555 1_555
C25 C26 1_555 1_555
C26 N8 1_555 1_555
C27 N6 1_555 1_555
C29 N9 1_555 1_555
C31 N11 1_555 1_555
C35 C36 1_555 1_555
C36 N10 1_555 1_555
C37 N9 1_555 1_555
C39 N13 1_555 1_555
C43 C44 1_555 1_555
C44 N12 1_555 1_555

#END
