
#######################################################################
#
#                 Cambridge Crystallographic Data Centre
#                                CCDC 
#
#######################################################################
#
# If this CIF has been generated from an entry in the Cambridge 
# Structural Database, then it will include bibliographic, chemical, 
# crystal, experimental, refinement or atomic coordinate data resulting 
# from the CCDC's data processing and validation procedures.
#
#######################################################################

data_VOFTOZ
_chemical_formula_moiety         'C19 H16 N2 O3'
_chemical_name_systematic        
1-Phenyl-3-methyl-4-(3'-phenylpropane-1',3'-dione)pyrazol-5-one
_symmetry_cell_setting           monoclinic
_symmetry_space_group_name_H-M   'P 21/n'
_symmetry_Int_Tables_number      14
_space_group_name_Hall           '-P 2yn'
loop_
_symmetry_equiv_pos_site_id
_symmetry_equiv_pos_as_xyz
1 x,y,z
2 1/2-x,1/2+y,1/2-z
3 -x,-y,-z
4 1/2+x,1/2-y,1/2+z
_cell_length_a                   5.048(2)
_cell_length_b                   18.275(4)
_cell_length_c                   17.159(6)
_cell_angle_alpha                90
_cell_angle_beta                 96.14(3)
_cell_angle_gamma                90
_cell_volume                     1573.87
_cell_formula_units_Z            4
loop_
_atom_site_label
_atom_site_type_symbol
_atom_site_fract_x
_atom_site_fract_y
_atom_site_fract_z
O1 O -0.1834(13) 0.4496(3) 0.4527(3)
O2 O 0.1979(14) 0.3675(3) 0.5058(3)
O3 O 0.5725(14) 0.2901(3) 0.5647(3)
N1 N -0.3569(13) 0.4163(3) 0.3204(3)
N2 N -0.2998(14) 0.3579(4) 0.2705(3)
C1 C 0.1881(19) 0.3301(4) 0.4416(4)
C2 C 0.3837(19) 0.2730(4) 0.4364(4)
C3 C 0.5678(21) 0.2538(4) 0.4965(4)
C4 C -0.5579(16) 0.4637(4) 0.3043(4)
C5 C -0.7142(19) 0.4583(5) 0.2302(4)
C6 C -0.9107(19) 0.5069(5) 0.2104(5)
C7 C -0.9791(21) 0.5626(5) 0.2601(4)
C8 C -0.8259(20) 0.5670(5) 0.3323(4)
C9 C -0.6232(20) 0.5207(5) 0.3543(4)
C10 C -0.0945(16) 0.3223(4) 0.3032(4)
C11 C -0.0148(18) 0.3490(4) 0.3815(4)
C12 C -0.1778(18) 0.4067(4) 0.3890(4)
C13 C 0.0186(23) 0.2612(5) 0.2606(4)
C14 C 0.7588(19) 0.1954(4) 0.4972(4)
C15 C 0.7825(19) 0.1518(4) 0.4307(4)
C16 C 0.9736(25) 0.0996(5) 0.4293(5)
C17 C 1.1536(17) 0.0855(4) 0.4946(4)
C18 C 1.1315(22) 0.1285(5) 0.5604(5)
C19 C 0.9457(20) 0.1813(4) 0.5623(4)
loop_
_geom_bond_atom_site_label_1
_geom_bond_atom_site_label_2
_geom_bond_site_symmetry_1
_geom_bond_site_symmetry_2
O1 C12 1_555 1_555
O2 C1 1_555 1_555
O3 C3 1_555 1_555
N1 N2 1_555 1_555
N2 C10 1_555 1_555
C1 C2 1_555 1_555
C2 C3 1_555 1_555
C3 C14 1_555 1_555
C4 N1 1_555 1_555
C5 C4 1_555 1_555
C6 C5 1_555 1_555
C7 C6 1_555 1_555
C8 C7 1_555 1_555
C9 C4 1_555 1_555
C10 C11 1_555 1_555
C11 C1 1_555 1_555
C12 N1 1_555 1_555
C13 C10 1_555 1_555
C14 C15 1_555 1_555
C15 C16 1_555 1_555
C16 C17 1_555 1_555
C17 C18 1_555 1_555
C18 C19 1_555 1_555
C19 C14 1_555 1_555
C8 C9 1_555 1_555
C11 C12 1_555 1_555

#END
