
#######################################################################
#
#                 Cambridge Crystallographic Data Centre
#                                CCDC 
#
#######################################################################
#
# If this CIF has been generated from an entry in the Cambridge 
# Structural Database, then it will include bibliographic, chemical, 
# crystal, experimental, refinement or atomic coordinate data resulting 
# from the CCDC's data processing and validation procedures.
#
#######################################################################

data_VOFVUH
_chemical_formula_moiety         'C6 H6 N2 O2'
_chemical_name_systematic        N-Cyanomethylsuccimide
_symmetry_cell_setting           triclinic
_symmetry_space_group_name_H-M   'P -1'
_symmetry_Int_Tables_number      2
_space_group_name_Hall           '-P 1'
loop_
_symmetry_equiv_pos_site_id
_symmetry_equiv_pos_as_xyz
1 x,y,z
2 -x,-y,-z
_cell_length_a                   8.404(2)
_cell_length_b                   9.710(2)
_cell_length_c                   10.093(2)
_cell_angle_alpha                104.73(2)
_cell_angle_beta                 108.55(2)
_cell_angle_gamma                112.03(2)
_cell_volume                     655.159
_exptl_crystal_colour            colorless
_chemical_melting_point          118deg.C
_cell_formula_units_Z            4
loop_
_atom_site_label
_atom_site_type_symbol
_atom_site_fract_x
_atom_site_fract_y
_atom_site_fract_z
C1 C 0.9225(4) -0.0688(4) 0.2670(4)
C2 C 1.0453(4) 0.0340(4) 0.2103(4)
C3 C 0.9885(4) 0.1622(4) 0.2045(3)
C4 C 0.8078(4) 0.0103(3) 0.2986(3)
C5 C 0.7768(4) 0.2501(3) 0.2807(3)
C6 C 0.5749(5) 0.1766(4) 0.1695(3)
N1 N 0.8520(3) 0.1390(3) 0.2573(2)
N2 N 0.4177(4) 0.1225(4) 0.0869(3)
O1 O 0.6962(3) -0.0264(3) 0.3504(3)
O2 O 1.0465(3) 0.2683(3) 0.1634(3)
C7 C 0.7699(4) 0.2713(4) 0.8489(3)
C8 C 0.7325(5) 0.2318(4) 0.6835(4)
C9 C 0.6240(4) 0.3153(4) 0.6307(3)
C10 C 0.6939(4) 0.3853(4) 0.8858(3)
C11 C 0.5313(4) 0.5101(4) 0.7483(4)
C12 C 0.3218(4) 0.4224(4) 0.6586(3)
N3 N 0.6110(3) 0.4017(3) 0.7534(3)
N4 N 0.1598(4) 0.3611(4) 0.5922(3)
O3 O 0.5573(4) 0.3124(3) 0.5049(3)
O4 O 0.7025(4) 0.4547(4) 1.0064(3)
loop_
_geom_bond_atom_site_label_1
_geom_bond_atom_site_label_2
_geom_bond_site_symmetry_1
_geom_bond_site_symmetry_2
C1 C2 1_555 1_555
C2 C3 1_555 1_555
C3 N1 1_555 1_555
C4 C1 1_555 1_555
C5 C6 1_555 1_555
C6 N2 1_555 1_555
N1 C4 1_555 1_555
O1 C4 1_555 1_555
O2 C3 1_555 1_555
C7 C8 1_555 1_555
C8 C9 1_555 1_555
C9 N3 1_555 1_555
C10 C7 1_555 1_555
C11 C12 1_555 1_555
C12 N4 1_555 1_555
N3 C10 1_555 1_555
O3 C9 1_555 1_555
O4 C10 1_555 1_555
C5 N1 1_555 1_555
C11 N3 1_555 1_555

#END
