
#######################################################################
#
#                 Cambridge Crystallographic Data Centre
#                                CCDC 
#
#######################################################################
#
# If this CIF has been generated from an entry in the Cambridge 
# Structural Database, then it will include bibliographic, chemical, 
# crystal, experimental, refinement or atomic coordinate data resulting 
# from the CCDC's data processing and validation procedures.
#
#######################################################################

data_VOFVOB
_chemical_formula_moiety         'C10 H6 N2 O2'
_chemical_name_systematic        'N-Cyanomethyl phthalimide'
_symmetry_cell_setting           monoclinic
_symmetry_space_group_name_H-M   'P 21/a'
_symmetry_Int_Tables_number      14
_space_group_name_Hall           '-P 2yab'
loop_
_symmetry_equiv_pos_site_id
_symmetry_equiv_pos_as_xyz
1 x,y,z
2 1/2-x,1/2+y,-z
3 -x,-y,-z
4 1/2+x,1/2-y,z
_cell_length_a                   8.225(4)
_cell_length_b                   10.956(4)
_cell_length_c                   10.041(5)
_cell_angle_alpha                90
_cell_angle_beta                 102.43(4)
_cell_angle_gamma                90
_cell_volume                     883.616
_exptl_crystal_colour            colorless
_chemical_melting_point          117deg.C
_cell_formula_units_Z            4
loop_
_atom_site_label
_atom_site_type_symbol
_atom_site_fract_x
_atom_site_fract_y
_atom_site_fract_z
C1 C 0.1836(4) 0.0217(3) 0.2833(3)
C2 C 0.2493(4) 0.0415(3) 0.4315(3)
C3 C 0.2071(5) -0.0156(4) 0.5428(4)
C4 C 0.2875(5) 0.0243(4) 0.6711(4)
C5 C 0.4029(5) 0.1171(4) 0.6870(4)
C6 C 0.4466(5) 0.1737(4) 0.5765(4)
C7 C 0.3665(4) 0.1340(3) 0.4484(3)
C8 C 0.3842(4) 0.1766(3) 0.3116(3)
C9 C 0.2446(5) 0.1207(3) 0.0725(4)
C10 C 0.1893(5) 0.2462(4) 0.0332(3)
O1 O 0.0787(3) -0.0472(2) 0.2247(3)
O2 O 0.4700(3) 0.2558(2) 0.2801(2)
N1 N 0.2733(3) 0.1042(2) 0.2185(3)
N2 N 0.1500(5) 0.3426(3) 0.0032(3)
loop_
_geom_bond_atom_site_label_1
_geom_bond_atom_site_label_2
_geom_bond_site_symmetry_1
_geom_bond_site_symmetry_2
C1 C2 1_555 1_555
C2 C3 1_555 1_555
C3 C4 1_555 1_555
C4 C5 1_555 1_555
C5 C6 1_555 1_555
C6 C7 1_555 1_555
C7 C2 1_555 1_555
C8 C7 1_555 1_555
C9 C10 1_555 1_555
C10 N2 1_555 1_555
O1 C1 1_555 1_555
O2 C8 1_555 1_555
N1 C1 1_555 1_555
C8 N1 1_555 1_555
C9 N1 1_555 1_555

#END
