
#######################################################################
#
#                 Cambridge Crystallographic Data Centre
#                                CCDC 
#
#######################################################################
#
# If this CIF has been generated from an entry in the Cambridge 
# Structural Database, then it will include bibliographic, chemical, 
# crystal, experimental, refinement or atomic coordinate data resulting 
# from the CCDC's data processing and validation procedures.
#
#######################################################################

data_VOGNAI
_chemical_compound_source        'seeds of Peganum harmala'
_chemical_name_common            'Peganumine A'
_chemical_formula_moiety         'C29 H30 N4 O3'
_chemical_name_systematic        
6,20-dimethoxy-29,29-dimethyl-3,13,17,27-tetraazaoctacyclo[13.12.2.0^1,13^.0^2,10^.0^4,9^.0^15,27^.0^16,24^.0^18,23^]nonacosa-2(10),4,6,8,16(24),18,20,22-octaen-14-one
_symmetry_cell_setting           triclinic
_symmetry_space_group_name_H-M   'P -1'
_symmetry_Int_Tables_number      2
_space_group_name_Hall           '-P 1'
loop_
_symmetry_equiv_pos_site_id
_symmetry_equiv_pos_as_xyz
1 x,y,z
2 -x,-y,-z
_cell_length_a                   8.3324(17)
_cell_length_b                   11.148(2)
_cell_length_c                   14.586(3)
_cell_angle_alpha                109.23(3)
_cell_angle_beta                 99.14(3)
_cell_angle_gamma                103.70(3)
_cell_volume                     1200.75
_exptl_crystal_colour            colorless
_cell_formula_units_Z            2
_chemical_properties_physical    Air-sensitive
_exptl_crystal_recrystallization_method methanol/dichloromethane
loop_
_atom_site_label
_atom_site_type_symbol
_atom_site_fract_x
_atom_site_fract_y
_atom_site_fract_z
O1 O 0.28469(14) 0.28540(11) -0.46556(7)
O2 O 0.32215(13) 0.54761(10) 0.08482(7)
O3 O -0.52066(14) 0.04508(11) 0.39394(9)
C1 C 0.22605(18) 0.29690(14) 0.02810(10)
N1 N 0.06985(15) 0.22151(11) 0.04649(8)
C2 C -0.08868(18) 0.23293(15) -0.00632(10)
H1 H -0.0784 0.3281 0.0082
H2 H -0.1868 0.1939 0.0164
C3 C -0.11671(19) 0.15745(15) -0.11927(11)
H3 H -0.1487 0.0601 -0.1352
H4 H -0.2111 0.1756 -0.1574
C4 C 0.04495(18) 0.20186(14) -0.14924(10)
C5 C 0.07160(19) 0.20184(14) -0.24485(10)
C6 C -0.0312(2) 0.15026(14) -0.34349(11)
H5 H -0.1472 0.0979 -0.3590
C7 C 0.0366(2) 0.17577(15) -0.41839(10)
H6 H -0.0333 0.1408 -0.4852
C8 C 0.20832(19) 0.25323(15) -0.39615(10)
C9 C 0.31505(19) 0.30213(14) -0.30040(10)
H7 H 0.4314 0.3531 -0.2859
C10 C 0.24652(18) 0.27433(14) -0.22599(10)
N2 N 0.32342(15) 0.31191(12) -0.12562(8)
C11 C 0.19969(18) 0.26893(14) -0.08063(10)
C12 C 0.25094(17) 0.44454(14) 0.09560(10)
C13 C 0.29253(18) 0.25382(14) 0.17801(10)
H8 H 0.2677 0.1651 0.1828
H9 H 0.3744 0.3215 0.2411
C14 C 0.36356(18) 0.25241(14) 0.08456(10)
C15 C 0.3567(2) 0.11092(15) 0.02060(11)
H10 H 0.3963 0.1114 -0.0391
H11 H 0.2389 0.0515 -0.0002
H12 H 0.4306 0.0791 0.0600
C16 C 0.54602(18) 0.34609(15) 0.11276(11)
H13 H 0.6250 0.3117 0.1462
H14 H 0.5529 0.4354 0.1583
H15 H 0.5771 0.3513 0.0518
C17 C 0.1789(2) 0.24107(19) -0.56515(11)
H16 H 0.1372 0.1432 -0.5945
H17 H 0.2456 0.2738 -0.6065
H18 H 0.0815 0.2759 -0.5627
C18 C 0.12682(18) 0.29059(13) 0.15634(10)
N3 N 0.18069(15) 0.43417(11) 0.17066(8)
C19 C 0.18778(19) 0.54155(14) 0.26304(11)
H19 H 0.2148 0.6277 0.2540
H20 H 0.2793 0.5483 0.3186
C20 C 0.0156(2) 0.51332(15) 0.28934(12)
H21 H 0.0297 0.5703 0.3602
H22 H -0.0674 0.5356 0.2462
C21 C -0.05177(18) 0.36939(14) 0.27423(10)
C22 C -0.17750(18) 0.30612(14) 0.31472(10)
C23 C -0.27377(19) 0.35218(15) 0.38147(11)
H23 H -0.2626 0.4446 0.4094
C24 C -0.38480(19) 0.26174(15) 0.40616(11)
H24 H -0.4493 0.2925 0.4519
C25 C -0.40349(19) 0.12466(15) 0.36444(11)
C26 C -0.30928(19) 0.07478(15) 0.29913(10)
H25 H -0.3202 -0.0177 0.2722
C27 C -0.19745(18) 0.16802(14) 0.27520(10)
N4 N -0.08654(16) 0.14842(12) 0.21478(9)
C28 C -0.00083(18) 0.27064(14) 0.21401(10)
C29 C -0.5105(2) -0.08659(16) 0.37495(13)
H26 H -0.5429 -0.1380 0.3023
H27 H -0.5883 -0.1308 0.4061
H28 H -0.3931 -0.0815 0.4034
H29 H -0.081(2) 0.0683(11) 0.1803(11)
H30 H 0.4337(13) 0.3617(15) -0.0968(11)
loop_
_geom_bond_atom_site_label_1
_geom_bond_atom_site_label_2
_geom_bond_site_symmetry_1
_geom_bond_site_symmetry_2
O1 C8 1_555 1_555
O2 C12 1_555 1_555
O3 C25 1_555 1_555
C1 N1 1_555 1_555
N1 C2 1_555 1_555
C2 H1 1_555 1_555
H2 C2 1_555 1_555
C3 C2 1_555 1_555
H3 C3 1_555 1_555
H4 C3 1_555 1_555
C4 C3 1_555 1_555
C5 C4 1_555 1_555
C6 C5 1_555 1_555
H5 C6 1_555 1_555
C7 C6 1_555 1_555
H6 C7 1_555 1_555
C8 C7 1_555 1_555
C9 C8 1_555 1_555
H7 C9 1_555 1_555
C10 C5 1_555 1_555
N2 C10 1_555 1_555
C11 C1 1_555 1_555
C12 C1 1_555 1_555
C13 H8 1_555 1_555
H9 C13 1_555 1_555
C14 C1 1_555 1_555
C15 C14 1_555 1_555
H10 C15 1_555 1_555
H11 C15 1_555 1_555
H12 C15 1_555 1_555
C16 C14 1_555 1_555
H13 C16 1_555 1_555
H14 C16 1_555 1_555
H15 C16 1_555 1_555
C17 O1 1_555 1_555
H16 C17 1_555 1_555
H17 C17 1_555 1_555
H18 C17 1_555 1_555
C18 N1 1_555 1_555
N3 C12 1_555 1_555
C19 N3 1_555 1_555
H19 C19 1_555 1_555
H20 C19 1_555 1_555
C20 C19 1_555 1_555
H21 C20 1_555 1_555
H22 C20 1_555 1_555
C21 C20 1_555 1_555
C22 C21 1_555 1_555
C23 C22 1_555 1_555
H23 C23 1_555 1_555
C24 C23 1_555 1_555
H24 C24 1_555 1_555
C25 C24 1_555 1_555
C26 C25 1_555 1_555
H25 C26 1_555 1_555
C27 C22 1_555 1_555
N4 C27 1_555 1_555
C28 C18 1_555 1_555
C29 O3 1_555 1_555
H26 C29 1_555 1_555
H27 C29 1_555 1_555
H28 C29 1_555 1_555
H29 N4 1_555 1_555
H30 N2 1_555 1_555
C4 C11 1_555 1_555
C9 C10 1_555 1_555
N2 C11 1_555 1_555
C13 C14 1_555 1_555
C13 C18 1_555 1_555
C18 N3 1_555 1_555
C21 C28 1_555 1_555
C26 C27 1_555 1_555
N4 C28 1_555 1_555

#END
