
#######################################################################
#
#                 Cambridge Crystallographic Data Centre
#                                CCDC 
#
#######################################################################
#
# If this CIF has been generated from an entry in the Cambridge 
# Structural Database, then it will include bibliographic, chemical, 
# crystal, experimental, refinement or atomic coordinate data resulting 
# from the CCDC's data processing and validation procedures.
#
#######################################################################

data_VOHDON
_chemical_formula_moiety         'C17 H17 N1 O8'
_chemical_name_systematic        
'7-Ethyl 1,2,3-trimethyl indolizine-1,2,3,7-tetracarboxylate'
_symmetry_cell_setting           monoclinic
_symmetry_space_group_name_H-M   'P 21/c'
_symmetry_Int_Tables_number      14
_space_group_name_Hall           '-P 2ybc'
loop_
_symmetry_equiv_pos_site_id
_symmetry_equiv_pos_as_xyz
1 x,y,z
2 -x,1/2+y,1/2-z
3 -x,-y,-z
4 x,1/2-y,1/2+z
_cell_length_a                   8.6190(3)
_cell_length_b                   27.0157(10)
_cell_length_c                   7.3823(3)
_cell_angle_alpha                90
_cell_angle_beta                 94.789(2)
_cell_angle_gamma                90
_cell_volume                     1712.96
_exptl_crystal_colour            yellow
_cell_formula_units_Z            4
loop_
_atom_site_label
_atom_site_type_symbol
_atom_site_fract_x
_atom_site_fract_y
_atom_site_fract_z
N1 N 0.35285(13) 0.96169(4) 0.36331(16)
O1 O 0.16106(13) 1.13249(4) 0.40055(15)
O2 O 0.28092(13) 0.80401(4) 0.42648(16)
O3 O 0.53466(13) 0.85259(4) 0.19422(15)
O4 O 0.13465(14) 0.93336(4) 0.83944(16)
C1 C 0.36076(16) 0.88542(5) 0.48081(18)
C2 C 0.27425(15) 0.96341(5) 0.52097(19)
O5 O 0.22601(15) 0.85623(4) 0.81615(17)
C3 C 0.27931(16) 0.91531(5) 0.59475(19)
C4 C 0.22448(16) 1.04974(5) 0.4654(2)
C5 C 0.21023(17) 1.00875(5) 0.57056(19)
H1 H 0.1579 1.0108 0.6755
O6 O 0.52516(16) 0.92751(4) 0.06466(17)
C6 C 0.40655(17) 0.91380(5) 0.33871(19)
C7 C 0.39462(16) 0.83132(5) 0.50917(19)
C8 C 0.36870(19) 1.00351(5) 0.2581(2)
H2 H 0.4225 1.0018 0.1543
C9 C 0.30571(18) 1.04666(5) 0.3070(2)
H3 H 0.3157 1.0747 0.2358
C10 C 0.15597(18) 1.09727(6) 0.5251(2)
O7 O 0.50686(14) 0.81506(4) 0.59362(17)
O8 O 0.10477(17) 1.10288(5) 0.66950(17)
C11 C 0.49359(18) 0.90017(5) 0.1848(2)
C12 C 0.21289(16) 0.89791(5) 0.7594(2)
C13 C 0.1111(2) 1.18154(6) 0.4532(3)
H4 H 0.1799 1.1941 0.5535
H5 H 0.0062 1.1802 0.4913
C14 C 0.0596(2) 0.91908(7) 0.9988(3)
H6 H -0.0197 0.8950 0.9659
H7 H 0.0133 0.9477 1.0497
H8 H 0.1353 0.9051 1.0870
C15 C 0.1162(2) 1.21424(6) 0.2925(3)
H9 H 0.2209 1.2159 0.2577
H10 H 0.0818 1.2468 0.3221
H11 H 0.0492 1.2012 0.1935
C16 C 0.6243(2) 0.83519(7) 0.0504(3)
H12 H 0.5679 0.8414 -0.0651
H13 H 0.6425 0.8003 0.0644
H14 H 0.7222 0.8523 0.0561
C17 C 0.3002(3) 0.75112(6) 0.4413(3)
H15 H 0.3974 0.7417 0.3965
H16 H 0.2162 0.7349 0.3709
H17 H 0.2997 0.7414 0.5664
loop_
_geom_bond_atom_site_label_1
_geom_bond_atom_site_label_2
_geom_bond_site_symmetry_1
_geom_bond_site_symmetry_2
N1 C2 1_555 1_555
O1 C10 1_555 1_555
O2 C7 1_555 1_555
O3 C11 1_555 1_555
O4 C12 1_555 1_555
C1 C3 1_555 1_555
C2 C3 1_555 1_555
O5 C12 1_555 1_555
C3 C12 1_555 1_555
C4 C5 1_555 1_555
C5 C2 1_555 1_555
H1 C5 1_555 1_555
O6 C11 1_555 1_555
C6 N1 1_555 1_555
C7 C1 1_555 1_555
C8 N1 1_555 1_555
H2 C8 1_555 1_555
C9 C4 1_555 1_555
H3 C9 1_555 1_555
C10 C4 1_555 1_555
O7 C7 1_555 1_555
O8 C10 1_555 1_555
C11 C6 1_555 1_555
C13 O1 1_555 1_555
H4 C13 1_555 1_555
H5 C13 1_555 1_555
C14 O4 1_555 1_555
H6 C14 1_555 1_555
H7 C14 1_555 1_555
H8 C14 1_555 1_555
C15 C13 1_555 1_555
H9 C15 1_555 1_555
H10 C15 1_555 1_555
H11 C15 1_555 1_555
C16 O3 1_555 1_555
H12 C16 1_555 1_555
H13 C16 1_555 1_555
H14 C16 1_555 1_555
C17 O2 1_555 1_555
H15 C17 1_555 1_555
H16 C17 1_555 1_555
H17 C17 1_555 1_555
C1 C6 1_555 1_555
C8 C9 1_555 1_555

#END
