
#######################################################################
#
#                 Cambridge Crystallographic Data Centre
#                                CCDC 
#
#######################################################################
#
# If this CIF has been generated from an entry in the Cambridge 
# Structural Database, then it will include bibliographic, chemical, 
# crystal, experimental, refinement or atomic coordinate data resulting 
# from the CCDC's data processing and validation procedures.
#
#######################################################################

data_VOHDAZ
_chemical_formula_moiety         'C21 H31 N1 O4'
_chemical_name_systematic        
5-(1-Hydroxyethyl)-1-methyl-3-((1,2,6-trimethyl-1,2,4a,5,6,7,8,8a-octahydronaphthalen-1-yl)carbonyl)pyrrolidine-2,4-dione
_symmetry_cell_setting           monoclinic
_symmetry_space_group_name_H-M   'P 21'
_symmetry_Int_Tables_number      4
_space_group_name_Hall           'P 2yb'
loop_
_symmetry_equiv_pos_site_id
_symmetry_equiv_pos_as_xyz
1 x,y,z
2 -x,1/2+y,-z
_cell_length_a                   7.7003(6)
_cell_length_b                   8.1539(7)
_cell_length_c                   16.0222(13)
_cell_angle_alpha                90
_cell_angle_beta                 91.409(3)
_cell_angle_gamma                90
_cell_volume                     1005.69
_exptl_crystal_colour            colorless
_exptl_crystal_description       block
_cell_formula_units_Z            2
loop_
_atom_site_label
_atom_site_type_symbol
_atom_site_fract_x
_atom_site_fract_y
_atom_site_fract_z
N1 N 1.0139(3) 0.4161(3) 0.50505(14)
O1 O 1.3066(3) 0.2141(3) 0.48669(14)
H1 H 1.3882 0.1550 0.4702
O2 O 1.4145(2) 0.5593(3) 0.58608(12)
O3 O 0.8555(2) 0.3393(3) 0.61850(11)
O4 O 1.0058(2) 0.3645(2) 0.75345(11)
C1 C 1.2443(5) 0.3302(6) 0.3509(2)
H2 H 1.3250 0.2537 0.3249
H3 H 1.2434 0.4341 0.3201
H4 H 1.1272 0.2830 0.3494
C2 C 1.3016(4) 0.3607(4) 0.44054(17)
H5 H 1.4218 0.4071 0.4405
C3 C 1.1867(3) 0.4785(4) 0.48885(17)
H6 H 1.1775 0.5856 0.4586
C4 C 0.8744(4) 0.4029(4) 0.44293(18)
H7 H 0.7709 0.3577 0.4689
H8 H 0.9104 0.3303 0.3978
H9 H 0.8477 0.5118 0.4202
C5 C 0.9918(3) 0.3975(3) 0.58667(16)
C6 C 1.1420(3) 0.4509(3) 0.63499(16)
H10 H 1.0929 0.5642 0.6384
C7 C 1.2665(3) 0.5055(4) 0.57562(17)
C8 C 1.1396(3) 0.4364(3) 0.72235(17)
C9 C 1.2825(3) 0.4911(4) 0.78323(16)
C10 C 1.3261(3) 0.6703(4) 0.76662(18)
H11 H 1.2257 0.7390 0.7793
H12 H 1.3551 0.6840 0.7078
H13 H 1.4256 0.7031 0.8021
C11 C 1.4424(3) 0.3784(4) 0.76436(18)
H14 H 1.4952 0.4193 0.7119
C12 C 1.3971(4) 0.1966(5) 0.7512(2)
H15 H 1.5030 0.1351 0.7393
H16 H 1.3142 0.1858 0.7042
H17 H 1.3452 0.1529 0.8019
C13 C 1.5787(3) 0.3923(5) 0.8337(2)
H18 H 1.6928 0.3561 0.8219
C14 C 1.5523(4) 0.4501(4) 0.9085(2)
H19 H 1.6470 0.4506 0.9476
C15 C 1.3815(3) 0.5153(4) 0.93584(16)
H20 H 1.3901 0.6377 0.9350
C16 C 1.2300(3) 0.4676(3) 0.87532(16)
H21 H 1.2056 0.3483 0.8837
C17 C 1.0712(3) 0.5631(4) 0.90350(16)
H22 H 1.0954 0.6822 0.9004
H23 H 0.9712 0.5389 0.8655
C18 C 1.0256(3) 0.5178(4) 0.99231(16)
H24 H 0.9938 0.4002 0.9942
H25 H 0.9232 0.5822 1.0090
C19 C 1.1745(4) 0.5494(4) 1.05429(17)
H26 H 1.1968 0.6702 1.0553
C20 C 1.1307(4) 0.4971(5) 1.14252(18)
H27 H 1.2292 0.5215 1.1804
H28 H 1.1068 0.3791 1.1433
H29 H 1.0280 0.5572 1.1606
C21 C 1.3386(4) 0.4658(4) 1.02470(18)
H30 H 1.3230 0.3454 1.0272
H31 H 1.4371 0.4952 1.0627
loop_
_geom_bond_atom_site_label_1
_geom_bond_atom_site_label_2
_geom_bond_site_symmetry_1
_geom_bond_site_symmetry_2
N1 C3 1_555 1_555
O1 H1 1_555 1_555
O2 C7 1_555 1_555
O3 C5 1_555 1_555
O4 C8 1_555 1_555
C1 H2 1_555 1_555
H3 C1 1_555 1_555
H4 C1 1_555 1_555
C2 O1 1_555 1_555
H5 C2 1_555 1_555
C3 C2 1_555 1_555
H6 C3 1_555 1_555
C4 N1 1_555 1_555
H7 C4 1_555 1_555
H8 C4 1_555 1_555
H9 C4 1_555 1_555
C5 N1 1_555 1_555
C6 C5 1_555 1_555
H10 C6 1_555 1_555
C7 C3 1_555 1_555
C8 C6 1_555 1_555
C9 C8 1_555 1_555
C10 C9 1_555 1_555
H11 C10 1_555 1_555
H12 C10 1_555 1_555
H13 C10 1_555 1_555
C11 C9 1_555 1_555
H14 C11 1_555 1_555
C12 C11 1_555 1_555
H15 C12 1_555 1_555
H16 C12 1_555 1_555
H17 C12 1_555 1_555
C13 C11 1_555 1_555
H18 C13 1_555 1_555
C14 C13 1_555 1_555
H19 C14 1_555 1_555
C15 C14 1_555 1_555
H20 C15 1_555 1_555
C16 C9 1_555 1_555
H21 C16 1_555 1_555
C17 C16 1_555 1_555
H22 C17 1_555 1_555
H23 C17 1_555 1_555
C18 C17 1_555 1_555
H24 C18 1_555 1_555
H25 C18 1_555 1_555
C19 C18 1_555 1_555
H26 C19 1_555 1_555
C20 C19 1_555 1_555
H27 C20 1_555 1_555
H28 C20 1_555 1_555
H29 C20 1_555 1_555
C21 C15 1_555 1_555
H30 C21 1_555 1_555
H31 C21 1_555 1_555
C1 C2 1_555 1_555
C6 C7 1_555 1_555
C15 C16 1_555 1_555
C19 C21 1_555 1_555

#END
