
#######################################################################
#
#                 Cambridge Crystallographic Data Centre
#                                CCDC 
#
#######################################################################
#
# If this CIF has been generated from an entry in the Cambridge 
# Structural Database, then it will include bibliographic, chemical, 
# crystal, experimental, refinement or atomic coordinate data resulting 
# from the CCDC's data processing and validation procedures.
#
#######################################################################

data_VOHDED
_chemical_formula_moiety         'C25 H37 N1 O5,C1 H1 Cl3'
_chemical_name_systematic        
"3a-Hydroxy-3-isopropyl-2,6,6,10,12b-pentamethyl-3,3a,6b,8a,9,10,11,12,12a,12b-decahydro-6H-benzo[4',5']indeno[2',1':4,5][1,2]dioxino[3,4-c]pyrrole-1,13(2H,6aH)-dione chloroform solvate"
_symmetry_cell_setting           orthorhombic
_symmetry_space_group_name_H-M   'P 21 21 21'
_symmetry_Int_Tables_number      19
_space_group_name_Hall           'P 2ac 2ab'
loop_
_symmetry_equiv_pos_site_id
_symmetry_equiv_pos_as_xyz
1 x,y,z
2 1/2-x,-y,1/2+z
3 -x,1/2+y,1/2-z
4 1/2+x,1/2-y,-z
_cell_length_a                   11.8362(5)
_cell_length_b                   12.2518(5)
_cell_length_c                   19.0137(7)
_cell_angle_alpha                90
_cell_angle_beta                 90
_cell_angle_gamma                90
_cell_volume                     2757.27
_exptl_crystal_colour            colorless
_exptl_crystal_description       block
_cell_formula_units_Z            4
loop_
_atom_site_label
_atom_site_type_symbol
_atom_site_fract_x
_atom_site_fract_y
_atom_site_fract_z
Cl1 Cl 0.0306(2) 0.1450(3) 0.0690(2)
C1 C -0.1161(7) 0.1427(8) 0.0631(5)
H1 H -0.1461 0.0880 0.0974
Cl2 Cl -0.1473(6) 0.1014(6) -0.01811(19)
Cl3 Cl -0.1709(7) 0.2640(4) 0.0817(5)
O1 O 0.6034(4) -0.1990(3) 0.2604(3)
O2 O 0.6893(3) 0.0127(4) 0.1418(2)
O3 O 0.5997(4) 0.1900(3) 0.2536(2)
H2 H 0.5326 0.2124 0.2535
O4 O 0.5460(4) 0.0873(4) 0.3509(2)
O5 O 0.4272(4) 0.1100(3) 0.3363(2)
N1 N 0.7220(5) -0.0634(4) 0.2982(3)
C2 C 0.3264(5) -0.1771(6) -0.0026(4)
H3 H 0.2577 -0.1658 -0.0314
H4 H 0.3089 -0.2331 0.0333
C3 C 0.4220(5) -0.2186(5) -0.0499(3)
H5 H 0.4355 -0.1626 -0.0872
C4 C 0.5293(6) -0.2279(5) -0.0059(3)
H6 H 0.5179 -0.2841 0.0308
H7 H 0.5920 -0.2525 -0.0365
C5 C 0.5625(5) -0.1211(5) 0.0291(3)
H8 H 0.5796 -0.0655 -0.0072
H9 H 0.6311 -0.1320 0.0581
C6 C 0.4653(5) -0.0819(5) 0.0754(3)
H10 H 0.4522 -0.1397 0.1116
C7 C 0.3568(5) -0.0700(5) 0.0343(3)
H11 H 0.3704 -0.0142 -0.0031
C8 C 0.2628(5) -0.0292(5) 0.0791(4)
H12 H 0.1875 -0.0383 0.0627
C9 C 0.2786(5) 0.0196(5) 0.1412(4)
H13 H 0.2139 0.0383 0.1681
C10 C 0.3939(5) 0.0469(5) 0.1710(3)
H14 H 0.3942 0.1262 0.1837
C11 C 0.4889(5) 0.0276(5) 0.1163(3)
C12 C 0.5932(5) 0.0122(5) 0.1621(3)
C13 C 0.5587(4) -0.0062(4) 0.2399(3)
C14 C 0.4296(5) -0.0196(5) 0.2384(3)
H15 H 0.4127 -0.0984 0.2293
C15 C 0.3760(5) 0.0111(5) 0.3097(3)
C16 C 0.6044(5) 0.0894(5) 0.2853(3)
C17 C 0.7263(5) 0.0547(5) 0.3068(3)
H16 H 0.7361 0.0708 0.3580
C18 C 0.6287(5) -0.1005(5) 0.2686(3)
C19 C 0.3902(7) -0.0831(6) 0.3621(4)
H17 H 0.3559 -0.0630 0.4072
H18 H 0.4708 -0.0980 0.3689
H19 H 0.3529 -0.1485 0.3436
C20 C 0.2527(7) 0.0451(7) 0.3060(4)
H20 H 0.2256 0.0631 0.3533
H21 H 0.2077 -0.0151 0.2868
H22 H 0.2453 0.1092 0.2755
C21 C 0.3913(8) -0.3259(7) -0.0864(5)
H23 H 0.4545 -0.3496 -0.1159
H24 H 0.3241 -0.3150 -0.1157
H25 H 0.3756 -0.3818 -0.0508
C22 C 0.7988(7) -0.1387(6) 0.3339(4)
H26 H 0.7806 -0.2138 0.3204
H27 H 0.7905 -0.1306 0.3850
H28 H 0.8768 -0.1221 0.3204
C23 C 0.8197(5) 0.1161(5) 0.2660(4)
H29 H 0.7911 0.1312 0.2175
C24 C 0.8424(7) 0.2249(6) 0.3017(5)
H30 H 0.9016 0.2641 0.2760
H31 H 0.8671 0.2122 0.3502
H32 H 0.7731 0.2686 0.3019
C25 C 0.9292(6) 0.0525(6) 0.2595(5)
H33 H 0.9845 0.0959 0.2332
H34 H 0.9150 -0.0161 0.2345
H35 H 0.9589 0.0366 0.3065
C26 C 0.5044(6) 0.1256(5) 0.0680(3)
H36 H 0.5186 0.1910 0.0963
H37 H 0.4358 0.1362 0.0400
H38 H 0.5687 0.1127 0.0366
loop_
_geom_bond_atom_site_label_1
_geom_bond_atom_site_label_2
_geom_bond_site_symmetry_1
_geom_bond_site_symmetry_2
Cl1 C1 1_555 1_555
C1 H1 1_555 1_555
Cl2 C1 1_555 1_555
Cl3 C1 1_555 1_555
O1 C18 1_555 1_555
O2 C12 1_555 1_555
O3 H2 1_555 1_555
O4 O5 1_555 1_555
O5 C15 1_555 1_555
N1 C17 1_555 1_555
C2 H3 1_555 1_555
H4 C2 1_555 1_555
C3 C2 1_555 1_555
H5 C3 1_555 1_555
C4 C3 1_555 1_555
H6 C4 1_555 1_555
H7 C4 1_555 1_555
C5 C4 1_555 1_555
H8 C5 1_555 1_555
H9 C5 1_555 1_555
C6 C5 1_555 1_555
H10 C6 1_555 1_555
C7 C2 1_555 1_555
H11 C7 1_555 1_555
C8 C7 1_555 1_555
H12 C8 1_555 1_555
C9 C8 1_555 1_555
H13 C9 1_555 1_555
C10 C9 1_555 1_555
H14 C10 1_555 1_555
C11 C6 1_555 1_555
C12 C11 1_555 1_555
C13 C12 1_555 1_555
C14 C10 1_555 1_555
H15 C14 1_555 1_555
C15 C14 1_555 1_555
C16 O3 1_555 1_555
C17 C16 1_555 1_555
H16 C17 1_555 1_555
C18 N1 1_555 1_555
C19 C15 1_555 1_555
H17 C19 1_555 1_555
H18 C19 1_555 1_555
H19 C19 1_555 1_555
C20 C15 1_555 1_555
H20 C20 1_555 1_555
H21 C20 1_555 1_555
H22 C20 1_555 1_555
C21 C3 1_555 1_555
H23 C21 1_555 1_555
H24 C21 1_555 1_555
H25 C21 1_555 1_555
C22 N1 1_555 1_555
H26 C22 1_555 1_555
H27 C22 1_555 1_555
H28 C22 1_555 1_555
C23 C17 1_555 1_555
H29 C23 1_555 1_555
C24 C23 1_555 1_555
H30 C24 1_555 1_555
H31 C24 1_555 1_555
H32 C24 1_555 1_555
C25 C23 1_555 1_555
H33 C25 1_555 1_555
H34 C25 1_555 1_555
H35 C25 1_555 1_555
C26 C11 1_555 1_555
H36 C26 1_555 1_555
H37 C26 1_555 1_555
H38 C26 1_555 1_555
O4 C16 1_555 1_555
C6 C7 1_555 1_555
C10 C11 1_555 1_555
C13 C14 1_555 1_555
C13 C16 1_555 1_555
C13 C18 1_555 1_555

#END
