
#######################################################################
#
#                 Cambridge Crystallographic Data Centre
#                                CCDC 
#
#######################################################################
#
# If this CIF has been generated from an entry in the Cambridge 
# Structural Database, then it will include bibliographic, chemical, 
# crystal, experimental, refinement or atomic coordinate data resulting 
# from the CCDC's data processing and validation procedures.
#
#######################################################################

data_VOHHEG
_chemical_formula_moiety         'C60 H62 N4 O12'
_chemical_name_systematic        
2,2',2'',2'''-(5,10,15,20-Porphyrintetrayltetrakis(4,1-phenyleneoxy-2,1-ethanediyloxy))tetraethanol
_symmetry_cell_setting           triclinic
_symmetry_space_group_name_H-M   'P -1'
_symmetry_Int_Tables_number      2
_space_group_name_Hall           '-P 1'
loop_
_symmetry_equiv_pos_site_id
_symmetry_equiv_pos_as_xyz
1 x,y,z
2 -x,-y,-z
_cell_length_a                   9.7441(8)
_cell_length_b                   16.1523(11)
_cell_length_c                   17.6166(14)
_cell_angle_alpha                80.484(4)
_cell_angle_beta                 75.436(4)
_cell_angle_gamma                76.515(4)
_cell_volume                     2592.77
_exptl_crystal_colour            red
_exptl_crystal_description       plate
_cell_formula_units_Z            2
_exptl_crystal_recrystallization_method acetone/dimethylformamide
loop_
_atom_site_label
_atom_site_type_symbol
_atom_site_fract_x
_atom_site_fract_y
_atom_site_fract_z
C1 C 0.2916(2) -0.01494(14) 1.08309(12)
C2 C 0.2889(3) 0.00670(15) 1.16024(13)
H1 H 0.2377 0.0579 1.1824
C3 C 0.3733(2) -0.06006(15) 1.19429(13)
H2 H 0.3942 -0.0647 1.2449
C4 C 0.4261(2) -0.12364(14) 1.13851(12)
C5 C 0.5117(2) -0.20478(14) 1.15398(12)
C6 C 0.5627(2) -0.26630(14) 1.09992(12)
C7 C 0.6421(3) -0.35170(14) 1.11320(13)
H3 H 0.6671 -0.3783 1.1615
C8 C 0.6759(3) -0.38858(14) 1.04454(13)
H4 H 0.7275 -0.4453 1.0368
C9 C 0.6197(2) -0.32643(14) 0.98665(12)
C10 C 0.6461(2) -0.33508(13) 0.90626(12)
C11 C 0.6059(2) -0.27006(14) 0.84787(12)
C12 C 0.6494(2) -0.27961(14) 0.76423(12)
H5 H 0.7105 -0.3278 0.7405
C13 C 0.5856(2) -0.20622(14) 0.72667(12)
H6 H 0.5943 -0.1924 0.6713
C14 C 0.5011(2) -0.15269(13) 0.78787(12)
C15 C 0.4065(2) -0.07439(13) 0.77363(12)
C16 C 0.3260(2) -0.02274(13) 0.83274(12)
C17 C 0.2144(3) 0.05083(14) 0.82382(13)
H7 H 0.1839 0.0743 0.7762
C18 C 0.1592(3) 0.08161(14) 0.89514(13)
H8 H 0.0830 0.1298 0.9062
C19 C 0.2364(2) 0.02843(14) 0.95033(12)
C20 C 0.2171(2) 0.04027(14) 1.02947(12)
C21 C 0.5549(2) -0.22933(14) 1.23160(12)
C22 C 0.4525(2) -0.23074(15) 1.30277(13)
H9 H 0.3525 -0.2163 1.3022
C23 C 0.4939(3) -0.25304(15) 1.37488(13)
H10 H 0.4227 -0.2533 1.4229
C24 C 0.6399(3) -0.27481(14) 1.37607(12)
C25 C 0.7441(2) -0.27481(14) 1.30532(13)
H11 H 0.8441 -0.2901 1.3059
C26 C 0.7012(2) -0.25246(14) 1.23439(13)
H12 H 0.7727 -0.2528 1.1864
C27 C 0.5919(3) -0.30868(16) 1.51638(13)
H13 H 0.5266 -0.3455 1.5121
H14 H 0.5325 -0.2526 1.5311
C28 C 0.6773(3) -0.35014(16) 1.57740(15)
H15 H 0.7512 -0.3169 1.5766
H16 H 0.6122 -0.3514 1.6305
C29 C 0.8131(4) -0.48267(19) 1.62114(18)
H17 H 0.7414 -0.4847 1.6721
H18 H 0.8907 -0.4557 1.6269
C30 C 0.8757(4) -0.5720(2) 1.5983(2)
H19 H 0.9471 -0.5692 1.5473
H20 H 0.9269 -0.6063 1.6387
C31 C 0.7185(2) -0.42205(14) 0.88232(12)
C32 C 0.8650(3) -0.44252(16) 0.84343(15)
H21 H 0.9231 -0.4004 0.8327
C33 C 0.9253(3) -0.52388(16) 0.82056(15)
H22 H 1.0241 -0.5370 0.7938
C34 C 0.8408(3) -0.58631(14) 0.83688(14)
C35 C 0.6964(3) -0.56740(15) 0.87670(15)
H23 H 0.6388 -0.6099 0.8887
C36 C 0.6375(3) -0.48543(15) 0.89872(14)
H24 H 0.5389 -0.4726 0.9258
C37 C 0.8191(3) -0.72597(15) 0.82091(15)
H25 H 0.7308 -0.7003 0.8005
H26 H 0.7895 -0.7463 0.8776
C38 C 0.9064(3) -0.79896(15) 0.77625(14)
H27 H 1.0036 -0.8163 0.7885
H28 H 0.8583 -0.8487 0.7919
C39 C 0.9951(3) -0.83977(18) 0.64782(16)
H29 H 0.9437 -0.8882 0.6618
H30 H 1.0938 -0.8607 0.6575
C40 C 1.0034(3) -0.8057(2) 0.56267(17)
H31 H 1.0514 -0.7559 0.5496
H32 H 1.0618 -0.8505 0.5289
C41 C 0.3814(2) -0.04563(14) 0.69229(12)
C42 C 0.3999(2) 0.03535(13) 0.65412(12)
H33 H 0.4336 0.0720 0.6792
C43 C 0.3699(2) 0.06283(14) 0.58009(12)
H34 H 0.3844 0.1177 0.5545
C44 C 0.3185(2) 0.01027(13) 0.54307(12)
C45 C 0.2993(2) -0.07042(14) 0.57968(13)
H35 H 0.2645 -0.1066 0.5548
C46 C 0.3319(3) -0.09752(14) 0.65346(13)
H36 H 0.3201 -0.1531 0.6782
C47 C 0.2174(3) -0.00309(15) 0.43682(13)
H37 H 0.1281 -0.0150 0.4744
H38 H 0.2816 -0.0584 0.4234
C48 C 0.1811(3) 0.05032(15) 0.36365(13)
H39 H 0.2706 0.0636 0.3271
H40 H 0.1367 0.0180 0.3365
C49 C 0.0348(3) 0.17579(17) 0.31713(15)
H41 H -0.0305 0.1466 0.3011
H42 H 0.1185 0.1807 0.2723
C50 C -0.0445(3) 0.26358(17) 0.33831(17)
H43 H 0.0185 0.2899 0.3592
H44 H -0.0661 0.3002 0.2901
C51 C 0.1121(2) 0.11830(14) 1.05806(12)
C52 C 0.1300(3) 0.20164(18) 1.02409(17)
H45 H 0.2090 0.2085 0.9808
C53 C 0.0347(3) 0.27398(18) 1.05252(18)
H46 H 0.0493 0.3295 1.0292
C54 C -0.0821(3) 0.26456(14) 1.11524(14)
C55 C -0.1075(3) 0.18430(17) 1.14502(16)
H47 H -0.1920 0.1777 1.1846
C56 C -0.0092(3) 0.11245(16) 1.11718(16)
H48 H -0.0267 0.0572 1.1399
C57 C -0.3008(3) 0.33515(16) 1.19425(16)
H49 H -0.2878 0.2909 1.2394
H50 H -0.3658 0.3193 1.1664
C58 C -0.3665(3) 0.42134(16) 1.22347(15)
H51 H -0.3553 0.4672 1.1789
H52 H -0.4711 0.4250 1.2466
C59 C -0.3740(5) 0.49961(19) 1.32799(18)
H53 H -0.4749 0.4923 1.3501
H54 H -0.3761 0.5557 1.2952
C60 C -0.2996(6) 0.4964(2) 1.3931(2)
H55 H -0.1968 0.4995 1.3704
H56 H -0.3453 0.5465 1.4226
N1 N 0.3769(2) -0.09401(12) 1.07067(10)
N2 N 0.5488(2) -0.25415(12) 1.02278(10)
H57 H 0.5017 -0.2073 1.0000
N3 N 0.5184(2) -0.19176(11) 0.86058(10)
N4 N 0.3349(2) -0.03430(12) 0.91026(10)
H58 H 0.3949 -0.0759 0.9313
O1 O 0.69313(19) -0.29726(11) 1.44284(10)
O2 O 0.7454(2) -0.43483(12) 1.56062(11)
O3 O 0.7657(3) -0.61242(14) 1.59152(14)
H59 H 0.7503 -0.5995 1.5458
O4 O -0.1648(2) 0.33951(11) 1.14202(11)
O5 O -0.2965(3) 0.43231(14) 1.28101(13)
O6 O -0.3072(3) 0.42034(14) 1.44543(13)
H60 H -0.2671 0.3777 1.4206
O7 O 0.90775(19) -0.66389(11) 0.81052(11)
O8 O 0.91972(19) -0.77288(11) 0.69440(10)
O9 O 0.8630(2) -0.78067(15) 0.54755(12)
H61 H 0.8268 -0.7306 0.5591
O10 O 0.28888(18) 0.04420(10) 0.47128(9)
O11 O 0.0834(2) 0.12750(11) 0.38381(10)
O12 O -0.1758(2) 0.26063(12) 0.39548(12)
H62 H -0.1581 0.2478 0.4407
loop_
_geom_bond_atom_site_label_1
_geom_bond_atom_site_label_2
_geom_bond_site_symmetry_1
_geom_bond_site_symmetry_2
C1 C2 1_555 1_555
C2 H1 1_555 1_555
C3 C2 1_555 1_555
H2 C3 1_555 1_555
C4 C3 1_555 1_555
C5 C4 1_555 1_555
C6 C5 1_555 1_555
C7 C6 1_555 1_555
H3 C7 1_555 1_555
C8 C7 1_555 1_555
H4 C8 1_555 1_555
C9 C8 1_555 1_555
C10 C9 1_555 1_555
C11 C10 1_555 1_555
C12 C11 1_555 1_555
H5 C12 1_555 1_555
C13 C12 1_555 1_555
H6 C13 1_555 1_555
C14 C13 1_555 1_555
C15 C14 1_555 1_555
C16 C15 1_555 1_555
C17 C16 1_555 1_555
H7 C17 1_555 1_555
C18 C17 1_555 1_555
H8 C18 1_555 1_555
C19 C18 1_555 1_555
C20 C1 1_555 1_555
C21 C5 1_555 1_555
C22 C21 1_555 1_555
H9 C22 1_555 1_555
C23 C22 1_555 1_555
H10 C23 1_555 1_555
C24 C23 1_555 1_555
C25 C24 1_555 1_555
H11 C25 1_555 1_555
C26 C21 1_555 1_555
H12 C26 1_555 1_555
C27 H13 1_555 1_555
H14 C27 1_555 1_555
C28 C27 1_555 1_555
H15 C28 1_555 1_555
H16 C28 1_555 1_555
C29 H17 1_555 1_555
H18 C29 1_555 1_555
C30 C29 1_555 1_555
H19 C30 1_555 1_555
H20 C30 1_555 1_555
C31 C10 1_555 1_555
C32 C31 1_555 1_555
H21 C32 1_555 1_555
C33 C32 1_555 1_555
H22 C33 1_555 1_555
C34 C33 1_555 1_555
C35 C34 1_555 1_555
H23 C35 1_555 1_555
C36 C31 1_555 1_555
H24 C36 1_555 1_555
C37 H25 1_555 1_555
H26 C37 1_555 1_555
C38 C37 1_555 1_555
H27 C38 1_555 1_555
H28 C38 1_555 1_555
C39 H29 1_555 1_555
H30 C39 1_555 1_555
C40 C39 1_555 1_555
H31 C40 1_555 1_555
H32 C40 1_555 1_555
C41 C15 1_555 1_555
C42 C41 1_555 1_555
H33 C42 1_555 1_555
C43 C42 1_555 1_555
H34 C43 1_555 1_555
C44 C43 1_555 1_555
C45 C44 1_555 1_555
H35 C45 1_555 1_555
C46 C41 1_555 1_555
H36 C46 1_555 1_555
C47 H37 1_555 1_555
H38 C47 1_555 1_555
C48 C47 1_555 1_555
H39 C48 1_555 1_555
H40 C48 1_555 1_555
C49 H41 1_555 1_555
H42 C49 1_555 1_555
C50 C49 1_555 1_555
H43 C50 1_555 1_555
H44 C50 1_555 1_555
C51 C20 1_555 1_555
C52 C51 1_555 1_555
H45 C52 1_555 1_555
C53 C52 1_555 1_555
H46 C53 1_555 1_555
C54 C53 1_555 1_555
C55 C54 1_555 1_555
H47 C55 1_555 1_555
C56 C51 1_555 1_555
H48 C56 1_555 1_555
C57 H49 1_555 1_555
H50 C57 1_555 1_555
C58 C57 1_555 1_555
H51 C58 1_555 1_555
H52 C58 1_555 1_555
C59 H53 1_555 1_555
H54 C59 1_555 1_555
C60 C59 1_555 1_555
H55 C60 1_555 1_555
H56 C60 1_555 1_555
N1 C1 1_555 1_555
N2 C6 1_555 1_555
H57 N2 1_555 1_555
N3 C11 1_555 1_555
N4 C16 1_555 1_555
H58 N4 1_555 1_555
O1 C24 1_555 1_555
O2 C28 1_555 1_555
O3 C30 1_555 1_555
H59 O3 1_555 1_555
O4 C54 1_555 1_555
O5 C58 1_555 1_555
O6 C60 1_555 1_555
H60 O6 1_555 1_555
O7 C34 1_555 1_555
O8 C38 1_555 1_555
O9 C40 1_555 1_555
H61 O9 1_555 1_555
O10 C44 1_555 1_555
O11 C48 1_555 1_555
O12 C50 1_555 1_555
H62 O12 1_555 1_555
C4 N1 1_555 1_555
C9 N2 1_555 1_555
C14 N3 1_555 1_555
C19 C20 1_555 1_555
C19 N4 1_555 1_555
C25 C26 1_555 1_555
C27 O1 1_555 1_555
C29 O2 1_555 1_555
C35 C36 1_555 1_555
C37 O7 1_555 1_555
C39 O8 1_555 1_555
C45 C46 1_555 1_555
C47 O10 1_555 1_555
C49 O11 1_555 1_555
C55 C56 1_555 1_555
C57 O4 1_555 1_555
C59 O5 1_555 1_555

#END
