
#######################################################################
#
#                 Cambridge Crystallographic Data Centre
#                                CCDC 
#
#######################################################################
#
# If this CIF has been generated from an entry in the Cambridge 
# Structural Database, then it will include bibliographic, chemical, 
# crystal, experimental, refinement or atomic coordinate data resulting 
# from the CCDC's data processing and validation procedures.
#
#######################################################################

data_VOHJIM
_chemical_name_common            
3,6-di-t-butyl-9-(4-(hexatriynyl)phenyl)carbazole
_chemical_formula_moiety         'C32 H29 N1'
_chemical_name_systematic        
9-(4-(1,3,5-hexatriyn-1-yl)phenyl)-3,6-bis(t-butyl)-9H-carbazole
_symmetry_cell_setting           monoclinic
_symmetry_space_group_name_H-M   'P 21/c'
_symmetry_Int_Tables_number      14
_space_group_name_Hall           '-P 2ybc'
loop_
_symmetry_equiv_pos_site_id
_symmetry_equiv_pos_as_xyz
1 x,y,z
2 -x,1/2+y,1/2-z
3 -x,-y,-z
4 x,1/2-y,1/2+z
_cell_length_a                   5.824(1)
_cell_length_b                   19.988(2)
_cell_length_c                   21.420(2)
_cell_angle_alpha                90
_cell_angle_beta                 96.61(1)
_cell_angle_gamma                90
_cell_volume                     2476.93
_exptl_crystal_colour            brown
_exptl_crystal_description       irregular
_cell_formula_units_Z            4
_exptl_crystal_recrystallization_method chloroform/ethanol
loop_
_atom_site_label
_atom_site_type_symbol
_atom_site_fract_x
_atom_site_fract_y
_atom_site_fract_z
N1 N 0.35627(18) 0.48397(5) 0.23272(4)
C1 C 0.4563(2) 0.36441(6) 0.26228(6)
H1 H 0.3655 0.3619 0.2963
C2 C 0.5835(2) 0.30994(6) 0.24629(6)
H2 H 0.5746 0.2695 0.2693
C3 C 0.7253(2) 0.31150(5) 0.19712(5)
C4 C 0.7354(2) 0.37041(6) 0.16316(5)
H3 H 0.8306 0.3733 0.1301
C5 C 0.6699(2) 0.52580(6) 0.10225(5)
H4 H 0.7724 0.5026 0.0784
C6 C 0.6178(2) 0.59272(6) 0.08987(5)
C7 C 0.4675(2) 0.62543(6) 0.12720(6)
H5 H 0.4329 0.6713 0.1193
C8 C 0.3679(2) 0.59364(6) 0.17479(6)
H6 H 0.2661 0.6168 0.1988
C9 C 0.4213(2) 0.52648(6) 0.18592(5)
C10 C 0.5736(2) 0.49241(5) 0.15064(5)
C11 C 0.6046(2) 0.42592(5) 0.17736(5)
C12 C 0.4688(2) 0.42282(5) 0.22752(5)
C13 C 0.7156(2) 0.63222(6) 0.03746(6)
C14 C 0.5148(3) 0.65680(8) -0.00967(6)
H7 H 0.4235 0.6185 -0.0270
H8 H 0.5768 0.6810 -0.0438
H9 H 0.4163 0.6868 0.0118
C15 C 0.8755(3) 0.58982(7) 0.00183(7)
H10 H 1.0056 0.5737 0.0309
H11 H 0.9337 0.6172 -0.0309
H12 H 0.7896 0.5515 -0.0176
C16 C 0.8512(3) 0.69303(7) 0.06550(7)
H13 H 0.9804 0.6781 0.0955
H14 H 0.7483 0.7215 0.0870
H15 H 0.9107 0.7185 0.0317
C17 C 0.8560(2) 0.24776(6) 0.18271(6)
C18 C 1.0100(2) 0.25826(7) 0.13024(7)
H16 H 0.9150 0.2713 0.0915
H17 H 1.0913 0.2165 0.1232
H18 H 1.1228 0.2936 0.1425
C19 C 0.6777(2) 0.19265(6) 0.16177(7)
H19 H 0.5838 0.2067 0.1231
H20 H 0.5774 0.1849 0.1948
H21 H 0.7597 0.1512 0.1540
C20 C 1.0095(2) 0.22536(6) 0.24239(6)
H22 H 0.9140 0.2169 0.2763
H23 H 1.1211 0.2609 0.2551
H24 H 1.0922 0.1843 0.2336
C21 C 0.2150(2) 0.50166(6) 0.27990(5)
C22 C 0.0029(2) 0.53224(6) 0.26288(5)
H25 H -0.0496 0.5400 0.2199
C23 C -0.1330(2) 0.55140(6) 0.30881(5)
H26 H -0.2773 0.5725 0.2968
C24 C -0.0574(2) 0.53991(6) 0.37244(5)
C25 C 0.1543(2) 0.50798(6) 0.38896(6)
H27 H 0.2050 0.4995 0.4319
C26 C 0.2907(2) 0.48909(6) 0.34288(6)
H28 H 0.4346 0.4677 0.3546
C27 C -0.1963(2) 0.56234(6) 0.41915(6)
C28 C -0.3200(2) 0.58303(6) 0.45617(6)
C29 C -0.4673(2) 0.60469(7) 0.49714(6)
C30 C -0.6029(3) 0.62218(7) 0.53254(6)
C31 C -0.7556(3) 0.64009(8) 0.57368(7)
C32 C -0.8850(3) 0.65434(10) 0.61047(8)
H29 H -0.9886 0.6658 0.6399
loop_
_geom_bond_atom_site_label_1
_geom_bond_atom_site_label_2
_geom_bond_site_symmetry_1
_geom_bond_site_symmetry_2
N1 C9 1_555 1_555
C1 H1 1_555 1_555
C2 C1 1_555 1_555
H2 C2 1_555 1_555
C3 C2 1_555 1_555
C4 C3 1_555 1_555
H3 C4 1_555 1_555
C5 H4 1_555 1_555
C6 C5 1_555 1_555
C7 C6 1_555 1_555
H5 C7 1_555 1_555
C8 C7 1_555 1_555
H6 C8 1_555 1_555
C9 C8 1_555 1_555
C10 C5 1_555 1_555
C11 C4 1_555 1_555
C12 N1 1_555 1_555
C13 C6 1_555 1_555
C14 C13 1_555 1_555
H7 C14 1_555 1_555
H8 C14 1_555 1_555
H9 C14 1_555 1_555
C15 C13 1_555 1_555
H10 C15 1_555 1_555
H11 C15 1_555 1_555
H12 C15 1_555 1_555
C16 C13 1_555 1_555
H13 C16 1_555 1_555
H14 C16 1_555 1_555
H15 C16 1_555 1_555
C17 C3 1_555 1_555
C18 C17 1_555 1_555
H16 C18 1_555 1_555
H17 C18 1_555 1_555
H18 C18 1_555 1_555
C19 C17 1_555 1_555
H19 C19 1_555 1_555
H20 C19 1_555 1_555
H21 C19 1_555 1_555
C20 C17 1_555 1_555
H22 C20 1_555 1_555
H23 C20 1_555 1_555
H24 C20 1_555 1_555
C21 N1 1_555 1_555
C22 C21 1_555 1_555
H25 C22 1_555 1_555
C23 C22 1_555 1_555
H26 C23 1_555 1_555
C24 C23 1_555 1_555
C25 C24 1_555 1_555
H27 C25 1_555 1_555
C26 C21 1_555 1_555
H28 C26 1_555 1_555
C27 C24 1_555 1_555
C28 C27 1_555 1_555
C29 C28 1_555 1_555
C30 C29 1_555 1_555
C31 C30 1_555 1_555
C32 C31 1_555 1_555
H29 C32 1_555 1_555
C1 C12 1_555 1_555
C9 C10 1_555 1_555
C10 C11 1_555 1_555
C11 C12 1_555 1_555
C25 C26 1_555 1_555

#END
