
#######################################################################
#
#                 Cambridge Crystallographic Data Centre
#                                CCDC 
#
#######################################################################
#
# If this CIF has been generated from an entry in the Cambridge 
# Structural Database, then it will include bibliographic, chemical, 
# crystal, experimental, refinement or atomic coordinate data resulting 
# from the CCDC's data processing and validation procedures.
#
#######################################################################

data_VOHJUZ
_chemical_formula_moiety         'C15 H23 N3 O5,0.5(C4 H8 O2)'
_chemical_name_systematic        
'4-(((4-((t-butoxycarbonyl)amino)-1-methyl-1H-pyrrol-2-yl)carbonyl)amino)butanoic acid 1,4-dioxane solvate'
_symmetry_cell_setting           monoclinic
_symmetry_space_group_name_H-M   'P 21/n'
_symmetry_Int_Tables_number      14
_space_group_name_Hall           '-P 2yn'
loop_
_symmetry_equiv_pos_site_id
_symmetry_equiv_pos_as_xyz
1 x,y,z
2 1/2-x,1/2+y,1/2-z
3 -x,-y,-z
4 1/2+x,1/2-y,1/2+z
_cell_length_a                   12.2285(9)
_cell_length_b                   8.4147(6)
_cell_length_c                   18.9773(15)
_cell_angle_alpha                90
_cell_angle_beta                 104.836(4)
_cell_angle_gamma                90
_cell_volume                     1887.65
_exptl_crystal_colour            colorless
_exptl_crystal_description       rectangular
_cell_formula_units_Z            4
loop_
_atom_site_label
_atom_site_type_symbol
_atom_site_fract_x
_atom_site_fract_y
_atom_site_fract_z
O1 O 0.12504(8) 0.64659(12) 0.21571(5)
O2 O 0.07681(9) 0.39623(14) -0.11372(6)
H1 H 0.0160 0.3688 -0.1432
O3 O 0.39769(9) 0.35153(13) 0.62657(5)
O4 O 0.22609(9) 0.47506(15) 0.58767(6)
O5 O -0.00028(10) 0.27499(17) -0.03505(6)
N1 N 0.11459(10) 0.55079(15) 0.36059(7)
N2 N 0.24879(10) 0.44469(15) 0.21775(6)
H2 H 0.2874 0.3661 0.2430
N3 N 0.32813(11) 0.39114(17) 0.51014(7)
H3 H 0.3898 0.3395 0.5079
C1 C 0.15133(13) 0.51339(19) 0.43277(8)
H4 H 0.1110 0.5314 0.4687
C2 C 0.25691(13) 0.44510(18) 0.44464(8)
C3 C 0.28484(12) 0.43896(17) 0.37765(8)
H5 H 0.3525 0.3971 0.3691
C4 C 0.19543(12) 0.50535(17) 0.32617(8)
C5 C 0.00069(13) 0.6110(2) 0.32863(9)
H6 H -0.0521 0.5636 0.3538
H7 H -0.0225 0.5830 0.2768
H8 H 0.0002 0.7269 0.3339
C6 C 0.18590(12) 0.53640(17) 0.24903(8)
C7 C 0.25596(13) 0.46999(19) 0.14294(8)
H9 H 0.3320 0.4379 0.1389
H10 H 0.2466 0.5847 0.1313
C8 C 0.16710(12) 0.37692(18) 0.08769(8)
H11 H 0.0909 0.4058 0.0925
H12 H 0.1782 0.2617 0.0976
C9 C 0.17508(13) 0.41220(19) 0.01044(8)
H13 H 0.1812 0.5285 0.0047
H14 H 0.2449 0.3630 0.0031
C10 C 0.07552(13) 0.35188(18) -0.04699(8)
C11 C 0.30920(13) 0.41248(19) 0.57631(8)
C12 C 0.40311(13) 0.35923(19) 0.70432(8)
C13 C 0.51355(13) 0.2745(2) 0.73758(9)
H15 H 0.5090 0.1649 0.7196
H16 H 0.5275 0.2741 0.7908
H17 H 0.5755 0.3299 0.7238
C14 C 0.40932(16) 0.5305(2) 0.72860(10)
H18 H 0.4719 0.5836 0.7145
H19 H 0.4220 0.5351 0.7817
H20 H 0.3381 0.5842 0.7054
C15 C 0.30572(14) 0.2688(3) 0.72031(10)
H21 H 0.2349 0.3255 0.6993
H22 H 0.3170 0.2598 0.7732
H23 H 0.3020 0.1623 0.6989
O6 O 0.48704(11) 0.45080(17) 0.06842(7)
C16 C 0.56924(17) 0.3808(3) 0.03685(11)
H24 H 0.5810 0.2685 0.0524
H25 H 0.6422 0.4374 0.0543
C17 C 0.46776(18) 0.6114(2) 0.04406(11)
H26 H 0.5382 0.6734 0.0616
H27 H 0.4089 0.6593 0.0648
O6B O 0.51296(11) 0.54920(17) -0.06842(7)
C16B C 0.43076(17) 0.6192(3) -0.03685(11)
H24B H 0.4190 0.7315 -0.0524
H25B H 0.3578 0.5626 -0.0543
C17B C 0.53224(18) 0.3886(2) -0.04406(11)
H26B H 0.4618 0.3266 -0.0616
H27B H 0.5911 0.3407 -0.0648
loop_
_geom_bond_atom_site_label_1
_geom_bond_atom_site_label_2
_geom_bond_site_symmetry_1
_geom_bond_site_symmetry_2
O1 C6 1_555 1_555
O2 H1 1_555 1_555
O3 C11 1_555 1_555
O4 C11 1_555 1_555
O5 C10 1_555 1_555
N1 C1 1_555 1_555
N2 H2 1_555 1_555
N3 H3 1_555 1_555
C1 H4 1_555 1_555
C2 N3 1_555 1_555
C3 C2 1_555 1_555
H5 C3 1_555 1_555
C4 N1 1_555 1_555
C5 N1 1_555 1_555
H6 C5 1_555 1_555
H7 C5 1_555 1_555
H8 C5 1_555 1_555
C6 N2 1_555 1_555
C7 N2 1_555 1_555
H9 C7 1_555 1_555
H10 C7 1_555 1_555
C8 C7 1_555 1_555
H11 C8 1_555 1_555
H12 C8 1_555 1_555
C9 C8 1_555 1_555
H13 C9 1_555 1_555
H14 C9 1_555 1_555
C10 O2 1_555 1_555
C11 N3 1_555 1_555
C12 O3 1_555 1_555
C13 C12 1_555 1_555
H15 C13 1_555 1_555
H16 C13 1_555 1_555
H17 C13 1_555 1_555
C14 C12 1_555 1_555
H18 C14 1_555 1_555
H19 C14 1_555 1_555
H20 C14 1_555 1_555
C15 C12 1_555 1_555
H21 C15 1_555 1_555
H22 C15 1_555 1_555
H23 C15 1_555 1_555
O6 C16 1_555 1_555
C16 H24 1_555 1_555
H25 C16 1_555 1_555
C17 O6 1_555 1_555
H26 C17 1_555 1_555
H27 C17 1_555 1_555
O6B C16B 1_555 1_555
C16B C17 1_555 1_555
H24B C16B 1_555 1_555
H25B C16B 1_555 1_555
C17B C16 1_555 1_555
H26B C17B 1_555 1_555
H27B C17B 1_555 1_555
C1 C2 1_555 1_555
C3 C4 1_555 1_555
C4 C6 1_555 1_555
C9 C10 1_555 1_555
O6B C17B 1_555 1_555

#END
