
#######################################################################
#
#                 Cambridge Crystallographic Data Centre
#                                CCDC 
#
#######################################################################
#
# If this CIF has been generated from an entry in the Cambridge 
# Structural Database, then it will include bibliographic, chemical, 
# crystal, experimental, refinement or atomic coordinate data resulting 
# from the CCDC's data processing and validation procedures.
#
#######################################################################

data_VOHJAE
_chemical_name_common            
(4-(3,6-bis(t-butyl)-N-carbazolyl)phenyl)-1,3-butadiyne
_chemical_formula_moiety         'C30 H29 N1'
_chemical_name_systematic        
9-(4-(1,3-Butadiyn-1-yl)phenyl)-3,6-bis(t-butyl)-9H-carbazole
_symmetry_cell_setting           monoclinic
_symmetry_space_group_name_H-M   'P 21/c'
_symmetry_Int_Tables_number      14
_space_group_name_Hall           '-P 2ybc'
loop_
_symmetry_equiv_pos_site_id
_symmetry_equiv_pos_as_xyz
1 x,y,z
2 -x,1/2+y,1/2-z
3 -x,-y,-z
4 x,1/2-y,1/2+z
_cell_length_a                   19.295(2)
_cell_length_b                   5.7668(9)
_cell_length_c                   22.291(3)
_cell_angle_alpha                90
_cell_angle_beta                 107.45(1)
_cell_angle_gamma                90
_cell_volume                     2366.18
_exptl_crystal_colour            brown
_exptl_crystal_description       blade
_cell_formula_units_Z            4
_exptl_crystal_recrystallization_method chloroform/ethanol
loop_
_atom_site_label
_atom_site_type_symbol
_atom_site_fract_x
_atom_site_fract_y
_atom_site_fract_z
N1 N 0.25213(9) 0.8765(3) 0.25533(7)
C1 C 0.34604(11) 0.7561(4) 0.35586(9)
H1 H 0.3297 0.8562 0.3827
C2 C 0.40430(11) 0.6099(4) 0.37968(9)
H2 H 0.4281 0.6125 0.4237
C3 C 0.43060(10) 0.4564(3) 0.34212(9)
C4 C 0.39413(10) 0.4515(3) 0.27801(9)
H3 H 0.4094 0.3470 0.2515
C5 C 0.28167(10) 0.5282(3) 0.13114(9)
H4 H 0.3145 0.4082 0.1287
C6 C 0.22919(11) 0.6012(4) 0.07738(9)
C7 C 0.18150(11) 0.7801(3) 0.08278(9)
H5 H 0.1460 0.8324 0.0458
C8 C 0.18403(11) 0.8829(4) 0.13955(9)
H6 H 0.1513 1.0031 0.1420
C9 C 0.23665(11) 0.8022(3) 0.19281(9)
C10 C 0.28659(10) 0.6310(3) 0.18919(9)
C11 C 0.33549(10) 0.5991(3) 0.25234(9)
C12 C 0.31175(10) 0.7524(3) 0.29125(9)
C13 C 0.21925(11) 0.4908(4) 0.01255(9)
C14 C 0.14453(12) 0.3724(4) -0.00909(10)
H7 H 0.1410 0.2589 0.0226
H8 H 0.1386 0.2935 -0.0493
H9 H 0.1063 0.4894 -0.0144
C15 C 0.27783(12) 0.3105(4) 0.01438(10)
H10 H 0.3257 0.3845 0.0278
H11 H 0.2694 0.2434 -0.0276
H12 H 0.2759 0.1876 0.0442
C16 C 0.22271(13) 0.6777(4) -0.03548(10)
H13 H 0.2711 0.7485 -0.0232
H14 H 0.1861 0.7972 -0.0368
H15 H 0.2131 0.6069 -0.0772
C17 C 0.49808(11) 0.3097(4) 0.37202(10)
C18 C 0.50766(12) 0.1190(4) 0.32763(10)
H16 H 0.5161 0.1894 0.2904
H17 H 0.4637 0.0231 0.3146
H18 H 0.5494 0.0219 0.3493
C19 C 0.49415(13) 0.1939(4) 0.43296(10)
H19 H 0.4514 0.0929 0.4236
H20 H 0.4904 0.3135 0.4631
H21 H 0.5381 0.1014 0.4510
C20 C 0.56468(12) 0.4694(4) 0.38746(13)
H22 H 0.5682 0.5416 0.3487
H23 H 0.6087 0.3785 0.4067
H24 H 0.5597 0.5902 0.4168
C21 C 0.20702(11) 1.0249(3) 0.27876(9)
C22 C 0.13425(11) 0.9727(4) 0.26718(9)
H25 H 0.1145 0.8371 0.2442
C23 C 0.09021(11) 1.1179(4) 0.28876(9)
H26 H 0.0403 1.0808 0.2810
C24 C 0.11850(11) 1.3188(4) 0.32195(9)
C25 C 0.19203(11) 1.3663(4) 0.33427(9)
H27 H 0.2122 1.5007 0.3577
C26 C 0.23609(11) 1.2204(3) 0.31292(9)
H28 H 0.2863 1.2543 0.3217
C27 C 0.07180(11) 1.4749(4) 0.34219(9)
C28 C 0.03314(12) 1.6083(4) 0.35676(10)
C29 C -0.01374(12) 1.7706(4) 0.37078(11)
C30 C -0.05411(14) 1.9070(4) 0.37983(13)
H29 H -0.0870 2.0181 0.3872
loop_
_geom_bond_atom_site_label_1
_geom_bond_atom_site_label_2
_geom_bond_site_symmetry_1
_geom_bond_site_symmetry_2
N1 C9 1_555 1_555
C1 H1 1_555 1_555
C2 C1 1_555 1_555
H2 C2 1_555 1_555
C3 C2 1_555 1_555
C4 C3 1_555 1_555
H3 C4 1_555 1_555
C5 H4 1_555 1_555
C6 C5 1_555 1_555
C7 C6 1_555 1_555
H5 C7 1_555 1_555
C8 C7 1_555 1_555
H6 C8 1_555 1_555
C9 C8 1_555 1_555
C10 C5 1_555 1_555
C11 C4 1_555 1_555
C12 N1 1_555 1_555
C13 C6 1_555 1_555
C14 C13 1_555 1_555
H7 C14 1_555 1_555
H8 C14 1_555 1_555
H9 C14 1_555 1_555
C15 C13 1_555 1_555
H10 C15 1_555 1_555
H11 C15 1_555 1_555
H12 C15 1_555 1_555
C16 C13 1_555 1_555
H13 C16 1_555 1_555
H14 C16 1_555 1_555
H15 C16 1_555 1_555
C17 C3 1_555 1_555
C18 C17 1_555 1_555
H16 C18 1_555 1_555
H17 C18 1_555 1_555
H18 C18 1_555 1_555
C19 C17 1_555 1_555
H19 C19 1_555 1_555
H20 C19 1_555 1_555
H21 C19 1_555 1_555
C20 C17 1_555 1_555
H22 C20 1_555 1_555
H23 C20 1_555 1_555
H24 C20 1_555 1_555
C21 N1 1_555 1_555
C22 C21 1_555 1_555
H25 C22 1_555 1_555
C23 C22 1_555 1_555
H26 C23 1_555 1_555
C24 C23 1_555 1_555
C25 C24 1_555 1_555
H27 C25 1_555 1_555
C26 C21 1_555 1_555
H28 C26 1_555 1_555
C27 C24 1_555 1_555
C28 C27 1_555 1_555
C29 C28 1_555 1_555
C30 C29 1_555 1_555
H29 C30 1_555 1_555
C1 C12 1_555 1_555
C9 C10 1_555 1_555
C10 C11 1_555 1_555
C11 C12 1_555 1_555
C25 C26 1_555 1_555

#END
