
#######################################################################
#
#                 Cambridge Crystallographic Data Centre
#                                CCDC 
#
#######################################################################
#
# If this CIF has been generated from an entry in the Cambridge 
# Structural Database, then it will include bibliographic, chemical, 
# crystal, experimental, refinement or atomic coordinate data resulting 
# from the CCDC's data processing and validation procedures.
#
#######################################################################

data_VOHKUA
_chemical_formula_moiety         'C12 H12 N2 O2 S1,C7 H5 N1 O1 S1'
_chemical_name_systematic        
"1,3-benzothiazol-2(3H)-one 4,4'-sulfonyldianiline"
_symmetry_cell_setting           monoclinic
_symmetry_space_group_name_H-M   'P 21/n'
_symmetry_Int_Tables_number      14
_space_group_name_Hall           '-P 2yn'
loop_
_symmetry_equiv_pos_site_id
_symmetry_equiv_pos_as_xyz
1 x,y,z
2 1/2-x,1/2+y,1/2-z
3 -x,-y,-z
4 1/2+x,1/2-y,1/2+z
_cell_length_a                   5.8452(4)
_cell_length_b                   14.3835(9)
_cell_length_c                   21.7712(13)
_cell_angle_alpha                90
_cell_angle_beta                 92.205(3)
_cell_angle_gamma                90
_cell_volume                     1829.05
_cell_formula_units_Z            4
loop_
_atom_site_label
_atom_site_type_symbol
_atom_site_fract_x
_atom_site_fract_y
_atom_site_fract_z
S1 S -0.1373(7) 0.5579(2) 0.15296(17)
O1 O -0.383(2) 0.5464(8) 0.1516(6)
O2 O 0.004(2) 0.4785(8) 0.1681(5)
N1 N 0.128(4) 0.7145(12) -0.0846(8)
H1 H 0.28(5) 0.702(17) -0.103(13)
H2 H 0.08(6) 0.76(2) -0.093(14)
N2 N 0.082(3) 0.8471(11) 0.3400(7)
H3 H 0.24(4) 0.852(15) 0.351(11)
H4 H 0.01(4) 0.896(18) 0.336(10)
C1 C 0.064(3) 0.6750(11) -0.0307(7)
C2 C 0.204(3) 0.6117(12) -0.0002(7)
H5 H 0.3402 0.5934 -0.0176
C3 C 0.146(3) 0.5747(11) 0.0563(7)
H6 H 0.2436 0.5335 0.0772
C4 C -0.061(3) 0.6001(10) 0.0809(6)
C5 C -0.070(2) 0.6456(9) 0.2066(6)
C6 C -0.229(3) 0.7148(10) 0.2186(7)
H7 H -0.3702 0.7156 0.1972
C7 C -0.179(3) 0.7823(10) 0.2621(7)
H8 H -0.2854 0.8284 0.2698
C8 C 0.033(3) 0.7817(10) 0.2950(7)
C9 C -0.144(3) 0.6981(11) -0.0058(8)
H9 H -0.2429 0.7389 -0.0269
C10 C -0.207(3) 0.6613(11) 0.0498(7)
H10 H -0.3462 0.6775 0.0661
C11 C 0.142(2) 0.6453(11) 0.2382(7)
H11 H 0.2501 0.6001 0.2296
C12 C 0.192(3) 0.7117(10) 0.2819(7)
H12 H 0.3333 0.7105 0.3032
S2 S 0.7838(9) 1.0433(3) 0.1579(2)
O3 O 1.064(2) 1.0781(9) 0.0675(6)
N3 N 0.776(2) 0.9710(9) 0.0501(6)
H13 H 0.8087 0.9573 0.0130
C13 C 0.267(3) 0.8335(12) 0.0896(9)
H14 H 0.1634 0.7902 0.0733
C14 C 0.439(3) 0.8663(11) 0.0534(8)
H15 H 0.4515 0.8460 0.0131
C15 C 0.593(3) 0.9301(10) 0.0788(7)
C16 C 0.900(3) 1.0335(11) 0.0841(8)
C17 C 0.572(3) 0.9613(11) 0.1390(7)
C18 C 0.247(3) 0.8636(12) 0.1493(8)
H16 H 0.1300 0.8405 0.1726
C19 C 0.398(3) 0.9275(12) 0.1748(8)
H17 H 0.3845 0.9477 0.2151
loop_
_geom_bond_atom_site_label_1
_geom_bond_atom_site_label_2
_geom_bond_site_symmetry_1
_geom_bond_site_symmetry_2
S1 O1 1_555 1_555
O2 S1 1_555 1_555
N1 H1 1_555 1_555
H2 N1 1_555 1_555
N2 H3 1_555 1_555
H4 N2 1_555 1_555
C1 N1 1_555 1_555
C2 C1 1_555 1_555
H5 C2 1_555 1_555
C3 C2 1_555 1_555
H6 C3 1_555 1_555
C4 S1 1_555 1_555
C5 S1 1_555 1_555
C6 C5 1_555 1_555
H7 C6 1_555 1_555
C7 C6 1_555 1_555
H8 C7 1_555 1_555
C8 N2 1_555 1_555
C9 C1 1_555 1_555
H9 C9 1_555 1_555
C10 C4 1_555 1_555
H10 C10 1_555 1_555
C11 C5 1_555 1_555
H11 C11 1_555 1_555
C12 C8 1_555 1_555
H12 C12 1_555 1_555
S2 C16 1_555 1_555
O3 C16 1_555 1_555
N3 H13 1_555 1_555
C13 H14 1_555 1_555
C14 C13 1_555 1_555
H15 C14 1_555 1_555
C15 N3 1_555 1_555
C16 N3 1_555 1_555
C17 S2 1_555 1_555
C18 C13 1_555 1_555
H16 C18 1_555 1_555
C19 C17 1_555 1_555
H17 C19 1_555 1_555
C3 C4 1_555 1_555
C7 C8 1_555 1_555
C9 C10 1_555 1_555
C11 C12 1_555 1_555
C14 C15 1_555 1_555
C15 C17 1_555 1_555
C18 C19 1_555 1_555

#END
