
#######################################################################
#
#                 Cambridge Crystallographic Data Centre
#                                CCDC 
#
#######################################################################
#
# If this CIF has been generated from an entry in the Cambridge 
# Structural Database, then it will include bibliographic, chemical, 
# crystal, experimental, refinement or atomic coordinate data resulting 
# from the CCDC's data processing and validation procedures.
#
#######################################################################

data_VOHKOU
_chemical_name_common            'caffeine dapsone'
_chemical_formula_moiety         'C12 H12 N2 O2 S1,C8 H10 N4 O2'
_chemical_name_systematic        
"1,3,7-trimethyl-3,7-dihydro-1H-purine-2,6-dione 4,4'-sulfonyldianiline"
_symmetry_cell_setting           orthorhombic
_symmetry_space_group_name_H-M   'P b c a'
_symmetry_Int_Tables_number      61
_space_group_name_Hall           '-P 2ac 2ab'
loop_
_symmetry_equiv_pos_site_id
_symmetry_equiv_pos_as_xyz
1 x,y,z
2 1/2+x,1/2-y,-z
3 -x,1/2+y,1/2-z
4 1/2-x,-y,1/2+z
5 -x,-y,-z
6 1/2-x,1/2+y,z
7 x,1/2-y,1/2+z
8 1/2+x,y,1/2-z
_cell_length_a                   8.5613(6)
_cell_length_b                   15.6676(9)
_cell_length_c                   32.2872(19)
_cell_angle_alpha                90
_cell_angle_beta                 90
_cell_angle_gamma                90
_cell_volume                     4330.84
_cell_formula_units_Z            8
loop_
_atom_site_label
_atom_site_type_symbol
_atom_site_fract_x
_atom_site_fract_y
_atom_site_fract_z
S1 S 1.09304(7) 0.28535(4) 0.16954(2)
O1 O 1.2171(2) 0.29725(12) 0.14015(6)
O2 O 1.0798(2) 0.34642(13) 0.20305(7)
C1 C 0.9069(3) 0.24482(15) 0.10435(7)
H1 H 0.9978 0.2270 0.0911
C2 C 0.9151(3) 0.28261(14) 0.14343(7)
C3 C 1.1137(2) 0.18368(16) 0.19120(6)
N1 N 0.4853(3) 0.24673(16) 0.08680(7)
H2 H 0.4013 0.2630 0.0991
H3 H 0.4799 0.2222 0.0630
C4 C 0.6262(3) 0.25980(15) 0.10488(7)
C5 C 0.7656(3) 0.23411(15) 0.08556(7)
H4 H 0.7614 0.2093 0.0594
C6 C 1.2041(2) 0.12178(15) 0.17160(6)
H5 H 1.2621 0.1362 0.1483
C7 C 1.2086(3) 0.03962(16) 0.18640(7)
H6 H 1.2702 -0.0009 0.1731
C8 C 1.1214(3) 0.01645(19) 0.22125(8)
N2 N 1.1243(4) -0.0650(2) 0.23555(10)
H7 H 1.0699 -0.0788 0.2569
H8 H 1.1804 -0.1028 0.2232
C9 C 0.6373(3) 0.29958(16) 0.14360(7)
H9 H 0.5471 0.3197 0.1564
C10 C 0.7777(3) 0.30939(16) 0.16287(7)
H10 H 0.7822 0.3340 0.1891
C11 C 1.0270(3) 0.1609(2) 0.22615(8)
H11 H 0.9661 0.2015 0.2396
C12 C 1.0314(3) 0.0793(2) 0.24055(8)
H12 H 0.9730 0.0650 0.2638
O3 O 0.0093(3) 0.84813(15) 0.51053(6)
O4 O -0.0905(3) 1.00096(15) 0.39358(8)
N3 N 0.2174(2) 0.90868(13) 0.47882(6)
N4 N -0.0374(2) 0.92517(13) 0.45274(6)
C13 C 0.4113(5) 1.0097(2) 0.39945(14)
H13 H 0.4979 1.0297 0.3850
C14 C 0.3264(4) 0.8737(2) 0.50949(10)
H14 H 0.2847 0.8819 0.5368
H15 H 0.4250 0.9025 0.5073
H16 H 0.3409 0.8138 0.5045
C15 C 0.2724(3) 0.95209(15) 0.44470(8)
C16 C 0.1722(3) 0.98101(14) 0.41517(7)
N5 N 0.2618(4) 1.01871(14) 0.38507(7)
C17 C 0.2150(7) 1.0554(3) 0.34587(10)
H17 H 0.1827 1.0108 0.3274
H18 H 0.3015 1.0857 0.3339
H19 H 0.1297 1.0942 0.3503
C18 C 0.0613(3) 0.89118(16) 0.48230(7)
C19 C 0.0077(3) 0.97258(15) 0.41781(7)
N6 N 0.4228(3) 0.96900(18) 0.43671(10)
C20 C -0.2049(3) 0.9047(2) 0.45794(10)
H20 H -0.2208 0.8447 0.4536
H21 H -0.2652 0.9364 0.4382
H22 H -0.2374 0.9196 0.4854
loop_
_geom_bond_atom_site_label_1
_geom_bond_atom_site_label_2
_geom_bond_site_symmetry_1
_geom_bond_site_symmetry_2
S1 O1 1_555 1_555
O2 S1 1_555 1_555
C1 H1 1_555 1_555
C2 S1 1_555 1_555
C3 S1 1_555 1_555
N1 H2 1_555 1_555
H3 N1 1_555 1_555
C4 N1 1_555 1_555
C5 C1 1_555 1_555
H4 C5 1_555 1_555
C6 C3 1_555 1_555
H5 C6 1_555 1_555
C7 C6 1_555 1_555
H6 C7 1_555 1_555
C8 C7 1_555 1_555
N2 C8 1_555 1_555
H7 N2 1_555 1_555
H8 N2 1_555 1_555
C9 C4 1_555 1_555
H9 C9 1_555 1_555
C10 C2 1_555 1_555
H10 C10 1_555 1_555
C11 C3 1_555 1_555
H11 C11 1_555 1_555
C12 C8 1_555 1_555
H12 C12 1_555 1_555
O3 C18 1_555 1_555
O4 C19 1_555 1_555
N3 C14 1_555 1_555
N4 C18 1_555 1_555
C13 H13 1_555 1_555
C14 H14 1_555 1_555
H15 C14 1_555 1_555
H16 C14 1_555 1_555
C15 N3 1_555 1_555
C16 C15 1_555 1_555
N5 C13 1_555 1_555
C17 N5 1_555 1_555
H17 C17 1_555 1_555
H18 C17 1_555 1_555
H19 C17 1_555 1_555
C18 N3 1_555 1_555
C19 N4 1_555 1_555
N6 C13 1_555 1_555
C20 N4 1_555 1_555
H20 C20 1_555 1_555
H21 C20 1_555 1_555
H22 C20 1_555 1_555
C1 C2 1_555 1_555
C4 C5 1_555 1_555
C9 C10 1_555 1_555
C11 C12 1_555 1_555
C15 N6 1_555 1_555
C16 N5 1_555 1_555
C16 C19 1_555 1_555

#END
