
#######################################################################
#
#                 Cambridge Crystallographic Data Centre
#                                CCDC 
#
#######################################################################
#
# If this CIF has been generated from an entry in the Cambridge 
# Structural Database, then it will include bibliographic, chemical, 
# crystal, experimental, refinement or atomic coordinate data resulting 
# from the CCDC's data processing and validation procedures.
#
#######################################################################

data_VOHKEK
_chemical_name_common            'Flavone dapsone'
_chemical_formula_moiety         'C12 H12 N2 O2 S1,C15 H10 O2'
_chemical_name_systematic        
"2-phenyl-4H-chromen-4-one 4,4'-sulfonyldianiline"
_symmetry_cell_setting           monoclinic
_symmetry_space_group_name_H-M   'P 21/n'
_symmetry_Int_Tables_number      14
_space_group_name_Hall           '-P 2yn'
loop_
_symmetry_equiv_pos_site_id
_symmetry_equiv_pos_as_xyz
1 x,y,z
2 1/2-x,1/2+y,1/2-z
3 -x,-y,-z
4 1/2+x,1/2-y,1/2+z
_cell_length_a                   11.408(2)
_cell_length_b                   11.644(3)
_cell_length_c                   18.448(4)
_cell_angle_alpha                90
_cell_angle_beta                 101.324(14)
_cell_angle_gamma                90
_cell_volume                     2402.83
_cell_formula_units_Z            4
loop_
_atom_site_label
_atom_site_type_symbol
_atom_site_fract_x
_atom_site_fract_y
_atom_site_fract_z
S1 S 0.47558(5) 0.83579(5) 0.14896(4)
O1 O 0.42562(15) 0.90667(15) 0.08681(12)
O2 O 0.50644(17) 0.88762(16) 0.22071(12)
N1 N 0.8929(2) 0.5918(2) 0.07818(16)
H1 H 0.922(3) 0.619(3) 0.0397(18)
H2 H 0.941(3) 0.568(3) 0.116(2)
C1 C 0.79750(19) 0.6519(2) 0.09617(14)
C2 C 0.7738(2) 0.6482(2) 0.16640(14)
H3 H 0.8238 0.6069 0.2032
C3 C 0.6766(2) 0.7055(2) 0.18256(14)
H4 H 0.6611 0.7020 0.2301
C4 C 0.60215(17) 0.76776(19) 0.12907(13)
C5 C 0.37510(18) 0.72407(19) 0.15508(13)
C6 C 0.3460(2) 0.6947(2) 0.22162(14)
H5 H 0.3820 0.7329 0.2645
C7 C 0.2644(2) 0.6095(2) 0.22521(14)
H6 H 0.2452 0.5908 0.2705
C8 C 0.21053(18) 0.55116(19) 0.16239(14)
N2 N 0.12620(19) 0.46815(19) 0.16556(13)
H7 H 0.1064 0.4520 0.2070
H8 H 0.0932 0.4323 0.1261
C9 C 0.7221(2) 0.7129(2) 0.04253(14)
H9 H 0.7367 0.7152 -0.0053
C10 C 0.62538(19) 0.7705(2) 0.05902(14)
H10 H 0.5752 0.8116 0.0222
C11 C 0.3228(2) 0.6653(2) 0.09266(13)
H11 H 0.3427 0.6838 0.0476
C12 C 0.2418(2) 0.5798(2) 0.09577(13)
H12 H 0.2074 0.5406 0.0529
O3 O 0.69383(13) 0.59223(12) 0.37340(9)
O4 O 0.44865(17) 0.79214(18) 0.44652(12)
C13 C 1.0286(2) 0.6936(3) 0.35409(16)
H13 H 1.0863 0.6386 0.3505
C14 C 0.3808(3) 0.4404(3) 0.40239(18)
H14 H 0.3114 0.4038 0.4093
C15 C 0.4660(3) 0.3798(3) 0.37443(19)
H15 H 0.4523 0.3029 0.3618
C16 C 0.5703(3) 0.4303(2) 0.36487(17)
H16 H 0.6275 0.3888 0.3463
C17 C 0.5881(2) 0.5451(2) 0.38370(13)
C18 C 0.71604(19) 0.70500(19) 0.38887(12)
C19 C 0.8331(2) 0.73996(19) 0.37442(13)
C20 C 0.9205(2) 0.6602(2) 0.36939(14)
H17 H 0.9061 0.5828 0.3764
C21 C 1.0517(3) 0.8069(3) 0.34412(17)
H18 H 1.1248 0.8295 0.3337
C22 C 0.6368(2) 0.7715(2) 0.41371(13)
H19 H 0.6557 0.8483 0.4237
C23 C 0.5240(2) 0.7293(2) 0.42553(14)
C24 C 0.5030(2) 0.6085(2) 0.41009(13)
C25 C 0.3979(2) 0.5528(3) 0.41975(14)
H20 H 0.3399 0.5933 0.4382
C26 C 0.8576(3) 0.8543(2) 0.36440(18)
H21 H 0.8004 0.9099 0.3677
C27 C 0.9665(3) 0.8863(3) 0.3496(2)
H22 H 0.9822 0.9636 0.3432
loop_
_geom_bond_atom_site_label_1
_geom_bond_atom_site_label_2
_geom_bond_site_symmetry_1
_geom_bond_site_symmetry_2
S1 O1 1_555 1_555
O2 S1 1_555 1_555
N1 H1 1_555 1_555
H2 N1 1_555 1_555
C1 N1 1_555 1_555
C2 C1 1_555 1_555
H3 C2 1_555 1_555
C3 C2 1_555 1_555
H4 C3 1_555 1_555
C4 S1 1_555 1_555
C5 S1 1_555 1_555
C6 C5 1_555 1_555
H5 C6 1_555 1_555
C7 C6 1_555 1_555
H6 C7 1_555 1_555
C8 C7 1_555 1_555
N2 C8 1_555 1_555
H7 N2 1_555 1_555
H8 N2 1_555 1_555
C9 C1 1_555 1_555
H9 C9 1_555 1_555
C10 C4 1_555 1_555
H10 C10 1_555 1_555
C11 C5 1_555 1_555
H11 C11 1_555 1_555
C12 C8 1_555 1_555
H12 C12 1_555 1_555
O3 C17 1_555 1_555
O4 C23 1_555 1_555
C13 H13 1_555 1_555
C14 H14 1_555 1_555
C15 C14 1_555 1_555
H15 C15 1_555 1_555
C16 C15 1_555 1_555
H16 C16 1_555 1_555
C17 C16 1_555 1_555
C18 O3 1_555 1_555
C19 C18 1_555 1_555
C20 C13 1_555 1_555
H17 C20 1_555 1_555
C21 C13 1_555 1_555
H18 C21 1_555 1_555
C22 C18 1_555 1_555
H19 C22 1_555 1_555
C23 C22 1_555 1_555
C24 C17 1_555 1_555
C25 C14 1_555 1_555
H20 C25 1_555 1_555
C26 C19 1_555 1_555
H21 C26 1_555 1_555
C27 C21 1_555 1_555
H22 C27 1_555 1_555
C3 C4 1_555 1_555
C9 C10 1_555 1_555
C11 C12 1_555 1_555
C19 C20 1_555 1_555
C23 C24 1_555 1_555
C24 C25 1_555 1_555
C26 C27 1_555 1_555

#END
