
#######################################################################
#
#                 Cambridge Crystallographic Data Centre
#                                CCDC 
#
#######################################################################
#
# If this CIF has been generated from an entry in the Cambridge 
# Structural Database, then it will include bibliographic, chemical, 
# crystal, experimental, refinement or atomic coordinate data resulting 
# from the CCDC's data processing and validation procedures.
#
#######################################################################

data_VOHKEK01
_chemical_name_common            'Flavone dapsone'
_chemical_formula_moiety         'C15 H10 O2,C12 H12 N2 O2 S1'
_chemical_name_systematic        
"2-Phenyl-4H-chromen-4-one 4,4'-sulfonyldianiline"
_symmetry_cell_setting           orthorhombic
_symmetry_space_group_name_H-M   'F d d 2'
_symmetry_Int_Tables_number      43
_space_group_name_Hall           'F 2 -2d'
loop_
_symmetry_equiv_pos_site_id
_symmetry_equiv_pos_as_xyz
1 x,y,z
2 -x,-y,z
3 1/4-x,1/4+y,1/4+z
4 1/4+x,1/4-y,1/4+z
5 x,1/2+y,1/2+z
6 -x,1/2-y,1/2+z
7 1/4-x,3/4+y,3/4+z
8 1/4+x,3/4-y,3/4+z
9 1/2+x,y,1/2+z
10 1/2-x,-y,1/2+z
11 3/4-x,1/4+y,3/4+z
12 3/4+x,1/4-y,3/4+z
13 1/2+x,1/2+y,z
14 1/2-x,1/2-y,z
15 3/4-x,3/4+y,1/4+z
16 3/4+x,3/4-y,1/4+z
_cell_length_a                   22.310(2)
_cell_length_b                   71.299(7)
_cell_length_c                   5.8080(7)
_cell_angle_alpha                90
_cell_angle_beta                 90
_cell_angle_gamma                90
_cell_volume                     9238.67
_exptl_crystal_colour            colorless
_exptl_crystal_description       prism
_cell_formula_units_Z            16
loop_
_atom_site_label
_atom_site_type_symbol
_atom_site_fract_x
_atom_site_fract_y
_atom_site_fract_z
S1 S 0.26899(7) 0.91787(2) 0.8068(3)
O1 O 0.2184(2) 0.92053(6) 0.9558(9)
O2 O 0.2593(2) 0.91662(6) 0.5607(8)
N1 N 0.4397(2) 0.98024(7) 0.9501(13)
H1 H 0.4657 0.9828 0.8458
H2 H 0.4394 0.9865 1.0770
N2 N 0.3917(3) 0.84817(7) 1.0980(12)
H3 H 0.3833 0.8434 1.2303
H4 H 0.4171 0.8427 1.0093
C1 C 0.3644(3) 0.86460(9) 1.0279(14)
C2 C 0.3756(3) 0.87246(9) 0.8108(13)
H5 H 0.4024 0.8667 0.7101
C3 C 0.3463(3) 0.88883(9) 0.7474(11)
H6 H 0.3539 0.8941 0.6040
C4 C 0.3057(3) 0.89748(8) 0.8955(10)
C5 C 0.3178(3) 0.93660(7) 0.8506(9)
C6 C 0.3173(3) 0.94675(8) 1.0528(11)
H7 H 0.2899 0.9436 1.1671
C7 C 0.3567(3) 0.96149(9) 1.0894(11)
H8 H 0.3559 0.9682 1.2268
C8 C 0.3983(3) 0.96618(8) 0.9141(12)
C9 C 0.3986(3) 0.95618(8) 0.7113(12)
H9 H 0.4258 0.9593 0.5963
C10 C 0.3593(3) 0.94158(9) 0.6764(11)
H10 H 0.3599 0.9350 0.5382
C11 C 0.2960(3) 0.88973(9) 1.1041(10)
H11 H 0.2699 0.8955 1.2065
C12 C 0.3244(3) 0.87322(9) 1.1683(11)
H12 H 0.3159 0.8680 1.3110
O3 O 0.10002(18) 0.94711(5) 0.1352(7)
O4 O 0.0866(3) 1.00059(7) -0.1072(11)
C13 C 0.2039(3) 0.98765(10) 0.4402(19)
H13 H 0.2287 0.9966 0.5071
C14 C 0.1681(3) 0.99272(10) 0.2603(12)
H14 H 0.1682 1.0050 0.2059
C15 C 0.1318(2) 0.97934(8) 0.1601(11)
C16 C 0.1339(3) 0.96112(9) 0.2333(11)
C17 C 0.0631(3) 0.95121(8) -0.0391(11)
C18 C 0.0290(2) 0.93465(8) -0.1173(10)
C19 C -0.0009(3) 0.93514(10) -0.3272(13)
H15 H 0.0020 0.9457 -0.4211
C20 C -0.0352(3) 0.91986(11) -0.3966(14)
H16 H -0.0548 0.9200 -0.5378
C21 C -0.0396(3) 0.90427(10) -0.2508(15)
H17 H -0.0634 0.8941 -0.2925
C22 C 0.2043(3) 0.96899(11) 0.5283(17)
H18 H 0.2268 0.9659 0.6577
C23 C 0.1699(3) 0.95554(10) 0.4147(14)
H19 H 0.1712 0.9430 0.4600
C24 C -0.0097(3) 0.90408(9) -0.0515(14)
H20 H -0.0120 0.8936 0.0433
C25 C 0.0247(3) 0.91915(8) 0.0156(12)
H21 H 0.0453 0.9187 0.1547
C26 C 0.0579(3) 0.96905(9) -0.1270(12)
H22 H 0.0329 0.9714 -0.2519
C27 C 0.0917(3) 0.98412(9) -0.0233(15)
loop_
_geom_bond_atom_site_label_1
_geom_bond_atom_site_label_2
_geom_bond_site_symmetry_1
_geom_bond_site_symmetry_2
S1 O1 1_555 1_555
O2 S1 1_555 1_555
N1 H1 1_555 1_555
H2 N1 1_555 1_555
N2 H3 1_555 1_555
H4 N2 1_555 1_555
C1 N2 1_555 1_555
C2 C1 1_555 1_555
H5 C2 1_555 1_555
C3 C2 1_555 1_555
H6 C3 1_555 1_555
C4 S1 1_555 1_555
C5 S1 1_555 1_555
C6 C5 1_555 1_555
H7 C6 1_555 1_555
C7 C6 1_555 1_555
H8 C7 1_555 1_555
C8 N1 1_555 1_555
C9 C8 1_555 1_555
H9 C9 1_555 1_555
C10 C5 1_555 1_555
H10 C10 1_555 1_555
C11 C4 1_555 1_555
H11 C11 1_555 1_555
C12 C1 1_555 1_555
H12 C12 1_555 1_555
O3 C16 1_555 1_555
O4 C27 1_555 1_555
C13 H13 1_555 1_555
C14 C13 1_555 1_555
H14 C14 1_555 1_555
C15 C14 1_555 1_555
C16 C15 1_555 1_555
C17 O3 1_555 1_555
C18 C17 1_555 1_555
C19 C18 1_555 1_555
H15 C19 1_555 1_555
C20 C19 1_555 1_555
H16 C20 1_555 1_555
C21 C20 1_555 1_555
H17 C21 1_555 1_555
C22 C13 1_555 1_555
H18 C22 1_555 1_555
C23 C16 1_555 1_555
H19 C23 1_555 1_555
C24 C21 1_555 1_555
H20 C24 1_555 1_555
C25 C18 1_555 1_555
H21 C25 1_555 1_555
C26 C17 1_555 1_555
H22 C26 1_555 1_555
C27 C15 1_555 1_555
C3 C4 1_555 1_555
C7 C8 1_555 1_555
C9 C10 1_555 1_555
C11 C12 1_555 1_555
C22 C23 1_555 1_555
C24 C25 1_555 1_555
C26 C27 1_555 1_555

#END
