
#######################################################################
#
#                 Cambridge Crystallographic Data Centre
#                                CCDC 
#
#######################################################################
#
# If this CIF has been generated from an entry in the Cambridge 
# Structural Database, then it will include bibliographic, chemical, 
# crystal, experimental, refinement or atomic coordinate data resulting 
# from the CCDC's data processing and validation procedures.
#
#######################################################################

data_VOHKAG
_chemical_formula_moiety         'C12 H12 N2 O2 S1,2(C6 H8 N2 O2 S1)'
_chemical_name_systematic        
"bis(4-aminobenzenesulfonamide) 4,4'-sulfonyldianiline"
_symmetry_cell_setting           monoclinic
_symmetry_space_group_name_H-M   'C 2/c'
_symmetry_Int_Tables_number      15
_space_group_name_Hall           '-C 2yn'
loop_
_symmetry_equiv_pos_site_id
_symmetry_equiv_pos_as_xyz
1 x,y,z
2 -x,y,1/2-z
3 1/2+x,1/2+y,z
4 1/2-x,1/2+y,1/2-z
5 -x,-y,-z
6 x,-y,1/2+z
7 1/2-x,1/2-y,-z
8 1/2+x,1/2-y,1/2+z
_cell_length_a                   13.2304(2)
_cell_length_b                   30.2578(5)
_cell_length_c                   13.6910(3)
_cell_angle_alpha                90
_cell_angle_beta                 102.4480(10)
_cell_angle_gamma                90
_cell_volume                     5351.98
_cell_formula_units_Z            8
loop_
_atom_site_label
_atom_site_type_symbol
_atom_site_fract_x
_atom_site_fract_y
_atom_site_fract_z
S1 S 0.92044(9) 0.24450(4) 0.58890(9)
O1 O 0.8741(3) 0.25563(13) 0.4874(3)
O2 O 1.0157(3) 0.26580(12) 0.6346(3)
N1 N 0.8374(4) 0.25767(17) 0.6533(4)
H1 H 0.772(6) 0.250(2) 0.628(5)
H2 H 0.854(6) 0.252(2) 0.708(5)
C1 C 0.9432(3) 0.18745(16) 0.5954(3)
C2 C 1.0401(4) 0.17053(17) 0.6390(4)
H3 H 1.0937 0.1897 0.6666
C3 C 1.0571(4) 0.12582(18) 0.6416(4)
H4 H 1.1221 0.1149 0.6715
C4 C 0.9784(4) 0.09671(19) 0.6003(4)
N2 N 0.9941(5) 0.05171(18) 0.6007(5)
H5 H 1.0539 0.0410 0.6271
H6 H 0.9440 0.0344 0.5746
C5 C 0.8639(4) 0.15859(19) 0.5553(5)
H7 H 0.7986 0.1695 0.5263
C6 C 0.8814(5) 0.1142(2) 0.5583(5)
H8 H 0.8274 0.0951 0.5316
S2 S 0.72898(10) 1.00211(4) 0.40830(9)
O3 O 0.7375(3) 0.98532(13) 0.5088(3)
O4 O 0.8213(3) 1.02152(12) 0.3864(3)
N3 N 0.4095(4) 1.13941(16) 0.3807(4)
H9 H 0.3487 1.1320 0.3878
H10 H 0.4239 1.1667 0.3731
C7 C 0.4827(4) 1.10786(16) 0.3812(4)
C8 C 0.5817(4) 1.11845(16) 0.3687(4)
H11 H 0.5984 1.1477 0.3586
C9 C 0.6551(4) 1.08591(16) 0.3713(3)
H12 H 0.7207 1.0933 0.3622
C10 C 0.6316(4) 1.04239(15) 0.3873(3)
C11 C 0.6892(4) 0.95836(15) 0.3262(4)
C12 C 0.6889(4) 0.96340(16) 0.2254(4)
H13 H 0.7075 0.9903 0.2017
C13 C 0.6609(4) 0.92853(17) 0.1604(4)
H14 H 0.6594 0.9323 0.0927
C14 C 0.6350(4) 0.88769(16) 0.1949(4)
N4 N 0.6096(4) 0.85330(15) 0.1312(4)
H15 H 0.6093 0.8566 0.0688
H16 H 0.5936 0.8282 0.1532
C15 C 0.4585(4) 1.06430(17) 0.3933(4)
H17 H 0.3919 1.0568 0.3991
C16 C 0.5322(4) 1.03134(17) 0.3970(4)
H18 H 0.5153 1.0020 0.4060
C17 C 0.6601(4) 0.91837(16) 0.3606(4)
H19 H 0.6578 0.9152 0.4276
C18 C 0.6344(4) 0.88317(17) 0.2961(4)
H20 H 0.6166 0.8562 0.3204
S3 S 0.83874(9) 0.24690(4) 0.16284(9)
O5 O 0.8785(3) 0.26430(12) 0.2608(3)
O6 O 0.7340(3) 0.25709(13) 0.1163(3)
N5 N 0.9081(3) 0.26600(16) 0.0902(3)
H21 H 0.888(5) 0.260(2) 0.029(2)
H22 H 0.972(2) 0.259(2) 0.112(4)
N6 N 0.8773(4) 0.05315(15) 0.1883(4)
H23 H 0.8908 0.0401 0.2455
H24 H 0.8696 0.0379 0.1343
C19 C 0.8530(3) 0.18964(16) 0.1712(3)
C20 C 0.8411(4) 0.16423(16) 0.0847(4)
H25 H 0.8277 0.1780 0.0225
C21 C 0.8491(4) 0.11938(17) 0.0904(4)
H26 H 0.8418 0.1029 0.0320
C22 C 0.8682(4) 0.09776(17) 0.1835(4)
C23 C 0.8802(4) 0.12348(17) 0.2702(4)
H27 H 0.8933 0.1098 0.3325
C24 C 0.8730(4) 0.16871(17) 0.2640(3)
H28 H 0.8815 0.1855 0.3222
loop_
_geom_bond_atom_site_label_1
_geom_bond_atom_site_label_2
_geom_bond_site_symmetry_1
_geom_bond_site_symmetry_2
S1 O1 1_555 1_555
O2 S1 1_555 1_555
N1 S1 1_555 1_555
H1 N1 1_555 1_555
H2 N1 1_555 1_555
C1 S1 1_555 1_555
C2 C1 1_555 1_555
H3 C2 1_555 1_555
C3 C2 1_555 1_555
H4 C3 1_555 1_555
C4 C3 1_555 1_555
N2 C4 1_555 1_555
H5 N2 1_555 1_555
H6 N2 1_555 1_555
C5 C1 1_555 1_555
H7 C5 1_555 1_555
C6 C4 1_555 1_555
H8 C6 1_555 1_555
S2 O3 1_555 1_555
O4 S2 1_555 1_555
N3 H9 1_555 1_555
H10 N3 1_555 1_555
C7 N3 1_555 1_555
C8 C7 1_555 1_555
H11 C8 1_555 1_555
C9 C8 1_555 1_555
H12 C9 1_555 1_555
C10 S2 1_555 1_555
C11 S2 1_555 1_555
C12 C11 1_555 1_555
H13 C12 1_555 1_555
C13 C12 1_555 1_555
H14 C13 1_555 1_555
C14 C13 1_555 1_555
N4 C14 1_555 1_555
H15 N4 1_555 1_555
H16 N4 1_555 1_555
C15 C7 1_555 1_555
H17 C15 1_555 1_555
C16 C10 1_555 1_555
H18 C16 1_555 1_555
C17 C11 1_555 1_555
H19 C17 1_555 1_555
C18 C14 1_555 1_555
H20 C18 1_555 1_555
S3 O5 1_555 1_555
O6 S3 1_555 1_555
N5 S3 1_555 1_555
H21 N5 1_555 1_555
H22 N5 1_555 1_555
N6 H23 1_555 1_555
H24 N6 1_555 1_555
C19 S3 1_555 1_555
C20 C19 1_555 1_555
H25 C20 1_555 1_555
C21 C20 1_555 1_555
H26 C21 1_555 1_555
C22 N6 1_555 1_555
C23 C22 1_555 1_555
H27 C23 1_555 1_555
C24 C19 1_555 1_555
H28 C24 1_555 1_555
C5 C6 1_555 1_555
C9 C10 1_555 1_555
C15 C16 1_555 1_555
C17 C18 1_555 1_555
C21 C22 1_555 1_555
C23 C24 1_555 1_555

#END
