
#######################################################################
#
#                 Cambridge Crystallographic Data Centre
#                                CCDC 
#
#######################################################################
#
# If this CIF has been generated from an entry in the Cambridge 
# Structural Database, then it will include bibliographic, chemical, 
# crystal, experimental, refinement or atomic coordinate data resulting 
# from the CCDC's data processing and validation procedures.
#
#######################################################################

data_VOHNAH
_chemical_formula_moiety         'C10 H12 O4'
_chemical_name_systematic        
5-(Acetyloxy)-3,3a,4,5,6,6a-hexahydro-(3\b,3a\a,5\a,6\b,6a\a)-3,6-methano-2H-cyclopenta(b)furan-2-one
_symmetry_cell_setting           monoclinic
_symmetry_space_group_name_H-M   'P 21/c'
_symmetry_Int_Tables_number      14
_space_group_name_Hall           '-P 2ybc'
loop_
_symmetry_equiv_pos_site_id
_symmetry_equiv_pos_as_xyz
1 x,y,z
2 -x,1/2+y,1/2-z
3 -x,-y,-z
4 x,1/2-y,1/2+z
_cell_length_a                   5.614(1)
_cell_length_b                   8.252(1)
_cell_length_c                   20.228(1)
_cell_angle_alpha                90
_cell_angle_beta                 97.03(1)
_cell_angle_gamma                90
_cell_volume                     930.052
_exptl_crystal_colour            colorless
_chemical_melting_point          109-110deg.C
_cell_formula_units_Z            4
loop_
_atom_site_label
_atom_site_type_symbol
_atom_site_fract_x
_atom_site_fract_y
_atom_site_fract_z
O1 O 0.4563(3) 0.0314(2) 0.6911(1)
O2 O 0.4577(3) 0.4992(2) 0.6024(1)
O3 O 0.2641(4) 0.6851(2) 0.5369(1)
O4 O 0.2072(4) -0.1770(2) 0.6993(1)
C1 C 0.2534(5) 0.3901(3) 0.5919(1)
C2 C 0.3504(5) 0.2184(3) 0.5966(1)
C3 C 0.1259(5) 0.1075(3) 0.5851(1)
C4 C 0.0617(4) 0.0891(3) 0.6571(1)
C5 C 0.1733(5) 0.2442(3) 0.6899(1)
C6 C 0.1060(5) 0.3982(3) 0.6514(2)
C7 C 0.4203(4) 0.2010(3) 0.6717(1)
C8 C 0.2349(4) -0.0374(3) 0.6858(1)
C9 C 0.4391(4) 0.6432(3) 0.5723(1)
C10 C 0.6587(5) 0.7423(3) 0.5894(2)
H1 H 0.1652 0.4143 0.5439
H2 H 0.4650 0.2015 0.5667
H3 H 0.1614 0.0031 0.5656
H4 H -0.0127 0.161 0.5542
H5 H -0.1289 0.0660 0.6636
H6 H 0.1782 0.2278 0.7272
H7 H -0.0785 0.4015 0.6349
H8 H 0.1580 0.5015 0.6807
H9 H 0.5679 0.2748 0.6925
H10 H 0.7178 0.7422 0.6377
H11 H 0.6516 0.8570 0.5700
H12 H 0.7749 0.6924 0.5680
loop_
_geom_bond_atom_site_label_1
_geom_bond_atom_site_label_2
_geom_bond_site_symmetry_1
_geom_bond_site_symmetry_2
O1 C7 1_555 1_555
O2 C1 1_555 1_555
O3 C9 1_555 1_555
O4 C8 1_555 1_555
C1 C2 1_555 1_555
C2 C3 1_555 1_555
C3 C4 1_555 1_555
C4 C5 1_555 1_555
C5 C6 1_555 1_555
C6 C1 1_555 1_555
C7 C2 1_555 1_555
C8 O1 1_555 1_555
C9 O2 1_555 1_555
C10 C9 1_555 1_555
H1 C1 1_555 1_555
H2 C2 1_555 1_555
H3 C3 1_555 1_555
H4 C3 1_555 1_555
H5 C4 1_555 1_555
H6 C5 1_555 1_555
H7 C6 1_555 1_555
H8 C6 1_555 1_555
H9 C7 1_555 1_555
H10 C10 1_555 1_555
H11 C10 1_555 1_555
H12 C10 1_555 1_555
C4 C8 1_555 1_555
C5 C7 1_555 1_555

#END
