
#######################################################################
#
#                 Cambridge Crystallographic Data Centre
#                                CCDC 
#
#######################################################################
#
# If this CIF has been generated from an entry in the Cambridge 
# Structural Database, then it will include bibliographic, chemical, 
# crystal, experimental, refinement or atomic coordinate data resulting 
# from the CCDC's data processing and validation procedures.
#
#######################################################################

data_VOHNEL
_chemical_formula_moiety         'C11 H17 N1 O3'
_chemical_name_systematic        exo-2-Acetoxy-syn-7-acetamidonorbornane
_symmetry_cell_setting           triclinic
_symmetry_space_group_name_H-M   'P -1'
_symmetry_Int_Tables_number      2
_space_group_name_Hall           '-P 1'
loop_
_symmetry_equiv_pos_site_id
_symmetry_equiv_pos_as_xyz
1 x,y,z
2 -x,-y,-z
_cell_length_a                   9.734
_cell_length_b                   11.608(1)
_cell_length_c                   10.671(1)
_cell_angle_alpha                98.72
_cell_angle_beta                 90.53
_cell_angle_gamma                99.56
_cell_volume                     1174.52
_exptl_crystal_colour            colorless
_cell_formula_units_Z            4
loop_
_atom_site_label
_atom_site_type_symbol
_atom_site_fract_x
_atom_site_fract_y
_atom_site_fract_z
N1 N 0.808(1) 0.367(1) 0.037(1)
O1 O 0.868(1) 0.154(1) 0.118(1)
O2 O 1.072(1) 0.135(1) 0.205(1)
O3 O 0.697(1) 0.476(1) -0.070(1)
C1 C 1.010(1) 0.275(1) -0.029(1)
C2 C 0.925(1) 0.157(1) -0.011(1)
C3 C 0.802(1) 0.144(1) -0.111(1)
C4 C 0.827(2) 0.245(2) -0.170(2)
C5 C 0.960(2) 0.223(2) -0.256(1)
C6 C 1.076(1) 0.249(1) -0.158(1)
C7 C 0.903(2) 0.339(1) -0.071(1)
C8 C 0.950(1) 0.142(1) 0.216(1)
C9 C 0.879(1) 0.141(1) 0.339(1)
C10 C 0.714(2) 0.433(1) 0.023(1)
C11 C 0.637(1) 0.458(1) 0.142(1)
H1 H 0.719 0.315 0.018
H3 H 1.074 0.315 0.047
H4 H 0.984 0.089 -0.023
H5 H 0.704 0.145 -0.064
H6 H 0.784 0.067 -0.171
H7 H 0.748 0.283 -0.223
H8 H 0.992 0.270 -0.345
H9 H 0.902 0.142 -0.327
H10 H 1.132 0.175 -0.161
H11 H 1.158 0.316 -0.174
H12 H 0.931 0.418 -0.102
H13 H 0.885 0.160 0.430
H14 H 0.844 0.051 0.335
H15 H 0.794 0.177 0.323
H16 H 0.673 0.434 0.223
H17 H 0.532 0.420 0.127
H18 H 0.636 0.547 0.155
N2 N 0.302(1) 0.358(1) 0.414(1)
O4 O 0.372(1) 0.159(1) 0.249(1)
O5 O 0.574(1) 0.133(1) 0.160(1)
O6 O 0.200(1) 0.469(1) 0.557(1)
C12 C 0.508(1) 0.270(1) 0.446(1)
C13 C 0.425(1) 0.153(1) 0.380(1)
C14 C 0.301(1) 0.127(1) 0.468(1)
C15 C 0.329(2) 0.227(2) 0.575(1)
C16 C 0.453(2) 0.208(2) 0.654(1)
C17 C 0.574(2) 0.242(1) 0.567(1)
C18 C 0.395(2) 0.329(1) 0.509(1)
C19 C 0.454(1) 0.146(1) 0.148(1)
C20 C 0.387(1) 0.150(1) 0.024(1)
C21 C 0.209(2) 0.426(2) 0.447(1)
C22 C 0.124(1) 0.452(1) 0.342(1)
H2 H 0.210 0.302 0.416
H19 H 0.571 0.312 0.384
H20 H 0.496 0.096 0.370
H21 H 0.299 0.049 0.497
H22 H 0.211 0.126 0.420
H23 H 0.265 0.255 0.628
H24 H 0.515 0.131 0.638
H25 H 0.491 0.253 0.759
H26 H 0.648 0.311 0.605
H27 H 0.629 0.172 0.540
H28 H 0.437 0.414 0.568
H29 H 0.376 0.135 -0.062
H30 H 0.393 0.242 0.028
H31 H 0.284 0.122 0.041
H32 H 0.072 0.518 0.396
H33 H 0.055 0.378 0.294
H34 H 0.185 0.481 0.270
loop_
_geom_bond_atom_site_label_1
_geom_bond_atom_site_label_2
_geom_bond_site_symmetry_1
_geom_bond_site_symmetry_2
N1 C7 1_555 1_555
N2 C18 1_555 1_555
O1 C2 1_555 1_555
O2 C8 1_555 1_555
O3 C10 1_555 1_555
O4 C13 1_555 1_555
O5 C19 1_555 1_555
O6 C21 1_555 1_555
C1 C2 1_555 1_555
C2 C3 1_555 1_555
C3 C4 1_555 1_555
C4 C5 1_555 1_555
C5 C6 1_555 1_555
C6 C1 1_555 1_555
C7 C1 1_555 1_555
C8 O1 1_555 1_555
C9 C8 1_555 1_555
C10 N1 1_555 1_555
C11 C10 1_555 1_555
C12 C13 1_555 1_555
C13 C14 1_555 1_555
C14 C15 1_555 1_555
C15 C16 1_555 1_555
C16 C17 1_555 1_555
C17 C12 1_555 1_555
C18 C12 1_555 1_555
C19 O4 1_555 1_555
C20 C19 1_555 1_555
C21 N2 1_555 1_555
C22 C21 1_555 1_555
H1 N1 1_555 1_555
H2 N2 1_555 1_555
H3 C1 1_555 1_555
H4 C2 1_555 1_555
H5 C3 1_555 1_555
H6 C3 1_555 1_555
H7 C4 1_555 1_555
H8 C5 1_555 1_555
H9 C5 1_555 1_555
H10 C6 1_555 1_555
H11 C6 1_555 1_555
H12 C7 1_555 1_555
H13 C9 1_555 1_555
H14 C9 1_555 1_555
H15 C9 1_555 1_555
H16 C11 1_555 1_555
H17 C11 1_555 1_555
H18 C11 1_555 1_555
H19 C12 1_555 1_555
H20 C13 1_555 1_555
H21 C14 1_555 1_555
H22 C14 1_555 1_555
H23 C15 1_555 1_555
H24 C16 1_555 1_555
H25 C16 1_555 1_555
H26 C17 1_555 1_555
H27 C17 1_555 1_555
H28 C18 1_555 1_555
H29 C20 1_555 1_555
H30 C20 1_555 1_555
H31 C20 1_555 1_555
H32 C22 1_555 1_555
H33 C22 1_555 1_555
H34 C22 1_555 1_555
C4 C7 1_555 1_555
C15 C18 1_555 1_555

#END
