
#######################################################################
#
#                 Cambridge Crystallographic Data Centre
#                                CCDC 
#
#######################################################################
#
# If this CIF has been generated from an entry in the Cambridge 
# Structural Database, then it will include bibliographic, chemical, 
# crystal, experimental, refinement or atomic coordinate data resulting 
# from the CCDC's data processing and validation procedures.
#
#######################################################################

data_VOHRAN
_chemical_formula_moiety         'C16 H29 N5 O4 Si1'
_chemical_name_systematic        
1-(3-(4-(morpholin-4-ylmethyl)-1H-1,2,3-triazol-1-yl)propyl)-2,8,9-trioxa-5-aza-1-silabicyclo[3.3.3]undecane
_symmetry_cell_setting           triclinic
_symmetry_space_group_name_H-M   'P -1'
_symmetry_Int_Tables_number      2
_space_group_name_Hall           '-P 1'
loop_
_symmetry_equiv_pos_site_id
_symmetry_equiv_pos_as_xyz
1 x,y,z
2 -x,-y,-z
_cell_length_a                   10.480(5)
_cell_length_b                   10.536(4)
_cell_length_c                   11.090(5)
_cell_angle_alpha                63.047(5)
_cell_angle_beta                 73.639(3)
_cell_angle_gamma                65.682(5)
_cell_volume                     987.841
_exptl_crystal_colour            colorless
_exptl_crystal_description       platelet
_cell_formula_units_Z            2
loop_
_atom_site_label
_atom_site_type_symbol
_atom_site_fract_x
_atom_site_fract_y
_atom_site_fract_z
C1 C -0.2189(3) 0.0992(3) 0.1708(3)
H1 H -0.2027 -0.0067 0.1960
H2 H -0.1306 0.1183 0.1279
C2 C -0.3286(3) 0.1957(3) 0.0729(3)
H3 H -0.3438 0.3014 0.0475
H4 H -0.2953 0.1744 -0.0091
C3 C -0.5081(3) 0.1953(4) 0.2552(4)
H5 H -0.5938 0.1702 0.2972
H6 H -0.5310 0.3020 0.2326
C4 C -0.4011(3) 0.1056(4) 0.3550(3)
H7 H -0.4366 0.1326 0.4340
H8 H -0.3852 -0.0012 0.3854
C5 C -0.1628(3) 0.0507(3) 0.3893(3)
H9 H -0.0698 0.0470 0.3397
H10 H -0.1637 -0.0521 0.4384
C6 C -0.1911(2) 0.1209(3) 0.4884(2)
C7 C -0.1631(3) 0.2454(3) 0.4695(2)
H11 H -0.1194 0.3039 0.3914
C8 C -0.2023(3) 0.3746(3) 0.6286(3)
H12 H -0.2811 0.3953 0.6960
H13 H -0.2083 0.4684 0.5498
C9 C 0.2499(2) 0.3931(3) 0.9849(3)
H14 H 0.3344 0.3976 1.0001
H15 H 0.1942 0.3599 1.0721
C10 C 0.3784(3) 0.2670(3) 0.7007(3)
H16 H 0.4326 0.3071 0.6145
H17 H 0.4071 0.1586 0.7278
C11 C 0.4064(2) 0.3010(3) 0.8076(3)
H18 H 0.4943 0.2289 0.8436
H19 H 0.4123 0.4017 0.7689
C12 C -0.0656(2) 0.3180(3) 0.6870(3)
H20 H 0.0130 0.2939 0.6206
H21 H -0.0612 0.2259 0.7674
C13 C -0.0511(2) 0.4338(3) 0.7251(3)
H22 H -0.1348 0.4647 0.7843
H23 H -0.0479 0.5223 0.6428
C14 C 0.1652(2) 0.5464(3) 0.8902(3)
H24 H 0.1111 0.6109 0.9404
H25 H 0.2282 0.5944 0.8182
C15 C 0.2993(2) 0.1318(3) 1.0108(3)
H26 H 0.3463 0.1030 1.0877
H27 H 0.3528 0.0627 0.9650
C16 C 0.1494(2) 0.1292(3) 1.0577(2)
H28 H 0.1493 0.0263 1.0945
H29 H 0.1071 0.1691 1.1286
N1 N -0.2682(2) 0.1352(2) 0.2921(2)
N2 N -0.2556(2) 0.0698(2) 0.6169(2)
N3 N -0.2683(2) 0.1575(2) 0.6784(2)
N4 N -0.2127(2) 0.2648(2) 0.5884(2)
N5 N 0.28673(19) 0.2892(2) 0.9158(2)
O1 O 0.07247(16) 0.52540(17) 0.83293(17)
O2 O 0.07070(16) 0.21954(17) 0.94312(16)
O3 O 0.23170(17) 0.33402(19) 0.68590(17)
O4 O -0.4583(2) 0.1666(3) 0.1333(2)
Si1 Si 0.10893(6) 0.36567(6) 0.81284(6)
loop_
_geom_bond_atom_site_label_1
_geom_bond_atom_site_label_2
_geom_bond_site_symmetry_1
_geom_bond_site_symmetry_2
C1 H1 1_555 1_555
H2 C1 1_555 1_555
C2 C1 1_555 1_555
H3 C2 1_555 1_555
H4 C2 1_555 1_555
C3 H5 1_555 1_555
H6 C3 1_555 1_555
C4 C3 1_555 1_555
H7 C4 1_555 1_555
H8 C4 1_555 1_555
C5 H9 1_555 1_555
H10 C5 1_555 1_555
C6 C5 1_555 1_555
C7 C6 1_555 1_555
H11 C7 1_555 1_555
C8 H12 1_555 1_555
H13 C8 1_555 1_555
C9 H14 1_555 1_555
H15 C9 1_555 1_555
C10 H16 1_555 1_555
H17 C10 1_555 1_555
C11 C10 1_555 1_555
H18 C11 1_555 1_555
H19 C11 1_555 1_555
C12 C8 1_555 1_555
H20 C12 1_555 1_555
H21 C12 1_555 1_555
C13 C12 1_555 1_555
H22 C13 1_555 1_555
H23 C13 1_555 1_555
C14 C9 1_555 1_555
H24 C14 1_555 1_555
H25 C14 1_555 1_555
C15 H26 1_555 1_555
H27 C15 1_555 1_555
C16 C15 1_555 1_555
H28 C16 1_555 1_555
H29 C16 1_555 1_555
N1 C1 1_555 1_555
N2 C6 1_555 1_555
N3 N2 1_555 1_555
N4 C7 1_555 1_555
N5 C9 1_555 1_555
O1 C14 1_555 1_555
O2 C16 1_555 1_555
O3 C10 1_555 1_555
O4 C2 1_555 1_555
Si1 C13 1_555 1_555
C3 O4 1_555 1_555
C4 N1 1_555 1_555
C5 N1 1_555 1_555
C8 N4 1_555 1_555
C11 N5 1_555 1_555
C15 N5 1_555 1_555
N3 N4 1_555 1_555
N5 Si1 1_555 1_555
O1 Si1 1_555 1_555
O2 Si1 1_555 1_555
O3 Si1 1_555 1_555

#END
