
#######################################################################
#
#                 Cambridge Crystallographic Data Centre
#                                CCDC 
#
#######################################################################
#
# If this CIF has been generated from an entry in the Cambridge 
# Structural Database, then it will include bibliographic, chemical, 
# crystal, experimental, refinement or atomic coordinate data resulting 
# from the CCDC's data processing and validation procedures.
#
#######################################################################

data_VOHVOE
_chemical_formula_moiety         'C34 H32 Ca1 N11 O3 1+,N1 O3 1-,3(C1 H4 O1)'
_chemical_name_systematic        
"(N,N,N',N'-tetrakis(1H-benzimidazol-2-ylmethyl)ethane-1,2-diamine)-(nitrato-O,O')-calcium(ii) nitrate methanol solvate"
_symmetry_cell_setting           monoclinic
_symmetry_space_group_name_H-M   'P 21/n'
_symmetry_Int_Tables_number      14
_space_group_name_Hall           '-P 2yn'
loop_
_symmetry_equiv_pos_site_id
_symmetry_equiv_pos_as_xyz
1 x,y,z
2 1/2-x,1/2+y,1/2-z
3 -x,-y,-z
4 1/2+x,1/2-y,1/2+z
_cell_length_a                   9.5945(4)
_cell_length_b                   25.3531(11)
_cell_length_c                   17.8402(7)
_cell_angle_alpha                90
_cell_angle_beta                 105.5990(10)
_cell_angle_gamma                90
_cell_volume                     4179.79
_exptl_crystal_colour            'pale red'
_exptl_crystal_description       block
_cell_formula_units_Z            4
loop_
_atom_site_label
_atom_site_type_symbol
_atom_site_fract_x
_atom_site_fract_y
_atom_site_fract_z
Ca1 Ca 0.93863(6) 0.24863(2) 0.58359(3)
C1 C 0.7836(3) 0.14868(11) 0.65167(19)
H1 H 0.7070 0.1277 0.6628
H2 H 0.8678 0.1467 0.6962
C2 C 0.8201(3) 0.12762(11) 0.58169(19)
C3 C 0.8889(3) 0.12150(12) 0.47646(19)
C4 C 0.9379(4) 0.12879(15) 0.4103(2)
H3 H 0.9689 0.1618 0.3986
C5 C 0.9393(5) 0.08604(18) 0.3627(3)
H4 H 0.9736 0.0900 0.3190
C6 C 0.8897(7) 0.03698(19) 0.3796(3)
H5 H 0.8907 0.0088 0.3464
C7 C 0.8402(7) 0.02916(18) 0.4427(3)
H6 H 0.8071 -0.0037 0.4534
C8 C 0.8404(5) 0.07194(13) 0.4911(2)
C9 C 0.5963(3) 0.20632(12) 0.57942(19)
H7 H 0.5191 0.2042 0.6049
H8 H 0.5873 0.1765 0.5444
C10 C 0.5819(3) 0.25616(11) 0.53395(17)
C11 C 0.6306(3) 0.32351(11) 0.47183(16)
C12 C 0.6945(4) 0.36285(12) 0.43761(19)
H9 H 0.7945 0.3664 0.4495
C13 C 0.6052(4) 0.39592(12) 0.38618(19)
H10 H 0.6457 0.4223 0.3626
C14 C 0.4564(4) 0.39146(12) 0.3680(2)
H11 H 0.3989 0.4148 0.3326
C15 C 0.3923(3) 0.35281(12) 0.40159(19)
H12 H 0.2922 0.3498 0.3902
C16 C 0.4812(3) 0.31902(11) 0.45229(17)
C17 C 0.7243(3) 0.23028(13) 0.71045(18)
H13 H 0.6663 0.2620 0.6968
H14 H 0.6743 0.2069 0.7376
C18 C 0.8664(3) 0.24460(12) 0.76340(18)
H15 H 0.8508 0.2620 0.8089
H16 H 0.9208 0.2126 0.7808
C19 C 0.8988(3) 0.33411(11) 0.72146(19)
H17 H 0.9211 0.3500 0.7728
H18 H 0.7945 0.3343 0.7000
C20 C 0.9683(3) 0.36492(11) 0.67018(17)
C21 C 1.0657(3) 0.38720(11) 0.57887(18)
C22 C 1.1232(4) 0.39029(12) 0.5158(2)
H19 H 1.1240 0.3608 0.4848
C23 C 1.1795(4) 0.43753(13) 0.4995(2)
H20 H 1.2177 0.4404 0.4569
C24 C 1.1788(5) 0.48114(14) 0.5472(3)
H21 H 1.2177 0.5127 0.5355
C25 C 1.1242(5) 0.47959(14) 0.6094(3)
H22 H 1.1257 0.5091 0.6406
C26 C 1.0661(3) 0.43219(11) 0.6248(2)
C27 C 1.1042(3) 0.27818(12) 0.77325(17)
H23 H 1.1090 0.2774 0.8282
H24 H 1.1536 0.3097 0.7632
C28 C 1.1768(3) 0.23033(11) 0.75227(16)
C29 C 1.2351(3) 0.16532(11) 0.68917(17)
C30 C 1.2468(4) 0.12775(13) 0.6351(2)
H25 H 1.1819 0.1267 0.5859
C31 C 1.3574(4) 0.09212(15) 0.6566(2)
H26 H 1.3682 0.0666 0.6212
C32 C 1.4533(4) 0.09323(14) 0.7297(2)
H27 H 1.5260 0.0679 0.7428
C33 C 1.4440(4) 0.13041(14) 0.7828(2)
H28 H 1.5094 0.1314 0.8319
C34 C 1.3342(3) 0.16646(11) 0.76108(17)
N1 N 0.7361(2) 0.20398(9) 0.63783(14)
N2 N 0.9530(2) 0.27953(9) 0.72732(13)
N3 N 0.8747(3) 0.15622(9) 0.53404(14)
N4 N 0.7990(4) 0.07761(10) 0.55867(19)
H38 H 0.7653 0.0530 0.5821
N5 N 0.6927(2) 0.28340(9) 0.52322(14)
N6 N 0.4545(2) 0.27564(10) 0.49387(15)
H39 H 0.3708 0.2635 0.4938
N7 N 1.0047(2) 0.34531(9) 0.60981(14)
N8 N 1.0045(3) 0.41587(10) 0.68268(16)
H40 H 0.9917 0.4350 0.7201
N9 N 1.1344(2) 0.20637(9) 0.68459(13)
N10 N 1.2934(3) 0.20879(10) 0.79974(14)
H41 H 1.3361 0.2192 0.8461
N11 N 1.0825(3) 0.25741(8) 0.45680(15)
O1 O 0.9506(2) 0.26521(8) 0.45075(11)
O2 O 1.1601(2) 0.24507(8) 0.52220(12)
O3 O 1.1313(2) 0.26311(10) 0.40031(13)
C35 C 0.3284(6) 0.1315(2) 0.4261(3)
H29 H 0.3148 0.1053 0.4623
H30 H 0.2691 0.1232 0.3750
H31 H 0.3015 0.1655 0.4415
O7 O 0.4716(5) 0.13242(19) 0.4254(3)
H42 H 0.4895 0.1063 0.4025
C36 C 0.4021(5) 0.3258(2) 0.6834(4)
H32 H 0.3823 0.3240 0.7334
H33 H 0.3868 0.2917 0.6591
H34 H 0.3385 0.3510 0.6513
O8 O 0.5364(4) 0.34029(15) 0.6924(4)
H43 H 0.5386 0.3713 0.6795
C37 C 0.6019(7) 0.4540(3) 0.5955(4)
H35 H 0.5568 0.4879 0.5834
H36 H 0.5512 0.4285 0.5584
H37 H 0.7008 0.4561 0.5936
O9 O 0.5977(8) 0.4396(2) 0.6665(3)
H44 H 0.6531 0.4582 0.6988
N12 N 0.8396(12) 0.4913(3) 0.8304(5)
O4 O 0.9043(11) 0.4561(3) 0.8003(5)
O5 O 0.7299(9) 0.5142(3) 0.7906(5)
O6 O 0.8972(10) 0.5031(4) 0.9014(5)
O10? O 0.7826(15) 0.5023(8) 0.7646(13)
O11? O 0.9780(19) 0.4577(8) 0.8264(11)
N13? N 0.877(2) 0.4910(9) 0.8299(11)
O12? O 0.834(3) 0.4922(11) 0.8925(13)
loop_
_geom_bond_atom_site_label_1
_geom_bond_atom_site_label_2
_geom_bond_site_symmetry_1
_geom_bond_site_symmetry_2
Ca1 N1 1_555 1_555
C1 H1 1_555 1_555
H2 C1 1_555 1_555
C2 C1 1_555 1_555
C3 C4 1_555 1_555
C4 H3 1_555 1_555
C5 C4 1_555 1_555
H4 C5 1_555 1_555
C6 C5 1_555 1_555
H5 C6 1_555 1_555
C7 C6 1_555 1_555
H6 C7 1_555 1_555
C8 C3 1_555 1_555
C9 H7 1_555 1_555
H8 C9 1_555 1_555
C10 C9 1_555 1_555
C11 C12 1_555 1_555
C12 H9 1_555 1_555
C13 C12 1_555 1_555
H10 C13 1_555 1_555
C14 C13 1_555 1_555
H11 C14 1_555 1_555
C15 C14 1_555 1_555
H12 C15 1_555 1_555
C16 C11 1_555 1_555
C17 H13 1_555 1_555
H14 C17 1_555 1_555
C18 C17 1_555 1_555
H15 C18 1_555 1_555
H16 C18 1_555 1_555
C19 H17 1_555 1_555
H18 C19 1_555 1_555
C20 C19 1_555 1_555
C21 C22 1_555 1_555
C22 H19 1_555 1_555
C23 C22 1_555 1_555
H20 C23 1_555 1_555
C24 C23 1_555 1_555
H21 C24 1_555 1_555
C25 C24 1_555 1_555
H22 C25 1_555 1_555
C26 C21 1_555 1_555
C27 H23 1_555 1_555
H24 C27 1_555 1_555
C28 C27 1_555 1_555
C29 C30 1_555 1_555
C30 H25 1_555 1_555
C31 C30 1_555 1_555
H26 C31 1_555 1_555
C32 C31 1_555 1_555
H27 C32 1_555 1_555
C33 C32 1_555 1_555
H28 C33 1_555 1_555
C34 C29 1_555 1_555
C35 H29 1_555 1_555
H30 C35 1_555 1_555
H31 C35 1_555 1_555
C36 H32 1_555 1_555
H33 C36 1_555 1_555
H34 C36 1_555 1_555
C37 H35 1_555 1_555
H36 C37 1_555 1_555
H37 C37 1_555 1_555
N1 C1 1_555 1_555
N2 Ca1 1_555 1_555
N3 Ca1 1_555 1_555
N4 C2 1_555 1_555
H38 N4 1_555 1_555
N5 Ca1 1_555 1_555
N6 C10 1_555 1_555
H39 N6 1_555 1_555
N7 Ca1 1_555 1_555
N8 C20 1_555 1_555
H40 N8 1_555 1_555
N9 Ca1 1_555 1_555
N10 C28 1_555 1_555
H41 N10 1_555 1_555
N11 O1 1_555 1_555
O1 Ca1 1_555 1_555
O2 Ca1 1_555 1_555
O3 N11 1_555 1_555
N12 O4 1_555 1_555
O5 N12 1_555 1_555
O6 N12 1_555 1_555
O7 C35 1_555 1_555
H42 O7 1_555 1_555
O8 C36 1_555 1_555
H43 O8 1_555 1_555
O9 C37 1_555 1_555
H44 O9 1_555 1_555
C2 N3 1_555 1_555
C3 N3 1_555 1_555
C7 C8 1_555 1_555
C8 N4 1_555 1_555
C9 N1 1_555 1_555
C10 N5 1_555 1_555
C11 N5 1_555 1_555
C15 C16 1_555 1_555
C16 N6 1_555 1_555
C17 N1 1_555 1_555
C18 N2 1_555 1_555
C19 N2 1_555 1_555
C20 N7 1_555 1_555
C21 N7 1_555 1_555
C25 C26 1_555 1_555
C26 N8 1_555 1_555
C27 N2 1_555 1_555
C28 N9 1_555 1_555
C29 N9 1_555 1_555
C33 C34 1_555 1_555
C34 N10 1_555 1_555
N11 O2 1_555 1_555

#END
