
#######################################################################
#
#                 Cambridge Crystallographic Data Centre
#                                CCDC 
#
#######################################################################
#
# If this CIF has been generated from an entry in the Cambridge 
# Structural Database, then it will include bibliographic, chemical, 
# crystal, experimental, refinement or atomic coordinate data resulting 
# from the CCDC's data processing and validation procedures.
#
#######################################################################

data_VOHWOE
_chemical_formula_moiety         'C34 H38 O12 P2'
_chemical_name_systematic        bis(Methylphosphonyl)-tetrabenzo-28-crown-10
_symmetry_cell_setting           orthorhombic
_symmetry_space_group_name_H-M   'F d 2 d'
_symmetry_Int_Tables_number      43
_space_group_name_Hall           'F -2d -2d'
loop_
_symmetry_equiv_pos_site_id
_symmetry_equiv_pos_as_xyz
1 x,y,z
2 x,1/2+y,1/2+z
3 1/2+x,y,1/2+z
4 1/2+x,1/2+y,z
5 1/4-x,1/4+y,1/4+z
6 1/4-x,3/4+y,3/4+z
7 3/4-x,1/4+y,3/4+z
8 3/4-x,3/4+y,1/4+z
9 -x,y,-z
10 -x,1/2+y,1/2-z
11 1/2-x,y,1/2-z
12 1/2-x,1/2+y,-z
13 3/4+x,1/4+y,3/4-z
14 3/4+x,3/4+y,1/4-z
15 1/4+x,1/4+y,1/4-z
16 1/4+x,3/4+y,3/4-z
_cell_length_a                   13.384(4)
_cell_length_b                   13.037(3)
_cell_length_c                   43.282(6)
_cell_angle_alpha                90
_cell_angle_beta                 90
_cell_angle_gamma                90
_cell_volume                     7552.16
_exptl_crystal_colour            white
_chemical_melting_point          129-131deg.C
_cell_formula_units_Z            8
loop_
_atom_site_label
_atom_site_type_symbol
_atom_site_fract_x
_atom_site_fract_y
_atom_site_fract_z
P1 P 0.0760(2) 0.5504 0.1865(4)
O1 O 0.0538(4) 0.6647(5) 0.1768(1)
O2 O 0.0636(3) 0.7781(5) 0.2320(1)
O3 O 0.0636(4) 0.6607(5) 0.2842(1)
O4 O 0.1588(4) 0.5082(4) 0.3245(1)
O5 O 0.1535(3) 0.5217(4) 0.1566(1)
O6 O -0.0175(4) 0.4914(4) 0.1868(2)
C1 C 0.1175(5) 0.7475(6) 0.1790(2)
C2 C 0.1751(8) 0.7702(7) 0.1504(2)
C3 C 0.2330(9) 0.8558(9) 0.1505(3)
C4 C 0.2402(7) 0.9186(8) 0.1749(3)
C5 C 0.1798(8) 0.8923(6) 0.2030(3)
C6 C 0.1177(5) 0.8059(6) 0.2068(2)
C7 C 0.0935(6) 0.8216(6) 0.2572(2)
C8 C 0.0371(7) 0.7699(7) 0.2809(2)
C9 C 0.0194(7) 0.6129(8) 0.3092(2)
C10 C 0.0564(5) 0.4985(6) 0.3145(2)
C11 C 0.2089(7) 0.4162(6) 0.3333(2)
C12 C 0.1572(7) 0.3248(7) 0.3358(2)
C13 C 0.2042(8) 0.2206(9) 0.3432(3)
C14 C 0.2979(9) 0.2420(7) 0.3514(2)
C15 C 0.3520(7) 0.3331(7) 0.3524(2)
C16 C 0.1969(5) 0.4229(6) 0.1575(2)
C17 C 0.1595(9) 0.5512(9) 0.2256(3)
C16J C 0.3031(5) 0.4229(6) 0.3425(2)
O5J O 0.3465(3) 0.5217(4) 0.3434(1)
P1J P 0.4240(2) 0.5504 0.3135(4)
O1J O 0.4462(4) 0.6647(5) 0.3232(1)
C1J C 0.3825(5) 0.7475(6) 0.3210(2)
C2J C 0.3249(8) 0.7702(7) 0.3496(2)
C3J C 0.2670(9) 0.8558(9) 0.3495(3)
C4J C 0.2598(7) 0.9186(8) 0.3251(3)
C5J C 0.3202(8) 0.8923(6) 0.2970(3)
C6J C 0.3823(5) 0.8059(6) 0.2932(2)
O2J O 0.4364(3) 0.7781(5) 0.2680(1)
C7J C 0.4065(6) 0.8216(6) 0.2428(2)
C8J C 0.4629(7) 0.7699(7) 0.2191(2)
O3J O 0.4364(4) 0.6607(5) 0.2158(1)
C9J C 0.4806(7) 0.6129(8) 0.1908(2)
C10J C 0.4436(5) 0.4985(6) 0.1855(2)
O4J O 0.3412(4) 0.5082(4) 0.1755(1)
C11J C 0.2911(7) 0.4162(6) 0.1667(2)
C12J C 0.3428(7) 0.3248(7) 0.1642(2)
C13J C 0.2958(8) 0.2206(9) 0.1568(3)
C14J C 0.2021(9) 0.2420(7) 0.1486(2)
C15J C 0.1480(7) 0.3331(7) 0.1476(2)
O6J O 0.5175(4) 0.4914(4) 0.3132(2)
C17J C 0.3405(9) 0.5512(9) 0.2744(3)
loop_
_geom_bond_atom_site_label_1
_geom_bond_atom_site_label_2
_geom_bond_site_symmetry_1
_geom_bond_site_symmetry_2
P1 O1 1_555 1_555
O1 C1 1_555 1_555
O2 C6 1_555 1_555
O3 C8 1_555 1_555
O4 C10 1_555 1_555
O5 P1 1_555 1_555
O6 P1 1_555 1_555
C1 C2 1_555 1_555
C2 C3 1_555 1_555
C3 C4 1_555 1_555
C4 C5 1_555 1_555
C5 C6 1_555 1_555
C6 C1 1_555 1_555
C7 O2 1_555 1_555
C8 C7 1_555 1_555
C9 O3 1_555 1_555
C10 C9 1_555 1_555
C11 O4 1_555 1_555
C12 C11 1_555 1_555
C13 C12 1_555 1_555
C14 C13 1_555 1_555
C15 C14 1_555 1_555
C16 O5 1_555 1_555
C17 P1 1_555 1_555
C16J C11 1_555 1_555
O5J C16J 1_555 1_555
P1J O5J 1_555 1_555
O1J P1J 1_555 1_555
C1J O1J 1_555 1_555
C2J C1J 1_555 1_555
C3J C2J 1_555 1_555
C4J C3J 1_555 1_555
C5J C4J 1_555 1_555
C6J C1J 1_555 1_555
O2J C6J 1_555 1_555
C7J O2J 1_555 1_555
C8J C7J 1_555 1_555
O3J C8J 1_555 1_555
C9J O3J 1_555 1_555
C10J C9J 1_555 1_555
O4J C10J 1_555 1_555
C11J C16 1_555 1_555
C12J C11J 1_555 1_555
C13J C12J 1_555 1_555
C14J C13J 1_555 1_555
C15J C16 1_555 1_555
O6J P1J 1_555 1_555
C17J P1J 1_555 1_555
C15 C16J 1_555 1_555
C5J C6J 1_555 1_555
O4J C11J 1_555 1_555
C14J C15J 1_555 1_555

#END
