
#######################################################################
#
#                 Cambridge Crystallographic Data Centre
#                                CCDC 
#
#######################################################################
#
# If this CIF has been generated from an entry in the Cambridge 
# Structural Database, then it will include bibliographic, chemical, 
# crystal, experimental, refinement or atomic coordinate data resulting 
# from the CCDC's data processing and validation procedures.
#
#######################################################################

data_VOHWUL
_chemical_formula_moiety         'C10 H8 N2 S1,C8 H6 O4'
_chemical_name_systematic        'Di-4-pyridyl sulfide isophthalic acid'
_symmetry_cell_setting           triclinic
_symmetry_space_group_name_H-M   'P -1'
_symmetry_Int_Tables_number      2
_space_group_name_Hall           '-P 1'
loop_
_symmetry_equiv_pos_site_id
_symmetry_equiv_pos_as_xyz
1 x,y,z
2 -x,-y,-z
_cell_length_a                   6.618(6)
_cell_length_b                   8.200(7)
_cell_length_c                   16.013(13)
_cell_angle_alpha                88.808(11)
_cell_angle_beta                 79.340(11)
_cell_angle_gamma                79.275(11)
_cell_volume                     838.989
_exptl_crystal_colour            colorless
_exptl_crystal_description       block
_cell_formula_units_Z            2
loop_
_atom_site_label
_atom_site_type_symbol
_atom_site_fract_x
_atom_site_fract_y
_atom_site_fract_z
S1 S 0.2928(2) 0.9132(2) 0.77591(8)
N1 N 0.5677(7) 1.1790(5) 0.5430(2)
N2 N 0.7476(6) 0.8077(5) 0.9602(2)
C1 C 0.6939(8) 1.0749(6) 0.5857(3)
H1 H 0.8376 1.0583 0.5661
C2 C 0.6199(8) 0.9931(6) 0.6562(3)
H2 H 0.7120 0.9208 0.6834
C3 C 0.4099(7) 1.0177(6) 0.6868(3)
C4 C 0.2817(8) 1.1212(6) 0.6439(3)
H3 H 0.1377 1.1399 0.6631
C5 C 0.3637(8) 1.1986(6) 0.5722(3)
H4 H 0.2728 1.2673 0.5429
C6 C 0.6067(8) 0.9811(6) 0.8561(3)
H5 H 0.6056 1.0787 0.8254
C7 C 0.7391(8) 0.9425(6) 0.9127(3)
H6 H 0.8286 1.0150 0.9182
C8 C 0.6162(10) 0.7091(7) 0.9505(3)
H7 H 0.6169 0.6143 0.9834
C9 C 0.4795(8) 0.7377(6) 0.8952(3)
H8 H 0.3896 0.6644 0.8916
C10 C 0.4760(7) 0.8763(6) 0.8449(3)
O1 O 0.9948(5) 0.7101(5) 0.0723(2)
H9 H 0.9203 0.7396 0.0371
O2 O 0.7255(6) 0.5957(5) 0.1306(2)
O3 O 0.7222(6) 0.3409(5) 0.4098(2)
H10 H 0.6703 0.3073 0.4560
O4 O 1.0069(6) 0.2941(6) 0.4653(2)
C11 C 0.8967(7) 0.6270(6) 0.1321(3)
C12 C 1.0110(6) 0.5765(5) 0.2024(3)
C13 C 1.2038(7) 0.6166(6) 0.2056(3)
H11 H 1.2694 0.6727 0.1605
C14 C 1.2987(7) 0.5754(6) 0.2735(3)
H12 H 1.4264 0.6058 0.2751
C15 C 1.2062(7) 0.4887(6) 0.3400(3)
H13 H 1.2721 0.4597 0.3861
C16 C 1.0141(6) 0.4447(5) 0.3378(3)
C17 C 0.9189(6) 0.4878(5) 0.2695(2)
H14 H 0.7912 0.4574 0.2677
C18 C 0.9164(7) 0.3505(6) 0.4099(3)
loop_
_geom_bond_atom_site_label_1
_geom_bond_atom_site_label_2
_geom_bond_site_symmetry_1
_geom_bond_site_symmetry_2
S1 C3 1_555 1_555
N1 C1 1_555 1_555
N2 C7 1_555 1_555
C1 H1 1_555 1_555
C2 C1 1_555 1_555
H2 C2 1_555 1_555
C3 C2 1_555 1_555
C4 C3 1_555 1_555
H3 C4 1_555 1_555
C5 N1 1_555 1_555
H4 C5 1_555 1_555
C6 H5 1_555 1_555
C7 C6 1_555 1_555
H6 C7 1_555 1_555
C8 N2 1_555 1_555
H7 C8 1_555 1_555
C9 C8 1_555 1_555
H8 C9 1_555 1_555
C10 S1 1_555 1_555
O1 H9 1_555 1_555
O2 C11 1_555 1_555
O3 H10 1_555 1_555
O4 C18 1_555 1_555
C11 O1 1_555 1_555
C12 C11 1_555 1_555
C13 C12 1_555 1_555
H11 C13 1_555 1_555
C14 C13 1_555 1_555
H12 C14 1_555 1_555
C15 C14 1_555 1_555
H13 C15 1_555 1_555
C16 C15 1_555 1_555
C17 C12 1_555 1_555
H14 C17 1_555 1_555
C18 O3 1_555 1_555
C4 C5 1_555 1_555
C6 C10 1_555 1_555
C9 C10 1_555 1_555
C16 C17 1_555 1_555
C16 C18 1_555 1_555

#END
