
#######################################################################
#
#                 Cambridge Crystallographic Data Centre
#                                CCDC 
#
#######################################################################
#
# If this CIF has been generated from an entry in the Cambridge 
# Structural Database, then it will include bibliographic, chemical, 
# crystal, experimental, refinement or atomic coordinate data resulting 
# from the CCDC's data processing and validation procedures.
#
#######################################################################

data_VOHZOI
_chemical_formula_moiety         'C13 H9 N5 O6'
_chemical_name_systematic        
N-(2,4-Dinitrophenyl)-N'-(nitro(phenyl)methylene)hydrazine
_symmetry_cell_setting           orthorhombic
_symmetry_space_group_name_H-M   'P b c a'
_symmetry_Int_Tables_number      61
_space_group_name_Hall           '-P 2ac 2ab'
loop_
_symmetry_equiv_pos_site_id
_symmetry_equiv_pos_as_xyz
1 x,y,z
2 1/2-x,-y,1/2+z
3 -x,1/2+y,1/2-z
4 1/2+x,1/2-y,-z
5 -x,-y,-z
6 1/2+x,y,1/2-z
7 x,1/2-y,1/2+z
8 1/2-x,1/2+y,z
_cell_length_a                   6.97900(10)
_cell_length_b                   13.469(2)
_cell_length_c                   29.448(8)
_cell_angle_alpha                90
_cell_angle_beta                 90
_cell_angle_gamma                90
_cell_volume                     2768.12
_exptl_crystal_colour            yellow
_exptl_crystal_description       prism
_cell_formula_units_Z            8
loop_
_atom_site_label
_atom_site_type_symbol
_atom_site_fract_x
_atom_site_fract_y
_atom_site_fract_z
O1 O 0.2792(2) 0.72703(10) 0.26225(4)
O2 O 0.4128(2) 0.58358(10) 0.27056(4)
O3 O 0.5250(2) 0.37214(9) 0.30832(4)
O4 O 0.5513(2) 0.23410(9) 0.34501(4)
O5 O 0.7770(3) 0.22039(11) 0.49622(4)
O6 O 0.8082(2) 0.35414(10) 0.53534(4)
N1 N 0.5194(2) 0.63895(10) 0.35787(5)
N2 N 0.5362(2) 0.54088(11) 0.35121(5)
N3 N 0.3764(3) 0.66797(13) 0.28337(5)
N4 N 0.5574(2) 0.32486(12) 0.34320(5)
N5 N 0.7673(3) 0.31066(14) 0.50021(5)
C1 C 0.3799(3) 0.82777(13) 0.38520(6)
H1 H 0.3459 0.7770 0.4050
C2 C 0.3749(3) 0.92498(14) 0.39969(6)
H2 H 0.3372 0.9394 0.4293
C3 C 0.4251(3) 1.00085(14) 0.37089(6)
H3 H 0.4223 1.0663 0.3810
C4 C 0.4797(3) 0.97942(14) 0.32689(6)
H4 H 0.5137 1.0307 0.3073
C5 C 0.4842(3) 0.88204(14) 0.31166(6)
H5 H 0.5195 0.8682 0.2819
C6 C 0.4359(3) 0.80519(13) 0.34096(6)
C7 C 0.4514(3) 0.69945(13) 0.32858(6)
C8 C 0.5928(3) 0.48344(13) 0.38722(6)
C9 C 0.6383(3) 0.52778(13) 0.42912(6)
H6 H 0.6295 0.5964 0.4322
C10 C 0.6953(3) 0.47186(14) 0.46549(6)
H7 H 0.7271 0.5023 0.4928
C11 C 0.7052(3) 0.37003(14) 0.46136(6)
C12 C 0.6595(3) 0.32304(13) 0.42157(6)
H8 H 0.6654 0.2542 0.4194
C13 C 0.6048(3) 0.37961(13) 0.38483(6)
H9 H 0.508(2) 0.5131(11) 0.3244(5)
loop_
_geom_bond_atom_site_label_1
_geom_bond_atom_site_label_2
_geom_bond_site_symmetry_1
_geom_bond_site_symmetry_2
O1 N3 1_555 1_555
O2 N3 1_555 1_555
O3 N4 1_555 1_555
O4 N4 1_555 1_555
O5 N5 1_555 1_555
O6 N5 1_555 1_555
N1 N2 1_555 1_555
N2 C8 1_555 1_555
N3 C7 1_555 1_555
N4 C13 1_555 1_555
N5 C11 1_555 1_555
C1 H1 1_555 1_555
C2 C1 1_555 1_555
H2 C2 1_555 1_555
C3 C2 1_555 1_555
H3 C3 1_555 1_555
C4 C3 1_555 1_555
H4 C4 1_555 1_555
C5 C4 1_555 1_555
H5 C5 1_555 1_555
C6 C1 1_555 1_555
C7 N1 1_555 1_555
C8 C9 1_555 1_555
C9 H6 1_555 1_555
C10 C9 1_555 1_555
H7 C10 1_555 1_555
C11 C10 1_555 1_555
C12 C11 1_555 1_555
H8 C12 1_555 1_555
C13 C8 1_555 1_555
H9 N2 1_555 1_555
C5 C6 1_555 1_555
C6 C7 1_555 1_555
C12 C13 1_555 1_555

#END
