
#######################################################################
#
#                 Cambridge Crystallographic Data Centre
#                                CCDC 
#
#######################################################################
#
# If this CIF has been generated from an entry in the Cambridge 
# Structural Database, then it will include bibliographic, chemical, 
# crystal, experimental, refinement or atomic coordinate data resulting 
# from the CCDC's data processing and validation procedures.
#
#######################################################################

data_VOHZIC
_chemical_formula_moiety         'C16 H16 N2 O5 S1'
_chemical_name_systematic        
'Methyl 4-(4-methylbenzamido)-2-sulfamoylbenzoate'
_chemical_properties_biological  'potent fungicide'
_symmetry_cell_setting           triclinic
_symmetry_space_group_name_H-M   'P -1'
_symmetry_Int_Tables_number      2
_space_group_name_Hall           '-P 1'
loop_
_symmetry_equiv_pos_site_id
_symmetry_equiv_pos_as_xyz
1 x,y,z
2 -x,-y,-z
_cell_length_a                   9.1968(16)
_cell_length_b                   11.078(2)
_cell_length_c                   15.914(3)
_cell_angle_alpha                75.894(3)
_cell_angle_beta                 87.124(3)
_cell_angle_gamma                84.123(3)
_cell_volume                     1563.66
_exptl_crystal_colour            colorless
_exptl_crystal_description       club
_cell_formula_units_Z            4
_exptl_crystal_recrystallization_method 'ethyl acetate/petroleum ether'
loop_
_atom_site_label
_atom_site_type_symbol
_atom_site_fract_x
_atom_site_fract_y
_atom_site_fract_z
S1 S 0.48593(7) 0.28763(6) 0.70812(4)
O1 O 0.1820(2) 0.58510(18) 1.01610(12)
O2 O 0.59114(19) 0.21940(18) 0.76916(12)
O3 O 0.5328(2) 0.36685(19) 0.62914(12)
O4 O 0.2127(2) 0.40235(19) 0.58979(12)
O5 O 0.1961(2) 0.60599(18) 0.58636(12)
N1 N 0.3212(3) 0.4194(2) 0.98482(14)
N2 N 0.3947(3) 0.1860(2) 0.68291(16)
C1 C 0.3070(3) 0.4445(2) 1.13223(16)
C2 C 0.2253(3) 0.4934(3) 1.19400(18)
H1 H 0.1469 0.5530 1.1770
C3 C 0.2596(3) 0.4544(3) 1.28001(18)
H2 H 0.2023 0.4876 1.3203
C4 C 0.3756(3) 0.3677(3) 1.30870(17)
C5 C 0.4579(3) 0.3219(3) 1.24656(19)
H3 H 0.5386 0.2646 1.2633
C6 C 0.4239(3) 0.3587(3) 1.16056(18)
H4 H 0.4811 0.3249 1.1205
C7 C 0.4133(4) 0.3275(3) 1.40279(18)
H5 H 0.3940 0.2419 1.4253
H6 H 0.3551 0.3793 1.4345
H7 H 0.5150 0.3354 1.4087
C8 C 0.2647(3) 0.4900(2) 1.04024(16)
C9 C 0.2944(3) 0.4394(2) 0.89600(16)
C10 C 0.3841(3) 0.3679(2) 0.84935(16)
H8 H 0.4578 0.3106 0.8773
C11 C 0.3642(3) 0.3814(2) 0.76245(16)
C12 C 0.2557(3) 0.4688(2) 0.71804(16)
C13 C 0.1686(3) 0.5392(3) 0.76606(17)
H9 H 0.0970 0.5987 0.7379
C14 C 0.1844(3) 0.5242(3) 0.85342(17)
H10 H 0.1218 0.5706 0.8839
C15 C 0.2222(3) 0.4858(3) 0.62516(17)
C16 C 0.1575(4) 0.6338(3) 0.49659(19)
H11 H 0.2336 0.5978 0.4642
H12 H 0.1455 0.7227 0.4740
H13 H 0.0675 0.5993 0.4918
H27 H 0.382(3) 0.3537(18) 1.0090(17)
H28 H 0.374(3) 0.1235(19) 0.7272(12)
H29 H 0.319(2) 0.222(2) 0.6504(14)
S2 S 0.64701(7) 1.09651(6) 1.08377(4)
O6 O 0.9616(2) 0.79515(19) 0.78099(12)
O7 O 0.55730(19) 1.17378(17) 1.01674(11)
O8 O 0.57554(19) 1.02353(17) 1.15791(11)
O9 O 0.8735(2) 0.96320(19) 1.21207(12)
O10 O 0.9933(2) 0.78427(19) 1.20227(12)
N3 N 0.7773(2) 0.9255(2) 0.81909(14)
N4 N 0.7427(2) 1.1888(2) 1.11465(16)
C17 C 0.8123(3) 0.9163(3) 0.66853(17)
C18 C 0.7012(3) 1.0074(3) 0.63916(19)
H14 H 0.6432 1.0407 0.6791
C19 C 0.6733(3) 1.0506(3) 0.55252(19)
H15 H 0.5980 1.1132 0.5353
C20 C 0.7543(3) 1.0035(3) 0.49037(18)
C21 C 0.8621(4) 0.9087(3) 0.51993(19)
H16 H 0.9166 0.8727 0.4800
C22 C 0.8920(3) 0.8655(3) 0.60655(18)
H17 H 0.9661 0.8017 0.6239
C23 C 0.7282(4) 1.0553(3) 0.39532(18)
H18 H 0.6304 1.0431 0.3829
H19 H 0.7967 1.0128 0.3623
H20 H 0.7408 1.1430 0.3801
C24 C 0.8570(3) 0.8714(3) 0.76026(17)
C25 C 0.8069(3) 0.9098(2) 0.90663(16)
C26 C 0.7350(3) 0.9965(2) 0.94941(16)
H21 H 0.6692 1.0599 0.9195
C27 C 0.7607(3) 0.9889(2) 1.03508(15)
C28 C 0.8636(3) 0.8951(2) 1.08109(16)
C29 C 0.9298(3) 0.8095(2) 1.03729(17)
H22 H 0.9963 0.7461 1.0665
C30 C 0.9014(3) 0.8142(2) 0.95255(16)
H23 H 0.9457 0.7531 0.9262
C31 C 0.9073(3) 0.8870(2) 1.17093(16)
C32 C 1.0496(3) 0.7699(3) 1.28726(18)
H24 H 1.0717 0.8498 1.2942
H25 H 1.1369 0.7134 1.2940
H26 H 0.9777 0.7371 1.3303
H30 H 0.700(2) 0.979(2) 0.8004(17)
H31 H 0.775(3) 1.2487(19) 1.0724(12)
H32 H 0.806(2) 1.151(2) 1.1556(13)
loop_
_geom_bond_atom_site_label_1
_geom_bond_atom_site_label_2
_geom_bond_site_symmetry_1
_geom_bond_site_symmetry_2
S1 O2 1_555 1_555
S2 O7 1_555 1_555
O1 C8 1_555 1_555
O3 S1 1_555 1_555
O4 C15 1_555 1_555
O5 C15 1_555 1_555
O6 C24 1_555 1_555
O8 S2 1_555 1_555
O9 C31 1_555 1_555
O10 C31 1_555 1_555
N1 C8 1_555 1_555
N2 S1 1_555 1_555
N3 C24 1_555 1_555
N4 S2 1_555 1_555
C1 C2 1_555 1_555
C2 H1 1_555 1_555
C3 C2 1_555 1_555
H2 C3 1_555 1_555
C4 C3 1_555 1_555
C5 C4 1_555 1_555
H3 C5 1_555 1_555
C6 C1 1_555 1_555
H4 C6 1_555 1_555
C7 C4 1_555 1_555
H5 C7 1_555 1_555
H6 C7 1_555 1_555
H7 C7 1_555 1_555
C8 C1 1_555 1_555
C9 N1 1_555 1_555
C10 C9 1_555 1_555
H8 C10 1_555 1_555
C11 S1 1_555 1_555
C12 C11 1_555 1_555
C13 C12 1_555 1_555
H9 C13 1_555 1_555
C14 C9 1_555 1_555
H10 C14 1_555 1_555
C15 C12 1_555 1_555
C16 O5 1_555 1_555
H11 C16 1_555 1_555
H12 C16 1_555 1_555
H13 C16 1_555 1_555
C17 C18 1_555 1_555
C18 H14 1_555 1_555
C19 C18 1_555 1_555
H15 C19 1_555 1_555
C20 C19 1_555 1_555
C21 C20 1_555 1_555
H16 C21 1_555 1_555
C22 C17 1_555 1_555
H17 C22 1_555 1_555
C23 C20 1_555 1_555
H18 C23 1_555 1_555
H19 C23 1_555 1_555
H20 C23 1_555 1_555
C24 C17 1_555 1_555
C25 N3 1_555 1_555
C26 C25 1_555 1_555
H21 C26 1_555 1_555
C27 S2 1_555 1_555
C28 C27 1_555 1_555
C29 C28 1_555 1_555
H22 C29 1_555 1_555
C30 C25 1_555 1_555
H23 C30 1_555 1_555
C31 C28 1_555 1_555
C32 O10 1_555 1_555
H24 C32 1_555 1_555
H25 C32 1_555 1_555
H26 C32 1_555 1_555
H27 N1 1_555 1_555
H28 N2 1_555 1_555
H29 N2 1_555 1_555
H30 N3 1_555 1_555
H31 N4 1_555 1_555
H32 N4 1_555 1_555
C5 C6 1_555 1_555
C10 C11 1_555 1_555
C13 C14 1_555 1_555
C21 C22 1_555 1_555
C26 C27 1_555 1_555
C29 C30 1_555 1_555

#END
