
#######################################################################
#
#                 Cambridge Crystallographic Data Centre
#                                CCDC 
#
#######################################################################
#
# If this CIF has been generated from an entry in the Cambridge 
# Structural Database, then it will include bibliographic, chemical, 
# crystal, experimental, refinement or atomic coordinate data resulting 
# from the CCDC's data processing and validation procedures.
#
#######################################################################

data_VOHZOJ
_chemical_formula_moiety         'C21 H20 N2 O3'
_chemical_name_systematic        
't-Butyl 1-(2,2-dicyano-1-(4-methylphenyl)vinyl)-2-oxocyclopent-3-ene-1-carboxylate'
_symmetry_cell_setting           monoclinic
_symmetry_space_group_name_H-M   'P 21/c'
_symmetry_Int_Tables_number      14
_space_group_name_Hall           '-P 2ybc'
loop_
_symmetry_equiv_pos_site_id
_symmetry_equiv_pos_as_xyz
1 x,y,z
2 -x,1/2+y,1/2-z
3 -x,-y,-z
4 x,1/2-y,1/2+z
_cell_length_a                   11.864(2)
_cell_length_b                   9.1245(16)
_cell_length_c                   17.660(3)
_cell_angle_alpha                90
_cell_angle_beta                 96.606(5)
_cell_angle_gamma                90
_cell_volume                     1899.06
_exptl_crystal_colour            colorless
_exptl_crystal_description       prismatic
_cell_formula_units_Z            4
loop_
_atom_site_label
_atom_site_type_symbol
_atom_site_fract_x
_atom_site_fract_y
_atom_site_fract_z
N1 N 0.5492(3) -0.1540(3) 0.07258(17)
N2 N 0.6702(4) 0.2603(5) 0.1382(4)
O1 O 0.4706(2) 0.3507(3) 0.24473(14)
O2 O 0.1649(2) 0.3982(3) 0.14533(15)
O3 O 0.2403(2) 0.2143(2) 0.21915(12)
C1 C 0.4334(3) 0.3913(3) 0.18211(19)
C2 C 0.4525(3) 0.5295(4) 0.1451(2)
H1 H 0.4950 0.6068 0.1678
C3 C 0.4016(3) 0.5305(4) 0.0753(2)
H2 H 0.4043 0.6103 0.0427
C4 C 0.3389(3) 0.3933(3) 0.05233(18)
H3 H 0.3736 0.3425 0.0127
H4 H 0.2603 0.4140 0.0340
C5 C 0.3479(3) 0.3018(3) 0.12610(16)
C6 C 0.3829(3) 0.1435(3) 0.11362(15)
C7 C 0.4914(3) 0.1013(3) 0.11564(18)
C8 C 0.5208(3) -0.0440(3) 0.09292(18)
C9 C 0.5897(4) 0.1938(4) 0.1296(3)
C10 C 0.2932(3) 0.0334(3) 0.09158(16)
C11 C 0.2853(3) -0.0925(3) 0.13481(19)
H5 H 0.3331 -0.1054 0.1799
C12 C 0.2059(3) -0.1990(3) 0.1106(2)
H6 H 0.2003 -0.2819 0.1405
C13 C 0.1353(3) -0.1856(4) 0.0436(2)
C14 C 0.1440(3) -0.0592(4) 0.0021(2)
H7 H 0.0970 -0.0474 -0.0434
C15 C 0.2199(3) 0.0503(4) 0.02566(19)
H8 H 0.2217 0.1357 -0.0029
C16 C 0.0546(4) -0.3064(4) 0.0154(3)
H9 H 0.0861 -0.3611 -0.0236
H10 H -0.0166 -0.2646 -0.0052
H11 H 0.0430 -0.3704 0.0569
C17 C 0.2375(3) 0.3098(3) 0.16314(18)
C18 C 0.1490(3) 0.2063(4) 0.2699(2)
C19 C 0.1882(5) 0.0817(6) 0.3217(3)
H12 H 0.1953 -0.0052 0.2920
H13 H 0.1339 0.0650 0.3571
H14 H 0.2604 0.1054 0.3492
C20 C 0.0375(4) 0.1771(7) 0.2234(3)
H15 H 0.0148 0.2621 0.1934
H16 H -0.0188 0.1554 0.2567
H17 H 0.0451 0.0952 0.1903
C21 C 0.1492(4) 0.3463(5) 0.3142(2)
H18 H 0.2224 0.3603 0.3426
H19 H 0.0924 0.3414 0.3487
H20 H 0.1328 0.4268 0.2797
loop_
_geom_bond_atom_site_label_1
_geom_bond_atom_site_label_2
_geom_bond_site_symmetry_1
_geom_bond_site_symmetry_2
N1 C8 1_555 1_555
N2 C9 1_555 1_555
O1 C1 1_555 1_555
O2 C17 1_555 1_555
O3 C17 1_555 1_555
C1 C2 1_555 1_555
C2 H1 1_555 1_555
C3 C2 1_555 1_555
H2 C3 1_555 1_555
C4 C3 1_555 1_555
H3 C4 1_555 1_555
H4 C4 1_555 1_555
C5 C1 1_555 1_555
C6 C5 1_555 1_555
C7 C6 1_555 1_555
C8 C7 1_555 1_555
C9 C7 1_555 1_555
C10 C6 1_555 1_555
C11 C10 1_555 1_555
H5 C11 1_555 1_555
C12 C11 1_555 1_555
H6 C12 1_555 1_555
C13 C12 1_555 1_555
C14 C13 1_555 1_555
H7 C14 1_555 1_555
C15 C10 1_555 1_555
H8 C15 1_555 1_555
C16 C13 1_555 1_555
H9 C16 1_555 1_555
H10 C16 1_555 1_555
H11 C16 1_555 1_555
C17 C5 1_555 1_555
C18 O3 1_555 1_555
C19 C18 1_555 1_555
H12 C19 1_555 1_555
H13 C19 1_555 1_555
H14 C19 1_555 1_555
C20 C18 1_555 1_555
H15 C20 1_555 1_555
H16 C20 1_555 1_555
H17 C20 1_555 1_555
C21 C18 1_555 1_555
H18 C21 1_555 1_555
H19 C21 1_555 1_555
H20 C21 1_555 1_555
C4 C5 1_555 1_555
C14 C15 1_555 1_555

#END
