
#######################################################################
#
#                 Cambridge Crystallographic Data Centre
#                                CCDC 
#
#######################################################################
#
# If this CIF has been generated from an entry in the Cambridge 
# Structural Database, then it will include bibliographic, chemical, 
# crystal, experimental, refinement or atomic coordinate data resulting 
# from the CCDC's data processing and validation procedures.
#
#######################################################################

data_VOJBAZ
_chemical_compound_source        
'fermentation of fungus Stemphylium sp. 33231 from the mangrove Bruguiera sexangula var. rhynchopetala'
_chemical_name_common            
'Alterporriol A alterporriol B dimethyl sulfoxide solvate hexahydrate'
_chemical_formula_moiety         '2(C32 H26 O13),3(C2 H6 O1 S1),6(H2 O1)'
_chemical_name_systematic        
"(aS,5'S,6R,7S,8R)-4,4',5,6,6',7,8-heptahydroxy-2,2'-dimethoxy-7,7'-dimethyl-5,6,7,8-tetrahydro-1,1'-bianthracene-9,9',10,10'-tetrone (aR,5'S,6R,7S,8R)-4,4',5,6,6',7,8-heptahydroxy-2,2'-dimethoxy-7,7'-dimethyl-5,6,7,8-tetrahydro-1,1'-bianthracene-9,9',10,10'-tetrone dimethyl sulfoxide solvate hexahydrate"
_chemical_properties_biological  'antimicrobial activity'
_symmetry_cell_setting           triclinic
_symmetry_space_group_name_H-M   'P 1'
_symmetry_Int_Tables_number      1
_space_group_name_Hall           'P 1'
loop_
_symmetry_equiv_pos_site_id
_symmetry_equiv_pos_as_xyz
1 x,y,z
_cell_length_a                   9.18695(15)
_cell_length_b                   9.48126(17)
_cell_length_c                   21.1713(3)
_cell_angle_alpha                82.3800(14)
_cell_angle_beta                 83.5029(13)
_cell_angle_gamma                79.8305(14)
_cell_volume                     1791.47
_cell_formula_units_Z            1
loop_
_atom_site_label
_atom_site_type_symbol
_atom_site_fract_x
_atom_site_fract_y
_atom_site_fract_z
S1 S 0.28421(9) 0.91338(8) 1.42155(4)
O1 O 0.1333(3) 0.9655(3) 1.45344(12)
C1 C 0.4138(4) 0.9731(4) 1.46402(18)
H1 H 0.3857 1.0770 1.4665
H2 H 0.5133 0.9536 1.4416
H3 H 0.4138 0.9217 1.5073
C2 C 0.3039(4) 1.0313(4) 1.34926(18)
H4 H 0.2334 1.0173 1.3201
H5 H 0.4054 1.0098 1.3290
H6 H 0.2838 1.1315 1.3589
S2 S 0.64863(9) 0.48978(8) 1.99001(4)
O2 O 0.8068(3) 0.4167(3) 1.97703(13)
C3 C 0.5640(4) 0.4972(4) 1.91733(17)
H7 H 0.6020 0.5696 1.8853
H8 H 0.4561 0.5235 1.9255
H9 H 0.5876 0.4026 1.9014
C4 C 0.5493(5) 0.3585(4) 2.0350(2)
H10 H 0.5683 0.2704 2.0138
H11 H 0.4427 0.3965 2.0377
H12 H 0.5822 0.3365 2.0782
O3 O 0.2842(2) 1.1531(2) 1.68227(9)
H13 H 0.3288 1.1126 1.6509
O4 O 0.4572(2) 0.9513(2) 1.62932(9)
O5 O 0.8410(2) 0.5197(2) 1.58159(9)
H14 H 0.7818 0.5470 1.5533
C5 C 0.3862(3) 0.7593(3) 2.07510(13)
O6 O 0.3560(2) 1.2085(2) 1.89539(9)
C6 C 0.5498(3) 0.9496(3) 1.79266(13)
O7 O 0.7402(2) 0.7858(2) 1.84375(9)
O8 O 0.7536(2) 1.1270(2) 1.85640(9)
C7 C 0.4760(3) 0.9901(3) 1.73581(13)
C8 C 0.5076(3) 1.0234(3) 1.84531(12)
O9 O 0.7622(2) 0.9742(2) 2.07867(9)
H15 H 0.7064 0.9431 2.1097
C9 C 0.5777(3) 0.9913(3) 1.90706(12)
C10 C 0.6845(3) 0.7147(3) 1.62937(12)
H16 H 0.6354 0.7447 1.5915
C11 C 0.5799(3) 0.9067(3) 2.02100(12)
C12 C 0.7157(3) 0.7456(3) 1.73818(12)
C13 C 0.6424(3) 0.7895(3) 1.68231(13)
C14 C 0.3892(3) 1.1421(3) 1.84173(13)
C15 C 0.8735(3) 0.5521(3) 1.68690(13)
C16 C 0.6744(3) 0.8236(3) 1.79523(12)
C17 C 0.7980(3) 0.5963(3) 1.63132(13)
C18 C 0.3159(3) 1.1827(3) 1.78720(13)
H17 H 0.2363 1.2616 1.7857
C19 C 0.5202(3) 0.9139(3) 1.67941(13)
C20 C 0.8305(3) 0.6278(3) 1.73895(13)
H18 H 0.8806 0.5989 1.7766
C21 C 0.7052(3) 1.0543(3) 1.91145(12)
C22 C 0.3173(3) 0.7797(3) 2.02139(13)
C23 C 0.5170(3) 0.9182(3) 1.96206(13)
O10 O 0.2067(2) 0.5976(2) 1.98700(10)
H19 H 0.1399 0.5968 1.9631
C24 C 0.7022(3) 0.9727(3) 2.02363(13)
O11 O 0.1349(3) 0.5659(3) 2.19178(11)
H20 H 0.1034 0.4873 2.1937
C25 C 0.3596(3) 1.1069(3) 1.73450(12)
O12 O 0.3180(2) 0.8632(2) 1.91250(10)
C26 C 0.3789(3) 0.8558(3) 1.96158(13)
O13 O 0.5608(2) 0.8313(2) 2.13184(10)
C27 C 0.2373(4) 1.3297(3) 1.89594(15)
H21 H 0.2605 1.4054 1.8620
H22 H 0.2259 1.3672 1.9375
H23 H 0.1447 1.2990 1.8887
C28 C 0.5155(3) 0.8310(3) 2.07865(13)
C29 C 0.8851(3) 1.1908(3) 1.85616(14)
H24 H 0.9073 1.2416 1.8137
H25 H 0.9691 1.1150 1.8665
H26 H 0.8684 1.2593 1.8881
C30 C 0.7686(3) 1.0428(3) 1.96891(14)
H27 H 0.8559 1.0822 1.9708
O14 O 0.0604(2) 0.8351(2) 2.10995(11)
H28 H -0.0286 0.8708 2.1051
C31 C 0.3353(3) 0.6705(3) 2.13647(14)
H29 H 0.3094 0.7335 2.1717
O15 O 0.4570(2) 0.5585(2) 2.15242(10)
H30 H 0.5157 0.5913 2.1721
C32 C 0.9960(3) 0.4235(3) 1.68773(14)
H31 H 0.9534 0.3356 1.6881
H32 H 1.0484 0.4167 1.7261
H33 H 1.0658 0.4346 1.6495
C33 C 0.1729(3) 0.7247(3) 2.01868(14)
H34 H 0.1062 0.7995 1.9927
C34 C 0.2033(4) 0.6002(3) 2.12898(14)
H35 H 0.2402 0.5086 2.1095
C35 C 0.0947(3) 0.6974(3) 2.08591(15)
C36 C -0.0447(4) 0.6333(4) 2.08345(16)
H36 H -0.0953 0.6203 2.1266
H37 H -0.0175 0.5396 2.0668
H38 H -0.1112 0.6985 2.0554
O16 O 0.6884(2) 0.2545(2) 1.72337(9)
H39 H 0.6483 0.3011 1.7536
O17 O 0.5156(2) 0.4559(2) 1.77655(9)
O18 O 0.2288(2) 0.2762(2) 1.54797(9)
O19 O 0.6268(2) 0.2064(2) 1.50788(9)
O20 O 0.2353(3) 0.6229(3) 1.56226(10)
O21 O 0.1188(2) 0.8820(2) 1.82570(10)
H40 H 0.1777 0.8570 1.8543
C37 C 0.4971(3) 0.4184(3) 1.66972(12)
C38 C 0.4701(3) 0.3890(3) 1.55892(12)
O22 O 0.1864(2) 0.4677(2) 1.33054(9)
H41 H 0.2230 0.5253 1.3021
C39 C 0.1685(3) 0.8074(3) 1.77493(13)
C40 C 0.3797(3) 0.5244(3) 1.38590(12)
C41 C 0.4384(3) 0.6082(3) 1.32989(13)
C42 C 0.2027(3) 0.3725(3) 1.43771(13)
H42 H 0.1196 0.3265 1.4360
C43 C 0.3298(3) 0.6181(3) 1.72369(12)
C44 C 0.3975(3) 0.4220(3) 1.49799(12)
C45 C 0.2722(3) 0.3562(3) 1.49356(13)
C46 C 0.2844(3) 0.6913(3) 1.77723(13)
H43 H 0.3328 0.6620 1.8153
C47 C 0.2559(3) 0.4571(3) 1.38399(13)
C48 C 0.3014(3) 0.5851(3) 1.61042(13)
C49 C 0.4493(3) 0.5061(3) 1.44450(12)
C50 C 0.0961(3) 0.8541(3) 1.71862(13)
C51 C 0.6597(3) 0.2280(3) 1.61757(13)
H44 H 0.7388 0.1486 1.6191
C52 C 0.2588(3) 0.6611(3) 1.66716(12)
C53 C 0.4533(3) 0.4940(3) 1.72602(13)
C54 C 0.5889(3) 0.2701(3) 1.56231(13)
O23 O 0.6193(2) 0.5964(2) 1.49783(9)
C55 C 0.1422(3) 0.7795(3) 1.66623(13)
H45 H 0.0936 0.8091 1.6282
C56 C 0.6390(3) 0.6574(3) 1.38674(12)
O24 O 0.8412(3) 0.8528(3) 1.21590(10)
H46 H 0.8717 0.8028 1.1857
C57 C 0.6155(3) 0.3015(3) 1.67117(12)
O25 O 0.3695(2) 0.6433(2) 1.28139(9)
C58 C 0.5711(3) 0.5859(3) 1.44707(13)
C59 C 0.5818(3) 0.6583(3) 1.33069(12)
O26 O 0.6778(2) 0.5998(2) 1.22598(9)
O27 O 0.8953(2) 0.6151(2) 1.40283(11)
H47 H 0.9628 0.6496 1.4161
C60 C 0.4253(3) 0.4606(3) 1.61256(12)
C61 C 0.0932(3) 0.2177(3) 1.55004(14)
H48 H 0.1051 0.1485 1.5186
H49 H 0.0113 0.2961 1.5400
H50 H 0.0712 0.1689 1.5929
C62 C -0.0258(3) 0.9822(3) 1.71685(13)
H51 H -0.0975 0.9711 1.7544
H52 H -0.0760 0.9893 1.6778
H53 H 0.0164 1.0701 1.7172
C63 C 0.6574(3) 0.7115(3) 1.26703(12)
H54 H 0.5890 0.7957 1.2473
O28 O 0.6736(3) 0.9457(2) 1.33566(12)
H55 H 0.6960 1.0232 1.3163
C64 C 0.8011(3) 0.8341(3) 1.33267(13)
C65 C 0.7391(4) 0.0790(3) 1.50954(15)
H56 H 0.7594 0.0469 1.4668
H57 H 0.7039 0.0022 1.5400
H58 H 0.8304 0.1012 1.5230
C66 C 0.7709(3) 0.7266(3) 1.39197(13)
H59 H 0.7494 0.7812 1.4302
C67 C 0.8043(3) 0.7611(3) 1.27223(13)
C68 C 0.9434(3) 0.8923(3) 1.33468(14)
H60 H 0.9557 0.9646 1.2977
H61 H 1.0278 0.8132 1.3334
H62 H 0.9388 0.9368 1.3742
H63 H 0.734(4) 0.527(3) 1.242(2)
H64 H 0.868(4) 0.685(4) 1.2733(16)
S3 S 0.09125(19) 1.14444(15) 2.17619(8)
O29 O 0.1058(5) 1.2741(4) 2.2098(2)
C69 C -0.0341(11) 1.1988(11) 2.1143(5)
H65 H -0.0258 1.2974 2.0953
H66 H -0.1362 1.1952 2.1329
H67 H -0.0083 1.1332 2.0812
C70 C 0.2537(13) 1.1347(12) 2.1135(5)
H68 H 0.2432 1.2229 2.0834
H69 H 0.2568 1.0511 2.0904
H70 H 0.3459 1.1250 2.1341
O30 O 0.9899(3) 0.5964(3) 1.90893(11)
O31 O 0.9840(3) 0.7436(3) 1.49454(12)
O32 O 0.4183(5) 0.2948(5) 2.2155(3)
O33 O 0.8403(5) 0.3434(5) 2.2787(2)
O35 O 0.8501(5) 0.3403(5) 2.4065(3)
O36 O 0.6896(6) 1.1519(5) 2.2384(2)
S4? S 0.1380(8) 1.2289(6) 2.1398(4)
C71? C 0.228(4) 1.051(2) 2.1698(19)
H71? H 0.2702 0.9973 2.1337
H72? H 0.1546 0.9995 2.1962
H73? H 0.3069 1.0597 2.1957
C72? C -0.059(2) 1.184(4) 2.1553(19)
H74? H -0.1294 1.2675 2.1392
H75? H -0.0825 1.1606 2.2013
H76? H -0.0648 1.1012 2.1331
O34? O 0.8787(9) 0.4016(8) 2.3091(4)
O37? O 0.6550(9) 0.2286(8) 2.3513(5)
loop_
_geom_bond_atom_site_label_1
_geom_bond_atom_site_label_2
_geom_bond_site_symmetry_1
_geom_bond_site_symmetry_2
S1 O1 1_555 1_555
C1 S1 1_555 1_555
H1 C1 1_555 1_555
H2 C1 1_555 1_555
H3 C1 1_555 1_555
C2 S1 1_555 1_555
H4 C2 1_555 1_555
H5 C2 1_555 1_555
H6 C2 1_555 1_555
S2 O2 1_555 1_555
C3 S2 1_555 1_555
H7 C3 1_555 1_555
H8 C3 1_555 1_555
H9 C3 1_555 1_555
C4 S2 1_555 1_555
H10 C4 1_555 1_555
H11 C4 1_555 1_555
H12 C4 1_555 1_555
O3 H13 1_555 1_555
O4 C19 1_555 1_555
O5 H14 1_555 1_555
C5 C22 1_555 1_555
O6 C14 1_555 1_555
C6 C7 1_555 1_555
O7 C16 1_555 1_555
O8 C21 1_555 1_555
C7 C19 1_555 1_555
C8 C6 1_555 1_555
O9 H15 1_555 1_555
C9 C8 1_555 1_555
C10 H16 1_555 1_555
C11 C23 1_555 1_555
C12 C13 1_555 1_555
C13 C10 1_555 1_555
C14 C8 1_555 1_555
C15 C17 1_555 1_555
C16 C6 1_555 1_555
C17 O5 1_555 1_555
C18 C14 1_555 1_555
H17 C18 1_555 1_555
C19 C13 1_555 1_555
C20 C12 1_555 1_555
H18 C20 1_555 1_555
C21 C9 1_555 1_555
C22 C26 1_555 1_555
C23 C9 1_555 1_555
O10 H19 1_555 1_555
C24 O9 1_555 1_555
O11 H20 1_555 1_555
C25 O3 1_555 1_555
O12 C26 1_555 1_555
C26 C23 1_555 1_555
O13 C28 1_555 1_555
C27 O6 1_555 1_555
H21 C27 1_555 1_555
H22 C27 1_555 1_555
H23 C27 1_555 1_555
C28 C5 1_555 1_555
C29 O8 1_555 1_555
H24 C29 1_555 1_555
H25 C29 1_555 1_555
H26 C29 1_555 1_555
C30 C21 1_555 1_555
H27 C30 1_555 1_555
O14 H28 1_555 1_555
C31 C5 1_555 1_555
H29 C31 1_555 1_555
O15 C31 1_555 1_555
H30 O15 1_555 1_555
C32 C15 1_555 1_555
H31 C32 1_555 1_555
H32 C32 1_555 1_555
H33 C32 1_555 1_555
C33 C22 1_555 1_555
H34 C33 1_555 1_555
C34 O11 1_555 1_555
H35 C34 1_555 1_555
C35 O14 1_555 1_555
C36 C35 1_555 1_555
H36 C36 1_555 1_555
H37 C36 1_555 1_555
H38 C36 1_555 1_555
O16 H39 1_555 1_555
O17 C53 1_555 1_555
O18 C45 1_555 1_555
O19 C54 1_555 1_555
O20 C48 1_555 1_555
O21 H40 1_555 1_555
C37 C53 1_555 1_555
C38 C44 1_555 1_555
O22 H41 1_555 1_555
C39 O21 1_555 1_555
C40 C41 1_555 1_555
C41 O25 1_555 1_555
C42 H42 1_555 1_555
C43 C46 1_555 1_555
C44 C45 1_555 1_555
C45 C42 1_555 1_555
C46 C39 1_555 1_555
H43 C46 1_555 1_555
C47 O22 1_555 1_555
C48 C52 1_555 1_555
C49 C40 1_555 1_555
C50 C39 1_555 1_555
C51 H44 1_555 1_555
C52 C43 1_555 1_555
C53 C43 1_555 1_555
C54 C38 1_555 1_555
O23 C58 1_555 1_555
C55 C50 1_555 1_555
H45 C55 1_555 1_555
C56 C58 1_555 1_555
O24 H46 1_555 1_555
C57 O16 1_555 1_555
C58 C49 1_555 1_555
C59 C41 1_555 1_555
O26 C63 1_555 1_555
O27 H47 1_555 1_555
C60 C37 1_555 1_555
C61 O18 1_555 1_555
H48 C61 1_555 1_555
H49 C61 1_555 1_555
H50 C61 1_555 1_555
C62 C50 1_555 1_555
H51 C62 1_555 1_555
H52 C62 1_555 1_555
H53 C62 1_555 1_555
C63 C59 1_555 1_555
H54 C63 1_555 1_555
O28 H55 1_555 1_555
C64 O28 1_555 1_555
C65 O19 1_555 1_555
H56 C65 1_555 1_555
H57 C65 1_555 1_555
H58 C65 1_555 1_555
C66 C56 1_555 1_555
H59 C66 1_555 1_555
C67 O24 1_555 1_555
C68 C64 1_555 1_555
H60 C68 1_555 1_555
H61 C68 1_555 1_555
H62 C68 1_555 1_555
H63 O26 1_555 1_555
H64 C67 1_555 1_555
S3 O29 1_555 1_555
C69 S3 1_555 1_555
H65 C69 1_555 1_555
H66 C69 1_555 1_555
H67 C69 1_555 1_555
C70 S3 1_555 1_555
H68 C70 1_555 1_555
H69 C70 1_555 1_555
H70 C70 1_555 1_555
C7 C25 1_555 1_555
C10 C17 1_555 1_555
C11 C24 1_555 1_555
C11 C28 1_555 1_555
C12 C16 1_555 1_555
C15 C20 1_555 1_555
C18 C25 1_555 1_555
O10 C33 1_555 1_555
C24 C30 1_555 1_555
C31 C34 1_555 1_555
C33 C35 1_555 1_555
C34 C35 1_555 1_555
C37 C57 1_555 1_555
C38 C60 1_555 1_555
C40 C47 1_555 1_555
C42 C47 1_555 1_555
C44 C49 1_555 1_555
C48 C60 1_555 1_555
C51 C54 1_555 1_555
C51 C57 1_555 1_555
C52 C55 1_555 1_555
C56 C59 1_555 1_555
O27 C66 1_555 1_555
C63 C67 1_555 1_555
C64 C66 1_555 1_555
C64 C67 1_555 1_555

#END
