
#######################################################################
#
#                 Cambridge Crystallographic Data Centre
#                                CCDC 
#
#######################################################################
#
# If this CIF has been generated from an entry in the Cambridge 
# Structural Database, then it will include bibliographic, chemical, 
# crystal, experimental, refinement or atomic coordinate data resulting 
# from the CCDC's data processing and validation procedures.
#
#######################################################################

data_VOJDII
_chemical_formula_moiety         'C15 H13 Br1 N2 O2'
_chemical_name_systematic        
N'-((E)-1-(5-Bromo-2-hydroxyphenyl)ethylidene)benzohydrazide
_symmetry_cell_setting           monoclinic
_symmetry_space_group_name_H-M   'P 21/c'
_symmetry_Int_Tables_number      14
_space_group_name_Hall           '-P 2ybc'
loop_
_symmetry_equiv_pos_site_id
_symmetry_equiv_pos_as_xyz
1 x,y,z
2 -x,1/2+y,1/2-z
3 -x,-y,-z
4 x,1/2-y,1/2+z
_cell_length_a                   7.3761(15)
_cell_length_b                   28.270(6)
_cell_length_c                   8.6089(13)
_cell_angle_alpha                90
_cell_angle_beta                 116.928(12)
_cell_angle_gamma                90
_cell_volume                     1600.51
_exptl_crystal_colour            yellow
_exptl_crystal_description       block
_cell_formula_units_Z            4
_exptl_crystal_recrystallization_method DMF
loop_
_atom_site_label
_atom_site_type_symbol
_atom_site_fract_x
_atom_site_fract_y
_atom_site_fract_z
Br1 Br 0.81952(14) 1.00196(2) 0.69361(11)
O1 O 0.6647(7) 0.79484(14) 0.7321(5)
H1 H 0.6183 0.7820 0.6365
O2 O 0.3297(6) 0.70963(13) 0.4419(5)
N1 N 0.4384(6) 0.79657(14) 0.4079(5)
N2 N 0.3180(6) 0.76994(15) 0.2660(5)
H2 H 0.2720 0.7810 0.1620
C1 C 0.6935(8) 0.84139(19) 0.7143(6)
C2 C 0.6016(8) 0.86503(17) 0.5556(6)
C3 C 0.6426(8) 0.91292(19) 0.5540(7)
H3 H 0.5829 0.9294 0.4491
C4 C 0.7677(8) 0.9363(2) 0.7018(8)
C5 C 0.8592(10) 0.9132(2) 0.8592(8)
H4 H 0.9461 0.9293 0.9598
C6 C 0.8202(9) 0.8661(2) 0.8654(8)
H5 H 0.8789 0.8503 0.9716
C7 C 0.4633(7) 0.84066(17) 0.3902(6)
C8 C 0.2737(8) 0.72504(18) 0.2962(7)
C9 C 0.1524(8) 0.69622(19) 0.1385(7)
C10 C 0.0099(8) 0.7153(2) -0.0181(7)
H6 H -0.0132 0.7477 -0.0273
C11 C -0.0978(9) 0.6865(2) -0.1603(8)
H7 H -0.1931 0.6994 -0.2649
C12 C -0.0621(10) 0.6383(2) -0.1449(9)
H8 H -0.1335 0.6186 -0.2400
C13 C 0.0790(11) 0.6191(2) 0.0110(9)
H9 H 0.1027 0.5866 0.0200
C14 C 0.1832(9) 0.64743(19) 0.1507(7)
H10 H 0.2760 0.6342 0.2557
C15 C 0.3682(9) 0.86765(19) 0.2249(6)
H11 H 0.4673 0.8733 0.1836
H12 H 0.3186 0.8973 0.2445
H13 H 0.2571 0.8498 0.1395
loop_
_geom_bond_atom_site_label_1
_geom_bond_atom_site_label_2
_geom_bond_site_symmetry_1
_geom_bond_site_symmetry_2
Br1 C4 1_555 1_555
O1 H1 1_555 1_555
O2 C8 1_555 1_555
N1 N2 1_555 1_555
N2 H2 1_555 1_555
C1 O1 1_555 1_555
C2 C1 1_555 1_555
C3 C2 1_555 1_555
H3 C3 1_555 1_555
C4 C3 1_555 1_555
C5 C4 1_555 1_555
H4 C5 1_555 1_555
C6 C1 1_555 1_555
H5 C6 1_555 1_555
C7 N1 1_555 1_555
C8 N2 1_555 1_555
C9 C8 1_555 1_555
C10 C9 1_555 1_555
H6 C10 1_555 1_555
C11 C10 1_555 1_555
H7 C11 1_555 1_555
C12 C11 1_555 1_555
H8 C12 1_555 1_555
C13 C12 1_555 1_555
H9 C13 1_555 1_555
C14 C9 1_555 1_555
H10 C14 1_555 1_555
C15 C7 1_555 1_555
H11 C15 1_555 1_555
H12 C15 1_555 1_555
H13 C15 1_555 1_555
C2 C7 1_555 1_555
C5 C6 1_555 1_555
C13 C14 1_555 1_555

#END
