
#######################################################################
#
#                 Cambridge Crystallographic Data Centre
#                                CCDC 
#
#######################################################################
#
# If this CIF has been generated from an entry in the Cambridge 
# Structural Database, then it will include bibliographic, chemical, 
# crystal, experimental, refinement or atomic coordinate data resulting 
# from the CCDC's data processing and validation procedures.
#
#######################################################################

data_VOJFEG01
_chemical_formula_moiety         'C23 H30 N2 O2'
_chemical_name_systematic        
2,2'-(nonane-1,9-diylbis(nitrilomethylylidene))diphenol
_symmetry_cell_setting           monoclinic
_symmetry_space_group_name_H-M   'C 2/c'
_symmetry_Int_Tables_number      15
_space_group_name_Hall           '-C 2yn'
loop_
_symmetry_equiv_pos_site_id
_symmetry_equiv_pos_as_xyz
1 x,y,z
2 1/2+x,1/2+y,z
3 -x,y,1/2-z
4 1/2-x,1/2+y,1/2-z
5 -x,-y,-z
6 1/2-x,1/2-y,-z
7 x,-y,1/2+z
8 1/2+x,1/2-y,1/2+z
_cell_length_a                   43.6905(10)
_cell_length_b                   4.7258(1)
_cell_length_c                   9.8928(2)
_cell_angle_alpha                90
_cell_angle_beta                 96.935(2)
_cell_angle_gamma                90
_cell_volume                     2027.65
_cell_formula_units_Z            4
loop_
_atom_site_label
_atom_site_type_symbol
_atom_site_fract_x
_atom_site_fract_y
_atom_site_fract_z
O1 O 0.63065(3) 0.8920(3) 0.86876(12)
H1 H 0.6186(5) 0.787(5) 0.816(2)
N1 N 0.61425(3) 0.4953(3) 0.69663(13)
C1 C 0.66008(4) 0.8348(4) 0.84965(15)
C2 C 0.68388(4) 0.9845(4) 0.92417(17)
H2 H 0.67930 1.12510 0.98740
C3 C 0.71405(4) 0.9284(4) 0.90596(19)
H3 H 0.73020 1.03030 0.95770
C4 C 0.72134(4) 0.7262(4) 0.81367(19)
H4 H 0.74220 0.69160 0.80090
C5 C 0.69785(4) 0.5759(4) 0.74073(18)
H5 H 0.70270 0.43580 0.67790
C6 C 0.66712(4) 0.6252(3) 0.75711(15)
C7 C 0.64264(4) 0.4541(4) 0.68374(15)
H6 H 0.64800 0.30820 0.62490
C8 C 0.59137(4) 0.3110(4) 0.62109(16)
H7 H 0.57920 0.21400 0.68540
H8 H 0.60200 0.16490 0.57200
C9 C 0.56994(4) 0.4833(4) 0.51955(16)
H9 H 0.55900 0.62500 0.56960
H10 H 0.58240 0.58670 0.45840
C10 C 0.54637(4) 0.2996(4) 0.43422(16)
H11 H 0.53510 0.18450 0.49570
H12 H 0.55730 0.16830 0.37860
C11 C 0.52325(3) 0.4723(4) 0.34047(16)
H13 H 0.53470 0.59290 0.28180
H14 H 0.51190 0.59900 0.39680
C12 C 0.50000 0.2941(5) 0.25000
H15 H 0.48880 0.17070 0.30820
H15B H 0.51120 0.17070 0.19180
O1B O 0.36935(3) 0.8920(3) -0.36876(12)
H1B H 0.3814(5) 0.787(5) -0.316(2)
N1B N 0.38575(3) 0.4953(3) -0.19663(13)
C1B C 0.33992(4) 0.8348(4) -0.34965(15)
C2B C 0.31612(4) 0.9845(4) -0.42417(17)
H2B H 0.32070 1.12510 -0.48740
C3B C 0.28595(4) 0.9284(4) -0.40596(19)
H3B H 0.26980 1.03030 -0.45770
C4B C 0.27866(4) 0.7262(4) -0.31367(19)
H4B H 0.25780 0.69160 -0.30090
C5B C 0.30215(4) 0.5759(4) -0.24073(18)
H5B H 0.29730 0.43580 -0.17790
C6B C 0.33288(4) 0.6252(3) -0.25711(15)
C7B C 0.35736(4) 0.4541(4) -0.18374(15)
H6B H 0.35200 0.30820 -0.12490
C8B C 0.40863(4) 0.3110(4) -0.12109(16)
H7B H 0.42080 0.21400 -0.18540
H8B H 0.39800 0.16490 -0.07200
C9B C 0.43006(4) 0.4833(4) -0.01955(16)
H9B H 0.44100 0.62500 -0.06960
H10B H 0.41760 0.58670 0.04160
C10B C 0.45363(4) 0.2996(4) 0.06578(16)
H11B H 0.46490 0.18450 0.00430
H12B H 0.44270 0.16830 0.12140
C11B C 0.47675(3) 0.4723(4) 0.15953(16)
H13B H 0.46530 0.59290 0.21820
H14B H 0.48810 0.59900 0.10320
loop_
_geom_bond_atom_site_label_1
_geom_bond_atom_site_label_2
_geom_bond_site_symmetry_1
_geom_bond_site_symmetry_2
O1 H1 1_555 1_555
N1 C7 1_555 1_555
C1 O1 1_555 1_555
C2 C1 1_555 1_555
H2 C2 1_555 1_555
C3 C2 1_555 1_555
H3 C3 1_555 1_555
C4 C3 1_555 1_555
H4 C4 1_555 1_555
C5 C4 1_555 1_555
H5 C5 1_555 1_555
C6 C1 1_555 1_555
C7 C6 1_555 1_555
H6 C7 1_555 1_555
C8 N1 1_555 1_555
H7 C8 1_555 1_555
H8 C8 1_555 1_555
C9 C8 1_555 1_555
H9 C9 1_555 1_555
H10 C9 1_555 1_555
C10 C9 1_555 1_555
H11 C10 1_555 1_555
H12 C10 1_555 1_555
C11 C10 1_555 1_555
H13 C11 1_555 1_555
H14 C11 1_555 1_555
C12 C11 1_555 1_555
H15 C12 1_555 1_555
H15B C12 1_555 1_555
O1B H1B 1_555 1_555
N1B C7B 1_555 1_555
C1B O1B 1_555 1_555
C2B C1B 1_555 1_555
H2B C2B 1_555 1_555
C3B C2B 1_555 1_555
H3B C3B 1_555 1_555
C4B C3B 1_555 1_555
H4B C4B 1_555 1_555
C5B C4B 1_555 1_555
H5B C5B 1_555 1_555
C6B C1B 1_555 1_555
C7B C6B 1_555 1_555
H6B C7B 1_555 1_555
C8B N1B 1_555 1_555
H7B C8B 1_555 1_555
H8B C8B 1_555 1_555
C9B C8B 1_555 1_555
H9B C9B 1_555 1_555
H10B C9B 1_555 1_555
C10B C9B 1_555 1_555
H11B C10B 1_555 1_555
H12B C10B 1_555 1_555
C11B C12 1_555 1_555
H13B C11B 1_555 1_555
H14B C11B 1_555 1_555
C5 C6 1_555 1_555
C5B C6B 1_555 1_555
C10B C11B 1_555 1_555

#END
