
#######################################################################
#
#                 Cambridge Crystallographic Data Centre
#                                CCDC 
#
#######################################################################
#
# If this CIF has been generated from an entry in the Cambridge 
# Structural Database, then it will include bibliographic, chemical, 
# crystal, experimental, refinement or atomic coordinate data resulting 
# from the CCDC's data processing and validation procedures.
#
#######################################################################

data_VOJGAD
_chemical_formula_moiety         'C11 H11 F1 N2 O4'
_chemical_name_systematic        
(4S,5S)-2-(2-Fluorophenyl)-1,3-dioxolane-4,5-dicarboxamide
_symmetry_cell_setting           orthorhombic
_symmetry_space_group_name_H-M   'P 21 21 21'
_symmetry_Int_Tables_number      19
_space_group_name_Hall           'P 2ac 2ab'
loop_
_symmetry_equiv_pos_site_id
_symmetry_equiv_pos_as_xyz
1 x,y,z
2 1/2-x,-y,1/2+z
3 1/2+x,1/2-y,-z
4 -x,1/2+y,1/2-z
_cell_length_a                   4.8760(5)
_cell_length_b                   9.1290(7)
_cell_length_c                   24.8160(9)
_cell_angle_alpha                90
_cell_angle_beta                 90
_cell_angle_gamma                90
_cell_volume                     1104.63
_exptl_crystal_colour            colorless
_exptl_crystal_description       block
_cell_formula_units_Z            4
_exptl_crystal_recrystallization_method dichloromethane
loop_
_atom_site_label
_atom_site_type_symbol
_atom_site_fract_x
_atom_site_fract_y
_atom_site_fract_z
O1 O 0.6898(8) 0.3384(4) 0.36430(13)
O2 O 0.9373(9) 0.5438(3) 0.37339(12)
O3 O 1.1580(8) 0.2201(5) 0.44108(17)
O4 O 0.7161(10) 0.6057(4) 0.50750(13)
N1 N 0.7627(11) 0.0954(4) 0.44684(15)
H1 H 0.8450 0.0144 0.4540
H2 H 0.5866 0.0979 0.4449
N2 N 0.5605(12) 0.6946(5) 0.42850(18)
H3 H 0.4529 0.7561 0.4441
H4 H 0.5674 0.6905 0.3939
F1 F 0.4814(11) 0.6150(5) 0.30682(15)
C1 C 0.6335(15) 0.5470(7) 0.2681(2)
C2 C 0.572(2) 0.5797(8) 0.2158(3)
H5 H 0.4353 0.6472 0.2076
C3 C 0.715(2) 0.5109(8) 0.1758(3)
H6 H 0.6700 0.5274 0.1399
C4 C 0.9265(19) 0.4170(9) 0.1887(2)
H7 H 1.0286 0.3731 0.1615
C5 C 0.9875(19) 0.3878(8) 0.2426(2)
H8 H 1.1281 0.3230 0.2511
C6 C 0.8410(14) 0.4542(6) 0.2832(2)
C7 C 0.9126(13) 0.4196(6) 0.34082(18)
H9 H 1.0818 0.3617 0.3423
C8 C 0.7392(14) 0.3487(5) 0.42137(18)
H10 H 0.5644 0.3507 0.4409
C9 C 0.8871(13) 0.4968(5) 0.42764(19)
H11 H 1.0617 0.4826 0.4465
C10 C 0.9067(11) 0.2163(6) 0.4389(2)
C11 C 0.7142(14) 0.6068(5) 0.4576(2)
loop_
_geom_bond_atom_site_label_1
_geom_bond_atom_site_label_2
_geom_bond_site_symmetry_1
_geom_bond_site_symmetry_2
O1 C7 1_555 1_555
O2 C7 1_555 1_555
O3 C10 1_555 1_555
O4 C11 1_555 1_555
N1 H1 1_555 1_555
H2 N1 1_555 1_555
N2 H3 1_555 1_555
H4 N2 1_555 1_555
F1 C1 1_555 1_555
C1 C2 1_555 1_555
C2 H5 1_555 1_555
C3 C2 1_555 1_555
H6 C3 1_555 1_555
C4 C3 1_555 1_555
H7 C4 1_555 1_555
C5 C4 1_555 1_555
H8 C5 1_555 1_555
C6 C1 1_555 1_555
C7 C6 1_555 1_555
H9 C7 1_555 1_555
C8 O1 1_555 1_555
H10 C8 1_555 1_555
C9 O2 1_555 1_555
H11 C9 1_555 1_555
C10 N1 1_555 1_555
C11 N2 1_555 1_555
C5 C6 1_555 1_555
C8 C9 1_555 1_555
C8 C10 1_555 1_555
C9 C11 1_555 1_555

#END
