
#######################################################################
#
#                 Cambridge Crystallographic Data Centre
#                                CCDC 
#
#######################################################################
#
# If this CIF has been generated from an entry in the Cambridge 
# Structural Database, then it will include bibliographic, chemical, 
# crystal, experimental, refinement or atomic coordinate data resulting 
# from the CCDC's data processing and validation procedures.
#
#######################################################################

data_VOJHOS
_chemical_formula_moiety         'C19 H19 Br1 N2 O2 S1'
_chemical_name_systematic        
2-(4-Bromophenoxy)-3-isopropyl-5,6,7,8-tetrahydro-benzothieno(2,3-d)pyrimidin-4(3H)-one
_symmetry_cell_setting           monoclinic
_symmetry_space_group_name_H-M   'P 21'
_symmetry_Int_Tables_number      4
_space_group_name_Hall           'P 2yb'
loop_
_symmetry_equiv_pos_site_id
_symmetry_equiv_pos_as_xyz
1 x,y,z
2 -x,1/2+y,-z
_cell_length_a                   13.3957(7)
_cell_length_b                   5.7366(3)
_cell_length_c                   13.3956(7)
_cell_angle_alpha                90
_cell_angle_beta                 115.5410(10)
_cell_angle_gamma                90
_cell_volume                     928.8
_exptl_crystal_colour            colorless
_exptl_crystal_description       block
_chemical_melting_point          '478 K'
_cell_formula_units_Z            2
_exptl_crystal_recrystallization_method ethanol
loop_
_atom_site_label
_atom_site_type_symbol
_atom_site_fract_x
_atom_site_fract_y
_atom_site_fract_z
Br1 Br 0.84533(6) 0.7555(2) 0.71718(7)
C1 C 0.0942(6) 1.2447(18) 0.8813(6)
H1 H 0.0444 1.3157 0.8118
H2 H 0.0650 1.0921 0.8853
C2 C 0.0967(9) 1.390(3) 0.9738(10)
H3 H 0.0231 1.4514 0.9536
H4 H 0.1152 1.2908 1.0380
C3 C 0.1719(9) 1.578(2) 1.0038(11)
H5 H 0.1730 1.6464 1.0704
H6 H 0.1416 1.6942 0.9459
C4 C 0.2917(7) 1.537(2) 1.0246(7)
H7 H 0.3234 1.6797 1.0119
H8 H 0.3351 1.4885 1.1006
C5 C 0.2930(6) 1.3513(13) 0.9472(6)
C6 C 0.2071(5) 1.2157(15) 0.8824(5)
C7 C 0.2363(6) 1.0548(14) 0.8163(6)
C8 C 0.3446(6) 1.0816(16) 0.8335(6)
C9 C 0.1666(6) 0.9073(15) 0.7312(6)
C10 C 0.3302(6) 0.8295(14) 0.7015(6)
C11 C 0.1472(6) 0.6545(14) 0.5719(6)
H9 H 0.0726 0.6617 0.5683
C12 C 0.1754(9) 0.3997(19) 0.5775(8)
H10 H 0.1906 0.3406 0.6497
H11 H 0.2395 0.3796 0.5638
H12 H 0.1142 0.3161 0.5228
C13 C 0.1386(8) 0.767(2) 0.4657(6)
H13 H 0.2104 0.7707 0.4661
H14 H 0.1112 0.9233 0.4608
H15 H 0.0889 0.6784 0.4033
C14 C 0.4794(6) 0.7242(18) 0.6612(7)
C15 C 0.5512(8) 0.553(2) 0.7233(8)
H16 H 0.5268 0.4320 0.7536
C16 C 0.6596(8) 0.563(2) 0.7394(9)
H17 H 0.7096 0.4498 0.7815
C17 C 0.6938(5) 0.741(2) 0.6934(6)
C18 C 0.6221(7) 0.9049(19) 0.6317(8)
H18 H 0.6458 1.0245 0.6002
C19 C 0.5134(8) 0.895(2) 0.6152(9)
H19 H 0.4634 1.0073 0.5720
N1 N 0.3955(5) 0.9634(13) 0.7793(6)
N2 N 0.2193(4) 0.7931(13) 0.6717(4)
O1 O 0.0683(4) 0.8637(12) 0.7061(5)
O2 O 0.3666(4) 0.7053(13) 0.6384(5)
S1 S 0.41333(15) 1.2916(5) 0.93045(17)
loop_
_geom_bond_atom_site_label_1
_geom_bond_atom_site_label_2
_geom_bond_site_symmetry_1
_geom_bond_site_symmetry_2
Br1 C17 1_555 1_555
C1 H1 1_555 1_555
H2 C1 1_555 1_555
C2 C1 1_555 1_555
H3 C2 1_555 1_555
H4 C2 1_555 1_555
C3 C2 1_555 1_555
H5 C3 1_555 1_555
H6 C3 1_555 1_555
C4 C3 1_555 1_555
H7 C4 1_555 1_555
H8 C4 1_555 1_555
C5 C4 1_555 1_555
C6 C1 1_555 1_555
C7 C6 1_555 1_555
C8 C7 1_555 1_555
C9 C7 1_555 1_555
C10 N1 1_555 1_555
C11 H9 1_555 1_555
C12 C11 1_555 1_555
H10 C12 1_555 1_555
H11 C12 1_555 1_555
H12 C12 1_555 1_555
C13 C11 1_555 1_555
H13 C13 1_555 1_555
H14 C13 1_555 1_555
H15 C13 1_555 1_555
C14 C15 1_555 1_555
C15 H16 1_555 1_555
C16 C15 1_555 1_555
H17 C16 1_555 1_555
C17 C16 1_555 1_555
C18 C17 1_555 1_555
H18 C18 1_555 1_555
C19 C14 1_555 1_555
H19 C19 1_555 1_555
N1 C8 1_555 1_555
N2 C9 1_555 1_555
O1 C9 1_555 1_555
O2 C10 1_555 1_555
S1 C5 1_555 1_555
C5 C6 1_555 1_555
C8 S1 1_555 1_555
C10 N2 1_555 1_555
C11 N2 1_555 1_555
C14 O2 1_555 1_555
C18 C19 1_555 1_555

#END
