
#######################################################################
#
#                 Cambridge Crystallographic Data Centre
#                                CCDC 
#
#######################################################################
#
# If this CIF has been generated from an entry in the Cambridge 
# Structural Database, then it will include bibliographic, chemical, 
# crystal, experimental, refinement or atomic coordinate data resulting 
# from the CCDC's data processing and validation procedures.
#
#######################################################################

data_VOJJEK
_chemical_formula_moiety         'C17 H15 Cl1 O2 S1'
_chemical_name_systematic        
'2-(4-Chlorophenyl)-6-c-phenyl-3,4,5,6-tetrahydro-2H-thiopyran-4-one 1-oxide'
_symmetry_cell_setting           orthorhombic
_symmetry_space_group_name_H-M   'P n m a'
_symmetry_Int_Tables_number      62
_space_group_name_Hall           '-P 2ac 2n'
loop_
_symmetry_equiv_pos_site_id
_symmetry_equiv_pos_as_xyz
1 x,y,z
2 1/2-x,-y,1/2+z
3 1/2+x,1/2-y,1/2-z
4 -x,1/2+y,-z
5 -x,-y,-z
6 1/2+x,y,1/2-z
7 1/2-x,1/2+y,1/2+z
8 x,1/2-y,z
_cell_length_a                   11.5195(5)
_cell_length_b                   25.7589(12)
_cell_length_c                   5.2248(2)
_cell_angle_alpha                90
_cell_angle_beta                 90
_cell_angle_gamma                90
_cell_volume                     1550.35
_exptl_crystal_colour            colorless
_exptl_crystal_description       thick
_chemical_melting_point          '417 K'
_cell_formula_units_Z            4
_exptl_crystal_recrystallization_method chloroform/tetrachloride
loop_
_atom_site_label
_atom_site_type_symbol
_atom_site_fract_x
_atom_site_fract_y
_atom_site_fract_z
Cl1 Cl 0.0955(4) 0.00160(11) 0.0431(9)
S1 S 0.24636(8) 0.25000 0.27287(17)
O1 O 0.3171(3) 0.25000 0.0330(5)
O2 O 0.5597(3) 0.25000 0.7542(7)
C1 C 0.3029(3) 0.19728(12) 0.4726(5)
C2 C 0.4354(3) 0.20065(15) 0.4859(7)
C3 C 0.4819(3) 0.25000 0.5959(8)
C4 C 0.2583(3) 0.14695(14) 0.3651(7)
C5 C 0.1618(4) 0.12411(19) 0.4657(10)
C6 C 0.1167(5) 0.0784(2) 0.3692(16)
C7 C 0.1685(7) 0.0557(2) 0.1666(16)
C9 C 0.2634(7) 0.0778(3) 0.0566(14)
C10 C 0.3087(5) 0.1234(2) 0.1524(10)
H1 H 0.27192 0.20147 0.64603
H2 H 0.46377 0.17188 0.58808
H3 H 0.46629 0.19651 0.31439
H4 H 0.12502 0.13981 0.60394
H5 H 0.05139 0.06340 0.44321
H7 H 0.29807 0.06199 -0.08411
H8 H 0.37304 0.13854 0.07466
Cl1G Cl 0.0955(4) 0.49840(11) 0.0431(9)
C1G C 0.3029(3) 0.30272(12) 0.4726(5)
C2G C 0.4354(3) 0.29935(15) 0.4859(7)
C4G C 0.2583(3) 0.35305(14) 0.3651(7)
C5G C 0.1618(4) 0.37589(19) 0.4657(10)
C6G C 0.1167(5) 0.4216(2) 0.3692(16)
C7G C 0.1685(7) 0.4443(2) 0.1666(16)
C9G C 0.2634(7) 0.4222(3) 0.0566(14)
C10G C 0.3087(5) 0.3766(2) 0.1524(10)
H1G H 0.27192 0.29853 0.64603
H2G H 0.46377 0.32812 0.58808
H3G H 0.46629 0.30349 0.31439
H4G H 0.12502 0.36019 0.60394
H5G H 0.05139 0.43660 0.44321
H7G H 0.29807 0.43801 -0.08411
H8G H 0.37304 0.36146 0.07466
C8? C 0.1685(7) 0.0557(2) 0.1666(16)
H6? H 0.13910 0.02476 0.10157
loop_
_geom_bond_atom_site_label_1
_geom_bond_atom_site_label_2
_geom_bond_site_symmetry_1
_geom_bond_site_symmetry_2
Cl1 C7 1_555 1_555
S1 O1 1_555 1_555
O2 C3 1_555 1_555
C1 S1 1_555 1_555
C2 C1 1_555 1_555
C3 C2 1_555 1_555
C4 C1 1_555 1_555
C5 C4 1_555 1_555
C6 C5 1_555 1_555
C7 C6 1_555 1_555
C9 C7 1_555 1_555
C10 C4 1_555 1_555
H1 C1 1_555 1_555
H2 C2 1_555 1_555
H3 C2 1_555 1_555
H4 C5 1_555 1_555
H5 C6 1_555 1_555
H7 C9 1_555 1_555
H8 C10 1_555 1_555
Cl1G C7G 1_555 1_555
C1G S1 1_555 1_555
C2G C3 1_555 1_555
C4G C1G 1_555 1_555
C5G C4G 1_555 1_555
C6G C5G 1_555 1_555
C7G C6G 1_555 1_555
C9G C7G 1_555 1_555
C10G C4G 1_555 1_555
H1G C1G 1_555 1_555
H2G C2G 1_555 1_555
H3G C2G 1_555 1_555
H4G C5G 1_555 1_555
H5G C6G 1_555 1_555
H7G C9G 1_555 1_555
H8G C10G 1_555 1_555
C9 C10 1_555 1_555
C1G C2G 1_555 1_555
C9G C10G 1_555 1_555

#END
