
#######################################################################
#
#                 Cambridge Crystallographic Data Centre
#                                CCDC 
#
#######################################################################
#
# If this CIF has been generated from an entry in the Cambridge 
# Structural Database, then it will include bibliographic, chemical, 
# crystal, experimental, refinement or atomic coordinate data resulting 
# from the CCDC's data processing and validation procedures.
#
#######################################################################

data_VOJKUB
_chemical_formula_moiety         'C16 H22 N2 2+,2(F6 P1 1-)'
_chemical_name_systematic        
"1,1'-(Hexane-1,6-diyl)dipyridinium bis(hexafluorophosphate)"
_symmetry_cell_setting           triclinic
_symmetry_space_group_name_H-M   'P -1'
_symmetry_Int_Tables_number      2
_space_group_name_Hall           '-P 1'
loop_
_symmetry_equiv_pos_site_id
_symmetry_equiv_pos_as_xyz
1 x,y,z
2 -x,-y,-z
_cell_length_a                   7.9140(16)
_cell_length_b                   9.2930(18)
_cell_length_c                   9.4870(19)
_cell_angle_alpha                65.13(3)
_cell_angle_beta                 65.46(3)
_cell_angle_gamma                74.37(3)
_cell_volume                     572.029
_exptl_crystal_colour            colorless
_exptl_crystal_description       block
_chemical_melting_point          '513 K'
_cell_formula_units_Z            1
_exptl_crystal_recrystallization_method acetone
loop_
_atom_site_label
_atom_site_type_symbol
_atom_site_fract_x
_atom_site_fract_y
_atom_site_fract_z
P1 P 0.16995(14) 0.79005(13) 0.78487(13)
F1 F -0.006(3) 0.696(3) 0.842(2)
F2 F 0.369(2) 0.8457(19) 0.721(2)
F3 F 0.034(2) 0.8894(16) 0.8982(15)
F4 F 0.215(2) 0.645(2) 0.939(2)
F5 F 0.126(2) 0.936(2) 0.635(2)
F6 F 0.223(3) 0.677(3) 0.684(2)
N1 N 0.6355(4) 0.7536(4) 0.2462(4)
C1 C 0.6255(6) 0.6893(5) 0.1468(5)
H1 H 0.7227 0.6159 0.1113
C2 C 0.4732(7) 0.7312(6) 0.0972(6)
H2 H 0.4661 0.6866 0.0288
C3 C 0.3292(6) 0.8420(6) 0.1517(6)
H3 H 0.2260 0.8736 0.1179
C4 C 0.3402(6) 0.9030(6) 0.2537(6)
H4 H 0.2428 0.9751 0.2913
C5 C 0.4934(5) 0.8603(5) 0.3029(5)
H5 H 0.5003 0.9029 0.3730
C6 C 0.7977(5) 0.7070(5) 0.3014(5)
H6 H 0.8387 0.8022 0.2896
H7 H 0.8998 0.6558 0.2307
C7 C 0.7536(5) 0.5942(5) 0.4801(5)
H8 H 0.7184 0.4969 0.4908
H9 H 0.6475 0.6434 0.5502
C8 C 0.9189(5) 0.5519(5) 0.5406(5)
H10 H 0.9628 0.6498 0.5183
H11 H 0.8761 0.4963 0.6595
N1A N 1.3645(4) 0.2464(4) 0.7538(4)
C1A C 1.3745(6) 0.3107(5) 0.8532(5)
H1A H 1.2773 0.3841 0.8887
C2A C 1.5268(7) 0.2688(6) 0.9028(6)
H2A H 1.5339 0.3134 0.9712
C3A C 1.6708(6) 0.1580(6) 0.8483(6)
H3A H 1.7740 0.1264 0.8821
C4A C 1.6598(6) 0.0970(6) 0.7463(6)
H4A H 1.7572 0.0249 0.7087
C5A C 1.5066(5) 0.1397(5) 0.6971(5)
H5A H 1.4997 0.0971 0.6270
C6A C 1.2023(5) 0.2930(5) 0.6986(5)
H6A H 1.1613 0.1978 0.7104
H7A H 1.1002 0.3442 0.7693
C7A C 1.2464(5) 0.4058(5) 0.5199(5)
H8A H 1.2816 0.5031 0.5092
H9A H 1.3525 0.3566 0.4498
C8A C 1.0811(5) 0.4481(5) 0.4594(5)
H10A H 1.0372 0.3502 0.4817
H11A H 1.1239 0.5037 0.3405
F7? F -0.0338(9) 0.7809(16) 0.8155(14)
F8? F 0.375(2) 0.785(2) 0.775(2)
F9? F 0.127(2) 0.9036(12) 0.8910(13)
F10? F 0.150(2) 0.6338(18) 0.9501(17)
F11? F 0.195(2) 0.9495(17) 0.6211(17)
F12? F 0.2820(19) 0.6854(19) 0.6687(18)
loop_
_geom_bond_atom_site_label_1
_geom_bond_atom_site_label_2
_geom_bond_site_symmetry_1
_geom_bond_site_symmetry_2
P1 F1 1_555 1_555
N1 C1 1_555 1_555
F2 P1 1_555 1_555
F3 P1 1_555 1_555
F4 P1 1_555 1_555
F5 P1 1_555 1_555
F6 P1 1_555 1_555
C1 H1 1_555 1_555
C2 C1 1_555 1_555
H2 C2 1_555 1_555
C3 C2 1_555 1_555
H3 C3 1_555 1_555
C4 C3 1_555 1_555
H4 C4 1_555 1_555
C5 N1 1_555 1_555
H5 C5 1_555 1_555
C6 N1 1_555 1_555
H6 C6 1_555 1_555
H7 C6 1_555 1_555
C7 C6 1_555 1_555
H8 C7 1_555 1_555
H9 C7 1_555 1_555
C8 C7 1_555 1_555
H10 C8 1_555 1_555
H11 C8 1_555 1_555
N1A C1A 1_555 1_555
C1A H1A 1_555 1_555
C2A C1A 1_555 1_555
H2A C2A 1_555 1_555
C3A C2A 1_555 1_555
H3A C3A 1_555 1_555
C4A C3A 1_555 1_555
H4A C4A 1_555 1_555
C5A N1A 1_555 1_555
H5A C5A 1_555 1_555
C6A N1A 1_555 1_555
H6A C6A 1_555 1_555
H7A C6A 1_555 1_555
C7A C6A 1_555 1_555
H8A C7A 1_555 1_555
H9A C7A 1_555 1_555
C8A C8 1_555 1_555
H10A C8A 1_555 1_555
H11A C8A 1_555 1_555
C4 C5 1_555 1_555
C4A C5A 1_555 1_555
C7A C8A 1_555 1_555

#END
