
#######################################################################
#
#                 Cambridge Crystallographic Data Centre
#                                CCDC 
#
#######################################################################
#
# If this CIF has been generated from an entry in the Cambridge 
# Structural Database, then it will include bibliographic, chemical, 
# crystal, experimental, refinement or atomic coordinate data resulting 
# from the CCDC's data processing and validation procedures.
#
#######################################################################

data_VOJQUI
_chemical_formula_moiety         'C25 H16 Cl1 N1 O4'
_chemical_name_systematic        
2-((4-chlorobenzylidene)amino)-3-(2-methoxyphenyl)-4H-furo[3,2-c]chromen-4-one
_symmetry_cell_setting           monoclinic
_symmetry_space_group_name_H-M   'P 21/c'
_symmetry_Int_Tables_number      14
_space_group_name_Hall           '-P 2ybc'
loop_
_symmetry_equiv_pos_site_id
_symmetry_equiv_pos_as_xyz
1 x,y,z
2 -x,1/2+y,1/2-z
3 -x,-y,-z
4 x,1/2-y,1/2+z
_cell_length_a                   22.688(3)
_cell_length_b                   12.2447(17)
_cell_length_c                   7.3647(9)
_cell_angle_alpha                90
_cell_angle_beta                 94.963(4)
_cell_angle_gamma                90
_cell_volume                     2038.3
_exptl_crystal_colour            yellow
_exptl_crystal_description       block
_cell_formula_units_Z            4
loop_
_atom_site_label
_atom_site_type_symbol
_atom_site_fract_x
_atom_site_fract_y
_atom_site_fract_z
Cl1 Cl 0.48541(3) 1.07652(6) 0.27703(9)
O1 O 0.79991(5) 0.75282(9) -0.00949(15)
O2 O 0.92694(5) 0.53516(10) -0.11329(17)
N1 N 0.70532(6) 0.73053(12) 0.10235(18)
C1 C 0.94028(8) 0.64418(14) -0.1332(2)
C2 C 0.89945(7) 0.72580(14) -0.1049(2)
O3 O 0.82499(6) 0.44069(10) 0.31912(18)
O4 O 0.86717(6) 0.40019(11) -0.0529(2)
C3 C 0.77495(8) 0.57884(13) 0.0571(2)
C4 C 0.83234(8) 0.58118(13) -0.0131(2)
C5 C 0.75663(7) 0.68433(14) 0.0534(2)
C6 C 0.84504(8) 0.68710(14) -0.0466(2)
C7 C 0.97095(9) 0.85856(17) -0.1768(2)
H1 H 0.9817 0.9311 -0.1918
C8 C 0.69471(8) 0.83105(15) 0.0636(2)
H2 H 0.7219 0.8697 0.0013
C9 C 0.64213(8) 0.88703(14) 0.1126(2)
C10 C 0.55056(9) 0.89369(19) 0.2540(3)
H3 H 0.5217 0.8592 0.3157
C11 C 0.76931(8) 0.41252(14) 0.2506(2)
C12 C 0.59894(8) 0.83616(16) 0.2053(3)
H4 H 0.6027 0.7625 0.2349
C13 C 0.74204(8) 0.48434(14) 0.1213(2)
C14 C 0.91548(8) 0.83443(15) -0.1264(2)
H5 H 0.8889 0.8902 -0.1069
C15 C 0.63494(9) 0.99650(16) 0.0678(3)
H6 H 0.6632 1.0313 0.0040
C16 C 0.87358(8) 0.49704(16) -0.0563(2)
C17 C 0.73938(10) 0.32125(15) 0.3047(3)
H7 H 0.7581 0.2717 0.3863
C18 C 0.99611(8) 0.66958(16) -0.1829(2)
H8 H 1.0233 0.6146 -0.2007
C19 C 0.68153(10) 0.30435(17) 0.2364(3)
H9 H 0.6615 0.2428 0.2725
C20 C 0.68328(9) 0.46584(16) 0.0592(2)
H10 H 0.6640 0.5147 -0.0225
C21 C 0.58671(10) 1.05459(17) 0.1160(3)
H11 H 0.5823 1.1279 0.0849
C22 C 0.54532(9) 1.00289(19) 0.2104(3)
C23 C 0.65305(10) 0.37625(18) 0.1167(3)
H12 H 0.6137 0.3649 0.0746
C24 C 1.01078(9) 0.77698(17) -0.2054(2)
H13 H 1.0480 0.7949 -0.2404
C25 C 0.85552(11) 0.3714(2) 0.4486(3)
H14 H 0.8343 0.3673 0.5556
H15 H 0.8944 0.4000 0.4807
H16 H 0.8586 0.2997 0.3975
loop_
_geom_bond_atom_site_label_1
_geom_bond_atom_site_label_2
_geom_bond_site_symmetry_1
_geom_bond_site_symmetry_2
Cl1 C22 1_555 1_555
O1 C5 1_555 1_555
O2 C1 1_555 1_555
N1 C5 1_555 1_555
C1 C2 1_555 1_555
C2 C6 1_555 1_555
O3 C11 1_555 1_555
O4 C16 1_555 1_555
C3 C4 1_555 1_555
C4 C6 1_555 1_555
C5 C3 1_555 1_555
C6 O1 1_555 1_555
C7 H1 1_555 1_555
C8 N1 1_555 1_555
H2 C8 1_555 1_555
C9 C8 1_555 1_555
C10 H3 1_555 1_555
C11 C13 1_555 1_555
C12 C9 1_555 1_555
H4 C12 1_555 1_555
C13 C3 1_555 1_555
C14 C2 1_555 1_555
H5 C14 1_555 1_555
C15 C9 1_555 1_555
H6 C15 1_555 1_555
C16 O2 1_555 1_555
C17 C11 1_555 1_555
H7 C17 1_555 1_555
C18 C1 1_555 1_555
H8 C18 1_555 1_555
C19 C17 1_555 1_555
H9 C19 1_555 1_555
C20 C13 1_555 1_555
H10 C20 1_555 1_555
C21 C15 1_555 1_555
H11 C21 1_555 1_555
C22 C10 1_555 1_555
C23 C19 1_555 1_555
H12 C23 1_555 1_555
C24 C7 1_555 1_555
H13 C24 1_555 1_555
C25 O3 1_555 1_555
H14 C25 1_555 1_555
H15 C25 1_555 1_555
H16 C25 1_555 1_555
C4 C16 1_555 1_555
C7 C14 1_555 1_555
C10 C12 1_555 1_555
C18 C24 1_555 1_555
C20 C23 1_555 1_555
C21 C22 1_555 1_555

#END
