
#######################################################################
#
#                 Cambridge Crystallographic Data Centre
#                                CCDC 
#
#######################################################################
#
# If this CIF has been generated from an entry in the Cambridge 
# Structural Database, then it will include bibliographic, chemical, 
# crystal, experimental, refinement or atomic coordinate data resulting 
# from the CCDC's data processing and validation procedures.
#
#######################################################################

data_VOKRET
_chemical_formula_moiety         'C36 H28 N2 O9'
_chemical_name_systematic        
25-(3,5-dinitrobenzoyloxy)-26-methoxy-27,28-dihydroxycalix[4]arene
_symmetry_cell_setting           orthorhombic
_symmetry_space_group_name_H-M   'P b c a'
_symmetry_Int_Tables_number      61
_space_group_name_Hall           '-P 2ac 2ab'
loop_
_symmetry_equiv_pos_site_id
_symmetry_equiv_pos_as_xyz
1 x,y,z
2 1/2-x,-y,1/2+z
3 1/2+x,1/2-y,-z
4 -x,1/2+y,1/2-z
5 -x,-y,-z
6 1/2+x,y,1/2-z
7 1/2-x,1/2+y,z
8 x,1/2-y,1/2+z
_cell_length_a                   10.652(1)
_cell_length_b                   17.687(1)
_cell_length_c                   32.247(3)
_cell_angle_alpha                90
_cell_angle_beta                 90
_cell_angle_gamma                90
_cell_volume                     6075.4
_exptl_crystal_colour            'pale yellow'
_chemical_melting_point          '285 deg.C (dec.)'
_cell_formula_units_Z            8
_exptl_crystal_recrystallization_method toluene
loop_
_atom_site_label
_atom_site_type_symbol
_atom_site_fract_x
_atom_site_fract_y
_atom_site_fract_z
O1 O -0.2704(2) 0.1704(1) 0.4251(1)
O2 O -0.3778(4) 0.2767(2) 0.4349(1)
O3 O -0.5995(4) 0.3040(2) 0.2537(2)
O4 O -0.6684(4) 0.3233(3) 0.3162(2)
O5 O -0.1031(4) 0.1386(2) 0.2830(1)
O6 O -0.2407(4) 0.1397(3) 0.2356(1)
N1 N -0.5918(5) 0.2989(3) 0.2921(2)
N2 N -0.2076(5) 0.1522(2) 0.2709(1)
C1 C -0.2661(4) 0.1564(2) 0.4686(1)
C2 C -0.3677(4) 0.1194(2) 0.4863(1)
C3 C -0.3559(5) 0.1041(2) 0.5290(1)
C4 C -0.2527(5) 0.1255(3) 0.5510(1)
C5 C -0.1551(5) 0.1612(2) 0.5320(1)
C6 C -0.1599(4) 0.1783(2) 0.4898(1)
C7 C -0.0554(5) 0.2251(3) 0.4708(1)
C8 C -0.3352(4) 0.2302(2) 0.4121(1)
C9 C -0.3516(4) 0.2296(2) 0.3662(1)
C10 C -0.4555(5) 0.2668(2) 0.3506(2)
C11 C -0.4770(4) 0.2630(2) 0.3084(2)
C12 C -0.3992(5) 0.2258(3) 0.2816(2)
C13 C -0.2961(4) 0.1915(2) 0.2982(1)
C14 C -0.2706(4) 0.1916(2) 0.3403(1)
O7 O 0.0235(3) 0.0727(1) 0.4500(1)
C15 C 0.0385(4) 0.1297(2) 0.4202(1)
C16 C -0.0010(4) 0.2028(2) 0.4292(1)
C17 C 0.0106(4) 0.2569(3) 0.3987(1)
C18 C 0.0688(4) 0.2394(3) 0.3612(1)
C19 C 0.1022(5) 0.1666(3) 0.3526(1)
C20 C 0.0876(4) 0.1100(2) 0.3820(1)
C21 C 0.1180(5) 0.0285(3) 0.3708(2)
C22 C 0.1269(7) 0.0679(4) 0.4789(2)
O8 O -0.1109(3) -0.0315(2) 0.4062(1)
C23 C -0.0944(4) -0.0338(2) 0.3638(1)
C24 C 0.0157(5) -0.0077(2) 0.3455(1)
C25 C 0.0258(6) -0.0144(3) 0.3025(2)
C26 C -0.0698(6) -0.0440(3) 0.2793(2)
C27 C -0.1770(6) -0.0687(3) 0.2978(1)
C28 C -0.1923(5) -0.0638(2) 0.3408(1)
C29 C -0.3108(5) -0.0891(2) 0.3614(2)
O9 O -0.33853 -0.02532 0.44451
C30 C -0.4044(4) 0.0059(2) 0.4120(1)
C31 C -0.3965(4) -0.0238(2) 0.3723(1)
C32 C -0.4705(5) 0.0100(3) 0.3416(1)
C33 C -0.5492(5) 0.0689(3) 0.3501(2)
C34 C -0.5540(4) 0.0960(3) 0.3895(2)
C35 C -0.4818(4) 0.0666(2) 0.4214(1)
C36 C -0.4874(4) 0.0997(3) 0.4647(1)
loop_
_geom_bond_atom_site_label_1
_geom_bond_atom_site_label_2
_geom_bond_site_symmetry_1
_geom_bond_site_symmetry_2
O1 C1 1_555 1_555
O2 C8 1_555 1_555
O3 N1 1_555 1_555
O4 N1 1_555 1_555
O5 N2 1_555 1_555
O6 N2 1_555 1_555
N1 C11 1_555 1_555
N2 C13 1_555 1_555
C1 C2 1_555 1_555
C2 C3 1_555 1_555
C3 C4 1_555 1_555
C4 C5 1_555 1_555
C5 C6 1_555 1_555
C6 C1 1_555 1_555
C7 C6 1_555 1_555
C8 O1 1_555 1_555
C9 C8 1_555 1_555
C10 C9 1_555 1_555
C11 C10 1_555 1_555
C12 C11 1_555 1_555
C13 C12 1_555 1_555
C14 C9 1_555 1_555
O7 C15 1_555 1_555
C15 C16 1_555 1_555
C16 C7 1_555 1_555
C17 C16 1_555 1_555
C18 C17 1_555 1_555
C19 C18 1_555 1_555
C20 C15 1_555 1_555
C21 C20 1_555 1_555
C22 O7 1_555 1_555
O8 C23 1_555 1_555
C23 C24 1_555 1_555
C24 C21 1_555 1_555
C25 C24 1_555 1_555
C26 C25 1_555 1_555
C27 C26 1_555 1_555
C28 C23 1_555 1_555
C29 C28 1_555 1_555
O9 C30 1_555 1_555
C30 C31 1_555 1_555
C31 C29 1_555 1_555
C32 C31 1_555 1_555
C33 C32 1_555 1_555
C34 C33 1_555 1_555
C35 C30 1_555 1_555
C36 C2 1_555 1_555
C13 C14 1_555 1_555
C19 C20 1_555 1_555
C27 C28 1_555 1_555
C34 C35 1_555 1_555
C35 C36 1_555 1_555

#END
