
#######################################################################
#
#                 Cambridge Crystallographic Data Centre
#                                CCDC 
#
#######################################################################
#
# If this CIF has been generated from an entry in the Cambridge 
# Structural Database, then it will include bibliographic, chemical, 
# crystal, experimental, refinement or atomic coordinate data resulting 
# from the CCDC's data processing and validation procedures.
#
#######################################################################

data_VOKSAR
_chemical_name_common            "Secu'amamine H"
_chemical_formula_moiety         'C13 H15 N1 O3'
_chemical_name_systematic        
2-Hydroxy-14-oxa-7-azatetracyclo[6.6.1.0^1,11^.0^3,7^]pentadeca-9,11-dien-13-one
_symmetry_cell_setting           orthorhombic
_symmetry_space_group_name_H-M   'P 21 21 21'
_symmetry_Int_Tables_number      19
_space_group_name_Hall           'P 2ac 2ab'
loop_
_symmetry_equiv_pos_site_id
_symmetry_equiv_pos_as_xyz
1 x,y,z
2 1/2-x,-y,1/2+z
3 -x,1/2+y,1/2-z
4 1/2+x,1/2-y,-z
_cell_length_a                   6.5695(3)
_cell_length_b                   9.7095(6)
_cell_length_c                   17.8942(10)
_cell_angle_alpha                90
_cell_angle_beta                 90
_cell_angle_gamma                90
_cell_volume                     1141.41
_exptl_crystal_colour            colorless
_exptl_crystal_description       block
_cell_formula_units_Z            4
loop_
_atom_site_label
_atom_site_type_symbol
_atom_site_fract_x
_atom_site_fract_y
_atom_site_fract_z
N1 N 1.1749(3) 0.9896(3) 0.48055(16)
C1 C 0.9529(4) 0.9832(4) 0.49550(18)
H1 H 0.8895 1.0692 0.4787
C2 C 0.8592(4) 0.8635(3) 0.45312(17)
H2 H 0.7107 0.8675 0.4580
C3 C 0.9486(5) 0.9780(4) 0.5810(2)
H3 H 0.9635 0.8842 0.5988
H4 H 0.8227 1.0161 0.6003
C4 C 1.1327(6) 1.0672(4) 0.6041(2)
H5 H 1.2189 1.0179 0.6390
H6 H 1.0877 1.1522 0.6272
C5 C 1.2479(5) 1.0970(4) 0.5310(2)
H7 H 1.2151 1.1879 0.5120
H8 H 1.3939 1.0903 0.5383
C6 C 1.2202(4) 1.0056(4) 0.40019(18)
H9 H 1.3680 1.0135 0.3940
C7 C 1.1479(4) 0.8735(4) 0.36063(18)
H10 H 1.1862 0.8748 0.3083
H11 H 1.2070 0.7926 0.3839
C8 C 0.9174(4) 0.8727(3) 0.36894(17)
O1 O 0.8194(3) 0.7569(2) 0.33311(13)
C9 C 0.6680(5) 0.8042(4) 0.28787(19)
C10 C 0.6793(5) 0.9549(4) 0.2847(2)
H12 H 0.5949 1.0121 0.2569
C11 C 0.8323(4) 0.9959(4) 0.32894(17)
C12 C 0.9365(5) 1.1278(4) 0.3360(2)
H13 H 0.8746 1.2082 0.3193
C13 C 1.1207(5) 1.1320(4) 0.3664(2)
H14 H 1.1909 1.2152 0.3670
O2 O 0.9301(3) 0.7353(2) 0.48166(13)
H15 H 0.8994 0.7288 0.5259
O3 O 0.5534(3) 0.7267(3) 0.25571(15)
loop_
_geom_bond_atom_site_label_1
_geom_bond_atom_site_label_2
_geom_bond_site_symmetry_1
_geom_bond_site_symmetry_2
N1 C1 1_555 1_555
C1 H1 1_555 1_555
C2 C1 1_555 1_555
H2 C2 1_555 1_555
C3 C1 1_555 1_555
H3 C3 1_555 1_555
H4 C3 1_555 1_555
C4 C3 1_555 1_555
H5 C4 1_555 1_555
H6 C4 1_555 1_555
C5 N1 1_555 1_555
H7 C5 1_555 1_555
H8 C5 1_555 1_555
C6 N1 1_555 1_555
H9 C6 1_555 1_555
C7 C6 1_555 1_555
H10 C7 1_555 1_555
H11 C7 1_555 1_555
C8 C2 1_555 1_555
O1 C8 1_555 1_555
C9 O1 1_555 1_555
C10 C9 1_555 1_555
H12 C10 1_555 1_555
C11 C8 1_555 1_555
C12 C11 1_555 1_555
H13 C12 1_555 1_555
C13 C6 1_555 1_555
H14 C13 1_555 1_555
O2 C2 1_555 1_555
H15 O2 1_555 1_555
O3 C9 1_555 1_555
C4 C5 1_555 1_555
C7 C8 1_555 1_555
C10 C11 1_555 1_555
C12 C13 1_555 1_555

#END
