
#######################################################################
#
#                 Cambridge Crystallographic Data Centre
#                                CCDC 
#
#######################################################################
#
# If this CIF has been generated from an entry in the Cambridge 
# Structural Database, then it will include bibliographic, chemical, 
# crystal, experimental, refinement or atomic coordinate data resulting 
# from the CCDC's data processing and validation procedures.
#
#######################################################################

data_VOKVIC
_chemical_formula_moiety         'C52 H49 N5 O5'
_chemical_name_systematic        
'4-(1,3,9,11-tetraoxo-5-(3-(2-oxoazepan-1-yl)propyl)-2,10-di(pentan-3-yl)-2,3,5,9,10,11-hexahydro-1H-2,5,10-triazadibenzo[cd,lm]cyclohepta[1,2,3,4-ghi]perylen-6-yl)benzonitrile unknown solvate'
_symmetry_cell_setting           monoclinic
_symmetry_space_group_name_H-M   'P 21/n'
_symmetry_Int_Tables_number      14
_space_group_name_Hall           '-P 2yn'
loop_
_symmetry_equiv_pos_site_id
_symmetry_equiv_pos_as_xyz
1 x,y,z
2 1/2-x,1/2+y,1/2-z
3 -x,-y,-z
4 1/2+x,1/2-y,1/2+z
_cell_length_a                   19.258(3)
_cell_length_b                   12.0579(18)
_cell_length_c                   21.284(3)
_cell_angle_alpha                90
_cell_angle_beta                 114.826(5)
_cell_angle_gamma                90
_cell_volume                     4485.64
_exptl_crystal_colour            brown
_exptl_crystal_description       plate
_cell_formula_units_Z            4
_exptl_crystal_preparation       Luminescent
loop_
_atom_site_label
_atom_site_type_symbol
_atom_site_fract_x
_atom_site_fract_y
_atom_site_fract_z
O1 O -0.18954(14) 0.9692(2) 0.11551(12)
O2 O -0.00247(15) 0.8709(2) 0.32538(13)
O3 O 0.22368(14) 0.7618(2) -0.12774(12)
O4 O 0.41698(15) 0.8414(2) 0.08336(12)
O5 O -0.09883(15) 0.4571(2) -0.24688(12)
N1 N -0.09604(18) 0.9266(2) 0.22199(14)
N2 N 0.32193(17) 0.7991(2) -0.02249(14)
N3 N -0.01976(16) 0.7596(2) -0.09319(13)
N4 N -0.2990(2) 0.9653(3) -0.45262(18)
N5 N 0.01563(17) 0.4260(2) -0.15719(15)
C1 C -0.1248(2) 0.9357(3) 0.14982(19)
C2 C -0.0230(2) 0.8852(3) 0.26332(19)
C3 C 0.0290(2) 0.8630(3) 0.22978(17)
C4 C 0.1039(2) 0.8357(3) 0.26957(17)
H1 H 0.1205 0.8228 0.3178
C5 C 0.1552(2) 0.8267(3) 0.24017(17)
H2 H 0.2076 0.8125 0.2690
C6 C 0.1318(2) 0.8382(3) 0.16821(17)
C7 C 0.0530(2) 0.8513(3) 0.12516(17)
C8 C 0.0029(2) 0.8710(3) 0.15721(17)
C9 C -0.0732(2) 0.9043(3) 0.11704(17)
C10 C -0.0983(2) 0.9126(3) 0.04642(17)
H3 H -0.1483 0.9404 0.0198
C11 C -0.0526(2) 0.8815(3) 0.01194(16)
C12 C 0.0238(2) 0.8482(3) 0.05033(16)
C13 C 0.0782(2) 0.8223(3) 0.02019(17)
C14 C 0.1582(2) 0.8306(3) 0.06351(17)
C15 C 0.1870(2) 0.8426(3) 0.13760(16)
C16 C 0.2643(2) 0.8600(3) 0.17636(17)
H4 H 0.2825 0.8730 0.2247
C17 C 0.3162(2) 0.8591(3) 0.14642(17)
H5 H 0.3687 0.8739 0.1741
C18 C 0.2918(2) 0.8367(3) 0.07683(17)
C19 C 0.2130(2) 0.8224(3) 0.03488(17)
C20 C 0.1881(2) 0.7996(3) -0.03611(17)
C21 C 0.1117(2) 0.7842(3) -0.07655(17)
H6 H 0.0953 0.7686 -0.1244
C22 C 0.0569(2) 0.7907(3) -0.04904(17)
C23 C 0.2440(2) 0.7859(3) -0.06656(19)
C24 C 0.3490(2) 0.8266(3) 0.04762(19)
C25 C -0.1472(2) 0.9594(4) 0.25548(19)
H7 H -0.1924 0.9953 0.2180
C26 C -0.1780(3) 0.8610(4) 0.2764(3)
H8 H -0.1343 0.8169 0.3088
H9 H -0.2073 0.8869 0.3024
C27 C -0.2280(3) 0.7867(4) 0.2206(3)
H10 H -0.2759 0.8250 0.1924
H11 H -0.2391 0.7198 0.2409
H12 H -0.2020 0.7658 0.1914
C28 C -0.1124(3) 1.0488(4) 0.3110(2)
H13 H -0.1528 1.0758 0.3243
H14 H -0.0724 1.0136 0.3524
C29 C -0.0781(3) 1.1459(4) 0.2923(2)
H15 H -0.0336 1.1221 0.2846
H16 H -0.0620 1.2002 0.3300
H17 H -0.1160 1.1797 0.2499
C30 C 0.3794(2) 0.7777(3) -0.0514(2)
H18 H 0.3490 0.7548 -0.1006
C31 C 0.4224(2) 0.8823(4) -0.0549(2)
H19 H 0.4550 0.9066 -0.0071
H20 H 0.4565 0.8635 -0.0774
C32 C 0.3720(2) 0.9774(4) -0.0933(2)
H21 H 0.3412 0.9556 -0.1414
H22 H 0.4039 1.0413 -0.0922
H23 H 0.3381 0.9972 -0.0712
C33 C 0.4314(3) 0.6808(4) -0.0172(2)
H24 H 0.4691 0.7045 0.0292
H25 H 0.4601 0.6616 -0.0448
C34 C 0.3913(3) 0.5777(4) -0.0089(2)
H26 H 0.3655 0.5941 0.0211
H27 H 0.4290 0.5187 0.0119
H28 H 0.3535 0.5536 -0.0544
C35 C -0.0905(2) 0.8952(3) -0.06298(17)
H29 H -0.1285 0.9513 -0.0794
C36 C -0.0783(2) 0.8382(3) -0.11190(17)
C37 C -0.1256(2) 0.8608(3) -0.18695(16)
C38 C -0.2039(2) 0.8854(3) -0.20993(17)
H30 H -0.2270 0.8831 -0.1783
C39 C -0.2476(2) 0.9129(3) -0.27882(18)
H31 H -0.3004 0.9296 -0.2943
C40 C -0.2134(2) 0.9159(3) -0.32506(17)
C41 C -0.1364(2) 0.8912(3) -0.30322(17)
H32 H -0.1136 0.8933 -0.3350
C42 C -0.0931(2) 0.8633(3) -0.23452(17)
H33 H -0.0405 0.8457 -0.2196
C43 C -0.2607(2) 0.9438(3) -0.3962(2)
C44 C -0.0334(2) 0.6527(3) -0.12885(16)
H34 H -0.0067 0.6504 -0.1597
H35 H -0.0889 0.6430 -0.1576
C45 C -0.0042(2) 0.5591(3) -0.07589(17)
H36 H -0.0297 0.5644 -0.0442
H37 H 0.0513 0.5693 -0.0480
C46 C -0.0179(2) 0.4430(3) -0.10795(17)
H38 H 0.0037 0.3875 -0.0704
H39 H -0.0737 0.4297 -0.1318
C47 C -0.0295(2) 0.4388(3) -0.22577(19)
C48 C 0.0078(2) 0.4361(4) -0.2752(2)
H40 H -0.0322 0.4353 -0.3233
H41 H 0.0381 0.3670 -0.2678
C49 C 0.0605(3) 0.5363(4) -0.2656(2)
H42 H 0.0634 0.5520 -0.3101
H43 H 0.0375 0.6019 -0.2537
C50 C 0.1406(3) 0.5204(4) -0.2102(2)
H44 H 0.1711 0.5869 -0.2091
H45 H 0.1640 0.4564 -0.2231
C51 C 0.1458(2) 0.5006(3) -0.1370(2)
H46 H 0.2000 0.4871 -0.1054
H47 H 0.1296 0.5692 -0.1214
C52 C 0.0980(2) 0.4044(3) -0.1301(2)
H48 H 0.1061 0.3393 -0.1547
H49 H 0.1171 0.3845 -0.0805
loop_
_geom_bond_atom_site_label_1
_geom_bond_atom_site_label_2
_geom_bond_site_symmetry_1
_geom_bond_site_symmetry_2
O1 C1 1_555 1_555
O2 C2 1_555 1_555
O3 C23 1_555 1_555
O4 C24 1_555 1_555
O5 C47 1_555 1_555
N1 C1 1_555 1_555
N2 C23 1_555 1_555
N3 C22 1_555 1_555
N4 C43 1_555 1_555
N5 C46 1_555 1_555
C1 C9 1_555 1_555
C2 N1 1_555 1_555
C3 C2 1_555 1_555
C4 C3 1_555 1_555
H1 C4 1_555 1_555
C5 C4 1_555 1_555
H2 C5 1_555 1_555
C6 C5 1_555 1_555
C7 C6 1_555 1_555
C8 C3 1_555 1_555
C9 C8 1_555 1_555
C10 C9 1_555 1_555
H3 C10 1_555 1_555
C11 C10 1_555 1_555
C12 C7 1_555 1_555
C13 C12 1_555 1_555
C14 C13 1_555 1_555
C15 C6 1_555 1_555
C16 C15 1_555 1_555
H4 C16 1_555 1_555
C17 C16 1_555 1_555
H5 C17 1_555 1_555
C18 C17 1_555 1_555
C19 C14 1_555 1_555
C20 C19 1_555 1_555
C21 C20 1_555 1_555
H6 C21 1_555 1_555
C22 C13 1_555 1_555
C23 C20 1_555 1_555
C24 N2 1_555 1_555
C25 N1 1_555 1_555
H7 C25 1_555 1_555
C26 C25 1_555 1_555
H8 C26 1_555 1_555
H9 C26 1_555 1_555
C27 C26 1_555 1_555
H10 C27 1_555 1_555
H11 C27 1_555 1_555
H12 C27 1_555 1_555
C28 C25 1_555 1_555
H13 C28 1_555 1_555
H14 C28 1_555 1_555
C29 C28 1_555 1_555
H15 C29 1_555 1_555
H16 C29 1_555 1_555
H17 C29 1_555 1_555
C30 N2 1_555 1_555
H18 C30 1_555 1_555
C31 C30 1_555 1_555
H19 C31 1_555 1_555
H20 C31 1_555 1_555
C32 C31 1_555 1_555
H21 C32 1_555 1_555
H22 C32 1_555 1_555
H23 C32 1_555 1_555
C33 C30 1_555 1_555
H24 C33 1_555 1_555
H25 C33 1_555 1_555
C34 C33 1_555 1_555
H26 C34 1_555 1_555
H27 C34 1_555 1_555
H28 C34 1_555 1_555
C35 C11 1_555 1_555
H29 C35 1_555 1_555
C36 N3 1_555 1_555
C37 C36 1_555 1_555
C38 C37 1_555 1_555
H30 C38 1_555 1_555
C39 C38 1_555 1_555
H31 C39 1_555 1_555
C40 C39 1_555 1_555
C41 C40 1_555 1_555
H32 C41 1_555 1_555
C42 C37 1_555 1_555
H33 C42 1_555 1_555
C43 C40 1_555 1_555
C44 N3 1_555 1_555
H34 C44 1_555 1_555
H35 C44 1_555 1_555
C45 C44 1_555 1_555
H36 C45 1_555 1_555
H37 C45 1_555 1_555
C46 C45 1_555 1_555
H38 C46 1_555 1_555
H39 C46 1_555 1_555
C47 N5 1_555 1_555
C48 C47 1_555 1_555
H40 C48 1_555 1_555
H41 C48 1_555 1_555
C49 C48 1_555 1_555
H42 C49 1_555 1_555
H43 C49 1_555 1_555
C50 C49 1_555 1_555
H44 C50 1_555 1_555
H45 C50 1_555 1_555
C51 C50 1_555 1_555
H46 C51 1_555 1_555
H47 C51 1_555 1_555
C52 N5 1_555 1_555
H48 C52 1_555 1_555
H49 C52 1_555 1_555
C7 C8 1_555 1_555
C11 C12 1_555 1_555
C14 C15 1_555 1_555
C18 C19 1_555 1_555
C18 C24 1_555 1_555
C21 C22 1_555 1_555
C35 C36 1_555 1_555
C41 C42 1_555 1_555
C51 C52 1_555 1_555

#END
