
#######################################################################
#
#                 Cambridge Crystallographic Data Centre
#                                CCDC 
#
#######################################################################
#
# If this CIF has been generated from an entry in the Cambridge 
# Structural Database, then it will include bibliographic, chemical, 
# crystal, experimental, refinement or atomic coordinate data resulting 
# from the CCDC's data processing and validation procedures.
#
#######################################################################

data_VOKVUO
_chemical_formula_moiety         'Cs1 1+,5(Na1 1+),5(Ca1 2+),8(C1 O3 2-)'
_chemical_name_systematic        
'Penta-calcium cesium penta-sodium octacarbonate'
_symmetry_cell_setting           hexagonal
_symmetry_space_group_name_H-M   'P 63 m c'
_symmetry_Int_Tables_number      186
_space_group_name_Hall           "P 6c -2'c"
loop_
_symmetry_equiv_pos_site_id
_symmetry_equiv_pos_as_xyz
1 x,y,z
2 -y,x-y,z
3 -x+y,-x,z
4 -x,-y,1/2+z
5 y,-x+y,1/2+z
6 x-y,x,1/2+z
7 -y,-x,z
8 -x+y,y,z
9 x,x-y,z
10 y,x,1/2+z
11 x-y,-y,1/2+z
12 -x,-x+y,1/2+z
_cell_length_a                   10.0845(5)
_cell_length_b                   10.0845(5)
_cell_length_c                   12.7055(12)
_cell_angle_alpha                90
_cell_angle_beta                 90
_cell_angle_gamma                120
_cell_volume                     1119
_exptl_crystal_colour            orange
_exptl_crystal_description       Prism
_cell_formula_units_Z            2
loop_
_atom_site_label
_atom_site_type_symbol
_atom_site_fract_x
_atom_site_fract_y
_atom_site_fract_z
Ca1 Ca 1.0000 1.0000 0.49492(19)
C1 C 1.1664(4) 1.3329(9) 0.5196(6)
O1 O 1.2386(3) 1.4772(6) 0.5265(4)
O2 O 1.2388(4) 1.2582(4) 0.5152(3)
O2G O 1.0194(6) 1.2582(4) 0.5152(3)
C2 C 1.0363(8) 1.5181(4) 0.7853(6)
O3 O 1.0791(6) 1.5395(3) 0.8823(4)
O4 O 1.0158(5) 1.6175(5) 0.7381(4)
O4H O 1.0158(5) 1.3983(7) 0.7381(4)
Ca2 Ca 1.01010(14) 1.50505(10) 0.56018(13)
C3 C 0.6666 1.3333 0.5685(10)
O5 O 0.7396(7) 1.2604(3) 0.5697(4)
O5A O 0.7396(3) 1.4792(8) 0.5697(4)
O5B O 0.5208(8) 1.2604(7) 0.5697(4)
Cs1 Cs 0.6666 1.3333 0.82815(7)
Na1 Na 1.14536(18) 0.85464(18) 0.1714(2)
Na2 Na 1.3681(3) 1.18405(13) 0.38451(16)
Ca3? Ca 1.3681(3) 1.18405(13) 0.38451(16)
C4? C 1.0000 1.0000 0.2705(10)
O6? O 1.0000 1.0000 0.1729(9)
O7? O 0.8950(12) 0.8931(12) 0.3247(11)
loop_
_geom_bond_atom_site_label_1
_geom_bond_atom_site_label_2
_geom_bond_site_symmetry_1
_geom_bond_site_symmetry_2
C1 O1 1_555 1_555
O2 C1 1_555 1_555
C2 O3 1_555 1_555
O4 C2 1_555 1_555
C3 O5 1_555 1_555
O2G C1 1_555 1_555
O4H C2 1_555 1_555
O5A C3 1_555 1_555
O5B C3 1_555 1_555

#END
