
#######################################################################
#
#                 Cambridge Crystallographic Data Centre
#                                CCDC 
#
#######################################################################
#
# If this CIF has been generated from an entry in the Cambridge 
# Structural Database, then it will include bibliographic, chemical, 
# crystal, experimental, refinement or atomic coordinate data resulting 
# from the CCDC's data processing and validation procedures.
#
#######################################################################

data_VOKYOK
_chemical_formula_moiety         'C18 H25 N1 O2'
_chemical_name_systematic        
2-t-Butyl-3-(cyclohex-1-en-1-yl)-4-methoxybenzo(d)isoxazole
_symmetry_cell_setting           monoclinic
_symmetry_space_group_name_H-M   'P 21/n'
_symmetry_Int_Tables_number      14
_space_group_name_Hall           '-P 2yn'
loop_
_symmetry_equiv_pos_site_id
_symmetry_equiv_pos_as_xyz
1 x,y,z
2 1/2-x,1/2+y,1/2-z
3 -x,-y,-z
4 1/2+x,1/2-y,1/2+z
_cell_length_a                   6.6770(5)
_cell_length_b                   12.1595(9)
_cell_length_c                   19.6802(14)
_cell_angle_alpha                90
_cell_angle_beta                 94.7770(10)
_cell_angle_gamma                90
_cell_volume                     1592.27
_exptl_crystal_colour            colorless
_exptl_crystal_description       block
_cell_formula_units_Z            4
loop_
_atom_site_label
_atom_site_type_symbol
_atom_site_fract_x
_atom_site_fract_y
_atom_site_fract_z
N1 N 1.11266(11) 0.65406(6) 0.14418(4)
O1 O 0.91440(10) 0.70408(6) 0.15537(4)
O2 O 1.30496(9) 0.97074(5) 0.06227(3)
C1 C 1.22402(13) 0.73776(7) 0.10496(4)
H1 H 1.3597 0.7514 0.1290
C2 C 1.09667(12) 0.83959(7) 0.10837(4)
C3 C 1.12698(12) 0.94798(7) 0.08871(4)
C4 C 0.97687(13) 1.02572(7) 0.09766(5)
H2 H 0.9933 1.0997 0.0836
C5 C 0.80304(14) 0.99440(9) 0.12731(5)
H3 H 0.7029 1.0482 0.1333
C6 C 0.77140(14) 0.88740(9) 0.14833(5)
H4 H 0.6530 0.8666 0.1687
C7 C 0.92250(13) 0.81242(8) 0.13790(5)
C8 C 1.24715(13) 0.69481(7) 0.03382(4)
C9 C 1.42886(14) 0.67773(8) 0.01251(5)
H5 H 1.5432 0.6971 0.0420
C10 C 1.4619(4) 0.6291(6) -0.05632(16)
H6 H 1.5716 0.5743 -0.0507
H7 H 1.5050 0.6881 -0.0865
C11 C 1.2741(3) 0.57381(14) -0.09030(9)
H8 H 1.2919 0.5611 -0.1391
H9 H 1.2547 0.5016 -0.0686
C12 C 1.0897(5) 0.6451(3) -0.08383(13)
H10 H 1.1056 0.7151 -0.1085
H11 H 0.9698 0.6070 -0.1055
C13 C 1.05671(14) 0.66982(8) -0.00990(5)
H12 H 0.9647 0.7335 -0.0085
H13 H 0.9901 0.6058 0.0096
C14 C 1.20947(15) 0.62775(8) 0.21356(5)
C15 C 1.40275(17) 0.56564(9) 0.20166(5)
H14 H 1.4953 0.6150 0.1804
H15 H 1.3707 0.5027 0.1716
H16 H 1.4660 0.5395 0.2454
C16 C 1.25350(17) 0.72858(9) 0.25909(5)
H17 H 1.3453 0.7780 0.2375
H18 H 1.3157 0.7049 0.3035
H19 H 1.1277 0.7673 0.2653
C17 C 1.06724(17) 0.54989(9) 0.24714(5)
H20 H 0.9429 0.5890 0.2551
H21 H 1.1319 0.5240 0.2907
H22 H 1.0358 0.4869 0.2171
C18 C 1.33747(14) 1.08282(7) 0.04382(5)
H23 H 1.4691 1.0897 0.0256
H24 H 1.3333 1.1297 0.0842
H25 H 1.2322 1.1058 0.0090
C19? C 1.4688(7) 0.6386(9) -0.0576(2)
H26? H 1.5018 0.5592 -0.0561
H27? H 1.5851 0.6788 -0.0735
C20? C 1.2840(4) 0.6581(2) -0.10672(12)
H28? H 1.2686 0.7378 -0.1160
H29? H 1.3008 0.6204 -0.1505
C21? C 1.0971(8) 0.6148(4) -0.0766(2)
H30? H 0.9795 0.6261 -0.1099
H31? H 1.1123 0.5347 -0.0688
loop_
_geom_bond_atom_site_label_1
_geom_bond_atom_site_label_2
_geom_bond_site_symmetry_1
_geom_bond_site_symmetry_2
N1 O1 1_555 1_555
O1 C7 1_555 1_555
O2 C3 1_555 1_555
C1 N1 1_555 1_555
H1 C1 1_555 1_555
C2 C1 1_555 1_555
C3 C2 1_555 1_555
C4 C3 1_555 1_555
H2 C4 1_555 1_555
C5 C4 1_555 1_555
H3 C5 1_555 1_555
C6 C5 1_555 1_555
H4 C6 1_555 1_555
C7 C2 1_555 1_555
C8 C1 1_555 1_555
C9 C8 1_555 1_555
H5 C9 1_555 1_555
C10 C9 1_555 1_555
H6 C10 1_555 1_555
H7 C10 1_555 1_555
C11 C10 1_555 1_555
H8 C11 1_555 1_555
H9 C11 1_555 1_555
C12 C11 1_555 1_555
H10 C12 1_555 1_555
H11 C12 1_555 1_555
C13 C8 1_555 1_555
H12 C13 1_555 1_555
H13 C13 1_555 1_555
C14 N1 1_555 1_555
C15 C14 1_555 1_555
H14 C15 1_555 1_555
H15 C15 1_555 1_555
H16 C15 1_555 1_555
C16 C14 1_555 1_555
H17 C16 1_555 1_555
H18 C16 1_555 1_555
H19 C16 1_555 1_555
C17 C14 1_555 1_555
H20 C17 1_555 1_555
H21 C17 1_555 1_555
H22 C17 1_555 1_555
C18 O2 1_555 1_555
H23 C18 1_555 1_555
H24 C18 1_555 1_555
H25 C18 1_555 1_555
C6 C7 1_555 1_555
C12 C13 1_555 1_555

#END
