
#######################################################################
#
#                 Cambridge Crystallographic Data Centre
#                                CCDC 
#
#######################################################################
#
# If this CIF has been generated from an entry in the Cambridge 
# Structural Database, then it will include bibliographic, chemical, 
# crystal, experimental, refinement or atomic coordinate data resulting 
# from the CCDC's data processing and validation procedures.
#
#######################################################################

data_VOKZUR
_chemical_compound_source        'Tydemania expeditionis'
_chemical_formula_moiety         'C30 H48 O9 S2 2-,2(Na1 1+),2(C1 H4 O1),H2 O1'
_chemical_name_systematic        
'Di-sodium (3S,4R,5R,10S,13R,14R,17R,20R)-lanostan-8-en-3,29-diol-23-oxo-3,29-disulfate methanol solvate monohydrate'
_chemical_properties_biological  
'cytotoxic activity against human cancer cell lines'
_symmetry_cell_setting           orthorhombic
_symmetry_space_group_name_H-M   'P 21 21 21'
_symmetry_Int_Tables_number      19
_space_group_name_Hall           'P 2ac 2ab'
loop_
_symmetry_equiv_pos_site_id
_symmetry_equiv_pos_as_xyz
1 x,y,z
2 1/2-x,-y,1/2+z
3 -x,1/2+y,1/2-z
4 1/2+x,1/2-y,-z
_cell_length_a                   7.1495(5)
_cell_length_b                   10.4548(7)
_cell_length_c                   49.990(3)
_cell_angle_alpha                90
_cell_angle_beta                 90
_cell_angle_gamma                90
_cell_volume                     3736.58
_exptl_crystal_colour            colorless
_exptl_crystal_description       block
_cell_formula_units_Z            4
_exptl_crystal_recrystallization_method methanol
loop_
_atom_site_label
_atom_site_type_symbol
_atom_site_fract_x
_atom_site_fract_y
_atom_site_fract_z
Na1 Na 0.2352(7) -0.1935(4) 0.26106(9)
Na2 Na 1.2126(5) 0.4432(4) 0.26158(8)
S1 S 0.6448(4) -0.2214(2) 0.29650(5)
S2 S 1.0967(3) 0.1302(3) 0.27980(5)
O1 O 0.7182(8) -0.1842(5) 0.32556(11)
O2 O 0.4479(12) -0.2034(10) 0.29625(17)
O3 O 0.7043(10) -0.3536(6) 0.29447(16)
O4 O 0.742(2) -0.1402(8) 0.27867(16)
O5 O 0.9582(8) 0.1134(6) 0.30482(11)
O6 O 1.0812(10) 0.0187(7) 0.26315(14)
O7 O 1.2806(10) 0.1447(8) 0.29062(15)
O8 O 1.0185(12) 0.2439(7) 0.26806(15)
O9 O 0.3742(15) 0.8332(9) 0.50157(16)
C1 C 0.4809(11) 0.0777(7) 0.36577(18)
H1 H 0.4358 0.1337 0.3512
H2 H 0.3799 0.0711 0.3792
C2 C 0.5216(12) -0.0545(7) 0.35455(17)
H3 H 0.5537 -0.1130 0.3694
H4 H 0.4077 -0.0880 0.3457
C3 C 0.6814(11) -0.0531(7) 0.33450(16)
H5 H 0.6438 -0.0003 0.3187
C4 C 0.8641(12) 0.0013(7) 0.34623(16)
C5 C 0.8192(11) 0.1384(8) 0.35788(17)
H6 H 0.7734 0.1894 0.3423
C6 C 0.9861(11) 0.2090(8) 0.3680(2)
H7 H 1.0879 0.2049 0.3546
H8 H 1.0314 0.1689 0.3847
C7 C 0.9337(13) 0.3481(8) 0.3732(2)
H9 H 1.0395 0.3905 0.3824
H10 H 0.9156 0.3916 0.3558
C8 C 0.7597(14) 0.3658(9) 0.3898(2)
C9 C 0.6177(11) 0.2729(7) 0.38878(17)
C10 C 0.6515(11) 0.1385(7) 0.37864(18)
C11 C 0.4284(13) 0.3083(10) 0.3963(2)
H11 H 0.3808 0.2400 0.4082
H12 H 0.3517 0.3054 0.3798
C12 C 0.3862(14) 0.4374(8) 0.4102(2)
H13 H 0.3245 0.4954 0.3973
H14 H 0.2985 0.4227 0.4252
C13 C 0.5606(12) 0.5002(7) 0.42068(16)
C14 C 0.7087(13) 0.5022(8) 0.39748(16)
C15 C 0.8635(15) 0.5875(9) 0.4088(2)
H15 H 0.9331 0.6304 0.3943
H16 H 0.9525 0.5366 0.4197
C16 C 0.7614(13) 0.6856(8) 0.42628(19)
H17 H 0.7703 0.7717 0.4181
H18 H 0.8185 0.6889 0.4443
C17 C 0.5542(12) 0.6441(7) 0.42835(17)
H19 H 0.4854 0.6892 0.4137
C18 C 0.6390(13) 0.4236(9) 0.44474(18)
H20 H 0.5464 0.4225 0.4592
H21 H 0.7543 0.4642 0.4511
H22 H 0.6661 0.3357 0.4391
C19 C 0.6943(17) 0.0761(14) 0.40565(19)
H23 H 0.5830 0.0802 0.4171
H24 H 0.7977 0.1216 0.4143
H25 H 0.7294 -0.0135 0.4029
C20 C 0.4626(14) 0.6845(8) 0.4547(2)
H26 H 0.5371 0.6482 0.4698
C21 C 0.2645(16) 0.6414(10) 0.4575(3)
H27 H 0.2594 0.5478 0.4568
H28 H 0.1893 0.6773 0.4430
H29 H 0.2148 0.6707 0.4747
C22 C 0.4687(18) 0.8349(9) 0.4565(2)
H30 H 0.6002 0.8623 0.4542
H31 H 0.3968 0.8698 0.4413
C23 C 0.3985(19) 0.8933(13) 0.4806(2)
C24 C 0.3451(17) 1.0342(9) 0.4790(3)
H32 H 0.4518 1.0811 0.4711
H33 H 0.3295 1.0661 0.4975
C25 C 0.164(2) 1.0705(14) 0.4629(3)
H34 H 0.1864 1.0514 0.4435
C26 C -0.005(3) 1.0011(17) 0.4717(4)
H35 H -0.1117 1.0263 0.4606
H36 H -0.0319 1.0224 0.4905
H37 H 0.0153 0.9088 0.4701
C27 C 0.133(3) 1.2116(13) 0.4660(5)
H38 H 0.0211 1.2368 0.4560
H39 H 0.2416 1.2582 0.4591
H40 H 0.1158 1.2319 0.4850
C28 C 0.9562(14) -0.0918(9) 0.36614(18)
H41 H 0.9779 -0.1742 0.3573
H42 H 0.8735 -0.1042 0.3816
H43 H 1.0758 -0.0563 0.3722
C29 C 1.0113(12) 0.0132(8) 0.32359(17)
H44 H 1.1350 0.0334 0.3314
H45 H 1.0217 -0.0694 0.3140
C30 C 0.631(2) 0.5678(9) 0.3716(2)
H46 H 0.7275 0.5670 0.3576
H47 H 0.5961 0.6564 0.3756
H48 H 0.5207 0.5211 0.3652
O10 O 0.0904(13) -0.3893(10) 0.29030(16)
C31 C 0.130(2) -0.3983(14) 0.3175(2)
H49 H 0.0670 -0.4737 0.3249
H50 H 0.0846 -0.3213 0.3266
H51 H 0.2650 -0.4063 0.3200
O11 O 1.5296(15) 0.4190(7) 0.27932(19)
C32 C 1.587(2) 0.3655(13) 0.3045(3)
H52 H 1.7233 0.3678 0.3058
H53 H 1.5434 0.2767 0.3057
H54 H 1.5320 0.4153 0.3191
O12 O 0.3862(12) -0.3739(7) 0.23977(18)
loop_
_geom_bond_atom_site_label_1
_geom_bond_atom_site_label_2
_geom_bond_site_symmetry_1
_geom_bond_site_symmetry_2
S1 O1 1_555 1_555
S2 O5 1_555 1_555
O1 C3 1_555 1_555
O2 S1 1_555 1_555
O3 S1 1_555 1_555
O4 S1 1_555 1_555
O5 C29 1_555 1_555
O6 S2 1_555 1_555
O7 S2 1_555 1_555
O8 S2 1_555 1_555
O9 C23 1_555 1_555
O10 C31 1_555 1_555
O11 C32 1_555 1_555
C1 H1 1_555 1_555
H2 C1 1_555 1_555
C2 C1 1_555 1_555
H3 C2 1_555 1_555
H4 C2 1_555 1_555
C3 C2 1_555 1_555
H5 C3 1_555 1_555
C4 C3 1_555 1_555
C5 C4 1_555 1_555
H6 C5 1_555 1_555
C6 C5 1_555 1_555
H7 C6 1_555 1_555
H8 C6 1_555 1_555
C7 C6 1_555 1_555
H9 C7 1_555 1_555
H10 C7 1_555 1_555
C8 C7 1_555 1_555
C9 C8 1_555 1_555
C10 C1 1_555 1_555
C11 C9 1_555 1_555
H11 C11 1_555 1_555
H12 C11 1_555 1_555
C12 C11 1_555 1_555
H13 C12 1_555 1_555
H14 C12 1_555 1_555
C13 C12 1_555 1_555
C14 C8 1_555 1_555
C15 C14 1_555 1_555
H15 C15 1_555 1_555
H16 C15 1_555 1_555
C16 C15 1_555 1_555
H17 C16 1_555 1_555
H18 C16 1_555 1_555
C17 C13 1_555 1_555
H19 C17 1_555 1_555
C18 C13 1_555 1_555
H20 C18 1_555 1_555
H21 C18 1_555 1_555
H22 C18 1_555 1_555
C19 C10 1_555 1_555
H23 C19 1_555 1_555
H24 C19 1_555 1_555
H25 C19 1_555 1_555
C20 C17 1_555 1_555
H26 C20 1_555 1_555
C21 C20 1_555 1_555
H27 C21 1_555 1_555
H28 C21 1_555 1_555
H29 C21 1_555 1_555
C22 C20 1_555 1_555
H30 C22 1_555 1_555
H31 C22 1_555 1_555
C23 C22 1_555 1_555
C24 C23 1_555 1_555
H32 C24 1_555 1_555
H33 C24 1_555 1_555
C25 C24 1_555 1_555
H34 C25 1_555 1_555
C26 C25 1_555 1_555
H35 C26 1_555 1_555
H36 C26 1_555 1_555
H37 C26 1_555 1_555
C27 C25 1_555 1_555
H38 C27 1_555 1_555
H39 C27 1_555 1_555
H40 C27 1_555 1_555
C28 C4 1_555 1_555
H41 C28 1_555 1_555
H42 C28 1_555 1_555
H43 C28 1_555 1_555
C29 C4 1_555 1_555
H44 C29 1_555 1_555
H45 C29 1_555 1_555
C30 C14 1_555 1_555
H46 C30 1_555 1_555
H47 C30 1_555 1_555
H48 C30 1_555 1_555
C31 H49 1_555 1_555
H50 C31 1_555 1_555
H51 C31 1_555 1_555
C32 H52 1_555 1_555
H53 C32 1_555 1_555
H54 C32 1_555 1_555
C5 C10 1_555 1_555
C9 C10 1_555 1_555
C13 C14 1_555 1_555
C16 C17 1_555 1_555

#END
