
#######################################################################
#
#                 Cambridge Crystallographic Data Centre
#                                CCDC 
#
#######################################################################
#
# If this CIF has been generated from an entry in the Cambridge 
# Structural Database, then it will include bibliographic, chemical, 
# crystal, experimental, refinement or atomic coordinate data resulting 
# from the CCDC's data processing and validation procedures.
#
#######################################################################

data_VOKZOL
_chemical_compound_source        'Tydemania expeditionis'
_chemical_formula_moiety         'C30 H48 O9 S2 2-,2(Na1 1+),C1 H4 O1,2(H2 O1)'
_chemical_name_systematic        
'Di-sodium (3S,4R,5R,8S,9S,10R,13R,14S,17R,20R)-cycloartan-3,29-diol-23-oxo-3,29-disulfate methanol solvate dihydrate'
_chemical_properties_biological  
'cytotoxic activity against human cancer cell lines'
_symmetry_cell_setting           monoclinic
_symmetry_space_group_name_H-M   'P 21'
_symmetry_Int_Tables_number      4
_space_group_name_Hall           'P 2yb'
loop_
_symmetry_equiv_pos_site_id
_symmetry_equiv_pos_as_xyz
1 x,y,z
2 -x,1/2+y,-z
_cell_length_a                   6.8986(10)
_cell_length_b                   9.9518(13)
_cell_length_c                   26.382(3)
_cell_angle_alpha                90
_cell_angle_beta                 91.727(8)
_cell_angle_gamma                90
_cell_volume                     1810.39
_exptl_crystal_colour            colorless
_exptl_crystal_description       block
_cell_formula_units_Z            2
_exptl_crystal_recrystallization_method methanol
loop_
_atom_site_label
_atom_site_type_symbol
_atom_site_fract_x
_atom_site_fract_y
_atom_site_fract_z
C1 C 1.0039(8) 0.3489(6) 0.2754(2)
H1 H 1.0988 0.3420 0.2481
H2 H 1.0633 0.4032 0.3032
C2 C 0.9585(7) 0.2090(6) 0.2951(2)
H3 H 1.0772 0.1690 0.3107
H4 H 0.9153 0.1510 0.2664
C3 C 0.7998(8) 0.2152(6) 0.3342(2)
H5 H 0.8491 0.2666 0.3645
C4 C 0.6120(7) 0.2798(6) 0.31401(19)
C5 C 0.6692(7) 0.4244(6) 0.29557(19)
H6 H 0.7336 0.4692 0.3255
C6 C 0.4976(7) 0.5128(6) 0.2805(2)
H7 H 0.4075 0.5195 0.3089
H8 H 0.4264 0.4737 0.2509
C7 C 0.5752(8) 0.6531(6) 0.2672(2)
H9 H 0.4647 0.7159 0.2626
H10 H 0.6584 0.6865 0.2957
C8 C 0.6928(8) 0.6513(6) 0.2186(2)
H11 H 0.5981 0.6348 0.1898
C9 C 0.8423(8) 0.5351(6) 0.21777(19)
C10 C 0.8215(7) 0.4188(6) 0.25499(18)
C11 C 1.0528(8) 0.5706(6) 0.2037(2)
H12 H 1.1106 0.4900 0.1881
H13 H 1.1276 0.5888 0.2356
C12 C 1.0828(9) 0.6911(7) 0.1674(2)
H14 H 1.1885 0.7482 0.1817
H15 H 1.1256 0.6561 0.1344
C13 C 0.9049(8) 0.7779(6) 0.15806(19)
C14 C 0.7896(8) 0.7876(6) 0.2081(2)
C15 C 0.6398(9) 0.8973(7) 0.1952(2)
H16 H 0.5967 0.9427 0.2263
H17 H 0.5252 0.8590 0.1769
C16 C 0.7503(9) 0.9974(6) 0.1606(2)
H18 H 0.6719 1.0173 0.1294
H19 H 0.7765 1.0827 0.1788
C17 C 0.9410(8) 0.9291(6) 0.14713(19)
H20 H 1.0409 0.9602 0.1728
C18 C 0.7829(10) 0.7148(7) 0.1144(2)
H21 H 0.7609 0.6195 0.1216
H22 H 0.8523 0.7234 0.0827
H23 H 0.6580 0.7614 0.1111
C19 C 0.7626(8) 0.4016(6) 0.19943(18)
H24 H 0.8464 0.3453 0.1782
H25 H 0.6223 0.3963 0.1906
C20 C 1.0116(9) 0.9751(6) 0.0947(2)
H26 H 0.9071 0.9570 0.0685
C21 C 1.1985(9) 0.9042(8) 0.0790(2)
H27 H 1.2348 0.9362 0.0455
H28 H 1.1766 0.8069 0.0777
H29 H 1.3031 0.9242 0.1038
C22 C 1.0479(10) 1.1275(7) 0.0976(2)
H30 H 0.9331 1.1699 0.1126
H31 H 1.1595 1.1432 0.1213
C23 C 1.0878(9) 1.1997(7) 0.0483(2)
C24 C 1.1486(9) 1.3463(7) 0.0534(2)
H32 H 1.1413 1.3738 0.0893
H33 H 1.0566 1.4028 0.0333
C25 C 1.3545(9) 1.3713(7) 0.0354(2)
H34 H 1.3584 1.3421 -0.0008
C26 C 1.5039(12) 1.2888(10) 0.0653(3)
H35 H 1.6334 1.3072 0.0527
H36 H 1.4743 1.1930 0.0613
H37 H 1.5002 1.3130 0.1013
C27 C 1.3995(11) 1.5203(9) 0.0371(3)
H38 H 1.5312 1.5356 0.0254
H39 H 1.3897 1.5531 0.0719
H40 H 1.3066 1.5687 0.0150
C28 C 0.5146(8) 0.1963(6) 0.2727(2)
H41 H 0.4830 0.1075 0.2862
H42 H 0.6024 0.1862 0.2445
H43 H 0.3953 0.2411 0.2607
C29 C 0.4675(8) 0.2887(6) 0.35674(19)
H44 H 0.3384 0.3145 0.3425
H45 H 0.4554 0.1996 0.3730
C30 C 0.9158(10) 0.8314(7) 0.2541(2)
H46 H 0.8361 0.8358 0.2841
H47 H 0.9712 0.9202 0.2476
H48 H 1.0207 0.7662 0.2598
O1 O 0.7586(5) 0.0754(4) 0.34953(14)
O2 O 1.0374(8) 0.0672(6) 0.40673(19)
O3 O 0.8014(7) -0.1116(5) 0.40229(18)
O4 O 0.7136(13) 0.0992(7) 0.4386(2)
O5 O 0.5303(5) 0.3864(4) 0.39419(13)
O6 O 0.3886(6) 0.2906(4) 0.46939(14)
O7 O 0.2010(7) 0.4411(6) 0.41804(18)
O8 O 0.4804(7) 0.5220(5) 0.46535(16)
O9 O 1.0684(7) 1.1459(5) 0.00745(16)
S1 S 0.8375(3) 0.03047(16) 0.40324(5)
S2 S 0.38872(19) 0.41086(14) 0.43975(5)
C31 C 0.6632(14) 0.3275(13) 0.6282(3)
H49 H 0.5980 0.2456 0.6393
H50 H 0.6299 0.4021 0.6505
H51 H 0.8038 0.3136 0.6296
O10 O 0.6010(6) 0.3587(6) 0.57694(16)
Na1 Na 0.6991(4) 0.2166(3) 0.51086(10)
Na2 Na 0.7251(8) 0.5614(4) 0.53012(16)
O11 O 0.8602(12) 0.4166(10) 0.4753(3)
O13 O 1.0249(11) 0.1668(9) 0.5451(3)
O12? O 0.9452(16) 0.3569(12) 0.5031(4)
loop_
_geom_bond_atom_site_label_1
_geom_bond_atom_site_label_2
_geom_bond_site_symmetry_1
_geom_bond_site_symmetry_2
C1 H1 1_555 1_555
H2 C1 1_555 1_555
C2 C1 1_555 1_555
H3 C2 1_555 1_555
H4 C2 1_555 1_555
C3 C2 1_555 1_555
H5 C3 1_555 1_555
C4 C3 1_555 1_555
C5 C4 1_555 1_555
H6 C5 1_555 1_555
C6 C5 1_555 1_555
H7 C6 1_555 1_555
H8 C6 1_555 1_555
C7 C6 1_555 1_555
H9 C7 1_555 1_555
H10 C7 1_555 1_555
C8 C7 1_555 1_555
H11 C8 1_555 1_555
C9 C8 1_555 1_555
C10 C1 1_555 1_555
C11 C9 1_555 1_555
H12 C11 1_555 1_555
H13 C11 1_555 1_555
C12 C11 1_555 1_555
H14 C12 1_555 1_555
H15 C12 1_555 1_555
C13 C12 1_555 1_555
C14 C8 1_555 1_555
C15 C14 1_555 1_555
H16 C15 1_555 1_555
H17 C15 1_555 1_555
C16 C15 1_555 1_555
H18 C16 1_555 1_555
H19 C16 1_555 1_555
C17 C13 1_555 1_555
H20 C17 1_555 1_555
C18 C13 1_555 1_555
H21 C18 1_555 1_555
H22 C18 1_555 1_555
H23 C18 1_555 1_555
C19 C9 1_555 1_555
H24 C19 1_555 1_555
H25 C19 1_555 1_555
C20 C17 1_555 1_555
H26 C20 1_555 1_555
C21 C20 1_555 1_555
H27 C21 1_555 1_555
H28 C21 1_555 1_555
H29 C21 1_555 1_555
C22 C20 1_555 1_555
H30 C22 1_555 1_555
H31 C22 1_555 1_555
C23 C22 1_555 1_555
C24 C23 1_555 1_555
H32 C24 1_555 1_555
H33 C24 1_555 1_555
C25 C24 1_555 1_555
H34 C25 1_555 1_555
C26 C25 1_555 1_555
H35 C26 1_555 1_555
H36 C26 1_555 1_555
H37 C26 1_555 1_555
C27 C25 1_555 1_555
H38 C27 1_555 1_555
H39 C27 1_555 1_555
H40 C27 1_555 1_555
C28 C4 1_555 1_555
H41 C28 1_555 1_555
H42 C28 1_555 1_555
H43 C28 1_555 1_555
C29 C4 1_555 1_555
H44 C29 1_555 1_555
H45 C29 1_555 1_555
C30 C14 1_555 1_555
H46 C30 1_555 1_555
H47 C30 1_555 1_555
H48 C30 1_555 1_555
C31 H49 1_555 1_555
H50 C31 1_555 1_555
H51 C31 1_555 1_555
O1 C3 1_555 1_555
O2 S1 1_555 1_555
O3 S1 1_555 1_555
O4 S1 1_555 1_555
O5 C29 1_555 1_555
O6 S2 1_555 1_555
O7 S2 1_555 1_555
O8 S2 1_555 1_555
O9 C23 1_555 1_555
O10 C31 1_555 1_555
S1 O1 1_555 1_555
S2 O5 1_555 1_555
C5 C10 1_555 1_555
C9 C10 1_555 1_555
C10 C19 1_555 1_555
C13 C14 1_555 1_555
C16 C17 1_555 1_555

#END
