
#######################################################################
#
#                 Cambridge Crystallographic Data Centre
#                                CCDC 
#
#######################################################################
#
# If this CIF has been generated from an entry in the Cambridge 
# Structural Database, then it will include bibliographic, chemical, 
# crystal, experimental, refinement or atomic coordinate data resulting 
# from the CCDC's data processing and validation procedures.
#
#######################################################################

data_VOLBII
_chemical_compound_source        'fruits of Daphniphyllum longeracemosum'
_chemical_name_common            'Daphlongamine C monohydrate'
_chemical_formula_moiety         'C23 H33 N1 O4,H2 O1'
_chemical_name_systematic        
'Methyl 15-hydroxy-18-(hydroxymethyl)-14-methyl-12-azahexacyclo[10.6.1.1^1,4^.0^7,20^.0^10,18^.0^15,19^]icos-7(20)-ene-3-carboxylate monohydrate'
_symmetry_cell_setting           orthorhombic
_symmetry_space_group_name_H-M   'P 21 21 21'
_symmetry_Int_Tables_number      19
_space_group_name_Hall           'P 2ac 2ab'
loop_
_symmetry_equiv_pos_site_id
_symmetry_equiv_pos_as_xyz
1 x,y,z
2 1/2-x,-y,1/2+z
3 -x,1/2+y,1/2-z
4 1/2+x,1/2-y,-z
_cell_length_a                   8.799(2)
_cell_length_b                   14.981(3)
_cell_length_c                   15.655(3)
_cell_angle_alpha                90
_cell_angle_beta                 90
_cell_angle_gamma                90
_cell_volume                     2063.61
_exptl_crystal_colour            colorless
_exptl_crystal_description       block
_chemical_melting_point          153-155deg.C
_cell_formula_units_Z            4
loop_
_atom_site_label
_atom_site_type_symbol
_atom_site_fract_x
_atom_site_fract_y
_atom_site_fract_z
N1 N 0.08405(14) 0.22377(7) 0.82839(8)
O1 O 0.20548(14) -0.05633(7) 0.64922(7)
H1 H 0.2052 -0.1093 0.6360
O2 O 0.45384(12) 0.17878(7) 0.92896(7)
H2 H 0.4200 0.1927 0.9759
O3 O 0.1414(2) -0.17833(9) 0.90964(9)
O4 O 0.0628(2) -0.17680(9) 1.04435(9)
C1 C 0.18553(15) 0.16493(8) 0.87869(9)
H3 H 0.1608 0.1743 0.9391
C2 C 0.34739(15) 0.20342(9) 0.86399(9)
C3 C 0.41513(17) 0.17125(10) 0.77921(10)
H4 H 0.3820 0.2111 0.7341
H5 H 0.5250 0.1753 0.7827
C4 C 0.37206(15) 0.07596(10) 0.75480(9)
H6 H 0.4315 0.0353 0.7896
H7 H 0.4014 0.0663 0.6958
C5 C 0.20229(15) 0.05074(9) 0.76440(8)
C6 C 0.09935(16) 0.10942(9) 0.70587(9)
H8 H 0.1514 0.1111 0.6506
C7 C 0.08821(18) 0.20770(9) 0.73455(10)
H9 H 0.1744 0.2397 0.7111
H10 H -0.0028 0.2333 0.7096
C8 C 0.15768(14) 0.06518(8) 0.85917(8)
C9 C -0.00553(16) 0.04350(9) 0.88110(9)
C10 C -0.14021(16) 0.04511(10) 0.84210(11)
C11 C -0.18025(17) 0.08097(12) 0.75599(11)
H11 H -0.2045 0.1438 0.7622
H12 H -0.2717 0.0510 0.7367
C12 C -0.06037(18) 0.07183(11) 0.68655(11)
H13 H -0.0983 0.1012 0.6356
H14 H -0.0497 0.0089 0.6732
C13 C 0.24789(18) 0.00510(10) 0.92446(10)
H15 H 0.3036 -0.0407 0.8939
H16 H 0.3203 0.0413 0.9558
C14 C 0.13486(19) -0.03863(10) 0.98718(9)
H17 H 0.1688 -0.0277 1.0459
C15 C -0.01660(19) 0.01123(10) 0.97157(11)
H18 H -0.0204 0.0632 1.0095
C16 C -0.1721(2) -0.03509(16) 0.97341(15)
H19 H -0.1622 -0.0984 0.9618
H20 H -0.2211 -0.0273 1.0284
C17 C -0.2621(2) 0.01161(12) 0.90264(14)
H21 H -0.3298 -0.0299 0.8741
H22 H -0.3213 0.0608 0.9254
C18 C 0.31420(18) 0.30540(9) 0.86843(10)
H23 H 0.3255 0.3230 0.9284
C19 C 0.14471(18) 0.31472(10) 0.84665(12)
H24 H 0.0905 0.3411 0.8943
H25 H 0.1319 0.3529 0.7971
C20 C 0.4194(2) 0.36504(12) 0.81710(14)
H26 H 0.3898 0.4262 0.8244
H27 H 0.4130 0.3494 0.7577
H28 H 0.5220 0.3572 0.8366
C21 C 0.18622(17) -0.04813(9) 0.73893(9)
H29 H 0.2623 -0.0835 0.7683
H30 H 0.0866 -0.0700 0.7553
C22 C 0.11619(19) -0.13768(11) 0.97354(10)
C23 C 0.0253(4) -0.27024(14) 1.03793(19)
H31 H -0.0130 -0.2910 1.0918
H32 H 0.1148 -0.3035 1.0230
H33 H -0.0507 -0.2785 0.9947
O5 O -0.18850(17) 0.26331(8) 0.90851(8)
H34 H -0.118(2) 0.2404(16) 0.8794(15)
H35 H -0.265(2) 0.2325(16) 0.9067(17)
loop_
_geom_bond_atom_site_label_1
_geom_bond_atom_site_label_2
_geom_bond_site_symmetry_1
_geom_bond_site_symmetry_2
N1 C1 1_555 1_555
O1 H1 1_555 1_555
O2 H2 1_555 1_555
O3 C22 1_555 1_555
O4 C22 1_555 1_555
C1 H3 1_555 1_555
C2 O2 1_555 1_555
C3 C2 1_555 1_555
H4 C3 1_555 1_555
H5 C3 1_555 1_555
C4 C3 1_555 1_555
H6 C4 1_555 1_555
H7 C4 1_555 1_555
C5 C4 1_555 1_555
C6 C5 1_555 1_555
H8 C6 1_555 1_555
C7 N1 1_555 1_555
H9 C7 1_555 1_555
H10 C7 1_555 1_555
C8 C1 1_555 1_555
C9 C8 1_555 1_555
C10 C9 1_555 1_555
C11 C10 1_555 1_555
H11 C11 1_555 1_555
H12 C11 1_555 1_555
C12 C6 1_555 1_555
H13 C12 1_555 1_555
H14 C12 1_555 1_555
C13 C8 1_555 1_555
H15 C13 1_555 1_555
H16 C13 1_555 1_555
C14 C13 1_555 1_555
H17 C14 1_555 1_555
C15 C9 1_555 1_555
H18 C15 1_555 1_555
C16 C15 1_555 1_555
H19 C16 1_555 1_555
H20 C16 1_555 1_555
C17 C10 1_555 1_555
H21 C17 1_555 1_555
H22 C17 1_555 1_555
C18 C2 1_555 1_555
H23 C18 1_555 1_555
C19 N1 1_555 1_555
H24 C19 1_555 1_555
H25 C19 1_555 1_555
C20 C18 1_555 1_555
H26 C20 1_555 1_555
H27 C20 1_555 1_555
H28 C20 1_555 1_555
C21 O1 1_555 1_555
H29 C21 1_555 1_555
H30 C21 1_555 1_555
C22 C14 1_555 1_555
C23 O4 1_555 1_555
H31 C23 1_555 1_555
H32 C23 1_555 1_555
H33 C23 1_555 1_555
O5 H34 1_555 1_555
H35 O5 1_555 1_555
C1 C2 1_555 1_555
C5 C8 1_555 1_555
C5 C21 1_555 1_555
C6 C7 1_555 1_555
C11 C12 1_555 1_555
C14 C15 1_555 1_555
C16 C17 1_555 1_555
C18 C19 1_555 1_555

#END
