
#######################################################################
#
#                 Cambridge Crystallographic Data Centre
#                                CCDC 
#
#######################################################################
#
# If this CIF has been generated from an entry in the Cambridge 
# Structural Database, then it will include bibliographic, chemical, 
# crystal, experimental, refinement or atomic coordinate data resulting 
# from the CCDC's data processing and validation procedures.
#
#######################################################################

data_VOLJUD
_chemical_formula_moiety         'C14 H9 F4 N1 O1'
_chemical_name_systematic        
4-fluoro-N-(3-(trifluoromethyl)phenyl)benzamide
_symmetry_cell_setting           monoclinic
_symmetry_space_group_name_H-M   'P 21/c'
_symmetry_Int_Tables_number      14
_space_group_name_Hall           '-P 2ybc'
loop_
_symmetry_equiv_pos_site_id
_symmetry_equiv_pos_as_xyz
1 x,y,z
2 -x,1/2+y,1/2-z
3 -x,-y,-z
4 x,1/2-y,1/2+z
_cell_length_a                   10.7039(18)
_cell_length_b                   12.496(2)
_cell_length_c                   8.8106(15)
_cell_angle_alpha                90
_cell_angle_beta                 92.281(3)
_cell_angle_gamma                90
_cell_volume                     1177.54
_exptl_crystal_colour            colorless
_exptl_crystal_description       rod
_cell_formula_units_Z            4
loop_
_atom_site_label
_atom_site_type_symbol
_atom_site_fract_x
_atom_site_fract_y
_atom_site_fract_z
F1 F 0.48295(8) 1.07070(7) 0.64506(10)
F2 F 0.91981(8) 0.24547(7) 1.03559(10)
F3 F 0.80541(8) 0.32094(7) 0.85961(9)
F4 F 0.72461(8) 0.27454(7) 1.06878(10)
N1 N 0.75975(10) 0.70180(9) 1.00624(12)
H1 H 0.7345 0.6902 0.9114
O1 O 0.77144(9) 0.83317(8) 1.18735(10)
C1 C 0.66129(12) 0.87088(11) 0.95312(14)
C2 C 0.67920(13) 0.98131(11) 0.96270(15)
H2 H 0.7329 1.0101 1.0408
C3 C 0.61928(13) 1.04937(11) 0.85927(16)
H3 H 0.6325 1.1245 0.8638
C4 C 0.53996(13) 1.00486(11) 0.74950(15)
C5 C 0.51515(13) 0.89701(11) 0.74006(16)
H4 H 0.4575 0.8695 0.6652
C6 C 0.57683(12) 0.82972(11) 0.84313(15)
H5 H 0.5615 0.7549 0.8389
C7 C 0.82024(12) 0.61478(11) 1.08045(15)
C8 C 0.89866(12) 0.62433(11) 1.21006(15)
H6 H 0.9124 0.6923 1.2562
C9 C 0.95638(12) 0.53377(11) 1.27100(15)
H7 H 1.0105 0.5407 1.3585
C10 C 0.93691(13) 0.43360(11) 1.20724(15)
H8 H 0.9763 0.3721 1.2508
C11 C 0.85842(12) 0.42478(11) 1.07810(15)
C12 C 0.80100(12) 0.51453(11) 1.01421(15)
H9 H 0.7485 0.5077 0.9252
C13 C 0.73522(12) 0.80084(11) 1.06094(15)
C14 C 0.82824(13) 0.31768(11) 1.01104(16)
loop_
_geom_bond_atom_site_label_1
_geom_bond_atom_site_label_2
_geom_bond_site_symmetry_1
_geom_bond_site_symmetry_2
F1 C4 1_555 1_555
F2 C14 1_555 1_555
F3 C14 1_555 1_555
F4 C14 1_555 1_555
N1 H1 1_555 1_555
O1 C13 1_555 1_555
C1 C2 1_555 1_555
C2 H2 1_555 1_555
C3 C2 1_555 1_555
H3 C3 1_555 1_555
C4 C3 1_555 1_555
C5 C4 1_555 1_555
H4 C5 1_555 1_555
C6 C1 1_555 1_555
H5 C6 1_555 1_555
C7 N1 1_555 1_555
C8 C7 1_555 1_555
H6 C8 1_555 1_555
C9 C8 1_555 1_555
H7 C9 1_555 1_555
C10 C9 1_555 1_555
H8 C10 1_555 1_555
C11 C10 1_555 1_555
C12 C7 1_555 1_555
H9 C12 1_555 1_555
C13 N1 1_555 1_555
C14 C11 1_555 1_555
C1 C13 1_555 1_555
C5 C6 1_555 1_555
C11 C12 1_555 1_555

#END
