
#######################################################################
#
#                 Cambridge Crystallographic Data Centre
#                                CCDC 
#
#######################################################################
#
# If this CIF has been generated from an entry in the Cambridge 
# Structural Database, then it will include bibliographic, chemical, 
# crystal, experimental, refinement or atomic coordinate data resulting 
# from the CCDC's data processing and validation procedures.
#
#######################################################################

data_VOLTUN
_chemical_formula_moiety         'C5 H6 N6,2(C3 H7 N1 O1)'
_chemical_name_systematic        
'9H-Purine-2,6-diamine N,N-dimethylformamide solvate'
_symmetry_cell_setting           monoclinic
_symmetry_space_group_name_H-M   'P 21/n'
_symmetry_Int_Tables_number      14
_space_group_name_Hall           '-P 2yn'
loop_
_symmetry_equiv_pos_site_id
_symmetry_equiv_pos_as_xyz
1 x,y,z
2 1/2-x,1/2+y,1/2-z
3 -x,-y,-z
4 1/2+x,1/2-y,1/2+z
_cell_length_a                   13.978(4)
_cell_length_b                   8.0838(19)
_cell_length_c                   13.895(4)
_cell_angle_alpha                90
_cell_angle_beta                 105.158(4)
_cell_angle_gamma                90
_cell_volume                     1515.45
_exptl_crystal_colour            colorless
_exptl_crystal_description       chunk
_cell_formula_units_Z            4
loop_
_atom_site_label
_atom_site_type_symbol
_atom_site_fract_x
_atom_site_fract_y
_atom_site_fract_z
N1 N 0.77964(13) 0.6648(2) 0.13881(13)
N2 N 0.87863(13) 0.2340(2) 0.17782(13)
N3 N 0.90420(13) 0.6108(2) 0.04972(13)
C1 C 0.85336(15) 0.3982(2) 0.15141(15)
C2 C 0.83601(15) 0.7053(2) 0.07619(15)
N4 N 0.97104(13) 0.3318(2) 0.08020(13)
N5 N 0.72937(14) 0.4718(2) 0.23808(14)
C3 C 0.78641(15) 0.5100(2) 0.17715(15)
C4 C 0.90964(15) 0.4583(2) 0.09068(15)
N6 N 0.82137(16) 0.8591(2) 0.03642(16)
C5 C 0.94856(16) 0.2009(2) 0.13323(16)
H1 H 1.012(2) 0.331(4) 0.041(2)
H2 H 0.984(2) 0.098(4) 0.137(2)
H3 H 0.856(2) 0.893(4) -0.007(2)
H4 H 0.690(2) 0.558(4) 0.255(2)
H5 H 0.740(2) 0.381(4) 0.272(2)
H6 H 0.768(2) 0.917(4) 0.041(2)
O1 O 0.11476(12) 0.92651(19) 0.11630(12)
N7 N 0.19743(14) 0.6820(2) 0.16105(14)
C6 C 0.17582(17) 0.8214(3) 0.10735(17)
C7 C 0.2734(2) 0.5689(3) 0.1460(2)
C8 C 0.1464(2) 0.6384(3) 0.2360(2)
H7 H 0.220(2) 0.836(4) 0.057(2)
H8 H 0.325(3) 0.559(4) 0.210(3)
H9 H 0.301(3) 0.611(4) 0.093(3)
H10 H 0.245(3) 0.461(5) 0.127(3)
H11 H 0.193(3) 0.645(4) 0.302(3)
H12 H 0.087(3) 0.719(4) 0.231(2)
H13 H 0.116(2) 0.527(5) 0.224(2)
N8 N 0.51796(14) 0.2337(2) 0.01125(14)
C9 C 0.60281(18) 0.1602(3) 0.0552(2)
O2 O 0.65452(13) 0.0837(2) 0.00989(15)
C10 C 0.4770(2) 0.2270(3) -0.0964(2)
C11 C 0.4564(2) 0.3114(4) 0.0684(2)
H14 H 0.618(2) 0.176(4) 0.130(2)
H15 H 0.498(3) 0.314(4) 0.144(3)
H16 H 0.435(2) 0.430(5) 0.039(2)
H17 H 0.394(3) 0.246(4) 0.063(3)
H18 H 0.470(3) 0.339(5) -0.127(3)
H19 H 0.527(3) 0.149(4) -0.124(3)
H20 H 0.405(3) 0.185(4) -0.114(3)
loop_
_geom_bond_atom_site_label_1
_geom_bond_atom_site_label_2
_geom_bond_site_symmetry_1
_geom_bond_site_symmetry_2
N1 C2 1_555 1_555
N2 C1 1_555 1_555
N3 C2 1_555 1_555
C1 C3 1_555 1_555
C2 N6 1_555 1_555
N4 C4 1_555 1_555
N5 C3 1_555 1_555
C3 N1 1_555 1_555
C4 N3 1_555 1_555
N6 H3 1_555 1_555
C5 N2 1_555 1_555
H1 N4 1_555 1_555
H2 C5 1_555 1_555
H4 N5 1_555 1_555
H5 N5 1_555 1_555
H6 N6 1_555 1_555
O1 C6 1_555 1_555
N7 C6 1_555 1_555
C6 H7 1_555 1_555
C7 N7 1_555 1_555
C8 N7 1_555 1_555
H8 C7 1_555 1_555
H9 C7 1_555 1_555
H10 C7 1_555 1_555
H11 C8 1_555 1_555
H12 C8 1_555 1_555
H13 C8 1_555 1_555
N8 C9 1_555 1_555
C9 O2 1_555 1_555
C10 N8 1_555 1_555
C11 N8 1_555 1_555
H14 C9 1_555 1_555
H15 C11 1_555 1_555
H16 C11 1_555 1_555
H17 C11 1_555 1_555
H18 C10 1_555 1_555
H19 C10 1_555 1_555
H20 C10 1_555 1_555
C1 C4 1_555 1_555
N4 C5 1_555 1_555

#END
