
#######################################################################
#
#                 Cambridge Crystallographic Data Centre
#                                CCDC 
#
#######################################################################
#
# If this CIF has been generated from an entry in the Cambridge 
# Structural Database, then it will include bibliographic, chemical, 
# crystal, experimental, refinement or atomic coordinate data resulting 
# from the CCDC's data processing and validation procedures.
#
#######################################################################

data_VOLTEX
_chemical_formula_moiety         'C5 H6 N6,x(C7 H8 O1)'
_chemical_name_systematic        '9H-Purine-2,6-diamine anisole solvate'
_symmetry_cell_setting           rhombohedral
_symmetry_space_group_name_H-M   'R -3'
_symmetry_Int_Tables_number      148
_space_group_name_Hall           '-R 3'
loop_
_symmetry_equiv_pos_site_id
_symmetry_equiv_pos_as_xyz
1 x,y,z
2 -y,x-y,z
3 -x+y,-x,z
4 2/3+x,1/3+y,1/3+z
5 2/3-y,1/3+x-y,1/3+z
6 2/3-x+y,1/3-x,1/3+z
7 1/3+x,2/3+y,2/3+z
8 1/3-y,2/3+x-y,2/3+z
9 1/3-x+y,2/3-x,2/3+z
10 -x,-y,-z
11 y,-x+y,-z
12 x-y,x,-z
13 1/3-x,2/3-y,2/3-z
14 1/3+y,2/3-x+y,2/3-z
15 1/3+x-y,2/3+x,2/3-z
16 2/3-x,1/3-y,1/3-z
17 2/3+y,1/3-x+y,1/3-z
18 2/3+x-y,1/3+x,1/3-z
_cell_length_a                   18.711(3)
_cell_length_b                   18.711(3)
_cell_length_c                   10.843(2)
_cell_angle_alpha                90
_cell_angle_beta                 90
_cell_angle_gamma                120
_cell_volume                     3287.56
_exptl_crystal_colour            colorless
_exptl_crystal_description       chunk
_cell_formula_units_Z            9
loop_
_atom_site_label
_atom_site_type_symbol
_atom_site_fract_x
_atom_site_fract_y
_atom_site_fract_z
N1 N 0.14084(14) 0.72293(14) 0.0212(2)
C1 C 0.21589(17) 0.78443(17) 0.0520(2)
N2 N 0.31688(15) 0.84550(15) -0.2343(2)
H1 H 0.3206 0.8420 -0.3129
N3 N 0.23365(15) 0.80367(15) 0.1719(2)
H2 H 0.1971 0.7766 0.2273
H3 H 0.2816 0.8430 0.1931
N4 N 0.17559(15) 0.73445(15) -0.1966(2)
N5 N 0.35471(14) 0.89164(14) -0.0417(2)
N6 N 0.04679(15) 0.63844(16) -0.1236(2)
H4 H 0.0326 0.6211 -0.1980
H5 H 0.0121 0.6158 -0.0643
C2 C 0.27343(16) 0.82658(16) -0.0432(3)
C3 C 0.24889(17) 0.79739(17) -0.1617(3)
C4 C 0.12412(17) 0.70160(16) -0.0999(3)
C5 C 0.37683(17) 0.89959(18) -0.1571(3)
H6 H 0.432(2) 0.949(3) -0.199(4)
loop_
_geom_bond_atom_site_label_1
_geom_bond_atom_site_label_2
_geom_bond_site_symmetry_1
_geom_bond_site_symmetry_2
N1 C1 1_555 1_555
C1 N3 1_555 1_555
N2 H1 1_555 1_555
N3 H2 1_555 1_555
H3 N3 1_555 1_555
N4 C3 1_555 1_555
N5 C2 1_555 1_555
N6 H4 1_555 1_555
H5 N6 1_555 1_555
C2 C1 1_555 1_555
C3 N2 1_555 1_555
C4 N1 1_555 1_555
C5 N2 1_555 1_555
H6 C5 1_555 1_555
N4 C4 1_555 1_555
N5 C5 1_555 1_555
N6 C4 1_555 1_555
C2 C3 1_555 1_555

#END
