
#######################################################################
#
#                 Cambridge Crystallographic Data Centre
#                                CCDC 
#
#######################################################################
#
# If this CIF has been generated from an entry in the Cambridge 
# Structural Database, then it will include bibliographic, chemical, 
# crystal, experimental, refinement or atomic coordinate data resulting 
# from the CCDC's data processing and validation procedures.
#
#######################################################################

data_VOMBIK
_chemical_formula_moiety         
'C70 H74 N12 6+,6(C1 H3 O3 S1 1-),4(H2 O1),4(C1 H1 Cl3)'
_chemical_name_systematic        
'3,4,12,13,30,31,39,40-octaethyl-56,58,60,62,64,66-hexaaza-55,57,59,61,63,65-hexaazoniatridecacyclo[49.3.1.12,5.16,10.111,14.115,19.120,23.124,28.129,32.133,37.138,41.142,46.147,50]hexahexaconta-1(55),2,4,6(65),7,9,11,13,15(63),16,18,20,22,24(61),25,27,29,31,33(59),34,36,38,40,42(57),43,45,47,49,51,53-triacontaene hexakis(methaensulfonate) chloroform solvate tetrahydrate'
_symmetry_cell_setting           triclinic
_symmetry_space_group_name_H-M   'P -1'
_symmetry_Int_Tables_number      2
_space_group_name_Hall           '-P 1'
loop_
_symmetry_equiv_pos_site_id
_symmetry_equiv_pos_as_xyz
1 x,y,z
2 -x,-y,-z
_cell_length_a                   13.0350(8)
_cell_length_b                   15.4100(9)
_cell_length_c                   15.9000(9)
_cell_angle_alpha                94.7780(17)
_cell_angle_beta                 107.8770(17)
_cell_angle_gamma                114.7490(16)
_cell_volume                     2676.26
_cell_formula_units_Z            1
_exptl_crystal_recrystallization_method 'chloroform/ hexanes'
loop_
_atom_site_label
_atom_site_type_symbol
_atom_site_fract_x
_atom_site_fract_y
_atom_site_fract_z
C1 C -0.0050(2) 0.04895(16) 0.18170(15)
C2 C -0.0845(2) -0.05093(16) 0.14139(16)
H1 H -0.0925 -0.0972 0.1763
C3 C -0.1513(2) -0.07988(17) 0.04837(16)
H2 H -0.2062 -0.1460 0.0208
C4 C -0.1370(2) -0.01122(17) -0.00425(15)
H3 H -0.1803 -0.0316 -0.0669
C5 C -0.0578(2) 0.08802(16) 0.03715(15)
C6 C -0.0355(2) 0.16393(16) -0.01284(15)
C7 C -0.1134(2) 0.16829(17) -0.09327(15)
C8 C -0.0454(2) 0.25502(17) -0.11627(15)
C9 C 0.0722(2) 0.30057(17) -0.04985(15)
C10 C 0.1799(2) 0.38703(17) -0.04748(15)
C11 C 0.2100(2) 0.39921(19) -0.12361(16)
H4 H 0.1604 0.3525 -0.1789
C12 C 0.3150(3) 0.4818(2) -0.11658(17)
H5 H 0.3358 0.4901 -0.1674
C13 C 0.3890(2) 0.55186(18) -0.03446(17)
H6 H 0.4598 0.6068 -0.0297
C14 C 0.3559(2) 0.53887(17) 0.04100(16)
C15 C 0.4245(2) 0.61054(17) 0.12856(15)
C16 C 0.4715(2) 0.71237(17) 0.14623(16)
C17 C 0.5238(2) 0.74910(17) 0.24196(16)
C18 C 0.5061(2) 0.66747(16) 0.27890(15)
C19 C 0.5316(2) 0.66050(16) 0.37288(15)
C20 C 0.4499(2) 0.58810(17) 0.40015(16)
H7 H 0.3771 0.5379 0.3572
C21 C 0.4788(2) 0.59184(18) 0.49218(17)
H8 H 0.4246 0.5437 0.5109
C22 C 0.5875(2) 0.66625(17) 0.55712(16)
H9 H 0.6061 0.6680 0.6188
C23 C 0.6680(2) 0.73802(16) 0.52861(15)
C24 C 0.7819(2) 0.82081(16) 0.58970(15)
C25 C 0.8634(2) 0.90242(17) 0.57082(16)
H10 H 0.8560 0.9148 0.5136
C26 C 0.0415(2) 0.03755(17) 0.34641(16)
H11 H -0.0258 -0.0219 0.3383
C27 C 0.0670(2) 0.08393(16) 0.27845(15)
C28 C -0.2450(2) 0.09550(18) -0.14738(16)
H12 H -0.2905 0.1312 -0.1673
H13 H -0.2784 0.0568 -0.1083
C29 C -0.2620(3) 0.0256(2) -0.23124(18)
H14 H -0.2249 0.0636 -0.2684
H15 H -0.3475 -0.0156 -0.2660
H16 H -0.2242 -0.0148 -0.2117
C30 C -0.0981(2) 0.29598(19) -0.19065(17)
H17 H -0.1531 0.2432 -0.2452
H18 H -0.0327 0.3440 -0.2048
C31 C -0.1674(3) 0.3450(2) -0.1627(2)
H19 H -0.2331 0.2973 -0.1498
H20 H -0.1998 0.3704 -0.2116
H21 H -0.1128 0.3980 -0.1094
C32 C 0.4585(2) 0.77238(18) 0.07710(17)
H22 H 0.4343 0.8190 0.0979
H23 H 0.3944 0.7288 0.0198
C33 C 0.5761(3) 0.8284(2) 0.0612(2)
H24 H 0.6409 0.8694 0.1182
H25 H 0.5648 0.8689 0.0201
H26 H 0.5965 0.7824 0.0353
C34 C 0.5741(2) 0.85444(17) 0.29124(17)
H27 H 0.5790 0.8948 0.2475
H28 H 0.6564 0.8769 0.3347
C35 C 0.4983(3) 0.8696(2) 0.34156(19)
H29 H 0.4150 0.8422 0.3001
H30 H 0.5297 0.9388 0.3656
H31 H 0.5023 0.8373 0.3906
N1 N 0.00332(17) 0.11465(14) 0.12921(13)
H32 H 0.0495 0.1763 0.1554
N2 N 0.07635(17) 0.24624(14) 0.01400(13)
H33 H 0.1386 0.2611 0.0627
N3 N 0.25294(18) 0.45758(14) 0.03147(13)
H34 H 0.2327 0.4503 0.0780
N4 N 0.44350(18) 0.58374(14) 0.20978(13)
H35 H 0.4201 0.5244 0.2162
N5 N 0.63850(17) 0.73115(14) 0.43752(13)
H36 H 0.6903 0.7738 0.4200
N6 N 0.82597(17) 0.83004(13) 0.68186(12)
H37 H 0.7920 0.7886 0.7101
C1A C 1.0050(2) 0.95105(16) 0.81830(15)
C2A C 1.0845(2) 1.05093(16) 0.85861(16)
H1A H 1.0925 1.0972 0.8237
C3A C 1.1513(2) 1.07988(17) 0.95163(16)
H2A H 1.2062 1.1460 0.9792
C4A C 1.1370(2) 1.01122(17) 1.00425(15)
H3A H 1.1803 1.0316 1.0669
C5A C 1.0578(2) 0.91198(16) 0.96285(15)
C6A C 1.0355(2) 0.83607(16) 1.01284(15)
C7A C 1.1134(2) 0.83171(17) 1.09327(15)
C8A C 1.0454(2) 0.74498(17) 1.11627(15)
C9A C 0.9278(2) 0.69943(17) 1.04985(15)
C10A C 0.8201(2) 0.61297(17) 1.04748(15)
C11A C 0.7900(2) 0.60079(19) 1.12361(16)
H4A H 0.8396 0.6475 1.1789
C12A C 0.6850(3) 0.5182(2) 1.11658(17)
H5A H 0.6642 0.5099 1.1674
C13A C 0.6110(2) 0.44814(18) 1.03446(17)
H6A H 0.5402 0.3932 1.0297
C14A C 0.6441(2) 0.46113(17) 0.95900(16)
C15A C 0.5755(2) 0.38946(17) 0.87144(15)
C16A C 0.5285(2) 0.28763(17) 0.85377(16)
C17A C 0.4762(2) 0.25090(17) 0.75804(16)
C18A C 0.4939(2) 0.33253(16) 0.72110(15)
C19A C 0.4684(2) 0.33950(16) 0.62712(15)
C20A C 0.5501(2) 0.41190(17) 0.59985(16)
H7A H 0.6229 0.4621 0.6428
C21A C 0.5212(2) 0.40816(18) 0.50782(17)
H8A H 0.5754 0.4563 0.4891
C22A C 0.4125(2) 0.33375(17) 0.44288(16)
H9A H 0.3939 0.3320 0.3812
C23A C 0.3320(2) 0.26198(16) 0.47139(15)
C24A C 0.2181(2) 0.17919(16) 0.41030(15)
C25A C 0.1366(2) 0.09758(17) 0.42918(16)
H10A H 0.1440 0.0852 0.4864
C26A C 0.9585(2) 0.96245(17) 0.65359(16)
H11A H 1.0258 1.0219 0.6617
C27A C 0.9330(2) 0.91607(16) 0.72155(15)
C28A C 1.2450(2) 0.90450(18) 1.14738(16)
H12A H 1.2905 0.8688 1.1673
H13A H 1.2784 0.9432 1.1083
C29A C 1.2620(3) 0.9744(2) 1.23124(18)
H14A H 1.2249 0.9364 1.2684
H15A H 1.3475 1.0156 1.2660
H16A H 1.2242 1.0148 1.2117
C30A C 1.0981(2) 0.70402(19) 1.19065(17)
H17A H 1.1531 0.7568 1.2452
H18A H 1.0327 0.6560 1.2048
C31A C 1.1674(3) 0.6550(2) 1.1627(2)
H19A H 1.2331 0.7027 1.1498
H20A H 1.1998 0.6296 1.2116
H21A H 1.1128 0.6020 1.1094
C32A C 0.5415(2) 0.22762(18) 0.92290(17)
H22A H 0.5657 0.1810 0.9021
H23A H 0.6056 0.2712 0.9802
C33A C 0.4239(3) 0.1716(2) 0.9388(2)
H24A H 0.3591 0.1306 0.8818
H25A H 0.4352 0.1311 0.9799
H26A H 0.4035 0.2176 0.9647
C34A C 0.4259(2) 0.14556(17) 0.70876(17)
H27A H 0.4210 0.1052 0.7525
H28A H 0.3436 0.1231 0.6653
C35A C 0.5017(3) 0.1304(2) 0.65844(19)
H29A H 0.5850 0.1578 0.6999
H30A H 0.4703 0.0612 0.6344
H31A H 0.4977 0.1627 0.6094
N1A N 0.99668(17) 0.88535(14) 0.87079(13)
H32A H 0.9505 0.8237 0.8446
N2A N 0.92365(17) 0.75376(14) 0.98600(13)
H33A H 0.8614 0.7389 0.9373
N3A N 0.74706(18) 0.54242(14) 0.96853(13)
H34A H 0.7673 0.5497 0.9220
N4A N 0.55650(18) 0.41626(14) 0.79022(13)
H35A H 0.5799 0.4756 0.7838
N5A N 0.36150(17) 0.26885(14) 0.56248(13)
H36A H 0.3097 0.2262 0.5800
N6A N 0.17403(17) 0.16996(13) 0.31814(12)
H37A H 0.2080 0.2114 0.2899
C36 C 0.4762(3) 0.2595(2) 0.19842(19)
H38 H 0.5513 0.3034 0.1937
H39 H 0.4388 0.1979 0.1543
H40 H 0.4925 0.2483 0.2585
O1 O 0.35412(17) 0.32511(14) 0.08546(12)
O2 O 0.43795(17) 0.40369(13) 0.24740(12)
O3 O 0.26479(16) 0.23946(13) 0.18453(13)
S1 S 0.37768(5) 0.31188(4) 0.17789(4)
C37 C -0.0432(3) 0.3814(2) 0.1295(2)
H41 H -0.1066 0.3589 0.1534
H42 H -0.0664 0.3338 0.0752
H43 H -0.0312 0.4434 0.1151
O4 O 0.18610(17) 0.43159(14) 0.17271(12)
O5 O 0.06705(19) 0.29819(13) 0.22798(14)
O6 O 0.12264(18) 0.46534(14) 0.29294(12)
S2 S 0.09315(5) 0.39618(4) 0.21121(4)
C38 C 0.9388(2) 0.51437(19) 0.3686(2)
H44 H 0.9996 0.5125 0.3475
H45 H 0.9758 0.5455 0.4325
H46 H 0.9035 0.5511 0.3359
O7 O 0.73470(18) 0.40014(16) 0.38330(16)
O8 O 0.77420(18) 0.34995(15) 0.25231(14)
O9 O 0.88261(19) 0.34131(16) 0.40329(15)
S3 S 0.82399(6) 0.39319(5) 0.34961(5)
C39 C 1.0018(3) 0.8014(3) 0.4437(2)
H47 H 1.0384 0.7607 0.4342
H48 H 0.9786 0.7909 0.4952
H49 H 1.0594 0.8694 0.4550
O10 O 0.79142(19) 0.66465(13) 0.32920(13)
O11 O 0.9147(2) 0.79545(14) 0.27340(14)
O12 O 0.81711(17) 0.82956(13) 0.36989(12)
S4 S 0.87181(6) 0.77054(4) 0.34607(4)
C40 C 0.3143(3) 0.7907(2) 0.5076(2)
H50 H 0.2661 0.7752 0.5461
Cl1 Cl 0.30568(8) 0.88966(6) 0.46108(6)
Cl2 Cl 0.25523(6) 0.68662(5) 0.41950(5)
Cl3 Cl 0.46811(7) 0.82833(6) 0.57511(5)
C41 C 0.7008(3) 0.1307(2) 0.1878(2)
H51 H 0.7245 0.1999 0.2112
Cl4 Cl 0.54912(8) 0.05725(7) 0.17788(9)
Cl5 Cl 0.70886(9) 0.11594(7) 0.07921(7)
Cl6 Cl 0.80127(8) 0.09854(6) 0.26301(6)
O13 O 0.7527(2) 0.56885(17) 0.45518(19)
O14 O 0.0699(3) 0.3226(3) 0.40478(18)
loop_
_geom_bond_atom_site_label_1
_geom_bond_atom_site_label_2
_geom_bond_site_symmetry_1
_geom_bond_site_symmetry_2
C1 C2 1_555 1_555
C2 H1 1_555 1_555
C3 C2 1_555 1_555
H2 C3 1_555 1_555
C4 C3 1_555 1_555
H3 C4 1_555 1_555
C5 C4 1_555 1_555
C6 C5 1_555 1_555
C7 C6 1_555 1_555
C8 C7 1_555 1_555
C9 C8 1_555 1_555
C10 C9 1_555 1_555
C11 C10 1_555 1_555
H4 C11 1_555 1_555
C12 C11 1_555 1_555
H5 C12 1_555 1_555
C13 C12 1_555 1_555
H6 C13 1_555 1_555
C14 C13 1_555 1_555
C15 C14 1_555 1_555
C16 C15 1_555 1_555
C17 C16 1_555 1_555
C18 C17 1_555 1_555
C19 C18 1_555 1_555
C20 C19 1_555 1_555
H7 C20 1_555 1_555
C21 C20 1_555 1_555
H8 C21 1_555 1_555
C22 C21 1_555 1_555
H9 C22 1_555 1_555
C23 C22 1_555 1_555
C24 C23 1_555 1_555
C25 C24 1_555 1_555
H10 C25 1_555 1_555
C26 H11 1_555 1_555
C27 C1 1_555 1_555
C28 C7 1_555 1_555
H12 C28 1_555 1_555
H13 C28 1_555 1_555
C29 C28 1_555 1_555
H14 C29 1_555 1_555
H15 C29 1_555 1_555
H16 C29 1_555 1_555
C30 C8 1_555 1_555
H17 C30 1_555 1_555
H18 C30 1_555 1_555
C31 C30 1_555 1_555
H19 C31 1_555 1_555
H20 C31 1_555 1_555
H21 C31 1_555 1_555
C32 C16 1_555 1_555
H22 C32 1_555 1_555
H23 C32 1_555 1_555
C33 C32 1_555 1_555
H24 C33 1_555 1_555
H25 C33 1_555 1_555
H26 C33 1_555 1_555
C34 C17 1_555 1_555
H27 C34 1_555 1_555
H28 C34 1_555 1_555
C35 C34 1_555 1_555
H29 C35 1_555 1_555
H30 C35 1_555 1_555
H31 C35 1_555 1_555
N1 C1 1_555 1_555
H32 N1 1_555 1_555
N2 C6 1_555 1_555
H33 N2 1_555 1_555
N3 C10 1_555 1_555
H34 N3 1_555 1_555
N4 C15 1_555 1_555
H35 N4 1_555 1_555
N5 C19 1_555 1_555
H36 N5 1_555 1_555
N6 C24 1_555 1_555
H37 N6 1_555 1_555
C36 H38 1_555 1_555
H39 C36 1_555 1_555
H40 C36 1_555 1_555
O1 S1 1_555 1_555
O2 S1 1_555 1_555
O3 S1 1_555 1_555
S1 C36 1_555 1_555
C37 H41 1_555 1_555
H42 C37 1_555 1_555
H43 C37 1_555 1_555
O4 S2 1_555 1_555
O5 S2 1_555 1_555
O6 S2 1_555 1_555
S2 C37 1_555 1_555
C38 H44 1_555 1_555
H45 C38 1_555 1_555
H46 C38 1_555 1_555
O7 S3 1_555 1_555
O8 S3 1_555 1_555
O9 S3 1_555 1_555
S3 C38 1_555 1_555
C39 H47 1_555 1_555
H48 C39 1_555 1_555
H49 C39 1_555 1_555
O10 S4 1_555 1_555
O11 S4 1_555 1_555
O12 S4 1_555 1_555
S4 C39 1_555 1_555
C40 H50 1_555 1_555
Cl1 C40 1_555 1_555
Cl2 C40 1_555 1_555
Cl3 C40 1_555 1_555
C41 H51 1_555 1_555
Cl4 C41 1_555 1_555
Cl5 C41 1_555 1_555
Cl6 C41 1_555 1_555
C1A C2A 1_555 1_555
C2A H1A 1_555 1_555
C3A C2A 1_555 1_555
H2A C3A 1_555 1_555
C4A C3A 1_555 1_555
H3A C4A 1_555 1_555
C5A C4A 1_555 1_555
C6A C5A 1_555 1_555
C7A C6A 1_555 1_555
C8A C7A 1_555 1_555
C9A C8A 1_555 1_555
C10A C9A 1_555 1_555
C11A C10A 1_555 1_555
H4A C11A 1_555 1_555
C12A C11A 1_555 1_555
H5A C12A 1_555 1_555
C13A C12A 1_555 1_555
H6A C13A 1_555 1_555
C14A C13A 1_555 1_555
C15A C14A 1_555 1_555
C16A C15A 1_555 1_555
C17A C16A 1_555 1_555
C18A C17A 1_555 1_555
C19A C18A 1_555 1_555
C20A C19A 1_555 1_555
H7A C20A 1_555 1_555
C21A C20A 1_555 1_555
H8A C21A 1_555 1_555
C22A C21A 1_555 1_555
H9A C22A 1_555 1_555
C23A C22A 1_555 1_555
C24A C23A 1_555 1_555
C25A C26 1_555 1_555
H10A C25A 1_555 1_555
C26A C25 1_555 1_555
H11A C26A 1_555 1_555
C27A N6 1_555 1_555
C28A C7A 1_555 1_555
H12A C28A 1_555 1_555
H13A C28A 1_555 1_555
C29A C28A 1_555 1_555
H14A C29A 1_555 1_555
H15A C29A 1_555 1_555
H16A C29A 1_555 1_555
C30A C8A 1_555 1_555
H17A C30A 1_555 1_555
H18A C30A 1_555 1_555
C31A C30A 1_555 1_555
H19A C31A 1_555 1_555
H20A C31A 1_555 1_555
H21A C31A 1_555 1_555
C32A C16A 1_555 1_555
H22A C32A 1_555 1_555
H23A C32A 1_555 1_555
C33A C32A 1_555 1_555
H24A C33A 1_555 1_555
H25A C33A 1_555 1_555
H26A C33A 1_555 1_555
C34A C17A 1_555 1_555
H27A C34A 1_555 1_555
H28A C34A 1_555 1_555
C35A C34A 1_555 1_555
H29A C35A 1_555 1_555
H30A C35A 1_555 1_555
H31A C35A 1_555 1_555
N1A C1A 1_555 1_555
H32A N1A 1_555 1_555
N2A C6A 1_555 1_555
H33A N2A 1_555 1_555
N3A C10A 1_555 1_555
H34A N3A 1_555 1_555
N4A C15A 1_555 1_555
H35A N4A 1_555 1_555
N5A C19A 1_555 1_555
H36A N5A 1_555 1_555
N6A C27 1_555 1_555
H37A N6A 1_555 1_555
C5 N1 1_555 1_555
C9 N2 1_555 1_555
C14 N3 1_555 1_555
C18 N4 1_555 1_555
C23 N5 1_555 1_555
C26 C27 1_555 1_555
C1A C27A 1_555 1_555
C5A N1A 1_555 1_555
C9A N2A 1_555 1_555
C14A N3A 1_555 1_555
C18A N4A 1_555 1_555
C23A N5A 1_555 1_555
C24A C25A 1_555 1_555
C24A N6A 1_555 1_555
C26A C27A 1_555 1_555

#END
