
#######################################################################
#
#                 Cambridge Crystallographic Data Centre
#                                CCDC 
#
#######################################################################
#
# If this CIF has been generated from an entry in the Cambridge 
# Structural Database, then it will include bibliographic, chemical, 
# crystal, experimental, refinement or atomic coordinate data resulting 
# from the CCDC's data processing and validation procedures.
#
#######################################################################

data_VOMDEI
_chemical_formula_moiety         'C92 H26 N2 O2,C7 H8'
_chemical_name_systematic        
'dioxo-di-(6-t-butylpyridin-2-yl)-open cage-C70fullerene toluene solvate'
_symmetry_cell_setting           monoclinic
_symmetry_space_group_name_H-M   'P 21/n'
_symmetry_Int_Tables_number      14
_space_group_name_Hall           '-P 2yn'
loop_
_symmetry_equiv_pos_site_id
_symmetry_equiv_pos_as_xyz
1 x,y,z
2 1/2-x,1/2+y,1/2-z
3 -x,-y,-z
4 1/2+x,1/2-y,1/2+z
_cell_length_a                   10.97440(10)
_cell_length_b                   15.67120(10)
_cell_length_c                   32.7548(3)
_cell_angle_alpha                90
_cell_angle_beta                 96.3456(4)
_cell_angle_gamma                90
_cell_volume                     5598.72
_exptl_crystal_colour            black
_exptl_crystal_description       plate
_cell_formula_units_Z            4
loop_
_atom_site_label
_atom_site_type_symbol
_atom_site_fract_x
_atom_site_fract_y
_atom_site_fract_z
C1 C 0.5276(3) 0.1943(2) 0.19918(11)
C2 C 0.6124(3) 0.1652(2) 0.16783(11)
C3 C 0.5979(3) 0.1528(2) 0.12565(11)
C4 C 0.4829(3) 0.1399(2) 0.09749(10)
C5 C 0.3606(3) 0.1428(2) 0.10559(10)
C6 C 0.3084(3) 0.2089(2) 0.13103(10)
C7 C 0.2109(3) 0.1802(2) 0.15935(10)
C8 C 0.2383(3) 0.2230(2) 0.20035(10)
H1 H 0.2244 0.2827 0.2016
C9 C 0.2804(3) 0.1836(2) 0.23489(10)
H2 H 0.2980 0.2172 0.2590
C10 C 0.3021(3) 0.0890(2) 0.23814(10)
C11 C 0.4382(3) 0.0661(2) 0.24083(10)
C12 C 0.5287(3) 0.1183(2) 0.22820(10)
C13 C 0.6493(3) 0.0842(2) 0.22714(11)
C14 C 0.7041(3) 0.1167(2) 0.19268(11)
C15 C 0.8008(3) 0.0726(2) 0.17707(11)
C16 C 0.7966(3) 0.0672(2) 0.13298(11)
C17 C 0.6934(3) 0.1020(2) 0.10880(11)
C18 C 0.6432(3) 0.0604(2) 0.07275(10)
C19 C 0.5153(3) 0.0804(2) 0.06688(10)
C20 C 0.4336(3) 0.0218(2) 0.04899(10)
C21 C 0.3157(3) 0.0145(2) 0.06334(9)
C22 C 0.2808(3) 0.0710(2) 0.09288(10)
C23 C 0.2123(3) 0.03673(19) 0.12488(9)
C24 C 0.2180(3) 0.0835(2) 0.16310(9)
C25 C 0.2533(3) 0.0420(2) 0.19905(10)
C26 C 0.2756(3) -0.0487(2) 0.20014(9)
C27 C 0.3770(3) -0.0846(2) 0.22730(10)
C28 C 0.4660(3) -0.0243(2) 0.24592(9)
C29 C 0.5910(3) -0.0508(2) 0.25530(10)
C30 C 0.6877(3) 0.0070(2) 0.24591(10)
C31 C 0.8000(3) -0.0261(2) 0.23596(10)
C32 C 0.8568(3) 0.0071(2) 0.20201(11)
C33 C 0.9184(3) -0.0612(2) 0.18368(11)
C34 C 0.9196(3) -0.0659(2) 0.14196(11)
C35 C 0.8553(3) -0.0030(2) 0.11576(12)
C36 C 0.8020(3) -0.0449(2) 0.07947(11)
C37 C 0.6896(3) -0.0178(2) 0.05910(11)
C38 C 0.6016(3) -0.0820(2) 0.04224(10)
C39 C 0.4752(3) -0.0615(2) 0.03830(9)
C40 C 0.3828(3) -0.1230(2) 0.04748(10)
C41 C 0.2868(3) -0.0749(2) 0.06313(9)
C42 C 0.2300(3) -0.10753(19) 0.09509(9)
C43 C 0.1993(3) -0.0515(2) 0.12688(9)
C44 C 0.2289(3) -0.0950(2) 0.16537(10)
C45 C 0.2711(3) -0.1788(2) 0.15733(10)
C46 C 0.3579(3) -0.2202(2) 0.18546(11)
C47 C 0.4120(3) -0.1717(2) 0.22125(10)
C48 C 0.5307(3) -0.1989(2) 0.23892(10)
C49 C 0.6180(3) -0.1382(2) 0.25530(10)
C50 C 0.7379(3) -0.1695(2) 0.24907(11)
C51 C 0.8266(3) -0.1149(3) 0.23927(11)
C52 C 0.9042(3) -0.1371(3) 0.20765(12)
C53 C 0.8899(3) -0.2155(3) 0.18815(12)
C54 C 0.8910(3) -0.2206(2) 0.14407(12)
C55 C 0.9074(3) -0.1483(2) 0.12173(12)
C56 C 0.8339(3) -0.1349(2) 0.08312(11)
C57 C 0.7501(3) -0.1960(2) 0.06783(11)
C58 C 0.6313(3) -0.1691(2) 0.04742(10)
C59 C 0.5415(3) -0.2302(2) 0.05805(11)
C60 C 0.4188(3) -0.2050(2) 0.06253(10)
C61 C 0.3603(3) -0.2389(2) 0.09714(11)
C62 C 0.2714(3) -0.1888(2) 0.11333(11)
C63 C 0.4282(3) -0.2949(2) 0.12498(12)
C64 C 0.4251(3) -0.2861(2) 0.16900(11)
C65 C 0.5431(3) -0.3123(2) 0.18845(11)
C66 C 0.5929(3) -0.2700(2) 0.22274(11)
C67 C 0.7230(3) -0.2517(2) 0.22924(12)
C68 C 0.7966(3) -0.2745(2) 0.19966(12)
C69 C 0.7436(3) -0.3174(2) 0.16279(12)
C70 C 0.8016(3) -0.2846(2) 0.12895(11)
C71 C 0.7339(3) -0.2731(2) 0.09070(11)
C72 C 0.6042(3) -0.2937(2) 0.08502(11)
C73 C 0.5488(3) -0.3252(2) 0.11812(12)
C74 C 0.6188(3) -0.3377(2) 0.15705(12)
C75 C 0.2454(3) 0.0548(2) 0.27556(10)
C76 C 0.1270(3) 0.0236(2) 0.27180(10)
H3 H 0.0782 0.0234 0.2460
C77 C 0.0810(3) -0.0075(2) 0.30666(11)
H4 H 0.0001 -0.0299 0.3050
C78 C 0.1532(3) -0.0057(2) 0.34353(11)
H5 H 0.1230 -0.0271 0.3676
C79 C 0.2708(3) 0.0274(2) 0.34539(10)
C80 C 0.3587(3) 0.0275(2) 0.38490(10)
C81 C 0.2899(4) 0.0211(3) 0.42321(12)
H6 H 0.2454 -0.0332 0.4228
H7 H 0.2316 0.0684 0.4233
H8 H 0.3487 0.0239 0.4480
C82 C 0.4327(3) 0.1088(2) 0.38827(11)
H9 H 0.4905 0.1073 0.4133
H10 H 0.3774 0.1577 0.3894
H11 H 0.4781 0.1144 0.3643
C83 C 0.4402(4) -0.0502(3) 0.38295(14)
H12 H 0.4886 -0.0446 0.3597
H13 H 0.3893 -0.1016 0.3794
H14 H 0.4955 -0.0547 0.4085
C84 C 0.0868(3) 0.20897(19) 0.13757(10)
C85 C -0.0059(3) 0.2378(2) 0.15932(10)
H15 H 0.0030 0.2365 0.1885
C86 C -0.1121(3) 0.2685(2) 0.13756(10)
H16 H -0.1769 0.2899 0.1516
C87 C -0.1228(3) 0.2678(2) 0.09500(10)
H17 H -0.1948 0.2892 0.0796
C88 C -0.0277(3) 0.23549(19) 0.07507(10)
C89 C -0.0292(3) 0.2301(2) 0.02851(10)
C90 C 0.0810(4) 0.2801(3) 0.01606(12)
H18 H 0.1568 0.2569 0.0305
H19 H 0.0731 0.3403 0.0233
H20 H 0.0837 0.2749 -0.0136
C91 C -0.0175(4) 0.1364(3) 0.01633(12)
H21 H -0.0867 0.1040 0.0249
H22 H 0.0594 0.1131 0.0298
H23 H -0.0178 0.1322 -0.0135
C92 C -0.1481(4) 0.2659(3) 0.00604(13)
H24 H -0.1462 0.2602 -0.0237
H25 H -0.1559 0.3263 0.0130
H26 H -0.2182 0.2342 0.0144
O1 O 0.4903(2) 0.26588(15) 0.20251(8)
O2 O 0.3363(2) 0.28359(14) 0.12841(7)
N1 N 0.3168(2) 0.05741(17) 0.31148(8)
N2 N 0.0761(2) 0.20666(16) 0.09644(8)
C93 C 0.7396(11) 0.5251(8) 0.0268(4)
H27 H 0.6955 0.5038 0.0011
H28 H 0.8278 0.5163 0.0263
H29 H 0.7230 0.5862 0.0295
C94 C 0.7050(6) 0.4865(3) 0.05593(16)
C95 C 0.7364(4) 0.4930(2) 0.09811(18)
H30 H 0.7990 0.5315 0.1087
C96 C 0.6762(5) 0.4433(3) 0.12475(15)
H31 H 0.6976 0.4478 0.1536
C97 C 0.5846(4) 0.3871(3) 0.1092(2)
H32 H 0.5435 0.3531 0.1274
C98 C 0.5533(4) 0.3806(3) 0.0670(3)
H33 H 0.4907 0.3421 0.0564
C99 C 0.6135(6) 0.4303(4) 0.04040(17)
H34 H 0.5920 0.4258 0.0116
C100? C 0.5013(13) 0.3539(9) 0.0372(5)
H35? H 0.4400 0.3136 0.0276
C101? C 0.5358(17) 0.3632(12) 0.0791(4)
H36? H 0.4980 0.3292 0.0981
C102? C 0.6254(17) 0.4221(12) 0.0931(4)
C103? C 0.6807(14) 0.4718(10) 0.0652(5)
H37? H 0.7420 0.5121 0.0747
C104? C 0.6463(18) 0.4625(12) 0.0233(5)
H38? H 0.6840 0.4965 0.0042
C105? C 0.5566(17) 0.4036(12) 0.0093(4)
H39? H 0.5331 0.3973 -0.0194
C106? C 0.6765(17) 0.4403(12) 0.1280(5)
H40? H 0.7363 0.4860 0.1257
H41? H 0.7185 0.3897 0.1402
H42? H 0.6147 0.4594 0.1454
loop_
_geom_bond_atom_site_label_1
_geom_bond_atom_site_label_2
_geom_bond_site_symmetry_1
_geom_bond_site_symmetry_2
C1 C2 1_555 1_555
C2 C3 1_555 1_555
C3 C4 1_555 1_555
C4 C5 1_555 1_555
C5 C6 1_555 1_555
C6 C7 1_555 1_555
C7 C8 1_555 1_555
C8 H1 1_555 1_555
C9 C8 1_555 1_555
H2 C9 1_555 1_555
C10 C9 1_555 1_555
C11 C10 1_555 1_555
C12 C1 1_555 1_555
C13 C12 1_555 1_555
C14 C2 1_555 1_555
C15 C14 1_555 1_555
C16 C15 1_555 1_555
C17 C3 1_555 1_555
C18 C17 1_555 1_555
C19 C4 1_555 1_555
C20 C19 1_555 1_555
C21 C20 1_555 1_555
C22 C5 1_555 1_555
C23 C22 1_555 1_555
C24 C7 1_555 1_555
C25 C10 1_555 1_555
C26 C25 1_555 1_555
C27 C26 1_555 1_555
C28 C11 1_555 1_555
C29 C28 1_555 1_555
C30 C13 1_555 1_555
C31 C30 1_555 1_555
C32 C15 1_555 1_555
C33 C32 1_555 1_555
C34 C33 1_555 1_555
C35 C16 1_555 1_555
C36 C35 1_555 1_555
C37 C18 1_555 1_555
C38 C37 1_555 1_555
C39 C20 1_555 1_555
C40 C39 1_555 1_555
C41 C21 1_555 1_555
C42 C41 1_555 1_555
C43 C23 1_555 1_555
C44 C26 1_555 1_555
C45 C44 1_555 1_555
C46 C45 1_555 1_555
C47 C27 1_555 1_555
C48 C47 1_555 1_555
C49 C29 1_555 1_555
C50 C49 1_555 1_555
C51 C31 1_555 1_555
C52 C33 1_555 1_555
C53 C52 1_555 1_555
C54 C53 1_555 1_555
C55 C34 1_555 1_555
C56 C36 1_555 1_555
C57 C56 1_555 1_555
C58 C38 1_555 1_555
C59 C58 1_555 1_555
C60 C40 1_555 1_555
C61 C60 1_555 1_555
C62 C42 1_555 1_555
C63 C61 1_555 1_555
C64 C46 1_555 1_555
C65 C64 1_555 1_555
C66 C48 1_555 1_555
C67 C50 1_555 1_555
C68 C53 1_555 1_555
C69 C68 1_555 1_555
C70 C54 1_555 1_555
C71 C57 1_555 1_555
C72 C59 1_555 1_555
C73 C63 1_555 1_555
C74 C65 1_555 1_555
C75 C10 1_555 1_555
C76 C75 1_555 1_555
H3 C76 1_555 1_555
C77 C76 1_555 1_555
H4 C77 1_555 1_555
C78 C77 1_555 1_555
H5 C78 1_555 1_555
C79 C78 1_555 1_555
C80 C79 1_555 1_555
C81 C80 1_555 1_555
H6 C81 1_555 1_555
H7 C81 1_555 1_555
H8 C81 1_555 1_555
C82 C80 1_555 1_555
H9 C82 1_555 1_555
H10 C82 1_555 1_555
H11 C82 1_555 1_555
C83 C80 1_555 1_555
H12 C83 1_555 1_555
H13 C83 1_555 1_555
H14 C83 1_555 1_555
C84 C7 1_555 1_555
C85 C84 1_555 1_555
H15 C85 1_555 1_555
C86 C85 1_555 1_555
H16 C86 1_555 1_555
C87 C86 1_555 1_555
H17 C87 1_555 1_555
C88 C87 1_555 1_555
C89 C88 1_555 1_555
C90 C89 1_555 1_555
H18 C90 1_555 1_555
H19 C90 1_555 1_555
H20 C90 1_555 1_555
C91 C89 1_555 1_555
H21 C91 1_555 1_555
H22 C91 1_555 1_555
H23 C91 1_555 1_555
C92 C89 1_555 1_555
H24 C92 1_555 1_555
H25 C92 1_555 1_555
H26 C92 1_555 1_555
O1 C1 1_555 1_555
O2 C6 1_555 1_555
N1 C75 1_555 1_555
N2 C84 1_555 1_555
C93 H27 1_555 1_555
H28 C93 1_555 1_555
H29 C93 1_555 1_555
C94 C93 1_555 1_555
C95 C94 1_555 1_555
H30 C95 1_555 1_555
C96 C95 1_555 1_555
H31 C96 1_555 1_555
C97 C96 1_555 1_555
H32 C97 1_555 1_555
C98 C97 1_555 1_555
H33 C98 1_555 1_555
C99 C94 1_555 1_555
H34 C99 1_555 1_555
C11 C12 1_555 1_555
C13 C14 1_555 1_555
C16 C17 1_555 1_555
C18 C19 1_555 1_555
C21 C22 1_555 1_555
C23 C24 1_555 1_555
C24 C25 1_555 1_555
C27 C28 1_555 1_555
C29 C30 1_555 1_555
C31 C32 1_555 1_555
C34 C35 1_555 1_555
C36 C37 1_555 1_555
C38 C39 1_555 1_555
C40 C41 1_555 1_555
C42 C43 1_555 1_555
C43 C44 1_555 1_555
C45 C62 1_555 1_555
C46 C47 1_555 1_555
C48 C49 1_555 1_555
C50 C51 1_555 1_555
C51 C52 1_555 1_555
C54 C55 1_555 1_555
C55 C56 1_555 1_555
C57 C58 1_555 1_555
C59 C60 1_555 1_555
C61 C62 1_555 1_555
C63 C64 1_555 1_555
C65 C66 1_555 1_555
C66 C67 1_555 1_555
C67 C68 1_555 1_555
C69 C70 1_555 1_555
C69 C74 1_555 1_555
C70 C71 1_555 1_555
C71 C72 1_555 1_555
C72 C73 1_555 1_555
C73 C74 1_555 1_555
C79 N1 1_555 1_555
C88 N2 1_555 1_555
C98 C99 1_555 1_555

#END
