
#######################################################################
#
#                 Cambridge Crystallographic Data Centre
#                                CCDC 
#
#######################################################################
#
# If this CIF has been generated from an entry in the Cambridge 
# Structural Database, then it will include bibliographic, chemical, 
# crystal, experimental, refinement or atomic coordinate data resulting 
# from the CCDC's data processing and validation procedures.
#
#######################################################################

data_VOMDOS
_chemical_formula_moiety         'C92 H28 N2 O5,2.5(C4 H8 O1)'
_chemical_name_systematic        
'dihydroxy-oxo-bis(6-t-butylpyridin-2-yl)-epoxy-open cage-C70fullerene toluene tetrahydrofuran solvate'
_symmetry_cell_setting           triclinic
_symmetry_space_group_name_H-M   'P -1'
_symmetry_Int_Tables_number      2
_space_group_name_Hall           '-P 1'
loop_
_symmetry_equiv_pos_site_id
_symmetry_equiv_pos_as_xyz
1 x,y,z
2 -x,-y,-z
_cell_length_a                   10.96900(10)
_cell_length_b                   14.08040(10)
_cell_length_c                   20.8984(2)
_cell_angle_alpha                97.7600(4)
_cell_angle_beta                 94.6572(4)
_cell_angle_gamma                101.0449(3)
_cell_volume                     3119.84
_exptl_crystal_colour            black
_exptl_crystal_description       plate
_cell_formula_units_Z            2
loop_
_atom_site_label
_atom_site_type_symbol
_atom_site_fract_x
_atom_site_fract_y
_atom_site_fract_z
C1 C 0.3574(4) 0.7848(3) 0.76459(19)
C2 C 0.3522(3) 0.8791(3) 0.74058(19)
C3 C 0.3738(3) 0.9678(3) 0.78122(19)
C4 C 0.3549(4) 0.9864(3) 0.85387(19)
C5 C 0.2167(4) 0.8878(3) 0.91929(19)
C6 C 0.1528(4) 0.7762(3) 0.90383(19)
C7 C 0.0277(4) 0.7744(3) 0.86733(19)
C8 C -0.0393(4) 0.7264(3) 0.80967(19)
C9 C 0.0001(4) 0.6463(3) 0.7635(2)
C10 C 0.1062(4) 0.6073(3) 0.7928(2)
H1 H 0.0888 0.5655 0.8244
C11 C 0.2222(4) 0.6269(3) 0.7777(2)
H2 H 0.2823 0.5980 0.7991
C12 C 0.2651(4) 0.6919(3) 0.72904(19)
C13 C 0.1581(4) 0.7230(3) 0.69343(18)
C14 C 0.1914(4) 0.7945(3) 0.65145(19)
C15 C 0.2982(3) 0.8744(3) 0.67409(19)
C16 C 0.3032(3) 0.9629(3) 0.64866(19)
C17 C 0.3420(4) 1.0546(3) 0.6902(2)
C18 C 0.3662(3) 1.0545(3) 0.7561(2)
C19 C 0.3223(4) 1.1223(3) 0.8027(2)
C20 C 0.2915(3) 1.0777(3) 0.8570(2)
C21 C 0.1969(4) 1.1063(3) 0.89374(19)
C22 C 0.1036(4) 1.0374(3) 0.92217(18)
C23 C 0.1071(4) 0.9364(3) 0.91934(18)
C24 C -0.0005(4) 0.8653(3) 0.89613(18)
C25 C -0.1179(4) 0.8883(3) 0.88260(19)
C26 C -0.1924(3) 0.8371(3) 0.8236(2)
C27 C -0.1401(4) 0.7693(3) 0.7823(2)
C28 C -0.1578(4) 0.7683(3) 0.71315(19)
C29 C -0.0590(4) 0.7412(3) 0.67691(19)
C30 C 0.0368(4) 0.6997(3) 0.70725(19)
C31 C -0.0319(4) 0.7841(3) 0.62201(19)
C32 C 0.0964(4) 0.8128(3) 0.60968(18)
C33 C 0.1042(4) 0.9013(3) 0.58202(19)
C34 C 0.2081(4) 0.9758(3) 0.60101(19)
C35 C 0.1914(4) 1.0760(3) 0.6122(2)
C36 C 0.2746(4) 1.1248(3) 0.6681(2)
C37 C 0.2431(4) 1.1988(3) 0.7121(2)
C38 C 0.2692(4) 1.1980(3) 0.7821(2)
C39 C 0.1959(4) 1.2396(3) 0.8249(2)
C40 C 0.1594(4) 1.1940(3) 0.8797(2)
C41 C 0.0392(4) 1.2164(3) 0.8922(2)
C42 C -0.0483(4) 1.1486(3) 0.9143(2)
C43 C -0.0170(4) 1.0574(3) 0.92653(19)
C44 C -0.1278(4) 0.9829(3) 0.90758(19)
C45 C -0.2252(4) 1.0268(3) 0.8822(2)
C46 C -0.3027(4) 0.9768(3) 0.8279(2)
C47 C -0.2828(4) 0.8832(3) 0.7970(2)
C48 C -0.3063(3) 0.8780(3) 0.7286(2)
C49 C -0.2358(3) 0.8297(3) 0.6871(2)
C50 C -0.2062(4) 0.8723(3) 0.6281(2)
C51 C -0.1011(4) 0.8514(3) 0.59914(19)
C52 C -0.0173(4) 0.9246(3) 0.57376(19)
C53 C -0.0356(4) 1.0219(3) 0.5790(2)
C54 C 0.0732(4) 1.1012(3) 0.5992(2)
C55 C 0.0552(4) 1.1890(3) 0.6355(2)
C56 C 0.1399(4) 1.2378(3) 0.6908(2)
C57 C 0.0697(4) 1.2854(3) 0.7370(2)
C58 C 0.0986(4) 1.2875(3) 0.8026(2)
C59 C 0.0015(4) 1.2734(3) 0.8446(2)
C60 C -0.1247(4) 1.2556(3) 0.8183(2)
C61 C -0.2154(4) 1.1820(3) 0.8403(2)
C62 C -0.1784(4) 1.1308(3) 0.8879(2)
C63 C -0.2996(4) 1.1303(3) 0.7841(2)
C64 C -0.3414(4) 1.0292(3) 0.7782(2)
C65 C -0.3448(4) 0.9678(3) 0.7167(2)
C66 C -0.3110(4) 1.0098(3) 0.6631(2)
C67 C -0.2388(4) 0.9622(3) 0.6189(2)
C68 C -0.1544(4) 1.0367(4) 0.5953(2)
C69 C -0.1711(4) 1.1307(4) 0.6271(2)
C70 C -0.0676(4) 1.2055(3) 0.6473(2)
C71 C -0.0583(5) 1.2665(3) 0.7092(2)
C72 C -0.1537(4) 1.2516(3) 0.7495(2)
C73 C -0.2621(4) 1.1730(4) 0.7282(2)
C74 C -0.2699(4) 1.1142(4) 0.6685(2)
C75 C 0.3347(4) 0.6363(3) 0.67966(19)
C76 C 0.4634(4) 0.6520(4) 0.6821(2)
H3 H 0.5152 0.7018 0.7132
C77 C 0.5150(4) 0.5926(4) 0.6377(3)
H4 H 0.6031 0.6011 0.6380
C78 C 0.4367(4) 0.5215(4) 0.5935(2)
H5 H 0.4703 0.4805 0.5627
C79 C 0.3072(4) 0.5099(3) 0.5938(2)
C80 C 0.2179(4) 0.4324(3) 0.5445(2)
C81 C 0.2205(5) 0.4664(4) 0.4786(2)
H6 H 0.1635 0.4178 0.4462
H7 H 0.3056 0.4741 0.4661
H8 H 0.1941 0.5294 0.4811
C82 C 0.0834(5) 0.4170(4) 0.5626(3)
H9 H 0.0544 0.4789 0.5648
H10 H 0.0810 0.3947 0.6050
H11 H 0.0290 0.3676 0.5297
C83 C 0.2590(5) 0.3332(4) 0.5409(3)
H12 H 0.2009 0.2842 0.5092
H13 H 0.2588 0.3121 0.5838
H14 H 0.3434 0.3402 0.5275
C84 C -0.1119(4) 0.5610(3) 0.7407(2)
C85 C -0.1175(4) 0.5038(3) 0.6814(2)
H15 H -0.0517 0.5149 0.6546
C86 C -0.2217(5) 0.4298(3) 0.6617(2)
H16 H -0.2302 0.3900 0.6204
C87 C -0.3124(5) 0.4147(4) 0.7026(3)
H17 H -0.3886 0.3690 0.6885
C88 C -0.2894(7) 0.4727(5) 0.7718(5)
C89 C -0.3799(7) 0.4588(5) 0.8225(4)
C90 C -0.3084(8) 0.4785(7) 0.8906(4)
H18 H -0.2553 0.4304 0.8942
H19 H -0.3679 0.4732 0.9231
H20 H -0.2561 0.5446 0.8981
C91 C -0.4568(12) 0.3546(7) 0.8119(6)
H21 H -0.4008 0.3085 0.8150
H22 H -0.5042 0.3404 0.7687
H23 H -0.5147 0.3478 0.8451
C92 C -0.4665(12) 0.5315(10) 0.8164(6)
H24 H -0.5266 0.5245 0.8485
H25 H -0.5116 0.5180 0.7726
H26 H -0.4167 0.5985 0.8241
N1 N 0.2576(3) 0.5665(3) 0.63648(16)
N2 N -0.1887(8) 0.5453(6) 0.7881(5)
O1 O 0.4351(3) 0.7798(2) 0.80818(14)
O2 O 0.4678(3) 1.0082(2) 0.89281(14)
H27 H 0.4550 1.0180 0.9320
O3 O 0.2784(2) 0.8969(2) 0.86257(13)
O4 O 0.2936(3) 0.9170(2) 0.97682(14)
H28 H 0.3476 0.8821 0.9783
O5 O 0.1981(3) 0.7131(2) 0.92404(15)
C93 C 0.5316(5) 1.2492(3) 0.9729(2)
H29 H 0.4851 1.2483 0.9301
H30 H 0.6223 1.2676 0.9694
C94 C 0.4929(6) 1.3191(4) 1.0244(3)
H31 H 0.4748 1.3775 1.0070
H32 H 0.5581 1.3403 1.0619
C95 C 0.3744(5) 1.2570(4) 1.0432(3)
H33 H 0.3562 1.2826 1.0871
H34 H 0.3012 1.2541 1.0115
C96 C 0.4093(4) 1.1593(4) 1.0415(2)
H35 H 0.4461 1.1522 1.0850
H36 H 0.3348 1.1062 1.0280
O6 O 0.5008(3) 1.1549(2) 0.99451(14)
C97 C 0.5975(18) 0.2527(9) 0.4801(7)
H37 H 0.6883 0.2692 0.4764
H38 H 0.5527 0.2728 0.4428
C98 C 0.5576(8) 0.1475(6) 0.4795(4)
H39 H 0.6302 0.1177 0.4898
H40 H 0.5145 0.1149 0.4365
C99 C 0.4683(11) 0.1380(6) 0.5319(5)
H41 H 0.3809 0.1347 0.5140
H42 H 0.4725 0.0799 0.5532
C100 C 0.5188(6) 0.2304(6) 0.5772(3)
H43 H 0.4514 0.2520 0.6004
H44 H 0.5842 0.2205 0.6097
O7 O 0.5709(5) 0.3029(4) 0.5390(2)
H45? H -0.3756 0.3567 0.6940
C101? C -0.3127(14) 0.4714(11) 0.7472(8)
C102? C -0.4215(14) 0.4558(10) 0.7873(8)
C103? C -0.4267(17) 0.5468(13) 0.8345(9)
H46? H -0.4988 0.5329 0.8591
H47? H -0.4349 0.6006 0.8103
H48? H -0.3498 0.5654 0.8646
C104? C -0.403(2) 0.3768(17) 0.8300(10)
H49? H -0.4003 0.3157 0.8021
H50? H -0.4726 0.3656 0.8565
H51? H -0.3243 0.3992 0.8585
C105? C -0.5484(14) 0.4234(11) 0.7461(7)
H52? H -0.5482 0.3646 0.7152
H53? H -0.5641 0.4760 0.7222
H54? H -0.6143 0.4090 0.7745
N3? N -0.2125(14) 0.5464(12) 0.7700(7)
C106? C 0.632(2) 0.2400(17) 0.4916(12)
H55? H 0.6961 0.1992 0.4859
H56? H 0.6617 0.3028 0.4759
C107? C 0.5007(16) 0.1842(13) 0.4534(8)
H57? H 0.4527 0.2308 0.4374
H58? H 0.5112 0.1359 0.4163
C108? C 0.440(2) 0.1360(19) 0.5038(13)
H59? H 0.3566 0.1517 0.5075
H60? H 0.4304 0.0641 0.4933
C109? C 0.516(4) 0.171(3) 0.560(2)
H61? H 0.5562 0.1182 0.5728
H62? H 0.4650 0.1901 0.5943
O8? O 0.6116(19) 0.2550(16) 0.5522(9)
C110? C 0.019(2) 0.5019(15) 0.9564(10)
H63? H 0.0090 0.5706 0.9657
H64? H -0.0291 0.4698 0.9145
C111? C 0.163(2) 0.4942(12) 0.9585(9)
H65? H 0.1861 0.4818 0.9137
H66? H 0.2168 0.5565 0.9808
C112? C 0.093(2) 0.3972(16) 1.0338(10)
H67? H 0.1287 0.4249 1.0791
H68? H 0.0654 0.3255 1.0307
C113? C -0.015(3) 0.444(3) 1.0125(17)
H69? H -0.0330 0.4893 1.0496
H70? H -0.0912 0.3930 0.9979
O9? O 0.1808(18) 0.4197(10) 0.9907(8)
loop_
_geom_bond_atom_site_label_1
_geom_bond_atom_site_label_2
_geom_bond_site_symmetry_1
_geom_bond_site_symmetry_2
C1 C2 1_555 1_555
C2 C3 1_555 1_555
C3 C4 1_555 1_555
C4 C20 1_555 1_555
C5 C6 1_555 1_555
C6 C7 1_555 1_555
C7 C8 1_555 1_555
C8 C9 1_555 1_555
C9 C10 1_555 1_555
C10 H1 1_555 1_555
C11 C10 1_555 1_555
H2 C11 1_555 1_555
C12 C1 1_555 1_555
C13 C12 1_555 1_555
C14 C13 1_555 1_555
C15 C2 1_555 1_555
C16 C15 1_555 1_555
C17 C16 1_555 1_555
C18 C3 1_555 1_555
C19 C18 1_555 1_555
C20 C19 1_555 1_555
C21 C20 1_555 1_555
C22 C21 1_555 1_555
C23 C5 1_555 1_555
C24 C7 1_555 1_555
C25 C24 1_555 1_555
C26 C25 1_555 1_555
C27 C8 1_555 1_555
C28 C27 1_555 1_555
C29 C28 1_555 1_555
C30 C9 1_555 1_555
C31 C29 1_555 1_555
C32 C14 1_555 1_555
C33 C32 1_555 1_555
C34 C16 1_555 1_555
C35 C34 1_555 1_555
C36 C17 1_555 1_555
C37 C36 1_555 1_555
C38 C19 1_555 1_555
C39 C38 1_555 1_555
C40 C21 1_555 1_555
C41 C40 1_555 1_555
C42 C41 1_555 1_555
C43 C22 1_555 1_555
C44 C25 1_555 1_555
C45 C44 1_555 1_555
C46 C45 1_555 1_555
C47 C26 1_555 1_555
C48 C47 1_555 1_555
C49 C28 1_555 1_555
C50 C49 1_555 1_555
C51 C31 1_555 1_555
C52 C33 1_555 1_555
C53 C52 1_555 1_555
C54 C35 1_555 1_555
C55 C54 1_555 1_555
C56 C37 1_555 1_555
C57 C56 1_555 1_555
C58 C39 1_555 1_555
C59 C41 1_555 1_555
C60 C59 1_555 1_555
C61 C60 1_555 1_555
C62 C42 1_555 1_555
C63 C61 1_555 1_555
C64 C46 1_555 1_555
C65 C48 1_555 1_555
C66 C65 1_555 1_555
C67 C50 1_555 1_555
C68 C53 1_555 1_555
C69 C68 1_555 1_555
C70 C55 1_555 1_555
C71 C57 1_555 1_555
C72 C60 1_555 1_555
C73 C63 1_555 1_555
C74 C66 1_555 1_555
C75 C12 1_555 1_555
C76 C75 1_555 1_555
H3 C76 1_555 1_555
C77 C76 1_555 1_555
H4 C77 1_555 1_555
C78 C77 1_555 1_555
H5 C78 1_555 1_555
C79 C78 1_555 1_555
C80 C79 1_555 1_555
C81 C80 1_555 1_555
H6 C81 1_555 1_555
H7 C81 1_555 1_555
H8 C81 1_555 1_555
C82 C80 1_555 1_555
H9 C82 1_555 1_555
H10 C82 1_555 1_555
H11 C82 1_555 1_555
C83 C80 1_555 1_555
H12 C83 1_555 1_555
H13 C83 1_555 1_555
H14 C83 1_555 1_555
C84 C9 1_555 1_555
C85 C84 1_555 1_555
H15 C85 1_555 1_555
C86 C85 1_555 1_555
H16 C86 1_555 1_555
C87 C86 1_555 1_555
H17 C87 1_555 1_555
C88 C87 1_555 1_555
C89 C88 1_555 1_555
C90 C89 1_555 1_555
H18 C90 1_555 1_555
H19 C90 1_555 1_555
H20 C90 1_555 1_555
C91 C89 1_555 1_555
H21 C91 1_555 1_555
H22 C91 1_555 1_555
H23 C91 1_555 1_555
C92 C89 1_555 1_555
H24 C92 1_555 1_555
H25 C92 1_555 1_555
H26 C92 1_555 1_555
N1 C75 1_555 1_555
N2 C84 1_555 1_555
O1 C1 1_555 1_555
O2 C4 1_555 1_555
H27 O2 1_555 1_555
O3 C4 1_555 1_555
O4 C5 1_555 1_555
H28 O4 1_555 1_555
O5 C6 1_555 1_555
C93 H29 1_555 1_555
H30 C93 1_555 1_555
C94 C93 1_555 1_555
H31 C94 1_555 1_555
H32 C94 1_555 1_555
C95 C94 1_555 1_555
H33 C95 1_555 1_555
H34 C95 1_555 1_555
C96 C95 1_555 1_555
H35 C96 1_555 1_555
H36 C96 1_555 1_555
O6 C93 1_555 1_555
C97 H37 1_555 1_555
H38 C97 1_555 1_555
C98 C97 1_555 1_555
H39 C98 1_555 1_555
H40 C98 1_555 1_555
C99 C98 1_555 1_555
H41 C99 1_555 1_555
H42 C99 1_555 1_555
C100 C99 1_555 1_555
H43 C100 1_555 1_555
H44 C100 1_555 1_555
O7 C97 1_555 1_555
C5 O3 1_555 1_555
C11 C12 1_555 1_555
C13 C30 1_555 1_555
C14 C15 1_555 1_555
C17 C18 1_555 1_555
C22 C23 1_555 1_555
C23 C24 1_555 1_555
C26 C27 1_555 1_555
C29 C30 1_555 1_555
C31 C32 1_555 1_555
C33 C34 1_555 1_555
C35 C36 1_555 1_555
C37 C38 1_555 1_555
C39 C40 1_555 1_555
C42 C43 1_555 1_555
C43 C44 1_555 1_555
C45 C62 1_555 1_555
C46 C47 1_555 1_555
C48 C49 1_555 1_555
C50 C51 1_555 1_555
C51 C52 1_555 1_555
C53 C54 1_555 1_555
C55 C56 1_555 1_555
C57 C58 1_555 1_555
C58 C59 1_555 1_555
C61 C62 1_555 1_555
C63 C64 1_555 1_555
C64 C65 1_555 1_555
C66 C67 1_555 1_555
C67 C68 1_555 1_555
C69 C70 1_555 1_555
C69 C74 1_555 1_555
C70 C71 1_555 1_555
C71 C72 1_555 1_555
C72 C73 1_555 1_555
C73 C74 1_555 1_555
C79 N1 1_555 1_555
C88 N2 1_555 1_555
C96 O6 1_555 1_555
C100 O7 1_555 1_555

#END
