
#######################################################################
#
#                 Cambridge Crystallographic Data Centre
#                                CCDC 
#
#######################################################################
#
# If this CIF has been generated from an entry in the Cambridge 
# Structural Database, then it will include bibliographic, chemical, 
# crystal, experimental, refinement or atomic coordinate data resulting 
# from the CCDC's data processing and validation procedures.
#
#######################################################################

data_VOMFIM
_chemical_formula_moiety         'C10 H12 N2 O4'
_chemical_name_systematic        2',3'-Dideoxy-2',3'-\a-methyleneuridine
_symmetry_cell_setting           orthorhombic
_symmetry_space_group_name_H-M   'P 21 21 21'
_symmetry_Int_Tables_number      19
_space_group_name_Hall           'P 2ac 2ab'
loop_
_symmetry_equiv_pos_site_id
_symmetry_equiv_pos_as_xyz
1 x,y,z
2 1/2+x,1/2-y,-z
3 -x,1/2+y,1/2-z
4 1/2-x,-y,1/2+z
_cell_length_a                   8.110(1)
_cell_length_b                   8.386(2)
_cell_length_c                   15.038(1)
_cell_angle_alpha                90
_cell_angle_beta                 90
_cell_angle_gamma                90
_cell_volume                     1022.74
_exptl_crystal_colour            colorless
_cell_formula_units_Z            4
loop_
_atom_site_label
_atom_site_type_symbol
_atom_site_fract_x
_atom_site_fract_y
_atom_site_fract_z
O1 O 0.0334(3) 0.0942(2) 1.0720(1)
O2 O -0.0268(2) 0.1826(2) 0.7774(1)
O3 O -0.1422(2) 0.4690(2) 1.1484(1)
O4 O -0.4299(2) 0.6807(2) 1.1132(1)
N1 N 0.0036(3) 0.3536(2) 1.0265(1)
N2 N 0.0021(3) 0.1447(2) 0.9252(1)
C1 C 0.0152(3) 0.4159(3) 1.1185(1)
C2 C 0.0134(3) 0.1903(3) 1.0130(1)
C3 C 0.1312(3) 0.5541(3) 1.1256(2)
C4 C 0.0311(3) 0.6960(3) 1.1527(2)
C5 C -0.0192(3) 0.2420(3) 0.8525(2)
C6 C -0.1452(3) 0.6403(3) 1.1623(2)
C7 C -0.0298(4) 0.4086(3) 0.8723(2)
C8 C -0.2607(3) 0.7228(3) 1.0988(2)
C9 C -0.0180(3) 0.4571(3) 0.9565(1)
C10 C 0.1504(4) 0.6225(4) 1.2169(2)
H1 H 0.047(3) 0.323(3) 1.154(2)
H2 H 0.017(4) 0.037(3) 0.914(2)
H3 H -0.191(3) 0.653(3) 1.226(1)
H4 H -0.454(3) 0.716(3) 1.166(2)
H5 H -0.041(3) 0.478(3) 0.824(2)
H6 H -0.013(3) 0.572(3) 0.971(1)
H7 H -0.242(3) 0.842(3) 1.107(2)
H8 H -0.239(3) 0.692(3) 1.036(2)
H9 H 0.110(3) 0.565(3) 1.261(2)
H10 H 0.246(4) 0.687(4) 1.233(2)
H11 H 0.220(3) 0.561(3) 1.084(2)
H12 H 0.053(3) 0.805(3) 1.129(1)
loop_
_geom_bond_atom_site_label_1
_geom_bond_atom_site_label_2
_geom_bond_site_symmetry_1
_geom_bond_site_symmetry_2
O1 C2 1_555 1_555
O2 C5 1_555 1_555
O3 C1 1_555 1_555
O4 C8 1_555 1_555
N1 C1 1_555 1_555
N2 C2 1_555 1_555
C1 C3 1_555 1_555
C2 N1 1_555 1_555
C3 C4 1_555 1_555
C4 C6 1_555 1_555
C5 N2 1_555 1_555
C6 O3 1_555 1_555
C7 C5 1_555 1_555
C8 C6 1_555 1_555
C9 N1 1_555 1_555
C10 C3 1_555 1_555
H1 C1 1_555 1_555
H2 N2 1_555 1_555
H3 C6 1_555 1_555
H4 O4 1_555 1_555
H5 C7 1_555 1_555
H6 C9 1_555 1_555
H7 C8 1_555 1_555
H8 C8 1_555 1_555
H9 C10 1_555 1_555
H10 C10 1_555 1_555
H11 C3 1_555 1_555
H12 C4 1_555 1_555
C4 C10 1_555 1_555
C7 C9 1_555 1_555

#END
