
#######################################################################
#
#                 Cambridge Crystallographic Data Centre
#                                CCDC 
#
#######################################################################
#
# If this CIF has been generated from an entry in the Cambridge 
# Structural Database, then it will include bibliographic, chemical, 
# crystal, experimental, refinement or atomic coordinate data resulting 
# from the CCDC's data processing and validation procedures.
#
#######################################################################

data_VOMFOS
_chemical_formula_moiety         'C10 H11 N5 O3'
_chemical_name_systematic        2',3'-O-Anhydroadenosine
_symmetry_cell_setting           triclinic
_symmetry_space_group_name_H-M   'P 1'
_symmetry_Int_Tables_number      1
_space_group_name_Hall           'P 1'
loop_
_symmetry_equiv_pos_site_id
_symmetry_equiv_pos_as_xyz
1 x,y,z
_cell_length_a                   4.834(1)
_cell_length_b                   6.893(1)
_cell_length_c                   15.942(2)
_cell_angle_alpha                90.51(1)
_cell_angle_beta                 97.16(2)
_cell_angle_gamma                89.27(2)
_cell_volume                     527
_cell_formula_units_Z            2
loop_
_atom_site_label
_atom_site_type_symbol
_atom_site_fract_x
_atom_site_fract_y
_atom_site_fract_z
N1 N 0.7913(8) 0.4051(5) -0.0018(2)
C1 C 0.6780(9) 0.4861(6) 0.0645(3)
N2 N 0.5135(7) 0.4123(5) 0.1138(2)
C2 C 0.4481(9) 0.2281(6) 0.0920(2)
C3 C 0.535(9) 0.1288(6) 0.0233(3)
C4 C 0.7096(9) 0.2234(6) -0.0248(2)
N3 N 0.4283(9) -0.0567(5) 0.0178(2)
C5 C 0.292(1) -0.0710(7) 0.0832(3)
N4 N 0.2931(8) 0.0977(5) 0.1309(2)
N5 N 0.8165(8) 0.1413(6) -0.0901(2)
C6 C 0.193(1) 0.1054(6) 0.2127(3)
C7 C 0.409(1) 0.1050(8) 0.2873(3)
O1 O 0.274(1) 0.0695(6) 0.3638(2)
C8 C 0.347(1) 0.2634(8) 0.3433(3)
C9 C 0.101(1) 0.3739(7) 0.2996(3)
O2 O 0.0277(7) 0.2770(5) 0.2190(2)
C10 C 0.154(1) 0.5866(8) 0.2845(3)
O3 O 0.4095(8) 0.6235(5) 0.2558(2)
H1 H 0.74(1) 0.618(8) 0.075(4)
H2 H 0.18(1) -0.195(9) 0.099(4)
H3 H 0.70(1) 0.054(9) -0.109(4)
H4 H 0.97(1) 0.205(9) -0.115(4)
H5 H 0.07(1) -0.02(1) 0.218(4)
H6 H 0.61(1) 0.018(9) 0.289(4)
H7 H 0.53(1) 0.325(9) 0.379(4)
H8 H -0.06(1) 0.355(9) 0.335(4)
H9 H 0.15(1) 0.66(1) 0.338(4)
H10 H 0.00(1) 0.64(1) 0.241(4)
H11 H 0.46(1) 0.58(1) 0.201(4)
N6 N 0.217 0.352 0.813
C11 C 0.332(1) 0.2710(6) 0.7487(3)
N7 N 0.5052(8) 0.3472(5) 0.6995(2)
C12 C 0.5686(8) 0.5310(6) 0.7238(2)
C13 C 0.4737(9) 0.6301(6) 0.7916(2)
C14 C 0.2915(9) 0.5336(6) 0.8372(2)
N8 N 0.5840(8) 0.8152(5) 0.7978(2)
C15 C 0.735(1) 0.8261(6) 0.7355(3)
N9 N 0.7326(7) 0.6588(5) 0.6884(2)
N10 N 0.1842(8) 0.6165(5) 0.9029(3)
C16 C 0.8860(8) 0.6179(6) 0.6154(2)
C17 C 0.691(1) 0.5996(6) 0.5348(3)
O4 O 0.8502(8) 0.5544(4) 0.4662(2)
C18 C 0.761(1) 0.7541(6) 0.4800(3)
C19 C 0.980(1) 0.8721(6) 0.5260(3)
O5 O 1.0648(6) 0.7699(4) 0.6047(2)
C20 C 0.888(1) 1.0778(7) 0.5421(3)
O6 O 0.6178(7) 1.0774(5) 0.5697(2)
H12 H 0.27(1) 0.15(1) 0.734(4)
H13 H 0.84(1) 0.94(1) 0.722(4)
H14 H 0.07(1) 0.530(9) 0.934(4)
H15 H 0.24(1) 0.75(1) 0.914(4)
H16 H 0.99(1) 0.507(9) 0.632(4)
H17 H 0.52(1) 0.529(9) 0.534(4)
H18 H 0.62(1) 0.79(1) 0.426(4)
H19 H 1.15(1) 0.906(9) 0.493(4)
H20 H 0.89(1) 1.154(9) 0.489(4)
H21 H 1.03(1) 1.140(9) 0.587(4)
H22 H 0.61(1) 1.187(9) 0.612(4)
loop_
_geom_bond_atom_site_label_1
_geom_bond_atom_site_label_2
_geom_bond_site_symmetry_1
_geom_bond_site_symmetry_2
N1 C1 1_555 1_555
C1 N2 1_555 1_555
N2 C2 1_555 1_555
C2 C3 1_555 1_555
C3 C4 1_555 1_555
C4 N1 1_555 1_555
N3 C3 1_555 1_555
C5 N3 1_555 1_555
N4 C2 1_555 1_555
N5 C4 1_555 1_555
C6 N4 1_555 1_555
C7 C6 1_555 1_555
O1 C7 1_555 1_555
C8 C7 1_555 1_555
C9 C8 1_555 1_555
O2 C6 1_555 1_555
C10 C9 1_555 1_555
O3 C10 1_555 1_555
N6 C11 1_555 1_555
C11 N7 1_555 1_555
N7 C12 1_555 1_555
C12 C13 1_555 1_555
C13 C14 1_555 1_555
C14 N6 1_555 1_555
N8 C13 1_555 1_555
C15 N8 1_555 1_555
N9 C12 1_555 1_555
N10 C14 1_555 1_555
C16 N9 1_555 1_555
C17 C16 1_555 1_555
O4 C17 1_555 1_555
C18 C17 1_555 1_555
C19 C18 1_555 1_555
O5 C16 1_555 1_555
C20 C19 1_555 1_555
O6 C20 1_555 1_555
H1 C1 1_555 1_555
H2 C5 1_555 1_555
H3 N5 1_555 1_555
H4 N5 1_555 1_555
H5 C6 1_555 1_555
H6 C7 1_555 1_555
H7 C8 1_555 1_555
H8 C9 1_555 1_555
H9 C10 1_555 1_555
H10 C10 1_555 1_555
H11 O3 1_555 1_555
H12 C11 1_555 1_555
H13 C15 1_555 1_555
H14 N10 1_555 1_555
H15 N10 1_555 1_555
H16 C16 1_555 1_555
H17 C17 1_555 1_555
H18 C18 1_555 1_555
H19 C19 1_555 1_555
H20 C20 1_555 1_555
H21 C20 1_555 1_555
H22 O6 1_555 1_555
C5 N4 1_555 1_555
O1 C8 1_555 1_555
C9 O2 1_555 1_555
C15 N9 1_555 1_555
O4 C18 1_555 1_555
C19 O5 1_555 1_555

#END
