
#######################################################################
#
#                 Cambridge Crystallographic Data Centre
#                                CCDC 
#
#######################################################################
#
# If this CIF has been generated from an entry in the Cambridge 
# Structural Database, then it will include bibliographic, chemical, 
# crystal, experimental, refinement or atomic coordinate data resulting 
# from the CCDC's data processing and validation procedures.
#
#######################################################################

data_VOMFUY
_chemical_compound_source        'Seeds of Delphinium elatum L'
_chemical_formula_moiety         'C20 H25 N1 O3'
_chemical_name_systematic        Delatisine
_symmetry_cell_setting           monoclinic
_symmetry_space_group_name_H-M   'P 21'
_symmetry_Int_Tables_number      4
_space_group_name_Hall           'P 2yb'
loop_
_symmetry_equiv_pos_site_id
_symmetry_equiv_pos_as_xyz
1 x,y,z
2 -x,1/2+y,-z
_cell_length_a                   10.661(3)
_cell_length_b                   7.499(4)
_cell_length_c                   10.731(2)
_cell_angle_alpha                90
_cell_angle_beta                 105.82(2)
_cell_angle_gamma                90
_cell_volume                     825.414
_exptl_crystal_colour            colorless
_chemical_melting_point          274.5-276.5deg.C
_cell_formula_units_Z            2
loop_
_atom_site_label
_atom_site_type_symbol
_atom_site_fract_x
_atom_site_fract_y
_atom_site_fract_z
O1 O 0.2395(2) 0.543 0.5486(2)
O2 O 0.6330(2) 0.6034(3) 0.9410(2)
O3 O 0.6587(2) 0.6244(3) 0.6934(2)
N1 N 0.3563(2) 0.2583(4) 0.5470(2)
C1 C 0.3694(3) 0.5663(4) 0.7785(3)
C2 C 0.2365(3) 0.5931(5) 0.6799(3)
C3 C 0.1362(3) 0.4677(6) 0.7065(3)
C4 C 0.1814(3) 0.2940(6) 0.6578(3)
C5 C 0.3147(3) 0.2306(4) 0.7413(2)
C6 C 0.3579(3) 0.1137(4) 0.6453(3)
C7 C 0.4906(3) 0.0298(4) 0.7044(3)
C8 C 0.5921(3) 0.1706(4) 0.7634(3)
C9 C 0.5470(3) 0.2985(4) 0.8566(2)
C10 C 0.4224(2) 0.3814(4) 0.7611(2)
C11 C 0.6643(3) 0.4218(4) 0.9220(2)
C12 C 0.7688(3) 0.4109(4) 0.8479(3)
C13 C 0.7039(2) 0.4444(4) 0.7039(2)
C14 C 0.5948(3) 0.3021(4) 0.6543(2)
C15 C 0.7248(3) 0.0846(5) 0.8229(3)
C16 C 0.8266(3) 0.2267(5) 0.8670(3)
C17 C 0.9527(4) 0.1934(7) 0.9159(4)
C18 C 0.0765(3) 0.1503(8) 0.6325(4)
C19 C 0.2256(3) 0.3524(5) 0.5378(3)
C20 C 0.4569(2) 0.3791(4) 0.6270(2)
H1 H 0.362(2) 0.582(5) 0.857(3)
H2 H 0.434(3) 0.649(5) 0.764(3)
H3 H 0.185(3) 0.723(6) 0.677(3)
H4 H 0.038(3) 0.506(6) 0.655(4)
H5 H 0.140(3) 0.444(7) 0.804(3)
H6 H 0.330(2) 0.182(5) 0.823(3)
H7 H 0.306(3) 0.011(6) 0.606(3)
H8 H 0.525(3) -0.047(6) 0.641(3)
H9 H 0.486(3) -0.044(6) 0.780(3)
H10 H 0.528(2) 0.227(5) 0.924(3)
H11 H 0.707(3) 0.370(5) 1.003(3)
H12 H 0.831(3) 0.495(6) 0.884(3)
H13 H 0.762(2) 0.435(5) 0.658(3)
H14 H 0.617(2) 0.248(5) 0.581(3)
H15 H 0.754(3) 0.012(7) 0.751(3)
H16 H 0.740(3) 0.018(7) 0.882(3)
H17 H 0.988(4) 0.069(7) 0.928(4)
H18 H 1.019(3) 0.304(7) 0.948(4)
H19 H 0.087(3) 0.031(7) 0.578(4)
H20 H 0.060(3) 0.095(6) 0.702(4)
H21 H -0.017(3) 0.185(8) 0.581(4)
H22 H 0.152(3) 0.340(5) 0.443(3)
H23 H 0.454(2) 0.510(5) 0.583(3)
loop_
_geom_bond_atom_site_label_1
_geom_bond_atom_site_label_2
_geom_bond_site_symmetry_1
_geom_bond_site_symmetry_2
O1 C2 1_555 1_555
O2 C11 1_555 1_555
O3 C13 1_555 1_555
N1 C6 1_555 1_555
C1 C2 1_555 1_555
C2 C3 1_555 1_555
C3 C4 1_555 1_555
C4 C5 1_555 1_555
C5 C6 1_555 1_555
C6 C7 1_555 1_555
C7 C8 1_555 1_555
C8 C9 1_555 1_555
C9 C10 1_555 1_555
C10 C1 1_555 1_555
C11 C9 1_555 1_555
C12 C11 1_555 1_555
C13 C12 1_555 1_555
C14 C8 1_555 1_555
C15 C8 1_555 1_555
C16 C12 1_555 1_555
C17 C16 1_555 1_555
C18 C4 1_555 1_555
C19 O1 1_555 1_555
C20 N1 1_555 1_555
H1 C1 1_555 1_555
H2 C1 1_555 1_555
H3 C2 1_555 1_555
H4 C3 1_555 1_555
H5 C3 1_555 1_555
H6 C5 1_555 1_555
H7 C6 1_555 1_555
H8 C7 1_555 1_555
H9 C7 1_555 1_555
H10 C9 1_555 1_555
H11 C11 1_555 1_555
H12 C12 1_555 1_555
H13 C13 1_555 1_555
H14 C14 1_555 1_555
H15 C15 1_555 1_555
H16 C15 1_555 1_555
H17 C17 1_555 1_555
H18 C17 1_555 1_555
H19 C18 1_555 1_555
H20 C18 1_555 1_555
H21 C18 1_555 1_555
H22 C19 1_555 1_555
H23 C20 1_555 1_555
N1 C19 1_555 1_555
C4 C19 1_555 1_555
C5 C10 1_555 1_555
C10 C20 1_555 1_555
C13 C14 1_555 1_555
C14 C20 1_555 1_555
C15 C16 1_555 1_555

#END
