
#######################################################################
#
#                 Cambridge Crystallographic Data Centre
#                                CCDC 
#
#######################################################################
#
# If this CIF has been generated from an entry in the Cambridge 
# Structural Database, then it will include bibliographic, chemical, 
# crystal, experimental, refinement or atomic coordinate data resulting 
# from the CCDC's data processing and validation procedures.
#
#######################################################################

data_VOMPAQ
_chemical_formula_moiety         'C78 H108 N12,4(C1 H4 O1),2(C1 H1 Cl3)'
_chemical_name_systematic        
'5,12,20,23,31,34,42,49,54,57,64,67-dodecaazapentadecacyclo[25.25.6.616,38.13,51.15,12.114,18.120,23.125,29.131,34.136,40.142,49.154,57.164,67.06,11.043,48]tetraheptaconta-1,3(60),14(72),15,17,25(70),26,28,36(62),37,39,51-dodecaene methanol chloroform solvate'
_symmetry_cell_setting           cubic
_symmetry_space_group_name_H-M   'F 41 3 2'
_symmetry_Int_Tables_number      210
_space_group_name_Hall           'F 4d 2 3'
loop_
_symmetry_equiv_pos_site_id
_symmetry_equiv_pos_as_xyz
1 x,y,z
2 1/4+x,1/4-z,1/4+y
3 1/4+x,1/4+z,1/4-y
4 1/4+z,1/4+y,1/4-x
5 1/4-z,1/4+y,1/4+x
6 1/4-y,1/4+x,1/4+z
7 1/4+y,1/4-x,1/4+z
8 z,x,y
9 y,z,x
10 -y,-z,x
11 z,-x,-y
12 -y,z,-x
13 -z,-x,y
14 -z,x,-y
15 y,-z,-x
16 x,-y,-z
17 -x,y,-z
18 -x,-y,z
19 1/4+y,1/4+x,1/4-z
20 1/4-y,1/4-x,1/4-z
21 1/4+z,1/4-y,1/4+x
22 1/4-z,1/4-y,1/4-x
23 1/4-x,1/4+z,1/4+y
24 1/4-x,1/4-z,1/4-y
25 x,1/2+y,1/2+z
26 1/4+x,3/4-z,3/4+y
27 1/4+x,3/4+z,3/4-y
28 1/4+z,3/4+y,3/4-x
29 1/4-z,3/4+y,3/4+x
30 1/4-y,3/4+x,3/4+z
31 1/4+y,3/4-x,3/4+z
32 z,1/2+x,1/2+y
33 y,1/2+z,1/2+x
34 -y,1/2-z,1/2+x
35 z,1/2-x,1/2-y
36 -y,1/2+z,1/2-x
37 -z,1/2-x,1/2+y
38 -z,1/2+x,1/2-y
39 y,1/2-z,1/2-x
40 x,1/2-y,1/2-z
41 -x,1/2+y,1/2-z
42 -x,1/2-y,1/2+z
43 1/4+y,3/4+x,3/4-z
44 1/4-y,3/4-x,3/4-z
45 1/4+z,3/4-y,3/4+x
46 1/4-z,3/4-y,3/4-x
47 1/4-x,3/4+z,3/4+y
48 1/4-x,3/4-z,3/4-y
49 1/2+x,y,1/2+z
50 3/4+x,1/4-z,3/4+y
51 3/4+x,1/4+z,3/4-y
52 3/4+z,1/4+y,3/4-x
53 3/4-z,1/4+y,3/4+x
54 3/4-y,1/4+x,3/4+z
55 3/4+y,1/4-x,3/4+z
56 1/2+z,x,1/2+y
57 1/2+y,z,1/2+x
58 1/2-y,-z,1/2+x
59 1/2+z,-x,1/2-y
60 1/2-y,z,1/2-x
61 1/2-z,-x,1/2+y
62 1/2-z,x,1/2-y
63 1/2+y,-z,1/2-x
64 1/2+x,-y,1/2-z
65 1/2-x,y,1/2-z
66 1/2-x,-y,1/2+z
67 3/4+y,1/4+x,3/4-z
68 3/4-y,1/4-x,3/4-z
69 3/4+z,1/4-y,3/4+x
70 3/4-z,1/4-y,3/4-x
71 3/4-x,1/4+z,3/4+y
72 3/4-x,1/4-z,3/4-y
73 1/2+x,1/2+y,z
74 3/4+x,3/4-z,1/4+y
75 3/4+x,3/4+z,1/4-y
76 3/4+z,3/4+y,1/4-x
77 3/4-z,3/4+y,1/4+x
78 3/4-y,3/4+x,1/4+z
79 3/4+y,3/4-x,1/4+z
80 1/2+z,1/2+x,y
81 1/2+y,1/2+z,x
82 1/2-y,1/2-z,x
83 1/2+z,1/2-x,-y
84 1/2-y,1/2+z,-x
85 1/2-z,1/2-x,y
86 1/2-z,1/2+x,-y
87 1/2+y,1/2-z,-x
88 1/2+x,1/2-y,-z
89 1/2-x,1/2+y,-z
90 1/2-x,1/2-y,z
91 3/4+y,3/4+x,1/4-z
92 3/4-y,3/4-x,1/4-z
93 3/4+z,3/4-y,1/4+x
94 3/4-z,3/4-y,1/4-x
95 3/4-x,3/4+z,1/4+y
96 3/4-x,3/4-z,1/4-y
_cell_length_a                   25.370(3)
_cell_length_b                   25.370(3)
_cell_length_c                   25.370(3)
_cell_angle_alpha                90
_cell_angle_beta                 90
_cell_angle_gamma                90
_cell_volume                     16329.1
_cell_formula_units_Z            8
loop_
_atom_site_label
_atom_site_type_symbol
_atom_site_fract_x
_atom_site_fract_y
_atom_site_fract_z
C1 C 0.4734(3) 0.5119(4) 0.3633(3)
H1 H 0.4693 0.5341 0.3951
H2 H 0.4467 0.4834 0.3652
C2 C 0.4628(3) 0.5457(4) 0.3140(3)
H3 H 0.4261 0.5588 0.3140
H4 H 0.4870 0.5763 0.3130
C3 C 0.4722(2) 0.5100(3) 0.2667(2)
H5 H 0.4476 0.4794 0.2688
N1 N 0.4680(2) 0.5339(2) 0.21462(18)
C4 C 0.4135(3) 0.5383(3) 0.1971(3)
H6 H 0.3921 0.5526 0.2264
H7 H 0.4001 0.5025 0.1892
C5 C 0.4051(2) 0.5734(2) 0.1479(3)
C6 C 0.3628(2) 0.5620(2) 0.1149(3)
H8 H 0.3416 0.5317 0.1210
C7 C 0.5000 0.5000 0.1801(4)
H9 H 0.5230 0.5218 0.1573
C1Q C 0.5266(3) 0.4881(4) 0.3633(3)
H1Q H 0.5307 0.4659 0.3951
H2Q H 0.5533 0.5166 0.3652
C2Q C 0.5372(3) 0.4543(4) 0.3140(3)
H3Q H 0.5739 0.4412 0.3140
H4Q H 0.5130 0.4237 0.3130
C3Q C 0.5278(2) 0.4900(3) 0.2667(2)
H5Q H 0.5524 0.5206 0.2688
N1Q N 0.5320(2) 0.4661(2) 0.21462(18)
C4Q C 0.5865(3) 0.4617(3) 0.1971(3)
H6Q H 0.6079 0.4474 0.2264
H7Q H 0.5999 0.4975 0.1892
C5Q C 0.5949(2) 0.4266(2) 0.1479(3)
C6Q C 0.6372(2) 0.4380(2) 0.1149(3)
H8Q H 0.6584 0.4683 0.1210
H9Q H 0.4770 0.4782 0.1573
C1IA C 0.4881(4) 0.8633(3) 0.0266(3)
H1IA H 0.4659 0.8951 0.0307
H2IA H 0.5166 0.8652 0.0533
C2IA C 0.4543(4) 0.8140(3) 0.0372(3)
H3IA H 0.4412 0.8140 0.0739
H4IA H 0.4237 0.8130 0.0130
C3IA C 0.4900(3) 0.7667(2) 0.0278(2)
H5IA H 0.5206 0.7688 0.0524
N1IA N 0.4661(2) 0.71462(18) 0.0320(2)
C4IA C 0.4617(3) 0.6971(3) 0.0865(3)
H6IA H 0.4474 0.7264 0.1079
H7IA H 0.4975 0.6892 0.0999
C5IA C 0.4266(2) 0.6479(3) 0.0949(2)
C6IA C 0.4380(2) 0.6149(3) 0.1372(2)
H8IA H 0.4683 0.6210 0.1584
C7FA C 0.5000 0.6801(4) 0.0000
H9IA H 0.4782 0.6573 -0.0230
C1HB C 0.1367(3) 0.5266(3) 0.0119(4)
H1HB H 0.1049 0.5307 0.0341
H2HB H 0.1348 0.5533 -0.0166
C2HB C 0.1860(3) 0.5372(3) 0.0457(4)
H3HB H 0.1860 0.5739 0.0588
H4HB H 0.1870 0.5130 0.0763
C3HB C 0.2333(2) 0.5278(2) 0.0100(3)
H5HB H 0.2312 0.5524 -0.0206
N1HB N 0.28538(18) 0.5320(2) 0.0339(2)
C4HB C 0.3029(3) 0.5865(3) 0.0383(3)
H6HB H 0.2736 0.6079 0.0526
H7HB H 0.3108 0.5999 0.0025
C5HB C 0.3521(3) 0.5949(2) 0.0734(2)
C6HB C 0.3851(3) 0.6372(2) 0.0620(2)
H8HB H 0.3790 0.6584 0.0317
C7HB C 0.3199(4) 0.5000 0.0000
H9HB H 0.3427 0.4770 0.0218
C1FA C 0.5119(4) 0.8633(3) -0.0266(3)
H1FA H 0.5341 0.8951 -0.0307
H2FA H 0.4834 0.8652 -0.0533
C2FA C 0.5457(4) 0.8140(3) -0.0372(3)
H3FA H 0.5588 0.8140 -0.0739
H4FA H 0.5763 0.8130 -0.0130
C3FA C 0.5100(3) 0.7667(2) -0.0278(2)
H5FA H 0.4794 0.7688 -0.0524
N1FA N 0.5339(2) 0.71462(18) -0.0320(2)
C4FA C 0.5383(3) 0.6971(3) -0.0865(3)
H6FA H 0.5526 0.7264 -0.1079
H7FA H 0.5025 0.6892 -0.0999
C5FA C 0.5734(2) 0.6479(3) -0.0949(2)
C6FA C 0.5620(2) 0.6149(3) -0.1372(2)
H8FA H 0.5317 0.6210 -0.1584
H9FA H 0.5218 0.6573 0.0230
C1LA C 0.5119(4) 0.1367(3) 0.0266(3)
H1LA H 0.5341 0.1049 0.0307
H2LA H 0.4834 0.1348 0.0533
C2LA C 0.5457(4) 0.1860(3) 0.0372(3)
H3LA H 0.5588 0.1860 0.0739
H4LA H 0.5763 0.1870 0.0130
C3LA C 0.5100(3) 0.2333(2) 0.0278(2)
H5LA H 0.4794 0.2312 0.0524
N1LA N 0.5339(2) 0.28538(18) 0.0320(2)
C4LA C 0.5383(3) 0.3029(3) 0.0865(3)
H6LA H 0.5526 0.2736 0.1079
H7LA H 0.5025 0.3108 0.0999
C5LA C 0.5734(2) 0.3521(3) 0.0949(2)
C6LA C 0.5620(2) 0.3851(3) 0.1372(2)
H8LA H 0.5317 0.3790 0.1584
C7GA C 0.5000 0.3199(4) 0.0000
H9LA H 0.5218 0.3427 -0.0230
C1CB C 0.8633(3) 0.4734(3) 0.0119(4)
H1CB H 0.8951 0.4693 0.0341
H2CB H 0.8652 0.4467 -0.0166
C2CB C 0.8140(3) 0.4628(3) 0.0457(4)
H3CB H 0.8140 0.4261 0.0588
H4CB H 0.8130 0.4870 0.0763
C3CB C 0.7667(2) 0.4722(2) 0.0100(3)
H5CB H 0.7688 0.4476 -0.0206
N1CB N 0.71462(18) 0.4680(2) 0.0339(2)
C4CB C 0.6971(3) 0.4135(3) 0.0383(3)
H6CB H 0.7264 0.3921 0.0526
H7CB H 0.6892 0.4001 0.0025
C5CB C 0.6479(3) 0.4051(2) 0.0734(2)
C6CB C 0.6149(3) 0.3628(2) 0.0620(2)
H8CB H 0.6210 0.3416 0.0317
C7CB C 0.6801(4) 0.5000 0.0000
H9CB H 0.6573 0.5230 0.0218
C1FB C 0.8633(3) 0.5266(3) -0.0119(4)
H1FB H 0.8951 0.5307 -0.0341
H2FB H 0.8652 0.5533 0.0166
C2FB C 0.8140(3) 0.5372(3) -0.0457(4)
H3FB H 0.8140 0.5739 -0.0588
H4FB H 0.8130 0.5130 -0.0763
C3FB C 0.7667(2) 0.5278(2) -0.0100(3)
H5FB H 0.7688 0.5524 0.0206
N1FB N 0.71462(18) 0.5320(2) -0.0339(2)
C4FB C 0.6971(3) 0.5865(3) -0.0383(3)
H6FB H 0.7264 0.6079 -0.0526
H7FB H 0.6892 0.5999 -0.0025
C5FB C 0.6479(3) 0.5949(2) -0.0734(2)
C6FB C 0.6149(3) 0.6372(2) -0.0620(2)
H8FB H 0.6210 0.6584 -0.0317
H9FB H 0.6573 0.4770 -0.0218
C1IB C 0.1367(3) 0.4734(3) -0.0119(4)
H1IB H 0.1049 0.4693 -0.0341
H2IB H 0.1348 0.4467 0.0166
C2IB C 0.1860(3) 0.4628(3) -0.0457(4)
H3IB H 0.1860 0.4261 -0.0588
H4IB H 0.1870 0.4870 -0.0763
C3IB C 0.2333(2) 0.4722(2) -0.0100(3)
H5IB H 0.2312 0.4476 0.0206
N1IB N 0.28538(18) 0.4680(2) -0.0339(2)
C4IB C 0.3029(3) 0.4135(3) -0.0383(3)
H6IB H 0.2736 0.3921 -0.0526
H7IB H 0.3108 0.4001 -0.0025
C5IB C 0.3521(3) 0.4051(2) -0.0734(2)
C6IB C 0.3851(3) 0.3628(2) -0.0620(2)
H8IB H 0.3790 0.3416 -0.0317
H9IB H 0.3427 0.5230 -0.0218
C1O C 0.4734(3) 0.4881(4) -0.3633(3)
H1O H 0.4693 0.4659 -0.3951
H2O H 0.4467 0.5166 -0.3652
C2O C 0.4628(3) 0.4543(4) -0.3140(3)
H3O H 0.4261 0.4412 -0.3140
H4O H 0.4870 0.4237 -0.3130
C3O C 0.4722(2) 0.4900(3) -0.2667(2)
H5O H 0.4476 0.5206 -0.2688
N1O N 0.4680(2) 0.4661(2) -0.21462(18)
C4O C 0.4135(3) 0.4617(3) -0.1971(3)
H6O H 0.3921 0.4474 -0.2264
H7O H 0.4001 0.4975 -0.1892
C5O C 0.4051(2) 0.4266(2) -0.1479(3)
C6O C 0.3628(2) 0.4380(2) -0.1149(3)
H8O H 0.3416 0.4683 -0.1210
C7O C 0.5000 0.5000 -0.1801(4)
H9O H 0.5230 0.4782 -0.1573
C1P C 0.5266(3) 0.5119(4) -0.3633(3)
H1P H 0.5307 0.5341 -0.3951
H2P H 0.5533 0.4834 -0.3652
C2P C 0.5372(3) 0.5457(4) -0.3140(3)
H3P H 0.5739 0.5588 -0.3140
H4P H 0.5130 0.5763 -0.3130
C3P C 0.5278(2) 0.5100(3) -0.2667(2)
H5P H 0.5524 0.4794 -0.2688
N1P N 0.5320(2) 0.5339(2) -0.21462(18)
C4P C 0.5865(3) 0.5383(3) -0.1971(3)
H6P H 0.6079 0.5526 -0.2264
H7P H 0.5999 0.5025 -0.1892
C5P C 0.5949(2) 0.5734(2) -0.1479(3)
C6P C 0.6372(2) 0.5620(2) -0.1149(3)
H8P H 0.6584 0.5317 -0.1210
H9P H 0.4770 0.5218 -0.1573
C1GA C 0.4881(4) 0.1367(3) -0.0266(3)
H1GA H 0.4659 0.1049 -0.0307
H2GA H 0.5166 0.1348 -0.0533
C2GA C 0.4543(4) 0.1860(3) -0.0372(3)
H3GA H 0.4412 0.1860 -0.0739
H4GA H 0.4237 0.1870 -0.0130
C3GA C 0.4900(3) 0.2333(2) -0.0278(2)
H5GA H 0.5206 0.2312 -0.0524
N1GA N 0.4661(2) 0.28538(18) -0.0320(2)
C4GA C 0.4617(3) 0.3029(3) -0.0865(3)
H6GA H 0.4474 0.2736 -0.1079
H7GA H 0.4975 0.3108 -0.0999
C5GA C 0.4266(2) 0.3521(3) -0.0949(2)
C6GA C 0.4380(2) 0.3851(3) -0.1372(2)
H8GA H 0.4683 0.3790 -0.1584
H9GA H 0.4782 0.3427 0.0230
H10? H 0.4071 0.4071 0.0929
O1? O 0.46063(16) 0.46063(16) 0.03937(16)
H11? H 0.4679 0.4445 0.0114
C8? C 0.4262(2) 0.4262(2) 0.0738(2)
H12? H 0.4450 0.4178 0.1065
Cl1? Cl 0.42009(14) 0.3750 0.17009(14)
C9? C 0.3844(5) 0.3844(5) 0.1156(5)
loop_
_geom_bond_atom_site_label_1
_geom_bond_atom_site_label_2
_geom_bond_site_symmetry_1
_geom_bond_site_symmetry_2
C1 H1 1_555 1_555
H2 C1 1_555 1_555
C2 C1 1_555 1_555
H3 C2 1_555 1_555
H4 C2 1_555 1_555
C3 C2 1_555 1_555
H5 C3 1_555 1_555
N1 C3 1_555 1_555
C4 N1 1_555 1_555
H6 C4 1_555 1_555
H7 C4 1_555 1_555
C5 C4 1_555 1_555
C6 C5 1_555 1_555
H8 C6 1_555 1_555
C7 N1 1_555 1_555
H9 C7 1_555 1_555
C1Q C1 1_555 1_555
H1Q C1Q 1_555 1_555
H2Q C1Q 1_555 1_555
C2Q C1Q 1_555 1_555
H3Q C2Q 1_555 1_555
H4Q C2Q 1_555 1_555
C3Q C3 1_555 1_555
H5Q C3Q 1_555 1_555
N1Q C7 1_555 1_555
C4Q N1Q 1_555 1_555
H6Q C4Q 1_555 1_555
H7Q C4Q 1_555 1_555
C5Q C4Q 1_555 1_555
C6Q C5Q 1_555 1_555
H8Q C6Q 1_555 1_555
H9Q C7 1_555 1_555
C1IA H1IA 1_555 1_555
H2IA C1IA 1_555 1_555
C2IA C1IA 1_555 1_555
H3IA C2IA 1_555 1_555
H4IA C2IA 1_555 1_555
C3IA C2IA 1_555 1_555
H5IA C3IA 1_555 1_555
N1IA C3IA 1_555 1_555
C4IA N1IA 1_555 1_555
H6IA C4IA 1_555 1_555
H7IA C4IA 1_555 1_555
C5IA C4IA 1_555 1_555
C6IA C5 1_555 1_555
H8IA C6IA 1_555 1_555
C7FA N1IA 1_555 1_555
H9IA C7FA 1_555 1_555
C1HB H1HB 1_555 1_555
H2HB C1HB 1_555 1_555
C2HB C1HB 1_555 1_555
H3HB C2HB 1_555 1_555
H4HB C2HB 1_555 1_555
C3HB C2HB 1_555 1_555
H5HB C3HB 1_555 1_555
N1HB C3HB 1_555 1_555
C4HB N1HB 1_555 1_555
H6HB C4HB 1_555 1_555
H7HB C4HB 1_555 1_555
C5HB C6 1_555 1_555
C6HB C5IA 1_555 1_555
H8HB C6HB 1_555 1_555
C7HB N1HB 1_555 1_555
H9HB C7HB 1_555 1_555
C1FA C1IA 1_555 1_555
H1FA C1FA 1_555 1_555
H2FA C1FA 1_555 1_555
C2FA C1FA 1_555 1_555
H3FA C2FA 1_555 1_555
H4FA C2FA 1_555 1_555
C3FA C3IA 1_555 1_555
H5FA C3FA 1_555 1_555
N1FA C7FA 1_555 1_555
C4FA N1FA 1_555 1_555
H6FA C4FA 1_555 1_555
H7FA C4FA 1_555 1_555
C5FA C4FA 1_555 1_555
C6FA C5FA 1_555 1_555
H8FA C6FA 1_555 1_555
H9FA C7FA 1_555 1_555
C1LA H1LA 1_555 1_555
H2LA C1LA 1_555 1_555
C2LA C1LA 1_555 1_555
H3LA C2LA 1_555 1_555
H4LA C2LA 1_555 1_555
C3LA C2LA 1_555 1_555
H5LA C3LA 1_555 1_555
N1LA C3LA 1_555 1_555
C4LA N1LA 1_555 1_555
H6LA C4LA 1_555 1_555
H7LA C4LA 1_555 1_555
C5LA C4LA 1_555 1_555
C6LA C5Q 1_555 1_555
H8LA C6LA 1_555 1_555
C7GA N1LA 1_555 1_555
H9LA C7GA 1_555 1_555
C1CB H1CB 1_555 1_555
H2CB C1CB 1_555 1_555
C2CB C1CB 1_555 1_555
H3CB C2CB 1_555 1_555
H4CB C2CB 1_555 1_555
C3CB C2CB 1_555 1_555
H5CB C3CB 1_555 1_555
N1CB C3CB 1_555 1_555
C4CB N1CB 1_555 1_555
H6CB C4CB 1_555 1_555
H7CB C4CB 1_555 1_555
C5CB C6Q 1_555 1_555
C6CB C5LA 1_555 1_555
H8CB C6CB 1_555 1_555
C7CB N1CB 1_555 1_555
H9CB C7CB 1_555 1_555
C1FB C1CB 1_555 1_555
H1FB C1FB 1_555 1_555
H2FB C1FB 1_555 1_555
C2FB C1FB 1_555 1_555
H3FB C2FB 1_555 1_555
H4FB C2FB 1_555 1_555
C3FB C3CB 1_555 1_555
H5FB C3FB 1_555 1_555
N1FB C7CB 1_555 1_555
C4FB N1FB 1_555 1_555
H6FB C4FB 1_555 1_555
H7FB C4FB 1_555 1_555
C5FB C4FB 1_555 1_555
C6FB C5FA 1_555 1_555
H8FB C6FB 1_555 1_555
H9FB C7CB 1_555 1_555
C1IB C1HB 1_555 1_555
H1IB C1IB 1_555 1_555
H2IB C1IB 1_555 1_555
C2IB C1IB 1_555 1_555
H3IB C2IB 1_555 1_555
H4IB C2IB 1_555 1_555
C3IB C3HB 1_555 1_555
H5IB C3IB 1_555 1_555
N1IB C7HB 1_555 1_555
C4IB N1IB 1_555 1_555
H6IB C4IB 1_555 1_555
H7IB C4IB 1_555 1_555
C5IB C4IB 1_555 1_555
C6IB C5IB 1_555 1_555
H8IB C6IB 1_555 1_555
H9IB C7HB 1_555 1_555
C1O H1O 1_555 1_555
H2O C1O 1_555 1_555
C2O C1O 1_555 1_555
H3O C2O 1_555 1_555
H4O C2O 1_555 1_555
C3O C2O 1_555 1_555
H5O C3O 1_555 1_555
N1O C3O 1_555 1_555
C4O N1O 1_555 1_555
H6O C4O 1_555 1_555
H7O C4O 1_555 1_555
C5O C4O 1_555 1_555
C6O C5IB 1_555 1_555
H8O C6O 1_555 1_555
C7O N1O 1_555 1_555
H9O C7O 1_555 1_555
C1P C1O 1_555 1_555
H1P C1P 1_555 1_555
H2P C1P 1_555 1_555
C2P C1P 1_555 1_555
H3P C2P 1_555 1_555
H4P C2P 1_555 1_555
C3P C3O 1_555 1_555
H5P C3P 1_555 1_555
N1P C7O 1_555 1_555
C4P N1P 1_555 1_555
H6P C4P 1_555 1_555
H7P C4P 1_555 1_555
C5P C6FA 1_555 1_555
C6P C5FB 1_555 1_555
H8P C6P 1_555 1_555
H9P C7O 1_555 1_555
C1GA C1LA 1_555 1_555
H1GA C1GA 1_555 1_555
H2GA C1GA 1_555 1_555
C2GA C1GA 1_555 1_555
H3GA C2GA 1_555 1_555
H4GA C2GA 1_555 1_555
C3GA C3LA 1_555 1_555
H5GA C3GA 1_555 1_555
N1GA C7GA 1_555 1_555
C4GA N1GA 1_555 1_555
H6GA C4GA 1_555 1_555
H7GA C4GA 1_555 1_555
C5GA C6IB 1_555 1_555
C6GA C5O 1_555 1_555
H8GA C6GA 1_555 1_555
H9GA C7GA 1_555 1_555
C2Q C3Q 1_555 1_555
C3Q N1Q 1_555 1_555
C5IA C6IA 1_555 1_555
C4HB C5HB 1_555 1_555
C5HB C6HB 1_555 1_555
C2FA C3FA 1_555 1_555
C3FA N1FA 1_555 1_555
C5LA C6LA 1_555 1_555
C4CB C5CB 1_555 1_555
C5CB C6CB 1_555 1_555
C2FB C3FB 1_555 1_555
C3FB N1FB 1_555 1_555
C5FB C6FB 1_555 1_555
C2IB C3IB 1_555 1_555
C3IB N1IB 1_555 1_555
C5O C6O 1_555 1_555
C2P C3P 1_555 1_555
C3P N1P 1_555 1_555
C4P C5P 1_555 1_555
C5P C6P 1_555 1_555
C2GA C3GA 1_555 1_555
C3GA N1GA 1_555 1_555
C4GA C5GA 1_555 1_555
C5GA C6GA 1_555 1_555

#END
