
#######################################################################
#
#                 Cambridge Crystallographic Data Centre
#                                CCDC 
#
#######################################################################
#
# If this CIF has been generated from an entry in the Cambridge 
# Structural Database, then it will include bibliographic, chemical, 
# crystal, experimental, refinement or atomic coordinate data resulting 
# from the CCDC's data processing and validation procedures.
#
#######################################################################

data_VOMQEU
_chemical_formula_moiety         'C23 H25 N3 O4'
_chemical_name_systematic        
5-(2-(3,4-Dimethoxyphenyl)ethyl)-2-(4-methoxyphenyl)-6,7-dihydropyrazolo[1,5-a]pyrazin-4(5H)-one
_chemical_properties_biological  
'preliminary biological evaluation showed that this compound did not inhibit the growth of lung cancer cells'
_symmetry_cell_setting           triclinic
_symmetry_space_group_name_H-M   'P -1'
_symmetry_Int_Tables_number      2
_space_group_name_Hall           '-P 1'
loop_
_symmetry_equiv_pos_site_id
_symmetry_equiv_pos_as_xyz
1 x,y,z
2 -x,-y,-z
_cell_length_a                   7.4342(2)
_cell_length_b                   12.0228(4)
_cell_length_c                   12.6883(4)
_cell_angle_alpha                106.820(2)
_cell_angle_beta                 99.827(2)
_cell_angle_gamma                102.451(2)
_cell_volume                     1026.55
_exptl_crystal_colour            colorless
_chemical_melting_point          171-172deg.C
_cell_formula_units_Z            2
loop_
_atom_site_label
_atom_site_type_symbol
_atom_site_fract_x
_atom_site_fract_y
_atom_site_fract_z
N1 N 0.5998(3) 0.06310(16) 0.87391(15)
N2 N 0.4225(2) 0.00115(16) 0.80923(15)
N3 N 0.0756(3) -0.11434(17) 0.65629(16)
O1 O 1.4704(2) 0.35611(16) 0.96872(14)
O2 O 0.1998(2) -0.06635(16) 0.51750(14)
O3 O -0.6635(2) -0.66733(14) 0.27188(14)
O4 O -0.9160(2) -0.55226(15) 0.25250(15)
C1 C 1.5858(5) 0.3793(3) 0.8941(3)
C2 C 1.2839(3) 0.2909(2) 0.9199(2)
C3 C 1.2047(3) 0.2361(2) 0.8040(2)
H1 H 1.286(3) 0.2438(19) 0.7486(19)
C4 C 1.0143(3) 0.1694(2) 0.7656(2)
H2 H 0.961(3) 0.1350(19) 0.6870(19)
C5 C 0.9014(3) 0.15686(19) 0.83968(19)
C6 C 0.9841(4) 0.2148(2) 0.9565(2)
H3 H 0.909(3) 0.208(2) 1.010(2)
C7 C 1.1730(4) 0.2803(2) 0.9957(2)
H4 H 1.224(3) 0.316(2) 1.076(2)
C8 C 0.6996(3) 0.08707(19) 0.79938(18)
C9 C 0.5830(3) 0.0416(2) 0.6881(2)
H5 H 0.615(3) 0.0428(18) 0.6193(19)
C10 C 0.4059(3) -0.01244(19) 0.69810(19)
C11 C 0.2194(3) -0.0679(2) 0.6152(2)
C12 C 0.1124(4) -0.1366(3) 0.7641(2)
H6 H 0.156(3) -0.214(2) 0.7505(18)
H7 H -0.006(4) -0.150(2) 0.788(2)
C13 C 0.2624(3) -0.0327(3) 0.8562(2)
H8 H 0.305(3) -0.056(2) 0.923(2)
C14 C -0.1173(3) -0.1640(2) 0.5814(2)
H9 H -0.207(3) -0.161(2) 0.633(2)
C15 C -0.1570(4) -0.2947(2) 0.5099(3)
H10 H -0.070(4) -0.301(2) 0.460(2)
C16 C -0.3616(3) -0.3562(2) 0.44147(19)
C17 C -0.4165(4) -0.4819(2) 0.3884(2)
H11 H -0.320(3) -0.528(2) 0.394(2)
C18 C -0.5994(3) -0.5438(2) 0.32662(18)
C19 C -0.7371(3) -0.4815(2) 0.31638(19)
C20 C -0.6843(4) -0.3580(2) 0.3690(2)
H12 H -0.778(3) -0.315(2) 0.3583(18)
C21 C -0.4976(4) -0.2963(2) 0.4310(2)
H13 H -0.467(3) -0.213(2) 0.4662(19)
C22 C -0.5235(4) -0.7302(2) 0.2568(3)
H14 H -0.5847 -0.8151 0.2188
H15 H -0.4441 -0.7179 0.3297
H16 H -0.4470 -0.7002 0.2118
C23 C -1.0435(4) -0.4941(3) 0.2109(2)
H17 H -1.1626 -0.5530 0.1683
H18 H -0.9909 -0.4549 0.1625
H19 H -1.0638 -0.4349 0.2736
H20 H -0.136(3) -0.112(2) 0.532(2)
H21 H 0.208(3) 0.042(2) 0.8824(19)
H22 H 1.525(4) 0.421(3) 0.846(2)
H23 H -0.117(3) -0.338(2) 0.562(2)
H24 H 1.707(4) 0.426(3) 0.939(2)
H25 H 1.599(4) 0.300(3) 0.840(2)
loop_
_geom_bond_atom_site_label_1
_geom_bond_atom_site_label_2
_geom_bond_site_symmetry_1
_geom_bond_site_symmetry_2
N1 N2 1_555 1_555
N2 C10 1_555 1_555
N3 C11 1_555 1_555
O1 C1 1_555 1_555
O2 C11 1_555 1_555
O3 C18 1_555 1_555
O4 C19 1_555 1_555
C1 H22 1_555 1_555
C2 O1 1_555 1_555
C3 C2 1_555 1_555
H1 C3 1_555 1_555
C4 C3 1_555 1_555
H2 C4 1_555 1_555
C5 C4 1_555 1_555
C6 C5 1_555 1_555
H3 C6 1_555 1_555
C7 C2 1_555 1_555
H4 C7 1_555 1_555
C8 N1 1_555 1_555
C9 C8 1_555 1_555
H5 C9 1_555 1_555
C10 C9 1_555 1_555
C11 C10 1_555 1_555
C12 N3 1_555 1_555
H6 C12 1_555 1_555
H7 C12 1_555 1_555
C13 N2 1_555 1_555
H8 C13 1_555 1_555
C14 N3 1_555 1_555
H9 C14 1_555 1_555
C15 C14 1_555 1_555
H10 C15 1_555 1_555
C16 C15 1_555 1_555
C17 C16 1_555 1_555
H11 C17 1_555 1_555
C18 C17 1_555 1_555
C19 C18 1_555 1_555
C20 C19 1_555 1_555
H12 C20 1_555 1_555
C21 C16 1_555 1_555
H13 C21 1_555 1_555
C22 O3 1_555 1_555
H14 C22 1_555 1_555
H15 C22 1_555 1_555
H16 C22 1_555 1_555
C23 O4 1_555 1_555
H17 C23 1_555 1_555
H18 C23 1_555 1_555
H19 C23 1_555 1_555
H20 C14 1_555 1_555
H21 C13 1_555 1_555
H23 C15 1_555 1_555
H24 C1 1_555 1_555
H25 C1 1_555 1_555
C5 C8 1_555 1_555
C6 C7 1_555 1_555
C12 C13 1_555 1_555
C20 C21 1_555 1_555

#END
