
#######################################################################
#
#                 Cambridge Crystallographic Data Centre
#                                CCDC 
#
#######################################################################
#
# If this CIF has been generated from an entry in the Cambridge 
# Structural Database, then it will include bibliographic, chemical, 
# crystal, experimental, refinement or atomic coordinate data resulting 
# from the CCDC's data processing and validation procedures.
#
#######################################################################

data_VOMROE
_chemical_formula_moiety         'C22 H12 Br1 N1 O1'
_chemical_name_systematic        
3-Bromophenanthro(4,3-h)quinoline-11-carboxaldehyde
_symmetry_cell_setting           triclinic
_symmetry_space_group_name_H-M   'P -1'
_symmetry_Int_Tables_number      2
_space_group_name_Hall           '-P 1'
loop_
_symmetry_equiv_pos_site_id
_symmetry_equiv_pos_as_xyz
1 x,y,z
2 -x,-y,-z
_cell_length_a                   8.452(2)
_cell_length_b                   9.823(2)
_cell_length_c                   11.275(2)
_cell_angle_alpha                107.657(6)
_cell_angle_beta                 97.779(6)
_cell_angle_gamma                111.088(6)
_cell_volume                     800.172
_exptl_crystal_colour            'pale yellow'
_chemical_melting_point          222deg.C(dec.)
_cell_formula_units_Z            2
loop_
_atom_site_label
_atom_site_type_symbol
_atom_site_fract_x
_atom_site_fract_y
_atom_site_fract_z
Br1 Br 0.16063(16) 0.92056(12) 0.40404(11)
O1 O 0.22320(82) -0.08342(68) 0.84623(59)
N1 N 0.28460(79) 0.76050(66) 0.52461(57)
C1 C 0.2467(11) 0.01702(96) 0.80245(80)
C2 C 0.1699(10) 0.7359(9) 0.4234(8)
C3 C 0.0526(10) 0.5922(9) 0.3273(8)
H1 H -0.0338 0.5856 0.2534
C4 C 0.0610(10) 0.4613(9) 0.3383(7)
H2 H -0.0198 0.3546 0.2714
C5 C 0.1848(9) 0.4766(8) 0.4453(7)
C6 C 0.2097(10) 0.3474(8) 0.4606(7)
H3 H 0.1399 0.2393 0.3923
C7 C 0.3288(9) 0.3686(8) 0.5684(7)
H4 H 0.3440 0.2751 0.5765
C8 C 0.4307(9) 0.5199(8) 0.6683(7)
C9 C 0.4211(10) 0.6520(8) 0.6485(7)
C10 C 0.2927(9) 0.6301(8) 0.5379(7)
C11 C 0.5449(10) 0.8074(8) 0.7339(7)
H5 H 0.5329 0.9014 0.7241
C12 C 0.6791(10) 0.8273(9) 0.8282(8)
H6 H 0.7733 0.9359 0.8805
C13 C 0.6889(10) 0.6988(9) 0.8542(7)
C14 C 0.8348(10) 0.7240(9) 0.9544(8)
H7 H 0.9321 0.8324 1.0010
C15 C 0.8421(11) 0.6064(9) 0.9859(8)
H8 H 0.9494 0.6266 1.0509
C16 C 0.7012(9) 0.4519(8) 0.9298(7)
C17 C 0.6985(11) 0.3330(9) 0.9758(8)
H9 H 0.8039 0.3554 1.0437
C18 C 0.5609(10) 0.1912(9) 0.9329(8)
H10 H 0.5658 0.1075 0.9643
C19 C 0.4081(10) 0.1632(9) 0.8413(7)
C20 C 0.4067(10) 0.2743(8) 0.7934(7)
H11 H 0.2970 0.2507 0.7290
C21 C 0.5520(10) 0.4210(8) 0.8300(7)
C22 C 0.5568(9) 0.5437(8) 0.7822(7)
H12 H 0.1463 -0.0003 0.7328
loop_
_geom_bond_atom_site_label_1
_geom_bond_atom_site_label_2
_geom_bond_site_symmetry_1
_geom_bond_site_symmetry_2
Br1 C2 1_555 1_555
O1 C1 1_555 1_555
N1 C2 1_555 1_555
C1 C19 1_555 1_555
C2 C3 1_555 1_555
C3 H1 1_555 1_555
C4 C3 1_555 1_555
H2 C4 1_555 1_555
C5 C4 1_555 1_555
C6 C5 1_555 1_555
H3 C6 1_555 1_555
C7 C6 1_555 1_555
H4 C7 1_555 1_555
C8 C7 1_555 1_555
C9 C8 1_555 1_555
C10 N1 1_555 1_555
C11 C9 1_555 1_555
H5 C11 1_555 1_555
C12 C11 1_555 1_555
H6 C12 1_555 1_555
C13 C12 1_555 1_555
C14 C13 1_555 1_555
H7 C14 1_555 1_555
C15 C14 1_555 1_555
H8 C15 1_555 1_555
C16 C15 1_555 1_555
C17 C16 1_555 1_555
H9 C17 1_555 1_555
C18 C17 1_555 1_555
H10 C18 1_555 1_555
C19 C18 1_555 1_555
C20 C19 1_555 1_555
H11 C20 1_555 1_555
C21 C16 1_555 1_555
C22 C8 1_555 1_555
H12 C1 1_555 1_555
C5 C10 1_555 1_555
C9 C10 1_555 1_555
C13 C22 1_555 1_555
C20 C21 1_555 1_555
C21 C22 1_555 1_555

#END
