
#######################################################################
#
#                 Cambridge Crystallographic Data Centre
#                                CCDC 
#
#######################################################################
#
# If this CIF has been generated from an entry in the Cambridge 
# Structural Database, then it will include bibliographic, chemical, 
# crystal, experimental, refinement or atomic coordinate data resulting 
# from the CCDC's data processing and validation procedures.
#
#######################################################################

data_VOMZUU
_chemical_formula_moiety         'C18 H14 N4'
_chemical_name_systematic        
2,6-Dimethyl-4-(quinolin-3-yl)-1,4-dihydropyridine-3,5-dicarbonitrile
_symmetry_cell_setting           monoclinic
_symmetry_space_group_name_H-M   'P 21/c'
_symmetry_Int_Tables_number      14
_space_group_name_Hall           '-P 2ybc'
loop_
_symmetry_equiv_pos_site_id
_symmetry_equiv_pos_as_xyz
1 x,y,z
2 -x,1/2+y,1/2-z
3 -x,-y,-z
4 x,1/2-y,1/2+z
_cell_length_a                   10.6857(8)
_cell_length_b                   10.7931(8)
_cell_length_c                   14.1157(10)
_cell_angle_alpha                90
_cell_angle_beta                 108.5990(10)
_cell_angle_gamma                90
_cell_volume                     1542.97
_exptl_crystal_colour            'canary yellow'
_exptl_crystal_description       parallelepiped
_cell_formula_units_Z            4
loop_
_atom_site_label
_atom_site_type_symbol
_atom_site_fract_x
_atom_site_fract_y
_atom_site_fract_z
C1 C 0.20475(14) 1.02977(15) 0.04456(13)
C2 C 0.19122(18) 1.15964(17) 0.04722(17)
H1 H 0.2374 1.2033 0.1045
C3 C 0.1118(2) 1.2209(2) -0.0326(2)
H2 H 0.1028 1.3064 -0.0297
C4 C 0.0433(2) 1.1573(2) -0.11925(18)
H3 H -0.0104 1.2011 -0.1739
C5 C 0.05333(18) 1.0308(2) -0.12563(14)
H4 H 0.0064 0.9893 -0.1839
C6 C 0.13609(15) 0.96398(16) -0.04246(12)
C7 C 0.15614(14) 0.83440(16) -0.04305(11)
H5 H 0.1131 0.7885 -0.0999
C8 C 0.23821(13) 0.77661(14) 0.03920(11)
C9 C 0.29809(15) 0.85044(15) 0.12355(12)
H6 H 0.3511 0.8108 0.1808
C10 C 0.27811(14) 0.64156(14) 0.03950(11)
H7 H 0.2221 0.6021 -0.0220
C11 C 0.42147(15) 0.63745(14) 0.04052(12)
C12 C 0.52247(15) 0.60918(14) 0.12261(12)
C13 C 0.37389(15) 0.53948(14) 0.20812(12)
C14 C 0.26818(14) 0.56810(14) 0.12874(12)
C15 C 0.44606(17) 0.67886(16) -0.04763(13)
C16 C 0.66552(16) 0.61831(17) 0.13029(15)
H8 H 0.6727 0.6362 0.0656
H9 H 0.7087 0.5411 0.1542
H10 H 0.7066 0.6834 0.1760
C17 C 0.36771(17) 0.47416(18) 0.29985(14)
H11 H 0.2772 0.4651 0.2969
H12 H 0.4144 0.5216 0.3579
H13 H 0.4075 0.3938 0.3037
C18 C 0.14019(16) 0.53015(16) 0.12878(12)
N1 N 0.28503(13) 0.97118(13) 0.12780(11)
N2 N 0.49894(12) 0.56861(12) 0.20752(10)
H14 H 0.5642 0.5612 0.2618
N3 N 0.46132(19) 0.71247(17) -0.12025(13)
N4 N 0.03701(15) 0.49970(18) 0.12751(12)
loop_
_geom_bond_atom_site_label_1
_geom_bond_atom_site_label_2
_geom_bond_site_symmetry_1
_geom_bond_site_symmetry_2
C1 C2 1_555 1_555
C2 H1 1_555 1_555
C3 C2 1_555 1_555
H2 C3 1_555 1_555
C4 C3 1_555 1_555
H3 C4 1_555 1_555
C5 C4 1_555 1_555
H4 C5 1_555 1_555
C6 C1 1_555 1_555
C7 C6 1_555 1_555
H5 C7 1_555 1_555
C8 C7 1_555 1_555
C9 C8 1_555 1_555
H6 C9 1_555 1_555
C10 C8 1_555 1_555
H7 C10 1_555 1_555
C11 C10 1_555 1_555
C12 C11 1_555 1_555
C13 C14 1_555 1_555
C14 C10 1_555 1_555
C15 C11 1_555 1_555
C16 C12 1_555 1_555
H8 C16 1_555 1_555
H9 C16 1_555 1_555
H10 C16 1_555 1_555
C17 C13 1_555 1_555
H11 C17 1_555 1_555
H12 C17 1_555 1_555
H13 C17 1_555 1_555
C18 C14 1_555 1_555
N1 C1 1_555 1_555
N2 C12 1_555 1_555
H14 N2 1_555 1_555
N3 C15 1_555 1_555
N4 C18 1_555 1_555
C5 C6 1_555 1_555
C9 N1 1_555 1_555
C13 N2 1_555 1_555

#END
