
#######################################################################
#
#                 Cambridge Crystallographic Data Centre
#                                CCDC 
#
#######################################################################
#
# If this CIF has been generated from an entry in the Cambridge 
# Structural Database, then it will include bibliographic, chemical, 
# crystal, experimental, refinement or atomic coordinate data resulting 
# from the CCDC's data processing and validation procedures.
#
#######################################################################

data_VONQUL
_chemical_formula_moiety         'C16 H14 N2 O1'
_chemical_name_systematic        3-(1-Phenylethyl)-4(3H)-quinazolinone
_symmetry_cell_setting           triclinic
_symmetry_space_group_name_H-M   'P -1'
_symmetry_Int_Tables_number      2
_space_group_name_Hall           '-P 1'
loop_
_symmetry_equiv_pos_site_id
_symmetry_equiv_pos_as_xyz
1 x,y,z
2 -x,-y,-z
_cell_length_a                   5.8843(11)
_cell_length_b                   9.3707(18)
_cell_length_c                   11.762(2)
_cell_angle_alpha                92.312(2)
_cell_angle_beta                 97.266(2)
_cell_angle_gamma                94.253(2)
_cell_volume                     640.766
_cell_formula_units_Z            2
loop_
_atom_site_label
_atom_site_type_symbol
_atom_site_fract_x
_atom_site_fract_y
_atom_site_fract_z
N1 N 0.37397(19) 0.61028(13) 0.86273(9)
C1 C 0.5768(2) 0.78054(15) 1.00487(11)
O1 O 0.72262(18) 0.71319(13) 0.83225(9)
C2 C 0.5723(2) 0.70186(16) 0.89496(12)
N2 N 0.2118(2) 0.65544(15) 1.03412(11)
C3 C 0.3945(2) 0.75628(16) 1.06922(12)
C4 C 0.3509(2) 0.53693(16) 0.74625(12)
H1 H 0.4968 0.4961 0.7377
C5 C 0.7585(3) 0.88217(17) 1.04438(13)
H2 H 0.8815 0.8961 1.0025
C6 C 0.2106(3) 0.59043(18) 0.93531(13)
H3 H 0.0872 0.5238 0.9109
C7 C 0.3108(2) 0.64615(15) 0.65450(11)
C8 C 0.7560(3) 0.96136(18) 1.14465(14)
H4 H 0.8766 1.0294 1.1705
C9 C 0.3954(3) 0.83867(19) 1.17184(13)
H5 H 0.2751 0.8243 1.2154
C10 C 0.4636(3) 0.66612(19) 0.57502(13)
H6 H 0.5946 0.6158 0.5801
C11 C 0.1182(3) 0.72281(17) 0.64612(13)
H7 H 0.0144 0.7113 0.6991
C12 C 0.1619(3) 0.41506(18) 0.72859(15)
H8 H 0.1873 0.3489 0.7882
H9 H 0.1637 0.3663 0.6554
H10 H 0.0155 0.4531 0.7310
C13 C 0.5721(3) 0.93990(19) 1.20803(14)
H11 H 0.5697 0.9949 1.2754
C14 C 0.0791(3) 0.81667(19) 0.55925(15)
H12 H -0.0510 0.8679 0.5542
C15 C 0.2312(3) 0.8350(2) 0.48005(15)
H13 H 0.2035 0.8978 0.4215
C16 C 0.4235(3) 0.7601(2) 0.48815(14)
H14 H 0.5273 0.7724 0.4352
loop_
_geom_bond_atom_site_label_1
_geom_bond_atom_site_label_2
_geom_bond_site_symmetry_1
_geom_bond_site_symmetry_2
N1 C2 1_555 1_555
C1 C2 1_555 1_555
O1 C2 1_555 1_555
N2 C3 1_555 1_555
C3 C1 1_555 1_555
C4 N1 1_555 1_555
H1 C4 1_555 1_555
C5 C1 1_555 1_555
H2 C5 1_555 1_555
C6 N1 1_555 1_555
H3 C6 1_555 1_555
C7 C4 1_555 1_555
C8 C5 1_555 1_555
H4 C8 1_555 1_555
C9 C3 1_555 1_555
H5 C9 1_555 1_555
C10 C7 1_555 1_555
H6 C10 1_555 1_555
C11 C7 1_555 1_555
H7 C11 1_555 1_555
C12 C4 1_555 1_555
H8 C12 1_555 1_555
H9 C12 1_555 1_555
H10 C12 1_555 1_555
C13 C8 1_555 1_555
H11 C13 1_555 1_555
C14 C11 1_555 1_555
H12 C14 1_555 1_555
C15 C14 1_555 1_555
H13 C15 1_555 1_555
C16 C10 1_555 1_555
H14 C16 1_555 1_555
N2 C6 1_555 1_555
C9 C13 1_555 1_555
C15 C16 1_555 1_555

#END
