
#######################################################################
#
#                 Cambridge Crystallographic Data Centre
#                                CCDC 
#
#######################################################################
#
# If this CIF has been generated from an entry in the Cambridge 
# Structural Database, then it will include bibliographic, chemical, 
# crystal, experimental, refinement or atomic coordinate data resulting 
# from the CCDC's data processing and validation procedures.
#
#######################################################################

data_VONYOM
_chemical_formula_moiety         'C28 H40 N2 O2'
_chemical_name_systematic        
1,4-Dipiperidinyl-2,3-bis(4-methylphenyl)-2,3-butanediol
_symmetry_cell_setting           monoclinic
_symmetry_space_group_name_H-M   'P 21/n'
_symmetry_Int_Tables_number      14
_space_group_name_Hall           '-P 2yn'
loop_
_symmetry_equiv_pos_site_id
_symmetry_equiv_pos_as_xyz
1 x,y,z
2 1/2-x,1/2+y,1/2-z
3 -x,-y,-z
4 1/2+x,1/2-y,1/2+z
_cell_length_a                   12.869(3)
_cell_length_b                   16.253(5)
_cell_length_c                   12.949(4)
_cell_angle_alpha                90
_cell_angle_beta                 110.90(2)
_cell_angle_gamma                90
_cell_volume                     2530.21
_cell_formula_units_Z            4
loop_
_atom_site_label
_atom_site_type_symbol
_atom_site_fract_x
_atom_site_fract_y
_atom_site_fract_z
O1 O 0.2832(2) 0.2390(1) 0.3963(2)
O2 O 0.2395(2) 0.2503(1) 0.1726(2)
N1 N 0.0670(2) 0.2658(2) 0.2586(2)
N2 N 0.4547(2) 0.2143(2) 0.2965(2)
C1 C 0.2806(3) 0.1080(2) 0.0777(3)
C2 C 0.2863(3) 0.0448(2) 0.0082(3)
C3 C 0.2210(3) -0.0238(2) -0.0045(3)
C4 C 0.1506(3) -0.0283(2) 0.0535(3)
C5 C 0.1466(3) 0.0342(2) 0.1250(3)
C6 C 0.2114(3) 0.1047(2) 0.1386(3)
C7 C 0.2065(3) 0.1764(2) 0.2132(3)
C8 C 0.2864(3) 0.1645(2) 0.3384(3)
C9 C 0.2522(3) 0.0921(2) 0.3954(3)
C10 C 0.2730(3) 0.0104(2) 0.3777(3)
C11 C 0.2403(3) -0.0532(2) 0.4301(3)
C12 C 0.1858(3) -0.0385(2) 0.5032(3)
C13 C 0.1666(3) 0.0425(2) 0.5218(3)
C14 C 0.1990(3) 0.1071(2) 0.4711(3)
C15 C 0.2248(3) -0.0925(3) -0.0838(3)
C16 C 0.1463(4) -0.1090(3) 0.5567(5)
C17 C 0.5438(4) 0.1790(3) 0.2633(4)
C18 C 0.5878(3) 0.2426(3) 0.2035(3)
C19 C 0.6289(3) 0.3186(3) 0.2732(3)
C20 C 0.5403(3) 0.3505(2) 0.3142(3)
C21 C 0.5009(3) 0.2844(2) 0.3730(3)
C22 C 0.0319(3) 0.3345(2) 0.1794(3)
C23 C 0.0212(3) 0.4138(2) 0.2364(3)
C24 C -0.0600(3) 0.4032(2) 0.2971(3)
C25 C -0.0306(3) 0.3283(2) 0.3699(3)
C26 C -0.0185(3) 0.2523(2) 0.3080(3)
C27 C 0.4082(3) 0.1507(2) 0.3486(3)
C28 C 0.0849(3) 0.1901(2) 0.2046(3)
loop_
_geom_bond_atom_site_label_1
_geom_bond_atom_site_label_2
_geom_bond_site_symmetry_1
_geom_bond_site_symmetry_2
O1 C8 1_555 1_555
O2 C7 1_555 1_555
N1 C22 1_555 1_555
N2 C17 1_555 1_555
C1 C2 1_555 1_555
C2 C3 1_555 1_555
C3 C4 1_555 1_555
C4 C5 1_555 1_555
C5 C6 1_555 1_555
C6 C1 1_555 1_555
C7 C6 1_555 1_555
C8 C7 1_555 1_555
C9 C8 1_555 1_555
C10 C9 1_555 1_555
C11 C10 1_555 1_555
C12 C11 1_555 1_555
C13 C12 1_555 1_555
C14 C9 1_555 1_555
C15 C3 1_555 1_555
C16 C12 1_555 1_555
C17 C18 1_555 1_555
C18 C19 1_555 1_555
C19 C20 1_555 1_555
C20 C21 1_555 1_555
C21 N2 1_555 1_555
C22 C23 1_555 1_555
C23 C24 1_555 1_555
C24 C25 1_555 1_555
C25 C26 1_555 1_555
C26 N1 1_555 1_555
C27 N2 1_555 1_555
C28 N1 1_555 1_555
C7 C28 1_555 1_555
C8 C27 1_555 1_555
C13 C14 1_555 1_555

#END
