
#######################################################################
#
#                 Cambridge Crystallographic Data Centre
#                                CCDC 
#
#######################################################################
#
# If this CIF has been generated from an entry in the Cambridge 
# Structural Database, then it will include bibliographic, chemical, 
# crystal, experimental, refinement or atomic coordinate data resulting 
# from the CCDC's data processing and validation procedures.
#
#######################################################################

data_VONZED
_chemical_formula_moiety         'C21 H28 O1'
_chemical_name_systematic        
15-Phenylbicyclo(10.3.0)pentadec-1(12)en-13-one
_symmetry_cell_setting           monoclinic
_symmetry_space_group_name_H-M   'C 2/c'
_symmetry_Int_Tables_number      15
_space_group_name_Hall           '-C 2yn'
loop_
_symmetry_equiv_pos_site_id
_symmetry_equiv_pos_as_xyz
1 x,y,z
2 1/2+x,1/2+y,z
3 -x,y,1/2-z
4 1/2-x,1/2+y,1/2-z
5 -x,-y,-z
6 1/2-x,1/2-y,-z
7 x,-y,1/2+z
8 1/2+x,1/2-y,1/2+z
_cell_length_a                   19.260(3)
_cell_length_b                   11.217(1)
_cell_length_c                   15.997(4)
_cell_angle_alpha                90
_cell_angle_beta                 92.08(2)
_cell_angle_gamma                90
_cell_volume                     3453.71
_exptl_crystal_colour            colorless
_cell_formula_units_Z            8
loop_
_atom_site_label
_atom_site_type_symbol
_atom_site_fract_x
_atom_site_fract_y
_atom_site_fract_z
O1 O 0.0794(2) 0.0775(3) 0.6506(2)
C1 C 0.0360(2) 0.2203(3) 0.5501(2)
C2 C 0.0383(2) 0.2280(3) 0.4663(2)
C3 C 0.0742(2) 0.1218(3) 0.4274(2)
C4 C 0.0940(2) 0.0426(3) 0.5033(3)
C5 C 0.0706(2) 0.1094(4) 0.5785(3)
C6 C 0.0060(2) 0.3042(4) 0.6123(2)
C7 C -0.0652(2) 0.2637(4) 0.6448(3)
C8 C -0.1253(2) 0.2793(4) 0.5816(3)
C9 C -0.1491(2) 0.4082(4) 0.5714(3)
C10 C -0.2085(2) 0.4271(4) 0.5060(3)
C11 C -0.1932(2) 0.3903(4) 0.4173(3)
C12 C -0.1336(2) 0.4596(3) 0.3794(3)
C13 C -0.0927(2) 0.3893(4) 0.3162(2)
C14 C -0.0512(2) 0.2847(3) 0.3540(2)
C15 C 0.0089(2) 0.3252(3) 0.4128(2)
C16 C 0.1362(2) 0.1562(3) 0.3753(2)
C17 C 0.1832(2) 0.2419(4) 0.4043(2)
C18 C 0.2412(2) 0.2697(4) 0.3589(3)
C19 C 0.2515(2) 0.2106(4) 0.2848(3)
C20 C 0.2049(2) 0.1259(4) 0.2559(3)
C21 C 0.1476(2) 0.0992(4) 0.3007(3)
loop_
_geom_bond_atom_site_label_1
_geom_bond_atom_site_label_2
_geom_bond_site_symmetry_1
_geom_bond_site_symmetry_2
O1 C5 1_555 1_555
C1 C2 1_555 1_555
C2 C3 1_555 1_555
C3 C4 1_555 1_555
C4 C5 1_555 1_555
C5 C1 1_555 1_555
C6 C1 1_555 1_555
C7 C6 1_555 1_555
C8 C7 1_555 1_555
C9 C8 1_555 1_555
C10 C9 1_555 1_555
C11 C10 1_555 1_555
C12 C11 1_555 1_555
C13 C12 1_555 1_555
C14 C13 1_555 1_555
C15 C2 1_555 1_555
C16 C3 1_555 1_555
C17 C16 1_555 1_555
C18 C17 1_555 1_555
C19 C18 1_555 1_555
C20 C19 1_555 1_555
C21 C16 1_555 1_555
C14 C15 1_555 1_555
C20 C21 1_555 1_555

#END
