
#######################################################################
#
#                 Cambridge Crystallographic Data Centre
#                                CCDC 
#
#######################################################################
#
# If this CIF has been generated from an entry in the Cambridge 
# Structural Database, then it will include bibliographic, chemical, 
# crystal, experimental, refinement or atomic coordinate data resulting 
# from the CCDC's data processing and validation procedures.
#
#######################################################################

data_VOPDIN
_chemical_name_common            
'(Z)-N-Phthaloyl-alpha,beta-methanophenylalanine methyl ester,'
_chemical_formula_moiety         'C19 H15 N1 O4'
_chemical_name_systematic        
(Z)-1-Methoxycarbonyl-2-phenyl-1-phthalimidocyclopropane
_symmetry_cell_setting           monoclinic
_symmetry_space_group_name_H-M   'P 21/n'
_symmetry_Int_Tables_number      14
_space_group_name_Hall           '-P 2yn'
loop_
_symmetry_equiv_pos_site_id
_symmetry_equiv_pos_as_xyz
1 x,y,z
2 1/2-x,1/2+y,1/2-z
3 -x,-y,-z
4 1/2+x,1/2-y,1/2+z
_cell_length_a                   10.122(2)
_cell_length_b                   11.799(2)
_cell_length_c                   14.569(2)
_cell_angle_alpha                90
_cell_angle_beta                 109.69(2)
_cell_angle_gamma                90
_cell_volume                     1638.23
_exptl_crystal_colour            colorless
_cell_formula_units_Z            4
loop_
_atom_site_label
_atom_site_type_symbol
_atom_site_fract_x
_atom_site_fract_y
_atom_site_fract_z
O1 O 0.14561(55) 0.62259(46) 0.99679(41)
O2 O 0.08725(56) 0.91237(48) 0.78072(40)
O3 O 0.18349(65) 0.93459(48) 1.01901(39)
O4 O 0.41824(70) 0.93214(53) 1.07540(47)
N1 N 0.15696(63) 0.76872(48) 0.89461(45)
C1 C 0.29584(76) 0.80606(66) 0.94913(59)
C2 C 0.40561(86) 0.80880(78) 0.89725(66)
H1 H 0.4623(83) 0.8716(69) 0.9234(57)
C3 C 0.41201(87) 0.71990(85) 0.97001(73)
H2 H 0.3796(83) 0.6360(70) 0.9436(57)
H3 H 0.4816(90) 0.7320(66) 1.0311(66)
C4 C 0.09099(78) 0.68136(64) 0.92710(59)
C5 C -0.05758(78) 0.67824(63) 0.86040(52)
C6 C -0.16860(98) 0.60979(78) 0.86004(64)
H4 H -0.1472(80) 0.5519(67) 0.9090(58)
C7 C -0.2984(10) 0.63290(89) 0.78973(85)
H5 H -0.3639(86) 0.5886(71) 0.7944(64)
C8 C -0.31292(96) 0.71820(91) 0.72297(77)
H6 H -0.4041(89) 0.7261(68) 0.6877(63)
C9 C -0.20428(96) 0.78601(72) 0.72240(67)
H7 H -0.2056(85) 0.8426(66) 0.6708(57)
C10 C -0.07549(78) 0.76462(60) 0.79205(59)
C11 C 0.06085(84) 0.82800(69) 0.81637(60)
C12 C 0.38040(56) 0.88242(36) 0.73347(43)
C13 C 0.34088(56) 0.87040(36) 0.63254(43)
C14 C 0.28879(56) 0.76698(36) 0.58884(43)
C15 C 0.27621(56) 0.67558(36) 0.64608(43)
C16 C 0.31573(56) 0.68761(36) 0.74701(43)
C17 C 0.36783(56) 0.79102(36) 0.79070(43)
H8 H 0.4366(67) 0.9620(58) 0.7829(52)
H9 H 0.3296(69) 0.9421(61) 0.5990(51)
H10 H 0.2592(73) 0.7583(59) 0.5252(58)
H11 H 0.2341(69) 0.5915(62) 0.6108(51)
H12 H 0.3126(69) 0.6146(65) 0.7944(49)
C18 C 0.3102(11) 0.89649(70) 1.02185(64)
C19 C 0.1869(16) 1.0294(12) 1.0842(11)
H13 H 0.115(10) 1.0374(98) 1.0857(89)
H14 H 0.2036(80) 1.1048(74) 1.0490(55)
H15 H 0.2372(89) 1.0005(78) 1.1393(65)
loop_
_geom_bond_atom_site_label_1
_geom_bond_atom_site_label_2
_geom_bond_site_symmetry_1
_geom_bond_site_symmetry_2
O1 C4 1_555 1_555
O2 C11 1_555 1_555
O3 C18 1_555 1_555
O4 C18 1_555 1_555
N1 C1 1_555 1_555
C1 C2 1_555 1_555
C2 H1 1_555 1_555
C3 C1 1_555 1_555
H2 C3 1_555 1_555
H3 C3 1_555 1_555
C4 N1 1_555 1_555
C5 C4 1_555 1_555
C6 C5 1_555 1_555
H4 C6 1_555 1_555
C7 C6 1_555 1_555
H5 C7 1_555 1_555
C8 C7 1_555 1_555
H6 C8 1_555 1_555
C9 C8 1_555 1_555
H7 C9 1_555 1_555
C10 C5 1_555 1_555
C11 N1 1_555 1_555
C12 C13 1_555 1_555
C13 C14 1_555 1_555
C14 C15 1_555 1_555
C15 C16 1_555 1_555
C16 C17 1_555 1_555
C17 C2 1_555 1_555
H8 C12 1_555 1_555
H9 C13 1_555 1_555
H10 C14 1_555 1_555
H11 C15 1_555 1_555
H12 C16 1_555 1_555
C18 C1 1_555 1_555
C19 O3 1_555 1_555
H13 C19 1_555 1_555
H14 C19 1_555 1_555
H15 C19 1_555 1_555
C2 C3 1_555 1_555
C9 C10 1_555 1_555
C10 C11 1_555 1_555
C12 C17 1_555 1_555

#END
