
#######################################################################
#
#                 Cambridge Crystallographic Data Centre
#                                CCDC 
#
#######################################################################
#
# If this CIF has been generated from an entry in the Cambridge 
# Structural Database, then it will include bibliographic, chemical, 
# crystal, experimental, refinement or atomic coordinate data resulting 
# from the CCDC's data processing and validation procedures.
#
#######################################################################

data_VOPQEW
_chemical_formula_moiety         'C18 H20 O2'
_chemical_name_systematic        4,5-Dimethoxy(2.2)metacyclophane
_symmetry_cell_setting           orthorhombic
_symmetry_space_group_name_H-M   'P c a 21'
_symmetry_Int_Tables_number      29
_space_group_name_Hall           'P 2c -2ac'
loop_
_symmetry_equiv_pos_site_id
_symmetry_equiv_pos_as_xyz
1 x,y,z
2 -x,-y,1/2+z
3 1/2+x,-y,z
4 1/2-x,y,1/2+z
_cell_length_a                   6.9950(10)
_cell_length_b                   17.746(2)
_cell_length_c                   11.626(2)
_cell_angle_alpha                90
_cell_angle_beta                 90
_cell_angle_gamma                90
_cell_volume                     1443.17
_exptl_crystal_colour            colorless
_exptl_crystal_description       blocks
_cell_formula_units_Z            4
loop_
_atom_site_label
_atom_site_type_symbol
_atom_site_fract_x
_atom_site_fract_y
_atom_site_fract_z
C1 C 0.6910(4) 0.73457(19) 0.0419(3)
H1 H 0.6201 0.7535 0.1075
H2 H 0.6013 0.7263 -0.0205
C2 C 0.8429(5) 0.7942(2) 0.0044(3)
H3 H 0.9085 0.7765 -0.0640
H4 H 0.7793 0.8411 -0.0144
C3 C 0.9863(4) 0.80763(18) 0.0988(3)
C4 C 0.9573(5) 0.86375(18) 0.1808(3)
C5 C 1.0644(5) 0.86355(16) 0.2834(3)
C6 C 1.1874(5) 0.80382(18) 0.3056(4)
H5 H 1.2491 0.8011 0.3763
C7 C 1.2198(4) 0.74814(18) 0.2242(3)
C8 C 1.1288(4) 0.75433(19) 0.1185(3)
H6 H 1.1639 0.7220 0.0592
C9 C 1.3109(4) 0.6741(2) 0.2566(3)
H7 H 1.4026 0.6822 0.3178
H8 H 1.3790 0.6539 0.1907
C10 C 1.1576(5) 0.6159(2) 0.2971(3)
H9 H 1.2196 0.5691 0.3183
H10 H 1.0915 0.6353 0.3642
C11 C 1.0160(4) 0.60163(18) 0.2020(3)
C12 C 1.0508(5) 0.54775(19) 0.1197(3)
H11 H 1.1405 0.5102 0.1339
C13 C 0.9540(5) 0.5487(2) 0.0163(4)
H12 H 0.9740 0.5104 -0.0370
C14 C 0.8273(5) 0.6064(2) -0.0085(4)
H13 H 0.7697 0.6086 -0.0806
C15 C 0.7855(4) 0.66101(18) 0.0732(3)
C16 C 0.8714(4) 0.65402(17) 0.1811(3)
H14 H 0.8311 0.6852 0.2406
O1 O 0.8274(4) 0.92018(13) 0.1588(2)
C17 C 0.6569(6) 0.9185(3) 0.2289(5)
H15 H 0.5700 0.9569 0.2033
H16 H 0.6905 0.9275 0.3077
H17 H 0.5969 0.8701 0.2222
O2 O 1.0306(4) 0.92171(13) 0.3569(2)
C18 C 1.1511(7) 0.9282(2) 0.4556(4)
H18 H 1.1178 0.9729 0.4977
H19 H 1.2821 0.9313 0.4314
H20 H 1.1344 0.8849 0.5039
loop_
_geom_bond_atom_site_label_1
_geom_bond_atom_site_label_2
_geom_bond_site_symmetry_1
_geom_bond_site_symmetry_2
C1 H1 1_555 1_555
H2 C1 1_555 1_555
C2 C1 1_555 1_555
H3 C2 1_555 1_555
H4 C2 1_555 1_555
C3 C2 1_555 1_555
C4 C3 1_555 1_555
C5 C4 1_555 1_555
C6 C5 1_555 1_555
H5 C6 1_555 1_555
C7 C6 1_555 1_555
C8 C3 1_555 1_555
H6 C8 1_555 1_555
C9 C7 1_555 1_555
H7 C9 1_555 1_555
H8 C9 1_555 1_555
C10 C9 1_555 1_555
H9 C10 1_555 1_555
H10 C10 1_555 1_555
C11 C10 1_555 1_555
C12 C11 1_555 1_555
H11 C12 1_555 1_555
C13 C12 1_555 1_555
H12 C13 1_555 1_555
C14 C13 1_555 1_555
H13 C14 1_555 1_555
C15 C1 1_555 1_555
C16 C11 1_555 1_555
H14 C16 1_555 1_555
O1 C4 1_555 1_555
C17 O1 1_555 1_555
H15 C17 1_555 1_555
H16 C17 1_555 1_555
H17 C17 1_555 1_555
O2 C5 1_555 1_555
C18 O2 1_555 1_555
H18 C18 1_555 1_555
H19 C18 1_555 1_555
H20 C18 1_555 1_555
C7 C8 1_555 1_555
C14 C15 1_555 1_555
C15 C16 1_555 1_555

#END
