
#######################################################################
#
#                 Cambridge Crystallographic Data Centre
#                                CCDC 
#
#######################################################################
#
# If this CIF has been generated from an entry in the Cambridge 
# Structural Database, then it will include bibliographic, chemical, 
# crystal, experimental, refinement or atomic coordinate data resulting 
# from the CCDC's data processing and validation procedures.
#
#######################################################################

data_VOPQEW01
_chemical_formula_moiety         'C18 H20 O2'
_chemical_name_systematic        4,5-Dimethoxy(2.2)metacyclophane
_symmetry_cell_setting           orthorhombic
_symmetry_space_group_name_H-M   'P c a 21'
_symmetry_Int_Tables_number      29
_space_group_name_Hall           'P 2c -2ac'
loop_
_symmetry_equiv_pos_site_id
_symmetry_equiv_pos_as_xyz
1 x,y,z
2 -x,-y,1/2+z
3 1/2+x,-y,z
4 1/2-x,y,1/2+z
_cell_length_a                   6.984(1)
_cell_length_b                   17.733(4)
_cell_length_c                   11.602(3)
_cell_angle_alpha                90
_cell_angle_beta                 90
_cell_angle_gamma                90
_cell_volume                     1436.88
_exptl_crystal_colour            colorless
_exptl_crystal_description       blocks
_cell_formula_units_Z            4
loop_
_atom_site_label
_atom_site_type_symbol
_atom_site_fract_x
_atom_site_fract_y
_atom_site_fract_z
C1 C 0.3089(3) 0.26543(14) 0.9578(3)
H1 H 0.3987 0.2737 1.0203
H2 H 0.3799 0.2465 0.8921
C2 C 0.1574(4) 0.20580(15) 0.9955(3)
H3 H 0.2214 0.1588 1.0141
H4 H 0.0920 0.2233 1.0642
C3 C 0.0137(3) 0.19232(14) 0.9018(2)
C4 C 0.0425(4) 0.13641(13) 0.8187(2)
C5 C -0.0642(4) 0.13644(13) 0.7170(2)
C6 C -0.1876(3) 0.19604(14) 0.6940(3)
H5 H -0.2493 0.1987 0.6231
C7 C -0.2198(3) 0.25191(13) 0.7763(3)
C8 C -0.1290(3) 0.24548(14) 0.8816(3)
H6 H -0.1645 0.2778 0.9411
C9 C -0.3117(3) 0.32600(16) 0.7435(3)
H7 H -0.3805 0.3462 0.8092
H8 H -0.4031 0.3177 0.6818
C10 C -0.1577(4) 0.38395(14) 0.7033(3)
H9 H -0.0917 0.3645 0.6360
H10 H -0.2196 0.4309 0.6819
C11 C -0.0161(3) 0.39837(14) 0.7975(2)
C12 C -0.0507(4) 0.45252(14) 0.8810(3)
H11 H -0.1403 0.4902 0.8671
C13 C 0.0456(4) 0.45123(15) 0.9839(3)
H12 H 0.0254 0.4894 1.0375
C14 C 0.1728(4) 0.39347(15) 1.0085(3)
H13 H 0.2307 0.3912 1.0806
C15 C 0.2145(3) 0.33907(13) 0.9262(3)
C16 C 0.1283(3) 0.34570(13) 0.8188(3)
H14 H 0.1680 0.3142 0.7594
O1 O 0.1729(3) 0.07975(10) 0.8409(2)
C17 C 0.3422(5) 0.08114(19) 0.7718(4)
H15 H 0.4263 0.0412 0.7954
H16 H 0.4057 0.1288 0.7812
H17 H 0.3082 0.0744 0.6922
O2 O -0.0302(3) 0.07800(10) 0.6428(2)
C18 C -0.1511(5) 0.07186(17) 0.5455(3)
H18 H -0.1202 0.0267 0.5038
H19 H -0.1330 0.1149 0.4965
H20 H -0.2821 0.0698 0.5703
loop_
_geom_bond_atom_site_label_1
_geom_bond_atom_site_label_2
_geom_bond_site_symmetry_1
_geom_bond_site_symmetry_2
C1 H1 1_555 1_555
H2 C1 1_555 1_555
C2 C1 1_555 1_555
H3 C2 1_555 1_555
H4 C2 1_555 1_555
C3 C2 1_555 1_555
C4 C3 1_555 1_555
C5 C4 1_555 1_555
C6 C5 1_555 1_555
H5 C6 1_555 1_555
C7 C6 1_555 1_555
C8 C3 1_555 1_555
H6 C8 1_555 1_555
C9 C7 1_555 1_555
H7 C9 1_555 1_555
H8 C9 1_555 1_555
C10 C9 1_555 1_555
H9 C10 1_555 1_555
H10 C10 1_555 1_555
C11 C10 1_555 1_555
C12 C11 1_555 1_555
H11 C12 1_555 1_555
C13 C12 1_555 1_555
H12 C13 1_555 1_555
C14 C13 1_555 1_555
H13 C14 1_555 1_555
C15 C1 1_555 1_555
C16 C11 1_555 1_555
H14 C16 1_555 1_555
O1 C4 1_555 1_555
C17 O1 1_555 1_555
H15 C17 1_555 1_555
H16 C17 1_555 1_555
H17 C17 1_555 1_555
O2 C5 1_555 1_555
C18 O2 1_555 1_555
H18 C18 1_555 1_555
H19 C18 1_555 1_555
H20 C18 1_555 1_555
C7 C8 1_555 1_555
C14 C15 1_555 1_555
C15 C16 1_555 1_555

#END
