
#######################################################################
#
#                 Cambridge Crystallographic Data Centre
#                                CCDC 
#
#######################################################################
#
# If this CIF has been generated from an entry in the Cambridge 
# Structural Database, then it will include bibliographic, chemical, 
# crystal, experimental, refinement or atomic coordinate data resulting 
# from the CCDC's data processing and validation procedures.
#
#######################################################################

data_VOPQAS
_chemical_formula_moiety         'C20 H14 Br4'
_chemical_name_systematic        
2,2''-bis(Dibromomethyl)-1,1':3',1''-terphenyl
_symmetry_cell_setting           monoclinic
_symmetry_space_group_name_H-M   'P 21/n'
_symmetry_Int_Tables_number      14
_space_group_name_Hall           '-P 2yn'
loop_
_symmetry_equiv_pos_site_id
_symmetry_equiv_pos_as_xyz
1 x,y,z
2 1/2+x,1/2-y,1/2+z
3 -x,-y,-z
4 1/2-x,1/2+y,1/2-z
_cell_length_a                   8.5300(10)
_cell_length_b                   25.739(6)
_cell_length_c                   9.476(2)
_cell_angle_alpha                90
_cell_angle_beta                 110.850(10)
_cell_angle_gamma                90
_cell_volume                     1944.25
_exptl_crystal_colour            colorless
_exptl_crystal_description       plates
_cell_formula_units_Z            4
loop_
_atom_site_label
_atom_site_type_symbol
_atom_site_fract_x
_atom_site_fract_y
_atom_site_fract_z
Br1 Br 0.61463(10) 0.16869(4) 0.21095(9)
Br2 Br 0.42869(12) 0.27617(3) 0.10465(10)
Br3 Br 1.01190(10) 0.07889(4) 0.61941(10)
Br4 Br 0.67542(12) 0.02718(4) 0.39695(9)
C1 C 0.3340(7) 0.1682(2) 0.4582(6)
C2 C 0.4240(7) 0.1250(2) 0.5281(7)
H1 H 0.4162 0.0946 0.4726
C3 C 0.5284(7) 0.1259(2) 0.6832(6)
C4 C 0.5351(8) 0.1717(3) 0.7642(7)
H2 H 0.6018 0.1734 0.8659
C5 C 0.4431(8) 0.2143(3) 0.6933(7)
H3 H 0.4469 0.2445 0.7484
C6 C 0.3448(8) 0.2130(3) 0.5411(7)
H4 H 0.2859 0.2425 0.4946
C7 C 0.2271(7) 0.1651(2) 0.2942(6)
C8 C 0.0773(8) 0.1382(3) 0.2547(7)
H5 H 0.0429 0.1241 0.3293
C9 C -0.0213(8) 0.1322(3) 0.1039(8)
H6 H -0.1212 0.1137 0.0779
C10 C 0.0255(11) 0.1529(3) -0.0058(8)
H7 H -0.0422 0.1486 -0.1066
C11 C 0.1708(9) 0.1799(3) 0.0303(7)
H8 H 0.2021 0.1941 -0.0460
C12 C 0.2746(8) 0.1866(3) 0.1816(6)
C13 C 0.4362(8) 0.2147(3) 0.2241(7)
H9 H 0.4671 0.2256 0.3296
C14 C 0.6230(7) 0.0786(2) 0.7570(6)
C15 C 0.5977(8) 0.0603(3) 0.8872(7)
H10 H 0.5265 0.0784 0.9245
C16 C 0.6763(9) 0.0162(3) 0.9600(8)
H11 H 0.6589 0.0047 1.0463
C17 C 0.7815(9) -0.0109(3) 0.9043(9)
H12 H 0.8328 -0.0412 0.9519
C18 C 0.8111(8) 0.0069(3) 0.7773(8)
H13 H 0.8835 -0.0112 0.7414
C19 C 0.7331(8) 0.0514(3) 0.7048(7)
C20 C 0.7707(8) 0.0714(3) 0.5713(7)
H14 H 0.7196 0.1058 0.5458
loop_
_geom_bond_atom_site_label_1
_geom_bond_atom_site_label_2
_geom_bond_site_symmetry_1
_geom_bond_site_symmetry_2
Br1 C13 1_555 1_555
Br2 C13 1_555 1_555
Br3 C20 1_555 1_555
Br4 C20 1_555 1_555
C1 C2 1_555 1_555
C2 H1 1_555 1_555
C3 C2 1_555 1_555
C4 C3 1_555 1_555
H2 C4 1_555 1_555
C5 C4 1_555 1_555
H3 C5 1_555 1_555
C6 C1 1_555 1_555
H4 C6 1_555 1_555
C7 C1 1_555 1_555
C8 C7 1_555 1_555
H5 C8 1_555 1_555
C9 C8 1_555 1_555
H6 C9 1_555 1_555
C10 C9 1_555 1_555
H7 C10 1_555 1_555
C11 C10 1_555 1_555
H8 C11 1_555 1_555
C12 C7 1_555 1_555
C13 C12 1_555 1_555
H9 C13 1_555 1_555
C14 C3 1_555 1_555
C15 C14 1_555 1_555
H10 C15 1_555 1_555
C16 C15 1_555 1_555
H11 C16 1_555 1_555
C17 C16 1_555 1_555
H12 C17 1_555 1_555
C18 C17 1_555 1_555
H13 C18 1_555 1_555
C19 C14 1_555 1_555
C20 C19 1_555 1_555
H14 C20 1_555 1_555
C5 C6 1_555 1_555
C11 C12 1_555 1_555
C18 C19 1_555 1_555

#END
