
#######################################################################
#
#                 Cambridge Crystallographic Data Centre
#                                CCDC 
#
#######################################################################
#
# If this CIF has been generated from an entry in the Cambridge 
# Structural Database, then it will include bibliographic, chemical, 
# crystal, experimental, refinement or atomic coordinate data resulting 
# from the CCDC's data processing and validation procedures.
#
#######################################################################

data_VOPSEA
_chemical_formula_moiety         'C4 H8 N10 2+,2(N1 O3 1-)'
_chemical_name_systematic        
"4,4'-diazene-1,2-diylbis(5-amino-4H-1,2,4-triazol-1-ium) dinitrate"
_symmetry_cell_setting           monoclinic
_symmetry_space_group_name_H-M   'P 21/n'
_symmetry_Int_Tables_number      14
_space_group_name_Hall           '-P 2yn'
loop_
_symmetry_equiv_pos_site_id
_symmetry_equiv_pos_as_xyz
1 x,y,z
2 1/2-x,1/2+y,1/2-z
3 -x,-y,-z
4 1/2+x,1/2-y,1/2+z
_cell_length_a                   7.2555(15)
_cell_length_b                   8.8270(18)
_cell_length_c                   9.796(2)
_cell_angle_alpha                90
_cell_angle_beta                 105.70(3)
_cell_angle_gamma                90
_cell_volume                     603.972
_cell_formula_units_Z            2
loop_
_atom_site_label
_atom_site_type_symbol
_atom_site_fract_x
_atom_site_fract_y
_atom_site_fract_z
N1 N 0.1710(2) 0.89661(15) 0.57327(17)
N2 N 0.3477(2) 0.82798(15) 0.62882(16)
H1 H 0.4522(18) 0.8855(19) 0.6557(18)
N3 N 0.47069(18) 0.57570(16) 0.65764(16)
H2 H 0.442(2) 0.4805(12) 0.6420(18)
H3 H 0.5883(16) 0.6044(18) 0.697(2)
N4 N 0.14770(16) 0.64881(13) 0.55867(14)
N5 N 0.08644(16) 0.50220(13) 0.53125(13)
C1 C 0.0523(2) 0.78763(18) 0.53093(19)
H4 H -0.0780 0.7993 0.4881
C2 C 0.3374(2) 0.67805(17) 0.61987(16)
N1B N -0.1710(2) 0.10339(15) 0.42673(17)
N2B N -0.3477(2) 0.17202(15) 0.37118(16)
H1B H -0.4522(18) 0.1145(19) 0.3443(18)
N3B N -0.47069(18) 0.42430(16) 0.34236(16)
H2B H -0.442(2) 0.5195(12) 0.3580(18)
H3B H -0.5883(16) 0.3956(18) 0.303(2)
N4B N -0.14770(16) 0.35119(13) 0.44133(14)
N5B N -0.08644(16) 0.49780(13) 0.46875(13)
C1B C -0.0523(2) 0.21237(18) 0.46907(19)
H4B H 0.0780 0.2007 0.5119
C2B C -0.3374(2) 0.32195(17) 0.38013(16)
O1 O 0.79339(16) 0.78881(14) 0.80368(15)
O2 O 0.89250(18) 0.56589(13) 0.77762(16)
O3 O 1.09550(17) 0.74194(17) 0.87129(17)
N6 N 0.92839(17) 0.69847(14) 0.81861(14)
loop_
_geom_bond_atom_site_label_1
_geom_bond_atom_site_label_2
_geom_bond_site_symmetry_1
_geom_bond_site_symmetry_2
N1 N2 1_555 1_555
N2 H1 1_555 1_555
N3 H2 1_555 1_555
H3 N3 1_555 1_555
N4 N5 1_555 1_555
N5 N5B 1_555 1_555
C1 N1 1_555 1_555
H4 C1 1_555 1_555
C2 N2 1_555 1_555
O1 N6 1_555 1_555
O2 N6 1_555 1_555
O3 N6 1_555 1_555
N1B N2B 1_555 1_555
N2B H1B 1_555 1_555
N3B H2B 1_555 1_555
H3B N3B 1_555 1_555
N4B N5B 1_555 1_555
C1B N1B 1_555 1_555
H4B C1B 1_555 1_555
C2B N2B 1_555 1_555
N3 C2 1_555 1_555
N4 C1 1_555 1_555
N4 C2 1_555 1_555
N3B C2B 1_555 1_555
N4B C1B 1_555 1_555
N4B C2B 1_555 1_555

#END
