
#######################################################################
#
#                 Cambridge Crystallographic Data Centre
#                                CCDC 
#
#######################################################################
#
# If this CIF has been generated from an entry in the Cambridge 
# Structural Database, then it will include bibliographic, chemical, 
# crystal, experimental, refinement or atomic coordinate data resulting 
# from the CCDC's data processing and validation procedures.
#
#######################################################################

data_VOPSID
_chemical_compound_source        
'stems and roots of Zanthoxylum nitidum Var. fastuosum'
_chemical_name_common            'Liriodenine chloroform solvate'
_chemical_formula_moiety         'C17 H9 N1 O3,2(C1 H1 Cl3)'
_chemical_name_systematic        
'8H-[1,3]Benzodioxolo[6,5,4-de]benzo[g]quinolin-8-one chloroform solvate'
_chemical_properties_biological  
'in vitro cytotoxicity against 11 human cancer cell lines'
_symmetry_cell_setting           monoclinic
_symmetry_space_group_name_H-M   'C 2/c'
_symmetry_Int_Tables_number      15
_space_group_name_Hall           '-C 2yn'
loop_
_symmetry_equiv_pos_site_id
_symmetry_equiv_pos_as_xyz
1 x,y,z
2 -x,y,1/2-z
3 1/2+x,1/2+y,z
4 1/2-x,1/2+y,1/2-z
5 -x,-y,-z
6 x,-y,1/2+z
7 1/2-x,1/2-y,-z
8 1/2+x,1/2-y,1/2+z
_cell_length_a                   26.529(5)
_cell_length_b                   12.4079(18)
_cell_length_c                   13.862(2)
_cell_angle_alpha                90
_cell_angle_beta                 114.135(4)
_cell_angle_gamma                90
_cell_volume                     4164.07
_exptl_crystal_colour            yellow
_exptl_crystal_description       block
_chemical_melting_point          '278-281 deg.C'
_cell_formula_units_Z            8
_exptl_crystal_recrystallization_method chloroform
loop_
_atom_site_label
_atom_site_type_symbol
_atom_site_fract_x
_atom_site_fract_y
_atom_site_fract_z
Cl1 Cl 0.27076(9) 0.80592(15) 0.21479(15)
Cl2 Cl 0.21856(6) 0.75490(15) 0.35597(13)
Cl3 Cl 0.25879(7) 0.58484(13) 0.26622(14)
C18 C 0.2694(2) 0.7174(4) 0.3124(4)
H10 H 0.3061 0.7211 0.3740
Cl4 Cl 0.4556(3) 1.0427(5) 0.6597(6)
Cl5 Cl 0.3741(5) 1.0109(9) 0.4491(7)
Cl6 Cl 0.3429(4) 1.0021(7) 0.6184(8)
C19 C 0.3945(2) 0.9690(5) 0.5798(5)
H11 H 0.404(2) 0.898(4) 0.586(4)
O1 O 0.36966(14) 0.7177(3) 0.5550(3)
O2 O 0.60965(14) 0.3350(3) 0.6626(3)
O3 O 0.52009(14) 0.2882(3) 0.6302(3)
N1 N 0.47654(17) 0.7716(3) 0.6121(3)
C1 C 0.40330(18) 0.6443(4) 0.5772(3)
C2 C 0.46325(18) 0.6680(4) 0.6069(3)
C3 C 0.50102(18) 0.5820(4) 0.6244(3)
C4 C 0.48320(17) 0.4720(4) 0.6171(3)
C5 C 0.42549(18) 0.4464(4) 0.5924(3)
C6 C 0.38706(18) 0.5307(4) 0.5735(3)
C7 C 0.5294(2) 0.7958(4) 0.6365(4)
H1 H 0.5396 0.8697 0.6423
C8 C 0.5698(2) 0.7198(4) 0.6536(4)
H2 H 0.6066 0.7419 0.6695
C9 C 0.55705(18) 0.6106(4) 0.6477(3)
C10 C 0.59724(18) 0.5289(4) 0.6632(3)
H3 H 0.6347 0.5456 0.6789
C11 C 0.57910(19) 0.4263(4) 0.6546(3)
C12 C 0.52470(19) 0.3974(4) 0.6343(3)
C13 C 0.5742(2) 0.2464(4) 0.6550(4)
H4 H 0.5876 0.2067 0.7228
H5 H 0.5734 0.1962 0.5989
C14 C 0.3315(2) 0.5071(4) 0.5502(4)
H6 H 0.3059 0.5644 0.5382
C15 C 0.3138(2) 0.4023(5) 0.5444(4)
H7 H 0.2761 0.3869 0.5283
C16 C 0.3515(2) 0.3193(5) 0.5624(4)
H8 H 0.3395 0.2467 0.5587
C17 C 0.4059(2) 0.3404(4) 0.5854(4)
H9 H 0.4309 0.2820 0.5967
Cl7? Cl 0.45085(18) 1.0528(3) 0.6084(5)
Cl8? Cl 0.4406(3) 1.0472(5) 0.5558(7)
Cl9? Cl 0.3333(3) 0.9742(5) 0.4593(5)
Cl10? Cl 0.3533(4) 0.9809(6) 0.4414(5)
Cl11? Cl 0.3613(2) 0.9984(4) 0.6644(5)
Cl12? Cl 0.3802(4) 1.0040(8) 0.6908(8)
loop_
_geom_bond_atom_site_label_1
_geom_bond_atom_site_label_2
_geom_bond_site_symmetry_1
_geom_bond_site_symmetry_2
Cl1 C18 1_555 1_555
Cl2 C18 1_555 1_555
Cl3 C18 1_555 1_555
Cl4 C19 1_555 1_555
Cl5 C19 1_555 1_555
Cl6 C19 1_555 1_555
O1 C1 1_555 1_555
O2 C11 1_555 1_555
O3 C12 1_555 1_555
N1 C2 1_555 1_555
C1 C2 1_555 1_555
C2 C3 1_555 1_555
C3 C4 1_555 1_555
C4 C5 1_555 1_555
C5 C6 1_555 1_555
C6 C1 1_555 1_555
C7 N1 1_555 1_555
H1 C7 1_555 1_555
C8 C7 1_555 1_555
H2 C8 1_555 1_555
C9 C3 1_555 1_555
C10 C9 1_555 1_555
H3 C10 1_555 1_555
C11 C10 1_555 1_555
C12 C4 1_555 1_555
C13 O2 1_555 1_555
H4 C13 1_555 1_555
H5 C13 1_555 1_555
C14 C6 1_555 1_555
H6 C14 1_555 1_555
C15 C14 1_555 1_555
H7 C15 1_555 1_555
C16 C15 1_555 1_555
H8 C16 1_555 1_555
C17 C5 1_555 1_555
H9 C17 1_555 1_555
C18 H10 1_555 1_555
C19 H11 1_555 1_555
O3 C13 1_555 1_555
C8 C9 1_555 1_555
C11 C12 1_555 1_555
C16 C17 1_555 1_555

#END
