
#######################################################################
#
#                 Cambridge Crystallographic Data Centre
#                                CCDC 
#
#######################################################################
#
# If this CIF has been generated from an entry in the Cambridge 
# Structural Database, then it will include bibliographic, chemical, 
# crystal, experimental, refinement or atomic coordinate data resulting 
# from the CCDC's data processing and validation procedures.
#
#######################################################################

data_VOPTOL
_chemical_formula_moiety         'C6 H8 N8 O2'
_chemical_name_systematic        
4,4'-Diazene-1,2-diylbis(2-methyl-2,4-dihydro-3H-1,2,4-triazol-3-one)
_symmetry_cell_setting           triclinic
_symmetry_space_group_name_H-M   'P -1'
_symmetry_Int_Tables_number      2
_space_group_name_Hall           '-P 1'
loop_
_symmetry_equiv_pos_site_id
_symmetry_equiv_pos_as_xyz
1 x,y,z
2 -x,-y,-z
_cell_length_a                   5.854(4)
_cell_length_b                   8.130(5)
_cell_length_c                   10.650(7)
_cell_angle_alpha                109.96(3)
_cell_angle_beta                 96.98(4)
_cell_angle_gamma                100.02(3)
_cell_volume                     460.103
_exptl_crystal_colour            colorless
_exptl_crystal_description       Prism
_cell_formula_units_Z            2
loop_
_atom_site_label
_atom_site_type_symbol
_atom_site_fract_x
_atom_site_fract_y
_atom_site_fract_z
N1 N 0.5506(8) 0.6176(14) 0.2782(6)
N2 N 0.6152(13) 0.6979(11) 0.1892(6)
N3 N 0.2473(16) 0.5452(15) 0.1192(10)
N4 N 0.0170(6) 0.4758(5) 0.0502(4)
C1 C 0.3221(7) 0.5248(6) 0.2410(4)
C2 C 0.4279(8) 0.6589(6) 0.0961(4)
H1 H 0.4167 0.7018 0.0235
C3 C 0.7230(15) 0.623(2) 0.3901(9)
H2 H 0.6418 0.6025 0.4606
H3 H 0.8342 0.7408 0.4287
H4 H 0.8098 0.5290 0.3569
O1 O 0.2143(8) 0.4361(6) 0.2966(5)
N1A N -0.5506(8) 0.3824(14) -0.2782(6)
N2A N -0.6152(13) 0.3021(11) -0.1892(6)
N3A N -0.2473(16) 0.4548(15) -0.1192(10)
N4A N -0.0170(6) 0.5242(5) -0.0502(4)
C1A C -0.3221(7) 0.4752(6) -0.2410(4)
C2A C -0.4279(8) 0.3411(6) -0.0961(4)
H1A H -0.4167 0.2982 -0.0235
C3A C -0.7230(15) 0.377(2) -0.3901(9)
H2A H -0.6418 0.3975 -0.4606
H3A H -0.8342 0.2592 -0.4287
H4A H -0.8098 0.4710 -0.3569
O1A O -0.2143(8) 0.5639(6) -0.2966(5)
N9 N 0.5061(7) 0.9066(9) 0.6962(4)
N10 N 0.7006(9) 1.0079(10) 0.6744(7)
N11 N 0.7837(14) 0.9699(14) 0.8666(9)
N12 N 0.8945(6) 0.9548(5) 0.9834(3)
C7 C 0.5459(7) 0.8731(5) 0.8123(4)
C8 C 0.8668(7) 1.0431(6) 0.7809(4)
H9 H 1.0237 1.1109 0.7953
C9 C 0.2837(11) 0.8460(19) 0.6008(9)
H10 H 0.1593 0.7963 0.6404
H11 H 0.2973 0.7529 0.5165
H12 H 0.2435 0.9477 0.5807
O3 O 0.4146(8) 0.7893(9) 0.8596(5)
N9A N 1.4939(7) 1.0934(9) 1.3038(4)
N10A N 1.2994(9) 0.9921(10) 1.3256(7)
N11A N 1.2163(14) 1.0301(14) 1.1334(9)
N12A N 1.1055(6) 1.0452(5) 1.0166(3)
C7A C 1.4541(7) 1.1269(5) 1.1877(4)
C8A C 1.1332(7) 0.9569(6) 1.2191(4)
H9A H 0.9763 0.8891 1.2047
C9A C 1.7163(11) 1.1540(19) 1.3992(9)
H10A H 1.8407 1.2037 1.3596
H11A H 1.7027 1.2471 1.4835
H12A H 1.7565 1.0523 1.4193
O3A O 1.5854(8) 1.2107(9) 1.1404(5)
N5? N 0.4962(11) 0.592(2) 0.3000(9)
N6? N 0.3002(12) 0.4907(13) 0.3203(10)
N7? N 0.214(2) 0.546(3) 0.1353(15)
N8? N 0.1014(10) 0.5447(9) 0.0140(6)
C4? C 0.4536(11) 0.6248(9) 0.1842(7)
C5? C 0.1341(10) 0.4545(8) 0.2158(7)
H5? H -0.0180 0.3776 0.1976
C6? C 0.7200(15) 0.652(3) 0.3951(13)
H6? H 0.7266 0.5732 0.4466
H7? H 0.7351 0.7757 0.4581
H8? H 0.8499 0.6487 0.3449
O2? O 0.5883(17) 0.7115(14) 0.1433(10)
N13? N 0.4536(11) 0.8808(16) 0.7227(8)
N14? N 0.3849(15) 0.8000(15) 0.8110(9)
N15? N 0.7580(19) 0.940(2) 0.8768(14)
N16? N 0.9859(10) 1.0221(8) 0.9503(6)
C10? C 0.6812(11) 0.9767(10) 0.7601(6)
C11? C 0.5746(12) 0.8447(9) 0.9061(6)
H13? H 0.5813 0.8139 0.9846
C12? C 0.2835(18) 0.867(3) 0.6072(12)
H14? H 0.1554 0.9225 0.6393
H15? H 0.2183 0.7395 0.5501
H16? H 0.3614 0.9283 0.5538
O4? O 0.7893(15) 1.0572(14) 0.7037(10)
loop_
_geom_bond_atom_site_label_1
_geom_bond_atom_site_label_2
_geom_bond_site_symmetry_1
_geom_bond_site_symmetry_2
N1 N2 1_555 1_555
N2 C2 1_555 1_555
N3 N4 1_555 1_555
N4 N4A 1_555 1_555
C1 N1 1_555 1_555
C2 N3 1_555 1_555
H1 C2 1_555 1_555
C3 N1 1_555 1_555
H2 C3 1_555 1_555
H3 C3 1_555 1_555
H4 C3 1_555 1_555
O1 C1 1_555 1_555
N9 N10 1_555 1_555
N10 C8 1_555 1_555
N11 N12 1_555 1_555
N12 N12A 1_555 1_555
C7 N9 1_555 1_555
C8 N11 1_555 1_555
H9 C8 1_555 1_555
C9 N9 1_555 1_555
H10 C9 1_555 1_555
H11 C9 1_555 1_555
H12 C9 1_555 1_555
O3 C7 1_555 1_555
N1A N2A 1_555 1_555
N2A C2A 1_555 1_555
N3A N4A 1_555 1_555
C1A N1A 1_555 1_555
C2A N3A 1_555 1_555
H1A C2A 1_555 1_555
C3A N1A 1_555 1_555
H2A C3A 1_555 1_555
H3A C3A 1_555 1_555
H4A C3A 1_555 1_555
O1A C1A 1_555 1_555
N9A N10A 1_555 1_555
N10A C8A 1_555 1_555
N11A N12A 1_555 1_555
C7A N9A 1_555 1_555
C8A N11A 1_555 1_555
H9A C8A 1_555 1_555
C9A N9A 1_555 1_555
H10A C9A 1_555 1_555
H11A C9A 1_555 1_555
H12A C9A 1_555 1_555
O3A C7A 1_555 1_555
N3 C1 1_555 1_555
N11 C7 1_555 1_555
N3A C1A 1_555 1_555
N11A C7A 1_555 1_555

#END
