
#######################################################################
#
#                 Cambridge Crystallographic Data Centre
#                                CCDC 
#
#######################################################################
#
# If this CIF has been generated from an entry in the Cambridge 
# Structural Database, then it will include bibliographic, chemical, 
# crystal, experimental, refinement or atomic coordinate data resulting 
# from the CCDC's data processing and validation procedures.
#
#######################################################################

data_VOPTEZ
_chemical_formula_moiety         'C26 H22'
_chemical_name_systematic        
(2~4~)(1,2,4,5)Benzeno(4,5,8,1)biphenylenophane
_symmetry_cell_setting           triclinic
_symmetry_space_group_name_H-M   'P -1'
_symmetry_Int_Tables_number      2
_space_group_name_Hall           '-P 1'
loop_
_symmetry_equiv_pos_site_id
_symmetry_equiv_pos_as_xyz
1 x,y,z
2 -x,-y,-z
_cell_length_a                   8.920(3)
_cell_length_b                   9.166(2)
_cell_length_c                   10.881(3)
_cell_angle_alpha                85.15(2)
_cell_angle_beta                 68.20(2)
_cell_angle_gamma                86.30(2)
_cell_volume                     822.531
_exptl_crystal_colour            yellow
_cell_formula_units_Z            2
loop_
_atom_site_label
_atom_site_type_symbol
_atom_site_fract_x
_atom_site_fract_y
_atom_site_fract_z
C1 C 0.0541(5) 0.0084(4) 0.1713(4)
C2 C 0.2257(5) 0.0395(4) 0.0636(4)
C3 C 0.3183(4) 0.1509(4) 0.1009(3)
C4 C 0.4060(4) 0.1156(4) 0.1824(3)
C5 C 0.4681(4) 0.2312(4) 0.2231(3)
C6 C 0.4250(4) 0.3768(4) 0.2050(3)
C7 C 0.3370(4) 0.4129(4) 0.1233(3)
C8 C 0.2977(4) 0.2976(4) 0.0652(3)
C9 C 0.4202(5) -0.0363(4) 0.2448(4)
C10 C 0.2765(5) -0.0765(4) 0.3780(4)
C11 C 0.2157(4) 0.0605(4) 0.4517(3)
C12 C 0.2978(5) 0.1115(5) 0.5281(4)
C13 C 0.3088(5) 0.2582(5) 0.5387(4)
C14 C 0.2376(4) 0.3673(4) 0.4754(4)
C15 C 0.1245(4) 0.3155(4) 0.4342(3)
C16 C 0.0307(4) 0.3517(4) 0.3444(3)
C17 C 0.0033(4) 0.4553(4) 0.2571(4)
C18 C -0.0751(5) 0.4050(5) 0.1786(4)
C19 C -0.0862(5) 0.2576(5) 0.1669(4)
C20 C -0.0183(4) 0.1500(4) 0.2332(4)
C21 C 0.0201(4) 0.1998(4) 0.3329(4)
C22 C 0.1151(4) 0.1627(4) 0.4220(3)
C23 C 0.3163(5) 0.5094(4) 0.4229(4)
C24 C 0.4599(5) 0.4864(4) 0.2877(4)
C25 C 0.2646(5) 0.5644(4) 0.1072(4)
C26 C 0.0935(5) 0.5952(4) 0.2155(4)
H1 H -0.0142 -0.0303 0.1324
H2 H 0.0649 -0.0621 0.2382
H3 H 0.2121 0.0755 -0.0172
H4 H 0.2895 -0.0502 0.0467
H5 H 0.5443 0.2085 0.2658
H6 H 0.2550 0.3212 -0.0033
H7 H 0.5188 -0.0444 0.2617
H8 H 0.4282 -0.1062 0.1816
H9 H 0.1914 -0.1169 0.3591
H10 H 0.3123 -0.1481 0.4318
H11 H 0.3459 0.0410 0.5741
H12 H 0.3674 0.2888 0.5898
H13 H -0.1222 0.4756 0.1319
H14 H -0.1411 0.2268 0.1131
H15 H 0.3544 0.5457 0.4859
H16 H 0.2394 0.5799 0.4080
H17 H 0.4849 0.5784 0.2366
H18 H 0.5533 0.4514 0.3066
H19 H 0.2558 0.5760 0.0216
H20 H 0.3378 0.6355 0.1095
H21 H 0.1058 0.6314 0.2913
H22 H 0.0337 0.6679 0.1817
loop_
_geom_bond_atom_site_label_1
_geom_bond_atom_site_label_2
_geom_bond_site_symmetry_1
_geom_bond_site_symmetry_2
C1 C2 1_555 1_555
C2 C3 1_555 1_555
C3 C4 1_555 1_555
C4 C5 1_555 1_555
C5 C6 1_555 1_555
C6 C7 1_555 1_555
C7 C8 1_555 1_555
C8 C3 1_555 1_555
C9 C4 1_555 1_555
C10 C9 1_555 1_555
C11 C10 1_555 1_555
C12 C11 1_555 1_555
C13 C12 1_555 1_555
C14 C13 1_555 1_555
C15 C14 1_555 1_555
C16 C15 1_555 1_555
C17 C16 1_555 1_555
C18 C17 1_555 1_555
C19 C18 1_555 1_555
C20 C1 1_555 1_555
C21 C16 1_555 1_555
C22 C11 1_555 1_555
C23 C14 1_555 1_555
C24 C6 1_555 1_555
C25 C7 1_555 1_555
C26 C17 1_555 1_555
H1 C1 1_555 1_555
H2 C1 1_555 1_555
H3 C2 1_555 1_555
H4 C2 1_555 1_555
H5 C5 1_555 1_555
H6 C8 1_555 1_555
H7 C9 1_555 1_555
H8 C9 1_555 1_555
H9 C10 1_555 1_555
H10 C10 1_555 1_555
H11 C12 1_555 1_555
H12 C13 1_555 1_555
H13 C18 1_555 1_555
H14 C19 1_555 1_555
H15 C23 1_555 1_555
H16 C23 1_555 1_555
H17 C24 1_555 1_555
H18 C24 1_555 1_555
H19 C25 1_555 1_555
H20 C25 1_555 1_555
H21 C26 1_555 1_555
H22 C26 1_555 1_555
C15 C22 1_555 1_555
C19 C20 1_555 1_555
C20 C21 1_555 1_555
C21 C22 1_555 1_555
C23 C24 1_555 1_555
C25 C26 1_555 1_555

#END
