
#######################################################################
#
#                 Cambridge Crystallographic Data Centre
#                                CCDC 
#
#######################################################################
#
# If this CIF has been generated from an entry in the Cambridge 
# Structural Database, then it will include bibliographic, chemical, 
# crystal, experimental, refinement or atomic coordinate data resulting 
# from the CCDC's data processing and validation procedures.
#
#######################################################################

data_VOPVED
_chemical_formula_moiety         'C4 H8 N10 2+,2(Cl1 O4 1-)'
_chemical_name_systematic        
"4,4'-Diazene-1,2-diylbis(5-amino-4H-1,2,4-triazol-1-ium) diperchlorate"
_symmetry_cell_setting           triclinic
_symmetry_space_group_name_H-M   'P -1'
_symmetry_Int_Tables_number      2
_space_group_name_Hall           '-P 1'
loop_
_symmetry_equiv_pos_site_id
_symmetry_equiv_pos_as_xyz
1 x,y,z
2 -x,-y,-z
_cell_length_a                   4.9462(9)
_cell_length_b                   7.1522(17)
_cell_length_c                   9.503(2)
_cell_angle_alpha                97.491(7)
_cell_angle_beta                 94.118(8)
_cell_angle_gamma                99.293(8)
_cell_volume                     327.452
_exptl_crystal_colour            colorless
_exptl_crystal_description       prism
_cell_formula_units_Z            1
loop_
_atom_site_label
_atom_site_type_symbol
_atom_site_fract_x
_atom_site_fract_y
_atom_site_fract_z
Cl1 Cl -0.00591(7) 0.74402(5) 0.63663(3)
O1 O -0.1244(3) 0.78195(18) 0.50425(12)
O2 O 0.2744(3) 0.71597(18) 0.62326(14)
O3 O -0.0073(3) 0.90515(16) 0.74579(12)
O4 O -0.1594(3) 0.57621(17) 0.67864(14)
N1 N 0.3766(3) 0.8279(2) 0.31523(15)
N2 N 0.4580(3) 0.97677(18) 0.05654(13)
N3 N 0.5666(3) 0.82201(17) 0.09154(13)
N4 N 0.6619(3) 0.61391(19) 0.22017(13)
N5 N 0.7993(3) 0.5859(2) 0.09948(14)
C1 C 0.5222(3) 0.7580(2) 0.21935(15)
C2 C 0.7406(3) 0.7131(2) 0.02347(16)
H1 H 0.294(4) 0.911(3) 0.297(2)
H2 H 0.366(4) 0.787(3) 0.386(2)
H3 H 0.803(4) 0.725(3) -0.066(2)
H4 H 0.667(5) 0.539(3) 0.285(2)
N1A N 0.6234(3) 1.1721(2) -0.31523(15)
N2A N 0.5420(3) 1.02323(18) -0.05654(13)
N3A N 0.4334(3) 1.17799(17) -0.09154(13)
N4A N 0.3381(3) 1.38609(19) -0.22017(13)
N5A N 0.2007(3) 1.4141(2) -0.09948(14)
C1A C 0.4778(3) 1.2420(2) -0.21935(15)
C2A C 0.2594(3) 1.2869(2) -0.02347(16)
H1A H 0.706(4) 1.089(3) -0.297(2)
H2A H 0.634(4) 1.213(3) -0.386(2)
H3A H 0.197(4) 1.275(3) 0.066(2)
H4A H 0.333(5) 1.461(3) -0.285(2)
loop_
_geom_bond_atom_site_label_1
_geom_bond_atom_site_label_2
_geom_bond_site_symmetry_1
_geom_bond_site_symmetry_2
Cl1 O1 1_555 1_555
O2 Cl1 1_555 1_555
O3 Cl1 1_555 1_555
O4 Cl1 1_555 1_555
N1 C1 1_555 1_555
N2 N3 1_555 1_555
N3 C1 1_555 1_555
N4 N5 1_555 1_555
N5 C2 1_555 1_555
C1 N4 1_555 1_555
C2 N3 1_555 1_555
H1 N1 1_555 1_555
H2 N1 1_555 1_555
H3 C2 1_555 1_555
H4 N4 1_555 1_555
N1A C1A 1_555 1_555
N2A N2 1_555 1_555
N3A N2A 1_555 1_555
N4A N5A 1_555 1_555
N5A C2A 1_555 1_555
C1A N3A 1_555 1_555
C2A N3A 1_555 1_555
H1A N1A 1_555 1_555
H2A N1A 1_555 1_555
H3A C2A 1_555 1_555
H4A N4A 1_555 1_555
N4A C1A 1_555 1_555

#END
