
#######################################################################
#
#                 Cambridge Crystallographic Data Centre
#                                CCDC 
#
#######################################################################
#
# If this CIF has been generated from an entry in the Cambridge 
# Structural Database, then it will include bibliographic, chemical, 
# crystal, experimental, refinement or atomic coordinate data resulting 
# from the CCDC's data processing and validation procedures.
#
#######################################################################

data_VOQBIM02
_chemical_formula_moiety         'C44 H54 Si2'
_chemical_name_systematic        
(pentacene-6,13-diylbis(ethyne-2,1-diyl))bis(triisopropylsilane)
_symmetry_cell_setting           triclinic
_symmetry_space_group_name_H-M   'P -1'
_symmetry_Int_Tables_number      2
_space_group_name_Hall           '-P 1'
loop_
_symmetry_equiv_pos_site_id
_symmetry_equiv_pos_as_xyz
1 x,y,z
2 -x,-y,-z
_cell_length_a                   7.7440(7)
_cell_length_b                   7.7583(8)
_cell_length_c                   16.9549(17)
_cell_angle_alpha                88.536(4)
_cell_angle_beta                 77.873(3)
_cell_angle_gamma                82.202(4)
_cell_volume                     986.709
_exptl_crystal_colour            blue
_exptl_crystal_description       plate
_cell_formula_units_Z            1
_exptl_crystal_preparation       
'The data crystal was mounted using glue to a 0.2 mm Kapton micromount  (Thorne, 2003) with the (-3 -1 -3) scattering planes roughly normal to  the spindle axis.'
loop_
_atom_site_label
_atom_site_type_symbol
_atom_site_fract_x
_atom_site_fract_y
_atom_site_fract_z
Si1 Si 0.75382(8) 0.71029(7) 0.32164(3)
C1 C 0.9459(3) 0.9380(2) 0.07960(9)
C2 C 0.8210(3) 1.0450(2) 0.04377(10)
C3 C 0.6441(3) 1.0909(2) 0.08394(11)
H1 H 0.6088 1.0524 0.1365
C4 C 0.5193(3) 1.1916(2) 0.04855(11)
C5 C 0.3385(3) 1.2367(3) 0.08917(13)
H2 H 0.3016 1.1985 0.1417
C6 C 0.2202(3) 1.3335(3) 0.05276(15)
H3 H 0.1028 1.3609 0.0803
C7 C 0.2725(3) 1.3941(3) -0.02702(15)
H4 H 0.1893 1.4612 -0.0513
C8 C 0.4416(3) 1.3554(3) -0.06800(13)
H5 H 0.4737 1.3964 -0.1203
C9 C 0.5731(3) 1.2526(2) -0.03272(11)
C10 C 0.7476(3) 1.2098(2) -0.07294(10)
H6 H 0.7819 1.2502 -0.1252
C11 C 0.8755(3) 1.1074(2) -0.03787(10)
C12 C 0.8893(3) 0.8705(2) 0.15890(10)
C13 C 0.8386(3) 0.8100(3) 0.22420(11)
C14 C 0.8267(4) 0.4701(3) 0.31198(14)
H7 H 0.7803 0.4175 0.3640
C15 C 0.7503(7) 0.3869(4) 0.2477(2)
H8 H 0.7997 0.2665 0.2412
H9 H 0.7804 0.4463 0.1974
H10 H 0.6230 0.3960 0.2645
C16 C 1.0293(5) 0.4282(5) 0.2950(2)
H11 H 1.0626 0.3048 0.2886
H12 H 1.0733 0.4676 0.3393
H13 H 1.0795 0.4858 0.2465
C17 C 0.8601(4) 0.8023(3) 0.39837(14)
H14 H 0.9883 0.7690 0.3786
C18 C 0.8212(5) 0.7207(5) 0.48110(16)
H15 H 0.8952 0.7605 0.5138
H16 H 0.8456 0.5964 0.4760
H17 H 0.6982 0.7535 0.5060
C19 C 0.8370(7) 0.9957(5) 0.4022(2)
H18 H 0.9023 1.0319 0.4397
H19 H 0.7129 1.0388 0.4197
H20 H 0.8810 1.0412 0.3497
C20 C 0.5044(6) 0.7502(15) 0.3369(7)
H21 H 0.4730 0.6872 0.2936
C21 C 0.4293(10) 0.9392(10) 0.3294(6)
H22 H 0.3028 0.9485 0.3338
H23 H 0.4834 0.9830 0.2779
H24 H 0.4543 1.0058 0.3716
C22 C 0.4011(15) 0.6821(14) 0.4175(6)
H25 H 0.2758 0.7190 0.4225
H26 H 0.4406 0.7278 0.4617
H27 H 0.4229 0.5573 0.4181
Si1A Si 1.24618(8) 1.28971(7) -0.32164(3)
C1A C 1.0541(3) 1.0620(2) -0.07960(9)
C2A C 1.1790(3) 0.9550(2) -0.04377(10)
C3A C 1.3559(3) 0.9091(2) -0.08394(11)
H1A H 1.3912 0.9476 -0.1365
C4A C 1.4807(3) 0.8084(2) -0.04855(11)
C5A C 1.6615(3) 0.7633(3) -0.08917(13)
H2A H 1.6984 0.8015 -0.1417
C6A C 1.7798(3) 0.6665(3) -0.05276(15)
H3A H 1.8972 0.6391 -0.0803
C7A C 1.7275(3) 0.6059(3) 0.02702(15)
H4A H 1.8107 0.5388 0.0513
C8A C 1.5584(3) 0.6446(3) 0.06800(13)
H5A H 1.5263 0.6036 0.1203
C9A C 1.4269(3) 0.7474(2) 0.03272(11)
C10A C 1.2524(3) 0.7902(2) 0.07294(10)
H6A H 1.2181 0.7498 0.1252
C11A C 1.1245(3) 0.8926(2) 0.03787(10)
C12A C 1.1107(3) 1.1295(2) -0.15890(10)
C13A C 1.1614(3) 1.1900(3) -0.22420(11)
C14A C 1.1733(4) 1.5299(3) -0.31198(14)
H7A H 1.2197 1.5825 -0.3640
C15A C 1.2497(7) 1.6131(4) -0.2477(2)
H8A H 1.2003 1.7335 -0.2412
H9A H 1.2196 1.5537 -0.1974
H10A H 1.3770 1.6040 -0.2645
C16A C 0.9707(5) 1.5718(5) -0.2950(2)
H11A H 0.9374 1.6952 -0.2886
H12A H 0.9267 1.5324 -0.3393
H13A H 0.9205 1.5142 -0.2465
C17A C 1.1399(4) 1.1977(3) -0.39837(14)
H14A H 1.0117 1.2310 -0.3786
C18A C 1.1788(5) 1.2793(5) -0.48110(16)
H15A H 1.1048 1.2395 -0.5138
H16A H 1.1544 1.4036 -0.4760
H17A H 1.3018 1.2465 -0.5060
C19A C 1.1630(7) 1.0043(5) -0.4022(2)
H18A H 1.0977 0.9681 -0.4397
H19A H 1.2871 0.9612 -0.4197
H20A H 1.1190 0.9588 -0.3497
C20A C 1.4956(6) 1.2498(15) -0.3369(7)
H21A H 1.5270 1.3128 -0.2936
C21A C 1.5707(10) 1.0608(10) -0.3294(6)
H22A H 1.6972 1.0515 -0.3338
H23A H 1.5166 1.0170 -0.2779
H24A H 1.5457 0.9942 -0.3716
C22A C 1.5989(15) 1.3179(14) -0.4175(6)
H25A H 1.7242 1.2810 -0.4225
H26A H 1.5594 1.2722 -0.4617
H27A H 1.5771 1.4427 -0.4181
C23? C 0.5071(10) 0.780(3) 0.3552(10)
H28? H 0.4874 0.8785 0.3926
C24? C 0.4040(14) 0.828(2) 0.2885(7)
H29? H 0.3041 0.9142 0.3082
H30? H 0.3623 0.7259 0.2723
H31? H 0.4808 0.8732 0.2431
C25? C 0.428(3) 0.624(2) 0.4003(13)
H32? H 0.3002 0.6465 0.4107
H33? H 0.4668 0.6074 0.4505
H34? H 0.4678 0.5211 0.3678
loop_
_geom_bond_atom_site_label_1
_geom_bond_atom_site_label_2
_geom_bond_site_symmetry_1
_geom_bond_site_symmetry_2
Si1 C13 1_555 1_555
C1 C2 1_555 1_555
C2 C3 1_555 1_555
C3 H1 1_555 1_555
C4 C3 1_555 1_555
C5 C4 1_555 1_555
H2 C5 1_555 1_555
C6 C5 1_555 1_555
H3 C6 1_555 1_555
C7 C6 1_555 1_555
H4 C7 1_555 1_555
C8 C7 1_555 1_555
H5 C8 1_555 1_555
C9 C4 1_555 1_555
C10 C9 1_555 1_555
H6 C10 1_555 1_555
C11 C2 1_555 1_555
C12 C1 1_555 1_555
C13 C12 1_555 1_555
C14 Si1 1_555 1_555
H7 C14 1_555 1_555
C15 C14 1_555 1_555
H8 C15 1_555 1_555
H9 C15 1_555 1_555
H10 C15 1_555 1_555
C16 C14 1_555 1_555
H11 C16 1_555 1_555
H12 C16 1_555 1_555
H13 C16 1_555 1_555
C17 Si1 1_555 1_555
H14 C17 1_555 1_555
C18 C17 1_555 1_555
H15 C18 1_555 1_555
H16 C18 1_555 1_555
H17 C18 1_555 1_555
C19 C17 1_555 1_555
H18 C19 1_555 1_555
H19 C19 1_555 1_555
H20 C19 1_555 1_555
C20 Si1 1_555 1_555
H21 C20 1_555 1_555
C21 C20 1_555 1_555
H22 C21 1_555 1_555
H23 C21 1_555 1_555
H24 C21 1_555 1_555
C22 C20 1_555 1_555
H25 C22 1_555 1_555
H26 C22 1_555 1_555
H27 C22 1_555 1_555
Si1A C13A 1_555 1_555
C1A C11 1_555 1_555
C2A C1A 1_555 1_555
C3A C2A 1_555 1_555
H1A C3A 1_555 1_555
C4A C3A 1_555 1_555
C5A C4A 1_555 1_555
H2A C5A 1_555 1_555
C6A C5A 1_555 1_555
H3A C6A 1_555 1_555
C7A C6A 1_555 1_555
H4A C7A 1_555 1_555
C8A C7A 1_555 1_555
H5A C8A 1_555 1_555
C9A C4A 1_555 1_555
C10A C9A 1_555 1_555
H6A C10A 1_555 1_555
C11A C1 1_555 1_555
C12A C1A 1_555 1_555
C13A C12A 1_555 1_555
C14A Si1A 1_555 1_555
H7A C14A 1_555 1_555
C15A C14A 1_555 1_555
H8A C15A 1_555 1_555
H9A C15A 1_555 1_555
H10A C15A 1_555 1_555
C16A C14A 1_555 1_555
H11A C16A 1_555 1_555
H12A C16A 1_555 1_555
H13A C16A 1_555 1_555
C17A Si1A 1_555 1_555
H14A C17A 1_555 1_555
C18A C17A 1_555 1_555
H15A C18A 1_555 1_555
H16A C18A 1_555 1_555
H17A C18A 1_555 1_555
C19A C17A 1_555 1_555
H18A C19A 1_555 1_555
H19A C19A 1_555 1_555
H20A C19A 1_555 1_555
C20A Si1A 1_555 1_555
H21A C20A 1_555 1_555
C21A C20A 1_555 1_555
H22A C21A 1_555 1_555
H23A C21A 1_555 1_555
H24A C21A 1_555 1_555
C22A C20A 1_555 1_555
H25A C22A 1_555 1_555
H26A C22A 1_555 1_555
H27A C22A 1_555 1_555
C8 C9 1_555 1_555
C10 C11 1_555 1_555
C2A C11A 1_555 1_555
C8A C9A 1_555 1_555
C10A C11A 1_555 1_555

#END
