
#######################################################################
#
#                 Cambridge Crystallographic Data Centre
#                                CCDC 
#
#######################################################################
#
# If this CIF has been generated from an entry in the Cambridge 
# Structural Database, then it will include bibliographic, chemical, 
# crystal, experimental, refinement or atomic coordinate data resulting 
# from the CCDC's data processing and validation procedures.
#
#######################################################################

data_VOQBIM03
_chemical_formula_moiety         'C44 H54 Si2'
_chemical_name_systematic        
(pentacene-6,13-diylbis(ethyne-2,1-diyl))bis(triisopropylsilane)
_symmetry_cell_setting           triclinic
_symmetry_space_group_name_H-M   'P -1'
_symmetry_Int_Tables_number      2
_space_group_name_Hall           '-P 1'
loop_
_symmetry_equiv_pos_site_id
_symmetry_equiv_pos_as_xyz
1 x,y,z
2 -x,-y,-z
_cell_length_a                   7.600(8)
_cell_length_b                   8.578(9)
_cell_length_c                   17.231(17)
_cell_angle_alpha                78.22(3)
_cell_angle_beta                 86.71(3)
_cell_angle_gamma                72.10(3)
_cell_volume                     1046.43
_exptl_crystal_colour            blue
_exptl_crystal_description       plate
_cell_formula_units_Z            1
_exptl_crystal_preparation       
'The data crystal was mounted using glue to a 0.2 mm Kapton micromount  (Thorne, 2003).'
loop_
_atom_site_label
_atom_site_type_symbol
_atom_site_fract_x
_atom_site_fract_y
_atom_site_fract_z
H1 H 0.2603 -0.2335 0.8740
H2 H 0.4114 -0.5389 0.8751
H3 H 0.4677 -0.8008 0.9354
H4 H 0.3664 -0.8741 1.0627
H5 H 0.1906 -0.6688 1.1267
H6 H 0.0418 -0.3675 1.1263
H7 H 0.6109 0.1159 0.6447
H8 H 0.5572 -0.1452 0.6708
H9 H 0.7404 -0.1567 0.7122
H10 H 0.5599 -0.1491 0.7621
H11 H 0.6012 0.2588 0.7485
H12 H 0.5873 0.1014 0.8103
H13 H 0.7678 0.0939 0.7604
H14 H 0.2850 0.4363 0.7009
H15 H -0.0262 0.4429 0.7027
H16 H 0.0028 0.6020 0.6472
H17 H -0.0218 0.4570 0.6105
H18 H 0.4602 0.4084 0.5851
H19 H 0.2799 0.4357 0.5376
H20 H 0.3045 0.5807 0.5742
H21 H 0.2822 -0.0410 0.6248
H22 H -0.0210 0.0498 0.6704
H23 H -0.0643 0.2003 0.5981
H24 H -0.0116 0.0168 0.5839
H25 H 0.3970 0.1312 0.5253
H26 H 0.2476 0.0673 0.4939
H27 H 0.1949 0.2508 0.5081
C1 C 0.0651(11) 0.0409(13) 0.9235(5)
C2 C 0.1077(11) -0.1274(14) 0.9595(5)
C3 C 0.2145(12) -0.2596(14) 0.9246(5)
C4 C 0.2560(12) -0.4255(15) 0.9604(6)
C5 C 0.3641(14) -0.5621(15) 0.9257(7)
C6 C 0.3992(15) -0.7173(17) 0.9616(8)
C7 C 0.3376(15) -0.7623(15) 1.0378(8)
C8 C 0.2334(14) -0.6389(15) 1.0759(6)
C9 C 0.1893(12) -0.4685(14) 1.0404(6)
C10 C 0.0851(12) -0.3392(14) 1.0754(5)
C11 C 0.0397(11) -0.1719(13) 1.0416(5)
C12 C 0.1410(12) 0.0821(11) 0.8457(6)
C13 C 0.2040(13) 0.1189(12) 0.7817(5)
C14 C 0.5558(19) 0.080(3) 0.6954(12)
C15 C 0.608(4) -0.110(3) 0.7117(17)
C16 C 0.635(4) 0.139(4) 0.7596(17)
C17 C 0.238(3) 0.3997(17) 0.6582(11)
C18 C 0.029(3) 0.483(4) 0.6543(17)
C19 C 0.329(4) 0.462(4) 0.5817(16)
C20 C 0.215(3) 0.079(3) 0.6123(10)
C21 C 0.010(3) 0.087(5) 0.6166(15)
C22 C 0.269(4) 0.137(5) 0.5269(11)
Si1 Si 0.2997(5) 0.1698(5) 0.68489(15)
H1A H -0.2603 0.2335 1.1260
H2A H -0.4114 0.5389 1.1249
H3A H -0.4677 0.8008 1.0646
H4A H -0.3664 0.8741 0.9373
H5A H -0.1906 0.6688 0.8733
H6A H -0.0418 0.3675 0.8737
H7A H -0.6109 -0.1159 1.3553
H8A H -0.5572 0.1452 1.3292
H9A H -0.7404 0.1567 1.2878
H10A H -0.5599 0.1491 1.2379
H11A H -0.6012 -0.2588 1.2515
H12A H -0.5873 -0.1014 1.1897
H13A H -0.7678 -0.0939 1.2396
H14A H -0.2850 -0.4363 1.2991
H15A H 0.0262 -0.4429 1.2973
H16A H -0.0028 -0.6020 1.3528
H17A H 0.0218 -0.4570 1.3895
H18A H -0.4602 -0.4084 1.4149
H19A H -0.2799 -0.4357 1.4624
H20A H -0.3045 -0.5807 1.4258
H21A H -0.2822 0.0410 1.3752
H22A H 0.0210 -0.0498 1.3296
H23A H 0.0643 -0.2003 1.4019
H24A H 0.0116 -0.0168 1.4161
H25A H -0.3970 -0.1312 1.4747
H26A H -0.2476 -0.0673 1.5061
H27A H -0.1949 -0.2508 1.4919
C1A C -0.0651(11) -0.0409(13) 1.0765(5)
C2A C -0.1077(11) 0.1274(14) 1.0405(5)
C3A C -0.2145(12) 0.2596(14) 1.0754(5)
C4A C -0.2560(12) 0.4255(15) 1.0396(6)
C5A C -0.3641(14) 0.5621(15) 1.0743(7)
C6A C -0.3992(15) 0.7173(17) 1.0384(8)
C7A C -0.3376(15) 0.7623(15) 0.9622(8)
C8A C -0.2334(14) 0.6389(15) 0.9241(6)
C9A C -0.1893(12) 0.4685(14) 0.9596(6)
C10A C -0.0851(12) 0.3392(14) 0.9246(5)
C11A C -0.0397(11) 0.1719(13) 0.9584(5)
C12A C -0.1410(12) -0.0821(11) 1.1543(6)
C13A C -0.2040(13) -0.1189(12) 1.2183(5)
C14A C -0.5558(19) -0.080(3) 1.3046(12)
C15A C -0.608(4) 0.110(3) 1.2883(17)
C16A C -0.635(4) -0.139(4) 1.2404(17)
C17A C -0.238(3) -0.3997(17) 1.3418(11)
C18A C -0.029(3) -0.483(4) 1.3457(17)
C19A C -0.329(4) -0.462(4) 1.4183(16)
C20A C -0.215(3) -0.079(3) 1.3877(10)
C21A C -0.010(3) -0.087(5) 1.3834(15)
C22A C -0.269(4) -0.137(5) 1.4731(11)
Si1A Si -0.2997(5) -0.1698(5) 1.31511(15)
C23? C 0.536(2) 0.185(3) 0.6940(16)
H28? H 0.5910 0.1843 0.6412
C24? C 0.660(5) 0.033(4) 0.750(2)
H29? H 0.6559 -0.0671 0.7345
H30? H 0.7848 0.0384 0.7460
H31? H 0.6173 0.0341 0.8031
C25? C 0.540(5) 0.347(4) 0.717(2)
H32? H 0.4610 0.4408 0.6813
H33? H 0.4965 0.3490 0.7701
H34? H 0.6639 0.3533 0.7130
C26? C 0.137(3) 0.371(2) 0.6384(16)
H35? H 0.1936 0.4162 0.5899
C27? C 0.099(6) 0.497(4) 0.693(2)
H36? H 0.2134 0.5098 0.7074
H37? H 0.0197 0.6029 0.6670
H38? H 0.0394 0.4571 0.7407
C28? C -0.044(4) 0.349(6) 0.615(2)
H39? H -0.0177 0.2697 0.5808
H40? H -0.1039 0.3083 0.6622
H41? H -0.1236 0.4541 0.5885
C29? C 0.306(4) -0.003(2) 0.6348(16)
H42? H 0.3134 0.0408 0.5780
C30? C 0.138(5) -0.068(5) 0.645(2)
H43? H 0.0277 0.0230 0.6311
H44? H 0.1511 -0.1471 0.6110
H45? H 0.1315 -0.1226 0.6991
C31? C 0.484(4) -0.146(4) 0.656(3)
H46? H 0.5877 -0.1028 0.6498
H47? H 0.4788 -0.2006 0.7107
H48? H 0.4983 -0.2251 0.6226
C32? C 0.374(5) 0.352(3) 0.694(2)
H49? H 0.4331 0.3858 0.6445
C33? C 0.518(6) 0.302(6) 0.761(3)
H50? H 0.6181 0.2078 0.7512
H51? H 0.5637 0.3941 0.7615
H52? H 0.4617 0.2729 0.8106
C34? C 0.212(7) 0.502(4) 0.708(4)
H53? H 0.1232 0.5313 0.6657
H54? H 0.1548 0.4735 0.7575
H55? H 0.2567 0.5947 0.7084
C35? C 0.501(3) -0.007(3) 0.668(2)
H56? H 0.6081 0.0114 0.6895
C36? C 0.547(9) -0.016(6) 0.581(2)
H57? H 0.5513 0.0908 0.5528
H58? H 0.6644 -0.0983 0.5781
H59? H 0.4529 -0.0473 0.5586
C37? C 0.493(10) -0.177(4) 0.715(3)
H60? H 0.4643 -0.1690 0.7695
H61? H 0.3990 -0.2083 0.6930
H62? H 0.6105 -0.2594 0.7125
C38? C 0.124(4) 0.225(4) 0.6057(15)
H63? H 0.0050 0.2815 0.6275
C39? C 0.107(9) 0.068(7) 0.583(3)
H64? H 0.0839 -0.0063 0.6292
H65? H 0.0059 0.0978 0.5459
H66? H 0.2194 0.0130 0.5583
C40? C 0.161(9) 0.346(7) 0.532(2)
H67? H 0.1713 0.4439 0.5480
H68? H 0.2735 0.2922 0.5080
H69? H 0.0601 0.3770 0.4956
loop_
_geom_bond_atom_site_label_1
_geom_bond_atom_site_label_2
_geom_bond_site_symmetry_1
_geom_bond_site_symmetry_2
H1 C3 1_555 1_555
H2 C5 1_555 1_555
H3 C6 1_555 1_555
H4 C7 1_555 1_555
H5 C8 1_555 1_555
H6 C10 1_555 1_555
H7 C14 1_555 1_555
H8 C15 1_555 1_555
H9 C15 1_555 1_555
H10 C15 1_555 1_555
H11 C16 1_555 1_555
H12 C16 1_555 1_555
H13 C16 1_555 1_555
H14 C17 1_555 1_555
H15 C18 1_555 1_555
H16 C18 1_555 1_555
H17 C18 1_555 1_555
H18 C19 1_555 1_555
H19 C19 1_555 1_555
H20 C19 1_555 1_555
H21 C20 1_555 1_555
H22 C21 1_555 1_555
H23 C21 1_555 1_555
H24 C21 1_555 1_555
H25 C22 1_555 1_555
H26 C22 1_555 1_555
H27 C22 1_555 1_555
C1 C2 1_555 1_555
C2 C3 1_555 1_555
C3 C4 1_555 1_555
C4 C5 1_555 1_555
C5 C6 1_555 1_555
C6 C7 1_555 1_555
C7 C8 1_555 1_555
C8 C9 1_555 1_555
C9 C4 1_555 1_555
C10 C9 1_555 1_555
C11 C2 1_555 1_555
C12 C1 1_555 1_555
C13 C12 1_555 1_555
C14 C15 1_555 1_555
C16 C14 1_555 1_555
C17 C18 1_555 1_555
C19 C17 1_555 1_555
C20 C21 1_555 1_555
C22 C20 1_555 1_555
Si1 C13 1_555 1_555
H1A C3A 1_555 1_555
H2A C5A 1_555 1_555
H3A C6A 1_555 1_555
H4A C7A 1_555 1_555
H5A C8A 1_555 1_555
H6A C10A 1_555 1_555
H7A C14A 1_555 1_555
H8A C15A 1_555 1_555
H9A C15A 1_555 1_555
H10A C15A 1_555 1_555
H11A C16A 1_555 1_555
H12A C16A 1_555 1_555
H13A C16A 1_555 1_555
H14A C17A 1_555 1_555
H15A C18A 1_555 1_555
H16A C18A 1_555 1_555
H17A C18A 1_555 1_555
H18A C19A 1_555 1_555
H19A C19A 1_555 1_555
H20A C19A 1_555 1_555
H21A C20A 1_555 1_555
H22A C21A 1_555 1_555
H23A C21A 1_555 1_555
H24A C21A 1_555 1_555
H25A C22A 1_555 1_555
H26A C22A 1_555 1_555
H27A C22A 1_555 1_555
C1A C11 1_555 1_555
C2A C1A 1_555 1_555
C3A C2A 1_555 1_555
C4A C3A 1_555 1_555
C5A C4A 1_555 1_555
C6A C5A 1_555 1_555
C7A C6A 1_555 1_555
C8A C7A 1_555 1_555
C9A C4A 1_555 1_555
C10A C9A 1_555 1_555
C11A C1 1_555 1_555
C12A C1A 1_555 1_555
C13A C12A 1_555 1_555
C14A C15A 1_555 1_555
C16A C14A 1_555 1_555
C17A C18A 1_555 1_555
C19A C17A 1_555 1_555
C20A C21A 1_555 1_555
C22A C20A 1_555 1_555
Si1A C13A 1_555 1_555
C10 C11 1_555 1_555
C14 Si1 1_555 1_555
C17 Si1 1_555 1_555
C20 Si1 1_555 1_555
C2A C11A 1_555 1_555
C8A C9A 1_555 1_555
C10A C11A 1_555 1_555
C14A Si1A 1_555 1_555
C17A Si1A 1_555 1_555
C20A Si1A 1_555 1_555

#END
