
#######################################################################
#
#                 Cambridge Crystallographic Data Centre
#                                CCDC 
#
#######################################################################
#
# If this CIF has been generated from an entry in the Cambridge 
# Structural Database, then it will include bibliographic, chemical, 
# crystal, experimental, refinement or atomic coordinate data resulting 
# from the CCDC's data processing and validation procedures.
#
#######################################################################

data_VOQGIT
_chemical_formula_moiety         'C18 H14 S2 Si1'
_chemical_name_systematic        
11,11-Dimethyl-11H-[1]benzothieno[2',3':4,5]silolo[3,2-b][1]benzothiophene
_symmetry_cell_setting           tetragonal
_symmetry_space_group_name_H-M   'I 41/a'
_symmetry_Int_Tables_number      88
_space_group_name_Hall           '-I 4ad'
loop_
_symmetry_equiv_pos_site_id
_symmetry_equiv_pos_as_xyz
1 x,y,z
2 1/2-x,-y,1/2+z
3 3/4-y,1/4+x,1/4+z
4 3/4+y,3/4-x,3/4+z
5 1/2+x,1/2+y,1/2+z
6 -x,1/2-y,z
7 1/4-y,3/4+x,3/4+z
8 1/4+y,1/4-x,1/4+z
9 -x,-y,-z
10 1/2+x,y,1/2-z
11 1/4+y,3/4-x,3/4-z
12 1/4-y,1/4+x,1/4-z
13 1/2-x,1/2-y,1/2-z
14 x,1/2+y,-z
15 3/4+y,1/4-x,1/4-z
16 3/4-y,3/4+x,3/4-z
_cell_length_a                   22.468(2)
_cell_length_b                   22.468(2)
_cell_length_c                   13.1835(15)
_cell_angle_alpha                90
_cell_angle_beta                 90
_cell_angle_gamma                90
_cell_volume                     6655.18
_cell_formula_units_Z            16
loop_
_atom_site_label
_atom_site_type_symbol
_atom_site_fract_x
_atom_site_fract_y
_atom_site_fract_z
Si1 Si 0.77528(3) 0.34685(4) 0.08148(7)
S1 S 0.93565(3) 0.37108(4) 0.25238(7)
S2 S 0.95757(4) 0.33386(4) -0.01112(8)
C1 C 0.88275(12) 0.35704(12) 0.1603(2)
C2 C 0.82537(12) 0.36041(12) 0.1933(2)
C3 C 0.84133(13) 0.33788(12) -0.0043(2)
C4 C 0.85604(17) 0.32442(13) -0.1068(3)
C5 C 0.87995(14) 0.38260(14) 0.3417(3)
C6 C 0.82267(13) 0.37545(12) 0.2986(2)
C7 C 0.89140(12) 0.34415(12) 0.0536(3)
C8 C 0.77340(15) 0.38509(15) 0.3615(3)
H1 H 0.7351 0.3808 0.3357
C9 C 0.7815(2) 0.40094(19) 0.4611(3)
H2 H 0.7486 0.4073 0.5023
C10 C 0.91948(18) 0.32161(13) -0.1200(3)
C11 C 0.73133(17) 0.27744(17) 0.0910(3)
H3 H 0.7111 0.2704 0.0280
H4 H 0.7026 0.2812 0.1446
H5 H 0.7574 0.2447 0.1054
C12 C 0.72883(15) 0.41285(17) 0.0519(3)
H6 H 0.7064 0.4055 -0.0088
H7 H 0.7540 0.4469 0.0421
H8 H 0.7020 0.4203 0.1071
C13 C 0.8186(2) 0.31504(15) -0.1895(3)
H9 H 0.7775 0.3159 -0.1811
C14 C 0.9419(3) 0.31093(19) -0.2169(4)
H10 H 0.9828 0.3094 -0.2271
C15 C 0.88750(19) 0.39832(18) 0.4427(3)
H11 H 0.9253 0.4025 0.4704
C16 C 0.9042(3) 0.3028(2) -0.2966(4)
H12 H 0.9200 0.2960 -0.3607
C17 C 0.8430(3) 0.30435(18) -0.2847(3)
H13 H 0.8183 0.2983 -0.3403
C18 C 0.8376(2) 0.4075(2) 0.5005(3)
H14 H 0.8419 0.4183 0.5682
loop_
_geom_bond_atom_site_label_1
_geom_bond_atom_site_label_2
_geom_bond_site_symmetry_1
_geom_bond_site_symmetry_2
Si1 C2 1_555 1_555
S1 C1 1_555 1_555
S2 C7 1_555 1_555
C1 C2 1_555 1_555
C2 C6 1_555 1_555
C3 Si1 1_555 1_555
C4 C3 1_555 1_555
C5 S1 1_555 1_555
C6 C5 1_555 1_555
C7 C1 1_555 1_555
C8 C6 1_555 1_555
H1 C8 1_555 1_555
C9 C8 1_555 1_555
H2 C9 1_555 1_555
C10 S2 1_555 1_555
C11 Si1 1_555 1_555
H3 C11 1_555 1_555
H4 C11 1_555 1_555
H5 C11 1_555 1_555
C12 Si1 1_555 1_555
H6 C12 1_555 1_555
H7 C12 1_555 1_555
H8 C12 1_555 1_555
C13 C4 1_555 1_555
H9 C13 1_555 1_555
C14 C10 1_555 1_555
H10 C14 1_555 1_555
C15 C5 1_555 1_555
H11 C15 1_555 1_555
C16 C14 1_555 1_555
H12 C16 1_555 1_555
C17 C13 1_555 1_555
H13 C17 1_555 1_555
C18 C9 1_555 1_555
H14 C18 1_555 1_555
C3 C7 1_555 1_555
C4 C10 1_555 1_555
C15 C18 1_555 1_555
C16 C17 1_555 1_555

#END
