
#######################################################################
#
#                 Cambridge Crystallographic Data Centre
#                                CCDC 
#
#######################################################################
#
# If this CIF has been generated from an entry in the Cambridge 
# Structural Database, then it will include bibliographic, chemical, 
# crystal, experimental, refinement or atomic coordinate data resulting 
# from the CCDC's data processing and validation procedures.
#
#######################################################################

data_VOQROI
_chemical_compound_source        'whole plant Solanum indicum'
_chemical_name_common            Solafuranone
_chemical_formula_moiety         'C15 H20 O2'
_chemical_name_systematic        
(+)-(R)-5,5-Dimethyl-4-(2,6-dimethylbenzyl)dihydrofuran-2-one
_chemical_properties_biological  
'plant used in Chinese folk medicine as an analgesic in treatment of toothache and for rhinitis, breast cancer and toxin elimination'
_symmetry_cell_setting           orthorhombic
_symmetry_space_group_name_H-M   'P 21 21 21'
_symmetry_Int_Tables_number      19
_space_group_name_Hall           'P 2ac 2ab'
loop_
_symmetry_equiv_pos_site_id
_symmetry_equiv_pos_as_xyz
1 x,y,z
2 1/2-x,-y,1/2+z
3 -x,1/2+y,1/2-z
4 1/2+x,1/2-y,-z
_cell_length_a                   7.4430(10)
_cell_length_b                   11.4550(10)
_cell_length_c                   16.021(2)
_cell_angle_alpha                90
_cell_angle_beta                 90
_cell_angle_gamma                90
_cell_volume                     1365.94
_exptl_crystal_colour            colorless
_exptl_crystal_description       parallelepiped
_chemical_melting_point          132-133deg.C
_cell_formula_units_Z            4
_exptl_crystal_recrystallization_method 'ethyl acetate/hexane'
loop_
_atom_site_label
_atom_site_type_symbol
_atom_site_fract_x
_atom_site_fract_y
_atom_site_fract_z
O1 O -0.0136(3) 0.6644(3) 0.05427(19)
O2 O 0.2014(3) 0.6308(2) 0.14876(16)
C1 C 0.1345(4) 0.6292(3) 0.0699(2)
C2 C 0.2725(4) 0.5794(2) 0.01301(18)
H1 H 0.3388 0.6400 -0.0146
H2 H 0.2169 0.5301 -0.0280
C3 C 0.3924(3) 0.5106(2) 0.07155(17)
H3 H 0.3310 0.4388 0.0834
C4 C 0.3853(4) 0.5825(3) 0.15183(19)
C5 C 0.3975(7) 0.5109(5) 0.2300(2)
H4 H 0.3938 0.5605 0.2782
H5 H 0.2969 0.4585 0.2310
H6 H 0.5072 0.4668 0.2302
C6 C 0.5128(6) 0.6846(4) 0.1537(3)
H7 H 0.5035 0.7274 0.2050
H8 H 0.6333 0.6561 0.1472
H9 H 0.4835 0.7349 0.1077
C7 C 0.5792(4) 0.4775(3) 0.03955(19)
H10 H 0.6477 0.4448 0.0846
H11 H 0.6397 0.5466 0.0206
C8 C 0.5687(3) 0.3904(3) -0.03097(17)
C9 C 0.5878(5) 0.4291(4) -0.1136(2)
C10 C 0.5655(7) 0.3532(7) -0.1772(3)
H12 H 0.5773 0.3788 -0.2340
C11 C 0.5220(6) 0.2390(7) -0.1631(4)
H13 H 0.5040 0.1857 -0.2086
C12 C 0.5090(5) 0.1969(4) -0.0805(4)
H14 H 0.4806 0.1166 -0.0695
C13 C 0.5341(4) 0.2724(3) -0.0128(2)
C14 C 0.6357(9) 0.5510(5) -0.1355(3)
H15 H 0.6417 0.5595 -0.1951
H16 H 0.5470 0.6034 -0.1135
H17 H 0.7507 0.5688 -0.1116
C15 C 0.5266(5) 0.2261(3) 0.0745(3)
H18 H 0.5473 0.2888 0.1130
H19 H 0.4093 0.1939 0.0838
H20 H 0.6157 0.1666 0.0826
loop_
_geom_bond_atom_site_label_1
_geom_bond_atom_site_label_2
_geom_bond_site_symmetry_1
_geom_bond_site_symmetry_2
O1 C1 1_555 1_555
O2 C1 1_555 1_555
C1 C2 1_555 1_555
C2 H1 1_555 1_555
H2 C2 1_555 1_555
C3 C2 1_555 1_555
H3 C3 1_555 1_555
C4 O2 1_555 1_555
C5 C4 1_555 1_555
H4 C5 1_555 1_555
H5 C5 1_555 1_555
H6 C5 1_555 1_555
C6 C4 1_555 1_555
H7 C6 1_555 1_555
H8 C6 1_555 1_555
H9 C6 1_555 1_555
C7 C3 1_555 1_555
H10 C7 1_555 1_555
H11 C7 1_555 1_555
C8 C7 1_555 1_555
C9 C8 1_555 1_555
C10 C9 1_555 1_555
H12 C10 1_555 1_555
C11 C10 1_555 1_555
H13 C11 1_555 1_555
C12 C11 1_555 1_555
H14 C12 1_555 1_555
C13 C8 1_555 1_555
C14 C9 1_555 1_555
H15 C14 1_555 1_555
H16 C14 1_555 1_555
H17 C14 1_555 1_555
C15 C13 1_555 1_555
H18 C15 1_555 1_555
H19 C15 1_555 1_555
H20 C15 1_555 1_555
C3 C4 1_555 1_555
C12 C13 1_555 1_555

#END
