
#######################################################################
#
#                 Cambridge Crystallographic Data Centre
#                                CCDC 
#
#######################################################################
#
# If this CIF has been generated from an entry in the Cambridge 
# Structural Database, then it will include bibliographic, chemical, 
# crystal, experimental, refinement or atomic coordinate data resulting 
# from the CCDC's data processing and validation procedures.
#
#######################################################################

data_VOQTOL
_chemical_formula_moiety         'C15 H15 N3 O2 S1,H2 O1'
_chemical_name_systematic        
'Ethyl 6-methylsulfanyl-2-phenyl-1H-imidazo[1,2-b]pyrazole-7-carboxylate monohydrate'
_symmetry_cell_setting           orthorhombic
_symmetry_space_group_name_H-M   'P n a 21'
_symmetry_Int_Tables_number      33
_space_group_name_Hall           'P 2c -2n'
loop_
_symmetry_equiv_pos_site_id
_symmetry_equiv_pos_as_xyz
1 x,y,z
2 -x,-y,1/2+z
3 1/2+x,1/2-y,z
4 1/2-x,1/2+y,1/2+z
_cell_length_a                   19.017(2)
_cell_length_b                   5.4854(7)
_cell_length_c                   15.2314(18)
_cell_angle_alpha                90
_cell_angle_beta                 90
_cell_angle_gamma                90
_cell_volume                     1588.88
_exptl_crystal_colour            colorless
_exptl_crystal_description       block
_cell_formula_units_Z            4
_exptl_crystal_recrystallization_method 
'dichloromethane/ethyl acetate/petroleum ether'
loop_
_atom_site_label
_atom_site_type_symbol
_atom_site_fract_x
_atom_site_fract_y
_atom_site_fract_z
S1 S 0.09788(5) -0.14517(15) 0.84062(6)
O1 O 0.15780(12) 0.2624(4) 0.58697(15)
O2 O 0.09476(11) -0.0245(4) 0.65679(14)
N1 N 0.25532(13) 0.5824(4) 0.73178(16)
H3 H 0.2568 0.6315 0.6782
N2 N 0.22812(12) 0.3832(5) 0.84912(16)
N3 N 0.19001(14) 0.2003(5) 0.88960(15)
C1 C 0.34450(18) 1.0192(6) 0.7130(2)
H4 H 0.3120 0.9869 0.6689
C2 C 0.3920(2) 1.2072(6) 0.7024(2)
H5 H 0.3909 1.3011 0.6516
C3 C 0.4406(2) 1.2562(7) 0.7662(3)
H6 H 0.4727 1.3824 0.7588
C4 C 0.4416(2) 1.1188(7) 0.8405(3)
H7 H 0.4748 1.1508 0.8838
C5 C 0.39376(19) 0.9320(6) 0.8522(3)
H8 H 0.3947 0.8413 0.9038
C6 C 0.34440(16) 0.8779(6) 0.7882(2)
C7 C 0.29409(17) 0.6804(5) 0.8010(2)
C8 C 0.27674(16) 0.5545(6) 0.8748(2)
H9 H 0.2942 0.5792 0.9312
C9 C 0.21516(17) 0.3985(6) 0.76236(19)
C10 C 0.15369(15) 0.1013(5) 0.8233(2)
C11 C 0.16699(17) 0.2151(5) 0.7410(2)
C12 C 0.14107(16) 0.1594(6) 0.6547(2)
C13 C 0.0647(2) -0.1008(7) 0.5744(2)
H10 H 0.1009 -0.1654 0.5360
H11 H 0.0422 0.0358 0.5452
C14 C 0.0120(2) -0.2929(7) 0.5953(3)
H12 H -0.0095 -0.3494 0.5421
H13 H -0.0235 -0.2265 0.6333
H14 H 0.0349 -0.4267 0.6242
C15 C 0.1101(2) -0.1931(7) 0.9562(3)
H15 H 0.0816 -0.3276 0.9751
H16 H 0.0966 -0.0488 0.9876
H17 H 0.1587 -0.2285 0.9677
O3 O 0.2436(2) 0.6611(6) 0.55376(16)
H1 H 0.275(3) 0.647(9) 0.502(4)
H2 H 0.223(3) 0.523(10) 0.551(3)
loop_
_geom_bond_atom_site_label_1
_geom_bond_atom_site_label_2
_geom_bond_site_symmetry_1
_geom_bond_site_symmetry_2
S1 C10 1_555 1_555
O1 C12 1_555 1_555
O2 C12 1_555 1_555
O3 H1 1_555 1_555
H2 O3 1_555 1_555
N1 H3 1_555 1_555
N2 N3 1_555 1_555
N3 C10 1_555 1_555
C1 H4 1_555 1_555
C2 C1 1_555 1_555
H5 C2 1_555 1_555
C3 C2 1_555 1_555
H6 C3 1_555 1_555
C4 C3 1_555 1_555
H7 C4 1_555 1_555
C5 C4 1_555 1_555
H8 C5 1_555 1_555
C6 C1 1_555 1_555
C7 N1 1_555 1_555
C8 N2 1_555 1_555
H9 C8 1_555 1_555
C9 N1 1_555 1_555
C10 C11 1_555 1_555
C11 C9 1_555 1_555
C12 C11 1_555 1_555
C13 O2 1_555 1_555
H10 C13 1_555 1_555
H11 C13 1_555 1_555
C14 C13 1_555 1_555
H12 C14 1_555 1_555
H13 C14 1_555 1_555
H14 C14 1_555 1_555
C15 S1 1_555 1_555
H15 C15 1_555 1_555
H16 C15 1_555 1_555
H17 C15 1_555 1_555
N2 C9 1_555 1_555
C5 C6 1_555 1_555
C6 C7 1_555 1_555
C7 C8 1_555 1_555

#END
