
#######################################################################
#
#                 Cambridge Crystallographic Data Centre
#                                CCDC 
#
#######################################################################
#
# If this CIF has been generated from an entry in the Cambridge 
# Structural Database, then it will include bibliographic, chemical, 
# crystal, experimental, refinement or atomic coordinate data resulting 
# from the CCDC's data processing and validation procedures.
#
#######################################################################

data_VOQVUT
_chemical_name_common            2-Mesityl-1,10-phenanthroline
_chemical_formula_moiety         'C21 H18 N2'
_chemical_name_systematic        2-(2,4,6-Trimethylphenyl)-1,10-phenanthroline
_symmetry_cell_setting           monoclinic
_symmetry_space_group_name_H-M   'P 21/c'
_symmetry_Int_Tables_number      14
_space_group_name_Hall           '-P 2ybc'
loop_
_symmetry_equiv_pos_site_id
_symmetry_equiv_pos_as_xyz
1 x,y,z
2 -x,1/2+y,1/2-z
3 -x,-y,-z
4 x,1/2-y,1/2+z
_cell_length_a                   14.5778(19)
_cell_length_b                   8.9877(11)
_cell_length_c                   13.5790(11)
_cell_angle_alpha                90
_cell_angle_beta                 112.166(4)
_cell_angle_gamma                90
_cell_volume                     1647.65
_exptl_crystal_colour            colorless
_exptl_crystal_description       block
_cell_formula_units_Z            4
_exptl_crystal_recrystallization_method 'ethyl acetate'
loop_
_atom_site_label
_atom_site_type_symbol
_atom_site_fract_x
_atom_site_fract_y
_atom_site_fract_z
N1 N 0.09525(12) 0.20234(19) 0.35983(13)
N2 N 0.23560(10) 0.39234(16) 0.49200(11)
C1 C 0.02762(16) 0.1138(3) 0.29282(19)
H1 H -0.0102 0.0559 0.3200
C2 C 0.00892(17) 0.1011(3) 0.18436(19)
H2 H -0.0401 0.0373 0.1414
C3 C 0.06359(15) 0.1835(3) 0.14320(17)
H3 H 0.0527 0.1771 0.0713
C4 C 0.13668(13) 0.2784(2) 0.21015(14)
C5 C 0.19644(15) 0.3666(2) 0.17047(15)
H4 H 0.1874 0.3607 0.0990
C6 C 0.26533(15) 0.4579(2) 0.23519(16)
H5 H 0.3030 0.5157 0.2077
C7 C 0.28227(13) 0.4683(2) 0.34577(14)
C8 C 0.35443(15) 0.5618(2) 0.41600(16)
H6 H 0.3941 0.6200 0.3915
C9 C 0.36619(15) 0.5671(2) 0.52044(16)
H7 H 0.4153 0.6266 0.5679
C10 C 0.30418(13) 0.4828(2) 0.55576(14)
C11 C 0.22481(12) 0.38370(19) 0.38836(13)
C12 C 0.14971(12) 0.2850(2) 0.31808(14)
C13 C 0.31208(14) 0.4929(2) 0.66863(14)
C14 C 0.38347(14) 0.4096(2) 0.74841(16)
C15 C 0.38632(16) 0.4189(3) 0.85174(16)
H8 H 0.4337 0.3638 0.9048
C16 C 0.32177(18) 0.5063(3) 0.87862(16)
C17 C 0.25303(17) 0.5879(2) 0.79860(17)
H9 H 0.2094 0.6485 0.8156
C18 C 0.24611(15) 0.5836(2) 0.69393(16)
C19 C 0.45479(16) 0.3098(3) 0.72337(19)
H10 H 0.4980 0.2623 0.7874
H11 H 0.4933 0.3679 0.6937
H12 H 0.4185 0.2354 0.6730
C20 C 0.16739(18) 0.6713(3) 0.6093(2)
H13 H 0.1293 0.7268 0.6409
H14 H 0.1246 0.6045 0.5568
H15 H 0.1980 0.7387 0.5761
C21 C 0.3232(2) 0.5084(3) 0.99054(18)
H16 H 0.3756 0.4453 1.0352
H17 H 0.2609 0.4729 0.9900
H18 H 0.3341 0.6083 1.0175
loop_
_geom_bond_atom_site_label_1
_geom_bond_atom_site_label_2
_geom_bond_site_symmetry_1
_geom_bond_site_symmetry_2
N1 C1 1_555 1_555
N2 C10 1_555 1_555
C1 H1 1_555 1_555
C2 C1 1_555 1_555
H2 C2 1_555 1_555
C3 C2 1_555 1_555
H3 C3 1_555 1_555
C4 C3 1_555 1_555
C5 C4 1_555 1_555
H4 C5 1_555 1_555
C6 C5 1_555 1_555
H5 C6 1_555 1_555
C7 C6 1_555 1_555
C8 C7 1_555 1_555
H6 C8 1_555 1_555
C9 C8 1_555 1_555
H7 C9 1_555 1_555
C10 C9 1_555 1_555
C11 N2 1_555 1_555
C12 N1 1_555 1_555
C13 C10 1_555 1_555
C14 C13 1_555 1_555
C15 C14 1_555 1_555
H8 C15 1_555 1_555
C16 C15 1_555 1_555
C17 C16 1_555 1_555
H9 C17 1_555 1_555
C18 C13 1_555 1_555
C19 C14 1_555 1_555
H10 C19 1_555 1_555
H11 C19 1_555 1_555
H12 C19 1_555 1_555
C20 C18 1_555 1_555
H13 C20 1_555 1_555
H14 C20 1_555 1_555
H15 C20 1_555 1_555
C21 C16 1_555 1_555
H16 C21 1_555 1_555
H17 C21 1_555 1_555
H18 C21 1_555 1_555
C4 C12 1_555 1_555
C7 C11 1_555 1_555
C11 C12 1_555 1_555
C17 C18 1_555 1_555

#END
