
#######################################################################
#
#                 Cambridge Crystallographic Data Centre
#                                CCDC 
#
#######################################################################
#
# If this CIF has been generated from an entry in the Cambridge 
# Structural Database, then it will include bibliographic, chemical, 
# crystal, experimental, refinement or atomic coordinate data resulting 
# from the CCDC's data processing and validation procedures.
#
#######################################################################

data_VOQWII
_chemical_formula_moiety         'C18 H17 N1 O4'
_chemical_name_systematic        
'2-[2-Hydroxy-4-(pyrrolidin-1-yl)benzoyl]benzoic acid'
_symmetry_cell_setting           triclinic
_symmetry_space_group_name_H-M   'P -1'
_symmetry_Int_Tables_number      2
_space_group_name_Hall           '-P 1'
loop_
_symmetry_equiv_pos_site_id
_symmetry_equiv_pos_as_xyz
1 x,y,z
2 -x,-y,-z
_cell_length_a                   10.841(2)
_cell_length_b                   11.878(2)
_cell_length_c                   13.781(3)
_cell_angle_alpha                71.70(3)
_cell_angle_beta                 82.05(3)
_cell_angle_gamma                65.17(3)
_cell_volume                     1529.03
_exptl_crystal_colour            colorless
_exptl_crystal_description       block
_cell_formula_units_Z            4
_exptl_crystal_recrystallization_method water/methanol
loop_
_atom_site_label
_atom_site_type_symbol
_atom_site_fract_x
_atom_site_fract_y
_atom_site_fract_z
O1 O 0.45366(12) 0.59128(10) 1.11419(8)
H1 H 0.443(2) 0.6119(18) 1.1774(14)
O2 O 0.40164(12) 0.71748(10) 1.24448(8)
O3 O 0.09923(13) 0.84631(12) 1.27107(8)
O4 O 0.10829(15) 0.86955(13) 1.42445(9)
H2 H 0.053(2) 0.829(2) 1.4387(16)
N1 N 0.34912(15) 0.82293(12) 0.76564(9)
C1 C 0.3095(2) 0.94066(17) 0.67866(12)
H5 H 0.3482 1.0003 0.6846
H6 H 0.2094 0.9865 0.6733
C2 C 0.3704(3) 0.88786(19) 0.58723(14)
H7 H 0.3169 0.9446 0.5246
H8 H 0.4658 0.8789 0.5746
C3 C 0.3620(2) 0.75708(18) 0.62026(13)
H9 H 0.4273 0.6993 0.5812
H10 H 0.2692 0.7660 0.6107
C4 C 0.3988(2) 0.70541(15) 0.73310(12)
H11 H 0.3530 0.6478 0.7715
H12 H 0.4982 0.6575 0.7425
C5 C 0.34975(16) 0.82278(15) 0.86414(11)
C6 C 0.29963(17) 0.94070(14) 0.89045(11)
H13 H 0.2632 1.0209 0.8390
C7 C 0.30356(16) 0.93921(14) 0.98950(11)
H14 H 0.2693 1.0193 1.0053
C8 C 0.35634(16) 0.82382(14) 1.06903(11)
C9 C 0.40463(16) 0.70647(14) 1.04206(11)
C10 C 0.40242(16) 0.70541(14) 0.94228(11)
H15 H 0.4365 0.6254 0.9263
C11 C 0.35830(16) 0.82146(14) 1.17426(11)
C12 C 0.31291(16) 0.94406(14) 1.20471(11)
C13 C 0.37622(17) 1.02936(15) 1.16136(12)
H16 H 0.4382 1.0162 1.1060
C14 C 0.34921(18) 1.13357(15) 1.19853(13)
H17 H 0.3918 1.1919 1.1679
C15 C 0.26080(19) 1.15270(16) 1.27972(13)
H18 H 0.2442 1.2230 1.3058
C16 C 0.19610(18) 1.06921(15) 1.32333(12)
H19 H 0.1347 1.0829 1.3789
C17 C 0.22088(17) 0.96580(15) 1.28596(11)
C18 C 0.13923(17) 0.88714(15) 1.32972(11)
O5 O 0.67090(12) 0.78113(10) 0.09493(8)
H3 H 0.653(2) 0.8114(19) 0.1531(15)
O6 O 0.66160(12) 0.79633(10) 0.27761(8)
O7 O 0.93501(12) 0.72631(11) 0.34563(8)
H4 H 0.9825(18) 0.7726(17) 0.3252(14)
O8 O 0.94767(13) 0.74504(12) 0.49982(8)
N2 N 0.90372(15) 0.36958(13) 0.03616(10)
C19 C 0.9822(5) 0.2294(2) 0.0686(2)
H20 H 0.9480 0.1890 0.1347
H21 H 1.0797 0.2085 0.0755
C20 C 0.9604(2) 0.1837(2) -0.01711(17)
H22 H 0.8789 0.1633 -0.0039
H23 H 1.0406 0.1065 -0.0258
C21 C 0.9410(3) 0.3008(3) -0.1104(2)
H24 H 1.0300 0.2986 -0.1406
H25 H 0.8867 0.3016 -0.1630
C22 C 0.8662(2) 0.42004(18) -0.07185(12)
H26 H 0.8965 0.4877 -0.1071
H27 H 0.7697 0.4524 -0.0797
C23 C 0.86444(17) 0.44414(15) 0.10045(11)
C24 C 0.90176(18) 0.38879(15) 0.20557(11)
H28 H 0.9581 0.2993 0.2301
C25 C 0.85731(17) 0.46321(14) 0.27076(11)
H29 H 0.8821 0.4238 0.3407
C26 C 0.77521(16) 0.59747(14) 0.23827(11)
C27 C 0.74369(16) 0.65237(14) 0.13248(11)
C28 C 0.78626(17) 0.57779(15) 0.06598(11)
H30 H 0.7625 0.6171 -0.0041
C29 C 0.72606(16) 0.67720(14) 0.30674(11)
C30 C 0.74358(16) 0.61217(14) 0.42053(11)
C31 C 0.67243(18) 0.53419(16) 0.46469(12)
H31 H 0.6218 0.5196 0.4225
C32 C 0.67458(18) 0.47761(17) 0.56943(13)
H32 H 0.6259 0.4243 0.5985
C33 C 0.74738(18) 0.49875(16) 0.63124(12)
H33 H 0.7481 0.4608 0.7031
C34 C 0.81990(17) 0.57562(15) 0.58857(11)
H34 H 0.8701 0.5898 0.6315
C35 C 0.81935(17) 0.63226(14) 0.48276(11)
C36 C 0.90522(16) 0.70674(14) 0.43999(11)
C37? C 0.967(4) 0.2271(10) 0.0567(12)
C38? C 1.0060(14) 0.2181(13) -0.0526(10)
C39? C 0.903(2) 0.3222(14) -0.1313(13)
H35? H 0.9022 0.1871 0.0880
H36? H 1.0482 0.1871 0.1009
H37? H 1.0950 0.2245 -0.0703
H38? H 1.0166 0.1323 -0.0556
H39? H 0.8261 0.3005 -0.1377
H40? H 0.9437 0.3472 -0.1991
H41? H 0.9083 0.4791 -0.1054
H42? H 0.7696 0.4691 -0.0761
loop_
_geom_bond_atom_site_label_1
_geom_bond_atom_site_label_2
_geom_bond_site_symmetry_1
_geom_bond_site_symmetry_2
O1 H1 1_555 1_555
O2 C11 1_555 1_555
O3 C18 1_555 1_555
O4 H2 1_555 1_555
O5 H3 1_555 1_555
O6 C29 1_555 1_555
O7 H4 1_555 1_555
O8 C36 1_555 1_555
N1 C1 1_555 1_555
N2 C19 1_555 1_555
C1 H5 1_555 1_555
H6 C1 1_555 1_555
C2 C1 1_555 1_555
H7 C2 1_555 1_555
H8 C2 1_555 1_555
C3 C2 1_555 1_555
H9 C3 1_555 1_555
H10 C3 1_555 1_555
C4 N1 1_555 1_555
H11 C4 1_555 1_555
H12 C4 1_555 1_555
C5 N1 1_555 1_555
C6 C5 1_555 1_555
H13 C6 1_555 1_555
C7 C6 1_555 1_555
H14 C7 1_555 1_555
C8 C7 1_555 1_555
C9 O1 1_555 1_555
C10 C5 1_555 1_555
H15 C10 1_555 1_555
C11 C8 1_555 1_555
C12 C11 1_555 1_555
C13 C12 1_555 1_555
H16 C13 1_555 1_555
C14 C13 1_555 1_555
H17 C14 1_555 1_555
C15 C14 1_555 1_555
H18 C15 1_555 1_555
C16 C15 1_555 1_555
H19 C16 1_555 1_555
C17 C12 1_555 1_555
C18 O4 1_555 1_555
C19 H20 1_555 1_555
H21 C19 1_555 1_555
C20 C19 1_555 1_555
H22 C20 1_555 1_555
H23 C20 1_555 1_555
C21 C20 1_555 1_555
H24 C21 1_555 1_555
H25 C21 1_555 1_555
C22 N2 1_555 1_555
H26 C22 1_555 1_555
H27 C22 1_555 1_555
C23 N2 1_555 1_555
C24 C23 1_555 1_555
H28 C24 1_555 1_555
C25 C24 1_555 1_555
H29 C25 1_555 1_555
C26 C25 1_555 1_555
C27 O5 1_555 1_555
C28 C23 1_555 1_555
H30 C28 1_555 1_555
C29 C26 1_555 1_555
C30 C29 1_555 1_555
C31 C30 1_555 1_555
H31 C31 1_555 1_555
C32 C31 1_555 1_555
H32 C32 1_555 1_555
C33 C32 1_555 1_555
H33 C33 1_555 1_555
C34 C33 1_555 1_555
H34 C34 1_555 1_555
C35 C30 1_555 1_555
C36 O7 1_555 1_555
C3 C4 1_555 1_555
C8 C9 1_555 1_555
C9 C10 1_555 1_555
C16 C17 1_555 1_555
C17 C18 1_555 1_555
C21 C22 1_555 1_555
C26 C27 1_555 1_555
C27 C28 1_555 1_555
C34 C35 1_555 1_555
C35 C36 1_555 1_555

#END
