
#######################################################################
#
#                 Cambridge Crystallographic Data Centre
#                                CCDC 
#
#######################################################################
#
# If this CIF has been generated from an entry in the Cambridge 
# Structural Database, then it will include bibliographic, chemical, 
# crystal, experimental, refinement or atomic coordinate data resulting 
# from the CCDC's data processing and validation procedures.
#
#######################################################################

data_VOQYAC
_chemical_formula_moiety         'C17 H19 N1 O4'
_chemical_name_systematic        
4-(2,3,4-Trimethoxy-6-methylbenzylideneamino)phenol
_symmetry_cell_setting           orthorhombic
_symmetry_space_group_name_H-M   'P b c a'
_symmetry_Int_Tables_number      61
_space_group_name_Hall           '-P 2ac 2ab'
loop_
_symmetry_equiv_pos_site_id
_symmetry_equiv_pos_as_xyz
1 x,y,z
2 1/2-x,-y,1/2+z
3 -x,1/2+y,1/2-z
4 1/2+x,1/2-y,-z
5 -x,-y,-z
6 1/2+x,y,1/2-z
7 x,1/2-y,1/2+z
8 1/2-x,1/2+y,z
_cell_length_a                   20.045(2)
_cell_length_b                   13.2042(19)
_cell_length_c                   24.253(3)
_cell_angle_alpha                90
_cell_angle_beta                 90
_cell_angle_gamma                90
_cell_volume                     6419.24
_exptl_crystal_colour            'light yellow'
_exptl_crystal_description       block
_cell_formula_units_Z            16
loop_
_atom_site_label
_atom_site_type_symbol
_atom_site_fract_x
_atom_site_fract_y
_atom_site_fract_z
N1 N 0.09178(18) 0.5134(3) 0.75088(16)
O1 O 0.18197(15) 0.3410(2) 0.65385(12)
O2 O 0.21163(16) 0.1364(2) 0.67521(14)
O3 O 0.20521(18) 0.0660(3) 0.77778(15)
O4 O 0.03160(18) 0.9210(3) 0.71702(15)
H1 H -0.0089 0.9295 0.7151
C1 C 0.1457(2) 0.4734(4) 0.73373(18)
H3 H 0.1741 0.5109 0.7114
C2 C 0.1638(2) 0.3693(4) 0.74853(18)
C3 C 0.1825(2) 0.3028(4) 0.70673(18)
C4 C 0.1949(2) 0.2018(4) 0.71691(19)
C5 C 0.1922(2) 0.1671(4) 0.7710(2)
C6 C 0.1770(2) 0.2326(4) 0.8130(2)
H4 H 0.1768 0.2089 0.8492
C7 C 0.1621(2) 0.3331(4) 0.80274(19)
C8 C 0.2416(3) 0.3325(5) 0.6226(2)
H5 H 0.2794 0.3402 0.6466
H6 H 0.2425 0.3843 0.5949
H7 H 0.2433 0.2672 0.6053
C9 C 0.1551(3) 0.0923(5) 0.6491(3)
H8 H 0.1323 0.0492 0.6748
H9 H 0.1693 0.0531 0.6179
H10 H 0.1255 0.1450 0.6370
C10 C 0.1876(4) 0.0206(5) 0.8287(3)
H11 H 0.2147 0.0485 0.8576
H12 H 0.1947 -0.0512 0.8266
H13 H 0.1414 0.0339 0.8364
C11 C 0.1440(3) 0.4002(5) 0.8507(2)
H14 H 0.0965 0.4002 0.8556
H15 H 0.1590 0.4680 0.8436
H16 H 0.1650 0.3753 0.8836
C12 C 0.0783(2) 0.6174(4) 0.73988(19)
C13 C 0.1269(2) 0.6905(4) 0.7358(2)
H17 H 0.1716 0.6720 0.7382
C14 C 0.1104(3) 0.7909(4) 0.7282(2)
H18 H 0.1441 0.8392 0.7259
C15 C 0.0449(3) 0.8208(4) 0.7239(2)
C16 C -0.0032(2) 0.7480(4) 0.7281(2)
H19 H -0.0479 0.7663 0.7253
C17 C 0.0131(2) 0.6478(4) 0.7362(2)
H20 H -0.0207 0.6000 0.7393
N2 N 0.16453(19) 1.0602(3) 0.98602(16)
O5 O 0.05416(18) 0.9042(3) 0.89798(14)
O6 O 0.01757(18) 0.6985(3) 0.91633(14)
O7 O 0.03635(17) 0.6176(2) 1.01429(15)
O8 O 0.20925(18) 1.4749(3) 0.99430(17)
H2 H 0.2482 1.4885 0.9871
C18 C 0.1073(2) 1.0219(4) 0.97645(19)
H21 H 0.0744 1.0626 0.9611
C19 C 0.0916(2) 0.9151(3) 0.98894(19)
C20 C 0.0615(2) 0.8572(4) 0.94810(19)
C21 C 0.0456(2) 0.7570(4) 0.9569(2)
C22 C 0.0562(2) 0.7160(4) 1.0086(2)
C23 C 0.0853(2) 0.7717(4) 1.0497(2)
H22 H 0.0921 0.7426 1.0842
C24 C 0.1049(2) 0.8722(4) 1.0404(2)
C25 C -0.0055(3) 0.8951(6) 0.8685(3)
H23 H -0.0030 0.8376 0.8444
H24 H -0.0126 0.9553 0.8471
H25 H -0.0419 0.8864 0.8938
C26 C 0.0659(3) 0.6435(5) 0.8855(3)
H26 H 0.0944 0.6900 0.8663
H27 H 0.0437 0.6005 0.8593
H28 H 0.0921 0.6027 0.9100
C27 C 0.0461(3) 0.5706(4) 1.0661(2)
H29 H 0.0929 0.5695 1.0747
H30 H 0.0294 0.5025 1.0648
H31 H 0.0226 0.6079 1.0940
C28 C 0.1402(3) 0.9258(4) 1.0866(2)
H32 H 0.1876 0.9187 1.0820
H33 H 0.1270 0.8966 1.1212
H34 H 0.1286 0.9963 1.0861
C29 C 0.1736(2) 1.1670(3) 0.98294(18)
C30 C 0.2359(2) 1.2045(4) 0.9702(2)
H35 H 0.2698 1.1602 0.9601
C31 C 0.2483(2) 1.3071(4) 0.9724(2)
H36 H 0.2901 1.3317 0.9625
C32 C 0.1995(2) 1.3735(4) 0.9891(2)
C33 C 0.1365(2) 1.3370(4) 1.0002(2)
H37 H 0.1025 1.3815 1.0096
C34 C 0.1242(2) 1.2354(4) 0.9973(2)
H38 H 0.0816 1.2116 1.0052
loop_
_geom_bond_atom_site_label_1
_geom_bond_atom_site_label_2
_geom_bond_site_symmetry_1
_geom_bond_site_symmetry_2
N1 C1 1_555 1_555
N2 C18 1_555 1_555
O1 C3 1_555 1_555
O2 C4 1_555 1_555
O3 C5 1_555 1_555
O4 H1 1_555 1_555
O5 C20 1_555 1_555
O6 C21 1_555 1_555
O7 C22 1_555 1_555
O8 H2 1_555 1_555
C1 H3 1_555 1_555
C2 C1 1_555 1_555
C3 C2 1_555 1_555
C4 C3 1_555 1_555
C5 C4 1_555 1_555
C6 C5 1_555 1_555
H4 C6 1_555 1_555
C7 C2 1_555 1_555
C8 O1 1_555 1_555
H5 C8 1_555 1_555
H6 C8 1_555 1_555
H7 C8 1_555 1_555
C9 O2 1_555 1_555
H8 C9 1_555 1_555
H9 C9 1_555 1_555
H10 C9 1_555 1_555
C10 O3 1_555 1_555
H11 C10 1_555 1_555
H12 C10 1_555 1_555
H13 C10 1_555 1_555
C11 C7 1_555 1_555
H14 C11 1_555 1_555
H15 C11 1_555 1_555
H16 C11 1_555 1_555
C12 N1 1_555 1_555
C13 C12 1_555 1_555
H17 C13 1_555 1_555
C14 C13 1_555 1_555
H18 C14 1_555 1_555
C15 O4 1_555 1_555
C16 C15 1_555 1_555
H19 C16 1_555 1_555
C17 C12 1_555 1_555
H20 C17 1_555 1_555
C18 H21 1_555 1_555
C19 C18 1_555 1_555
C20 C19 1_555 1_555
C21 C20 1_555 1_555
C22 C21 1_555 1_555
C23 C22 1_555 1_555
H22 C23 1_555 1_555
C24 C19 1_555 1_555
C25 O5 1_555 1_555
H23 C25 1_555 1_555
H24 C25 1_555 1_555
H25 C25 1_555 1_555
C26 O6 1_555 1_555
H26 C26 1_555 1_555
H27 C26 1_555 1_555
H28 C26 1_555 1_555
C27 O7 1_555 1_555
H29 C27 1_555 1_555
H30 C27 1_555 1_555
H31 C27 1_555 1_555
C28 C24 1_555 1_555
H32 C28 1_555 1_555
H33 C28 1_555 1_555
H34 C28 1_555 1_555
C29 N2 1_555 1_555
C30 C29 1_555 1_555
H35 C30 1_555 1_555
C31 C30 1_555 1_555
H36 C31 1_555 1_555
C32 O8 1_555 1_555
C33 C32 1_555 1_555
H37 C33 1_555 1_555
C34 C29 1_555 1_555
H38 C34 1_555 1_555
C6 C7 1_555 1_555
C14 C15 1_555 1_555
C16 C17 1_555 1_555
C23 C24 1_555 1_555
C31 C32 1_555 1_555
C33 C34 1_555 1_555

#END
