
#######################################################################
#
#                 Cambridge Crystallographic Data Centre
#                                CCDC 
#
#######################################################################
#
# If this CIF has been generated from an entry in the Cambridge 
# Structural Database, then it will include bibliographic, chemical, 
# crystal, experimental, refinement or atomic coordinate data resulting 
# from the CCDC's data processing and validation procedures.
#
#######################################################################

data_VOQZAD
_chemical_formula_moiety         'C16 H14 Cl1 N1 O1 S1'
_chemical_name_systematic        
2-(4-Chlorophenyl)-3-p-tolyl-1,3-thiazolidin-4-one
_chemical_properties_biological  'antibacterial activity'
_symmetry_cell_setting           orthorhombic
_symmetry_space_group_name_H-M   'P b c a'
_symmetry_Int_Tables_number      61
_space_group_name_Hall           '-P 2ac 2ab'
loop_
_symmetry_equiv_pos_site_id
_symmetry_equiv_pos_as_xyz
1 x,y,z
2 1/2-x,-y,1/2+z
3 -x,1/2+y,1/2-z
4 1/2+x,1/2-y,-z
5 -x,-y,-z
6 1/2+x,y,1/2-z
7 x,1/2-y,1/2+z
8 1/2-x,1/2+y,z
_cell_length_a                   12.1591(4)
_cell_length_b                   13.0708(4)
_cell_length_c                   18.5125(7)
_cell_angle_alpha                90
_cell_angle_beta                 90
_cell_angle_gamma                90
_cell_volume                     2942.18
_exptl_crystal_colour            colorless
_exptl_crystal_description       plate
_cell_formula_units_Z            8
_exptl_crystal_recrystallization_method ethanol
loop_
_atom_site_label
_atom_site_type_symbol
_atom_site_fract_x
_atom_site_fract_y
_atom_site_fract_z
C1 C 0.66878(17) 0.93240(14) 0.34463(11)
H1 H 0.6105 0.9535 0.3112
C2 C 0.85314(18) 0.96718(14) 0.30086(12)
C3 C 0.83681(18) 1.05986(15) 0.34764(13)
H2 H 0.8310 1.1207 0.3179
H3 H 0.8990 1.0681 0.3800
C4 C 0.62581(16) 0.85053(14) 0.39467(11)
C5 C 0.69556(17) 0.79865(16) 0.44122(12)
H4 H 0.7708 0.8112 0.4391
C6 C 0.65582(18) 0.72901(15) 0.49046(12)
H5 H 0.7033 0.6949 0.5217
C7 C 0.54441(18) 0.71086(15) 0.49257(12)
C8 C 0.47397(18) 0.75886(19) 0.44628(14)
H6 H 0.3990 0.7448 0.4478
C9 C 0.51497(18) 0.82863(18) 0.39704(13)
H7 H 0.4673 0.8611 0.3652
C10 C 0.76107(17) 0.81131(14) 0.25927(11)
C11 C 0.84795(18) 0.74324(15) 0.25858(13)
H8 H 0.9090 0.7546 0.2877
C12 C 0.8436(2) 0.65774(16) 0.21407(14)
H9 H 0.9030 0.6130 0.2130
C13 C 0.7532(2) 0.63756(16) 0.17140(12)
C14 C 0.6660(2) 0.70546(16) 0.17427(12)
H10 H 0.6037 0.6929 0.1465
C15 C 0.66950(18) 0.79175(15) 0.21761(12)
H11 H 0.6101 0.8365 0.2186
C16 C 0.7492(3) 0.54493(19) 0.12222(16)
H12 H 0.8176 0.5085 0.1252
H13 H 0.7372 0.5668 0.0733
H14 H 0.6902 0.5008 0.1370
Cl1 Cl 0.49492(5) 0.62309(5) 0.55527(4)
N1 N 0.76603(13) 0.90125(11) 0.30369(9)
O1 O 0.93527(13) 0.95428(11) 0.26448(9)
S1 S 0.71335(6) 1.04265(4) 0.39863(3)
loop_
_geom_bond_atom_site_label_1
_geom_bond_atom_site_label_2
_geom_bond_site_symmetry_1
_geom_bond_site_symmetry_2
C1 H1 1_555 1_555
C2 C3 1_555 1_555
C3 H2 1_555 1_555
H3 C3 1_555 1_555
C4 C1 1_555 1_555
C5 C4 1_555 1_555
H4 C5 1_555 1_555
C6 C5 1_555 1_555
H5 C6 1_555 1_555
C7 C6 1_555 1_555
C8 C7 1_555 1_555
H6 C8 1_555 1_555
C9 C4 1_555 1_555
H7 C9 1_555 1_555
C10 C11 1_555 1_555
C11 H8 1_555 1_555
C12 C11 1_555 1_555
H9 C12 1_555 1_555
C13 C12 1_555 1_555
C14 C13 1_555 1_555
H10 C14 1_555 1_555
C15 C10 1_555 1_555
H11 C15 1_555 1_555
C16 C13 1_555 1_555
H12 C16 1_555 1_555
H13 C16 1_555 1_555
H14 C16 1_555 1_555
Cl1 C7 1_555 1_555
N1 C1 1_555 1_555
O1 C2 1_555 1_555
S1 C1 1_555 1_555
C2 N1 1_555 1_555
C3 S1 1_555 1_555
C8 C9 1_555 1_555
C10 N1 1_555 1_555
C14 C15 1_555 1_555

#END
