
#######################################################################
#
#                 Cambridge Crystallographic Data Centre
#                                CCDC 
#
#######################################################################
#
# If this CIF has been generated from an entry in the Cambridge 
# Structural Database, then it will include bibliographic, chemical, 
# crystal, experimental, refinement or atomic coordinate data resulting 
# from the CCDC's data processing and validation procedures.
#
#######################################################################

data_VORFUE
_chemical_name_common            
2,4,6,8-tetrakis(4-Methoxyphenyl)-2,4,6,8-tetraazabicyclo[3.3.0]octane
_chemical_formula_moiety         'C32 H34 N4 O4'
_chemical_name_systematic        
1,3,4,6-tetrakis(4-Methoxyphenyl)octahydroimidazo(4,5-d)imidazole
_symmetry_cell_setting           triclinic
_symmetry_space_group_name_H-M   'P -1'
_symmetry_Int_Tables_number      2
_space_group_name_Hall           '-P 1'
loop_
_symmetry_equiv_pos_site_id
_symmetry_equiv_pos_as_xyz
1 x,y,z
2 -x,-y,-z
_cell_length_a                   9.889(4)
_cell_length_b                   11.996(5)
_cell_length_c                   12.312(5)
_cell_angle_alpha                89.495(5)
_cell_angle_beta                 74.381(5)
_cell_angle_gamma                82.332(5)
_cell_volume                     1393.48
_exptl_crystal_colour            colorless
_exptl_crystal_description       block
_cell_formula_units_Z            2
_exptl_crystal_recrystallization_method 'ethyl acetate'
loop_
_atom_site_label
_atom_site_type_symbol
_atom_site_fract_x
_atom_site_fract_y
_atom_site_fract_z
C1 C 0.6328(5) 0.8796(4) 0.4806(4)
H1 H 0.6258 0.8104 0.5202
H2 H 0.5812 0.9411 0.5306
H3 H 0.7306 0.8905 0.4541
O1 O 0.22203(12) 0.04585(11) 0.12591(11)
O2 O 0.69664(16) 0.59026(11) -0.42008(10)
O3 O 0.57354(14) 0.87471(11) 0.38526(12)
O4 O 0.98004(13) 0.14137(10) 0.56958(10)
N1 N 0.73844(12) 0.21295(10) 0.07974(10)
N2 N 0.77531(14) 0.36594(10) -0.03831(10)
N3 N 0.80335(12) 0.49545(10) 0.09999(10)
N4 N 0.85009(14) 0.32620(11) 0.18546(11)
C2 C 0.71482(15) 0.41677(12) 0.07343(12)
H4 H 0.6168 0.4520 0.0838
C3 C 0.72416(15) 0.31516(13) 0.15083(12)
H5 H 0.6404 0.3197 0.2157
C4 C 0.81518(16) 0.24473(12) -0.03247(13)
H6 H 0.7889 0.2048 -0.0902
H7 H 0.9166 0.2270 -0.0433
C5 C 0.91633(15) 0.42286(12) 0.13373(13)
H8 H 0.9952 0.3990 0.0686
H9 H 0.9505 0.4622 0.1874
C6 C 0.60410(15) 0.17429(12) 0.08613(12)
C7 C 0.55236(17) 0.10343(13) 0.17320(14)
H10 H 0.6046 0.0827 0.2245
C8 C 0.42524(18) 0.06355(14) 0.18465(14)
H11 H 0.3919 0.0173 0.2441
C9 C 0.34612(16) 0.09173(13) 0.10825(13)
C10 C 0.39643(16) 0.16100(13) 0.02069(13)
H12 H 0.3450 0.1801 -0.0315
C11 C 0.52413(16) 0.20223(13) 0.01056(13)
H13 H 0.5566 0.2496 -0.0482
C12 C 0.13172(19) 0.08093(19) 0.05646(18)
H14 H 0.1130 0.1616 0.0586
H15 H 0.0441 0.0505 0.0835
H16 H 0.1769 0.0544 -0.0197
C13 C 0.76153(14) 0.42170(11) -0.13515(11)
C14 C 0.81322(16) 0.36901(13) -0.24151(12)
H17 H 0.8615 0.2963 -0.2482
C15 C 0.79422(18) 0.42279(14) -0.33760(13)
H18 H 0.8292 0.3856 -0.4075
C16 C 0.72354(17) 0.53134(13) -0.33025(13)
C17 C 0.67797(15) 0.58681(12) -0.22607(13)
H19 H 0.6341 0.6609 -0.2206
C18 C 0.69664(14) 0.53375(12) -0.12995(12)
H20 H 0.6658 0.5728 -0.0609
C19 C 0.7372(4) 0.5325(2) -0.52588(18)
H21 H 0.8381 0.5118 -0.5484
H22 H 0.7091 0.5805 -0.5810
H23 H 0.6918 0.4660 -0.5200
C20 C 0.73890(15) 0.59167(12) 0.17112(11)
C21 C 0.59425(16) 0.61948(13) 0.21947(13)
H24 H 0.5317 0.5736 0.2055
C22 C 0.54234(17) 0.71482(14) 0.28816(15)
H25 H 0.4451 0.7326 0.3192
C23 C 0.63244(18) 0.78401(13) 0.31149(14)
C24 C 0.77585(18) 0.75951(14) 0.26120(15)
H26 H 0.8377 0.8064 0.2746
C25 C 0.82773(17) 0.66575(14) 0.19116(14)
H27 H 0.9244 0.6514 0.1563
C26 C 0.87853(15) 0.27670(12) 0.28185(12)
C27 C 1.00597(16) 0.28741(14) 0.30714(13)
H28 H 1.0723 0.3256 0.2583
C28 C 1.03490(17) 0.24239(14) 0.40290(14)
H29 H 1.1196 0.2519 0.4186
C29 C 0.93978(16) 0.18328(13) 0.47608(13)
C30 C 0.81457(18) 0.17021(14) 0.45223(14)
H30 H 0.7496 0.1307 0.5009
C31 C 0.78461(17) 0.21579(14) 0.35564(13)
H31 H 0.7001 0.2053 0.3401
C32 C 0.8873(2) 0.07639(15) 0.64407(14)
H32 H 0.7989 0.1226 0.6775
H33 H 0.9294 0.0482 0.7023
H34 H 0.8707 0.0144 0.6028
C33? C 0.6734(8) 0.9321(7) 0.4173(8)
H35? H 0.7337 0.8800 0.4491
H36? H 0.6244 0.9902 0.4723
H37? H 0.7297 0.9650 0.3522
loop_
_geom_bond_atom_site_label_1
_geom_bond_atom_site_label_2
_geom_bond_site_symmetry_1
_geom_bond_site_symmetry_2
C1 H1 1_555 1_555
H2 C1 1_555 1_555
H3 C1 1_555 1_555
O1 C9 1_555 1_555
O2 C16 1_555 1_555
O3 C1 1_555 1_555
O4 C29 1_555 1_555
N1 C3 1_555 1_555
N2 C2 1_555 1_555
N3 C2 1_555 1_555
N4 C3 1_555 1_555
C2 H4 1_555 1_555
C3 C2 1_555 1_555
H5 C3 1_555 1_555
C4 N1 1_555 1_555
H6 C4 1_555 1_555
H7 C4 1_555 1_555
C5 N3 1_555 1_555
H8 C5 1_555 1_555
H9 C5 1_555 1_555
C6 N1 1_555 1_555
C7 C6 1_555 1_555
H10 C7 1_555 1_555
C8 C7 1_555 1_555
H11 C8 1_555 1_555
C9 C8 1_555 1_555
C10 C9 1_555 1_555
H12 C10 1_555 1_555
C11 C6 1_555 1_555
H13 C11 1_555 1_555
C12 O1 1_555 1_555
H14 C12 1_555 1_555
H15 C12 1_555 1_555
H16 C12 1_555 1_555
C13 N2 1_555 1_555
C14 C13 1_555 1_555
H17 C14 1_555 1_555
C15 C14 1_555 1_555
H18 C15 1_555 1_555
C16 C15 1_555 1_555
C17 C16 1_555 1_555
H19 C17 1_555 1_555
C18 C13 1_555 1_555
H20 C18 1_555 1_555
C19 O2 1_555 1_555
H21 C19 1_555 1_555
H22 C19 1_555 1_555
H23 C19 1_555 1_555
C20 N3 1_555 1_555
C21 C20 1_555 1_555
H24 C21 1_555 1_555
C22 C21 1_555 1_555
H25 C22 1_555 1_555
C23 O3 1_555 1_555
C24 C23 1_555 1_555
H26 C24 1_555 1_555
C25 C20 1_555 1_555
H27 C25 1_555 1_555
C26 N4 1_555 1_555
C27 C26 1_555 1_555
H28 C27 1_555 1_555
C28 C27 1_555 1_555
H29 C28 1_555 1_555
C29 C28 1_555 1_555
C30 C29 1_555 1_555
H30 C30 1_555 1_555
C31 C26 1_555 1_555
H31 C31 1_555 1_555
C32 O4 1_555 1_555
H32 C32 1_555 1_555
H33 C32 1_555 1_555
H34 C32 1_555 1_555
N2 C4 1_555 1_555
N4 C5 1_555 1_555
C10 C11 1_555 1_555
C17 C18 1_555 1_555
C22 C23 1_555 1_555
C24 C25 1_555 1_555
C30 C31 1_555 1_555

#END
