
#######################################################################
#
#                 Cambridge Crystallographic Data Centre
#                                CCDC 
#
#######################################################################
#
# If this CIF has been generated from an entry in the Cambridge 
# Structural Database, then it will include bibliographic, chemical, 
# crystal, experimental, refinement or atomic coordinate data resulting 
# from the CCDC's data processing and validation procedures.
#
#######################################################################

data_VORGAL
_chemical_name_common            
2,4,6,8-tetrakis(4-Chlorophenyl)-2,4,6,8-tetraazabicyclo[3.3.0]octane
_chemical_formula_moiety         'C28 H22 Cl4 N4'
_chemical_name_systematic        
1,3,4,6-tetrakis(4-Chlorophenyl)octahydroimidazo(4,5-d)imidazole
_symmetry_cell_setting           monoclinic
_symmetry_space_group_name_H-M   'C 2/c'
_symmetry_Int_Tables_number      15
_space_group_name_Hall           '-C 2yn'
loop_
_symmetry_equiv_pos_site_id
_symmetry_equiv_pos_as_xyz
1 x,y,z
2 1/2+x,1/2+y,z
3 -x,y,1/2-z
4 1/2-x,1/2+y,1/2-z
5 -x,-y,-z
6 1/2-x,1/2-y,-z
7 x,-y,1/2+z
8 1/2+x,1/2-y,1/2+z
_cell_length_a                   19.368(15)
_cell_length_b                   5.880(4)
_cell_length_c                   21.894(16)
_cell_angle_alpha                90
_cell_angle_beta                 95.602(9)
_cell_angle_gamma                90
_cell_volume                     2481.46
_exptl_crystal_colour            colorless
_exptl_crystal_description       block
_cell_formula_units_Z            4
_exptl_crystal_recrystallization_method acetonitrile
loop_
_atom_site_label
_atom_site_type_symbol
_atom_site_fract_x
_atom_site_fract_y
_atom_site_fract_z
Cl1 Cl 0.24975(3) -0.55926(10) 0.38580(3)
Cl2 Cl 0.39252(4) 0.87042(12) -0.00237(3)
N1 N 0.49298(8) 0.1283(3) 0.16869(7)
N2 N 0.42081(8) 0.0446(3) 0.24395(7)
C1 C 0.37907(9) -0.0938(3) 0.27702(9)
C2 C 0.35982(11) -0.0302(3) 0.33457(10)
H1 H 0.3743 0.1093 0.3512
C3 C 0.31972(10) -0.1709(4) 0.36700(10)
H2 H 0.3080 -0.1275 0.4055
C4 C 0.29687(10) -0.3772(4) 0.34200(10)
C5 C 0.31195(10) -0.4399(3) 0.28462(10)
H3 H 0.2946 -0.5755 0.2674
C6 C 0.35313(10) -0.3006(3) 0.25225(9)
H4 H 0.3638 -0.3448 0.2135
C7 C 0.46681(10) 0.3080(3) 0.12891(9)
C8 C 0.51318(11) 0.4624(3) 0.10768(10)
H5 H 0.5602 0.4490 0.1206
C9 C 0.49111(12) 0.6355(4) 0.06775(10)
H6 H 0.5227 0.7385 0.0543
C10 C 0.42093(12) 0.6531(4) 0.04808(9)
C11 C 0.37434(12) 0.5055(4) 0.06823(11)
H7 H 0.3275 0.5186 0.0545
C12 C 0.39661(11) 0.3347(4) 0.10935(11)
H8 H 0.3643 0.2369 0.1240
C13 C 0.44552(11) -0.0421(3) 0.18693(9)
H9 H 0.4689 -0.1869 0.1941
H10 H 0.4071 -0.0621 0.1555
C14 C 0.47152(9) 0.2059(3) 0.27285(8)
H11 H 0.4513 0.3574 0.2766
Cl1B Cl 0.75025(3) -0.55926(10) 0.11420(3)
Cl2B Cl 0.60748(4) 0.87042(12) 0.50237(3)
N1B N 0.50702(8) 0.1283(3) 0.33131(7)
N2B N 0.57919(8) 0.0446(3) 0.25605(7)
C1B C 0.62093(9) -0.0938(3) 0.22298(9)
C2B C 0.64018(11) -0.0302(3) 0.16543(10)
H1B H 0.6257 0.1093 0.1488
C3B C 0.68028(10) -0.1709(4) 0.13300(10)
H2B H 0.6920 -0.1275 0.0945
C4B C 0.70313(10) -0.3772(4) 0.15800(10)
C5B C 0.68805(10) -0.4399(3) 0.21538(10)
H3B H 0.7054 -0.5755 0.2326
C6B C 0.64687(10) -0.3006(3) 0.24775(9)
H4B H 0.6362 -0.3448 0.2865
C7B C 0.53319(10) 0.3080(3) 0.37109(9)
C8B C 0.48682(11) 0.4624(3) 0.39232(10)
H5B H 0.4398 0.4490 0.3794
C9B C 0.50889(12) 0.6355(4) 0.43225(10)
H6B H 0.4773 0.7385 0.4457
C10B C 0.57907(12) 0.6531(4) 0.45192(9)
C11B C 0.62566(12) 0.5055(4) 0.43177(11)
H7B H 0.6725 0.5186 0.4455
C12B C 0.60339(11) 0.3347(4) 0.39065(11)
H8B H 0.6357 0.2369 0.3760
C13B C 0.55448(11) -0.0421(3) 0.31307(9)
H9B H 0.5311 -0.1869 0.3059
H10B H 0.5929 -0.0621 0.3445
C14B C 0.52848(9) 0.2059(3) 0.22715(8)
H11B H 0.5487 0.3574 0.2234
loop_
_geom_bond_atom_site_label_1
_geom_bond_atom_site_label_2
_geom_bond_site_symmetry_1
_geom_bond_site_symmetry_2
Cl1 C4 1_555 1_555
Cl2 C10 1_555 1_555
N1 C7 1_555 1_555
N2 C1 1_555 1_555
C1 C2 1_555 1_555
C2 H1 1_555 1_555
C3 C2 1_555 1_555
H2 C3 1_555 1_555
C4 C3 1_555 1_555
C5 C4 1_555 1_555
H3 C5 1_555 1_555
C6 C1 1_555 1_555
H4 C6 1_555 1_555
C7 C8 1_555 1_555
C8 H5 1_555 1_555
C9 C8 1_555 1_555
H6 C9 1_555 1_555
C10 C9 1_555 1_555
C11 C10 1_555 1_555
H7 C11 1_555 1_555
C12 C7 1_555 1_555
H8 C12 1_555 1_555
C13 N1 1_555 1_555
H9 C13 1_555 1_555
H10 C13 1_555 1_555
C14 N2 1_555 1_555
H11 C14 1_555 1_555
Cl1B C4B 1_555 1_555
Cl2B C10B 1_555 1_555
N1B C14 1_555 1_555
N2B C1B 1_555 1_555
C1B C2B 1_555 1_555
C2B H1B 1_555 1_555
C3B C2B 1_555 1_555
H2B C3B 1_555 1_555
C4B C3B 1_555 1_555
C5B C4B 1_555 1_555
H3B C5B 1_555 1_555
C6B C1B 1_555 1_555
H4B C6B 1_555 1_555
C7B N1B 1_555 1_555
C8B C7B 1_555 1_555
H5B C8B 1_555 1_555
C9B C8B 1_555 1_555
H6B C9B 1_555 1_555
C10B C9B 1_555 1_555
C11B C10B 1_555 1_555
H7B C11B 1_555 1_555
C12B C7B 1_555 1_555
H8B C12B 1_555 1_555
C13B N1B 1_555 1_555
H9B C13B 1_555 1_555
H10B C13B 1_555 1_555
C14B N1 1_555 1_555
H11B C14B 1_555 1_555
N2 C13 1_555 1_555
C5 C6 1_555 1_555
C11 C12 1_555 1_555
C14 C14B 1_555 1_555
N2B C13B 1_555 1_555
N2B C14B 1_555 1_555
C5B C6B 1_555 1_555
C11B C12B 1_555 1_555

#END
