
#######################################################################
#
#                 Cambridge Crystallographic Data Centre
#                                CCDC 
#
#######################################################################
#
# If this CIF has been generated from an entry in the Cambridge 
# Structural Database, then it will include bibliographic, chemical, 
# crystal, experimental, refinement or atomic coordinate data resulting 
# from the CCDC's data processing and validation procedures.
#
#######################################################################

data_VORKIY
_chemical_formula_moiety         'C18 H30 Mg1 N4'
_chemical_name_systematic        
bis(2-((t-butylamino)methyl)-1H-pyrrol-1-yl)-magnesium
_symmetry_cell_setting           triclinic
_symmetry_space_group_name_H-M   'P -1'
_symmetry_Int_Tables_number      2
_space_group_name_Hall           '-P 1'
loop_
_symmetry_equiv_pos_site_id
_symmetry_equiv_pos_as_xyz
1 x,y,z
2 -x,-y,-z
_cell_length_a                   7.9744(11)
_cell_length_b                   10.8445(15)
_cell_length_c                   11.7482(16)
_cell_angle_alpha                75.804(3)
_cell_angle_beta                 81.308(3)
_cell_angle_gamma                74.539(3)
_cell_volume                     945.292
_exptl_crystal_colour            colorless
_exptl_crystal_description       block
_cell_formula_units_Z            2
loop_
_atom_site_label
_atom_site_type_symbol
_atom_site_fract_x
_atom_site_fract_y
_atom_site_fract_z
C1 C 0.3659(2) 0.66160(16) 0.06745(13)
H1 H 0.4153 0.5703 0.0913
C2 C 0.2823(2) 0.71968(18) -0.03299(14)
H2 H 0.2631 0.6769 -0.0897
C3 C 0.2303(2) 0.85487(18) -0.03582(14)
H3 H 0.1693 0.9211 -0.0947
C4 C 0.28520(19) 0.87252(15) 0.06335(13)
C5 C 0.2494(2) 0.99259(16) 0.11263(15)
H4 H 0.2503 1.0700 0.0472
H5 H 0.1319 1.0056 0.1563
C6 C 0.3387(2) 1.08404(16) 0.26646(14)
C7 C 0.1848(3) 1.0651(2) 0.35666(18)
H6 H 0.0818 1.0754 0.3159
H7 H 0.1603 1.1307 0.4052
H8 H 0.2129 0.9772 0.4071
C8 C 0.2982(3) 1.22191(16) 0.18820(17)
H9 H 0.3943 1.2306 0.1263
H10 H 0.2848 1.2868 0.2362
H11 H 0.1897 1.2366 0.1520
C9 C 0.5016(3) 1.06213(17) 0.32949(16)
H12 H 0.5251 0.9741 0.3802
H13 H 0.4825 1.1275 0.3777
H14 H 0.6017 1.0707 0.2710
C10 C 0.2252(2) 0.72955(17) 0.52717(14)
H15 H 0.1089 0.7662 0.5064
C11 C 0.2702(2) 0.67628(17) 0.64013(14)
H16 H 0.1930 0.6707 0.7102
C12 C 0.4531(2) 0.63164(17) 0.63166(13)
H17 H 0.5237 0.5889 0.6949
C13 C 0.5102(2) 0.66194(14) 0.51375(12)
C14 C 0.6921(2) 0.64724(17) 0.45440(13)
H18 H 0.7400 0.7198 0.4621
H19 H 0.7675 0.5638 0.4934
C15 C 0.86220(19) 0.65920(15) 0.25298(13)
C16 C 1.0201(2) 0.56579(17) 0.31216(16)
H20 H 1.0336 0.5931 0.3832
H21 H 1.1255 0.5678 0.2574
H22 H 1.0025 0.4766 0.3339
C17 C 0.8487(2) 0.62385(19) 0.13744(14)
H23 H 0.8400 0.5327 0.1530
H24 H 0.9529 0.6344 0.0836
H25 H 0.7446 0.6817 0.1014
C18 C 0.8811(2) 0.79915(17) 0.22848(17)
H26 H 0.7795 0.8586 0.1906
H27 H 0.9875 0.8070 0.1762
H28 H 0.8885 0.8222 0.3029
Mg1 Mg 0.44699(6) 0.77252(5) 0.27605(4)
N1 N 0.36828(16) 0.75375(12) 0.12855(10)
N2 N 0.38246(17) 0.98108(12) 0.19305(11)
N3 N 0.37129(17) 0.72257(13) 0.44842(10)
N4 N 0.69343(16) 0.64842(13) 0.32769(10)
H29 H 0.675(2) 0.5686(18) 0.3268(15)
H30 H 0.483(3) 0.9961(18) 0.1452(16)
loop_
_geom_bond_atom_site_label_1
_geom_bond_atom_site_label_2
_geom_bond_site_symmetry_1
_geom_bond_site_symmetry_2
C1 H1 1_555 1_555
C2 C1 1_555 1_555
H2 C2 1_555 1_555
C3 C2 1_555 1_555
H3 C3 1_555 1_555
C4 C3 1_555 1_555
C5 C4 1_555 1_555
H4 C5 1_555 1_555
H5 C5 1_555 1_555
C6 C7 1_555 1_555
C7 H6 1_555 1_555
H7 C7 1_555 1_555
H8 C7 1_555 1_555
C8 C6 1_555 1_555
H9 C8 1_555 1_555
H10 C8 1_555 1_555
H11 C8 1_555 1_555
C9 C6 1_555 1_555
H12 C9 1_555 1_555
H13 C9 1_555 1_555
H14 C9 1_555 1_555
C10 H15 1_555 1_555
C11 C10 1_555 1_555
H16 C11 1_555 1_555
C12 C11 1_555 1_555
H17 C12 1_555 1_555
C13 C12 1_555 1_555
C14 C13 1_555 1_555
H18 C14 1_555 1_555
H19 C14 1_555 1_555
C15 C16 1_555 1_555
C16 H20 1_555 1_555
H21 C16 1_555 1_555
H22 C16 1_555 1_555
C17 C15 1_555 1_555
H23 C17 1_555 1_555
H24 C17 1_555 1_555
H25 C17 1_555 1_555
C18 C15 1_555 1_555
H26 C18 1_555 1_555
H27 C18 1_555 1_555
H28 C18 1_555 1_555
Mg1 N1 1_555 1_555
N1 C1 1_555 1_555
N2 C5 1_555 1_555
N3 C10 1_555 1_555
N4 C14 1_555 1_555
H29 N4 1_555 1_555
H30 N2 1_555 1_555
C4 N1 1_555 1_555
C6 N2 1_555 1_555
C13 N3 1_555 1_555
C15 N4 1_555 1_555
Mg1 N2 1_555 1_555
Mg1 N3 1_555 1_555
Mg1 N4 1_555 1_555

#END
