
#######################################################################
#
#                 Cambridge Crystallographic Data Centre
#                                CCDC 
#
#######################################################################
#
# If this CIF has been generated from an entry in the Cambridge 
# Structural Database, then it will include bibliographic, chemical, 
# crystal, experimental, refinement or atomic coordinate data resulting 
# from the CCDC's data processing and validation procedures.
#
#######################################################################

data_VORKAQ
_chemical_formula_moiety         'C38 H58 Mg1 N2 O3'
_chemical_name_systematic        
'(diethyl ether)-bis(4-((2,6-diisopropylphenyl)imino)pent-2-en-2-olato)-magnesium'
_symmetry_cell_setting           monoclinic
_symmetry_space_group_name_H-M   'C 2/c'
_symmetry_Int_Tables_number      15
_space_group_name_Hall           '-C 2yn'
loop_
_symmetry_equiv_pos_site_id
_symmetry_equiv_pos_as_xyz
1 x,y,z
2 -x,y,1/2-z
3 1/2+x,1/2+y,z
4 1/2-x,1/2+y,1/2-z
5 -x,-y,-z
6 x,-y,1/2+z
7 1/2-x,1/2-y,-z
8 1/2+x,1/2-y,1/2+z
_cell_length_a                   19.7552(6)
_cell_length_b                   11.1146(4)
_cell_length_c                   17.0676(6)
_cell_angle_alpha                90
_cell_angle_beta                 102.106(2)
_cell_angle_gamma                90
_cell_volume                     3664.21
_exptl_crystal_colour            colorless
_exptl_crystal_description       block
_cell_formula_units_Z            4
loop_
_atom_site_label
_atom_site_type_symbol
_atom_site_fract_x
_atom_site_fract_y
_atom_site_fract_z
C1 C 1.07954(8) 0.25739(15) 0.62293(10)
C2 C 1.15082(9) 0.26655(18) 0.60421(12)
H1 H 1.1653 0.3510 0.6065
H2 H 1.1496 0.2347 0.5504
H3 H 1.1837 0.2199 0.6436
C3 C 0.90953(9) 0.12181(17) 0.51147(11)
H4 H 0.9177 0.0349 0.5167
H5 H 0.9190 0.1496 0.4604
H6 H 0.8612 0.1392 0.5132
C4 C 0.95693(8) 0.18622(14) 0.57975(10)
C5 C 1.02593(8) 0.20470(15) 0.56917(10)
H7 H 1.0359 0.1779 0.5200
C6 C 0.86460(8) 0.20028(15) 0.64954(9)
C7 C 0.81811(8) 0.29779(15) 0.63612(10)
C8 C 0.75177(9) 0.28119(17) 0.65038(11)
H8 H 0.7199 0.3463 0.6421
C9 C 0.73143(9) 0.17201(18) 0.67636(11)
H9 H 0.6862 0.1629 0.6865
C10 C 0.77650(9) 0.07674(17) 0.68760(11)
H10 H 0.7617 0.0016 0.7045
C11 C 0.84399(8) 0.08777(15) 0.67469(10)
C12 C 0.89269(9) -0.01897(15) 0.69049(11)
H11 H 0.9364 0.0036 0.6732
C13 C 0.86212(12) -0.12958(18) 0.64166(14)
H12 H 0.8240 -0.1621 0.6637
H13 H 0.8981 -0.1910 0.6444
H14 H 0.8448 -0.1061 0.5857
C14 C 0.91137(10) -0.05003(18) 0.77943(12)
H15 H 0.9341 0.0192 0.8096
H16 H 0.9429 -0.1191 0.7876
H17 H 0.8692 -0.0701 0.7983
C15 C 0.84039(9) 0.41842(15) 0.60785(11)
H18 H 0.8895 0.4323 0.6361
C16 C 0.83867(12) 0.41788(19) 0.51818(12)
H19 H 0.8690 0.3540 0.5058
H20 H 0.8547 0.4958 0.5023
H21 H 0.7912 0.4034 0.4887
C17 C 0.79787(10) 0.52564(17) 0.62627(13)
H22 H 0.7503 0.5188 0.5952
H23 H 0.8186 0.6004 0.6119
H24 H 0.7974 0.5265 0.6836
C18 C 0.95486(9) 0.55976(16) 0.78877(12)
H25 H 0.9106 0.5164 0.7856
H26 H 0.9445 0.6373 0.7602
C19 C 0.98743(11) 0.58372(19) 0.87507(13)
H27 H 0.9965 0.5072 0.9039
H28 H 0.9559 0.6325 0.8994
H29 H 1.0311 0.6272 0.8783
Mg1 Mg 1.0000 0.29870(7) 0.7500
N1 N 0.93562(6) 0.22060(12) 0.64466(8)
O1 O 1.07468(5) 0.30018(10) 0.69131(7)
O2 O 1.0000 0.48876(14) 0.7500
C18A C 1.04514(9) 0.55976(16) 0.71123(12)
H25A H 1.0894 0.5164 0.7144
H26A H 1.0555 0.6373 0.7398
C19A C 1.01257(11) 0.58372(19) 0.62493(13)
H27A H 1.0035 0.5072 0.5961
H28A H 1.0441 0.6325 0.6006
H29A H 0.9689 0.6272 0.6217
C1A C 0.92046(8) 0.25739(15) 0.87707(10)
C2A C 0.84918(9) 0.26655(18) 0.89579(12)
H1A H 0.8347 0.3510 0.8935
H2A H 0.8504 0.2347 0.9496
H3A H 0.8163 0.2199 0.8564
C3A C 1.09047(9) 0.12181(17) 0.98853(11)
H4A H 1.0823 0.0349 0.9833
H5A H 1.0810 0.1496 1.0396
H6A H 1.1388 0.1392 0.9868
C4A C 1.04307(8) 0.18622(14) 0.92025(10)
C5A C 0.97407(8) 0.20470(15) 0.93083(10)
H7A H 0.9641 0.1779 0.9800
C6A C 1.13540(8) 0.20028(15) 0.85046(9)
C7A C 1.18189(8) 0.29779(15) 0.86388(10)
C8A C 1.24823(9) 0.28119(17) 0.84962(11)
H8A H 1.2801 0.3463 0.8579
C9A C 1.26857(9) 0.17201(18) 0.82364(11)
H9A H 1.3138 0.1629 0.8135
C10A C 1.22350(9) 0.07674(17) 0.81240(11)
H10A H 1.2383 0.0016 0.7955
C11A C 1.15601(8) 0.08777(15) 0.82531(10)
C12A C 1.10731(9) -0.01897(15) 0.80951(11)
H11A H 1.0636 0.0036 0.8268
C13A C 1.13788(12) -0.12958(18) 0.85834(14)
H12A H 1.1760 -0.1621 0.8363
H13A H 1.1019 -0.1910 0.8556
H14A H 1.1552 -0.1061 0.9143
C14A C 1.08863(10) -0.05003(18) 0.72057(12)
H15A H 1.0659 0.0192 0.6904
H16A H 1.0571 -0.1191 0.7124
H17A H 1.1308 -0.0701 0.7017
C15A C 1.15961(9) 0.41842(15) 0.89215(11)
H18A H 1.1105 0.4323 0.8639
C16A C 1.16133(12) 0.41788(19) 0.98182(12)
H19A H 1.1310 0.3540 0.9942
H20A H 1.1453 0.4958 0.9977
H21A H 1.2088 0.4034 1.0113
C17A C 1.20213(10) 0.52564(17) 0.87373(13)
H22A H 1.2497 0.5188 0.9048
H23A H 1.1814 0.6004 0.8881
H24A H 1.2026 0.5265 0.8164
N1A N 1.06438(6) 0.22060(12) 0.85534(8)
O1A O 0.92532(5) 0.30018(10) 0.80869(7)
loop_
_geom_bond_atom_site_label_1
_geom_bond_atom_site_label_2
_geom_bond_site_symmetry_1
_geom_bond_site_symmetry_2
C1 C2 1_555 1_555
C2 H1 1_555 1_555
H2 C2 1_555 1_555
H3 C2 1_555 1_555
C3 H4 1_555 1_555
H5 C3 1_555 1_555
H6 C3 1_555 1_555
C4 C3 1_555 1_555
C5 C1 1_555 1_555
H7 C5 1_555 1_555
C6 C7 1_555 1_555
C7 C8 1_555 1_555
C8 H8 1_555 1_555
C9 C8 1_555 1_555
H9 C9 1_555 1_555
C10 C9 1_555 1_555
H10 C10 1_555 1_555
C11 C6 1_555 1_555
C12 C11 1_555 1_555
H11 C12 1_555 1_555
C13 C12 1_555 1_555
H12 C13 1_555 1_555
H13 C13 1_555 1_555
H14 C13 1_555 1_555
C14 C12 1_555 1_555
H15 C14 1_555 1_555
H16 C14 1_555 1_555
H17 C14 1_555 1_555
C15 C7 1_555 1_555
H18 C15 1_555 1_555
C16 C15 1_555 1_555
H19 C16 1_555 1_555
H20 C16 1_555 1_555
H21 C16 1_555 1_555
C17 C15 1_555 1_555
H22 C17 1_555 1_555
H23 C17 1_555 1_555
H24 C17 1_555 1_555
C18 H25 1_555 1_555
H26 C18 1_555 1_555
C19 C18 1_555 1_555
H27 C19 1_555 1_555
H28 C19 1_555 1_555
H29 C19 1_555 1_555
Mg1 N1 1_555 1_555
N1 C4 1_555 1_555
O1 C1 1_555 1_555
O2 C18 1_555 1_555
C18A O2 1_555 1_555
H25A C18A 1_555 1_555
H26A C18A 1_555 1_555
C19A C18A 1_555 1_555
H27A C19A 1_555 1_555
H28A C19A 1_555 1_555
H29A C19A 1_555 1_555
C1A C2A 1_555 1_555
C2A H1A 1_555 1_555
H2A C2A 1_555 1_555
H3A C2A 1_555 1_555
C3A H4A 1_555 1_555
H5A C3A 1_555 1_555
H6A C3A 1_555 1_555
C4A C3A 1_555 1_555
C5A C1A 1_555 1_555
H7A C5A 1_555 1_555
C6A C7A 1_555 1_555
C7A C8A 1_555 1_555
C8A H8A 1_555 1_555
C9A C8A 1_555 1_555
H9A C9A 1_555 1_555
C10A C9A 1_555 1_555
H10A C10A 1_555 1_555
C11A C6A 1_555 1_555
C12A C11A 1_555 1_555
H11A C12A 1_555 1_555
C13A C12A 1_555 1_555
H12A C13A 1_555 1_555
H13A C13A 1_555 1_555
H14A C13A 1_555 1_555
C14A C12A 1_555 1_555
H15A C14A 1_555 1_555
H16A C14A 1_555 1_555
H17A C14A 1_555 1_555
C15A C7A 1_555 1_555
H18A C15A 1_555 1_555
C16A C15A 1_555 1_555
H19A C16A 1_555 1_555
H20A C16A 1_555 1_555
H21A C16A 1_555 1_555
C17A C15A 1_555 1_555
H22A C17A 1_555 1_555
H23A C17A 1_555 1_555
H24A C17A 1_555 1_555
N1A Mg1 1_555 1_555
O1A Mg1 1_555 1_555
C4 C5 1_555 1_555
C6 N1 1_555 1_555
C10 C11 1_555 1_555
Mg1 O1 1_555 1_555
Mg1 O2 1_555 1_555
C1A O1A 1_555 1_555
C4A C5A 1_555 1_555
C4A N1A 1_555 1_555
C6A N1A 1_555 1_555
C10A C11A 1_555 1_555

#END
