
#######################################################################
#
#                 Cambridge Crystallographic Data Centre
#                                CCDC 
#
#######################################################################
#
# If this CIF has been generated from an entry in the Cambridge 
# Structural Database, then it will include bibliographic, chemical, 
# crystal, experimental, refinement or atomic coordinate data resulting 
# from the CCDC's data processing and validation procedures.
#
#######################################################################

data_VORKET
_chemical_name_common            
trans-2-((2-Hydroxy-1-naphthyl)methylene)hydrazinecarboxamide
_chemical_formula_moiety         'C12 H11 N3 O2'
_chemical_name_systematic        
'(E)-2-Hydroxynaphthalene-1-carbaldehyde semicarbazone'
_symmetry_cell_setting           monoclinic
_symmetry_space_group_name_H-M   'P 21/c'
_symmetry_Int_Tables_number      14
_space_group_name_Hall           '-P 2ybc'
loop_
_symmetry_equiv_pos_site_id
_symmetry_equiv_pos_as_xyz
1 x,y,z
2 -x,1/2+y,1/2-z
3 -x,-y,-z
4 x,1/2-y,1/2+z
_cell_length_a                   16.091(3)
_cell_length_b                   4.7350(9)
_cell_length_c                   15.776(3)
_cell_angle_alpha                90
_cell_angle_beta                 114.26(3)
_cell_angle_gamma                90
_cell_volume                     1095.84
_exptl_crystal_colour            yellow
_exptl_crystal_description       block
_cell_formula_units_Z            4
loop_
_atom_site_label
_atom_site_type_symbol
_atom_site_fract_x
_atom_site_fract_y
_atom_site_fract_z
C1 C 0.23742(8) 0.2085(3) 0.15396(8)
C2 C 0.24256(9) 0.1120(3) 0.23930(9)
C3 C 0.30716(10) -0.0898(3) 0.29109(10)
H1 H 0.3094 -0.1497 0.3481
C4 C 0.36618(10) -0.1978(3) 0.25859(10)
H2 H 0.4089 -0.3307 0.2939
C5 C 0.36419(8) -0.1126(3) 0.17185(9)
C6 C 0.42499(10) -0.2280(3) 0.13721(11)
H3 H 0.4674 -0.3622 0.1722
C7 C 0.42258(10) -0.1462(4) 0.05361(12)
H4 H 0.4634 -0.2231 0.0320
C8 C 0.35881(11) 0.0531(3) 0.00052(11)
H5 H 0.3572 0.1088 -0.0567
C9 C 0.29852(9) 0.1678(3) 0.03161(9)
H6 H 0.2560 0.2989 -0.0053
C10 C 0.29938(8) 0.0915(3) 0.11853(9)
C11 C 0.17325(8) 0.4299(3) 0.10430(9)
H7 H 0.1777 0.5185 0.0537
C12 C -0.01922(9) 0.7854(3) 0.10281(9)
N1 N 0.11062(7) 0.5029(2) 0.13008(7)
N2 N 0.05492(7) 0.7251(2) 0.08591(7)
H8 H 0.0671 0.8266 0.0473
N3 N -0.04085(8) 0.6020(3) 0.15536(8)
H9 H -0.0873 0.6333 0.1678
H10 H -0.0083 0.4530 0.1765
O1 O 0.18694(7) 0.2086(2) 0.27791(7)
H11 H 0.1521 0.3272 0.2436
O2 O -0.06341(7) 1.00232(19) 0.07058(6)
loop_
_geom_bond_atom_site_label_1
_geom_bond_atom_site_label_2
_geom_bond_site_symmetry_1
_geom_bond_site_symmetry_2
C1 C2 1_555 1_555
C2 C3 1_555 1_555
C3 H1 1_555 1_555
C4 C3 1_555 1_555
H2 C4 1_555 1_555
C5 C4 1_555 1_555
C6 C5 1_555 1_555
H3 C6 1_555 1_555
C7 C6 1_555 1_555
H4 C7 1_555 1_555
C8 C7 1_555 1_555
H5 C8 1_555 1_555
C9 C8 1_555 1_555
H6 C9 1_555 1_555
C10 C1 1_555 1_555
C11 C1 1_555 1_555
H7 C11 1_555 1_555
C12 N2 1_555 1_555
N1 C11 1_555 1_555
N2 N1 1_555 1_555
H8 N2 1_555 1_555
N3 C12 1_555 1_555
H9 N3 1_555 1_555
H10 N3 1_555 1_555
O1 C2 1_555 1_555
H11 O1 1_555 1_555
O2 C12 1_555 1_555
C5 C10 1_555 1_555
C9 C10 1_555 1_555

#END
