
#######################################################################
#
#                 Cambridge Crystallographic Data Centre
#                                CCDC 
#
#######################################################################
#
# If this CIF has been generated from an entry in the Cambridge 
# Structural Database, then it will include bibliographic, chemical, 
# crystal, experimental, refinement or atomic coordinate data resulting 
# from the CCDC's data processing and validation procedures.
#
#######################################################################

data_VORLOE
_chemical_name_common            
"(P)-4,4'-Disulfanediyldipyridine benzene-1,3-dicarboxylic acid"
_chemical_formula_moiety         'C10 H8 N2 S2,C8 H6 O4'
_chemical_name_systematic        "(P)-4,4'-Dipyridyl disulfide isophthalic acid"
_symmetry_cell_setting           monoclinic
_symmetry_space_group_name_H-M   'P 21/c'
_symmetry_Int_Tables_number      14
_space_group_name_Hall           '-P 2ybc'
loop_
_symmetry_equiv_pos_site_id
_symmetry_equiv_pos_as_xyz
1 x,y,z
2 -x,1/2+y,1/2-z
3 -x,-y,-z
4 x,1/2-y,1/2+z
_cell_length_a                   5.9616(12)
_cell_length_b                   10.024(2)
_cell_length_c                   29.797(6)
_cell_angle_alpha                90
_cell_angle_beta                 93.71(3)
_cell_angle_gamma                90
_cell_volume                     1776.91
_exptl_crystal_colour            colorless
_exptl_crystal_description       platelet
_cell_formula_units_Z            4
loop_
_atom_site_label
_atom_site_type_symbol
_atom_site_fract_x
_atom_site_fract_y
_atom_site_fract_z
C1 C 0.1566(4) 0.1783(3) 0.32831(8)
C2 C 0.1371(5) 0.0516(3) 0.31039(10)
H1 H 0.2419 -0.0142 0.3187
C3 C -0.0411(5) 0.0247(3) 0.27995(10)
H2 H -0.0545 -0.0611 0.2682
N1 N -0.1955(4) 0.1147(2) 0.26642(7)
C4 C -0.1742(5) 0.2369(3) 0.28378(9)
H3 H -0.2806 0.3011 0.2748
C5 C -0.0019(5) 0.2723(3) 0.31427(9)
H4 H 0.0079 0.3589 0.3254
S1 S 0.36292(14) 0.23223(8) 0.36981(3)
S2 S 0.59614(12) 0.08517(9) 0.37425(3)
C6 C 0.5151(4) -0.0234(3) 0.41697(8)
C7 C 0.6649(4) -0.1247(3) 0.42909(9)
H5 H 0.7977 -0.1335 0.4146
C8 C 0.6162(5) -0.2124(3) 0.46265(10)
H6 H 0.7195 -0.2791 0.4708
N2 N 0.4262(4) -0.2055(3) 0.48407(7)
C9 C 0.2814(5) -0.1082(3) 0.47191(9)
H7 H 0.1483 -0.1031 0.4865
C10 C 0.3170(4) -0.0152(3) 0.43917(9)
H8 H 0.2119 0.0513 0.4321
O1 O 0.6473(5) 0.7527(3) 0.28620(9)
O2 O 0.5074(3) 0.5519(2) 0.29642(6)
H9 H 0.3967 0.5742 0.2715
C11 C 0.6474(5) 0.6489(3) 0.30626(9)
C12 C 0.8127(4) 0.6179(3) 0.34480(8)
C13 C 1.0212(5) 0.6802(3) 0.34736(9)
H10 H 1.0553 0.7426 0.3257
C14 C 1.1780(5) 0.6495(3) 0.38191(10)
H11 H 1.3179 0.6909 0.3833
C15 C 1.1292(4) 0.5580(3) 0.41451(9)
H12 H 1.2368 0.5368 0.4374
C16 C 0.9196(4) 0.4977(3) 0.41308(8)
C17 C 0.7617(4) 0.5277(3) 0.37792(8)
H13 H 0.6214 0.4868 0.3767
C18 C 0.8684(5) 0.3991(3) 0.44862(9)
O3 O 1.0115(4) 0.3410(3) 0.47123(9)
O4 O 0.6531(3) 0.3815(2) 0.45246(7)
H14 H 0.6275 0.3313 0.4726
loop_
_geom_bond_atom_site_label_1
_geom_bond_atom_site_label_2
_geom_bond_site_symmetry_1
_geom_bond_site_symmetry_2
C1 C2 1_555 1_555
C2 H1 1_555 1_555
C3 C2 1_555 1_555
H2 C3 1_555 1_555
N1 C3 1_555 1_555
C4 N1 1_555 1_555
H3 C4 1_555 1_555
C5 C1 1_555 1_555
H4 C5 1_555 1_555
S1 C1 1_555 1_555
S2 S1 1_555 1_555
C6 S2 1_555 1_555
C7 C6 1_555 1_555
H5 C7 1_555 1_555
C8 C7 1_555 1_555
H6 C8 1_555 1_555
N2 C8 1_555 1_555
C9 N2 1_555 1_555
H7 C9 1_555 1_555
C10 C6 1_555 1_555
H8 C10 1_555 1_555
O1 C11 1_555 1_555
O2 H9 1_555 1_555
C11 O2 1_555 1_555
C12 C11 1_555 1_555
C13 C12 1_555 1_555
H10 C13 1_555 1_555
C14 C13 1_555 1_555
H11 C14 1_555 1_555
C15 C14 1_555 1_555
H12 C15 1_555 1_555
C16 C15 1_555 1_555
C17 C12 1_555 1_555
H13 C17 1_555 1_555
C18 C16 1_555 1_555
O3 C18 1_555 1_555
O4 C18 1_555 1_555
H14 O4 1_555 1_555
C4 C5 1_555 1_555
C9 C10 1_555 1_555
C16 C17 1_555 1_555

#END
