
#######################################################################
#
#                 Cambridge Crystallographic Data Centre
#                                CCDC 
#
#######################################################################
#
# If this CIF has been generated from an entry in the Cambridge 
# Structural Database, then it will include bibliographic, chemical, 
# crystal, experimental, refinement or atomic coordinate data resulting 
# from the CCDC's data processing and validation procedures.
#
#######################################################################

data_VORLIY
_chemical_name_common            
4-(4-Methoxyphenyl)-3-methylfuro[3,4-b]isoxazolo[4,5-e]pyridin-5(7H)-one
_chemical_formula_moiety         'C16 H12 N2 O4'
_chemical_name_systematic        
4-(4-Methoxyphenyl)-3-methyl-1,6-dioxa-2,8-diaza-s-indacen-5(7H)-one
_symmetry_cell_setting           monoclinic
_symmetry_space_group_name_H-M   'P 21/c'
_symmetry_Int_Tables_number      14
_space_group_name_Hall           '-P 2ybc'
loop_
_symmetry_equiv_pos_site_id
_symmetry_equiv_pos_as_xyz
1 x,y,z
2 -x,1/2+y,1/2-z
3 -x,-y,-z
4 x,1/2-y,1/2+z
_cell_length_a                   13.8513(16)
_cell_length_b                   7.6116(11)
_cell_length_c                   12.6732(15)
_cell_angle_alpha                90
_cell_angle_beta                 95.592(1)
_cell_angle_gamma                90
_cell_volume                     1329.78
_exptl_crystal_colour            colorless
_exptl_crystal_description       block
_chemical_melting_point          '504-506 K'
_cell_formula_units_Z            4
_exptl_crystal_recrystallization_method ethanol
loop_
_atom_site_label
_atom_site_type_symbol
_atom_site_fract_x
_atom_site_fract_y
_atom_site_fract_z
N1 N 0.19564(17) -0.0001(3) 0.93775(17)
N2 N 0.42384(17) -0.1679(3) 0.8929(2)
O1 O -0.00728(12) 0.1886(3) 0.77882(13)
O2 O 0.03096(12) 0.1945(3) 0.61265(14)
O3 O 0.35098(14) -0.1183(3) 0.95948(14)
O4 O 0.30666(13) 0.0742(2) 0.28784(14)
C1 C 0.1314(2) 0.0595(3) 0.8621(2)
C2 C 0.03488(19) 0.1313(4) 0.8820(2)
H1 H -0.0049 0.0415 0.9106
H2 H 0.0418 0.2291 0.9312
C3 C 0.05378(18) 0.1546(4) 0.7033(2)
C4 C 0.14180(18) 0.0708(3) 0.75423(18)
C5 C 0.22780(17) 0.0190(3) 0.71290(19)
C6 C 0.29723(19) -0.0463(3) 0.7918(2)
C7 C 0.2760(2) -0.0493(4) 0.8971(2)
C8 C 0.3921(2) -0.1270(4) 0.7960(2)
C9 C 0.45235(19) -0.1739(4) 0.7089(2)
H3 H 0.4837 -0.0703 0.6857
H4 H 0.4117 -0.2232 0.6507
H5 H 0.5006 -0.2584 0.7344
C10 C 0.24536(17) 0.0332(3) 0.60100(18)
C11 C 0.18199(17) -0.0388(3) 0.52099(19)
H6 H 0.1263 -0.0955 0.5385
C12 C 0.19987(17) -0.0281(3) 0.41641(19)
H7 H 0.1567 -0.0784 0.3642
C13 C 0.28166(18) 0.0570(4) 0.3886(2)
C14 C 0.34544(18) 0.1327(3) 0.4676(2)
H8 H 0.4002 0.1921 0.4498
C15 C 0.32724(17) 0.1194(3) 0.5715(2)
H9 H 0.3706 0.1691 0.6237
C16 C 0.2431(2) 0.0018(4) 0.2031(2)
H10 H 0.2355 -0.1219 0.2145
H11 H 0.2703 0.0203 0.1371
H12 H 0.1810 0.0584 0.2008
loop_
_geom_bond_atom_site_label_1
_geom_bond_atom_site_label_2
_geom_bond_site_symmetry_1
_geom_bond_site_symmetry_2
N1 C1 1_555 1_555
N2 O3 1_555 1_555
O1 C2 1_555 1_555
O2 C3 1_555 1_555
O3 C7 1_555 1_555
O4 C13 1_555 1_555
C1 C2 1_555 1_555
C2 H1 1_555 1_555
H2 C2 1_555 1_555
C3 O1 1_555 1_555
C4 C1 1_555 1_555
C5 C4 1_555 1_555
C6 C5 1_555 1_555
C7 N1 1_555 1_555
C8 N2 1_555 1_555
C9 C8 1_555 1_555
H3 C9 1_555 1_555
H4 C9 1_555 1_555
H5 C9 1_555 1_555
C10 C5 1_555 1_555
C11 C10 1_555 1_555
H6 C11 1_555 1_555
C12 C11 1_555 1_555
H7 C12 1_555 1_555
C13 C12 1_555 1_555
C14 C13 1_555 1_555
H8 C14 1_555 1_555
C15 C10 1_555 1_555
H9 C15 1_555 1_555
C16 O4 1_555 1_555
H10 C16 1_555 1_555
H11 C16 1_555 1_555
H12 C16 1_555 1_555
C3 C4 1_555 1_555
C6 C7 1_555 1_555
C6 C8 1_555 1_555
C14 C15 1_555 1_555

#END
