
#######################################################################
#
#                 Cambridge Crystallographic Data Centre
#                                CCDC 
#
#######################################################################
#
# If this CIF has been generated from an entry in the Cambridge 
# Structural Database, then it will include bibliographic, chemical, 
# crystal, experimental, refinement or atomic coordinate data resulting 
# from the CCDC's data processing and validation procedures.
#
#######################################################################

data_VORMAR
_chemical_formula_moiety         'C17 H18 N2 O2'
_chemical_name_systematic        
'2-Methyl-1,2,3,4-tetrahydroisoquinolin-6-yl N-phenylcarbamate'
_symmetry_cell_setting           monoclinic
_symmetry_space_group_name_H-M   'P 21/c'
_symmetry_Int_Tables_number      14
_space_group_name_Hall           '-P 2ybc'
loop_
_symmetry_equiv_pos_site_id
_symmetry_equiv_pos_as_xyz
1 x,y,z
2 -x,1/2+y,1/2-z
3 -x,-y,-z
4 x,1/2-y,1/2+z
_cell_length_a                   6.0653(6)
_cell_length_b                   15.5540(17)
_cell_length_c                   15.1817(16)
_cell_angle_alpha                90
_cell_angle_beta                 93.488(2)
_cell_angle_gamma                90
_cell_volume                     1429.58
_exptl_crystal_colour            yellow
_exptl_crystal_description       block
_cell_formula_units_Z            4
_exptl_crystal_recrystallization_method ethanol
loop_
_atom_site_label
_atom_site_type_symbol
_atom_site_fract_x
_atom_site_fract_y
_atom_site_fract_z
N1 N 0.2614(2) 0.25526(8) 0.60923(8)
N2 N 0.4681(2) 0.78297(8) 0.56012(7)
O1 O 0.15429(18) 0.36878(7) 0.69300(7)
O2 O 0.45190(18) 0.37476(6) 0.61019(7)
C1 C 0.2728(2) 0.33563(10) 0.64250(9)
C2 C 0.4760(2) 0.46370(9) 0.61918(9)
C3 C 0.6718(2) 0.49347(10) 0.65786(9)
H1 H 0.7760 0.4556 0.6831
C4 C 0.7104(2) 0.58098(10) 0.65837(9)
H2 H 0.8422 0.6019 0.6846
C5 C 0.5568(2) 0.63838(9) 0.62065(8)
C6 C 0.3585(2) 0.60679(9) 0.58205(8)
C7 C 0.3195(2) 0.51930(10) 0.58201(9)
H3 H 0.1872 0.4978 0.5568
C8 C 0.6021(2) 0.73292(10) 0.62511(10)
H4 H 0.5743 0.7534 0.6837
H5 H 0.7570 0.7426 0.6159
C9 C 0.2354(2) 0.76007(10) 0.56625(10)
H6 H 0.1441 0.7981 0.5289
H7 H 0.1946 0.7675 0.6266
C10 C 0.1941(2) 0.66790(10) 0.53803(9)
H8 H 0.0464 0.6513 0.5524
H9 H 0.2018 0.6637 0.4745
C11 C 0.1091(2) 0.19113(9) 0.63109(8)
C12 C -0.0867(2) 0.20917(10) 0.66984(9)
H10 H -0.1227 0.2655 0.6834
C13 C -0.2280(3) 0.14259(11) 0.68815(10)
H11 H -0.3596 0.1549 0.7139
C14 C -0.1782(3) 0.05886(12) 0.66912(11)
H12 H -0.2737 0.0147 0.6826
C15 C 0.0147(3) 0.04127(11) 0.62988(11)
H13 H 0.0488 -0.0151 0.6156
C16 C 0.1585(3) 0.10679(10) 0.61141(10)
H14 H 0.2896 0.0941 0.5855
C17 C 0.4991(3) 0.87447(10) 0.57824(12)
H15 H 0.4182 0.9074 0.5337
H16 H 0.6533 0.8884 0.5780
H17 H 0.4464 0.8878 0.6350
H18 H 0.360(3) 0.2430(11) 0.5712(10)
loop_
_geom_bond_atom_site_label_1
_geom_bond_atom_site_label_2
_geom_bond_site_symmetry_1
_geom_bond_site_symmetry_2
N1 C1 1_555 1_555
N2 C8 1_555 1_555
O1 C1 1_555 1_555
O2 C1 1_555 1_555
C2 O2 1_555 1_555
C3 C2 1_555 1_555
H1 C3 1_555 1_555
C4 C3 1_555 1_555
H2 C4 1_555 1_555
C5 C4 1_555 1_555
C6 C5 1_555 1_555
C7 C2 1_555 1_555
H3 C7 1_555 1_555
C8 C5 1_555 1_555
H4 C8 1_555 1_555
H5 C8 1_555 1_555
C9 N2 1_555 1_555
H6 C9 1_555 1_555
H7 C9 1_555 1_555
C10 C6 1_555 1_555
H8 C10 1_555 1_555
H9 C10 1_555 1_555
C11 N1 1_555 1_555
C12 C11 1_555 1_555
H10 C12 1_555 1_555
C13 C12 1_555 1_555
H11 C13 1_555 1_555
C14 C13 1_555 1_555
H12 C14 1_555 1_555
C15 C14 1_555 1_555
H13 C15 1_555 1_555
C16 C11 1_555 1_555
H14 C16 1_555 1_555
C17 N2 1_555 1_555
H15 C17 1_555 1_555
H16 C17 1_555 1_555
H17 C17 1_555 1_555
H18 N1 1_555 1_555
C6 C7 1_555 1_555
C9 C10 1_555 1_555
C15 C16 1_555 1_555

#END
