
#######################################################################
#
#                 Cambridge Crystallographic Data Centre
#                                CCDC 
#
#######################################################################
#
# If this CIF has been generated from an entry in the Cambridge 
# Structural Database, then it will include bibliographic, chemical, 
# crystal, experimental, refinement or atomic coordinate data resulting 
# from the CCDC's data processing and validation procedures.
#
#######################################################################

data_VORPUO
_chemical_formula_moiety         'C23 H18 Br1 N1'
_chemical_name_systematic        
5-(4-Bromophenyl)-1,2,3,4-tetrahydrobenzo[a]phenanthridine
_symmetry_cell_setting           triclinic
_symmetry_space_group_name_H-M   'P -1'
_symmetry_Int_Tables_number      2
_space_group_name_Hall           '-P 1'
loop_
_symmetry_equiv_pos_site_id
_symmetry_equiv_pos_as_xyz
1 x,y,z
2 -x,-y,-z
_cell_length_a                   5.660(3)
_cell_length_b                   11.596(6)
_cell_length_c                   13.869(6)
_cell_angle_alpha                78.48(3)
_cell_angle_beta                 78.30(3)
_cell_angle_gamma                85.15(3)
_cell_volume                     872.479
_exptl_crystal_colour            colorless
_exptl_crystal_description       block
_chemical_melting_point          '491-493 K'
_cell_formula_units_Z            2
_exptl_crystal_recrystallization_method ethanol
loop_
_atom_site_label
_atom_site_type_symbol
_atom_site_fract_x
_atom_site_fract_y
_atom_site_fract_z
Br1 Br 0.54047(10) -0.03144(4) 0.75111(3)
N1 N 0.2434(6) 0.4250(3) 0.39876(17)
C1 C 0.4456(7) 0.3594(3) 0.3874(2)
C2 C 0.6195(7) 0.3727(3) 0.2984(2)
C3 C 0.5838(6) 0.4649(3) 0.2203(2)
C4 C 0.3867(6) 0.5467(3) 0.23571(19)
C5 C 0.2104(6) 0.5181(3) 0.32479(19)
C6 C -0.0130(7) 0.5835(3) 0.3388(2)
H1 H -0.1273 0.5609 0.3967
C7 C -0.0644(7) 0.6779(3) 0.2703(2)
H2 H -0.2165 0.7159 0.2788
C8 C 0.1163(7) 0.7192(3) 0.1846(2)
C9 C 0.0690(8) 0.8271(3) 0.1212(2)
H3 H -0.0824 0.8656 0.1317
C10 C 0.2477(8) 0.8748(3) 0.0442(3)
H4 H 0.2164 0.9446 0.0015
C11 C 0.4733(8) 0.8188(4) 0.0305(2)
H5 H 0.5952 0.8525 -0.0203
C12 C 0.5202(7) 0.7137(3) 0.0910(2)
H6 H 0.6744 0.6782 0.0805
C13 C 0.3405(7) 0.6580(3) 0.1688(2)
C14 C 0.7466(7) 0.4650(3) 0.1191(2)
H7 H 0.6566 0.4976 0.0666
H8 H 0.8805 0.5149 0.1121
C15 C 0.8432(9) 0.3429(4) 0.1069(2)
H9 H 0.9445 0.3455 0.0411
H10 H 0.7104 0.2928 0.1124
C16 C 0.9891(9) 0.2926(5) 0.1872(3)
H11 H 1.0559 0.2149 0.1781
H12 H 1.1221 0.3427 0.1814
C17 C 0.8312(7) 0.2847(4) 0.2897(2)
H13 H 0.7699 0.2062 0.3105
H14 H 0.9312 0.2942 0.3365
C18 C 0.4726(6) 0.2632(3) 0.47485(19)
C19 C 0.6498(7) 0.2655(4) 0.5296(2)
H15 H 0.7555 0.3268 0.5114
C20 C 0.6714(8) 0.1771(4) 0.6116(2)
H16 H 0.7932 0.1775 0.6476
C21 C 0.5097(7) 0.0887(3) 0.6387(2)
C22 C 0.3329(8) 0.0850(3) 0.5860(2)
H17 H 0.2260 0.0242 0.6048
C23 C 0.3150(7) 0.1734(3) 0.5038(2)
H18 H 0.1942 0.1718 0.4676
loop_
_geom_bond_atom_site_label_1
_geom_bond_atom_site_label_2
_geom_bond_site_symmetry_1
_geom_bond_site_symmetry_2
Br1 C21 1_555 1_555
N1 C1 1_555 1_555
C1 C2 1_555 1_555
C2 C3 1_555 1_555
C3 C4 1_555 1_555
C4 C5 1_555 1_555
C5 N1 1_555 1_555
C6 C5 1_555 1_555
H1 C6 1_555 1_555
C7 C6 1_555 1_555
H2 C7 1_555 1_555
C8 C7 1_555 1_555
C9 C8 1_555 1_555
H3 C9 1_555 1_555
C10 C9 1_555 1_555
H4 C10 1_555 1_555
C11 C10 1_555 1_555
H5 C11 1_555 1_555
C12 C11 1_555 1_555
H6 C12 1_555 1_555
C13 C4 1_555 1_555
C14 C3 1_555 1_555
H7 C14 1_555 1_555
H8 C14 1_555 1_555
C15 C14 1_555 1_555
H9 C15 1_555 1_555
H10 C15 1_555 1_555
C16 C15 1_555 1_555
H11 C16 1_555 1_555
H12 C16 1_555 1_555
C17 C2 1_555 1_555
H13 C17 1_555 1_555
H14 C17 1_555 1_555
C18 C1 1_555 1_555
C19 C18 1_555 1_555
H15 C19 1_555 1_555
C20 C19 1_555 1_555
H16 C20 1_555 1_555
C21 C20 1_555 1_555
C22 C21 1_555 1_555
H17 C22 1_555 1_555
C23 C18 1_555 1_555
H18 C23 1_555 1_555
C8 C13 1_555 1_555
C12 C13 1_555 1_555
C16 C17 1_555 1_555
C22 C23 1_555 1_555

#END
