
#######################################################################
#
#                 Cambridge Crystallographic Data Centre
#                                CCDC 
#
#######################################################################
#
# If this CIF has been generated from an entry in the Cambridge 
# Structural Database, then it will include bibliographic, chemical, 
# crystal, experimental, refinement or atomic coordinate data resulting 
# from the CCDC's data processing and validation procedures.
#
#######################################################################

data_VORTUS
_chemical_formula_moiety         'C60 H64 N4 O4'
_chemical_name_systematic        
5',17',23',35',38',40',43',45'-Octamethyl-7',15',25',33'-tetra-azadispiro[cyclohexane-1,2'-heptacyclo[32.2.2.2^3,6^.2^16,19^.2^21,24^.1^9,13^.1^27,31^]hexatetracontane-20',1''-cyclohexane]-1'(36'),3',5',9'(44'),10',12',16',18',21',23',27'(39'),28',30',34',37',40',-42',45'-octadecaene-8',14',26',32'-tetrone
_symmetry_cell_setting           monoclinic
_symmetry_space_group_name_H-M   'P 21/c'
_symmetry_Int_Tables_number      14
_space_group_name_Hall           '-P 2ybc'
loop_
_symmetry_equiv_pos_site_id
_symmetry_equiv_pos_as_xyz
1 x,y,z
2 -x,1/2+y,1/2-z
3 -x,-y,-z
4 x,1/2-y,1/2+z
_cell_length_a                   15.0288(2)
_cell_length_b                   9.5142(1)
_cell_length_c                   18.3963(2)
_cell_angle_alpha                90
_cell_angle_beta                 108.246(1)
_cell_angle_gamma                90
_cell_volume                     2498.18
_exptl_crystal_colour            colorless
_exptl_crystal_description       plates
_cell_formula_units_Z            2
_exptl_crystal_recrystallization_method sublimation
loop_
_atom_site_label
_atom_site_type_symbol
_atom_site_fract_x
_atom_site_fract_y
_atom_site_fract_z
C1 C 0.79908(8) 0.70177(12) 0.37431(7)
O1 O 0.87694(5) 0.73893(8) 0.41473(5)
N1 N 0.75363(7) 0.58478(10) 0.38590(6)
H1 H 0.6984(8) 0.5723(13) 0.3537(7)
C2 C 0.78391(8) 0.48350(11) 0.44627(7)
C3 C 0.86639(8) 0.40632(12) 0.45757(7)
C4 C 0.88514(8) 0.29693(12) 0.51056(7)
H2 H 0.9420 0.2461 0.5198
C5 C 0.82375(8) 0.25891(12) 0.55066(7)
C6 C 0.74342(8) 0.34026(12) 0.53877(7)
H3 H 0.7012 0.3180 0.5662
C7 C 0.72284(8) 0.45327(12) 0.48792(7)
C8 C 0.84335(8) 0.12608(11) 0.60169(7)
C9 C 0.83820(9) -0.00269(12) 0.54860(7)
H4 H 0.7737 -0.0107 0.5128
H5 H 0.8807 0.0133 0.5178
C10 C 0.86490(9) -0.14112(12) 0.59247(8)
H6 H 0.8184 -0.1634 0.6188
H7 H 0.8639 -0.2181 0.5560
C11 C 0.96212(10) -0.13141(13) 0.65121(8)
H8 H 1.0095 -0.1211 0.6244
H9 H 0.9758 -0.2193 0.6815
C12 C 0.96886(9) -0.00657(13) 0.70491(8)
H10 H 1.0333 0.0001 0.7410
H11 H 0.9254 -0.0206 0.7351
C13 C 0.94391(8) 0.12974(12) 0.65873(7)
H12 H 0.9890 0.1449 0.6302
H13 H 0.9496 0.2097 0.6943
C14 C 0.77048(8) 0.11797(11) 0.64484(7)
C15 C 0.78002(8) 0.20044(12) 0.70968(7)
H14 H 0.8366 0.2514 0.7311
C16 C 0.71009(8) 0.21101(11) 0.74419(7)
C17 C 0.62670(8) 0.13716(11) 0.71126(7)
C18 C 0.61519(8) 0.04822(12) 0.64838(7)
C19 C 0.68831(8) 0.04046(12) 0.61691(7)
H15 H 0.6817 -0.0204 0.5746
N2 N 0.54806(7) 0.16413(10) 0.73792(6)
H16 H 0.5240(8) 0.2499(12) 0.7318(7)
C20 C 0.50232(8) 0.06692(11) 0.76563(7)
O2 O 0.53626(5) -0.05016(8) 0.78863(5)
C21 C 0.40537(8) 0.10696(11) 0.76355(7)
C22 C 0.36641(8) 0.05921(12) 0.81834(7)
H17 H 0.4031 0.0052 0.8605
C23 C 0.27389(9) 0.09046(13) 0.81131(7)
H18 H 0.2478 0.0594 0.8493
C24 C 0.21915(8) 0.16701(12) 0.74886(7)
H19 H 0.1555 0.1863 0.7438
C25 C 0.74252(8) 0.78471(11) 0.30606(7)
C26 C 0.35033(8) 0.18466(11) 0.70180(7)
H20 H 0.3767 0.2174 0.6643
C27 C 0.93062(8) 0.43166(12) 0.41049(7)
H21 H 0.9835 0.3661 0.4263
H22 H 0.9541 0.5284 0.4182
H23 H 0.8961 0.4170 0.3562
C28 C 0.63557(9) 0.54033(13) 0.47854(8)
H24 H 0.5995 0.4995 0.5095
H25 H 0.5971 0.5409 0.4246
H26 H 0.6536 0.6368 0.4955
C29 C 0.72325(8) 0.30025(12) 0.81450(7)
H27 H 0.6762 0.3753 0.8030
H28 H 0.7861 0.3418 0.8301
H29 H 0.7160 0.2417 0.8561
C30 C 0.52676(9) -0.03476(14) 0.61324(8)
H30 H 0.5266 -0.0718 0.5635
H31 H 0.4723 0.0265 0.6063
H32 H 0.5239 -0.1129 0.6471
C1B C 0.20092(8) 0.29823(12) 0.62569(7)
O1B O 0.12306(5) 0.26107(8) 0.58527(5)
N1B N 0.24637(7) 0.41522(10) 0.61410(6)
H1B H 0.3016(8) 0.4277(13) 0.6463(7)
C2B C 0.21609(8) 0.51650(11) 0.55373(7)
C3B C 0.13361(8) 0.59368(12) 0.54243(7)
C4B C 0.11486(8) 0.70307(12) 0.48944(7)
H2B H 0.0580 0.7539 0.4802
C5B C 0.17625(8) 0.74109(12) 0.44934(7)
C6B C 0.25658(8) 0.65974(12) 0.46123(7)
H3B H 0.2988 0.6820 0.4338
C7B C 0.27716(8) 0.54673(12) 0.51208(7)
C8B C 0.15665(8) 0.87392(11) 0.39831(7)
C9B C 0.16180(9) 1.00269(12) 0.45140(7)
H4B H 0.2263 1.0107 0.4872
H5B H 0.1193 0.9867 0.4822
C10B C 0.13510(9) 1.14112(12) 0.40753(8)
H6B H 0.1816 1.1634 0.3812
H7B H 0.1361 1.2181 0.4440
C11B C 0.03788(10) 1.13141(13) 0.34879(8)
H8B H -0.0095 1.1211 0.3756
H9B H 0.0242 1.2193 0.3185
C12B C 0.03114(9) 1.00657(13) 0.29509(8)
H10B H -0.0333 0.9999 0.2590
H11B H 0.0746 1.0206 0.2649
C13B C 0.05609(8) 0.87026(12) 0.34127(7)
H12B H 0.0110 0.8551 0.3698
H13B H 0.0504 0.7903 0.3057
C14B C 0.22952(8) 0.88203(11) 0.35516(7)
C15B C 0.21998(8) 0.79956(12) 0.29032(7)
H14B H 0.1634 0.7486 0.2689
C16B C 0.28991(8) 0.78899(11) 0.25581(7)
C17B C 0.37330(8) 0.86284(11) 0.28874(7)
C18B C 0.38481(8) 0.95178(12) 0.35162(7)
C19B C 0.31169(8) 0.95954(12) 0.38309(7)
H15B H 0.3183 1.0204 0.4254
N2B N 0.45194(7) 0.83587(10) 0.26208(6)
H16B H 0.4760(8) 0.7501(12) 0.2682(7)
C20B C 0.49768(8) 0.93308(11) 0.23437(7)
O2B O 0.46374(5) 1.05016(8) 0.21137(5)
C21B C 0.59463(8) 0.89304(11) 0.23645(7)
C22B C 0.63359(8) 0.94079(12) 0.18166(7)
H17B H 0.5969 0.9948 0.1395
C23B C 0.72611(9) 0.90954(13) 0.18869(7)
H18B H 0.7522 0.9406 0.1507
C24B C 0.78085(8) 0.83299(12) 0.25114(7)
H19B H 0.8445 0.8137 0.2562
C25B C 0.25748(8) 0.21529(11) 0.69394(7)
C26B C 0.64967(8) 0.81534(11) 0.29820(7)
H20B H 0.6233 0.7826 0.3357
C27B C 0.06938(8) 0.56834(12) 0.58951(7)
H21B H 0.0165 0.6339 0.5737
H22B H 0.0459 0.4716 0.5818
H23B H 0.1039 0.5830 0.6438
C28B C 0.36443(9) 0.45967(13) 0.52146(8)
H24B H 0.4005 0.5005 0.4905
H25B H 0.4029 0.4591 0.5754
H26B H 0.3464 0.3632 0.5045
C29B C 0.27675(8) 0.69975(12) 0.18550(7)
H27B H 0.3238 0.6247 0.1970
H28B H 0.2139 0.6582 0.1699
H29B H 0.2840 0.7583 0.1439
C30B C 0.47324(9) 1.03476(14) 0.38676(8)
H30B H 0.4734 1.0718 0.4365
H31B H 0.5277 0.9735 0.3937
H32B H 0.4761 1.1129 0.3529
loop_
_geom_bond_atom_site_label_1
_geom_bond_atom_site_label_2
_geom_bond_site_symmetry_1
_geom_bond_site_symmetry_2
C1 O1 1_555 1_555
N1 C1 1_555 1_555
H1 N1 1_555 1_555
C2 N1 1_555 1_555
C3 C2 1_555 1_555
C4 C3 1_555 1_555
H2 C4 1_555 1_555
C5 C4 1_555 1_555
C6 C5 1_555 1_555
H3 C6 1_555 1_555
C7 C2 1_555 1_555
C8 C5 1_555 1_555
C9 C8 1_555 1_555
H4 C9 1_555 1_555
H5 C9 1_555 1_555
C10 C9 1_555 1_555
H6 C10 1_555 1_555
H7 C10 1_555 1_555
C11 C10 1_555 1_555
H8 C11 1_555 1_555
H9 C11 1_555 1_555
C12 C11 1_555 1_555
H10 C12 1_555 1_555
H11 C12 1_555 1_555
C13 C8 1_555 1_555
H12 C13 1_555 1_555
H13 C13 1_555 1_555
C14 C8 1_555 1_555
C15 C14 1_555 1_555
H14 C15 1_555 1_555
C16 C15 1_555 1_555
C17 C16 1_555 1_555
C18 C17 1_555 1_555
C19 C14 1_555 1_555
H15 C19 1_555 1_555
N2 C17 1_555 1_555
H16 N2 1_555 1_555
C20 N2 1_555 1_555
O2 C20 1_555 1_555
C21 C20 1_555 1_555
C22 C21 1_555 1_555
H17 C22 1_555 1_555
C23 C22 1_555 1_555
H18 C23 1_555 1_555
C24 C23 1_555 1_555
H19 C24 1_555 1_555
C25 C1 1_555 1_555
C26 C21 1_555 1_555
H20 C26 1_555 1_555
C27 C3 1_555 1_555
H21 C27 1_555 1_555
H22 C27 1_555 1_555
H23 C27 1_555 1_555
C28 C7 1_555 1_555
H24 C28 1_555 1_555
H25 C28 1_555 1_555
H26 C28 1_555 1_555
C29 C16 1_555 1_555
H27 C29 1_555 1_555
H28 C29 1_555 1_555
H29 C29 1_555 1_555
C30 C18 1_555 1_555
H30 C30 1_555 1_555
H31 C30 1_555 1_555
H32 C30 1_555 1_555
C1B O1B 1_555 1_555
N1B C1B 1_555 1_555
H1B N1B 1_555 1_555
C2B N1B 1_555 1_555
C3B C2B 1_555 1_555
C4B C3B 1_555 1_555
H2B C4B 1_555 1_555
C5B C4B 1_555 1_555
C6B C5B 1_555 1_555
H3B C6B 1_555 1_555
C7B C2B 1_555 1_555
C8B C5B 1_555 1_555
C9B C8B 1_555 1_555
H4B C9B 1_555 1_555
H5B C9B 1_555 1_555
C10B C9B 1_555 1_555
H6B C10B 1_555 1_555
H7B C10B 1_555 1_555
C11B C10B 1_555 1_555
H8B C11B 1_555 1_555
H9B C11B 1_555 1_555
C12B C11B 1_555 1_555
H10B C12B 1_555 1_555
H11B C12B 1_555 1_555
C13B C8B 1_555 1_555
H12B C13B 1_555 1_555
H13B C13B 1_555 1_555
C14B C8B 1_555 1_555
C15B C14B 1_555 1_555
H14B C15B 1_555 1_555
C16B C15B 1_555 1_555
C17B C16B 1_555 1_555
C18B C17B 1_555 1_555
C19B C14B 1_555 1_555
H15B C19B 1_555 1_555
N2B C17B 1_555 1_555
H16B N2B 1_555 1_555
C20B N2B 1_555 1_555
O2B C20B 1_555 1_555
C21B C20B 1_555 1_555
C22B C21B 1_555 1_555
H17B C22B 1_555 1_555
C23B C22B 1_555 1_555
H18B C23B 1_555 1_555
C24B C25 1_555 1_555
H19B C24B 1_555 1_555
C25B C24 1_555 1_555
C26B C25 1_555 1_555
H20B C26B 1_555 1_555
C27B C3B 1_555 1_555
H21B C27B 1_555 1_555
H22B C27B 1_555 1_555
H23B C27B 1_555 1_555
C28B C7B 1_555 1_555
H24B C28B 1_555 1_555
H25B C28B 1_555 1_555
H26B C28B 1_555 1_555
C29B C16B 1_555 1_555
H27B C29B 1_555 1_555
H28B C29B 1_555 1_555
H29B C29B 1_555 1_555
C30B C18B 1_555 1_555
H30B C30B 1_555 1_555
H31B C30B 1_555 1_555
H32B C30B 1_555 1_555
C6 C7 1_555 1_555
C12 C13 1_555 1_555
C18 C19 1_555 1_555
C26 C25B 1_555 1_555
C1B C25B 1_555 1_555
C6B C7B 1_555 1_555
C12B C13B 1_555 1_555
C18B C19B 1_555 1_555
C21B C26B 1_555 1_555
C23B C24B 1_555 1_555

#END
