
#######################################################################
#
#                 Cambridge Crystallographic Data Centre
#                                CCDC 
#
#######################################################################
#
# If this CIF has been generated from an entry in the Cambridge 
# Structural Database, then it will include bibliographic, chemical, 
# crystal, experimental, refinement or atomic coordinate data resulting 
# from the CCDC's data processing and validation procedures.
#
#######################################################################

data_VORVOP
_chemical_formula_moiety         'C32 H46 Li2 N8 Si2'
_chemical_name_systematic        
bis(\m~2~-N,N-Dimethyl-N'-(trimethylsilyl)-N''-(2-methylquinolin-8-yl)guanidinato)-di-lithium
_symmetry_cell_setting           orthorhombic
_symmetry_space_group_name_H-M   'P b c n'
_symmetry_Int_Tables_number      60
_space_group_name_Hall           '-P 2n 2ab'
loop_
_symmetry_equiv_pos_site_id
_symmetry_equiv_pos_as_xyz
1 x,y,z
2 1/2+x,1/2-y,-z
3 -x,y,1/2-z
4 1/2-x,1/2-y,1/2+z
5 -x,-y,-z
6 1/2-x,1/2+y,z
7 x,-y,1/2+z
8 1/2+x,1/2+y,1/2-z
_cell_length_a                   15.4886(7)
_cell_length_b                   19.2519(9)
_cell_length_c                   12.1325(5)
_cell_angle_alpha                90
_cell_angle_beta                 90
_cell_angle_gamma                90
_cell_volume                     3617.73
_exptl_crystal_colour            yellow
_exptl_crystal_description       Plate
_cell_formula_units_Z            4
loop_
_atom_site_label
_atom_site_type_symbol
_atom_site_fract_x
_atom_site_fract_y
_atom_site_fract_z
Li1 Li 0.98429(14) 0.29673(11) 0.14775(18)
N1 N 0.91858(7) 0.37629(6) 0.08204(8)
N2 N 0.89397(6) 0.29899(5) 0.26533(8)
N3 N 0.93513(7) 0.22379(5) 0.40187(9)
N4 N 0.79183(7) 0.21834(6) 0.33638(10)
Si1 Si 0.96958(2) 0.148115(19) 0.45975(3)
C1 C 0.99950(12) 0.38420(10) -0.08686(13)
H1 H 1.0432 0.3584 -0.0451
H2 H 1.0271 0.4228 -0.1260
H3 H 0.9718 0.3531 -0.1402
C2 C 0.93268(9) 0.41225(8) -0.00906(11)
C3 C 0.88474(11) 0.47300(8) -0.03382(12)
H4 H 0.8965 0.4984 -0.0992
C4 C 0.82217(11) 0.49469(8) 0.03593(13)
H5 H 0.7904 0.5356 0.0195
C5 C 0.80377(9) 0.45698(7) 0.13287(12)
C6 C 0.73744(10) 0.47525(8) 0.20695(13)
H6 H 0.7035 0.5156 0.1943
C7 C 0.72239(9) 0.43476(8) 0.29655(13)
H7 H 0.6770 0.4468 0.3457
C8 C 0.77243(8) 0.37545(7) 0.31825(11)
H8 H 0.7605 0.3488 0.3824
C9 C 0.83884(7) 0.35451(6) 0.24876(10)
C10 C 0.85456(8) 0.39675(6) 0.15297(10)
C11 C 0.87392(8) 0.24629(6) 0.33748(10)
C12 C 0.73354(9) 0.22421(8) 0.24368(14)
H9 H 0.6866 0.2563 0.2623
H10 H 0.7095 0.1784 0.2264
H11 H 0.7651 0.2420 0.1796
C13 C 0.75615(11) 0.18412(10) 0.43207(16)
H12 H 0.7954 0.1900 0.4947
H13 H 0.7489 0.1345 0.4165
H14 H 0.7000 0.2046 0.4499
C14 C 0.92232(12) 0.06800(8) 0.39867(16)
H15 H 0.8630 0.0622 0.4251
H16 H 0.9569 0.0277 0.4206
H17 H 0.9222 0.0720 0.3181
C15 C 0.95220(15) 0.14768(11) 0.61154(14)
H18 H 0.9745 0.1909 0.6432
H19 H 0.9826 0.1081 0.6442
H20 H 0.8903 0.1438 0.6272
C16 C 1.08885(10) 0.14435(9) 0.43700(15)
H21 H 1.1010 0.1455 0.3577
H22 H 1.1118 0.1013 0.4686
H23 H 1.1163 0.1843 0.4727
Li1B Li 1.01571(14) 0.29673(11) 0.35225(18)
N1B N 1.08142(7) 0.37629(6) 0.41796(8)
N2B N 1.10603(6) 0.29899(5) 0.23467(8)
N3B N 1.06487(7) 0.22379(5) 0.09813(9)
N4B N 1.20817(7) 0.21834(6) 0.16362(10)
Si1B Si 1.03042(2) 0.148115(19) 0.04025(3)
C1B C 1.00050(12) 0.38420(10) 0.58686(13)
H1B H 0.9568 0.3584 0.5451
H2B H 0.9729 0.4228 0.6260
H3B H 1.0282 0.3531 0.6402
C2B C 1.06732(9) 0.41225(8) 0.50906(11)
C3B C 1.11526(11) 0.47300(8) 0.53382(12)
H4B H 1.1035 0.4984 0.5992
C4B C 1.17783(11) 0.49469(8) 0.46407(13)
H5B H 1.2096 0.5356 0.4805
C5B C 1.19623(9) 0.45698(7) 0.36713(12)
C6B C 1.26256(10) 0.47525(8) 0.29305(13)
H6B H 1.2965 0.5156 0.3057
C7B C 1.27761(9) 0.43476(8) 0.20345(13)
H7B H 1.3230 0.4468 0.1543
C8B C 1.22757(8) 0.37545(7) 0.18175(11)
H8B H 1.2395 0.3488 0.1176
C9B C 1.16116(7) 0.35451(6) 0.25124(10)
C10B C 1.14544(8) 0.39675(6) 0.34703(10)
C11B C 1.12608(8) 0.24629(6) 0.16252(10)
C12B C 1.26646(9) 0.22421(8) 0.25632(14)
H9B H 1.3134 0.2563 0.2377
H10B H 1.2905 0.1784 0.2736
H11B H 1.2349 0.2420 0.3204
C13B C 1.24385(11) 0.18412(10) 0.06793(16)
H12B H 1.2046 0.1900 0.0053
H13B H 1.2511 0.1345 0.0835
H14B H 1.3000 0.2046 0.0501
C14B C 1.07768(12) 0.06800(8) 0.10133(16)
H15B H 1.1370 0.0622 0.0749
H16B H 1.0431 0.0277 0.0794
H17B H 1.0778 0.0720 0.1819
C15B C 1.04780(15) 0.14768(11) -0.11154(14)
H18B H 1.0255 0.1909 -0.1432
H19B H 1.0174 0.1081 -0.1442
H20B H 1.1097 0.1438 -0.1272
C16B C 0.91115(10) 0.14435(9) 0.06300(15)
H21B H 0.8990 0.1455 0.1423
H22B H 0.8882 0.1013 0.0314
H23B H 0.8837 0.1843 0.0273
loop_
_geom_bond_atom_site_label_1
_geom_bond_atom_site_label_2
_geom_bond_site_symmetry_1
_geom_bond_site_symmetry_2
Li1 N1 1_555 1_555
N1 C2 1_555 1_555
N2 Li1 1_555 1_555
N3 Si1 1_555 1_555
N4 C11 1_555 1_555
Si1 C14 1_555 1_555
C1 H1 1_555 1_555
H2 C1 1_555 1_555
H3 C1 1_555 1_555
C2 C1 1_555 1_555
C3 C2 1_555 1_555
H4 C3 1_555 1_555
C4 C3 1_555 1_555
H5 C4 1_555 1_555
C5 C4 1_555 1_555
C6 C5 1_555 1_555
H6 C6 1_555 1_555
C7 C6 1_555 1_555
H7 C7 1_555 1_555
C8 C7 1_555 1_555
H8 C8 1_555 1_555
C9 N2 1_555 1_555
C10 N1 1_555 1_555
C11 N2 1_555 1_555
C12 N4 1_555 1_555
H9 C12 1_555 1_555
H10 C12 1_555 1_555
H11 C12 1_555 1_555
C13 N4 1_555 1_555
H12 C13 1_555 1_555
H13 C13 1_555 1_555
H14 C13 1_555 1_555
C14 H15 1_555 1_555
H16 C14 1_555 1_555
H17 C14 1_555 1_555
C15 Si1 1_555 1_555
H18 C15 1_555 1_555
H19 C15 1_555 1_555
H20 C15 1_555 1_555
C16 Si1 1_555 1_555
H21 C16 1_555 1_555
H22 C16 1_555 1_555
H23 C16 1_555 1_555
Li1B N2 1_555 1_555
N1B Li1B 1_555 1_555
N2B Li1 1_555 1_555
N3B Li1 1_555 1_555
N4B C11B 1_555 1_555
Si1B N3B 1_555 1_555
C1B H1B 1_555 1_555
H2B C1B 1_555 1_555
H3B C1B 1_555 1_555
C2B N1B 1_555 1_555
C3B C2B 1_555 1_555
H4B C3B 1_555 1_555
C4B C3B 1_555 1_555
H5B C4B 1_555 1_555
C5B C4B 1_555 1_555
C6B C5B 1_555 1_555
H6B C6B 1_555 1_555
C7B C6B 1_555 1_555
H7B C7B 1_555 1_555
C8B C7B 1_555 1_555
H8B C8B 1_555 1_555
C9B N2B 1_555 1_555
C10B N1B 1_555 1_555
C11B N2B 1_555 1_555
C12B N4B 1_555 1_555
H9B C12B 1_555 1_555
H10B C12B 1_555 1_555
H11B C12B 1_555 1_555
C13B N4B 1_555 1_555
H12B C13B 1_555 1_555
H13B C13B 1_555 1_555
H14B C13B 1_555 1_555
C14B Si1B 1_555 1_555
H15B C14B 1_555 1_555
H16B C14B 1_555 1_555
H17B C14B 1_555 1_555
C15B Si1B 1_555 1_555
H18B C15B 1_555 1_555
H19B C15B 1_555 1_555
H20B C15B 1_555 1_555
C16B Si1B 1_555 1_555
H21B C16B 1_555 1_555
H22B C16B 1_555 1_555
H23B C16B 1_555 1_555
N3 C11 1_555 1_555
N3 Li1B 1_555 1_555
C5 C10 1_555 1_555
C8 C9 1_555 1_555
C9 C10 1_555 1_555
Li1B N2B 1_555 1_555
N3B C11B 1_555 1_555
C1B C2B 1_555 1_555
C5B C10B 1_555 1_555
C8B C9B 1_555 1_555
C9B C10B 1_555 1_555

#END
