
#######################################################################
#
#                 Cambridge Crystallographic Data Centre
#                                CCDC 
#
#######################################################################
#
# If this CIF has been generated from an entry in the Cambridge 
# Structural Database, then it will include bibliographic, chemical, 
# crystal, experimental, refinement or atomic coordinate data resulting 
# from the CCDC's data processing and validation procedures.
#
#######################################################################

data_VOSFOA
_chemical_formula_moiety         'C18 H17 Cl1 F1 N3 O3'
_chemical_name_systematic        
2-(2-chloro-9-fluoro-5H-chromeno[2,3-b]pyridin-5-yl)-2-methyl-N-(methylcarbamoyl)propanamide
_symmetry_cell_setting           monoclinic
_symmetry_space_group_name_H-M   'P 21'
_symmetry_Int_Tables_number      4
_space_group_name_Hall           'P 2yb'
loop_
_symmetry_equiv_pos_site_id
_symmetry_equiv_pos_as_xyz
1 x,y,z
2 -x,1/2+y,-z
_cell_length_a                   7.3053(2)
_cell_length_b                   11.9829(3)
_cell_length_c                   20.2007(5)
_cell_angle_alpha                90
_cell_angle_beta                 94.1320(10)
_cell_angle_gamma                90
_cell_volume                     1763.75
_exptl_crystal_colour            colorless
_exptl_crystal_description       prism-plate
_cell_formula_units_Z            4
loop_
_atom_site_label
_atom_site_type_symbol
_atom_site_fract_x
_atom_site_fract_y
_atom_site_fract_z
Cl1 Cl -0.39785(8) 0.80323(7) -0.11857(3)
F1 F -0.1585(2) 1.14039(12) 0.15547(8)
O1 O -0.08272(19) 0.97743(11) 0.07377(7)
O2 O 0.6144(2) 0.85443(13) 0.15827(9)
O3 O 0.5794(2) 0.56432(15) 0.26270(9)
N1 N -0.2137(2) 0.88734(16) -0.01481(9)
N2 N 0.4862(2) 0.68895(15) 0.18339(9)
H1 H 0.3897 0.6474 0.1750
N3 N 0.7750(2) 0.70203(16) 0.24053(9)
H2 H 0.7956 0.7594 0.2158
C1 C 0.0023(2) 0.78522(16) 0.05825(10)
C2 C -0.0968(3) 0.87984(17) 0.03823(10)
C3 C -0.2403(3) 0.7948(2) -0.04994(10)
C4 C -0.1589(3) 0.6940(2) -0.03465(11)
H3 H -0.1851 0.6304 -0.0608
C5 C -0.0372(3) 0.68987(18) 0.02078(11)
H4 H 0.0196 0.6219 0.0333
C6 C 0.1458(3) 0.78833(17) 0.11561(9)
H5 H 0.1395 0.7172 0.1403
C7 C 0.1017(3) 0.88278(17) 0.16207(11)
C8 C 0.1667(3) 0.8847(2) 0.22846(11)
H6 H 0.2407 0.8258 0.2457
C9 C 0.1245(3) 0.9718(2) 0.26964(12)
H7 H 0.1703 0.9714 0.3143
C10 C 0.0162(4) 1.0589(2) 0.24590(13)
H8 H -0.0118 1.1184 0.2738
C11 C -0.0501(3) 1.0572(2) 0.18054(13)
C12 C -0.0086(3) 0.97014(17) 0.13804(10)
C13 C 0.3449(3) 0.79897(18) 0.09009(10)
C14 C 0.3691(3) 0.91244(19) 0.05787(12)
H9 H 0.3606 0.9707 0.0909
H10 H 0.2737 0.9231 0.0225
H11 H 0.4884 0.9158 0.0397
C15 C 0.3819(3) 0.7044(2) 0.04115(11)
H12 H 0.5118 0.7021 0.0341
H13 H 0.3124 0.7179 -0.0008
H14 H 0.3448 0.6337 0.0593
C16 C 0.4926(3) 0.78646(18) 0.14750(10)
C17 C 0.6169(3) 0.64880(18) 0.23184(11)
C18 C 0.9143(3) 0.6666(2) 0.29051(12)
H15 H 0.9043 0.7101 0.3306
H16 H 1.0347 0.6777 0.2743
H17 H 0.8975 0.5881 0.3002
Cl2 Cl 0.59941(14) -0.12374(6) 0.35355(5)
F2 F 0.8786(3) 0.28792(15) 0.57984(7)
O4 O 0.6634(3) 0.22073(14) 0.47651(8)
O5 O 0.0738(2) 0.31393(14) 0.31573(8)
O6 O 0.1837(2) 0.53542(12) 0.16843(8)
N4 N 0.6292(3) 0.06867(17) 0.41270(10)
N5 N 0.2458(2) 0.44161(14) 0.26459(9)
H18 H 0.3530 0.4736 0.2674
N6 N -0.0133(3) 0.40029(17) 0.19496(10)
H19 H -0.0361 0.3474 0.2227
C19 C 0.5611(3) 0.2473(2) 0.36117(11)
C20 C 0.6166(3) 0.17847(19) 0.41456(11)
C21 C 0.5917(4) 0.0221(2) 0.35416(14)
C22 C 0.5493(3) 0.0791(2) 0.29617(13)
H20 H 0.5323 0.0417 0.2553
C23 C 0.5328(3) 0.1937(2) 0.30039(11)
H21 H 0.5021 0.2356 0.2618
C24 C 0.5331(3) 0.37004(18) 0.37178(10)
H22 H 0.5672 0.4100 0.3316
C25 C 0.6608(3) 0.40800(19) 0.42970(11)
C26 C 0.7324(3) 0.5153(2) 0.43516(12)
H23 H 0.7006 0.5677 0.4017
C27 C 0.8495(3) 0.5465(2) 0.48875(13)
H24 H 0.8960 0.6196 0.4915
C28 C 0.8984(3) 0.4707(2) 0.53826(12)
H25 H 0.9775 0.4915 0.5749
C29 C 0.8299(3) 0.3647(2) 0.53307(11)
C30 C 0.7149(3) 0.33153(18) 0.47884(11)
C31 C 0.3255(3) 0.39788(18) 0.38264(11)
C32 C 0.3016(3) 0.5212(2) 0.40092(12)
H26 H 0.1719 0.5389 0.4001
H27 H 0.3593 0.5679 0.3692
H28 H 0.3586 0.5348 0.4451
C33 C 0.2541(3) 0.3261(2) 0.43753(12)
H29 H 0.1279 0.3462 0.4438
H30 H 0.3289 0.3384 0.4785
H31 H 0.2600 0.2480 0.4252
C34 C 0.2047(3) 0.37730(17) 0.31856(11)
C35 C 0.1361(3) 0.46146(17) 0.20621(10)
C36 C -0.1400(4) 0.4190(2) 0.13755(14)
H32 H -0.2455 0.4604 0.1508
H33 H -0.1801 0.3478 0.1188
H34 H -0.0793 0.4615 0.1046
loop_
_geom_bond_atom_site_label_1
_geom_bond_atom_site_label_2
_geom_bond_site_symmetry_1
_geom_bond_site_symmetry_2
Cl1 C3 1_555 1_555
F1 C11 1_555 1_555
O1 C2 1_555 1_555
O2 C16 1_555 1_555
O3 C17 1_555 1_555
N1 C2 1_555 1_555
N2 H1 1_555 1_555
N3 H2 1_555 1_555
C1 C2 1_555 1_555
C3 N1 1_555 1_555
C4 C3 1_555 1_555
H3 C4 1_555 1_555
C5 C1 1_555 1_555
H4 C5 1_555 1_555
C6 C1 1_555 1_555
H5 C6 1_555 1_555
C7 C6 1_555 1_555
C8 C7 1_555 1_555
H6 C8 1_555 1_555
C9 C8 1_555 1_555
H7 C9 1_555 1_555
C10 C9 1_555 1_555
H8 C10 1_555 1_555
C11 C10 1_555 1_555
C12 O1 1_555 1_555
C13 C6 1_555 1_555
C14 C13 1_555 1_555
H9 C14 1_555 1_555
H10 C14 1_555 1_555
H11 C14 1_555 1_555
C15 C13 1_555 1_555
H12 C15 1_555 1_555
H13 C15 1_555 1_555
H14 C15 1_555 1_555
C16 N2 1_555 1_555
C17 N2 1_555 1_555
C18 N3 1_555 1_555
H15 C18 1_555 1_555
H16 C18 1_555 1_555
H17 C18 1_555 1_555
Cl2 C21 1_555 1_555
F2 C29 1_555 1_555
O4 C20 1_555 1_555
O5 C34 1_555 1_555
O6 C35 1_555 1_555
N4 C20 1_555 1_555
N5 H18 1_555 1_555
N6 H19 1_555 1_555
C19 C20 1_555 1_555
C21 N4 1_555 1_555
C22 C21 1_555 1_555
H20 C22 1_555 1_555
C23 C19 1_555 1_555
H21 C23 1_555 1_555
C24 C19 1_555 1_555
H22 C24 1_555 1_555
C25 C24 1_555 1_555
C26 C25 1_555 1_555
H23 C26 1_555 1_555
C27 C26 1_555 1_555
H24 C27 1_555 1_555
C28 C27 1_555 1_555
H25 C28 1_555 1_555
C29 C28 1_555 1_555
C30 O4 1_555 1_555
C31 C24 1_555 1_555
C32 C31 1_555 1_555
H26 C32 1_555 1_555
H27 C32 1_555 1_555
H28 C32 1_555 1_555
C33 C31 1_555 1_555
H29 C33 1_555 1_555
H30 C33 1_555 1_555
H31 C33 1_555 1_555
C34 N5 1_555 1_555
C35 N5 1_555 1_555
C36 N6 1_555 1_555
H32 C36 1_555 1_555
H33 C36 1_555 1_555
H34 C36 1_555 1_555
N3 C17 1_555 1_555
C4 C5 1_555 1_555
C7 C12 1_555 1_555
C11 C12 1_555 1_555
C13 C16 1_555 1_555
N6 C35 1_555 1_555
C22 C23 1_555 1_555
C25 C30 1_555 1_555
C29 C30 1_555 1_555
C31 C34 1_555 1_555

#END
