
#######################################################################
#
#                 Cambridge Crystallographic Data Centre
#                                CCDC 
#
#######################################################################
#
# If this CIF has been generated from an entry in the Cambridge 
# Structural Database, then it will include bibliographic, chemical, 
# crystal, experimental, refinement or atomic coordinate data resulting 
# from the CCDC's data processing and validation procedures.
#
#######################################################################

data_VOSROM
_chemical_formula_moiety         'C17 H16 N4 O2,C1 H4 O1,2(H2 O1)'
_chemical_name_systematic        
"2'-amino-6'-methyl-2-oxo-1,2,5',6',7',8'-hexahydrospiro[indole-3,4'-pyrano[3,2-c]pyridine]-3'-carbonitrile methanol solvate dihydrate"
_symmetry_cell_setting           monoclinic
_symmetry_space_group_name_H-M   'P 21/c'
_symmetry_Int_Tables_number      14
_space_group_name_Hall           '-P 2ybc'
loop_
_symmetry_equiv_pos_site_id
_symmetry_equiv_pos_as_xyz
1 x,y,z
2 -x,1/2+y,1/2-z
3 -x,-y,-z
4 x,1/2-y,1/2+z
_cell_length_a                   7.6046(4)
_cell_length_b                   19.6088(10)
_cell_length_c                   13.2050(5)
_cell_angle_alpha                90
_cell_angle_beta                 100.391(4)
_cell_angle_gamma                90
_cell_volume                     1936.8
_cell_formula_units_Z            4
loop_
_atom_site_label
_atom_site_type_symbol
_atom_site_fract_x
_atom_site_fract_y
_atom_site_fract_z
C1 C 0.1518(3) 0.38217(15) 0.62982(16)
C2 C 0.2186(3) 0.44768(11) 0.61603(14)
C3 C 0.2162(3) 0.46852(12) 0.51773(14)
C4 C 0.3277(3) 0.57648(11) 0.57673(15)
C5 C 0.3337(3) 0.56050(11) 0.67413(14)
C6 C 0.2943(3) 0.48985(11) 0.70919(13)
C7 C 0.1578(3) 0.49269(12) 0.78474(14)
C8 C 0.4528(3) 0.45608(11) 0.77745(14)
C9 C 0.6192(3) 0.43843(12) 0.75855(16)
H1 H 0.6512 0.4479 0.6953
C10 C 0.7373(3) 0.40643(13) 0.83559(18)
H2 H 0.8503 0.3945 0.8240
C11 C 0.6905(3) 0.39179(13) 0.92941(17)
H3 H 0.7724 0.3702 0.9801
C12 C 0.5241(3) 0.40883(13) 0.94896(16)
H4 H 0.4919 0.3989 1.0120
C13 C 0.4075(3) 0.44090(12) 0.87224(14)
C14 C 0.3866(3) 0.61457(12) 0.75500(15)
H5 H 0.3121 0.6105 0.8071
H6 H 0.5097 0.6072 0.7882
C15 C 0.4654(3) 0.68807(13) 0.62545(17)
H7 H 0.5882 0.6734 0.6476
H8 H 0.4668 0.7350 0.6026
C16 C 0.3751(3) 0.64338(12) 0.53718(16)
H9 H 0.2678 0.6658 0.5015
H10 H 0.4550 0.6367 0.4885
C17 C 0.4344(4) 0.73360(13) 0.79189(19)
H11 H 0.3674 0.7298 0.8467
H12 H 0.4202 0.7787 0.7631
H13 H 0.5586 0.7253 0.8184
H14 H 0.117(3) 0.3921(12) 0.4330(16)
H15 H 0.131(3) 0.4560(14) 0.369(2)
N1 N 0.0948(4) 0.32928(13) 0.64036(17)
N2 N 0.2331(2) 0.46356(10) 0.87377(12)
H16 H 0.1806 0.4592 0.9259
N3 N 0.1644(3) 0.43232(12) 0.43195(15)
N4 N 0.3687(2) 0.68331(10) 0.71168(13)
O1 O 0.2734(2) 0.53116(8) 0.49579(9)
O2 O 0.00747(19) 0.51706(9) 0.76499(10)
C18 C -0.0576(4) 0.75872(15) 0.6044(2)
H17 H 0.0249 0.7777 0.5649
H18 H -0.0647 0.7880 0.6619
H19 H -0.1736 0.7549 0.5618
H20 H 0.132(4) 0.6929(16) 0.665(2)
O3 O 0.0019(3) 0.69370(10) 0.64062(13)
O4 O -0.1527(3) 0.57018(11) 0.93469(12)
H21 H -0.1195 0.6075 0.9114
H22 H -0.1324 0.5376 0.8960
O5 O -0.0249(4) 0.68481(10) 0.85224(15)
H23 H -0.0467 0.7262 0.8646
H24 H -0.0347 0.6791 0.7876
loop_
_geom_bond_atom_site_label_1
_geom_bond_atom_site_label_2
_geom_bond_site_symmetry_1
_geom_bond_site_symmetry_2
C1 C2 1_555 1_555
C2 C3 1_555 1_555
C3 N3 1_555 1_555
C4 C5 1_555 1_555
C5 C6 1_555 1_555
C6 C2 1_555 1_555
C7 C6 1_555 1_555
C8 C6 1_555 1_555
C9 C8 1_555 1_555
H1 C9 1_555 1_555
C10 C9 1_555 1_555
H2 C10 1_555 1_555
C11 C10 1_555 1_555
H3 C11 1_555 1_555
C12 C11 1_555 1_555
H4 C12 1_555 1_555
C13 C8 1_555 1_555
C14 C5 1_555 1_555
H5 C14 1_555 1_555
H6 C14 1_555 1_555
C15 H7 1_555 1_555
H8 C15 1_555 1_555
C16 C4 1_555 1_555
H9 C16 1_555 1_555
H10 C16 1_555 1_555
C17 H11 1_555 1_555
H12 C17 1_555 1_555
H13 C17 1_555 1_555
H14 N3 1_555 1_555
H15 N3 1_555 1_555
N1 C1 1_555 1_555
N2 C7 1_555 1_555
H16 N2 1_555 1_555
N4 C14 1_555 1_555
O1 C3 1_555 1_555
O2 C7 1_555 1_555
C18 H17 1_555 1_555
H18 C18 1_555 1_555
H19 C18 1_555 1_555
H20 O3 1_555 1_555
O3 C18 1_555 1_555
O4 H21 1_555 1_555
H22 O4 1_555 1_555
O5 H23 1_555 1_555
H24 O5 1_555 1_555
C4 O1 1_555 1_555
C12 C13 1_555 1_555
C13 N2 1_555 1_555
C15 C16 1_555 1_555
C15 N4 1_555 1_555
C17 N4 1_555 1_555

#END
