
#######################################################################
#
#                 Cambridge Crystallographic Data Centre
#                                CCDC 
#
#######################################################################
#
# If this CIF has been generated from an entry in the Cambridge 
# Structural Database, then it will include bibliographic, chemical, 
# crystal, experimental, refinement or atomic coordinate data resulting 
# from the CCDC's data processing and validation procedures.
#
#######################################################################

data_VOSSED
_chemical_formula_moiety         'C19 H23 Br1 N2 O2'
_chemical_name_systematic        
1-(4-Bromophenyl)-2-(4-(3-methoxyphenyl)piperazin-1-yl)ethanol
_symmetry_cell_setting           monoclinic
_symmetry_space_group_name_H-M   'P 21/n'
_symmetry_Int_Tables_number      14
_space_group_name_Hall           '-P 2yn'
loop_
_symmetry_equiv_pos_site_id
_symmetry_equiv_pos_as_xyz
1 x,y,z
2 1/2-x,1/2+y,1/2-z
3 -x,-y,-z
4 1/2+x,1/2-y,1/2+z
_cell_length_a                   9.8057(6)
_cell_length_b                   20.2577(12)
_cell_length_c                   10.0973(6)
_cell_angle_alpha                90
_cell_angle_beta                 113.182(2)
_cell_angle_gamma                90
_cell_volume                     1843.79
_exptl_crystal_colour            colorless
_exptl_crystal_description       Monoclinic
_cell_formula_units_Z            4
_exptl_crystal_recrystallization_method Ethanol
loop_
_atom_site_label
_atom_site_type_symbol
_atom_site_fract_x
_atom_site_fract_y
_atom_site_fract_z
Br1 Br -0.08756(6) 0.186888(19) 0.12583(5)
C1 C -0.1923(5) 0.31529(19) 0.1458(4)
H1 H -0.2859 0.2968 0.0985
N1 N 0.1051(3) 0.72836(13) 0.3254(3)
O1 O -0.1540(3) 0.50609(12) 0.3018(3)
H2 H -0.1530 0.5463 0.2926
O2 O 0.0452(4) 0.95130(12) 0.1711(3)
C2 C -0.0675(5) 0.27782(16) 0.1764(4)
C3 C 0.1088(4) 0.81586(17) 0.4941(4)
H3 H 0.1212 0.7850 0.5661
C4 C 0.0655(4) 0.90965(17) 0.2839(4)
C5 C 0.1181(5) 0.68044(16) 0.4371(4)
H4 H 0.0267 0.6798 0.4529
H5 H 0.1979 0.6935 0.5265
N2 N 0.0329(3) 0.59175(13) 0.2594(3)
C6 C 0.0423(5) 0.52277(16) 0.2236(4)
H6 H 0.1450 0.5112 0.2460
H7 H -0.0134 0.5160 0.1213
C7 C -0.0189(4) 0.47936(17) 0.3078(4)
H8 H 0.0515 0.4798 0.4087
C8 C 0.0930(3) 0.79489(16) 0.3574(4)
C9 C 0.0692(4) 0.84321(16) 0.2531(4)
H9 H 0.0553 0.8306 0.1601
C10 C 0.0696(5) 0.30430(17) 0.2438(4)
H10 H 0.1538 0.2786 0.2625
C11 C -0.0392(4) 0.40903(16) 0.2575(4)
C12 C 0.1490(5) 0.61179(17) 0.3958(4)
H11 H 0.2442 0.6114 0.3872
H12 H 0.1538 0.5807 0.4705
C13 C 0.0866(4) 0.92979(19) 0.4199(5)
H13 H 0.0879 0.9744 0.4420
C14 C 0.1060(4) 0.8825(2) 0.5227(4)
H14 H 0.1176 0.8957 0.6148
C15 C 0.0324(6) 0.63710(18) 0.1488(4)
H15 H -0.0427 0.6239 0.0567
H16 H 0.1280 0.6360 0.1414
C16 C 0.0007(5) 0.70625(17) 0.1846(4)
H17 H 0.0049 0.7363 0.1115
H18 H -0.0990 0.7078 0.1824
C17 C 0.0826(4) 0.36960(17) 0.2843(4)
H19 H 0.1768 0.3876 0.3311
C18 C -0.1775(4) 0.38090(19) 0.1863(4)
H20 H -0.2620 0.4066 0.1652
C19 C 0.0067(5) 1.01788(18) 0.1843(5)
H21 H -0.0832 1.0189 0.2008
H22 H -0.0078 1.0414 0.0972
H23 H 0.0851 1.0383 0.2638
loop_
_geom_bond_atom_site_label_1
_geom_bond_atom_site_label_2
_geom_bond_site_symmetry_1
_geom_bond_site_symmetry_2
Br1 C2 1_555 1_555
C1 H1 1_555 1_555
N1 C5 1_555 1_555
O1 H2 1_555 1_555
O2 C4 1_555 1_555
C2 C1 1_555 1_555
C3 H3 1_555 1_555
C4 C9 1_555 1_555
C5 H4 1_555 1_555
H5 C5 1_555 1_555
N2 C6 1_555 1_555
C6 H6 1_555 1_555
H7 C6 1_555 1_555
C7 O1 1_555 1_555
H8 C7 1_555 1_555
C8 N1 1_555 1_555
C9 C8 1_555 1_555
H9 C9 1_555 1_555
C10 C2 1_555 1_555
H10 C10 1_555 1_555
C11 C7 1_555 1_555
C12 C5 1_555 1_555
H11 C12 1_555 1_555
H12 C12 1_555 1_555
C13 C4 1_555 1_555
H13 C13 1_555 1_555
C14 C3 1_555 1_555
H14 C14 1_555 1_555
C15 N2 1_555 1_555
H15 C15 1_555 1_555
H16 C15 1_555 1_555
C16 N1 1_555 1_555
H17 C16 1_555 1_555
H18 C16 1_555 1_555
C17 C10 1_555 1_555
H19 C17 1_555 1_555
C18 C1 1_555 1_555
H20 C18 1_555 1_555
C19 O2 1_555 1_555
H21 C19 1_555 1_555
H22 C19 1_555 1_555
H23 C19 1_555 1_555
C3 C8 1_555 1_555
N2 C12 1_555 1_555
C6 C7 1_555 1_555
C11 C17 1_555 1_555
C11 C18 1_555 1_555
C13 C14 1_555 1_555
C15 C16 1_555 1_555

#END
