
#######################################################################
#
#                 Cambridge Crystallographic Data Centre
#                                CCDC 
#
#######################################################################
#
# If this CIF has been generated from an entry in the Cambridge 
# Structural Database, then it will include bibliographic, chemical, 
# crystal, experimental, refinement or atomic coordinate data resulting 
# from the CCDC's data processing and validation procedures.
#
#######################################################################

data_VOTYAE
_chemical_formula_moiety         'C17 H13 N1 O4'
_chemical_name_systematic        
3-Benzyl-5H,10bH-oxazolo(3,2-c)(1,3)benzoxazine-2(3H),5-dione
_symmetry_cell_setting           orthorhombic
_symmetry_space_group_name_H-M   'P 21 21 21'
_symmetry_Int_Tables_number      19
_space_group_name_Hall           'P 2ac 2ab'
loop_
_symmetry_equiv_pos_site_id
_symmetry_equiv_pos_as_xyz
1 x,y,z
2 1/2+x,1/2-y,-z
3 -x,1/2+y,1/2-z
4 1/2-x,-y,1/2+z
_cell_length_a                   11.726(2)
_cell_length_b                   19.890(2)
_cell_length_c                   6.061(3)
_cell_angle_alpha                90
_cell_angle_beta                 90
_cell_angle_gamma                90
_cell_volume                     1413.61
_cell_formula_units_Z            4
loop_
_atom_site_label
_atom_site_type_symbol
_atom_site_fract_x
_atom_site_fract_y
_atom_site_fract_z
N1 N 0.6304(3) 0.6077(2) 0.1218(5)
O1 O 0.6686(2) 0.4429(1) -0.0568(5)
O2 O 0.7530(2) 0.5435(1) -0.0797(5)
O3 O 0.7169(3) 0.6862(1) 0.3496(5)
O4 O 0.5739(3) 0.6250(1) 0.4735(5)
C1 C 0.5747(4) 0.5427(2) 0.0963(7)
C2 C 0.4035(4) 0.4822(2) -0.0725(8)
C3 C 0.7139(4) 0.6128(2) -0.0520(7)
C4 C 0.8075(4) 0.6601(2) 0.0016(8)
C5 C 0.6367(4) 0.6368(2) 0.3235(8)
C6 C 0.4636(3) 0.5478(2) -0.0387(8)
C7 C 0.8040(4) 0.6952(2) 0.1960(8)
C8 C 0.3371(4) 0.4551(3) 0.0908(8)
C9 C 0.6666(4) 0.5018(2) -0.0188(7)
C10 C 0.2785(5) 0.3960(3) 0.060(1)
C11 C 0.8861(5) 0.7423(2) 0.2505(9)
C12 C 0.8938(4) 0.6742(2) -0.1494(8)
C13 C 0.9756(5) 0.7216(3) -0.101(1)
C14 C 0.4099(4) 0.4486(3) -0.2698(8)
C15 C 0.9721(5) 0.7544(2) 0.101(1)
C16 C 0.3513(6) 0.3893(3) -0.303(1)
C17 C 0.2852(5) 0.3633(3) -0.138(1)
H1 H 0.5590 0.5240 0.2372
H2 H 0.6773 0.6272 -0.1837
H3 H 0.4133 0.5774 0.0361
H4 H 0.4818 0.5659 -0.1795
H5 H 0.3314 0.4777 0.2285
H6 H 0.2333 0.3780 0.1754
H7 H 0.8832 0.7656 0.3872
H8 H 0.8965 0.6509 -0.2862
H9 H 1.0337 0.7320 -0.2046
H10 H 0.4553 0.4664 -0.3856
H11 H 1.0303 0.7858 0.1368
H12 H 0.3567 0.3665 -0.4398
H13 H 0.2443 0.3226 -0.1600
loop_
_geom_bond_atom_site_label_1
_geom_bond_atom_site_label_2
_geom_bond_site_symmetry_1
_geom_bond_site_symmetry_2
N1 C1 1_555 1_555
O1 C9 1_555 1_555
O2 C3 1_555 1_555
O3 C5 1_555 1_555
O4 C5 1_555 1_555
C1 C6 1_555 1_555
C2 C6 1_555 1_555
C3 N1 1_555 1_555
C4 C3 1_555 1_555
C5 N1 1_555 1_555
C6 H3 1_555 1_555
C7 O3 1_555 1_555
C8 C2 1_555 1_555
C9 O2 1_555 1_555
C10 C8 1_555 1_555
C11 C7 1_555 1_555
C12 C4 1_555 1_555
C13 C12 1_555 1_555
C14 C2 1_555 1_555
C15 C11 1_555 1_555
C16 C14 1_555 1_555
C17 C10 1_555 1_555
H1 C1 1_555 1_555
H2 C3 1_555 1_555
H4 C6 1_555 1_555
H5 C8 1_555 1_555
H6 C10 1_555 1_555
H7 C11 1_555 1_555
H8 C12 1_555 1_555
H9 C13 1_555 1_555
H10 C14 1_555 1_555
H11 C15 1_555 1_555
H12 C16 1_555 1_555
H13 C17 1_555 1_555
C1 C9 1_555 1_555
C4 C7 1_555 1_555
C13 C15 1_555 1_555
C16 C17 1_555 1_555

#END
