
#######################################################################
#
#                 Cambridge Crystallographic Data Centre
#                                CCDC 
#
#######################################################################
#
# If this CIF has been generated from an entry in the Cambridge 
# Structural Database, then it will include bibliographic, chemical, 
# crystal, experimental, refinement or atomic coordinate data resulting 
# from the CCDC's data processing and validation procedures.
#
#######################################################################

data_VOVHOD
_chemical_name_common            2-Mesityl-1,2-diphenylethanone
_chemical_formula_moiety         'C23 H22 O1'
_chemical_name_systematic        \a-Mesityl-\a-phenylacetophenone
_symmetry_cell_setting           monoclinic
_symmetry_space_group_name_H-M   'P 21/n'
_symmetry_Int_Tables_number      14
_space_group_name_Hall           '-P 2yn'
loop_
_symmetry_equiv_pos_site_id
_symmetry_equiv_pos_as_xyz
1 x,y,z
2 1/2-x,1/2+y,1/2-z
3 -x,-y,-z
4 1/2+x,1/2-y,1/2+z
_cell_length_a                   9.763(3)
_cell_length_b                   23.310(6)
_cell_length_c                   8.812(3)
_cell_angle_alpha                90
_cell_angle_beta                 115.65(2)
_cell_angle_gamma                90
_cell_volume                     1807.77
_chemical_melting_point          112.5-113.5deg.C
_cell_formula_units_Z            4
loop_
_atom_site_label
_atom_site_type_symbol
_atom_site_fract_x
_atom_site_fract_y
_atom_site_fract_z
O1 O 0.6142(4) 0.6075(2) 0.1902(4)
C1 C 0.5180(5) 0.5881(2) 0.5419(6)
C2 C 0.5865(5) 0.5873(3) 0.7158(6)
C3 C 0.7377(6) 0.5971(2) 0.8009(6)
C4 C 0.8239(6) 0.6076(2) 0.7152(6)
C5 C 0.7577(5) 0.6092(2) 0.5420(6)
C6 C 0.6027(5) 0.6001(2) 0.4534(5)
C7 C 0.5327(5) 0.6031(2) 0.2640(6)
C8 C 0.3623(5) 0.5960(2) 0.1684(5)
C9 C 0.3057(5) 0.5888(2) -0.0208(5)
C10 C 0.2991(5) 0.5350(2) -0.0902(5)
C11 C 0.2348(6) 0.5271(3) -0.2623(6)
C12 C 0.1811(5) 0.5731(3) -0.3683(6)
C13 C 0.1910(5) 0.6265(3) -0.3020(6)
C14 C 0.2529(5) 0.6350(2) -0.1290(5)
C15 C 0.2629(5) 0.6378(2) 0.2101(5)
C16 C 0.2952(5) 0.6960(2) 0.2408(6)
C17 C 0.1925(6) 0.7313(2) 0.2647(6)
C18 C 0.0587(6) 0.7112(2) 0.2584(6)
C19 C 0.0277(6) 0.6534(2) 0.2307(5)
C20 C 0.1275(5) 0.6165(2) 0.2063(5)
C21 C 0.4387(6) 0.7235(3) 0.2462(7)
C22 C -0.0544(7) 0.7509(3) 0.2794(8)
C23 C 0.0867(5) 0.5542(2) 0.1755(5)
H1 H 0.412 0.580 0.482
H2 H 0.528 0.580 0.776
H3 H 0.784 0.597 0.920
H4 H 0.930 0.614 0.776
H5 H 0.817 0.617 0.483
H6 H 0.348 0.560 0.211
H7 H 0.341 0.503 -0.017
H8 H 0.225 0.490 -0.308
H9 H 0.139 0.568 -0.487
H10 H 0.154 0.658 -0.376
H11 H 0.259 0.672 -0.083
H12 H 0.214 0.771 0.285
H13 H -0.065 0.639 0.226
H14 H 0.438 0.763 0.267
H15 H 0.524 0.706 0.335
H16 H 0.444 0.718 0.142
H20 H -0.140 0.730 0.273
H21 H -0.007 0.769 0.386
H22 H -0.086 0.779 0.193
H26 H -0.009 0.548 0.176
H27 H 0.082 0.543 0.070
H28 H 0.162 0.532 0.262
H17? H 0.499 0.695 0.228
H18? H 0.413 0.752 0.162
H19? H 0.494 0.740 0.354
H23? H -0.014 0.789 0.298
H24? H -0.148 0.750 0.181
H25? H -0.072 0.739 0.373
loop_
_geom_bond_atom_site_label_1
_geom_bond_atom_site_label_2
_geom_bond_site_symmetry_1
_geom_bond_site_symmetry_2
O1 C7 1_555 1_555
C1 C2 1_555 1_555
C2 C3 1_555 1_555
C3 C4 1_555 1_555
C4 C5 1_555 1_555
C5 C6 1_555 1_555
C6 C1 1_555 1_555
C7 C6 1_555 1_555
C8 C7 1_555 1_555
C9 C8 1_555 1_555
C10 C9 1_555 1_555
C11 C10 1_555 1_555
C12 C11 1_555 1_555
C13 C12 1_555 1_555
C14 C9 1_555 1_555
C15 C8 1_555 1_555
C16 C15 1_555 1_555
C17 C16 1_555 1_555
C18 C17 1_555 1_555
C19 C18 1_555 1_555
C20 C15 1_555 1_555
C21 C16 1_555 1_555
C22 C18 1_555 1_555
C23 C20 1_555 1_555
H1 C1 1_555 1_555
H2 C2 1_555 1_555
H3 C3 1_555 1_555
H4 C4 1_555 1_555
H5 C5 1_555 1_555
H6 C8 1_555 1_555
H7 C10 1_555 1_555
H8 C11 1_555 1_555
H9 C12 1_555 1_555
H10 C13 1_555 1_555
H11 C14 1_555 1_555
H12 C17 1_555 1_555
H13 C19 1_555 1_555
H14 C21 1_555 1_555
H15 C21 1_555 1_555
H16 C21 1_555 1_555
H20 C22 1_555 1_555
H21 C22 1_555 1_555
H22 C22 1_555 1_555
H26 C23 1_555 1_555
H27 C23 1_555 1_555
H28 C23 1_555 1_555
C13 C14 1_555 1_555
C19 C20 1_555 1_555

#END
