
#######################################################################
#
#                 Cambridge Crystallographic Data Centre
#                                CCDC 
#
#######################################################################
#
# If this CIF has been generated from an entry in the Cambridge 
# Structural Database, then it will include bibliographic, chemical, 
# crystal, experimental, refinement or atomic coordinate data resulting 
# from the CCDC's data processing and validation procedures.
#
#######################################################################

data_VOVMOK
_chemical_compound_source        'twigs and leaves of Croton euryphyllus'
_chemical_name_common            'crotoeurin chloroform solvate'
_chemical_formula_moiety         'C38 H36 O10,C1 H1 Cl3'
_chemical_name_systematic        
"5,5''-bis(3-furyl)-2',9'-dimethyl-1',2',4,4',4'',5,5',5'',5a',5b',6',7',9',10',10a',14a'-hexadecahydrodispiro[furan-3,3'-furo[4''',3''',2''':1'',8'']naphtho[1'',2'':3',4']cyclobuta[1',2':7,8]naphtho[1,8-bc]furan-8',3''-furan]-2,2'',12',13'-tetrone chloroform solvate"
_symmetry_cell_setting           monoclinic
_symmetry_space_group_name_H-M   'P 21'
_symmetry_Int_Tables_number      4
_space_group_name_Hall           'P 2yb'
loop_
_symmetry_equiv_pos_site_id
_symmetry_equiv_pos_as_xyz
1 x,y,z
2 -x,1/2+y,-z
_cell_length_a                   11.6897(19)
_cell_length_b                   12.672(2)
_cell_length_c                   12.660(2)
_cell_angle_alpha                90
_cell_angle_beta                 109.170(2)
_cell_angle_gamma                90
_cell_volume                     1771.36
_exptl_crystal_colour            colorless
_exptl_crystal_description       piece
_cell_formula_units_Z            2
_exptl_crystal_recrystallization_method 'petroleum ether/acetone'
loop_
_atom_site_label
_atom_site_type_symbol
_atom_site_fract_x
_atom_site_fract_y
_atom_site_fract_z
Cl1 Cl 0.60453(8) 0.98988(9) 0.49180(10)
Cl2 Cl 0.74356(11) 0.93121(14) 0.71891(9)
Cl3 Cl 0.80486(9) 0.84494(8) 0.53536(8)
C1 C 0.6859(3) 0.8884(3) 0.5792(3)
H1 H 0.6297 0.8278 0.5751
O1 O 1.3136(4) 0.1518(3) 1.3145(3)
O2 O 0.2168(2) 0.5154(2) -0.1704(2)
O3 O 0.7607(2) 0.5252(3) 0.1647(2)
O4 O 0.60278(18) 0.4543(2) 0.03563(17)
O5 O 0.9976(2) 0.4715(2) 0.62247(19)
O6 O 0.8265(2) 0.55787(19) 0.53670(17)
O7 O 1.0416(4) 0.0953(2) 1.0058(2)
O8 O 0.8459(3) 0.0986(2) 0.9082(2)
O9 O 0.63768(19) 0.3384(2) 0.66911(18)
O10 O 0.5678(2) 0.2627(2) 0.5010(2)
C2 C 1.2129(6) 0.1596(5) 1.2256(3)
H2 H 1.1343 0.1714 1.2299
C3 C 1.2377(5) 0.1484(3) 1.1277(3)
C4 C 1.1504(4) 0.1516(4) 1.0103(3)
H3 H 1.1885 0.1151 0.9603
C5 C 1.1105(3) 0.2623(3) 0.9628(3)
H4 H 1.1533 0.2837 0.9105
H5 H 1.1267 0.3151 1.0235
C6 C 0.9720(3) 0.2510(2) 0.9006(2)
C7 C 0.9383(3) 0.2519(3) 0.7734(2)
C8 C 0.8428(3) 0.3049(2) 0.7101(2)
C9 C 0.7850(3) 0.2920(3) 0.5869(2)
C10 C 0.8216(2) 0.3737(2) 0.5055(2)
C11 C 0.7216(2) 0.4258(2) 0.4161(2)
C12 C 0.6753(2) 0.3911(3) 0.3116(2)
C13 C 0.5929(2) 0.4615(2) 0.2206(2)
C14 C 0.4774(3) 0.4049(3) 0.1447(2)
H6 H 0.4702 0.3339 0.1745
H7 H 0.4042 0.4462 0.1406
C15 C 0.4913(3) 0.3962(3) 0.0287(2)
H8 H 0.5030 0.3202 0.0135
C16 C 0.3898(3) 0.4392(3) -0.0670(2)
C17 C 0.2890(3) 0.4888(3) -0.0646(3)
H9 H 0.2704 0.5035 0.0015
C18 C 0.3806(3) 0.4353(3) -0.1837(2)
H10 H 0.4378 0.4060 -0.2140
C19 C 0.2755(3) 0.4811(3) -0.2403(3)
H11 H 0.2456 0.4887 -0.3193
C20 C 0.6632(3) 0.4847(3) 0.1413(2)
C21 C 0.5607(3) 0.5668(3) 0.2674(2)
H12 H 0.4952 0.5509 0.2997
C22 C 0.5113(3) 0.6511(3) 0.1762(3)
H13 H 0.4795 0.7108 0.2072
H14 H 0.4463 0.6206 0.1136
H15 H 0.5766 0.6756 0.1498
C23 C 0.6685(3) 0.6121(3) 0.3622(2)
H16 H 0.7370 0.6259 0.3345
H17 H 0.6450 0.6797 0.3887
C24 C 0.7061(3) 0.5337(2) 0.4571(2)
H18 H 0.6448 0.5320 0.4967
C25 C 0.8946(3) 0.4692(3) 0.5635(2)
C26 C 0.8875(3) 0.2825(3) 0.4685(2)
H19 H 0.9773 0.2886 0.5041
C27 C 0.8342(3) 0.2022(3) 0.5314(2)
H20 H 0.7665 0.1613 0.4781
C28 C 0.9238(4) 0.1285(3) 0.6141(3)
H21 H 0.9731 0.0920 0.5749
H22 H 0.8777 0.0741 0.6393
C29 C 1.0090(3) 0.1854(3) 0.7171(3)
H23 H 1.0577 0.1326 0.7709
H24 H 1.0654 0.2310 0.6941
C30 C 0.7567(3) 0.3668(3) 0.7511(2)
H25 H 0.7719 0.4441 0.7473
C31 C 0.7661(3) 0.3357(3) 0.8689(2)
H26 H 0.7302 0.2649 0.8687
H27 H 0.7209 0.3867 0.8995
C32 C 0.8991(3) 0.3345(3) 0.9414(2)
H28 H 0.9336 0.4053 0.9342
C33 C 0.9106(4) 0.3198(3) 1.0650(3)
H29 H 0.8668 0.3764 1.0880
H30 H 0.9963 0.3221 1.1111
H31 H 0.8761 0.2514 1.0748
C34 C 1.3622(4) 0.1331(3) 1.1559(3)
H32 H 1.4042 0.1215 1.1042
C35 C 1.4133(4) 0.1375(4) 1.2671(4)
H33 H 1.4973 0.1325 1.3080
C36 C 0.9427(4) 0.1413(3) 0.9351(2)
C37 C 0.6525(3) 0.2940(3) 0.5768(2)
C38 C 0.8527(3) 0.2696(3) 0.3415(2)
H34 H 0.8758 0.1980 0.3247
H35 H 0.8988 0.3212 0.3127
C39 C 0.7163(3) 0.2860(3) 0.2807(2)
H36 H 0.6997 0.2831 0.1988
H37 H 0.6701 0.2286 0.3012
loop_
_geom_bond_atom_site_label_1
_geom_bond_atom_site_label_2
_geom_bond_site_symmetry_1
_geom_bond_site_symmetry_2
Cl1 C1 1_555 1_555
Cl2 C1 1_555 1_555
Cl3 C1 1_555 1_555
C1 H1 1_555 1_555
O1 C2 1_555 1_555
O2 C17 1_555 1_555
O3 C20 1_555 1_555
O4 C15 1_555 1_555
O5 C25 1_555 1_555
O6 C24 1_555 1_555
O7 C4 1_555 1_555
O8 C36 1_555 1_555
O9 C30 1_555 1_555
O10 C37 1_555 1_555
C2 H2 1_555 1_555
C3 C2 1_555 1_555
C4 C3 1_555 1_555
H3 C4 1_555 1_555
C5 C4 1_555 1_555
H4 C5 1_555 1_555
H5 C5 1_555 1_555
C6 C5 1_555 1_555
C7 C6 1_555 1_555
C8 C7 1_555 1_555
C9 C8 1_555 1_555
C10 C9 1_555 1_555
C11 C10 1_555 1_555
C12 C11 1_555 1_555
C13 C12 1_555 1_555
C14 C13 1_555 1_555
H6 C14 1_555 1_555
H7 C14 1_555 1_555
C15 C14 1_555 1_555
H8 C15 1_555 1_555
C16 C15 1_555 1_555
C17 C16 1_555 1_555
H9 C17 1_555 1_555
C18 C16 1_555 1_555
H10 C18 1_555 1_555
C19 O2 1_555 1_555
H11 C19 1_555 1_555
C20 O4 1_555 1_555
C21 C13 1_555 1_555
H12 C21 1_555 1_555
C22 C21 1_555 1_555
H13 C22 1_555 1_555
H14 C22 1_555 1_555
H15 C22 1_555 1_555
C23 C21 1_555 1_555
H16 C23 1_555 1_555
H17 C23 1_555 1_555
C24 C11 1_555 1_555
H18 C24 1_555 1_555
C25 O6 1_555 1_555
C26 C10 1_555 1_555
H19 C26 1_555 1_555
C27 C9 1_555 1_555
H20 C27 1_555 1_555
C28 C27 1_555 1_555
H21 C28 1_555 1_555
H22 C28 1_555 1_555
C29 C7 1_555 1_555
H23 C29 1_555 1_555
H24 C29 1_555 1_555
C30 C8 1_555 1_555
H25 C30 1_555 1_555
C31 C30 1_555 1_555
H26 C31 1_555 1_555
H27 C31 1_555 1_555
C32 C6 1_555 1_555
H28 C32 1_555 1_555
C33 C32 1_555 1_555
H29 C33 1_555 1_555
H30 C33 1_555 1_555
H31 C33 1_555 1_555
C34 C3 1_555 1_555
H32 C34 1_555 1_555
C35 O1 1_555 1_555
H33 C35 1_555 1_555
C36 O7 1_555 1_555
C37 O9 1_555 1_555
C38 C26 1_555 1_555
H34 C38 1_555 1_555
H35 C38 1_555 1_555
C39 C12 1_555 1_555
H36 C39 1_555 1_555
H37 C39 1_555 1_555
C6 C36 1_555 1_555
C9 C37 1_555 1_555
C10 C25 1_555 1_555
C13 C20 1_555 1_555
C18 C19 1_555 1_555
C23 C24 1_555 1_555
C26 C27 1_555 1_555
C28 C29 1_555 1_555
C31 C32 1_555 1_555
C34 C35 1_555 1_555
C38 C39 1_555 1_555

#END
