
#######################################################################
#
#                 Cambridge Crystallographic Data Centre
#                                CCDC 
#
#######################################################################
#
# If this CIF has been generated from an entry in the Cambridge 
# Structural Database, then it will include bibliographic, chemical, 
# crystal, experimental, refinement or atomic coordinate data resulting 
# from the CCDC's data processing and validation procedures.
#
#######################################################################

data_VOVPED
_chemical_formula_moiety         'C44 H36 N2 O4'
_chemical_name_systematic        
(ethane-1,2-diylbis(nitrilo(phenylmethylylidene)(2-hydroxy-5-methyl-3,1-phenylene)))bis(phenylmethanone)
_symmetry_cell_setting           triclinic
_symmetry_space_group_name_H-M   'P -1'
_symmetry_Int_Tables_number      2
_space_group_name_Hall           '-P 1'
loop_
_symmetry_equiv_pos_site_id
_symmetry_equiv_pos_as_xyz
1 x,y,z
2 -x,-y,-z
_cell_length_a                   10.0807(5)
_cell_length_b                   13.1030(5)
_cell_length_c                   13.8237(6)
_cell_angle_alpha                80.994(4)
_cell_angle_beta                 77.347(4)
_cell_angle_gamma                73.913(4)
_cell_volume                     1702.86
_exptl_crystal_colour            'pale yellow'
_exptl_crystal_description       chunk
_cell_formula_units_Z            2
loop_
_atom_site_label
_atom_site_type_symbol
_atom_site_fract_x
_atom_site_fract_y
_atom_site_fract_z
O1 O 0.92500(12) 0.63541(8) 0.18432(8)
H1 H 0.9094 0.6106 0.2444
O2 O 0.86305(14) 0.76530(10) -0.07743(9)
N1 N 0.83959(12) 0.63589(9) 0.36882(9)
C1 C 0.87379(15) 0.74162(11) 0.17681(11)
C2 C 0.87811(16) 0.79870(12) 0.08176(11)
C3 C 0.82100(17) 0.90883(12) 0.07225(11)
H2 H 0.8232 0.9463 0.0075
C4 C 0.76079(17) 0.96559(12) 0.15506(12)
C5 C 0.75626(16) 0.90868(12) 0.24894(11)
H3 H 0.7155 0.9462 0.3061
C6 C 0.81006(15) 0.79760(11) 0.26186(11)
C7 C 0.6981(2) 1.08477(13) 0.14139(14)
H4 H 0.6415 1.1089 0.2047
H5 H 0.6385 1.1012 0.0909
H6 H 0.7737 1.1215 0.1197
C8 C 0.93117(17) 0.74307(12) -0.01088(11)
C9 C 1.07209(16) 0.66601(12) -0.02373(10)
C10 C 1.09808(18) 0.57878(13) -0.07826(11)
H7 H 1.0236 0.5648 -0.1016
C11 C 1.23249(19) 0.51290(13) -0.09812(12)
H8 H 1.2497 0.4520 -0.1328
C12 C 1.34228(19) 0.53623(14) -0.06712(13)
H9 H 1.4352 0.4929 -0.0833
C13 C 1.31691(18) 0.62229(15) -0.01275(13)
H10 H 1.3923 0.6377 0.0083
C14 C 1.18167(17) 0.68586(13) 0.01086(11)
H11 H 1.1636 0.7429 0.0506
C15 C 0.79691(14) 0.73837(11) 0.36189(11)
C16 C 0.73483(15) 0.79837(11) 0.45182(10)
C17 C 0.82296(16) 0.81636(12) 0.50837(12)
H12 H 0.9220 0.7926 0.4890
C18 C 0.76501(19) 0.86951(13) 0.59364(12)
H13 H 0.8248 0.8821 0.6325
C19 C 0.62032(19) 0.90411(13) 0.62185(12)
H14 H 0.5811 0.9413 0.6794
C20 C 0.53301(17) 0.88448(12) 0.56617(12)
H15 H 0.4340 0.9068 0.5865
C21 C 0.58976(16) 0.83228(12) 0.48066(11)
H16 H 0.5297 0.8198 0.4420
C22 C 0.82572(15) 0.57153(11) 0.46529(11)
H17 H 0.7410 0.6071 0.5109
H18 H 0.9088 0.5636 0.4957
O3 O 0.48824(11) 0.62331(8) 0.36125(8)
H19 H 0.5620 0.5944 0.3841
O4 O 0.11862(12) 0.71236(10) 0.32818(10)
N2 N 0.68656(12) 0.47954(9) 0.40844(9)
C23 C 0.44980(15) 0.55049(11) 0.32411(10)
C24 C 0.52505(14) 0.44087(11) 0.32809(10)
C25 C 0.47744(16) 0.36950(12) 0.28684(11)
H20 H 0.5280 0.2965 0.2891
C26 C 0.35939(17) 0.40125(13) 0.24288(12)
C27 C 0.28375(16) 0.50827(13) 0.24292(11)
H21 H 0.2000 0.5309 0.2161
C28 C 0.32817(15) 0.58207(12) 0.28115(11)
C29 C 0.3139(2) 0.32499(14) 0.19295(15)
H22 H 0.3797 0.2543 0.1976
H23 H 0.3134 0.3516 0.1227
H24 H 0.2194 0.3197 0.2263
C30 C 0.23918(15) 0.69532(12) 0.28255(11)
C31 C 0.29855(15) 0.78450(12) 0.22640(11)
C32 C 0.43238(16) 0.76685(13) 0.16783(12)
H25 H 0.4892 0.6960 0.1629
C33 C 0.48330(19) 0.85225(15) 0.11647(14)
H26 H 0.5744 0.8400 0.0761
C34 C 0.4001(2) 0.95590(15) 0.12452(14)
H27 H 0.4352 1.0145 0.0904
C35 C 0.2666(2) 0.97406(14) 0.18187(13)
H28 H 0.2102 1.0450 0.1867
C36 C 0.21489(18) 0.88926(13) 0.23218(12)
H29 H 0.1226 0.9020 0.2707
C37 C 0.65192(14) 0.40701(11) 0.37309(10)
C38 C 0.73534(14) 0.29275(11) 0.37857(11)
C39 C 0.81084(17) 0.24495(13) 0.29328(12)
H30 H 0.8097 0.2845 0.2296
C40 C 0.88829(18) 0.13874(13) 0.30173(13)
H31 H 0.9411 0.1063 0.2437
C41 C 0.88853(16) 0.08051(12) 0.39415(13)
H32 H 0.9397 0.0078 0.3994
C42 C 0.81406(16) 0.12829(12) 0.47907(12)
H33 H 0.8150 0.0883 0.5426
C43 C 0.73800(15) 0.23438(11) 0.47176(11)
H34 H 0.6879 0.2671 0.5303
C44 C 0.81391(15) 0.46242(11) 0.44939(11)
H35 H 0.8973 0.4272 0.4024
H36 H 0.8077 0.4164 0.5134
loop_
_geom_bond_atom_site_label_1
_geom_bond_atom_site_label_2
_geom_bond_site_symmetry_1
_geom_bond_site_symmetry_2
O1 H1 1_555 1_555
O2 C8 1_555 1_555
N1 C15 1_555 1_555
C1 O1 1_555 1_555
C2 C1 1_555 1_555
C3 C2 1_555 1_555
H2 C3 1_555 1_555
C4 C3 1_555 1_555
C5 C4 1_555 1_555
H3 C5 1_555 1_555
C6 C1 1_555 1_555
C7 C4 1_555 1_555
H4 C7 1_555 1_555
H5 C7 1_555 1_555
H6 C7 1_555 1_555
C8 C2 1_555 1_555
C9 C8 1_555 1_555
C10 C9 1_555 1_555
H7 C10 1_555 1_555
C11 C10 1_555 1_555
H8 C11 1_555 1_555
C12 C11 1_555 1_555
H9 C12 1_555 1_555
C13 C12 1_555 1_555
H10 C13 1_555 1_555
C14 C9 1_555 1_555
H11 C14 1_555 1_555
C15 C6 1_555 1_555
C16 C15 1_555 1_555
C17 C16 1_555 1_555
H12 C17 1_555 1_555
C18 C17 1_555 1_555
H13 C18 1_555 1_555
C19 C18 1_555 1_555
H14 C19 1_555 1_555
C20 C19 1_555 1_555
H15 C20 1_555 1_555
C21 C16 1_555 1_555
H16 C21 1_555 1_555
C22 N1 1_555 1_555
H17 C22 1_555 1_555
H18 C22 1_555 1_555
O3 H19 1_555 1_555
O4 C30 1_555 1_555
N2 C37 1_555 1_555
C23 O3 1_555 1_555
C24 C23 1_555 1_555
C25 C24 1_555 1_555
H20 C25 1_555 1_555
C26 C25 1_555 1_555
C27 C26 1_555 1_555
H21 C27 1_555 1_555
C28 C23 1_555 1_555
C29 C26 1_555 1_555
H22 C29 1_555 1_555
H23 C29 1_555 1_555
H24 C29 1_555 1_555
C30 C28 1_555 1_555
C31 C30 1_555 1_555
C32 C31 1_555 1_555
H25 C32 1_555 1_555
C33 C32 1_555 1_555
H26 C33 1_555 1_555
C34 C33 1_555 1_555
H27 C34 1_555 1_555
C35 C34 1_555 1_555
H28 C35 1_555 1_555
C36 C31 1_555 1_555
H29 C36 1_555 1_555
C37 C24 1_555 1_555
C38 C37 1_555 1_555
C39 C38 1_555 1_555
H30 C39 1_555 1_555
C40 C39 1_555 1_555
H31 C40 1_555 1_555
C41 C40 1_555 1_555
H32 C41 1_555 1_555
C42 C41 1_555 1_555
H33 C42 1_555 1_555
C43 C38 1_555 1_555
H34 C43 1_555 1_555
C44 C22 1_555 1_555
H35 C44 1_555 1_555
H36 C44 1_555 1_555
C5 C6 1_555 1_555
C13 C14 1_555 1_555
C20 C21 1_555 1_555
N2 C44 1_555 1_555
C27 C28 1_555 1_555
C35 C36 1_555 1_555
C42 C43 1_555 1_555

#END
