
#######################################################################
#
#                 Cambridge Crystallographic Data Centre
#                                CCDC 
#
#######################################################################
#
# If this CIF has been generated from an entry in the Cambridge 
# Structural Database, then it will include bibliographic, chemical, 
# crystal, experimental, refinement or atomic coordinate data resulting 
# from the CCDC's data processing and validation procedures.
#
#######################################################################

data_VOVPIH
_chemical_formula_moiety         'C50 H48 N2 O4'
_chemical_name_systematic        
(ethane-1,2-diylbis(nitrilo(phenylmethylylidene)(5-t-butyl-2-hydroxy-3,1-phenylene)))bis(phenylmethanone)
_symmetry_cell_setting           triclinic
_symmetry_space_group_name_H-M   'P -1'
_symmetry_Int_Tables_number      2
_space_group_name_Hall           '-P 1'
loop_
_symmetry_equiv_pos_site_id
_symmetry_equiv_pos_as_xyz
1 x,y,z
2 -x,-y,-z
_cell_length_a                   11.8923(5)
_cell_length_b                   13.6140(7)
_cell_length_c                   13.9852(6)
_cell_angle_alpha                82.195(4)
_cell_angle_beta                 85.408(3)
_cell_angle_gamma                65.738(4)
_cell_volume                     2044.38
_exptl_crystal_colour            colorless
_exptl_crystal_description       plate
_cell_formula_units_Z            2
loop_
_atom_site_label
_atom_site_type_symbol
_atom_site_fract_x
_atom_site_fract_y
_atom_site_fract_z
O1 O 0.63159(9) 0.77780(8) 0.69468(7)
H1 H 0.6286 0.7724 0.6359
O2 O 0.65488(11) 0.87519(9) 0.93104(9)
N1 N 0.53531(10) 0.81111(9) 0.53257(8)
C1 C 0.52544(12) 0.85487(10) 0.72315(10)
C2 C 0.51435(12) 0.88378(11) 0.81717(10)
C3 C 0.40938(12) 0.96884(11) 0.84609(10)
H2 H 0.4065 0.9909 0.9082
C4 C 0.30700(12) 1.02363(10) 0.78651(10)
C5 C 0.31764(12) 0.99111(10) 0.69508(10)
H3 H 0.2494 1.0259 0.6537
C6 C 0.42425(12) 0.90951(10) 0.66103(10)
C7 C 0.19136(13) 1.11638(11) 0.82089(11)
C8 C 0.22016(15) 1.21619(12) 0.82173(13)
H4 H 0.2468 1.2367 0.7568
H5 H 0.2861 1.1992 0.8670
H6 H 0.1460 1.2765 0.8419
C9 C 0.08267(14) 1.14582(14) 0.75444(12)
H7 H 0.1021 1.1745 0.6901
H8 H 0.0085 1.2008 0.7813
H9 H 0.0681 1.0809 0.7495
C10 C 0.15084(14) 1.08444(13) 0.92333(11)
H10 H 0.1373 1.0180 0.9243
H11 H 0.0741 1.1430 0.9423
H12 H 0.2153 1.0719 0.9687
C11 C 0.61705(12) 0.82445(11) 0.88666(10)
C12 C 0.66586(13) 0.70377(11) 0.90605(10)
C13 C 0.77441(14) 0.64814(13) 0.95777(12)
H13 H 0.8189 0.6867 0.9756
C14 C 0.81701(17) 0.53766(15) 0.98297(14)
H14 H 0.8910 0.5004 1.0177
C15 C 0.7523(2) 0.48067(14) 0.95794(14)
H15 H 0.7817 0.4046 0.9758
C16 C 0.6453(2) 0.53454(15) 0.90708(14)
H16 H 0.6009 0.4956 0.8901
C17 C 0.60246(16) 0.64537(13) 0.88070(12)
H17 H 0.5291 0.6818 0.8450
C18 C 0.43119(12) 0.87851(11) 0.56305(10)
C19 C 0.31751(12) 0.92719(11) 0.50355(10)
C20 C 0.29531(14) 1.02138(12) 0.44220(11)
H18 H 0.3511 1.0555 0.4393
C21 C 0.19229(15) 1.06672(14) 0.38472(13)
H19 H 0.1768 1.1321 0.3435
C22 C 0.11257(15) 1.01574(17) 0.38813(14)
H20 H 0.0422 1.0460 0.3488
C23 C 0.13480(15) 0.92059(17) 0.44871(15)
H21 H 0.0801 0.8855 0.4501
C24 C 0.23655(14) 0.87638(13) 0.50725(12)
H22 H 0.2509 0.8119 0.5496
C25 C 0.55124(13) 0.76968(11) 0.43913(10)
H23 H 0.5896 0.8081 0.3914
H24 H 0.4703 0.7810 0.4151
O3 O 0.37653(9) 0.61695(8) 0.61702(8)
H25 H 0.4219 0.6285 0.5717
O4 O 0.18669(9) 0.47518(9) 0.75925(9)
N2 N 0.57417(10) 0.59548(9) 0.52390(8)
C26 C 0.44195(11) 0.52520(10) 0.67241(10)
C27 C 0.38161(11) 0.48118(10) 0.74476(10)
C28 C 0.44739(11) 0.38141(10) 0.79689(10)
H26 H 0.4044 0.3518 0.8440
C29 C 0.57387(12) 0.32320(10) 0.78276(10)
C30 C 0.63346(11) 0.36927(11) 0.71285(10)
H27 H 0.7199 0.3321 0.7023
C31 C 0.57050(11) 0.46852(10) 0.65756(10)
C32 C 0.64342(11) 0.21309(10) 0.84148(9)
C33 C 0.7833(2) 0.1749(3) 0.8325(3)
H28 H 0.8071 0.2298 0.8525
H29 H 0.8102 0.1638 0.7652
H30 H 0.8225 0.1064 0.8739
C34 C 0.6059(4) 0.2242(5) 0.9478(2)
H31 H 0.6230 0.2827 0.9681
H32 H 0.6531 0.1560 0.9870
H33 H 0.5176 0.2411 0.9567
C35 C 0.6057(3) 0.1319(3) 0.8050(4)
H34 H 0.5164 0.1546 0.8141
H35 H 0.6484 0.0604 0.8411
H36 H 0.6280 0.1279 0.7362
C36 C 0.24374(11) 0.53144(11) 0.76187(10)
C37 C 0.18049(12) 0.64378(11) 0.78874(10)
C38 C 0.24516(13) 0.70478(12) 0.80496(11)
H37 H 0.3322 0.6761 0.7951
C39 C 0.18403(14) 0.80665(12) 0.83524(12)
H38 H 0.2288 0.8481 0.8453
C40 C 0.05713(15) 0.84801(12) 0.85082(12)
H39 H 0.0150 0.9176 0.8724
C41 C -0.00845(13) 0.78804(13) 0.83495(12)
H40 H -0.0954 0.8167 0.8455
C42 C 0.05263(12) 0.68644(12) 0.80381(11)
H41 H 0.0075 0.6457 0.7927
C43 C 0.63793(11) 0.51386(11) 0.58347(10)
C44 C 0.77048(13) 0.47258(18) 0.58903(16)
C45 C 0.81967(18) 0.4980(2) 0.66426(16)
H42 H 0.7664 0.5416 0.7105
C46 C 0.94684(19) 0.4595(2) 0.67181(18)
H43 H 0.9805 0.4768 0.7232
C47 C 1.02481(13) 0.3956(2) 0.6041(2)
H44 H 1.1117 0.3693 0.6093
C48 C 0.97562(17) 0.3702(2) 0.5289(2)
H45 H 1.0289 0.3266 0.4826
C49 C 0.84846(18) 0.4087(2) 0.52135(16)
H46 H 0.8148 0.3914 0.4699
C50 C 0.63390(12) 0.64942(11) 0.45346(10)
H47 H 0.7121 0.6391 0.4769
H48 H 0.6479 0.6190 0.3933
C51? C 0.6157(6) 0.2249(7) 0.9483(3)
H49? H 0.5270 0.2468 0.9616
H50? H 0.6407 0.2801 0.9660
H51? H 0.6615 0.1553 0.9863
C52? C 0.7805(3) 0.1821(6) 0.8214(6)
H52? H 0.7976 0.2473 0.8149
H53? H 0.8051 0.1480 0.7613
H54? H 0.8273 0.1310 0.8749
C53? C 0.6084(5) 0.1254(5) 0.8148(7)
H55? H 0.5188 0.1543 0.8081
H56? H 0.6341 0.0639 0.8656
H57? H 0.6497 0.1011 0.7536
C54? C 0.7383(3) 0.1344(3) 0.7764(2)
H58? H 0.8008 0.1621 0.7528
H59? H 0.6966 0.1278 0.7215
H60? H 0.7782 0.0631 0.8135
C55? C 0.5567(3) 0.1599(3) 0.8838(4)
H61? H 0.4986 0.2049 0.9301
H62? H 0.6051 0.0879 0.9167
H63? H 0.5109 0.1530 0.8317
C56? C 0.7106(4) 0.2278(3) 0.9218(3)
H64? H 0.6508 0.2762 0.9651
H65? H 0.7682 0.2597 0.8943
H66? H 0.7565 0.1573 0.9582
C57? C 0.78003(16) 0.4574(2) 0.5789(2)
C58? C 0.8512(2) 0.4741(2) 0.6439(2)
H67? H 0.8124 0.5192 0.6935
C59? C 0.9792(2) 0.4250(3) 0.6362(3)
H68? H 1.0278 0.4364 0.6806
C60? C 1.03600(16) 0.3590(3) 0.5636(3)
H69? H 1.1235 0.3254 0.5584
C61? C 0.9648(2) 0.3422(3) 0.4987(3)
H70? H 1.0036 0.2972 0.4491
C62? C 0.8368(2) 0.3914(3) 0.5063(2)
H71? H 0.7882 0.3800 0.4619
loop_
_geom_bond_atom_site_label_1
_geom_bond_atom_site_label_2
_geom_bond_site_symmetry_1
_geom_bond_site_symmetry_2
O1 H1 1_555 1_555
O2 C11 1_555 1_555
N1 C18 1_555 1_555
C1 O1 1_555 1_555
C2 C1 1_555 1_555
C3 C2 1_555 1_555
H2 C3 1_555 1_555
C4 C3 1_555 1_555
C5 C4 1_555 1_555
H3 C5 1_555 1_555
C6 C1 1_555 1_555
C7 C4 1_555 1_555
C8 C7 1_555 1_555
H4 C8 1_555 1_555
H5 C8 1_555 1_555
H6 C8 1_555 1_555
C9 C7 1_555 1_555
H7 C9 1_555 1_555
H8 C9 1_555 1_555
H9 C9 1_555 1_555
C10 C7 1_555 1_555
H10 C10 1_555 1_555
H11 C10 1_555 1_555
H12 C10 1_555 1_555
C11 C2 1_555 1_555
C12 C11 1_555 1_555
C13 C12 1_555 1_555
H13 C13 1_555 1_555
C14 C13 1_555 1_555
H14 C14 1_555 1_555
C15 C14 1_555 1_555
H15 C15 1_555 1_555
C16 C15 1_555 1_555
H16 C16 1_555 1_555
C17 C12 1_555 1_555
H17 C17 1_555 1_555
C18 C6 1_555 1_555
C19 C18 1_555 1_555
C20 C19 1_555 1_555
H18 C20 1_555 1_555
C21 C20 1_555 1_555
H19 C21 1_555 1_555
C22 C21 1_555 1_555
H20 C22 1_555 1_555
C23 C22 1_555 1_555
H21 C23 1_555 1_555
C24 C19 1_555 1_555
H22 C24 1_555 1_555
C25 N1 1_555 1_555
H23 C25 1_555 1_555
H24 C25 1_555 1_555
O3 H25 1_555 1_555
O4 C36 1_555 1_555
N2 C43 1_555 1_555
C26 O3 1_555 1_555
C27 C26 1_555 1_555
C28 C27 1_555 1_555
H26 C28 1_555 1_555
C29 C28 1_555 1_555
C30 C29 1_555 1_555
H27 C30 1_555 1_555
C31 C26 1_555 1_555
C32 C29 1_555 1_555
C33 C32 1_555 1_555
H28 C33 1_555 1_555
H29 C33 1_555 1_555
H30 C33 1_555 1_555
C34 C32 1_555 1_555
H31 C34 1_555 1_555
H32 C34 1_555 1_555
H33 C34 1_555 1_555
C35 C32 1_555 1_555
H34 C35 1_555 1_555
H35 C35 1_555 1_555
H36 C35 1_555 1_555
C36 C27 1_555 1_555
C37 C36 1_555 1_555
C38 C37 1_555 1_555
H37 C38 1_555 1_555
C39 C38 1_555 1_555
H38 C39 1_555 1_555
C40 C39 1_555 1_555
H39 C40 1_555 1_555
C41 C40 1_555 1_555
H40 C41 1_555 1_555
C42 C37 1_555 1_555
H41 C42 1_555 1_555
C43 C31 1_555 1_555
C44 C43 1_555 1_555
C45 C44 1_555 1_555
H42 C45 1_555 1_555
C46 C45 1_555 1_555
H43 C46 1_555 1_555
C47 C46 1_555 1_555
H44 C47 1_555 1_555
C48 C47 1_555 1_555
H45 C48 1_555 1_555
C49 C44 1_555 1_555
H46 C49 1_555 1_555
C50 C25 1_555 1_555
H47 C50 1_555 1_555
H48 C50 1_555 1_555
C5 C6 1_555 1_555
C16 C17 1_555 1_555
C23 C24 1_555 1_555
N2 C50 1_555 1_555
C30 C31 1_555 1_555
C41 C42 1_555 1_555
C48 C49 1_555 1_555

#END
