
#######################################################################
#
#                 Cambridge Crystallographic Data Centre
#                                CCDC 
#
#######################################################################
#
# If this CIF has been generated from an entry in the Cambridge 
# Structural Database, then it will include bibliographic, chemical, 
# crystal, experimental, refinement or atomic coordinate data resulting 
# from the CCDC's data processing and validation procedures.
#
#######################################################################

data_VOVSAA
_chemical_formula_moiety         'C19 H25 N1 O4'
_chemical_name_systematic        
3S,5S-4-(t-Butoxycarbonyl)-5-benzyl-3-prop-2-enyl-2,3,5,6-tetrahydro-4H-1,4-oxazin-2-one
_symmetry_cell_setting           orthorhombic
_symmetry_space_group_name_H-M   'P 21 21 21'
_symmetry_Int_Tables_number      19
_space_group_name_Hall           'P 2ac 2ab'
loop_
_symmetry_equiv_pos_site_id
_symmetry_equiv_pos_as_xyz
1 x,y,z
2 1/2+x,1/2-y,-z
3 -x,1/2+y,1/2-z
4 1/2-x,-y,1/2+z
_cell_length_a                   14.983(2)
_cell_length_b                   20.936(5)
_cell_length_c                   5.922(2)
_cell_angle_alpha                90
_cell_angle_beta                 90
_cell_angle_gamma                90
_cell_volume                     1857.64
_cell_formula_units_Z            4
loop_
_atom_site_label
_atom_site_type_symbol
_atom_site_fract_x
_atom_site_fract_y
_atom_site_fract_z
N1 N 0.9604(3) 0.0743(2) 1.0133(9)
O1 O 0.8484(3) -0.0014(2) 1.2732(8)
C1 C 0.9583(3) 0.0059(3) 0.978(1)
O2 O 1.0247(3) 0.1716(2) 0.9496(7)
O3 O 1.0766(3) 0.0805(2) 0.7808(7)
C2 C 0.8636(4) 0.0583(4) 1.330(1)
C3 C 1.0206(5) 0.1132(4) 0.913(1)
O4 O 0.8471(3) 0.0727(2) 1.531(1)
C4 C 1.0328(3) -0.0275(3) 1.114(1)
C5 C 1.0432(4) -0.0963(3) 1.057(1)
C6 C 1.0791(4) -0.1172(4) 0.848(1)
C7 C 1.0304(5) -0.2067(4) 1.163(1)
C8 C 1.0916(4) -0.1812(4) 0.800(1)
C9 C 1.1977(4) 0.0558(3) 0.562(1)
C10 C 1.1562(4) 0.1100(3) 0.679(1)
C11 C 1.0198(4) -0.1443(4) 1.211(1)
C12 C 1.0665(5) -0.2249(3) 0.955(2)
C13 C 1.1312(4) 0.1645(3) 0.517(1)
C14 C 0.8960(4) 0.1033(3) 1.156(1)
C15 C 0.7530(5) 0.1706(3) 1.178(1)
C16 C 0.8681(4) -0.0187(3) 1.039(1)
C17 C 0.6696(6) 0.1613(4) 1.189(2)
C18 C 0.8175(4) 0.1358(3) 1.031(1)
C19 C 1.2167(4) 0.1366(4) 0.866(1)
H1 H 0.9681 -0.0022 0.8221
H2 H 1.0876 -0.0064 1.0835
H3 H 1.0192 -0.0240 1.2700
H4 H 1.0948 -0.0863 0.7373
H5 H 1.0132 -0.2383 1.2700
H6 H 1.1175 -0.1942 0.6606
H7 H 1.2137 0.0241 0.6695
H8 H 1.1566 0.0384 0.4567
H9 H 1.2496 0.0700 0.4849
H10 H 0.9960 -0.1325 1.3534
H11 H 1.0735 -0.2690 0.9215
H12 H 1.1840 0.1826 0.4551
H13 H 1.0949 0.1484 0.3986
H14 H 1.0993 0.1965 0.5974
H15 H 0.9263 0.1363 1.2353
H16 H 0.7768 0.2028 1.2728
H17 H 0.8670 -0.0638 1.0229
H18 H 0.8246 -0.0002 0.9417
H19 H 0.8419 0.1655 0.9265
H20 H 0.7857 0.1037 0.9513
H21 H 1.2372 0.1026 0.9581
H22 H 1.2664 0.1577 0.7991
H23 H 1.1840 0.1662 0.9549
H24 H 0.6463 0.1298 1.2882
H25 H 0.6303 0.1860 1.0981
loop_
_geom_bond_atom_site_label_1
_geom_bond_atom_site_label_2
_geom_bond_site_symmetry_1
_geom_bond_site_symmetry_2
N1 C1 1_555 1_555
O1 C2 1_555 1_555
C1 C4 1_555 1_555
O2 C3 1_555 1_555
O3 C3 1_555 1_555
C2 O4 1_555 1_555
C3 N1 1_555 1_555
C4 C5 1_555 1_555
C5 C6 1_555 1_555
C6 C8 1_555 1_555
C7 C11 1_555 1_555
C8 C12 1_555 1_555
C9 C10 1_555 1_555
C10 O3 1_555 1_555
C11 C5 1_555 1_555
C12 C7 1_555 1_555
C13 C10 1_555 1_555
C14 N1 1_555 1_555
C15 C17 1_555 1_555
C16 O1 1_555 1_555
C17 H24 1_555 1_555
C18 C14 1_555 1_555
C19 C10 1_555 1_555
H1 C1 1_555 1_555
H2 C4 1_555 1_555
H3 C4 1_555 1_555
H4 C6 1_555 1_555
H5 C7 1_555 1_555
H6 C8 1_555 1_555
H7 C9 1_555 1_555
H8 C9 1_555 1_555
H9 C9 1_555 1_555
H10 C11 1_555 1_555
H11 C12 1_555 1_555
H12 C13 1_555 1_555
H13 C13 1_555 1_555
H14 C13 1_555 1_555
H15 C14 1_555 1_555
H16 C15 1_555 1_555
H17 C16 1_555 1_555
H18 C16 1_555 1_555
H19 C18 1_555 1_555
H20 C18 1_555 1_555
H21 C19 1_555 1_555
H22 C19 1_555 1_555
H23 C19 1_555 1_555
H25 C17 1_555 1_555
C1 C16 1_555 1_555
C2 C14 1_555 1_555
C15 C18 1_555 1_555

#END
