
#######################################################################
#
#                 Cambridge Crystallographic Data Centre
#                                CCDC 
#
#######################################################################
#
# If this CIF has been generated from an entry in the Cambridge 
# Structural Database, then it will include bibliographic, chemical, 
# crystal, experimental, refinement or atomic coordinate data resulting 
# from the CCDC's data processing and validation procedures.
#
#######################################################################

data_VOWQOP
_chemical_formula_moiety         'C78 H104 O6'
_chemical_name_systematic        
2,20-Diallyl-5,11,17,23,29,35-hexa-t-butyl-37,38,39,40,41,42-hexamethoxycalix(6)arene
_symmetry_cell_setting           triclinic
_symmetry_space_group_name_H-M   'P -1'
_symmetry_Int_Tables_number      2
_space_group_name_Hall           '-P 1'
loop_
_symmetry_equiv_pos_site_id
_symmetry_equiv_pos_as_xyz
1 x,y,z
2 -x,-y,-z
_cell_length_a                   13.3230(14)
_cell_length_b                   16.3491(14)
_cell_length_c                   17.448(2)
_cell_angle_alpha                72.532(10)
_cell_angle_beta                 84.273(10)
_cell_angle_gamma                89.557(8)
_cell_volume                     3606.16
_exptl_crystal_colour            colorless
_exptl_crystal_description       block
_cell_formula_units_Z            2
loop_
_atom_site_label
_atom_site_type_symbol
_atom_site_fract_x
_atom_site_fract_y
_atom_site_fract_z
O1 O 0.1959(6) 0.9863(4) 0.4093(4)
O2 O 0.4830(5) 0.8126(4) 0.3024(4)
O3 O 0.6496(5) 0.9155(4) 0.3707(4)
C1 C 0.0904(9) 0.9671(8) 0.4098(9)
H1 H 0.0824 0.9090 0.4058
H2 H 0.0633 1.0085 0.3639
H3 H 0.0537 0.9707 0.4603
C2 C 0.2463(8) 0.9189(6) 0.4580(8)
C3 C 0.2590(8) 0.9178(6) 0.5364(7)
C4 C 0.3124(8) 0.8523(6) 0.5839(7)
C5 C 0.3553(8) 0.7874(6) 0.5520(8)
C6 C 0.3391(9) 0.7920(7) 0.4707(8)
C7 C 0.3296(8) 1.0072(6) 0.2418(6)
C8 C 0.2881(8) 0.8570(6) 0.4257(7)
C9 C 0.4146(12) 0.7157(8) 0.6074(10)
C10 C 0.399(3) 0.6314(10) 0.5935(15)
H4 H 0.4239 0.6353 0.5377
H5 H 0.3269 0.6160 0.6030
H6 H 0.4361 0.5874 0.6308
C11 C 0.384(2) 0.6983(11) 0.6992(13)
H7 H 0.4373 0.6661 0.7296
H8 H 0.3207 0.6649 0.7149
H9 H 0.3755 0.7530 0.7110
C12 C 0.5194(18) 0.7349(14) 0.594(2)
H10 H 0.5509 0.7081 0.5548
H11 H 0.5495 0.7128 0.6452
H12 H 0.5305 0.7972 0.5734
C13 C 0.2803(8) 0.8611(6) 0.3379(7)
H13 H 0.2896 0.8032 0.3318
H14 H 0.2122 0.8801 0.3231
C14 C 0.4746(8) 0.7597(6) 0.2508(7)
H15 H 0.4241 0.7832 0.2134
H16 H 0.4540 0.7013 0.2838
H17 H 0.5400 0.7585 0.2201
C15 C 0.4559(8) 0.8975(6) 0.2650(6)
C16 C 0.3592(8) 0.9227(6) 0.2813(6)
C17 C 0.4043(8) 1.0670(6) 0.1922(7)
C18 C 0.5010(7) 1.0423(6) 0.1804(6)
C19 C 0.5307(7) 0.9572(6) 0.2176(6)
C20 C 0.3647(11) 1.1574(6) 0.1445(10)
C21 C 0.284(2) 1.1822(11) 0.1779(19)
H18 H 0.3010 1.2284 0.1996
H19 H 0.2529 1.1338 0.2219
H20 H 0.2359 1.2030 0.1375
C22 C 0.391(2) 1.1763(13) 0.0586(16)
H21 H 0.3654 1.2324 0.0306
H22 H 0.3616 1.1321 0.0397
H23 H 0.4648 1.1770 0.0473
C23 C 0.4508(18) 1.2251(9) 0.1463(16)
H24 H 0.4390 1.2810 0.1078
H25 H 0.5171 1.2048 0.1313
H26 H 0.4486 1.2308 0.2007
C24 C 0.6389(7) 0.9320(5) 0.2060(6)
H27 H 0.6437 0.8722 0.2426
C25 C 0.5635(9) 0.9483(7) 0.4105(7)
H28 H 0.5833 0.9594 0.4591
H29 H 0.5079 0.9057 0.4255
H30 H 0.5416 1.0017 0.3735
C26 C 0.7118(7) 0.9782(6) 0.3179(7)
C27 C 0.7092(7) 0.9897(5) 0.2359(7)
C28 C 0.7700(7) 1.0563(5) 0.1765(7)
C29 C 0.8332(8) 1.1068(6) 0.2040(7)
C30 C 0.8385(7) 1.0916(5) 0.2843(8)
C31 C 0.7795(8) 1.0270(6) 0.3434(6)
C32 C 0.8970(10) 1.1794(7) 0.1400(7)
C33 C 0.8266(13) 1.2428(8) 0.0942(10)
H31 H 0.7857 1.2673 0.1313
H32 H 0.7824 1.2140 0.0682
H33 H 0.8657 1.2887 0.0528
C34 C 0.9593(11) 1.1455(8) 0.0801(9)
H34 H 0.9153 1.1144 0.0561
H35 H 1.0097 1.1067 0.1076
H36 H 0.9934 1.1935 0.0376
C35 C 0.9608(11) 1.2283(9) 0.1781(8)
H37 H 0.9938 1.2773 0.1362
H38 H 1.0121 1.1907 0.2057
H39 H 0.9181 1.2489 0.2172
C36 C 0.7866(8) 1.0128(6) 0.4306(7)
H40 H 0.8586 1.0079 0.4403
H41 H 0.7525 0.9574 0.4612
C37 C 0.6670(7) 0.9282(6) 0.1197(6)
H42 H 0.6134 0.8956 0.1053
H43 H 0.6689 0.9873 0.0822
C38 C 0.7673(10) 0.8874(7) 0.1074(8)
H44 H 0.7774 0.8326 0.1442
C39 C 0.8408(11) 0.9192(10) 0.0518(10)
H45 H 0.8346 0.9737 0.0134
H46 H 0.9009 0.8879 0.0495
O1A O 0.8041(6) 1.0137(4) 0.5907(4)
O2A O 0.5170(5) 1.1874(4) 0.6976(4)
O3A O 0.3504(5) 1.0845(4) 0.6293(4)
C1A C 0.9096(9) 1.0329(8) 0.5902(9)
H1A H 0.9176 1.0910 0.5942
H2A H 0.9367 0.9915 0.6361
H3A H 0.9463 1.0293 0.5397
C2A C 0.7537(8) 1.0811(6) 0.5420(8)
C3A C 0.7410(8) 1.0822(6) 0.4636(7)
C4A C 0.6876(8) 1.1477(6) 0.4161(7)
C5A C 0.6447(8) 1.2126(6) 0.4480(8)
C6A C 0.6609(9) 1.2080(7) 0.5293(8)
C7A C 0.6704(8) 0.9928(6) 0.7582(6)
C8A C 0.7119(8) 1.1430(6) 0.5743(7)
C9A C 0.5854(12) 1.2843(8) 0.3926(10)
C10A C 0.601(3) 1.3686(10) 0.4065(15)
H4A H 0.5761 1.3647 0.4623
H5A H 0.6731 1.3840 0.3970
H6A H 0.5639 1.4126 0.3692
C11A C 0.616(2) 1.3017(11) 0.3008(13)
H7A H 0.5627 1.3339 0.2704
H8A H 0.6793 1.3351 0.2851
H9A H 0.6245 1.2470 0.2890
C12A C 0.4806(18) 1.2651(14) 0.406(2)
H10A H 0.4491 1.2919 0.4452
H11A H 0.4505 1.2872 0.3548
H12A H 0.4695 1.2028 0.4266
C13A C 0.7197(8) 1.1389(6) 0.6621(7)
H13A H 0.7104 1.1968 0.6682
H14A H 0.7878 1.1199 0.6769
C14A C 0.5254(8) 1.2403(6) 0.7492(7)
H15A H 0.5759 1.2168 0.7866
H16A H 0.5460 1.2987 0.7162
H17A H 0.4600 1.2415 0.7799
C15A C 0.5441(8) 1.1025(6) 0.7350(6)
C16A C 0.6408(8) 1.0773(6) 0.7187(6)
C17A C 0.5957(8) 0.9330(6) 0.8078(7)
C18A C 0.4990(7) 0.9577(6) 0.8196(6)
C19A C 0.4693(7) 1.0428(6) 0.7824(6)
C20A C 0.6353(11) 0.8426(6) 0.8555(10)
C21A C 0.716(2) 0.8178(11) 0.8221(19)
H18A H 0.6990 0.7716 0.8004
H19A H 0.7471 0.8662 0.7781
H20A H 0.7641 0.7970 0.8625
C22A C 0.609(2) 0.8237(13) 0.9414(16)
H21A H 0.6346 0.7676 0.9694
H22A H 0.6384 0.8679 0.9603
H23A H 0.5352 0.8230 0.9527
C23A C 0.5492(18) 0.7749(9) 0.8537(16)
H24A H 0.5610 0.7190 0.8922
H25A H 0.4829 0.7952 0.8687
H26A H 0.5514 0.7692 0.7993
C24A C 0.3611(7) 1.0680(5) 0.7940(6)
H27A H 0.3563 1.1278 0.7574
C25A C 0.4365(9) 1.0517(7) 0.5895(7)
H28A H 0.4167 1.0406 0.5409
H29A H 0.4921 1.0943 0.5745
H30A H 0.4584 0.9983 0.6265
C26A C 0.2882(7) 1.0218(6) 0.6821(7)
C27A C 0.2908(7) 1.0103(5) 0.7641(7)
C28A C 0.2300(7) 0.9437(5) 0.8235(7)
C29A C 0.1668(8) 0.8932(6) 0.7960(7)
C30A C 0.1615(7) 0.9084(5) 0.7157(8)
C31A C 0.2205(8) 0.9730(6) 0.6566(6)
C32A C 0.1030(10) 0.8206(7) 0.8600(7)
C33A C 0.1734(13) 0.7572(8) 0.9058(10)
H31A H 0.2143 0.7327 0.8687
H32A H 0.2176 0.7860 0.9318
H33A H 0.1343 0.7113 0.9472
C34A C 0.0407(11) 0.8545(8) 0.9199(9)
H34A H 0.0847 0.8856 0.9439
H35A H -0.0097 0.8933 0.8924
H36A H 0.0066 0.8065 0.9624
C35A C 0.0392(11) 0.7717(9) 0.8219(8)
H37A H 0.0062 0.7227 0.8638
H38A H -0.0121 0.8093 0.7943
H39A H 0.0819 0.7511 0.7828
C36A C 0.2134(8) 0.9872(6) 0.5694(7)
H40A H 0.1414 0.9921 0.5597
H41A H 0.2475 1.0426 0.5388
C37A C 0.3330(7) 1.0718(6) 0.8803(6)
H42A H 0.3866 1.1044 0.8947
H43A H 0.3311 1.0127 0.9178
C38A C 0.2327(10) 1.1126(7) 0.8926(8)
H44A H 0.2226 1.1674 0.8558
C39A C 0.1592(11) 1.0808(10) 0.9482(10)
H45A H 0.1654 1.0263 0.9866
H46A H 0.0991 1.1121 0.9505
O4 O 0.1560(6) 0.6641(4) 0.3690(4)
O5 O -0.0187(5) 0.8080(4) 0.3037(4)
O6 O -0.3076(6) 0.5707(4) 0.4124(4)
C40 C 0.0686(9) 0.6086(6) 0.4083(7)
H47 H 0.0435 0.5823 0.3701
H48 H 0.0155 0.6428 0.4258
H49 H 0.0883 0.5636 0.4553
C41 C 0.2170(7) 0.6363(6) 0.3122(7)
C42 C 0.2843(8) 0.5708(5) 0.3374(7)
C43 C 0.3448(7) 0.5442(6) 0.2780(8)
C44 C 0.3334(9) 0.5813(6) 0.1959(8)
C45 C 0.2670(8) 0.6506(5) 0.1732(7)
C46 C 0.2084(7) 0.6794(6) 0.2296(8)
C47 C 0.3960(12) 0.5509(8) 0.1353(9)
C48 C 0.425(3) 0.4639(11) 0.1621(12)
H50 H 0.3742 0.4308 0.2044
H51 H 0.4904 0.4607 0.1838
H52 H 0.4302 0.4401 0.1166
C49 C 0.343(3) 0.550(3) 0.072(2)
H53 H 0.2712 0.5547 0.0868
H54 H 0.3555 0.4965 0.0588
H55 H 0.3661 0.5988 0.0248
C50 C 0.480(3) 0.610(2) 0.098(3)
H56 H 0.5359 0.5971 0.1317
H57 H 0.4586 0.6690 0.0918
H58 H 0.5023 0.6042 0.0444
C51 C 0.1375(7) 0.7525(5) 0.2077(6)
H59 H 0.1426 0.7862 0.2465
C52 C -0.0270(9) 0.8951(6) 0.2548(7)
H60 H 0.0396 0.9174 0.2278
H61 H -0.0527 0.9300 0.2891
H62 H -0.0736 0.8974 0.2141
C53 C -0.0445(8) 0.7484(5) 0.2655(6)
C54 C -0.1426(7) 0.7128(5) 0.2823(6)
C55 C -0.1710(8) 0.6563(6) 0.2400(7)
C56 C -0.0977(8) 0.6299(5) 0.1894(7)
C57 C 0.0011(8) 0.6624(5) 0.1792(6)
C58 C 0.0289(7) 0.7204(5) 0.2176(6)
C59 C -0.1287(11) 0.5708(8) 0.1415(9)
C60 C -0.167(3) 0.6172(15) 0.0725(18)
H63 H -0.2411 0.6138 0.0809
H64 H -0.1439 0.5938 0.0284
H65 H -0.1444 0.6772 0.0585
C61 C -0.1921(17) 0.5002(12) 0.1929(13)
H66 H -0.2617 0.5193 0.1980
H67 H -0.1678 0.4806 0.2464
H68 H -0.1899 0.4530 0.1691
C62 C -0.0401(16) 0.5237(16) 0.1147(19)
H69 H -0.0187 0.4796 0.1616
H70 H 0.0159 0.5644 0.0896
H71 H -0.0604 0.4965 0.0754
C63 C -0.2202(8) 0.7385(6) 0.3386(7)
H72 H -0.2117 0.8004 0.3318
H73 H -0.2884 0.7288 0.3245
C64 C -0.4098(10) 0.5920(8) 0.4095(9)
H74 H -0.4470 0.5654 0.4626
H75 H -0.4380 0.5711 0.3690
H76 H -0.4157 0.6545 0.3951
C65 C -0.2553(7) 0.6061(6) 0.4602(8)
C66 C -0.2118(8) 0.6886(6) 0.4250(7)
C67 C -0.1584(9) 0.7232(6) 0.4737(8)
C68 C -0.1458(8) 0.6795(6) 0.5506(8)
C69 C -0.1905(7) 0.5957(6) 0.5882(7)
C70 C -0.2459(7) 0.5609(6) 0.5398(8)
C71 C -0.2960(8) 0.4725(5) 0.5761(7)
H77 H -0.3690 0.4779 0.5698
H78 H -0.2682 0.4349 0.5444
C72 C -0.0838(12) 0.7128(7) 0.6051(9)
C73 C -0.119(2) 0.6761(15) 0.6958(12)
H79 H -0.1098 0.6139 0.7132
H80 H -0.1908 0.6880 0.7053
H81 H -0.0796 0.7029 0.7266
C74 C 0.0135(17) 0.700(3) 0.596(3)
H82 H 0.0482 0.7256 0.6301
H83 H 0.0394 0.7265 0.5391
H84 H 0.0254 0.6382 0.6109
C75 C -0.092(3) 0.8043(11) 0.5892(19)
H85 H -0.1162 0.8168 0.6393
H86 H -0.1393 0.8263 0.5488
H87 H -0.0254 0.8319 0.5688
C76 C 0.1642(7) 0.8155(5) 0.1203(6)
H88 H 0.1677 0.7821 0.0814
H89 H 0.1089 0.8566 0.1074
C77 C 0.2615(10) 0.8650(7) 0.1091(8)
H90 H 0.2651 0.8989 0.1445
C78 C 0.3393(11) 0.8693(7) 0.0607(9)
H91 H 0.3420 0.8373 0.0231
H92 H 0.3953 0.9044 0.0617
O4A O -0.1560(6) 0.3359(4) 0.6310(4)
O5A O 0.0187(5) 0.1920(4) 0.6963(4)
O6A O 0.3076(6) 0.4293(4) 0.5876(4)
C40A C -0.0686(9) 0.3914(6) 0.5917(7)
H47A H -0.0435 0.4177 0.6299
H48A H -0.0155 0.3572 0.5742
H49A H -0.0883 0.4364 0.5447
C41A C -0.2170(7) 0.3637(6) 0.6878(7)
C42A C -0.2843(8) 0.4292(5) 0.6626(7)
C43A C -0.3448(7) 0.4558(6) 0.7220(8)
C44A C -0.3334(9) 0.4187(6) 0.8041(8)
C45A C -0.2670(8) 0.3494(5) 0.8268(7)
C46A C -0.2084(7) 0.3206(6) 0.7704(8)
C47A C -0.3960(12) 0.4491(8) 0.8647(9)
C48A C -0.425(3) 0.5361(11) 0.8379(12)
H50A H -0.3742 0.5692 0.7956
H51A H -0.4904 0.5393 0.8162
H52A H -0.4302 0.5599 0.8834
C49A C -0.343(3) 0.450(3) 0.928(2)
H53A H -0.2712 0.4453 0.9132
H54A H -0.3555 0.5035 0.9412
H55A H -0.3661 0.4012 0.9752
C50A C -0.480(3) 0.390(2) 0.902(3)
H56A H -0.5359 0.4029 0.8683
H57A H -0.4586 0.3310 0.9082
H58A H -0.5023 0.3958 0.9556
C51A C -0.1375(7) 0.2475(5) 0.7923(6)
H59A H -0.1426 0.2138 0.7535
C52A C 0.0270(9) 0.1049(6) 0.7452(7)
H60A H -0.0396 0.0826 0.7722
H61A H 0.0527 0.0700 0.7109
H62A H 0.0736 0.1026 0.7859
C53A C 0.0445(8) 0.2516(5) 0.7345(6)
C54A C 0.1426(7) 0.2872(5) 0.7177(6)
C55A C 0.1710(8) 0.3437(6) 0.7600(7)
C56A C 0.0977(8) 0.3701(5) 0.8106(7)
C57A C -0.0011(8) 0.3376(5) 0.8208(6)
C58A C -0.0289(7) 0.2796(5) 0.7824(6)
C59A C 0.1287(11) 0.4292(8) 0.8585(9)
C60A C 0.167(3) 0.3828(15) 0.9275(18)
H63A H 0.2411 0.3862 0.9191
H64A H 0.1439 0.4062 0.9716
H65A H 0.1444 0.3228 0.9415
C61A C 0.1921(17) 0.4998(12) 0.8071(13)
H66A H 0.2617 0.4807 0.8020
H67A H 0.1678 0.5194 0.7536
H68A H 0.1899 0.5470 0.8309
C62A C 0.0401(16) 0.4763(16) 0.8853(19)
H69A H 0.0187 0.5204 0.8384
H70A H -0.0159 0.4356 0.9104
H71A H 0.0604 0.5035 0.9246
C63A C 0.2202(8) 0.2615(6) 0.6614(7)
H72A H 0.2117 0.1996 0.6682
H73A H 0.2884 0.2712 0.6755
C64A C 0.4098(10) 0.4080(8) 0.5905(9)
H74A H 0.4470 0.4346 0.5374
H75A H 0.4380 0.4289 0.6310
H76A H 0.4157 0.3455 0.6049
C65A C 0.2553(7) 0.3939(6) 0.5398(8)
C66A C 0.2118(8) 0.3114(6) 0.5750(7)
C67A C 0.1584(9) 0.2768(6) 0.5263(8)
C68A C 0.1458(8) 0.3205(6) 0.4494(8)
C69A C 0.1905(7) 0.4043(6) 0.4118(7)
C70A C 0.2459(7) 0.4391(6) 0.4602(8)
C71A C 0.2960(8) 0.5275(5) 0.4239(7)
H77A H 0.3690 0.5221 0.4302
H78A H 0.2682 0.5651 0.4556
C72A C 0.0838(12) 0.2872(7) 0.3949(9)
C73A C 0.119(2) 0.3239(15) 0.3042(12)
H79A H 0.1098 0.3861 0.2868
H80A H 0.1908 0.3120 0.2947
H81A H 0.0796 0.2971 0.2734
C74A C -0.0135(17) 0.300(3) 0.404(3)
H82A H -0.0482 0.2744 0.3699
H83A H -0.0394 0.2735 0.4609
H84A H -0.0254 0.3618 0.3891
C75A C 0.092(3) 0.1957(11) 0.4108(19)
H85A H 0.1162 0.1832 0.3607
H86A H 0.1393 0.1737 0.4512
H87A H 0.0254 0.1681 0.4312
C76A C -0.1642(7) 0.1845(5) 0.8797(6)
H88A H -0.1677 0.2179 0.9186
H89A H -0.1089 0.1434 0.8926
C77A C -0.2615(10) 0.1350(7) 0.8909(8)
H90A H -0.2651 0.1011 0.8555
C78A C -0.3393(11) 0.1307(7) 0.9393(9)
H91A H -0.3420 0.1627 0.9769
H92A H -0.3953 0.0956 0.9383
loop_
_geom_bond_atom_site_label_1
_geom_bond_atom_site_label_2
_geom_bond_site_symmetry_1
_geom_bond_site_symmetry_2
O1 C1 1_555 1_555
O2 C14 1_555 1_555
O3 C25 1_555 1_555
C1 H1 1_555 1_555
H2 C1 1_555 1_555
H3 C1 1_555 1_555
C2 O1 1_555 1_555
C3 C2 1_555 1_555
C4 C3 1_555 1_555
C5 C4 1_555 1_555
C6 C5 1_555 1_555
C7 C16 1_555 1_555
C8 C2 1_555 1_555
C9 C5 1_555 1_555
C10 C9 1_555 1_555
H4 C10 1_555 1_555
H5 C10 1_555 1_555
H6 C10 1_555 1_555
C11 C9 1_555 1_555
H7 C11 1_555 1_555
H8 C11 1_555 1_555
H9 C11 1_555 1_555
C12 C9 1_555 1_555
H10 C12 1_555 1_555
H11 C12 1_555 1_555
H12 C12 1_555 1_555
C13 C8 1_555 1_555
H13 C13 1_555 1_555
H14 C13 1_555 1_555
C14 H15 1_555 1_555
H16 C14 1_555 1_555
H17 C14 1_555 1_555
C15 O2 1_555 1_555
C16 C13 1_555 1_555
C17 C7 1_555 1_555
C18 C17 1_555 1_555
C19 C15 1_555 1_555
C20 C17 1_555 1_555
C21 C20 1_555 1_555
H18 C21 1_555 1_555
H19 C21 1_555 1_555
H20 C21 1_555 1_555
C22 C20 1_555 1_555
H21 C22 1_555 1_555
H22 C22 1_555 1_555
H23 C22 1_555 1_555
C23 C20 1_555 1_555
H24 C23 1_555 1_555
H25 C23 1_555 1_555
H26 C23 1_555 1_555
C24 C19 1_555 1_555
H27 C24 1_555 1_555
C25 H28 1_555 1_555
H29 C25 1_555 1_555
H30 C25 1_555 1_555
C26 O3 1_555 1_555
C27 C24 1_555 1_555
C28 C27 1_555 1_555
C29 C28 1_555 1_555
C30 C29 1_555 1_555
C31 C26 1_555 1_555
C32 C29 1_555 1_555
C33 C32 1_555 1_555
H31 C33 1_555 1_555
H32 C33 1_555 1_555
H33 C33 1_555 1_555
C34 C32 1_555 1_555
H34 C34 1_555 1_555
H35 C34 1_555 1_555
H36 C34 1_555 1_555
C35 C32 1_555 1_555
H37 C35 1_555 1_555
H38 C35 1_555 1_555
H39 C35 1_555 1_555
C36 C31 1_555 1_555
H40 C36 1_555 1_555
H41 C36 1_555 1_555
C37 C24 1_555 1_555
H42 C37 1_555 1_555
H43 C37 1_555 1_555
C38 C37 1_555 1_555
H44 C38 1_555 1_555
C39 C38 1_555 1_555
H45 C39 1_555 1_555
H46 C39 1_555 1_555
O4 C40 1_555 1_555
O5 C52 1_555 1_555
O6 C64 1_555 1_555
C40 H47 1_555 1_555
H48 C40 1_555 1_555
H49 C40 1_555 1_555
C41 O4 1_555 1_555
C42 C41 1_555 1_555
C43 C42 1_555 1_555
C44 C43 1_555 1_555
C45 C44 1_555 1_555
C46 C41 1_555 1_555
C47 C44 1_555 1_555
C48 C47 1_555 1_555
H50 C48 1_555 1_555
H51 C48 1_555 1_555
H52 C48 1_555 1_555
C49 C47 1_555 1_555
H53 C49 1_555 1_555
H54 C49 1_555 1_555
H55 C49 1_555 1_555
C50 C47 1_555 1_555
H56 C50 1_555 1_555
H57 C50 1_555 1_555
H58 C50 1_555 1_555
C51 C46 1_555 1_555
H59 C51 1_555 1_555
C52 H60 1_555 1_555
H61 C52 1_555 1_555
H62 C52 1_555 1_555
C53 O5 1_555 1_555
C54 C53 1_555 1_555
C55 C54 1_555 1_555
C56 C55 1_555 1_555
C57 C56 1_555 1_555
C58 C51 1_555 1_555
C59 C56 1_555 1_555
C60 C59 1_555 1_555
H63 C60 1_555 1_555
H64 C60 1_555 1_555
H65 C60 1_555 1_555
C61 C59 1_555 1_555
H66 C61 1_555 1_555
H67 C61 1_555 1_555
H68 C61 1_555 1_555
C62 C59 1_555 1_555
H69 C62 1_555 1_555
H70 C62 1_555 1_555
H71 C62 1_555 1_555
C63 C54 1_555 1_555
H72 C63 1_555 1_555
H73 C63 1_555 1_555
C64 H74 1_555 1_555
H75 C64 1_555 1_555
H76 C64 1_555 1_555
C65 O6 1_555 1_555
C66 C63 1_555 1_555
C67 C66 1_555 1_555
C68 C67 1_555 1_555
C69 C68 1_555 1_555
C70 C65 1_555 1_555
C71 C70 1_555 1_555
H77 C71 1_555 1_555
H78 C71 1_555 1_555
C72 C68 1_555 1_555
C73 C72 1_555 1_555
H79 C73 1_555 1_555
H80 C73 1_555 1_555
H81 C73 1_555 1_555
C74 C72 1_555 1_555
H82 C74 1_555 1_555
H83 C74 1_555 1_555
H84 C74 1_555 1_555
C75 C72 1_555 1_555
H85 C75 1_555 1_555
H86 C75 1_555 1_555
H87 C75 1_555 1_555
C76 C51 1_555 1_555
H88 C76 1_555 1_555
H89 C76 1_555 1_555
C77 C76 1_555 1_555
H90 C77 1_555 1_555
C78 C77 1_555 1_555
H91 C78 1_555 1_555
H92 C78 1_555 1_555
O1A C1A 1_555 1_555
O2A C14A 1_555 1_555
O3A C25A 1_555 1_555
C1A H1A 1_555 1_555
H2A C1A 1_555 1_555
H3A C1A 1_555 1_555
C2A O1A 1_555 1_555
C3A C36 1_555 1_555
C4A C3A 1_555 1_555
C5A C4A 1_555 1_555
C6A C5A 1_555 1_555
C7A C16A 1_555 1_555
C8A C2A 1_555 1_555
C9A C5A 1_555 1_555
C10A C9A 1_555 1_555
H4A C10A 1_555 1_555
H5A C10A 1_555 1_555
H6A C10A 1_555 1_555
C11A C9A 1_555 1_555
H7A C11A 1_555 1_555
H8A C11A 1_555 1_555
H9A C11A 1_555 1_555
C12A C9A 1_555 1_555
H10A C12A 1_555 1_555
H11A C12A 1_555 1_555
H12A C12A 1_555 1_555
C13A C8A 1_555 1_555
H13A C13A 1_555 1_555
H14A C13A 1_555 1_555
C14A H15A 1_555 1_555
H16A C14A 1_555 1_555
H17A C14A 1_555 1_555
C15A O2A 1_555 1_555
C16A C13A 1_555 1_555
C17A C7A 1_555 1_555
C18A C17A 1_555 1_555
C19A C15A 1_555 1_555
C20A C17A 1_555 1_555
C21A C20A 1_555 1_555
H18A C21A 1_555 1_555
H19A C21A 1_555 1_555
H20A C21A 1_555 1_555
C22A C20A 1_555 1_555
H21A C22A 1_555 1_555
H22A C22A 1_555 1_555
H23A C22A 1_555 1_555
C23A C20A 1_555 1_555
H24A C23A 1_555 1_555
H25A C23A 1_555 1_555
H26A C23A 1_555 1_555
C24A C19A 1_555 1_555
H27A C24A 1_555 1_555
C25A H28A 1_555 1_555
H29A C25A 1_555 1_555
H30A C25A 1_555 1_555
C26A O3A 1_555 1_555
C27A C24A 1_555 1_555
C28A C27A 1_555 1_555
C29A C28A 1_555 1_555
C30A C29A 1_555 1_555
C31A C26A 1_555 1_555
C32A C29A 1_555 1_555
C33A C32A 1_555 1_555
H31A C33A 1_555 1_555
H32A C33A 1_555 1_555
H33A C33A 1_555 1_555
C34A C32A 1_555 1_555
H34A C34A 1_555 1_555
H35A C34A 1_555 1_555
H36A C34A 1_555 1_555
C35A C32A 1_555 1_555
H37A C35A 1_555 1_555
H38A C35A 1_555 1_555
H39A C35A 1_555 1_555
C36A C3 1_555 1_555
H40A C36A 1_555 1_555
H41A C36A 1_555 1_555
C37A C24A 1_555 1_555
H42A C37A 1_555 1_555
H43A C37A 1_555 1_555
C38A C37A 1_555 1_555
H44A C38A 1_555 1_555
C39A C38A 1_555 1_555
H45A C39A 1_555 1_555
H46A C39A 1_555 1_555
O4A C40A 1_555 1_555
O5A C52A 1_555 1_555
O6A C64A 1_555 1_555
C40A H47A 1_555 1_555
H48A C40A 1_555 1_555
H49A C40A 1_555 1_555
C41A O4A 1_555 1_555
C42A C71 1_555 1_555
C43A C42A 1_555 1_555
C44A C43A 1_555 1_555
C45A C44A 1_555 1_555
C46A C41A 1_555 1_555
C47A C44A 1_555 1_555
C48A C47A 1_555 1_555
H50A C48A 1_555 1_555
H51A C48A 1_555 1_555
H52A C48A 1_555 1_555
C49A C47A 1_555 1_555
H53A C49A 1_555 1_555
H54A C49A 1_555 1_555
H55A C49A 1_555 1_555
C50A C47A 1_555 1_555
H56A C50A 1_555 1_555
H57A C50A 1_555 1_555
H58A C50A 1_555 1_555
C51A C46A 1_555 1_555
H59A C51A 1_555 1_555
C52A H60A 1_555 1_555
H61A C52A 1_555 1_555
H62A C52A 1_555 1_555
C53A O5A 1_555 1_555
C54A C53A 1_555 1_555
C55A C54A 1_555 1_555
C56A C55A 1_555 1_555
C57A C56A 1_555 1_555
C58A C51A 1_555 1_555
C59A C56A 1_555 1_555
C60A C59A 1_555 1_555
H63A C60A 1_555 1_555
H64A C60A 1_555 1_555
H65A C60A 1_555 1_555
C61A C59A 1_555 1_555
H66A C61A 1_555 1_555
H67A C61A 1_555 1_555
H68A C61A 1_555 1_555
C62A C59A 1_555 1_555
H69A C62A 1_555 1_555
H70A C62A 1_555 1_555
H71A C62A 1_555 1_555
C63A C54A 1_555 1_555
H72A C63A 1_555 1_555
H73A C63A 1_555 1_555
C64A H74A 1_555 1_555
H75A C64A 1_555 1_555
H76A C64A 1_555 1_555
C65A O6A 1_555 1_555
C66A C63A 1_555 1_555
C67A C66A 1_555 1_555
C68A C67A 1_555 1_555
C69A C68A 1_555 1_555
C70A C65A 1_555 1_555
C71A C42 1_555 1_555
H77A C71A 1_555 1_555
H78A C71A 1_555 1_555
C72A C68A 1_555 1_555
C73A C72A 1_555 1_555
H79A C73A 1_555 1_555
H80A C73A 1_555 1_555
H81A C73A 1_555 1_555
C74A C72A 1_555 1_555
H82A C74A 1_555 1_555
H83A C74A 1_555 1_555
H84A C74A 1_555 1_555
C75A C72A 1_555 1_555
H85A C75A 1_555 1_555
H86A C75A 1_555 1_555
H87A C75A 1_555 1_555
C76A C51A 1_555 1_555
H88A C76A 1_555 1_555
H89A C76A 1_555 1_555
C77A C76A 1_555 1_555
H90A C77A 1_555 1_555
C78A C77A 1_555 1_555
H91A C78A 1_555 1_555
H92A C78A 1_555 1_555
C6 C8 1_555 1_555
C15 C16 1_555 1_555
C18 C19 1_555 1_555
C26 C27 1_555 1_555
C30 C31 1_555 1_555
C45 C46 1_555 1_555
C53 C58 1_555 1_555
C57 C58 1_555 1_555
C65 C66 1_555 1_555
C69 C70 1_555 1_555
C2A C3A 1_555 1_555
C6A C8A 1_555 1_555
C15A C16A 1_555 1_555
C18A C19A 1_555 1_555
C26A C27A 1_555 1_555
C30A C31A 1_555 1_555
C31A C36A 1_555 1_555
C41A C42A 1_555 1_555
C45A C46A 1_555 1_555
C53A C58A 1_555 1_555
C57A C58A 1_555 1_555
C65A C66A 1_555 1_555
C69A C70A 1_555 1_555
C70A C71A 1_555 1_555

#END
