
#######################################################################
#
#                 Cambridge Crystallographic Data Centre
#                                CCDC 
#
#######################################################################
#
# If this CIF has been generated from an entry in the Cambridge 
# Structural Database, then it will include bibliographic, chemical, 
# crystal, experimental, refinement or atomic coordinate data resulting 
# from the CCDC's data processing and validation procedures.
#
#######################################################################

data_VOWQEF
_chemical_formula_moiety         'C76 H104 O6,2(C1 H1 Cl3)'
_chemical_name_systematic        
'5,11,17,23,29,35-Hexa-t-butyl-2,20-diethyl-37,38,39,40,41,42-hexamethoxycalix(6)arene chloroform solvate'
_symmetry_cell_setting           triclinic
_symmetry_space_group_name_H-M   'P -1'
_symmetry_Int_Tables_number      2
_space_group_name_Hall           '-P 1'
loop_
_symmetry_equiv_pos_site_id
_symmetry_equiv_pos_as_xyz
1 x,y,z
2 -x,-y,-z
_cell_length_a                   9.8070(4)
_cell_length_b                   13.8699(9)
_cell_length_c                   16.6745(11)
_cell_angle_alpha                109.657(6)
_cell_angle_beta                 95.088(4)
_cell_angle_gamma                107.141(4)
_cell_volume                     1996.1
_exptl_crystal_colour            colorless
_exptl_crystal_description       block
_cell_formula_units_Z            1
loop_
_atom_site_label
_atom_site_type_symbol
_atom_site_fract_x
_atom_site_fract_y
_atom_site_fract_z
O1 O -0.11828(19) 0.44462(16) 0.66586(11)
O2 O -0.15950(17) 0.75145(14) 0.64712(13)
O3 O 0.17123(17) 0.83678(14) 0.45556(12)
C1 C -0.0253(2) 0.48839(19) 0.74674(14)
C2 C 0.0197(3) 0.4182(2) 0.77727(16)
C3 C 0.1146(3) 0.4634(2) 0.85788(17)
H1 H 0.1467 0.4165 0.8791
C4 C 0.1644(3) 0.5740(2) 0.90855(16)
C5 C 0.1089(3) 0.6394(2) 0.87784(17)
H2 H 0.1372 0.7148 0.9130
C6 C 0.0137(2) 0.5989(2) 0.79778(16)
C7 C 0.2756(4) 0.6227(3) 0.9949(2)
C8 C 0.4212(8) 0.6278(17) 0.9700(8)
H3 H 0.4968 0.6550 1.0227
H4 H 0.4454 0.6770 0.9387
H5 H 0.4159 0.5546 0.9323
C9 C 0.2480(13) 0.5441(9) 1.0427(6)
H6 H 0.2504 0.4735 1.0048
H7 H 0.1521 0.5343 1.0582
H8 H 0.3237 0.5743 1.0958
C10 C 0.276(3) 0.7278(12) 1.0548(9)
H9 H 0.1760 0.7220 1.0623
H10 H 0.3131 0.7838 1.0310
H11 H 0.3382 0.7481 1.1114
C11 C -0.0456(4) 0.4476(3) 0.59576(18)
H12 H -0.0016 0.5234 0.6014
H13 H -0.1161 0.4057 0.5402
H14 H 0.0309 0.4157 0.5976
C12 C -0.0515(3) 0.6706(2) 0.76709(17)
H15 H -0.1410 0.6204 0.7213
C13 C -0.0098(2) 0.77717(19) 0.66846(16)
C14 C 0.0492(2) 0.73663(19) 0.72443(16)
C15 C 0.1995(3) 0.7650(2) 0.74389(17)
H16 H 0.2404 0.7361 0.7802
C16 C 0.2932(3) 0.8342(2) 0.71222(18)
C17 C 0.2298(3) 0.8761(2) 0.66030(17)
H17 H 0.2914 0.9248 0.6392
C18 C 0.0797(3) 0.84932(19) 0.63805(15)
C19 C 0.4572(3) 0.8600(4) 0.7352(2)
C20 C 0.4849(6) 0.7488(6) 0.7010(6)
H18 H 0.5899 0.7630 0.7062
H19 H 0.4352 0.7078 0.6398
H20 H 0.4468 0.7061 0.7356
C21 C 0.5113(5) 0.9016(8) 0.8306(4)
H21 H 0.6111 0.9019 0.8427
H22 H 0.4479 0.8544 0.8549
H23 H 0.5106 0.9761 0.8575
C22 C 0.5412(4) 0.9295(7) 0.6923(5)
H24 H 0.5401 1.0039 0.7191
H25 H 0.4966 0.8993 0.6301
H26 H 0.6422 0.9311 0.6994
C23 C -0.2343(3) 0.6455(2) 0.5794(2)
H27 H -0.1942 0.6413 0.5270
H28 H -0.3385 0.6340 0.5661
H29 H -0.2209 0.5891 0.5990
C24 C 0.0166(3) 0.9053(2) 0.58762(17)
H30 H -0.0546 0.9325 0.6183
H31 H 0.0967 0.9696 0.5892
C25 C 0.0215(2) 0.80589(18) 0.43032(16)
C26 C -0.0581(2) 0.83587(18) 0.49349(15)
C27 C -0.1008(3) 0.7473(2) 0.8393(2)
H32 H -0.0158 0.7955 0.8875
H33 H -0.1371 0.7941 0.8160
C28 C -0.2093(2) 0.80082(19) 0.46822(16)
H34 H -0.2640 0.8219 0.5110
C29 C -0.2832(2) 0.73607(19) 0.38268(16)
C30 C -0.1989(3) 0.7068(2) 0.32232(17)
H35 H -0.2469 0.6620 0.2636
C31 C -0.0480(3) 0.74015(19) 0.34383(16)
C32 C -0.4497(3) 0.6965(3) 0.35604(19)
C33 C -0.5222(5) 0.7337(6) 0.4329(4)
H36 H -0.6280 0.7087 0.4119
H37 H -0.4839 0.8135 0.4606
H38 H -0.5012 0.7027 0.4754
C34 C -0.5088(7) 0.5742(6) 0.3138(9)
H39 H -0.4831 0.5433 0.3554
H40 H -0.4667 0.5503 0.2627
H41 H -0.6152 0.5492 0.2958
C35 C -0.4905(7) 0.7483(12) 0.2931(6)
H42 H -0.4591 0.7194 0.2386
H43 H -0.4419 0.8277 0.3198
H44 H -0.5965 0.7308 0.2810
C36 C 0.2525(3) 0.9306(2) 0.4410(3)
H45 H 0.2280 0.9178 0.3792
H46 H 0.3571 0.9451 0.4580
H47 H 0.2286 0.9936 0.4759
C37 C 0.0370(3) 0.7032(2) 0.27500(19)
H48 H 0.0345 0.7414 0.2347
H49 H 0.1401 0.7252 0.3038
C38 C -0.2198(5) 0.6861(4) 0.8745(3)
H50 H -0.3074 0.6432 0.8282
H51 H -0.2428 0.7383 0.9228
H52 H -0.1861 0.6372 0.8953
O1A O 0.11828(19) 0.55538(16) 0.33414(11)
O2A O 0.15950(17) 0.24855(14) 0.35288(13)
O3A O -0.17123(17) 0.16322(14) 0.54444(12)
C1A C 0.0253(2) 0.51161(19) 0.25326(14)
C2A C -0.0197(3) 0.5818(2) 0.22273(16)
C3A C -0.1146(3) 0.5366(2) 0.14212(17)
H1A H -0.1467 0.5835 0.1209
C4A C -0.1644(3) 0.4260(2) 0.09145(16)
C5A C -0.1089(3) 0.3606(2) 0.12216(17)
H2A H -0.1372 0.2852 0.0870
C6A C -0.0137(2) 0.4011(2) 0.20222(16)
C7A C -0.2756(4) 0.3773(3) 0.0051(2)
C8A C -0.4212(8) 0.3722(17) 0.0300(8)
H3A H -0.4968 0.3450 -0.0227
H4A H -0.4454 0.3230 0.0613
H5A H -0.4159 0.4454 0.0677
C9A C -0.2480(13) 0.4559(9) -0.0427(6)
H6A H -0.2504 0.5265 -0.0048
H7A H -0.1521 0.4657 -0.0582
H8A H -0.3237 0.4257 -0.0958
C10A C -0.276(3) 0.2722(12) -0.0548(9)
H9A H -0.1760 0.2780 -0.0623
H10A H -0.3131 0.2162 -0.0310
H11A H -0.3382 0.2519 -0.1114
C11A C 0.0456(4) 0.5524(3) 0.40424(18)
H12A H 0.0016 0.4766 0.3986
H13A H 0.1161 0.5943 0.4598
H14A H -0.0309 0.5843 0.4024
C12A C 0.0515(3) 0.3294(2) 0.23291(17)
H15A H 0.1410 0.3796 0.2787
C13A C 0.0098(2) 0.22283(19) 0.33154(16)
C14A C -0.0492(2) 0.26337(19) 0.27557(16)
C15A C -0.1995(3) 0.2350(2) 0.25611(17)
H16A H -0.2404 0.2639 0.2198
C16A C -0.2932(3) 0.1658(2) 0.28778(18)
C17A C -0.2298(3) 0.1239(2) 0.33970(17)
H17A H -0.2914 0.0752 0.3608
C18A C -0.0797(3) 0.15068(19) 0.36195(15)
C19A C -0.4572(3) 0.1400(4) 0.2648(2)
C20A C -0.4849(6) 0.2512(6) 0.2990(6)
H18A H -0.5899 0.2370 0.2938
H19A H -0.4352 0.2922 0.3602
H20A H -0.4468 0.2939 0.2644
C21A C -0.5113(5) 0.0984(8) 0.1694(4)
H21A H -0.6111 0.0981 0.1573
H22A H -0.4479 0.1456 0.1451
H23A H -0.5106 0.0239 0.1425
C22A C -0.5412(4) 0.0705(7) 0.3077(5)
H24A H -0.5401 -0.0039 0.2809
H25A H -0.4966 0.1007 0.3699
H26A H -0.6422 0.0689 0.3006
C23A C 0.2343(3) 0.3545(2) 0.4206(2)
H27A H 0.1942 0.3587 0.4730
H28A H 0.3385 0.3660 0.4339
H29A H 0.2209 0.4109 0.4010
C24A C -0.0166(3) 0.0947(2) 0.41238(17)
H30A H 0.0546 0.0675 0.3817
H31A H -0.0967 0.0304 0.4108
C25A C -0.0215(2) 0.19411(18) 0.56968(16)
C26A C 0.0581(2) 0.16413(18) 0.50651(15)
C27A C 0.1008(3) 0.2527(2) 0.1607(2)
H32A H 0.0158 0.2045 0.1125
H33A H 0.1371 0.2059 0.1840
C28A C 0.2093(2) 0.19918(19) 0.53178(16)
H34A H 0.2640 0.1781 0.4890
C29A C 0.2832(2) 0.26393(19) 0.61732(16)
C30A C 0.1989(3) 0.2932(2) 0.67768(17)
H35A H 0.2469 0.3380 0.7364
C31A C 0.0480(3) 0.25985(19) 0.65617(16)
C32A C 0.4497(3) 0.3035(3) 0.64396(19)
C33A C 0.5222(5) 0.2663(6) 0.5671(4)
H36A H 0.6280 0.2913 0.5881
H37A H 0.4839 0.1865 0.5394
H38A H 0.5012 0.2973 0.5246
C34A C 0.5088(7) 0.4258(6) 0.6862(9)
H39A H 0.4831 0.4567 0.6446
H40A H 0.4667 0.4497 0.7373
H41A H 0.6152 0.4508 0.7042
C35A C 0.4905(7) 0.2517(12) 0.7069(6)
H42A H 0.4591 0.2806 0.7614
H43A H 0.4419 0.1723 0.6802
H44A H 0.5965 0.2692 0.7190
C36A C -0.2525(3) 0.0694(2) 0.5590(3)
H45A H -0.2280 0.0822 0.6208
H46A H -0.3571 0.0549 0.5420
H47A H -0.2286 0.0064 0.5241
C37A C -0.0370(3) 0.2968(2) 0.72500(19)
H48A H -0.0345 0.2586 0.7653
H49A H -0.1401 0.2748 0.6962
C38A C 0.2198(5) 0.3139(4) 0.1255(3)
H50A H 0.3074 0.3568 0.1718
H51A H 0.2428 0.2617 0.0772
H52A H 0.1861 0.3628 0.1047
C45 C 0.1199(6) 0.0433(4) 0.8526(3)
Cl1 Cl 0.2124(7) 0.1398(3) 0.8147(4)
Cl2 Cl -0.0496(6) 0.0432(5) 0.8546(8)
Cl3 Cl 0.2150(6) 0.0467(3) 0.9493(2)
C39? C 0.392(2) 0.722(2) 0.9993(14)
H53? H 0.4166 0.7780 1.0582
H54? H 0.3577 0.7494 0.9573
H55? H 0.4788 0.7041 0.9854
C40? C 0.346(4) 0.548(3) 1.0073(14)
H56? H 0.4248 0.5863 1.0590
H57? H 0.3852 0.5188 0.9560
H58? H 0.2734 0.4870 1.0150
C41? C 0.198(2) 0.654(4) 1.0650(9)
H59? H 0.1100 0.6648 1.0420
H60? H 0.2613 0.7225 1.1117
H61? H 0.1696 0.5967 1.0882
C42? C -0.5016(17) 0.7888(17) 0.387(2)
H62? H -0.6085 0.7620 0.3729
H63? H -0.4639 0.8397 0.3587
H64? H -0.4672 0.8265 0.4503
C43? C -0.5140(13) 0.612(2) 0.3939(17)
H65? H -0.6205 0.5839 0.3755
H66? H -0.4867 0.6460 0.4577
H67? H -0.4763 0.5521 0.3731
C44? C -0.5023(14) 0.633(2) 0.2543(11)
H68? H -0.4671 0.5710 0.2360
H69? H -0.4632 0.6819 0.2248
H70? H -0.6091 0.6056 0.2390
Cl4? Cl 0.2410(13) 0.1608(12) 0.8497(10)
Cl5? Cl -0.0196(15) 0.0690(12) 0.8945(9)
Cl6? Cl 0.2373(18) 0.0409(13) 0.9303(14)
loop_
_geom_bond_atom_site_label_1
_geom_bond_atom_site_label_2
_geom_bond_site_symmetry_1
_geom_bond_site_symmetry_2
O1 C1 1_555 1_555
O2 C13 1_555 1_555
O3 C25 1_555 1_555
C1 C2 1_555 1_555
C2 C3 1_555 1_555
C3 H1 1_555 1_555
C4 C3 1_555 1_555
C5 C4 1_555 1_555
H2 C5 1_555 1_555
C6 C1 1_555 1_555
C7 C4 1_555 1_555
C8 C7 1_555 1_555
H3 C8 1_555 1_555
H4 C8 1_555 1_555
H5 C8 1_555 1_555
C9 C7 1_555 1_555
H6 C9 1_555 1_555
H7 C9 1_555 1_555
H8 C9 1_555 1_555
C10 C7 1_555 1_555
H9 C10 1_555 1_555
H10 C10 1_555 1_555
H11 C10 1_555 1_555
C11 O1 1_555 1_555
H12 C11 1_555 1_555
H13 C11 1_555 1_555
H14 C11 1_555 1_555
C12 C6 1_555 1_555
H15 C12 1_555 1_555
C13 C14 1_555 1_555
C14 C12 1_555 1_555
C15 C14 1_555 1_555
H16 C15 1_555 1_555
C16 C15 1_555 1_555
C17 C16 1_555 1_555
H17 C17 1_555 1_555
C18 C13 1_555 1_555
C19 C16 1_555 1_555
C20 C19 1_555 1_555
H18 C20 1_555 1_555
H19 C20 1_555 1_555
H20 C20 1_555 1_555
C21 C19 1_555 1_555
H21 C21 1_555 1_555
H22 C21 1_555 1_555
H23 C21 1_555 1_555
C22 C19 1_555 1_555
H24 C22 1_555 1_555
H25 C22 1_555 1_555
H26 C22 1_555 1_555
C23 O2 1_555 1_555
H27 C23 1_555 1_555
H28 C23 1_555 1_555
H29 C23 1_555 1_555
C24 C18 1_555 1_555
H30 C24 1_555 1_555
H31 C24 1_555 1_555
C25 C26 1_555 1_555
C26 C24 1_555 1_555
C27 C12 1_555 1_555
H32 C27 1_555 1_555
H33 C27 1_555 1_555
C28 C26 1_555 1_555
H34 C28 1_555 1_555
C29 C28 1_555 1_555
C30 C29 1_555 1_555
H35 C30 1_555 1_555
C31 C25 1_555 1_555
C32 C29 1_555 1_555
C33 C32 1_555 1_555
H36 C33 1_555 1_555
H37 C33 1_555 1_555
H38 C33 1_555 1_555
C34 C32 1_555 1_555
H39 C34 1_555 1_555
H40 C34 1_555 1_555
H41 C34 1_555 1_555
C35 C32 1_555 1_555
H42 C35 1_555 1_555
H43 C35 1_555 1_555
H44 C35 1_555 1_555
C36 O3 1_555 1_555
H45 C36 1_555 1_555
H46 C36 1_555 1_555
H47 C36 1_555 1_555
C37 C31 1_555 1_555
H48 C37 1_555 1_555
H49 C37 1_555 1_555
C38 C27 1_555 1_555
H50 C38 1_555 1_555
H51 C38 1_555 1_555
H52 C38 1_555 1_555
C45 Cl1 1_555 1_555
Cl2 C45 1_555 1_555
Cl3 C45 1_555 1_555
O1A C1A 1_555 1_555
O2A C13A 1_555 1_555
O3A C25A 1_555 1_555
C1A C2A 1_555 1_555
C2A C37 1_555 1_555
C3A C2A 1_555 1_555
H1A C3A 1_555 1_555
C4A C3A 1_555 1_555
C5A C4A 1_555 1_555
H2A C5A 1_555 1_555
C6A C1A 1_555 1_555
C7A C4A 1_555 1_555
C8A C7A 1_555 1_555
H3A C8A 1_555 1_555
H4A C8A 1_555 1_555
H5A C8A 1_555 1_555
C9A C7A 1_555 1_555
H6A C9A 1_555 1_555
H7A C9A 1_555 1_555
H8A C9A 1_555 1_555
C10A C7A 1_555 1_555
H9A C10A 1_555 1_555
H10A C10A 1_555 1_555
H11A C10A 1_555 1_555
C11A O1A 1_555 1_555
H12A C11A 1_555 1_555
H13A C11A 1_555 1_555
H14A C11A 1_555 1_555
C12A C6A 1_555 1_555
H15A C12A 1_555 1_555
C13A C14A 1_555 1_555
C14A C12A 1_555 1_555
C15A C14A 1_555 1_555
H16A C15A 1_555 1_555
C16A C15A 1_555 1_555
C17A C16A 1_555 1_555
H17A C17A 1_555 1_555
C18A C13A 1_555 1_555
C19A C16A 1_555 1_555
C20A C19A 1_555 1_555
H18A C20A 1_555 1_555
H19A C20A 1_555 1_555
H20A C20A 1_555 1_555
C21A C19A 1_555 1_555
H21A C21A 1_555 1_555
H22A C21A 1_555 1_555
H23A C21A 1_555 1_555
C22A C19A 1_555 1_555
H24A C22A 1_555 1_555
H25A C22A 1_555 1_555
H26A C22A 1_555 1_555
C23A O2A 1_555 1_555
H27A C23A 1_555 1_555
H28A C23A 1_555 1_555
H29A C23A 1_555 1_555
C24A C18A 1_555 1_555
H30A C24A 1_555 1_555
H31A C24A 1_555 1_555
C25A C26A 1_555 1_555
C26A C24A 1_555 1_555
C27A C12A 1_555 1_555
H32A C27A 1_555 1_555
H33A C27A 1_555 1_555
C28A C26A 1_555 1_555
H34A C28A 1_555 1_555
C29A C28A 1_555 1_555
C30A C29A 1_555 1_555
H35A C30A 1_555 1_555
C31A C25A 1_555 1_555
C32A C29A 1_555 1_555
C33A C32A 1_555 1_555
H36A C33A 1_555 1_555
H37A C33A 1_555 1_555
H38A C33A 1_555 1_555
C34A C32A 1_555 1_555
H39A C34A 1_555 1_555
H40A C34A 1_555 1_555
H41A C34A 1_555 1_555
C35A C32A 1_555 1_555
H42A C35A 1_555 1_555
H43A C35A 1_555 1_555
H44A C35A 1_555 1_555
C36A O3A 1_555 1_555
H45A C36A 1_555 1_555
H46A C36A 1_555 1_555
H47A C36A 1_555 1_555
C37A C2 1_555 1_555
H48A C37A 1_555 1_555
H49A C37A 1_555 1_555
C38A C27A 1_555 1_555
H50A C38A 1_555 1_555
H51A C38A 1_555 1_555
H52A C38A 1_555 1_555
C5 C6 1_555 1_555
C17 C18 1_555 1_555
C30 C31 1_555 1_555
C5A C6A 1_555 1_555
C17A C18A 1_555 1_555
C30A C31A 1_555 1_555
C31A C37A 1_555 1_555

#END
