
#######################################################################
#
#                 Cambridge Crystallographic Data Centre
#                                CCDC 
#
#######################################################################
#
# If this CIF has been generated from an entry in the Cambridge 
# Structural Database, then it will include bibliographic, chemical, 
# crystal, experimental, refinement or atomic coordinate data resulting 
# from the CCDC's data processing and validation procedures.
#
#######################################################################

data_VOWREG
_chemical_formula_moiety         'C24 H13 Cl1 O5'
_chemical_name_systematic        
3-(4-Chlorophenyl)-2-(2-hydroxybenzoyl)-4H-furo[3,2-c]chromen-4-one
_symmetry_cell_setting           monoclinic
_symmetry_space_group_name_H-M   'P 21/c'
_symmetry_Int_Tables_number      14
_space_group_name_Hall           '-P 2ybc'
loop_
_symmetry_equiv_pos_site_id
_symmetry_equiv_pos_as_xyz
1 x,y,z
2 -x,1/2+y,1/2-z
3 -x,-y,-z
4 x,1/2-y,1/2+z
_cell_length_a                   11.644(3)
_cell_length_b                   14.685(2)
_cell_length_c                   11.1346(19)
_cell_angle_alpha                90
_cell_angle_beta                 91.878(12)
_cell_angle_gamma                90
_cell_volume                     1902.91
_exptl_crystal_colour            yellow
_exptl_crystal_description       Block
_cell_formula_units_Z            4
loop_
_atom_site_label
_atom_site_type_symbol
_atom_site_fract_x
_atom_site_fract_y
_atom_site_fract_z
Cl1 Cl 0.72251(11) -0.16818(6) 1.15886(9)
O1 O 0.7961(2) 0.35350(15) 0.91856(18)
O2 O 0.5855(2) 0.39835(16) 1.1951(2)
O3 O 0.8625(3) 0.13546(18) 0.8122(2)
O4 O 0.5922(3) 0.25161(18) 1.2406(2)
C1 C 0.7319(4) -0.0537(2) 1.1201(3)
C2 C 0.8847(3) 0.2160(2) 0.8382(3)
C3 C 0.6836(3) 0.4658(2) 1.0265(3)
O5 O 0.9907(3) 0.14527(19) 0.6313(2)
H1 H 0.9481 0.1204 0.6785
C4 C 0.9766(3) 0.2653(2) 0.7790(3)
C5 C 0.7234(3) 0.3759(2) 1.0053(3)
C6 C 0.7451(3) 0.1273(2) 1.0555(3)
C7 C 0.8135(3) 0.2600(2) 0.9274(3)
C8 C 0.6324(3) -0.0049(2) 1.0994(3)
H2 H 0.5611 -0.0326 1.1070
C9 C 0.7512(3) 0.2238(2) 1.0190(3)
C10 C 0.6945(3) 0.3006(2) 1.0704(3)
C11 C 0.5843(3) 0.6309(3) 1.0850(3)
H3 H 0.5507 0.6864 1.1038
C12 C 1.0233(3) 0.3473(3) 0.8234(3)
H4 H 0.9951 0.3724 0.8933
C13 C 0.5630(3) 0.5555(3) 1.1540(3)
H5 H 0.5161 0.5598 1.2197
C14 C 1.0241(3) 0.2269(3) 0.6758(3)
C15 C 0.7051(3) 0.5438(2) 0.9582(3)
H6 H 0.7530 0.5405 0.8931
C16 C 0.8435(3) 0.0771(2) 1.0786(3)
H7 H 0.9150 0.1045 1.0715
C17 C 0.6123(3) 0.4728(2) 1.1245(3)
C18 C 0.6224(3) 0.3102(2) 1.1723(3)
C19 C 1.1072(3) 0.2744(3) 0.6145(3)
H8 H 1.1335 0.2520 0.5422
C20 C 0.8373(3) -0.0136(2) 1.1123(3)
H9 H 0.9040 -0.0467 1.1293
C21 C 0.6397(3) 0.0855(3) 1.0671(3)
H10 H 0.5727 0.1188 1.0529
C22 C 0.6553(3) 0.6251(2) 0.9878(3)
H11 H 0.6692 0.6767 0.9422
C23 C 1.1097(3) 0.3911(3) 0.7655(3)
H12 H 1.1407 0.4450 0.7964
C24 C 1.1502(4) 0.3542(3) 0.6607(4)
H13 H 1.2079 0.3843 0.6208
loop_
_geom_bond_atom_site_label_1
_geom_bond_atom_site_label_2
_geom_bond_site_symmetry_1
_geom_bond_site_symmetry_2
Cl1 C1 1_555 1_555
O1 C5 1_555 1_555
O2 C17 1_555 1_555
O3 C2 1_555 1_555
O4 C18 1_555 1_555
C1 C8 1_555 1_555
C2 C4 1_555 1_555
C3 C5 1_555 1_555
O5 H1 1_555 1_555
C4 C12 1_555 1_555
C5 C10 1_555 1_555
C6 C9 1_555 1_555
C7 O1 1_555 1_555
C8 H2 1_555 1_555
C9 C7 1_555 1_555
C10 C9 1_555 1_555
C11 H3 1_555 1_555
C12 H4 1_555 1_555
C13 C11 1_555 1_555
H5 C13 1_555 1_555
C14 O5 1_555 1_555
C15 C3 1_555 1_555
H6 C15 1_555 1_555
C16 C6 1_555 1_555
H7 C16 1_555 1_555
C17 C3 1_555 1_555
C18 O2 1_555 1_555
C19 C14 1_555 1_555
H8 C19 1_555 1_555
C20 C1 1_555 1_555
H9 C20 1_555 1_555
C21 C6 1_555 1_555
H10 C21 1_555 1_555
C22 C11 1_555 1_555
H11 C22 1_555 1_555
C23 C12 1_555 1_555
H12 C23 1_555 1_555
C24 C19 1_555 1_555
H13 C24 1_555 1_555
C2 C7 1_555 1_555
C4 C14 1_555 1_555
C8 C21 1_555 1_555
C10 C18 1_555 1_555
C13 C17 1_555 1_555
C15 C22 1_555 1_555
C16 C20 1_555 1_555
C23 C24 1_555 1_555

#END
