
#######################################################################
#
#                 Cambridge Crystallographic Data Centre
#                                CCDC 
#
#######################################################################
#
# If this CIF has been generated from an entry in the Cambridge 
# Structural Database, then it will include bibliographic, chemical, 
# crystal, experimental, refinement or atomic coordinate data resulting 
# from the CCDC's data processing and validation procedures.
#
#######################################################################

data_VOWRIK
_chemical_formula_moiety         'C27 H17 N1 O5'
_chemical_name_systematic        
4-(2-(2-Hydroxy-5-methylbenzoyl)-8-methyl-4-oxo-4H-furo[3,2-c]chromen-3-yl)benzonitrile
_symmetry_cell_setting           orthorhombic
_symmetry_space_group_name_H-M   'P b c a'
_symmetry_Int_Tables_number      61
_space_group_name_Hall           '-P 2ac 2ab'
loop_
_symmetry_equiv_pos_site_id
_symmetry_equiv_pos_as_xyz
1 x,y,z
2 1/2-x,-y,1/2+z
3 -x,1/2+y,1/2-z
4 1/2+x,1/2-y,-z
5 -x,-y,-z
6 1/2+x,y,1/2-z
7 x,1/2-y,1/2+z
8 1/2-x,1/2+y,z
_cell_length_a                   17.409(3)
_cell_length_b                   11.222(2)
_cell_length_c                   21.848(4)
_cell_angle_alpha                90
_cell_angle_beta                 90
_cell_angle_gamma                90
_cell_volume                     4268.31
_exptl_crystal_colour            yellow
_exptl_crystal_description       block
_cell_formula_units_Z            8
loop_
_atom_site_label
_atom_site_type_symbol
_atom_site_fract_x
_atom_site_fract_y
_atom_site_fract_z
O1 O 0.80511(7) 0.96260(12) 0.88896(6)
O2 O 0.79486(8) 1.26719(14) 0.78837(7)
C1 C 0.92288(10) 1.03953(18) 0.86638(9)
C2 C 0.86354(11) 1.11310(18) 0.83985(9)
C3 C 0.72170(11) 1.10469(19) 0.83475(9)
C4 C 1.00706(10) 1.05545(18) 0.86043(9)
C5 C 0.78706(12) 0.7689(2) 0.97235(10)
H1 H 0.7616 0.8350 0.9566
O3 O 0.98173(9) 0.64828(16) 0.98820(9)
H2 H 1.0011 0.7047 0.9700
O4 O 0.92199(9) 1.27416(15) 0.78647(9)
C6 C 0.88434(10) 0.95061(18) 0.89642(9)
O5 O 0.98522(8) 0.84838(18) 0.93833(10)
C7 C 0.79513(11) 1.06170(19) 0.85428(9)
C8 C 1.04284(12) 1.1569(2) 0.88160(10)
H3 H 1.0139 1.2163 0.9002
C9 C 0.86693(11) 0.76175(18) 0.96514(9)
C10 C 0.86635(12) 1.21987(19) 0.80384(10)
C11 C 0.72600(12) 1.2106(2) 0.80090(10)
C12 C 0.91423(11) 0.85262(19) 0.93393(10)
C13 C 0.90488(13) 0.66151(19) 0.98955(10)
C14 C 1.05139(12) 0.9688(2) 0.83187(11)
H4 H 1.0279 0.9003 0.8170
C15 C 0.65947(13) 1.2622(2) 0.77818(11)
H5 H 0.6616 1.3330 0.7561
C16 C 0.65045(11) 1.0520(2) 0.84536(10)
H6 H 0.6478 0.9820 0.8681
C17 C 0.58382(12) 1.1016(3) 0.82284(11)
C18 C 1.16460(12) 1.0838(2) 0.84738(10)
C19 C 1.12982(12) 0.9828(2) 0.82524(11)
H7 H 1.1588 0.9242 0.8059
C20 C 0.74433(13) 0.6820(2) 1.00188(10)
C21 C 0.86181(16) 0.5720(2) 1.01746(12)
H8 H 0.8864 0.5044 1.0324
C22 C 0.59024(14) 1.2068(3) 0.78896(11)
H9 H 0.5458 1.2407 0.7730
C23 C 0.78400(16) 0.5823(2) 1.02310(11)
H10 H 0.7566 0.5210 1.0417
C24 C 1.12115(13) 1.1713(2) 0.87550(10)
H11 H 1.1447 1.2399 0.8903
C25 C 0.65922(14) 0.6951(3) 1.01120(13)
H12 H 0.6496 0.7321 1.0501
H13 H 0.6355 0.6179 1.0103
H14 H 0.6382 0.7436 0.9791
C26 C 1.24660(14) 1.0995(3) 0.84004(12)
C27 C 0.50671(13) 1.0439(3) 0.83324(14)
H15 H 0.5080 0.9990 0.8706
H16 H 0.4952 0.9917 0.7997
H17 H 0.4679 1.1044 0.8361
N1 N 1.31115(13) 1.1107(4) 0.83437(15)
loop_
_geom_bond_atom_site_label_1
_geom_bond_atom_site_label_2
_geom_bond_site_symmetry_1
_geom_bond_site_symmetry_2
O1 C6 1_555 1_555
O2 C10 1_555 1_555
C1 C2 1_555 1_555
C2 C7 1_555 1_555
C3 C7 1_555 1_555
C4 C1 1_555 1_555
C5 H1 1_555 1_555
O3 H2 1_555 1_555
O4 C10 1_555 1_555
C6 C1 1_555 1_555
O5 C12 1_555 1_555
C7 O1 1_555 1_555
C8 C4 1_555 1_555
H3 C8 1_555 1_555
C9 C5 1_555 1_555
C10 C2 1_555 1_555
C11 O2 1_555 1_555
C12 C6 1_555 1_555
C13 O3 1_555 1_555
C14 C4 1_555 1_555
H4 C14 1_555 1_555
C15 C11 1_555 1_555
H5 C15 1_555 1_555
C16 C3 1_555 1_555
H6 C16 1_555 1_555
C17 C16 1_555 1_555
C18 C19 1_555 1_555
C19 C14 1_555 1_555
H7 C19 1_555 1_555
C20 C5 1_555 1_555
C21 C13 1_555 1_555
H8 C21 1_555 1_555
C22 C15 1_555 1_555
H9 C22 1_555 1_555
C23 C20 1_555 1_555
H10 C23 1_555 1_555
C24 C8 1_555 1_555
H11 C24 1_555 1_555
C25 C20 1_555 1_555
H12 C25 1_555 1_555
H13 C25 1_555 1_555
H14 C25 1_555 1_555
C26 C18 1_555 1_555
C27 C17 1_555 1_555
H15 C27 1_555 1_555
H16 C27 1_555 1_555
H17 C27 1_555 1_555
N1 C26 1_555 1_555
C3 C11 1_555 1_555
C9 C12 1_555 1_555
C9 C13 1_555 1_555
C17 C22 1_555 1_555
C18 C24 1_555 1_555
C21 C23 1_555 1_555

#END
