
#######################################################################
#
#                 Cambridge Crystallographic Data Centre
#                                CCDC 
#
#######################################################################
#
# If this CIF has been generated from an entry in the Cambridge 
# Structural Database, then it will include bibliographic, chemical, 
# crystal, experimental, refinement or atomic coordinate data resulting 
# from the CCDC's data processing and validation procedures.
#
#######################################################################

data_VOXVUB
_chemical_formula_moiety         'C17 H18 N4 O2'
_chemical_name_systematic        
5-((2,3-Dimethylphenyl)hydrazono)-1-ethyl-4-methyl-2,6-dioxo-1,2,5,6-tetrahydropyridine-3-carbonitrile
_symmetry_cell_setting           triclinic
_symmetry_space_group_name_H-M   'P -1'
_symmetry_Int_Tables_number      2
_space_group_name_Hall           '-P 1'
loop_
_symmetry_equiv_pos_site_id
_symmetry_equiv_pos_as_xyz
1 x,y,z
2 -x,-y,-z
_cell_length_a                   8.0716(9)
_cell_length_b                   9.9236(12)
_cell_length_c                   11.1322(13)
_cell_angle_alpha                65.8720(10)
_cell_angle_beta                 80.149(2)
_cell_angle_gamma                74.023(2)
_cell_volume                     780.6
_exptl_crystal_colour            red
_exptl_crystal_description       plate
_cell_formula_units_Z            2
loop_
_atom_site_label
_atom_site_type_symbol
_atom_site_fract_x
_atom_site_fract_y
_atom_site_fract_z
C1 C 0.11605(19) 1.12408(17) 0.83740(15)
C2 C 0.10281(19) 1.11196(17) 0.71832(15)
C3 C -0.0011(2) 1.23355(18) 0.62492(15)
C4 C -0.0893(2) 1.35987(18) 0.65307(16)
H1 H -0.1583 1.4406 0.5908
C5 C -0.0762(2) 1.36749(18) 0.77229(16)
H2 H -0.1373 1.4524 0.7898
C6 C 0.0268(2) 1.25011(18) 0.86510(15)
H3 H 0.0364 1.2552 0.9451
C7 C 0.1976(2) 0.97132(19) 0.69305(17)
H4 H 0.3142 0.9427 0.7179
H5 H 0.1983 0.9913 0.6010
H6 H 0.1406 0.8903 0.7441
C8 C -0.0179(3) 1.2312(2) 0.49308(16)
H7 H -0.0931 1.3240 0.4421
H8 H -0.0651 1.1470 0.5062
H9 H 0.0939 1.2211 0.4470
C9 C 0.35857(19) 0.88816(17) 1.12023(14)
C10 C 0.4375(2) 0.74883(18) 1.09669(15)
C11 C 0.5678(2) 0.63592(18) 1.30879(15)
C12 C 0.4887(2) 0.77843(18) 1.32762(14)
C13 C 0.38772(19) 0.89949(17) 1.23936(14)
C14 C 0.6033(2) 0.48554(18) 1.17180(16)
H10 H 0.5216 0.4714 1.1258
H11 H 0.6163 0.4019 1.2569
C15 C 0.7746(3) 0.4823(2) 1.0939(2)
H12 H 0.7648 0.5696 1.0126
H13 H 0.8089 0.3919 1.0751
H14 H 0.8595 0.4832 1.1441
C16 C 0.5246(2) 0.77948(19) 1.44921(15)
C17 C 0.3077(2) 1.04324(19) 1.26175(16)
H15 H 0.3420 1.0342 1.3437
H16 H 0.1842 1.0613 1.2651
H17 H 0.3457 1.1263 1.1908
N1 N 0.22527(17) 1.00207(15) 0.92833(12)
N2 N 0.25670(16) 1.00771(14) 1.03726(12)
N3 N 0.53322(17) 0.62966(14) 1.19227(12)
N4 N 0.5545(2) 0.78227(19) 1.54457(14)
O1 O 0.65771(17) 0.52893(14) 1.38772(12)
O2 O 0.42073(16) 0.73605(13) 0.99353(11)
H18 H 0.285(3) 0.911(2) 0.9154(19)
loop_
_geom_bond_atom_site_label_1
_geom_bond_atom_site_label_2
_geom_bond_site_symmetry_1
_geom_bond_site_symmetry_2
C1 C2 1_555 1_555
C2 C3 1_555 1_555
C3 C4 1_555 1_555
C4 H1 1_555 1_555
C5 C4 1_555 1_555
H2 C5 1_555 1_555
C6 C1 1_555 1_555
H3 C6 1_555 1_555
C7 C2 1_555 1_555
H4 C7 1_555 1_555
H5 C7 1_555 1_555
H6 C7 1_555 1_555
C8 C3 1_555 1_555
H7 C8 1_555 1_555
H8 C8 1_555 1_555
H9 C8 1_555 1_555
C9 C10 1_555 1_555
C10 N3 1_555 1_555
C11 C12 1_555 1_555
C12 C13 1_555 1_555
C13 C9 1_555 1_555
C14 H10 1_555 1_555
H11 C14 1_555 1_555
C15 C14 1_555 1_555
H12 C15 1_555 1_555
H13 C15 1_555 1_555
H14 C15 1_555 1_555
C16 C12 1_555 1_555
C17 C13 1_555 1_555
H15 C17 1_555 1_555
H16 C17 1_555 1_555
H17 C17 1_555 1_555
N1 C1 1_555 1_555
N2 C9 1_555 1_555
N3 C11 1_555 1_555
N4 C16 1_555 1_555
O1 C11 1_555 1_555
O2 C10 1_555 1_555
H18 N1 1_555 1_555
C5 C6 1_555 1_555
C14 N3 1_555 1_555
N1 N2 1_555 1_555

#END
