
#######################################################################
#
#                 Cambridge Crystallographic Data Centre
#                                CCDC 
#
#######################################################################
#
# If this CIF has been generated from an entry in the Cambridge 
# Structural Database, then it will include bibliographic, chemical, 
# crystal, experimental, refinement or atomic coordinate data resulting 
# from the CCDC's data processing and validation procedures.
#
#######################################################################

data_VOXWAI
_chemical_formula_moiety         'C17 H18 N4 O2,C16 H16 N4 O2'
_chemical_name_systematic        
'5-((2,3-Dimethylphenyl)hydrazono)-1-ethyl-4-methyl-2,6-dioxo-1,2,5,6-tetrahydropyridine-3-carbonitrile 5-((2,3-dimethylphenyl)hydrazono)-1,4-dimethyl-2,6-dioxo-1,2,5,6-tetrahydropyridine-3-carbonitrile'
_symmetry_cell_setting           triclinic
_symmetry_space_group_name_H-M   'P -1'
_symmetry_Int_Tables_number      2
_space_group_name_Hall           '-P 1'
loop_
_symmetry_equiv_pos_site_id
_symmetry_equiv_pos_as_xyz
1 x,y,z
2 -x,-y,-z
_cell_length_a                   7.811(2)
_cell_length_b                   12.550(4)
_cell_length_c                   16.146(5)
_cell_angle_alpha                94.579(5)
_cell_angle_beta                 91.539(4)
_cell_angle_gamma                98.774(5)
_cell_volume                     1558.02
_exptl_crystal_colour            red
_exptl_crystal_description       rod
_cell_formula_units_Z            2
loop_
_atom_site_label
_atom_site_type_symbol
_atom_site_fract_x
_atom_site_fract_y
_atom_site_fract_z
C1 C 0.1602(3) 1.1114(2) 0.07075(17)
C2 C 0.1259(3) 1.1360(2) 0.15448(17)
C3 C 0.0647(4) 1.2336(2) 0.17594(19)
C4 C 0.0408(4) 1.3011(2) 0.1141(2)
H1 H 0.0009 1.3660 0.1281
C5 C 0.0748(4) 1.2742(2) 0.0322(2)
H2 H 0.0563 1.3207 -0.0080
C6 C 0.1358(4) 1.1794(2) 0.00949(19)
H3 H 0.1601 1.1614 -0.0455
C7 C 0.1526(4) 1.0590(2) 0.21885(19)
H4 H 0.1209 1.0880 0.2721
H5 H 0.2723 1.0498 0.2216
H6 H 0.0817 0.9904 0.2039
C8 C 0.0265(5) 1.2672(3) 0.2644(2)
H7 H -0.0556 1.2117 0.2852
H8 H -0.0209 1.3335 0.2662
H9 H 0.1317 1.2778 0.2982
C9 C 0.3272(3) 0.8968(2) -0.04412(17)
C10 C 0.3518(4) 0.8200(2) 0.01682(18)
C11 C 0.4418(4) 0.6994(3) -0.09447(19)
C12 C 0.4219(4) 0.7794(2) -0.15218(17)
C13 C 0.3683(3) 0.8752(2) -0.12961(17)
C14 C 0.4387(6) 0.6485(3) 0.0489(2)
H10 H 0.5297 0.6086 0.0304
H11 H 0.4759 0.6870 0.1024
C15 C 0.2805(7) 0.5733(4) 0.0578(3)
H12 H 0.1945 0.6118 0.0821
H13 H 0.3042 0.5188 0.0931
H14 H 0.2383 0.5397 0.0042
C16 C 0.4617(4) 0.7501(3) -0.2365(2)
C17 C 0.3481(4) 0.9571(3) -0.18980(18)
H15 H 0.3719 0.9291 -0.2446
H16 H 0.4279 1.0222 -0.1741
H17 H 0.2317 0.9729 -0.1893
H18 H 0.234(4) 0.965(3) 0.092(2)
N1 N 0.2248(3) 1.01372(18) 0.05058(15)
N2 N 0.2688(3) 0.98921(18) -0.02519(14)
N3 N 0.4110(3) 0.7262(2) -0.01127(15)
N4 N 0.4948(4) 0.7269(3) -0.30360(19)
O1 O 0.3211(3) 0.83649(17) 0.09108(12)
O2 O 0.4825(4) 0.61104(19) -0.11593(15)
C18 C 0.3014(4) 0.5705(2) 0.43246(18)
C19 C 0.2863(4) 0.6803(2) 0.43896(19)
C20 C 0.3315(5) 0.7388(3) 0.3701(2)
C21 C 0.3888(6) 0.6864(4) 0.2997(2)
H19 H 0.4191 0.7255 0.2544
C22 C 0.4022(6) 0.5777(3) 0.2951(2)
H20 H 0.4400 0.5444 0.2469
C23 C 0.3595(5) 0.5187(3) 0.3617(2)
H21 H 0.3692 0.4456 0.3596
C24 C 0.2247(5) 0.7322(3) 0.5166(2)
H22 H 0.1206 0.6891 0.5328
H23 H 0.2014 0.8032 0.5069
H24 H 0.3125 0.7378 0.5602
C25 C 0.3226(6) 0.8588(3) 0.3719(3)
H25 H 0.3482 0.8834 0.3181
H26 H 0.4056 0.8976 0.4127
H27 H 0.2082 0.8713 0.3860
C26 C 0.2159(4) 0.3546(2) 0.56499(19)
C27 C 0.1671(5) 0.4058(3) 0.6431(2)
C28 C 0.1451(5) 0.2324(3) 0.7041(2)
C29 C 0.1822(4) 0.1830(2) 0.6231(2)
C30 C 0.2191(4) 0.2403(2) 0.55589(19)
C31 C 0.0997(10) 0.3994(4) 0.7949(3)
H28 H 0.2063 0.4391 0.8193
H29 H 0.0533 0.3457 0.8309
H30 H 0.0180 0.4481 0.7876
C32 C 0.1776(5) 0.0690(3) 0.6183(2)
C33 C 0.2594(5) 0.1867(3) 0.4745(2)
H31 H 0.3063 0.1221 0.4836
H32 H 0.3427 0.2351 0.4473
H33 H 0.1553 0.1685 0.4401
H34 H 0.222(4) 0.539(3) 0.552(2)
N5 N 0.2565(3) 0.5119(2) 0.50187(17)
N6 N 0.2564(3) 0.4082(2) 0.49856(16)
N7 N 0.1347(5) 0.3425(2) 0.70850(19)
N8 N 0.1712(6) -0.0225(3) 0.6129(2)
O3 O 0.1546(4) 0.50291(19) 0.65228(16)
O4 O 0.1247(5) 0.1821(2) 0.76561(17)
loop_
_geom_bond_atom_site_label_1
_geom_bond_atom_site_label_2
_geom_bond_site_symmetry_1
_geom_bond_site_symmetry_2
C1 C2 1_555 1_555
C2 C3 1_555 1_555
C3 C4 1_555 1_555
C4 H1 1_555 1_555
C5 C4 1_555 1_555
H2 C5 1_555 1_555
C6 C1 1_555 1_555
H3 C6 1_555 1_555
C7 C2 1_555 1_555
H4 C7 1_555 1_555
H5 C7 1_555 1_555
H6 C7 1_555 1_555
C8 C3 1_555 1_555
H7 C8 1_555 1_555
H8 C8 1_555 1_555
H9 C8 1_555 1_555
C9 C10 1_555 1_555
C10 N3 1_555 1_555
C11 C12 1_555 1_555
C12 C13 1_555 1_555
C13 C9 1_555 1_555
C14 H10 1_555 1_555
H11 C14 1_555 1_555
C15 C14 1_555 1_555
H12 C15 1_555 1_555
H13 C15 1_555 1_555
H14 C15 1_555 1_555
C16 C12 1_555 1_555
C17 C13 1_555 1_555
H15 C17 1_555 1_555
H16 C17 1_555 1_555
H17 C17 1_555 1_555
H18 N1 1_555 1_555
N1 C1 1_555 1_555
N2 C9 1_555 1_555
N3 C11 1_555 1_555
N4 C16 1_555 1_555
O1 C10 1_555 1_555
O2 C11 1_555 1_555
C18 C19 1_555 1_555
C19 C20 1_555 1_555
C20 C21 1_555 1_555
C21 H19 1_555 1_555
C22 C21 1_555 1_555
H20 C22 1_555 1_555
C23 C18 1_555 1_555
H21 C23 1_555 1_555
C24 C19 1_555 1_555
H22 C24 1_555 1_555
H23 C24 1_555 1_555
H24 C24 1_555 1_555
C25 C20 1_555 1_555
H25 C25 1_555 1_555
H26 C25 1_555 1_555
H27 C25 1_555 1_555
C26 C27 1_555 1_555
C27 N7 1_555 1_555
C28 C29 1_555 1_555
C29 C30 1_555 1_555
C30 C26 1_555 1_555
C31 H28 1_555 1_555
H29 C31 1_555 1_555
H30 C31 1_555 1_555
C32 C29 1_555 1_555
C33 C30 1_555 1_555
H31 C33 1_555 1_555
H32 C33 1_555 1_555
H33 C33 1_555 1_555
H34 N5 1_555 1_555
N5 C18 1_555 1_555
N6 C26 1_555 1_555
N7 C28 1_555 1_555
N8 C32 1_555 1_555
O3 C27 1_555 1_555
O4 C28 1_555 1_555
C5 C6 1_555 1_555
C14 N3 1_555 1_555
N1 N2 1_555 1_555
C22 C23 1_555 1_555
C31 N7 1_555 1_555
N5 N6 1_555 1_555

#END
