
#######################################################################
#
#                 Cambridge Crystallographic Data Centre
#                                CCDC 
#
#######################################################################
#
# If this CIF has been generated from an entry in the Cambridge 
# Structural Database, then it will include bibliographic, chemical, 
# crystal, experimental, refinement or atomic coordinate data resulting 
# from the CCDC's data processing and validation procedures.
#
#######################################################################

data_VOYSOR10
_chemical_formula_moiety         'C18 H20 O6,H2 O1'
_chemical_name_systematic        
'sym-trans-6,13-Hydroxy-dibenzo-14-crown-4 monohydrate clathrate'
_symmetry_cell_setting           orthorhombic
_symmetry_space_group_name_H-M   'C m c 21'
_symmetry_Int_Tables_number      36
_space_group_name_Hall           'C 2n -2'
loop_
_symmetry_equiv_pos_site_id
_symmetry_equiv_pos_as_xyz
1 x,y,z
2 -x,-y,1/2+z
3 -x,y,z
4 x,-y,1/2+z
5 1/2+x,1/2+y,z
6 1/2-x,1/2-y,1/2+z
7 1/2-x,1/2+y,z
8 1/2+x,1/2-y,1/2+z
_cell_length_a                   16.528(7)
_cell_length_b                   12.306(3)
_cell_length_c                   8.540(3)
_cell_angle_alpha                90
_cell_angle_beta                 90
_cell_angle_gamma                90
_cell_volume                     1736.98
_cell_formula_units_Z            4
loop_
_atom_site_label
_atom_site_type_symbol
_atom_site_fract_x
_atom_site_fract_y
_atom_site_fract_z
C1 C 0.0000 0.3890(3) 1.0295
C2 C 0.0767(2) 0.3251(2) 1.0374(4)
C3 C 0.1567(2) 0.2016(2) 0.8859(4)
C4 C 0.2248(2) 0.2123(3) 0.9772(5)
C5 C 0.2906(2) 0.1447(3) 0.9563(5)
C6 C 0.2882(2) 0.0683(3) 0.8422(4)
C7 C 0.2207(2) 0.0552(3) 0.7494(4)
C8 C 0.1555(2) 0.1232(2) 0.7701(4)
C9 C 0.0775(2) 0.0346(2) 0.5715(4)
C10 C 0.0000 0.0488(3) 0.4810(5)
O1 O 0.0887(1) 0.2646(2) 0.8987(3)
O2 O 0.0854(1) 0.1208(1) 0.6842(3)
O3 O 0.0000 0.4582(2) 1.1611(4)
O4 O 0.0000 0.1438(2) 0.3895(4)
H1 H 0.0000 0.4462 0.9366
H2 H 0.0744 0.2762 1.1249
H3 H 0.1212 0.3744 1.0507
H4 H 0.2264 0.2672 1.0570
H5 H 0.3374 0.1522 1.0218
H6 H 0.3345 0.0226 0.8258
H7 H 0.2195 -0.0009 0.6713
H8 H 0.1227 0.0359 0.5009
H9 H 0.0763 -0.0337 0.6257
H10 H 0.0000 -0.0087 0.3971
H11 H 0.0000 0.5491 1.1372
H12 H 0.0000 0.1860 0.4659
C2B C -0.0767(2) 0.3251(2) 1.0374(4)
C9B C -0.0775(2) 0.0346(2) 0.5715(4)
O1B O -0.0887(1) 0.2646(2) 0.8987(3)
H2B H -0.0744 0.2762 1.1249
H3B H -0.1212 0.3744 1.0507
O2B O -0.0854(1) 0.1208(1) 0.6842(3)
H8B H -0.1227 0.0359 0.5009
H9B H -0.0763 -0.0337 0.6257
C3B C -0.1567(2) 0.2016(2) 0.8859(4)
C8B C -0.1555(2) 0.1232(2) 0.7701(4)
C4B C -0.2248(2) 0.2123(3) 0.9772(5)
C7B C -0.2207(2) 0.0552(3) 0.7494(4)
C5B C -0.2906(2) 0.1447(3) 0.9563(5)
H4B H -0.2264 0.2672 1.0570
C6B C -0.2882(2) 0.0683(3) 0.8422(4)
H7B H -0.2195 -0.0009 0.6713
H5B H -0.3374 0.1522 1.0218
H6B H -0.3345 0.0226 0.8258
O5 O 0.0000 0.3258(2) 0.6116(4)
H13 H 0.0363 0.2827 0.6777
H13B H -0.0363 0.2827 0.6777
loop_
_geom_bond_atom_site_label_1
_geom_bond_atom_site_label_2
_geom_bond_site_symmetry_1
_geom_bond_site_symmetry_2
C1 C2 1_555 1_555
C2 O1 1_555 1_555
C3 C4 1_555 1_555
C4 C5 1_555 1_555
C5 C6 1_555 1_555
C6 C7 1_555 1_555
C7 C8 1_555 1_555
C8 C3 1_555 1_555
C9 C10 1_555 1_555
C10 O4 1_555 1_555
O1 C3 1_555 1_555
O2 C8 1_555 1_555
O3 C1 1_555 1_555
O4 H12 1_555 1_555
O5 H13 1_555 1_555
H1 C1 1_555 1_555
H2 C2 1_555 1_555
H3 C2 1_555 1_555
H4 C4 1_555 1_555
H5 C5 1_555 1_555
H6 C6 1_555 1_555
H7 C7 1_555 1_555
H8 C9 1_555 1_555
H9 C9 1_555 1_555
H10 C10 1_555 1_555
H11 O3 1_555 1_555
C2B C1 1_555 1_555
C9B C10 1_555 1_555
O1B C2B 1_555 1_555
H2B C2B 1_555 1_555
H3B C2B 1_555 1_555
O2B C9B 1_555 1_555
H8B C9B 1_555 1_555
H9B C9B 1_555 1_555
C3B O1B 1_555 1_555
C8B O2B 1_555 1_555
C4B C3B 1_555 1_555
C7B C8B 1_555 1_555
C5B C4B 1_555 1_555
H4B C4B 1_555 1_555
C6B C7B 1_555 1_555
H7B C7B 1_555 1_555
H5B C5B 1_555 1_555
H6B C6B 1_555 1_555
H13B O5 1_555 1_555
C9 O2 1_555 1_555
C3B C8B 1_555 1_555
C5B C6B 1_555 1_555

#END
