
#######################################################################
#
#                 Cambridge Crystallographic Data Centre
#                                CCDC 
#
#######################################################################
#
# If this CIF has been generated from an entry in the Cambridge 
# Structural Database, then it will include bibliographic, chemical, 
# crystal, experimental, refinement or atomic coordinate data resulting 
# from the CCDC's data processing and validation procedures.
#
#######################################################################

data_VOYSIL10
_chemical_formula_moiety         'C18 H20 O6,H2 O1'
_chemical_name_systematic        
'sym-cis-6,13-Hydroxy-dibenzo-14-crown-4 monohydrate clathrate'
_symmetry_cell_setting           orthorhombic
_symmetry_space_group_name_H-M   'C m c 21'
_symmetry_Int_Tables_number      36
_space_group_name_Hall           'C 2n -2'
loop_
_symmetry_equiv_pos_site_id
_symmetry_equiv_pos_as_xyz
1 x,y,z
2 -x,-y,1/2+z
3 -x,y,z
4 x,-y,1/2+z
5 1/2+x,1/2+y,z
6 1/2-x,1/2-y,1/2+z
7 1/2-x,1/2+y,z
8 1/2+x,1/2-y,1/2+z
_cell_length_a                   16.437(3)
_cell_length_b                   11.997(4)
_cell_length_c                   8.640(3)
_cell_angle_alpha                90
_cell_angle_beta                 90
_cell_angle_gamma                90
_cell_volume                     1703.76
_cell_formula_units_Z            4
loop_
_atom_site_label
_atom_site_type_symbol
_atom_site_fract_x
_atom_site_fract_y
_atom_site_fract_z
C1 C 0.0000 0.3901(2) 1.0295
C2 C 0.0783(2) 0.3240(2) 1.0283(3)
C3 C 0.1562(1) 0.2024(2) 0.8685(3)
C4 C 0.2248(1) 0.2108(2) 0.9617(3)
C5 C 0.2910(1) 0.1408(2) 0.9351(3)
C6 C 0.2885(1) 0.0631(2) 0.8210(3)
C7 C 0.2203(1) 0.0542(2) 0.7269(3)
C8 C 0.1546(1) 0.1246(2) 0.7492(3)
C9 C 0.0777(1) 0.0402(2) 0.5458(3)
C10 C 0.0000 0.0582(2) 0.4563(4)
O1 O 0.0874(1) 0.2647(1) 0.8862(2)
O2 O 0.0847(1) 0.1238(1) 0.6634(2)
O3 O 0.0000 0.4701(2) 0.9084(3)
O4 O -0.0005(5) 0.1599(2) 0.3761(3)
H1 H 0.0000 0.4224 1.1332
H2 H 0.0770 0.2714 1.1121
H3 H 0.1237 0.3736 1.0416
H4 H 0.2263 0.2644 1.0443
H5 H 0.3388 0.1477 0.9983
H6 H 0.3342 0.0145 0.8052
H7 H 0.2188 -0.0011 0.6465
H8 H 0.1324 0.0451 0.4769
H9 H 0.0767 -0.0323 0.5932
H10 H 0.0000 -0.0066 0.3791
H11 H 0.0000 0.5367 0.9519
H12 H -0.0017 0.2182 0.4471
C9B C -0.0777(1) 0.0402(2) 0.5458(3)
O2B O -0.0847(1) 0.1238(1) 0.6634(2)
C8B C -0.1546(1) 0.1246(2) 0.7492(3)
C3B C -0.1562(1) 0.2024(2) 0.8685(3)
C4B C -0.2248(1) 0.2108(2) 0.9617(3)
C5B C -0.2910(1) 0.1408(2) 0.9351(3)
C6B C -0.2885(1) 0.0631(2) 0.8210(3)
C7B C -0.2203(1) 0.0542(2) 0.7269(3)
H7B H -0.2188 -0.0011 0.6465
H6B H -0.3342 0.0145 0.8052
H5B H -0.3388 0.1477 0.9983
H4B H -0.2263 0.2644 1.0443
O1B O -0.0874(1) 0.2647(1) 0.8862(2)
C2B C -0.0783(2) 0.3240(2) 1.0283(3)
H2B H -0.0770 0.2714 1.1121
H3B H -0.1237 0.3736 1.0416
H8B H -0.1324 0.0451 0.4769
H9B H -0.0767 -0.0323 0.5932
O5 O 0.0000 0.3545(2) 0.6008(3)
H13 H 0.0405 0.3067 0.6691
H13B H -0.0405 0.3067 0.6691
H14? H 0.0399 0.3591 0.6522
loop_
_geom_bond_atom_site_label_1
_geom_bond_atom_site_label_2
_geom_bond_site_symmetry_1
_geom_bond_site_symmetry_2
C1 C2 1_555 1_555
C2 O1 1_555 1_555
C3 C4 1_555 1_555
C4 C5 1_555 1_555
C5 C6 1_555 1_555
C6 C7 1_555 1_555
C7 C8 1_555 1_555
C8 C3 1_555 1_555
C9 C10 1_555 1_555
C10 O4 1_555 1_555
O1 C3 1_555 1_555
O2 C8 1_555 1_555
O3 C1 1_555 1_555
O4 H12 1_555 1_555
O5 H13 1_555 1_555
H1 C1 1_555 1_555
H2 C2 1_555 1_555
H3 C2 1_555 1_555
H4 C4 1_555 1_555
H5 C5 1_555 1_555
H6 C6 1_555 1_555
H7 C7 1_555 1_555
H8 C9 1_555 1_555
H9 C9 1_555 1_555
H10 C10 1_555 1_555
H11 O3 1_555 1_555
C9B C10 1_555 1_555
O2B C9B 1_555 1_555
C8B O2B 1_555 1_555
C3B C8B 1_555 1_555
C4B C3B 1_555 1_555
C5B C4B 1_555 1_555
C6B C5B 1_555 1_555
C7B C8B 1_555 1_555
H7B C7B 1_555 1_555
H6B C6B 1_555 1_555
H5B C5B 1_555 1_555
H4B C4B 1_555 1_555
O1B C3B 1_555 1_555
C2B C1 1_555 1_555
H2B C2B 1_555 1_555
H3B C2B 1_555 1_555
H8B C9B 1_555 1_555
H9B C9B 1_555 1_555
H13B O5 1_555 1_555
C9 O2 1_555 1_555
C6B C7B 1_555 1_555
O1B C2B 1_555 1_555

#END
