
#######################################################################
#
#                 Cambridge Crystallographic Data Centre
#                                CCDC 
#
#######################################################################
#
# If this CIF has been generated from an entry in the Cambridge 
# Structural Database, then it will include bibliographic, chemical, 
# crystal, experimental, refinement or atomic coordinate data resulting 
# from the CCDC's data processing and validation procedures.
#
#######################################################################

data_VOYSIL
_chemical_formula_moiety         'C18 H20 O6,H2 O1'
_chemical_name_systematic        
'sym-cis-6,13-Hydroxy-dibenzo-14-crown-4 monohydrate clathrate'
_symmetry_cell_setting           orthorhombic
_symmetry_space_group_name_H-M   'C m c 21'
_symmetry_Int_Tables_number      36
_space_group_name_Hall           'C 2n -2'
loop_
_symmetry_equiv_pos_site_id
_symmetry_equiv_pos_as_xyz
1 x,y,z
2 1/2+x,1/2+y,z
3 -x,y,z
4 1/2-x,1/2+y,z
5 x,-y,1/2+z
6 1/2+x,1/2-y,1/2+z
7 -x,-y,1/2+z
8 1/2-x,1/2-y,1/2+z
_cell_length_a                   16.421(3)
_cell_length_b                   11.978(1)
_cell_length_c                   8.624(1)
_cell_angle_alpha                90
_cell_angle_beta                 90
_cell_angle_gamma                90
_cell_volume                     1696.26
_cell_formula_units_Z            4
loop_
_atom_site_label
_atom_site_type_symbol
_atom_site_fract_x
_atom_site_fract_y
_atom_site_fract_z
O1 O 0.4127(2) 0.2352(2) 0.5799(4)
O2 O 0.4154(2) 0.3760(2) 0.3574(3)
O3 O 0.5000 0.0312(3) 0.6033(5)
O4 O 0.5000 0.3392(4) 0.0691(6)
C1 C 0.4223(3) 0.1768(3) 0.7230(5)
C2 C 0.5000 0.1109(5) 0.7222(7)
C3 C 0.4227(3) 0.4591(4) 0.2394(5)
C4 C 0.5000 0.4415(6) 0.1518(8)
C5 C 0.3436(2) 0.2974(3) 0.5631(5)
C6 C 0.3455(2) 0.3755(3) 0.4425(5)
C7 C 0.2796(3) 0.4454(4) 0.4209(6)
C8 C 0.2117(3) 0.4360(4) 0.5140(6)
C9 C 0.2094(3) 0.3584(5) 0.6286(7)
C10 C 0.2756(3) 0.2896(4) 0.6552(7)
C1B C 0.5777(3) 0.1768(3) 0.7230(5)
C3B C 0.5773(3) 0.4591(4) 0.2394(5)
O1B O 0.5873(2) 0.2352(2) 0.5799(4)
O2B O 0.5846(2) 0.3760(2) 0.3574(3)
C5B C 0.6564(2) 0.2974(3) 0.5631(5)
C6B C 0.6545(2) 0.3755(3) 0.4425(5)
C10B C 0.7244(3) 0.2896(4) 0.6552(7)
C7B C 0.7204(3) 0.4454(4) 0.4209(6)
C9B C 0.7906(3) 0.3584(5) 0.6286(7)
C8B C 0.7883(3) 0.4360(4) 0.5140(6)
O5 O 0.5000 0.1564(4) 0.296
loop_
_geom_bond_atom_site_label_1
_geom_bond_atom_site_label_2
_geom_bond_site_symmetry_1
_geom_bond_site_symmetry_2
O1 C1 1_555 1_555
O2 C3 1_555 1_555
O3 C2 1_555 1_555
O4 C4 1_555 1_555
C1 C2 1_555 1_555
C2 C1B 1_555 1_555
C3 C4 1_555 1_555
C4 C3B 1_555 1_555
C5 O1 1_555 1_555
C6 O2 1_555 1_555
C7 C6 1_555 1_555
C8 C7 1_555 1_555
C9 C8 1_555 1_555
C10 C5 1_555 1_555
C1B O1B 1_555 1_555
C3B O2B 1_555 1_555
O1B C5B 1_555 1_555
O2B C6B 1_555 1_555
C5B C6B 1_555 1_555
C6B C7B 1_555 1_555
C10B C5B 1_555 1_555
C7B C8B 1_555 1_555
C9B C10B 1_555 1_555
C8B C9B 1_555 1_555
C5 C6 1_555 1_555
C9 C10 1_555 1_555

#END
