
#######################################################################
#
#                 Cambridge Crystallographic Data Centre
#                                CCDC 
#
#######################################################################
#
# If this CIF has been generated from an entry in the Cambridge 
# Structural Database, then it will include bibliographic, chemical, 
# crystal, experimental, refinement or atomic coordinate data resulting 
# from the CCDC's data processing and validation procedures.
#
#######################################################################

data_VOZBET
_chemical_formula_moiety         'C14 H24 N2 2+,2(C2 F6 N1 O4 S2 1-)'
_chemical_name_systematic        
'1-(3-(1-methylpiperidinium-1-yl)propyl)pyridinium bis(bis((trifluoromethyl)sulfonyl)azanide)'
_symmetry_cell_setting           triclinic
_symmetry_space_group_name_H-M   'P -1'
_symmetry_Int_Tables_number      2
_space_group_name_Hall           '-P 1'
loop_
_symmetry_equiv_pos_site_id
_symmetry_equiv_pos_as_xyz
1 x,y,z
2 -x,-y,-z
_cell_length_a                   9.5217(8)
_cell_length_b                   10.5129(11)
_cell_length_c                   17.0523(14)
_cell_angle_alpha                89.759(8)
_cell_angle_beta                 80.657(7)
_cell_angle_gamma                68.007(9)
_cell_volume                     1558.75
_exptl_crystal_description       block
_cell_formula_units_Z            2
loop_
_atom_site_label
_atom_site_type_symbol
_atom_site_fract_x
_atom_site_fract_y
_atom_site_fract_z
S1 S 0.91521(15) 0.78498(13) 0.17512(8)
S2 S 0.66528(15) 1.00605(15) 0.25660(9)
O1 O 0.8453(5) 0.6927(4) 0.2025(3)
O2 O 1.0750(5) 0.7449(5) 0.1736(3)
O3 O 0.5664(4) 0.9336(5) 0.2529(3)
O4 O 0.6096(6) 1.1473(5) 0.2437(4)
F1 F 0.7536(5) 0.8509(5) 0.0627(3)
F2 F 0.9649(6) 0.6821(5) 0.0317(3)
F3 F 0.9601(6) 0.8857(6) 0.0390(3)
F4 F 0.7864(7) 1.0592(8) 0.3717(3)
F5 F 0.5651(7) 1.0540(9) 0.4076(3)
F6 F 0.7604(8) 0.8674(8) 0.3750(3)
N1 N 0.8328(5) 0.9375(4) 0.2094(3)
C1 C 0.8964(8) 0.8021(8) 0.0714(4)
C2 C 0.6952(10) 0.9996(12) 0.3589(5)
N2 N 0.9784(4) 0.2908(4) 0.1642(2)
N3 N 0.4601(5) 0.5979(4) 0.3041(2)
C3 C 0.9933(6) 0.1591(5) 0.1590(3)
H1 H 0.9105 0.1376 0.1504
C4 C 1.1276(7) 0.0578(6) 0.1660(4)
H2 H 1.1375 -0.0334 0.1621
C5 C 1.2483(6) 0.0886(6) 0.1789(3)
H3 H 1.3414 0.0188 0.1835
C6 C 1.2316(6) 0.2232(7) 0.1851(3)
H4 H 1.3132 0.2460 0.1944
C7 C 1.0943(6) 0.3238(5) 0.1776(3)
H5 H 1.0820 0.4156 0.1819
C8 C 0.8285(6) 0.4005(5) 0.1575(3)
H6 H 0.7790 0.3689 0.1207
H7 H 0.8448 0.4810 0.1370
C9 C 0.7261(5) 0.4377(5) 0.2389(3)
H8 H 0.7043 0.3589 0.2581
H9 H 0.7777 0.4644 0.2766
C10 C 0.5785(5) 0.5549(5) 0.2316(3)
H10 H 0.6031 0.6335 0.2149
H11 H 0.5348 0.5290 0.1897
C11 C 0.5235(7) 0.6423(8) 0.3702(4)
H12 H 0.5999 0.5616 0.3874
H13 H 0.5754 0.7020 0.3489
C12 C 0.4084(10) 0.7143(10) 0.4397(5)
H14 H 0.4578 0.7445 0.4772
H15 H 0.3663 0.6511 0.4659
C13 C 0.2822(10) 0.8343(8) 0.4184(5)
H16 H 0.3215 0.9034 0.3988
H17 H 0.2046 0.8740 0.4654
C14 C 0.2103(8) 0.7925(9) 0.3549(5)
H18 H 0.1597 0.7322 0.3768
H19 H 0.1332 0.8736 0.3385
C15 C 0.3272(7) 0.7219(8) 0.2860(4)
H20 H 0.3677 0.7869 0.2609
H21 H 0.2782 0.6929 0.2478
C16 C 0.4092(8) 0.4849(8) 0.3265(5)
H22 H 0.3891 0.4473 0.2803
H23 H 0.3170 0.5191 0.3657
H24 H 0.4882 0.4146 0.3483
S3? S 0.42266(18) 0.41641(14) 0.03223(8)
O5? O 0.4057(7) 0.4239(5) 0.1119(3)
O6? O 0.3009(12) 0.4352(10) 0.0004(7)
F7? F 0.6833(6) 0.2140(5) 0.0228(5)
F8? F 0.5847(11) 0.2253(6) -0.0758(4)
F9? F 0.5032(5) 0.1532(4) 0.0253(3)
N4? N 0.5515(11) 0.5010(9) 0.0337(5)
C17? C 0.5559(9) 0.2452(7) -0.0002(4)
S4? S -0.0270(2) 0.4429(2) 0.43382(10)
O7? O 0.0139(10) 0.4893(8) 0.3645(6)
O8? O -0.1696(8) 0.4427(10) 0.4465(6)
F10? F 0.2327(8) 0.2450(7) 0.4146(9)
F11? F 0.0753(14) 0.1982(7) 0.3743(5)
F12? F 0.0783(9) 0.2029(7) 0.4891(4)
N5? N 0.0644(10) 0.5283(10) 0.4702(5)
C18? C 0.0949(13) 0.2639(11) 0.4312(6)
loop_
_geom_bond_atom_site_label_1
_geom_bond_atom_site_label_2
_geom_bond_site_symmetry_1
_geom_bond_site_symmetry_2
S1 O1 1_555 1_555
S2 O3 1_555 1_555
O2 S1 1_555 1_555
O4 S2 1_555 1_555
F1 C1 1_555 1_555
F2 C1 1_555 1_555
F3 C1 1_555 1_555
F4 C2 1_555 1_555
F5 C2 1_555 1_555
F6 C2 1_555 1_555
N1 S1 1_555 1_555
C1 S1 1_555 1_555
C2 S2 1_555 1_555
N2 C3 1_555 1_555
N3 C10 1_555 1_555
C3 H1 1_555 1_555
C4 C3 1_555 1_555
H2 C4 1_555 1_555
C5 C4 1_555 1_555
H3 C5 1_555 1_555
C6 C5 1_555 1_555
H4 C6 1_555 1_555
C7 N2 1_555 1_555
H5 C7 1_555 1_555
C8 N2 1_555 1_555
H6 C8 1_555 1_555
H7 C8 1_555 1_555
C9 C8 1_555 1_555
H8 C9 1_555 1_555
H9 C9 1_555 1_555
C10 C9 1_555 1_555
H10 C10 1_555 1_555
H11 C10 1_555 1_555
C11 N3 1_555 1_555
H12 C11 1_555 1_555
H13 C11 1_555 1_555
C12 C11 1_555 1_555
H14 C12 1_555 1_555
H15 C12 1_555 1_555
C13 C12 1_555 1_555
H16 C13 1_555 1_555
H17 C13 1_555 1_555
C14 C13 1_555 1_555
H18 C14 1_555 1_555
H19 C14 1_555 1_555
C15 N3 1_555 1_555
H20 C15 1_555 1_555
H21 C15 1_555 1_555
C16 N3 1_555 1_555
H22 C16 1_555 1_555
H23 C16 1_555 1_555
H24 C16 1_555 1_555
S2 N1 1_555 1_555
C6 C7 1_555 1_555
C14 C15 1_555 1_555

#END
