
#######################################################################
#
#                 Cambridge Crystallographic Data Centre
#                                CCDC 
#
#######################################################################
#
# If this CIF has been generated from an entry in the Cambridge 
# Structural Database, then it will include bibliographic, chemical, 
# crystal, experimental, refinement or atomic coordinate data resulting 
# from the CCDC's data processing and validation procedures.
#
#######################################################################

data_VOZGOG
_chemical_formula_moiety         'C9 H19 N2 O1 P1 S1'
_chemical_name_systematic        
(+)-(1R,3R,5S)-3-Oxo-3-methylthio-1,8,8-trimethyl-2,4,3-diazaphosphabicyclo(3.2.1)octane
_chemical_properties_biological  'strong herbicidal activity'
_symmetry_cell_setting           monoclinic
_symmetry_space_group_name_H-M   'P 21'
_symmetry_Int_Tables_number      4
_space_group_name_Hall           'P 2yb'
loop_
_symmetry_equiv_pos_site_id
_symmetry_equiv_pos_as_xyz
1 x,y,z
2 -x,1/2+y,-z
_cell_length_a                   7.5637(2)
_cell_length_b                   7.704(2)
_cell_length_c                   10.258(1)
_cell_angle_alpha                90
_cell_angle_beta                 98.66(2)
_cell_angle_gamma                90
_cell_volume                     590.927
_exptl_crystal_colour            colorless
_cell_formula_units_Z            2
loop_
_atom_site_label
_atom_site_type_symbol
_atom_site_fract_x
_atom_site_fract_y
_atom_site_fract_z
S1 S 0.7014(4) 0.331 0.1030(3)
P1 P 0.8616(3) 0.333(1) -0.0425(3)
O1 O 1.0447(8) 0.323(2) 0.0353(7)
N1 N 0.816(1) 0.168(1) -0.140(1)
N2 N 0.804(1) 0.500(1) -0.144(1)
C1 C 0.472(1) 0.331(4) 0.015(1)
C2 C 0.788(2) 0.002(2) -0.342(1)
C3 C 0.827(2) 0.180(2) -0.287(1)
C4 C 1.029(1) 0.235(2) -0.293(1)
C5 C 1.022(2) 0.443(2) -0.297(2)
C6 C 0.831(1) 0.484(2) -0.278(1)
C7 C 0.725(1) 0.347(2) -0.351(1)
C8 C 0.526(1) 0.348(4) -0.330(1)
C9 C 0.733(2) 0.354(3) -0.500(1)
loop_
_geom_bond_atom_site_label_1
_geom_bond_atom_site_label_2
_geom_bond_site_symmetry_1
_geom_bond_site_symmetry_2
S1 P1 1_555 1_555
P1 O1 1_555 1_555
N1 P1 1_555 1_555
N2 P1 1_555 1_555
C1 S1 1_555 1_555
C2 C3 1_555 1_555
C3 N1 1_555 1_555
C4 C3 1_555 1_555
C5 C4 1_555 1_555
C6 N2 1_555 1_555
C7 C3 1_555 1_555
C8 C7 1_555 1_555
C9 C7 1_555 1_555
C5 C6 1_555 1_555
C6 C7 1_555 1_555

#END
