
#######################################################################
#
#                 Cambridge Crystallographic Data Centre
#                                CCDC 
#
#######################################################################
#
# If this CIF has been generated from an entry in the Cambridge 
# Structural Database, then it will include bibliographic, chemical, 
# crystal, experimental, refinement or atomic coordinate data resulting 
# from the CCDC's data processing and validation procedures.
#
#######################################################################

data_VOZRAF
_chemical_formula_moiety         'C33 H22 N2 S1'
_chemical_name_systematic        
2-(4-(10H-phenothiazin-10-yl)phenyl)-3,3-diphenylacrylonitrile
_symmetry_cell_setting           monoclinic
_symmetry_space_group_name_H-M   'P 21/n'
_symmetry_Int_Tables_number      14
_space_group_name_Hall           '-P 2yn'
loop_
_symmetry_equiv_pos_site_id
_symmetry_equiv_pos_as_xyz
1 x,y,z
2 1/2-x,1/2+y,1/2-z
3 -x,-y,-z
4 1/2+x,1/2-y,1/2+z
_cell_length_a                   14.1216(6)
_cell_length_b                   9.9608(6)
_cell_length_c                   19.0308(8)
_cell_angle_alpha                90
_cell_angle_beta                 107.315(4)
_cell_angle_gamma                90
_cell_volume                     2555.61
_exptl_crystal_colour            'yellowish green'
_exptl_crystal_description       block
_cell_formula_units_Z            4
loop_
_atom_site_label
_atom_site_type_symbol
_atom_site_fract_x
_atom_site_fract_y
_atom_site_fract_z
S1 S 0.12546(5) 0.01484(11) 0.19233(4)
N1 N -0.05775(12) -0.1309(2) 0.09749(9)
N2 N -0.42508(15) -0.6480(2) -0.02852(11)
C1 C -0.0778(4) 0.2910(4) 0.0988(2)
H1 H -0.0823 0.3841 0.0998
C2 C -0.1572(3) 0.2154(3) 0.06017(15)
H2 H -0.2162 0.2576 0.0347
C3 C 0.2118(2) -0.3395(5) 0.13229(18)
H3 H 0.2716 -0.3849 0.1396
C4 C 0.2115(2) -0.2118(5) 0.15900(15)
H4 H 0.2712 -0.1715 0.1845
C5 C 0.1246(2) -0.4004(4) 0.09498(15)
H5 H 0.1244 -0.4880 0.0781
C6 C -0.46965(19) 0.0680(3) -0.17630(19)
H6 H -0.4675 0.1580 -0.1886
C7 C 0.0089(3) 0.2265(4) 0.13609(17)
H7 H 0.0636 0.2771 0.1616
C8 C -0.47696(19) -0.0285(3) -0.22769(15)
H8 H -0.4785 -0.0047 -0.2753
C9 C -0.40880(13) -0.4034(2) -0.06742(10)
C10 C -0.4654(2) 0.0319(3) -0.10576(18)
H9 H -0.4602 0.0980 -0.0703
C11 C -0.65028(19) -0.5916(3) -0.24781(12)
H10 H -0.6454 -0.6669 -0.2754
C12 C 0.03632(18) -0.3300(3) 0.08262(13)
H11 H -0.0227 -0.3709 0.0561
C13 C -0.74834(17) -0.4339(3) -0.20856(14)
H12 H -0.8104 -0.4026 -0.2085
C14 C 0.12244(17) -0.1406(3) 0.14854(11)
C15 C -0.46882(19) -0.1012(3) -0.08709(13)
H13 H -0.4657 -0.1245 -0.0391
C16 C -0.1507(2) 0.0777(3) 0.05858(12)
H14 H -0.2053 0.0282 0.0315
C17 C -0.48213(16) -0.1618(3) -0.20992(11)
H15 H -0.4893 -0.2271 -0.2461
C18 C 0.01612(18) 0.0883(3) 0.13636(12)
C19 C -0.74213(19) -0.5428(3) -0.24968(13)
H16 H -0.7994 -0.5841 -0.2789
C20 C 0.03356(15) -0.2007(3) 0.10857(10)
C21 C -0.66465(15) -0.3689(2) -0.16695(11)
H17 H -0.6704 -0.2928 -0.1402
C22 C -0.28803(15) -0.3329(2) 0.05199(10)
H18 H -0.3269 -0.3771 0.0765
C23 C -0.06404(17) 0.0109(3) 0.09663(11)
C24 C -0.48136(13) -0.3442(2) -0.12092(9)
C25 C -0.56548(17) -0.5292(2) -0.20508(11)
H19 H -0.5037 -0.5635 -0.2035
C26 C -0.20417(15) -0.2653(2) 0.09189(10)
H20 H -0.1872 -0.2625 0.1430
C27 C -0.25473(14) -0.2725(2) -0.05957(10)
H21 H -0.2713 -0.2746 -0.1107
C28 C -0.14581(14) -0.2021(2) 0.05587(10)
C29 C -0.31521(13) -0.3357(2) -0.02433(9)
C30 C -0.17098(14) -0.2070(2) -0.01983(10)
H22 H -0.1306 -0.1654 -0.0440
C31 C -0.57139(14) -0.4168(2) -0.16481(9)
C32 C -0.41986(15) -0.5399(3) -0.04704(10)
C33 C -0.47675(13) -0.1997(2) -0.13903(10)
loop_
_geom_bond_atom_site_label_1
_geom_bond_atom_site_label_2
_geom_bond_site_symmetry_1
_geom_bond_site_symmetry_2
S1 C14 1_555 1_555
N1 C20 1_555 1_555
N2 C32 1_555 1_555
C1 H1 1_555 1_555
C2 C1 1_555 1_555
H2 C2 1_555 1_555
C3 H3 1_555 1_555
C4 C3 1_555 1_555
H4 C4 1_555 1_555
C5 C3 1_555 1_555
H5 C5 1_555 1_555
C6 H6 1_555 1_555
C7 C1 1_555 1_555
H7 C7 1_555 1_555
C8 C6 1_555 1_555
H8 C8 1_555 1_555
C9 C24 1_555 1_555
C10 C6 1_555 1_555
H9 C10 1_555 1_555
C11 H10 1_555 1_555
C12 C5 1_555 1_555
H11 C12 1_555 1_555
C13 H12 1_555 1_555
C14 C4 1_555 1_555
C15 C10 1_555 1_555
H13 C15 1_555 1_555
C16 C2 1_555 1_555
H14 C16 1_555 1_555
C17 C8 1_555 1_555
H15 C17 1_555 1_555
C18 S1 1_555 1_555
C19 C11 1_555 1_555
H16 C19 1_555 1_555
C20 C12 1_555 1_555
C21 C13 1_555 1_555
H17 C21 1_555 1_555
C22 H18 1_555 1_555
C23 N1 1_555 1_555
C24 C31 1_555 1_555
C25 C11 1_555 1_555
H19 C25 1_555 1_555
C26 C22 1_555 1_555
H20 C26 1_555 1_555
C27 H21 1_555 1_555
C28 N1 1_555 1_555
C29 C9 1_555 1_555
C30 C27 1_555 1_555
H22 C30 1_555 1_555
C31 C21 1_555 1_555
C32 C9 1_555 1_555
C33 C15 1_555 1_555
C7 C18 1_555 1_555
C13 C19 1_555 1_555
C14 C20 1_555 1_555
C16 C23 1_555 1_555
C17 C33 1_555 1_555
C18 C23 1_555 1_555
C22 C29 1_555 1_555
C24 C33 1_555 1_555
C25 C31 1_555 1_555
C26 C28 1_555 1_555
C27 C29 1_555 1_555
C28 C30 1_555 1_555

#END
