
#######################################################################
#
#                 Cambridge Crystallographic Data Centre
#                                CCDC 
#
#######################################################################
#
# If this CIF has been generated from an entry in the Cambridge 
# Structural Database, then it will include bibliographic, chemical, 
# crystal, experimental, refinement or atomic coordinate data resulting 
# from the CCDC's data processing and validation procedures.
#
#######################################################################

data_VUBBOJ
_chemical_formula_moiety         'C16 H44 N6 6+,6(Cl1 1-),2(H2 O1)'
_chemical_name_systematic        
'1,4,7,12,15,18-Hexa-azoniacyclodocosane hexachloride dihydrate'
_symmetry_cell_setting           monoclinic
_symmetry_space_group_name_H-M   'P 21/n'
_symmetry_Int_Tables_number      14
_space_group_name_Hall           '-P 2yn'
loop_
_symmetry_equiv_pos_site_id
_symmetry_equiv_pos_as_xyz
1 x,y,z
2 1/2-x,1/2+y,1/2-z
3 -x,-y,-z
4 1/2+x,1/2-y,1/2+z
_cell_length_a                   17.553(4)
_cell_length_b                   7.089(2)
_cell_length_c                   11.235(3)
_cell_angle_alpha                90
_cell_angle_beta                 91.79(2)
_cell_angle_gamma                90
_cell_volume                     1397.33
_cell_formula_units_Z            2
loop_
_atom_site_label
_atom_site_type_symbol
_atom_site_fract_x
_atom_site_fract_y
_atom_site_fract_z
Cl1 Cl -0.22237(5) 0.4617(1) 1.17631(7)
Cl2 Cl -0.12068(5) 0.0885(1) 0.67536(8)
Cl3 Cl 0.03349(4) 0.7272(1) 0.97544(7)
O1 O -0.1954(2) 0.7321(4) 0.5334(3)
N1 N 0.1202(2) 0.9061(4) 0.7653(2)
N2 N -0.0879(2) 0.4738(4) 0.7876(2)
N3 N -0.1413(2) 0.7161(4) 1.0007(2)
C1 C 0.0751(2) 0.8881(5) 0.6500(3)
C2 C 0.0718(2) 0.6879(6) 0.6044(3)
C3 C 0.0300(2) 0.5470(5) 0.6822(3)
C4 C -0.0518(2) 0.6020(5) 0.6998(3)
C5 C -0.1676(2) 0.5207(6) 0.8184(3)
C6 C -0.1786(2) 0.7073(5) 0.8788(3)
C7 C -0.1577(2) 0.8983(5) 1.0621(3)
C8 C 0.1118(2) 1.0942(5) 0.8215(3)
H1 H 0.1725 0.8860 0.7501
H2 H 0.1032 0.8127 0.8188
H3 H 0.0981 0.9649 0.5919
H4 H 0.0246 0.9306 0.6619
H5 H 0.1225 0.6445 0.5969
H6 H 0.0467 0.6894 0.5281
H7 H 0.0555 0.5405 0.7578
H8 H 0.0309 0.4267 0.6451
H9 H -0.0534 0.7276 0.7286
H10 H -0.0792 0.5940 0.6257
H11 H -0.0575 0.4765 0.8590
H12 H -0.0878 0.3500 0.7554
H13 H -0.1852 0.4249 0.8698
H14 H -0.1978 0.5207 0.7466
H15 H -0.1575 0.8033 0.8310
H16 H -0.2317 0.7286 0.8859
H17 H -0.0877 0.7037 0.9934
H18 H -0.1597 0.6151 1.0472
H19 H -0.2105 0.9059 1.0775
H20 H -0.1437 1.0007 1.0128
H21 H 0.0595 1.1161 0.8366
H22 H 0.1297 1.1885 0.7694
C8B C -0.1118(2) 0.9058(5) 1.1785(3)
C7B C 0.1577(2) 1.1017(5) 0.9379(3)
N1B N -0.1202(2) 1.0939(4) 1.2347(2)
H21B H -0.0595 0.8839 1.1634
H22B H -0.1297 0.8115 1.2306
N3B N 0.1413(2) 1.2839(4) 0.9993(2)
H19B H 0.2105 1.0941 0.9225
H20B H 0.1437 0.9993 0.9872
C1B C -0.0751(2) 1.1119(5) 1.3500(3)
H1B H -0.1725 1.1140 1.2499
H2B H -0.1032 1.1873 1.1812
C6B C 0.1786(2) 1.2927(5) 1.1212(3)
H17B H 0.0877 1.2963 1.0066
H18B H 0.1597 1.3849 0.9528
C2B C -0.0718(2) 1.3121(6) 1.3956(3)
H3B H -0.0981 1.0351 1.4081
H4B H -0.0246 1.0694 1.3381
C5B C 0.1676(2) 1.4793(6) 1.1816(3)
H15B H 0.1575 1.1967 1.1690
H16B H 0.2317 1.2714 1.1141
C3B C -0.0300(2) 1.4530(5) 1.3178(3)
H5B H -0.1225 1.3555 1.4031
H6B H -0.0467 1.3106 1.4719
N2B N 0.0879(2) 1.5262(4) 1.2124(2)
H13B H 0.1852 1.5751 1.1302
H14B H 0.1978 1.4793 1.2534
C4B C 0.0518(2) 1.3980(5) 1.3002(3)
H7B H -0.0555 1.4595 1.2422
H8B H -0.0309 1.5733 1.3549
H11B H 0.0575 1.5235 1.1410
H12B H 0.0878 1.6500 1.2446
H9B H 0.0534 1.2724 1.2714
H10B H 0.0792 1.4060 1.3743
loop_
_geom_bond_atom_site_label_1
_geom_bond_atom_site_label_2
_geom_bond_site_symmetry_1
_geom_bond_site_symmetry_2
N1 C1 1_555 1_555
N2 C4 1_555 1_555
N3 C6 1_555 1_555
C1 C2 1_555 1_555
C2 C3 1_555 1_555
C3 C4 1_555 1_555
C4 H9 1_555 1_555
C5 N2 1_555 1_555
C6 C5 1_555 1_555
C7 N3 1_555 1_555
C8 N1 1_555 1_555
H1 N1 1_555 1_555
H2 N1 1_555 1_555
H3 C1 1_555 1_555
H4 C1 1_555 1_555
H5 C2 1_555 1_555
H6 C2 1_555 1_555
H7 C3 1_555 1_555
H8 C3 1_555 1_555
H10 C4 1_555 1_555
H11 N2 1_555 1_555
H12 N2 1_555 1_555
H13 C5 1_555 1_555
H14 C5 1_555 1_555
H15 C6 1_555 1_555
H16 C6 1_555 1_555
H17 N3 1_555 1_555
H18 N3 1_555 1_555
H19 C7 1_555 1_555
H20 C7 1_555 1_555
H21 C8 1_555 1_555
H22 C8 1_555 1_555
C8B C7 1_555 1_555
C7B C8 1_555 1_555
N1B C8B 1_555 1_555
H21B C8B 1_555 1_555
H22B C8B 1_555 1_555
N3B C7B 1_555 1_555
H19B C7B 1_555 1_555
H20B C7B 1_555 1_555
C1B N1B 1_555 1_555
H1B N1B 1_555 1_555
H2B N1B 1_555 1_555
C6B N3B 1_555 1_555
H17B N3B 1_555 1_555
H18B N3B 1_555 1_555
C2B C1B 1_555 1_555
H3B C1B 1_555 1_555
H4B C1B 1_555 1_555
C5B C6B 1_555 1_555
H15B C6B 1_555 1_555
H16B C6B 1_555 1_555
C3B C2B 1_555 1_555
H5B C2B 1_555 1_555
H6B C2B 1_555 1_555
N2B C5B 1_555 1_555
H13B C5B 1_555 1_555
H14B C5B 1_555 1_555
C4B C3B 1_555 1_555
H7B C3B 1_555 1_555
H8B C3B 1_555 1_555
H11B N2B 1_555 1_555
H12B N2B 1_555 1_555
H9B C4B 1_555 1_555
H10B C4B 1_555 1_555
N2B C4B 1_555 1_555

#END
