
#######################################################################
#
#                 Cambridge Crystallographic Data Centre
#                                CCDC 
#
#######################################################################
#
# If this CIF has been generated from an entry in the Cambridge 
# Structural Database, then it will include bibliographic, chemical, 
# crystal, experimental, refinement or atomic coordinate data resulting 
# from the CCDC's data processing and validation procedures.
#
#######################################################################

data_VUCBEC
_chemical_formula_moiety         'C21 H16 Cl1 N3 O2'
_chemical_name_systematic        
(Z)-4-(((2-Chlorophenyl)amino)(furan-2-yl)methylene)-5-methyl-2-phenyl-2,4-dihydro-3H-pyrazol-3-one
_symmetry_cell_setting           monoclinic
_symmetry_space_group_name_H-M   'C 2/c'
_symmetry_Int_Tables_number      15
_space_group_name_Hall           '-C 2yn'
loop_
_symmetry_equiv_pos_site_id
_symmetry_equiv_pos_as_xyz
1 x,y,z
2 -x,y,1/2-z
3 1/2+x,1/2+y,z
4 1/2-x,1/2+y,1/2-z
5 -x,-y,-z
6 x,-y,1/2+z
7 1/2-x,1/2-y,-z
8 1/2+x,1/2-y,1/2+z
_cell_length_a                   17.1008(16)
_cell_length_b                   12.4737(12)
_cell_length_c                   17.9070(17)
_cell_angle_alpha                90
_cell_angle_beta                 111.276(2)
_cell_angle_gamma                90
_cell_volume                     3559.41
_exptl_crystal_colour            yellow
_exptl_crystal_description       block
_cell_formula_units_Z            8
loop_
_atom_site_label
_atom_site_type_symbol
_atom_site_fract_x
_atom_site_fract_y
_atom_site_fract_z
C1 C 0.44525(8) 0.57307(12) 0.57260(8)
C2 C 0.40060(9) 0.51564(12) 0.50340(8)
H1 H 0.4079 0.4420 0.5014
C3 C 0.34516(9) 0.56928(13) 0.43753(9)
H2 H 0.3152 0.5311 0.3914
C4 C 0.33398(10) 0.67869(14) 0.43979(10)
H3 H 0.2970 0.7142 0.3953
C5 C 0.37828(10) 0.73525(13) 0.50892(10)
H4 H 0.3707 0.8089 0.5107
C6 C 0.43372(9) 0.68315(12) 0.57541(10)
H5 H 0.4631 0.7216 0.6216
C7 C 0.51617(9) 0.41344(12) 0.65574(8)
C8 C 0.59225(8) 0.40755(12) 0.72738(8)
C9 C 0.61904(9) 0.51729(12) 0.74541(8)
C10 C 0.69450(9) 0.56344(13) 0.80961(9)
H6 H 0.7004 0.6375 0.7980
H7 H 0.7437 0.5246 0.8116
H8 H 0.6878 0.5578 0.8604
C11 C 0.62715(9) 0.31029(12) 0.75986(8)
C12 C 0.70547(9) 0.30187(12) 0.82951(9)
C13 C 0.73360(9) 0.34085(13) 0.90500(9)
H9 H 0.7052 0.3870 0.9271
C14 C 0.81512(10) 0.29751(14) 0.94399(9)
H10 H 0.8505 0.3098 0.9966
C15 C 0.83107(9) 0.23514(13) 0.88992(9)
H11 H 0.8805 0.1970 0.8997
C16 C 0.60305(9) 0.11363(12) 0.75154(9)
C17 C 0.62669(10) 0.09001(14) 0.83295(10)
H12 H 0.6358 0.1454 0.8699
C18 C 0.63667(10) -0.01516(15) 0.85909(11)
H13 H 0.6530 -0.0300 0.9135
C19 C 0.62263(10) -0.09799(15) 0.80517(13)
H14 H 0.6304 -0.1685 0.8233
C20 C 0.59700(10) -0.07661(14) 0.72421(12)
H15 H 0.5864 -0.1326 0.6876
C21 C 0.58720(9) 0.02863(13) 0.69779(10)
Cl1 Cl 0.55346(3) 0.05471(4) 0.59572(3)
N1 N 0.50433(7) 0.52104(10) 0.63947(7)
N2 N 0.56763(7) 0.58347(10) 0.69457(7)
N3 N 0.59039(8) 0.21931(10) 0.72231(7)
H16 H 0.5546 0.2271 0.6744
O1 O 0.47138(6) 0.33913(8) 0.61635(6)
O2 O 0.76468(6) 0.23556(8) 0.81867(6)
loop_
_geom_bond_atom_site_label_1
_geom_bond_atom_site_label_2
_geom_bond_site_symmetry_1
_geom_bond_site_symmetry_2
C1 C2 1_555 1_555
C2 H1 1_555 1_555
C3 C2 1_555 1_555
H2 C3 1_555 1_555
C4 C3 1_555 1_555
H3 C4 1_555 1_555
C5 C4 1_555 1_555
H4 C5 1_555 1_555
C6 C1 1_555 1_555
H5 C6 1_555 1_555
C7 C8 1_555 1_555
C8 C9 1_555 1_555
C9 C10 1_555 1_555
C10 H6 1_555 1_555
H7 C10 1_555 1_555
H8 C10 1_555 1_555
C11 C8 1_555 1_555
C12 C11 1_555 1_555
C13 C12 1_555 1_555
H9 C13 1_555 1_555
C14 C13 1_555 1_555
H10 C14 1_555 1_555
C15 C14 1_555 1_555
H11 C15 1_555 1_555
C16 C17 1_555 1_555
C17 H12 1_555 1_555
C18 C17 1_555 1_555
H13 C18 1_555 1_555
C19 C18 1_555 1_555
H14 C19 1_555 1_555
C20 C19 1_555 1_555
H15 C20 1_555 1_555
C21 C16 1_555 1_555
Cl1 C21 1_555 1_555
N1 C1 1_555 1_555
N2 C9 1_555 1_555
N3 C11 1_555 1_555
H16 N3 1_555 1_555
O1 C7 1_555 1_555
O2 C12 1_555 1_555
C5 C6 1_555 1_555
C7 N1 1_555 1_555
C15 O2 1_555 1_555
C16 N3 1_555 1_555
C20 C21 1_555 1_555
N1 N2 1_555 1_555

#END
