
#######################################################################
#
#                 Cambridge Crystallographic Data Centre
#                                CCDC 
#
#######################################################################
#
# If this CIF has been generated from an entry in the Cambridge 
# Structural Database, then it will include bibliographic, chemical, 
# crystal, experimental, refinement or atomic coordinate data resulting 
# from the CCDC's data processing and validation procedures.
#
#######################################################################

data_VUCQER
_chemical_name_common            
'C-Propyl-5,11,17,23-tetrakis((cyclohexylammonio)methyl)calix(4)resorcinarene tetrabromide 1,2-dichloroethane ethanol solvate'
_chemical_formula_moiety         
'C68 H104 N4 O8 4+,4(Br1 1-),C2 H4 Cl2,C2 H6 O1'
_chemical_name_systematic        
'2,8,14,20-Tetrapropyl-5,11,17,23-tetrakis((cyclohexylammonio)methyl)-4,6,10,12,16,18,22,24-octahydroxycalix(4)arene tetrabromide 1,2-dichloroethane ethanol solvate'
_symmetry_cell_setting           orthorhombic
_symmetry_space_group_name_H-M   'P b c a'
_symmetry_Int_Tables_number      61
_space_group_name_Hall           '-P 2ac 2ab'
loop_
_symmetry_equiv_pos_site_id
_symmetry_equiv_pos_as_xyz
1 x,y,z
2 1/2-x,-y,1/2+z
3 1/2+x,1/2-y,-z
4 -x,1/2+y,1/2-z
5 -x,-y,-z
6 1/2+x,y,1/2-z
7 1/2-x,1/2+y,z
8 x,1/2-y,1/2+z
_cell_length_a                   23.3371(3)
_cell_length_b                   23.5232(2)
_cell_length_c                   27.0473(3)
_cell_angle_alpha                90
_cell_angle_beta                 90
_cell_angle_gamma                90
_cell_volume                     14848
_cell_formula_units_Z            8
loop_
_atom_site_label
_atom_site_type_symbol
_atom_site_fract_x
_atom_site_fract_y
_atom_site_fract_z
Br1 Br -0.02864(4) 0.26684(3) 0.66340(3)
Br2 Br 0.16498(3) 0.05522(3) 0.67805(2)
Br3 Br 0.31142(3) 0.24310(2) 0.66177(2)
Br4 Br 0.13297(4) 0.40404(4) 0.66753(2)
Cl1 Cl 0.1318(3) 0.2384(2) 0.4964(2)
Cl2 Cl 0.2498(5) 0.1774(5) 0.5257(3)
C1 C 0.1650(6) 0.2605(8) 0.5493(6)
H1 H 0.1903 0.2933 0.5423
H2 H 0.1363 0.2720 0.5743
C2 C 0.2005(6) 0.2093(6) 0.5680(5)
H3 H 0.1734 0.1796 0.5791
H4 H 0.2223 0.2219 0.5974
O1 O 0.08819(19) 0.48019(15) 0.78340(15)
H7 H 0.1230 0.4759 0.7766
O2 O -0.06205(18) 0.34802(16) 0.78186(18)
H8 H -0.0672 0.3128 0.7846
O3 O -0.05274(18) 0.23365(15) 0.77245(17)
H9 H -0.0441 0.2394 0.7427
O4 O 0.07014(18) 0.07344(14) 0.77743(15)
H10 H 0.1050 0.0673 0.7828
O5 O 0.18435(18) 0.04907(13) 0.79210(14)
H11 H 0.1880 0.0458 0.7613
O6 O 0.34367(17) 0.17502(14) 0.78516(14)
H12 H 0.3491 0.2103 0.7845
O7 O 0.33296(17) 0.29020(13) 0.76976(13)
H13 H 0.3267 0.2854 0.7395
O8 O 0.19802(19) 0.44463(14) 0.76407(14)
H14 H 0.1831 0.4332 0.7376
N1 N -0.0078(2) 0.40931(18) 0.69502(17)
H15 H -0.0174 0.3720 0.7008
H16 H 0.0302 0.4103 0.6860
N2 N 0.0313(2) 0.13170(18) 0.68571(17)
H17 H 0.0620 0.1089 0.6934
H18 H 0.0445 0.1685 0.6841
N3 N 0.2931(2) 0.10481(17) 0.69990(15)
H19 H 0.3044 0.1422 0.7014
H20 H 0.2556 0.1039 0.6893
N4 N 0.2716(2) 0.37498(18) 0.67283(16)
H21 H 0.2323 0.3780 0.6743
H22 H 0.2804 0.3373 0.6678
C3 C 0.0141(3) 0.4119(2) 0.78412(19)
C4 C -0.0105(2) 0.3626(2) 0.80314(19)
C5 C 0.0154(2) 0.33113(18) 0.84058(17)
C6 C 0.0685(2) 0.35042(18) 0.85708(16)
H23 H 0.0877 0.3290 0.8818
C7 C 0.0952(2) 0.39935(18) 0.83938(16)
C8 C 0.0665(2) 0.43008(18) 0.80245(17)
C9 C -0.0153(3) 0.4425(2) 0.7419(2)
H24 H -0.0567 0.4467 0.7493
H25 H 0.0013 0.4810 0.7379
C10 C -0.0438(3) 0.4317(2) 0.6527(2)
H26 H -0.0408 0.4741 0.6522
C11 C -0.0185(4) 0.4083(3) 0.6043(2)
H27 H -0.0149 0.3664 0.6067
H28 H 0.0203 0.4243 0.5992
C12 C -0.0570(4) 0.4238(4) 0.5602(3)
H29 H -0.0544 0.4652 0.5541
H30 H -0.0428 0.4041 0.5303
C13 C -0.1186(4) 0.4081(4) 0.5685(3)
H31 H -0.1220 0.3661 0.5698
H32 H -0.1418 0.4217 0.5402
C14 C -0.1423(3) 0.4337(3) 0.6166(3)
H33 H -0.1427 0.4756 0.6142
H34 H -0.1822 0.4205 0.6219
C15 C -0.1054(3) 0.4156(2) 0.6600(2)
H35 H -0.1199 0.4338 0.6905
H36 H -0.1083 0.3739 0.6643
C16 C -0.0127(3) 0.2787(2) 0.8627(2)
H37 H -0.0542 0.2802 0.8534
C17 C -0.0104(3) 0.2795(2) 0.9197(2)
H38 H 0.0301 0.2762 0.9304
H39 H -0.0253 0.3164 0.9317
C18 C -0.0451(5) 0.2314(3) 0.9429(3)
H40 H -0.0864 0.2384 0.9371
H41 H -0.0348 0.1951 0.9267
C19 C -0.0343(11) 0.2268(6) 0.9973(4)
H42 H 0.0039 0.2108 1.0030
H43 H -0.0632 0.2019 1.0123
H44 H -0.0367 0.2646 1.0124
C20 C 0.0116(2) 0.22416(19) 0.84030(19)
C21 C -0.0094(2) 0.20334(19) 0.7952(2)
C22 C 0.0119(3) 0.1532(2) 0.7742(2)
C23 C 0.0545(2) 0.12395(17) 0.79900(18)
C24 C 0.0790(2) 0.14382(18) 0.84329(17)
C25 C 0.0561(2) 0.19407(18) 0.86249(17)
H45 H 0.0718 0.2085 0.8924
C26 C -0.0111(3) 0.1279(2) 0.7267(2)
H46 H -0.0211 0.0875 0.7324
H47 H -0.0465 0.1483 0.7170
C27 C 0.0097(3) 0.1151(2) 0.6356(2)
H48 H -0.0288 0.1330 0.6311
C28 C 0.0487(3) 0.1374(3) 0.5953(2)
H49 H 0.0873 0.1206 0.5994
H50 H 0.0523 0.1791 0.5986
C29 C 0.0263(4) 0.1233(3) 0.5436(2)
H51 H 0.0543 0.1363 0.5185
H52 H -0.0102 0.1436 0.5378
C30 C 0.0170(4) 0.0590(3) 0.5387(3)
H53 H 0.0545 0.0395 0.5396
H54 H -0.0010 0.0508 0.5063
C31 C -0.0215(4) 0.0355(3) 0.5803(3)
H55 H -0.0240 -0.0064 0.5772
H56 H -0.0606 0.0512 0.5767
C32 C 0.0021(3) 0.0509(2) 0.6320(2)
H57 H -0.0249 0.0377 0.6578
H58 H 0.0394 0.0318 0.6373
C33 C 0.1278(3) 0.11241(18) 0.86736(17)
H59 H 0.1226 0.0713 0.8592
C34 C 0.1303(3) 0.1166(2) 0.92396(18)
H60 H 0.1660 0.0983 0.9356
H61 H 0.1320 0.1573 0.9334
C35 C 0.0808(3) 0.0898(3) 0.9495(3)
H62 H 0.0717 0.0531 0.9334
H63 H 0.0468 0.1148 0.9466
C36 C 0.0943(5) 0.0796(6) 1.0047(3)
H64 H 0.1358 0.0764 1.0092
H65 H 0.0758 0.0444 1.0156
H66 H 0.0798 0.1116 1.0243
C37 C 0.1846(2) 0.13062(19) 0.84446(17)
C38 C 0.2113(2) 0.09835(17) 0.80771(17)
C39 C 0.2646(2) 0.11412(18) 0.78832(17)
C40 C 0.2911(2) 0.16393(18) 0.80502(17)
C41 C 0.2649(2) 0.19771(17) 0.84150(17)
C42 C 0.2123(2) 0.18039(18) 0.85961(16)
H67 H 0.1939 0.2036 0.8836
C43 C 0.2966(3) 0.07925(18) 0.7505(2)
H68 H 0.3373 0.0763 0.7604
H69 H 0.2804 0.0403 0.7496
C44 C 0.3304(3) 0.0735(2) 0.66294(19)
H70 H 0.3271 0.0318 0.6696
C45 C 0.3088(3) 0.0848(3) 0.6112(2)
H71 H 0.3110 0.1260 0.6039
H72 H 0.2683 0.0728 0.6084
C46 C 0.3456(4) 0.0517(3) 0.5743(3)
H73 H 0.3413 0.0105 0.5805
H74 H 0.3319 0.0596 0.5403
C47 C 0.4081(4) 0.0679(3) 0.5784(3)
H75 H 0.4130 0.1082 0.5689
H76 H 0.4309 0.0444 0.5553
C48 C 0.4299(4) 0.0591(3) 0.6310(3)
H77 H 0.4698 0.0731 0.6334
H78 H 0.4299 0.0180 0.6388
C49 C 0.3925(3) 0.0907(3) 0.6689(2)
H79 H 0.4056 0.0815 0.7028
H80 H 0.3963 0.1322 0.6640
C50 C 0.2937(2) 0.25142(19) 0.86146(17)
H81 H 0.3350 0.2495 0.8518
C51 C 0.2914(3) 0.2536(2) 0.91815(18)
H82 H 0.2511 0.2588 0.9287
H83 H 0.3135 0.2870 0.9297
C52 C 0.3159(4) 0.1994(5) 0.9432(3)
H84 H 0.3229 0.2082 0.9784
H85 H 0.2859 0.1696 0.9420
C53 C 0.3690(5) 0.1754(5) 0.9223(4)
H86 H 0.3602 0.1551 0.8916
H87 H 0.3860 0.1489 0.9462
H88 H 0.3962 0.2061 0.9154
C54 C 0.2686(2) 0.30387(17) 0.83708(15)
C55 C 0.2884(2) 0.32085(17) 0.79041(16)
C56 C 0.2673(2) 0.36878(18) 0.76661(17)
C57 C 0.2217(2) 0.39868(17) 0.78905(17)
C58 C 0.2009(2) 0.38371(17) 0.83581(16)
C59 C 0.2256(2) 0.33662(17) 0.85842(15)
H89 H 0.2124 0.3262 0.8904
C60 C 0.2961(2) 0.39335(18) 0.72110(17)
H90 H 0.2939 0.4353 0.7230
H91 H 0.3371 0.3827 0.7218
C61 C 0.2931(3) 0.4090(2) 0.62944(19)
H92 H 0.2816 0.4496 0.6341
C62 C 0.2645(4) 0.3866(3) 0.5830(2)
H93 H 0.2223 0.3893 0.5865
H94 H 0.2747 0.3462 0.5782
C63 C 0.2840(4) 0.4213(4) 0.5383(3)
H95 H 0.2710 0.4612 0.5419
H96 H 0.2666 0.4056 0.5079
C64 C 0.3502(5) 0.4196(4) 0.5340(3)
H97 H 0.3624 0.3801 0.5269
H98 H 0.3623 0.4436 0.5058
C65 C 0.3797(4) 0.4399(3) 0.5801(3)
H99 H 0.3717 0.4809 0.5850
H100 H 0.4216 0.4350 0.5765
C66 C 0.3584(3) 0.4061(3) 0.6255(2)
H101 H 0.3706 0.3659 0.6225
H102 H 0.3758 0.4220 0.6559
C67 C 0.1532(2) 0.41850(17) 0.85888(17)
H103 H 0.1587 0.4584 0.8471
C68 C 0.1542(3) 0.4208(2) 0.91549(19)
H104 H 0.1204 0.4425 0.9270
H105 H 0.1506 0.3816 0.9284
C69 C 0.2082(3) 0.4479(3) 0.9374(2)
H106 H 0.2030 0.4522 0.9735
H107 H 0.2410 0.4220 0.9320
C70 C 0.2225(4) 0.5059(3) 0.9152(3)
H108 H 0.2343 0.5011 0.8807
H109 H 0.2538 0.5233 0.9340
H110 H 0.1886 0.5304 0.9167
O9 O 0.1053(3) 0.2278(2) 0.6776(2)
H116 H 0.0843 0.2568 0.6771
C72 C 0.1336(3) 0.2669(3) 0.7570(3)
H117 H 0.1152 0.3032 0.7490
H118 H 0.1673 0.2738 0.7778
H119 H 0.1065 0.2426 0.7747
C73 C 0.1522(4) 0.2375(4) 0.7093(4)
H120 H 0.1809 0.2614 0.6921
H121 H 0.1706 0.2007 0.7174
Cl3? Cl 0.0953(5) 0.2669(5) 0.5260(5)
Cl4? Cl 0.1908(4) 0.1546(4) 0.5282(3)
H5? H 0.1877 0.1983 0.6016
H6? H 0.2416 0.2196 0.5697
H111? H -0.0774 0.2237 0.9201
H112? H -0.0203 0.1973 0.9423
C71? C -0.0695(16) 0.2349(13) 0.9927(8)
H113? H -0.0809 0.2742 0.9996
H114? H -0.0408 0.2228 1.0170
H115? H -0.1031 0.2101 0.9949
loop_
_geom_bond_atom_site_label_1
_geom_bond_atom_site_label_2
_geom_bond_site_symmetry_1
_geom_bond_site_symmetry_2
Cl1 C1 1_555 1_555
Cl2 C2 1_555 1_555
C1 H1 1_555 1_555
H2 C1 1_555 1_555
C2 C1 1_555 1_555
H3 C2 1_555 1_555
H4 C2 1_555 1_555
O1 H7 1_555 1_555
O2 H8 1_555 1_555
O3 H9 1_555 1_555
O4 H10 1_555 1_555
O5 H11 1_555 1_555
O6 H12 1_555 1_555
O7 H13 1_555 1_555
O8 H14 1_555 1_555
N1 H15 1_555 1_555
H16 N1 1_555 1_555
N2 H17 1_555 1_555
H18 N2 1_555 1_555
N3 H19 1_555 1_555
H20 N3 1_555 1_555
N4 H21 1_555 1_555
H22 N4 1_555 1_555
C3 C4 1_555 1_555
C4 O2 1_555 1_555
C5 C4 1_555 1_555
C6 C5 1_555 1_555
H23 C6 1_555 1_555
C7 C6 1_555 1_555
C8 O1 1_555 1_555
C9 N1 1_555 1_555
H24 C9 1_555 1_555
H25 C9 1_555 1_555
C10 N1 1_555 1_555
H26 C10 1_555 1_555
C11 C10 1_555 1_555
H27 C11 1_555 1_555
H28 C11 1_555 1_555
C12 C11 1_555 1_555
H29 C12 1_555 1_555
H30 C12 1_555 1_555
C13 C12 1_555 1_555
H31 C13 1_555 1_555
H32 C13 1_555 1_555
C14 C13 1_555 1_555
H33 C14 1_555 1_555
H34 C14 1_555 1_555
C15 C10 1_555 1_555
H35 C15 1_555 1_555
H36 C15 1_555 1_555
C16 C5 1_555 1_555
H37 C16 1_555 1_555
C17 C16 1_555 1_555
H38 C17 1_555 1_555
H39 C17 1_555 1_555
C18 C17 1_555 1_555
H40 C18 1_555 1_555
H41 C18 1_555 1_555
C19 C18 1_555 1_555
H42 C19 1_555 1_555
H43 C19 1_555 1_555
H44 C19 1_555 1_555
C20 C16 1_555 1_555
C21 O3 1_555 1_555
C22 C21 1_555 1_555
C23 O4 1_555 1_555
C24 C23 1_555 1_555
C25 C20 1_555 1_555
H45 C25 1_555 1_555
C26 N2 1_555 1_555
H46 C26 1_555 1_555
H47 C26 1_555 1_555
C27 N2 1_555 1_555
H48 C27 1_555 1_555
C28 C27 1_555 1_555
H49 C28 1_555 1_555
H50 C28 1_555 1_555
C29 C28 1_555 1_555
H51 C29 1_555 1_555
H52 C29 1_555 1_555
C30 C29 1_555 1_555
H53 C30 1_555 1_555
H54 C30 1_555 1_555
C31 C30 1_555 1_555
H55 C31 1_555 1_555
H56 C31 1_555 1_555
C32 C27 1_555 1_555
H57 C32 1_555 1_555
H58 C32 1_555 1_555
C33 C24 1_555 1_555
H59 C33 1_555 1_555
C34 C33 1_555 1_555
H60 C34 1_555 1_555
H61 C34 1_555 1_555
C35 C34 1_555 1_555
H62 C35 1_555 1_555
H63 C35 1_555 1_555
C36 C35 1_555 1_555
H64 C36 1_555 1_555
H65 C36 1_555 1_555
H66 C36 1_555 1_555
C37 C33 1_555 1_555
C38 O5 1_555 1_555
C39 C38 1_555 1_555
C40 O6 1_555 1_555
C41 C40 1_555 1_555
C42 C37 1_555 1_555
H67 C42 1_555 1_555
C43 N3 1_555 1_555
H68 C43 1_555 1_555
H69 C43 1_555 1_555
C44 N3 1_555 1_555
H70 C44 1_555 1_555
C45 C44 1_555 1_555
H71 C45 1_555 1_555
H72 C45 1_555 1_555
C46 C45 1_555 1_555
H73 C46 1_555 1_555
H74 C46 1_555 1_555
C47 C46 1_555 1_555
H75 C47 1_555 1_555
H76 C47 1_555 1_555
C48 C47 1_555 1_555
H77 C48 1_555 1_555
H78 C48 1_555 1_555
C49 C44 1_555 1_555
H79 C49 1_555 1_555
H80 C49 1_555 1_555
C50 C41 1_555 1_555
H81 C50 1_555 1_555
C51 C50 1_555 1_555
H82 C51 1_555 1_555
H83 C51 1_555 1_555
C52 C51 1_555 1_555
H84 C52 1_555 1_555
H85 C52 1_555 1_555
C53 C52 1_555 1_555
H86 C53 1_555 1_555
H87 C53 1_555 1_555
H88 C53 1_555 1_555
C54 C50 1_555 1_555
C55 O7 1_555 1_555
C56 C55 1_555 1_555
C57 O8 1_555 1_555
C58 C57 1_555 1_555
C59 C54 1_555 1_555
H89 C59 1_555 1_555
C60 N4 1_555 1_555
H90 C60 1_555 1_555
H91 C60 1_555 1_555
C61 N4 1_555 1_555
H92 C61 1_555 1_555
C62 C61 1_555 1_555
H93 C62 1_555 1_555
H94 C62 1_555 1_555
C63 C62 1_555 1_555
H95 C63 1_555 1_555
H96 C63 1_555 1_555
C64 C63 1_555 1_555
H97 C64 1_555 1_555
H98 C64 1_555 1_555
C65 C64 1_555 1_555
H99 C65 1_555 1_555
H100 C65 1_555 1_555
C66 C61 1_555 1_555
H101 C66 1_555 1_555
H102 C66 1_555 1_555
C67 C7 1_555 1_555
H103 C67 1_555 1_555
C68 C67 1_555 1_555
H104 C68 1_555 1_555
H105 C68 1_555 1_555
C69 C68 1_555 1_555
H106 C69 1_555 1_555
H107 C69 1_555 1_555
C70 C69 1_555 1_555
H108 C70 1_555 1_555
H109 C70 1_555 1_555
H110 C70 1_555 1_555
O9 H116 1_555 1_555
C72 H117 1_555 1_555
H118 C72 1_555 1_555
H119 C72 1_555 1_555
C73 O9 1_555 1_555
H120 C73 1_555 1_555
H121 C73 1_555 1_555
C3 C8 1_555 1_555
C3 C9 1_555 1_555
C7 C8 1_555 1_555
C14 C15 1_555 1_555
C20 C21 1_555 1_555
C22 C23 1_555 1_555
C22 C26 1_555 1_555
C24 C25 1_555 1_555
C31 C32 1_555 1_555
C37 C38 1_555 1_555
C39 C40 1_555 1_555
C39 C43 1_555 1_555
C41 C42 1_555 1_555
C48 C49 1_555 1_555
C54 C55 1_555 1_555
C56 C57 1_555 1_555
C56 C60 1_555 1_555
C58 C59 1_555 1_555
C58 C67 1_555 1_555
C65 C66 1_555 1_555
C72 C73 1_555 1_555

#END
