
#######################################################################
#
#                 Cambridge Crystallographic Data Centre
#                                CCDC 
#
#######################################################################
#
# If this CIF has been generated from an entry in the Cambridge 
# Structural Database, then it will include bibliographic, chemical, 
# crystal, experimental, refinement or atomic coordinate data resulting 
# from the CCDC's data processing and validation procedures.
#
#######################################################################

data_VUCTUI
_chemical_formula_moiety         'C74 H88 N4 O14,2(C1 H1 Cl3)'
_chemical_name_systematic        
"bis(19-Oxo-1,16-diaza-4,7,10,13-tetraoxatricyclo(16.3.1.1^16,20^)triconta-18,20-diyl)-bis(4,4'-(p-phenylenedimethoxy)-di-p-phenylene) bis(chloroform) clathrate"
_symmetry_cell_setting           monoclinic
_symmetry_space_group_name_H-M   'P 21/n'
_symmetry_Int_Tables_number      14
_space_group_name_Hall           '-P 2yn'
loop_
_symmetry_equiv_pos_site_id
_symmetry_equiv_pos_as_xyz
1 x,y,z
2 1/2-x,1/2+y,1/2-z
3 -x,-y,-z
4 1/2+x,1/2-y,1/2+z
_cell_length_a                   13.424(3)
_cell_length_b                   15.735(3)
_cell_length_c                   18.280(3)
_cell_angle_alpha                90
_cell_angle_beta                 95.533(5)
_cell_angle_gamma                90
_cell_volume                     3843.23
_exptl_crystal_colour            colorless
_cell_formula_units_Z            2
loop_
_atom_site_label
_atom_site_type_symbol
_atom_site_fract_x
_atom_site_fract_y
_atom_site_fract_z
C1 C 0.172(4) 0.933(4) 0.912(3)
Cl1 Cl 0.0436(12) 0.8788(10) 0.9387(7)
Cl2 Cl 0.2241(12) 0.8315(10) 0.9172(8)
Cl3 Cl 0.1895(17) 0.9929(9) 0.9717(7)
C2 C 0.105(1) 0.585(1) 0.992(1)
C3 C 0.111(1) 0.654(1) 1.040(1)
C4 C 0.163(1) 0.647(1) 1.110(1)
C5 C 0.208(1) 0.570(1) 1.132(1)
C6 C 0.202(1) 0.501(1) 1.084(1)
C7 C 0.151(1) 0.508(1) 1.014(1)
H1 H 0.068 0.590 0.942
H2 H 0.078 0.709 1.025
H3 H 0.245 0.565 1.182
H4 H 0.235 0.446 1.100
O1 O 0.150(1) 0.436(1) 0.972(1)
C8 C 0.116(2) 0.443(2) 0.896(1)
H5 H 0.043 0.457 0.889
H6 H 0.154 0.488 0.873
C9 C 0.180(1) 0.292(1) 0.899(1)
C10 C 0.206(1) 0.218(1) 0.863(1)
C11 C 0.184(1) 0.211(1) 0.787(1)
C12 C 0.136(1) 0.278(1) 0.748(1)
C13 C 0.111(1) 0.352(1) 0.784(1)
C14 C 0.133(1) 0.359(1) 0.859(1)
H7 H 0.196 0.297 0.954
H8 H 0.239 0.170 0.892
H9 H 0.121 0.273 0.693
H10 H 0.077 0.400 0.755
C15 C 0.210(2) 0.132(2) 0.751(1)
H11 H 0.147 0.098 0.744
H12 H 0.232 0.147 0.702
O2 O 0.285(1) 0.079(1) 0.788(1)
C16 C 0.452(2) 0.055(1) 0.814(1)
C17 C 0.554(2) 0.074(1) 0.815(1)
C18 C 0.585(2) 0.145(1) 0.778(1)
C19 C 0.514(2) 0.198(1) 0.740(1)
C20 C 0.412(2) 0.180(1) 0.740(1)
C21 C 0.381(2) 0.108(1) 0.777(1)
H13 H 0.430 0.004 0.841
H14 H 0.605 0.036 0.841
H15 H 0.536 0.249 0.714
H16 H 0.361 0.218 0.713
C22 C 0.695(2) 0.171(2) 0.776(1)
C23 C 0.718(2) 0.249(2) 0.832(1)
O3 O 0.655(1) 0.271(1) 0.871(1)
C24 C 0.176(2) 0.720(1) 1.165(1)
C25 C 0.152(2) 0.692(1) 1.243(1)
H17 H 0.130 0.631 1.243
H18 H 0.098 0.729 1.260
N1 N 0.251(2) 0.705(1) 1.292(1)
C26 C 0.249(2) 0.661(2) 1.365(2)
H19 H 0.231 0.600 1.354
H20 H 0.318 0.664 1.390
C27 C 0.177(3) 0.692(2) 1.420(2)
H21 H 0.176 0.756 1.421
H22 H 0.199 0.670 1.471
O4 O 0.093(3) 0.666(2) 1.399(2)
C28 C 0.017(3) 0.659(3) 1.459(2)
H23 H 0.041 0.615 1.496
H24 H -0.049 0.641 1.435
C29 C 0.007(3) 0.734(3) 1.491(2)
H25 H -0.027 0.724 1.537
H26 H 0.075 0.758 1.505
O5 O -0.053(2) 0.798(2) 1.445(1)
C30 C -0.063(3) 0.872(2) 1.481(2)
H27 H -0.091 0.858 1.529
H28 H 0.006 0.895 1.492
C31 C -0.121(2) 0.939(2) 1.449(2)
H29 H -0.187 0.916 1.427
H30 H -0.133 0.982 1.487
O6 O -0.066(1) 0.977(1) 1.392(1)
C32 C -0.113(2) 1.049(2) 1.358(1)
H31 H -0.181 1.032 1.335
H32 H -0.122 1.092 1.397
C33 C -0.057(2) 1.087(2) 1.304(2)
H33 H 0.009 1.106 1.329
H34 H -0.095 1.138 1.285
O7 O -0.037(2) 1.037(1) 1.241(1)
C34 C 0.045(2) 0.982(2) 1.252(1)
H35 H 0.108 1.016 1.264
H36 H 0.036 0.941 1.292
C35 C 0.051(2) 0.935(2) 1.180(1)
H37 H 0.070 0.975 1.141
H38 H -0.015 0.908 1.164
N2 N 0.127(2) 0.870(1) 1.193(1)
C36 C 0.111(2) 0.798(1) 1.139(1)
H40 H 0.038 0.782 1.136
H41 H 0.128 0.818 1.090
C37 C 0.770(2) 0.100(1) 0.807(1)
H42 H 0.757 0.086 0.858
H43 H 0.761 0.048 0.775
C38 C 0.727(2) 0.204(1) 0.703(1)
H44 H 0.788 0.173 0.690
H45 H 0.671 0.195 0.663
C24B C 0.824(2) 0.280(1) 0.835(1)
C23B C 0.282(2) 0.751(2) 1.168(1)
C38B C 0.273(2) 0.796(1) 1.297(1)
C37B C 0.230(2) 0.900(1) 1.193(1)
N2B N 0.873(2) 0.130(1) 0.807(1)
N1B N 0.749(2) 0.295(1) 0.708(1)
C4B C 0.837(1) 0.353(1) 0.890(1)
C25B C 0.848(2) 0.308(1) 0.757(1)
C36B C 0.889(2) 0.202(1) 0.861(1)
C22B C 0.305(2) 0.829(2) 1.224(1)
O3B O 0.345(1) 0.729(1) 1.129(1)
H44B H 0.212 0.827 1.310
H45B H 0.329 0.805 1.337
H42B H 0.243 0.914 1.142
H43B H 0.239 0.952 1.225
C35B C 0.949(2) 0.065(2) 0.820(1)
C26B C 0.751(2) 0.339(2) 0.635(2)
C3B C 0.889(1) 0.346(1) 0.960(1)
C5B C 0.792(1) 0.430(1) 0.868(1)
H17B H 0.870 0.369 0.757
H18B H 0.902 0.271 0.740
H40B H 0.962 0.218 0.864
H41B H 0.872 0.182 0.910
C18B C 0.415(2) 0.855(1) 1.222(1)
C34B C 0.955(2) 0.018(2) 0.748(1)
H37B H 0.930 0.025 0.859
H38B H 1.015 0.092 0.836
H19B H 0.769 0.400 0.646
H20B H 0.682 0.336 0.610
C27B C 0.823(3) 0.308(2) 0.580(2)
C2B C 0.895(1) 0.415(1) 1.008(1)
H2B H 0.922 0.291 0.975
C6B C 0.798(1) 0.499(1) 0.916(1)
H3B H 0.755 0.435 0.818
C17B C 0.446(2) 0.926(1) 1.185(1)
C19B C 0.486(2) 0.802(1) 1.260(1)
O7B O 1.037(2) -0.037(1) 0.759(1)
H35B H 0.892 -0.016 0.736
H36B H 0.964 0.059 0.708
H21B H 0.824 0.244 0.579
H22B H 0.801 0.330 0.529
O4B O 0.907(3) 0.334(2) 0.601(2)
C7B C 0.849(1) 0.492(1) 0.986(1)
H1B H 0.932 0.410 1.058
H4B H 0.765 0.554 0.900
C16B C 0.548(2) 0.945(1) 1.186(1)
H14B H 0.395 0.964 1.159
C20B C 0.588(2) 0.820(1) 1.260(1)
H15B H 0.464 0.751 1.286
C33B C 1.057(2) -0.087(2) 0.696(2)
C28B C 0.983(3) 0.341(3) 0.541(2)
O1B O 0.850(1) 0.564(1) 1.028(1)
C21B C 0.619(2) 0.892(1) 1.223(1)
H13B H 0.570 0.996 1.159
H16B H 0.639 0.782 1.287
C32B C 1.113(2) -0.049(2) 0.642(1)
H33B H 0.991 -0.106 0.671
H34B H 1.095 -0.138 0.715
H23B H 0.959 0.385 0.504
H24B H 1.049 0.359 0.565
C29B C 0.993(3) 0.266(3) 0.509(2)
C8B C 0.884(2) 0.557(2) 1.104(1)
O2B O 0.715(1) 0.921(1) 1.212(1)
O6B O 1.066(1) 0.023(1) 0.608(1)
H31B H 1.181 -0.032 0.665
H32B H 1.122 -0.092 0.603
H25B H 1.027 0.276 0.463
H26B H 0.925 0.242 0.495
O5B O 1.053(2) 0.202(2) 0.555(1)
H5B H 0.957 0.543 1.111
H6B H 0.846 0.512 1.127
C14B C 0.867(1) 0.641(1) 1.141(1)
C15B C 0.790(2) 0.868(2) 1.249(1)
C31B C 1.121(2) 0.061(2) 0.551(2)
C30B C 1.063(3) 0.128(2) 0.519(2)
C9B C 0.820(1) 0.708(1) 1.101(1)
C13B C 0.889(1) 0.648(1) 1.216(1)
C11B C 0.816(1) 0.789(1) 1.213(1)
H11B H 0.853 0.902 1.256
H12B H 0.768 0.853 1.298
H29B H 1.187 0.084 0.573
H30B H 1.133 0.018 0.513
H27B H 1.091 0.142 0.471
H28B H 0.994 0.105 0.508
C10B C 0.794(1) 0.782(1) 1.137(1)
H7B H 0.804 0.703 1.046
C12B C 0.864(1) 0.722(1) 1.252(1)
H10B H 0.923 0.600 1.245
H8B H 0.761 0.830 1.108
H9B H 0.879 0.727 1.307
H39? H 0.120 0.850 1.244
loop_
_geom_bond_atom_site_label_1
_geom_bond_atom_site_label_2
_geom_bond_site_symmetry_1
_geom_bond_site_symmetry_2
C1 Cl1 1_555 1_555
C2 C3 1_555 1_555
C3 C4 1_555 1_555
C4 C5 1_555 1_555
C5 C6 1_555 1_555
C6 C7 1_555 1_555
C7 C2 1_555 1_555
H1 C2 1_555 1_555
H2 C3 1_555 1_555
H3 C5 1_555 1_555
H4 C6 1_555 1_555
O1 C7 1_555 1_555
C8 O1 1_555 1_555
H5 C8 1_555 1_555
H6 C8 1_555 1_555
C9 C10 1_555 1_555
C10 C11 1_555 1_555
C11 C12 1_555 1_555
C12 C13 1_555 1_555
C13 C14 1_555 1_555
C14 C8 1_555 1_555
H7 C9 1_555 1_555
H8 C10 1_555 1_555
H9 C12 1_555 1_555
H10 C13 1_555 1_555
C15 C11 1_555 1_555
H11 C15 1_555 1_555
H12 C15 1_555 1_555
O2 C15 1_555 1_555
C16 C17 1_555 1_555
C17 C18 1_555 1_555
C18 C19 1_555 1_555
C19 C20 1_555 1_555
C20 C21 1_555 1_555
C21 O2 1_555 1_555
H13 C16 1_555 1_555
H14 C17 1_555 1_555
H15 C19 1_555 1_555
H16 C20 1_555 1_555
C22 C18 1_555 1_555
C23 C22 1_555 1_555
O3 C23 1_555 1_555
C24 C4 1_555 1_555
C25 C24 1_555 1_555
H17 C25 1_555 1_555
H18 C25 1_555 1_555
N1 C25 1_555 1_555
C26 N1 1_555 1_555
H19 C26 1_555 1_555
H20 C26 1_555 1_555
C27 C26 1_555 1_555
H21 C27 1_555 1_555
H22 C27 1_555 1_555
O4 C27 1_555 1_555
C28 O4 1_555 1_555
H23 C28 1_555 1_555
H24 C28 1_555 1_555
C29 C28 1_555 1_555
H25 C29 1_555 1_555
H26 C29 1_555 1_555
O5 C29 1_555 1_555
C30 O5 1_555 1_555
H27 C30 1_555 1_555
H28 C30 1_555 1_555
C31 C30 1_555 1_555
H29 C31 1_555 1_555
H30 C31 1_555 1_555
O6 C31 1_555 1_555
C32 O6 1_555 1_555
H31 C32 1_555 1_555
H32 C32 1_555 1_555
C33 C32 1_555 1_555
H33 C33 1_555 1_555
H34 C33 1_555 1_555
O7 C33 1_555 1_555
C34 O7 1_555 1_555
H35 C34 1_555 1_555
H36 C34 1_555 1_555
C35 C34 1_555 1_555
H37 C35 1_555 1_555
H38 C35 1_555 1_555
N2 C35 1_555 1_555
C36 C24 1_555 1_555
H40 C36 1_555 1_555
H41 C36 1_555 1_555
C37 C22 1_555 1_555
H42 C37 1_555 1_555
H43 C37 1_555 1_555
C38 C22 1_555 1_555
H44 C38 1_555 1_555
H45 C38 1_555 1_555
Cl2 C1 1_555 1_555
Cl3 C1 1_555 1_555
C24B C23 1_555 1_555
C23B C24 1_555 1_555
C38B N1 1_555 1_555
C37B N2 1_555 1_555
N2B C37 1_555 1_555
N1B C38 1_555 1_555
C4B C24B 1_555 1_555
C25B C24B 1_555 1_555
C36B C24B 1_555 1_555
C22B C23B 1_555 1_555
O3B C23B 1_555 1_555
H44B C38B 1_555 1_555
H45B C38B 1_555 1_555
H42B C37B 1_555 1_555
H43B C37B 1_555 1_555
C35B N2B 1_555 1_555
C26B N1B 1_555 1_555
C3B C4B 1_555 1_555
C5B C4B 1_555 1_555
H17B C25B 1_555 1_555
H18B C25B 1_555 1_555
H40B C36B 1_555 1_555
H41B C36B 1_555 1_555
C18B C22B 1_555 1_555
C34B C35B 1_555 1_555
H37B C35B 1_555 1_555
H38B C35B 1_555 1_555
H19B C26B 1_555 1_555
H20B C26B 1_555 1_555
C27B C26B 1_555 1_555
C2B C3B 1_555 1_555
H2B C3B 1_555 1_555
C6B C5B 1_555 1_555
H3B C5B 1_555 1_555
C17B C18B 1_555 1_555
C19B C18B 1_555 1_555
O7B C34B 1_555 1_555
H35B C34B 1_555 1_555
H36B C34B 1_555 1_555
H21B C27B 1_555 1_555
H22B C27B 1_555 1_555
O4B C27B 1_555 1_555
C7B C2B 1_555 1_555
H1B C2B 1_555 1_555
H4B C6B 1_555 1_555
C16B C17B 1_555 1_555
H14B C17B 1_555 1_555
C20B C19B 1_555 1_555
H15B C19B 1_555 1_555
C33B O7B 1_555 1_555
C28B O4B 1_555 1_555
O1B C7B 1_555 1_555
C21B C16B 1_555 1_555
H13B C16B 1_555 1_555
H16B C20B 1_555 1_555
C32B C33B 1_555 1_555
H33B C33B 1_555 1_555
H34B C33B 1_555 1_555
H23B C28B 1_555 1_555
H24B C28B 1_555 1_555
C29B C28B 1_555 1_555
C8B O1B 1_555 1_555
O2B C21B 1_555 1_555
O6B C32B 1_555 1_555
H31B C32B 1_555 1_555
H32B C32B 1_555 1_555
H25B C29B 1_555 1_555
H26B C29B 1_555 1_555
O5B C29B 1_555 1_555
H5B C8B 1_555 1_555
H6B C8B 1_555 1_555
C14B C8B 1_555 1_555
C15B O2B 1_555 1_555
C31B O6B 1_555 1_555
C30B O5B 1_555 1_555
C9B C14B 1_555 1_555
C13B C14B 1_555 1_555
C11B C15B 1_555 1_555
H11B C15B 1_555 1_555
H12B C15B 1_555 1_555
H29B C31B 1_555 1_555
H30B C31B 1_555 1_555
H27B C30B 1_555 1_555
H28B C30B 1_555 1_555
C10B C9B 1_555 1_555
H7B C9B 1_555 1_555
C12B C13B 1_555 1_555
H10B C13B 1_555 1_555
H8B C10B 1_555 1_555
H9B C12B 1_555 1_555
C9 C14 1_555 1_555
C16 C21 1_555 1_555
N2 C36 1_555 1_555
C38B C22B 1_555 1_555
C37B C22B 1_555 1_555
N2B C36B 1_555 1_555
N1B C25B 1_555 1_555
C6B C7B 1_555 1_555
C20B C21B 1_555 1_555
C31B C30B 1_555 1_555
C11B C10B 1_555 1_555
C11B C12B 1_555 1_555

#END
