
#######################################################################
#
#                 Cambridge Crystallographic Data Centre
#                                CCDC 
#
#######################################################################
#
# If this CIF has been generated from an entry in the Cambridge 
# Structural Database, then it will include bibliographic, chemical, 
# crystal, experimental, refinement or atomic coordinate data resulting 
# from the CCDC's data processing and validation procedures.
#
#######################################################################

data_VUDKOW
_chemical_name_common            
'1-(t-Butyl(dimethyl)silyl)-2-methyl-1,2-azaborine maleic anhydride adduct'
_chemical_formula_moiety         'C15 H24 B1 N1 O3 Si1'
_chemical_name_systematic        
8-(t-Butyl(dimethyl)silyl)-9-methyl-4-oxa-8-aza-9-boratricyclo[5.2.2.0^2,6^]undec-10-ene-3,5-dione
_symmetry_cell_setting           orthorhombic
_symmetry_space_group_name_H-M   'P 21 21 21'
_symmetry_Int_Tables_number      19
_space_group_name_Hall           'P 2ac 2ab'
loop_
_symmetry_equiv_pos_site_id
_symmetry_equiv_pos_as_xyz
1 x,y,z
2 1/2-x,-y,1/2+z
3 -x,1/2+y,1/2-z
4 1/2+x,1/2-y,-z
_cell_length_a                   7.4966(4)
_cell_length_b                   13.7361(7)
_cell_length_c                   16.1959(9)
_cell_angle_alpha                90
_cell_angle_beta                 90
_cell_angle_gamma                90
_cell_volume                     1667.76
_exptl_crystal_colour            colorless
_exptl_crystal_description       plate
_cell_formula_units_Z            4
_chemical_properties_physical    'Air-sensitive, Moisture-sensitive'
loop_
_atom_site_label
_atom_site_type_symbol
_atom_site_fract_x
_atom_site_fract_y
_atom_site_fract_z
Si1 Si 0.95291(12) 0.14782(7) 0.18602(6)
O1 O 1.1978(4) -0.0446(2) -0.08995(18)
O2 O 0.9914(3) -0.16295(19) -0.08298(17)
O3 O 0.7792(4) -0.26660(19) -0.04286(18)
N1 N 0.8645(4) 0.0518(2) 0.12639(18)
B1 B 0.7268(6) -0.0148(3) 0.1446(3)
C1 C 0.9338(5) 0.0404(3) 0.0401(2)
H1 H 1.0228 0.0923 0.0268
C2 C 0.6147(5) -0.0226(3) 0.2248(3)
H2 H 0.6663 -0.0725 0.2609
H3 H 0.4918 -0.0404 0.2109
H4 H 0.6153 0.0403 0.2535
C3 C 0.6921(5) -0.0877(3) 0.0686(3)
H5 H 0.5937 -0.1351 0.0797
C4 C 0.6552(5) -0.0233(3) -0.0051(2)
H6 H 0.5506 -0.0293 -0.0378
C5 C 0.7804(5) 0.0418(3) -0.0202(2)
H7 H 0.7745 0.0859 -0.0653
C6 C 1.0201(5) -0.0625(2) 0.0355(2)
H8 H 1.1196 -0.0684 0.0763
C7 C 0.8761(5) -0.1387(3) 0.0526(2)
H9 H 0.9103 -0.1803 0.1007
C8 C 0.8707(5) -0.1987(3) -0.0261(3)
C9 C 1.0854(5) -0.0844(3) -0.0502(3)
C10 C 1.1975(5) 0.1559(3) 0.1653(3)
H10 H 1.2532 0.0926 0.1761
H11 H 1.2507 0.2052 0.2014
H12 H 1.2170 0.1741 0.1075
C11 C 0.9261(5) 0.1226(3) 0.2980(2)
H13 H 0.8067 0.1426 0.3158
H14 H 1.0160 0.1591 0.3292
H15 H 0.9416 0.0528 0.3081
C12 C 0.8379(5) 0.2649(3) 0.1577(2)
C13 C 0.8769(6) 0.2931(3) 0.0675(3)
H16 H 0.8285 0.2431 0.0305
H17 H 1.0061 0.2982 0.0593
H18 H 0.8208 0.3559 0.0552
C14 C 0.9011(6) 0.3471(3) 0.2156(3)
H19 H 0.8446 0.4085 0.1993
H20 H 1.0310 0.3536 0.2116
H21 H 0.8680 0.3314 0.2726
C15 C 0.6355(5) 0.2544(3) 0.1669(3)
H22 H 0.5779 0.3165 0.1533
H23 H 0.6067 0.2364 0.2238
H24 H 0.5924 0.2038 0.1292
loop_
_geom_bond_atom_site_label_1
_geom_bond_atom_site_label_2
_geom_bond_site_symmetry_1
_geom_bond_site_symmetry_2
Si1 N1 1_555 1_555
O1 C9 1_555 1_555
O2 C8 1_555 1_555
O3 C8 1_555 1_555
N1 B1 1_555 1_555
B1 C2 1_555 1_555
C1 N1 1_555 1_555
H1 C1 1_555 1_555
C2 H2 1_555 1_555
H3 C2 1_555 1_555
H4 C2 1_555 1_555
C3 B1 1_555 1_555
H5 C3 1_555 1_555
C4 C3 1_555 1_555
H6 C4 1_555 1_555
C5 C1 1_555 1_555
H7 C5 1_555 1_555
C6 C1 1_555 1_555
H8 C6 1_555 1_555
C7 C3 1_555 1_555
H9 C7 1_555 1_555
C8 C7 1_555 1_555
C9 O2 1_555 1_555
C10 Si1 1_555 1_555
H10 C10 1_555 1_555
H11 C10 1_555 1_555
H12 C10 1_555 1_555
C11 Si1 1_555 1_555
H13 C11 1_555 1_555
H14 C11 1_555 1_555
H15 C11 1_555 1_555
C12 Si1 1_555 1_555
C13 C12 1_555 1_555
H16 C13 1_555 1_555
H17 C13 1_555 1_555
H18 C13 1_555 1_555
C14 C12 1_555 1_555
H19 C14 1_555 1_555
H20 C14 1_555 1_555
H21 C14 1_555 1_555
C15 C12 1_555 1_555
H22 C15 1_555 1_555
H23 C15 1_555 1_555
H24 C15 1_555 1_555
C4 C5 1_555 1_555
C6 C7 1_555 1_555
C6 C9 1_555 1_555

#END
