
#######################################################################
#
#                 Cambridge Crystallographic Data Centre
#                                CCDC 
#
#######################################################################
#
# If this CIF has been generated from an entry in the Cambridge 
# Structural Database, then it will include bibliographic, chemical, 
# crystal, experimental, refinement or atomic coordinate data resulting 
# from the CCDC's data processing and validation procedures.
#
#######################################################################

data_VUDSAP
_chemical_formula_moiety         'C29 H28 B1 F10 N1'
_chemical_name_systematic        
Hydrido(2-methyl-6-((2,2,6,6-tetramethylpiperidinium-1-yl)methyl)phenyl)bis(pentafluorophenyl)borate
_symmetry_cell_setting           monoclinic
_symmetry_space_group_name_H-M   'P 21/c'
_symmetry_Int_Tables_number      14
_space_group_name_Hall           '-P 2ybc'
loop_
_symmetry_equiv_pos_site_id
_symmetry_equiv_pos_as_xyz
1 x,y,z
2 -x,1/2+y,1/2-z
3 -x,-y,-z
4 x,1/2-y,1/2+z
_cell_length_a                   15.335(2)
_cell_length_b                   11.451(1)
_cell_length_c                   14.863(1)
_cell_angle_alpha                90
_cell_angle_beta                 90.59(1)
_cell_angle_gamma                90
_cell_volume                     2609.82
_exptl_crystal_colour            colorless
_exptl_crystal_description       plates
_cell_formula_units_Z            4
loop_
_atom_site_label
_atom_site_type_symbol
_atom_site_fract_x
_atom_site_fract_y
_atom_site_fract_z
B1 B 0.72563(10) 0.58760(14) 0.63545(11)
H1 H 0.6862(11) 0.5474(15) 0.5784(11)
C1 C 0.80372(9) 0.49812(13) 0.66459(10)
C2 C 0.86004(10) 0.52194(15) 0.73866(10)
C3 C 0.92938(10) 0.44777(17) 0.75906(11)
H2 H 0.9673 0.4667 0.8079
C4 C 0.94432(10) 0.34782(17) 0.71031(12)
H3 H 0.9927 0.2991 0.7245
C5 C 0.88832(10) 0.31919(15) 0.64064(11)
H4 H 0.8969 0.2488 0.6081
C6 C 0.81860(9) 0.39334(13) 0.61726(10)
C7 C 0.75641(10) 0.34520(13) 0.54666(10)
H5 H 0.6980 0.3407 0.5743
H6 H 0.7747 0.2640 0.5339
N1 N 0.74536(7) 0.40730(11) 0.45612(8)
H7 H 0.7312(11) 0.4803(16) 0.4716(11)
C8 C 0.66205(9) 0.35763(13) 0.40611(10)
C9 C 0.65622(10) 0.40955(15) 0.31168(11)
H8 H 0.6081 0.3706 0.2785
H9 H 0.6411 0.4933 0.3168
C10 C 0.73869(11) 0.39852(17) 0.25720(11)
H10 H 0.7552 0.3153 0.2510
H11 H 0.7295 0.4317 0.1963
C11 C 0.80962(10) 0.46485(16) 0.30655(11)
H12 H 0.7918 0.5477 0.3113
H13 H 0.8633 0.4621 0.2702
C12 C 0.83106(9) 0.41938(14) 0.40105(10)
C13 C 0.87920(11) 0.30341(17) 0.39664(12)
H14 H 0.8420 0.2451 0.3670
H15 H 0.8937 0.2772 0.4577
H16 H 0.9329 0.3132 0.3623
C14 C 0.88793(10) 0.51144(16) 0.44677(11)
H17 H 0.8562 0.5856 0.4492
H18 H 0.9416 0.5219 0.4125
H19 H 0.9026 0.4860 0.5080
C15 C 0.58170(9) 0.39901(14) 0.45773(11)
H20 H 0.5812 0.4845 0.4601
H21 H 0.5838 0.3676 0.5191
H22 H 0.5288 0.3713 0.4270
C16 C 0.66265(11) 0.22486(14) 0.40248(12)
H23 H 0.7140 0.1983 0.3696
H24 H 0.6097 0.1973 0.3717
H25 H 0.6646 0.1935 0.4638
C17 C 0.75727(9) 0.71412(13) 0.59406(9)
C18 C 0.84153(10) 0.75638(14) 0.58526(10)
F1 F 0.91122(6) 0.69180(9) 0.61095(7)
C19 C 0.86185(10) 0.86509(14) 0.55042(10)
F2 F 0.94553(6) 0.89929(9) 0.54380(7)
C20 C 0.79632(11) 0.93755(13) 0.52148(10)
F3 F 0.81498(7) 1.04344(8) 0.48766(7)
C21 C 0.71122(10) 0.89939(14) 0.52590(10)
F4 F 0.64647(7) 0.96887(8) 0.49620(7)
C22 C 0.69416(9) 0.79053(13) 0.56056(10)
F5 F 0.60930(5) 0.75953(8) 0.56345(6)
C23 C 0.65441(9) 0.60480(13) 0.71710(10)
C24 C 0.63835(10) 0.70493(13) 0.76631(10)
F6 F 0.68698(6) 0.80235(8) 0.75384(6)
C25 C 0.57433(10) 0.71518(14) 0.83080(10)
F7 F 0.56361(7) 0.81613(8) 0.87546(6)
C26 C 0.52186(10) 0.62146(14) 0.84885(10)
F8 F 0.45824(7) 0.63042(9) 0.90963(7)
C27 C 0.53488(9) 0.51867(14) 0.80310(10)
F9 F 0.48332(6) 0.42640(8) 0.81918(7)
C28 C 0.59998(9) 0.51237(13) 0.73973(10)
F10 F 0.60893(6) 0.40840(7) 0.69752(6)
C29 C 0.84674(11) 0.62712(16) 0.79768(11)
H26 H 0.7952 0.6152 0.8350
H27 H 0.8383 0.6965 0.7600
H28 H 0.8981 0.6382 0.8365
loop_
_geom_bond_atom_site_label_1
_geom_bond_atom_site_label_2
_geom_bond_site_symmetry_1
_geom_bond_site_symmetry_2
B1 H1 1_555 1_555
C1 B1 1_555 1_555
C2 C1 1_555 1_555
C3 C2 1_555 1_555
H2 C3 1_555 1_555
C4 C3 1_555 1_555
H3 C4 1_555 1_555
C5 C4 1_555 1_555
H4 C5 1_555 1_555
C6 C1 1_555 1_555
C7 C6 1_555 1_555
H5 C7 1_555 1_555
H6 C7 1_555 1_555
N1 C7 1_555 1_555
H7 N1 1_555 1_555
C8 N1 1_555 1_555
C9 C8 1_555 1_555
H8 C9 1_555 1_555
H9 C9 1_555 1_555
C10 C9 1_555 1_555
H10 C10 1_555 1_555
H11 C10 1_555 1_555
C11 C10 1_555 1_555
H12 C11 1_555 1_555
H13 C11 1_555 1_555
C12 N1 1_555 1_555
C13 C12 1_555 1_555
H14 C13 1_555 1_555
H15 C13 1_555 1_555
H16 C13 1_555 1_555
C14 C12 1_555 1_555
H17 C14 1_555 1_555
H18 C14 1_555 1_555
H19 C14 1_555 1_555
C15 C8 1_555 1_555
H20 C15 1_555 1_555
H21 C15 1_555 1_555
H22 C15 1_555 1_555
C16 C8 1_555 1_555
H23 C16 1_555 1_555
H24 C16 1_555 1_555
H25 C16 1_555 1_555
C17 B1 1_555 1_555
C18 C17 1_555 1_555
F1 C18 1_555 1_555
C19 C18 1_555 1_555
F2 C19 1_555 1_555
C20 C19 1_555 1_555
F3 C20 1_555 1_555
C21 C20 1_555 1_555
F4 C21 1_555 1_555
C22 C17 1_555 1_555
F5 C22 1_555 1_555
C23 B1 1_555 1_555
C24 C23 1_555 1_555
F6 C24 1_555 1_555
C25 C24 1_555 1_555
F7 C25 1_555 1_555
C26 C25 1_555 1_555
F8 C26 1_555 1_555
C27 C26 1_555 1_555
F9 C27 1_555 1_555
C28 C23 1_555 1_555
F10 C28 1_555 1_555
C29 C2 1_555 1_555
H26 C29 1_555 1_555
H27 C29 1_555 1_555
H28 C29 1_555 1_555
C5 C6 1_555 1_555
C11 C12 1_555 1_555
C21 C22 1_555 1_555
C27 C28 1_555 1_555

#END
