
#######################################################################
#
#                 Cambridge Crystallographic Data Centre
#                                CCDC 
#
#######################################################################
#
# If this CIF has been generated from an entry in the Cambridge 
# Structural Database, then it will include bibliographic, chemical, 
# crystal, experimental, refinement or atomic coordinate data resulting 
# from the CCDC's data processing and validation procedures.
#
#######################################################################

data_VUDWUO
_chemical_formula_moiety         'C28 H18 N4 O2 S2'
_chemical_name_systematic        
3,3'-bis(1,3-thiazol-2-ylcarbonoimidoyl)-1,1'-binaphthalene-2,2'-diol
_symmetry_cell_setting           orthorhombic
_symmetry_space_group_name_H-M   'P 21 21 21'
_symmetry_Int_Tables_number      19
_space_group_name_Hall           'P 2ac 2ab'
loop_
_symmetry_equiv_pos_site_id
_symmetry_equiv_pos_as_xyz
1 x,y,z
2 1/2-x,-y,1/2+z
3 1/2+x,1/2-y,-z
4 -x,1/2+y,1/2-z
_cell_length_a                   6.8359(3)
_cell_length_b                   15.6377(9)
_cell_length_c                   22.4930(12)
_cell_angle_alpha                90
_cell_angle_beta                 90
_cell_angle_gamma                90
_cell_volume                     2404.45
_exptl_crystal_colour            'yellow red'
_exptl_crystal_description       block
_cell_formula_units_Z            4
loop_
_atom_site_label
_atom_site_type_symbol
_atom_site_fract_x
_atom_site_fract_y
_atom_site_fract_z
S1 S -0.8216(4) 0.3725(2) 0.73368(13)
S2 S 0.8659(4) 0.3558(2) 0.54841(15)
O1 O -0.2656(9) 0.4855(5) 0.6590(3)
H1 H -0.3412 0.4577 0.6796
O2 O 0.3257(9) 0.4877(5) 0.6205(3)
H2 H 0.3966 0.4542 0.6025
N1 N -0.4881(11) 0.4603(6) 0.7507(3)
N2 N -0.6902(16) 0.4221(8) 0.8337(4)
N3 N 0.5279(11) 0.4367(6) 0.5285(3)
N4 N 0.7135(16) 0.3799(8) 0.4468(4)
C1 C 0.0088(11) 0.5762(6) 0.6694(4)
C2 C -0.1520(12) 0.5345(6) 0.6940(4)
C3 C -0.1969(13) 0.5448(7) 0.7559(4)
C4 C -0.0758(14) 0.5928(7) 0.7911(4)
H3 H -0.1056 0.5990 0.8312
C5 C 0.0921(13) 0.6331(7) 0.7684(4)
C6 C 0.1326(11) 0.6258(6) 0.7065(4)
C7 C 0.3017(12) 0.6681(6) 0.6845(4)
H4 H 0.3338 0.6630 0.6445
C8 C 0.4167(15) 0.7155(8) 0.7205(5)
H5 H 0.5252 0.7434 0.7047
C9 C 0.3742(16) 0.7235(9) 0.7818(5)
H6 H 0.4541 0.7562 0.8064
C10 C 0.2172(16) 0.6833(8) 0.8040(4)
H7 H 0.1897 0.6886 0.8443
C11 C -0.3689(13) 0.5052(6) 0.7819(4)
H8 H -0.3934 0.5126 0.8223
C12 C -0.6523(14) 0.4239(7) 0.7775(4)
C13 C -0.8611(18) 0.3787(9) 0.8431(5)
H9 H -0.9126 0.3724 0.8811
C14 C -0.9482(17) 0.3469(8) 0.7974(6)
H10 H -1.0627 0.3148 0.7987
C15 C 0.0420(11) 0.5683(6) 0.6039(4)
C16 C -0.0937(12) 0.6057(6) 0.5637(4)
C17 C -0.2560(12) 0.6559(7) 0.5824(4)
H11 H -0.2766 0.6639 0.6229
C18 C -0.3795(15) 0.6917(7) 0.5440(5)
H12 H -0.4829 0.7246 0.5582
C19 C -0.3563(15) 0.6807(7) 0.4824(5)
H13 H -0.4435 0.7064 0.4562
C20 C -0.2063(14) 0.6325(7) 0.4612(4)
H14 H -0.1937 0.6240 0.4205
C21 C -0.0680(13) 0.5949(6) 0.5008(4)
C22 C 0.0953(14) 0.5508(7) 0.4808(4)
H15 H 0.1135 0.5442 0.4401
C23 C 0.2313(13) 0.5165(6) 0.5192(4)
C24 C 0.1995(12) 0.5240(6) 0.5821(4)
C25 C 0.3976(14) 0.4716(7) 0.4947(4)
H16 H 0.4111 0.4678 0.4536
C26 C 0.6863(15) 0.3955(7) 0.5020(5)
C27 C 0.885(2) 0.3353(11) 0.4392(7)
H17 H 0.9286 0.3193 0.4017
C28 C 0.983(2) 0.3164(9) 0.4873(8)
H18 H 1.0993 0.2858 0.4882
loop_
_geom_bond_atom_site_label_1
_geom_bond_atom_site_label_2
_geom_bond_site_symmetry_1
_geom_bond_site_symmetry_2
S1 C12 1_555 1_555
S2 C26 1_555 1_555
O1 H1 1_555 1_555
O2 H2 1_555 1_555
N1 C11 1_555 1_555
N2 C12 1_555 1_555
N3 C25 1_555 1_555
N4 C26 1_555 1_555
C1 C2 1_555 1_555
C2 O1 1_555 1_555
C3 C2 1_555 1_555
C4 C3 1_555 1_555
H3 C4 1_555 1_555
C5 C4 1_555 1_555
C6 C1 1_555 1_555
C7 C6 1_555 1_555
H4 C7 1_555 1_555
C8 C7 1_555 1_555
H5 C8 1_555 1_555
C9 C8 1_555 1_555
H6 C9 1_555 1_555
C10 C5 1_555 1_555
H7 C10 1_555 1_555
C11 C3 1_555 1_555
H8 C11 1_555 1_555
C12 N1 1_555 1_555
C13 N2 1_555 1_555
H9 C13 1_555 1_555
C14 S1 1_555 1_555
H10 C14 1_555 1_555
C15 C1 1_555 1_555
C16 C15 1_555 1_555
C17 C16 1_555 1_555
H11 C17 1_555 1_555
C18 C17 1_555 1_555
H12 C18 1_555 1_555
C19 C18 1_555 1_555
H13 C19 1_555 1_555
C20 C19 1_555 1_555
H14 C20 1_555 1_555
C21 C16 1_555 1_555
C22 C21 1_555 1_555
H15 C22 1_555 1_555
C23 C22 1_555 1_555
C24 O2 1_555 1_555
C25 C23 1_555 1_555
H16 C25 1_555 1_555
C26 N3 1_555 1_555
C27 N4 1_555 1_555
H17 C27 1_555 1_555
C28 S2 1_555 1_555
H18 C28 1_555 1_555
C5 C6 1_555 1_555
C9 C10 1_555 1_555
C13 C14 1_555 1_555
C15 C24 1_555 1_555
C20 C21 1_555 1_555
C23 C24 1_555 1_555
C27 C28 1_555 1_555

#END
