
#######################################################################
#
#                 Cambridge Crystallographic Data Centre
#                                CCDC 
#
#######################################################################
#
# If this CIF has been generated from an entry in the Cambridge 
# Structural Database, then it will include bibliographic, chemical, 
# crystal, experimental, refinement or atomic coordinate data resulting 
# from the CCDC's data processing and validation procedures.
#
#######################################################################

data_VUFHUB
_chemical_formula_moiety         'C20 H28 N2 O1 S1'
_chemical_name_systematic        
(1-(2,6-diisopropylphenyl)-3-isopropyl-1H-imidazol-3-ium-2-yl)ethanethioate
_symmetry_cell_setting           monoclinic
_symmetry_space_group_name_H-M   'P 21/c'
_symmetry_Int_Tables_number      14
_space_group_name_Hall           '-P 2ybc'
loop_
_symmetry_equiv_pos_site_id
_symmetry_equiv_pos_as_xyz
1 x,y,z
2 -x,1/2+y,1/2-z
3 -x,-y,-z
4 x,1/2-y,1/2+z
_cell_length_a                   10.4317(3)
_cell_length_b                   15.4783(5)
_cell_length_c                   11.9638(4)
_cell_angle_alpha                90
_cell_angle_beta                 102.189(2)
_cell_angle_gamma                90
_cell_volume                     1888.19
_exptl_crystal_colour            yellowish
_exptl_crystal_description       block
_cell_formula_units_Z            4
loop_
_atom_site_label
_atom_site_type_symbol
_atom_site_fract_x
_atom_site_fract_y
_atom_site_fract_z
S1 S 0.48285(6) 0.00063(4) 0.23144(5)
N1 N 0.77386(15) 0.16393(11) 0.30169(14)
N2 N 0.58461(15) 0.20497(11) 0.32804(14)
C1 C 0.67272(18) 0.14081(13) 0.34983(17)
C2 C 1.00178(19) 0.12704(14) 0.38748(19)
C3 C 0.89288(18) 0.11543(13) 0.29893(18)
C4 C 0.6667(2) 0.06269(13) 0.41931(18)
H1 H 0.6354 0.0799 0.4868
H2 H 0.7555 0.0414 0.4451
O1 O 0.58883(17) -0.08040(11) 0.42073(16)
C5 C 0.89371(19) 0.06579(14) 0.20118(18)
C6 C 1.1190(2) 0.08800(14) 0.3750(2)
H3 H 1.1939 0.0943 0.4323
C7 C 0.5798(2) -0.01453(15) 0.3624(2)
C8 C 1.1250(2) 0.04016(15) 0.2787(2)
H4 H 1.2040 0.0155 0.2711
C9 C 0.45731(19) 0.20901(15) 0.36565(18)
H5 H 0.4397 0.1521 0.3951
C10 C 0.74760(19) 0.24301(13) 0.24939(18)
H6 H 0.8015 0.2731 0.2101
C11 C 0.62962(19) 0.26897(14) 0.26548(17)
H7 H 0.5867 0.3201 0.2395
C12 C 0.7740(2) 0.05407(14) 0.10545(18)
H8 H 0.6971 0.0732 0.1337
C13 C 0.3490(2) 0.22985(16) 0.2636(2)
H9 H 0.3457 0.1860 0.2064
H10 H 0.3661 0.2848 0.2326
H11 H 0.2666 0.2320 0.2871
C14 C 1.0138(2) 0.02885(15) 0.1935(2)
H12 H 1.0191 -0.0041 0.1297
C15 C 0.9994(2) 0.18192(14) 0.49191(19)
H13 H 0.9078 0.1965 0.4911
C16 C 0.4693(2) 0.27399(17) 0.4615(2)
H14 H 0.5387 0.2569 0.5237
H15 H 0.3882 0.2765 0.4872
H16 H 0.4885 0.3299 0.4344
C17 C 0.7834(2) 0.10965(16) 0.00224(19)
H17 H 0.7955 0.1690 0.0254
H18 H 0.7042 0.1040 -0.0550
H19 H 0.8566 0.0909 -0.0286
C18 C 1.0741(2) 0.26617(16) 0.4873(2)
H20 H 1.0387 0.2957 0.4170
H21 H 1.1651 0.2537 0.4913
H22 H 1.0655 0.3021 0.5507
C19 C 0.7526(3) -0.04049(16) 0.0688(2)
H23 H 0.7459 -0.0751 0.1339
H24 H 0.8253 -0.0601 0.0380
H25 H 0.6732 -0.0455 0.0116
C20 C 1.0545(3) 0.13389(17) 0.6036(2)
H26 H 1.0059 0.0815 0.6061
H27 H 1.0472 0.1699 0.6673
H28 H 1.1451 0.1202 0.6075
loop_
_geom_bond_atom_site_label_1
_geom_bond_atom_site_label_2
_geom_bond_site_symmetry_1
_geom_bond_site_symmetry_2
S1 C7 1_555 1_555
N1 C1 1_555 1_555
N2 C1 1_555 1_555
C1 C4 1_555 1_555
C2 C3 1_555 1_555
C3 N1 1_555 1_555
C4 H1 1_555 1_555
H2 C4 1_555 1_555
O1 C7 1_555 1_555
C5 C3 1_555 1_555
C6 C2 1_555 1_555
H3 C6 1_555 1_555
C7 C4 1_555 1_555
C8 C6 1_555 1_555
H4 C8 1_555 1_555
C9 N2 1_555 1_555
H5 C9 1_555 1_555
C10 N1 1_555 1_555
H6 C10 1_555 1_555
C11 N2 1_555 1_555
H7 C11 1_555 1_555
C12 C5 1_555 1_555
H8 C12 1_555 1_555
C13 C9 1_555 1_555
H9 C13 1_555 1_555
H10 C13 1_555 1_555
H11 C13 1_555 1_555
C14 C5 1_555 1_555
H12 C14 1_555 1_555
C15 C2 1_555 1_555
H13 C15 1_555 1_555
C16 C9 1_555 1_555
H14 C16 1_555 1_555
H15 C16 1_555 1_555
H16 C16 1_555 1_555
C17 C12 1_555 1_555
H17 C17 1_555 1_555
H18 C17 1_555 1_555
H19 C17 1_555 1_555
C18 C15 1_555 1_555
H20 C18 1_555 1_555
H21 C18 1_555 1_555
H22 C18 1_555 1_555
C19 C12 1_555 1_555
H23 C19 1_555 1_555
H24 C19 1_555 1_555
H25 C19 1_555 1_555
C20 C15 1_555 1_555
H26 C20 1_555 1_555
H27 C20 1_555 1_555
H28 C20 1_555 1_555
C8 C14 1_555 1_555
C10 C11 1_555 1_555

#END
