
#######################################################################
#
#                 Cambridge Crystallographic Data Centre
#                                CCDC 
#
#######################################################################
#
# If this CIF has been generated from an entry in the Cambridge 
# Structural Database, then it will include bibliographic, chemical, 
# crystal, experimental, refinement or atomic coordinate data resulting 
# from the CCDC's data processing and validation procedures.
#
#######################################################################

data_VUFHIP
_chemical_formula_moiety         'C15 H16 O2'
_chemical_name_systematic        
3-methyl-5-phenylbicyclo[3.2.1]octane-2,6-dione
_symmetry_cell_setting           triclinic
_symmetry_space_group_name_H-M   'P -1'
_symmetry_Int_Tables_number      2
_space_group_name_Hall           '-P 1'
loop_
_symmetry_equiv_pos_site_id
_symmetry_equiv_pos_as_xyz
1 x,y,z
2 -x,-y,-z
_cell_length_a                   7.5962(4)
_cell_length_b                   8.0111(4)
_cell_length_c                   10.4017(6)
_cell_angle_alpha                111.3552(6)
_cell_angle_beta                 93.1680(7)
_cell_angle_gamma                90.2112(6)
_cell_volume                     588.43
_exptl_crystal_colour            colorless
_exptl_crystal_description       irregular
_cell_formula_units_Z            2
_exptl_crystal_recrystallization_method dichloromethane/hexanes
loop_
_atom_site_label
_atom_site_type_symbol
_atom_site_fract_x
_atom_site_fract_y
_atom_site_fract_z
O1 O 0.75046(11) 0.45244(11) 0.00055(8)
O2 O 0.42405(10) 0.79302(10) 0.46586(7)
C1 C 0.54962(13) 0.76567(12) 0.39461(10)
C2 C 0.72190(13) 0.67753(13) 0.41900(10)
C3 C 0.68714(13) 0.47313(13) 0.34449(10)
C4 C 0.61253(14) 0.41811(13) 0.19302(10)
C5 C 0.61426(15) 0.21531(14) 0.11851(11)
C6 C 0.85024(14) 0.73959(14) 0.33421(10)
C7 C 0.73387(14) 0.72054(14) 0.20226(10)
C8 C 0.56212(15) 0.80763(14) 0.26406(10)
C9 C 0.70462(14) 0.52194(14) 0.11841(10)
C10 C 0.77755(13) 0.73192(13) 0.57139(10)
C11 C 0.80179(13) 0.91433(14) 0.65215(10)
C12 C 0.84600(14) 0.97094(14) 0.79323(11)
C13 C 0.86682(13) 0.84508(14) 0.85627(10)
C14 C 0.84551(13) 0.66391(14) 0.77761(10)
C15 C 0.80133(13) 0.60712(13) 0.63576(10)
H1 H 0.8021(18) 0.4130(17) 0.3442(13)
H2 H 0.6007(17) 0.4318(18) 0.3948(13)
H3 H 0.4879(17) 0.4543(17) 0.1930(13)
H4 H 0.564(2) 0.180(2) 0.0234(16)
H5 H 0.5443(19) 0.1559(19) 0.1693(15)
H6 H 0.735(2) 0.1730(19) 0.1171(14)
H7 H 0.9544(18) 0.6671(18) 0.3154(13)
H8 H 0.8870(18) 0.8675(18) 0.3819(13)
H9 H 0.7869(18) 0.7779(18) 0.1451(14)
H10 H 0.5725(18) 0.9379(19) 0.2928(14)
H11 H 0.4541(19) 0.7658(19) 0.2027(15)
H12 H 0.7826(18) 1.0033(18) 0.6096(14)
H13 H 0.8628(19) 1.098(2) 0.8491(15)
H14 H 0.8964(19) 0.8830(19) 0.9551(15)
H15 H 0.8588(18) 0.5755(18) 0.8210(14)
H16 H 0.7863(18) 0.4805(19) 0.5825(14)
loop_
_geom_bond_atom_site_label_1
_geom_bond_atom_site_label_2
_geom_bond_site_symmetry_1
_geom_bond_site_symmetry_2
O1 C9 1_555 1_555
O2 C1 1_555 1_555
C1 C2 1_555 1_555
C2 C3 1_555 1_555
C3 C4 1_555 1_555
C4 C5 1_555 1_555
C5 H4 1_555 1_555
C6 C2 1_555 1_555
C7 C6 1_555 1_555
C8 C1 1_555 1_555
C9 C4 1_555 1_555
C10 C2 1_555 1_555
C11 C10 1_555 1_555
C12 C11 1_555 1_555
C13 C12 1_555 1_555
C14 C13 1_555 1_555
C15 C10 1_555 1_555
H1 C3 1_555 1_555
H2 C3 1_555 1_555
H3 C4 1_555 1_555
H5 C5 1_555 1_555
H6 C5 1_555 1_555
H7 C6 1_555 1_555
H8 C6 1_555 1_555
H9 C7 1_555 1_555
H10 C8 1_555 1_555
H11 C8 1_555 1_555
H12 C11 1_555 1_555
H13 C12 1_555 1_555
H14 C13 1_555 1_555
H15 C14 1_555 1_555
H16 C15 1_555 1_555
C7 C8 1_555 1_555
C7 C9 1_555 1_555
C14 C15 1_555 1_555

#END
