
#######################################################################
#
#                 Cambridge Crystallographic Data Centre
#                                CCDC 
#
#######################################################################
#
# If this CIF has been generated from an entry in the Cambridge 
# Structural Database, then it will include bibliographic, chemical, 
# crystal, experimental, refinement or atomic coordinate data resulting 
# from the CCDC's data processing and validation procedures.
#
#######################################################################

data_VUFJEN
_chemical_formula_moiety         'C20 H28 N2 S2'
_chemical_name_systematic        
(1-(2,6-diisopropylphenyl)-3-isopropyl-1H-imidazol-3-ium-2-yl)ethane(dithioate)
_symmetry_cell_setting           monoclinic
_symmetry_space_group_name_H-M   'P 21/c'
_symmetry_Int_Tables_number      14
_space_group_name_Hall           '-P 2ybc'
loop_
_symmetry_equiv_pos_site_id
_symmetry_equiv_pos_as_xyz
1 x,y,z
2 -x,1/2+y,1/2-z
3 -x,-y,-z
4 x,1/2-y,1/2+z
_cell_length_a                   10.1668(11)
_cell_length_b                   16.0775(16)
_cell_length_c                   12.9862(12)
_cell_angle_alpha                90
_cell_angle_beta                 103.802(5)
_cell_angle_gamma                90
_cell_volume                     2061.39
_exptl_crystal_colour            yellow
_exptl_crystal_description       block
_cell_formula_units_Z            4
loop_
_atom_site_label
_atom_site_type_symbol
_atom_site_fract_x
_atom_site_fract_y
_atom_site_fract_z
S1 S 0.96711(6) 0.08416(3) 0.10203(4)
S2 S 1.02088(6) -0.02228(4) 0.29517(4)
N1 N 0.71185(14) -0.15983(9) 0.20318(11)
N2 N 0.89870(14) -0.20525(10) 0.17314(12)
C1 C 0.83295(17) -0.05966(11) 0.10891(14)
H1 H 0.7466 -0.0309 0.0934
H2 H 0.8544 -0.0721 0.0417
C2 C 0.81643(16) -0.13925(11) 0.16141(13)
C3 C 0.48165(18) -0.12292(12) 0.10997(15)
C4 C 0.58929(17) -0.11207(11) 0.19887(14)
C5 C 0.73088(19) -0.23980(12) 0.24224(15)
H3 H 0.6735 -0.2688 0.2755
C6 C 0.94139(17) 0.00021(12) 0.17058(14)
C7 C 0.84655(19) -0.26818(13) 0.22367(16)
H4 H 0.8846 -0.3204 0.2414
C8 C 0.58212(19) -0.06257(12) 0.28561(15)
C9 C 1.02582(19) -0.21242(13) 0.13599(16)
H5 H 1.0454 -0.1580 0.1091
C10 C 0.36096(19) -0.08204(13) 0.11081(18)
H6 H 0.2870 -0.0877 0.0532
C11 C 0.4898(2) -0.17817(13) 0.01720(16)
H7 H 0.5829 -0.1989 0.0292
C12 C 0.6998(2) -0.05231(13) 0.38188(16)
H8 H 0.7802 -0.0770 0.3649
C13 C 0.3495(2) -0.03356(14) 0.19539(19)
H9 H 0.2679 -0.0072 0.1948
C14 C 1.0034(3) -0.27424(16) 0.0449(2)
H10 H 0.9297 -0.2557 -0.0113
H11 H 0.9821 -0.3278 0.0693
H12 H 1.0842 -0.2783 0.0191
C15 C 0.4579(2) -0.02382(14) 0.28063(18)
H13 H 0.4483 0.0096 0.3368
C16 C 1.1421(2) -0.23525(18) 0.2285(2)
H14 H 1.1516 -0.1935 0.2825
H15 H 1.2244 -0.2387 0.2046
H16 H 1.1241 -0.2880 0.2568
C17 C 0.6730(3) -0.09865(18) 0.47760(19)
H17 H 0.6551 -0.1562 0.4598
H18 H 0.5961 -0.0746 0.4972
H19 H 0.7510 -0.0943 0.5360
C18 C 0.3964(3) -0.25275(17) 0.0101(2)
H20 H 0.4182 -0.2827 0.0760
H21 H 0.4077 -0.2886 -0.0462
H22 H 0.3041 -0.2341 -0.0038
C19 C 0.7304(3) 0.03896(17) 0.4092(2)
H23 H 0.7479 0.0672 0.3487
H24 H 0.8086 0.0430 0.4675
H25 H 0.6541 0.0641 0.4285
C20 C 0.4570(3) -0.13135(18) -0.0876(2)
H26 H 0.5177 -0.0850 -0.0835
H27 H 0.3654 -0.1115 -0.1019
H28 H 0.4674 -0.1680 -0.1435
loop_
_geom_bond_atom_site_label_1
_geom_bond_atom_site_label_2
_geom_bond_site_symmetry_1
_geom_bond_site_symmetry_2
S1 C6 1_555 1_555
S2 C6 1_555 1_555
N1 C2 1_555 1_555
N2 C2 1_555 1_555
C1 H1 1_555 1_555
H2 C1 1_555 1_555
C2 C1 1_555 1_555
C3 C4 1_555 1_555
C4 N1 1_555 1_555
C5 N1 1_555 1_555
H3 C5 1_555 1_555
C6 C1 1_555 1_555
C7 N2 1_555 1_555
H4 C7 1_555 1_555
C8 C4 1_555 1_555
C9 N2 1_555 1_555
H5 C9 1_555 1_555
C10 C3 1_555 1_555
H6 C10 1_555 1_555
C11 C3 1_555 1_555
H7 C11 1_555 1_555
C12 C8 1_555 1_555
H8 C12 1_555 1_555
C13 C10 1_555 1_555
H9 C13 1_555 1_555
C14 C9 1_555 1_555
H10 C14 1_555 1_555
H11 C14 1_555 1_555
H12 C14 1_555 1_555
C15 C8 1_555 1_555
H13 C15 1_555 1_555
C16 C9 1_555 1_555
H14 C16 1_555 1_555
H15 C16 1_555 1_555
H16 C16 1_555 1_555
C17 C12 1_555 1_555
H17 C17 1_555 1_555
H18 C17 1_555 1_555
H19 C17 1_555 1_555
C18 C11 1_555 1_555
H20 C18 1_555 1_555
H21 C18 1_555 1_555
H22 C18 1_555 1_555
C19 C12 1_555 1_555
H23 C19 1_555 1_555
H24 C19 1_555 1_555
H25 C19 1_555 1_555
C20 C11 1_555 1_555
H26 C20 1_555 1_555
H27 C20 1_555 1_555
H28 C20 1_555 1_555
C5 C7 1_555 1_555
C13 C15 1_555 1_555

#END
