
#######################################################################
#
#                 Cambridge Crystallographic Data Centre
#                                CCDC 
#
#######################################################################
#
# If this CIF has been generated from an entry in the Cambridge 
# Structural Database, then it will include bibliographic, chemical, 
# crystal, experimental, refinement or atomic coordinate data resulting 
# from the CCDC's data processing and validation procedures.
#
#######################################################################

data_VUFJAH
_chemical_formula_moiety         'C17 H14 O2'
_chemical_name_systematic        syn-18-Oxa(3.2.1)(1,3,2)cyclophan-2-one
_symmetry_cell_setting           monoclinic
_symmetry_space_group_name_H-M   'P 21/c'
_symmetry_Int_Tables_number      14
_space_group_name_Hall           '-P 2ybc'
loop_
_symmetry_equiv_pos_site_id
_symmetry_equiv_pos_as_xyz
1 x,y,z
2 -x,1/2+y,1/2-z
3 -x,-y,-z
4 x,1/2-y,1/2+z
_cell_length_a                   10.220(2)
_cell_length_b                   8.792(1)
_cell_length_c                   13.999(3)
_cell_angle_alpha                90
_cell_angle_beta                 106.52(2)
_cell_angle_gamma                90
_cell_volume                     1205.95
_exptl_crystal_colour            'light yellow'
_chemical_melting_point          185-186deg.C
_cell_formula_units_Z            4
loop_
_atom_site_label
_atom_site_type_symbol
_atom_site_fract_x
_atom_site_fract_y
_atom_site_fract_z
O1 O 0.24645(9) 0.15541(10) 0.27354(6)
C1 C 0.18513(13) 0.20475(15) 0.34477(9)
C2 C 0.23260(14) 0.33889(14) 0.39528(9)
C3 C 0.17082(15) 0.38781(15) 0.46603(10)
C4 C 0.06610(15) 0.30474(16) 0.48490(11)
C5 C 0.02085(14) 0.17106(16) 0.43278(11)
C6 C 0.08022(13) 0.11800(15) 0.36120(10)
C7 C 0.34711(15) 0.41836(17) 0.36907(11)
C8 C 0.48025(15) 0.33245(17) 0.40070(10)
C9 C 0.48333(13) 0.16669(16) 0.37414(9)
C10 C 0.60366(14) 0.08476(20) 0.41245(10)
C11 C 0.61085(15) -0.06932(21) 0.39693(10)
C12 C 0.49543(15) -0.14825(18) 0.34429(10)
C13 C 0.37379(14) -0.07193(16) 0.30467(9)
C14 C 0.37180(13) 0.08486(16) 0.31833(8)
C15 C 0.24162(15) -0.15147(16) 0.25292(10)
C16 C 0.14498(14) -0.14735(15) 0.31781(10)
C17 C 0.03444(14) -0.02569(16) 0.30133(11)
O2 O 0.15705(11) -0.23985(11) 0.38392(8)
H1 H 0.2006 0.4807 0.5017
H2 H 0.0244 0.3390 0.5344
H3 H -0.0525 0.1144 0.4460
H4 H 0.3590 0.5175 0.3990
H5 H 0.3225 0.4316 0.2981
H6 H 0.5136 0.3404 0.4719
H7 H 0.5443 0.3844 0.3737
H8 H 0.6837 0.1379 0.4503
H9 H 0.6959 -0.1219 0.4229
H10 H 0.4995 -0.2561 0.3349
H11 H 0.2594 -0.2551 0.2390
H12 H 0.1996 -0.1014 0.1908
H13 H 0.0069 0.0002 0.2318
H14 H -0.0435 -0.0671 0.3176
loop_
_geom_bond_atom_site_label_1
_geom_bond_atom_site_label_2
_geom_bond_site_symmetry_1
_geom_bond_site_symmetry_2
O1 C1 1_555 1_555
C1 C2 1_555 1_555
C2 C3 1_555 1_555
C3 C4 1_555 1_555
C4 C5 1_555 1_555
C5 C6 1_555 1_555
C6 C1 1_555 1_555
C7 C2 1_555 1_555
C8 C7 1_555 1_555
C9 C8 1_555 1_555
C10 C9 1_555 1_555
C11 C10 1_555 1_555
C12 C11 1_555 1_555
C13 C12 1_555 1_555
C14 O1 1_555 1_555
C15 C13 1_555 1_555
C16 C15 1_555 1_555
C17 C6 1_555 1_555
O2 C16 1_555 1_555
H1 C3 1_555 1_555
H2 C4 1_555 1_555
H3 C5 1_555 1_555
H4 C7 1_555 1_555
H5 C7 1_555 1_555
H6 C8 1_555 1_555
H7 C8 1_555 1_555
H8 C10 1_555 1_555
H9 C11 1_555 1_555
H10 C12 1_555 1_555
H11 C15 1_555 1_555
H12 C15 1_555 1_555
H13 C17 1_555 1_555
H14 C17 1_555 1_555
C9 C14 1_555 1_555
C13 C14 1_555 1_555
C16 C17 1_555 1_555

#END
