
#######################################################################
#
#                 Cambridge Crystallographic Data Centre
#                                CCDC 
#
#######################################################################
#
# If this CIF has been generated from an entry in the Cambridge 
# Structural Database, then it will include bibliographic, chemical, 
# crystal, experimental, refinement or atomic coordinate data resulting 
# from the CCDC's data processing and validation procedures.
#
#######################################################################

data_VUFKAK
_chemical_formula_moiety         'C32 H44 B2 Ba1 N4 O3 S4'
_chemical_name_systematic        
bis(dihydridobis(2-sulfanylidenepyridin-1(2H)-yl)borato)-tris(tetrahydrofuran)-barium
_symmetry_cell_setting           monoclinic
_symmetry_space_group_name_H-M   'P 21/c'
_symmetry_Int_Tables_number      14
_space_group_name_Hall           '-P 2ybc'
loop_
_symmetry_equiv_pos_site_id
_symmetry_equiv_pos_as_xyz
1 x,y,z
2 -x,1/2+y,1/2-z
3 -x,-y,-z
4 x,1/2-y,1/2+z
_cell_length_a                   13.7544(7)
_cell_length_b                   17.7876(6)
_cell_length_c                   20.3426(6)
_cell_angle_alpha                90
_cell_angle_beta                 132.543(2)
_cell_angle_gamma                90
_cell_volume                     3666.89
_exptl_crystal_colour            yellow
_exptl_crystal_description       block
_cell_formula_units_Z            4
loop_
_atom_site_label
_atom_site_type_symbol
_atom_site_fract_x
_atom_site_fract_y
_atom_site_fract_z
Ba1 Ba 0.25230(2) -0.23828(2) 0.25346(2)
S1 S 0.51284(10) -0.21570(7) 0.28106(8)
S2 S 0.20800(11) -0.06637(7) 0.29623(8)
S3 S 0.39769(11) -0.41333(7) 0.31118(8)
S4 S 0.05661(11) -0.26435(7) 0.28994(8)
B1 B 0.3802(4) -0.0647(3) 0.2467(4)
H1 H 0.4065 -0.0583 0.2132
H2 H 0.3171 -0.1056 0.2197
B2 B 0.1232(5) -0.4136(3) 0.2545(4)
H3 H 0.0292 -0.4194 0.2191
H4 H 0.1357 -0.3730 0.2289
N1 N 0.5046(3) -0.0857(2) 0.3457(2)
N2 N 0.3128(3) 0.0088(2) 0.2405(2)
N3 N 0.1799(3) -0.48727(18) 0.2518(2)
N4 N 0.1955(3) -0.3931(2) 0.3554(2)
O1 O 0.4293(3) -0.2347(2) 0.43424(15)
O2 O 0.1765(3) -0.2958(2) 0.09668(19)
O3 O 0.0105(3) -0.1777(2) 0.10306(19)
C1 C 0.5500(4) -0.0378(3) 0.4135(3)
H5 H 0.4987 0.0036 0.4012
C2 C 0.6683(4) -0.0481(3) 0.4991(3)
H6 H 0.6973 -0.0146 0.5443
C3 C 0.7430(5) -0.1101(3) 0.5158(3)
H7 H 0.8246 -0.1181 0.5728
C4 C 0.6973(4) -0.1593(3) 0.4493(3)
H8 H 0.7490 -0.2003 0.4612
C5 C 0.5730(4) -0.1493(3) 0.3624(3)
C6 C 0.3338(4) 0.0728(3) 0.2136(3)
H9 H 0.3941 0.0710 0.2068
C7 C 0.2695(4) 0.1390(3) 0.1966(3)
H10 H 0.2847 0.1815 0.1780
C8 C 0.1806(4) 0.1405(3) 0.2082(3)
H11 H 0.1340 0.1843 0.1963
C9 C 0.1620(4) 0.0781(3) 0.2370(3)
H12 H 0.1030 0.0804 0.2450
C10 C 0.2290(4) 0.0097(2) 0.2552(3)
C11 C 0.2968(4) -0.4898(2) 0.2699(3)
C12 C 0.3296(4) -0.5587(2) 0.2547(3)
H13 H 0.4057 -0.5614 0.2640
C13 C 0.2545(4) -0.6209(3) 0.2271(3)
H14 H 0.2793 -0.6654 0.2179
C14 C 0.1384(4) -0.6184(3) 0.2122(3)
H15 H 0.0860 -0.6608 0.1944
C15 C 0.1073(4) -0.5514(3) 0.2252(3)
H16 H 0.0308 -0.5488 0.2154
C16 C 0.2850(4) -0.4406(3) 0.4240(3)
H17 H 0.3140 -0.4816 0.4129
C17 C 0.3347(5) -0.4305(3) 0.5093(3)
H18 H 0.3977 -0.4632 0.5550
C18 C 0.2889(5) -0.3707(3) 0.5255(3)
H19 H 0.3176 -0.3638 0.5816
C19 C 0.2012(4) -0.3220(3) 0.4578(3)
H20 H 0.1702 -0.2819 0.4687
C20 C 0.1555(4) -0.3303(3) 0.3716(3)
C21 C 0.5430(4) -0.2830(3) 0.4924(3)
H21 H 0.5923 -0.2845 0.4741
H22 H 0.5165 -0.3338 0.4916
C22 C 0.6263(5) -0.2486(4) 0.5853(4)
H23 H 0.6770 -0.2867 0.6315
H24 H 0.6857 -0.2105 0.5956
C23 C 0.5227(5) -0.2148(4) 0.5817(3)
H25 H 0.5589 -0.1743 0.6246
H26 H 0.4846 -0.2524 0.5931
C24 C 0.4216(4) -0.1855(3) 0.4869(3)
H27 H 0.3338 -0.1868 0.4657
H28 H 0.4419 -0.1342 0.4836
C25 C 0.0440(5) -0.3225(3) 0.0295(3)
H29 H 0.0016 -0.3000 -0.0279
H30 H -0.0073 -0.3107 0.0449
C26 C 0.0566(6) -0.4056(3) 0.0268(4)
H31 H -0.0200 -0.4264 -0.0303
H32 H 0.0680 -0.4306 0.0740
C27 C 0.1783(6) -0.4127(4) 0.0406(5)
H33 H 0.2258 -0.4586 0.0725
H34 H 0.1558 -0.4126 -0.0160
C28 C 0.2587(5) -0.3449(3) 0.0949(3)
H35 H 0.3363 -0.3597 0.1551
H36 H 0.2871 -0.3191 0.0683
C29 C 0.0017(5) -0.1197(4) 0.0490(3)
H37 H -0.0255 -0.1413 -0.0050
H38 H 0.0867 -0.0956 0.0819
C30 C -0.0983(5) -0.0638(3) 0.0266(3)
H39 H -0.1423 -0.0393 -0.0300
H40 H -0.0586 -0.0260 0.0729
C31 C -0.1925(5) -0.1141(3) 0.0217(3)
H41 H -0.2447 -0.0855 0.0291
H42 H -0.2509 -0.1416 -0.0341
C32 C -0.0974(4) -0.1658(3) 0.0995(3)
H43 H -0.0654 -0.1430 0.1544
H44 H -0.1398 -0.2131 0.0909
loop_
_geom_bond_atom_site_label_1
_geom_bond_atom_site_label_2
_geom_bond_site_symmetry_1
_geom_bond_site_symmetry_2
Ba1 S1 1_555 1_555
S1 C5 1_555 1_555
S2 Ba1 1_555 1_555
S3 Ba1 1_555 1_555
S4 Ba1 1_555 1_555
B1 H1 1_555 1_555
H2 Ba1 1_555 1_555
B2 H3 1_555 1_555
H4 Ba1 1_555 1_555
N1 B1 1_555 1_555
N2 B1 1_555 1_555
N3 B2 1_555 1_555
N4 B2 1_555 1_555
O1 Ba1 1_555 1_555
O2 Ba1 1_555 1_555
O3 Ba1 1_555 1_555
C1 N1 1_555 1_555
H5 C1 1_555 1_555
C2 C1 1_555 1_555
H6 C2 1_555 1_555
C3 C2 1_555 1_555
H7 C3 1_555 1_555
C4 C3 1_555 1_555
H8 C4 1_555 1_555
C5 N1 1_555 1_555
C6 N2 1_555 1_555
H9 C6 1_555 1_555
C7 C6 1_555 1_555
H10 C7 1_555 1_555
C8 C7 1_555 1_555
H11 C8 1_555 1_555
C9 C8 1_555 1_555
H12 C9 1_555 1_555
C10 S2 1_555 1_555
C11 S3 1_555 1_555
C12 C11 1_555 1_555
H13 C12 1_555 1_555
C13 C12 1_555 1_555
H14 C13 1_555 1_555
C14 C13 1_555 1_555
H15 C14 1_555 1_555
C15 N3 1_555 1_555
H16 C15 1_555 1_555
C16 N4 1_555 1_555
H17 C16 1_555 1_555
C17 C16 1_555 1_555
H18 C17 1_555 1_555
C18 C17 1_555 1_555
H19 C18 1_555 1_555
C19 C18 1_555 1_555
H20 C19 1_555 1_555
C20 S4 1_555 1_555
C21 O1 1_555 1_555
H21 C21 1_555 1_555
H22 C21 1_555 1_555
C22 C21 1_555 1_555
H23 C22 1_555 1_555
H24 C22 1_555 1_555
C23 C22 1_555 1_555
H25 C23 1_555 1_555
H26 C23 1_555 1_555
C24 O1 1_555 1_555
H27 C24 1_555 1_555
H28 C24 1_555 1_555
C25 O2 1_555 1_555
H29 C25 1_555 1_555
H30 C25 1_555 1_555
C26 C25 1_555 1_555
H31 C26 1_555 1_555
H32 C26 1_555 1_555
C27 C26 1_555 1_555
H33 C27 1_555 1_555
H34 C27 1_555 1_555
C28 O2 1_555 1_555
H35 C28 1_555 1_555
H36 C28 1_555 1_555
C29 O3 1_555 1_555
H37 C29 1_555 1_555
H38 C29 1_555 1_555
C30 C29 1_555 1_555
H39 C30 1_555 1_555
H40 C30 1_555 1_555
C31 C30 1_555 1_555
H41 C31 1_555 1_555
H42 C31 1_555 1_555
C32 O3 1_555 1_555
H43 C32 1_555 1_555
H44 C32 1_555 1_555
B1 H2 1_555 1_555
B2 H4 1_555 1_555
N2 C10 1_555 1_555
N3 C11 1_555 1_555
N4 C20 1_555 1_555
C4 C5 1_555 1_555
C9 C10 1_555 1_555
C14 C15 1_555 1_555
C19 C20 1_555 1_555
C23 C24 1_555 1_555
C27 C28 1_555 1_555
C31 C32 1_555 1_555

#END
