
#######################################################################
#
#                 Cambridge Crystallographic Data Centre
#                                CCDC 
#
#######################################################################
#
# If this CIF has been generated from an entry in the Cambridge 
# Structural Database, then it will include bibliographic, chemical, 
# crystal, experimental, refinement or atomic coordinate data resulting 
# from the CCDC's data processing and validation procedures.
#
#######################################################################

data_VUFMAM
_chemical_formula_moiety         'C26 H18 Br2 N2'
_chemical_name_systematic        
N,N'-bis(4-bromophenyl)anthracene-9,10-diamine
_symmetry_cell_setting           monoclinic
_symmetry_space_group_name_H-M   'P 21/n'
_symmetry_Int_Tables_number      14
_space_group_name_Hall           '-P 2yn'
loop_
_symmetry_equiv_pos_site_id
_symmetry_equiv_pos_as_xyz
1 x,y,z
2 1/2-x,1/2+y,1/2-z
3 -x,-y,-z
4 1/2+x,1/2-y,1/2+z
_cell_length_a                   12.3156(17)
_cell_length_b                   4.917(2)
_cell_length_c                   18.676(3)
_cell_angle_alpha                90
_cell_angle_beta                 108.731(12)
_cell_angle_gamma                90
_cell_volume                     1071.04
_exptl_crystal_colour            yellow
_exptl_crystal_description       needle
_cell_formula_units_Z            2
loop_
_atom_site_label
_atom_site_type_symbol
_atom_site_fract_x
_atom_site_fract_y
_atom_site_fract_z
H1 H 0.537(5) 0.053(12) 0.193(4)
H2 H 0.685(5) 0.399(11) 0.244(4)
C1 C 0.0935(5) -0.0434(15) 0.1310(4)
C2 C 0.1277(5) 0.0889(14) 0.0779(4)
H3 H 0.083 0.2281 0.0495
C3 C 0.2283(5) 0.0162(12) 0.0665(4)
H4 H 0.2499 0.1044 0.0291
C4 C 0.2981(4) -0.1832(11) 0.1086(3)
C5 C 0.2615(5) -0.3180(13) 0.1618(3)
H5 H 0.3059 -0.4577 0.19
C6 C 0.1608(5) -0.2489(14) 0.1734(3)
H6 H 0.1377 -0.3398 0.2097
C7 C 0.4488(4) -0.1254(10) 0.0492(3)
C8 C 0.5875(4) 0.2001(11) 0.0279(3)
C9 C 0.5354(4) 0.0708(11) 0.0775(3)
C10 C 0.5720(5) 0.1568(13) 0.1556(3)
C11 C 0.6737(5) 0.3954(11) 0.0572(4)
H7 H 0.7086 0.4767 0.0253
C12 C 0.7068(5) 0.4672(13) 0.1312(4)
H8 H 0.7641 0.5968 0.1494
C13 C 0.6557(5) 0.3482(14) 0.1804(4)
Br1 Br -0.04396(7) 0.0618(2) 0.14868(5)
N1 N 0.4011(3) -0.2599(10) 0.0992(2)
H9 H 0.4377 -0.3955 0.1249
H1B H 0.463(5) -0.053(12) -0.193(4)
H2B H 0.315(5) -0.399(11) -0.244(4)
C1B C 0.9065(5) 0.0434(15) -0.1310(4)
C2B C 0.8723(5) -0.0889(14) -0.0779(4)
H3B H 0.917 -0.2281 -0.0495
C3B C 0.7717(5) -0.0162(12) -0.0665(4)
H4B H 0.7501 -0.1044 -0.0291
C4B C 0.7019(4) 0.1832(11) -0.1086(3)
C5B C 0.7385(5) 0.3180(13) -0.1618(3)
H5B H 0.6941 0.4577 -0.19
C6B C 0.8392(5) 0.2489(14) -0.1734(3)
H6B H 0.8623 0.3398 -0.2097
C7B C 0.5512(4) 0.1254(10) -0.0492(3)
C8B C 0.4125(4) -0.2001(11) -0.0279(3)
C9B C 0.4646(4) -0.0708(11) -0.0775(3)
C10B C 0.4280(5) -0.1568(13) -0.1556(3)
C11B C 0.3263(5) -0.3954(11) -0.0572(4)
H7B H 0.2914 -0.4767 -0.0253
C12B C 0.2932(5) -0.4672(13) -0.1312(4)
H8B H 0.2359 -0.5968 -0.1494
C13B C 0.3443(5) -0.3482(14) -0.1804(4)
Br1B Br 1.04396(7) -0.0618(2) -0.14868(5)
N1B N 0.5989(3) 0.2599(10) -0.0992(2)
H9B H 0.5623 0.3955 -0.1249
loop_
_geom_bond_atom_site_label_1
_geom_bond_atom_site_label_2
_geom_bond_site_symmetry_1
_geom_bond_site_symmetry_2
H1 C10 1_555 1_555
H2 C13 1_555 1_555
C1 C2 1_555 1_555
C2 H3 1_555 1_555
C3 C2 1_555 1_555
H4 C3 1_555 1_555
C4 C3 1_555 1_555
C5 C4 1_555 1_555
H5 C5 1_555 1_555
C6 C1 1_555 1_555
H6 C6 1_555 1_555
C7 C9 1_555 1_555
C8 C9 1_555 1_555
C9 C10 1_555 1_555
C10 C13 1_555 1_555
C11 C8 1_555 1_555
H7 C11 1_555 1_555
C12 C11 1_555 1_555
H8 C12 1_555 1_555
C13 C12 1_555 1_555
Br1 C1 1_555 1_555
N1 C4 1_555 1_555
H9 N1 1_555 1_555
H1B C10B 1_555 1_555
H2B C13B 1_555 1_555
C1B C2B 1_555 1_555
C2B H3B 1_555 1_555
C3B C2B 1_555 1_555
H4B C3B 1_555 1_555
C4B C3B 1_555 1_555
C5B C4B 1_555 1_555
H5B C5B 1_555 1_555
C6B C1B 1_555 1_555
H6B C6B 1_555 1_555
C7B C8 1_555 1_555
C8B C7 1_555 1_555
C9B C7B 1_555 1_555
C10B C9B 1_555 1_555
C11B C8B 1_555 1_555
H7B C11B 1_555 1_555
C12B C11B 1_555 1_555
H8B C12B 1_555 1_555
C13B C10B 1_555 1_555
Br1B C1B 1_555 1_555
N1B C4B 1_555 1_555
H9B N1B 1_555 1_555
C5 C6 1_555 1_555
C7 N1 1_555 1_555
C5B C6B 1_555 1_555
C7B N1B 1_555 1_555
C8B C9B 1_555 1_555
C12B C13B 1_555 1_555

#END
