
#######################################################################
#
#                 Cambridge Crystallographic Data Centre
#                                CCDC 
#
#######################################################################
#
# If this CIF has been generated from an entry in the Cambridge 
# Structural Database, then it will include bibliographic, chemical, 
# crystal, experimental, refinement or atomic coordinate data resulting 
# from the CCDC's data processing and validation procedures.
#
#######################################################################

data_VUGKUE
_chemical_formula_moiety         'C10 H9 Cl1 N2'
_chemical_name_systematic        7-Chloro-N-methylquinolin-4-amine
_symmetry_cell_setting           monoclinic
_symmetry_space_group_name_H-M   'P 21/c'
_symmetry_Int_Tables_number      14
_space_group_name_Hall           '-P 2ybc'
loop_
_symmetry_equiv_pos_site_id
_symmetry_equiv_pos_as_xyz
1 x,y,z
2 -x,1/2+y,1/2-z
3 -x,-y,-z
4 x,1/2-y,1/2+z
_cell_length_a                   4.6812(9)
_cell_length_b                   14.097(4)
_cell_length_c                   13.296(3)
_cell_angle_alpha                90
_cell_angle_beta                 99.967(7)
_cell_angle_gamma                90
_cell_volume                     864.172
_exptl_crystal_colour            colorless
_exptl_crystal_description       prism
_cell_formula_units_Z            4
loop_
_atom_site_label
_atom_site_type_symbol
_atom_site_fract_x
_atom_site_fract_y
_atom_site_fract_z
Cl1 Cl -0.26339(7) 0.00704(2) 0.16963(2)
N1 N 0.4746(2) 0.26600(8) 0.27981(8)
N2 N 0.5480(2) 0.33684(8) -0.02331(8)
H1 H 0.4955 0.2958 -0.0729
C1 C 0.6483(3) 0.33382(9) 0.25677(9)
H2 H 0.7596 0.3672 0.3122
C2 C 0.6826(3) 0.36077(9) 0.15840(9)
H3 H 0.8106 0.4110 0.1491
C3 C 0.5285(3) 0.31360(8) 0.07426(9)
C4 C 0.3342(3) 0.23931(8) 0.09471(9)
C5 C 0.1584(3) 0.18721(9) 0.01650(9)
H4 H 0.1684 0.2005 -0.0529
C6 C -0.0266(3) 0.11784(9) 0.03904(9)
H5 H -0.1461 0.0839 -0.0140
C7 C -0.0360(3) 0.09789(9) 0.14211(10)
C8 C 0.1290(3) 0.14623(9) 0.22017(9)
H6 H 0.1177 0.1312 0.2890
C9 C 0.3172(3) 0.21895(9) 0.19809(9)
C10 C 0.7517(3) 0.40802(9) -0.04607(10)
H7 H 0.7147 0.4681 -0.0136
H8 H 0.7277 0.4170 -0.1202
H9 H 0.9501 0.3870 -0.0198
loop_
_geom_bond_atom_site_label_1
_geom_bond_atom_site_label_2
_geom_bond_site_symmetry_1
_geom_bond_site_symmetry_2
Cl1 C7 1_555 1_555
N1 C1 1_555 1_555
N2 H1 1_555 1_555
C1 H2 1_555 1_555
C2 C1 1_555 1_555
H3 C2 1_555 1_555
C3 N2 1_555 1_555
C4 C3 1_555 1_555
C5 C4 1_555 1_555
H4 C5 1_555 1_555
C6 C5 1_555 1_555
H5 C6 1_555 1_555
C7 C6 1_555 1_555
C8 C7 1_555 1_555
H6 C8 1_555 1_555
C9 N1 1_555 1_555
C10 N2 1_555 1_555
H7 C10 1_555 1_555
H8 C10 1_555 1_555
H9 C10 1_555 1_555
C2 C3 1_555 1_555
C4 C9 1_555 1_555
C8 C9 1_555 1_555

#END
