
#######################################################################
#
#                 Cambridge Crystallographic Data Centre
#                                CCDC 
#
#######################################################################
#
# If this CIF has been generated from an entry in the Cambridge 
# Structural Database, then it will include bibliographic, chemical, 
# crystal, experimental, refinement or atomic coordinate data resulting 
# from the CCDC's data processing and validation procedures.
#
#######################################################################

data_VUGLUF
_chemical_formula_moiety         'C11 H11 Cl1 N2 O1'
_chemical_name_systematic        2-((7-Chloroquinolin-4-yl)amino)ethanol
_symmetry_cell_setting           monoclinic
_symmetry_space_group_name_H-M   'P 21/n'
_symmetry_Int_Tables_number      14
_space_group_name_Hall           '-P 2yn'
loop_
_symmetry_equiv_pos_site_id
_symmetry_equiv_pos_as_xyz
1 x,y,z
2 1/2-x,1/2+y,1/2-z
3 -x,-y,-z
4 1/2+x,1/2-y,1/2+z
_cell_length_a                   4.5721(1)
_cell_length_b                   14.8383(6)
_cell_length_c                   14.8932(6)
_cell_angle_alpha                90
_cell_angle_beta                 93.546(3)
_cell_angle_gamma                90
_cell_volume                     1008.45
_exptl_crystal_colour            colorless
_exptl_crystal_description       rod
_cell_formula_units_Z            4
loop_
_atom_site_label
_atom_site_type_symbol
_atom_site_fract_x
_atom_site_fract_y
_atom_site_fract_z
Cl1 Cl 1.08404(11) 0.09498(4) 0.42344(3)
O1 O -0.0263(3) 0.05329(9) -0.09674(9)
H1 H -0.0115 0.0863 -0.1421
N1 N 0.4712(4) 0.33259(11) 0.25709(11)
N2 N 0.0711(3) 0.14634(11) 0.07666(11)
H2 H 0.0755 0.0887 0.0904
C1 C 0.2803(4) 0.35592(13) 0.19085(13)
H3 H 0.2329 0.4181 0.1854
C2 C 0.1430(4) 0.29777(13) 0.12867(13)
H4 H 0.0105 0.3205 0.0825
C3 C 0.2009(4) 0.20630(12) 0.13447(12)
C4 C 0.4151(4) 0.17727(12) 0.20328(12)
C5 C 0.5080(4) 0.08725(13) 0.21360(13)
H5 H 0.4266 0.0428 0.1735
C6 C 0.7115(4) 0.06206(13) 0.27956(13)
H6 H 0.7711 0.0009 0.2856
C7 C 0.8310(4) 0.12808(13) 0.33829(12)
C8 C 0.7517(4) 0.21577(13) 0.33010(12)
H7 H 0.8384 0.2592 0.3704
C9 C 0.5416(4) 0.24313(13) 0.26232(12)
C10 C -0.1488(4) 0.17288(13) 0.00730(12)
H8 H -0.0654 0.2183 -0.0325
H9 H -0.3178 0.2005 0.0354
C11 C -0.2501(4) 0.09223(13) -0.04726(13)
H10 H -0.3246 0.0461 -0.0064
H11 H -0.4148 0.1105 -0.0897
loop_
_geom_bond_atom_site_label_1
_geom_bond_atom_site_label_2
_geom_bond_site_symmetry_1
_geom_bond_site_symmetry_2
Cl1 C7 1_555 1_555
O1 H1 1_555 1_555
N1 C1 1_555 1_555
N2 H2 1_555 1_555
C1 H3 1_555 1_555
C2 C1 1_555 1_555
H4 C2 1_555 1_555
C3 N2 1_555 1_555
C4 C3 1_555 1_555
C5 C4 1_555 1_555
H5 C5 1_555 1_555
C6 C5 1_555 1_555
H6 C6 1_555 1_555
C7 C6 1_555 1_555
C8 C7 1_555 1_555
H7 C8 1_555 1_555
C9 N1 1_555 1_555
C10 N2 1_555 1_555
H8 C10 1_555 1_555
H9 C10 1_555 1_555
C11 O1 1_555 1_555
H10 C11 1_555 1_555
H11 C11 1_555 1_555
C2 C3 1_555 1_555
C4 C9 1_555 1_555
C8 C9 1_555 1_555
C10 C11 1_555 1_555

#END
