
#######################################################################
#
#                 Cambridge Crystallographic Data Centre
#                                CCDC 
#
#######################################################################
#
# If this CIF has been generated from an entry in the Cambridge 
# Structural Database, then it will include bibliographic, chemical, 
# crystal, experimental, refinement or atomic coordinate data resulting 
# from the CCDC's data processing and validation procedures.
#
#######################################################################

data_VUGMAM
_chemical_formula_moiety         'C13 H15 Cl1 N2 O1'
_chemical_name_systematic        2-((7-Chloroquinolin-4-yl)amino)butan-1-ol
_symmetry_cell_setting           monoclinic
_symmetry_space_group_name_H-M   'P 21/c'
_symmetry_Int_Tables_number      14
_space_group_name_Hall           '-P 2ybc'
loop_
_symmetry_equiv_pos_site_id
_symmetry_equiv_pos_as_xyz
1 x,y,z
2 -x,1/2+y,1/2-z
3 -x,-y,-z
4 x,1/2-y,1/2+z
_cell_length_a                   8.9290(3)
_cell_length_b                   15.0394(5)
_cell_length_c                   9.2127(2)
_cell_angle_alpha                90
_cell_angle_beta                 105.198(2)
_cell_angle_gamma                90
_cell_volume                     1193.88
_exptl_crystal_colour            colorless
_exptl_crystal_description       block
_cell_formula_units_Z            4
loop_
_atom_site_label
_atom_site_type_symbol
_atom_site_fract_x
_atom_site_fract_y
_atom_site_fract_z
Cl1 Cl -0.12317(4) 0.57665(3) 0.08343(4)
O1 O 0.53589(12) 0.14003(7) 0.88664(12)
H1 H 0.6315 0.1511 0.9121
N1 N -0.14597(14) 0.33202(9) 0.45916(14)
N2 N 0.34189(14) 0.31236(9) 0.60869(14)
H2 H 0.3953 0.3375 0.5520
C1 C -0.07401(18) 0.27812(10) 0.56941(17)
H3 H -0.1374 0.2427 0.6148
C2 C 0.08618(17) 0.26873(10) 0.62469(16)
H4 H 0.1277 0.2280 0.7038
C3 C 0.18478(16) 0.31932(10) 0.56345(16)
C4 C 0.11285(16) 0.38219(9) 0.44795(15)
C5 C 0.19864(17) 0.44408(10) 0.38554(17)
H5 H 0.3087 0.4446 0.4199
C6 C 0.12585(18) 0.50299(10) 0.27686(17)
H6 H 0.1848 0.5443 0.2366
C7 C -0.03687(17) 0.50198(10) 0.22506(16)
C8 C -0.12511(17) 0.44530(10) 0.28400(16)
H7 H -0.2350 0.4464 0.2483
C9 C -0.05184(16) 0.38477(9) 0.39882(16)
C10 C 0.42806(17) 0.27641(10) 0.75468(17)
H8 H 0.3598 0.2805 0.8248
C11 C 0.46973(17) 0.17824(10) 0.74232(17)
H9 H 0.3751 0.1448 0.6914
H10 H 0.5445 0.1732 0.6802
C12 C 0.57109(18) 0.33371(11) 0.81834(18)
H11 H 0.6318 0.3073 0.9142
H12 H 0.6371 0.3331 0.7472
C13 C 0.5320(2) 0.42974(11) 0.8465(2)
H13 H 0.6282 0.4632 0.8867
H14 H 0.4692 0.4311 0.9191
H15 H 0.4736 0.4567 0.7517
loop_
_geom_bond_atom_site_label_1
_geom_bond_atom_site_label_2
_geom_bond_site_symmetry_1
_geom_bond_site_symmetry_2
Cl1 C7 1_555 1_555
O1 H1 1_555 1_555
N1 C1 1_555 1_555
N2 H2 1_555 1_555
C1 H3 1_555 1_555
C2 C1 1_555 1_555
H4 C2 1_555 1_555
C3 N2 1_555 1_555
C4 C3 1_555 1_555
C5 C4 1_555 1_555
H5 C5 1_555 1_555
C6 C5 1_555 1_555
H6 C6 1_555 1_555
C7 C6 1_555 1_555
C8 C7 1_555 1_555
H7 C8 1_555 1_555
C9 N1 1_555 1_555
C10 N2 1_555 1_555
H8 C10 1_555 1_555
C11 O1 1_555 1_555
H9 C11 1_555 1_555
H10 C11 1_555 1_555
C12 C10 1_555 1_555
H11 C12 1_555 1_555
H12 C12 1_555 1_555
C13 C12 1_555 1_555
H13 C13 1_555 1_555
H14 C13 1_555 1_555
H15 C13 1_555 1_555
C2 C3 1_555 1_555
C4 C9 1_555 1_555
C8 C9 1_555 1_555
C10 C11 1_555 1_555

#END
