
#######################################################################
#
#                 Cambridge Crystallographic Data Centre
#                                CCDC 
#
#######################################################################
#
# If this CIF has been generated from an entry in the Cambridge 
# Structural Database, then it will include bibliographic, chemical, 
# crystal, experimental, refinement or atomic coordinate data resulting 
# from the CCDC's data processing and validation procedures.
#
#######################################################################

data_VUGSIB01
_chemical_formula_moiety         'C13 H16 N10 O5 S1'
_chemical_name_systematic        
N-((4,6-dimethoxypyrimidin-2-yl)carbamoyl)-1-methyl-4-(2-methyl-2H-tetrazol-5-yl)-1H-pyrazole-5-sulfonamide
_symmetry_cell_setting           triclinic
_symmetry_space_group_name_H-M   'P -1'
_symmetry_Int_Tables_number      2
_space_group_name_Hall           '-P 1'
loop_
_symmetry_equiv_pos_site_id
_symmetry_equiv_pos_as_xyz
1 x,y,z
2 -x,-y,-z
_cell_length_a                   7.6451(2)
_cell_length_b                   15.1102(4)
_cell_length_c                   17.0314(5)
_cell_angle_alpha                67.1562(18)
_cell_angle_beta                 80.5936(17)
_cell_angle_gamma                84.0996(17)
_cell_volume                     1787.08
_exptl_crystal_colour            colorless
_exptl_crystal_description       needle
_cell_formula_units_Z            4
loop_
_atom_site_label
_atom_site_type_symbol
_atom_site_fract_x
_atom_site_fract_y
_atom_site_fract_z
S1 S 0.29659(8) 0.39202(4) 0.20930(4)
O1 O 0.6095(2) 0.23247(11) 0.66818(10)
O2 O 0.5902(2) 0.10067(11) 0.46454(10)
O3 O 0.2038(2) 0.50940(11) 0.31822(10)
O4 O 0.3602(2) 0.30534(11) 0.19780(11)
O5 O 0.1186(2) 0.42651(12) 0.19829(11)
N1 N 0.4586(3) 0.31656(13) 0.55273(12)
N2 N 0.4580(3) 0.25049(13) 0.44580(12)
N3 N 0.3252(3) 0.40128(13) 0.43281(12)
H1 H 0.2896 0.4405 0.4598
N4 N 0.3313(3) 0.37078(13) 0.30805(12)
H2 H 0.3867 0.3161 0.3356
N5 N 0.3879(3) 0.57663(15) 0.10476(13)
N6 N 0.5224(4) 0.62778(16) 0.05092(15)
N7 N 0.7561(3) 0.31962(15) 0.20532(14)
N8 N 0.8972(3) 0.26823(15) 0.18460(16)
N9 N 0.9657(4) 0.3035(2) 0.10352(18)
N10 N 0.8695(3) 0.3815(2) 0.06687(16)
C1 C 0.5501(4) 0.30726(18) 0.70047(16)
H3 H 0.5859 0.3696 0.6566
H4 H 0.6036 0.2952 0.7524
H5 H 0.4206 0.3078 0.7143
C2 C 0.5514(3) 0.23781(16) 0.59675(15)
C3 C 0.5963(3) 0.16081(16) 0.57120(15)
H6 H 0.6570 0.1042 0.6051
C4 C 0.5473(3) 0.17177(16) 0.49379(15)
C5 C 0.4184(3) 0.31774(16) 0.47966(15)
C6 C 0.5328(4) 0.11182(18) 0.38456(16)
H7 H 0.4032 0.1201 0.3896
H8 H 0.5705 0.0545 0.3715
H9 H 0.5858 0.1684 0.3383
C7 C 0.2806(3) 0.43161(16) 0.35078(15)
C8 C 0.4391(4) 0.48225(17) 0.14203(15)
C9 C 0.6598(4) 0.5660(2) 0.05491(18)
H10 H 0.7736 0.5832 0.0230
C10 C 0.6187(4) 0.47261(18) 0.11140(15)
C11 C 0.2159(4) 0.62701(19) 0.11317(18)
H11 H 0.2286 0.6964 0.0824
H12 H 0.1741 0.6133 0.1741
H13 H 0.1298 0.6050 0.0887
C12 C 0.7435(3) 0.38992(18) 0.12941(16)
C13 C 0.9717(4) 0.1819(2) 0.2470(2)
H14 H 0.9361 0.1250 0.2404
H15 H 0.9277 0.1791 0.3053
H16 H 1.1015 0.1837 0.2374
S2 S 1.16721(9) 0.10185(4) 0.78289(4)
O6 O 0.7598(2) 0.48627(11) 0.37801(10)
O7 O 1.0204(2) 0.17015(12) 0.45730(11)
O8 O 1.0811(2) 0.30423(11) 0.75749(11)
O9 O 1.1625(2) 0.01909(11) 0.76253(12)
O10 O 1.3265(2) 0.12288(12) 0.80359(12)
N11 N 0.8673(3) 0.41362(13) 0.50271(12)
N12 N 1.0024(3) 0.25495(13) 0.54475(12)
N13 N 0.9852(3) 0.34673(13) 0.62868(12)
H17 H 0.9551 0.4035 0.6311
N14 N 1.1044(3) 0.19100(13) 0.69852(12)
H18 H 1.0987 0.1805 0.6517
N15 N 1.0132(3) 0.13158(14) 0.92857(13)
N16 N 0.8644(3) 0.11937(15) 0.98511(14)
N17 N 0.6174(3) -0.04932(14) 0.89155(12)
N18 N 0.5689(3) -0.07811(14) 0.83420(13)
N19 N 0.6566(3) -0.03852(15) 0.75612(13)
N20 N 0.7690(3) 0.01978(15) 0.76081(13)
C14 C 0.7391(4) 0.49082(18) 0.29395(15)
H19 H 0.8562 0.4869 0.2617
H20 H 0.6774 0.5516 0.2631
H21 H 0.6697 0.4370 0.2998
C15 C 0.8417(3) 0.40702(16) 0.42896(15)
C16 C 0.8940(3) 0.32688(17) 0.40905(16)
H22 H 0.8781 0.3240 0.3560
C17 C 0.9710(3) 0.25142(17) 0.47177(16)
C18 C 0.9502(3) 0.33713(16) 0.55572(15)
C19 C 1.0937(4) 0.09138(17) 0.52594(18)
H23 H 1.1971 0.1126 0.5401
H24 H 1.1298 0.0376 0.5074
H25 H 1.0038 0.0706 0.5768
C20 C 1.0601(3) 0.28177(16) 0.69881(16)
C21 C 0.9977(3) 0.09825(16) 0.86629(15)
C22 C 0.7537(4) 0.07751(18) 0.95834(16)
H26 H 0.6371 0.0604 0.9865
C23 C 0.8294(4) 0.06179(17) 0.88397(16)
C24 C 1.1580(4) 0.17922(19) 0.94119(18)
H27 H 1.1204 0.1980 0.9906
H28 H 1.1880 0.2365 0.8895
H29 H 1.2623 0.1349 0.9519
C25 C 0.7428(3) 0.01230(16) 0.84415(15)
C26 C 0.4366(4) -0.14953(17) 0.85757(17)
H30 H 0.4199 -0.1609 0.8065
H31 H 0.3240 -0.1263 0.8811
H32 H 0.4767 -0.2097 0.9009
loop_
_geom_bond_atom_site_label_1
_geom_bond_atom_site_label_2
_geom_bond_site_symmetry_1
_geom_bond_site_symmetry_2
S1 O4 1_555 1_555
O1 C1 1_555 1_555
O2 C4 1_555 1_555
O3 C7 1_555 1_555
O5 S1 1_555 1_555
N1 C2 1_555 1_555
N2 C4 1_555 1_555
N3 H1 1_555 1_555
N4 S1 1_555 1_555
H2 N4 1_555 1_555
N5 N6 1_555 1_555
N6 C9 1_555 1_555
N7 N8 1_555 1_555
N8 N9 1_555 1_555
N9 N10 1_555 1_555
N10 C12 1_555 1_555
C1 H3 1_555 1_555
H4 C1 1_555 1_555
H5 C1 1_555 1_555
C2 O1 1_555 1_555
C3 C2 1_555 1_555
H6 C3 1_555 1_555
C4 C3 1_555 1_555
C5 N1 1_555 1_555
C6 O2 1_555 1_555
H7 C6 1_555 1_555
H8 C6 1_555 1_555
H9 C6 1_555 1_555
C7 N3 1_555 1_555
C8 S1 1_555 1_555
C9 H10 1_555 1_555
C10 C8 1_555 1_555
C11 N5 1_555 1_555
H11 C11 1_555 1_555
H12 C11 1_555 1_555
H13 C11 1_555 1_555
C12 N7 1_555 1_555
C13 N8 1_555 1_555
H14 C13 1_555 1_555
H15 C13 1_555 1_555
H16 C13 1_555 1_555
S2 O9 1_555 1_555
O6 C14 1_555 1_555
O7 C17 1_555 1_555
O8 C20 1_555 1_555
O10 S2 1_555 1_555
N11 C15 1_555 1_555
N12 C17 1_555 1_555
N13 H17 1_555 1_555
N14 S2 1_555 1_555
H18 N14 1_555 1_555
N15 N16 1_555 1_555
N16 C22 1_555 1_555
N17 N18 1_555 1_555
N18 N19 1_555 1_555
N19 N20 1_555 1_555
N20 C25 1_555 1_555
C14 H19 1_555 1_555
H20 C14 1_555 1_555
H21 C14 1_555 1_555
C15 O6 1_555 1_555
C16 C15 1_555 1_555
H22 C16 1_555 1_555
C17 C16 1_555 1_555
C18 N11 1_555 1_555
C19 O7 1_555 1_555
H23 C19 1_555 1_555
H24 C19 1_555 1_555
H25 C19 1_555 1_555
C20 N13 1_555 1_555
C21 S2 1_555 1_555
C22 H26 1_555 1_555
C23 C21 1_555 1_555
C24 N15 1_555 1_555
H27 C24 1_555 1_555
H28 C24 1_555 1_555
H29 C24 1_555 1_555
C25 N17 1_555 1_555
C26 N18 1_555 1_555
H30 C26 1_555 1_555
H31 C26 1_555 1_555
H32 C26 1_555 1_555
N2 C5 1_555 1_555
N3 C5 1_555 1_555
N4 C7 1_555 1_555
N5 C8 1_555 1_555
C9 C10 1_555 1_555
C10 C12 1_555 1_555
N12 C18 1_555 1_555
N13 C18 1_555 1_555
N14 C20 1_555 1_555
N15 C21 1_555 1_555
C22 C23 1_555 1_555
C23 C25 1_555 1_555

#END
