
#######################################################################
#
#                 Cambridge Crystallographic Data Centre
#                                CCDC 
#
#######################################################################
#
# If this CIF has been generated from an entry in the Cambridge 
# Structural Database, then it will include bibliographic, chemical, 
# crystal, experimental, refinement or atomic coordinate data resulting 
# from the CCDC's data processing and validation procedures.
#
#######################################################################

data_VUHQAS
_chemical_formula_moiety         'C13 H12 Br1 Cl1 N2 O2 S1'
_chemical_name_systematic        
(R)-5-bromo-2-chloro-N-(1-phenylethyl)pyridine-3-sulfonamide
_symmetry_cell_setting           monoclinic
_symmetry_space_group_name_H-M   'P 21'
_symmetry_Int_Tables_number      4
_space_group_name_Hall           'P 2yb'
loop_
_symmetry_equiv_pos_site_id
_symmetry_equiv_pos_as_xyz
1 x,y,z
2 -x,1/2+y,-z
_cell_length_a                   9.0403(6)
_cell_length_b                   7.4080(5)
_cell_length_c                   11.6060(9)
_cell_angle_alpha                90
_cell_angle_beta                 108.897(2)
_cell_angle_gamma                90
_cell_volume                     735.368
_exptl_crystal_colour            colorless
_cell_formula_units_Z            2
_exptl_crystal_recrystallization_method chloroform
loop_
_atom_site_label
_atom_site_type_symbol
_atom_site_fract_x
_atom_site_fract_y
_atom_site_fract_z
Br1 Br 1.01954(4) 0.71179(6) 0.64119(3)
C1 C 0.7949(3) 0.6925(4) 0.7642(2)
C2 C 0.9446(3) 0.6478(4) 0.7696(2)
C3 C 0.7457(2) 0.6430(3) 0.8609(2)
C4 C 0.8512(3) 0.5494(3) 0.9566(2)
C5 C 0.4117(3) 0.4107(3) 0.7078(2)
C6 C 0.7899(3) 0.1669(4) 0.7294(3)
C7 C 0.6610(3) 0.2265(4) 0.7580(2)
C8 C 0.7030(3) 0.3228(4) 0.5401(3)
C9 C 1.0409(3) 0.5585(4) 0.8692(3)
C10 C 0.5743(3) 0.3861(4) 0.5687(2)
C11 C 0.8125(3) 0.2136(5) 0.6221(3)
C12 C 0.5517(3) 0.3401(3) 0.6772(2)
C13 C 0.2982(4) 0.2588(5) 0.7079(4)
Cl1 Cl 0.79588(8) 0.47135(11) 1.07714(7)
H1 H 0.505(4) 0.465(4) 0.517(3)
H2 H 0.912(3) 0.171(4) 0.606(3)
H3 H 0.735(3) 0.755(4) 0.702(3)
H4 H 0.267(3) 0.206(6) 0.633(3)
H5 H 0.647(3) 0.215(4) 0.828(2)
H6 H 0.217(4) 0.315(5) 0.729(3)
H7 H 0.363(3) 0.505(3) 0.644(2)
H8 H 0.349(4) 0.159(5) 0.776(3)
H9 H 0.462(3) 0.428(4) 0.888(3)
H10 H 0.711(3) 0.356(4) 0.459(3)
H11 H 0.861(4) 0.098(4) 0.784(3)
H12 H 1.147(3) 0.533(4) 0.878(3)
N1 N 0.9943(2) 0.5081(3) 0.9622(2)
N2 N 0.4535(2) 0.5019(3) 0.82777(19)
O1 O 0.5494(2) 0.7548(3) 0.96778(18)
O2 O 0.4866(2) 0.7999(2) 0.74626(19)
S1 S 0.54808(6) 0.69005(8) 0.85183(5)
loop_
_geom_bond_atom_site_label_1
_geom_bond_atom_site_label_2
_geom_bond_site_symmetry_1
_geom_bond_site_symmetry_2
Br1 C2 1_555 1_555
C1 C2 1_555 1_555
C2 C9 1_555 1_555
C3 C1 1_555 1_555
C4 C3 1_555 1_555
C5 C12 1_555 1_555
C6 C7 1_555 1_555
C7 C12 1_555 1_555
C8 C10 1_555 1_555
C9 H12 1_555 1_555
C10 C12 1_555 1_555
C11 C6 1_555 1_555
C13 C5 1_555 1_555
Cl1 C4 1_555 1_555
H1 C10 1_555 1_555
H2 C11 1_555 1_555
H3 C1 1_555 1_555
H4 C13 1_555 1_555
H5 C7 1_555 1_555
H6 C13 1_555 1_555
H7 C5 1_555 1_555
H8 C13 1_555 1_555
H9 N2 1_555 1_555
H10 C8 1_555 1_555
H11 C6 1_555 1_555
N1 C4 1_555 1_555
N2 C5 1_555 1_555
O1 S1 1_555 1_555
O2 S1 1_555 1_555
S1 C3 1_555 1_555
C8 C11 1_555 1_555
C9 N1 1_555 1_555
N2 S1 1_555 1_555

#END
