
#######################################################################
#
#                 Cambridge Crystallographic Data Centre
#                                CCDC 
#
#######################################################################
#
# If this CIF has been generated from an entry in the Cambridge 
# Structural Database, then it will include bibliographic, chemical, 
# crystal, experimental, refinement or atomic coordinate data resulting 
# from the CCDC's data processing and validation procedures.
#
#######################################################################

data_VUHXUT
_chemical_formula_moiety         'C82 H94 N4 O7 S6,2(C3 H6 O1)'
_chemical_name_systematic        
'5,11,17,23-Tetra-t-butyl-25,27-bis(2-([(10-ethyl-10H-phenothiazin-3-yl)methylidene]amino)ethoxy)-26,28-(3,6,9-trioxaundecane-1,11-dioxy)-2,8,14,20-tetrathiacalix(4)arene acetone solvate'
_symmetry_cell_setting           triclinic
_symmetry_space_group_name_H-M   'P -1'
_symmetry_Int_Tables_number      2
_space_group_name_Hall           '-P 1'
loop_
_symmetry_equiv_pos_site_id
_symmetry_equiv_pos_as_xyz
1 x,y,z
2 -x,-y,-z
_cell_length_a                   14.022(5)
_cell_length_b                   17.131(6)
_cell_length_c                   19.380(8)
_cell_angle_alpha                77.854(18)
_cell_angle_beta                 68.929(12)
_cell_angle_gamma                74.264(12)
_cell_volume                     4148.04
_exptl_crystal_colour            colorless
_exptl_crystal_description       prism
_cell_formula_units_Z            2
loop_
_atom_site_label
_atom_site_type_symbol
_atom_site_fract_x
_atom_site_fract_y
_atom_site_fract_z
C1 C 0.3954(6) 0.2708(4) 0.9292(4)
H1 H 0.3402 0.2876 0.9099
C2 C 0.3814(8) 0.2862(6) 1.0004(5)
H2 H 0.3158 0.3127 1.0283
C3 C 0.4599(9) 0.2639(6) 1.0306(5)
H3 H 0.4482 0.2759 1.0780
C4 C 0.5581(7) 0.2228(5) 0.9900(4)
H4 H 0.6127 0.2078 1.0099
C5 C 0.5743(6) 0.2042(4) 0.9187(4)
C6 C 0.4938(5) 0.2299(4) 0.8868(4)
C7 C 0.4469(6) 0.1643(5) 0.7327(5)
H5 H 0.3867 0.1725 0.7172
H6 H 0.4623 0.1090 0.7555
H7 H 0.5058 0.1745 0.6900
C8 C 0.4251(5) 0.2215(5) 0.7873(4)
H8 H 0.4065 0.2771 0.7644
H9 H 0.3653 0.2109 0.8300
C9 C 0.7023(5) 0.2002(4) 0.7782(3)
C10 C 0.7145(5) 0.2785(3) 0.6354(3)
H10 H 0.7184 0.3048 0.5876
C11 C 0.6175(5) 0.2718(4) 0.6882(3)
H11 H 0.5565 0.2960 0.6764
C12 C 0.8055(4) 0.2457(3) 0.6542(3)
C13 C 0.7983(5) 0.2105(4) 0.7257(3)
H12 H 0.8585 0.1932 0.7395
C14 C 0.9104(4) 0.2467(3) 0.5972(3)
H13 H 0.9681 0.2249 0.6135
C15 C 1.0379(5) 0.2672(4) 0.4838(4)
H14 H 1.0542 0.2321 0.4460
H15 H 1.0817 0.2418 0.5149
C16 C 1.0625(4) 0.3487(3) 0.4467(3)
H16 H 1.0261 0.3718 0.4105
H17 H 1.0405 0.3862 0.4834
C17 C 1.3928(5) 0.1608(4) 0.5388(4)
H18 H 1.4148 0.1724 0.5770
H19 H 1.4297 0.1062 0.5268
C18 C 1.1676(7) 0.0852(5) 0.6474(5)
H20 H 1.1346 0.0989 0.6113
C19 C 1.2778(5) 0.1646(5) 0.5678(4)
H21 H 1.2409 0.2201 0.5769
H22 H 1.2568 0.1501 0.5305
C20 C 1.1279(13) 0.0383(5) 0.7124(5)
C21 C 1.0204(15) 0.0415(7) 0.7210(7)
H23 H 0.9917 0.0716 0.6845
C22 C 0.9618(10) 0.0013(6) 0.7812(6)
H24 H 0.8905 0.0095 0.7892
C23 C 1.0049(7) -0.0524(4) 0.8319(4)
C24 C 1.1099(7) -0.0590(4) 0.8239(4)
C25 C 1.1711(8) -0.0114(5) 0.7650(5)
H25 H 1.2396 -0.0133 0.7614
C26 C 0.8367(9) -0.1568(10) 0.8511(10)
H26 H 0.7651 -0.1566 0.8589
H27 H 0.8722 -0.2110 0.8648
H28 H 0.8702 -0.1395 0.7995
C27 C 0.8405(9) -0.1031(7) 0.8951(8)
H29 H 0.8002 -0.1186 0.9462
H30 H 0.8052 -0.0487 0.8796
C28 C 0.9610(8) -0.1070(4) 0.9646(5)
C29 C 0.8792(8) -0.1019(5) 1.0340(6)
H31 H 0.8098 -0.0885 1.0352
C30 C 0.9019(13) -0.1166(6) 1.0985(7)
H32 H 0.8475 -0.1141 1.1436
C31 C 1.0056(14) -0.1354(7) 1.0986(7)
H33 H 1.0203 -0.1478 1.1433
C32 C 1.0839(9) -0.1353(5) 1.0327(6)
H34 H 1.1524 -0.1427 1.0322
C33 C 1.0637(7) -0.1244(4) 0.9659(4)
C34 C 1.2908(4) 0.1898(3) 0.3197(3)
C35 C 1.2403(4) 0.1239(3) 0.3529(3)
H35 H 1.1744 0.1278 0.3499
C36 C 1.2854(4) 0.0543(3) 0.3895(3)
C37 C 1.3823(4) 0.0507(3) 0.3961(3)
H36 H 1.4129 0.0049 0.4224
C38 C 1.4345(4) 0.1158(3) 0.3631(3)
C39 C 1.3882(4) 0.1850(3) 0.3265(3)
C40 C 1.1409(4) 0.4316(3) 0.5744(3)
H37 H 1.0702 0.4545 0.5825
C41 C 1.2784(4) 0.3541(3) 0.6208(3)
H38 H 1.3014 0.3236 0.6597
C42 C 1.3521(4) 0.3672(3) 0.5496(3)
C43 C 1.3196(4) 0.4117(3) 0.4909(3)
C44 C 1.2125(4) 0.4443(3) 0.5028(3)
C45 C 1.1729(4) 0.3857(3) 0.6335(3)
C46 C 1.0895(4) 0.3704(4) 0.7104(3)
C47 C 1.1390(5) 0.3147(4) 0.7687(4)
H39 H 1.0848 0.3063 0.8151
H40 H 1.1869 0.3405 0.7759
H41 H 1.1758 0.2630 0.7510
C48 C 1.0286(5) 0.4518(4) 0.7393(4)
H42 H 0.9769 0.4420 0.7868
H43 H 0.9946 0.4848 0.7047
H44 H 1.0758 0.4797 0.7447
C49 C 1.0142(5) 0.3251(4) 0.7003(4)
H45 H 0.9622 0.3147 0.7474
H46 H 1.0533 0.2743 0.6816
H47 H 0.9806 0.3585 0.6655
C50 C 1.1336(6) 0.0125(5) 0.4930(6)
H48 H 1.1598 0.0249 0.5280
H49 H 1.0959 -0.0304 0.5160
H50 H 1.0877 0.0604 0.4779
C51 C 1.2938(6) -0.0929(4) 0.4501(5)
H51 H 1.3513 -0.1120 0.4078
H52 H 1.2532 -0.1341 0.4728
H53 H 1.3201 -0.0818 0.4855
C52 C 1.1863(9) -0.0366(5) 0.3695(6)
H54 H 1.2446 -0.0542 0.3272
H55 H 1.1402 0.0106 0.3536
H56 H 1.1491 -0.0798 0.3926
C53 C 1.2253(5) -0.0154(3) 0.4247(4)
C54 C 1.2147(4) 0.4687(3) 0.3518(3)
C55 C 1.2085(4) 0.3895(3) 0.3482(3)
C56 C 1.2806(4) 0.4149(3) 0.2129(3)
H57 H 1.3017 0.3959 0.1670
C57 C 1.2436(4) 0.3634(3) 0.2784(3)
C58 C 1.2859(4) 0.4942(3) 0.2158(3)
C59 C 1.2532(4) 0.5189(3) 0.2863(3)
H58 H 1.2572 0.5711 0.2898
C60 C 1.5914(4) 0.1803(3) 0.3876(3)
C61 C 1.5224(4) 0.2250(3) 0.4441(3)
C62 C 1.5561(4) 0.2819(3) 0.4662(3)
C63 C 1.6594(4) 0.2934(3) 0.4301(3)
H59 H 1.6813 0.3320 0.4447
C64 C 1.7286(4) 0.2490(3) 0.3739(3)
C65 C 1.6927(4) 0.1916(3) 0.3534(3)
H60 H 1.7379 0.1604 0.3159
C66 C 1.3317(4) 0.5501(3) 0.1451(3)
C67 C 1.3679(6) 0.5105(4) 0.0752(4)
H61 H 1.3958 0.5481 0.0330
H62 H 1.3098 0.4960 0.0696
H63 H 1.4211 0.4623 0.0783
C68 C 1.2491(5) 0.6289(4) 0.1381(4)
H64 H 1.2252 0.6546 0.1826
H65 H 1.1909 0.6157 0.1314
H66 H 1.2795 0.6656 0.0960
C69 C 1.4261(5) 0.5736(4) 0.1533(4)
H67 H 1.4037 0.5987 0.1980
H68 H 1.4534 0.6114 0.1110
H69 H 1.4796 0.5254 0.1559
C70 C 1.8428(4) 0.2595(4) 0.3344(3)
C71 C 1.8637(5) 0.2761(5) 0.2494(4)
H70 H 1.9344 0.2827 0.2247
H71 H 1.8163 0.3251 0.2379
H72 H 1.8535 0.2309 0.2329
C72 C 1.8633(5) 0.3324(4) 0.3584(4)
H73 H 1.9347 0.3369 0.3330
H74 H 1.8504 0.3237 0.4112
H75 H 1.8175 0.3819 0.3457
C73 C 0.6118(5) 0.2290(4) 0.7590(3)
C74 C 1.9178(5) 0.1820(4) 0.3548(4)
H76 H 1.9887 0.1885 0.3306
H77 H 1.9084 0.1361 0.3388
H78 H 1.9035 0.1729 0.4078
C75 C 1.4999(6) 0.2486(4) 0.2233(4)
H79 H 1.4551 0.2596 0.1926
H80 H 1.5465 0.1956 0.2153
C76 C 1.5635(6) 0.3153(4) 0.2027(4)
H81 H 1.5191 0.3653 0.2221
H82 H 1.6202 0.2977 0.2238
C77 C 1.7015(5) 0.3514(4) 0.0953(4)
H83 H 1.7316 0.3427 0.0432
H84 H 1.7475 0.3150 0.1212
C78 C 1.7004(6) 0.4370(4) 0.1005(3)
H85 H 1.7674 0.4500 0.0699
H86 H 1.6467 0.4742 0.0819
C79 C 1.6921(6) 0.5252(4) 0.1826(4)
H87 H 1.6414 0.5681 0.1653
H88 H 1.7616 0.5331 0.1521
C80 C 1.6756(5) 0.5294(5) 0.2620(4)
H89 H 1.7086 0.4771 0.2831
H90 H 1.7104 0.5703 0.2641
C81 C 1.5193(5) 0.4808(4) 0.3286(4)
H91 H 1.5705 0.4302 0.3313
H92 H 1.4872 0.4792 0.2923
C82 C 1.4372(5) 0.4905(4) 0.4037(3)
H93 H 1.4687 0.4901 0.4409
H94 H 1.3860 0.5412 0.4018
N1 N 0.5150(4) 0.2146(3) 0.8135(3)
N2 N 0.9286(4) 0.2739(3) 0.5294(3)
N3 N 1.2485(6) 0.1095(5) 0.6366(4)
N4 N 0.9435(6) -0.0977(4) 0.8944(5)
O1 O 1.1742(3) 0.3361(2) 0.4103(2)
O2 O 1.4188(3) 0.2179(2) 0.4745(2)
O3 O 1.4392(3) 0.2492(2) 0.2988(2)
O4 O 1.3895(3) 0.4211(2) 0.4204(2)
O5 O 1.6037(4) 0.3285(3) 0.1242(3)
O6 O 1.5689(3) 0.5488(3) 0.3069(3)
O7 O 1.6804(3) 0.4468(2) 0.1758(2)
S1 S 0.69570(14) 0.14774(11) 0.86854(10)
S2 S 1.16961(17) -0.13192(12) 0.88195(12)
S3 S 1.22691(13) 0.26837(9) 0.26540(9)
S4 S 1.16352(11) 0.51409(8) 0.43536(8)
S5 S 1.48585(11) 0.33408(9) 0.54539(8)
S6 S 1.56548(12) 0.09452(10) 0.36418(11)
C83 C 0.9950(10) -0.3296(7) 0.9814(8)
H95 H 0.9775 -0.3260 1.0334
H96 H 0.9772 -0.2761 0.9558
H97 H 1.0686 -0.3513 0.9610
C84 C 0.9334(8) -0.3862(7) 0.9717(5)
C85 C 0.9528(15) -0.4157(10) 0.8971(7)
H98 H 0.9066 -0.4511 0.9044
H99 H 1.0240 -0.4449 0.8791
H100 H 0.9400 -0.3694 0.8614
O8 O 0.8620(10) -0.4042(10) 1.0290(6)
C86 C 0.3905(14) -0.0393(12) 0.8516(11)
H101 H 0.3164 -0.0192 0.8721
H102 H 0.4063 -0.0979 0.8609
H103 H 0.4129 -0.0224 0.7989
C87 C 0.4480(9) -0.0048(6) 0.8886(6)
C88 C 0.5652(10) -0.0372(10) 0.8496(14)
H104 H 0.6058 -0.0157 0.8688
H105 H 0.5817 -0.0203 0.7969
H106 H 0.5811 -0.0958 0.8588
O9 O 0.405(2) 0.0398(11) 0.9394(9)
N5? N 1.1934(11) 0.1408(9) 0.6057(8)
loop_
_geom_bond_atom_site_label_1
_geom_bond_atom_site_label_2
_geom_bond_site_symmetry_1
_geom_bond_site_symmetry_2
C1 H1 1_555 1_555
C2 C1 1_555 1_555
H2 C2 1_555 1_555
C3 C2 1_555 1_555
H3 C3 1_555 1_555
C4 C3 1_555 1_555
H4 C4 1_555 1_555
C5 C4 1_555 1_555
C6 C1 1_555 1_555
C7 H5 1_555 1_555
H6 C7 1_555 1_555
H7 C7 1_555 1_555
C8 C7 1_555 1_555
H8 C8 1_555 1_555
H9 C8 1_555 1_555
C9 C13 1_555 1_555
C10 H10 1_555 1_555
C11 C10 1_555 1_555
H11 C11 1_555 1_555
C12 C10 1_555 1_555
C13 C12 1_555 1_555
H12 C13 1_555 1_555
C14 C12 1_555 1_555
H13 C14 1_555 1_555
C15 H14 1_555 1_555
H15 C15 1_555 1_555
C16 C15 1_555 1_555
H16 C16 1_555 1_555
H17 C16 1_555 1_555
C17 H18 1_555 1_555
H19 C17 1_555 1_555
C18 H20 1_555 1_555
C19 C17 1_555 1_555
H21 C19 1_555 1_555
H22 C19 1_555 1_555
C20 C18 1_555 1_555
C21 C20 1_555 1_555
H23 C21 1_555 1_555
C22 C21 1_555 1_555
H24 C22 1_555 1_555
C23 C22 1_555 1_555
C24 C23 1_555 1_555
C25 C20 1_555 1_555
H25 C25 1_555 1_555
C26 H26 1_555 1_555
H27 C26 1_555 1_555
H28 C26 1_555 1_555
C27 C26 1_555 1_555
H29 C27 1_555 1_555
H30 C27 1_555 1_555
C28 C29 1_555 1_555
C29 H31 1_555 1_555
C30 C29 1_555 1_555
H32 C30 1_555 1_555
C31 C30 1_555 1_555
H33 C31 1_555 1_555
C32 C31 1_555 1_555
H34 C32 1_555 1_555
C33 C28 1_555 1_555
C34 C35 1_555 1_555
C35 H35 1_555 1_555
C36 C35 1_555 1_555
C37 C36 1_555 1_555
H36 C37 1_555 1_555
C38 C37 1_555 1_555
C39 C34 1_555 1_555
C40 H37 1_555 1_555
C41 H38 1_555 1_555
C42 C41 1_555 1_555
C43 C42 1_555 1_555
C44 C40 1_555 1_555
C45 C40 1_555 1_555
C46 C45 1_555 1_555
C47 C46 1_555 1_555
H39 C47 1_555 1_555
H40 C47 1_555 1_555
H41 C47 1_555 1_555
C48 C46 1_555 1_555
H42 C48 1_555 1_555
H43 C48 1_555 1_555
H44 C48 1_555 1_555
C49 C46 1_555 1_555
H45 C49 1_555 1_555
H46 C49 1_555 1_555
H47 C49 1_555 1_555
C50 H48 1_555 1_555
H49 C50 1_555 1_555
H50 C50 1_555 1_555
C51 H51 1_555 1_555
H52 C51 1_555 1_555
H53 C51 1_555 1_555
C52 H54 1_555 1_555
H55 C52 1_555 1_555
H56 C52 1_555 1_555
C53 C36 1_555 1_555
C54 C55 1_555 1_555
C55 C57 1_555 1_555
C56 H57 1_555 1_555
C57 C56 1_555 1_555
C58 C56 1_555 1_555
C59 C54 1_555 1_555
H58 C59 1_555 1_555
C60 C61 1_555 1_555
C61 C62 1_555 1_555
C62 C63 1_555 1_555
C63 H59 1_555 1_555
C64 C63 1_555 1_555
C65 C60 1_555 1_555
H60 C65 1_555 1_555
C66 C58 1_555 1_555
C67 C66 1_555 1_555
H61 C67 1_555 1_555
H62 C67 1_555 1_555
H63 C67 1_555 1_555
C68 C66 1_555 1_555
H64 C68 1_555 1_555
H65 C68 1_555 1_555
H66 C68 1_555 1_555
C69 C66 1_555 1_555
H67 C69 1_555 1_555
H68 C69 1_555 1_555
H69 C69 1_555 1_555
C70 C64 1_555 1_555
C71 C70 1_555 1_555
H70 C71 1_555 1_555
H71 C71 1_555 1_555
H72 C71 1_555 1_555
C72 C70 1_555 1_555
H73 C72 1_555 1_555
H74 C72 1_555 1_555
H75 C72 1_555 1_555
C73 C9 1_555 1_555
C74 C70 1_555 1_555
H76 C74 1_555 1_555
H77 C74 1_555 1_555
H78 C74 1_555 1_555
C75 H79 1_555 1_555
H80 C75 1_555 1_555
C76 C75 1_555 1_555
H81 C76 1_555 1_555
H82 C76 1_555 1_555
C77 H83 1_555 1_555
H84 C77 1_555 1_555
C78 C77 1_555 1_555
H85 C78 1_555 1_555
H86 C78 1_555 1_555
C79 H87 1_555 1_555
H88 C79 1_555 1_555
C80 C79 1_555 1_555
H89 C80 1_555 1_555
H90 C80 1_555 1_555
C81 H91 1_555 1_555
H92 C81 1_555 1_555
C82 C81 1_555 1_555
H93 C82 1_555 1_555
H94 C82 1_555 1_555
N1 C6 1_555 1_555
N2 C14 1_555 1_555
N3 C18 1_555 1_555
N4 C23 1_555 1_555
O1 C16 1_555 1_555
O2 C17 1_555 1_555
O3 C39 1_555 1_555
O4 C43 1_555 1_555
O5 C76 1_555 1_555
O6 C80 1_555 1_555
O7 C78 1_555 1_555
S1 C5 1_555 1_555
S2 C24 1_555 1_555
S3 C34 1_555 1_555
S4 C44 1_555 1_555
S5 C42 1_555 1_555
S6 C38 1_555 1_555
C83 H95 1_555 1_555
H96 C83 1_555 1_555
H97 C83 1_555 1_555
C84 C83 1_555 1_555
C85 C84 1_555 1_555
H98 C85 1_555 1_555
H99 C85 1_555 1_555
H100 C85 1_555 1_555
O8 C84 1_555 1_555
C86 H101 1_555 1_555
H102 C86 1_555 1_555
H103 C86 1_555 1_555
C87 C86 1_555 1_555
C88 C87 1_555 1_555
H104 C88 1_555 1_555
H105 C88 1_555 1_555
H106 C88 1_555 1_555
O9 C87 1_555 1_555
C5 C6 1_555 1_555
C8 N1 1_555 1_555
C9 S1 1_555 1_555
C11 C73 1_555 1_555
C15 N2 1_555 1_555
C19 N3 1_555 1_555
C24 C25 1_555 1_555
C27 N4 1_555 1_555
C28 N4 1_555 1_555
C32 C33 1_555 1_555
C33 S2 1_555 1_555
C38 C39 1_555 1_555
C41 C45 1_555 1_555
C43 C44 1_555 1_555
C50 C53 1_555 1_555
C51 C53 1_555 1_555
C52 C53 1_555 1_555
C54 S4 1_555 1_555
C55 O1 1_555 1_555
C57 S3 1_555 1_555
C58 C59 1_555 1_555
C60 S6 1_555 1_555
C61 O2 1_555 1_555
C62 S5 1_555 1_555
C64 C65 1_555 1_555
C73 N1 1_555 1_555
C75 O3 1_555 1_555
C77 O5 1_555 1_555
C79 O7 1_555 1_555
C81 O6 1_555 1_555
C82 O4 1_555 1_555

#END
