
#######################################################################
#
#                 Cambridge Crystallographic Data Centre
#                                CCDC 
#
#######################################################################
#
# If this CIF has been generated from an entry in the Cambridge 
# Structural Database, then it will include bibliographic, chemical, 
# crystal, experimental, refinement or atomic coordinate data resulting 
# from the CCDC's data processing and validation procedures.
#
#######################################################################

data_VUJGEN
_chemical_formula_moiety         'C27 H34 N2 O3'
_chemical_name_systematic        
'Ethyl (5-methoxy-2-methyl-1-(1-(2-phenylethyl)piperidin-4-yl)-1H-indol-3-yl)acetate'
_symmetry_cell_setting           monoclinic
_symmetry_space_group_name_H-M   'P 21/c'
_symmetry_Int_Tables_number      14
_space_group_name_Hall           '-P 2ybc'
loop_
_symmetry_equiv_pos_site_id
_symmetry_equiv_pos_as_xyz
1 x,y,z
2 -x,1/2+y,1/2-z
3 -x,-y,-z
4 x,1/2-y,1/2+z
_cell_length_a                   9.9586(10)
_cell_length_b                   14.0837(14)
_cell_length_c                   16.4413(16)
_cell_angle_alpha                90
_cell_angle_beta                 96.110(2)
_cell_angle_gamma                90
_cell_volume                     2292.86
_exptl_crystal_colour            colorless
_exptl_crystal_description       block
_chemical_melting_point          '93-94 deg.C'
_cell_formula_units_Z            4
loop_
_atom_site_label
_atom_site_type_symbol
_atom_site_fract_x
_atom_site_fract_y
_atom_site_fract_z
O1 O 0.78223(12) 0.84298(8) 1.02707(7)
O2 O 0.89201(12) 0.40657(9) 0.95877(7)
O3 O 0.87663(11) 0.40416(8) 1.09414(6)
N1 N 0.33937(14) 0.66323(9) 0.59169(8)
N2 N 0.53270(13) 0.57135(9) 0.82267(7)
C1 C -0.00511(18) 0.59596(12) 0.36950(10)
H1 H -0.0592 0.5913 0.4136
C2 C -0.06705(18) 0.60262(12) 0.28995(10)
H2 H -0.1628 0.6021 0.2800
C3 C 0.01017(18) 0.61002(12) 0.22527(10)
H3 H -0.0321 0.6128 0.1707
C4 C 0.14913(18) 0.61330(12) 0.24032(10)
H4 H 0.2026 0.6199 0.1961
C5 C 0.21063(18) 0.60693(12) 0.31967(10)
H5 H 0.3063 0.6101 0.3295
C6 C 0.13446(18) 0.59596(11) 0.38555(9)
C7 C 0.2029(2) 0.58182(13) 0.47133(10)
H6 H 0.2749 0.5336 0.4699
H7 H 0.1360 0.5569 0.5063
C8 C 0.26510(17) 0.67350(11) 0.50993(9)
H8 H 0.3274 0.7001 0.4727
H9 H 0.1917 0.7202 0.5135
C9 C 0.25335(16) 0.62864(12) 0.65230(9)
H10 H 0.2250 0.5626 0.6387
H11 H 0.1711 0.6684 0.6504
C10 C 0.32742(16) 0.63148(12) 0.73800(9)
H12 H 0.2692 0.6046 0.7774
H13 H 0.3484 0.6981 0.7538
C11 C 0.45771(16) 0.57454(11) 0.74068(9)
H14 H 0.4311 0.5077 0.7262
C12 C 0.54328(16) 0.60919(12) 0.67499(9)
H15 H 0.5733 0.6752 0.6871
H16 H 0.6245 0.5687 0.6747
C13 C 0.46080(16) 0.60526(12) 0.59166(9)
H17 H 0.5160 0.6288 0.5492
H18 H 0.4351 0.5387 0.5784
C14 C 0.58737(15) 0.64866(11) 0.86710(9)
C15 C 0.58681(16) 0.74524(11) 0.84856(9)
H19 H 0.5423 0.7682 0.7985
C16 C 0.65225(16) 0.80621(12) 0.90457(10)
H20 H 0.6525 0.8723 0.8930
C17 C 0.71887(16) 0.77291(12) 0.97876(9)
C18 C 0.86543(18) 0.81302(13) 1.09786(10)
H21 H 0.9082 0.8685 1.1257
H22 H 0.9353 0.7699 1.0819
H23 H 0.8102 0.7800 1.1349
C19 C 0.71867(15) 0.67783(11) 0.99832(9)
H24 H 0.7625 0.6556 1.0489
C20 C 0.65198(15) 0.61439(11) 0.94151(9)
C21 C 0.63531(15) 0.51346(11) 0.94139(9)
C22 C 0.56308(16) 0.49019(11) 0.86865(9)
C23 C 0.51562(17) 0.39454(11) 0.83870(10)
H25 H 0.5505 0.3812 0.7863
H26 H 0.4167 0.3935 0.8313
H27 H 0.5486 0.3462 0.8788
C24 C 0.68175(16) 0.44879(11) 1.01082(9)
H28 H 0.6250 0.3909 1.0062
H29 H 0.6661 0.4808 1.0626
C25 C 0.82793(16) 0.41906(11) 1.01616(9)
C26 C 1.01559(17) 0.37100(13) 1.10707(10)
H30 H 1.0773 0.4193 1.0880
H31 H 1.0259 0.3115 1.0763
C27 C 1.04815(18) 0.35397(13) 1.19710(10)
H32 H 0.9872 0.3055 1.2151
H33 H 1.0367 0.4132 1.2269
H34 H 1.1418 0.3322 1.2081
loop_
_geom_bond_atom_site_label_1
_geom_bond_atom_site_label_2
_geom_bond_site_symmetry_1
_geom_bond_site_symmetry_2
O1 C17 1_555 1_555
O2 C25 1_555 1_555
O3 C25 1_555 1_555
N1 C8 1_555 1_555
N2 C11 1_555 1_555
C1 H1 1_555 1_555
C2 C1 1_555 1_555
H2 C2 1_555 1_555
C3 C2 1_555 1_555
H3 C3 1_555 1_555
C4 C3 1_555 1_555
H4 C4 1_555 1_555
C5 C4 1_555 1_555
H5 C5 1_555 1_555
C6 C1 1_555 1_555
C7 C6 1_555 1_555
H6 C7 1_555 1_555
H7 C7 1_555 1_555
C8 C7 1_555 1_555
H8 C8 1_555 1_555
H9 C8 1_555 1_555
C9 N1 1_555 1_555
H10 C9 1_555 1_555
H11 C9 1_555 1_555
C10 C9 1_555 1_555
H12 C10 1_555 1_555
H13 C10 1_555 1_555
C11 C10 1_555 1_555
H14 C11 1_555 1_555
C12 C11 1_555 1_555
H15 C12 1_555 1_555
H16 C12 1_555 1_555
C13 N1 1_555 1_555
H17 C13 1_555 1_555
H18 C13 1_555 1_555
C14 N2 1_555 1_555
C15 C14 1_555 1_555
H19 C15 1_555 1_555
C16 C15 1_555 1_555
H20 C16 1_555 1_555
C17 C16 1_555 1_555
C18 O1 1_555 1_555
H21 C18 1_555 1_555
H22 C18 1_555 1_555
H23 C18 1_555 1_555
C19 C17 1_555 1_555
H24 C19 1_555 1_555
C20 C14 1_555 1_555
C21 C20 1_555 1_555
C22 N2 1_555 1_555
C23 C22 1_555 1_555
H25 C23 1_555 1_555
H26 C23 1_555 1_555
H27 C23 1_555 1_555
C24 C21 1_555 1_555
H28 C24 1_555 1_555
H29 C24 1_555 1_555
C25 C24 1_555 1_555
C26 O3 1_555 1_555
H30 C26 1_555 1_555
H31 C26 1_555 1_555
C27 C26 1_555 1_555
H32 C27 1_555 1_555
H33 C27 1_555 1_555
H34 C27 1_555 1_555
C5 C6 1_555 1_555
C12 C13 1_555 1_555
C19 C20 1_555 1_555
C21 C22 1_555 1_555

#END
