
#######################################################################
#
#                 Cambridge Crystallographic Data Centre
#                                CCDC 
#
#######################################################################
#
# If this CIF has been generated from an entry in the Cambridge 
# Structural Database, then it will include bibliographic, chemical, 
# crystal, experimental, refinement or atomic coordinate data resulting 
# from the CCDC's data processing and validation procedures.
#
#######################################################################

data_VUJHAL
_chemical_formula_moiety         'C18 H13 Br1 N2 O2 S1'
_chemical_name_systematic        
1-(2-((4-Bromophenyl)sulfonyl)phenyl)-2-phenyldiazene
_symmetry_cell_setting           monoclinic
_symmetry_space_group_name_H-M   'P 21/c'
_symmetry_Int_Tables_number      14
_space_group_name_Hall           '-P 2ybc'
loop_
_symmetry_equiv_pos_site_id
_symmetry_equiv_pos_as_xyz
1 x,y,z
2 -x,1/2+y,1/2-z
3 -x,-y,-z
4 x,1/2-y,1/2+z
_cell_length_a                   7.891(2)
_cell_length_b                   18.770(5)
_cell_length_c                   11.594(3)
_cell_angle_alpha                90
_cell_angle_beta                 96.858(5)
_cell_angle_gamma                90
_cell_volume                     1704.95
_exptl_crystal_colour            yellow
_exptl_crystal_description       block
_cell_formula_units_Z            4
loop_
_atom_site_label
_atom_site_type_symbol
_atom_site_fract_x
_atom_site_fract_y
_atom_site_fract_z
Br1 Br 0.12208(5) 0.28768(2) 0.43774(3)
N1 N 0.7876(3) 0.00259(12) 0.4652(2)
O1 O 0.7177(3) 0.15345(13) 0.87146(19)
C1 C 0.8273(5) 0.11265(18) 0.3510(3)
H1 H 0.8092 0.1420 0.4130
N2 N 0.7364(3) 0.04095(12) 0.54068(19)
O2 O 0.8904(2) 0.14910(11) 0.7081(2)
C2 C 0.8605(6) 0.1417(2) 0.2467(3)
H2 H 0.8680 0.1909 0.2390
C3 C 0.8822(5) 0.0986(2) 0.1545(3)
H3 H 0.8980 0.1186 0.0832
C4 C 0.8809(5) 0.0261(2) 0.1667(3)
H4 H 0.8984 -0.0030 0.1042
C5 C 0.8536(4) -0.00390(18) 0.2711(3)
H5 H 0.8570 -0.0531 0.2800
C6 C 0.8215(4) 0.03869(16) 0.3622(3)
C7 C 0.6999(4) 0.00247(14) 0.6412(2)
C8 C 0.6681(5) -0.07062(17) 0.6410(3)
H6 H 0.6747 -0.0971 0.5738
C9 C 0.6270(5) -0.10365(19) 0.7395(3)
H7 H 0.6068 -0.1525 0.7386
C10 C 0.6151(5) -0.06526(19) 0.8402(3)
H8 H 0.5863 -0.0880 0.9065
C11 C 0.6463(4) 0.00632(19) 0.8414(3)
H9 H 0.6398 0.0323 0.9090
C12 C 0.6871(3) 0.04043(15) 0.7433(2)
C13 C 0.5646(3) 0.17483(13) 0.6640(2)
C14 C 0.6002(4) 0.21774(15) 0.5725(3)
H10 H 0.7120 0.2235 0.5562
C15 C 0.4677(4) 0.25183(16) 0.5058(3)
H11 H 0.4891 0.2808 0.4441
C16 C 0.3031(4) 0.24239(16) 0.5321(3)
C17 C 0.2668(4) 0.20058(17) 0.6231(3)
H12 H 0.1552 0.1951 0.6398
C18 C 0.4007(4) 0.16672(16) 0.6896(3)
H13 H 0.3791 0.1383 0.7519
S1 S 0.73317(9) 0.13331(4) 0.75277(6)
loop_
_geom_bond_atom_site_label_1
_geom_bond_atom_site_label_2
_geom_bond_site_symmetry_1
_geom_bond_site_symmetry_2
Br1 C16 1_555 1_555
N1 N2 1_555 1_555
O1 S1 1_555 1_555
C1 H1 1_555 1_555
N2 C7 1_555 1_555
O2 S1 1_555 1_555
C2 C1 1_555 1_555
H2 C2 1_555 1_555
C3 C2 1_555 1_555
H3 C3 1_555 1_555
C4 C3 1_555 1_555
H4 C4 1_555 1_555
C5 C4 1_555 1_555
H5 C5 1_555 1_555
C6 N1 1_555 1_555
C7 C8 1_555 1_555
C8 H6 1_555 1_555
C9 C8 1_555 1_555
H7 C9 1_555 1_555
C10 C9 1_555 1_555
H8 C10 1_555 1_555
C11 C10 1_555 1_555
H9 C11 1_555 1_555
C12 C7 1_555 1_555
C13 C14 1_555 1_555
C14 H10 1_555 1_555
C15 C14 1_555 1_555
H11 C15 1_555 1_555
C16 C15 1_555 1_555
C17 C16 1_555 1_555
H12 C17 1_555 1_555
C18 C13 1_555 1_555
H13 C18 1_555 1_555
S1 C12 1_555 1_555
C1 C6 1_555 1_555
C5 C6 1_555 1_555
C11 C12 1_555 1_555
C13 S1 1_555 1_555
C17 C18 1_555 1_555

#END
