
#######################################################################
#
#                 Cambridge Crystallographic Data Centre
#                                CCDC 
#
#######################################################################
#
# If this CIF has been generated from an entry in the Cambridge 
# Structural Database, then it will include bibliographic, chemical, 
# crystal, experimental, refinement or atomic coordinate data resulting 
# from the CCDC's data processing and validation procedures.
#
#######################################################################

data_VUJPAT
_chemical_formula_moiety         'C15 H10 F3 N1 O2'
_chemical_name_systematic        
2-nitro-1-(1-phenylvinyl)-4-(trifluoromethyl)benzene
_symmetry_cell_setting           orthorhombic
_symmetry_space_group_name_H-M   'P 21 21 21'
_symmetry_Int_Tables_number      19
_space_group_name_Hall           'P 2ac 2ab'
loop_
_symmetry_equiv_pos_site_id
_symmetry_equiv_pos_as_xyz
1 x,y,z
2 1/2-x,-y,1/2+z
3 1/2+x,1/2-y,-z
4 -x,1/2+y,1/2-z
_cell_length_a                   5.8037(6)
_cell_length_b                   15.0490(14)
_cell_length_c                   15.033(2)
_cell_angle_alpha                90
_cell_angle_beta                 90
_cell_angle_gamma                90
_cell_volume                     1312.98
_cell_formula_units_Z            4
loop_
_atom_site_label
_atom_site_type_symbol
_atom_site_fract_x
_atom_site_fract_y
_atom_site_fract_z
C1 C 0.4610(6) 0.3569(2) 0.7659(2)
C2 C 0.4896(6) 0.4415(2) 0.7276(2)
C3 C 0.6689(6) 0.4925(2) 0.7639(3)
H1 H 0.6978 0.5498 0.7400
C4 C 0.8041(7) 0.4628(2) 0.8326(3)
H2 H 0.9227 0.4998 0.8555
C5 C 0.7687(6) 0.3786(2) 0.8691(3)
C6 C 0.5950(6) 0.3252(2) 0.8340(2)
H3 H 0.5695 0.2672 0.8570
C7 C 0.9082(6) 0.3463(3) 0.9454(3)
C8 C 0.3501(6) 0.4779(2) 0.6533(2)
C9 C 0.2473(7) 0.5566(2) 0.6632(3)
H4 H 0.2638 0.5885 0.7173
H5 H 0.1576 0.5806 0.6162
C10 C 0.3410(6) 0.42705(19) 0.5682(2)
C11 C 0.5240(6) 0.3722(2) 0.5433(3)
H6 H 0.6532 0.3664 0.5816
C12 C 0.5202(6) 0.3258(2) 0.4630(2)
H7 H 0.6464 0.2890 0.4466
C13 C 0.3321(6) 0.3336(2) 0.4075(3)
H8 H 0.3288 0.3026 0.3525
C14 C 0.1476(6) 0.3870(2) 0.4321(3)
H9 H 0.0177 0.3921 0.3940
C15 C 0.1519(6) 0.4328(2) 0.5118(3)
H10 H 0.0241 0.4687 0.5281
F1 F 0.9165(5) 0.25843(15) 0.9503(2)
F2 F 0.8273(4) 0.3740(2) 1.02350(18)
F3 F 1.1255(4) 0.37615(17) 0.94132(19)
N1 N 0.2743(5) 0.29778(19) 0.7351(2)
O1 O 0.0962(4) 0.33122(16) 0.70833(19)
O2 O 0.3077(6) 0.21759(16) 0.7395(2)
loop_
_geom_bond_atom_site_label_1
_geom_bond_atom_site_label_2
_geom_bond_site_symmetry_1
_geom_bond_site_symmetry_2
C1 C2 1_555 1_555
C2 C3 1_555 1_555
C3 H1 1_555 1_555
C4 C3 1_555 1_555
H2 C4 1_555 1_555
C5 C4 1_555 1_555
C6 C1 1_555 1_555
H3 C6 1_555 1_555
C7 C5 1_555 1_555
C8 C2 1_555 1_555
C9 C8 1_555 1_555
H4 C9 1_555 1_555
H5 C9 1_555 1_555
C10 C8 1_555 1_555
C11 C10 1_555 1_555
H6 C11 1_555 1_555
C12 C11 1_555 1_555
H7 C12 1_555 1_555
C13 C12 1_555 1_555
H8 C13 1_555 1_555
C14 C13 1_555 1_555
H9 C14 1_555 1_555
C15 C10 1_555 1_555
H10 C15 1_555 1_555
F1 C7 1_555 1_555
F2 C7 1_555 1_555
F3 C7 1_555 1_555
N1 C1 1_555 1_555
O1 N1 1_555 1_555
O2 N1 1_555 1_555
C5 C6 1_555 1_555
C14 C15 1_555 1_555

#END
