
#######################################################################
#
#                 Cambridge Crystallographic Data Centre
#                                CCDC 
#
#######################################################################
#
# If this CIF has been generated from an entry in the Cambridge 
# Structural Database, then it will include bibliographic, chemical, 
# crystal, experimental, refinement or atomic coordinate data resulting 
# from the CCDC's data processing and validation procedures.
#
#######################################################################

data_VUJTOL
_chemical_name_common            
"Benzil dihydrazone-N,N$'!-bis(3-chloro-1-formylbenzene)"
_chemical_formula_moiety         'C28 H20 Cl2 N4'
_chemical_name_systematic        
1,1'-(1,2-Diphenylethane-1,2-diylidene)bis((3-chlorobenzylidene)hydrazine)
_symmetry_cell_setting           orthorhombic
_symmetry_space_group_name_H-M   'P n n a'
_symmetry_Int_Tables_number      52
_space_group_name_Hall           '-P 2a 2bc'
loop_
_symmetry_equiv_pos_site_id
_symmetry_equiv_pos_as_xyz
1 x,y,z
2 1/2-x,-y,z
3 1/2-x,1/2+y,1/2-z
4 x,1/2-y,1/2-z
5 -x,-y,-z
6 1/2+x,y,-z
7 1/2+x,1/2-y,1/2+z
8 -x,1/2+y,1/2+z
_cell_length_a                   11.619(4)
_cell_length_b                   23.173(8)
_cell_length_c                   9.165(3)
_cell_angle_alpha                90
_cell_angle_beta                 90
_cell_angle_gamma                90
_cell_volume                     2467.65
_exptl_crystal_colour            yellow
_exptl_crystal_description       block
_cell_formula_units_Z            4
loop_
_atom_site_label
_atom_site_type_symbol
_atom_site_fract_x
_atom_site_fract_y
_atom_site_fract_z
C1 C 0.6399(2) 0.88360(10) 0.5185(3)
C2 C 0.6557(3) 0.83900(11) 0.6152(3)
C3 C 0.7494(3) 0.83695(11) 0.7039(4)
C4 C 0.8303(2) 0.87958(10) 0.6940(3)
C5 C 0.81619(19) 0.92379(9) 0.5972(3)
C6 C 0.72127(16) 0.92730(7) 0.5087(2)
C7 C 0.70496(16) 0.97683(8) 0.4118(2)
C8 C 0.5128(2) 1.03802(12) 0.1865(3)
C9 C 0.4866(2) 1.08818(14) 0.0995(3)
C10 C 0.5512(3) 1.13736(14) 0.1112(3)
C11 C 0.5269(3) 1.18549(16) 0.0282(4)
C12 C 0.4386(5) 1.1843(3) -0.0685(6)
C13 C 0.3718(5) 1.1357(4) -0.0809(5)
C14 C 0.3945(3) 1.0876(2) 0.0006(4)
N1 N 0.61133(14) 0.98128(7) 0.3382(2)
N2 N 0.60586(14) 1.03291(7) 0.2578(2)
Cl1 Cl 0.60920(10) 1.24635(4) 0.04030(15)
H1 H 0.581(2) 0.8856(9) 0.449(2)
H2 H 0.600(2) 0.8119(10) 0.619(3)
H3 H 0.7602(17) 0.8073(10) 0.774(2)
H4 H 0.896(2) 0.8770(10) 0.758(2)
H5 H 0.8736(16) 0.9520(8) 0.590(2)
H6 H 0.4641(19) 1.0070(10) 0.190(2)
H7 H 0.6109(19) 1.1424(9) 0.187(2)
H8 H 0.414(4) 1.2125(18) -0.145(5)
H9 H 0.313(3) 1.1369(13) -0.153(4)
H10 H 0.357(2) 1.0502(13) 0.008(3)
C1A C 0.8601(2) 1.11640(10) 0.5185(3)
C2A C 0.8443(3) 1.16100(11) 0.6152(3)
C3A C 0.7506(3) 1.16305(11) 0.7039(4)
C4A C 0.6697(2) 1.12042(10) 0.6940(3)
C5A C 0.68381(19) 1.07621(9) 0.5972(3)
C6A C 0.77873(16) 1.07270(7) 0.5087(2)
C7A C 0.79504(16) 1.02317(8) 0.4118(2)
C8A C 0.9872(2) 0.96198(12) 0.1865(3)
C9A C 1.0134(2) 0.91182(14) 0.0995(3)
C10A C 0.9488(3) 0.86264(14) 0.1112(3)
C11A C 0.9731(3) 0.81451(16) 0.0282(4)
C12A C 1.0614(5) 0.8157(3) -0.0685(6)
C13A C 1.1282(5) 0.8643(4) -0.0809(5)
C14A C 1.1055(3) 0.9124(2) 0.0006(4)
N1A N 0.88867(14) 1.01872(7) 0.3382(2)
N2A N 0.89414(14) 0.96709(7) 0.2578(2)
Cl1A Cl 0.89080(10) 0.75365(4) 0.04030(15)
H1A H 0.919(2) 1.1144(9) 0.449(2)
H2A H 0.900(2) 1.1881(10) 0.619(3)
H3A H 0.7398(17) 1.1927(10) 0.774(2)
H4A H 0.604(2) 1.1230(10) 0.758(2)
H5A H 0.6264(16) 1.0480(8) 0.590(2)
H6A H 1.0359(19) 0.9930(10) 0.190(2)
H7A H 0.8891(19) 0.8576(9) 0.187(2)
H8A H 1.086(4) 0.7875(18) -0.145(5)
H9A H 1.187(3) 0.8631(13) -0.153(4)
H10A H 1.143(2) 0.9498(13) 0.008(3)
loop_
_geom_bond_atom_site_label_1
_geom_bond_atom_site_label_2
_geom_bond_site_symmetry_1
_geom_bond_site_symmetry_2
C1 C2 1_555 1_555
C2 C3 1_555 1_555
C3 C4 1_555 1_555
C4 C5 1_555 1_555
C5 C6 1_555 1_555
C6 C1 1_555 1_555
C7 C6 1_555 1_555
C8 C9 1_555 1_555
C9 C10 1_555 1_555
C10 C11 1_555 1_555
C11 C12 1_555 1_555
C12 C13 1_555 1_555
C13 C14 1_555 1_555
C14 C9 1_555 1_555
N1 C7 1_555 1_555
N2 C8 1_555 1_555
Cl1 C11 1_555 1_555
H1 C1 1_555 1_555
H2 C2 1_555 1_555
H3 C3 1_555 1_555
H4 C4 1_555 1_555
H5 C5 1_555 1_555
H6 C8 1_555 1_555
H7 C10 1_555 1_555
H8 C12 1_555 1_555
H9 C13 1_555 1_555
H10 C14 1_555 1_555
C1A C2A 1_555 1_555
C2A C3A 1_555 1_555
C3A C4A 1_555 1_555
C4A C5A 1_555 1_555
C5A C6A 1_555 1_555
C6A C1A 1_555 1_555
C7A C7 1_555 1_555
C8A C9A 1_555 1_555
C9A C10A 1_555 1_555
C10A C11A 1_555 1_555
C11A C12A 1_555 1_555
C12A C13A 1_555 1_555
C13A C14A 1_555 1_555
C14A C9A 1_555 1_555
N1A C7A 1_555 1_555
N2A C8A 1_555 1_555
Cl1A C11A 1_555 1_555
H1A C1A 1_555 1_555
H2A C2A 1_555 1_555
H3A C3A 1_555 1_555
H4A C4A 1_555 1_555
H5A C5A 1_555 1_555
H6A C8A 1_555 1_555
H7A C10A 1_555 1_555
H8A C12A 1_555 1_555
H9A C13A 1_555 1_555
H10A C14A 1_555 1_555
N1 N2 1_555 1_555
C6A C7A 1_555 1_555
N1A N2A 1_555 1_555

#END
