
#######################################################################
#
#                 Cambridge Crystallographic Data Centre
#                                CCDC 
#
#######################################################################
#
# If this CIF has been generated from an entry in the Cambridge 
# Structural Database, then it will include bibliographic, chemical, 
# crystal, experimental, refinement or atomic coordinate data resulting 
# from the CCDC's data processing and validation procedures.
#
#######################################################################

data_VUJXED
_chemical_formula_moiety         'C26 H26 O1'
_chemical_name_systematic        
endo-25-Methyl-5,12-methano(2.2.2)paracyclophan-25-ol
_symmetry_cell_setting           rhombohedral
_symmetry_space_group_name_H-M   'R 3'
_symmetry_Int_Tables_number      146
_space_group_name_Hall           'R 3'
loop_
_symmetry_equiv_pos_site_id
_symmetry_equiv_pos_as_xyz
1 x,y,z
2 1/3+x,2/3+y,2/3+z
3 2/3+x,1/3+y,1/3+z
4 -y,x-y,z
5 -x+y,-x,z
6 1/3-y,2/3+x-y,2/3+z
7 1/3-x+y,2/3-x,2/3+z
8 2/3-y,1/3+x-y,1/3+z
9 2/3-x+y,1/3-x,1/3+z
_cell_length_a                   23.978(4)
_cell_length_b                   23.978(4)
_cell_length_c                   8.918(2)
_cell_angle_alpha                90
_cell_angle_beta                 90
_cell_angle_gamma                120
_cell_volume                     4440.42
_exptl_crystal_colour            colorless
_cell_formula_units_Z            9
loop_
_atom_site_label
_atom_site_type_symbol
_atom_site_fract_x
_atom_site_fract_y
_atom_site_fract_z
O1 O 0.08046(6) 0.01404(7) 0.4000
C1 C 0.3166(1) 0.2604(1) 0.4183(3)
C2 C 0.2802(1) 0.2172(1) 0.2843(3)
C3 C 0.2660(1) 0.1490(1) 0.3068(3)
C4 C 0.2040(1) 0.0999(1) 0.3390(3)
C5 C 0.1903(1) 0.0383(1) 0.3798(3)
C6 C 0.2414(1) 0.0250(1) 0.3903(3)
C7 C 0.3025(1) 0.0740(1) 0.3535(4)
C8 C 0.3150(1) 0.1344(1) 0.3111(4)
C9 C 0.2342(1) -0.0381(1) 0.4454(4)
C10 C 0.1976(1) -0.0662(1) 0.5920(4)
C11 C 0.1704(1) -0.0306(1) 0.6748(3)
C12 C 0.1327(1) -0.0076(1) 0.6079(3)
C13 C 0.1122(1) 0.0269(1) 0.6955(3)
C14 C 0.1263(1) 0.0391(1) 0.8465(3)
C15 C 0.1617(1) 0.0147(1) 0.9130(3)
C16 C 0.1831(1) -0.0187(1) 0.8286(3)
C17 C 0.1098(1) 0.0831(2) 0.9312(3)
C18 C 0.1697(1) 0.1489(1) 0.9655(3)
C19 C 0.2097(1) 0.1807(1) 0.8290(3)
C20 C 0.1961(1) 0.2180(1) 0.7341(3)
C21 C 0.2309(1) 0.2444(1) 0.6056(3)
C22 C 0.2811(1) 0.2347(1) 0.5631(3)
C23 C 0.2953(1) 0.1979(1) 0.6596(3)
C24 C 0.2606(1) 0.1720(1) 0.7888(3)
C25 C 0.1229(1) -0.0099(1) 0.4373(3)
C26 C 0.0927(1) -0.0770(1) 0.3672(4)
H1 H 0.0421 -0.0174 0.3992
H2 H 0.3226 0.3026 0.4020
H3 H 0.3583 0.2641 0.4245
H4 H 0.3052 0.2340 0.1945
H5 H 0.2406 0.2174 0.2711
H6 H 0.1692 0.1088 0.3329
H7 H 0.3377 0.0659 0.3593
H8 H 0.3576 0.1667 0.2817
H9 H 0.2766 -0.0325 0.4553
H10 H 0.2124 -0.0696 0.3683
H11 H 0.2264 -0.0708 0.6593
H12 H 0.1625 -0.1088 0.5721
H13 H 0.0874 0.0433 0.6477
H14 H 0.1713 0.0212 1.0182
H15 H 0.2084 -0.0347 0.8755
H16 H 0.0887 0.0625 1.0232
H17 H 0.0804 0.0905 0.8731
H18 H 0.1955 0.1422 1.0375
H19 H 0.1571 0.1775 1.0092
H20 H 0.1606 0.2244 0.7572
H21 H 0.2211 0.2710 0.5432
H22 H 0.3301 0.1907 0.6348
H23 H 0.2720 0.1473 0.8536
H24 H 0.1173 -0.0982 0.3794
H25 H 0.0861 -0.0733 0.2623
H26 H 0.0518 -0.1017 0.4160
loop_
_geom_bond_atom_site_label_1
_geom_bond_atom_site_label_2
_geom_bond_site_symmetry_1
_geom_bond_site_symmetry_2
O1 C25 1_555 1_555
C1 C2 1_555 1_555
C2 C3 1_555 1_555
C3 C4 1_555 1_555
C4 C5 1_555 1_555
C5 C6 1_555 1_555
C6 C7 1_555 1_555
C7 C8 1_555 1_555
C8 C3 1_555 1_555
C9 C6 1_555 1_555
C10 C9 1_555 1_555
C11 C10 1_555 1_555
C12 C11 1_555 1_555
C13 C12 1_555 1_555
C14 C13 1_555 1_555
C15 C14 1_555 1_555
C16 C11 1_555 1_555
C17 C14 1_555 1_555
C18 C17 1_555 1_555
C19 C18 1_555 1_555
C20 C19 1_555 1_555
C21 C20 1_555 1_555
C22 C1 1_555 1_555
C23 C22 1_555 1_555
C24 C19 1_555 1_555
C25 C5 1_555 1_555
C26 C25 1_555 1_555
H1 O1 1_555 1_555
H2 C1 1_555 1_555
H3 C1 1_555 1_555
H4 C2 1_555 1_555
H5 C2 1_555 1_555
H6 C4 1_555 1_555
H7 C7 1_555 1_555
H8 C8 1_555 1_555
H9 C9 1_555 1_555
H10 C9 1_555 1_555
H11 C10 1_555 1_555
H12 C10 1_555 1_555
H13 C13 1_555 1_555
H14 C15 1_555 1_555
H15 C16 1_555 1_555
H16 C17 1_555 1_555
H17 C17 1_555 1_555
H18 C18 1_555 1_555
H19 C18 1_555 1_555
H20 C20 1_555 1_555
H21 C21 1_555 1_555
H22 C23 1_555 1_555
H23 C24 1_555 1_555
H24 C26 1_555 1_555
H25 C26 1_555 1_555
H26 C26 1_555 1_555
C12 C25 1_555 1_555
C15 C16 1_555 1_555
C21 C22 1_555 1_555
C23 C24 1_555 1_555

#END
