
#######################################################################
#
#                 Cambridge Crystallographic Data Centre
#                                CCDC 
#
#######################################################################
#
# If this CIF has been generated from an entry in the Cambridge 
# Structural Database, then it will include bibliographic, chemical, 
# crystal, experimental, refinement or atomic coordinate data resulting 
# from the CCDC's data processing and validation procedures.
#
#######################################################################

data_VUJZIK
_chemical_name_common            
"bis(Diaminomethaniminium) 4,4'-diazene-1,2-diyldibenzenesulfonate hemikis(coumarin 1) clathrate"
_chemical_formula_moiety         
'2(C1 H6 N3 1+),C12 H8 N2 O6 S2 2-,0.5(C14 H17 N1 O2)'
_chemical_name_systematic        
"bis(Guanidinium) 4,4'-azobenzenedisulfonate hemikis(7-diethylamino-4-methylcoumarin) clathrate"
_symmetry_cell_setting           triclinic
_symmetry_space_group_name_H-M   'P -1'
_symmetry_Int_Tables_number      2
_space_group_name_Hall           '-P 1'
loop_
_symmetry_equiv_pos_site_id
_symmetry_equiv_pos_as_xyz
1 x,y,z
2 -x,-y,-z
_cell_length_a                   6.1980(9)
_cell_length_b                   7.2218(10)
_cell_length_c                   16.044(2)
_cell_angle_alpha                98.721(2)
_cell_angle_beta                 96.478(2)
_cell_angle_gamma                93.288(3)
_cell_volume                     703.276
_exptl_crystal_colour            orange
_exptl_crystal_description       plate
_cell_formula_units_Z            1
loop_
_atom_site_label
_atom_site_type_symbol
_atom_site_fract_x
_atom_site_fract_y
_atom_site_fract_z
C1 C 0.9430(4) 0.7294(4) 0.41325(18)
N2 N 0.8485(4) 0.5618(3) 0.41308(16)
H5 H 0.9273 0.4643 0.4134
H6 H 0.7064 0.5471 0.4127
N3 N 1.1550(4) 0.7492(4) 0.4139(2)
H7 H 1.2323 0.6507 0.4142
H8 H 1.2199 0.8608 0.4140
N4 N 0.8290(4) 0.8790(3) 0.41289(17)
H9 H 0.8956 0.9900 0.4131
H10 H 0.6868 0.8673 0.4125
O1 O 0.3978(3) 0.4240(3) 0.39481(13)
O2 O 0.4255(3) 0.1059(3) 0.42114(13)
O3 O 0.0741(3) 0.2143(3) 0.37957(12)
S1 S 0.30730(10) 0.23056(10) 0.37398(4)
C2 C 0.3382(4) 0.1589(4) 0.26639(18)
C3 C 0.3933(5) 0.0577(6) 0.0978(2)
C4 C 0.1623(14) 0.1522(12) 0.2047(5)
H1 H 0.0229 0.1803 0.2201
C5 C 0.1918(13) 0.1034(13) 0.1191(5)
H2 H 0.0732 0.1018 0.0759
C6 C 0.5720(14) 0.1353(12) 0.1569(5)
H3 H 0.7113 0.1543 0.1388
C7 C 0.5445(16) 0.1835(12) 0.2409(6)
H4 H 0.6653 0.2335 0.2814
N1 N 0.4054(4) 0.0024(6) 0.00948(18)
O1A O 0.6022(3) -0.4240(3) -0.39481(13)
O2A O 0.5745(3) -0.1059(3) -0.42114(13)
O3A O 0.9259(3) -0.2143(3) -0.37957(12)
S1A S 0.69270(10) -0.23056(10) -0.37398(4)
C2A C 0.6618(4) -0.1589(4) -0.26639(18)
C3A C 0.6067(5) -0.0577(6) -0.0978(2)
C4A C 0.8377(14) -0.1522(12) -0.2047(5)
H1A H 0.9771 -0.1803 -0.2201
C5A C 0.8082(13) -0.1034(13) -0.1191(5)
H2A H 0.9268 -0.1018 -0.0759
C6A C 0.4280(14) -0.1353(12) -0.1569(5)
H3A H 0.2887 -0.1543 -0.1388
C7A C 0.4555(16) -0.1835(12) -0.2409(6)
H4A H 0.3347 -0.2335 -0.2814
N1A N 0.5946(4) -0.0024(6) -0.00948(18)
C8? C 0.168(2) 0.0681(17) 0.2096(8)
C9? C 0.193(2) 0.0126(18) 0.1273(8)
C10? C 0.563(2) 0.0433(17) 0.1603(8)
C11? C 0.534(2) 0.1008(17) 0.2437(9)
H11? H 0.0305 0.0444 0.2287
H12? H 0.0767 -0.0563 0.0895
H13? H 0.6958 -0.0049 0.1457
H14? H 0.6524 0.1005 0.2868
loop_
_geom_bond_atom_site_label_1
_geom_bond_atom_site_label_2
_geom_bond_site_symmetry_1
_geom_bond_site_symmetry_2
O1 S1 1_555 1_555
O2 S1 1_555 1_555
O3 S1 1_555 1_555
S1 C2 1_555 1_555
C1 N2 1_555 1_555
C2 C4 1_555 1_555
C3 C5 1_555 1_555
C4 H1 1_555 1_555
C5 C4 1_555 1_555
H2 C5 1_555 1_555
C6 C3 1_555 1_555
H3 C6 1_555 1_555
C7 C2 1_555 1_555
H4 C7 1_555 1_555
N1 C3 1_555 1_555
N2 H5 1_555 1_555
H6 N2 1_555 1_555
N3 C1 1_555 1_555
H7 N3 1_555 1_555
H8 N3 1_555 1_555
N4 C1 1_555 1_555
H9 N4 1_555 1_555
H10 N4 1_555 1_555
O1A S1A 1_555 1_555
O2A S1A 1_555 1_555
O3A S1A 1_555 1_555
S1A C2A 1_555 1_555
C2A C4A 1_555 1_555
C3A C5A 1_555 1_555
C4A H1A 1_555 1_555
C5A C4A 1_555 1_555
H2A C5A 1_555 1_555
C6A C3A 1_555 1_555
H3A C6A 1_555 1_555
C7A C2A 1_555 1_555
H4A C7A 1_555 1_555
N1A N1 1_555 1_555
C6 C7 1_555 1_555
C3A N1A 1_555 1_555
C6A C7A 1_555 1_555

#END
