
#######################################################################
#
#                 Cambridge Crystallographic Data Centre
#                                CCDC 
#
#######################################################################
#
# If this CIF has been generated from an entry in the Cambridge 
# Structural Database, then it will include bibliographic, chemical, 
# crystal, experimental, refinement or atomic coordinate data resulting 
# from the CCDC's data processing and validation procedures.
#
#######################################################################

data_VUJZUW
_chemical_name_common            
"bis(Diaminomethaniminium) 4,4'-diazene-1,2-diyldibenzenesulfonate hemikis(coumarin 314) clathrate"
_chemical_formula_moiety         
'2(C1 H6 N3 1+),C12 H8 N2 O6 S2 2-,0.5(C18 H19 N1 O4)'
_chemical_name_systematic        
"bis(Guanidinium) 4,4'-azobenzenedisulfonate hemikis(ethyl 11-oxo-2,3,6,7-tetrahydro-1H,5H,11H-pyrano[2,3-f]pyrido[3,2,1-ij]quinoline-10-carboxylate) clathrate"
_symmetry_cell_setting           triclinic
_symmetry_space_group_name_H-M   'P -1'
_symmetry_Int_Tables_number      2
_space_group_name_Hall           '-P 1'
loop_
_symmetry_equiv_pos_site_id
_symmetry_equiv_pos_as_xyz
1 x,y,z
2 -x,-y,-z
_cell_length_a                   6.2094(6)
_cell_length_b                   7.2165(7)
_cell_length_c                   15.7926(15)
_cell_angle_alpha                96.330(2)
_cell_angle_beta                 96.881(2)
_cell_angle_gamma                93.186(2)
_cell_volume                     696.589
_exptl_crystal_colour            red-orange
_exptl_crystal_description       slab
_cell_formula_units_Z            1
loop_
_atom_site_label
_atom_site_type_symbol
_atom_site_fract_x
_atom_site_fract_y
_atom_site_fract_z
N2 N 0.3464(2) 0.2392(2) 0.08903(12)
H5 H 0.2687 0.3376 0.0897
H6 H 0.2825 0.1272 0.0888
N3 N 0.6531(2) 0.42693(19) 0.08872(10)
H7 H 0.5751 0.5252 0.0894
H8 H 0.7946 0.4408 0.0883
N4 N 0.6721(2) 0.1095(2) 0.08770(10)
H9 H 0.8138 0.1210 0.0875
H10 H 0.6059 -0.0016 0.0875
C7 C 0.5581(3) 0.2596(2) 0.08839(10)
S1 S 0.19303(5) 0.75525(5) 0.12588(2)
O1 O 0.42634(17) 0.77125(15) 0.12104(7)
O2 O 0.10265(18) 0.56308(16) 0.10805(8)
O3 O 0.07435(18) 0.88135(17) 0.07557(7)
N1 N 0.0945(2) 0.9940(3) 0.49121(9)
C1 C 0.1612(2) 0.8270(2) 0.23433(9)
C2 C 0.1068(3) 0.9353(3) 0.40267(11)
C3 C -0.0466(10) 0.8029(8) 0.2599(4)
H1 H -0.1668 0.7505 0.2199
C4 C -0.0722(10) 0.8571(8) 0.3445(4)
H2 H -0.2110 0.8414 0.3634
C5 C 0.3137(11) 0.9554(9) 0.3771(5)
H3 H 0.4347 1.0054 0.4173
C6 C 0.3400(11) 0.9010(9) 0.2915(4)
H4 H 0.4790 0.9145 0.2727
S1A S -0.19303(5) 1.24475(5) 0.87412(2)
O1A O -0.42634(17) 1.22875(15) 0.87896(7)
O2A O -0.10265(18) 1.43692(16) 0.89195(8)
O3A O -0.07435(18) 1.11865(17) 0.92443(7)
N1A N -0.0945(2) 1.0060(3) 0.50879(9)
C1A C -0.1612(2) 1.1730(2) 0.76567(9)
C2A C -0.1068(3) 1.0647(3) 0.59733(11)
C3A C 0.0466(10) 1.1971(8) 0.7401(4)
H1A H 0.1668 1.2495 0.7801
C4A C 0.0722(10) 1.1429(8) 0.6555(4)
H2A H 0.2110 1.1586 0.6366
C5A C -0.3137(11) 1.0446(9) 0.6229(5)
H3A H -0.4347 0.9946 0.5827
C6A C -0.3400(11) 1.0990(9) 0.7085(4)
H4A H -0.4790 1.0855 0.7273
C8? C -0.0351(15) 0.8773(10) 0.2554(6)
C9? C -0.0639(14) 0.9331(11) 0.3396(6)
C10? C 0.3023(17) 0.8775(12) 0.3824(7)
C11? C 0.3287(16) 0.8238(12) 0.2975(6)
H11? H -0.1545 0.8739 0.2115
H12? H -0.2013 0.9698 0.3533
H13? H 0.4200 0.8741 0.4265
H14? H 0.4650 0.7846 0.2835
loop_
_geom_bond_atom_site_label_1
_geom_bond_atom_site_label_2
_geom_bond_site_symmetry_1
_geom_bond_site_symmetry_2
S1 O1 1_555 1_555
O2 S1 1_555 1_555
O3 S1 1_555 1_555
N1 C2 1_555 1_555
C1 S1 1_555 1_555
C2 C4 1_555 1_555
C3 C1 1_555 1_555
H1 C3 1_555 1_555
C4 C3 1_555 1_555
H2 C4 1_555 1_555
C5 C2 1_555 1_555
H3 C5 1_555 1_555
C6 C1 1_555 1_555
H4 C6 1_555 1_555
N2 H5 1_555 1_555
H6 N2 1_555 1_555
N3 H7 1_555 1_555
H8 N3 1_555 1_555
N4 H9 1_555 1_555
H10 N4 1_555 1_555
C7 N2 1_555 1_555
S1A O1A 1_555 1_555
O2A S1A 1_555 1_555
O3A S1A 1_555 1_555
N1A N1 1_555 1_555
C1A S1A 1_555 1_555
C2A N1A 1_555 1_555
C3A C1A 1_555 1_555
H1A C3A 1_555 1_555
C4A C2A 1_555 1_555
H2A C4A 1_555 1_555
C5A C2A 1_555 1_555
H3A C5A 1_555 1_555
C6A C1A 1_555 1_555
H4A C6A 1_555 1_555
C5 C6 1_555 1_555
N3 C7 1_555 1_555
N4 C7 1_555 1_555
C3A C4A 1_555 1_555
C5A C6A 1_555 1_555

#END
