
#######################################################################
#
#                 Cambridge Crystallographic Data Centre
#                                CCDC 
#
#######################################################################
#
# If this CIF has been generated from an entry in the Cambridge 
# Structural Database, then it will include bibliographic, chemical, 
# crystal, experimental, refinement or atomic coordinate data resulting 
# from the CCDC's data processing and validation procedures.
#
#######################################################################

data_VUKBEJ
_chemical_name_common            
'bis(Diaminomethaniminium) 9,10-dioxo-9,10-dihydroanthracene-2,6-disulfonate coumarin 2 clathrate'
_chemical_formula_moiety         '2(C1 H6 N3 1+),C14 H6 O8 S2 2-,C13 H15 N1 O2'
_chemical_name_systematic        
'bis(Guanidinium) anthraquinone-2,6-disulfonate 4,6-dimethyl-7-ethylaminocoumarin clathrate'
_symmetry_cell_setting           triclinic
_symmetry_space_group_name_H-M   'P -1'
_symmetry_Int_Tables_number      2
_space_group_name_Hall           '-P 1'
loop_
_symmetry_equiv_pos_site_id
_symmetry_equiv_pos_as_xyz
1 x,y,z
2 -x,-y,-z
_cell_length_a                   7.6405(5)
_cell_length_b                   14.0326(9)
_cell_length_c                   16.1930(10)
_cell_angle_alpha                65.485(3)
_cell_angle_beta                 76.713(3)
_cell_angle_gamma                86.331(3)
_cell_volume                     1536.39
_exptl_crystal_colour            red
_exptl_crystal_description       block
_cell_formula_units_Z            2
loop_
_atom_site_label
_atom_site_type_symbol
_atom_site_fract_x
_atom_site_fract_y
_atom_site_fract_z
C1 C 0.66433(15) 0.37882(8) 0.48124(8)
N1 N 0.80613(14) 0.43611(8) 0.47078(8)
H21 H 0.8971 0.4056 0.4955
H22 H 0.8091 0.5045 0.4391
N2 N 0.52666(15) 0.42237(8) 0.44295(8)
H23 H 0.5283 0.4905 0.4099
H24 H 0.4339 0.3831 0.4507
N3 N 0.65987(13) 0.27546(7) 0.52902(7)
H25 H 0.7509 0.2450 0.5537
H26 H 0.5659 0.2375 0.5360
C2 C 0.82579(15) 0.05877(9) 0.39433(8)
N4 N 0.81049(14) 0.15155(8) 0.39793(8)
H27 H 0.9042 0.1823 0.4010
H28 H 0.7066 0.1825 0.3973
N5 N 0.68537(14) 0.01318(8) 0.38683(8)
H29 H 0.5823 0.0449 0.3843
H30 H 0.6960 -0.0485 0.3845
N6 N 0.98204(14) 0.01176(8) 0.39533(8)
H31 H 1.0760 0.0423 0.3984
H32 H 0.9917 -0.0499 0.3929
C3 C 0.64012(14) 0.71506(8) 0.76224(7)
C4 C 0.71380(14) 0.75442(8) 0.81382(8)
H1 H 0.7774 0.8203 0.7839
C5 C 0.69349(14) 0.69677(8) 0.90881(8)
H2 H 0.7434 0.7232 0.9440
C6 C 0.59961(14) 0.59966(8) 0.95318(7)
C7 C 0.52174(14) 0.56189(8) 0.90112(7)
C8 C 0.54273(14) 0.62025(8) 0.80530(7)
H3 H 0.4907 0.5952 0.7698
C9 C 0.41770(14) 0.46137(8) 0.94603(7)
O1 O 0.67184(12) 0.89556(6) 0.62116(6)
O2 O 0.53590(11) 0.74927(7) 0.61205(6)
O3 O 0.85809(11) 0.75496(7) 0.60414(6)
O9 O 0.34587(14) 0.43004(8) 0.90065(7)
S1 S 0.67988(3) 0.78409(2) 0.639372(18)
C3A C 0.35988(14) 0.28494(8) 1.23776(7)
C4A C 0.28620(14) 0.24558(8) 1.18618(8)
H1A H 0.2226 0.1797 1.2161
C5A C 0.30651(14) 0.30323(8) 1.09119(8)
H2A H 0.2566 0.2768 1.0560
C6A C 0.40039(14) 0.40034(8) 1.04682(7)
C7A C 0.47826(14) 0.43811(8) 1.09888(7)
C8A C 0.45727(14) 0.37975(8) 1.19470(7)
H3A H 0.5093 0.4048 1.2302
C9A C 0.58230(14) 0.53863(8) 1.05397(7)
O1A O 0.32816(12) 0.10444(6) 1.37884(6)
O2A O 0.46410(11) 0.25073(7) 1.38795(6)
O3A O 0.14191(11) 0.24504(7) 1.39586(6)
O9A O 0.65413(14) 0.56996(8) 1.09935(7)
S1A S 0.32012(3) 0.21591(2) 1.360628(18)
C10 C 0.91731(14) 0.81071(8) 0.25038(7)
C11 C 0.83549(15) 0.75459(8) 0.21438(8)
H4 H 0.7788 0.6879 0.2543
C12 C 0.83787(15) 0.79714(8) 0.12008(8)
H5 H 0.7843 0.7590 0.0951
C13 C 0.91903(14) 0.89628(8) 0.06141(7)
C14 C 0.99863(13) 0.95273(8) 0.09830(7)
C15 C 0.99878(14) 0.90893(8) 0.19315(7)
H6 H 1.0543 0.9461 0.2183
C16 C 0.91853(14) 0.94143(8) -0.03864(7)
O4 O 1.04767(11) 0.81460(6) 0.38226(6)
O5 O 0.91593(12) 0.64925(6) 0.40728(6)
O6 O 0.72449(11) 0.79488(7) 0.40772(6)
O10 O 0.85201(13) 0.89195(7) -0.07183(6)
S2 S 0.89990(3) 0.762365(19) 0.372069(17)
C10A C 1.08269(14) 1.18929(8) -0.25038(7)
C11A C 1.16451(15) 1.24541(8) -0.21438(8)
H4A H 1.2212 1.3121 -0.2543
C12A C 1.16213(15) 1.20286(8) -0.12008(8)
H5A H 1.2157 1.2410 -0.0951
C13A C 1.08097(14) 1.10372(8) -0.06141(7)
C14A C 1.00137(13) 1.04727(8) -0.09830(7)
C15A C 1.00122(14) 1.09107(8) -0.19315(7)
H6A H 0.9457 1.0539 -0.2183
C16A C 1.08147(14) 1.05857(8) 0.03864(7)
O4A O 0.95233(11) 1.18540(6) -0.38226(6)
O5A O 1.08407(12) 1.35075(6) -0.40728(6)
O6A O 1.27551(11) 1.20512(7) -0.40772(6)
O10A O 1.14799(13) 1.10805(7) 0.07183(6)
S2A S 1.10010(3) 1.237635(19) -0.372069(17)
C17 C 0.64823(16) 0.36884(9) 0.74406(8)
C18 C 0.78000(16) 0.44437(9) 0.73355(8)
H7 H 0.8178 0.5012 0.6746
C19 C 0.85220(15) 0.43701(9) 0.80529(8)
C20 C 0.98634(17) 0.51831(10) 0.79236(9)
H8 H 1.0064 0.5722 0.7284
H9 H 1.1002 0.4852 0.8043
H10 H 0.9401 0.5506 0.8360
C21 C 0.79559(15) 0.34985(9) 0.89442(8)
C22 C 0.67929(15) 0.27267(9) 0.90136(8)
C23 C 0.62253(15) 0.18390(9) 0.98277(8)
H11 H 0.5469 0.1320 0.9840
C24 C 0.67782(14) 0.17152(9) 1.06322(8)
C25 C 0.79151(15) 0.25051(9) 1.05998(8)
C26 C 0.84911(15) 0.33570(9) 0.97656(8)
H12 H 0.9279 0.3869 0.9742
C27 C 0.84326(16) 0.23948(10) 1.14755(8)
H13 H 0.9131 0.3021 1.1351
H14 H 0.9161 0.1776 1.1687
H15 H 0.7343 0.2316 1.1960
C28 C 0.50350(16) 0.00340(9) 1.15470(8)
H16 H 0.5637 -0.0327 1.1153
H17 H 0.3936 0.0348 1.1332
C29 C 0.45204(17) -0.07539(10) 1.25537(9)
H18 H 0.5612 -0.1037 1.2776
H19 H 0.3779 -0.1326 1.2600
H20 H 0.3838 -0.0408 1.2936
N7 N 0.62322(14) 0.08547(8) 1.14479(7)
H33 H 0.6625 0.0795 1.1936
O7 O 0.61121(12) 0.28132(7) 0.82701(6)
O8 O 0.56630(14) 0.37407(7) 0.68597(6)
loop_
_geom_bond_atom_site_label_1
_geom_bond_atom_site_label_2
_geom_bond_site_symmetry_1
_geom_bond_site_symmetry_2
C1 N1 1_555 1_555
C2 N4 1_555 1_555
C3 C4 1_555 1_555
C4 H1 1_555 1_555
C5 C4 1_555 1_555
H2 C5 1_555 1_555
C6 C5 1_555 1_555
C7 C6 1_555 1_555
C8 C3 1_555 1_555
H3 C8 1_555 1_555
C9 C7 1_555 1_555
C10 C11 1_555 1_555
C11 H4 1_555 1_555
C12 C11 1_555 1_555
H5 C12 1_555 1_555
C13 C12 1_555 1_555
C14 C13 1_555 1_555
C15 C10 1_555 1_555
H6 C15 1_555 1_555
C16 C13 1_555 1_555
C17 C18 1_555 1_555
C18 H7 1_555 1_555
C19 C18 1_555 1_555
C20 C19 1_555 1_555
H8 C20 1_555 1_555
H9 C20 1_555 1_555
H10 C20 1_555 1_555
C21 C19 1_555 1_555
C22 C21 1_555 1_555
C23 C22 1_555 1_555
H11 C23 1_555 1_555
C24 C23 1_555 1_555
C25 C24 1_555 1_555
C26 C21 1_555 1_555
H12 C26 1_555 1_555
C27 C25 1_555 1_555
H13 C27 1_555 1_555
H14 C27 1_555 1_555
H15 C27 1_555 1_555
C28 H16 1_555 1_555
H17 C28 1_555 1_555
C29 C28 1_555 1_555
H18 C29 1_555 1_555
H19 C29 1_555 1_555
H20 C29 1_555 1_555
N1 H21 1_555 1_555
H22 N1 1_555 1_555
N2 C1 1_555 1_555
H23 N2 1_555 1_555
H24 N2 1_555 1_555
N3 C1 1_555 1_555
H25 N3 1_555 1_555
H26 N3 1_555 1_555
N4 H27 1_555 1_555
H28 N4 1_555 1_555
N5 C2 1_555 1_555
H29 N5 1_555 1_555
H30 N5 1_555 1_555
N6 C2 1_555 1_555
H31 N6 1_555 1_555
H32 N6 1_555 1_555
N7 C24 1_555 1_555
H33 N7 1_555 1_555
O1 S1 1_555 1_555
O2 S1 1_555 1_555
O3 S1 1_555 1_555
O4 S2 1_555 1_555
O5 S2 1_555 1_555
O6 S2 1_555 1_555
O7 C17 1_555 1_555
O8 C17 1_555 1_555
O9 C9 1_555 1_555
O10 C16 1_555 1_555
S1 C3 1_555 1_555
S2 C10 1_555 1_555
C3A C4A 1_555 1_555
C4A H1A 1_555 1_555
C5A C4A 1_555 1_555
H2A C5A 1_555 1_555
C6A C9 1_555 1_555
C7A C6A 1_555 1_555
C8A C3A 1_555 1_555
H3A C8A 1_555 1_555
C9A C6 1_555 1_555
C10A C11A 1_555 1_555
C11A H4A 1_555 1_555
C12A C11A 1_555 1_555
H5A C12A 1_555 1_555
C13A C12A 1_555 1_555
C14A C16 1_555 1_555
C15A C10A 1_555 1_555
H6A C15A 1_555 1_555
C16A C14 1_555 1_555
O1A S1A 1_555 1_555
O2A S1A 1_555 1_555
O3A S1A 1_555 1_555
O4A S2A 1_555 1_555
O5A S2A 1_555 1_555
O6A S2A 1_555 1_555
O9A C9A 1_555 1_555
O10A C16A 1_555 1_555
S1A C3A 1_555 1_555
S2A C10A 1_555 1_555
C7 C8 1_555 1_555
C14 C15 1_555 1_555
C22 O7 1_555 1_555
C25 C26 1_555 1_555
C28 N7 1_555 1_555
C5A C6A 1_555 1_555
C7A C8A 1_555 1_555
C7A C9A 1_555 1_555
C13A C14A 1_555 1_555
C13A C16A 1_555 1_555
C14A C15A 1_555 1_555

#END
