
#######################################################################
#
#                 Cambridge Crystallographic Data Centre
#                                CCDC 
#
#######################################################################
#
# If this CIF has been generated from an entry in the Cambridge 
# Structural Database, then it will include bibliographic, chemical, 
# crystal, experimental, refinement or atomic coordinate data resulting 
# from the CCDC's data processing and validation procedures.
#
#######################################################################

data_VUKCOU
_chemical_name_common            
"bis(Diaminomethaniminium) biphenyl-4,4'-disulfonate bis(coumarin 1) clathrate"
_chemical_formula_moiety         
'2(C1 H6 N3 1+),C12 H8 O6 S2 2-,2(C14 H17 N1 O2)'
_chemical_name_systematic        
"bis(Guanidinium) 4,4'-biphenyldisulfonate bis(7-diethylamino-4-methylcoumarin) clathrate"
_symmetry_cell_setting           orthorhombic
_symmetry_space_group_name_H-M   'P n a 21'
_symmetry_Int_Tables_number      33
_space_group_name_Hall           'P 2c -2n'
loop_
_symmetry_equiv_pos_site_id
_symmetry_equiv_pos_as_xyz
1 x,y,z
2 -x,-y,1/2+z
3 1/2+x,1/2-y,z
4 1/2-x,1/2+y,1/2+z
_cell_length_a                   22.348(3)
_cell_length_b                   7.2898(9)
_cell_length_c                   27.136(3)
_cell_angle_alpha                90
_cell_angle_beta                 90
_cell_angle_gamma                90
_cell_volume                     4420.79
_exptl_crystal_colour            yellow
_exptl_crystal_description       block
_cell_formula_units_Z            4
loop_
_atom_site_label
_atom_site_type_symbol
_atom_site_fract_x
_atom_site_fract_y
_atom_site_fract_z
C1 C 0.37727(11) 0.5825(3) 0.21813(9)
N1 N 0.35189(10) 0.4248(3) 0.23060(9)
H1 H 0.3681 0.3205 0.2212
H2 H 0.3189 0.4245 0.2483
N2 N 0.42675(10) 0.5818(3) 0.19160(9)
H3 H 0.4437 0.6861 0.1832
H4 H 0.4428 0.4771 0.1823
N3 N 0.35294(11) 0.7394(3) 0.23218(10)
H5 H 0.3698 0.8440 0.2238
H6 H 0.3199 0.7391 0.2499
C2 C 0.37826(11) 0.5744(3) 0.71992(9)
N4 N 0.39750(10) 0.7347(3) 0.70250(8)
H7 H 0.4272 0.7380 0.6812
H8 H 0.3805 0.8374 0.7123
N5 N 0.33395(10) 0.5715(3) 0.75279(8)
H9 H 0.3214 0.4663 0.7649
H10 H 0.3172 0.6748 0.7624
N6 N 0.40362(11) 0.4196(3) 0.70533(9)
H11 H 0.4333 0.4224 0.6840
H12 H 0.3908 0.3140 0.7169
C3 C 0.43028(11) 0.0754(3) 1.09256(9)
C4 C 0.40898(16) -0.0834(4) 1.07187(12)
H13 H 0.4075 -0.1931 1.0907
C5 C 0.38942(17) -0.0833(4) 1.02293(12)
H14 H 0.3746 -0.1939 1.0090
C6 C 0.39100(11) 0.0718(4) 0.99448(9)
C7 C 0.41529(19) 0.2265(5) 1.01536(11)
H15 H 0.4187 0.3343 0.9959
C8 C 0.43517(18) 0.2310(4) 1.06425(11)
H16 H 0.4518 0.3401 1.0777
C9 C 0.32611(10) 0.0721(3) 0.84542(9)
C10 C 0.3255(2) -0.0843(4) 0.87256(12)
H17 H 0.3104 -0.1946 0.8587
C11 C 0.3468(2) -0.0833(5) 0.92033(12)
H18 H 0.3466 -0.1947 0.9385
C12 C 0.36817(11) 0.0727(4) 0.94256(9)
C13 C 0.36846(19) 0.2297(4) 0.91378(13)
H19 H 0.3838 0.3401 0.9274
C14 C 0.34737(19) 0.2313(4) 0.86632(13)
H20 H 0.3474 0.3422 0.8479
S1 S 0.44876(3) 0.08035(8) 1.15616(2)
O1 O 0.48274(8) -0.0842(2) 1.16671(7)
O2 O 0.39134(8) 0.0844(2) 1.18228(6)
O3 O 0.48285(8) 0.2478(2) 1.16393(6)
S2 S 0.30319(3) 0.07366(8) 0.78275(2)
O4 O 0.35802(8) 0.0776(3) 0.75366(7)
O5 O 0.26754(8) 0.2390(2) 0.77564(7)
O6 O 0.26896(8) -0.0940(2) 0.77470(7)
C15 C 0.05107(12) 0.8056(4) 1.07826(10)
C16 C 0.07734(11) 0.6268(4) 1.08495(9)
H21 H 0.0925 0.5948 1.1165
C17 C 0.08119(10) 0.5037(4) 1.04824(9)
C18 C 0.10572(15) 0.3148(4) 1.05660(12)
H22 H 0.1217 0.3061 1.0901
H23 H 0.1377 0.2905 1.0328
H24 H 0.0737 0.2243 1.0523
C19 C 0.05916(11) 0.5541(3) 0.99989(9)
C20 C 0.03651(12) 0.7300(4) 0.99298(9)
C21 C 0.01492(13) 0.7925(4) 0.94857(10)
H25 H 0.0009 0.9150 0.9456
C22 C 0.01363(15) 0.6759(4) 0.90785(11)
C23 C 0.03689(16) 0.4963(5) 0.91489(11)
H26 H 0.0369 0.4129 0.8880
C24 C 0.05910(14) 0.4407(4) 0.95888(10)
H27 H 0.0751 0.3204 0.9617
C25 C -0.02292(18) 0.5959(6) 0.82565(14)
H28 H -0.0565 0.6434 0.8056
H29 H -0.0363 0.4815 0.8419
C26 C 0.0293(2) 0.5549(7) 0.79273(15)
H30 H 0.0417 0.6672 0.7757
H31 H 0.0178 0.4621 0.7684
H32 H 0.0627 0.5087 0.8126
C27 C -0.0309(3) 0.9148(6) 0.85412(16)
H33 H -0.0744 0.9028 0.8477
H34 H -0.0264 0.9872 0.8847
C28 C -0.0051(3) 1.0173(9) 0.8146(3)
H35 H 0.0346 1.0616 0.8244
H36 H -0.0308 1.1220 0.8067
H37 H -0.0012 0.9384 0.7855
N7 N -0.00680(17) 0.7314(5) 0.86310(10)
O7 O 0.03258(9) 0.8515(3) 1.03161(7)
O8 O 0.04344(11) 0.9213(3) 1.10995(8)
C29 C 0.35469(17) 0.4995(5) 0.39811(12)
C30 C 0.34426(16) 0.3455(5) 0.36629(12)
H38 H 0.3570 0.3530 0.3329
C31 C 0.31718(16) 0.1908(4) 0.38172(11)
C32 C 0.3058(2) 0.0344(5) 0.34728(14)
H39 H 0.3196 0.0673 0.3142
H40 H 0.2629 0.0077 0.3464
H41 H 0.3276 -0.0742 0.3588
C33 C 0.29767(14) 0.1797(4) 0.43250(11)
C34 C 0.30755(13) 0.3293(4) 0.46314(11)
C35 C 0.28968(17) 0.3317(5) 0.51145(13)
H42 H 0.2970 0.4376 0.5310
C36 C 0.26096(19) 0.1809(5) 0.53234(14)
C37 C 0.25101(18) 0.0280(5) 0.50238(14)
H43 H 0.2319 -0.0776 0.5156
C38 C 0.26863(19) 0.0297(4) 0.45405(13)
H44 H 0.2608 -0.0753 0.4343
C39 C 0.2057(4) 0.0419(10) 0.6036(3)
H45 H 0.1769 -0.0032 0.5787
H46 H 0.1825 0.1018 0.6302
C40 C 0.2380(3) -0.1193(13) 0.6250(3)
H47 H 0.2594 -0.1842 0.5987
H48 H 0.2090 -0.2025 0.6404
H49 H 0.2666 -0.0768 0.6498
C41 C 0.2345(3) 0.3853(14) 0.6107(3)
H50 H 0.2337 0.4934 0.5887
H51 H 0.2008 0.3873 0.6343
C42 C 0.2853(2) 0.3543(12) 0.6303(2)
H52 H 0.2829 0.2430 0.6505
H53 H 0.2966 0.4585 0.6511
H54 H 0.3153 0.3374 0.6044
N8 N 0.2439(3) 0.1786(6) 0.58068(15)
O9 O 0.33479(12) 0.4851(3) 0.44625(8)
O10 O 0.37859(17) 0.6421(4) 0.38671(11)
C43? C 0.2424(14) -0.006(3) 0.6007(10)
C44? C 0.1789(8) -0.054(4) 0.5960(8)
H55? H 0.2555 -0.0079 0.6355
H56? H 0.2680 -0.0902 0.5813
H57? H 0.1544 0.0411 0.6116
H58? H 0.1716 -0.1721 0.6123
H59? H 0.1683 -0.0636 0.5611
loop_
_geom_bond_atom_site_label_1
_geom_bond_atom_site_label_2
_geom_bond_site_symmetry_1
_geom_bond_site_symmetry_2
C1 N1 1_555 1_555
N1 H1 1_555 1_555
H2 N1 1_555 1_555
N2 C1 1_555 1_555
H3 N2 1_555 1_555
H4 N2 1_555 1_555
N3 C1 1_555 1_555
H5 N3 1_555 1_555
H6 N3 1_555 1_555
C2 N4 1_555 1_555
N4 H7 1_555 1_555
H8 N4 1_555 1_555
N5 C2 1_555 1_555
H9 N5 1_555 1_555
H10 N5 1_555 1_555
N6 C2 1_555 1_555
H11 N6 1_555 1_555
H12 N6 1_555 1_555
C3 C4 1_555 1_555
C4 H13 1_555 1_555
C5 C4 1_555 1_555
H14 C5 1_555 1_555
C6 C5 1_555 1_555
C7 C6 1_555 1_555
H15 C7 1_555 1_555
C8 C3 1_555 1_555
H16 C8 1_555 1_555
C9 C10 1_555 1_555
C10 H17 1_555 1_555
C11 C10 1_555 1_555
H18 C11 1_555 1_555
C12 C6 1_555 1_555
C13 C12 1_555 1_555
H19 C13 1_555 1_555
C14 C9 1_555 1_555
H20 C14 1_555 1_555
S1 C3 1_555 1_555
O1 S1 1_555 1_555
O2 S1 1_555 1_555
O3 S1 1_555 1_555
S2 C9 1_555 1_555
O4 S2 1_555 1_555
O5 S2 1_555 1_555
O6 S2 1_555 1_555
C15 C16 1_555 1_555
C16 H21 1_555 1_555
C17 C16 1_555 1_555
C18 C17 1_555 1_555
H22 C18 1_555 1_555
H23 C18 1_555 1_555
H24 C18 1_555 1_555
C19 C17 1_555 1_555
C20 C19 1_555 1_555
C21 C20 1_555 1_555
H25 C21 1_555 1_555
C22 C21 1_555 1_555
C23 C22 1_555 1_555
H26 C23 1_555 1_555
C24 C19 1_555 1_555
H27 C24 1_555 1_555
C25 H28 1_555 1_555
H29 C25 1_555 1_555
C26 C25 1_555 1_555
H30 C26 1_555 1_555
H31 C26 1_555 1_555
H32 C26 1_555 1_555
C27 H33 1_555 1_555
H34 C27 1_555 1_555
C28 C27 1_555 1_555
H35 C28 1_555 1_555
H36 C28 1_555 1_555
H37 C28 1_555 1_555
N7 C22 1_555 1_555
O7 C15 1_555 1_555
O8 C15 1_555 1_555
C29 C30 1_555 1_555
C30 H38 1_555 1_555
C31 C30 1_555 1_555
C32 C31 1_555 1_555
H39 C32 1_555 1_555
H40 C32 1_555 1_555
H41 C32 1_555 1_555
C33 C31 1_555 1_555
C34 C33 1_555 1_555
C35 C34 1_555 1_555
H42 C35 1_555 1_555
C36 C35 1_555 1_555
C37 C36 1_555 1_555
H43 C37 1_555 1_555
C38 C33 1_555 1_555
H44 C38 1_555 1_555
C39 H45 1_555 1_555
H46 C39 1_555 1_555
C40 C39 1_555 1_555
H47 C40 1_555 1_555
H48 C40 1_555 1_555
H49 C40 1_555 1_555
C41 H50 1_555 1_555
H51 C41 1_555 1_555
C42 C41 1_555 1_555
H52 C42 1_555 1_555
H53 C42 1_555 1_555
H54 C42 1_555 1_555
N8 C36 1_555 1_555
O9 C29 1_555 1_555
O10 C29 1_555 1_555
C7 C8 1_555 1_555
C11 C12 1_555 1_555
C13 C14 1_555 1_555
C20 O7 1_555 1_555
C23 C24 1_555 1_555
C25 N7 1_555 1_555
C27 N7 1_555 1_555
C34 O9 1_555 1_555
C37 C38 1_555 1_555
C39 N8 1_555 1_555
C41 N8 1_555 1_555

#END
