
#######################################################################
#
#                 Cambridge Crystallographic Data Centre
#                                CCDC 
#
#######################################################################
#
# If this CIF has been generated from an entry in the Cambridge 
# Structural Database, then it will include bibliographic, chemical, 
# crystal, experimental, refinement or atomic coordinate data resulting 
# from the CCDC's data processing and validation procedures.
#
#######################################################################

data_VUKCIO
_chemical_name_common            
'bis(Diaminomethaniminium) anthracene-2,6-disulfonate bis(coumarin 102) clathrate'
_chemical_formula_moiety         
'2(C1 H6 N3 1+),C14 H8 O6 S2 2-,2(C16 H17 N1 O2)'
_chemical_name_systematic        
'bis(Guanidinium) 2,6-anthracenedisulfonate bis(2,3,6,7-tetrahydro-9-methyl-1H,5H-quinolizino(9,1-gh)coumarin) clathrate'
_symmetry_cell_setting           orthorhombic
_symmetry_space_group_name_H-M   'P b c a'
_symmetry_Int_Tables_number      61
_space_group_name_Hall           '-P 2ac 2ab'
loop_
_symmetry_equiv_pos_site_id
_symmetry_equiv_pos_as_xyz
1 x,y,z
2 1/2-x,-y,1/2+z
3 -x,1/2+y,1/2-z
4 1/2+x,1/2-y,-z
5 -x,-y,-z
6 1/2+x,y,1/2-z
7 x,1/2-y,1/2+z
8 1/2-x,1/2+y,z
_cell_length_a                   13.8848(4)
_cell_length_b                   12.2852(4)
_cell_length_c                   26.8605(9)
_cell_angle_alpha                90
_cell_angle_beta                 90
_cell_angle_gamma                90
_cell_volume                     4581.8
_exptl_crystal_colour            green
_exptl_crystal_description       block
_cell_formula_units_Z            4
loop_
_atom_site_label
_atom_site_type_symbol
_atom_site_fract_x
_atom_site_fract_y
_atom_site_fract_z
S1 S 0.09009(2) 0.46173(3) 0.194888(14)
O1 O 0.18347(8) 0.51487(9) 0.19100(4)
O2 O 0.09840(8) 0.34714(9) 0.20879(5)
O3 O 0.02243(8) 0.51917(9) 0.22704(4)
C1 C 0.03818(10) 0.46282(12) 0.13507(6)
C2 C -0.05718(11) 0.42009(14) 0.12999(6)
H1 H -0.0903 0.3923 0.1582
C3 C 0.08786(10) 0.50232(13) 0.09529(6)
H2 H 0.1511 0.5301 0.0997
C4 C 0.04480(10) 0.50197(12) 0.04698(6)
C5 C 0.09395(10) 0.54074(13) 0.00519(6)
H3 H 0.1575 0.5683 0.0089
C6 C -0.05150(10) 0.46025(12) 0.04181(6)
C7 C -0.09984(11) 0.41952(13) 0.08453(6)
H4 H -0.1632 0.3914 0.0812
S1D S -0.09009(2) 0.53827(3) -0.194888(14)
O1D O -0.18347(8) 0.48513(9) -0.19100(4)
O2D O -0.09840(8) 0.65286(9) -0.20879(5)
O3D O -0.02243(8) 0.48083(9) -0.22704(4)
C1D C -0.03818(10) 0.53718(12) -0.13507(6)
C2D C 0.05718(11) 0.57991(14) -0.12999(6)
H1D H 0.0903 0.6077 -0.1582
C3D C -0.08786(10) 0.49768(13) -0.09529(6)
H2D H -0.1511 0.4699 -0.0997
C4D C -0.04480(10) 0.49803(12) -0.04698(6)
C5D C -0.09395(10) 0.45926(13) -0.00519(6)
H3D H -0.1575 0.4317 -0.0089
C6D C 0.05150(10) 0.53975(12) -0.04181(6)
C7D C 0.09984(11) 0.58048(13) -0.08453(6)
H4D H 0.1632 0.6086 -0.0812
C8 C 0.14412(11) 0.79814(13) 0.23288(6)
N1 N 0.21803(10) 0.74253(11) 0.21485(6)
H5 H 0.2132 0.6718 0.2104
H6 H 0.2720 0.7763 0.2074
N2 N 0.15134(10) 0.90484(11) 0.23982(6)
H7 H 0.1022 0.9416 0.2519
H8 H 0.2053 0.9388 0.2324
N3 N 0.06294(11) 0.74778(12) 0.24417(7)
H9 H 0.0578 0.6770 0.2397
H10 H 0.0140 0.7850 0.2561
O4 O 0.20737(19) 0.5817(3) 0.31683(9)
O5 O 0.17815(14) 0.55889(18) 0.39734(7)
N4 N 0.14062(16) 0.52169(17) 0.57277(10)
C9 C 0.1476(3) 0.6376(4) 0.5789(2)
H11 H 0.1713 0.6540 0.6128
H12 H 0.0827 0.6701 0.5754
C10 C 0.2135(3) 0.6878(2) 0.54164(14)
H13 H 0.2125 0.7679 0.5457
H14 H 0.2800 0.6624 0.5479
C11 C 0.1857(3) 0.6601(2) 0.49003(13)
H15 H 0.2417 0.6690 0.4676
H16 H 0.1339 0.7095 0.4786
C12 C 0.1498(2) 0.5403(3) 0.48834(14)
C13 C 0.13118(16) 0.4794(2) 0.52549(10)
C14 C 0.09938(15) 0.3711(2) 0.51862(11)
C15 C 0.0675(2) 0.3050(2) 0.56303(10)
H17 H 0.0836 0.2275 0.5574
H18 H -0.0033 0.3108 0.5667
C16 C 0.1156(3) 0.3438(2) 0.61054(11)
H19 H 0.0867 0.3061 0.6395
H20 H 0.1851 0.3259 0.6095
C17 C 0.1027(2) 0.4646(2) 0.61597(10)
H21 H 0.0334 0.4816 0.6198
H22 H 0.1366 0.4899 0.6463
C18 C 0.0972(2) 0.3266(3) 0.47159(15)
H23 H 0.0771 0.2532 0.4677
C19 C 0.15188(16) 0.4951(2) 0.43700(10)
C20 C 0.12395(17) 0.3862(3) 0.42895(12)
C21 C 0.12501(18) 0.3430(2) 0.37919(10)
C22 C 0.0967(3) 0.2278(3) 0.37018(14)
H24 H 0.0788 0.1936 0.4018
H25 H 0.1510 0.1883 0.3554
H26 H 0.0417 0.2256 0.3473
C23 C 0.1534(2) 0.4076(4) 0.34142(14)
H27 H 0.1500 0.3777 0.3088
C24 C 0.1886(3) 0.5175(3) 0.34565(14)
O6? O 0.1536(5) 0.7236(5) 0.5888(2)
O7? O 0.1610(3) 0.6259(4) 0.52040(19)
N5? N 0.1566(5) 0.4407(5) 0.3643(3)
C25? C 0.1714(8) 0.5401(10) 0.3523(6)
H28? H 0.2383 0.5344 0.3398
H29? H 0.1318 0.5442 0.3217
C26? C 0.1704(5) 0.6397(6) 0.3651(3)
H30? H 0.1060 0.6722 0.3598
H31? H 0.2187 0.6820 0.3461
C27? C 0.1958(5) 0.6369(6) 0.4203(3)
H32? H 0.2665 0.6427 0.4241
H33? H 0.1662 0.7005 0.4370
C28? C 0.1612(6) 0.5334(7) 0.4453(4)
C29? C 0.1448(5) 0.4391(6) 0.4162(3)
C30? C 0.1146(6) 0.3428(8) 0.4405(3)
C31? C 0.1028(6) 0.2374(6) 0.4101(3)
H34? H 0.0485 0.1948 0.4238
H35? H 0.1620 0.1929 0.4134
C32? C 0.0839(8) 0.2605(8) 0.3542(4)
H36? H 0.0863 0.1920 0.3349
H37? H 0.0195 0.2937 0.3497
C33? C 0.1606(7) 0.3371(7) 0.3368(3)
H38? H 0.2246 0.3031 0.3416
H39? H 0.1521 0.3514 0.3008
C34? C 0.0987(6) 0.3426(7) 0.4909(4)
H40? H 0.0770 0.2776 0.5064
C35? C 0.1666(8) 0.5351(12) 0.4787(5)
C36? C 0.1134(5) 0.4349(8) 0.5200(2)
C37? C 0.0980(5) 0.4418(6) 0.5732(3)
C38? C 0.0603(6) 0.3431(6) 0.6011(3)
H41? H 0.0547 0.2814 0.5782
H42? H -0.0031 0.3597 0.6152
H43? H 0.1050 0.3243 0.6280
C39? C 0.1132(6) 0.5355(7) 0.5964(4)
H44? H 0.0823 0.5458 0.6276
C40? C 0.1791(8) 0.6323(12) 0.5762(5)
loop_
_geom_bond_atom_site_label_1
_geom_bond_atom_site_label_2
_geom_bond_site_symmetry_1
_geom_bond_site_symmetry_2
S1 O1 1_555 1_555
O2 S1 1_555 1_555
O3 S1 1_555 1_555
C1 S1 1_555 1_555
C2 C1 1_555 1_555
H1 C2 1_555 1_555
C3 C1 1_555 1_555
H2 C3 1_555 1_555
C4 C3 1_555 1_555
C5 C4 1_555 1_555
H3 C5 1_555 1_555
C6 C4 1_555 1_555
C7 C2 1_555 1_555
H4 C7 1_555 1_555
C8 N1 1_555 1_555
N1 H5 1_555 1_555
H6 N1 1_555 1_555
N2 C8 1_555 1_555
H7 N2 1_555 1_555
H8 N2 1_555 1_555
N3 C8 1_555 1_555
H9 N3 1_555 1_555
H10 N3 1_555 1_555
O4 C24 1_555 1_555
O5 C19 1_555 1_555
N4 C9 1_555 1_555
C9 H11 1_555 1_555
H12 C9 1_555 1_555
C10 C9 1_555 1_555
H13 C10 1_555 1_555
H14 C10 1_555 1_555
C11 C10 1_555 1_555
H15 C11 1_555 1_555
H16 C11 1_555 1_555
C12 C11 1_555 1_555
C13 N4 1_555 1_555
C14 C13 1_555 1_555
C15 C14 1_555 1_555
H17 C15 1_555 1_555
H18 C15 1_555 1_555
C16 C15 1_555 1_555
H19 C16 1_555 1_555
H20 C16 1_555 1_555
C17 N4 1_555 1_555
H21 C17 1_555 1_555
H22 C17 1_555 1_555
C18 C14 1_555 1_555
H23 C18 1_555 1_555
C19 C12 1_555 1_555
C20 C18 1_555 1_555
C21 C20 1_555 1_555
C22 C21 1_555 1_555
H24 C22 1_555 1_555
H25 C22 1_555 1_555
H26 C22 1_555 1_555
C23 C21 1_555 1_555
H27 C23 1_555 1_555
C24 O5 1_555 1_555
S1D O1D 1_555 1_555
O2D S1D 1_555 1_555
O3D S1D 1_555 1_555
C1D S1D 1_555 1_555
C2D C1D 1_555 1_555
H1D C2D 1_555 1_555
C3D C1D 1_555 1_555
H2D C3D 1_555 1_555
C4D C3D 1_555 1_555
C5D C6 1_555 1_555
H3D C5D 1_555 1_555
C6D C5 1_555 1_555
C7D C2D 1_555 1_555
H4D C7D 1_555 1_555
C6 C7 1_555 1_555
C12 C13 1_555 1_555
C16 C17 1_555 1_555
C19 C20 1_555 1_555
C23 C24 1_555 1_555
C4D C5D 1_555 1_555
C4D C6D 1_555 1_555
C6D C7D 1_555 1_555

#END
