
#######################################################################
#
#                 Cambridge Crystallographic Data Centre
#                                CCDC 
#
#######################################################################
#
# If this CIF has been generated from an entry in the Cambridge 
# Structural Database, then it will include bibliographic, chemical, 
# crystal, experimental, refinement or atomic coordinate data resulting 
# from the CCDC's data processing and validation procedures.
#
#######################################################################

data_VUKDUB
_chemical_formula_moiety         '2(C1 H6 N3 1+),C14 H12 O6 S2 2-'
_chemical_name_systematic        
'bis(Guanidinium) 1,2-bis(4-sulfonatophenyl)ethane'
_symmetry_cell_setting           triclinic
_symmetry_space_group_name_H-M   'P -1'
_symmetry_Int_Tables_number      2
_space_group_name_Hall           '-P 1'
loop_
_symmetry_equiv_pos_site_id
_symmetry_equiv_pos_as_xyz
1 x,y,z
2 -x,-y,-z
_cell_length_a                   6.6862(7)
_cell_length_b                   7.7976(8)
_cell_length_c                   10.6689(12)
_cell_angle_alpha                100.038(4)
_cell_angle_beta                 98.454(4)
_cell_angle_gamma                106.649(4)
_cell_volume                     513.198
_exptl_crystal_colour            colorless
_exptl_crystal_description       block
_cell_formula_units_Z            1
loop_
_atom_site_label
_atom_site_type_symbol
_atom_site_fract_x
_atom_site_fract_y
_atom_site_fract_z
S1 S 0.31563(5) 1.18018(4) 0.32752(3)
O1 O 0.10112(16) 1.17328(15) 0.27172(11)
O2 O 0.47400(16) 1.35900(13) 0.33996(10)
O3 O 0.32747(16) 1.12251(14) 0.45203(10)
C1 C 0.2821(3) 0.7695(2) 0.02841(15)
H1 H 0.1806 0.6944 -0.0473
C2 C 0.5291(3) 0.5882(2) -0.02531(15)
H2 H 0.6833 0.6275 -0.0262
H3 H 0.4489 0.5629 -0.1158
C3 C 0.2321(2) 0.9062(2) 0.10849(14)
H4 H 0.0978 0.9244 0.0873
C4 C 0.4787(2) 0.74177(19) 0.05800(14)
C5 C 0.6265(2) 0.8556(2) 0.16855(15)
H5 H 0.7623 0.8398 0.1889
C6 C 0.5786(2) 0.99150(19) 0.24940(14)
H6 H 0.6805 1.0676 0.3247
C8 C 0.3802(2) 1.01523(18) 0.21926(13)
S1A S 0.68437(5) -0.18018(4) -0.32752(3)
O1A O 0.89888(16) -0.17328(15) -0.27172(11)
O2A O 0.52600(16) -0.35900(13) -0.33996(10)
O3A O 0.67253(16) -0.12251(14) -0.45203(10)
C1A C 0.7179(3) 0.2305(2) -0.02841(15)
H1A H 0.8194 0.3056 0.0473
C2A C 0.4709(3) 0.4118(2) 0.02531(15)
H2A H 0.3167 0.3725 0.0262
H3A H 0.5511 0.4371 0.1158
C3A C 0.7679(2) 0.0938(2) -0.10849(14)
H4A H 0.9022 0.0756 -0.0873
C4A C 0.5213(2) 0.25823(19) -0.05800(14)
C5A C 0.3735(2) 0.1444(2) -0.16855(15)
H5A H 0.2377 0.1602 -0.1889
C6A C 0.4214(2) 0.00850(19) -0.24940(14)
H6A H 0.3195 -0.0676 -0.3247
C8A C 0.6198(2) -0.01523(18) -0.21926(13)
C7 C 0.9394(2) 0.37595(18) 0.62814(13)
N1 N 0.9979(2) 0.23039(17) 0.58518(13)
H7 H 1.1326 0.2443 0.5829
H8 H 0.9018 0.1204 0.5591
N2 N 1.08170(19) 0.54244(16) 0.66777(13)
H9 H 1.0417 0.6371 0.6976
H10 H 1.2163 0.5584 0.6642
N3 N 0.73611(19) 0.35164(16) 0.63341(13)
H11 H 0.6960 0.4463 0.6633
H12 H 0.6416 0.2409 0.6071
loop_
_geom_bond_atom_site_label_1
_geom_bond_atom_site_label_2
_geom_bond_site_symmetry_1
_geom_bond_site_symmetry_2
S1 O1 1_555 1_555
O2 S1 1_555 1_555
O3 S1 1_555 1_555
C1 H1 1_555 1_555
C2 H2 1_555 1_555
H3 C2 1_555 1_555
C3 C1 1_555 1_555
H4 C3 1_555 1_555
C4 C1 1_555 1_555
C5 C4 1_555 1_555
H5 C5 1_555 1_555
C6 C5 1_555 1_555
H6 C6 1_555 1_555
C7 N1 1_555 1_555
C8 S1 1_555 1_555
N1 H7 1_555 1_555
H8 N1 1_555 1_555
N2 C7 1_555 1_555
H9 N2 1_555 1_555
H10 N2 1_555 1_555
N3 C7 1_555 1_555
H11 N3 1_555 1_555
H12 N3 1_555 1_555
S1A O1A 1_555 1_555
O2A S1A 1_555 1_555
O3A S1A 1_555 1_555
C1A H1A 1_555 1_555
C2A C2 1_555 1_555
H2A C2A 1_555 1_555
H3A C2A 1_555 1_555
C3A C1A 1_555 1_555
H4A C3A 1_555 1_555
C4A C1A 1_555 1_555
C5A C4A 1_555 1_555
H5A C5A 1_555 1_555
C6A C5A 1_555 1_555
H6A C6A 1_555 1_555
C8A S1A 1_555 1_555
C2 C4 1_555 1_555
C3 C8 1_555 1_555
C6 C8 1_555 1_555
C2A C4A 1_555 1_555
C3A C8A 1_555 1_555
C6A C8A 1_555 1_555

#END
