
#######################################################################
#
#                 Cambridge Crystallographic Data Centre
#                                CCDC 
#
#######################################################################
#
# If this CIF has been generated from an entry in the Cambridge 
# Structural Database, then it will include bibliographic, chemical, 
# crystal, experimental, refinement or atomic coordinate data resulting 
# from the CCDC's data processing and validation procedures.
#
#######################################################################

data_VUKDOV
_chemical_name_common            
"bis(Diaminomethaniminium) 4,4'-(ethane-1,2-diylbis(oxy))dibenzenesulfonate coumarin 102 methanol clathrate"
_chemical_formula_moiety         
'2(C1 H6 N3 1+),C14 H12 O8 S2 2-,C16 H17 N1 O2,C1 H4 O1'
_chemical_name_systematic        
'bis(Guanidinium) 1,2-bis(4-sulfonatophenoxy)ethane 2,3,6,7-tetrahydro-9-methyl-1H,5H-quinolizino(9,1-gh)coumarin methanol clathrate'
_symmetry_cell_setting           monoclinic
_symmetry_space_group_name_H-M   'C c'
_symmetry_Int_Tables_number      9
_space_group_name_Hall           'C -2yc'
loop_
_symmetry_equiv_pos_site_id
_symmetry_equiv_pos_as_xyz
1 x,y,z
2 x,-y,1/2+z
3 1/2+x,1/2+y,z
4 1/2+x,1/2-y,1/2+z
_cell_length_a                   7.5443(4)
_cell_length_b                   28.7511(13)
_cell_length_c                   16.8787(8)
_cell_angle_alpha                90
_cell_angle_beta                 93.225(3)
_cell_angle_gamma                90
_cell_volume                     3655.31
_exptl_crystal_colour            green
_exptl_crystal_description       needle
_cell_formula_units_Z            4
loop_
_atom_site_label
_atom_site_type_symbol
_atom_site_fract_x
_atom_site_fract_y
_atom_site_fract_z
S1 S 0.36967(9) 0.38248(2) 0.79121(4)
S2 S 0.39767(10) 0.31883(2) 0.13394(5)
O1 O 0.5242(3) 0.38896(7) 0.84548(12)
O2 O 0.3631(3) 0.33576(7) 0.75639(12)
O3 O 0.2031(3) 0.39494(7) 0.82503(12)
O4 O 0.3959(3) 0.34732(7) 0.06277(12)
O5 O 0.5587(3) 0.29047(7) 0.14373(12)
O6 O 0.2380(3) 0.29062(7) 0.13828(13)
O7 O 0.3596(3) 0.44820(7) 0.40418(12)
O8 O 0.4684(3) 0.51469(7) 0.53028(12)
C1 C 0.3967(4) 0.42088(10) 0.71077(17)
C2 C 0.2691(4) 0.42301(11) 0.64879(18)
H1 H 0.1670 0.4037 0.6497
C3 C 0.2879(4) 0.45281(11) 0.58551(17)
H2 H 0.2012 0.4535 0.5425
C4 C 0.4359(4) 0.48182(10) 0.58579(17)
C5 C 0.5665(4) 0.47875(10) 0.64730(18)
H3 H 0.6696 0.4976 0.6465
C6 C 0.5465(4) 0.44834(10) 0.70947(16)
H4 H 0.6358 0.4463 0.7513
C7 C 0.3428(4) 0.52293(11) 0.46504(18)
H5 H 0.3388 0.5566 0.4531
H6 H 0.2233 0.5133 0.4801
C8 C 0.3897(5) 0.49679(11) 0.39225(19)
H7 H 0.3157 0.5079 0.3457
H8 H 0.5159 0.5022 0.3819
C9 C 0.3820(4) 0.41929(11) 0.34044(18)
C10 C 0.3421(5) 0.37301(11) 0.35184(18)
H9 H 0.3087 0.3624 0.4022
C11 C 0.3512(5) 0.34202(10) 0.2892(2)
H10 H 0.3259 0.3100 0.2969
C12 C 0.3971(4) 0.35757(10) 0.21547(18)
C13 C 0.4416(4) 0.40379(11) 0.20520(19)
H11 H 0.4769 0.4144 0.1551
C14 C 0.4347(5) 0.43456(11) 0.26781(18)
H12 H 0.4661 0.4662 0.2609
C15 C 0.3609(4) 0.18698(10) 0.25654(18)
N1 N 0.5132(4) 0.20470(9) 0.23431(17)
H13 H 0.6138 0.1902 0.2463
H14 H 0.5134 0.2310 0.2076
N2 N 0.3617(4) 0.14756(8) 0.29665(16)
H15 H 0.2612 0.1356 0.3111
H16 H 0.4627 0.1333 0.3089
N3 N 0.2102(4) 0.20894(9) 0.23761(16)
H17 H 0.1089 0.1973 0.2518
H18 H 0.2113 0.2352 0.2109
C16 C 0.3886(4) 0.14239(10) 0.52300(17)
N4 N 0.5385(4) 0.12703(10) 0.49501(15)
H19 H 0.6404 0.1397 0.5111
H20 H 0.5361 0.1042 0.4603
N5 N 0.2358(4) 0.12225(9) 0.49942(16)
H21 H 0.2349 0.0990 0.4656
H22 H 0.1356 0.1322 0.5177
N6 N 0.3896(4) 0.17689(9) 0.57541(16)
H23 H 0.4906 0.1899 0.5920
H24 H 0.2892 0.1868 0.5935
O9 O 0.3914(3) -0.05324(7) 0.88896(13)
O10 O 0.3746(3) 0.02231(7) 0.90711(12)
N7 N 0.2963(4) 0.18318(9) 0.96020(17)
C17 C 0.3011(7) 0.23198(12) 0.9377(2)
H25 H 0.3404 0.2508 0.9846
H26 H 0.1799 0.2422 0.9202
C18 C 0.4229(7) 0.24058(13) 0.8728(2)
H27 H 0.5469 0.2340 0.8919
H28 H 0.4153 0.2736 0.8562
C19 C 0.3713(6) 0.20949(11) 0.8033(2)
H29 H 0.2514 0.2181 0.7811
H30 H 0.4560 0.2138 0.7612
C20 C 0.3719(4) 0.15928(11) 0.82930(19)
C21 C 0.3349(4) 0.14831(10) 0.90854(19)
C22 C 0.3368(4) 0.10166(10) 0.93403(18)
C23 C 0.2903(5) 0.08854(11) 1.01723(19)
H31 H 0.1713 0.0739 1.0149
H32 H 0.3769 0.0652 1.0387
C24 C 0.1760(10) 0.1262(2) 1.0491(4)
H33 H 0.0562 0.1241 1.0222
H34 H 0.1634 0.1205 1.1063
C25 C 0.2429(8) 0.17236(14) 1.0390(2)
H35 H 0.2919 0.1968 1.0753
H36 H 0.1120 0.1749 1.0383
C26 C 0.4097(4) 0.12419(10) 0.77802(18)
H37 H 0.4337 0.1319 0.7250
C27 C 0.3775(4) 0.06778(10) 0.87951(18)
C28 C 0.4144(4) 0.07700(10) 0.80102(17)
C29 C 0.4535(4) 0.03891(11) 0.75050(18)
C30 C 0.4925(5) 0.04752(12) 0.66553(19)
H38 H 0.5151 0.0178 0.6395
H39 H 0.5973 0.0675 0.6634
H40 H 0.3904 0.0629 0.6382
C31 C 0.4520(4) -0.00524(11) 0.77984(18)
H41 H 0.4820 -0.0304 0.7466
C32 C 0.4064(4) -0.01468(11) 0.85933(18)
O11 O 0.3776(6) 0.28311(14) 0.6124(2)
H42 H 0.3859 0.3068 0.6526
C33 C 0.2675(10) 0.2946(2) 0.5459(4)
H43 H 0.2399 0.3279 0.5469
H44 H 0.1572 0.2766 0.5466
H45 H 0.3281 0.2873 0.4976
C34? C 0.2904(16) 0.1293(3) 1.0723(6)
H46? H 0.2080 0.1223 1.1144
H47? H 0.4108 0.1322 1.0983
loop_
_geom_bond_atom_site_label_1
_geom_bond_atom_site_label_2
_geom_bond_site_symmetry_1
_geom_bond_site_symmetry_2
S1 O1 1_555 1_555
S2 O4 1_555 1_555
O2 S1 1_555 1_555
O3 S1 1_555 1_555
O5 S2 1_555 1_555
O6 S2 1_555 1_555
O7 C8 1_555 1_555
O8 C4 1_555 1_555
C1 S1 1_555 1_555
C2 C1 1_555 1_555
H1 C2 1_555 1_555
C3 C2 1_555 1_555
H2 C3 1_555 1_555
C4 C3 1_555 1_555
C5 C4 1_555 1_555
H3 C5 1_555 1_555
C6 C1 1_555 1_555
H4 C6 1_555 1_555
C7 O8 1_555 1_555
H5 C7 1_555 1_555
H6 C7 1_555 1_555
C8 C7 1_555 1_555
H7 C8 1_555 1_555
H8 C8 1_555 1_555
C9 O7 1_555 1_555
C10 C9 1_555 1_555
H9 C10 1_555 1_555
C11 C10 1_555 1_555
H10 C11 1_555 1_555
C12 S2 1_555 1_555
C13 C12 1_555 1_555
H11 C13 1_555 1_555
C14 C9 1_555 1_555
H12 C14 1_555 1_555
C15 N1 1_555 1_555
N1 H13 1_555 1_555
H14 N1 1_555 1_555
N2 C15 1_555 1_555
H15 N2 1_555 1_555
H16 N2 1_555 1_555
N3 C15 1_555 1_555
H17 N3 1_555 1_555
H18 N3 1_555 1_555
C16 N4 1_555 1_555
N4 H19 1_555 1_555
H20 N4 1_555 1_555
N5 C16 1_555 1_555
H21 N5 1_555 1_555
H22 N5 1_555 1_555
N6 C16 1_555 1_555
H23 N6 1_555 1_555
H24 N6 1_555 1_555
O9 C32 1_555 1_555
O10 C27 1_555 1_555
N7 C17 1_555 1_555
C17 H25 1_555 1_555
H26 C17 1_555 1_555
C18 C17 1_555 1_555
H27 C18 1_555 1_555
H28 C18 1_555 1_555
C19 C18 1_555 1_555
H29 C19 1_555 1_555
H30 C19 1_555 1_555
C20 C19 1_555 1_555
C21 N7 1_555 1_555
C22 C21 1_555 1_555
C23 C22 1_555 1_555
H31 C23 1_555 1_555
H32 C23 1_555 1_555
C24 C23 1_555 1_555
H33 C24 1_555 1_555
H34 C24 1_555 1_555
C25 N7 1_555 1_555
H35 C25 1_555 1_555
H36 C25 1_555 1_555
C26 C20 1_555 1_555
H37 C26 1_555 1_555
C27 C22 1_555 1_555
C28 C26 1_555 1_555
C29 C28 1_555 1_555
C30 C29 1_555 1_555
H38 C30 1_555 1_555
H39 C30 1_555 1_555
H40 C30 1_555 1_555
C31 C29 1_555 1_555
H41 C31 1_555 1_555
C32 O10 1_555 1_555
O11 H42 1_555 1_555
C33 O11 1_555 1_555
H43 C33 1_555 1_555
H44 C33 1_555 1_555
H45 C33 1_555 1_555
C5 C6 1_555 1_555
C11 C12 1_555 1_555
C13 C14 1_555 1_555
C20 C21 1_555 1_555
C24 C25 1_555 1_555
C27 C28 1_555 1_555
C31 C32 1_555 1_555

#END
