
#######################################################################
#
#                 Cambridge Crystallographic Data Centre
#                                CCDC 
#
#######################################################################
#
# If this CIF has been generated from an entry in the Cambridge 
# Structural Database, then it will include bibliographic, chemical, 
# crystal, experimental, refinement or atomic coordinate data resulting 
# from the CCDC's data processing and validation procedures.
#
#######################################################################

data_VUKMUL
_chemical_name_common            
'5,17-bis(dimethylamino)-2,8,14,20-tetramethyl-2,8,14,20-tetraazacalix(2)pyrimidine(2)1,3,5-triazine N,N-dimethylformamide solvate'
_chemical_formula_moiety         'C22 H28 N16,C3 H7 N1 O1'
_chemical_name_systematic        
'2,8,14,20-tetramethyl-5,17-bis(dimethylamino)-2,4,6,8,10,12,14,16,18,20,22,24,25,27-tetradecaazacalix(4)arene N,N-dimethylformamide solvate'
_symmetry_cell_setting           monoclinic
_symmetry_space_group_name_H-M   'C 2/c'
_symmetry_Int_Tables_number      15
_space_group_name_Hall           '-C 2yn'
loop_
_symmetry_equiv_pos_site_id
_symmetry_equiv_pos_as_xyz
1 x,y,z
2 -x,y,1/2-z
3 1/2+x,1/2+y,z
4 1/2-x,1/2+y,1/2-z
5 -x,-y,-z
6 x,-y,1/2+z
7 1/2-x,1/2-y,-z
8 1/2+x,1/2-y,1/2+z
_cell_length_a                   21.900(4)
_cell_length_b                   11.882(2)
_cell_length_c                   23.127(5)
_cell_angle_alpha                90
_cell_angle_beta                 98.94(3)
_cell_angle_gamma                90
_cell_volume                     5944.9
_exptl_crystal_colour            colorless
_exptl_crystal_description       plate
_cell_formula_units_Z            8
loop_
_atom_site_label
_atom_site_type_symbol
_atom_site_fract_x
_atom_site_fract_y
_atom_site_fract_z
N1 N 0.08806(13) 0.3780(2) 0.24443(12)
N2 N 0.06596(12) 0.2128(2) 0.18512(12)
N3 N -0.10064(13) 0.0225(2) 0.10906(12)
N4 N 0.01846(13) 0.3847(2) 0.15958(12)
N5 N 0.14749(13) 0.2105(2) 0.26683(13)
N6 N 0.12909(13) 0.0555(2) 0.20675(13)
N7 N -0.17563(14) -0.0941(2) 0.14471(13)
C1 C -0.11828(16) -0.0627(3) 0.14117(14)
N8 N -0.20836(13) 0.0494(2) 0.07483(13)
N9 N -0.00020(14) 0.3981(3) 0.05843(13)
N10 N 0.11370(14) -0.1156(2) 0.15975(13)
N11 N -0.07499(14) 0.2845(3) -0.00064(13)
N12 N -0.07213(14) -0.1276(2) 0.17193(13)
C2 C 0.13256(15) 0.3181(3) 0.27715(14)
N13 N -0.13556(13) 0.1549(2) 0.03704(12)
N14 N 0.16639(14) 0.3708(3) 0.32304(13)
C3 C 0.05802(14) 0.3215(3) 0.19857(14)
N15 N -0.27900(14) -0.0614(3) 0.11169(15)
C4 C -0.05285(15) 0.2523(3) 0.10253(14)
H1 H -0.0584 0.2098 0.1361
C5 C -0.00898(16) -0.1161(3) 0.16491(15)
C6 C 0.08792(16) -0.0253(3) 0.18130(14)
C7 C -0.08617(15) 0.2285(3) 0.04703(14)
C8 C 0.11251(15) 0.1646(3) 0.22104(14)
C9 C -0.01169(15) 0.3406(3) 0.10564(15)
N16 N 0.01586(15) -0.2089(3) 0.14453(14)
C10 C -0.14848(15) 0.0727(3) 0.07619(15)
C11 C -0.03244(18) 0.3646(3) 0.00798(16)
H2 H -0.0240 0.4026 -0.0260
C12 C 0.02398(16) -0.0203(3) 0.18182(14)
H3 H 0.0046 0.0458 0.1933
C13 C -0.21945(16) -0.0348(3) 0.11039(16)
C14 C 0.01937(18) 0.5073(3) 0.16577(17)
H4 H 0.0413 0.5277 0.2045
H5 H -0.0231 0.5356 0.1614
H6 H 0.0405 0.5406 0.1355
C15 C 0.07582(18) -0.2000(3) 0.14195(17)
H7 H 0.0939 -0.2622 0.1252
C16 C 0.21528(19) 0.3138(4) 0.36145(18)
H8 H 0.2207 0.2379 0.3465
H9 H 0.2043 0.3089 0.4009
H10 H 0.2539 0.3561 0.3629
C17 C -0.09002(19) -0.2340(3) 0.19712(18)
H11 H -0.1342 -0.2321 0.1999
H12 H -0.0661 -0.2439 0.2363
H13 H -0.0816 -0.2967 0.1720
C18 C 0.19532(17) 0.0249(3) 0.22088(19)
H14 H 0.2010 -0.0531 0.2091
H15 H 0.2090 0.0326 0.2631
H16 H 0.2198 0.0750 0.1998
C19 C -0.2947(2) -0.1494(4) 0.1504(2)
H17 H -0.2568 -0.1857 0.1698
H18 H -0.3211 -0.2054 0.1276
H19 H -0.3169 -0.1164 0.1800
C20 C -0.17959(18) 0.1711(4) -0.01732(17)
H20 H -0.1647 0.2313 -0.0405
H21 H -0.2201 0.1918 -0.0076
H22 H -0.1833 0.1011 -0.0400
C21 C 0.1521(2) 0.4851(4) 0.33900(19)
H23 H 0.1186 0.5150 0.3101
H24 H 0.1889 0.5324 0.3399
H25 H 0.1393 0.4849 0.3777
C22 C -0.32795(19) 0.0040(4) 0.0782(2)
H26 H -0.3100 0.0591 0.0542
H27 H -0.3512 0.0434 0.1050
H28 H -0.3558 -0.0461 0.0528
O2 O 0.2677(6) 0.6083(17) 0.4379(5)
N18 N 0.3535(5) 0.6774(11) 0.4879(4)
C26 C 0.2914(5) 0.6693(10) 0.4755(5)
H36 H 0.2663 0.7129 0.4970
C27 C 0.3956(8) 0.6171(14) 0.4595(7)
H37 H 0.3733 0.5592 0.4343
H38 H 0.4266 0.5812 0.4888
H39 H 0.4160 0.6687 0.4356
C28 C 0.3784(8) 0.768(3) 0.5286(9)
H40 H 0.3448 0.8011 0.5462
H41 H 0.3977 0.8255 0.5072
H42 H 0.4095 0.7360 0.5594
O1? O 0.2807(19) 0.644(5) 0.442(2)
N17? N 0.3767(8) 0.6330(13) 0.4773(6)
C23? C 0.3275(6) 0.5948(11) 0.4409(5)
H29? H 0.3298 0.5324 0.4157
C24? C 0.4380(7) 0.5793(12) 0.4741(5)
H30? H 0.4323 0.5163 0.4465
H31? H 0.4559 0.5515 0.5130
H32? H 0.4659 0.6349 0.4609
C25? C 0.3771(11) 0.727(3) 0.5142(13)
H33? H 0.3352 0.7576 0.5112
H34? H 0.4047 0.7847 0.5024
H35? H 0.3918 0.7045 0.5547
loop_
_geom_bond_atom_site_label_1
_geom_bond_atom_site_label_2
_geom_bond_site_symmetry_1
_geom_bond_site_symmetry_2
N1 C2 1_555 1_555
N2 C3 1_555 1_555
N3 C1 1_555 1_555
N4 C3 1_555 1_555
N5 C2 1_555 1_555
N6 C6 1_555 1_555
N7 C1 1_555 1_555
C1 N12 1_555 1_555
N8 C10 1_555 1_555
N9 C9 1_555 1_555
N10 C6 1_555 1_555
N11 C7 1_555 1_555
N12 C5 1_555 1_555
C2 N14 1_555 1_555
N13 C7 1_555 1_555
N14 C16 1_555 1_555
C3 N1 1_555 1_555
N15 C13 1_555 1_555
C4 H1 1_555 1_555
C5 N16 1_555 1_555
C6 C12 1_555 1_555
C7 C4 1_555 1_555
C8 N2 1_555 1_555
C9 N4 1_555 1_555
N16 C15 1_555 1_555
C10 N3 1_555 1_555
C11 N9 1_555 1_555
H2 C11 1_555 1_555
C12 C5 1_555 1_555
H3 C12 1_555 1_555
C13 N7 1_555 1_555
C14 N4 1_555 1_555
H4 C14 1_555 1_555
H5 C14 1_555 1_555
H6 C14 1_555 1_555
C15 N10 1_555 1_555
H7 C15 1_555 1_555
C16 H8 1_555 1_555
H9 C16 1_555 1_555
H10 C16 1_555 1_555
C17 N12 1_555 1_555
H11 C17 1_555 1_555
H12 C17 1_555 1_555
H13 C17 1_555 1_555
C18 N6 1_555 1_555
H14 C18 1_555 1_555
H15 C18 1_555 1_555
H16 C18 1_555 1_555
C19 N15 1_555 1_555
H17 C19 1_555 1_555
H18 C19 1_555 1_555
H19 C19 1_555 1_555
C20 N13 1_555 1_555
H20 C20 1_555 1_555
H21 C20 1_555 1_555
H22 C20 1_555 1_555
C21 N14 1_555 1_555
H23 C21 1_555 1_555
H24 C21 1_555 1_555
H25 C21 1_555 1_555
C22 N15 1_555 1_555
H26 C22 1_555 1_555
H27 C22 1_555 1_555
H28 C22 1_555 1_555
O2 C26 1_555 1_555
N18 C26 1_555 1_555
C26 H36 1_555 1_555
C27 N18 1_555 1_555
H37 C27 1_555 1_555
H38 C27 1_555 1_555
H39 C27 1_555 1_555
C28 N18 1_555 1_555
H40 C28 1_555 1_555
H41 C28 1_555 1_555
H42 C28 1_555 1_555
N5 C8 1_555 1_555
N6 C8 1_555 1_555
N8 C13 1_555 1_555
N11 C11 1_555 1_555
N13 C10 1_555 1_555
C4 C9 1_555 1_555

#END
