
#######################################################################
#
#                 Cambridge Crystallographic Data Centre
#                                CCDC 
#
#######################################################################
#
# If this CIF has been generated from an entry in the Cambridge 
# Structural Database, then it will include bibliographic, chemical, 
# crystal, experimental, refinement or atomic coordinate data resulting 
# from the CCDC's data processing and validation procedures.
#
#######################################################################

data_VULCAI
_chemical_name_common            
'4,8-Diethyl-3,9-diphenyl-1-(2,4,6-trimethylbenzyl)-1-benzo[ij]-imidazo[2,1,5-de]quinolizinium chloride hydrate'
_chemical_formula_moiety         'C39 H37 N2 1+,1.25(H2 O1),Cl1 1-'
_chemical_name_systematic        
'4,8-diethyl-1-(mesitylmethyl)-3,9-diphenyl-9b-aza-1-azoniacyclopenta[cd]phenalene chloride hydrate'
_symmetry_cell_setting           monoclinic
_symmetry_space_group_name_H-M   'C 2/c'
_symmetry_Int_Tables_number      15
_space_group_name_Hall           '-C 2yn'
loop_
_symmetry_equiv_pos_site_id
_symmetry_equiv_pos_as_xyz
1 x,y,z
2 -x,y,1/2-z
3 1/2+x,1/2+y,z
4 1/2-x,1/2+y,1/2-z
5 -x,-y,-z
6 x,-y,1/2+z
7 1/2-x,1/2-y,-z
8 1/2+x,1/2-y,1/2+z
_cell_length_a                   28.643(6)
_cell_length_b                   11.259(2)
_cell_length_c                   19.703(4)
_cell_angle_alpha                90
_cell_angle_beta                 90.20(3)
_cell_angle_gamma                90
_cell_volume                     6354.01
_exptl_crystal_colour            'yellow green'
_exptl_crystal_description       Prism
_chemical_melting_point          '160-162 deg.C'
_cell_formula_units_Z            8
loop_
_atom_site_label
_atom_site_type_symbol
_atom_site_fract_x
_atom_site_fract_y
_atom_site_fract_z
N1 N 0.34567(7) 0.71018(19) 0.91426(11)
N2 N 0.34855(7) 0.86890(19) 0.85160(11)
C1 C 0.39149(9) 0.8563(2) 0.88278(14)
H1 H 0.4174 0.9080 0.8773
C2 C 0.39059(9) 0.7573(2) 0.92288(14)
C3 C 0.42205(9) 0.6976(2) 0.96830(14)
C4 C 0.40822(9) 0.5969(3) 1.00030(14)
C5 C 0.36122(9) 0.5491(2) 0.98987(13)
C6 C 0.34379(10) 0.4453(2) 1.01929(14)
H2 H 0.3634 0.3995 1.0481
C7 C 0.29816(10) 0.4077(2) 1.00708(14)
H3 H 0.2873 0.3373 1.0284
C8 C 0.26830(10) 0.4699(2) 0.96478(14)
H4 H 0.2375 0.4417 0.9571
C9 C 0.28340(9) 0.5748(2) 0.93302(14)
C10 C 0.25491(9) 0.6464(2) 0.88727(14)
C11 C 0.27294(9) 0.7478(2) 0.85754(13)
C12 C 0.32016(9) 0.7785(2) 0.87092(14)
C13 C 0.32953(9) 0.6101(2) 0.94660(14)
C14 C 0.33917(9) 0.9607(2) 0.79821(14)
H5 H 0.3056 0.9819 0.7988
H6 H 0.3463 0.9269 0.7530
C15 C 0.36801(9) 1.0716(2) 0.80898(14)
C16 C 0.40573(9) 1.0984(3) 0.76652(15)
C17 C 0.42888(10) 1.2061(3) 0.77471(16)
H7 H 0.4537 1.2251 0.7448
C18 C 0.41697(10) 1.2867(3) 0.82489(16)
C19 C 0.38074(10) 1.2569(3) 0.86823(16)
H8 H 0.3726 1.3102 0.9036
C20 C 0.35591(10) 1.1510(2) 0.86135(15)
C21 C 0.31594(11) 1.1258(3) 0.90859(16)
H9 H 0.3171 1.1810 0.9470
H10 H 0.3183 1.0441 0.9253
H11 H 0.2863 1.1359 0.8842
C22 C 0.44199(12) 1.4046(3) 0.8326(2)
H12 H 0.4650 1.4133 0.7962
H13 H 0.4579 1.4071 0.8766
H14 H 0.4192 1.4694 0.8299
C23 C 0.42174(11) 1.0126(3) 0.71178(16)
H15 H 0.4507 1.0420 0.6915
H16 H 0.3976 1.0064 0.6766
H17 H 0.4272 0.9343 0.7319
C24 C 0.46910(10) 0.7551(3) 0.97607(16)
C25 C 0.49994(11) 0.7557(3) 0.9213(2)
H18 H 0.4912 0.7197 0.8795
C26 C 0.54333(12) 0.8091(4) 0.9281(2)
H19 H 0.5645 0.8086 0.8910
C27 C 0.55604(12) 0.8628(4) 0.9880(3)
H20 H 0.5859 0.8990 0.9924
C28 C 0.52560(13) 0.8641(4) 1.0416(2)
H21 H 0.5344 0.9021 1.0827
C29 C 0.48181(11) 0.8106(3) 1.03647(18)
H22 H 0.4609 0.8120 1.0738
C30 C 0.44014(10) 0.5298(3) 1.04835(16)
H23 H 0.4727 0.5552 1.0403
H24 H 0.4381 0.4439 1.0380
C31 C 0.42847(11) 0.5489(3) 1.12333(16)
H25 H 0.4323 0.6331 1.1348
H26 H 0.4495 0.5010 1.1515
H27 H 0.3961 0.5248 1.1317
C32 C 0.20509(9) 0.6090(2) 0.87430(15)
H28 H 0.2039 0.5217 0.8683
H29 H 0.1939 0.6460 0.8317
C33 C 0.17252(10) 0.6448(3) 0.93264(16)
H30 H 0.1850 0.6142 0.9756
H31 H 0.1414 0.6114 0.9246
H32 H 0.1704 0.7316 0.9349
C34 C 0.24359(9) 0.8259(2) 0.81358(14)
C35 C 0.24065(9) 0.8082(2) 0.74433(14)
H33 H 0.2570 0.7444 0.7236
C36 C 0.21361(10) 0.8844(3) 0.70530(15)
H34 H 0.2112 0.8721 0.6577
C37 C 0.19016(9) 0.9777(3) 0.73493(15)
H35 H 0.1715 1.0289 0.7077
C38 C 0.19354(9) 0.9972(3) 0.80360(15)
H36 H 0.1780 1.0629 0.8237
C39 C 0.21972(9) 0.9206(2) 0.84333(15)
H37 H 0.2215 0.9325 0.8910
Cl1 Cl 0.33664(3) 0.19709(7) 0.12727(4)
O1 O 0.39493(9) 0.3013(2) 0.24620(14)
H38 H 0.4239(5) 0.320(4) 0.2488(16)
H39 H 0.3834(10) 0.283(4) 0.2087(10)
O2 O 0.5000 0.3162(12) 0.2500
loop_
_geom_bond_atom_site_label_1
_geom_bond_atom_site_label_2
_geom_bond_site_symmetry_1
_geom_bond_site_symmetry_2
N1 C2 1_555 1_555
N2 C1 1_555 1_555
C1 H1 1_555 1_555
C2 C1 1_555 1_555
C3 C2 1_555 1_555
C4 C3 1_555 1_555
C5 C4 1_555 1_555
C6 C5 1_555 1_555
H2 C6 1_555 1_555
C7 C6 1_555 1_555
H3 C7 1_555 1_555
C8 C7 1_555 1_555
H4 C8 1_555 1_555
C9 C8 1_555 1_555
C10 C9 1_555 1_555
C11 C10 1_555 1_555
C12 N1 1_555 1_555
C13 N1 1_555 1_555
C14 N2 1_555 1_555
H5 C14 1_555 1_555
H6 C14 1_555 1_555
C15 C14 1_555 1_555
C16 C15 1_555 1_555
C17 C16 1_555 1_555
H7 C17 1_555 1_555
C18 C17 1_555 1_555
C19 C18 1_555 1_555
H8 C19 1_555 1_555
C20 C15 1_555 1_555
C21 C20 1_555 1_555
H9 C21 1_555 1_555
H10 C21 1_555 1_555
H11 C21 1_555 1_555
C22 C18 1_555 1_555
H12 C22 1_555 1_555
H13 C22 1_555 1_555
H14 C22 1_555 1_555
C23 C16 1_555 1_555
H15 C23 1_555 1_555
H16 C23 1_555 1_555
H17 C23 1_555 1_555
C24 C3 1_555 1_555
C25 C24 1_555 1_555
H18 C25 1_555 1_555
C26 C25 1_555 1_555
H19 C26 1_555 1_555
C27 C26 1_555 1_555
H20 C27 1_555 1_555
C28 C27 1_555 1_555
H21 C28 1_555 1_555
C29 C24 1_555 1_555
H22 C29 1_555 1_555
C30 C4 1_555 1_555
H23 C30 1_555 1_555
H24 C30 1_555 1_555
C31 C30 1_555 1_555
H25 C31 1_555 1_555
H26 C31 1_555 1_555
H27 C31 1_555 1_555
C32 C10 1_555 1_555
H28 C32 1_555 1_555
H29 C32 1_555 1_555
C33 C32 1_555 1_555
H30 C33 1_555 1_555
H31 C33 1_555 1_555
H32 C33 1_555 1_555
C34 C11 1_555 1_555
C35 C34 1_555 1_555
H33 C35 1_555 1_555
C36 C35 1_555 1_555
H34 C36 1_555 1_555
C37 C36 1_555 1_555
H35 C37 1_555 1_555
C38 C37 1_555 1_555
H36 C38 1_555 1_555
C39 C34 1_555 1_555
H37 C39 1_555 1_555
O1 H38 1_555 1_555
H39 O1 1_555 1_555
N2 C12 1_555 1_555
C5 C13 1_555 1_555
C9 C13 1_555 1_555
C11 C12 1_555 1_555
C19 C20 1_555 1_555
C28 C29 1_555 1_555
C38 C39 1_555 1_555

#END
