
#######################################################################
#
#                 Cambridge Crystallographic Data Centre
#                                CCDC 
#
#######################################################################
#
# If this CIF has been generated from an entry in the Cambridge 
# Structural Database, then it will include bibliographic, chemical, 
# crystal, experimental, refinement or atomic coordinate data resulting 
# from the CCDC's data processing and validation procedures.
#
#######################################################################

data_VULCIQ01
_chemical_formula_moiety         'C41 H27 N3 O2,C1 H1 Cl3'
_chemical_name_systematic        
'3,4-bis(4-(9H-carbazol-9-yl)phenyl)-1-methyl-1H-pyrrole-2,5-dione chloroform solvate'
_symmetry_cell_setting           triclinic
_symmetry_space_group_name_H-M   'P -1'
_symmetry_Int_Tables_number      2
_space_group_name_Hall           '-P 1'
loop_
_symmetry_equiv_pos_site_id
_symmetry_equiv_pos_as_xyz
1 x,y,z
2 -x,-y,-z
_cell_length_a                   9.0205(3)
_cell_length_b                   10.9629(3)
_cell_length_c                   17.9974(6)
_cell_angle_alpha                78.085(3)
_cell_angle_beta                 82.277(3)
_cell_angle_gamma                80.414(3)
_cell_volume                     1707.87
_cell_formula_units_Z            2
loop_
_atom_site_label
_atom_site_type_symbol
_atom_site_fract_x
_atom_site_fract_y
_atom_site_fract_z
Cl1 Cl 0.57311(8) 0.36533(5) 0.45513(3)
Cl2 Cl 0.56345(8) 0.43852(7) 0.29253(4)
Cl3 Cl 0.82750(8) 0.46138(9) 0.35984(5)
C1 C 0.6304(3) 0.47093(18) 0.37306(13)
H1 H 0.5868 0.5567 0.3793
O1 O 0.56419(17) -0.23266(11) 0.37032(7)
N1 N 0.62674(18) -0.13591(13) 0.24653(8)
C2 C 0.5518(2) -0.14191(15) 0.31879(8)
O2 O 0.6303(2) 0.00879(13) 0.13487(7)
N2 N 0.11749(17) 0.08519(13) 0.59609(8)
C3 C 0.7366(2) -0.23604(18) 0.22166(11)
H2 H 0.8021 -0.2720 0.2609
H3 H 0.7955 -0.2023 0.1758
H4 H 0.6849 -0.3000 0.2119
N3 N 0.18667(16) 0.54446(13) 0.12421(8)
C4 C 0.5857(2) -0.02034(16) 0.20154(9)
C5 C 0.47417(18) 0.05681(14) 0.25052(8)
C6 C 0.45554(18) -0.01641(14) 0.32069(8)
C7 C 0.36856(17) 0.00994(13) 0.39193(8)
C8 C 0.27912(18) -0.07617(14) 0.43592(9)
H5 H 0.2756 -0.1512 0.4202
C9 C 0.19538(19) -0.05115(14) 0.50284(9)
H6 H 0.1338 -0.1081 0.5310
C10 C 0.20333(18) 0.05903(15) 0.52786(9)
C11 C 0.2963(2) 0.14370(15) 0.48573(9)
H7 H 0.3045 0.2162 0.5032
C12 C 0.3761(2) 0.12015(15) 0.41799(9)
H8 H 0.4357 0.1783 0.3893
C13 C 0.40149(18) 0.18386(15) 0.21985(8)
C14 C 0.2561(2) 0.23045(16) 0.24890(9)
H9 H 0.2050 0.1804 0.2889
C15 C 0.1870(2) 0.34977(17) 0.21908(10)
H10 H 0.0912 0.3799 0.2399
C16 C 0.26067(18) 0.42497(15) 0.15785(9)
C17 C 0.40489(19) 0.37980(16) 0.12838(9)
H11 H 0.4549 0.4298 0.0879
C18 C 0.47504(19) 0.26114(15) 0.15862(9)
H12 H 0.5717 0.2322 0.1383
C19 C 0.1085(2) 0.00236(17) 0.66654(9)
C20 C 0.1849(2) -0.11821(18) 0.68758(10)
H13 H 0.2516 -0.1573 0.6526
C21 C 0.1578(3) -0.1781(2) 0.76307(11)
H14 H 0.2072 -0.2591 0.7788
C22 C 0.0584(3) -0.1200(3) 0.81561(12)
H15 H 0.0426 -0.1626 0.8657
C23 C -0.0163(3) -0.0012(3) 0.79466(12)
H16 H -0.0824 0.0370 0.8302
C24 C 0.0077(2) 0.0629(2) 0.71883(11)
C25 C -0.0470(2) 0.1859(2) 0.67890(12)
C26 C -0.1499(3) 0.2864(3) 0.69980(17)
H17 H -0.1955 0.2813 0.7496
C27 C -0.1829(3) 0.3931(3) 0.6458(2)
H18 H -0.2502 0.4607 0.6596
C28 C -0.1164(3) 0.4010(2) 0.57045(17)
H19 H -0.1419 0.4733 0.5346
C29 C -0.0136(2) 0.30379(18) 0.54828(13)
H20 H 0.0303 0.3093 0.4981
C30 C 0.0222(2) 0.19716(17) 0.60337(11)
C31 C 0.04366(18) 0.56642(16) 0.09736(9)
C32 C -0.0606(2) 0.4840(2) 0.10347(12)
H21 H -0.0431 0.4014 0.1299
C33 C -0.1922(2) 0.5298(2) 0.06850(13)
H22 H -0.2643 0.4769 0.0716
C34 C -0.2186(2) 0.6537(2) 0.02886(12)
H23 H -0.3080 0.6820 0.0063
C35 C -0.1149(2) 0.7341(2) 0.02269(10)
H24 H -0.1333 0.8165 -0.0039
C36 C 0.01937(19) 0.69082(16) 0.05696(9)
C37 C 0.15135(18) 0.74707(15) 0.05882(8)
C38 C 0.1922(2) 0.86658(17) 0.02956(10)
H25 H 0.1282 0.9276 0.0003
C39 C 0.3279(2) 0.89302(18) 0.04444(11)
H26 H 0.3551 0.9728 0.0258
C40 C 0.4251(2) 0.80123(18) 0.08730(11)
H27 H 0.5158 0.8213 0.0973
C41 C 0.3900(2) 0.68112(17) 0.11532(10)
H28 H 0.4562 0.6200 0.1431
C42 C 0.25204(18) 0.65463(15) 0.10062(8)
loop_
_geom_bond_atom_site_label_1
_geom_bond_atom_site_label_2
_geom_bond_site_symmetry_1
_geom_bond_site_symmetry_2
Cl1 C1 1_555 1_555
Cl2 C1 1_555 1_555
Cl3 C1 1_555 1_555
C1 H1 1_555 1_555
O1 C2 1_555 1_555
N1 C2 1_555 1_555
C2 C6 1_555 1_555
O2 C4 1_555 1_555
N2 C10 1_555 1_555
C3 N1 1_555 1_555
H2 C3 1_555 1_555
H3 C3 1_555 1_555
H4 C3 1_555 1_555
N3 C16 1_555 1_555
C4 N1 1_555 1_555
C5 C4 1_555 1_555
C6 C5 1_555 1_555
C7 C6 1_555 1_555
C8 C7 1_555 1_555
H5 C8 1_555 1_555
C9 C8 1_555 1_555
H6 C9 1_555 1_555
C10 C9 1_555 1_555
C11 C10 1_555 1_555
H7 C11 1_555 1_555
C12 C7 1_555 1_555
H8 C12 1_555 1_555
C13 C5 1_555 1_555
C14 C13 1_555 1_555
H9 C14 1_555 1_555
C15 C14 1_555 1_555
H10 C15 1_555 1_555
C16 C15 1_555 1_555
C17 C16 1_555 1_555
H11 C17 1_555 1_555
C18 C13 1_555 1_555
H12 C18 1_555 1_555
C19 N2 1_555 1_555
C20 C19 1_555 1_555
H13 C20 1_555 1_555
C21 C20 1_555 1_555
H14 C21 1_555 1_555
C22 C21 1_555 1_555
H15 C22 1_555 1_555
C23 C22 1_555 1_555
H16 C23 1_555 1_555
C24 C19 1_555 1_555
C25 C24 1_555 1_555
C26 C25 1_555 1_555
H17 C26 1_555 1_555
C27 C26 1_555 1_555
H18 C27 1_555 1_555
C28 C27 1_555 1_555
H19 C28 1_555 1_555
C29 C28 1_555 1_555
H20 C29 1_555 1_555
C30 N2 1_555 1_555
C31 N3 1_555 1_555
C32 C31 1_555 1_555
H21 C32 1_555 1_555
C33 C32 1_555 1_555
H22 C33 1_555 1_555
C34 C33 1_555 1_555
H23 C34 1_555 1_555
C35 C34 1_555 1_555
H24 C35 1_555 1_555
C36 C31 1_555 1_555
C37 C36 1_555 1_555
C38 C37 1_555 1_555
H25 C38 1_555 1_555
C39 C38 1_555 1_555
H26 C39 1_555 1_555
C40 C39 1_555 1_555
H27 C40 1_555 1_555
C41 C40 1_555 1_555
H28 C41 1_555 1_555
C42 N3 1_555 1_555
C11 C12 1_555 1_555
C17 C18 1_555 1_555
C23 C24 1_555 1_555
C25 C30 1_555 1_555
C29 C30 1_555 1_555
C35 C36 1_555 1_555
C37 C42 1_555 1_555
C41 C42 1_555 1_555

#END
