
#######################################################################
#
#                 Cambridge Crystallographic Data Centre
#                                CCDC 
#
#######################################################################
#
# If this CIF has been generated from an entry in the Cambridge 
# Structural Database, then it will include bibliographic, chemical, 
# crystal, experimental, refinement or atomic coordinate data resulting 
# from the CCDC's data processing and validation procedures.
#
#######################################################################

data_VULHIU
_chemical_name_common            
'tetrakis(Diaminomethaniminium) 25,26,27,28-tetrahydroxypentacyclo[19.3.1.1$3,7!.1$9,13!.1$15,19!]octacosa-1(25),3(28),4,6,9(27),10,12,15(26),16,18,21,23-dodecaene-5,11,17,23-tetrasulfonate chloroform solvate trihydrate'
_chemical_formula_moiety         
'4(C1 H6 N3 1+),C28 H20 O16 S4 4-,C1 H1 Cl3,3(H2 O1)'
_chemical_name_systematic        
'tetrakis(Guanidinium) 5,11,17,23-tetrasulfonato-25,26,27,28-tetrahydroxycalix(4)arene chloroform solvate trihydrate'
_symmetry_cell_setting           monoclinic
_symmetry_space_group_name_H-M   'P 21/n'
_symmetry_Int_Tables_number      14
_space_group_name_Hall           '-P 2yn'
loop_
_symmetry_equiv_pos_site_id
_symmetry_equiv_pos_as_xyz
1 x,y,z
2 1/2-x,1/2+y,1/2-z
3 -x,-y,-z
4 1/2+x,1/2-y,1/2+z
_cell_length_a                   12.6415(7)
_cell_length_b                   28.2956(15)
_cell_length_c                   13.6403(7)
_cell_angle_alpha                90
_cell_angle_beta                 97.296(3)
_cell_angle_gamma                90
_cell_volume                     4839.61
_exptl_crystal_colour            colorless
_exptl_crystal_description       block
_cell_formula_units_Z            4
loop_
_atom_site_label
_atom_site_type_symbol
_atom_site_fract_x
_atom_site_fract_y
_atom_site_fract_z
C1 C -0.0719(2) 0.23655(11) 0.2218(2)
C2 C -0.1550(2) 0.22096(11) 0.1518(2)
C3 C -0.2219(2) 0.18556(11) 0.1800(2)
H1 H -0.2792 0.1743 0.1341
C4 C -0.2053(2) 0.16665(11) 0.2748(2)
C5 C -0.1197(2) 0.18179(12) 0.3424(2)
H2 H -0.1084 0.1682 0.4066
C6 C -0.0513(2) 0.21653(11) 0.3161(2)
C7 C 0.0451(2) 0.23114(12) 0.3869(2)
H3 H 0.0327 0.2234 0.4553
H4 H 0.0550 0.2658 0.3828
C8 C 0.1458(2) 0.20625(12) 0.3637(2)
C9 C 0.2195(3) 0.22818(11) 0.3087(2)
C10 C 0.3135(2) 0.20569(12) 0.2903(2)
C11 C 0.3335(3) 0.16016(12) 0.3271(2)
H5 H 0.3975 0.1444 0.3164
C12 C 0.2605(3) 0.13753(12) 0.3794(2)
C13 C 0.1673(3) 0.16084(12) 0.3973(2)
H6 H 0.1180 0.1452 0.4332
C14 C 0.3920(2) 0.22953(12) 0.2305(2)
H7 H 0.3857 0.2642 0.2371
H8 H 0.4654 0.2204 0.2579
C15 C 0.3739(2) 0.21660(11) 0.1223(2)
C16 C 0.4367(2) 0.18151(11) 0.0862(2)
H9 H 0.4925 0.1672 0.1294
C17 C 0.4182(2) 0.16740(11) -0.0120(2)
C18 C 0.3355(2) 0.18709(11) -0.0760(2)
H10 H 0.3229 0.1768 -0.1427
C19 C 0.2712(2) 0.22188(11) -0.0422(2)
C20 C 0.2933(2) 0.23713(11) 0.0561(2)
C21 C 0.1762(2) 0.24197(11) -0.1097(2)
H11 H 0.1715 0.2764 -0.0981
H12 H 0.1878 0.2372 -0.1795
C22 C 0.0715(2) 0.21879(11) -0.0924(2)
C23 C 0.0412(2) 0.17646(11) -0.1394(2)
H13 H 0.0873 0.1616 -0.1799
C24 C -0.0561(2) 0.15559(11) -0.1276(2)
C25 C -0.1246(2) 0.17614(11) -0.0678(2)
H14 H -0.1906 0.1614 -0.0602
C26 C -0.0960(2) 0.21844(11) -0.0188(2)
C27 C 0.0013(2) 0.23933(11) -0.0328(2)
C28 C -0.1716(2) 0.24040(11) 0.0473(2)
H15 H -0.1606 0.2750 0.0496
H16 H -0.2461 0.2344 0.0181
O1 O -0.14724(19) 0.12310(9) -0.29544(18)
O2 O -0.1767(2) 0.08148(9) -0.14669(19)
O3 O -0.00468(19) 0.07721(9) -0.21003(19)
O4 O 0.43434(19) 0.09789(9) -0.13159(19)
O5 O 0.58986(18) 0.14721(8) -0.09178(19)
O6 O 0.5354(2) 0.09348(9) 0.03047(19)
O7 O 0.3883(2) 0.06552(9) 0.4061(2)
O8 O 0.2645(2) 0.07923(9) 0.52576(18)
O9 O 0.2003(2) 0.05000(9) 0.36182(19)
O10 O -0.3927(2) 0.12840(11) 0.2553(2)
O11 O -0.2934(2) 0.13257(10) 0.4184(2)
O12 O -0.2389(2) 0.07787(9) 0.3016(3)
O13 O 0.02482(19) 0.28239(8) 0.01237(19)
H42 H 0.0989 0.2822 0.0360
O14 O 0.23205(19) 0.27332(8) 0.08508(18)
H43 H 0.2272 0.2729 0.1481
O15 O 0.20201(18) 0.27328(8) 0.27406(18)
H44 H 0.1381 0.2794 0.2616
O16 O -0.00645(19) 0.27302(8) 0.20121(19)
H45 H -0.0087 0.2796 0.1377
S1 S -0.09922(6) 0.10536(3) -0.19835(6)
S2 S 0.50114(6) 0.12368(3) -0.05420(6)
S3 S 0.28016(6) 0.07893(3) 0.42113(6)
S4 S -0.29122(6) 0.12311(3) 0.31372(6)
C29 C 0.5484(3) 0.10827(13) 0.6361(3)
N4 N 0.6233(2) 0.12805(11) 0.6997(2)
H24 H 0.6102 0.1348 0.7600
H25 H 0.6861 0.1345 0.6817
N5 N 0.5667(3) 0.09820(12) 0.5448(2)
H26 H 0.5163 0.0852 0.5030
H27 H 0.6293 0.1045 0.5260
N6 N 0.4541(3) 0.09867(14) 0.6637(2)
H28 H 0.4413 0.1054 0.7241
H29 H 0.4041 0.0855 0.6217
C30 C 0.9683(3) 0.06280(13) 0.5071(3)
N1 N 1.0490(3) 0.06326(13) 0.5782(2)
H18 H 1.1146 0.0603 0.5639
H19 H 1.0374 0.0665 0.6401
N2 N 0.9836(3) 0.05800(13) 0.4135(3)
H20 H 1.0487 0.0550 0.3979
H21 H 0.9287 0.0578 0.3668
N3 N 0.8685(3) 0.06640(13) 0.5285(3)
H22 H 0.8565 0.0691 0.5904
H23 H 0.8147 0.0661 0.4808
C31 C 0.7727(3) 0.97508(12) 0.1809(2)
N7 N 0.6785(2) 0.99339(11) 0.1909(3)
H30 H 0.6210 0.9756 0.1820
H31 H 0.6733 1.0234 0.2066
N8 N 0.7820(3) 0.93019(11) 0.1575(3)
H32 H 0.7250 0.9120 0.1483
H33 H 0.8451 0.9184 0.1510
N9 N 0.8596(2) 1.00216(11) 0.1945(3)
H34 H 0.9224 0.9900 0.1878
H35 H 0.8542 1.0322 0.2101
C32 C 0.1124(3) 0.08479(12) 0.1426(3)
H17 H 0.1558 0.0751 0.2059
Cl1 Cl -0.0053(15) 0.1117(7) 0.1668(18)
Cl2 Cl 0.0808(11) 0.0352(4) 0.0628(11)
Cl3 Cl 0.1926(19) 0.1248(7) 0.0867(10)
C33 C 0.3874(3) 0.02113(12) 0.1614(3)
N10 N 0.3253(3) -0.00468(11) 0.2125(2)
H36 H 0.3255 0.0003 0.2762
H37 H 0.2841 -0.0268 0.1825
N11 N 0.3894(3) 0.01311(11) 0.0660(2)
H38 H 0.4318 0.0298 0.0330
H39 H 0.3483 -0.0089 0.0357
N12 N 0.4490(3) 0.05419(11) 0.2074(2)
H40 H 0.4915 0.0710 0.1746
H41 H 0.4475 0.0594 0.2708
O17 O 0.7474(2) 0.06057(10) 0.0322(2)
H46 H 0.6994 0.0780 0.0484
H47 H 0.7693 0.0733 -0.0154
O18 O 0.9905(3) 0.17741(15) 0.5996(3)
H48 H 0.9381 0.1555 0.6325
H49 H 0.9659 0.2118 0.5770
O19 O 0.2119(3) 0.16078(16) 0.6718(3)
H50 H 0.2350 0.1415 0.6278
H51 H 0.1526 0.1740 0.6423
Cl4? Cl -0.0081(10) 0.1107(4) 0.1710(9)
Cl5? Cl 0.003(4) 0.118(2) 0.157(6)
Cl6? Cl 0.0850(9) 0.0343(2) 0.0691(12)
Cl7? Cl 0.092(4) 0.0315(15) 0.091(8)
Cl8? Cl 0.1855(16) 0.1257(5) 0.0834(13)
Cl9? Cl 0.211(3) 0.1186(14) 0.092(4)
loop_
_geom_bond_atom_site_label_1
_geom_bond_atom_site_label_2
_geom_bond_site_symmetry_1
_geom_bond_site_symmetry_2
C1 C2 1_555 1_555
C2 C3 1_555 1_555
C3 H1 1_555 1_555
C4 C3 1_555 1_555
C5 C4 1_555 1_555
H2 C5 1_555 1_555
C6 C1 1_555 1_555
C7 C6 1_555 1_555
H3 C7 1_555 1_555
H4 C7 1_555 1_555
C8 C7 1_555 1_555
C9 C8 1_555 1_555
C10 C9 1_555 1_555
C11 C10 1_555 1_555
H5 C11 1_555 1_555
C12 C11 1_555 1_555
C13 C8 1_555 1_555
H6 C13 1_555 1_555
C14 C10 1_555 1_555
H7 C14 1_555 1_555
H8 C14 1_555 1_555
C15 C14 1_555 1_555
C16 C15 1_555 1_555
H9 C16 1_555 1_555
C17 C16 1_555 1_555
C18 C17 1_555 1_555
H10 C18 1_555 1_555
C19 C18 1_555 1_555
C20 C15 1_555 1_555
C21 C19 1_555 1_555
H11 C21 1_555 1_555
H12 C21 1_555 1_555
C22 C21 1_555 1_555
C23 C22 1_555 1_555
H13 C23 1_555 1_555
C24 C23 1_555 1_555
C25 C24 1_555 1_555
H14 C25 1_555 1_555
C26 C25 1_555 1_555
C27 C22 1_555 1_555
C28 C2 1_555 1_555
H15 C28 1_555 1_555
H16 C28 1_555 1_555
C29 N4 1_555 1_555
C30 N1 1_555 1_555
C31 N7 1_555 1_555
C32 H17 1_555 1_555
C33 N10 1_555 1_555
Cl1 C32 1_555 1_555
Cl2 C32 1_555 1_555
Cl3 C32 1_555 1_555
N1 H18 1_555 1_555
H19 N1 1_555 1_555
N2 C30 1_555 1_555
H20 N2 1_555 1_555
H21 N2 1_555 1_555
N3 C30 1_555 1_555
H22 N3 1_555 1_555
H23 N3 1_555 1_555
N4 H24 1_555 1_555
H25 N4 1_555 1_555
N5 C29 1_555 1_555
H26 N5 1_555 1_555
H27 N5 1_555 1_555
N6 C29 1_555 1_555
H28 N6 1_555 1_555
H29 N6 1_555 1_555
N7 H30 1_555 1_555
H31 N7 1_555 1_555
N8 C31 1_555 1_555
H32 N8 1_555 1_555
H33 N8 1_555 1_555
N9 C31 1_555 1_555
H34 N9 1_555 1_555
H35 N9 1_555 1_555
N10 H36 1_555 1_555
H37 N10 1_555 1_555
N11 C33 1_555 1_555
H38 N11 1_555 1_555
H39 N11 1_555 1_555
N12 C33 1_555 1_555
H40 N12 1_555 1_555
H41 N12 1_555 1_555
O1 S1 1_555 1_555
O2 S1 1_555 1_555
O3 S1 1_555 1_555
O4 S2 1_555 1_555
O5 S2 1_555 1_555
O6 S2 1_555 1_555
O7 S3 1_555 1_555
O8 S3 1_555 1_555
O9 S3 1_555 1_555
O10 S4 1_555 1_555
O11 S4 1_555 1_555
O12 S4 1_555 1_555
O13 C27 1_555 1_555
H42 O13 1_555 1_555
O14 C20 1_555 1_555
H43 O14 1_555 1_555
O15 C9 1_555 1_555
H44 O15 1_555 1_555
O16 C1 1_555 1_555
H45 O16 1_555 1_555
O17 H46 1_555 1_555
H47 O17 1_555 1_555
O18 H48 1_555 1_555
H49 O18 1_555 1_555
O19 H50 1_555 1_555
H51 O19 1_555 1_555
S1 C24 1_555 1_555
S2 C17 1_555 1_555
S3 C12 1_555 1_555
S4 C4 1_555 1_555
C5 C6 1_555 1_555
C12 C13 1_555 1_555
C19 C20 1_555 1_555
C26 C27 1_555 1_555
C26 C28 1_555 1_555

#END
