
#######################################################################
#
#                 Cambridge Crystallographic Data Centre
#                                CCDC 
#
#######################################################################
#
# If this CIF has been generated from an entry in the Cambridge 
# Structural Database, then it will include bibliographic, chemical, 
# crystal, experimental, refinement or atomic coordinate data resulting 
# from the CCDC's data processing and validation procedures.
#
#######################################################################

data_VULHAM
_chemical_name_common            
'tetrakis(Diaminomethaniminium) 25,26,27,28-tetrahydroxy-2,8,14,20-tetrathiapentacyclo[19.3.1.1$3,7!.1$9,13!.1$15,19!]octacosa-1(25),3(28),4,6,9(27),10,12,15(26),16,18,21,23-dodecaene-5,11,17,23-tetrasulfonate'
_chemical_formula_moiety         '4(C1 H6 N3 1+),C24 H12 O16 S8 4-'
_chemical_name_systematic        
'tetrakis(Guanidinium) 5,11,17,23-tetrasulfonato-25,26,27,28-tetrahydroxy-2,8,14,20-tetrathiacalix(4)arene'
_symmetry_cell_setting           monoclinic
_symmetry_space_group_name_H-M   'P 21/n'
_symmetry_Int_Tables_number      14
_space_group_name_Hall           '-P 2yn'
loop_
_symmetry_equiv_pos_site_id
_symmetry_equiv_pos_as_xyz
1 x,y,z
2 1/2-x,1/2+y,1/2-z
3 -x,-y,-z
4 1/2+x,1/2-y,1/2+z
_cell_length_a                   12.821(2)
_cell_length_b                   24.344(4)
_cell_length_c                   13.9498(19)
_cell_angle_alpha                90
_cell_angle_beta                 90.829(11)
_cell_angle_gamma                90
_cell_volume                     4353.48
_exptl_crystal_colour            colorless
_exptl_crystal_description       block
_cell_formula_units_Z            4
loop_
_atom_site_label
_atom_site_type_symbol
_atom_site_fract_x
_atom_site_fract_y
_atom_site_fract_z
C1 C 0.6785(4) 0.3142(2) 0.3788(3)
H1 H 0.7134 0.3275 0.3238
C2 C 0.6008(4) 0.3459(2) 0.4189(3)
C3 C 0.5460(4) 0.3252(2) 0.4966(3)
H2 H 0.4901 0.3458 0.5225
C4 C 0.5726(4) 0.2748(2) 0.5364(3)
C5 C 0.6542(4) 0.2439(2) 0.4978(3)
C6 C 0.7067(4) 0.2638(2) 0.4168(3)
C7 C 0.9170(4) 0.2622(2) 0.4187(3)
C8 C 0.9513(4) 0.3119(2) 0.3808(3)
H3 H 0.9185 0.3260 0.3245
C9 C 1.0317(4) 0.3409(2) 0.4232(3)
C10 C 1.0825(4) 0.3183(2) 0.5044(3)
H4 H 1.1400 0.3373 0.5326
C11 C 1.0507(4) 0.2695(2) 0.5435(3)
C12 C 0.9663(4) 0.2409(2) 0.5014(3)
C13 C 1.0810(4) 0.3283(2) 0.7687(3)
H5 H 1.1387 0.3451 0.7385
C14 C 1.0317(4) 0.3555(2) 0.8435(3)
C15 C 0.9493(4) 0.3295(2) 0.8889(3)
H6 H 0.9165 0.3472 0.9412
C16 C 0.9143(4) 0.2783(2) 0.8597(3)
C17 C 0.9613(4) 0.2522(2) 0.7812(3)
C18 C 1.0471(4) 0.2771(2) 0.7377(3)
C19 C 0.6741(4) 0.3327(2) 0.8833(3)
H7 H 0.7084 0.3501 0.9360
C20 C 0.5964(4) 0.3605(2) 0.8340(3)
C21 C 0.5438(4) 0.3343(2) 0.7593(3)
H8 H 0.4886 0.3527 0.7264
C22 C 0.5715(4) 0.2810(2) 0.7320(3)
C23 C 0.6534(4) 0.2536(2) 0.7789(3)
C24 C 0.7034(4) 0.2796(2) 0.8574(3)
O1 O 0.5115(3) 0.43977(14) 0.4437(3)
O2 O 0.6828(3) 0.43759(14) 0.3750(2)
O3 O 0.5353(3) 0.40868(15) 0.2792(2)
O4 O 0.6863(3) 0.19524(14) 0.5359(2)
H9 H 0.6496 0.1923 0.5944
O5 O 1.0212(3) 0.41255(14) 0.2863(2)
O6 O 1.1817(3) 0.40781(14) 0.3811(2)
O7 O 1.0261(3) 0.44600(14) 0.4507(2)
O8 O 0.9335(3) 0.19364(14) 0.5425(2)
H10 H 0.8577 0.1880 0.5164
O9 O 0.9220(3) 0.20321(14) 0.7515(2)
H11 H 0.9764 0.2001 0.6960
O10 O 1.1828(3) 0.42356(13) 0.8768(2)
O11 O 1.0238(3) 0.43425(14) 0.9676(2)
O12 O 1.0273(3) 0.45793(13) 0.7979(2)
O13 O 0.5144(3) 0.43190(14) 0.9501(2)
O14 O 0.5177(3) 0.45353(14) 0.7794(2)
O15 O 0.6769(3) 0.45413(13) 0.8739(2)
O16 O 0.6832(3) 0.20392(14) 0.7474(2)
H12 H 0.7534 0.1945 0.7798
S1 S 0.57881(10) 0.41313(5) 0.37589(9)
S2 S 0.81065(10) 0.22543(5) 0.36562(9)
S3 S 1.06804(10) 0.40672(5) 0.38147(9)
S4 S 1.11638(10) 0.24220(6) 0.64568(9)
S5 S 1.06895(10) 0.42308(5) 0.87410(9)
S6 S 0.80820(10) 0.24576(6) 0.91890(9)
S7 S 0.57293(10) 0.43018(5) 0.86229(9)
S8 S 0.50164(10) 0.24826(6) 0.63584(9)
C25 C 0.7681(4) 0.0793(2) 0.6312(4)
N4 N 0.6653(3) 0.07657(17) 0.6295(3)
H19 H 0.6307 0.0770 0.6835
H20 H 0.6313 0.0743 0.5743
N5 N 0.8184(3) 0.07982(17) 0.5488(3)
H21 H 0.7832 0.0784 0.4942
H22 H 0.8870 0.0816 0.5487
N6 N 0.8179(3) 0.08259(17) 0.7146(3)
H23 H 0.7825 0.0830 0.7681
H24 H 0.8864 0.0844 0.7166
C26 C 0.2618(5) 0.0566(2) 0.6209(4)
N1 N 0.1596(4) 0.05236(19) 0.6188(3)
H13 H 0.1264 0.0476 0.5638
H14 H 0.1244 0.0543 0.6724
N2 N 0.3137(3) 0.05354(18) 0.5399(3)
H15 H 0.2798 0.0487 0.4852
H16 H 0.3822 0.0563 0.5406
N3 N 0.3110(3) 0.06419(18) 0.7044(3)
H17 H 0.2752 0.0664 0.7576
H18 H 0.3794 0.0671 0.7064
C27 C 0.7600(4) 0.0573(2) 0.1274(4)
N7 N 0.6570(3) 0.05320(17) 0.1250(3)
H25 H 0.6231 0.0540 0.0697
H26 H 0.6224 0.0497 0.1787
N8 N 0.8118(3) 0.06257(17) 0.0467(3)
H27 H 0.7779 0.0633 -0.0086
H28 H 0.8802 0.0653 0.0482
N9 N 0.8092(3) 0.05819(17) 0.2116(3)
H29 H 0.8774 0.0623 0.2143
H30 H 0.7737 0.0546 0.2648
C28 C 0.7664(4) 0.4546(2) 0.6228(4)
N10 N 0.6635(4) 0.45917(18) 0.6183(3)
H31 H 0.6307 0.4574 0.5626
H32 H 0.6279 0.4639 0.6712
N11 N 0.8192(3) 0.44745(18) 0.5433(3)
H33 H 0.7861 0.4457 0.4877
H34 H 0.8876 0.4444 0.5459
N12 N 0.8148(3) 0.45797(19) 0.7074(3)
H35 H 0.8832 0.4554 0.7112
H36 H 0.7784 0.4627 0.7598
loop_
_geom_bond_atom_site_label_1
_geom_bond_atom_site_label_2
_geom_bond_site_symmetry_1
_geom_bond_site_symmetry_2
C1 H1 1_555 1_555
C2 C1 1_555 1_555
C3 C2 1_555 1_555
H2 C3 1_555 1_555
C4 C3 1_555 1_555
C5 C4 1_555 1_555
C6 C1 1_555 1_555
C7 C8 1_555 1_555
C8 H3 1_555 1_555
C9 C8 1_555 1_555
C10 C9 1_555 1_555
H4 C10 1_555 1_555
C11 C10 1_555 1_555
C12 C7 1_555 1_555
C13 H5 1_555 1_555
C14 C13 1_555 1_555
C15 C14 1_555 1_555
H6 C15 1_555 1_555
C16 C15 1_555 1_555
C17 C16 1_555 1_555
C18 C13 1_555 1_555
C19 H7 1_555 1_555
C20 C19 1_555 1_555
C21 C20 1_555 1_555
H8 C21 1_555 1_555
C22 C21 1_555 1_555
C23 C22 1_555 1_555
C24 C19 1_555 1_555
O1 S1 1_555 1_555
O2 S1 1_555 1_555
O3 S1 1_555 1_555
O4 C5 1_555 1_555
H9 O4 1_555 1_555
O5 S3 1_555 1_555
O6 S3 1_555 1_555
O7 S3 1_555 1_555
O8 C12 1_555 1_555
H10 O8 1_555 1_555
O9 C17 1_555 1_555
H11 O9 1_555 1_555
O10 S5 1_555 1_555
O11 S5 1_555 1_555
O12 S5 1_555 1_555
O13 S7 1_555 1_555
O14 S7 1_555 1_555
O15 S7 1_555 1_555
O16 C23 1_555 1_555
H12 O16 1_555 1_555
S1 C2 1_555 1_555
S2 C6 1_555 1_555
S3 C9 1_555 1_555
S4 C11 1_555 1_555
S5 C14 1_555 1_555
S6 C16 1_555 1_555
S7 C20 1_555 1_555
S8 C4 1_555 1_555
C25 N4 1_555 1_555
C26 N1 1_555 1_555
C27 N7 1_555 1_555
C28 N10 1_555 1_555
N1 H13 1_555 1_555
H14 N1 1_555 1_555
N2 C26 1_555 1_555
H15 N2 1_555 1_555
H16 N2 1_555 1_555
N3 C26 1_555 1_555
H17 N3 1_555 1_555
H18 N3 1_555 1_555
N4 H19 1_555 1_555
H20 N4 1_555 1_555
N5 C25 1_555 1_555
H21 N5 1_555 1_555
H22 N5 1_555 1_555
N6 C25 1_555 1_555
H23 N6 1_555 1_555
H24 N6 1_555 1_555
N7 H25 1_555 1_555
H26 N7 1_555 1_555
N8 C27 1_555 1_555
H27 N8 1_555 1_555
H28 N8 1_555 1_555
N9 C27 1_555 1_555
H29 N9 1_555 1_555
H30 N9 1_555 1_555
N10 H31 1_555 1_555
H32 N10 1_555 1_555
N11 C28 1_555 1_555
H33 N11 1_555 1_555
H34 N11 1_555 1_555
N12 C28 1_555 1_555
H35 N12 1_555 1_555
H36 N12 1_555 1_555
C5 C6 1_555 1_555
C7 S2 1_555 1_555
C11 C12 1_555 1_555
C17 C18 1_555 1_555
C18 S4 1_555 1_555
C22 S8 1_555 1_555
C23 C24 1_555 1_555
C24 S6 1_555 1_555

#END
