
#######################################################################
#
#                 Cambridge Crystallographic Data Centre
#                                CCDC 
#
#######################################################################
#
# If this CIF has been generated from an entry in the Cambridge 
# Structural Database, then it will include bibliographic, chemical, 
# crystal, experimental, refinement or atomic coordinate data resulting 
# from the CCDC's data processing and validation procedures.
#
#######################################################################

data_VULHEQ
_chemical_name_common            
'tetrakis(Diaminomethaniminium) 25,26,27,28-tetrahydroxypentacyclo[19.3.1.1$3,7!.1$9,13!.1$15,19!]octacosa-1(25),3(28),4,6,9(27),10,12,15(26),16,18,21,23-dodecaene-5,11,17,23-tetrasulfonate dichloromethane solvate monohydrate'
_chemical_formula_moiety         
'4(C1 H6 N3 1+),C28 H20 O16 S4 4-,3(C1 H2 Cl2),H2 O1'
_chemical_name_systematic        
'tetrakis(Guanidinium) 5,11,17,23-tetrasulfonato-25,26,27,28-tetrahydroxycalix(4)arene dichloromethane solvate monohydrate'
_symmetry_cell_setting           triclinic
_symmetry_space_group_name_H-M   'P -1'
_symmetry_Int_Tables_number      2
_space_group_name_Hall           '-P 1'
loop_
_symmetry_equiv_pos_site_id
_symmetry_equiv_pos_as_xyz
1 x,y,z
2 -x,-y,-z
_cell_length_a                   12.669(2)
_cell_length_b                   14.264(3)
_cell_length_c                   15.600(3)
_cell_angle_alpha                103.371(7)
_cell_angle_beta                 90.607(7)
_cell_angle_gamma                108.628(7)
_cell_volume                     2588.06
_exptl_crystal_colour            colorless
_exptl_crystal_description       block
_cell_formula_units_Z            2
loop_
_atom_site_label
_atom_site_type_symbol
_atom_site_fract_x
_atom_site_fract_y
_atom_site_fract_z
S1 S 0.69223(3) 0.49963(2) 0.49603(2)
S2 S 0.67799(3) 0.47482(2) 0.01311(2)
S3 S 0.70114(3) -0.05127(2) -0.15543(2)
S4 S 0.61418(3) -0.03274(2) 0.33492(2)
O1 O 0.73653(9) 0.60760(7) 0.54418(7)
O2 O 0.65928(9) 0.43125(8) 0.55502(7)
O3 O 0.60299(8) 0.48062(8) 0.42746(7)
O4 O 0.69930(9) 0.58463(7) 0.02858(7)
O5 O 0.59082(8) 0.42929(8) 0.06655(7)
O6 O 0.65502(8) 0.42037(8) -0.08075(6)
O7 O 0.59471(9) -0.05404(8) -0.11922(7)
O8 O 0.71673(9) -0.01112(8) -0.23376(7)
O9 O 0.71967(9) -0.14967(8) -0.16822(7)
O10 O 0.61820(9) -0.13656(7) 0.32017(7)
O11 O 0.59553(8) 0.00921(7) 0.42674(6)
O12 O 0.53665(8) -0.02412(8) 0.26997(7)
O13 O 1.07353(8) 0.41928(8) 0.31632(7)
H1 H 1.0849 0.3617 0.3218
O14 O 1.09127(8) 0.42868(8) 0.14575(7)
H2 H 1.0988 0.4393 0.2028
O15 O 1.06361(8) 0.22925(8) 0.11387(7)
H3 H 1.0788 0.2912 0.1119
O16 O 1.06713(8) 0.21975(7) 0.28223(7)
H4 H 1.0795 0.2149 0.2299
C1 C 0.80422(11) 0.47190(10) 0.44107(8)
C2 C 0.84485(11) 0.39903(10) 0.46075(9)
H7 H 0.8117 0.3635 0.5034
C3 C 0.93400(11) 0.37743(10) 0.41836(8)
C4 C 0.98248(11) 0.43292(10) 0.35743(8)
C5 C 0.94184(11) 0.50644(10) 0.33614(8)
C6 C 0.85237(11) 0.52515(10) 0.37870(9)
H8 H 0.8236 0.5745 0.3654
C7 C 0.99330(11) 0.56291(10) 0.26696(9)
H9 H 1.0750 0.5762 0.2715
H10 H 0.9809 0.6297 0.2797
C8 C 0.94458(11) 0.50364(10) 0.17249(9)
C9 C 0.84793(11) 0.51320(10) 0.13830(9)
H11 H 0.8130 0.5563 0.1738
C10 C 0.80153(11) 0.46006(10) 0.05207(9)
C11 C 0.85045(11) 0.39576(10) -0.00099(9)
H12 H 0.8178 0.3597 -0.0593
C12 C 0.94701(11) 0.38413(10) 0.03121(9)
C13 C 0.99312(11) 0.43897(10) 0.11741(9)
C14 C 0.99850(11) 0.31109(10) -0.02607(9)
H13 H 0.9892 0.3130 -0.0887
H14 H 1.0796 0.3338 -0.0080
C15 C 0.94449(11) 0.20211(10) -0.01799(9)
C16 C 0.85897(11) 0.13387(10) -0.08075(9)
H15 H 0.8363 0.1552 -0.1292
C17 C 0.80656(11) 0.03484(10) -0.07302(9)
C18 C 0.83745(11) 0.00267(10) -0.00169(9)
H16 H 0.8005 -0.0650 0.0032
C19 C 0.97590(11) 0.16779(10) 0.05222(9)
C20 C 0.92195(11) 0.06893(10) 0.06236(9)
C21 C 0.95467(11) 0.03568(10) 0.14150(9)
H17 H 1.0371 0.0627 0.1536
H18 H 0.9316 -0.0398 0.1265
C22 C 0.90251(11) 0.07155(10) 0.22521(9)
C23 C 0.79558(11) 0.01429(10) 0.23951(9)
H19 H 0.7539 -0.0451 0.1957
C24 C 0.74899(11) 0.04356(10) 0.31786(9)
C25 C 0.80736(11) 0.13157(10) 0.38211(9)
H20 H 0.7748 0.1503 0.4352
C26 C 0.91320(11) 0.19233(10) 0.36898(8)
C27 C 0.95943(11) 0.16086(10) 0.29082(9)
C28 C 0.97235(11) 0.29277(10) 0.43670(9)
H21 H 0.9556 0.2848 0.4970
H22 H 1.0543 0.3110 0.4339
O17 O 0.84020(11) 0.91239(11) 0.64201(8)
H5 H 0.8095 0.9361 0.6859
H6 H 0.8643 0.8638 0.6651
C29 C 0.52000(12) 0.84152(11) 0.05142(10)
N1 N 0.52769(11) 0.78376(10) -0.02674(8)
H23 H 0.5025 0.7168 -0.0365
H24 H 0.5580 0.8125 -0.0688
N2 N 0.47470(12) 0.79974(10) 0.11559(9)
H25 H 0.4492 0.7329 0.1067
H26 H 0.4701 0.8389 0.1671
N3 N 0.56274(11) 0.94316(10) 0.06710(9)
H27 H 0.5606 0.9816 0.1196
H28 H 0.5930 0.9716 0.0249
C30 C 0.60039(11) 0.61702(11) 0.26669(9)
N4 N 0.60322(11) 0.52243(9) 0.25137(8)
H29 H 0.6093 0.4897 0.1974
H30 H 0.5990 0.4924 0.2952
N5 N 0.60661(11) 0.66343(9) 0.20139(8)
H31 H 0.6127 0.6314 0.1472
H32 H 0.6047 0.7262 0.2123
N6 N 0.59125(12) 0.66599(10) 0.34871(8)
H33 H 0.5872 0.6356 0.3922
H34 H 0.5893 0.7287 0.3593
C31 C 0.67375(11) 0.59985(10) 0.78324(9)
N7 N 0.67077(10) 0.50307(9) 0.76047(8)
H35 H 0.6716 0.4731 0.7046
H36 H 0.6680 0.4691 0.8013
N8 N 0.67256(10) 0.64670(9) 0.86756(8)
H37 H 0.6746 0.7107 0.8817
H38 H 0.6698 0.6136 0.9091
N9 N 0.67797(11) 0.65134(9) 0.72169(8)
H39 H 0.6788 0.6215 0.6657
H40 H 0.6799 0.7153 0.7369
C32 C 0.44327(13) 0.19955(11) 0.45876(9)
N10 N 0.42192(11) 0.28041(10) 0.44392(8)
H41 H 0.3523 0.2780 0.4350
H42 H 0.4774 0.3361 0.4431
N11 N 0.54869(11) 0.20488(10) 0.47411(9)
H43 H 0.5635 0.1524 0.4852
H44 H 0.6037 0.2609 0.4732
N12 N 0.36039(11) 0.11558(10) 0.46011(9)
H45 H 0.3749 0.0630 0.4712
H46 H 0.2907 0.1123 0.4499
C33 C 0.66532(16) 0.21530(15) 0.23553(13)
H47 H 0.6235 0.1441 0.2369
H48 H 0.7247 0.2441 0.2853
Cl1 Cl 0.72786(5) 0.21524(4) 0.13448(4)
Cl2 Cl 0.57373(4) 0.28664(3) 0.24984(3)
C34 C 0.91440(19) 0.88594(15) 0.34965(12)
H49 H 0.8539 0.9162 0.3529
H50 H 0.9869 0.9423 0.3618
Cl3 Cl 0.9018(2) 0.8141(3) 0.42999(19)
Cl4 Cl 0.90596(4) 0.80643(4) 0.24267(3)
C35 C 0.68992(13) 0.14766(11) 0.66367(10)
H51 H 0.6299 0.1242 0.6148
H52 H 0.6722 0.0973 0.7002
Cl5 Cl 0.81890(3) 0.15365(3) 0.61925(3)
Cl6 Cl 0.6937(6) 0.26759(17) 0.7292(6)
Cl7? Cl 0.9237(10) 0.858(2) 0.4523(9)
Cl8? Cl 0.7098(6) 0.2643(4) 0.7452(3)
loop_
_geom_bond_atom_site_label_1
_geom_bond_atom_site_label_2
_geom_bond_site_symmetry_1
_geom_bond_site_symmetry_2
S1 O1 1_555 1_555
S2 O4 1_555 1_555
S3 O7 1_555 1_555
S4 O10 1_555 1_555
O2 S1 1_555 1_555
O3 S1 1_555 1_555
O5 S2 1_555 1_555
O6 S2 1_555 1_555
O8 S3 1_555 1_555
O9 S3 1_555 1_555
O11 S4 1_555 1_555
O12 S4 1_555 1_555
O13 H1 1_555 1_555
O14 H2 1_555 1_555
O15 H3 1_555 1_555
O16 H4 1_555 1_555
O17 H5 1_555 1_555
H6 O17 1_555 1_555
C1 S1 1_555 1_555
C2 C1 1_555 1_555
H7 C2 1_555 1_555
C3 C2 1_555 1_555
C4 O13 1_555 1_555
C5 C4 1_555 1_555
C6 C1 1_555 1_555
H8 C6 1_555 1_555
C7 C5 1_555 1_555
H9 C7 1_555 1_555
H10 C7 1_555 1_555
C8 C7 1_555 1_555
C9 C8 1_555 1_555
H11 C9 1_555 1_555
C10 S2 1_555 1_555
C11 C10 1_555 1_555
H12 C11 1_555 1_555
C12 C11 1_555 1_555
C13 O14 1_555 1_555
C14 C12 1_555 1_555
H13 C14 1_555 1_555
H14 C14 1_555 1_555
C15 C14 1_555 1_555
C16 C15 1_555 1_555
H15 C16 1_555 1_555
C17 S3 1_555 1_555
C18 C17 1_555 1_555
H16 C18 1_555 1_555
C19 O15 1_555 1_555
C20 C18 1_555 1_555
C21 C20 1_555 1_555
H17 C21 1_555 1_555
H18 C21 1_555 1_555
C22 C21 1_555 1_555
C23 C22 1_555 1_555
H19 C23 1_555 1_555
C24 S4 1_555 1_555
C25 C24 1_555 1_555
H20 C25 1_555 1_555
C26 C25 1_555 1_555
C27 O16 1_555 1_555
C28 C3 1_555 1_555
H21 C28 1_555 1_555
H22 C28 1_555 1_555
C29 N1 1_555 1_555
N1 H23 1_555 1_555
H24 N1 1_555 1_555
N2 C29 1_555 1_555
H25 N2 1_555 1_555
H26 N2 1_555 1_555
N3 C29 1_555 1_555
H27 N3 1_555 1_555
H28 N3 1_555 1_555
C30 N4 1_555 1_555
N4 H29 1_555 1_555
H30 N4 1_555 1_555
N5 C30 1_555 1_555
H31 N5 1_555 1_555
H32 N5 1_555 1_555
N6 C30 1_555 1_555
H33 N6 1_555 1_555
H34 N6 1_555 1_555
C31 N7 1_555 1_555
N7 H35 1_555 1_555
H36 N7 1_555 1_555
N8 C31 1_555 1_555
H37 N8 1_555 1_555
H38 N8 1_555 1_555
N9 C31 1_555 1_555
H39 N9 1_555 1_555
H40 N9 1_555 1_555
C32 N10 1_555 1_555
N10 H41 1_555 1_555
H42 N10 1_555 1_555
N11 C32 1_555 1_555
H43 N11 1_555 1_555
H44 N11 1_555 1_555
N12 C32 1_555 1_555
H45 N12 1_555 1_555
H46 N12 1_555 1_555
C33 H47 1_555 1_555
H48 C33 1_555 1_555
Cl1 C33 1_555 1_555
Cl2 C33 1_555 1_555
C34 H49 1_555 1_555
H50 C34 1_555 1_555
Cl3 C34 1_555 1_555
Cl4 C34 1_555 1_555
C35 H51 1_555 1_555
H52 C35 1_555 1_555
Cl5 C35 1_555 1_555
Cl6 C35 1_555 1_555
C3 C4 1_555 1_555
C5 C6 1_555 1_555
C8 C13 1_555 1_555
C9 C10 1_555 1_555
C12 C13 1_555 1_555
C15 C19 1_555 1_555
C16 C17 1_555 1_555
C19 C20 1_555 1_555
C22 C27 1_555 1_555
C23 C24 1_555 1_555
C26 C27 1_555 1_555
C26 C28 1_555 1_555

#END
