
#######################################################################
#
#                 Cambridge Crystallographic Data Centre
#                                CCDC 
#
#######################################################################
#
# If this CIF has been generated from an entry in the Cambridge 
# Structural Database, then it will include bibliographic, chemical, 
# crystal, experimental, refinement or atomic coordinate data resulting 
# from the CCDC's data processing and validation procedures.
#
#######################################################################

data_VULZOT
_chemical_formula_moiety         
'4(C66 H51 N15 O12),12(K1 1+),12(C12 H24 O6),4(O4 P1 3-),C2 H3 Cl3'
_chemical_name_systematic        
'tetrakis(1,3,5-tris(4-(3-(2-(3-(4-Nitrophenyl)ureido)phenyl)ureido)phenyl)benzene) dodeca-potassium dodecakis(18-crown-6) tetrakis(phosphate) 1,1,1-trichloroethane solvate'
_symmetry_cell_setting           monoclinic
_symmetry_space_group_name_H-M   'C c'
_symmetry_Int_Tables_number      9
_space_group_name_Hall           'C -2yc'
loop_
_symmetry_equiv_pos_site_id
_symmetry_equiv_pos_as_xyz
1 x,y,z
2 x,-y,1/2+z
3 1/2+x,1/2+y,z
4 1/2+x,1/2-y,1/2+z
_cell_length_a                   47.7612(12)
_cell_length_b                   24.0406(7)
_cell_length_c                   47.7408(13)
_cell_angle_alpha                90
_cell_angle_beta                 101.6250(10)
_cell_angle_gamma                90
_cell_volume                     53691.9
_exptl_crystal_colour            yellow
_exptl_crystal_description       block
_cell_formula_units_Z            4
loop_
_atom_site_label
_atom_site_type_symbol
_atom_site_fract_x
_atom_site_fract_y
_atom_site_fract_z
C1 C 0.8832(2) 0.0775(4) -0.0411(2)
H1 H 0.8777 0.1094 -0.0327
C2 C 0.91257(18) 0.0694(4) -0.04218(19)
C3 C 0.91957(19) 0.0219(4) -0.05670(19)
H2 H 0.9386 0.0152 -0.0575
C4 C 0.89800(18) -0.0160(4) -0.07014(18)
C5 C 0.8711(2) -0.0075(4) -0.0671(2)
H3 H 0.8573 -0.0333 -0.0752
C6 C 0.8624(2) 0.0375(4) -0.0527(2)
C7 C 0.93378(19) 0.1078(4) -0.02771(19)
C8 C 0.96052(17) 0.1146(4) -0.03643(18)
H4 H 0.9643 0.0943 -0.0518
C9 C 0.9807(2) 0.1509(4) -0.0222(2)
H5 H 0.9972 0.1575 -0.0292
C10 C 0.97660(18) 0.1783(4) 0.00263(18)
C11 C 0.9508(2) 0.1747(4) 0.0103(2)
H6 H 0.9471 0.1960 0.0254
C12 C 0.9304(2) 0.1399(4) -0.0040(2)
H7 H 0.9132 0.1372 0.0022
C13 C 0.99620(19) 0.2589(4) 0.03254(19)
C14 C 1.02366(12) 0.3302(2) 0.06241(12)
C15 C 1.00181(11) 0.3693(3) 0.05937(12)
H8 H 0.9858 0.3657 0.0447
C16 C 1.00385(12) 0.4139(2) 0.07823(15)
H9 H 0.9892 0.4400 0.0762
C17 C 1.02774(14) 0.4194(2) 0.10013(13)
H10 H 1.0291 0.4492 0.1127
C18 C 1.04960(12) 0.3803(3) 0.10317(12)
H11 H 1.0656 0.3840 0.1178
C19 C 1.04756(11) 0.3357(2) 0.08431(13)
C20 C 1.0904(3) 0.2838(6) 0.1099(3)
C21 C 1.13093(18) 0.2220(4) 0.1268(2)
C22 C 1.1538(2) 0.1956(4) 0.11836(18)
H12 H 1.1543 0.1928 0.0990
C23 C 1.17577(19) 0.1732(5) 0.1388(3)
H13 H 1.1910 0.1555 0.1332
C24 C 1.1749(2) 0.1773(5) 0.1677(2)
C25 C 1.1521(3) 0.2037(6) 0.17609(17)
H14 H 1.1516 0.2064 0.1954
C26 C 1.1301(2) 0.2261(5) 0.1557(2)
H15 H 1.1148 0.2438 0.1613
C27 C 0.90732(18) -0.0653(4) -0.08535(19)
C28 C 0.8867(2) -0.0965(5) -0.1032(2)
H16 H 0.8677 -0.0853 -0.1062
C29 C 0.8936(2) -0.1441(4) -0.1168(2)
H17 H 0.8793 -0.1660 -0.1275
C30 C 0.92285(18) -0.1591(4) -0.11438(19)
C31 C 0.9433(2) -0.1262(4) -0.0977(2)
H18 H 0.9627 -0.1335 -0.0965
C32 C 0.9344(2) -0.0810(4) -0.0824(2)
H19 H 0.9482 -0.0614 -0.0697
C33 C 0.9545(2) -0.2153(4) -0.1368(2)
C34 C 0.9783(2) -0.2826(4) -0.1633(2)
C35 C 0.9993(2) -0.2492(5) -0.1694(2)
H20 H 0.9981 -0.2110 -0.1668
C36 C 1.0230(2) -0.2707(5) -0.1794(2)
H21 H 1.0370 -0.2468 -0.1832
C37 C 1.0252(2) -0.3242(4) -0.1833(2)
H22 H 1.0409 -0.3386 -0.1896
C38 C 1.00364(19) -0.3596(4) -0.17786(19)
H23 H 1.0052 -0.3976 -0.1809
C39 C 0.98035(16) -0.3401(3) -0.16817(17)
C40 C 0.96014(18) -0.4281(4) -0.15633(18)
C41 C 0.93083(18) -0.5074(4) -0.14585(18)
C42 C 0.9522(2) -0.5428(4) -0.1320(2)
H24 H 0.9711 -0.5305 -0.1280
C43 C 0.9462(2) -0.5945(5) -0.1243(2)
H25 H 0.9609 -0.6179 -0.1156
C44 C 0.9179(2) -0.6133(5) -0.1295(2)
C45 C 0.8957(2) -0.5789(4) -0.1413(2)
H26 H 0.8768 -0.5907 -0.1436
C46 C 0.9020(2) -0.5266(4) -0.1496(2)
H27 H 0.8872 -0.5030 -0.1579
C47 C 0.8316(2) 0.0449(4) -0.0493(2)
C48 C 0.8105(2) 0.0173(4) -0.0654(2)
H28 H 0.8145 -0.0079 -0.0788
C49 C 0.7817(2) 0.0253(4) -0.0628(2)
H29 H 0.7672 0.0055 -0.0746
C50 C 0.77508(19) 0.0620(4) -0.0430(2)
C51 C 0.7973(3) 0.0880(5) -0.0242(3)
H30 H 0.7934 0.1088 -0.0090
C52 C 0.8253(3) 0.0833(6) -0.0279(3)
H31 H 0.8397 0.1043 -0.0169
C53 C 0.7235(2) 0.0442(5) -0.0480(2)
C54 C 0.6710(2) 0.0465(5) -0.0503(2)
C55 C 0.6500(2) 0.0647(5) -0.0358(2)
C56 C 0.6220(2) 0.0490(5) -0.0468(2)
H32 H 0.6074 0.0646 -0.0391
C57 C 0.6149(3) 0.0106(5) -0.0693(2)
H33 H 0.5962 -0.0012 -0.0755
C58 C 0.6366(3) -0.0093(6) -0.0817(3)
H34 H 0.6325 -0.0360 -0.0961
C59 C 0.6638(3) 0.0094(5) -0.0735(2)
H35 H 0.6778 -0.0023 -0.0832
C60 C 0.6434(3) 0.1058(5) 0.0089(3)
C61 C 0.6421(3) 0.1661(6) 0.0500(3)
C62 C 0.6600(3) 0.1877(6) 0.0728(3)
H36 H 0.6795 0.1882 0.0727
C63 C 0.6510(4) 0.2093(7) 0.0964(4)
H37 H 0.6635 0.2241 0.1121
C64 C 0.6191(3) 0.2067(7) 0.0942(3)
C65 C 0.6016(4) 0.1832(7) 0.0715(4)
H38 H 0.5821 0.1812 0.0713
C66 C 0.6123(3) 0.1616(6) 0.0483(3)
H39 H 0.6004 0.1453 0.0327
N1 N 0.99992(15) 0.2133(3) 0.01650(15)
H40 H 1.0170 0.2051 0.0146
N2 N 1.02145(16) 0.2836(3) 0.04444(15)
H41 H 1.0369 0.2698 0.0407
N3 N 1.07025(17) 0.2971(4) 0.08631(18)
H42 H 1.0715 0.2801 0.0708
N4 N 1.1091(2) 0.2426(4) 0.1060(2)
H43 H 1.1071 0.2286 0.0891
N5 N 1.2010(5) 0.1500(8) 0.1895(5)
N6 N 0.92959(14) -0.2056(3) -0.12890(14)
H44 H 0.9165 -0.2306 -0.1332
N7 N 0.95415(14) -0.2619(3) -0.15397(14)
H45 H 0.9382 -0.2792 -0.1592
N8 N 0.95817(14) -0.3747(3) -0.16330(14)
H46 H 0.9416 -0.3596 -0.1650
N9 N 0.93405(14) -0.4525(3) -0.15358(14)
H47 H 0.9190 -0.4319 -0.1569
N10 N 0.9122(2) -0.6678(4) -0.1187(2)
N11 N 0.74738(16) 0.0749(3) -0.03888(16)
H48 H 0.7455 0.1051 -0.0297
N12 N 0.69949(16) 0.0659(3) -0.04081(16)
H49 H 0.7018 0.0940 -0.0294
N13 N 0.65729(18) 0.1017(4) -0.01343(18)
H50 H 0.6715 0.1236 -0.0135
N14 N 0.6548(2) 0.1456(4) 0.0283(2)
H51 H 0.6712 0.1590 0.0270
N15 N 0.6083(4) 0.2263(7) 0.1199(4)
O1 O 0.97291(15) 0.2743(3) 0.03707(15)
O2 O 1.0911(2) 0.3081(4) 0.1331(2)
O3 O 1.1961(6) 0.1497(11) 0.2107(6)
O4 O 1.2169(5) 0.1303(8) 0.1761(4)
O5 O 0.97606(15) -0.1848(3) -0.12960(16)
O6 O 0.98317(13) -0.4555(3) -0.15224(13)
O7 O 0.9318(2) -0.7029(4) -0.1140(2)
O8 O 0.8872(2) -0.6821(4) -0.1201(2)
O9 O 0.72461(16) -0.0019(3) -0.05989(16)
O10 O 0.6215(2) 0.0781(5) 0.0104(2)
O11 O 0.5822(2) 0.2192(4) 0.1178(2)
O12 O 0.6231(4) 0.2554(7) 0.1373(4)
K1 K 1.00279(5) -0.54251(11) -0.17741(5)
C67 C 1.0804(4) -0.5669(7) -0.1561(3)
C68 C 1.0780(3) -0.5174(7) -0.1717(3)
C69 C 1.0534(3) -0.4659(5) -0.2100(3)
C70 C 1.0275(3) -0.4651(5) -0.2347(3)
C71 C 0.9777(2) -0.4755(5) -0.2457(2)
C72 C 0.9507(3) -0.4753(5) -0.2320(3)
C73 C 0.9420(2) -0.5719(5) -0.2327(3)
C74 C 0.9423(3) -0.6229(6) -0.2135(3)
C75 C 0.9731(3) -0.6803(7) -0.1815(3)
C76 C 1.0044(3) -0.6872(7) -0.1648(3)
C77 C 1.0330(5) -0.6427(9) -0.1235(4)
C78 C 1.0589(5) -0.6306(9) -0.1322(5)
O13 O 1.0571(3) -0.5716(6) -0.1434(3)
O14 O 1.05462(18) -0.5148(4) -0.19400(18)
O15 O 1.00189(16) -0.4717(3) -0.22329(16)
O16 O 0.95068(15) -0.5251(3) -0.21516(15)
O17 O 0.97092(18) -0.6334(4) -0.19798(18)
O18 O 1.00888(18) -0.6394(4) -0.14520(18)
C79 C 0.9934(5) 0.2115(11) -0.0929(6)
C80 C 0.9782(8) 0.1805(13) -0.1168(7)
C81 C 0.9391(11) 0.1362(18) -0.1321(10)
C82 C 0.9127(5) 0.1157(9) -0.1262(5)
C83 C 0.8748(5) 0.1395(9) -0.1080(4)
C84 C 0.8570(4) 0.1846(7) -0.0964(4)
C85 C 0.8616(4) 0.2518(8) -0.0595(4)
C86 C 0.8802(4) 0.2788(7) -0.0345(4)
C87 C 0.9238(5) 0.3283(9) -0.0184(4)
C88 C 0.9523(4) 0.3457(8) -0.0284(4)
C89 C 0.9907(4) 0.3259(8) -0.0471(4)
C90 C 0.9954(5) 0.2926(11) -0.0605(5)
O19 O 0.9893(4) 0.2515(8) -0.0791(4)
O20 O 0.9557(5) 0.1580(8) -0.1111(4)
O21 O 0.8979(3) 0.1592(6) -0.1146(3)
O22 O 0.87323(19) 0.2064(4) -0.07190(19)
O23 O 0.9043(2) 0.2994(4) -0.0416(2)
O24 O 0.9637(3) 0.3047(6) -0.0381(3)
K2 K 0.58927(12) 0.1574(2) 0.16222(12)
K3 K 0.92946(9) 0.21766(18) -0.07409(9)
K4 K 0.93428(10) 0.2308(2) -0.06635(10)
C91 C 0.42071(19) 1.6011(4) 0.08174(19)
H52 H 0.4258 1.6294 0.0705
C92 C 0.44190(19) 1.5666(4) 0.09601(19)
C93 C 0.4337(2) 1.5217(5) 0.1125(2)
H53 H 0.4474 1.4981 0.1228
C94 C 0.4042(2) 1.5136(4) 0.1130(2)
C95 C 0.3841(2) 1.5488(4) 0.0988(2)
H54 H 0.3650 1.5420 0.0993
C96 C 0.39086(19) 1.5955(4) 0.0834(2)
C97 C 0.36857(19) 1.6304(4) 0.06552(19)
C98 C 0.3407(2) 1.6330(5) 0.0696(2)
H55 H 0.3366 1.6133 0.0851
C99 C 0.3195(2) 1.6608(5) 0.0537(2)
H56 H 0.3013 1.6603 0.0579
C100 C 0.32507(18) 1.6910(4) 0.03046(18)
C101 C 0.3523(2) 1.6925(5) 0.0256(3)
H57 H 0.3565 1.7135 0.0106
C102 C 0.3736(2) 1.6626(4) 0.0433(2)
H58 H 0.3921 1.6643 0.0400
C103 C 0.3036(2) 1.7639(4) -0.0042(2)
C104 C 0.2737(2) 1.8316(5) -0.0352(2)
C105 C 0.2950(3) 1.8710(6) -0.0369(3)
H59 H 0.3133 1.8661 -0.0261
C106 C 0.2888(4) 1.9184(7) -0.0548(4)
H60 H 0.3034 1.9423 -0.0574
C107 C 0.2603(4) 1.9290(8) -0.0686(4)
H61 H 0.2551 1.9623 -0.0783
C108 C 0.2399(4) 1.8868(7) -0.0671(3)
H62 H 0.2216 1.8918 -0.0779
C109 C 0.2449(3) 1.8416(5) -0.0520(3)
C110 C 0.2055(3) 1.7831(6) -0.0743(3)
C111 C 0.16485(18) 1.7233(4) -0.08895(18)
C112 C 0.15600(19) 1.6690(4) -0.08581(17)
H63 H 0.1641 1.6486 -0.0697
C113 C 0.1350(2) 1.6452(3) -0.1068(2)
H64 H 0.1291 1.6089 -0.1047
C114 C 0.12286(19) 1.6757(4) -0.13093(18)
C115 C 0.1317(2) 1.7300(4) -0.13407(18)
H65 H 0.1236 1.7504 -0.1502
C116 C 0.1527(2) 1.7538(3) -0.1131(2)
H66 H 0.1586 1.7902 -0.1152
C117 C 0.3970(3) 1.4657(5) 0.1283(3)
C118 C 0.3703(4) 1.4442(7) 0.1222(4)
H67 H 0.3561 1.4643 0.1104
C119 C 0.3626(4) 1.3905(7) 0.1334(4)
H68 H 0.3448 1.3745 0.1267
C120 C 0.3807(3) 1.3672(6) 0.1521(3)
C121 C 0.4074(3) 1.3865(6) 0.1588(3)
H69 H 0.4210 1.3660 0.1713
C122 C 0.4161(4) 1.4374(8) 0.1474(4)
H70 H 0.4346 1.4506 0.1533
C123 C 0.3477(3) 1.3027(7) 0.1720(3)
C124 C 0.3264(4) 1.2348(7) 0.1988(4)
C125 C 0.3030(5) 1.2654(10) 0.2011(5)
H71 H 0.3028 1.3029 0.1962
C126 C 0.2785(5) 1.2432(9) 0.2107(4)
H72 H 0.2630 1.2654 0.2123
C127 C 0.2794(5) 1.1825(9) 0.2182(4)
H73 H 0.2636 1.1647 0.2226
C128 C 0.3054(3) 1.1528(6) 0.2183(3)
H74 H 0.3076 1.1166 0.2253
C129 C 0.3278(3) 1.1793(5) 0.2077(3)
C130 C 0.3522(2) 1.0943(4) 0.1964(2)
C131 C 0.38218(19) 1.0235(4) 0.18213(19)
C132 C 0.3607(2) 0.9929(4) 0.1641(2)
H75 H 0.3422 1.0068 0.1585
C133 C 0.3685(3) 0.9385(5) 0.1544(3)
H76 H 0.3547 0.9162 0.1432
C134 C 0.3952(2) 0.9210(4) 0.1619(2)
C135 C 0.4174(2) 0.9505(4) 0.1785(2)
H77 H 0.4359 0.9364 0.1831
C136 C 0.4105(2) 1.0024(4) 0.1881(2)
H78 H 0.4250 1.0240 0.1988
C137 C 0.4720(2) 1.5714(4) 0.0931(2)
C138 C 0.4916(2) 1.5319(5) 0.1019(2)
H79 H 0.4861 1.5010 0.1111
C139 C 0.5205(2) 1.5341(5) 0.0980(2)
H80 H 0.5333 1.5052 0.1038
C140 C 0.52852(19) 1.5816(4) 0.08504(19)
C141 C 0.5098(2) 1.6230(5) 0.0766(2)
H81 H 0.5154 1.6541 0.0675
C142 C 0.4819(2) 1.6195(5) 0.0816(2)
H82 H 0.4697 1.6498 0.0772
C143 C 0.5805(2) 1.5614(4) 0.0919(2)
C144 C 0.6332(2) 1.5652(5) 0.0952(2)
C145 C 0.6409(3) 1.5436(6) 0.1227(3)
H83 H 0.6271 1.5387 0.1338
C146 C 0.6692(4) 1.5294(7) 0.1336(4)
H84 H 0.6743 1.5177 0.1525
C147 C 0.6893(4) 1.5319(8) 0.1181(4)
H85 H 0.7076 1.5182 0.1252
C148 C 0.6815(4) 1.5577(7) 0.0885(4)
H86 H 0.6952 1.5634 0.0774
C149 C 0.6531(3) 1.5725(5) 0.0786(3)
C150 C 0.6604(2) 1.6005(5) 0.0315(2)
C151 C 0.6604(2) 1.6470(5) -0.0157(2)
C152 C 0.6907(2) 1.6433(5) -0.0145(3)
H87 H 0.7029 1.6309 0.0021
C153 C 0.7013(3) 1.6579(5) -0.0377(2)
H88 H 0.7208 1.6554 -0.0372
C154 C 0.6829(2) 1.6769(5) -0.0623(2)
C155 C 0.6537(3) 1.6830(6) -0.0639(3)
H89 H 0.6420 1.6978 -0.0801
C156 C 0.6422(3) 1.6662(5) -0.0402(3)
H90 H 0.6226 1.6681 -0.0410
N16 N 0.30186(16) 1.7185(3) 0.01282(15)
H91 H 0.2851 1.7056 0.0127
N17 N 0.27825(18) 1.7835(4) -0.01874(18)
H92 H 0.2634 1.7641 -0.0177
N18 N 0.22420(18) 1.8007(4) -0.05028(19)
H93 H 0.2233 1.7866 -0.0339
N19 N 0.1865(2) 1.7429(4) -0.0693(2)
H94 H 0.1887 1.7295 -0.0523
N20 N 0.1017(4) 1.6408(9) -0.1535(5)
N21 N 0.3746(2) 1.3154(5) 0.1657(2)
H95 H 0.3881 1.2913 0.1700
N22 N 0.3486(3) 1.2570(5) 0.1875(2)
H96 H 0.3645 1.2390 0.1908
N23 N 0.35261(17) 1.1492(3) 0.20522(17)
H97 H 0.3688 1.1659 0.2094
N24 N 0.37793(16) 1.0761(3) 0.19218(16)
H98 H 0.3923 1.0984 0.1959
N25 N 0.4018(2) 0.8660(4) 0.1522(2)
N26 N 0.55662(16) 1.5894(3) 0.07922(17)
H99 H 0.5585 1.6139 0.0666
N27 N 0.60490(16) 1.5842(3) 0.08592(17)
H100 H 0.6027 1.6135 0.0754
N28 N 0.6458(2) 1.6010(4) 0.0516(2)
H101 H 0.6303 1.6202 0.0485
N29 N 0.6481(2) 1.6335(4) 0.0081(2)
H102 H 0.6315 1.6470 0.0081
N30 N 0.6935(2) 1.6918(4) -0.0873(2)
O25 O 0.32716(15) 1.7844(3) -0.00605(15)
O26 O 0.2041(2) 1.8039(4) -0.0990(2)
O27 O 0.0956(4) 1.6702(7) -0.1774(4)
O28 O 0.0926(5) 1.6049(9) -0.1493(4)
O29 O 0.3258(3) 1.3295(5) 0.1609(3)
O30 O 0.32974(15) 1.0657(3) 0.19194(15)
O31 O 0.3805(2) 0.8360(4) 0.1408(2)
O32 O 0.42529(19) 0.8493(4) 0.15623(18)
O33 O 0.58128(15) 1.5184(3) 0.10698(15)
O34 O 0.68183(17) 1.5707(3) 0.03026(17)
O35 O 0.71989(18) 1.6891(4) -0.08625(18)
O36 O 0.6774(2) 1.7037(4) -0.1098(2)
K5 K 0.60707(5) 1.41950(10) 0.11988(5)
C157 C 0.8183(2) 1.8715(4) -0.0100(2)
H103 H 0.8074 1.8938 -0.0240
C158 C 0.8191(2) 1.8834(4) 0.0182(2)
C159 C 0.83667(19) 1.8489(4) 0.0390(2)
H104 H 0.8371 1.8558 0.0583
C160 C 0.8530(2) 1.8060(4) 0.0320(2)
C161 C 0.8523(2) 1.7963(4) 0.0032(2)
H105 H 0.8643 1.7694 -0.0020
C162 C 0.83363(18) 1.8265(4) -0.01843(19)
C163 C 0.83224(18) 1.8129(4) -0.04908(18)
C164 C 0.8406(2) 1.7616(4) -0.0572(2)
H106 H 0.8472 1.7349 -0.0434
C165 C 0.8391(2) 1.7496(4) -0.0855(2)
H107 H 0.8442 1.7142 -0.0905
C166 C 0.83057(18) 1.7870(4) -0.10650(19)
C167 C 0.82151(19) 1.8398(4) -0.0990(2)
H108 H 0.8151 1.8665 -0.1130
C168 C 0.82231(18) 1.8511(4) -0.07061(19)
H109 H 0.8160 1.8856 -0.0656
C169 C 0.81480(18) 1.7943(4) -0.15986(18)
C170 C 0.8050(2) 1.7809(4) -0.2118(2)
C171 C 0.7773(2) 1.8013(5) -0.2178(2)
H110 H 0.7672 1.8061 -0.2034
C172 C 0.7652(3) 1.8146(6) -0.2459(3)
H111 H 0.7466 1.8285 -0.2499
C173 C 0.7790(3) 1.8081(5) -0.2676(3)
H112 H 0.7698 1.8167 -0.2862
C174 C 0.8077(2) 1.7880(4) -0.2620(2)
H113 H 0.8174 1.7846 -0.2770
C175 C 0.8213(2) 1.7735(4) -0.2347(2)
C176 C 0.86914(19) 1.7566(4) -0.2437(2)
C177 C 0.91683(11) 1.7214(3) -0.24703(12)
C178 C 0.93975(13) 1.6908(3) -0.23213(10)
H114 H 0.9398 1.6788 -0.2136
C179 C 0.96267(11) 1.6782(3) -0.24490(13)
H115 H 0.9780 1.6577 -0.2349
C180 C 0.96267(12) 1.6961(3) -0.27258(13)
C181 C 0.93975(14) 1.7267(3) -0.28749(11)
H116 H 0.9397 1.7387 -0.3060
C182 C 0.91683(12) 1.7394(3) -0.27471(12)
H117 H 0.9015 1.7598 -0.2847
C183 C 0.8715(2) 1.7719(4) 0.0542(2)
C184 C 0.8794(2) 1.7189(4) 0.0494(2)
H118 H 0.8737 1.7040 0.0311
C185 C 0.8957(2) 1.6862(5) 0.0706(2)
H119 H 0.9022 1.6517 0.0658
C186 C 0.9025(2) 1.7041(4) 0.0988(2)
C187 C 0.8957(2) 1.7593(5) 0.1045(2)
H120 H 0.9014 1.7739 0.1228
C188 C 0.8804(2) 1.7925(5) 0.0824(2)
H121 H 0.8760 1.8290 0.0864
C189 C 0.9326(2) 1.6269(4) 0.1202(2)
C190 C 0.95785(19) 1.5512(4) 0.15062(19)
C191 C 0.9541(2) 1.5096(4) 0.1300(2)
H122 H 0.9418 1.5148 0.1125
C192 C 0.9696(2) 1.4585(5) 0.1359(2)
H123 H 0.9674 1.4307 0.1221
C193 C 0.9862(2) 1.4509(5) 0.1602(2)
H124 H 0.9960 1.4173 0.1634
C194 C 0.9905(2) 1.4903(4) 0.1819(2)
H125 H 1.0028 1.4832 0.1992
C195 C 0.97528(19) 1.5425(4) 0.17701(19)
C196 C 1.0035(2) 1.5964(5) 0.2168(2)
C197 C 1.0242(2) 1.6641(5) 0.2545(2)
C198 C 1.0487(4) 1.6387(7) 0.2635(3)
H126 H 1.0514 1.6028 0.2574
C199 C 1.0712(4) 1.6662(7) 0.2827(3)
H127 H 1.0883 1.6477 0.2900
C200 C 1.0672(2) 1.7219(5) 0.2905(3)
C201 C 1.0413(3) 1.7438(6) 0.2820(3)
H128 H 1.0376 1.7792 0.2883
C202 C 1.0194(3) 1.7153(5) 0.2640(3)
H129 H 1.0015 1.7316 0.2585
C203 C 0.8040(2) 1.9324(4) 0.0278(2)
C204 C 0.8149(3) 1.9616(5) 0.0507(3)
H130 H 0.8322 1.9504 0.0618
C205 C 0.8015(3) 2.0092(5) 0.0593(3)
H131 H 0.8106 2.0292 0.0752
C206 C 0.77645(17) 2.0258(4) 0.04548(18)
C207 C 0.7631(2) 1.9980(5) 0.0201(2)
H132 H 0.7457 2.0100 0.0093
C208 C 0.7778(2) 1.9501(5) 0.0119(2)
H133 H 0.7695 1.9305 -0.0045
C209 C 0.76276(19) 2.0911(4) 0.0791(2)
C210 C 0.74128(18) 2.1613(4) 0.10626(19)
C211 C 0.7441(2) 2.1323(4) 0.1312(2)
H134 H 0.7493 2.0950 0.1320
C212 C 0.7389(2) 2.1594(4) 0.1557(2)
H135 H 0.7412 2.1396 0.1727
C213 C 0.7309(2) 2.2124(4) 0.1555(2)
H136 H 0.7277 2.2294 0.1721
C214 C 0.72744(19) 2.2410(4) 0.13061(19)
H137 H 0.7210 2.2775 0.1302
C215 C 0.73322(19) 2.2178(4) 0.1054(2)
C216 C 0.73576(19) 2.3045(4) 0.07877(19)
C217 C 0.7379(2) 2.3793(5) 0.0428(2)
C218 C 0.7347(2) 2.4233(5) 0.0608(2)
H138 H 0.7316 2.4176 0.0792
C219 C 0.7365(3) 2.4780(5) 0.0494(3)
H139 H 0.7346 2.5091 0.0605
C220 C 0.7410(3) 2.4845(5) 0.0229(3)
C221 C 0.7446(3) 2.4417(6) 0.0063(3)
H140 H 0.7483 2.4476 -0.0119
C222 C 0.7428(3) 2.3892(5) 0.0163(3)
H141 H 0.7449 2.3592 0.0047
N31 N 0.83159(15) 1.7732(3) -0.13483(15)
H142 H 0.8441 1.7488 -0.1370
N32 N 0.81858(17) 1.7680(3) -0.18346(17)
H143 H 0.8304 1.7406 -0.1812
N33 N 0.84811(15) 1.7506(3) -0.22753(16)
H144 H 0.8522 1.7314 -0.2120
N34 N 0.89430(15) 1.7294(3) -0.23284(16)
H145 H 0.8963 1.7161 -0.2158
N35 N 0.9869(2) 1.6834(4) -0.2848(2)
N36 N 0.91620(15) 1.6740(3) 0.12207(16)
H146 H 0.9145 1.6851 0.1388
N37 N 0.94264(15) 1.6027(3) 0.14636(16)
H147 H 0.9395 1.6197 0.1613
N38 N 0.97874(17) 1.5850(3) 0.19840(17)
H148 H 0.9640 1.6047 0.1996
N39 N 1.00165(19) 1.6395(4) 0.23386(18)
H149 H 0.9850 1.6543 0.2323
N40 N 1.0913(3) 1.7507(6) 0.3088(3)
N41 N 0.76167(15) 2.0732(3) 0.05200(16)
H150 H 0.7515 2.0917 0.0382
N42 N 0.74629(15) 2.1382(3) 0.08078(16)
H151 H 0.7386 2.1544 0.0650
N43 N 0.73042(15) 2.2484(3) 0.07964(16)
H152 H 0.7251 2.2309 0.0637
N44 N 0.73377(16) 2.3245(3) 0.05075(16)
H153 H 0.7296 2.3006 0.0372
N45 N 0.7439(2) 2.5440(5) 0.0110(3)
O37 O 0.79919(14) 1.8334(3) -0.15980(14)
O38 O 0.86556(16) 1.7873(3) -0.26532(16)
O39 O 0.98880(18) 1.7076(4) -0.30739(19)
O40 O 1.0042(2) 1.6507(4) -0.2734(2)
O41 O 0.93834(15) 1.6094(3) 0.09723(15)
O42 O 1.02632(16) 1.5710(3) 0.21645(16)
O43 O 1.0869(2) 1.7983(5) 0.3131(2)
O44 O 1.1121(3) 1.7252(6) 0.3162(3)
O45 O 0.77690(15) 2.0678(3) 0.10056(15)
O46 O 0.74274(14) 2.3343(3) 0.09979(14)
O47 O 0.7478(2) 2.5756(4) 0.0290(2)
O48 O 0.7400(2) 2.5484(5) -0.0145(2)
C223 C 0.4519(3) 1.6865(5) 0.1449(3)
C224 C 0.4588(3) 1.7408(5) 0.1303(3)
C225 C 0.4443(3) 1.7959(6) 0.0923(3)
C226 C 0.4221(3) 1.8079(6) 0.0655(3)
C227 C 0.3724(3) 1.8336(7) 0.0531(3)
C228 C 0.3470(3) 1.8504(7) 0.0659(3)
C229 C 0.3143(3) 1.8157(6) 0.0930(3)
C230 C 0.3050(2) 1.7642(5) 0.1045(3)
C231 C 0.3192(3) 1.6923(5) 0.1400(3)
C232 C 0.3430(3) 1.6722(6) 0.1629(3)
C233 C 0.3901(3) 1.6427(5) 0.1730(3)
C234 C 0.4179(3) 1.6372(6) 0.1595(3)
O49 O 0.43763(16) 1.7487(3) 0.10526(16)
O50 O 0.39490(17) 1.8204(3) 0.07555(17)
O51 O 0.33742(15) 1.8022(3) 0.07932(15)
O52 O 0.32741(15) 1.7411(3) 0.12669(15)
O53 O 0.36745(16) 1.6600(3) 0.15116(16)
O54 O 0.42516(16) 1.6888(3) 0.15247(16)
C235 C 0.7983(4) 1.5918(7) -0.0620(4)
C236 C 0.8017(4) 1.6052(7) -0.0913(4)
C237 C 0.7817(3) 1.6568(5) -0.1295(3)
C238 C 0.7570(3) 1.6946(5) -0.1432(3)
C239 C 0.7387(3) 1.7863(6) -0.1405(3)
C240 C 0.7422(3) 1.8369(5) -0.1215(3)
C241 C 0.7370(3) 1.8729(6) -0.0770(3)
C242 C 0.7285(3) 1.8507(6) -0.0494(3)
C243 C 0.7449(3) 1.7948(7) -0.0090(3)
C244 C 0.7706(3) 1.7618(7) 0.0062(3)
C245 C 0.7965(4) 1.6824(8) 0.0033(4)
C246 C 0.7964(4) 1.6288(8) -0.0176(4)
O55 O 0.80050(18) 1.6406(4) -0.04362(19)
O56 O 0.78013(17) 1.6441(3) -0.10234(17)
O57 O 0.76032(16) 1.7476(3) -0.12825(16)
O58 O 0.73699(17) 1.8234(3) -0.09403(17)
O59 O 0.75149(17) 1.8163(4) -0.03520(18)
O60 O 0.7733(2) 1.7131(4) -0.0102(2)
K6 K 0.38276(8) 1.73402(17) 0.11427(8)
K7 K 0.77198(5) 1.73633(11) -0.06883(5)
K8 K 0.20965(11) 1.7401(2) -0.15041(11)
K9 K 0.31179(5) 0.97797(10) 0.21636(5)
K10 K 0.37908(9) 1.74523(19) 0.10773(9)
C247 C 0.46254(18) 0.6414(4) 0.49399(19)
H154 H 0.4612 0.6363 0.4745
C248 C 0.47882(18) 0.6044(4) 0.51356(19)
C249 C 0.4805(2) 0.6140(4) 0.5426(2)
H155 H 0.4919 0.5911 0.5559
C250 C 0.46523(19) 0.6576(4) 0.55224(19)
C251 C 0.4496(2) 0.6953(4) 0.5324(2)
H156 H 0.4404 0.7257 0.5386
C252 C 0.44813(17) 0.6864(4) 0.50394(18)
C253 C 0.43181(18) 0.7270(4) 0.48253(18)
C254 C 0.4294(2) 0.7802(4) 0.4895(2)
H157 H 0.4363 0.7907 0.5084
C255 C 0.4172(2) 0.8211(5) 0.4701(2)
H158 H 0.4161 0.8578 0.4759
C256 C 0.40663(18) 0.8055(4) 0.44208(18)
C257 C 0.4063(2) 0.7510(4) 0.4357(2)
H159 H 0.3972 0.7393 0.4176
C258 C 0.4190(2) 0.7122(5) 0.4552(2)
H160 H 0.4188 0.6751 0.4498
C259 C 0.38424(18) 0.8956(4) 0.42566(19)
C260 C 0.36320(19) 0.9791(4) 0.39902(19)
C261 C 0.3704(3) 1.0181(5) 0.4205(3)
H161 H 0.3837 1.0080 0.4368
C262 C 0.3591(3) 1.0718(5) 0.4193(3)
H162 H 0.3649 1.0987 0.4332
C263 C 0.3383(2) 1.0805(5) 0.3948(2)
H163 H 0.3290 1.1147 0.3937
C264 C 0.32957(19) 1.0457(4) 0.37222(19)
H164 H 0.3158 1.0559 0.3564
C265 C 0.34300(18) 0.9927(4) 0.37459(18)
C266 C 0.31026(19) 0.9459(4) 0.33465(19)
C267 C 0.28667(19) 0.8887(4) 0.2945(2)
C268 C 0.2575(2) 0.9036(4) 0.2957(2)
H165 H 0.2538 0.9276 0.3098
C269 C 0.2360(2) 0.8820(4) 0.2761(2)
H166 H 0.2171 0.8892 0.2773
C270 C 0.2419(2) 0.8490(4) 0.2541(2)
C271 C 0.2688(2) 0.8348(4) 0.2520(2)
H167 H 0.2723 0.8117 0.2374
C272 C 0.2908(2) 0.8564(4) 0.2724(2)
H168 H 0.3095 0.8483 0.2709
C273 C 0.4672(2) 0.6649(4) 0.5833(2)
C274 C 0.4643(2) 0.7188(4) 0.5952(2)
H169 H 0.4616 0.7499 0.5833
C275 C 0.4656(2) 0.7245(4) 0.6242(2)
H170 H 0.4639 0.7596 0.6319
C276 C 0.46948(18) 0.6785(4) 0.64215(19)
C277 C 0.4718(2) 0.6296(5) 0.6313(2)
H171 H 0.4736 0.5988 0.6433
C278 C 0.4717(2) 0.6211(5) 0.6017(2)
H172 H 0.4748 0.5858 0.5950
C279 C 0.48234(19) 0.6584(4) 0.69421(19)
C280 C 0.4893(2) 0.6553(5) 0.7467(2)
C281 C 0.5153(3) 0.6222(6) 0.7509(3)
H173 H 0.5234 0.6137 0.7353
C282 C 0.5283(4) 0.6033(8) 0.7777(4)
H174 H 0.5456 0.5841 0.7809
C283 C 0.5132(3) 0.6154(6) 0.8007(3)
H175 H 0.5195 0.5990 0.8186
C284 C 0.4901(3) 0.6501(6) 0.7968(3)
H176 H 0.4823 0.6608 0.8123
C285 C 0.4781(3) 0.6696(5) 0.7694(3)
C286 C 0.4331(3) 0.7027(7) 0.7807(3)
C287 C 0.3892(3) 0.7508(5) 0.7857(3)
C288 C 0.3871(4) 0.7307(7) 0.8112(4)
H177 H 0.4008 0.7057 0.8204
C289 C 0.3639(3) 0.7471(7) 0.8250(3)
H178 H 0.3608 0.7286 0.8412
C290 C 0.3481(3) 0.7872(6) 0.8145(3)
C291 C 0.3506(3) 0.8117(6) 0.7891(3)
H179 H 0.3387 0.8410 0.7815
C292 C 0.3708(3) 0.7919(6) 0.7753(3)
H180 H 0.3721 0.8076 0.7578
C293 C 0.49429(17) 0.5567(4) 0.50388(18)
C294 C 0.49995(18) 0.5086(4) 0.52083(19)
H181 H 0.4939 0.5068 0.5381
C295 C 0.51424(19) 0.4640(4) 0.51229(19)
H182 H 0.5174 0.4323 0.5236
C296 C 0.52438(19) 0.4664(4) 0.48571(19)
C297 C 0.51925(18) 0.5123(4) 0.47006(19)
H183 H 0.5259 0.5148 0.4531
C298 C 0.50395(18) 0.5571(4) 0.47851(18)
H184 H 0.5002 0.5881 0.4666
C299 C 0.5426(2) 0.4051(4) 0.4534(2)
C300 C 0.5664(2) 0.3312(4) 0.4281(2)
C301 C 0.5631(3) 0.3582(6) 0.4023(3)
H185 H 0.5554 0.3939 0.4003
C302 C 0.5712(3) 0.3316(6) 0.3787(3)
H186 H 0.5693 0.3502 0.3614
C303 C 0.5818(3) 0.2794(6) 0.3813(3)
H187 H 0.5864 0.2619 0.3655
C304 C 0.5862(2) 0.2503(5) 0.4084(2)
H188 H 0.5945 0.2151 0.4104
C305 C 0.5776(2) 0.2765(4) 0.4317(2)
C306 C 0.5743(2) 0.1901(4) 0.4591(2)
C307 C 0.56989(17) 0.1184(3) 0.49316(16)
C308 C 0.5670(2) 0.1110(3) 0.52133(15)
H189 H 0.5685 0.1414 0.5336
C309 C 0.5621(2) 0.0583(4) 0.53117(17)
H190 H 0.5602 0.0533 0.5500
C310 C 0.5599(3) 0.0129(3) 0.5128(2)
C311 C 0.5628(3) 0.0202(3) 0.4847(2)
H191 H 0.5613 -0.0102 0.4724
C312 C 0.5678(2) 0.0730(4) 0.47482(15)
H192 H 0.5697 0.0779 0.4560
N46 N 0.39483(16) 0.8437(3) 0.42057(17)
H193 H 0.3941 0.8342 0.4031
N47 N 0.37634(15) 0.9264(3) 0.40039(16)
H194 H 0.3797 0.9124 0.3848
N48 N 0.33660(15) 0.9532(3) 0.35276(15)
H195 H 0.3502 0.9315 0.3503
N49 N 0.31027(15) 0.9056(3) 0.31513(15)
H196 H 0.3262 0.8887 0.3154
N50 N 0.2181(2) 0.8243(4) 0.2336(2)
N51 N 0.46911(15) 0.6901(3) 0.67160(15)
H197 H 0.4599 0.7191 0.6753
N52 N 0.47761(19) 0.6781(4) 0.71894(18)
H198 H 0.4667 0.7067 0.7182
N53 N 0.45296(18) 0.7030(4) 0.76518(19)
H199 H 0.4505 0.7258 0.7510
N54 N 0.4103(2) 0.7372(5) 0.7715(2)
H200 H 0.4091 0.7520 0.7549
N55 N 0.3266(3) 0.8083(6) 0.8288(3)
N56 N 0.54104(16) 0.4205(3) 0.48029(16)
H201 H 0.5505 0.4020 0.4945
N57 N 0.55986(17) 0.3578(4) 0.45282(18)
H202 H 0.5673 0.3433 0.4691
N58 N 0.57943(16) 0.2472(3) 0.45705(17)
H203 H 0.5841 0.2655 0.4728
N59 N 0.57449(16) 0.1738(3) 0.48615(17)
H204 H 0.5776 0.1982 0.4996
N60 N 0.5599(3) -0.0430(7) 0.5276(4)
O61 O 0.38026(14) 0.9112(3) 0.44864(15)
O62 O 0.28947(13) 0.9752(3) 0.33619(13)
O63 O 0.22283(19) 0.8031(4) 0.21217(19)
O64 O 0.1931(2) 0.8309(4) 0.2380(2)
O65 O 0.49593(15) 0.6164(3) 0.69113(15)
O66 O 0.4317(2) 0.6675(5) 0.8001(2)
O67 O 0.3233(3) 0.7842(5) 0.8515(3)
O68 O 0.3127(3) 0.8486(5) 0.8219(2)
O69 O 0.52955(16) 0.4266(3) 0.43171(16)
O70 O 0.56954(15) 0.1610(3) 0.43847(15)
O71 O 0.5552(3) -0.0813(6) 0.5096(3)
O72 O 0.5567(4) -0.0505(8) 0.5484(4)
K11 K 0.50792(8) -0.12291(16) 0.48215(8)
K12 K 0.48979(15) -0.1425(3) 0.48824(15)
C313 C 0.8995(3) 0.9638(5) 0.0244(3)
C314 C 0.8957(3) 0.9261(5) 0.0009(2)
H205 H 0.8778 0.9071 -0.0006
H206 H 0.9110 0.8995 0.0039
H207 H 0.8958 0.9464 -0.0164
Cl1 Cl 0.93081(6) 1.00477(13) 0.02717(6)
Cl2 Cl 0.90426(6) 0.92472(13) 0.05840(7)
Cl3 Cl 0.87000(6) 1.00800(12) 0.02378(6)
C315 C 0.6087(4) 0.5182(9) 0.9566(4)
C316 C 0.5962(5) 0.5005(10) 0.9195(5)
C317 C 0.5560(7) 0.4499(13) 0.8938(7)
C318 C 0.5346(6) 0.4018(10) 0.9007(5)
C319 C 0.5422(6) 0.3195(12) 0.8965(6)
C320 C 0.5586(11) 0.276(2) 0.8983(10)
C321 C 0.5900(6) 0.2220(11) 0.9351(5)
C322 C 0.6118(5) 0.2322(9) 0.9631(5)
C323 C 0.6495(3) 0.2778(7) 0.9926(3)
C324 C 0.6660(4) 0.3237(7) 0.9922(4)
C325 C 0.6656(5) 0.4176(9) 0.9902(4)
C326 C 0.6498(5) 0.4697(10) 0.9904(5)
O73 O 0.6295(3) 0.4659(6) 0.9600(3)
O74 O 0.5755(3) 0.4645(5) 0.9253(3)
O75 O 0.5560(4) 0.3699(8) 0.8975(4)
O76 O 0.5758(3) 0.2731(7) 0.9295(3)
O77 O 0.6293(2) 0.2761(4) 0.9660(2)
O78 O 0.6511(2) 0.3755(4) 0.9909(2)
K13 K 0.60140(8) 0.36537(18) 0.94900(9)
K14 K 0.1987(2) 0.3660(4) 0.0705(2)
K15 K 0.1955(3) 0.3760(6) 0.0969(4)
O79 O 0.55450(12) 0.6560(2) 0.02813(12)
O80 O 0.60319(12) 0.6797(3) 0.05660(13)
O81 O 0.57222(12) 0.7542(3) 0.03005(13)
O82 O 0.59445(12) 0.6817(2) 0.00346(12)
P1 P 0.58099(5) 0.69237(10) 0.02945(5)
O83 O 0.24881(12) 0.6536(2) 0.00709(12)
O84 O 0.20993(12) 0.6820(3) 0.03270(13)
O85 O 0.19939(13) 0.6736(3) -0.02073(13)
O86 O 0.23049(13) 0.7526(3) 0.00395(13)
P2 P 0.22272(5) 0.69087(10) 0.00590(5)
O87 O 0.88603(11) 0.6077(2) 0.84813(11)
O88 O 0.88333(11) 0.7081(2) 0.86371(11)
O89 O 0.90584(11) 0.6834(2) 0.82172(11)
O90 O 0.85259(11) 0.6741(2) 0.81683(11)
P3 P 0.88198(4) 0.66845(9) 0.83806(4)
O91 O 0.42690(13) 0.1386(3) 0.19677(13)
O92 O 0.45499(14) 0.2159(3) 0.22384(14)
O93 O 0.40207(14) 0.2137(3) 0.21846(15)
O94 O 0.42360(12) 0.2350(3) 0.17592(13)
P4 P 0.42689(5) 0.20056(11) 0.20347(5)
C327? C 0.5133(6) 0.3155(12) 0.7456(6)
C328? C 0.5158(5) 0.3399(9) 0.7154(5)
C329? C 0.5096(5) 0.4243(10) 0.6872(5)
C330? C 0.4957(6) 0.4774(11) 0.6819(5)
O95? O 0.5028(3) 0.3959(6) 0.7121(3)
C331? C 0.6650(8) 0.0914(16) 0.1632(8)
C332? C 0.6435(12) 0.074(2) 0.1249(11)
C333? C 0.5993(7) 0.0614(12) 0.1144(7)
C334? C 0.5632(5) 0.0532(10) 0.1171(5)
C335? C 0.5258(4) 0.0872(7) 0.1347(4)
C336? C 0.5153(3) 0.1469(6) 0.1435(3)
C337? C 0.5287(3) 0.2177(7) 0.1775(3)
C338? C 0.5481(3) 0.2427(7) 0.2029(3)
C339? C 0.5964(4) 0.2655(8) 0.2174(4)
C340? C 0.6267(4) 0.2743(8) 0.2074(4)
C341? C 0.6614(6) 0.2190(10) 0.1921(5)
C342? C 0.6627(5) 0.1498(10) 0.1805(5)
O96? O 0.6472(4) 0.1454(8) 0.1532(4)
O97? O 0.6110(4) 0.0688(8) 0.1363(4)
O98? O 0.5495(3) 0.1008(6) 0.1259(3)
O99? O 0.5355(2) 0.1684(4) 0.1674(2)
O100? O 0.5756(2) 0.2474(4) 0.1949(2)
O101? O 0.6343(3) 0.2170(5) 0.2020(3)
C343? C 0.2365(5) 1.0133(10) 0.2065(5)
C344? C 0.2481(5) 1.0323(9) 0.2348(5)
C345? C 0.2843(4) 1.0527(7) 0.2743(3)
C346? C 0.3200(3) 1.0299(7) 0.2839(3)
C347? C 0.3632(3) 1.0445(6) 0.2743(3)
C348? C 0.3732(3) 0.9810(6) 0.2789(3)
C349? C 0.3729(2) 0.9003(4) 0.2536(2)
C350? C 0.3674(4) 0.8792(7) 0.2244(4)
C351? C 0.3271(4) 0.8393(7) 0.1905(4)
C352? C 0.3038(5) 0.8404(10) 0.1834(5)
C353? C 0.2616(5) 0.9272(9) 0.1536(5)
C354? C 0.2537(6) 0.9562(11) 0.1719(6)
O102? O 0.2517(3) 0.9735(6) 0.1957(3)
O103? O 0.2747(3) 1.0240(5) 0.2461(3)
O104? O 0.3350(3) 1.0483(5) 0.2651(3)
O105? O 0.3653(2) 0.9562(4) 0.2527(2)
O106? O 0.3367(2) 0.8718(4) 0.2161(2)
O107? O 0.2941(3) 0.8893(7) 0.1765(3)
C355? C 0.5462(3) 1.3405(6) 0.1269(3)
C356? C 0.5596(5) 1.3904(11) 0.1672(5)
C357? C 0.5627(10) 1.4456(19) 0.1744(9)
C358? C 0.6125(4) 1.4084(8) 0.1846(4)
C359? C 0.6421(4) 1.4332(7) 0.1955(4)
O108? O 0.5581(2) 1.3930(5) 0.1367(2)
O109? O 0.5937(5) 1.4472(8) 0.1769(4)
O110? O 0.6558(5) 1.4030(9) 0.1674(4)
C360? C 0.4561(7) -0.0052(13) 0.4785(7)
C361? C 0.4602(6) -0.0301(12) 0.5058(6)
C362? C 0.4733(6) -0.0719(11) 0.5444(5)
C363? C 0.4891(7) -0.1183(14) 0.5541(7)
C364? C 0.5126(3) -0.1990(6) 0.5519(3)
C365? C 0.5169(4) -0.2421(8) 0.5302(4)
C366? C 0.5363(4) -0.2631(8) 0.4936(4)
C367? C 0.5117(4) -0.2676(9) 0.4651(4)
C368? C 0.4804(4) -0.2305(7) 0.4297(4)
C369? C 0.4734(4) -0.1723(8) 0.4126(4)
C370? C 0.4600(3) -0.0817(6) 0.4168(3)
C371? C 0.4508(5) -0.0539(10) 0.4396(5)
O111? O 0.4720(4) -0.0309(8) 0.4597(4)
O112? O 0.4939(5) -0.0367(9) 0.5213(5)
O113? O 0.4946(3) -0.1570(5) 0.5364(3)
O114? O 0.5336(2) -0.2201(4) 0.5114(2)
O115? O 0.5058(2) -0.2224(5) 0.4494(2)
O116? O 0.4678(3) -0.1323(5) 0.4306(3)
C372? C 0.2402(7) 1.8644(12) -0.1793(6)
C373? C 0.2559(4) 1.8549(9) -0.1427(4)
C374? C 0.2747(7) 1.7943(13) -0.1076(6)
C375? C 0.2805(10) 1.7363(19) -0.1022(9)
C376? C 0.2586(7) 1.6391(14) -0.1070(7)
C377? C 0.2304(7) 1.6304(12) -0.1061(7)
C378? C 0.1942(10) 1.5863(18) -0.1365(9)
C379? C 0.1781(11) 1.596(2) -0.1719(11)
C380? C 0.1495(12) 1.690(2) -0.2098(11)
C381? C 0.2090(7) 1.8312(13) -0.2128(8)
O117? O 0.2144(5) 1.8385(8) -0.1831(5)
O118? O 0.1676(6) 1.6546(12) -0.1790(6)
O119? O 0.2161(5) 1.6217(9) -0.1373(5)
O120? O 0.2554(6) 1.6905(13) -0.1067(6)
O121? O 0.2609(3) 1.7970(6) -0.1399(3)
C382? C 0.1553(7) 0.2821(15) 0.0139(8)
C383? C 0.1586(8) 0.2619(15) 0.0391(9)
C384? C 0.2025(7) 0.2274(13) 0.0552(6)
C385? C 0.2273(11) 0.223(2) 0.0777(11)
O122? O 0.1572(5) 0.3468(11) 0.0208(5)
O123? O 0.1841(5) 0.2637(9) 0.0569(4)
O124? O 0.2393(6) 0.2822(12) 0.0692(6)
C386? C 0.3525(12) 0.634(2) 0.7396(10)
C387? C 0.3978(9) 0.5917(16) 0.7254(8)
C388? C 0.4280(9) 0.5644(17) 0.7205(9)
C389? C 0.4403(8) 0.4815(17) 0.7347(8)
C390? C 0.4422(7) 0.4313(14) 0.7450(7)
C391? C 0.4134(5) 0.3657(9) 0.7817(5)
C392? C 0.4022(7) 0.3561(13) 0.8077(7)
C393? C 0.3574(5) 0.3966(10) 0.8127(5)
C394? C 0.3299(6) 0.4231(13) 0.7947(6)
O125? O 0.3799(6) 0.6082(10) 0.7426(5)
O126? O 0.3334(6) 0.4799(12) 0.7883(6)
O127? O 0.3771(4) 0.3907(7) 0.7921(4)
O128? O 0.4269(6) 0.4206(11) 0.7711(6)
O129? O 0.4174(5) 0.5251(10) 0.7348(5)
C395? C 0.2424(11) 0.4575(19) 0.1048(10)
O130? O 0.2063(9) 0.4945(16) 0.0960(8)
O131? O 0.1719(9) 0.4599(15) 0.0331(8)
C396? C 0.2745(8) 0.3444(15) 0.0910(8)
O132? O 0.2551(4) 0.3796(8) 0.1039(4)
C397? C 0.0399(7) 0.2573(14) 0.1515(7)
C398? C 0.0419(8) 0.1997(15) 0.1424(7)
C399? C 0.0672(8) 0.1366(17) 0.1525(8)
C400? C 0.0928(7) 0.1112(13) 0.1814(7)
O133? O 0.0617(6) 0.1780(11) 0.1636(5)
C401? C 0.4680(7) 0.5227(14) 0.3600(7)
C402? C 0.4793(4) 0.4859(8) 0.3848(4)
C403? C 0.4923(9) 0.5646(16) 0.3177(8)
C404? C 0.5157(12) 0.555(2) 0.3079(11)
O134? O 0.4830(10) 0.5076(17) 0.3347(9)
C405? C 0.5690(8) 0.9180(15) 0.1864(8)
C406? C 0.5981(5) 0.9467(10) 0.1948(5)
C407? C 0.6043(11) 0.991(2) 0.2255(10)
O135? O 0.6040(12) 0.943(2) 0.1768(11)
C408? C 0.5778(4) 1.3282(7) 0.0589(4)
C409? C 0.5592(6) 1.3951(12) 0.0621(6)
O136? O 0.5648(5) 1.3495(10) 0.0892(5)
C410? C 0.6625(4) 1.3745(8) 0.0940(4)
C411? C 0.6530(3) 1.4035(6) 0.0703(3)
C412? C 0.6767(3) 1.3612(6) 0.1451(3)
O137? O 0.6597(3) 1.3824(6) 0.1163(3)
K16? K 0.59472(12) 0.1501(2) 0.17442(12)
O138? O 0.5805(4) 0.0691(7) 0.2019(3)
C413? C 0.5427(4) -0.0852(9) 0.4154(5)
C414? C 0.5410(4) -0.0919(8) 0.4390(4)
N61? N 0.5472(6) -0.0776(10) 0.3880(6)
K17? K 0.61010(13) 0.3958(3) 0.94006(13)
O139? O 0.4308(5) 0.5508(9) 0.8068(4)
C415? C 0.3628(11) 0.6117(19) 0.7792(10)
O140? O 0.3328(7) 0.5843(13) 0.7606(7)
C416? C 0.5803(4) 0.4390(8) 1.0135(4)
C417? C 0.5842(4) 0.4888(8) 1.0317(4)
N62? N 0.5786(3) 0.4025(5) 0.9959(3)
K18? K 0.39329(16) 0.4837(3) 0.77120(15)
K19? K 0.37588(19) 0.4961(3) 0.76451(17)
O141? O 0.6141(3) 1.3936(6) 0.0646(3)
O142? O 0.1752(5) 1.7593(9) -0.2039(4)
loop_
_geom_bond_atom_site_label_1
_geom_bond_atom_site_label_2
_geom_bond_site_symmetry_1
_geom_bond_site_symmetry_2
C1 H1 1_555 1_555
C2 C1 1_555 1_555
C3 C2 1_555 1_555
H2 C3 1_555 1_555
C4 C3 1_555 1_555
C5 C4 1_555 1_555
H3 C5 1_555 1_555
C6 C1 1_555 1_555
C7 C2 1_555 1_555
C8 C7 1_555 1_555
H4 C8 1_555 1_555
C9 C8 1_555 1_555
H5 C9 1_555 1_555
C10 C9 1_555 1_555
C11 C10 1_555 1_555
H6 C11 1_555 1_555
C12 C7 1_555 1_555
H7 C12 1_555 1_555
C13 N1 1_555 1_555
C14 C15 1_555 1_555
C15 H8 1_555 1_555
C16 C15 1_555 1_555
H9 C16 1_555 1_555
C17 C16 1_555 1_555
H10 C17 1_555 1_555
C18 C17 1_555 1_555
H11 C18 1_555 1_555
C19 C14 1_555 1_555
C20 N3 1_555 1_555
C21 C22 1_555 1_555
C22 H12 1_555 1_555
C23 C22 1_555 1_555
H13 C23 1_555 1_555
C24 C23 1_555 1_555
C25 C24 1_555 1_555
H14 C25 1_555 1_555
C26 C21 1_555 1_555
H15 C26 1_555 1_555
C27 C4 1_555 1_555
C28 C27 1_555 1_555
H16 C28 1_555 1_555
C29 C28 1_555 1_555
H17 C29 1_555 1_555
C30 C29 1_555 1_555
C31 C30 1_555 1_555
H18 C31 1_555 1_555
C32 C27 1_555 1_555
H19 C32 1_555 1_555
C33 N6 1_555 1_555
C34 C35 1_555 1_555
C35 H20 1_555 1_555
C36 C35 1_555 1_555
H21 C36 1_555 1_555
C37 C36 1_555 1_555
H22 C37 1_555 1_555
C38 C37 1_555 1_555
H23 C38 1_555 1_555
C39 C34 1_555 1_555
C40 N8 1_555 1_555
C41 C42 1_555 1_555
C42 H24 1_555 1_555
C43 C42 1_555 1_555
H25 C43 1_555 1_555
C44 C43 1_555 1_555
C45 C44 1_555 1_555
H26 C45 1_555 1_555
C46 C41 1_555 1_555
H27 C46 1_555 1_555
C47 C6 1_555 1_555
C48 C47 1_555 1_555
H28 C48 1_555 1_555
C49 C48 1_555 1_555
H29 C49 1_555 1_555
C50 C49 1_555 1_555
C51 C50 1_555 1_555
H30 C51 1_555 1_555
C52 C47 1_555 1_555
H31 C52 1_555 1_555
C53 N11 1_555 1_555
C54 C55 1_555 1_555
C55 C56 1_555 1_555
C56 H32 1_555 1_555
C57 C56 1_555 1_555
H33 C57 1_555 1_555
C58 C57 1_555 1_555
H34 C58 1_555 1_555
C59 C54 1_555 1_555
H35 C59 1_555 1_555
C60 N13 1_555 1_555
C61 C62 1_555 1_555
C62 H36 1_555 1_555
C63 C62 1_555 1_555
H37 C63 1_555 1_555
C64 C63 1_555 1_555
C65 C64 1_555 1_555
H38 C65 1_555 1_555
C66 C61 1_555 1_555
H39 C66 1_555 1_555
N1 C10 1_555 1_555
H40 N1 1_555 1_555
N2 C13 1_555 1_555
H41 N2 1_555 1_555
N3 C19 1_555 1_555
H42 N3 1_555 1_555
N4 C20 1_555 1_555
H43 N4 1_555 1_555
N5 C24 1_555 1_555
N6 C30 1_555 1_555
H44 N6 1_555 1_555
N7 C33 1_555 1_555
H45 N7 1_555 1_555
N8 C39 1_555 1_555
H46 N8 1_555 1_555
N9 C40 1_555 1_555
H47 N9 1_555 1_555
N10 C44 1_555 1_555
N11 C50 1_555 1_555
H48 N11 1_555 1_555
N12 C53 1_555 1_555
H49 N12 1_555 1_555
N13 C55 1_555 1_555
H50 N13 1_555 1_555
N14 C60 1_555 1_555
H51 N14 1_555 1_555
N15 C64 1_555 1_555
O1 C13 1_555 1_555
O2 C20 1_555 1_555
O3 N5 1_555 1_555
O4 N5 1_555 1_555
O5 C33 1_555 1_555
O6 C40 1_555 1_555
O7 N10 1_555 1_555
O8 N10 1_555 1_555
O9 C53 1_555 1_555
O10 C60 1_555 1_555
O11 N15 1_555 1_555
O12 N15 1_555 1_555
C67 C68 1_555 1_555
C68 O14 1_555 1_555
C69 C70 1_555 1_555
C70 O15 1_555 1_555
C71 C72 1_555 1_555
C72 O16 1_555 1_555
C73 C74 1_555 1_555
C74 O17 1_555 1_555
C75 C76 1_555 1_555
C76 O18 1_555 1_555
C77 C78 1_555 1_555
C78 O13 1_555 1_555
O13 C67 1_555 1_555
O14 C69 1_555 1_555
O15 C71 1_555 1_555
O16 C73 1_555 1_555
O17 C75 1_555 1_555
O18 C77 1_555 1_555
C79 C80 1_555 1_555
C80 O20 1_555 1_555
C81 C82 1_555 1_555
C82 O21 1_555 1_555
C83 C84 1_555 1_555
C84 O22 1_555 1_555
C85 C86 1_555 1_555
C86 O23 1_555 1_555
C87 C88 1_555 1_555
C88 O24 1_555 1_555
C89 C90 1_555 1_555
C90 O19 1_555 1_555
O19 C79 1_555 1_555
O20 C81 1_555 1_555
O21 C83 1_555 1_555
O22 C85 1_555 1_555
O23 C87 1_555 1_555
O24 C89 1_555 1_555
C91 H52 1_555 1_555
C92 C91 1_555 1_555
C93 C92 1_555 1_555
H53 C93 1_555 1_555
C94 C93 1_555 1_555
C95 C94 1_555 1_555
H54 C95 1_555 1_555
C96 C91 1_555 1_555
C97 C96 1_555 1_555
C98 C97 1_555 1_555
H55 C98 1_555 1_555
C99 C98 1_555 1_555
H56 C99 1_555 1_555
C100 C99 1_555 1_555
C101 C100 1_555 1_555
H57 C101 1_555 1_555
C102 C97 1_555 1_555
H58 C102 1_555 1_555
C103 N16 1_555 1_555
C104 C105 1_555 1_555
C105 H59 1_555 1_555
C106 C105 1_555 1_555
H60 C106 1_555 1_555
C107 C106 1_555 1_555
H61 C107 1_555 1_555
C108 C107 1_555 1_555
H62 C108 1_555 1_555
C109 C104 1_555 1_555
C110 N18 1_555 1_555
C111 C112 1_555 1_555
C112 H63 1_555 1_555
C113 C112 1_555 1_555
H64 C113 1_555 1_555
C114 C113 1_555 1_555
C115 C114 1_555 1_555
H65 C115 1_555 1_555
C116 C111 1_555 1_555
H66 C116 1_555 1_555
C117 C94 1_555 1_555
C118 C117 1_555 1_555
H67 C118 1_555 1_555
C119 C118 1_555 1_555
H68 C119 1_555 1_555
C120 C119 1_555 1_555
C121 C120 1_555 1_555
H69 C121 1_555 1_555
C122 C117 1_555 1_555
H70 C122 1_555 1_555
C123 N21 1_555 1_555
C124 C125 1_555 1_555
C125 H71 1_555 1_555
C126 C125 1_555 1_555
H72 C126 1_555 1_555
C127 C126 1_555 1_555
H73 C127 1_555 1_555
C128 C127 1_555 1_555
H74 C128 1_555 1_555
C129 C124 1_555 1_555
C130 N23 1_555 1_555
C131 C132 1_555 1_555
C132 H75 1_555 1_555
C133 C132 1_555 1_555
H76 C133 1_555 1_555
C134 C133 1_555 1_555
C135 C134 1_555 1_555
H77 C135 1_555 1_555
C136 C131 1_555 1_555
H78 C136 1_555 1_555
C137 C92 1_555 1_555
C138 C137 1_555 1_555
H79 C138 1_555 1_555
C139 C138 1_555 1_555
H80 C139 1_555 1_555
C140 C139 1_555 1_555
C141 C140 1_555 1_555
H81 C141 1_555 1_555
C142 C137 1_555 1_555
H82 C142 1_555 1_555
C143 N26 1_555 1_555
C144 C145 1_555 1_555
C145 H83 1_555 1_555
C146 C145 1_555 1_555
H84 C146 1_555 1_555
C147 C146 1_555 1_555
H85 C147 1_555 1_555
C148 C147 1_555 1_555
H86 C148 1_555 1_555
C149 C144 1_555 1_555
C150 N28 1_555 1_555
C151 C152 1_555 1_555
C152 H87 1_555 1_555
C153 C152 1_555 1_555
H88 C153 1_555 1_555
C154 C153 1_555 1_555
C155 C154 1_555 1_555
H89 C155 1_555 1_555
C156 C151 1_555 1_555
H90 C156 1_555 1_555
N16 C100 1_555 1_555
H91 N16 1_555 1_555
N17 C103 1_555 1_555
H92 N17 1_555 1_555
N18 C109 1_555 1_555
H93 N18 1_555 1_555
N19 C110 1_555 1_555
H94 N19 1_555 1_555
N20 C114 1_555 1_555
N21 C120 1_555 1_555
H95 N21 1_555 1_555
N22 C123 1_555 1_555
H96 N22 1_555 1_555
N23 C129 1_555 1_555
H97 N23 1_555 1_555
N24 C130 1_555 1_555
H98 N24 1_555 1_555
N25 C134 1_555 1_555
N26 C140 1_555 1_555
H99 N26 1_555 1_555
N27 C143 1_555 1_555
H100 N27 1_555 1_555
N28 C149 1_555 1_555
H101 N28 1_555 1_555
N29 C150 1_555 1_555
H102 N29 1_555 1_555
N30 C154 1_555 1_555
O25 C103 1_555 1_555
O26 C110 1_555 1_555
O27 N20 1_555 1_555
O28 N20 1_555 1_555
O29 C123 1_555 1_555
O30 C130 1_555 1_555
O31 N25 1_555 1_555
O32 N25 1_555 1_555
O33 C143 1_555 1_555
O34 C150 1_555 1_555
O35 N30 1_555 1_555
O36 N30 1_555 1_555
C157 H103 1_555 1_555
C158 C157 1_555 1_555
C159 C158 1_555 1_555
H104 C159 1_555 1_555
C160 C159 1_555 1_555
C161 C160 1_555 1_555
H105 C161 1_555 1_555
C162 C157 1_555 1_555
C163 C162 1_555 1_555
C164 C163 1_555 1_555
H106 C164 1_555 1_555
C165 C164 1_555 1_555
H107 C165 1_555 1_555
C166 C165 1_555 1_555
C167 C166 1_555 1_555
H108 C167 1_555 1_555
C168 C163 1_555 1_555
H109 C168 1_555 1_555
C169 N31 1_555 1_555
C170 C171 1_555 1_555
C171 H110 1_555 1_555
C172 C171 1_555 1_555
H111 C172 1_555 1_555
C173 C172 1_555 1_555
H112 C173 1_555 1_555
C174 C173 1_555 1_555
H113 C174 1_555 1_555
C175 C170 1_555 1_555
C176 N33 1_555 1_555
C177 C178 1_555 1_555
C178 H114 1_555 1_555
C179 C178 1_555 1_555
H115 C179 1_555 1_555
C180 C179 1_555 1_555
C181 C180 1_555 1_555
H116 C181 1_555 1_555
C182 C177 1_555 1_555
H117 C182 1_555 1_555
C183 C160 1_555 1_555
C184 C183 1_555 1_555
H118 C184 1_555 1_555
C185 C184 1_555 1_555
H119 C185 1_555 1_555
C186 C185 1_555 1_555
C187 C186 1_555 1_555
H120 C187 1_555 1_555
C188 C183 1_555 1_555
H121 C188 1_555 1_555
C189 N36 1_555 1_555
C190 C191 1_555 1_555
C191 H122 1_555 1_555
C192 C191 1_555 1_555
H123 C192 1_555 1_555
C193 C192 1_555 1_555
H124 C193 1_555 1_555
C194 C193 1_555 1_555
H125 C194 1_555 1_555
C195 C190 1_555 1_555
C196 N38 1_555 1_555
C197 C198 1_555 1_555
C198 H126 1_555 1_555
C199 C198 1_555 1_555
H127 C199 1_555 1_555
C200 C199 1_555 1_555
C201 C200 1_555 1_555
H128 C201 1_555 1_555
C202 C197 1_555 1_555
H129 C202 1_555 1_555
C203 C158 1_555 1_555
C204 C203 1_555 1_555
H130 C204 1_555 1_555
C205 C204 1_555 1_555
H131 C205 1_555 1_555
C206 C205 1_555 1_555
C207 C206 1_555 1_555
H132 C207 1_555 1_555
C208 C203 1_555 1_555
H133 C208 1_555 1_555
C209 N41 1_555 1_555
C210 C211 1_555 1_555
C211 H134 1_555 1_555
C212 C211 1_555 1_555
H135 C212 1_555 1_555
C213 C212 1_555 1_555
H136 C213 1_555 1_555
C214 C213 1_555 1_555
H137 C214 1_555 1_555
C215 C210 1_555 1_555
C216 N43 1_555 1_555
C217 C218 1_555 1_555
C218 H138 1_555 1_555
C219 C218 1_555 1_555
H139 C219 1_555 1_555
C220 C219 1_555 1_555
C221 C220 1_555 1_555
H140 C221 1_555 1_555
C222 C217 1_555 1_555
H141 C222 1_555 1_555
N31 C166 1_555 1_555
H142 N31 1_555 1_555
N32 C169 1_555 1_555
H143 N32 1_555 1_555
N33 C175 1_555 1_555
H144 N33 1_555 1_555
N34 C176 1_555 1_555
H145 N34 1_555 1_555
N35 C180 1_555 1_555
N36 C186 1_555 1_555
H146 N36 1_555 1_555
N37 C189 1_555 1_555
H147 N37 1_555 1_555
N38 C195 1_555 1_555
H148 N38 1_555 1_555
N39 C196 1_555 1_555
H149 N39 1_555 1_555
N40 C200 1_555 1_555
N41 C206 1_555 1_555
H150 N41 1_555 1_555
N42 C209 1_555 1_555
H151 N42 1_555 1_555
N43 C215 1_555 1_555
H152 N43 1_555 1_555
N44 C216 1_555 1_555
H153 N44 1_555 1_555
N45 C220 1_555 1_555
O37 C169 1_555 1_555
O38 C176 1_555 1_555
O39 N35 1_555 1_555
O40 N35 1_555 1_555
O41 C189 1_555 1_555
O42 C196 1_555 1_555
O43 N40 1_555 1_555
O44 N40 1_555 1_555
O45 C209 1_555 1_555
O46 C216 1_555 1_555
O47 N45 1_555 1_555
O48 N45 1_555 1_555
C223 C224 1_555 1_555
C224 O49 1_555 1_555
C225 C226 1_555 1_555
C226 O50 1_555 1_555
C227 C228 1_555 1_555
C228 O51 1_555 1_555
C229 C230 1_555 1_555
C230 O52 1_555 1_555
C231 C232 1_555 1_555
C232 O53 1_555 1_555
C233 C234 1_555 1_555
C234 O54 1_555 1_555
O49 C225 1_555 1_555
O50 C227 1_555 1_555
O51 C229 1_555 1_555
O52 C231 1_555 1_555
O53 C233 1_555 1_555
O54 C223 1_555 1_555
C235 C236 1_555 1_555
C236 O56 1_555 1_555
C237 C238 1_555 1_555
C238 O57 1_555 1_555
C239 C240 1_555 1_555
C240 O58 1_555 1_555
C241 C242 1_555 1_555
C242 O59 1_555 1_555
C243 C244 1_555 1_555
C244 O60 1_555 1_555
C245 C246 1_555 1_555
C246 O55 1_555 1_555
O55 C235 1_555 1_555
O56 C237 1_555 1_555
O57 C239 1_555 1_555
O58 C241 1_555 1_555
O59 C243 1_555 1_555
O60 C245 1_555 1_555
C247 H154 1_555 1_555
C248 C247 1_555 1_555
C249 C248 1_555 1_555
H155 C249 1_555 1_555
C250 C249 1_555 1_555
C251 C250 1_555 1_555
H156 C251 1_555 1_555
C252 C247 1_555 1_555
C253 C252 1_555 1_555
C254 C253 1_555 1_555
H157 C254 1_555 1_555
C255 C254 1_555 1_555
H158 C255 1_555 1_555
C256 C255 1_555 1_555
C257 C256 1_555 1_555
H159 C257 1_555 1_555
C258 C253 1_555 1_555
H160 C258 1_555 1_555
C259 N46 1_555 1_555
C260 C261 1_555 1_555
C261 H161 1_555 1_555
C262 C261 1_555 1_555
H162 C262 1_555 1_555
C263 C262 1_555 1_555
H163 C263 1_555 1_555
C264 C263 1_555 1_555
H164 C264 1_555 1_555
C265 C260 1_555 1_555
C266 N48 1_555 1_555
C267 C268 1_555 1_555
C268 H165 1_555 1_555
C269 C268 1_555 1_555
H166 C269 1_555 1_555
C270 C269 1_555 1_555
C271 C270 1_555 1_555
H167 C271 1_555 1_555
C272 C267 1_555 1_555
H168 C272 1_555 1_555
C273 C250 1_555 1_555
C274 C273 1_555 1_555
H169 C274 1_555 1_555
C275 C274 1_555 1_555
H170 C275 1_555 1_555
C276 C275 1_555 1_555
C277 C276 1_555 1_555
H171 C277 1_555 1_555
C278 C273 1_555 1_555
H172 C278 1_555 1_555
C279 N51 1_555 1_555
C280 C281 1_555 1_555
C281 H173 1_555 1_555
C282 C281 1_555 1_555
H174 C282 1_555 1_555
C283 C282 1_555 1_555
H175 C283 1_555 1_555
C284 C283 1_555 1_555
H176 C284 1_555 1_555
C285 C280 1_555 1_555
C286 N53 1_555 1_555
C287 C288 1_555 1_555
C288 H177 1_555 1_555
C289 C288 1_555 1_555
H178 C289 1_555 1_555
C290 C289 1_555 1_555
C291 C290 1_555 1_555
H179 C291 1_555 1_555
C292 C287 1_555 1_555
H180 C292 1_555 1_555
C293 C248 1_555 1_555
C294 C293 1_555 1_555
H181 C294 1_555 1_555
C295 C294 1_555 1_555
H182 C295 1_555 1_555
C296 C295 1_555 1_555
C297 C296 1_555 1_555
H183 C297 1_555 1_555
C298 C293 1_555 1_555
H184 C298 1_555 1_555
C299 N56 1_555 1_555
C300 C301 1_555 1_555
C301 H185 1_555 1_555
C302 C301 1_555 1_555
H186 C302 1_555 1_555
C303 C302 1_555 1_555
H187 C303 1_555 1_555
C304 C303 1_555 1_555
H188 C304 1_555 1_555
C305 C300 1_555 1_555
C306 N58 1_555 1_555
C307 C308 1_555 1_555
C308 H189 1_555 1_555
C309 C308 1_555 1_555
H190 C309 1_555 1_555
C310 C309 1_555 1_555
C311 C310 1_555 1_555
H191 C311 1_555 1_555
C312 C307 1_555 1_555
H192 C312 1_555 1_555
N46 C256 1_555 1_555
H193 N46 1_555 1_555
N47 C259 1_555 1_555
H194 N47 1_555 1_555
N48 C265 1_555 1_555
H195 N48 1_555 1_555
N49 C266 1_555 1_555
H196 N49 1_555 1_555
N50 C270 1_555 1_555
N51 C276 1_555 1_555
H197 N51 1_555 1_555
N52 C279 1_555 1_555
H198 N52 1_555 1_555
N53 C285 1_555 1_555
H199 N53 1_555 1_555
N54 C286 1_555 1_555
H200 N54 1_555 1_555
N55 C290 1_555 1_555
N56 C296 1_555 1_555
H201 N56 1_555 1_555
N57 C299 1_555 1_555
H202 N57 1_555 1_555
N58 C305 1_555 1_555
H203 N58 1_555 1_555
N59 C306 1_555 1_555
H204 N59 1_555 1_555
N60 C310 1_555 1_555
O61 C259 1_555 1_555
O62 C266 1_555 1_555
O63 N50 1_555 1_555
O64 N50 1_555 1_555
O65 C279 1_555 1_555
O66 C286 1_555 1_555
O67 N55 1_555 1_555
O68 N55 1_555 1_555
O69 C299 1_555 1_555
O70 C306 1_555 1_555
O71 N60 1_555 1_555
O72 N60 1_555 1_555
C313 C314 1_555 1_555
C314 H205 1_555 1_555
H206 C314 1_555 1_555
H207 C314 1_555 1_555
Cl1 C313 1_555 1_555
Cl2 C313 1_555 1_555
Cl3 C313 1_555 1_555
C315 C316 1_555 1_555
C316 O74 1_555 1_555
C317 C318 1_555 1_555
C318 O75 1_555 1_555
C319 C320 1_555 1_555
C320 O76 1_555 1_555
C321 C322 1_555 1_555
C322 O77 1_555 1_555
C323 C324 1_555 1_555
C324 O78 1_555 1_555
C325 C326 1_555 1_555
C326 O73 1_555 1_555
O73 C315 1_555 1_555
O74 C317 1_555 1_555
O75 C319 1_555 1_555
O76 C321 1_555 1_555
O77 C323 1_555 1_555
O78 C325 1_555 1_555
O79 P1 1_555 1_555
O80 P1 1_555 1_555
O81 P1 1_555 1_555
O82 P1 1_555 1_555
O83 P2 1_555 1_555
O84 P2 1_555 1_555
O85 P2 1_555 1_555
O86 P2 1_555 1_555
O87 P3 1_555 1_555
O88 P3 1_555 1_555
O89 P3 1_555 1_555
O90 P3 1_555 1_555
O91 P4 1_555 1_555
O92 P4 1_555 1_555
O93 P4 1_555 1_555
O94 P4 1_555 1_555
C5 C6 1_555 1_555
C11 C12 1_555 1_555
C14 N2 1_555 1_555
C18 C19 1_555 1_555
C21 N4 1_555 1_555
C25 C26 1_555 1_555
C31 C32 1_555 1_555
C34 N7 1_555 1_555
C38 C39 1_555 1_555
C41 N9 1_555 1_555
C45 C46 1_555 1_555
C51 C52 1_555 1_555
C54 N12 1_555 1_555
C58 C59 1_555 1_555
C61 N14 1_555 1_555
C65 C66 1_555 1_555
C95 C96 1_555 1_555
C101 C102 1_555 1_555
C104 N17 1_555 1_555
C108 C109 1_555 1_555
C111 N19 1_555 1_555
C115 C116 1_555 1_555
C121 C122 1_555 1_555
C124 N22 1_555 1_555
C128 C129 1_555 1_555
C131 N24 1_555 1_555
C135 C136 1_555 1_555
C141 C142 1_555 1_555
C144 N27 1_555 1_555
C148 C149 1_555 1_555
C151 N29 1_555 1_555
C155 C156 1_555 1_555
C161 C162 1_555 1_555
C167 C168 1_555 1_555
C170 N32 1_555 1_555
C174 C175 1_555 1_555
C177 N34 1_555 1_555
C181 C182 1_555 1_555
C187 C188 1_555 1_555
C190 N37 1_555 1_555
C194 C195 1_555 1_555
C197 N39 1_555 1_555
C201 C202 1_555 1_555
C207 C208 1_555 1_555
C210 N42 1_555 1_555
C214 C215 1_555 1_555
C217 N44 1_555 1_555
C221 C222 1_555 1_555
C251 C252 1_555 1_555
C257 C258 1_555 1_555
C260 N47 1_555 1_555
C264 C265 1_555 1_555
C267 N49 1_555 1_555
C271 C272 1_555 1_555
C277 C278 1_555 1_555
C280 N52 1_555 1_555
C284 C285 1_555 1_555
C287 N54 1_555 1_555
C291 C292 1_555 1_555
C297 C298 1_555 1_555
C300 N57 1_555 1_555
C304 C305 1_555 1_555
C307 N59 1_555 1_555
C311 C312 1_555 1_555

#END
