
#######################################################################
#
#                 Cambridge Crystallographic Data Centre
#                                CCDC 
#
#######################################################################
#
# If this CIF has been generated from an entry in the Cambridge 
# Structural Database, then it will include bibliographic, chemical, 
# crystal, experimental, refinement or atomic coordinate data resulting 
# from the CCDC's data processing and validation procedures.
#
#######################################################################

data_VULZAF
_chemical_formula_moiety         
'4(C66 H51 N15 O12),12(K1 1+),12(C12 H24 O6),4(O4 P1 3-),C1 H2 Cl2'
_chemical_name_systematic        
'tetrakis(1,3,5-tris(4-(3-(2-(3-(4-Nitrophenyl)ureido)phenyl)ureido)phenyl)benzene) dodeca-potassium dodecakis(18-crown-6) tetrakis(phosphate) dichloromethane solvate'
_symmetry_cell_setting           monoclinic
_symmetry_space_group_name_H-M   'C c'
_symmetry_Int_Tables_number      9
_space_group_name_Hall           'C -2yc'
loop_
_symmetry_equiv_pos_site_id
_symmetry_equiv_pos_as_xyz
1 x,y,z
2 x,-y,1/2+z
3 1/2+x,1/2+y,z
4 1/2+x,1/2-y,1/2+z
_cell_length_a                   47.4592(15)
_cell_length_b                   24.0539(8)
_cell_length_c                   47.7705(15)
_cell_angle_alpha                90
_cell_angle_beta                 101.655(2)
_cell_angle_gamma                90
_cell_volume                     53409.4
_exptl_crystal_colour            yellow
_exptl_crystal_description       block
_cell_formula_units_Z            4
loop_
_atom_site_label
_atom_site_type_symbol
_atom_site_fract_x
_atom_site_fract_y
_atom_site_fract_z
O1 O 0.0290(4) -0.0474(8) 0.3414(4)
C1 C 0.1308(3) 0.6411(5) 0.3989(3)
H1 H 0.1319 0.6361 0.4184
C2 C 0.1445(3) 0.6864(5) 0.3897(3)
C3 C 0.1440(3) 0.6961(6) 0.3600(3)
H2 H 0.1533 0.7262 0.3536
C4 C 0.1286(3) 0.6566(6) 0.3414(3)
C5 C 0.1143(4) 0.6122(8) 0.3485(4)
H3 H 0.1041 0.5883 0.3348
C6 C 0.1156(3) 0.6033(5) 0.3800(3)
C7 C 0.1590(3) 0.7295(5) 0.4108(3)
C8 C 0.1736(3) 0.7170(7) 0.4385(4)
H4 H 0.1754 0.6795 0.4434
C9 C 0.1846(3) 0.7513(6) 0.4575(3)
H5 H 0.1936 0.7382 0.4754
C10 C 0.1837(3) 0.8102(5) 0.4522(3)
C11 C 0.1750(3) 0.8213(6) 0.4239(3)
H6 H 0.1771 0.8572 0.4175
C12 C 0.1633(3) 0.7812(6) 0.4044(3)
H7 H 0.1580 0.7918 0.3854
C13 C 0.2062(3) 0.8965(5) 0.4682(3)
C14 C 0.2278(3) 0.9815(6) 0.4942(3)
C15 C 0.2217(4) 1.0160(7) 0.4719(4)
H8 H 0.2106 1.0032 0.4548
C16 C 0.2324(4) 1.0752(8) 0.4735(4)
H9 H 0.2254 1.1031 0.4604
C17 C 0.2542(3) 1.0817(7) 0.4975(3)
H10 H 0.2648 1.1144 0.4980
C18 C 0.2624(3) 1.0477(5) 0.5202(3)
H11 H 0.2759 1.0589 0.5361
C19 C 0.2491(3) 0.9927(6) 0.5189(3)
C20 C 0.2808(2) 0.9473(5) 0.5588(2)
C21 C 0.3045(3) 0.8896(6) 0.5989(3)
C22 C 0.3342(3) 0.9041(5) 0.5987(3)
H12 H 0.3385 0.9283 0.5849
C23 C 0.3547(3) 0.8829(6) 0.6179(3)
H13 H 0.3736 0.8913 0.6171
C24 C 0.3498(3) 0.8495(6) 0.6389(3)
C25 C 0.3215(3) 0.8362(6) 0.6408(3)
H14 H 0.3179 0.8138 0.6556
C26 C 0.2994(3) 0.8563(5) 0.6208(3)
H15 H 0.2806 0.8475 0.6219
C27 C 0.1271(4) 0.6647(8) 0.3103(4)
C28 C 0.1244(4) 0.6215(8) 0.2919(4)
H16 H 0.1231 0.5856 0.2987
C29 C 0.1237(4) 0.6304(8) 0.2618(4)
H17 H 0.1239 0.5999 0.2499
C30 C 0.1227(3) 0.6784(6) 0.2515(3)
C31 C 0.1235(4) 0.7275(8) 0.2677(4)
H18 H 0.1224 0.7627 0.2595
C32 C 0.1261(3) 0.7187(7) 0.2985(4)
H19 H 0.1271 0.7494 0.3106
C33 C 0.1084(3) 0.6536(7) 0.2005(3)
C34 C 0.1026(3) 0.6479(7) 0.1471(3)
C35 C 0.0777(4) 0.6164(8) 0.1459(4)
H20 H 0.0691 0.6118 0.1616
C36 C 0.0650(6) 0.5886(12) 0.1152(6)
H21 H 0.0499 0.5631 0.1125
C37 C 0.0774(4) 0.6044(8) 0.0943(5)
H22 H 0.0700 0.5910 0.0761
C38 C 0.1022(4) 0.6416(8) 0.0978(5)
H23 H 0.1103 0.6505 0.0823
C39 C 0.1134(4) 0.6634(8) 0.1247(4)
C40 C 0.1596(4) 0.6959(9) 0.1125(5)
C41 C 0.2014(4) 0.7466(7) 0.1056(4)
C42 C 0.2020(5) 0.7274(9) 0.0795(5)
H24 H 0.1881 0.7025 0.0705
C43 C 0.2252(4) 0.7463(8) 0.0651(4)
H25 H 0.2265 0.7321 0.0473
C44 C 0.2438(4) 0.7833(7) 0.0777(4)
C45 C 0.2420(5) 0.8051(9) 0.1036(5)
H26 H 0.2554 0.8312 0.1122
C46 C 0.2205(4) 0.7887(8) 0.1172(4)
H27 H 0.2186 0.8057 0.1342
C47 C 0.1009(3) 0.5542(5) 0.3884(3)
C48 C 0.0882(3) 0.5559(5) 0.4129(3)
H28 H 0.0902 0.5885 0.4236
C49 C 0.0733(3) 0.5132(5) 0.4218(3)
H29 H 0.0677 0.5150 0.4393
C50 C 0.0667(3) 0.4674(6) 0.4044(3)
C51 C 0.0813(3) 0.4620(6) 0.3794(3)
H30 H 0.0803 0.4288 0.3693
C52 C 0.0957(3) 0.5052(5) 0.3719(3)
H31 H 0.1027 0.5029 0.3550
C53 C 0.0483(3) 0.4042(7) 0.4357(3)
C54 C 0.0254(3) 0.3340(6) 0.4624(3)
C55 C 0.0302(4) 0.3587(8) 0.4904(4)
H32 H 0.0389 0.3936 0.4929
C56 C 0.0228(4) 0.3335(8) 0.5134(4)
H33 H 0.0258 0.3519 0.5308
C57 C 0.0113(4) 0.2836(8) 0.5113(4)
H34 H 0.0063 0.2668 0.5272
C58 C 0.0066(4) 0.2544(8) 0.4834(4)
H35 H -0.0020 0.2195 0.4816
C59 C 0.0147(3) 0.2784(6) 0.4606(3)
C60 C 0.0169(3) 0.1922(6) 0.4328(3)
C61 C 0.0218(3) 0.1197(5) 0.3994(3)
C62 C 0.0241(4) 0.0733(8) 0.4168(4)
H36 H 0.0237 0.0782 0.4360
C63 C 0.0270(4) 0.0213(9) 0.4072(4)
H37 H 0.0266 -0.0094 0.4189
C64 C 0.0305(4) 0.0153(8) 0.3788(4)
C65 C 0.0324(5) 0.0572(11) 0.3652(6)
H38 H 0.0386 0.0529 0.3481
C66 C 0.0260(3) 0.1111(6) 0.3726(3)
H39 H 0.0247 0.1402 0.3596
N1 N 0.1951(2) 0.8463(5) 0.4726(2)
H40 H 0.1953 0.8369 0.4901
N2 N 0.2149(2) 0.9284(5) 0.4936(2)
H41 H 0.2121 0.9146 0.5094
N3 N 0.2553(2) 0.9547(4) 0.5406(2)
H42 H 0.2415 0.9332 0.5429
N4 N 0.2809(2) 0.9071(4) 0.5774(2)
H43 H 0.2650 0.8895 0.5766
N5 N 0.3742(3) 0.8204(6) 0.6602(3)
N6 N 0.1237(3) 0.6913(5) 0.2220(2)
H44 H 0.1328 0.7197 0.2175
N7 N 0.1142(2) 0.6739(5) 0.1753(2)
H45 H 0.1250 0.7028 0.1759
N8 N 0.1391(3) 0.6965(5) 0.1297(3)
H46 H 0.1420 0.7183 0.1443
N9 N 0.1803(3) 0.7358(5) 0.1217(3)
H47 H 0.1802 0.7539 0.1372
N10 N 0.2634(5) 0.8064(9) 0.0606(5)
N11 N 0.0503(2) 0.4210(5) 0.4095(2)
H48 H 0.0411 0.4026 0.3950
N12 N 0.0320(3) 0.3594(5) 0.4374(3)
H49 H 0.0245 0.3439 0.4214
N13 N 0.0125(2) 0.2484(4) 0.4352(2)
H50 H 0.0081 0.2669 0.4195
N14 N 0.0171(2) 0.1749(4) 0.4060(2)
H51 H 0.0142 0.1989 0.3924
N15 N 0.0324(4) -0.0419(8) 0.3657(5)
O2 O 0.2112(2) 0.9134(4) 0.4450(2)
O3 O 0.30223(19) 0.9757(4) 0.55685(19)
O4 O 0.3981(3) 0.8297(5) 0.6556(3)
O5 O 0.3678(3) 0.7988(5) 0.6818(3)
O6 O 0.0964(3) 0.6125(5) 0.2039(3)
O7 O 0.1605(3) 0.6599(6) 0.0944(3)
O8 O 0.2775(4) 0.8414(8) 0.0705(4)
O9 O 0.2664(4) 0.7817(7) 0.0394(4)
O10 O 0.0639(2) 0.4251(4) 0.4585(2)
O11 O 0.0236(2) 0.1626(4) 0.4544(2)
O12 O 0.0355(3) -0.0803(7) 0.3831(3)
K1 K 0.08300(10) -0.1213(2) 0.41169(10)
K2 K 0.1015(2) -0.1418(4) 0.4050(2)
C67 C 0.2698(3) 0.6157(6) 0.3750(3)
C68 C 0.2518(3) 0.6481(6) 0.3536(3)
H52 H 0.2505 0.6392 0.3344
C69 C 0.2364(3) 0.6924(6) 0.3609(3)
C70 C 0.2376(3) 0.7046(6) 0.3892(3)
H53 H 0.2264 0.7330 0.3944
C71 C 0.2569(3) 0.6722(6) 0.4111(3)
C72 C 0.2712(3) 0.6285(5) 0.4024(3)
H54 H 0.2825 0.6065 0.4163
C73 C 0.2163(2) 0.7262(3) 0.33787(19)
C74 C 0.2070(3) 0.7036(3) 0.3108(2)
H55 H 0.2106 0.6665 0.3075
C75 C 0.1923(3) 0.7366(4) 0.28868(17)
H56 H 0.1861 0.7215 0.2706
C76 C 0.1869(2) 0.7922(4) 0.29364(17)
C77 C 0.1962(2) 0.8148(3) 0.32072(19)
H57 H 0.1926 0.8519 0.3240
C78 C 0.2109(2) 0.7818(4) 0.34283(15)
H58 H 0.2171 0.7969 0.3609
C79 C 0.1583(3) 0.8715(7) 0.2714(4)
C80 C 0.1331(3) 0.9438(6) 0.2426(3)
C81 C 0.1365(4) 0.9884(8) 0.2607(4)
H59 H 0.1501 0.9854 0.2776
C82 C 0.1213(4) 1.0379(8) 0.2557(4)
H60 H 0.1242 1.0658 0.2694
C83 C 0.1015(4) 1.0457(8) 0.2298(4)
H61 H 0.0907 1.0782 0.2265
C84 C 0.0984(3) 1.0051(7) 0.2100(4)
H62 H 0.0854 1.0107 0.1929
C85 C 0.1148(3) 0.9520(7) 0.2140(3)
C86 C 0.0868(3) 0.8986(7) 0.1743(3)
C87 C 0.0664(2) 0.8309(5) 0.1374(2)
C88 C 0.0400(2) 0.8565(4) 0.1271(2)
H63 H 0.0369 0.8927 0.1326
C89 C 0.01844(19) 0.8280(4) 0.1086(2)
H64 H 0.0008 0.8451 0.1018
C90 C 0.0232(2) 0.7739(4) 0.1004(2)
C91 C 0.0495(3) 0.7483(4) 0.1107(3)
H65 H 0.0527 0.7121 0.1052
C92 C 0.07108(19) 0.7768(5) 0.1292(3)
H66 H 0.0887 0.7597 0.1360
C93 C 0.2584(3) 0.6875(5) 0.4414(3)
C94 C 0.2682(3) 0.6500(6) 0.4624(3)
H67 H 0.2741 0.6150 0.4577
C95 C 0.2695(3) 0.6636(6) 0.4914(3)
H68 H 0.2758 0.6368 0.5053
C96 C 0.2616(3) 0.7159(5) 0.4997(3)
C97 C 0.2520(3) 0.7523(6) 0.4786(3)
H69 H 0.2459 0.7872 0.4834
C98 C 0.2509(3) 0.7397(6) 0.4494(3)
H70 H 0.2450 0.7668 0.4355
C99 C 0.2760(3) 0.7100(5) 0.5524(3)
C100 C 0.2855(3) 0.7182(6) 0.6050(3)
C101 C 0.3147(3) 0.7021(7) 0.6106(4)
H71 H 0.3258 0.7027 0.5966
C102 C 0.3256(4) 0.6851(7) 0.6384(4)
H72 H 0.3437 0.6687 0.6423
C103 C 0.3114(5) 0.6910(9) 0.6604(5)
H73 H 0.3202 0.6822 0.6791
C104 C 0.2837(4) 0.7105(7) 0.6536(4)
H74 H 0.2734 0.7134 0.6683
C105 C 0.2701(3) 0.7257(6) 0.6268(3)
C106 C 0.2198(3) 0.7427(6) 0.6347(3)
C107 C 0.1747(3) 0.7795(5) 0.6391(3)
C108 C 0.1713(4) 0.7595(7) 0.6653(4)
H75 H 0.1856 0.7358 0.6747
C109 C 0.1498(4) 0.7704(7) 0.6787(4)
H76 H 0.1498 0.7570 0.6970
C110 C 0.1277(3) 0.8027(6) 0.6641(3)
C111 C 0.1283(3) 0.8231(6) 0.6376(3)
H77 H 0.1135 0.8456 0.6280
C112 C 0.1501(3) 0.8104(5) 0.6256(3)
H78 H 0.1494 0.8225 0.6070
C113 C 0.2855(3) 0.5675(6) 0.3644(3)
C114 C 0.2722(3) 0.5288(6) 0.3460(3)
H79 H 0.2524 0.5321 0.3394
C115 C 0.2862(4) 0.4842(7) 0.3363(4)
H80 H 0.2762 0.4619 0.3217
C116 C 0.3141(3) 0.4726(5) 0.3477(3)
C117 C 0.3290(3) 0.5076(5) 0.3692(3)
H81 H 0.3483 0.5011 0.3773
C118 C 0.3140(3) 0.5528(6) 0.3783(3)
H82 H 0.3231 0.5737 0.3939
C119 C 0.3266(3) 0.4074(6) 0.3134(3)
C120 C 0.3479(2) 0.3387(5) 0.2856(3)
C121 C 0.3455(3) 0.3656(6) 0.2620(3)
H83 H 0.3400 0.4027 0.2613
C122 C 0.3510(3) 0.3398(7) 0.2374(3)
H84 H 0.3497 0.3611 0.2209
C123 C 0.3575(3) 0.2899(5) 0.2364(3)
H85 H 0.3597 0.2739 0.2192
C124 C 0.3616(3) 0.2589(6) 0.2609(3)
H86 H 0.3684 0.2226 0.2605
C125 C 0.3559(3) 0.2803(5) 0.2868(3)
C126 C 0.3542(2) 0.1948(5) 0.3130(2)
C127 C 0.3534(2) 0.1205(3) 0.3496(2)
C128 C 0.3549(2) 0.0752(4) 0.33183(15)
H87 H 0.3574 0.0809 0.3132
C129 C 0.3525(2) 0.0216(3) 0.34189(19)
H88 H 0.3535 -0.0087 0.3300
C130 C 0.3487(2) 0.0132(3) 0.3697(2)
C131 C 0.3473(2) 0.0584(4) 0.38742(16)
H89 H 0.3448 0.0528 0.4060
C132 C 0.3497(2) 0.1121(3) 0.37737(19)
H90 H 0.3487 0.1424 0.3892
N16 N 0.1745(2) 0.8253(5) 0.2708(2)
H91 H 0.1774 0.8154 0.2543
N17 N 0.1483(2) 0.8952(4) 0.2455(2)
H92 H 0.1518 0.8791 0.2305
N18 N 0.1112(2) 0.9115(5) 0.1947(2)
H93 H 0.1259 0.8905 0.1948
N19 N 0.0896(3) 0.8550(5) 0.1582(3)
H94 H 0.1064 0.8401 0.1602
N20 N 0.0008(3) 0.7366(7) 0.0814(3)
N21 N 0.2586(2) 0.7287(4) 0.5280(2)
H95 H 0.2446 0.7500 0.5298
N22 N 0.2722(2) 0.7364(5) 0.5755(2)
H96 H 0.2614 0.7656 0.5734
N23 N 0.2411(2) 0.7491(5) 0.6191(2)
H97 H 0.2370 0.7683 0.6037
N24 N 0.1958(2) 0.7700(4) 0.6254(2)
H98 H 0.1935 0.7831 0.6083
N25 N 0.1026(3) 0.8198(6) 0.6775(3)
N26 N 0.3279(2) 0.4257(4) 0.3404(2)
H99 H 0.3381 0.4068 0.3540
N27 N 0.3422(2) 0.3613(4) 0.3114(2)
H100 H 0.3493 0.3440 0.3270
N28 N 0.3596(2) 0.2522(4) 0.3117(2)
H101 H 0.3655 0.2700 0.3274
N29 N 0.3564(2) 0.1744(4) 0.3413(2)
H102 H 0.3600 0.1986 0.3548
N30 N 0.3464(3) -0.0433(7) 0.3811(4)
O13 O 0.1526(2) 0.8883(5) 0.2955(2)
O14 O 0.0637(2) 0.9246(5) 0.1751(2)
O15 O -0.0192(5) 0.7687(8) 0.0739(4)
O16 O 0.0047(3) 0.6925(6) 0.0791(3)
O17 O 0.2923(2) 0.6716(4) 0.5523(2)
O18 O 0.2226(3) 0.7088(5) 0.6561(3)
O19 O 0.1001(3) 0.7920(6) 0.6997(3)
O20 O 0.0852(3) 0.8523(5) 0.6665(3)
O21 O 0.3113(2) 0.4317(4) 0.2926(2)
O22 O 0.3472(2) 0.1648(4) 0.2924(2)
O23 O 0.3414(4) -0.0754(7) 0.3624(4)
O24 O 0.3518(4) -0.0479(7) 0.4070(4)
C133 C 0.6482(3) 0.9341(6) 0.2959(3)
C134 C 0.6572(3) 0.9758(6) 0.2814(3)
H103 H 0.6434 1.0000 0.2716
C135 C 0.6850(3) 0.9855(7) 0.2800(3)
C136 C 0.7062(3) 0.9493(6) 0.2948(3)
H104 H 0.7256 0.9565 0.2955
C137 C 0.6981(3) 0.9040(6) 0.3081(3)
C138 C 0.6691(3) 0.8976(5) 0.3101(3)
H105 H 0.6638 0.8688 0.3210
C139 C 0.6936(4) 1.0363(7) 0.2645(4)
C140 C 0.7199(5) 1.0598(9) 0.2735(5)
H106 H 0.7338 1.0419 0.2870
C141 C 0.7264(5) 1.1137(9) 0.2616(5)
H107 H 0.7432 1.1329 0.2691
C142 C 0.7082(4) 1.1327(8) 0.2408(4)
C143 C 0.6821(5) 1.1107(10) 0.2289(5)
H108 H 0.6698 1.1292 0.2143
C144 C 0.6739(6) 1.0582(11) 0.2394(6)
H109 H 0.6572 1.0396 0.2308
C145 C 0.7435(5) 1.1970(10) 0.2204(5)
C146 C 0.7651(2) 1.2636(5) 0.1946(3)
C147 C 0.7903(3) 1.2339(4) 0.1948(3)
H110 H 0.7918 1.1972 0.2010
C148 C 0.8132(2) 1.2590(5) 0.1857(3)
H111 H 0.8301 1.2391 0.1858
C149 C 0.8110(2) 1.3139(6) 0.1763(3)
H112 H 0.8264 1.3307 0.1702
C150 C 0.7859(3) 1.3436(4) 0.1761(3)
H113 H 0.7844 1.3803 0.1699
C151 C 0.7629(2) 1.3185(5) 0.1853(3)
C152 C 0.7382(3) 1.4036(6) 0.1957(3)
C153 C 0.7075(3) 1.4763(5) 0.2094(3)
C154 C 0.7283(4) 1.5060(7) 0.2282(3)
H114 H 0.7466 1.4912 0.2345
C155 C 0.7211(4) 1.5602(7) 0.2376(4)
H115 H 0.7347 1.5817 0.2496
C156 C 0.6938(3) 1.5787(6) 0.2285(3)
C157 C 0.6732(3) 1.5478(6) 0.2130(3)
H116 H 0.6544 1.5610 0.2089
C158 C 0.6791(4) 1.4989(7) 0.2034(4)
H117 H 0.6643 1.4784 0.1924
C159 C 0.7220(3) 0.8679(6) 0.3271(3)
C160 C 0.7169(3) 0.8397(5) 0.3499(3)
H118 H 0.6984 0.8399 0.3535
C161 C 0.7375(3) 0.8111(6) 0.3678(3)
H119 H 0.7330 0.7929 0.3835
C162 C 0.7661(3) 0.8082(5) 0.3631(3)
C163 C 0.7705(3) 0.8350(5) 0.3372(3)
H120 H 0.7882 0.8321 0.3316
C164 C 0.7491(3) 0.8639(6) 0.3213(3)
H121 H 0.7527 0.8825 0.3053
C165 C 0.7868(3) 0.7378(6) 0.3960(3)
C166 C 0.8169(2) 0.6701(4) 0.4293(2)
C167 C 0.79533(18) 0.6318(5) 0.4308(3)
H122 H 0.7766 0.6385 0.4210
C168 C 0.8017(3) 0.5837(5) 0.4470(3)
H123 H 0.7872 0.5582 0.4479
C169 C 0.8296(3) 0.5739(4) 0.4617(3)
H124 H 0.8339 0.5417 0.4725
C170 C 0.8512(2) 0.6121(5) 0.4602(3)
H125 H 0.8699 0.6055 0.4700
C171 C 0.8449(2) 0.6602(5) 0.4440(3)
C172 C 0.8848(4) 0.7169(7) 0.4656(4)
C173 C 0.9249(2) 0.7804(5) 0.4819(2)
C174 C 0.9358(3) 0.7565(4) 0.5084(3)
H126 H 0.9296 0.7215 0.5127
C175 C 0.9561(3) 0.7849(6) 0.5283(2)
H127 H 0.9634 0.7690 0.5460
C176 C 0.9654(3) 0.8373(6) 0.5218(3)
C177 C 0.9545(3) 0.8611(4) 0.4953(3)
H128 H 0.9607 0.8961 0.4910
C178 C 0.9342(3) 0.8327(5) 0.4754(2)
H129 H 0.9269 0.8486 0.4577
C179 C 0.6171(3) 0.9267(6) 0.2983(3)
C180 C 0.5977(3) 0.9706(6) 0.2918(3)
H130 H 0.6037 1.0034 0.2845
C181 C 0.5689(3) 0.9666(6) 0.2959(3)
H131 H 0.5559 0.9957 0.2914
C182 C 0.5613(3) 0.9166(6) 0.3072(3)
C183 C 0.5787(3) 0.8729(6) 0.3115(3)
H132 H 0.5720 0.8387 0.3164
C184 C 0.6078(3) 0.8789(6) 0.3083(3)
H133 H 0.6205 0.8496 0.3132
C185 C 0.5093(3) 0.9425(6) 0.3007(3)
C186 C 0.45494(19) 0.9359(5) 0.2979(2)
C187 C 0.4471(3) 0.9581(5) 0.2706(2)
H134 H 0.4607 0.9616 0.2591
C188 C 0.4189(3) 0.9751(6) 0.2603(2)
H135 H 0.4137 0.9899 0.2420
C189 C 0.3986(2) 0.9699(6) 0.2774(3)
H136 H 0.3797 0.9813 0.2705
C190 C 0.4064(2) 0.9477(6) 0.3047(3)
H137 H 0.3928 0.9442 0.3161
C191 C 0.4346(2) 0.9307(5) 0.3150(2)
C192 C 0.4291(3) 0.9011(6) 0.3617(3)
C193 C 0.4301(2) 0.8535(5) 0.40888(19)
C194 C 0.4008(2) 0.8579(4) 0.40813(19)
H138 H 0.3885 0.8706 0.3917
C195 C 0.38979(17) 0.8432(5) 0.4319(2)
H139 H 0.3701 0.8461 0.4314
C196 C 0.4081(2) 0.8242(5) 0.4565(2)
C197 C 0.4375(2) 0.8198(5) 0.45727(19)
H140 H 0.4498 0.8071 0.4737
C198 C 0.44848(16) 0.8345(5) 0.4334(2)
H141 H 0.4681 0.8316 0.4339
N31 N 0.7137(3) 1.1860(6) 0.2267(3)
H142 H 0.7002 1.2102 0.2222
N32 N 0.7411(3) 1.2422(6) 0.2058(3)
H143 H 0.7251 1.2601 0.2026
N33 N 0.7377(2) 1.3514(5) 0.1872(2)
H144 H 0.7212 1.3356 0.1825
N34 N 0.7120(3) 1.4238(5) 0.1997(2)
H145 H 0.6974 1.4019 0.1959
N35 N 0.6869(3) 1.6331(5) 0.2391(3)
N36 N 0.7883(2) 0.7831(5) 0.3796(2)
H146 H 0.8051 0.7968 0.3799
N37 N 0.8125(2) 0.7166(5) 0.4112(2)
H147 H 0.8277 0.7344 0.4094
N38 N 0.8669(3) 0.6998(5) 0.4427(3)
H148 H 0.8685 0.7129 0.4263
N39 N 0.9045(3) 0.7602(6) 0.4610(3)
H149 H 0.9030 0.7736 0.4441
N40 N 0.9884(5) 0.8713(11) 0.5451(6)
N41 N 0.5323(2) 0.9119(4) 0.3131(2)
H150 H 0.5297 0.8875 0.3255
N42 N 0.4840(2) 0.9176(5) 0.3078(2)
H151 H 0.4866 0.8892 0.3190
N43 N 0.4422(3) 0.8983(5) 0.3407(3)
H152 H 0.4564 0.8756 0.3421
N44 N 0.4425(3) 0.8693(5) 0.3862(3)
H153 H 0.4600 0.8591 0.3868
N45 N 0.3982(3) 0.8110(5) 0.4820(3)
O25 O 0.7627(3) 1.1720(6) 0.2318(3)
O26 O 0.7615(2) 1.4309(4) 0.2013(2)
O27 O 0.6628(3) 1.6507(5) 0.2350(3)
O28 O 0.7069(3) 1.6614(6) 0.2499(3)
O29 O 0.7625(2) 0.7160(4) 0.3988(2)
O30 O 0.8852(3) 0.6968(6) 0.4909(3)
O31 O 0.9918(5) 0.8407(10) 0.5674(5)
O32 O 0.9966(8) 0.9087(16) 0.5376(8)
O33 O 0.50794(19) 0.9798(4) 0.2853(2)
O34 O 0.4087(3) 0.9307(5) 0.3636(3)
O35 O 0.3713(3) 0.8124(5) 0.4804(2)
O36 O 0.4153(3) 0.8002(6) 0.5043(3)
K3 K 0.48503(14) 1.0733(2) 0.27310(14)
C199 C 0.7008(4) 0.8605(7) 0.2182(4)
C200 C 0.6730(4) 0.8648(8) 0.2303(4)
C201 C 0.6365(4) 0.8153(7) 0.2443(4)
C202 C 0.6302(4) 0.7682(7) 0.2600(4)
C203 C 0.6449(3) 0.7054(6) 0.2987(3)
C204 C 0.6674(4) 0.6958(7) 0.3261(4)
C205 C 0.7175(4) 0.6707(9) 0.3383(4)
C206 C 0.7421(4) 0.6495(8) 0.3251(4)
C207 C 0.7741(4) 0.6870(7) 0.2970(4)
C208 C 0.7858(3) 0.7350(6) 0.2862(3)
C209 C 0.7704(3) 0.8054(6) 0.2503(3)
C210 C 0.7483(4) 0.8249(7) 0.2265(4)
O37 O 0.7231(2) 0.8404(4) 0.2390(2)
O38 O 0.6648(2) 0.8120(4) 0.2384(2)
O39 O 0.6515(2) 0.7562(4) 0.2860(2)
O40 O 0.6945(2) 0.6823(4) 0.3158(2)
O41 O 0.7519(2) 0.6990(4) 0.3125(2)
O42 O 0.7618(2) 0.7560(4) 0.2642(2)
C211 C 0.3531(4) 0.7164(8) 0.5324(4)
C212 C 0.3512(4) 0.6658(7) 0.5129(4)
C213 C 0.3563(4) 0.6301(7) 0.4670(4)
C214 C 0.3652(4) 0.6540(8) 0.4429(4)
C215 C 0.3472(4) 0.7081(7) 0.4026(4)
C216 C 0.3204(5) 0.7377(10) 0.3869(5)
C217 C 0.2939(6) 0.8185(11) 0.3899(5)
C218 C 0.2912(5) 0.8683(9) 0.4070(5)
C219 C 0.2904(4) 0.9089(9) 0.4520(4)
C220 C 0.2882(5) 0.8942(9) 0.4837(5)
C221 C 0.3089(4) 0.8452(8) 0.5234(4)
C222 C 0.3330(5) 0.8061(9) 0.5355(5)
O43 O 0.3316(2) 0.7543(4) 0.5200(2)
O44 O 0.3551(2) 0.6817(5) 0.4869(2)
O45 O 0.3403(2) 0.6853(5) 0.4270(2)
O46 O 0.3175(3) 0.7875(6) 0.4042(3)
O47 O 0.2894(3) 0.8595(5) 0.4361(3)
O48 O 0.3113(3) 0.8580(5) 0.4940(3)
K4 K 0.71030(12) 0.7539(2) 0.28201(11)
K5 K 0.88112(17) 0.7659(3) 0.54157(16)
K6 K 0.77940(15) 1.5134(2) 0.17773(15)
K7 K 0.31939(8) 0.76518(15) 0.46133(8)
K8 K 0.70706(12) 0.7702(2) 0.27620(12)
K9 K 0.7791(2) 1.5283(3) 0.1752(2)
K10 K 0.48512(18) 1.0908(3) 0.27225(18)
C223 C 0.1764(3) 0.4358(6) 0.4328(3)
C224 C 0.1704(3) 0.4828(6) 0.4482(3)
H154 H 0.1516 0.4873 0.4508
C225 C 0.1909(3) 0.5239(6) 0.4602(3)
C226 C 0.2198(3) 0.5155(7) 0.4564(3)
H155 H 0.2339 0.5404 0.4650
C227 C 0.2275(3) 0.4741(7) 0.4413(3)
C228 C 0.2057(3) 0.4289(7) 0.4288(3)
H156 H 0.2111 0.3985 0.4191
C229 C 0.2570(3) 0.4640(6) 0.4359(3)
C230 C 0.2788(3) 0.4873(6) 0.4542(3)
H157 H 0.2749 0.5079 0.4694
C231 C 0.3075(3) 0.4818(5) 0.4512(3)
H158 H 0.3219 0.5042 0.4616
C232 C 0.3139(3) 0.4430(6) 0.4327(3)
C233 C 0.2908(3) 0.4255(6) 0.4095(3)
H159 H 0.2951 0.4086 0.3934
C234 C 0.2634(3) 0.4338(6) 0.4115(3)
H160 H 0.2485 0.4203 0.3975
C235 C 0.3665(3) 0.4603(6) 0.4385(3)
C236 C 0.4193(3) 0.4575(6) 0.4402(3)
C237 C 0.4264(3) 0.4929(6) 0.4629(3)
H161 H 0.4120 0.5045 0.4722
C238 C 0.4542(4) 0.5121(7) 0.4728(4)
H162 H 0.4584 0.5385 0.4872
C239 C 0.4750(4) 0.4902(7) 0.4601(4)
H163 H 0.4939 0.5012 0.4667
C240 C 0.4690(3) 0.4509(6) 0.4370(3)
H164 H 0.4838 0.4368 0.4289
C241 C 0.4409(3) 0.4347(6) 0.4272(3)
C242 C 0.4476(4) 0.3930(8) 0.3837(4)
C243 C 0.4480(3) 0.3378(5) 0.3413(2)
C244 C 0.4775(2) 0.3395(6) 0.3424(3)
H165 H 0.4897 0.3555 0.3580
C245 C 0.4887(2) 0.3172(6) 0.3201(3)
H166 H 0.5084 0.3183 0.3208
C246 C 0.4705(3) 0.2933(7) 0.2968(3)
C247 C 0.4410(3) 0.2917(6) 0.2957(2)
H167 H 0.4288 0.2757 0.2801
C248 C 0.4298(2) 0.3139(6) 0.3180(3)
H168 H 0.4100 0.3129 0.3173
C249 C 0.1829(3) 0.5704(5) 0.4761(3)
C250 C 0.1564(3) 0.5833(5) 0.4757(3)
H169 H 0.1421 0.5627 0.4641
C251 C 0.1479(3) 0.6272(5) 0.4922(3)
H170 H 0.1285 0.6321 0.4922
C252 C 0.1669(3) 0.6614(5) 0.5075(3)
C253 C 0.1963(4) 0.6481(7) 0.5092(3)
H171 H 0.2106 0.6697 0.5201
C254 C 0.2034(4) 0.6024(8) 0.4942(4)
H172 H 0.2227 0.5927 0.4964
C255 C 0.1367(3) 0.7179(6) 0.5305(3)
C256 C 0.1117(3) 0.7871(6) 0.5568(3)
C257 C 0.0902(3) 0.7501(6) 0.5629(3)
H173 H 0.0917 0.7120 0.5603
C258 C 0.0666(3) 0.7732(7) 0.5729(3)
H174 H 0.0528 0.7501 0.5780
C259 C 0.0643(3) 0.8307(6) 0.5751(3)
H175 H 0.0479 0.8464 0.5797
C260 C 0.0862(3) 0.8640(6) 0.5704(3)
H176 H 0.0855 0.9019 0.5740
C261 C 0.1094(2) 0.8425(5) 0.5606(2)
C262 C 0.1311(3) 0.9331(5) 0.5492(3)
C263 C 0.1606(2) 1.0101(5) 0.5379(3)
C264 C 0.1390(3) 1.0444(6) 0.5243(3)
H177 H 0.1200 1.0322 0.5203
C265 C 0.1458(4) 1.0962(7) 0.5170(4)
H178 H 0.1311 1.1189 0.5074
C266 C 0.1730(3) 1.1170(6) 0.5227(3)
C267 C 0.1935(3) 1.0807(6) 0.5318(3)
H179 H 0.2123 1.0908 0.5313
C268 C 0.1887(3) 1.0275(5) 0.5421(3)
H180 H 0.2038 1.0053 0.5514
C269 C 0.1553(3) 0.3968(5) 0.4191(3)
C270 C 0.1579(3) 0.3730(6) 0.3942(3)
H181 H 0.1736 0.3823 0.3861
C271 C 0.1368(3) 0.3326(6) 0.3794(3)
H182 H 0.1398 0.3138 0.3633
C272 C 0.1135(2) 0.3237(5) 0.3896(2)
C273 C 0.1108(3) 0.3502(6) 0.4163(3)
H183 H 0.0949 0.3420 0.4242
C274 C 0.1308(2) 0.3862(4) 0.4302(2)
H184 H 0.1282 0.4038 0.4468
C275 C 0.0945(3) 0.2468(6) 0.3595(3)
C276 C 0.0678(3) 0.1703(6) 0.3307(3)
C277 C 0.0892(3) 0.1340(6) 0.3333(3)
H185 H 0.1056 0.1388 0.3475
C278 C 0.0874(4) 0.0880(7) 0.3146(3)
H186 H 0.1015 0.0606 0.3168
C279 C 0.0647(3) 0.0865(7) 0.2940(3)
H187 H 0.0641 0.0592 0.2800
C280 C 0.0441(4) 0.1187(7) 0.2917(4)
H188 H 0.0278 0.1112 0.2777
C281 C 0.0439(3) 0.1664(6) 0.3091(3)
C282 C 0.0014(5) 0.2214(9) 0.2842(5)
C283 C -0.0411(3) 0.2812(6) 0.2666(3)
C284 C -0.0409(3) 0.2741(7) 0.2378(3)
H189 H -0.0255 0.2563 0.2323
C285 C -0.0637(4) 0.2937(7) 0.2171(2)
H190 H -0.0635 0.2890 0.1978
C286 C -0.0867(3) 0.3203(7) 0.2254(3)
C287 C -0.0870(3) 0.3273(6) 0.2542(3)
H191 H -0.1024 0.3451 0.2597
C288 C -0.0642(3) 0.3078(6) 0.2748(2)
H192 H -0.0643 0.3125 0.2941
N46 N 0.3419(2) 0.4290(4) 0.4274(2)
H193 H 0.3435 0.4004 0.4170
N47 N 0.3906(2) 0.4369(4) 0.4312(2)
H194 H 0.3881 0.4078 0.4205
N48 N 0.4328(2) 0.3976(5) 0.4044(2)
H195 H 0.4179 0.3771 0.4038
N49 N 0.4345(3) 0.3560(6) 0.3616(3)
H196 H 0.4173 0.3448 0.3613
N50 N 0.4821(6) 0.2721(10) 0.2711(5)
N51 N 0.1609(2) 0.7076(4) 0.52372(19)
H197 H 0.1747 0.7306 0.5295
N52 N 0.1361(2) 0.7636(4) 0.5473(2)
H198 H 0.1523 0.7804 0.5529
N53 N 0.1326(2) 0.8771(4) 0.5561(2)
H199 H 0.1492 0.8616 0.5578
N54 N 0.1565(2) 0.9545(4) 0.5466(2)
H200 H 0.1713 0.9333 0.5503
N55 N 0.1795(4) 1.1688(7) 0.5115(3)
N56 N 0.0897(2) 0.2891(4) 0.3754(2)
H201 H 0.0725 0.2963 0.3774
N57 N 0.0699(2) 0.2186(5) 0.3484(2)
H202 H 0.0542 0.2310 0.3524
N58 N 0.0205(2) 0.2042(5) 0.3068(3)
H203 H 0.0183 0.2183 0.3228
N59 N -0.0182(3) 0.2580(5) 0.2855(3)
H204 H -0.0166 0.2714 0.3024
N60 N -0.1137(7) 0.3478(13) 0.1994(7)
O49 O 0.3650(2) 0.5057(4) 0.4481(2)
O50 O 0.4686(3) 0.4237(5) 0.3793(3)
O51 O 0.5088(4) 0.2762(7) 0.2735(3)
O52 O 0.4649(5) 0.2484(9) 0.2521(5)
O53 O 0.1143(3) 0.6863(5) 0.5230(3)
O54 O 0.10702(19) 0.9577(4) 0.54502(19)
O55 O 0.1598(3) 1.2072(5) 0.5071(3)
O56 O 0.2051(3) 1.1840(5) 0.5124(3)
O57 O 0.1184(2) 0.2297(4) 0.3559(2)
O58 O 0.0016(3) 0.1950(6) 0.2595(3)
O59 O -0.1069(7) 0.3482(14) 0.1795(8)
O60 O -0.1226(6) 0.3776(11) 0.2146(6)
K11 K 0.0908(2) 1.0512(4) 0.5707(3)
C289 C 0.5261(6) 0.4516(13) 0.2756(6)
C290 C 0.4915(10) 0.4385(17) 0.2804(10)
C291 C 0.4449(10) 0.4328(17) 0.2637(9)
C292 C 0.4230(9) 0.4179(19) 0.2312(9)
C293 C 0.4137(14) 0.345(3) 0.1971(14)
C294 C 0.4260(10) 0.287(2) 0.1977(9)
C295 C 0.4632(8) 0.2349(16) 0.1831(8)
C296 C 0.4958(5) 0.2393(10) 0.1762(5)
C297 C 0.5428(5) 0.2601(9) 0.1936(5)
C298 C 0.5630(6) 0.2836(12) 0.2213(6)
C299 C 0.5743(5) 0.3566(10) 0.2522(5)
C300 C 0.5662(6) 0.4132(11) 0.2597(5)
O61 O 0.4749(5) 0.4355(10) 0.2560(5)
O62 O 0.4338(6) 0.3668(12) 0.2253(6)
O63 O 0.4540(4) 0.2903(8) 0.1881(4)
O64 O 0.5168(4) 0.2574(7) 0.1984(4)
O65 O 0.5541(3) 0.3355(6) 0.2271(3)
O66 O 0.5366(4) 0.4071(9) 0.2698(4)
K12 K 0.16193(12) 0.2881(2) 0.46894(12)
K13 K 0.50249(19) 0.3423(4) 0.23137(19)
K14 K 0.0876(2) 1.0405(3) 0.5708(2)
K15 K 0.48918(13) 0.1361(3) 0.44414(13)
K16 K 0.2107(3) 0.5137(5) 0.6269(2)
K17 K 0.88686(18) 0.1361(4) 0.32062(19)
K18 K 0.8950(6) 0.1233(11) 0.3014(6)
O67 O 0.01769(17) 0.2450(3) 0.36192(17)
O68 O 0.03514(15) 0.3463(3) 0.36305(15)
O69 O -0.00423(16) 0.3185(3) 0.38916(17)
O70 O -0.01464(17) 0.3208(3) 0.33463(17)
P1 P 0.00864(7) 0.30793(13) 0.36252(7)
O71 O 0.35972(17) 0.2479(3) 0.38838(17)
O72 O 0.38012(15) 0.3169(3) 0.35900(15)
O73 O 0.39115(16) 0.3258(3) 0.41264(17)
O74 O 0.34068(16) 0.3467(3) 0.38447(16)
P2 P 0.36774(7) 0.30919(13) 0.38584(7)
O75 O 0.18444(16) 0.8177(3) 0.57100(16)
O76 O 0.20748(16) 0.7946(3) 0.52889(16)
O77 O 0.20548(15) 0.8945(3) 0.54517(15)
O78 O 0.23786(15) 0.8273(3) 0.57571(15)
P3 P 0.20891(6) 0.83374(12) 0.55489(6)
O79 O 0.13555(17) 0.7807(3) 0.16875(17)
O80 O 0.1882(2) 0.7857(4) 0.1729(2)
O81 O 0.16360(17) 0.8571(3) 0.19368(17)
O82 O 0.16689(18) 0.7628(4) 0.21679(18)
P4 P 0.16394(8) 0.79700(15) 0.18844(8)
C301 C 0.1839(18) 0.546(2) 0.3550(6)
H205 H 0.2006 0.5367 0.3470
H206 H 0.1717 0.5709 0.3421
Cl1 Cl 0.1949(5) 0.5771(8) 0.3896(5)
Cl2 Cl 0.1645(7) 0.4837(12) 0.3600(7)
C302? C 0.4962(8) 0.0049(15) 0.4799(7)
C303? C 0.4840(13) -0.015(2) 0.4353(12)
C304? C 0.4333(9) 0.0236(17) 0.4095(9)
C305? C 0.4259(5) 0.0811(10) 0.4003(5)
C306? C 0.4249(5) 0.1745(10) 0.4017(5)
C307? C 0.4406(6) 0.2250(11) 0.4011(5)
C308? C 0.4779(8) 0.2663(15) 0.4287(8)
C309? C 0.4982(9) 0.2792(17) 0.4539(9)
C310? C 0.5367(7) 0.2381(15) 0.4930(7)
C311? C 0.5456(8) 0.1867(18) 0.4937(8)
C312? C 0.5555(12) 0.099(2) 0.4925(10)
C313? C 0.5358(8) 0.0551(15) 0.4963(8)
O83? O 0.5212(7) 0.0395(12) 0.4696(7)
O84? O 0.4581(7) 0.0293(13) 0.4337(7)
O85? O 0.4387(3) 0.1249(7) 0.4009(3)
O86? O 0.4614(4) 0.2280(8) 0.4262(4)
O87? O 0.5166(5) 0.2260(9) 0.4627(4)
O88? O 0.5370(6) 0.1321(12) 0.4931(5)
C314? C 0.1239(17) -0.077(3) 0.3560(17)
C315? C 0.1006(12) -0.120(2) 0.3349(12)
C316? C 0.0784(6) -0.2012(12) 0.3432(6)
C317? C 0.0738(6) -0.2428(12) 0.3622(6)
C318? C 0.0561(8) -0.2648(14) 0.4017(8)
C319? C 0.0798(6) -0.2679(12) 0.4242(6)
C320? C 0.1101(6) -0.2260(11) 0.4646(6)
C321? C 0.1169(6) -0.1719(12) 0.4790(6)
C322? C 0.1311(5) -0.0781(9) 0.4750(5)
C323? C 0.1391(8) -0.0474(15) 0.4529(8)
C324? C 0.1379(9) -0.0041(17) 0.4074(9)
C325? C 0.1217(10) -0.028(2) 0.3816(11)
O89? O 0.0962(4) -0.1596(9) 0.3557(4)
O90? O 0.0595(4) -0.2192(8) 0.3819(4)
O91? O 0.0837(4) -0.2229(8) 0.4400(4)
O92? O 0.1241(5) -0.1286(9) 0.4615(5)
O93? O 0.1177(7) -0.0302(13) 0.4360(7)
C326? C 0.0994(7) 0.1775(13) 0.4407(7)
C327? C 0.0979(6) 0.2129(14) 0.4575(7)
C328? C 0.0996(7) 0.2953(16) 0.4908(8)
C329? C 0.1148(7) 0.3300(14) 0.5123(7)
C330? C 0.2202(5) 0.3757(10) 0.4985(5)
C331? C 0.2349(7) 0.3215(13) 0.4870(7)
C332? C 0.2291(6) 0.2490(12) 0.4493(6)
C333? C 0.2087(6) 0.2235(10) 0.4255(5)
C334? C 0.1670(5) 0.1804(10) 0.4107(5)
C335? C 0.1374(6) 0.1612(11) 0.4212(6)
O94? O 0.1257(5) 0.2029(9) 0.4333(4)
O95? O 0.0998(5) 0.2520(12) 0.4735(6)
O96? O 0.1409(6) 0.3574(11) 0.5091(5)
O97? O 0.1985(5) 0.3463(10) 0.5059(5)
O98? O 0.2195(3) 0.2975(7) 0.4646(3)
O99? O 0.1867(4) 0.2037(7) 0.4347(3)
C336? C 0.0639(4) 0.9689(8) 0.6292(4)
C337? C 0.0347(5) 0.9672(10) 0.5988(5)
C338? C 0.0127(4) 1.0187(9) 0.5644(4)
C339? C 0.0235(12) 1.056(2) 0.5541(12)
C340? C 0.0333(7) 1.1296(14) 0.5251(7)
C341? C 0.0578(6) 1.1495(11) 0.5215(6)
C342? C 0.0883(5) 1.1903(9) 0.5576(5)
C343? C 0.1181(5) 1.1784(9) 0.5749(5)
C344? C 0.1503(4) 1.1229(9) 0.6074(4)
C345? C 0.1489(4) 1.0725(9) 0.6247(4)
C346? C 0.1391(4) 0.9757(8) 0.6225(4)
C347? C 0.1120(3) 0.9782(6) 0.6385(3)
O100? O 0.0881(3) 0.9745(5) 0.6163(3)
O101? O 0.0353(3) 1.0185(6) 0.5872(3)
O102? O 0.0343(5) 1.0689(9) 0.5348(5)
O103? O 0.0825(3) 1.1411(5) 0.5387(3)
O104? O 0.1211(3) 1.1348(5) 0.5918(3)
O105? O 0.1407(2) 1.0273(5) 0.6075(2)
C348? C 0.5036(8) 1.0750(15) 0.2098(7)
C349? C 0.5320(6) 1.1009(11) 0.2243(6)
C350? C 0.5488(5) 1.1549(10) 0.2665(5)
C351? C 0.5144(7) 1.1617(13) 0.3389(6)
C352? C 0.4805(8) 1.1620(15) 0.3320(7)
O106? O 0.4789(4) 1.1050(8) 0.3284(4)
O107? O 0.5354(4) 1.1048(7) 0.2568(4)
O108? O 0.5135(5) 1.1696(9) 0.3020(5)
C353? C 0.5405(7) 1.1590(12) 0.3017(6)
C354? C 0.8599(12) 1.559(2) 0.2059(11)
C355? C 0.8314(6) 1.5723(12) 0.2379(6)
C356? C 0.8200(9) 1.6250(17) 0.2287(9)
C357? C 0.7710(5) 1.6626(9) 0.2028(5)
C358? C 0.7445(8) 1.6497(16) 0.1848(8)
O109? O 0.7494(4) 1.6175(9) 0.1686(4)
O110? O 0.7931(5) 1.6112(8) 0.2130(4)
O111? O 0.8315(5) 1.5387(10) 0.2153(5)
C359? C 0.7661(5) 1.4655(9) 0.1082(5)
C360? C 0.8066(4) 1.4482(7) 0.1180(4)
C361? C 0.8294(6) 1.4562(13) 0.1476(6)
C362? C 0.8552(6) 1.4913(11) 0.1878(6)
O112? O 0.8355(5) 1.4903(9) 0.1610(5)
O113? O 0.7770(6) 1.4484(12) 0.1278(6)
C363? C 0.7286(4) 1.4526(8) 0.1186(4)
C364? C 0.7174(4) 1.5966(7) 0.1387(4)
C365? C 0.7165(6) 1.5227(12) 0.1132(7)
O114? O 0.7262(4) 1.5331(8) 0.1374(5)
C366? C 0.8246(11) 0.2518(19) 0.3099(10)
C367? C 0.8654(10) 0.278(2) 0.3178(10)
C368? C 0.8915(8) 0.2781(15) 0.3418(8)
C369? C 0.9388(7) 0.2268(14) 0.3545(8)
C370? C 0.9415(9) 0.2069(19) 0.3798(10)
C371? C 0.9356(12) 0.097(2) 0.3925(12)
C372? C 0.9246(10) 0.0388(18) 0.3747(10)
C373? C 0.9075(10) -0.015(2) 0.3341(10)
O115? O 0.9147(6) 0.0407(13) 0.3482(7)
O116? O 0.9351(7) 0.1447(14) 0.3682(7)
O117? O 0.9087(5) 0.2354(9) 0.3367(5)
O118? O 0.8522(7) 0.2196(13) 0.3225(6)
C374? C 0.8291(8) 0.0590(15) 0.2829(7)
C375? C 0.8088(11) 0.174(2) 0.3012(10)
C376? C 0.8834(11) -0.002(2) 0.2996(10)
O119? O 0.8574(9) 0.0353(15) 0.2979(7)
O120? O 0.8287(6) 0.1304(11) 0.2928(5)
C377? C 0.9121(8) 0.9029(16) 0.5612(8)
C378? C 0.8928(7) 0.9187(14) 0.5261(7)
C379? C 0.8597(9) 0.8693(16) 0.4960(8)
C380? C 0.8333(12) 0.853(2) 0.4958(11)
O121? O 0.8733(5) 0.8761(9) 0.5251(5)
O122? O 0.8347(5) 0.7988(12) 0.4952(5)
C381? C 0.8380(8) 0.6434(16) 0.5376(8)
C382? C 0.8443(10) 0.6425(18) 0.5696(10)
O123? O 0.8311(5) 0.6988(9) 0.5327(4)
O124? O 0.8796(11) 0.6675(19) 0.5748(10)
C383? C 0.5722(12) 0.833(2) 0.1433(13)
C384? C 0.5744(11) 0.837(2) 0.1730(12)
C385? C 0.5983(10) 0.9825(18) 0.2120(9)
O125? O 0.5877(5) 0.8994(10) 0.1821(5)
C386? C 0.5769(10) 0.936(2) 0.2071(10)
C387? C 0.4391(3) 1.1018(7) 0.3249(3)
C388? C 0.4298(6) 1.1284(12) 0.2973(7)
O126? O 0.4330(6) 1.1273(11) 0.2748(6)
C389? C 0.4246(11) 0.558(2) 0.5472(11)
C390? C 0.4332(8) 0.6140(15) 0.5375(8)
C391? C 0.4417(7) 0.6695(14) 0.4966(7)
C392? C 0.4446(7) 0.6653(14) 0.4651(8)
O127? O 0.4401(4) 0.6155(8) 0.5096(4)
C393? C 0.2367(8) 0.5995(15) 0.5784(8)
C394? C 0.1866(11) 0.632(2) 0.5808(11)
C395? C 0.1792(7) 0.6287(13) 0.6069(7)
O128? O 0.1644(9) 0.5860(18) 0.6203(9)
O129? O 0.2153(6) 0.6106(11) 0.5984(6)
C396? C 0.2503(10) 0.374(2) 0.6283(10)
C397? C 0.2640(11) 0.438(2) 0.6069(12)
O130? O 0.2596(8) 0.4280(17) 0.6350(9)
C398? C 0.1751(12) 0.434(2) 0.6610(12)
O131? O 0.1706(7) 0.4811(14) 0.6583(6)
C399? C 0.9270(13) 0.690(2) 0.6005(12)
O132? O 0.9138(6) 0.7598(11) 0.5965(6)
K19? K 0.15857(14) 0.2675(3) 0.46113(14)
K20? K 0.49283(17) 0.3604(3) 0.22024(17)
K21? K 0.48060(18) 0.1045(4) 0.45214(18)
O133? O 0.5095(4) 0.4366(7) 0.1928(4)
C400? C 0.1761(8) 0.3889(15) 0.5247(7)
O134? O 0.2144(7) 0.3964(14) 0.6497(7)
O135? O 0.2561(8) 0.5382(16) 0.6040(8)
O136? O 0.0291(18) 0.328(3) 0.2341(17)
O137? O 0.0112(8) 0.0791(16) 0.2035(8)
loop_
_geom_bond_atom_site_label_1
_geom_bond_atom_site_label_2
_geom_bond_site_symmetry_1
_geom_bond_site_symmetry_2
O1 N15 1_555 1_555
C1 H1 1_555 1_555
C2 C1 1_555 1_555
C3 C2 1_555 1_555
H2 C3 1_555 1_555
C4 C3 1_555 1_555
C5 C4 1_555 1_555
H3 C5 1_555 1_555
C6 C1 1_555 1_555
C7 C2 1_555 1_555
C8 C7 1_555 1_555
H4 C8 1_555 1_555
C9 C8 1_555 1_555
H5 C9 1_555 1_555
C10 C9 1_555 1_555
C11 C10 1_555 1_555
H6 C11 1_555 1_555
C12 C7 1_555 1_555
H7 C12 1_555 1_555
C13 N1 1_555 1_555
C14 C15 1_555 1_555
C15 H8 1_555 1_555
C16 C15 1_555 1_555
H9 C16 1_555 1_555
C17 C16 1_555 1_555
H10 C17 1_555 1_555
C18 C17 1_555 1_555
H11 C18 1_555 1_555
C19 C14 1_555 1_555
C20 N3 1_555 1_555
C21 C22 1_555 1_555
C22 H12 1_555 1_555
C23 C22 1_555 1_555
H13 C23 1_555 1_555
C24 C23 1_555 1_555
C25 C24 1_555 1_555
H14 C25 1_555 1_555
C26 C21 1_555 1_555
H15 C26 1_555 1_555
C27 C4 1_555 1_555
C28 C27 1_555 1_555
H16 C28 1_555 1_555
C29 C28 1_555 1_555
H17 C29 1_555 1_555
C30 C29 1_555 1_555
C31 C30 1_555 1_555
H18 C31 1_555 1_555
C32 C27 1_555 1_555
H19 C32 1_555 1_555
C33 N6 1_555 1_555
C34 C35 1_555 1_555
C35 H20 1_555 1_555
C36 C35 1_555 1_555
H21 C36 1_555 1_555
C37 C36 1_555 1_555
H22 C37 1_555 1_555
C38 C37 1_555 1_555
H23 C38 1_555 1_555
C39 C34 1_555 1_555
C40 N8 1_555 1_555
C41 C42 1_555 1_555
C42 H24 1_555 1_555
C43 C42 1_555 1_555
H25 C43 1_555 1_555
C44 C43 1_555 1_555
C45 C44 1_555 1_555
H26 C45 1_555 1_555
C46 C41 1_555 1_555
H27 C46 1_555 1_555
C47 C6 1_555 1_555
C48 C47 1_555 1_555
H28 C48 1_555 1_555
C49 C48 1_555 1_555
H29 C49 1_555 1_555
C50 C49 1_555 1_555
C51 C50 1_555 1_555
H30 C51 1_555 1_555
C52 C47 1_555 1_555
H31 C52 1_555 1_555
C53 N11 1_555 1_555
C54 C55 1_555 1_555
C55 H32 1_555 1_555
C56 C55 1_555 1_555
H33 C56 1_555 1_555
C57 C56 1_555 1_555
H34 C57 1_555 1_555
C58 C57 1_555 1_555
H35 C58 1_555 1_555
C59 C54 1_555 1_555
C60 N13 1_555 1_555
C61 C62 1_555 1_555
C62 H36 1_555 1_555
C63 C62 1_555 1_555
H37 C63 1_555 1_555
C64 C63 1_555 1_555
C65 C64 1_555 1_555
H38 C65 1_555 1_555
C66 C61 1_555 1_555
H39 C66 1_555 1_555
N1 C10 1_555 1_555
H40 N1 1_555 1_555
N2 C13 1_555 1_555
H41 N2 1_555 1_555
N3 C19 1_555 1_555
H42 N3 1_555 1_555
N4 C20 1_555 1_555
H43 N4 1_555 1_555
N5 C24 1_555 1_555
N6 C30 1_555 1_555
H44 N6 1_555 1_555
N7 C33 1_555 1_555
H45 N7 1_555 1_555
N8 C39 1_555 1_555
H46 N8 1_555 1_555
N9 C40 1_555 1_555
H47 N9 1_555 1_555
N10 C44 1_555 1_555
N11 C50 1_555 1_555
H48 N11 1_555 1_555
N12 C53 1_555 1_555
H49 N12 1_555 1_555
N13 C59 1_555 1_555
H50 N13 1_555 1_555
N14 C60 1_555 1_555
H51 N14 1_555 1_555
N15 C64 1_555 1_555
O2 C13 1_555 1_555
O3 C20 1_555 1_555
O4 N5 1_555 1_555
O5 N5 1_555 1_555
O6 C33 1_555 1_555
O7 C40 1_555 1_555
O8 N10 1_555 1_555
O9 N10 1_555 1_555
O10 C53 1_555 1_555
O11 C60 1_555 1_555
O12 N15 1_555 1_555
C67 C68 1_555 1_555
C68 H52 1_555 1_555
C69 C68 1_555 1_555
C70 C69 1_555 1_555
H53 C70 1_555 1_555
C71 C70 1_555 1_555
C72 C67 1_555 1_555
H54 C72 1_555 1_555
C73 C69 1_555 1_555
C74 C73 1_555 1_555
H55 C74 1_555 1_555
C75 C74 1_555 1_555
H56 C75 1_555 1_555
C76 C75 1_555 1_555
C77 C76 1_555 1_555
H57 C77 1_555 1_555
C78 C73 1_555 1_555
H58 C78 1_555 1_555
C79 N16 1_555 1_555
C80 C81 1_555 1_555
C81 H59 1_555 1_555
C82 C81 1_555 1_555
H60 C82 1_555 1_555
C83 C82 1_555 1_555
H61 C83 1_555 1_555
C84 C83 1_555 1_555
H62 C84 1_555 1_555
C85 C80 1_555 1_555
C86 N18 1_555 1_555
C87 C88 1_555 1_555
C88 H63 1_555 1_555
C89 C88 1_555 1_555
H64 C89 1_555 1_555
C90 C89 1_555 1_555
C91 C90 1_555 1_555
H65 C91 1_555 1_555
C92 C87 1_555 1_555
H66 C92 1_555 1_555
C93 C71 1_555 1_555
C94 C93 1_555 1_555
H67 C94 1_555 1_555
C95 C94 1_555 1_555
H68 C95 1_555 1_555
C96 C95 1_555 1_555
C97 C96 1_555 1_555
H69 C97 1_555 1_555
C98 C93 1_555 1_555
H70 C98 1_555 1_555
C99 N21 1_555 1_555
C100 C101 1_555 1_555
C101 H71 1_555 1_555
C102 C101 1_555 1_555
H72 C102 1_555 1_555
C103 C102 1_555 1_555
H73 C103 1_555 1_555
C104 C103 1_555 1_555
H74 C104 1_555 1_555
C105 C100 1_555 1_555
C106 N23 1_555 1_555
C107 C108 1_555 1_555
C108 H75 1_555 1_555
C109 C108 1_555 1_555
H76 C109 1_555 1_555
C110 C109 1_555 1_555
C111 C110 1_555 1_555
H77 C111 1_555 1_555
C112 C107 1_555 1_555
H78 C112 1_555 1_555
C113 C67 1_555 1_555
C114 C113 1_555 1_555
H79 C114 1_555 1_555
C115 C114 1_555 1_555
H80 C115 1_555 1_555
C116 C115 1_555 1_555
C117 C116 1_555 1_555
H81 C117 1_555 1_555
C118 C113 1_555 1_555
H82 C118 1_555 1_555
C119 N26 1_555 1_555
C120 C121 1_555 1_555
C121 H83 1_555 1_555
C122 C121 1_555 1_555
H84 C122 1_555 1_555
C123 C122 1_555 1_555
H85 C123 1_555 1_555
C124 C123 1_555 1_555
H86 C124 1_555 1_555
C125 C120 1_555 1_555
C126 N28 1_555 1_555
C127 C128 1_555 1_555
C128 H87 1_555 1_555
C129 C128 1_555 1_555
H88 C129 1_555 1_555
C130 C129 1_555 1_555
C131 C130 1_555 1_555
H89 C131 1_555 1_555
C132 C127 1_555 1_555
H90 C132 1_555 1_555
N16 C76 1_555 1_555
H91 N16 1_555 1_555
N17 C79 1_555 1_555
H92 N17 1_555 1_555
N18 C85 1_555 1_555
H93 N18 1_555 1_555
N19 C86 1_555 1_555
H94 N19 1_555 1_555
N20 C90 1_555 1_555
N21 C96 1_555 1_555
H95 N21 1_555 1_555
N22 C99 1_555 1_555
H96 N22 1_555 1_555
N23 C105 1_555 1_555
H97 N23 1_555 1_555
N24 C106 1_555 1_555
H98 N24 1_555 1_555
N25 C110 1_555 1_555
N26 C116 1_555 1_555
H99 N26 1_555 1_555
N27 C119 1_555 1_555
H100 N27 1_555 1_555
N28 C125 1_555 1_555
H101 N28 1_555 1_555
N29 C126 1_555 1_555
H102 N29 1_555 1_555
N30 C130 1_555 1_555
O13 C79 1_555 1_555
O14 C86 1_555 1_555
O15 N20 1_555 1_555
O16 N20 1_555 1_555
O17 C99 1_555 1_555
O18 C106 1_555 1_555
O19 N25 1_555 1_555
O20 N25 1_555 1_555
O21 C119 1_555 1_555
O22 C126 1_555 1_555
O23 N30 1_555 1_555
O24 N30 1_555 1_555
C133 C134 1_555 1_555
C134 H103 1_555 1_555
C135 C134 1_555 1_555
C136 C135 1_555 1_555
H104 C136 1_555 1_555
C137 C136 1_555 1_555
C138 C133 1_555 1_555
H105 C138 1_555 1_555
C139 C135 1_555 1_555
C140 C139 1_555 1_555
H106 C140 1_555 1_555
C141 C140 1_555 1_555
H107 C141 1_555 1_555
C142 C141 1_555 1_555
C143 C142 1_555 1_555
H108 C143 1_555 1_555
C144 C139 1_555 1_555
H109 C144 1_555 1_555
C145 N31 1_555 1_555
C146 C147 1_555 1_555
C147 H110 1_555 1_555
C148 C147 1_555 1_555
H111 C148 1_555 1_555
C149 C148 1_555 1_555
H112 C149 1_555 1_555
C150 C149 1_555 1_555
H113 C150 1_555 1_555
C151 C146 1_555 1_555
C152 N33 1_555 1_555
C153 C154 1_555 1_555
C154 H114 1_555 1_555
C155 C154 1_555 1_555
H115 C155 1_555 1_555
C156 C155 1_555 1_555
C157 C156 1_555 1_555
H116 C157 1_555 1_555
C158 C153 1_555 1_555
H117 C158 1_555 1_555
C159 C137 1_555 1_555
C160 C159 1_555 1_555
H118 C160 1_555 1_555
C161 C160 1_555 1_555
H119 C161 1_555 1_555
C162 C161 1_555 1_555
C163 C162 1_555 1_555
H120 C163 1_555 1_555
C164 C159 1_555 1_555
H121 C164 1_555 1_555
C165 N36 1_555 1_555
C166 C167 1_555 1_555
C167 H122 1_555 1_555
C168 C167 1_555 1_555
H123 C168 1_555 1_555
C169 C168 1_555 1_555
H124 C169 1_555 1_555
C170 C169 1_555 1_555
H125 C170 1_555 1_555
C171 C166 1_555 1_555
C172 N38 1_555 1_555
C173 C174 1_555 1_555
C174 H126 1_555 1_555
C175 C174 1_555 1_555
H127 C175 1_555 1_555
C176 C175 1_555 1_555
C177 C176 1_555 1_555
H128 C177 1_555 1_555
C178 C173 1_555 1_555
H129 C178 1_555 1_555
C179 C133 1_555 1_555
C180 C179 1_555 1_555
H130 C180 1_555 1_555
C181 C180 1_555 1_555
H131 C181 1_555 1_555
C182 C181 1_555 1_555
C183 C182 1_555 1_555
H132 C183 1_555 1_555
C184 C179 1_555 1_555
H133 C184 1_555 1_555
C185 N41 1_555 1_555
C186 C187 1_555 1_555
C187 H134 1_555 1_555
C188 C187 1_555 1_555
H135 C188 1_555 1_555
C189 C188 1_555 1_555
H136 C189 1_555 1_555
C190 C189 1_555 1_555
H137 C190 1_555 1_555
C191 C186 1_555 1_555
C192 N43 1_555 1_555
C193 C194 1_555 1_555
C194 H138 1_555 1_555
C195 C194 1_555 1_555
H139 C195 1_555 1_555
C196 C195 1_555 1_555
C197 C196 1_555 1_555
H140 C197 1_555 1_555
C198 C193 1_555 1_555
H141 C198 1_555 1_555
N31 C142 1_555 1_555
H142 N31 1_555 1_555
N32 C145 1_555 1_555
H143 N32 1_555 1_555
N33 C151 1_555 1_555
H144 N33 1_555 1_555
N34 C152 1_555 1_555
H145 N34 1_555 1_555
N35 C156 1_555 1_555
N36 C162 1_555 1_555
H146 N36 1_555 1_555
N37 C165 1_555 1_555
H147 N37 1_555 1_555
N38 C171 1_555 1_555
H148 N38 1_555 1_555
N39 C172 1_555 1_555
H149 N39 1_555 1_555
N40 C176 1_555 1_555
N41 C182 1_555 1_555
H150 N41 1_555 1_555
N42 C185 1_555 1_555
H151 N42 1_555 1_555
N43 C191 1_555 1_555
H152 N43 1_555 1_555
N44 C192 1_555 1_555
H153 N44 1_555 1_555
N45 C196 1_555 1_555
O25 C145 1_555 1_555
O26 C152 1_555 1_555
O27 N35 1_555 1_555
O28 N35 1_555 1_555
O29 C165 1_555 1_555
O30 C172 1_555 1_555
O31 N40 1_555 1_555
O32 N40 1_555 1_555
O33 C185 1_555 1_555
O34 C192 1_555 1_555
O35 N45 1_555 1_555
O36 N45 1_555 1_555
C199 C200 1_555 1_555
C200 O38 1_555 1_555
C201 C202 1_555 1_555
C202 O39 1_555 1_555
C203 C204 1_555 1_555
C204 O40 1_555 1_555
C205 C206 1_555 1_555
C206 O41 1_555 1_555
C207 C208 1_555 1_555
C208 O42 1_555 1_555
C209 C210 1_555 1_555
C210 O37 1_555 1_555
O37 C199 1_555 1_555
O38 C201 1_555 1_555
O39 C203 1_555 1_555
O40 C205 1_555 1_555
O41 C207 1_555 1_555
O42 C209 1_555 1_555
C211 C212 1_555 1_555
C212 O44 1_555 1_555
C213 C214 1_555 1_555
C214 O45 1_555 1_555
C215 C216 1_555 1_555
C216 O46 1_555 1_555
C217 C218 1_555 1_555
C218 O47 1_555 1_555
C219 C220 1_555 1_555
C220 O48 1_555 1_555
C221 C222 1_555 1_555
C222 O43 1_555 1_555
O43 C211 1_555 1_555
O44 C213 1_555 1_555
O45 C215 1_555 1_555
O46 C217 1_555 1_555
O47 C219 1_555 1_555
O48 C221 1_555 1_555
C223 C224 1_555 1_555
C224 H154 1_555 1_555
C225 C224 1_555 1_555
C226 C225 1_555 1_555
H155 C226 1_555 1_555
C227 C226 1_555 1_555
C228 C223 1_555 1_555
H156 C228 1_555 1_555
C229 C227 1_555 1_555
C230 C229 1_555 1_555
H157 C230 1_555 1_555
C231 C230 1_555 1_555
H158 C231 1_555 1_555
C232 C231 1_555 1_555
C233 C232 1_555 1_555
H159 C233 1_555 1_555
C234 C229 1_555 1_555
H160 C234 1_555 1_555
C235 N46 1_555 1_555
C236 C237 1_555 1_555
C237 H161 1_555 1_555
C238 C237 1_555 1_555
H162 C238 1_555 1_555
C239 C238 1_555 1_555
H163 C239 1_555 1_555
C240 C239 1_555 1_555
H164 C240 1_555 1_555
C241 C236 1_555 1_555
C242 N48 1_555 1_555
C243 C244 1_555 1_555
C244 H165 1_555 1_555
C245 C244 1_555 1_555
H166 C245 1_555 1_555
C246 C245 1_555 1_555
C247 C246 1_555 1_555
H167 C247 1_555 1_555
C248 C243 1_555 1_555
H168 C248 1_555 1_555
C249 C225 1_555 1_555
C250 C249 1_555 1_555
H169 C250 1_555 1_555
C251 C250 1_555 1_555
H170 C251 1_555 1_555
C252 C251 1_555 1_555
C253 C252 1_555 1_555
H171 C253 1_555 1_555
C254 C249 1_555 1_555
H172 C254 1_555 1_555
C255 N51 1_555 1_555
C256 C257 1_555 1_555
C257 H173 1_555 1_555
C258 C257 1_555 1_555
H174 C258 1_555 1_555
C259 C258 1_555 1_555
H175 C259 1_555 1_555
C260 C259 1_555 1_555
H176 C260 1_555 1_555
C261 C256 1_555 1_555
C262 N53 1_555 1_555
C263 C264 1_555 1_555
C264 H177 1_555 1_555
C265 C264 1_555 1_555
H178 C265 1_555 1_555
C266 C265 1_555 1_555
C267 C266 1_555 1_555
H179 C267 1_555 1_555
C268 C263 1_555 1_555
H180 C268 1_555 1_555
C269 C223 1_555 1_555
C270 C269 1_555 1_555
H181 C270 1_555 1_555
C271 C270 1_555 1_555
H182 C271 1_555 1_555
C272 C271 1_555 1_555
C273 C272 1_555 1_555
H183 C273 1_555 1_555
C274 C269 1_555 1_555
H184 C274 1_555 1_555
C275 N56 1_555 1_555
C276 C277 1_555 1_555
C277 H185 1_555 1_555
C278 C277 1_555 1_555
H186 C278 1_555 1_555
C279 C278 1_555 1_555
H187 C279 1_555 1_555
C280 C279 1_555 1_555
H188 C280 1_555 1_555
C281 C276 1_555 1_555
C282 N58 1_555 1_555
C283 C284 1_555 1_555
C284 H189 1_555 1_555
C285 C284 1_555 1_555
H190 C285 1_555 1_555
C286 C285 1_555 1_555
C287 C286 1_555 1_555
H191 C287 1_555 1_555
C288 C283 1_555 1_555
H192 C288 1_555 1_555
N46 C232 1_555 1_555
H193 N46 1_555 1_555
N47 C235 1_555 1_555
H194 N47 1_555 1_555
N48 C241 1_555 1_555
H195 N48 1_555 1_555
N49 C242 1_555 1_555
H196 N49 1_555 1_555
N50 C246 1_555 1_555
N51 C252 1_555 1_555
H197 N51 1_555 1_555
N52 C255 1_555 1_555
H198 N52 1_555 1_555
N53 C261 1_555 1_555
H199 N53 1_555 1_555
N54 C262 1_555 1_555
H200 N54 1_555 1_555
N55 C266 1_555 1_555
N56 C272 1_555 1_555
H201 N56 1_555 1_555
N57 C275 1_555 1_555
H202 N57 1_555 1_555
N58 C281 1_555 1_555
H203 N58 1_555 1_555
N59 C282 1_555 1_555
H204 N59 1_555 1_555
N60 C286 1_555 1_555
O49 C235 1_555 1_555
O50 C242 1_555 1_555
O51 N50 1_555 1_555
O52 N50 1_555 1_555
O53 C255 1_555 1_555
O54 C262 1_555 1_555
O55 N55 1_555 1_555
O56 N55 1_555 1_555
O57 C275 1_555 1_555
O58 C282 1_555 1_555
O59 N60 1_555 1_555
O60 N60 1_555 1_555
C289 C290 1_555 1_555
C290 O61 1_555 1_555
C291 C292 1_555 1_555
C292 O62 1_555 1_555
C293 C294 1_555 1_555
C294 O63 1_555 1_555
C295 C296 1_555 1_555
C296 O64 1_555 1_555
C297 C298 1_555 1_555
C298 O65 1_555 1_555
C299 C300 1_555 1_555
C300 O66 1_555 1_555
O61 C291 1_555 1_555
O62 C293 1_555 1_555
O63 C295 1_555 1_555
O64 C297 1_555 1_555
O65 C299 1_555 1_555
O66 C289 1_555 1_555
O67 P1 1_555 1_555
O68 P1 1_555 1_555
O69 P1 1_555 1_555
O70 P1 1_555 1_555
O71 P2 1_555 1_555
O72 P2 1_555 1_555
O73 P2 1_555 1_555
O74 P2 1_555 1_555
O75 P3 1_555 1_555
O76 P3 1_555 1_555
O77 P3 1_555 1_555
O78 P3 1_555 1_555
O79 P4 1_555 1_555
O80 P4 1_555 1_555
O81 P4 1_555 1_555
O82 P4 1_555 1_555
C301 H205 1_555 1_555
H206 C301 1_555 1_555
Cl1 C301 1_555 1_555
Cl2 C301 1_555 1_555
C5 C6 1_555 1_555
C11 C12 1_555 1_555
C14 N2 1_555 1_555
C18 C19 1_555 1_555
C21 N4 1_555 1_555
C25 C26 1_555 1_555
C31 C32 1_555 1_555
C34 N7 1_555 1_555
C38 C39 1_555 1_555
C41 N9 1_555 1_555
C45 C46 1_555 1_555
C51 C52 1_555 1_555
C54 N12 1_555 1_555
C58 C59 1_555 1_555
C61 N14 1_555 1_555
C65 C66 1_555 1_555
C71 C72 1_555 1_555
C77 C78 1_555 1_555
C80 N17 1_555 1_555
C84 C85 1_555 1_555
C87 N19 1_555 1_555
C91 C92 1_555 1_555
C97 C98 1_555 1_555
C100 N22 1_555 1_555
C104 C105 1_555 1_555
C107 N24 1_555 1_555
C111 C112 1_555 1_555
C117 C118 1_555 1_555
C120 N27 1_555 1_555
C124 C125 1_555 1_555
C127 N29 1_555 1_555
C131 C132 1_555 1_555
C137 C138 1_555 1_555
C143 C144 1_555 1_555
C146 N32 1_555 1_555
C150 C151 1_555 1_555
C153 N34 1_555 1_555
C157 C158 1_555 1_555
C163 C164 1_555 1_555
C166 N37 1_555 1_555
C170 C171 1_555 1_555
C173 N39 1_555 1_555
C177 C178 1_555 1_555
C183 C184 1_555 1_555
C186 N42 1_555 1_555
C190 C191 1_555 1_555
C193 N44 1_555 1_555
C197 C198 1_555 1_555
C227 C228 1_555 1_555
C233 C234 1_555 1_555
C236 N47 1_555 1_555
C240 C241 1_555 1_555
C243 N49 1_555 1_555
C247 C248 1_555 1_555
C253 C254 1_555 1_555
C256 N52 1_555 1_555
C260 C261 1_555 1_555
C263 N54 1_555 1_555
C267 C268 1_555 1_555
C273 C274 1_555 1_555
C276 N57 1_555 1_555
C280 C281 1_555 1_555
C283 N59 1_555 1_555
C287 C288 1_555 1_555

#END
