
#######################################################################
#
#                 Cambridge Crystallographic Data Centre
#                                CCDC 
#
#######################################################################
#
# If this CIF has been generated from an entry in the Cambridge 
# Structural Database, then it will include bibliographic, chemical, 
# crystal, experimental, refinement or atomic coordinate data resulting 
# from the CCDC's data processing and validation procedures.
#
#######################################################################

data_VULZUZ
_chemical_formula_moiety         
'4(C66 H51 N15 O12),12(K1 1+),12(C12 H24 O6),4(O4 P1 3-),C3 H6 Cl2,2(C2 H3 N1)'
_chemical_name_systematic        
'tetrakis(1,3,5-tris(4-(3-(2-(3-(4-Nitrophenyl)ureido)phenyl)ureido)phenyl)benzene) dodeca-potassium dodecakis(18-crown-6) tetrakis(phosphate) acetonitrile 2,2-dichloropropane solvate'
_symmetry_cell_setting           monoclinic
_symmetry_space_group_name_H-M   'C c'
_symmetry_Int_Tables_number      9
_space_group_name_Hall           'C -2yc'
loop_
_symmetry_equiv_pos_site_id
_symmetry_equiv_pos_as_xyz
1 x,y,z
2 x,-y,1/2+z
3 1/2+x,1/2+y,z
4 1/2+x,1/2-y,1/2+z
_cell_length_a                   47.6211(8)
_cell_length_b                   24.0511(5)
_cell_length_c                   47.8544(8)
_cell_angle_alpha                90
_cell_angle_beta                 101.5670(10)
_cell_angle_gamma                90
_cell_volume                     53696.4
_exptl_crystal_colour            yellow
_exptl_crystal_description       block
_cell_formula_units_Z            4
loop_
_atom_site_label
_atom_site_type_symbol
_atom_site_fract_x
_atom_site_fract_y
_atom_site_fract_z
C1 C 0.96086(19) 0.7048(4) 0.04653(19)
H1 H 0.9489 0.7317 0.0519
C2 C 0.97971(18) 0.6744(3) 0.06753(18)
C3 C 0.9955(2) 0.6295(4) 0.0592(2)
H2 H 1.0072 0.6082 0.0731
C4 C 0.9936(2) 0.6173(4) 0.0309(2)
C5 C 0.9756(2) 0.6494(4) 0.0106(2)
H3 H 0.9740 0.6402 -0.0085
C6 C 0.9602(2) 0.6942(4) 0.0174(2)
C7 C 0.98194(17) 0.6879(3) 0.09807(17)
C8 C 0.99160(18) 0.6505(3) 0.11940(18)
H4 H 0.9976 0.6157 0.1145
C9 C 0.99282(18) 0.6625(3) 0.14879(19)
H5 H 0.9993 0.6362 0.1629
C10 C 0.98382(17) 0.7156(3) 0.15570(17)
C11 C 0.97484(19) 0.7528(4) 0.13454(19)
H6 H 0.9688 0.7876 0.1394
C12 C 0.97412(19) 0.7419(4) 0.1064(2)
H7 H 0.9686 0.7694 0.0927
C13 C 0.99947(18) 0.7080(3) 0.20877(18)
C14 C 1.0090(2) 0.7215(4) 0.2611(2)
C15 C 1.0366(2) 0.7015(4) 0.2667(2)
H8 H 1.0470 0.6983 0.2523
C16 C 1.0484(3) 0.6861(5) 0.2948(3)
H9 H 1.0670 0.6722 0.2990
C17 C 1.0339(3) 0.6909(5) 0.3152(3)
H10 H 1.0424 0.6796 0.3336
C18 C 1.0063(2) 0.7124(5) 0.3104(2)
H11 H 0.9968 0.7166 0.3254
C19 C 0.9931(2) 0.7273(4) 0.2834(2)
C20 C 0.94468(19) 0.7434(4) 0.2923(2)
C21 C 0.89685(19) 0.7796(4) 0.29599(19)
C22 C 0.8955(2) 0.7602(4) 0.3227(2)
H12 H 0.9104 0.7384 0.3324
C23 C 0.8732(3) 0.7718(5) 0.3352(3)
H13 H 0.8728 0.7578 0.3533
C24 C 0.8505(2) 0.8050(4) 0.3209(2)
C25 C 0.8517(2) 0.8235(4) 0.2936(2)
H14 H 0.8369 0.8453 0.2836
C26 C 0.8735(2) 0.8104(4) 0.2818(2)
H15 H 0.8733 0.8220 0.2632
C27 C 1.00950(19) 0.5685(4) 0.02169(19)
C28 C 1.0366(2) 0.5533(4) 0.0357(2)
H16 H 1.0456 0.5740 0.0514
C29 C 1.0509(2) 0.5074(4) 0.0270(2)
H17 H 1.0695 0.4989 0.0361
C30 C 1.03683(18) 0.4744(3) 0.00428(18)
C31 C 1.0100(2) 0.4877(4) -0.0077(2)
H18 H 1.0001 0.4650 -0.0220
C32 C 0.9961(3) 0.5342(5) 0.0004(3)
H19 H 0.9774 0.5420 -0.0088
C33 C 1.0498(2) 0.4091(4) -0.0300(2)
C34 C 1.07041(19) 0.3382(4) -0.05756(19)
C35 C 1.0686(2) 0.3672(4) -0.0820(2)
H20 H 1.0643 0.4050 -0.0825
C36 C 1.0732(2) 0.3404(4) -0.1060(2)
H21 H 1.0702 0.3604 -0.1230
C37 C 1.0814(2) 0.2891(4) -0.1068(2)
H22 H 1.0849 0.2732 -0.1235
C38 C 1.0848(2) 0.2589(4) -0.0817(2)
H23 H 1.0910 0.2222 -0.0816
C39 C 1.07937(18) 0.2814(3) -0.05709(18)
C40 C 1.07666(17) 0.1951(3) -0.02998(17)
C41 C 1.0757(2) 0.1212(4) 0.0056(2)
C42 C 1.0784(2) 0.0748(4) -0.0114(2)
H24 H 1.0821 0.0798 -0.0296
C43 C 1.0756(2) 0.0215(5) -0.0012(2)
H25 H 1.0764 -0.0094 -0.0127
C44 C 1.0719(2) 0.0157(4) 0.0249(2)
C45 C 1.0704(3) 0.0586(5) 0.0435(3)
H26 H 1.0679 0.0523 0.0621
C46 C 1.0727(2) 0.1120(5) 0.0330(3)
H27 H 1.0722 0.1423 0.0450
C47 C 0.9408(2) 0.7267(4) -0.0053(2)
C48 C 0.9307(2) 0.7052(5) -0.0320(2)
H28 H 0.9340 0.6681 -0.0359
C49 C 0.9158(3) 0.7386(5) -0.0526(3)
H29 H 0.9087 0.7225 -0.0702
C50 C 0.9104(2) 0.7938(4) -0.0497(2)
C51 C 0.9177(2) 0.8138(4) -0.0217(2)
H30 H 0.9119 0.8493 -0.0175
C52 C 0.9337(2) 0.7810(4) 0.0003(2)
H31 H 0.9394 0.7957 0.0185
C53 C 0.8800(2) 0.8708(4) -0.0711(2)
C54 C 0.8550(2) 0.9465(4) -0.1010(2)
C55 C 0.8585(2) 0.9881(4) -0.0810(2)
H32 H 0.8711 0.9826 -0.0637
C56 C 0.8437(3) 1.0385(5) -0.0857(3)
H33 H 0.8460 1.0659 -0.0717
C57 C 0.8257(2) 1.0466(5) -0.1119(2)
H34 H 0.8159 1.0801 -0.1156
C58 C 0.8219(2) 1.0060(4) -0.1326(2)
H35 H 0.8094 1.0125 -0.1499
C59 C 0.8365(2) 0.9548(4) -0.1283(2)
C60 C 0.8093(2) 0.9008(4) -0.1686(2)
C61 C 0.7891(2) 0.8330(4) -0.2061(2)
C62 C 0.7941(3) 0.7799(5) -0.2145(2)
H36 H 0.8119 0.7633 -0.2082
C63 C 0.7722(3) 0.7510(6) -0.2325(3)
H37 H 0.7752 0.7149 -0.2382
C64 C 0.7459(3) 0.7772(5) -0.2419(3)
C65 C 0.7420(3) 0.8276(6) -0.2352(3)
H38 H 0.7248 0.8449 -0.2431
C66 C 0.7637(3) 0.8593(6) -0.2153(3)
H39 H 0.7602 0.8951 -0.2094
N1 N 0.98247(14) 0.7287(3) 0.18444(14)
H40 H 0.9695 0.7522 0.1868
N2 N 0.99529(16) 0.7346(3) 0.23287(16)
H41 H 0.9833 0.7617 0.2306
N3 N 0.96504(15) 0.7505(3) 0.27648(16)
H42 H 0.9607 0.7703 0.2612
N4 N 0.91958(14) 0.7708(3) 0.28130(15)
H43 H 0.9175 0.7835 0.2642
N5 N 0.82686(19) 0.8167(4) 0.33386(19)
N6 N 1.05135(15) 0.4268(3) -0.00259(15)
H44 H 1.0616 0.4081 0.0111
N7 N 1.06582(15) 0.3618(3) -0.03160(15)
H45 H 1.0735 0.3456 -0.0159
N8 N 1.08191(14) 0.2526(3) -0.03121(14)
H46 H 1.0869 0.2708 -0.0155
N9 N 1.07900(15) 0.1761(3) -0.00222(15)
H47 H 1.0828 0.2002 0.0112
N10 N 1.0697(2) -0.0424(4) 0.0378(2)
N11 N 0.89640(17) 0.8248(3) -0.07312(18)
H48 H 0.8982 0.8143 -0.0898
N12 N 0.87020(16) 0.8954(3) -0.09708(16)
H49 H 0.8735 0.8788 -0.1120
N13 N 0.83379(16) 0.9128(3) -0.14893(16)
H50 H 0.8487 0.8928 -0.1493
N14 N 0.81144(19) 0.8558(4) -0.18532(18)
H51 H 0.8279 0.8397 -0.1830
N15 N 0.7229(2) 0.7438(5) -0.2603(2)
O1 O 1.01544(14) 0.6688(3) 0.20848(14)
O2 O 0.94737(17) 0.7125(3) 0.31348(16)
O3 O 0.82401(18) 0.7931(3) 0.35619(18)
O4 O 0.8096(2) 0.8512(4) 0.3234(2)
O5 O 1.03474(15) 0.4322(3) -0.05072(15)
O6 O 1.06971(13) 0.1660(2) -0.05098(13)
O7 O 1.0660(2) -0.0774(4) 0.0204(2)
O8 O 1.0731(2) -0.0479(4) 0.0628(2)
O9 O 0.87439(16) 0.8888(3) -0.04821(16)
O10 O 0.78652(15) 0.9263(3) -0.16810(15)
O11 O 0.7014(3) 0.7699(6) -0.2670(3)
O12 O 0.7271(2) 0.6956(5) -0.2640(2)
C67 C 1.4088(2) 0.9852(4) -0.0632(2)
C68 C 1.3799(2) 0.9768(4) -0.0626(2)
H52 H 1.3664 1.0014 -0.0725
C69 C 1.3706(2) 0.9329(4) -0.0478(2)
C70 C 1.39258(18) 0.8965(4) -0.03317(18)
H53 H 1.3875 0.8676 -0.0222
C71 C 1.42152(19) 0.9032(4) -0.0349(2)
C72 C 1.4287(2) 0.9502(4) -0.04997(19)
H54 H 1.4478 0.9567 -0.0506
C73 C 1.44437(18) 0.8685(3) -0.01687(19)
C74 C 1.4397(2) 0.8393(4) 0.00596(19)
H55 H 1.4212 0.8379 0.0093
C75 C 1.4614(2) 0.8108(4) 0.0249(2)
H56 H 1.4577 0.7939 0.0413
C76 C 1.48824(18) 0.8089(3) 0.01865(18)
C77 C 1.4933(2) 0.8357(4) -0.0057(2)
H57 H 1.5114 0.8341 -0.0102
C78 C 1.4720(2) 0.8643(4) -0.0230(2)
H58 H 1.4757 0.8814 -0.0393
C79 C 1.50968(19) 0.7370(4) 0.05317(19)
C80 C 1.5400(2) 0.6699(4) 0.0846(2)
C81 C 1.5183(3) 0.6299(5) 0.0866(3)
H59 H 1.4997 0.6343 0.0763
C82 C 1.5258(3) 0.5842(6) 0.1043(3)
H60 H 1.5114 0.5601 0.1070
C83 C 1.5535(3) 0.5726(6) 0.1181(3)
H61 H 1.5585 0.5403 0.1286
C84 C 1.5735(3) 0.6138(6) 0.1148(3)
H62 H 1.5925 0.6076 0.1235
C85 C 1.5677(2) 0.6594(4) 0.1008(2)
C86 C 1.6076(3) 0.7166(5) 0.1222(3)
C87 C 1.64785(18) 0.7795(3) 0.13803(19)
C88 C 1.6596(3) 0.7500(3) 0.1626(2)
H63 H 1.6535 0.7140 0.1651
C89 C 1.6806(3) 0.7744(5) 0.1834(2)
H64 H 1.6885 0.7547 0.1998
C90 C 1.6897(2) 0.8283(5) 0.1796(2)
C91 C 1.6780(2) 0.8578(3) 0.1551(2)
H65 H 1.6841 0.8938 0.1526
C92 C 1.6570(2) 0.8334(3) 0.13430(18)
H66 H 1.6491 0.8531 0.1179
C93 C 1.34113(19) 0.9258(4) -0.04434(19)
C94 C 1.3208(2) 0.9688(4) -0.0517(2)
H67 H 1.3264 1.0009 -0.0599
C95 C 1.2931(2) 0.9657(4) -0.0474(2)
H68 H 1.2803 0.9950 -0.0523
C96 C 1.28475(18) 0.9170(3) -0.03537(18)
C97 C 1.3029(2) 0.8729(4) -0.0292(2)
H69 H 1.2969 0.8402 -0.0219
C98 C 1.3305(2) 0.8780(4) -0.0342(2)
H70 H 1.3426 0.8474 -0.0304
C99 C 1.23289(19) 0.9390(4) -0.04198(19)
C100 C 1.17946(12) 0.9354(3) -0.04578(15)
C101 C 1.17149(16) 0.9581(3) -0.07293(15)
H71 H 1.1850 0.9618 -0.0844
C102 C 1.14338(18) 0.9751(4) -0.08289(14)
H72 H 1.1380 0.9903 -0.1011
C103 C 1.12323(13) 0.9695(4) -0.0657(2)
H73 H 1.1044 0.9809 -0.0724
C104 C 1.13120(15) 0.9468(4) -0.03855(18)
H74 H 1.1177 0.9431 -0.0270
C105 C 1.15931(16) 0.9298(3) -0.02859(13)
C106 C 1.1531(2) 0.9022(4) 0.0193(2)
C107 C 1.1541(2) 0.8554(4) 0.0662(2)
C108 C 1.1227(2) 0.8585(4) 0.0641(2)
H75 H 1.1105 0.8692 0.0473
C109 C 1.1126(2) 0.8449(4) 0.0882(2)
H76 H 1.0931 0.8482 0.0881
C110 C 1.1311(2) 0.8260(4) 0.1127(2)
C111 C 1.1610(3) 0.8202(5) 0.1140(3)
H77 H 1.1729 0.8064 0.1303
C112 C 1.1718(3) 0.8351(5) 0.0909(2)
H78 H 1.1914 0.8319 0.0916
C113 C 1.4170(2) 1.0356(4) -0.0782(2)
C114 C 1.4423(3) 1.0606(5) -0.0712(3)
H79 H 1.4560 1.0413 -0.0582
C115 C 1.4518(3) 1.1119(6) -0.0806(3)
H80 H 1.4696 1.1275 -0.0730
C116 C 1.4326(2) 1.1357(5) -0.1015(2)
C117 C 1.4047(3) 1.1123(6) -0.1106(3)
H81 H 1.3910 1.1311 -0.1238
C118 C 1.3978(4) 1.0601(7) -0.0995(4)
H82 H 1.3803 1.0431 -0.1067
C119 C 1.4651(3) 1.1997(5) -0.1209(3)
C120 C 1.4870(3) 1.2655(6) -0.1480(3)
C121 C 1.5102(4) 1.2344(7) -0.1513(4)
H83 H 1.5096 1.1961 -0.1486
C122 C 1.5345(3) 1.2574(6) -0.1584(3)
H84 H 1.5512 1.2367 -0.1571
C123 C 1.5331(4) 1.3142(7) -0.1680(3)
H85 H 1.5487 1.3301 -0.1739
C124 C 1.5079(3) 1.3461(6) -0.1685(3)
H86 H 1.5060 1.3821 -0.1757
C125 C 1.4860(2) 1.3198(4) -0.1574(2)
C126 C 1.46115(19) 1.4047(4) -0.14687(19)
C127 C 1.43008(18) 1.4764(3) -0.13329(18)
C128 C 1.4511(2) 1.5073(4) -0.1160(2)
H87 H 1.4697 1.4940 -0.1110
C129 C 1.4437(2) 1.5608(4) -0.1055(2)
H88 H 1.4574 1.5817 -0.0934
C130 C 1.4168(2) 1.5799(4) -0.1134(2)
C131 C 1.3947(2) 1.5491(4) -0.13001(19)
H89 H 1.3760 1.5626 -0.1344
C132 C 1.4018(2) 1.4980(4) -0.1395(2)
H90 H 1.3874 1.4766 -0.1505
N16 N 1.51162(16) 0.7827(3) 0.03614(16)
H91 H 1.5284 0.7960 0.0363
N17 N 1.53503(17) 0.7175(3) 0.06745(16)
H92 H 1.5499 0.7365 0.0659
N18 N 1.58919(18) 0.7003(3) 0.09853(19)
H93 H 1.5903 0.7142 0.0822
N19 N 1.62619(19) 0.7576(4) 0.1172(2)
H94 H 1.6242 0.7704 0.1001
N20 N 1.7114(5) 0.8618(10) 0.2054(5)
N21 N 1.25595(15) 0.9110(3) -0.02982(15)
H95 H 1.2537 0.8866 -0.0173
N22 N 1.20826(16) 0.9169(3) -0.03500(16)
H96 H 1.2105 0.8896 -0.0231
N23 N 1.1668(2) 0.8996(4) -0.00247(19)
H97 H 1.1813 0.8778 -0.0006
N24 N 1.16606(19) 0.8699(3) 0.04307(18)
H98 H 1.1831 0.8579 0.0432
N25 N 1.1214(2) 0.8100(4) 0.1388(2)
N26 N 1.4383(2) 1.1850(4) -0.1154(2)
H99 H 1.4243 1.2077 -0.1208
N27 N 1.4645(2) 1.2425(4) -0.1371(2)
H100 H 1.4482 1.2590 -0.1418
N28 N 1.46048(17) 1.3513(3) -0.15602(17)
H101 H 1.4441 1.3354 -0.1613
N29 N 1.43450(15) 1.4243(3) -0.14328(15)
H102 H 1.4200 1.4024 -0.1476
N30 N 1.4098(2) 1.6345(4) -0.1039(2)
O13 O 1.48619(15) 0.7163(3) 0.05503(15)
O14 O 1.6093(2) 0.6973(4) 0.1469(2)
O15 O 1.7157(4) 0.8979(9) 0.1976(4)
O16 O 1.7171(4) 0.8298(8) 0.2247(4)
O17 O 1.23162(14) 0.9807(3) -0.05771(14)
O18 O 1.13193(16) 0.9311(3) 0.01989(16)
O19 O 1.1372(2) 0.7986(4) 0.1601(2)
O20 O 1.09436(16) 0.8126(3) 0.13653(16)
O21 O 1.4867(2) 1.1732(4) -0.1097(2)
O22 O 1.48355(15) 1.4337(3) -0.14229(15)
O23 O 1.43101(19) 1.6644(4) -0.09305(19)
O24 O 1.38596(18) 1.6502(3) -0.10803(17)
K1 K 1.20692(4) 1.07995(8) -0.07025(4)
C133 C 1.5099(7) 1.6646(13) -0.1360(6)
C134 C 1.4866(4) 1.6588(6) -0.1412(3)
C135 C 1.4478(4) 1.6210(8) -0.1760(4)
C136 C 1.4402(2) 1.5988(4) -0.2050(2)
C137 C 1.4393(4) 1.5170(7) -0.2297(4)
C138 C 1.4505(3) 1.4536(6) -0.2247(3)
C139 C 1.4935(4) 1.4684(7) -0.2335(4)
C140 C 1.5288(3) 1.4475(6) -0.2251(3)
C141 C 1.5651(5) 1.4718(8) -0.1834(5)
C142 C 1.5773(5) 1.4903(10) -0.1588(6)
C143 C 1.5576(5) 1.5455(9) -0.1213(5)
C144 C 1.5510(8) 1.5970(16) -0.1108(8)
O25 O 1.4754(2) 1.6257(4) -0.1683(2)
O26 O 1.4481(2) 1.5398(4) -0.2038(2)
O27 O 1.4797(3) 1.4488(5) -0.2161(3)
O28 O 1.5399(3) 1.4741(5) -0.1960(3)
O29 O 1.5616(3) 1.5278(6) -0.1456(3)
O30 O 1.5179(4) 1.6084(7) -0.1277(3)
C145 C 1.3907(3) 0.6968(5) -0.0175(3)
C146 C 1.3679(2) 0.7060(4) -0.0439(2)
C147 C 1.3537(2) 0.7633(4) -0.0835(2)
C148 C 1.3610(2) 0.8152(5) -0.0975(3)
C149 C 1.3967(3) 0.8671(5) -0.1126(3)
C150 C 1.4231(3) 0.8593(5) -0.1254(3)
C151 C 1.4702(3) 0.8243(5) -0.1161(3)
C152 C 1.4935(2) 0.8056(4) -0.0925(2)
C153 C 1.5078(2) 0.7337(4) -0.0572(2)
C154 C 1.4971(2) 0.6839(5) -0.0458(2)
C155 C 1.4661(3) 0.6525(6) -0.0161(3)
C156 C 1.4395(3) 0.6697(5) -0.0044(3)
O31 O 1.41691(16) 0.6830(3) -0.02742(16)
O32 O 1.37449(15) 0.7557(3) -0.05748(15)
O33 O 1.38837(15) 0.8124(3) -0.10465(15)
O34 O 1.44593(15) 0.8395(3) -0.10359(15)
O35 O 1.48528(14) 0.7562(3) -0.07907(14)
O36 O 1.47461(15) 0.6983(3) -0.03110(15)
C157 C 1.1627(3) 1.1007(5) -0.0195(2)
C158 C 1.1479(4) 1.1328(7) -0.0449(4)
C159 C 1.1365(3) 1.1408(6) -0.0954(3)
C160 C 1.1516(11) 1.126(2) -0.1239(11)
C161 C 1.1704(4) 1.0676(7) -0.1454(4)
C162 C 1.2012(4) 1.0912(8) -0.1363(4)
C163 C 1.2412(10) 1.0715(19) -0.1352(10)
C164 C 1.2547(6) 1.1056(11) -0.1171(6)
C165 C 1.2685(3) 1.1594(6) -0.0774(3)
C166 C 1.2633(3) 1.1709(6) -0.0438(3)
C167 C 1.2347(3) 1.1717(6) -0.0108(3)
C168 C 1.2021(3) 1.1663(6) -0.0106(3)
O37 O 1.1964(2) 1.1087(4) -0.0166(2)
O38 O 1.1542(3) 1.1191(6) -0.0676(3)
O39 O 1.1576(5) 1.0897(9) -0.1191(5)
O40 O 1.2186(5) 1.0572(9) -0.1260(4)
O41 O 1.2572(2) 1.1054(4) -0.0852(2)
O42 O 1.2355(2) 1.1684(4) -0.0422(2)
C169 C 1.0859(3) 0.6535(5) 0.0979(3)
C170 C 1.0773(3) 0.6299(5) 0.1246(3)
C171 C 1.0725(3) 0.6639(5) 0.1691(3)
C172 C 1.0762(3) 0.7171(5) 0.1890(3)
C173 C 1.0568(2) 0.8076(5) 0.1913(2)
C174 C 1.0325(2) 0.8445(4) 0.1791(2)
C175 C 1.0124(3) 0.8968(6) 0.1404(3)
C176 C 1.0145(3) 0.9102(6) 0.1088(3)
C177 C 1.0148(4) 0.8748(7) 0.0653(4)
C178 C 1.0161(4) 0.8193(7) 0.0463(4)
C179 C 1.0419(3) 0.7418(6) 0.0425(3)
C180 C 1.0691(3) 0.7089(6) 0.0591(3)
O43 O 1.07755(15) 0.6800(3) 0.14276(15)
O44 O 1.05404(14) 0.7548(3) 0.17640(14)
O45 O 1.03358(15) 0.8577(3) 0.15115(15)
O46 O 1.01249(17) 0.8617(3) 0.09314(18)
O47 O 1.03953(19) 0.7877(4) 0.05985(19)
O48 O 1.06249(16) 0.6848(3) 0.08385(16)
K2 K 1.60295(11) 0.7639(2) 0.19739(11)
K3 K 1.50153(12) 1.5168(2) -0.16453(10)
K4 K 1.43260(9) 0.75678(15) -0.05990(8)
K5 K 1.04178(5) 0.76600(9) 0.11775(5)
K6 K 1.50251(14) 1.5249(2) -0.16948(12)
K7 K 1.43065(8) 0.76729(15) -0.06674(7)
C181 C 0.36655(17) 0.8134(3) 0.54587(17)
C182 C 0.36538(19) 0.8053(4) 0.51688(19)
H103 H 0.3750 0.7757 0.5105
C183 C 0.3495(2) 0.8424(4) 0.4975(2)
C184 C 0.3343(2) 0.8866(4) 0.5064(2)
H104 H 0.3230 0.9095 0.4930
C185 C 0.33659(18) 0.8958(3) 0.53587(18)
C186 C 0.35241(17) 0.8581(3) 0.55519(18)
H105 H 0.3535 0.8631 0.5746
C187 C 0.3464(2) 0.8345(4) 0.4662(2)
C188 C 0.34770(19) 0.7808(4) 0.4548(2)
H106 H 0.3494 0.7498 0.4666
C189 C 0.3464(2) 0.7743(4) 0.4249(2)
H107 H 0.3471 0.7389 0.4173
C190 C 0.34406(19) 0.8196(4) 0.40733(19)
C191 C 0.3432(2) 0.8713(4) 0.4190(2)
H108 H 0.3421 0.9025 0.4073
C192 C 0.3441(2) 0.8779(4) 0.4479(2)
H109 H 0.3430 0.9137 0.4551
C193 C 0.33137(19) 0.8434(4) 0.35650(19)
C194 C 0.3237(3) 0.8470(5) 0.3027(3)
C195 C 0.3001(3) 0.8816(6) 0.2997(3)
H110 H 0.2924 0.8907 0.3155
C196 C 0.2878(4) 0.9028(7) 0.2725(4)
H111 H 0.2712 0.9242 0.2701
C197 C 0.2999(3) 0.8925(7) 0.2498(4)
H112 H 0.2930 0.9092 0.2323
C198 C 0.3241(3) 0.8541(5) 0.2536(3)
H113 H 0.3313 0.8423 0.2379
C199 C 0.3364(2) 0.8354(5) 0.2807(2)
C200 C 0.3818(3) 0.8030(5) 0.2699(3)
C201 C 0.4241(3) 0.7521(5) 0.2635(3)
C202 C 0.4438(3) 0.7105(5) 0.2755(3)
H114 H 0.4434 0.6951 0.2932
C203 C 0.4639(3) 0.6936(6) 0.2600(3)
H115 H 0.4767 0.6657 0.2675
C204 C 0.4658(3) 0.7154(5) 0.2347(3)
C205 C 0.4494(3) 0.7558(6) 0.2239(3)
H116 H 0.4524 0.7741 0.2076
C206 C 0.4262(3) 0.7722(6) 0.2376(3)
H117 H 0.4125 0.7970 0.2284
C207 C 0.38185(17) 0.7723(3) 0.56703(17)
C208 C 0.3843(2) 0.7174(4) 0.5604(2)
H118 H 0.3778 0.7065 0.5416
C209 C 0.3956(2) 0.6779(4) 0.5797(2)
H119 H 0.3955 0.6409 0.5740
C210 C 0.40733(17) 0.6919(3) 0.60728(17)
C211 C 0.40709(19) 0.7491(4) 0.6140(2)
H120 H 0.4153 0.7607 0.6324
C212 C 0.3952(2) 0.7875(4) 0.5944(2)
H121 H 0.3960 0.8249 0.5995
C213 C 0.42974(18) 0.6029(3) 0.62430(19)
C214 C 0.45043(19) 0.5191(4) 0.64992(19)
C215 C 0.4437(2) 0.4808(4) 0.6293(2)
H122 H 0.4306 0.4909 0.6130
C216 C 0.4549(3) 0.4264(5) 0.6305(3)
H123 H 0.4488 0.3998 0.6166
C217 C 0.4759(2) 0.4165(5) 0.6545(2)
H124 H 0.4853 0.3824 0.6557
C218 C 0.48417(19) 0.4534(3) 0.67682(19)
H125 H 0.4978 0.4434 0.6928
C219 C 0.47130(17) 0.5071(3) 0.67485(17)
C220 C 0.50381(17) 0.5521(3) 0.71497(17)
C221 C 0.52730(18) 0.6099(3) 0.75461(18)
C222 C 0.5560(2) 0.5959(4) 0.7539(2)
H126 H 0.5598 0.5718 0.7399
C223 C 0.5780(2) 0.6174(4) 0.7735(2)
H127 H 0.5968 0.6101 0.7722
C224 C 0.5721(2) 0.6500(4) 0.7951(2)
C225 C 0.5448(2) 0.6634(4) 0.7980(2)
H128 H 0.5413 0.6852 0.8130
C226 C 0.52273(19) 0.6427(3) 0.77715(19)
H129 H 0.5040 0.6511 0.7784
C227 C 0.32112(19) 0.9438(4) 0.54550(19)
C228 C 0.31034(18) 0.9427(3) 0.57046(18)
H130 H 0.3133 0.9111 0.5818
C229 C 0.29542(17) 0.9865(3) 0.57904(18)
H131 H 0.2890 0.9846 0.5962
C230 C 0.29007(19) 1.0327(4) 0.56230(19)
C231 C 0.30100(19) 1.0366(4) 0.53721(19)
H132 H 0.2981 1.0687 0.5262
C232 C 0.31610(19) 0.9927(4) 0.5291(2)
H133 H 0.3231 0.9954 0.5123
C233 C 0.2712(2) 1.0948(4) 0.5947(2)
C234 C 0.2476(2) 1.1668(4) 0.6203(2)
C235 C 0.2519(3) 1.1418(5) 0.6471(3)
H134 H 0.2601 1.1065 0.6494
C236 C 0.2441(3) 1.1687(5) 0.6709(3)
H135 H 0.2471 1.1511 0.6885
C237 C 0.2326(2) 1.2184(5) 0.6678(2)
H136 H 0.2267 1.2354 0.6831
C238 C 0.2291(2) 1.2465(5) 0.6412(2)
H137 H 0.2211 1.2820 0.6396
C239 C 0.2372(2) 1.2227(4) 0.6175(2)
C240 C 0.2395(2) 1.3087(4) 0.5911(2)
C241 C 0.24316(19) 1.3801(4) 0.55563(19)
C242 C 0.2461(3) 1.4272(6) 0.5743(3)
H138 H 0.2454 1.4232 0.5935
C243 C 0.2501(3) 1.4795(6) 0.5627(3)
H139 H 0.2521 1.5106 0.5744
C244 C 0.2510(3) 1.4858(5) 0.5344(3)
C245 C 0.2528(3) 1.4400(7) 0.5188(4)
H140 H 0.2579 1.4432 0.5011
C246 C 0.2474(2) 1.3892(5) 0.5287(3)
H141 H 0.2465 1.3590 0.5164
N31 N 0.34437(15) 0.8090(3) 0.37816(15)
H142 H 0.3531 0.7798 0.3739
N32 N 0.33591(18) 0.8243(3) 0.33132(17)
H143 H 0.3470 0.7959 0.3319
N33 N 0.36064(18) 0.8003(4) 0.28508(18)
H144 H 0.3621 0.7755 0.2983
N34 N 0.4039(2) 0.7653(4) 0.2792(2)
H145 H 0.4049 0.7496 0.2955
N35 N 0.4864(3) 0.6931(5) 0.2190(3)
N36 N 0.41881(15) 0.6542(3) 0.62891(16)
H146 H 0.4190 0.6639 0.6463
N37 N 0.43744(15) 0.5729(3) 0.64891(15)
H147 H 0.4343 0.5870 0.6645
N38 N 0.47753(15) 0.5457(3) 0.69683(14)
H148 H 0.4639 0.5674 0.6993
N39 N 0.50373(15) 0.5928(3) 0.73441(14)
H149 H 0.4877 0.6095 0.7343
N40 N 0.5959(2) 0.6752(4) 0.8159(2)
N41 N 0.27321(15) 1.0788(3) 0.56832(16)
H150 H 0.2638 1.0975 0.5541
N42 N 0.25441(16) 1.1418(3) 0.59549(17)
H151 H 0.2474 1.1573 0.5794
N43 N 0.23452(15) 1.2518(3) 0.59179(16)
H152 H 0.2297 1.2340 0.5760
N44 N 0.23913(15) 1.3252(3) 0.56324(16)
H153 H 0.2363 1.3004 0.5500
N45 N 0.2528(2) 1.5401(4) 0.5222(3)
O49 O 0.31746(16) 0.8845(3) 0.35902(16)
O50 O 0.3833(2) 0.8390(4) 0.2513(2)
O51 O 0.4904(2) 0.7199(5) 0.1981(3)
O52 O 0.5012(2) 0.6556(5) 0.2279(2)
O53 O 0.43405(15) 0.5874(3) 0.60114(15)
O54 O 0.52458(13) 0.5234(2) 0.71297(13)
O55 O 0.6203(2) 0.6695(4) 0.81147(19)
O56 O 0.59056(19) 0.6978(4) 0.83722(19)
O57 O 0.28542(14) 1.0735(3) 0.61743(14)
O58 O 0.24450(15) 1.3378(3) 0.61139(15)
O59 O 0.2519(3) 1.5466(5) 0.4976(3)
O60 O 0.2579(2) 1.5792(4) 0.5400(2)
C247 C 0.2712(3) 1.5839(7) 0.6354(4)
C248 C 0.2663(5) 1.5767(10) 0.6625(5)
N46 N 0.2713(4) 1.5923(7) 0.6110(4)
K8 K 0.30562(7) 1.62147(13) 0.56831(7)
K9 K 0.32431(19) 1.6397(3) 0.56142(18)
C249 C 0.8936(2) -0.5182(4) 0.10596(19)
H154 H 0.8747 -0.5125 0.1075
C250 C 0.91445(19) -0.4799(4) 0.11836(19)
C251 C 0.9422(2) -0.4882(4) 0.1144(2)
H155 H 0.9560 -0.4616 0.1215
C252 C 0.9504(2) -0.5328(4) 0.1008(2)
C253 C 0.9291(2) -0.5724(4) 0.0880(2)
H156 H 0.9343 -0.6023 0.0778
C254 C 0.9008(2) -0.5663(4) 0.0908(2)
C255 C 0.87876(19) -0.6042(4) 0.07690(19)
C256 C 0.8821(2) -0.6332(4) 0.0522(2)
H157 H 0.8986 -0.6276 0.0451
C257 C 0.8616(2) -0.6695(4) 0.0382(2)
H158 H 0.8651 -0.6892 0.0225
C258 C 0.83628(17) -0.6768(3) 0.04717(17)
C259 C 0.83316(18) -0.6498(3) 0.07256(18)
H159 H 0.8168 -0.6566 0.0799
C260 C 0.85350(16) -0.6139(3) 0.08672(17)
H160 H 0.8504 -0.5958 0.1030
C261 C 0.8171(2) -0.7543(4) 0.0164(2)
C262 C 0.7904(2) -0.8271(4) -0.0131(2)
C263 C 0.8120(2) -0.8664(4) -0.0104(2)
H161 H 0.8283 -0.8620 0.0037
C264 C 0.8098(2) -0.9118(4) -0.0283(2)
H162 H 0.8240 -0.9389 -0.0255
C265 C 0.7865(2) -0.9167(4) -0.0502(2)
H163 H 0.7855 -0.9451 -0.0636
C266 C 0.7649(2) -0.8793(4) -0.0520(2)
H164 H 0.7486 -0.8840 -0.0663
C267 C 0.7657(2) -0.8355(4) -0.0341(2)
C268 C 0.7236(3) -0.7817(5) -0.0601(3)
C269 C 0.6814(3) -0.7195(5) -0.0766(3)
C270 C 0.6823(5) -0.7254(8) -0.1063(4)
H165 H 0.6970 -0.7432 -0.1129
C271 C 0.6580(4) -0.7011(8) -0.1247(5)
H166 H 0.6566 -0.7046 -0.1443
C272 C 0.6374(4) -0.6741(7) -0.1156(4)
C273 C 0.6369(4) -0.6710(8) -0.0888(4)
H167 H 0.6221 -0.6523 -0.0828
C274 C 0.6594(3) -0.6964(6) -0.0684(3)
H168 H 0.6583 -0.6967 -0.0492
C275 C 0.9810(2) -0.5407(4) 0.0956(2)
C276 C 0.9864(2) -0.5692(5) 0.0714(2)
C277 C 1.0145(2) -0.5798(4) 0.0688(2)
H169 H 1.0181 -0.6009 0.0536
C278 C 1.0376(2) -0.5583(4) 0.0895(2)
C279 C 1.0318(2) -0.5214(4) 0.1096(2)
H170 H 1.0465 -0.5011 0.1210
C280 C 1.0020(2) -0.5151(4) 0.1126(2)
H171 H 0.9979 -0.4923 0.1270
C281 C 1.0893(2) -0.5400(4) 0.0951(2)
C282 C 1.1415(2) -0.5441(4) 0.0980(2)
C283 C 1.1487(2) -0.5093(5) 0.1210(2)
H172 H 1.1345 -0.4986 0.1308
C284 C 1.1768(3) -0.4892(6) 0.1302(3)
H173 H 1.1811 -0.4628 0.1446
C285 C 1.1978(2) -0.5102(4) 0.1170(2)
H174 H 1.2166 -0.4987 0.1232
C286 C 1.1913(2) -0.5483(4) 0.0946(2)
H175 H 1.2061 -0.5634 0.0869
C287 C 1.1633(2) -0.5641(4) 0.0836(2)
C288 C 1.1695(2) -0.6035(5) 0.0389(2)
C289 C 1.1695(3) -0.6611(5) -0.0029(3)
C290 C 1.1999(3) -0.6577(5) -0.0028(3)
H176 H 1.2125 -0.6417 0.0124
C291 C 1.2096(3) -0.6784(6) -0.0258(3)
H177 H 1.2289 -0.6742 -0.0263
C292 C 1.1929(3) -0.7039(6) -0.0473(3)
C293 C 1.1625(3) -0.7083(6) -0.0488(3)
H178 H 1.1504 -0.7244 -0.0643
C294 C 1.1524(3) -0.6871(5) -0.0256(3)
H179 H 1.1330 -0.6908 -0.0255
C295 C 0.90552(19) -0.4313(4) 0.13415(19)
C296 C 0.9267(2) -0.4006(4) 0.1515(2)
H180 H 0.9458 -0.4110 0.1535
C297 C 0.9193(2) -0.3535(4) 0.1663(2)
H181 H 0.9336 -0.3320 0.1773
C298 C 0.89076(18) -0.3394(3) 0.16455(18)
C299 C 0.8709(2) -0.3721(4) 0.14758(19)
H182 H 0.8515 -0.3644 0.1462
C300 C 0.8789(2) -0.4162(4) 0.13246(19)
H183 H 0.8646 -0.4361 0.1205
C301 C 0.85935(18) -0.2830(3) 0.18742(18)
C302 C 0.83492(18) -0.2153(3) 0.21308(18)
C303 C 0.8142(2) -0.2509(4) 0.2200(2)
H184 H 0.8158 -0.2892 0.2182
C304 C 0.7904(2) -0.2275(4) 0.2298(2)
H185 H 0.7762 -0.2505 0.2342
C305 C 0.7886(2) -0.1722(4) 0.2327(2)
H186 H 0.7727 -0.1572 0.2384
C306 C 0.80972(18) -0.1373(4) 0.22728(18)
H187 H 0.8083 -0.0993 0.2301
C307 C 0.83290(16) -0.1585(3) 0.21768(16)
C308 C 0.85343(17) -0.0686(3) 0.20578(17)
C309 C 0.88312(18) 0.0084(3) 0.19522(18)
C310 C 0.8610(2) 0.0446(4) 0.1814(2)
H188 H 0.8420 0.0326 0.1775
C311 C 0.8676(2) 0.0964(5) 0.1739(2)
H189 H 0.8531 0.1200 0.1649
C312 C 0.8964(2) 0.1152(4) 0.1797(2)
C313 C 0.9182(2) 0.0799(4) 0.1907(2)
H190 H 0.9371 0.0909 0.1925
C314 C 0.91175(19) 0.0280(3) 0.19923(18)
H191 H 0.9266 0.0048 0.2079
N47 N 0.81311(15) -0.7115(3) 0.03279(14)
H192 H 0.7960 -0.7042 0.0349
N48 N 0.79246(16) -0.7815(3) 0.00494(15)
H193 H 0.7768 -0.7694 0.0092
N49 N 0.74324(17) -0.7954(3) -0.03617(17)
H194 H 0.7420 -0.7780 -0.0208
N50 N 0.7040(2) -0.7417(4) -0.0558(2)
H195 H 0.7058 -0.7291 -0.0388
N51 N 0.6115(4) -0.6440(8) -0.1370(5)
N52 N 1.06522(17) -0.5715(3) 0.08508(17)
H196 H 1.0672 -0.6011 0.0756
N53 N 1.11312(16) -0.5637(3) 0.08802(16)
H197 H 1.1107 -0.5922 0.0769
N54 N 1.15586(18) -0.6010(3) 0.06107(17)
H198 H 1.1418 -0.6235 0.0612
N55 N 1.1579(2) -0.6427(4) 0.0189(2)
H199 H 1.1417 -0.6568 0.0204
N56 N 1.2037(3) -0.7275(5) -0.0724(3)
N57 N 0.88482(14) -0.2929(3) 0.17987(14)
H200 H 0.8983 -0.2689 0.1849
N58 N 0.85928(14) -0.2369(3) 0.20413(14)
H201 H 0.8753 -0.2198 0.2096
N59 N 0.85539(14) -0.1241(2) 0.21246(13)
H202 H 0.8719 -0.1394 0.2136
N60 N 0.87934(14) -0.0453(3) 0.20295(14)
H203 H 0.8942 -0.0663 0.2063
N61 N 0.9020(2) 0.1683(4) 0.1685(2)
O61 O 0.84088(15) -0.7710(3) 0.01310(15)
O62 O 0.7217(2) -0.8061(4) -0.0835(2)
O63 O 0.6147(5) -0.6526(10) -0.1594(6)
O64 O 0.5956(4) -0.6240(7) -0.1237(4)
O65 O 1.08842(16) -0.4942(3) 0.10632(16)
O66 O 1.19093(19) -0.5747(4) 0.03638(19)
O67 O 1.1884(3) -0.7555(6) -0.0897(3)
O68 O 1.2314(2) -0.7206(4) -0.0694(2)
O69 O 0.83778(15) -0.3140(3) 0.18030(15)
O70 O 0.83062(12) -0.0428(2) 0.20169(12)
O71 O 0.8821(2) 0.2047(4) 0.16403(19)
O72 O 0.92726(19) 0.1837(3) 0.16940(18)
K10 K 0.81142(5) 0.04454(10) 0.22733(5)
C315 C 0.8795(7) -0.6296(13) 0.1857(7)
C316 C 0.9032(4) -0.6117(8) 0.1771(4)
C317 C 0.9411(4) -0.6296(8) 0.1563(4)
C318 C 0.9571(4) -0.6791(8) 0.1447(4)
C319 C 0.9518(4) -0.7476(7) 0.1080(4)
C320 C 0.9322(4) -0.7752(8) 0.0826(4)
C321 C 0.8895(4) -0.8206(8) 0.0666(4)
C322 C 0.8595(5) -0.8393(9) 0.0774(5)
C323 C 0.8245(5) -0.8204(9) 0.0971(4)
C324 C 0.8198(5) -0.7884(9) 0.1114(5)
C325 C 0.8172(5) -0.7070(10) 0.1436(5)
C326 C 0.8347(5) -0.6743(10) 0.1696(5)
O73 O 0.8596(4) -0.6534(7) 0.1629(4)
O74 O 0.9175(3) -0.6568(6) 0.1643(3)
O75 O 0.9406(2) -0.7036(4) 0.1210(2)
O76 O 0.9095(2) -0.7951(4) 0.0904(2)
O77 O 0.8482(3) -0.7995(6) 0.0881(3)
O78 O 0.8259(4) -0.7449(7) 0.1303(4)
C327 C 0.7867(3) -0.0324(5) 0.2847(3)
C328 C 0.7594(3) -0.0312(5) 0.2582(3)
C329 C 0.7354(3) 0.0190(6) 0.2216(3)
C330 C 0.7368(4) 0.0672(8) 0.2058(4)
C331 C 0.7544(5) 0.1305(9) 0.1801(5)
C332 C 0.7813(5) 0.1475(9) 0.1747(5)
C333 C 0.8093(3) 0.1876(6) 0.2148(3)
C334 C 0.8406(4) 0.1808(7) 0.2323(4)
C335 C 0.8717(3) 0.1270(6) 0.2637(3)
C336 C 0.8717(3) 0.0726(5) 0.2815(3)
C337 C 0.8626(3) -0.0228(5) 0.2803(3)
C338 C 0.8360(2) -0.0244(5) 0.2959(2)
O79 O 0.81130(17) -0.0274(3) 0.27298(17)
O80 O 0.75840(18) 0.0157(3) 0.24364(18)
O81 O 0.7575(3) 0.0690(6) 0.1928(3)
O82 O 0.80494(19) 0.1399(3) 0.19500(19)
O83 O 0.84299(19) 0.1349(4) 0.24781(18)
O84 O 0.86279(17) 0.0278(3) 0.26466(17)
C339 C 1.1512(4) -0.7185(7) -0.1432(4)
C340 C 1.1404(5) -0.6568(10) -0.1424(5)
C341 C 1.1469(7) -0.5868(13) -0.1146(7)
C342 C 1.1682(6) -0.5740(11) -0.0817(6)
C343 C 1.2154(6) -0.5541(10) -0.0638(6)
C344 C 1.2482(5) -0.5475(9) -0.0676(5)
C345 C 1.2852(4) -0.5844(7) -0.0831(3)
C346 C 1.2974(3) -0.6462(6) -0.0928(3)
C347 C 1.2847(3) -0.7159(6) -0.1251(3)
C348 C 1.2658(3) -0.7360(6) -0.1507(3)
C349 C 1.2166(4) -0.7576(7) -0.1677(4)
C350 C 1.1865(4) -0.7695(8) -0.1610(4)
O85 O 1.1775(2) -0.7137(5) -0.1543(2)
O86 O 1.1583(4) -0.6398(7) -0.1174(4)
O87 O 1.1993(3) -0.5665(6) -0.0870(3)
O88 O 1.2593(3) -0.5929(5) -0.0754(3)
O89 O 1.27706(19) -0.6658(4) -0.11648(19)
O90 O 1.23773(19) -0.7428(4) -0.14439(19)
K11 K 0.88373(8) -0.71529(15) 0.12482(8)
K12 K 1.21638(11) -0.6428(2) -0.12375(11)
K13 K 0.88074(11) -0.7302(2) 0.11659(11)
Cl1 Cl 0.44182(14) -0.0100(3) 0.02650(14)
C351 C 0.4141(4) 0.0377(8) 0.0241(4)
C352 C 0.4178(3) 0.0743(5) 0.0457(3)
H204 H 0.4023 0.1006 0.0425
H205 H 0.4356 0.0935 0.0468
H206 H 0.4179 0.0549 0.0633
Cl2 Cl 0.41184(15) 0.0759(3) -0.00826(15)
C353 C 0.3848(2) -0.0024(4) 0.0217(2)
H207 H 0.3904 -0.0400 0.0267
H208 H 0.3738 -0.0013 0.0026
H209 H 0.3733 0.0113 0.0346
C354 C 0.1648(3) 0.2264(6) 0.0563(3)
C355 C 0.1469(3) 0.1756(6) 0.0558(3)
C356 C 0.1480(3) 0.0827(7) 0.0564(3)
C357 C 0.1636(5) 0.0285(9) 0.0610(5)
C358 C 0.2048(4) -0.0129(7) 0.0931(4)
C359 C 0.2190(4) -0.0045(8) 0.1244(4)
C360 C 0.2596(6) 0.0536(11) 0.1530(5)
C361 C 0.2770(5) 0.0969(10) 0.1515(5)
C362 C 0.2731(6) 0.1884(12) 0.1522(6)
C363 C 0.2551(5) 0.2363(10) 0.1471(6)
C364 C 0.2206(4) 0.2827(9) 0.1126(5)
C365 C 0.2022(5) 0.2744(8) 0.0849(4)
O91 O 0.1845(2) 0.2282(4) 0.0819(2)
O92 O 0.1623(2) 0.1270(4) 0.0571(2)
O93 O 0.1855(3) 0.0360(6) 0.0884(3)
O94 O 0.2392(3) 0.0387(5) 0.1239(3)
O95 O 0.2581(3) 0.1400(7) 0.1501(3)
O96 O 0.2377(3) 0.2329(5) 0.1194(3)
C366 C 0.2324(4) 0.0608(7) 0.0369(4)
C367 C 0.2295(4) 0.0135(8) 0.0165(4)
N62 N 0.2352(3) 0.1000(6) 0.0526(3)
K14 K 0.21229(8) 0.13638(15) 0.10010(8)
C368 C 0.5082(6) 0.9972(12) 0.7761(6)
C369 C 0.4959(8) 1.0597(15) 0.7655(8)
C370 C 0.4721(5) 1.1285(9) 0.7877(5)
C371 C 0.4590(5) 1.1301(10) 0.8127(5)
C372 C 0.4175(8) 1.0966(14) 0.8249(7)
C373 C 0.3884(7) 1.0652(14) 0.8210(7)
C374 C 0.3675(6) 0.9881(12) 0.8090(6)
C375 C 0.3722(6) 0.9329(11) 0.8007(6)
C376 C 0.3971(4) 0.8656(8) 0.7659(4)
C377 C 0.4116(5) 0.8632(9) 0.7444(5)
C378 C 0.4564(4) 0.8975(8) 0.7361(4)
C379 C 0.4862(5) 0.9168(9) 0.7544(5)
O97 O 0.4816(3) 0.9765(6) 0.7584(3)
O98 O 0.4839(4) 1.0718(9) 0.7899(4)
O99 O 0.4335(4) 1.1039(7) 0.8072(4)
O100 O 0.3951(3) 1.0179(7) 0.8145(3)
O101 O 0.3865(4) 0.9225(7) 0.7744(3)
O102 O 0.4389(3) 0.8930(6) 0.7560(3)
K15 K 0.43967(13) 0.9936(2) 0.78582(12)
K16 K 0.61009(13) 0.8628(3) 0.47739(14)
O103 O 0.38582(13) 0.3603(2) 0.85195(13)
O104 O 0.38983(12) 0.2636(2) 0.87342(12)
O105 O 0.41152(14) 0.2860(3) 0.83078(14)
O106 O 0.35823(13) 0.2825(2) 0.82554(13)
P1 P 0.38630(5) 0.29795(9) 0.84576(5)
O107 O 0.92778(11) 0.8940(2) 0.20138(11)
O108 O 0.90758(10) 0.8185(2) 0.22756(10)
O109 O 0.96074(11) 0.8273(2) 0.23249(11)
O110 O 0.93051(11) 0.7938(2) 0.18570(11)
P2 P 0.93185(4) 0.83320(8) 0.21127(4)
O111 O 0.06407(11) 0.3470(2) 0.04114(11)
O112 O 0.11401(12) 0.3267(2) 0.06909(12)
O113 O 0.10297(12) 0.3181(2) 0.01565(12)
O114 O 0.08235(12) 0.2482(2) 0.04479(12)
P3 P 0.09045(4) 0.31010(8) 0.04271(4)
O115 O 0.71884(12) 0.3191(2) 0.04656(12)
O116 O 0.70926(12) 0.3217(2) -0.00728(13)
O117 O 0.74093(12) 0.2466(2) 0.01943(12)
O118 O 0.75844(11) 0.3453(2) 0.02095(11)
P4 P 0.73212(4) 0.30838(8) 0.02018(4)
H210? H 0.9774 -0.5483 0.0547
H211? H 0.9766 -0.6047 0.0705
C380? C 0.1477(6) 0.5630(11) 0.2041(6)
C381? C 0.1551(6) 0.6154(11) 0.1929(6)
C382? C 0.1615(4) 0.6698(8) 0.1501(4)
C383? C 0.1678(5) 0.6635(9) 0.1237(5)
O119? O 0.1607(3) 0.6171(6) 0.1653(3)
C384? C 0.6601(7) 0.7844(15) 0.5353(8)
C385? C 0.6591(9) 0.7722(16) 0.5089(9)
C386? C 0.6132(5) 0.7239(9) 0.4980(5)
C387? C 0.5875(7) 0.7218(13) 0.4774(6)
C388? C 0.5449(6) 0.7664(12) 0.4601(6)
C389? C 0.5363(6) 0.8293(11) 0.4603(6)
C390? C 0.5361(7) 0.9116(14) 0.4419(7)
C391? C 0.5573(5) 0.9553(10) 0.4358(5)
C392? C 0.6060(7) 1.0065(15) 0.4561(7)
C393? C 0.6298(6) 1.0128(11) 0.4901(6)
C394? C 0.6549(7) 0.9517(12) 0.5324(7)
O120? O 0.6539(4) 0.8524(8) 0.5305(4)
O121? O 0.6301(3) 0.7628(6) 0.4933(3)
O122? O 0.5728(4) 0.7775(7) 0.4797(4)
O123? O 0.5529(4) 0.8681(8) 0.4480(4)
O124? O 0.5828(5) 0.9641(9) 0.4584(5)
O125? O 0.6357(4) 0.9560(7) 0.5069(4)
K17? K 0.6171(4) 0.8729(8) 0.4605(4)
O126? O 0.7505(5) 0.3241(10) 0.8857(5)
C395? C 0.7216(8) 0.3951(16) 0.8672(8)
C396? C 0.7413(9) 0.3705(18) 0.8997(9)
C397? C 0.7697(5) 0.2924(11) 0.9081(5)
C398? C 0.7748(5) 0.2385(9) 0.8984(5)
K18? K 0.20310(14) 0.1061(3) 0.10819(14)
C399? C 0.3029(5) 0.1795(9) 0.3045(5)
C400? C 0.2974(6) 0.1581(12) 0.3319(6)
C401? C 0.3018(6) 0.0717(11) 0.3620(6)
C402? C 0.3207(5) 0.0259(10) 0.3704(5)
O127? O 0.3112(2) 0.1019(5) 0.3380(2)
C403? C 0.3401(7) 1.5567(14) 0.5271(7)
C404? C 0.3033(4) 1.7692(8) 0.5849(4)
C405? C 0.2790(5) 1.7611(10) 0.5587(5)
C406? C 0.2967(4) 1.7459(7) 0.5207(3)
C407? C 0.3013(4) 1.6972(7) 0.4984(4)
C408? C 0.3251(6) 1.6094(12) 0.4958(6)
C409? C 0.3626(7) 1.5069(13) 0.5644(6)
C410? C 0.3649(5) 1.5414(10) 0.6116(5)
C411? C 0.3535(3) 1.5788(6) 0.6325(3)
C412? C 0.3400(4) 1.6687(7) 0.6368(4)
C413? C 0.3334(3) 1.7264(6) 0.6213(3)
O128? O 0.3083(2) 1.7205(4) 0.5998(2)
O129? O 0.2811(2) 1.7206(5) 0.5397(2)
O130? O 0.3173(2) 1.6544(5) 0.5139(2)
O131? O 0.3431(4) 1.5276(8) 0.5911(4)
O132? O 0.3454(2) 1.6316(4) 0.6175(2)
C414? C 1.6647(12) 0.803(2) 0.2581(11)
C415? C 1.6438(9) 0.6912(18) 0.2580(9)
O133? O 1.6373(4) 0.7510(8) 0.2516(4)
C416? C 1.5706(6) 0.6424(10) 0.2270(5)
C417? C 1.5603(4) 0.6480(9) 0.1949(5)
C418? C 1.5389(6) 0.7057(11) 0.1588(6)
C419? C 1.5316(11) 0.758(2) 0.1530(10)
O134? O 1.6014(4) 0.6638(8) 0.2322(4)
O135? O 1.5530(3) 0.7046(6) 0.1891(3)
C420? C 1.6176(8) 0.9149(15) 0.1832(7)
C421? C 1.5554(8) 0.8565(15) 0.1518(7)
C422? C 1.5818(6) 0.8725(11) 0.1505(6)
O136? O 1.5960(4) 0.8793(8) 0.1807(4)
O137? O 1.5621(5) 0.8043(11) 0.1551(5)
C423? C 1.6400(7) 0.9108(14) 0.2192(7)
O138? O 1.6436(4) 0.8501(9) 0.2262(4)
O139? O 0.3320(5) 0.0114(9) 0.6675(5)
K19? K 0.4211(2) 0.9833(4) 0.77883(19)
K20? K 1.22359(12) -0.6567(2) -0.11303(13)
O140? O 1.2321(3) -0.5666(6) -0.1510(3)
loop_
_geom_bond_atom_site_label_1
_geom_bond_atom_site_label_2
_geom_bond_site_symmetry_1
_geom_bond_site_symmetry_2
C1 H1 1_555 1_555
C2 C1 1_555 1_555
C3 C2 1_555 1_555
H2 C3 1_555 1_555
C4 C3 1_555 1_555
C5 C4 1_555 1_555
H3 C5 1_555 1_555
C6 C1 1_555 1_555
C7 C2 1_555 1_555
C8 C7 1_555 1_555
H4 C8 1_555 1_555
C9 C8 1_555 1_555
H5 C9 1_555 1_555
C10 C9 1_555 1_555
C11 C10 1_555 1_555
H6 C11 1_555 1_555
C12 C7 1_555 1_555
H7 C12 1_555 1_555
C13 N1 1_555 1_555
C14 C15 1_555 1_555
C15 H8 1_555 1_555
C16 C15 1_555 1_555
H9 C16 1_555 1_555
C17 C16 1_555 1_555
H10 C17 1_555 1_555
C18 C17 1_555 1_555
H11 C18 1_555 1_555
C19 C14 1_555 1_555
C20 N3 1_555 1_555
C21 C22 1_555 1_555
C22 H12 1_555 1_555
C23 C22 1_555 1_555
H13 C23 1_555 1_555
C24 C23 1_555 1_555
C25 C24 1_555 1_555
H14 C25 1_555 1_555
C26 C21 1_555 1_555
H15 C26 1_555 1_555
C27 C4 1_555 1_555
C28 C27 1_555 1_555
H16 C28 1_555 1_555
C29 C28 1_555 1_555
H17 C29 1_555 1_555
C30 C29 1_555 1_555
C31 C30 1_555 1_555
H18 C31 1_555 1_555
C32 C27 1_555 1_555
H19 C32 1_555 1_555
C33 N6 1_555 1_555
C34 C35 1_555 1_555
C35 H20 1_555 1_555
C36 C35 1_555 1_555
H21 C36 1_555 1_555
C37 C36 1_555 1_555
H22 C37 1_555 1_555
C38 C37 1_555 1_555
H23 C38 1_555 1_555
C39 C34 1_555 1_555
C40 N8 1_555 1_555
C41 C42 1_555 1_555
C42 H24 1_555 1_555
C43 C42 1_555 1_555
H25 C43 1_555 1_555
C44 C43 1_555 1_555
C45 C44 1_555 1_555
H26 C45 1_555 1_555
C46 C41 1_555 1_555
H27 C46 1_555 1_555
C47 C6 1_555 1_555
C48 C47 1_555 1_555
H28 C48 1_555 1_555
C49 C48 1_555 1_555
H29 C49 1_555 1_555
C50 C49 1_555 1_555
C51 C50 1_555 1_555
H30 C51 1_555 1_555
C52 C47 1_555 1_555
H31 C52 1_555 1_555
C53 N11 1_555 1_555
C54 C55 1_555 1_555
C55 H32 1_555 1_555
C56 C55 1_555 1_555
H33 C56 1_555 1_555
C57 C56 1_555 1_555
H34 C57 1_555 1_555
C58 C57 1_555 1_555
H35 C58 1_555 1_555
C59 C54 1_555 1_555
C60 N13 1_555 1_555
C61 C62 1_555 1_555
C62 H36 1_555 1_555
C63 C62 1_555 1_555
H37 C63 1_555 1_555
C64 C63 1_555 1_555
C65 C64 1_555 1_555
H38 C65 1_555 1_555
C66 C61 1_555 1_555
H39 C66 1_555 1_555
N1 C10 1_555 1_555
H40 N1 1_555 1_555
N2 C13 1_555 1_555
H41 N2 1_555 1_555
N3 C19 1_555 1_555
H42 N3 1_555 1_555
N4 C20 1_555 1_555
H43 N4 1_555 1_555
N5 C24 1_555 1_555
N6 C30 1_555 1_555
H44 N6 1_555 1_555
N7 C33 1_555 1_555
H45 N7 1_555 1_555
N8 C39 1_555 1_555
H46 N8 1_555 1_555
N9 C40 1_555 1_555
H47 N9 1_555 1_555
N10 C44 1_555 1_555
N11 C50 1_555 1_555
H48 N11 1_555 1_555
N12 C53 1_555 1_555
H49 N12 1_555 1_555
N13 C59 1_555 1_555
H50 N13 1_555 1_555
N14 C60 1_555 1_555
H51 N14 1_555 1_555
N15 C64 1_555 1_555
O1 C13 1_555 1_555
O2 C20 1_555 1_555
O3 N5 1_555 1_555
O4 N5 1_555 1_555
O5 C33 1_555 1_555
O6 C40 1_555 1_555
O7 N10 1_555 1_555
O8 N10 1_555 1_555
O9 C53 1_555 1_555
O10 C60 1_555 1_555
O11 N15 1_555 1_555
O12 N15 1_555 1_555
C67 C68 1_555 1_555
C68 H52 1_555 1_555
C69 C68 1_555 1_555
C70 C69 1_555 1_555
H53 C70 1_555 1_555
C71 C70 1_555 1_555
C72 C67 1_555 1_555
H54 C72 1_555 1_555
C73 C71 1_555 1_555
C74 C73 1_555 1_555
H55 C74 1_555 1_555
C75 C74 1_555 1_555
H56 C75 1_555 1_555
C76 C75 1_555 1_555
C77 C76 1_555 1_555
H57 C77 1_555 1_555
C78 C73 1_555 1_555
H58 C78 1_555 1_555
C79 N16 1_555 1_555
C80 C81 1_555 1_555
C81 H59 1_555 1_555
C82 C81 1_555 1_555
H60 C82 1_555 1_555
C83 C82 1_555 1_555
H61 C83 1_555 1_555
C84 C83 1_555 1_555
H62 C84 1_555 1_555
C85 C80 1_555 1_555
C86 N18 1_555 1_555
C87 C88 1_555 1_555
C88 H63 1_555 1_555
C89 C88 1_555 1_555
H64 C89 1_555 1_555
C90 C89 1_555 1_555
C91 C90 1_555 1_555
H65 C91 1_555 1_555
C92 C87 1_555 1_555
H66 C92 1_555 1_555
C93 C69 1_555 1_555
C94 C93 1_555 1_555
H67 C94 1_555 1_555
C95 C94 1_555 1_555
H68 C95 1_555 1_555
C96 C95 1_555 1_555
C97 C96 1_555 1_555
H69 C97 1_555 1_555
C98 C93 1_555 1_555
H70 C98 1_555 1_555
C99 N21 1_555 1_555
C100 C101 1_555 1_555
C101 H71 1_555 1_555
C102 C101 1_555 1_555
H72 C102 1_555 1_555
C103 C102 1_555 1_555
H73 C103 1_555 1_555
C104 C103 1_555 1_555
H74 C104 1_555 1_555
C105 C100 1_555 1_555
C106 N23 1_555 1_555
C107 C108 1_555 1_555
C108 H75 1_555 1_555
C109 C108 1_555 1_555
H76 C109 1_555 1_555
C110 C109 1_555 1_555
C111 C110 1_555 1_555
H77 C111 1_555 1_555
C112 C107 1_555 1_555
H78 C112 1_555 1_555
C113 C67 1_555 1_555
C114 C113 1_555 1_555
H79 C114 1_555 1_555
C115 C114 1_555 1_555
H80 C115 1_555 1_555
C116 C115 1_555 1_555
C117 C116 1_555 1_555
H81 C117 1_555 1_555
C118 C113 1_555 1_555
H82 C118 1_555 1_555
C119 N26 1_555 1_555
C120 C121 1_555 1_555
C121 H83 1_555 1_555
C122 C121 1_555 1_555
H84 C122 1_555 1_555
C123 C122 1_555 1_555
H85 C123 1_555 1_555
C124 C123 1_555 1_555
H86 C124 1_555 1_555
C125 C120 1_555 1_555
C126 N28 1_555 1_555
C127 C128 1_555 1_555
C128 H87 1_555 1_555
C129 C128 1_555 1_555
H88 C129 1_555 1_555
C130 C129 1_555 1_555
C131 C130 1_555 1_555
H89 C131 1_555 1_555
C132 C127 1_555 1_555
H90 C132 1_555 1_555
N16 C76 1_555 1_555
H91 N16 1_555 1_555
N17 C79 1_555 1_555
H92 N17 1_555 1_555
N18 C85 1_555 1_555
H93 N18 1_555 1_555
N19 C86 1_555 1_555
H94 N19 1_555 1_555
N20 C90 1_555 1_555
N21 C96 1_555 1_555
H95 N21 1_555 1_555
N22 C99 1_555 1_555
H96 N22 1_555 1_555
N23 C105 1_555 1_555
H97 N23 1_555 1_555
N24 C106 1_555 1_555
H98 N24 1_555 1_555
N25 C110 1_555 1_555
N26 C116 1_555 1_555
H99 N26 1_555 1_555
N27 C119 1_555 1_555
H100 N27 1_555 1_555
N28 C125 1_555 1_555
H101 N28 1_555 1_555
N29 C126 1_555 1_555
H102 N29 1_555 1_555
N30 C130 1_555 1_555
O13 C79 1_555 1_555
O14 C86 1_555 1_555
O15 N20 1_555 1_555
O16 N20 1_555 1_555
O17 C99 1_555 1_555
O18 C106 1_555 1_555
O19 N25 1_555 1_555
O20 N25 1_555 1_555
O21 C119 1_555 1_555
O22 C126 1_555 1_555
O23 N30 1_555 1_555
O24 N30 1_555 1_555
C133 C134 1_555 1_555
C134 O25 1_555 1_555
C135 C136 1_555 1_555
C136 O26 1_555 1_555
C137 C138 1_555 1_555
C138 O27 1_555 1_555
C139 C140 1_555 1_555
C140 O28 1_555 1_555
C141 C142 1_555 1_555
C142 O29 1_555 1_555
C143 C144 1_555 1_555
C144 O30 1_555 1_555
O25 C135 1_555 1_555
O26 C137 1_555 1_555
O27 C139 1_555 1_555
O28 C141 1_555 1_555
O29 C143 1_555 1_555
O30 C133 1_555 1_555
C145 C146 1_555 1_555
C146 O32 1_555 1_555
C147 C148 1_555 1_555
C148 O33 1_555 1_555
C149 C150 1_555 1_555
C150 O34 1_555 1_555
C151 C152 1_555 1_555
C152 O35 1_555 1_555
C153 C154 1_555 1_555
C154 O36 1_555 1_555
C155 C156 1_555 1_555
C156 O31 1_555 1_555
O31 C145 1_555 1_555
O32 C147 1_555 1_555
O33 C149 1_555 1_555
O34 C151 1_555 1_555
O35 C153 1_555 1_555
O36 C155 1_555 1_555
C157 C158 1_555 1_555
C158 O38 1_555 1_555
C159 C160 1_555 1_555
C160 O39 1_555 1_555
C161 C162 1_555 1_555
C162 O40 1_555 1_555
C163 C164 1_555 1_555
C164 O41 1_555 1_555
C165 C166 1_555 1_555
C166 O42 1_555 1_555
C167 C168 1_555 1_555
C168 O37 1_555 1_555
O37 C157 1_555 1_555
O38 C159 1_555 1_555
O39 C161 1_555 1_555
O40 C163 1_555 1_555
O41 C165 1_555 1_555
O42 C167 1_555 1_555
C169 C170 1_555 1_555
C170 O43 1_555 1_555
C171 C172 1_555 1_555
C172 O44 1_555 1_555
C173 C174 1_555 1_555
C174 O45 1_555 1_555
C175 C176 1_555 1_555
C176 O46 1_555 1_555
C177 C178 1_555 1_555
C178 O47 1_555 1_555
C179 C180 1_555 1_555
C180 O48 1_555 1_555
O43 C171 1_555 1_555
O44 C173 1_555 1_555
O45 C175 1_555 1_555
O46 C177 1_555 1_555
O47 C179 1_555 1_555
O48 C169 1_555 1_555
C181 C182 1_555 1_555
C182 H103 1_555 1_555
C183 C182 1_555 1_555
C184 C183 1_555 1_555
H104 C184 1_555 1_555
C185 C184 1_555 1_555
C186 C181 1_555 1_555
H105 C186 1_555 1_555
C187 C183 1_555 1_555
C188 C187 1_555 1_555
H106 C188 1_555 1_555
C189 C188 1_555 1_555
H107 C189 1_555 1_555
C190 C189 1_555 1_555
C191 C190 1_555 1_555
H108 C191 1_555 1_555
C192 C187 1_555 1_555
H109 C192 1_555 1_555
C193 N31 1_555 1_555
C194 C195 1_555 1_555
C195 H110 1_555 1_555
C196 C195 1_555 1_555
H111 C196 1_555 1_555
C197 C196 1_555 1_555
H112 C197 1_555 1_555
C198 C197 1_555 1_555
H113 C198 1_555 1_555
C199 C194 1_555 1_555
C200 N33 1_555 1_555
C201 C202 1_555 1_555
C202 H114 1_555 1_555
C203 C202 1_555 1_555
H115 C203 1_555 1_555
C204 C203 1_555 1_555
C205 C204 1_555 1_555
H116 C205 1_555 1_555
C206 C201 1_555 1_555
H117 C206 1_555 1_555
C207 C181 1_555 1_555
C208 C207 1_555 1_555
H118 C208 1_555 1_555
C209 C208 1_555 1_555
H119 C209 1_555 1_555
C210 C209 1_555 1_555
C211 C210 1_555 1_555
H120 C211 1_555 1_555
C212 C207 1_555 1_555
H121 C212 1_555 1_555
C213 N36 1_555 1_555
C214 C215 1_555 1_555
C215 H122 1_555 1_555
C216 C215 1_555 1_555
H123 C216 1_555 1_555
C217 C216 1_555 1_555
H124 C217 1_555 1_555
C218 C217 1_555 1_555
H125 C218 1_555 1_555
C219 C214 1_555 1_555
C220 N38 1_555 1_555
C221 C222 1_555 1_555
C222 H126 1_555 1_555
C223 C222 1_555 1_555
H127 C223 1_555 1_555
C224 C223 1_555 1_555
C225 C224 1_555 1_555
H128 C225 1_555 1_555
C226 C221 1_555 1_555
H129 C226 1_555 1_555
C227 C185 1_555 1_555
C228 C227 1_555 1_555
H130 C228 1_555 1_555
C229 C228 1_555 1_555
H131 C229 1_555 1_555
C230 C229 1_555 1_555
C231 C230 1_555 1_555
H132 C231 1_555 1_555
C232 C227 1_555 1_555
H133 C232 1_555 1_555
C233 N41 1_555 1_555
C234 C235 1_555 1_555
C235 H134 1_555 1_555
C236 C235 1_555 1_555
H135 C236 1_555 1_555
C237 C236 1_555 1_555
H136 C237 1_555 1_555
C238 C237 1_555 1_555
H137 C238 1_555 1_555
C239 C234 1_555 1_555
C240 N43 1_555 1_555
C241 C242 1_555 1_555
C242 H138 1_555 1_555
C243 C242 1_555 1_555
H139 C243 1_555 1_555
C244 C243 1_555 1_555
C245 C244 1_555 1_555
H140 C245 1_555 1_555
C246 C241 1_555 1_555
H141 C246 1_555 1_555
N31 C190 1_555 1_555
H142 N31 1_555 1_555
N32 C193 1_555 1_555
H143 N32 1_555 1_555
N33 C199 1_555 1_555
H144 N33 1_555 1_555
N34 C200 1_555 1_555
H145 N34 1_555 1_555
N35 C204 1_555 1_555
N36 C210 1_555 1_555
H146 N36 1_555 1_555
N37 C213 1_555 1_555
H147 N37 1_555 1_555
N38 C219 1_555 1_555
H148 N38 1_555 1_555
N39 C220 1_555 1_555
H149 N39 1_555 1_555
N40 C224 1_555 1_555
N41 C230 1_555 1_555
H150 N41 1_555 1_555
N42 C233 1_555 1_555
H151 N42 1_555 1_555
N43 C239 1_555 1_555
H152 N43 1_555 1_555
N44 C240 1_555 1_555
H153 N44 1_555 1_555
N45 C244 1_555 1_555
O49 C193 1_555 1_555
O50 C200 1_555 1_555
O51 N35 1_555 1_555
O52 N35 1_555 1_555
O53 C213 1_555 1_555
O54 C220 1_555 1_555
O55 N40 1_555 1_555
O56 N40 1_555 1_555
O57 C233 1_555 1_555
O58 C240 1_555 1_555
O59 N45 1_555 1_555
O60 N45 1_555 1_555
C247 C248 1_555 1_555
N46 C247 1_555 1_555
C249 H154 1_555 1_555
C250 C249 1_555 1_555
C251 C250 1_555 1_555
H155 C251 1_555 1_555
C252 C251 1_555 1_555
C253 C252 1_555 1_555
H156 C253 1_555 1_555
C254 C249 1_555 1_555
C255 C254 1_555 1_555
C256 C255 1_555 1_555
H157 C256 1_555 1_555
C257 C256 1_555 1_555
H158 C257 1_555 1_555
C258 C257 1_555 1_555
C259 C258 1_555 1_555
H159 C259 1_555 1_555
C260 C255 1_555 1_555
H160 C260 1_555 1_555
C261 N47 1_555 1_555
C262 C263 1_555 1_555
C263 H161 1_555 1_555
C264 C263 1_555 1_555
H162 C264 1_555 1_555
C265 C264 1_555 1_555
H163 C265 1_555 1_555
C266 C265 1_555 1_555
H164 C266 1_555 1_555
C267 C262 1_555 1_555
C268 N49 1_555 1_555
C269 C270 1_555 1_555
C270 H165 1_555 1_555
C271 C270 1_555 1_555
H166 C271 1_555 1_555
C272 C271 1_555 1_555
C273 C272 1_555 1_555
H167 C273 1_555 1_555
C274 C269 1_555 1_555
H168 C274 1_555 1_555
C275 C252 1_555 1_555
C276 C275 1_555 1_555
C277 C276 1_555 1_555
H169 C277 1_555 1_555
C278 C277 1_555 1_555
C279 C278 1_555 1_555
H170 C279 1_555 1_555
C280 C275 1_555 1_555
H171 C280 1_555 1_555
C281 N52 1_555 1_555
C282 C283 1_555 1_555
C283 H172 1_555 1_555
C284 C283 1_555 1_555
H173 C284 1_555 1_555
C285 C284 1_555 1_555
H174 C285 1_555 1_555
C286 C285 1_555 1_555
H175 C286 1_555 1_555
C287 C282 1_555 1_555
C288 N54 1_555 1_555
C289 C290 1_555 1_555
C290 H176 1_555 1_555
C291 C290 1_555 1_555
H177 C291 1_555 1_555
C292 C291 1_555 1_555
C293 C292 1_555 1_555
H178 C293 1_555 1_555
C294 C289 1_555 1_555
H179 C294 1_555 1_555
C295 C250 1_555 1_555
C296 C295 1_555 1_555
H180 C296 1_555 1_555
C297 C296 1_555 1_555
H181 C297 1_555 1_555
C298 C297 1_555 1_555
C299 C298 1_555 1_555
H182 C299 1_555 1_555
C300 C295 1_555 1_555
H183 C300 1_555 1_555
C301 N57 1_555 1_555
C302 C303 1_555 1_555
C303 H184 1_555 1_555
C304 C303 1_555 1_555
H185 C304 1_555 1_555
C305 C304 1_555 1_555
H186 C305 1_555 1_555
C306 C305 1_555 1_555
H187 C306 1_555 1_555
C307 C302 1_555 1_555
C308 N59 1_555 1_555
C309 C310 1_555 1_555
C310 H188 1_555 1_555
C311 C310 1_555 1_555
H189 C311 1_555 1_555
C312 C311 1_555 1_555
C313 C312 1_555 1_555
H190 C313 1_555 1_555
C314 C309 1_555 1_555
H191 C314 1_555 1_555
N47 C258 1_555 1_555
H192 N47 1_555 1_555
N48 C261 1_555 1_555
H193 N48 1_555 1_555
N49 C267 1_555 1_555
H194 N49 1_555 1_555
N50 C268 1_555 1_555
H195 N50 1_555 1_555
N51 C272 1_555 1_555
N52 C278 1_555 1_555
H196 N52 1_555 1_555
N53 C281 1_555 1_555
H197 N53 1_555 1_555
N54 C287 1_555 1_555
H198 N54 1_555 1_555
N55 C288 1_555 1_555
H199 N55 1_555 1_555
N56 C292 1_555 1_555
N57 C298 1_555 1_555
H200 N57 1_555 1_555
N58 C301 1_555 1_555
H201 N58 1_555 1_555
N59 C307 1_555 1_555
H202 N59 1_555 1_555
N60 C308 1_555 1_555
H203 N60 1_555 1_555
N61 C312 1_555 1_555
O61 C261 1_555 1_555
O62 C268 1_555 1_555
O63 N51 1_555 1_555
O64 N51 1_555 1_555
O65 C281 1_555 1_555
O66 C288 1_555 1_555
O67 N56 1_555 1_555
O68 N56 1_555 1_555
O69 C301 1_555 1_555
O70 C308 1_555 1_555
O71 N61 1_555 1_555
O72 N61 1_555 1_555
C315 C316 1_555 1_555
C316 O74 1_555 1_555
C317 C318 1_555 1_555
C318 O75 1_555 1_555
C319 C320 1_555 1_555
C320 O76 1_555 1_555
C321 C322 1_555 1_555
C322 O77 1_555 1_555
C323 C324 1_555 1_555
C324 O78 1_555 1_555
C325 C326 1_555 1_555
C326 O73 1_555 1_555
O73 C315 1_555 1_555
O74 C317 1_555 1_555
O75 C319 1_555 1_555
O76 C321 1_555 1_555
O77 C323 1_555 1_555
O78 C325 1_555 1_555
C327 C328 1_555 1_555
C328 O80 1_555 1_555
C329 C330 1_555 1_555
C330 O81 1_555 1_555
C331 C332 1_555 1_555
C332 O82 1_555 1_555
C333 C334 1_555 1_555
C334 O83 1_555 1_555
C335 C336 1_555 1_555
C336 O84 1_555 1_555
C337 C338 1_555 1_555
C338 O79 1_555 1_555
O79 C327 1_555 1_555
O80 C329 1_555 1_555
O81 C331 1_555 1_555
O82 C333 1_555 1_555
O83 C335 1_555 1_555
O84 C337 1_555 1_555
C339 C340 1_555 1_555
C340 O86 1_555 1_555
C341 C342 1_555 1_555
C342 O87 1_555 1_555
C343 C344 1_555 1_555
C344 O88 1_555 1_555
C345 C346 1_555 1_555
C346 O89 1_555 1_555
C347 C348 1_555 1_555
C348 O90 1_555 1_555
C349 C350 1_555 1_555
C350 O85 1_555 1_555
O85 C339 1_555 1_555
O86 C341 1_555 1_555
O87 C343 1_555 1_555
O88 C345 1_555 1_555
O89 C347 1_555 1_555
O90 C349 1_555 1_555
Cl1 C351 1_555 1_555
C351 C352 1_555 1_555
C352 H204 1_555 1_555
H205 C352 1_555 1_555
H206 C352 1_555 1_555
Cl2 C351 1_555 1_555
C353 C351 1_555 1_555
H207 C353 1_555 1_555
H208 C353 1_555 1_555
H209 C353 1_555 1_555
C354 C355 1_555 1_555
C355 O92 1_555 1_555
C356 C357 1_555 1_555
C357 O93 1_555 1_555
C358 C359 1_555 1_555
C359 O94 1_555 1_555
C360 C361 1_555 1_555
C361 O95 1_555 1_555
C362 C363 1_555 1_555
C363 O96 1_555 1_555
C364 C365 1_555 1_555
C365 O91 1_555 1_555
O91 C354 1_555 1_555
O92 C356 1_555 1_555
O93 C358 1_555 1_555
O94 C360 1_555 1_555
O95 C362 1_555 1_555
O96 C364 1_555 1_555
C366 C367 1_555 1_555
N62 C366 1_555 1_555
C368 C369 1_555 1_555
C369 O98 1_555 1_555
C370 C371 1_555 1_555
C371 O99 1_555 1_555
C372 C373 1_555 1_555
C373 O100 1_555 1_555
C374 C375 1_555 1_555
C375 O101 1_555 1_555
C376 C377 1_555 1_555
C377 O102 1_555 1_555
C378 C379 1_555 1_555
C379 O97 1_555 1_555
O97 C368 1_555 1_555
O98 C370 1_555 1_555
O99 C372 1_555 1_555
O100 C374 1_555 1_555
O101 C376 1_555 1_555
O102 C378 1_555 1_555
O103 P1 1_555 1_555
O104 P1 1_555 1_555
O105 P1 1_555 1_555
O106 P1 1_555 1_555
O107 P2 1_555 1_555
O108 P2 1_555 1_555
O109 P2 1_555 1_555
O110 P2 1_555 1_555
O111 P3 1_555 1_555
O112 P3 1_555 1_555
O113 P3 1_555 1_555
O114 P3 1_555 1_555
O115 P4 1_555 1_555
O116 P4 1_555 1_555
O117 P4 1_555 1_555
O118 P4 1_555 1_555
C5 C6 1_555 1_555
C11 C12 1_555 1_555
C14 N2 1_555 1_555
C18 C19 1_555 1_555
C21 N4 1_555 1_555
C25 C26 1_555 1_555
C31 C32 1_555 1_555
C34 N7 1_555 1_555
C38 C39 1_555 1_555
C41 N9 1_555 1_555
C45 C46 1_555 1_555
C51 C52 1_555 1_555
C54 N12 1_555 1_555
C58 C59 1_555 1_555
C61 N14 1_555 1_555
C65 C66 1_555 1_555
C71 C72 1_555 1_555
C77 C78 1_555 1_555
C80 N17 1_555 1_555
C84 C85 1_555 1_555
C87 N19 1_555 1_555
C91 C92 1_555 1_555
C97 C98 1_555 1_555
C100 N22 1_555 1_555
C104 C105 1_555 1_555
C107 N24 1_555 1_555
C111 C112 1_555 1_555
C117 C118 1_555 1_555
C120 N27 1_555 1_555
C124 C125 1_555 1_555
C127 N29 1_555 1_555
C131 C132 1_555 1_555
C185 C186 1_555 1_555
C191 C192 1_555 1_555
C194 N32 1_555 1_555
C198 C199 1_555 1_555
C201 N34 1_555 1_555
C205 C206 1_555 1_555
C211 C212 1_555 1_555
C214 N37 1_555 1_555
C218 C219 1_555 1_555
C221 N39 1_555 1_555
C225 C226 1_555 1_555
C231 C232 1_555 1_555
C234 N42 1_555 1_555
C238 C239 1_555 1_555
C241 N44 1_555 1_555
C245 C246 1_555 1_555
C253 C254 1_555 1_555
C259 C260 1_555 1_555
C262 N48 1_555 1_555
C266 C267 1_555 1_555
C269 N50 1_555 1_555
C273 C274 1_555 1_555
C279 C280 1_555 1_555
C282 N53 1_555 1_555
C286 C287 1_555 1_555
C289 N55 1_555 1_555
C293 C294 1_555 1_555
C299 C300 1_555 1_555
C302 N58 1_555 1_555
C306 C307 1_555 1_555
C309 N60 1_555 1_555
C313 C314 1_555 1_555

#END
