
#######################################################################
#
#                 Cambridge Crystallographic Data Centre
#                                CCDC 
#
#######################################################################
#
# If this CIF has been generated from an entry in the Cambridge 
# Structural Database, then it will include bibliographic, chemical, 
# crystal, experimental, refinement or atomic coordinate data resulting 
# from the CCDC's data processing and validation procedures.
#
#######################################################################

data_VULZIN
_chemical_formula_moiety         
'4(C66 H51 N15 O12),12(K1 1+),12(C12 H24 O6),4(O4 P1 3-),C1 Cl4,2(C2 H3 N1)'
_chemical_name_systematic        
'tetrakis(1,3,5-tris(4-(3-(2-(3-(4-Nitrophenyl)ureido)phenyl)ureido)phenyl)benzene) dodeca-potassium dodecakis(18-crown-6) tetrakis(phosphate) acetonitrile tetrachloromethane solvate'
_symmetry_cell_setting           monoclinic
_symmetry_space_group_name_H-M   'C c'
_symmetry_Int_Tables_number      9
_space_group_name_Hall           'C -2yc'
loop_
_symmetry_equiv_pos_site_id
_symmetry_equiv_pos_as_xyz
1 x,y,z
2 x,-y,1/2+z
3 1/2+x,1/2+y,z
4 1/2+x,1/2-y,1/2+z
_cell_length_a                   47.7554(12)
_cell_length_b                   24.0678(6)
_cell_length_c                   47.5410(11)
_cell_angle_alpha                90
_cell_angle_beta                 101.6550(10)
_cell_angle_gamma                90
_cell_volume                     53515.5
_exptl_crystal_colour            yellow
_exptl_crystal_description       block
_cell_formula_units_Z            4
loop_
_atom_site_label
_atom_site_type_symbol
_atom_site_fract_x
_atom_site_fract_y
_atom_site_fract_z
C1 C -0.4353(3) 0.5076(6) 0.2801(3)
C2 C -0.4553(3) 0.5420(6) 0.2672(3)
H1 H -0.4743 0.5365 0.2685
C3 C -0.4480(3) 0.5866(6) 0.2515(3)
C4 C -0.4193(3) 0.5928(5) 0.2506(3)
H2 H -0.4147 0.6221 0.2396
C5 C -0.3973(3) 0.5609(5) 0.2641(3)
C6 C -0.4062(4) 0.5170(7) 0.2804(4)
H3 H -0.3925 0.4941 0.2914
C7 C -0.3680(2) 0.5688(5) 0.2623(2)
C8 C -0.3580(3) 0.6138(5) 0.2506(3)
H4 H -0.3708 0.6428 0.2451
C9 C -0.3305(3) 0.6208(5) 0.2460(2)
H5 H -0.3255 0.6530 0.2374
C10 C -0.3104(2) 0.5788(5) 0.2546(2)
C11 C -0.3185(3) 0.5309(6) 0.2675(3)
H6 H -0.3056 0.5021 0.2730
C12 C -0.3465(3) 0.5271(6) 0.2723(3)
H7 H -0.3515 0.4964 0.2821
C13 C -0.2600(3) 0.5585(6) 0.2617(3)
C14 C -0.20703(19) 0.5604(5) 0.2641(2)
C15 C -0.1862(2) 0.5708(5) 0.2481(2)
C16 C -0.1580(2) 0.5562(6) 0.2589(3)
H8 H -0.1441 0.5632 0.2482
C17 C -0.1505(2) 0.5312(7) 0.2857(3)
H9 H -0.1315 0.5215 0.2929
C18 C -0.1712(3) 0.5208(7) 0.3017(2)
H10 H -0.1662 0.5041 0.3197
C19 C -0.1995(3) 0.5354(6) 0.2909(2)
H11 H -0.2134 0.5284 0.3016
C20 C -0.1793(3) 0.6060(7) 0.2002(3)
C21 C -0.1799(3) 0.6482(7) 0.1550(3)
C22 C -0.1988(3) 0.6667(6) 0.1302(3)
H12 H -0.2184 0.6680 0.1298
C23 C -0.1875(4) 0.6844(8) 0.1041(4)
H13 H -0.1996 0.6973 0.0875
C24 C -0.1586(4) 0.6805(8) 0.1059(4)
C25 C -0.1400(3) 0.6622(6) 0.1301(3)
H14 H -0.1207 0.6586 0.1296
C26 C -0.1494(3) 0.6482(6) 0.1566(3)
H15 H -0.1365 0.6399 0.1735
C27 C -0.4713(2) 0.6241(5) 0.2331(2)
C28 C -0.4990(3) 0.6238(6) 0.2386(3)
H16 H -0.5033 0.6014 0.2531
C29 C -0.5198(3) 0.6563(6) 0.2227(3)
H17 H -0.5377 0.6575 0.2274
C30 C -0.5149(2) 0.6876(5) 0.1998(2)
C31 C -0.4870(3) 0.6915(7) 0.1948(3)
H18 H -0.4824 0.7139 0.1805
C32 C -0.4660(3) 0.6582(6) 0.2135(3)
H19 H -0.4471 0.6612 0.2114
C33 C -0.5360(3) 0.7638(5) 0.1662(3)
C34 C -0.5657(2) 0.8318(4) 0.1355(2)
C35 C -0.59295(19) 0.8392(4) 0.1190(2)
C36 C -0.5993(2) 0.8868(5) 0.1024(2)
H20 H -0.6176 0.8918 0.0913
C37 C -0.5784(3) 0.9269(4) 0.1022(3)
H21 H -0.5827 0.9588 0.0911
C38 C -0.5512(2) 0.9195(4) 0.1187(3)
H22 H -0.5372 0.9463 0.1186
C39 C -0.54476(17) 0.8719(5) 0.1353(2)
H23 H -0.5265 0.8669 0.1463
C40 C -0.6341(4) 0.7840(8) 0.0961(4)
C41 C -0.6737(3) 0.7218(5) 0.0804(3)
C42 C -0.6849(3) 0.6703(5) 0.0855(2)
H24 H -0.6786 0.6526 0.1031
C43 C -0.7053(3) 0.6451(5) 0.0644(3)
H25 H -0.7128 0.6106 0.0678
C44 C -0.7146(3) 0.6715(8) 0.0382(3)
C45 C -0.7035(4) 0.7230(8) 0.0331(3)
H26 H -0.7097 0.7407 0.0155
C46 C -0.6831(4) 0.7482(5) 0.0542(4)
H27 H -0.6756 0.7827 0.0508
C47 C -0.4913(4) 0.3013(8) 0.3450(4)
C48 C -0.5129(3) 0.2302(5) 0.3697(3)
C49 C -0.5354(3) 0.2637(4) 0.3739(3)
H28 H -0.5356 0.3013 0.3692
C50 C -0.5577(3) 0.2411(6) 0.3850(4)
H29 H -0.5727 0.2635 0.3878
C51 C -0.5574(2) 0.1850(6) 0.3920(3)
H30 H -0.5723 0.1699 0.3995
C52 C -0.5349(3) 0.1515(4) 0.3879(3)
H31 H -0.5347 0.1140 0.3925
C53 C -0.5126(2) 0.1741(5) 0.3767(3)
C54 C -0.4899(3) 0.0937(5) 0.3645(2)
C55 C -0.4599(3) 0.0205(6) 0.3516(3)
C56 C -0.4307(3) -0.0017(6) 0.3570(3)
H32 H -0.4155 0.0203 0.3661
C57 C -0.4255(3) -0.0550(6) 0.3486(3)
H33 H -0.4075 -0.0707 0.3543
C58 C -0.4472(3) -0.0846(6) 0.3319(3)
C59 C -0.4719(4) -0.0652(8) 0.3246(4)
H34 H -0.4857 -0.0861 0.3124
C60 C -0.4803(3) -0.0106(6) 0.3347(3)
H35 H -0.4990 0.0019 0.3296
N1 N -0.2833(2) 0.5858(4) 0.2490(2)
H36 H -0.2814 0.6099 0.2362
N2 N -0.2349(2) 0.5827(5) 0.2549(2)
H37 H -0.2368 0.6125 0.2448
N3 N -0.1930(3) 0.6026(5) 0.2217(3)
H38 H -0.2083 0.6223 0.2197
N4 N -0.1906(2) 0.6357(5) 0.1770(2)
H39 H -0.2075 0.6483 0.1767
N5 N -0.1489(3) 0.6935(6) 0.0803(3)
N6 N -0.5378(2) 0.7177(4) 0.18344(19)
H40 H -0.5547 0.7063 0.1842
N7 N -0.5612(2) 0.7838(5) 0.1529(2)
H41 H -0.5761 0.7659 0.1552
N8 N -0.6163(3) 0.8010(5) 0.1202(3)
H42 H -0.6188 0.7891 0.1366
N9 N -0.6534(3) 0.7436(6) 0.1016(3)
H43 H -0.6523 0.7323 0.1189
N10 N -0.7383(5) 0.6397(10) 0.0141(5)
N11 N -0.4644(3) 0.3115(6) 0.3357(3)
H44 H -0.4516 0.2859 0.3380
N12 N -0.4897(3) 0.2547(5) 0.3615(3)
H45 H -0.4732 0.2395 0.3671
N13 N -0.4895(2) 0.1450(5) 0.3732(2)
H46 H -0.4733 0.1616 0.3770
N14 N -0.4637(2) 0.0714(5) 0.3618(2)
H47 H -0.4488 0.0918 0.3670
N15 N -0.4393(3) -0.1388(5) 0.3214(3)
O1 O -0.2581(2) 0.5150(4) 0.2772(2)
O2 O -0.1580(3) 0.5731(5) 0.1985(3)
O3 O -0.1202(3) 0.6936(5) 0.0817(3)
O4 O -0.1646(3) 0.7081(6) 0.0587(3)
O5 O -0.5118(2) 0.7828(4) 0.1635(2)
O6 O -0.6369(2) 0.8081(5) 0.0727(3)
O7 O -0.7433(4) 0.6752(9) -0.0051(5)
O8 O -0.7420(4) 0.5998(10) 0.0216(5)
O9 O -0.5125(3) 0.3258(6) 0.3336(3)
O10 O -0.51155(19) 0.0612(4) 0.36121(19)
O11 O -0.4152(2) -0.1545(5) 0.3260(2)
O12 O -0.4599(2) -0.1683(5) 0.3109(2)
C61 C -0.4427(3) 0.4557(6) 0.2961(3)
C62 C -0.4591(5) 0.3605(9) 0.3236(4)
C63 C -0.4677(7) 0.4462(13) 0.2990(6)
H48 H -0.4816 0.4737 0.2966
C64 C -0.4250(6) 0.4275(12) 0.3164(6)
H49 H -0.4066 0.4415 0.3224
C65 C -0.4315(9) 0.3815(18) 0.3286(9)
H50 H -0.4171 0.3625 0.3410
C66 C -0.4738(6) 0.3862(11) 0.3070(6)
H51 H -0.4908 0.3700 0.2976
K1 K -0.23360(8) 0.41806(16) 0.29079(8)
K2 K -0.6327(2) 0.7454(4) 0.0183(2)
C67 C -0.0211(3) 0.8737(6) 0.1613(3)
H52 H -0.0314 0.8974 0.1474
C68 C -0.0213(3) 0.8847(6) 0.1892(3)
C69 C -0.0043(3) 0.8472(6) 0.2101(3)
H53 H -0.0037 0.8530 0.2295
C70 C 0.0101(3) 0.8055(6) 0.2024(3)
C71 C 0.0107(3) 0.7975(6) 0.1736(3)
H54 H 0.0228 0.7707 0.1686
C72 C -0.0065(3) 0.8288(5) 0.1519(3)
C73 C -0.0090(3) 0.8168(5) 0.1217(3)
C74 C -0.0005(3) 0.7621(5) 0.1125(3)
H55 H 0.0060 0.7345 0.1259
C75 C -0.0024(3) 0.7525(6) 0.0841(2)
H56 H 0.0009 0.7166 0.0783
C76 C -0.0089(3) 0.7918(5) 0.0635(3)
C77 C -0.0173(3) 0.8433(6) 0.0712(3)
H57 H -0.0226 0.8707 0.0573
C78 C -0.0179(3) 0.8545(6) 0.1000(3)
H58 H -0.0246 0.8888 0.1047
C79 C -0.0243(3) 0.7994(6) 0.0101(3)
C80 C -0.0325(3) 0.7883(7) -0.0427(3)
C81 C -0.0612(4) 0.8111(7) -0.0476(4)
H59 H -0.0712 0.8159 -0.0329
C82 C -0.0731(4) 0.8257(8) -0.0771(4)
H60 H -0.0912 0.8417 -0.0814
C83 C -0.0589(4) 0.8170(8) -0.0989(4)
H61 H -0.0669 0.8268 -0.1177
C84 C -0.0316(3) 0.7928(6) -0.0920(3)
H62 H -0.0225 0.7844 -0.1070
C85 C -0.0174(3) 0.7806(6) -0.0645(3)
C86 C 0.0316(3) 0.7626(7) -0.0742(3)
C87 C 0.0783(2) 0.7259(5) -0.0777(2)
C88 C 0.1015(3) 0.6953(6) -0.0640(3)
H63 H 0.1015 0.6836 -0.0453
C89 C 0.1235(3) 0.6815(6) -0.0752(3)
H64 H 0.1387 0.6618 -0.0645
C90 C 0.1238(3) 0.6966(6) -0.1033(3)
C91 C 0.1017(3) 0.7301(6) -0.1193(3)
H65 H 0.1020 0.7416 -0.1379
C92 C 0.0789(3) 0.7452(7) -0.1053(3)
H66 H 0.0644 0.7683 -0.1147
C93 C 0.03080(19) 0.7709(3) 0.22466(16)
C94 C 0.0389(2) 0.7906(3) 0.25261(19)
H67 H 0.0343 0.8267 0.2570
C95 C 0.0539(2) 0.7564(4) 0.27401(14)
H68 H 0.0593 0.7696 0.2927
C96 C 0.06080(18) 0.7025(3) 0.26745(14)
C97 C 0.05271(18) 0.6828(3) 0.23950(17)
H69 H 0.0573 0.6467 0.2351
C98 C 0.03771(19) 0.7170(4) 0.21811(13)
H70 H 0.0323 0.7038 0.1994
C99 C 0.0903(3) 0.6229(5) 0.2896(3)
C100 C 0.1162(3) 0.5477(6) 0.3199(3)
C101 C 0.1115(3) 0.5083(6) 0.2992(3)
H71 H 0.0989 0.5148 0.2819
C102 C 0.1267(3) 0.4553(7) 0.3045(3)
H72 H 0.1244 0.4275 0.2906
C103 C 0.1445(3) 0.4483(6) 0.3310(3)
H73 H 0.1539 0.4145 0.3350
C104 C 0.1487(3) 0.4866(6) 0.3506(3)
H74 H 0.1615 0.4796 0.3678
C105 C 0.1342(3) 0.5404(5) 0.3470(3)
C106 C 0.1612(3) 0.5927(7) 0.3863(3)
C107 C 0.1828(2) 0.6566(5) 0.4248(2)
C108 C 0.2097(3) 0.6326(4) 0.4333(3)
H75 H 0.2132 0.5975 0.4265
C109 C 0.2312(2) 0.6609(5) 0.4517(3)
H76 H 0.2492 0.6448 0.4574
C110 C 0.2259(2) 0.7133(5) 0.4618(2)
C111 C 0.1991(3) 0.7373(4) 0.4534(3)
H77 H 0.1955 0.7724 0.4601
C112 C 0.1775(2) 0.7090(5) 0.4349(2)
H78 H 0.1595 0.7251 0.4293
C113 C -0.0785(2) 1.0943(5) 0.2492(2)
C114 C -0.0998(2) 1.1628(5) 0.2764(2)
C115 C -0.0992(3) 1.1334(6) 0.3013(3)
H79 H -0.0961 1.0953 0.3016
C116 C -0.1033(3) 1.1605(6) 0.3263(3)
H80 H -0.1002 1.1412 0.3436
C117 C -0.1111(3) 1.2112(6) 0.3256(3)
H81 H -0.1147 1.2274 0.3422
C118 C -0.1143(2) 1.2427(5) 0.3008(2)
H82 H -0.1207 1.2792 0.3007
C119 C -0.1078(3) 1.2189(5) 0.2758(3)
C120 C -0.1046(3) 1.3035(6) 0.2487(3)
C121 C -0.1028(3) 1.3801(6) 0.2123(3)
C122 C -0.1053(4) 1.4237(8) 0.2307(4)
H83 H -0.1089 1.4182 0.2490
C123 C -0.1015(4) 1.4810(8) 0.2187(4)
H84 H -0.1012 1.5120 0.2305
C124 C -0.0991(3) 1.4865(7) 0.1956(4)
C125 C -0.0978(4) 1.4412(8) 0.1759(4)
H85 H -0.0956 1.4481 0.1572
C126 C -0.0999(3) 1.3889(7) 0.1853(4)
H86 H -0.0994 1.3590 0.1731
N16 N -0.0075(2) 0.7799(4) 0.03467(19)
H87 H 0.0058 0.7573 0.0324
N17 N -0.0205(2) 0.7744(4) -0.0138(2)
H88 H -0.0092 0.7461 -0.0115
N18 N 0.0100(2) 0.7576(4) -0.0575(2)
H89 H 0.0141 0.7389 -0.0418
N19 N 0.0547(2) 0.7342(4) -0.0633(2)
H90 H 0.0559 0.7196 -0.0466
N20 N 0.1469(2) 0.6855(5) -0.1159(2)
N21 N 0.07473(19) 0.6702(4) 0.2906(2)
H91 H 0.0733 0.6816 0.3074
N22 N 0.1010(2) 0.6000(5) 0.3152(2)
H92 H 0.0986 0.6180 0.3302
N23 N 0.1362(2) 0.5799(5) 0.3675(2)
H93 H 0.1210 0.5980 0.3689
N24 N 0.1603(3) 0.6329(5) 0.4035(3)
H94 H 0.1438 0.6482 0.4021
N25 N 0.2495(4) 0.7455(8) 0.4814(4)
N26 N -0.07880(19) 1.0746(4) 0.22211(19)
H95 H -0.0877 1.0937 0.2078
N27 N -0.0946(2) 1.1381(4) 0.2510(2)
H96 H -0.1028 1.1532 0.2351
N28 N -0.11018(19) 1.2501(4) 0.2497(2)
H97 H -0.1156 1.2328 0.2337
N29 N -0.1061(2) 1.3244(4) 0.2207(2)
H98 H -0.1094 1.3004 0.2071
N30 N -0.0963(3) 1.5445(6) 0.1811(3)
O13 O -0.0394(2) 0.8406(4) 0.0106(2)
O14 O 0.0288(2) 0.7964(5) -0.0948(2)
O15 O 0.1498(2) 0.7093(4) -0.1391(2)
O16 O 0.1643(3) 0.6550(6) -0.1051(3)
O17 O 0.0956(2) 0.6051(4) 0.2660(2)
O18 O 0.1843(2) 0.5654(5) 0.3858(2)
O19 O 0.2457(3) 0.7969(7) 0.4833(3)
O20 O 0.2723(7) 0.7148(13) 0.4845(6)
O21 O -0.06333(19) 1.0687(4) 0.27229(18)
O22 O -0.09718(18) 1.3351(4) 0.26973(18)
O23 O -0.1012(3) 1.5480(6) 0.1563(3)
O24 O -0.0921(3) 1.5769(6) 0.1989(3)
C127 C -0.0417(2) 1.0019(4) 0.23426(16)
H99 H -0.0350 1.0174 0.2523
C128 C -0.02807(18) 0.9559(4) 0.22555(19)
H100 H -0.0122 0.9406 0.2377
C129 C -0.03808(18) 0.9327(3) 0.19862(19)
C130 C -0.0617(2) 0.9555(4) 0.18040(15)
H101 H -0.0684 0.9400 0.1624
C131 C -0.07536(17) 1.0016(4) 0.18912(18)
H102 H -0.0912 1.0168 0.1769
C132 C -0.06535(19) 1.0248(3) 0.21605(19)
C133 C -0.0489(6) 0.6844(12) 0.1720(6)
C134 C -0.0438(6) 0.6294(12) 0.1526(6)
C135 C -0.0445(5) 0.5919(10) 0.1082(5)
C136 C -0.0425(6) 0.6062(12) 0.0745(6)
C137 C -0.0602(4) 0.6632(7) 0.0383(4)
C138 C -0.0826(4) 0.6989(8) 0.0241(4)
C139 C -0.1002(4) 0.7892(9) 0.0264(4)
C140 C -0.0983(5) 0.8405(10) 0.0457(5)
C141 C -0.0992(6) 0.8793(12) 0.0911(6)
C142 C -0.1119(4) 0.8550(8) 0.1156(4)
C143 C -0.1015(6) 0.7979(11) 0.1609(6)
C144 C -0.0704(5) 0.7587(11) 0.1768(5)
O25 O -0.0689(3) 0.7166(6) 0.1588(3)
O26 O -0.0407(3) 0.6410(6) 0.1272(3)
O27 O -0.0610(2) 0.6469(5) 0.0661(2)
O28 O -0.0798(3) 0.7510(5) 0.0412(3)
O29 O -0.1030(3) 0.8262(5) 0.0735(3)
O30 O -0.0893(3) 0.8219(6) 0.1321(3)
K3 K -0.52848(13) -0.0203(2) 0.38560(13)
K4 K -0.06933(8) 0.73985(16) 0.09996(8)
K5 K -0.5301(2) -0.0373(3) 0.3849(2)
C145 C -0.4186(4) -0.1984(8) 0.2360(4)
C146 C -0.3966(4) -0.2094(7) 0.2620(4)
C147 C -0.3823(4) -0.2675(8) 0.2995(4)
C148 C -0.3883(4) -0.3198(8) 0.3142(4)
C149 C -0.4240(4) -0.3676(9) 0.3288(4)
C150 C -0.4509(4) -0.3597(7) 0.3414(4)
C151 C -0.4966(4) -0.3272(8) 0.3331(4)
C152 C -0.5231(4) -0.3071(8) 0.3091(4)
C153 C -0.5365(3) -0.2401(7) 0.2742(3)
C154 C -0.5256(4) -0.1869(7) 0.2629(4)
C155 C -0.4948(3) -0.1549(7) 0.2354(3)
C156 C -0.4671(5) -0.1695(10) 0.2229(5)
O31 O -0.4450(2) -0.1825(4) 0.2460(2)
O32 O -0.4026(2) -0.2560(4) 0.2749(2)
O33 O -0.4161(2) -0.3152(5) 0.3209(2)
O34 O -0.4735(2) -0.3446(4) 0.3210(2)
O35 O -0.5134(2) -0.2613(5) 0.2958(2)
O36 O -0.5033(2) -0.1984(4) 0.2479(2)
K6 K -0.45867(11) -0.2729(2) 0.28308(11)
K7 K -0.46205(12) -0.2555(2) 0.27691(11)
C157 C 0.6446(3) 0.3830(6) 0.2140(3)
H103 H 0.6576 0.4036 0.2272
C158 C 0.6407(3) 0.3934(6) 0.1834(3)
C159 C 0.6232(2) 0.3596(5) 0.1647(3)
H104 H 0.6211 0.3663 0.1451
C160 C 0.6077(2) 0.3138(5) 0.1738(2)
C161 C 0.6103(3) 0.3041(6) 0.2028(3)
H105 H 0.6007 0.2744 0.2091
C162 C 0.6278(3) 0.3401(6) 0.2232(3)
C163 C 0.6286(2) 0.3329(4) 0.25457(13)
C164 C 0.6237(2) 0.2803(3) 0.26460(15)
H106 H 0.6201 0.2505 0.2519
C165 C 0.62404(19) 0.2721(3) 0.29361(17)
H107 H 0.6207 0.2369 0.3003
C166 C 0.62936(19) 0.3166(4) 0.31261(13)
C167 C 0.6343(2) 0.3692(3) 0.30258(18)
H108 H 0.6378 0.3990 0.3153
C168 C 0.6339(2) 0.3774(3) 0.27356(19)
H109 H 0.6372 0.4126 0.2669
C169 C 0.6417(3) 0.3393(7) 0.3659(3)
C170 C 0.6492(4) 0.3383(7) 0.4186(4)
C171 C 0.6739(4) 0.3729(8) 0.4230(4)
H110 H 0.6827 0.3805 0.4077
C172 C 0.6852(5) 0.3956(11) 0.4497(5)
H111 H 0.7003 0.4207 0.4522
C173 C 0.6729(4) 0.3791(8) 0.4728(4)
H112 H 0.6796 0.3934 0.4911
C174 C 0.6503(4) 0.3409(8) 0.4678(4)
H113 H 0.6434 0.3266 0.4833
C175 C 0.6383(3) 0.3246(7) 0.4410(3)
C176 C 0.5930(4) 0.2903(8) 0.4513(4)
C177 C 0.5486(2) 0.2429(5) 0.4560(2)
C178 C 0.5467(2) 0.2654(4) 0.4824(2)
H114 H 0.5596 0.2925 0.4908
C179 C 0.5254(3) 0.2475(5) 0.4964(2)
H115 H 0.5241 0.2626 0.5141
C180 C 0.5061(2) 0.2070(5) 0.4840(2)
C181 C 0.5080(2) 0.1845(5) 0.4575(2)
H116 H 0.4950 0.1574 0.4491
C182 C 0.5292(2) 0.2024(5) 0.4435(2)
H117 H 0.5305 0.1874 0.4258
C183 C 0.5927(3) 0.2725(5) 0.1524(2)
C184 C 0.5785(3) 0.2885(6) 0.1254(3)
H118 H 0.5780 0.3262 0.1210
C185 C 0.5654(3) 0.2534(6) 0.1054(3)
H119 H 0.5555 0.2672 0.0879
C186 C 0.5665(3) 0.1964(6) 0.1103(3)
C187 C 0.5760(3) 0.1848(6) 0.1391(3)
H120 H 0.5746 0.1486 0.1455
C188 C 0.5872(3) 0.2239(5) 0.1580(3)
H121 H 0.5912 0.2136 0.1773
C189 C 0.5427(3) 0.1091(5) 0.0942(3)
C190 C 0.52142(18) 0.0274(3) 0.06796(18)
C191 C 0.52845(19) -0.0101(4) 0.09055(16)
H122 H 0.5417 -0.0003 0.1069
C192 C 0.5156(2) -0.0622(4) 0.08866(18)
H123 H 0.5203 -0.0872 0.1038
C193 C 0.4958(2) -0.0768(3) 0.0642(2)
H124 H 0.4872 -0.1116 0.0629
C194 C 0.48874(17) -0.0394(4) 0.04158(16)
H125 H 0.4755 -0.0492 0.0252
C195 C 0.50157(18) 0.0127(3) 0.04347(15)
C196 C 0.4709(3) 0.0605(7) 0.0031(3)
C197 C 0.4462(3) 0.1151(6) -0.0364(3)
C198 C 0.4169(3) 0.0978(7) -0.0362(3)
H126 H 0.4128 0.0718 -0.0231
C199 C 0.3965(4) 0.1210(7) -0.0556(3)
H127 H 0.3776 0.1134 -0.0547
C200 C 0.4012(3) 0.1538(7) -0.0758(3)
C201 C 0.4264(3) 0.1722(6) -0.0768(3)
H128 H 0.4291 0.1981 -0.0905
C202 C 0.4503(3) 0.1510(6) -0.0558(3)
H129 H 0.4687 0.1630 -0.0562
C203 C 0.6554(2) 0.4428(5) 0.1751(2)
C204 C 0.6595(3) 0.4899(5) 0.1915(3)
H130 H 0.6522 0.4921 0.2082
C205 C 0.6749(3) 0.5356(6) 0.1829(3)
H131 H 0.6782 0.5672 0.1943
C206 C 0.6850(2) 0.5325(5) 0.1572(2)
C207 C 0.6796(2) 0.4870(5) 0.1406(2)
H132 H 0.6852 0.4859 0.1230
C208 C 0.6655(2) 0.4413(5) 0.1498(2)
H133 H 0.6629 0.4093 0.1386
C209 C 0.7032(3) 0.5947(6) 0.1236(3)
C210 C 0.7266(3) 0.6710(6) 0.0979(3)
C211 C 0.7225(3) 0.6433(6) 0.0721(3)
H134 H 0.7143 0.6081 0.0703
C212 C 0.7305(4) 0.6681(8) 0.0495(4)
H135 H 0.7287 0.6488 0.0323
C213 C 0.7412(3) 0.7206(7) 0.0514(3)
H136 H 0.7471 0.7367 0.0358
C214 C 0.7432(3) 0.7503(7) 0.0773(3)
H137 H 0.7492 0.7871 0.0787
C215 C 0.7358(3) 0.7229(5) 0.1014(3)
C216 C 0.7326(3) 0.8107(5) 0.1290(3)
C217 C 0.7294(3) 0.8827(5) 0.1637(3)
C218 C 0.7256(4) 0.9263(8) 0.1446(4)
H138 H 0.7245 0.9197 0.1251
C219 C 0.7233(4) 0.9822(9) 0.1549(4)
H139 H 0.7234 1.0133 0.1433
C220 C 0.7207(3) 0.9861(7) 0.1852(3)
C221 C 0.7198(4) 0.9450(8) 0.2025(4)
H140 H 0.7167 0.9498 0.2210
C222 C 0.7239(3) 0.8898(7) 0.1905(3)
H141 H 0.7228 0.8586 0.2018
N31 N 0.6282(2) 0.3048(5) 0.3420(2)
H142 H 0.6190 0.2758 0.3456
N32 N 0.6371(2) 0.3180(5) 0.3904(2)
H143 H 0.6259 0.2897 0.3892
N33 N 0.6128(2) 0.2908(5) 0.4355(3)
H144 H 0.6103 0.2693 0.4207
N34 N 0.5697(3) 0.2559(5) 0.4418(3)
H145 H 0.5685 0.2411 0.4251
N35 N 0.4858(4) 0.1890(9) 0.5003(4)
N36 N 0.5547(2) 0.1612(4) 0.0884(2)
H146 H 0.5546 0.1707 0.0709
N37 N 0.5349(2) 0.0803(4) 0.0691(2)
H147 H 0.5383 0.0946 0.0535
N38 N 0.4963(2) 0.0488(4) 0.0221(2)
H148 H 0.5108 0.0678 0.0195
N39 N 0.4689(2) 0.0995(4) -0.0159(2)
H149 H 0.4843 0.1183 -0.0155
N40 N 0.3763(4) 0.1811(8) -0.0963(4)
N41 N 0.7021(2) 0.5784(4) 0.1504(2)
H150 H 0.7123 0.5964 0.1645
N42 N 0.7194(2) 0.6430(4) 0.1235(2)
H151 H 0.7258 0.6582 0.1399
N43 N 0.73854(19) 0.7536(4) 0.1269(2)
H152 H 0.7444 0.7360 0.1427
N44 N 0.7340(2) 0.8270(4) 0.1562(2)
H153 H 0.7379 0.8026 0.1697
N45 N 0.7099(7) 1.0494(13) 0.1943(8)
O37 O 0.6547(2) 0.3809(5) 0.3625(2)
O38 O 0.5917(3) 0.3243(7) 0.4709(3)
O39 O 0.4815(4) 0.2080(7) 0.5214(4)
O40 O 0.4701(3) 0.1468(7) 0.4900(3)
O41 O 0.53850(19) 0.0942(4) 0.11730(19)
O42 O 0.44878(19) 0.0274(4) 0.00566(18)
O43 O 0.3808(3) 0.2041(6) -0.1169(3)
O44 O 0.3519(3) 0.1738(6) -0.0917(3)
O45 O 0.69041(19) 0.5734(4) 0.10204(19)
O46 O 0.72798(19) 0.8397(4) 0.10817(19)
O47 O 0.7144(4) 1.0819(9) 0.1747(5)
O48 O 0.7200(5) 1.0475(11) 0.2190(6)
K8 K 0.66798(11) 1.1210(2) 0.15202(11)
K9 K 0.6515(3) 1.1427(5) 0.1593(2)
C223 C 0.7054(6) 1.0876(13) 0.0583(7)
C224 C 0.7023(5) 1.0876(10) 0.0851(6)
N46 N 0.7010(6) 1.0931(13) 0.1089(7)
C225 C 0.0802(3) 1.0247(5) 1.1129(2)
H154 H 0.0993 1.0164 1.1135
C226 C 0.0722(3) 1.0747(5) 1.1266(3)
C227 C 0.0440(3) 1.0815(6) 1.1287(3)
H155 H 0.0386 1.1112 1.1390
C228 C 0.0236(3) 1.0438(6) 1.1154(3)
C229 C 0.0314(3) 0.9986(6) 1.1019(3)
H156 H 0.0176 0.9725 1.0942
C230 C 0.0592(3) 0.9904(6) 1.0994(3)
C231 C 0.0679(3) 0.9391(7) 1.0851(3)
C232 C 0.0471(4) 0.9053(8) 1.0684(4)
H157 H 0.0279 0.9142 1.0669
C233 C 0.0543(4) 0.8599(8) 1.0544(4)
H158 H 0.0398 0.8385 1.0435
C234 C 0.0833(3) 0.8445(5) 1.0559(3)
C235 C 0.1022(3) 0.8743(7) 1.0728(3)
H159 H 0.1212 0.8630 1.0763
C236 C 0.0948(3) 0.9253(5) 1.0869(2)
H160 H 0.1092 0.9477 1.0971
C237 C 0.1148(3) 0.7861(5) 1.0339(3)
C238 C 0.1396(3) 0.7195(6) 1.0081(3)
C239 C 0.1603(3) 0.7560(6) 1.0016(3)
H161 H 0.1583 0.7943 1.0030
C240 C 0.1840(3) 0.7323(6) 0.9929(3)
H162 H 0.1993 0.7545 0.9908
C241 C 0.1846(3) 0.6758(6) 0.9875(3)
H163 H 0.1999 0.6610 0.9805
C242 C 0.1636(2) 0.6417(5) 0.9922(2)
H164 H 0.1645 0.6039 0.9883
C243 C 0.1409(2) 0.6621(5) 1.0025(2)
C244 C 0.1196(2) 0.5743(5) 1.0139(2)
C245 C 0.0889(3) 0.4977(5) 1.0243(2)
C246 C 0.1115(3) 0.4621(6) 1.0393(3)
H165 H 0.1304 0.4742 1.0438
C247 C 0.1042(3) 0.4116(7) 1.0464(3)
H166 H 0.1184 0.3870 1.0549
C248 C 0.0760(3) 0.3943(6) 1.0415(3)
C249 C 0.0553(3) 0.4263(6) 1.0296(3)
H167 H 0.0365 0.4141 1.0278
C250 C 0.0604(2) 0.4783(5) 1.0194(2)
H168 H 0.0455 0.5000 1.0095
C251 C -0.00786(14) 1.0500(4) 1.1200(2)
C252 C -0.0146(2) 1.0893(5) 1.1390(2)
H169 H -0.0002 1.1101 1.1503
C253 C -0.0429(2) 1.0976(4) 1.1410(2)
H170 H -0.0474 1.1239 1.1537
C254 C -0.06451(17) 1.0666(4) 1.1241(2)
C255 C -0.05776(15) 1.0272(4) 1.10510(18)
H171 H -0.0722 1.0065 1.0938
C256 C -0.02943(17) 1.0190(4) 1.10303(18)
H172 H -0.0249 0.9927 1.0903
C257 C -0.1170(3) 1.0462(6) 1.1192(3)
C258 C -0.1694(4) 1.0474(7) 1.1188(3)
C259 C -0.1774(4) 1.0153(8) 1.0949(4)
H173 H -0.1635 1.0053 1.0848
C260 C -0.2054(5) 0.9965(10) 1.0848(5)
H174 H -0.2100 0.9737 1.0687
C261 C -0.2251(3) 1.0126(7) 1.0991(3)
H175 H -0.2437 0.9997 1.0936
C262 C -0.2181(4) 1.0494(8) 1.1228(4)
H176 H -0.2326 1.0612 1.1318
C263 C -0.1904(3) 1.0685(7) 1.1331(3)
C264 C -0.1949(4) 1.1031(7) 1.1777(3)
C265 C -0.1964(3) 1.1598(6) 1.2213(3)
C266 C -0.2263(4) 1.1542(8) 1.2205(4)
H177 H -0.2379 1.1346 1.2058
C267 C -0.2373(5) 1.1778(9) 1.2414(5)
H178 H -0.2570 1.1807 1.2395
C268 C -0.2195(4) 1.1975(7) 1.2654(4)
C269 C -0.1899(4) 1.2041(7) 1.2666(4)
H179 H -0.1777 1.2181 1.2828
C270 C -0.1811(4) 1.1901(8) 1.2448(4)
H180 H -0.1626 1.2006 1.2439
C271 C 0.0932(3) 1.1126(5) 1.1414(3)
C272 C 0.0897(3) 1.1433(6) 1.1634(3)
H181 H 0.0724 1.1403 1.1696
C273 C 0.1106(3) 1.1806(5) 1.1782(3)
H182 H 0.1058 1.2055 1.1915
C274 C 0.1362(2) 1.1801(5) 1.1734(2)
C275 C 0.1410(3) 1.1513(5) 1.1488(2)
H183 H 0.1583 1.1558 1.1428
C276 C 0.1206(3) 1.1172(6) 1.1338(3)
H184 H 0.1245 1.0966 1.1185
C277 C 0.1567(3) 1.2590(5) 1.2042(2)
C278 C 0.18413(18) 1.3293(3) 1.23415(17)
C279 C 0.16257(15) 1.3690(4) 1.23073(17)
H185 H 0.1467 1.3656 1.2159
C280 C 0.16473(19) 1.4137(4) 1.2495(2)
H186 H 0.1503 1.4403 1.2472
C281 C 0.1885(2) 1.4188(4) 1.2718(2)
H187 H 0.1899 1.4487 1.2843
C282 C 0.21003(18) 1.3791(4) 1.27518(17)
H188 H 0.2259 1.3825 1.2901
C283 C 0.20787(16) 1.3344(4) 1.25638(19)
C284 C 0.2489(4) 1.2824(8) 1.2807(4)
C285 C 0.2904(3) 1.2199(6) 1.2989(3)
C286 C 0.2921(3) 1.2296(7) 1.3280(3)
H189 H 0.2779 1.2498 1.3342
C287 C 0.3152(4) 1.2090(8) 1.3480(2)
H190 H 0.3163 1.2154 1.3675
C288 C 0.3364(3) 1.1787(7) 1.3388(3)
C289 C 0.3347(3) 1.1691(6) 1.3096(3)
H191 H 0.3489 1.1489 1.3035
C290 C 0.3117(3) 1.1897(6) 1.2897(2)
H192 H 0.3105 1.1832 1.2702
N47 N 0.0906(2) 0.7975(4) 1.0412(2)
H193 H 0.0773 0.7732 1.0365
N48 N 0.11530(19) 0.7429(4) 1.01739(19)
H194 H 0.0992 0.7266 1.0113
N49 N 0.11705(18) 0.6265(4) 1.00574(17)
H195 H 0.1002 0.6407 1.0021
N50 N 0.09251(19) 0.5528(4) 1.01624(18)
H196 H 0.0778 0.5742 1.0126
N51 N 0.0712(3) 0.3377(6) 1.0527(3)
N52 N -0.0924(2) 1.0792(4) 1.1294(2)
H197 H -0.0944 1.1085 1.1392
N53 N -0.1407(2) 1.0674(4) 1.1267(2)
H198 H -0.1381 1.0962 1.1376
N54 N -0.1824(2) 1.0998(5) 1.1562(2)
H199 H -0.1674 1.1200 1.1568
N55 N -0.1837(3) 1.1441(6) 1.1982(3)
H200 H -0.1681 1.1606 1.1964
N56 N -0.2317(5) 1.2205(9) 1.2886(5)
N57 N 0.1599(2) 1.2135(4) 1.18832(19)
H201 H 0.1769 1.2039 1.1870
N58 N 0.1814(2) 1.2839(4) 1.21613(19)
H202 H 0.1968 1.2703 1.2122
N59 N 0.2306(2) 1.2989(5) 1.2578(3)
H203 H 0.2332 1.2858 1.2417
N60 N 0.2698(3) 1.2411(5) 1.2781(3)
H204 H 0.2691 1.2282 1.2611
N61 N 0.3627(6) 1.1410(11) 1.3592(6)
O49 O 0.1357(2) 0.8180(4) 1.0410(2)
O50 O 0.14204(17) 0.5476(3) 1.01816(16)
O51 O 0.0909(3) 0.3041(6) 1.0571(3)
O52 O 0.0464(3) 0.3251(5) 1.0502(2)
O53 O -0.1152(2) 1.0037(4) 1.1068(2)
O54 O -0.2165(3) 1.0752(6) 1.1805(3)
O55 O -0.2574(3) 1.2127(6) 1.2869(3)
O56 O -0.2151(4) 1.2417(8) 1.3088(4)
O57 O 0.13360(19) 1.2748(4) 1.20798(18)
O58 O 0.2503(3) 1.3041(5) 1.3062(3)
O59 O 0.3778(7) 1.1151(14) 1.3462(7)
O60 O 0.3538(7) 1.1430(14) 1.3831(8)
C291 C 0.2361(6) 0.4376(12) 1.0146(6)
C292 C 0.2371(3) 0.4820(7) 0.9974(3)
C293 C 0.2129(3) 0.5354(7) 0.9609(3)
C294 C 0.1858(3) 0.5376(6) 0.9353(3)
C295 C 0.1385(3) 0.5294(6) 0.9235(3)
C296 C 0.1101(3) 0.5282(7) 0.9378(3)
C297 C 0.1025(3) 0.4353(6) 0.9365(3)
C298 C 0.0994(4) 0.3831(7) 0.9561(4)
C299 C 0.1291(4) 0.3313(9) 0.9904(4)
C300 C 0.1606(4) 0.3169(8) 1.0079(4)
C301 C 0.1907(6) 0.3539(11) 1.0447(5)
C302 C 0.2144(6) 0.3773(12) 1.0376(6)
O61 O 0.2150(4) 0.4337(8) 1.0280(4)
O62 O 0.2139(2) 0.4875(5) 0.9764(2)
O63 O 0.1613(2) 0.5327(4) 0.9463(2)
O64 O 0.1092(2) 0.4787(4) 0.9543(2)
O65 O 0.1283(2) 0.3725(5) 0.9730(2)
O66 O 0.1682(3) 0.3638(5) 1.0253(3)
K10 K 0.16103(7) 0.46140(14) 0.99207(7)
K11 K -0.25331(19) 1.1614(4) 1.33507(19)
K12 K 0.08682(12) 1.2198(2) 1.09487(11)
C303 C 0.0582(4) 0.9577(7) 0.1916(4)
Cl1 Cl 0.02903(8) 1.00056(18) 0.19056(8)
Cl2 Cl 0.05390(10) 0.9131(2) 0.16322(10)
Cl3 Cl 0.08949(9) 0.99983(19) 0.19275(9)
Cl4 Cl 0.06435(9) 0.91903(19) 0.22433(9)
K13 K 0.5784(8) 0.4942(15) 0.4456(7)
K14 K 0.5518(2) 0.5130(4) 0.44086(19)
C304 C 0.2406(6) 0.9844(13) 0.2028(7)
C305 C 0.2413(6) 0.9310(12) 0.1849(6)
N62 N 0.2387(3) 0.8994(7) 0.1672(4)
K15 K 0.26341(12) 0.8675(3) 0.11878(12)
K16 K 0.3583(3) 0.3700(5) 0.2552(3)
O67 O 0.75409(15) 0.6824(3) 0.17295(15)
O68 O 0.73149(16) 0.7553(3) 0.20117(16)
O69 O 0.71461(15) 0.6554(3) 0.19877(14)
O70 O 0.76414(16) 0.6781(3) 0.22734(16)
P1 P 0.74117(6) 0.69242(13) 0.19993(6)
O71 O 0.39076(15) 0.7526(3) 0.17378(15)
O72 O 0.36063(17) 0.6760(3) 0.14894(17)
O73 O 0.37030(15) 0.6822(3) 0.20244(15)
O74 O 0.40959(14) 0.6534(3) 0.17719(14)
P2 P 0.38282(6) 0.69129(13) 0.17565(6)
O75 O 0.58289(16) 0.2302(3) 0.34591(16)
O76 O 0.58576(18) 0.1350(4) 0.36581(18)
O77 O 0.56152(18) 0.2068(4) 0.38852(18)
O78 O 0.61427(18) 0.2086(4) 0.39395(18)
P3 P 0.58588(7) 0.19567(15) 0.37313(7)
O79 O 0.56641(15) 0.1875(3) -0.00904(15)
O80 O 0.51237(16) 0.1801(3) -0.01390(16)
O81 O 0.54497(16) 0.1110(3) 0.01713(15)
O82 O 0.54351(15) 0.2107(3) 0.03304(15)
P4 P 0.54166(6) 0.17238(13) 0.00685(6)
K17? K -0.24556(17) 1.1436(4) 1.34458(17)
C306? C -0.2180(12) 1.280(2) 1.3759(11)
C307? C -0.2413(6) 1.2614(12) 1.3899(6)
C308? C -0.2935(5) 1.2382(10) 1.3737(5)
C309? C -0.3098(5) 1.2164(10) 1.3465(5)
C310? C -0.3272(5) 1.1456(10) 1.3133(5)
C311? C -0.3135(7) 1.0861(12) 1.3039(6)
C312? C -0.2742(6) 1.0511(12) 1.2895(6)
C313? C -0.2433(6) 1.0482(12) 1.2836(7)
C314? C -0.1955(11) 1.0728(19) 1.3045(10)
C315? C -0.1709(8) 1.0935(17) 1.3272(8)
C316? C -0.1813(8) 1.2205(16) 1.3640(8)
O83? O -0.2073(5) 1.2132(10) 1.3781(5)
O84? O -0.2642(3) 1.2408(7) 1.3663(3)
O85? O -0.3057(3) 1.1630(7) 1.3380(3)
O86? O -0.2897(5) 1.0907(10) 1.2975(5)
O87? O -0.2290(5) 1.0690(10) 1.3067(5)
O88? O -0.1873(6) 1.1419(13) 1.3385(6)
C317? C 0.1358(7) 1.1735(14) 1.0500(7)
C318? C 0.1486(7) 1.1981(14) 1.0725(7)
C319? C 0.1543(5) 1.2901(11) 1.1095(5)
C320? C 0.1508(6) 1.3239(13) 1.1244(6)
C321? C 0.1129(5) 1.3464(11) 1.1411(5)
C322? C 0.0874(6) 1.3341(12) 1.1500(6)
C323? C 0.0392(4) 1.2897(9) 1.1347(4)
C324? C 0.0224(4) 1.2660(9) 1.1102(4)
C325? C 0.0139(5) 1.1939(10) 1.0733(5)
C326? C 0.0290(7) 1.1500(14) 1.0600(7)
C327? C 0.0642(7) 1.1160(13) 1.0444(6)
C328? C 0.0821(8) 1.1231(15) 1.0356(8)
O89? O 0.1089(5) 1.1529(9) 1.0573(5)
O90? O 0.1493(4) 1.2428(10) 1.0902(5)
O91? O 0.1260(3) 1.2953(7) 1.1290(3)
O92? O 0.0653(3) 1.3046(5) 1.1275(3)
O93? O 0.0313(3) 1.2156(6) 1.0986(3)
O94? O 0.0513(4) 1.1653(7) 1.0535(4)
K18? K 0.09223(13) 1.2342(3) 1.10285(12)
C329? C -0.6017(7) 0.0137(15) 0.3742(8)
C330? C -0.5891(6) 0.0250(11) 0.4041(6)
C331? C -0.5555(4) 0.0480(7) 0.4440(4)
C332? C -0.5784(5) -0.0790(11) 0.3242(5)
C333? C -0.5879(5) -0.0510(10) 0.3405(5)
O95? O -0.5888(5) -0.0301(10) 0.3663(5)
O96? O -0.5619(5) 0.0186(9) 0.4182(5)
C334? C -0.5182(4) 0.0268(9) 0.4537(4)
C335? C -0.4772(3) 0.0391(7) 0.4424(3)
C336? C -0.4668(4) -0.0268(9) 0.4474(4)
C337? C -0.4689(3) -0.1052(7) 0.4207(3)
C338? C -0.4764(5) -0.1307(9) 0.3926(5)
C339? C -0.5162(6) -0.1671(11) 0.3607(6)
C340? C -0.5341(7) -0.1623(14) 0.3530(6)
O97? O -0.5041(3) 0.0415(6) 0.4345(3)
O98? O -0.4758(3) -0.0485(6) 0.4216(3)
O99? O -0.5059(3) -0.1356(6) 0.3854(3)
O100? O -0.5465(4) -0.1170(9) 0.3458(4)
C341? C -0.2948(6) 0.3422(13) 0.2975(6)
C342? C -0.2902(11) 0.377(2) 0.3344(12)
C343? C -0.2770(8) 0.4007(16) 0.3416(8)
O101? O -0.2831(3) 0.3915(7) 0.3077(3)
C344? C -0.2324(8) 0.4170(16) 0.3568(8)
C345? C -0.1975(5) 0.4405(10) 0.3645(5)
C346? C -0.1902(7) 0.4034(16) 0.3417(8)
C347? C -0.1662(5) 0.3491(9) 0.3166(5)
C348? C -0.1767(8) 0.3619(16) 0.2642(8)
C349? C -0.1884(3) 0.3995(7) 0.2411(3)
C350? C -0.2258(6) 0.3298(12) 0.2258(6)
O102? O -0.2251(5) 0.3911(9) 0.2350(5)
O103? O -0.1812(6) 0.3839(12) 0.2839(6)
O104? O -0.1753(7) 0.3895(15) 0.3453(8)
C351? C -0.2766(16) 0.330(3) 0.2216(18)
O105? O -0.2655(6) 0.3371(11) 0.2570(6)
C352? C 0.2488(8) 0.7266(15) 0.1058(8)
C353? C 0.2723(11) 0.723(2) 0.1387(11)
C354? C 0.3098(5) 0.7770(10) 0.1615(5)
C355? C 0.3270(6) 0.8243(12) 0.1658(6)
C356? C 0.3265(6) 0.9252(12) 0.1631(6)
C357? C 0.3105(7) 0.9719(13) 0.1648(7)
C358? C 0.2709(7) 1.0168(14) 0.1288(7)
C359? C 0.2573(9) 1.0013(18) 0.0888(9)
C360? C 0.2137(7) 0.9495(14) 0.0632(7)
C361? C 0.1944(11) 0.900(2) 0.0775(10)
C362? C 0.2035(9) 0.829(2) 0.0715(9)
C363? C 0.2066(13) 0.784(2) 0.0753(13)
O106? O 0.2332(4) 0.7846(8) 0.1001(4)
O107? O 0.2888(3) 0.7765(6) 0.1350(3)
O108? O 0.3114(3) 0.8745(7) 0.1624(3)
O109? O 0.2904(6) 0.9683(11) 0.1314(5)
O110? O 0.2386(5) 0.9684(10) 0.0935(5)
O111? O 0.2177(5) 0.8813(11) 0.0690(5)
C364? C 0.6765(6) 1.2549(13) 0.1398(7)
C365? C 0.6976(7) 1.2529(14) 0.1690(7)
C366? C 0.6766(6) 1.2458(11) 0.2012(6)
C367? C 0.6697(6) 1.1988(11) 0.2208(6)
C368? C 0.6486(7) 1.1172(16) 0.2249(8)
C369? C 0.6376(10) 1.068(2) 0.2090(10)
C370? C 0.6158(7) 1.0121(14) 0.1487(7)
C371? C 0.6100(8) 1.0489(15) 0.1058(8)
C372? C 0.6200(4) 1.0848(8) 0.0862(4)
C373? C 0.6371(5) 1.1830(10) 0.0851(5)
C374? C 0.6406(5) 1.2278(9) 0.1001(5)
O112? O 0.6644(4) 1.2247(7) 0.1207(4)
O113? O 0.6934(3) 1.2151(7) 0.1842(4)
O114? O 0.6538(4) 1.1579(8) 0.2085(4)
O115? O 0.6277(5) 1.0344(9) 0.1276(5)
O116? O 0.6296(4) 1.1381(8) 0.1007(4)
O117? O -0.6638(8) 0.7607(17) -0.0333(9)
O118? O -0.6233(8) 0.8492(15) -0.0105(8)
C375? C -0.6029(11) 0.643(2) 0.0538(10)
C376? C -0.5706(10) 0.747(2) 0.0729(10)
C377? C -0.5635(8) 0.8057(16) 0.0601(8)
O119? O -0.6263(8) 0.6266(14) 0.0320(8)
C378? C -0.5850(10) 0.871(2) 0.0285(10)
O120? O -0.5811(6) 0.8128(13) 0.0295(6)
O121? O -0.5803(7) 0.6795(15) 0.0645(7)
C379? C 0.5198(12) 0.397(2) 0.4209(12)
C380? C 0.4923(12) 0.423(2) 0.4374(12)
O122? O 0.5281(10) 0.4008(19) 0.4461(11)
O123? O 0.5063(10) 0.4001(19) 0.4716(11)
C381? C 0.3168(3) 0.2783(5) 0.2043(3)
C382? C 0.3390(3) 0.2658(5) 0.2288(3)
O124? O 0.2979(10) 0.332(2) 0.2230(11)
O125? O 0.4370(15) 0.405(3) 0.2619(15)
O126? O 0.6270(11) 0.544(2) 0.4095(11)
C383? C 0.5574(15) 0.390(3) 0.4118(14)
O127? O 0.5754(8) 0.4472(17) 0.4010(8)
C384? C 0.5835(6) 0.6227(13) 0.4559(6)
C385? C 0.5673(8) 0.6396(16) 0.4767(8)
O128? O 0.5323(15) 0.590(3) 0.4803(15)
C386? C 0.5174(10) 0.481(2) 0.4665(10)
C387? C 0.6404(9) 1.0065(18) 0.1839(9)
K19? K 0.26943(18) 0.8938(4) 0.10913(18)
O129? O 0.6388(5) 0.5187(9) 0.0565(5)
O130? O 0.8604(3) 0.9097(6) 0.0814(3)
O131? O 0.9643(4) 0.6186(7) 0.2215(4)
loop_
_geom_bond_atom_site_label_1
_geom_bond_atom_site_label_2
_geom_bond_site_symmetry_1
_geom_bond_site_symmetry_2
C1 C2 1_555 1_555
C2 H1 1_555 1_555
C3 C2 1_555 1_555
C4 C3 1_555 1_555
H2 C4 1_555 1_555
C5 C4 1_555 1_555
C6 C1 1_555 1_555
H3 C6 1_555 1_555
C7 C5 1_555 1_555
C8 C7 1_555 1_555
H4 C8 1_555 1_555
C9 C8 1_555 1_555
H5 C9 1_555 1_555
C10 C9 1_555 1_555
C11 C10 1_555 1_555
H6 C11 1_555 1_555
C12 C7 1_555 1_555
H7 C12 1_555 1_555
C13 N1 1_555 1_555
C14 C15 1_555 1_555
C15 C16 1_555 1_555
C16 H8 1_555 1_555
C17 C16 1_555 1_555
H9 C17 1_555 1_555
C18 C17 1_555 1_555
H10 C18 1_555 1_555
C19 C14 1_555 1_555
H11 C19 1_555 1_555
C20 N3 1_555 1_555
C21 C22 1_555 1_555
C22 H12 1_555 1_555
C23 C22 1_555 1_555
H13 C23 1_555 1_555
C24 C23 1_555 1_555
C25 C24 1_555 1_555
H14 C25 1_555 1_555
C26 C21 1_555 1_555
H15 C26 1_555 1_555
C27 C3 1_555 1_555
C28 C27 1_555 1_555
H16 C28 1_555 1_555
C29 C28 1_555 1_555
H17 C29 1_555 1_555
C30 C29 1_555 1_555
C31 C30 1_555 1_555
H18 C31 1_555 1_555
C32 C27 1_555 1_555
H19 C32 1_555 1_555
C33 N6 1_555 1_555
C34 C35 1_555 1_555
C35 C36 1_555 1_555
C36 H20 1_555 1_555
C37 C36 1_555 1_555
H21 C37 1_555 1_555
C38 C37 1_555 1_555
H22 C38 1_555 1_555
C39 C34 1_555 1_555
H23 C39 1_555 1_555
C40 N8 1_555 1_555
C41 C42 1_555 1_555
C42 H24 1_555 1_555
C43 C42 1_555 1_555
H25 C43 1_555 1_555
C44 C43 1_555 1_555
C45 C44 1_555 1_555
H26 C45 1_555 1_555
C46 C41 1_555 1_555
H27 C46 1_555 1_555
C47 N11 1_555 1_555
C48 C49 1_555 1_555
C49 H28 1_555 1_555
C50 C49 1_555 1_555
H29 C50 1_555 1_555
C51 C50 1_555 1_555
H30 C51 1_555 1_555
C52 C51 1_555 1_555
H31 C52 1_555 1_555
C53 C48 1_555 1_555
C54 N13 1_555 1_555
C55 C56 1_555 1_555
C56 H32 1_555 1_555
C57 C56 1_555 1_555
H33 C57 1_555 1_555
C58 C57 1_555 1_555
C59 C58 1_555 1_555
H34 C59 1_555 1_555
C60 C55 1_555 1_555
H35 C60 1_555 1_555
N1 C10 1_555 1_555
H36 N1 1_555 1_555
N2 C13 1_555 1_555
H37 N2 1_555 1_555
N3 C15 1_555 1_555
H38 N3 1_555 1_555
N4 C20 1_555 1_555
H39 N4 1_555 1_555
N5 C24 1_555 1_555
N6 C30 1_555 1_555
H40 N6 1_555 1_555
N7 C33 1_555 1_555
H41 N7 1_555 1_555
N8 C35 1_555 1_555
H42 N8 1_555 1_555
N9 C40 1_555 1_555
H43 N9 1_555 1_555
N10 C44 1_555 1_555
N11 H44 1_555 1_555
N12 C47 1_555 1_555
H45 N12 1_555 1_555
N13 C53 1_555 1_555
H46 N13 1_555 1_555
N14 C54 1_555 1_555
H47 N14 1_555 1_555
N15 C58 1_555 1_555
O1 C13 1_555 1_555
O2 C20 1_555 1_555
O3 N5 1_555 1_555
O4 N5 1_555 1_555
O5 C33 1_555 1_555
O6 C40 1_555 1_555
O7 N10 1_555 1_555
O8 N10 1_555 1_555
O9 C47 1_555 1_555
O10 C54 1_555 1_555
O11 N15 1_555 1_555
O12 N15 1_555 1_555
C61 C1 1_555 1_555
C62 N11 1_555 1_555
C63 C61 1_555 1_555
H48 C63 1_555 1_555
C64 C61 1_555 1_555
H49 C64 1_555 1_555
C65 C62 1_555 1_555
H50 C65 1_555 1_555
C66 C62 1_555 1_555
H51 C66 1_555 1_555
C67 H52 1_555 1_555
C68 C67 1_555 1_555
C69 C68 1_555 1_555
H53 C69 1_555 1_555
C70 C69 1_555 1_555
C71 C70 1_555 1_555
H54 C71 1_555 1_555
C72 C67 1_555 1_555
C73 C72 1_555 1_555
C74 C73 1_555 1_555
H55 C74 1_555 1_555
C75 C74 1_555 1_555
H56 C75 1_555 1_555
C76 C75 1_555 1_555
C77 C76 1_555 1_555
H57 C77 1_555 1_555
C78 C73 1_555 1_555
H58 C78 1_555 1_555
C79 N16 1_555 1_555
C80 C81 1_555 1_555
C81 H59 1_555 1_555
C82 C81 1_555 1_555
H60 C82 1_555 1_555
C83 C82 1_555 1_555
H61 C83 1_555 1_555
C84 C83 1_555 1_555
H62 C84 1_555 1_555
C85 C80 1_555 1_555
C86 N18 1_555 1_555
C87 C88 1_555 1_555
C88 H63 1_555 1_555
C89 C88 1_555 1_555
H64 C89 1_555 1_555
C90 C89 1_555 1_555
C91 C90 1_555 1_555
H65 C91 1_555 1_555
C92 C87 1_555 1_555
H66 C92 1_555 1_555
C93 C70 1_555 1_555
C94 C93 1_555 1_555
H67 C94 1_555 1_555
C95 C94 1_555 1_555
H68 C95 1_555 1_555
C96 C95 1_555 1_555
C97 C96 1_555 1_555
H69 C97 1_555 1_555
C98 C93 1_555 1_555
H70 C98 1_555 1_555
C99 N21 1_555 1_555
C100 C101 1_555 1_555
C101 H71 1_555 1_555
C102 C101 1_555 1_555
H72 C102 1_555 1_555
C103 C102 1_555 1_555
H73 C103 1_555 1_555
C104 C103 1_555 1_555
H74 C104 1_555 1_555
C105 C100 1_555 1_555
C106 N23 1_555 1_555
C107 C108 1_555 1_555
C108 H75 1_555 1_555
C109 C108 1_555 1_555
H76 C109 1_555 1_555
C110 C109 1_555 1_555
C111 C110 1_555 1_555
H77 C111 1_555 1_555
C112 C107 1_555 1_555
H78 C112 1_555 1_555
C113 N26 1_555 1_555
C114 C115 1_555 1_555
C115 H79 1_555 1_555
C116 C115 1_555 1_555
H80 C116 1_555 1_555
C117 C116 1_555 1_555
H81 C117 1_555 1_555
C118 C117 1_555 1_555
H82 C118 1_555 1_555
C119 C114 1_555 1_555
C120 N28 1_555 1_555
C121 C122 1_555 1_555
C122 H83 1_555 1_555
C123 C122 1_555 1_555
H84 C123 1_555 1_555
C124 C123 1_555 1_555
C125 C124 1_555 1_555
H85 C125 1_555 1_555
C126 C121 1_555 1_555
H86 C126 1_555 1_555
N16 C76 1_555 1_555
H87 N16 1_555 1_555
N17 C79 1_555 1_555
H88 N17 1_555 1_555
N18 C85 1_555 1_555
H89 N18 1_555 1_555
N19 C86 1_555 1_555
H90 N19 1_555 1_555
N20 C90 1_555 1_555
N21 C96 1_555 1_555
H91 N21 1_555 1_555
N22 C99 1_555 1_555
H92 N22 1_555 1_555
N23 C105 1_555 1_555
H93 N23 1_555 1_555
N24 C106 1_555 1_555
H94 N24 1_555 1_555
N25 C110 1_555 1_555
N26 H95 1_555 1_555
N27 C113 1_555 1_555
H96 N27 1_555 1_555
N28 C119 1_555 1_555
H97 N28 1_555 1_555
N29 C120 1_555 1_555
H98 N29 1_555 1_555
N30 C124 1_555 1_555
O13 C79 1_555 1_555
O14 C86 1_555 1_555
O15 N20 1_555 1_555
O16 N20 1_555 1_555
O17 C99 1_555 1_555
O18 C106 1_555 1_555
O19 N25 1_555 1_555
O20 N25 1_555 1_555
O21 C113 1_555 1_555
O22 C120 1_555 1_555
O23 N30 1_555 1_555
O24 N30 1_555 1_555
C127 H99 1_555 1_555
C128 C127 1_555 1_555
H100 C128 1_555 1_555
C129 C68 1_555 1_555
C130 C129 1_555 1_555
H101 C130 1_555 1_555
C131 C130 1_555 1_555
H102 C131 1_555 1_555
C132 N26 1_555 1_555
C133 C134 1_555 1_555
C134 O26 1_555 1_555
C135 C136 1_555 1_555
C136 O27 1_555 1_555
C137 C138 1_555 1_555
C138 O28 1_555 1_555
C139 C140 1_555 1_555
C140 O29 1_555 1_555
C141 C142 1_555 1_555
C142 O30 1_555 1_555
C143 C144 1_555 1_555
C144 O25 1_555 1_555
O25 C133 1_555 1_555
O26 C135 1_555 1_555
O27 C137 1_555 1_555
O28 C139 1_555 1_555
O29 C141 1_555 1_555
O30 C143 1_555 1_555
C145 C146 1_555 1_555
C146 O32 1_555 1_555
C147 C148 1_555 1_555
C148 O33 1_555 1_555
C149 C150 1_555 1_555
C150 O34 1_555 1_555
C151 C152 1_555 1_555
C152 O35 1_555 1_555
C153 C154 1_555 1_555
C154 O36 1_555 1_555
C155 C156 1_555 1_555
C156 O31 1_555 1_555
O31 C145 1_555 1_555
O32 C147 1_555 1_555
O33 C149 1_555 1_555
O34 C151 1_555 1_555
O35 C153 1_555 1_555
O36 C155 1_555 1_555
C157 H103 1_555 1_555
C158 C157 1_555 1_555
C159 C158 1_555 1_555
H104 C159 1_555 1_555
C160 C159 1_555 1_555
C161 C160 1_555 1_555
H105 C161 1_555 1_555
C162 C157 1_555 1_555
C163 C162 1_555 1_555
C164 C163 1_555 1_555
H106 C164 1_555 1_555
C165 C164 1_555 1_555
H107 C165 1_555 1_555
C166 C165 1_555 1_555
C167 C166 1_555 1_555
H108 C167 1_555 1_555
C168 C163 1_555 1_555
H109 C168 1_555 1_555
C169 N31 1_555 1_555
C170 C171 1_555 1_555
C171 H110 1_555 1_555
C172 C171 1_555 1_555
H111 C172 1_555 1_555
C173 C172 1_555 1_555
H112 C173 1_555 1_555
C174 C173 1_555 1_555
H113 C174 1_555 1_555
C175 C170 1_555 1_555
C176 N33 1_555 1_555
C177 C178 1_555 1_555
C178 H114 1_555 1_555
C179 C178 1_555 1_555
H115 C179 1_555 1_555
C180 C179 1_555 1_555
C181 C180 1_555 1_555
H116 C181 1_555 1_555
C182 C177 1_555 1_555
H117 C182 1_555 1_555
C183 C160 1_555 1_555
C184 C183 1_555 1_555
H118 C184 1_555 1_555
C185 C184 1_555 1_555
H119 C185 1_555 1_555
C186 C185 1_555 1_555
C187 C186 1_555 1_555
H120 C187 1_555 1_555
C188 C183 1_555 1_555
H121 C188 1_555 1_555
C189 N36 1_555 1_555
C190 C191 1_555 1_555
C191 H122 1_555 1_555
C192 C191 1_555 1_555
H123 C192 1_555 1_555
C193 C192 1_555 1_555
H124 C193 1_555 1_555
C194 C193 1_555 1_555
H125 C194 1_555 1_555
C195 C190 1_555 1_555
C196 N38 1_555 1_555
C197 C198 1_555 1_555
C198 H126 1_555 1_555
C199 C198 1_555 1_555
H127 C199 1_555 1_555
C200 C199 1_555 1_555
C201 C200 1_555 1_555
H128 C201 1_555 1_555
C202 C197 1_555 1_555
H129 C202 1_555 1_555
C203 C158 1_555 1_555
C204 C203 1_555 1_555
H130 C204 1_555 1_555
C205 C204 1_555 1_555
H131 C205 1_555 1_555
C206 C205 1_555 1_555
C207 C206 1_555 1_555
H132 C207 1_555 1_555
C208 C203 1_555 1_555
H133 C208 1_555 1_555
C209 N41 1_555 1_555
C210 C211 1_555 1_555
C211 H134 1_555 1_555
C212 C211 1_555 1_555
H135 C212 1_555 1_555
C213 C212 1_555 1_555
H136 C213 1_555 1_555
C214 C213 1_555 1_555
H137 C214 1_555 1_555
C215 C210 1_555 1_555
C216 N43 1_555 1_555
C217 C218 1_555 1_555
C218 H138 1_555 1_555
C219 C218 1_555 1_555
H139 C219 1_555 1_555
C220 C219 1_555 1_555
C221 C220 1_555 1_555
H140 C221 1_555 1_555
C222 C217 1_555 1_555
H141 C222 1_555 1_555
N31 C166 1_555 1_555
H142 N31 1_555 1_555
N32 C169 1_555 1_555
H143 N32 1_555 1_555
N33 C175 1_555 1_555
H144 N33 1_555 1_555
N34 C176 1_555 1_555
H145 N34 1_555 1_555
N35 C180 1_555 1_555
N36 C186 1_555 1_555
H146 N36 1_555 1_555
N37 C189 1_555 1_555
H147 N37 1_555 1_555
N38 C195 1_555 1_555
H148 N38 1_555 1_555
N39 C196 1_555 1_555
H149 N39 1_555 1_555
N40 C200 1_555 1_555
N41 C206 1_555 1_555
H150 N41 1_555 1_555
N42 C209 1_555 1_555
H151 N42 1_555 1_555
N43 C215 1_555 1_555
H152 N43 1_555 1_555
N44 C216 1_555 1_555
H153 N44 1_555 1_555
N45 C220 1_555 1_555
O37 C169 1_555 1_555
O38 C176 1_555 1_555
O39 N35 1_555 1_555
O40 N35 1_555 1_555
O41 C189 1_555 1_555
O42 C196 1_555 1_555
O43 N40 1_555 1_555
O44 N40 1_555 1_555
O45 C209 1_555 1_555
O46 C216 1_555 1_555
O47 N45 1_555 1_555
O48 N45 1_555 1_555
C223 C224 1_555 1_555
C224 N46 1_555 1_555
C225 H154 1_555 1_555
C226 C225 1_555 1_555
C227 C226 1_555 1_555
H155 C227 1_555 1_555
C228 C227 1_555 1_555
C229 C228 1_555 1_555
H156 C229 1_555 1_555
C230 C225 1_555 1_555
C231 C230 1_555 1_555
C232 C231 1_555 1_555
H157 C232 1_555 1_555
C233 C232 1_555 1_555
H158 C233 1_555 1_555
C234 C233 1_555 1_555
C235 C234 1_555 1_555
H159 C235 1_555 1_555
C236 C231 1_555 1_555
H160 C236 1_555 1_555
C237 N47 1_555 1_555
C238 C239 1_555 1_555
C239 H161 1_555 1_555
C240 C239 1_555 1_555
H162 C240 1_555 1_555
C241 C240 1_555 1_555
H163 C241 1_555 1_555
C242 C241 1_555 1_555
H164 C242 1_555 1_555
C243 C238 1_555 1_555
C244 N49 1_555 1_555
C245 C246 1_555 1_555
C246 H165 1_555 1_555
C247 C246 1_555 1_555
H166 C247 1_555 1_555
C248 C247 1_555 1_555
C249 C248 1_555 1_555
H167 C249 1_555 1_555
C250 C245 1_555 1_555
H168 C250 1_555 1_555
C251 C228 1_555 1_555
C252 C251 1_555 1_555
H169 C252 1_555 1_555
C253 C252 1_555 1_555
H170 C253 1_555 1_555
C254 C253 1_555 1_555
C255 C254 1_555 1_555
H171 C255 1_555 1_555
C256 C251 1_555 1_555
H172 C256 1_555 1_555
C257 N52 1_555 1_555
C258 C259 1_555 1_555
C259 H173 1_555 1_555
C260 C259 1_555 1_555
H174 C260 1_555 1_555
C261 C260 1_555 1_555
H175 C261 1_555 1_555
C262 C261 1_555 1_555
H176 C262 1_555 1_555
C263 C258 1_555 1_555
C264 N54 1_555 1_555
C265 C266 1_555 1_555
C266 H177 1_555 1_555
C267 C266 1_555 1_555
H178 C267 1_555 1_555
C268 C267 1_555 1_555
C269 C268 1_555 1_555
H179 C269 1_555 1_555
C270 C265 1_555 1_555
H180 C270 1_555 1_555
C271 C226 1_555 1_555
C272 C271 1_555 1_555
H181 C272 1_555 1_555
C273 C272 1_555 1_555
H182 C273 1_555 1_555
C274 C273 1_555 1_555
C275 C274 1_555 1_555
H183 C275 1_555 1_555
C276 C271 1_555 1_555
H184 C276 1_555 1_555
C277 N57 1_555 1_555
C278 C279 1_555 1_555
C279 H185 1_555 1_555
C280 C279 1_555 1_555
H186 C280 1_555 1_555
C281 C280 1_555 1_555
H187 C281 1_555 1_555
C282 C281 1_555 1_555
H188 C282 1_555 1_555
C283 C278 1_555 1_555
C284 N59 1_555 1_555
C285 C286 1_555 1_555
C286 H189 1_555 1_555
C287 C286 1_555 1_555
H190 C287 1_555 1_555
C288 C287 1_555 1_555
C289 C288 1_555 1_555
H191 C289 1_555 1_555
C290 C285 1_555 1_555
H192 C290 1_555 1_555
N47 C234 1_555 1_555
H193 N47 1_555 1_555
N48 C237 1_555 1_555
H194 N48 1_555 1_555
N49 C243 1_555 1_555
H195 N49 1_555 1_555
N50 C244 1_555 1_555
H196 N50 1_555 1_555
N51 C248 1_555 1_555
N52 C254 1_555 1_555
H197 N52 1_555 1_555
N53 C257 1_555 1_555
H198 N53 1_555 1_555
N54 C263 1_555 1_555
H199 N54 1_555 1_555
N55 C264 1_555 1_555
H200 N55 1_555 1_555
N56 C268 1_555 1_555
N57 C274 1_555 1_555
H201 N57 1_555 1_555
N58 C277 1_555 1_555
H202 N58 1_555 1_555
N59 C283 1_555 1_555
H203 N59 1_555 1_555
N60 C284 1_555 1_555
H204 N60 1_555 1_555
N61 C288 1_555 1_555
O49 C237 1_555 1_555
O50 C244 1_555 1_555
O51 N51 1_555 1_555
O52 N51 1_555 1_555
O53 C257 1_555 1_555
O54 C264 1_555 1_555
O55 N56 1_555 1_555
O56 N56 1_555 1_555
O57 C277 1_555 1_555
O58 C284 1_555 1_555
O59 N61 1_555 1_555
O60 N61 1_555 1_555
C291 C292 1_555 1_555
C292 O62 1_555 1_555
C293 C294 1_555 1_555
C294 O63 1_555 1_555
C295 C296 1_555 1_555
C296 O64 1_555 1_555
C297 C298 1_555 1_555
C298 O65 1_555 1_555
C299 C300 1_555 1_555
C300 O66 1_555 1_555
C301 C302 1_555 1_555
C302 O61 1_555 1_555
O61 C291 1_555 1_555
O62 C293 1_555 1_555
O63 C295 1_555 1_555
O64 C297 1_555 1_555
O65 C299 1_555 1_555
O66 C301 1_555 1_555
C303 Cl1 1_555 1_555
Cl2 C303 1_555 1_555
Cl3 C303 1_555 1_555
Cl4 C303 1_555 1_555
C304 C305 1_555 1_555
C305 N62 1_555 1_555
O67 P1 1_555 1_555
O68 P1 1_555 1_555
O69 P1 1_555 1_555
O70 P1 1_555 1_555
O71 P2 1_555 1_555
O72 P2 1_555 1_555
O73 P2 1_555 1_555
O74 P2 1_555 1_555
O75 P3 1_555 1_555
O76 P3 1_555 1_555
O77 P3 1_555 1_555
O78 P3 1_555 1_555
O79 P4 1_555 1_555
O80 P4 1_555 1_555
O81 P4 1_555 1_555
O82 P4 1_555 1_555
C5 C6 1_555 1_555
C11 C12 1_555 1_555
C14 N2 1_555 1_555
C18 C19 1_555 1_555
C21 N4 1_555 1_555
C25 C26 1_555 1_555
C31 C32 1_555 1_555
C34 N7 1_555 1_555
C38 C39 1_555 1_555
C41 N9 1_555 1_555
C45 C46 1_555 1_555
C48 N12 1_555 1_555
C52 C53 1_555 1_555
C55 N14 1_555 1_555
C59 C60 1_555 1_555
C63 C66 1_555 1_555
C64 C65 1_555 1_555
C71 C72 1_555 1_555
C77 C78 1_555 1_555
C80 N17 1_555 1_555
C84 C85 1_555 1_555
C87 N19 1_555 1_555
C91 C92 1_555 1_555
C97 C98 1_555 1_555
C100 N22 1_555 1_555
C104 C105 1_555 1_555
C107 N24 1_555 1_555
C111 C112 1_555 1_555
C114 N27 1_555 1_555
C118 C119 1_555 1_555
C121 N29 1_555 1_555
C125 C126 1_555 1_555
C127 C132 1_555 1_555
C128 C129 1_555 1_555
C131 C132 1_555 1_555
C161 C162 1_555 1_555
C167 C168 1_555 1_555
C170 N32 1_555 1_555
C174 C175 1_555 1_555
C177 N34 1_555 1_555
C181 C182 1_555 1_555
C187 C188 1_555 1_555
C190 N37 1_555 1_555
C194 C195 1_555 1_555
C197 N39 1_555 1_555
C201 C202 1_555 1_555
C207 C208 1_555 1_555
C210 N42 1_555 1_555
C214 C215 1_555 1_555
C217 N44 1_555 1_555
C221 C222 1_555 1_555
C229 C230 1_555 1_555
C235 C236 1_555 1_555
C238 N48 1_555 1_555
C242 C243 1_555 1_555
C245 N50 1_555 1_555
C249 C250 1_555 1_555
C255 C256 1_555 1_555
C258 N53 1_555 1_555
C262 C263 1_555 1_555
C265 N55 1_555 1_555
C269 C270 1_555 1_555
C275 C276 1_555 1_555
C278 N58 1_555 1_555
C282 C283 1_555 1_555
C285 N60 1_555 1_555
C289 C290 1_555 1_555

#END
