
#######################################################################
#
#                 Cambridge Crystallographic Data Centre
#                                CCDC 
#
#######################################################################
#
# If this CIF has been generated from an entry in the Cambridge 
# Structural Database, then it will include bibliographic, chemical, 
# crystal, experimental, refinement or atomic coordinate data resulting 
# from the CCDC's data processing and validation procedures.
#
#######################################################################

data_VUMBAI
_chemical_formula_moiety         
'4(C66 H51 N15 O12),12(K1 1+),12(C12 H24 O6),4(O4 P1 3-),C4 H9 Cl1,C2 H3 N1'
_chemical_name_systematic        
'tetrakis(1,3,5-tris(4-(3-(2-(3-(4-Nitrophenyl)ureido)phenyl)ureido)phenyl)benzene) dodeca-potassium dodecakis(18-crown-6) tetrakis(phosphate) acetonitrile t-butyl chloride solvate'
_symmetry_cell_setting           monoclinic
_symmetry_space_group_name_H-M   'C c'
_symmetry_Int_Tables_number      9
_space_group_name_Hall           'C -2yc'
loop_
_symmetry_equiv_pos_site_id
_symmetry_equiv_pos_as_xyz
1 x,y,z
2 x,-y,1/2+z
3 1/2+x,1/2+y,z
4 1/2+x,1/2-y,1/2+z
_cell_length_a                   47.6577(6)
_cell_length_b                   23.9276(3)
_cell_length_c                   47.9707(6)
_cell_angle_alpha                90
_cell_angle_beta                 102.0080(10)
_cell_angle_gamma                90
_cell_volume                     53505.7
_exptl_crystal_colour            yellow
_exptl_crystal_description       block
_cell_formula_units_Z            4
loop_
_atom_site_label
_atom_site_type_symbol
_atom_site_fract_x
_atom_site_fract_y
_atom_site_fract_z
C1 C 0.5867(2) 0.6545(4) 0.24889(19)
C2 C 0.6004(2) 0.6094(4) 0.2396(2)
H1 H 0.6096 0.5834 0.2528
C3 C 0.60065(18) 0.6020(4) 0.21084(17)
C4 C 0.58640(19) 0.6415(4) 0.19131(18)
H2 H 0.5861 0.6367 0.1720
C5 C 0.5728(2) 0.6875(4) 0.20010(18)
C6 C 0.5732(2) 0.6941(4) 0.2293(2)
H3 H 0.5644 0.7250 0.2356
C7 C 0.5884(2) 0.6612(4) 0.28001(19)
C8 C 0.5904(2) 0.6180(5) 0.2982(2)
H4 H 0.5892 0.5819 0.2908
C9 C 0.5941(2) 0.6244(4) 0.3271(2)
H5 H 0.5965 0.5929 0.3387
C10 C 0.59427(18) 0.6768(4) 0.33918(17)
C11 C 0.5910(2) 0.7228(4) 0.3209(2)
H6 H 0.5902 0.7585 0.3284
C12 C 0.5891(2) 0.7168(4) 0.2919(2)
H7 H 0.5882 0.7481 0.2803
C13 C 0.60823(19) 0.6547(4) 0.38980(18)
C14 C 0.6189(3) 0.6514(5) 0.4421(2)
C15 C 0.6430(3) 0.6165(5) 0.4463(3)
H8 H 0.6502 0.6063 0.4305
C16 C 0.6566(4) 0.5967(7) 0.4724(3)
H9 H 0.6712 0.5706 0.4733
C17 C 0.6491(4) 0.6144(7) 0.4974(4)
H10 H 0.6598 0.6056 0.5154
C18 C 0.6230(3) 0.6480(6) 0.4932(3)
H11 H 0.6163 0.6588 0.5093
C19 C 0.6075(3) 0.6648(5) 0.4666(2)
C20 C 0.5648(3) 0.6988(5) 0.4797(3)
C21 C 0.5194(3) 0.7485(5) 0.4872(2)
C22 C 0.5195(3) 0.7282(6) 0.5137(3)
H12 H 0.5344 0.7054 0.5229
C23 C 0.4974(4) 0.7418(7) 0.5263(4)
H13 H 0.4964 0.7268 0.5440
C24 C 0.4766(3) 0.7782(6) 0.5127(3)
C25 C 0.4790(3) 0.8016(6) 0.4881(3)
H14 H 0.4659 0.8287 0.4798
C26 C 0.5000(3) 0.7860(6) 0.4756(3)
H15 H 0.5012 0.8019 0.4582
C27 C 0.61635(18) 0.5526(4) 0.20189(17)
C28 C 0.62061(19) 0.5046(4) 0.21789(19)
H16 H 0.6126 0.5014 0.2339
C29 C 0.63693(19) 0.4604(4) 0.21050(18)
H17 H 0.6401 0.4287 0.2220
C30 C 0.64851(19) 0.4635(4) 0.18604(18)
C31 C 0.64346(18) 0.5114(4) 0.16894(17)
H18 H 0.6505 0.5138 0.1523
C32 C 0.62824(19) 0.5543(4) 0.17683(18)
H19 H 0.6254 0.5861 0.1655
C33 C 0.6684(2) 0.4033(4) 0.1537(2)
C34 C 0.6943(2) 0.3358(4) 0.1295(2)
C35 C 0.6925(3) 0.3657(5) 0.1038(2)
H20 H 0.6857 0.4022 0.1024
C36 C 0.7010(3) 0.3401(5) 0.0799(3)
H21 H 0.7002 0.3608 0.0633
C37 C 0.7104(3) 0.2851(6) 0.0808(3)
H22 H 0.7142 0.2679 0.0646
C38 C 0.7140(2) 0.2562(4) 0.1068(2)
H23 H 0.7224 0.2209 0.1084
C39 C 0.7053(2) 0.2795(4) 0.13033(19)
C40 C 0.70268(19) 0.1897(4) 0.15627(18)
C41 C 0.69660(17) 0.1154(3) 0.18883(15)
C42 C 0.6969(2) 0.0707(4) 0.17036(14)
H24 H 0.7017 0.0765 0.1528
C43 C 0.6901(3) 0.0173(3) 0.17822(19)
H25 H 0.6903 -0.0126 0.1659
C44 C 0.6829(2) 0.0085(3) 0.2045(2)
C45 C 0.68264(18) 0.0532(3) 0.22300(15)
H26 H 0.6779 0.0473 0.2406
C46 C 0.68947(17) 0.1066(3) 0.21515(13)
H27 H 0.6893 0.1365 0.2275
C47 C 0.55869(19) 0.7291(4) 0.17945(18)
C48 C 0.5517(2) 0.7801(4) 0.1871(2)
H28 H 0.5547 0.7886 0.2064
C49 C 0.5404(2) 0.8205(4) 0.16757(19)
H29 H 0.5372 0.8561 0.1740
C50 C 0.5339(2) 0.8098(4) 0.13986(19)
C51 C 0.5335(2) 0.7538(5) 0.1327(2)
H30 H 0.5245 0.7427 0.1144
C52 C 0.5465(3) 0.7134(6) 0.1523(3)
H31 H 0.5468 0.6761 0.1469
C53 C 0.5121(2) 0.9007(4) 0.1215(2)
C54 C 0.4916(2) 0.9837(4) 0.09494(19)
C55 C 0.4997(3) 1.0244(5) 0.1157(2)
H32 H 0.5138 1.0162 0.1317
C56 C 0.4868(3) 1.0784(5) 0.1129(3)
H33 H 0.4914 1.1054 0.1271
C57 C 0.4677(3) 1.0882(6) 0.0888(3)
H34 H 0.4600 1.1240 0.0863
C58 C 0.4583(3) 1.0498(5) 0.0669(2)
H35 H 0.4445 1.0592 0.0509
C59 C 0.47077(19) 0.9957(4) 0.07022(18)
C60 C 0.43820(18) 0.9487(4) 0.03088(17)
C61 C 0.41364(19) 0.8920(4) -0.00919(17)
C62 C 0.4176(2) 0.8583(4) -0.0314(2)
H36 H 0.4362 0.8478 -0.0322
C63 C 0.3957(2) 0.8399(4) -0.0519(2)
H37 H 0.3992 0.8196 -0.0673
C64 C 0.3683(2) 0.8519(4) -0.0494(2)
C65 C 0.3631(2) 0.8868(4) -0.0264(2)
H38 H 0.3445 0.8967 -0.0252
C66 C 0.3849(2) 0.9039(4) -0.0076(2)
H39 H 0.3816 0.9251 0.0076
N1 N 0.59436(15) 0.6878(3) 0.36830(14)
H40 H 0.5852 0.7166 0.3725
N2 N 0.60515(17) 0.6735(3) 0.41556(16)
H41 H 0.5938 0.7014 0.4158
N3 N 0.58372(19) 0.7022(4) 0.46299(18)
H42 H 0.5816 0.7272 0.4499
N4 N 0.5418(2) 0.7331(4) 0.47055(19)
H43 H 0.5399 0.7472 0.4538
N5 N 0.4559(3) 0.7970(5) 0.5286(3)
N6 N 0.66560(16) 0.4166(3) 0.18018(15)
H44 H 0.6743 0.3964 0.1942
N7 N 0.68712(16) 0.3579(3) 0.15314(16)
H45 H 0.6947 0.3429 0.1692
N8 N 0.70680(15) 0.2475(3) 0.15506(14)
H46 H 0.7106 0.2651 0.1710
N9 N 0.70328(17) 0.1709(3) 0.18350(16)
H47 H 0.7079 0.1937 0.1976
N10 N 0.6722(3) -0.0486(7) 0.2109(3)
N11 N 0.52293(15) 0.8486(3) 0.11802(15)
H48 H 0.5231 0.8385 0.1008
N12 N 0.50437(15) 0.9307(3) 0.09685(15)
H49 H 0.5076 0.9160 0.0814
N13 N 0.46417(15) 0.9556(3) 0.04854(14)
H50 H 0.4777 0.9336 0.0462
N14 N 0.43733(16) 0.9081(3) 0.01146(15)
H51 H 0.4530 0.8901 0.0118
N15 N 0.3438(2) 0.8301(4) -0.0710(2)
O1 O 0.62125(15) 0.6118(3) 0.38636(14)
O2 O 0.56511(19) 0.6660(4) 0.49985(18)
O3 O 0.4421(2) 0.8375(5) 0.5203(2)
O4 O 0.4524(3) 0.7741(5) 0.5505(2)
O5 O 0.65489(15) 0.4254(3) 0.13157(14)
O6 O 0.69841(15) 0.1607(3) 0.13530(14)
O7 O 0.6729(3) -0.0847(7) 0.1913(3)
O8 O 0.6698(2) -0.0556(4) 0.2349(2)
O9 O 0.50857(15) 0.9185(3) 0.14534(14)
O10 O 0.41699(14) 0.9789(3) 0.03266(13)
O11 O 0.3192(2) 0.8339(4) -0.0659(2)
O12 O 0.34880(18) 0.8083(4) -0.09208(17)
K1 K 0.61345(9) -0.14545(17) 0.18381(8)
K2 K 0.63118(16) -0.1234(3) 0.18302(15)
C67 C 0.04839(19) 1.1049(4) 0.78004(18)
H52 H 0.0534 1.1333 0.7688
C68 C 0.01923(18) 1.0991(4) 0.78109(17)
C69 C 0.0118(2) 1.0519(4) 0.79749(18)
H53 H -0.0072 1.0460 0.7984
C70 C 0.0317(2) 1.0175(4) 0.8111(2)
C71 C 0.0619(2) 1.0265(4) 0.81105(19)
H54 H 0.0756 1.0030 0.8217
C72 C 0.07064(19) 1.0701(4) 0.79519(18)
C73 C -0.00353(19) 1.1336(4) 0.76328(18)
C74 C -0.03100(18) 1.1383(4) 0.76801(17)
H55 H -0.0351 1.1206 0.7840
C75 C -0.0519(2) 1.1664(4) 0.75133(18)
H56 H -0.0701 1.1670 0.7556
C76 C -0.04725(19) 1.1949(4) 0.72758(17)
C77 C -0.01961(19) 1.1948(4) 0.72272(19)
H57 H -0.0154 1.2143 0.7073
C78 C 0.0019(2) 1.1654(4) 0.74089(19)
H58 H 0.0206 1.1672 0.7379
C79 C -0.0683(2) 1.2694(4) 0.69381(18)
C80 C -0.0987(2) 1.3413(4) 0.6640(2)
C81 C -0.07699(19) 1.3803(6) 0.6644(3)
H59 H -0.0584 1.3725 0.6742
C82 C -0.0830(3) 1.4309(5) 0.6502(3)
H60 H -0.0685 1.4570 0.6505
C83 C -0.1108(4) 1.4425(4) 0.6356(3)
H61 H -0.1148 1.4764 0.6261
C84 C -0.1325(2) 1.4036(5) 0.6352(3)
H62 H -0.1510 1.4113 0.6254
C85 C -0.1264(2) 1.3529(5) 0.6494(2)
C86 C -0.1663(3) 1.2992(5) 0.6250(3)
C87 C -0.20758(17) 1.2367(3) 0.60851(16)
C88 C -0.21686(18) 1.1821(3) 0.61066(15)
H63 H -0.2088 1.1605 0.6264
C89 C -0.23815(19) 1.1599(3) 0.58927(18)
H64 H -0.2444 1.1233 0.5907
C90 C -0.25015(18) 1.1922(4) 0.56574(16)
C91 C -0.2409(2) 1.2468(4) 0.56359(16)
H65 H -0.2489 1.2685 0.5478
C92 C -0.2196(2) 1.2691(3) 0.58498(19)
H66 H -0.2134 1.3056 0.5835
C93 C 0.0240(2) 0.9700(5) 0.8273(2)
C94 C -0.0017(3) 0.9442(5) 0.8180(3)
H67 H -0.0146 0.9581 0.8023
C95 C -0.0086(4) 0.8960(7) 0.8323(3)
H68 H -0.0274 0.8829 0.8277
C96 C 0.0087(3) 0.8703(6) 0.8505(3)
C97 C 0.0358(3) 0.8980(7) 0.8638(3)
H69 H 0.0476 0.8844 0.8804
C98 C 0.0424(3) 0.9444(6) 0.8505(3)
H70 H 0.0604 0.9604 0.8571
C99 C -0.0218(4) 0.8124(8) 0.8758(4)
C100 C -0.0427(2) 0.7433(4) 0.9045(2)
C101 C -0.0622(3) 0.7780(3) 0.9140(3)
H71 H -0.0608 0.8166 0.9123
C102 C -0.0837(3) 0.7550(5) 0.9260(3)
H72 H -0.0967 0.7782 0.9323
C103 C -0.0858(2) 0.6974(5) 0.9285(2)
H73 H -0.1002 0.6820 0.9365
C104 C -0.0663(2) 0.6627(4) 0.9190(2)
H74 H -0.0676 0.6241 0.9207
C105 C -0.04473(18) 0.6857(4) 0.90703(18)
C106 C -0.0214(2) 0.5999(4) 0.89491(19)
C107 C 0.00950(18) 0.5266(4) 0.88086(17)
C108 C -0.0130(2) 0.4972(4) 0.86251(19)
H75 H -0.0314 0.5116 0.8573
C109 C -0.0057(2) 0.4462(5) 0.8529(2)
H76 H -0.0200 0.4258 0.8410
C110 C 0.0216(2) 0.4232(4) 0.85979(18)
C111 C 0.0441(2) 0.4549(5) 0.8773(2)
H77 H 0.0629 0.4416 0.8815
C112 C 0.0374(2) 0.5044(4) 0.88742(19)
H78 H 0.0518 0.5247 0.8992
C113 C 0.10022(18) 1.0755(4) 0.79206(16)
C114 C 0.1109(2) 1.1262(4) 0.7819(2)
H79 H 0.0989 1.1571 0.7778
C115 C 0.1385(2) 1.1292(5) 0.7782(2)
H80 H 0.1449 1.1624 0.7715
C116 C 0.15722(18) 1.0846(4) 0.78406(17)
C117 C 0.1483(2) 1.0380(5) 0.7955(2)
H81 H 0.1611 1.0087 0.8009
C118 C 0.1202(2) 1.0328(4) 0.7995(2)
H82 H 0.1148 1.0000 0.8074
C119 C 0.2088(2) 1.0660(4) 0.7911(2)
C120 C 0.2620(2) 1.0732(4) 0.7965(2)
C121 C 0.2710(3) 1.0521(5) 0.8234(3)
H83 H 0.2571 1.0465 0.8341
C122 C 0.2986(3) 1.0386(6) 0.8358(3)
H84 H 0.3036 1.0247 0.8543
C123 C 0.3188(4) 1.0473(7) 0.8186(3)
H85 H 0.3379 1.0376 0.8259
C124 C 0.3117(3) 1.0698(5) 0.7910(3)
H86 H 0.3257 1.0761 0.7804
C125 C 0.2828(2) 1.0823(5) 0.7799(2)
C126 C 0.2879(3) 1.1017(5) 0.7318(2)
C127 C 0.2886(2) 1.1461(5) 0.6849(2)
C128 C 0.2711(3) 1.1671(6) 0.6605(3)
H87 H 0.2515 1.1700 0.6595
C129 C 0.2825(3) 1.1841(6) 0.6372(3)
H88 H 0.2712 1.2007 0.6212
C130 C 0.3121(2) 1.1745(5) 0.6393(2)
C131 C 0.3283(2) 1.1565(4) 0.6609(2)
H89 H 0.3477 1.1531 0.6608
C132 C 0.3183(2) 1.1404(5) 0.6862(2)
H90 H 0.3307 1.1271 0.7025
N16 N -0.07035(16) 1.2238(3) 0.70998(15)
H91 H -0.0873 1.2111 0.7096
N17 N -0.0941(2) 1.2908(4) 0.67976(18)
H92 H -0.1091 1.2715 0.6806
N18 N -0.1482(2) 1.3117(4) 0.64961(19)
H93 H -0.1497 1.2953 0.6652
N19 N -0.1856(2) 1.2538(4) 0.6282(2)
H94 H -0.1824 1.2367 0.6443
N20 N -0.2708(3) 1.1620(7) 0.5425(3)
N21 N 0.0026(3) 0.8220(5) 0.8663(2)
H95 H 0.0158 0.7969 0.8701
N22 N -0.0201(3) 0.7654(6) 0.8936(3)
H96 H -0.0038 0.7489 0.8982
N23 N -0.02008(17) 0.6548(3) 0.90389(15)
H97 H -0.0036 0.6710 0.9077
N24 N 0.00517(15) 0.5795(3) 0.89143(14)
H98 H 0.0198 0.6011 0.8961
N25 N 0.0279(2) 0.3690(4) 0.84943(18)
N26 N 0.18493(16) 1.0931(3) 0.77800(15)
H99 H 0.1865 1.1171 0.7651
N27 N 0.23323(17) 1.0883(3) 0.78540(16)
H100 H 0.2308 1.1154 0.7734
N28 N 0.27440(19) 1.1097(4) 0.75302(17)
H101 H 0.2600 1.1322 0.7505
N29 N 0.2753(2) 1.1341(4) 0.70670(18)
H102 H 0.2582 1.1467 0.7055
N30 N 0.3220(2) 1.1928(4) 0.6130(2)
O13 O -0.04446(15) 1.2883(3) 0.69030(14)
O14 O -0.1682(2) 1.3219(4) 0.6014(2)
O15 O -0.2777(3) 1.1976(6) 0.5201(3)
O16 O -0.2790(3) 1.1193(5) 0.5472(2)
O17 O -0.0443(4) 0.8380(7) 0.8646(3)
O18 O -0.04336(16) 0.5711(3) 0.89097(15)
O19 O 0.00700(19) 0.3402(4) 0.83799(18)
O20 O 0.05175(19) 0.3528(4) 0.85329(17)
O21 O 0.21002(15) 1.0247(3) 0.80691(14)
O22 O 0.30830(18) 1.0710(3) 0.73157(16)
O23 O 0.3068(3) 1.2083(5) 0.5928(3)
O24 O 0.34857(18) 1.1847(3) 0.61435(17)
C133 C 0.5419(2) 0.5657(4) 0.65954(19)
C134 C 0.5133(2) 0.5715(4) 0.66209(19)
H103 H 0.5082 0.6030 0.6713
C135 C 0.4920(2) 0.5326(4) 0.6515(2)
C136 C 0.4999(2) 0.4869(4) 0.63579(19)
H104 H 0.4860 0.4615 0.6274
C137 C 0.5275(2) 0.4796(4) 0.63277(19)
C138 C 0.5488(2) 0.5193(4) 0.64514(19)
H105 H 0.5678 0.5140 0.6435
C139 C 0.53621(19) 0.4308(4) 0.61662(17)
C140 C 0.5148(3) 0.3995(6) 0.5994(3)
H106 H 0.4956 0.4085 0.5979
C141 C 0.5229(3) 0.3547(5) 0.5844(3)
H107 H 0.5085 0.3335 0.5731
C142 C 0.55152(18) 0.3399(4) 0.58559(17)
C143 C 0.5709(2) 0.3757(5) 0.5995(2)
H108 H 0.5902 0.3702 0.5993
C144 C 0.5631(2) 0.4218(4) 0.6146(2)
H109 H 0.5772 0.4466 0.6234
C145 C 0.58295(19) 0.2845(4) 0.56255(18)
C146 C 0.6067(2) 0.2188(4) 0.53514(18)
C147 C 0.6267(2) 0.2541(5) 0.5290(2)
H110 H 0.6245 0.2924 0.5310
C148 C 0.6511(3) 0.2327(5) 0.5195(2)
H111 H 0.6656 0.2565 0.5167
C149 C 0.6525(2) 0.1767(4) 0.5148(2)
H112 H 0.6682 0.1623 0.5086
C150 C 0.6307(2) 0.1403(4) 0.51920(18)
H113 H 0.6318 0.1025 0.5151
C151 C 0.60802(17) 0.1602(3) 0.52945(16)
C152 C 0.58781(18) 0.0701(3) 0.54031(16)
C153 C 0.5589(2) -0.0094(4) 0.55105(19)
C154 C 0.5812(2) -0.0452(5) 0.5635(2)
H114 H 0.6001 -0.0326 0.5667
C155 C 0.5756(2) -0.0976(5) 0.5708(2)
H115 H 0.5907 -0.1211 0.5790
C156 C 0.5482(2) -0.1164(4) 0.5664(2)
C157 C 0.5243(3) -0.0823(5) 0.5541(2)
H116 H 0.5056 -0.0952 0.5513
C158 C 0.5309(2) -0.0282(4) 0.54666(18)
H117 H 0.5160 -0.0043 0.5385
C159 C 0.4614(2) 0.5409(4) 0.6537(2)
C160 C 0.4388(2) 0.5204(4) 0.6356(2)
H118 H 0.4422 0.4993 0.6204
C161 C 0.4102(2) 0.5286(4) 0.6379(2)
H119 H 0.3954 0.5119 0.6249
C162 C 0.4043(2) 0.5613(4) 0.65951(18)
C163 C 0.4271(2) 0.5819(4) 0.6797(2)
H120 H 0.4236 0.6044 0.6944
C164 C 0.4555(2) 0.5690(4) 0.6781(2)
H121 H 0.4705 0.5789 0.6930
C165 C 0.35214(19) 0.5458(4) 0.65282(18)
C166 C 0.3001(2) 0.5548(4) 0.64587(19)
C167 C 0.2938(2) 0.5165(5) 0.6224(2)
H122 H 0.3083 0.5042 0.6136
C168 C 0.2653(3) 0.4975(6) 0.6127(3)
H123 H 0.2611 0.4711 0.5982
C169 C 0.2441(3) 0.5184(5) 0.6249(3)
H124 H 0.2254 0.5061 0.6183
C170 C 0.2494(2) 0.5566(5) 0.6464(2)
H125 H 0.2341 0.5715 0.6532
C171 C 0.2770(2) 0.5737(4) 0.65841(19)
C172 C 0.2671(3) 0.6247(5) 0.6993(2)
C173 C 0.26436(15) 0.6861(3) 0.73977(14)
C174 C 0.23508(15) 0.6811(3) 0.73859(14)
H126 H 0.2236 0.6617 0.7237
C175 C 0.22297(12) 0.7051(3) 0.75971(16)
H127 H 0.2034 0.7017 0.7589
C176 C 0.24014(16) 0.7341(3) 0.78202(14)
C177 C 0.26942(16) 0.7391(3) 0.78319(14)
H128 H 0.2809 0.7585 0.7981
C178 C 0.28153(12) 0.7152(4) 0.76207(16)
H129 H 0.3011 0.7185 0.7629
C179 C 0.5631(2) 0.6057(4) 0.67285(18)
C180 C 0.5601(2) 0.6358(5) 0.6973(2)
H130 H 0.5432 0.6321 0.7040
C181 C 0.5815(2) 0.6706(5) 0.7115(2)
H131 H 0.5796 0.6867 0.7286
C182 C 0.60503(18) 0.6818(4) 0.70080(16)
C183 C 0.60668(19) 0.6557(4) 0.67472(17)
H132 H 0.6218 0.6648 0.6661
C184 C 0.58704(17) 0.6177(3) 0.66175(16)
H133 H 0.5897 0.5997 0.6453
C185 C 0.62321(19) 0.7631(4) 0.72987(17)
C186 C 0.6499(2) 0.8367(4) 0.75868(18)
C187 C 0.6277(2) 0.8757(4) 0.7564(2)
H134 H 0.6113 0.8714 0.7421
C188 C 0.6295(3) 0.9198(5) 0.7746(2)
H135 H 0.6149 0.9464 0.7718
C189 C 0.6514(2) 0.9254(5) 0.7959(2)
H136 H 0.6513 0.9534 0.8093
C190 C 0.6752(2) 0.8895(4) 0.7989(2)
H137 H 0.6914 0.8968 0.8129
C191 C 0.6748(2) 0.8431(4) 0.78121(19)
C192 C 0.7173(2) 0.7945(5) 0.8069(2)
C193 C 0.7583(3) 0.7311(5) 0.8255(2)
C194 C 0.7572(3) 0.7357(6) 0.8536(3)
H138 H 0.7417 0.7523 0.8593
C195 C 0.7809(3) 0.7143(6) 0.8737(3)
H139 H 0.7812 0.7174 0.8930
C196 C 0.8034(4) 0.6889(7) 0.8649(3)
C197 C 0.8048(3) 0.6862(6) 0.8359(3)
H140 H 0.8207 0.6719 0.8300
C198 C 0.7807(3) 0.7065(5) 0.8166(3)
H141 H 0.7800 0.7030 0.7972
N31 N 0.55744(14) 0.2929(3) 0.57035(13)
H142 H 0.5443 0.2680 0.5657
N32 N 0.58197(15) 0.2381(3) 0.54415(14)
H143 H 0.5659 0.2211 0.5383
N33 N 0.58539(15) 0.1244(3) 0.53376(13)
H144 H 0.5686 0.1392 0.5320
N34 N 0.56275(14) 0.0460(3) 0.54343(13)
H145 H 0.5478 0.0671 0.5404
N35 N 0.5418(2) -0.1720(4) 0.5753(2)
N36 N 0.37662(15) 0.5768(3) 0.66241(14)
H146 H 0.3748 0.6080 0.6708
N37 N 0.32792(16) 0.5716(3) 0.65654(15)
H147 H 0.3301 0.6016 0.6666
N38 N 0.28339(18) 0.6125(3) 0.68011(16)
H148 H 0.2992 0.6305 0.6816
N39 N 0.2784(2) 0.6621(4) 0.71927(18)
H149 H 0.2958 0.6724 0.7197
N40 N 0.2282(2) 0.7579(5) 0.8050(2)
N41 N 0.62722(15) 0.7160(3) 0.71380(13)
H150 H 0.6443 0.7081 0.7119
N42 N 0.64807(16) 0.7899(3) 0.74129(14)
H151 H 0.6637 0.7771 0.7375
N43 N 0.69677(16) 0.8057(3) 0.78357(16)
H152 H 0.6977 0.7871 0.7684
N44 N 0.73613(18) 0.7532(4) 0.80362(18)
H153 H 0.7345 0.7393 0.7868
N45 N 0.8265(3) 0.6616(7) 0.8875(3)
O25 O 0.60551(15) 0.3114(3) 0.57106(14)
O26 O 0.61058(13) 0.0430(3) 0.54334(12)
O27 O 0.5615(2) -0.2081(4) 0.5782(2)
O28 O 0.5173(2) -0.1856(4) 0.5771(2)
O29 O 0.35317(14) 0.4998(3) 0.64165(13)
O30 O 0.2457(2) 0.5940(5) 0.7009(2)
O31 O 0.2049(2) 0.7328(4) 0.80734(19)
O32 O 0.2427(2) 0.7897(5) 0.8225(2)
O33 O 0.59946(14) 0.7785(3) 0.73296(13)
O34 O 0.71917(16) 0.8210(3) 0.82889(16)
O35 O 0.8255(3) 0.6677(7) 0.9110(4)
O36 O 0.8468(3) 0.6429(6) 0.8777(3)
K3 K 0.63202(5) -0.04371(10) 0.51912(5)
C199 C 0.4605(2) 1.3319(4) 0.67801(18)
C200 C 0.47877(19) 1.3005(4) 0.69941(18)
H154 H 0.4902 1.2726 0.6940
C201 C 0.4802(2) 1.3106(4) 0.72889(19)
C202 C 0.4639(2) 1.3555(4) 0.7355(2)
H155 H 0.4644 1.3638 0.7546
C203 C 0.4470(2) 1.3882(4) 0.71436(18)
C204 C 0.44522(19) 1.3755(4) 0.68590(18)
H156 H 0.4335 1.3969 0.6720
C205 C 0.4975(2) 1.2765(4) 0.75118(19)
C206 C 0.5078(2) 1.2984(5) 0.7787(2)
H157 H 0.5053 1.3362 0.7819
C207 C 0.5216(2) 1.2652(4) 0.8009(2)
H158 H 0.5266 1.2801 0.8192
C208 C 0.52805(19) 1.2092(4) 0.79613(18)
C209 C 0.5196(2) 1.1889(4) 0.76893(19)
H159 H 0.5241 1.1523 0.7651
C210 C 0.50446(19) 1.2226(4) 0.74676(19)
H160 H 0.4990 1.2075 0.7286
C211 C 0.5579(2) 1.1308(4) 0.8186(2)
C212 C 0.58305(18) 1.0557(4) 0.84762(17)
C213 C 0.5790(2) 1.0140(4) 0.8275(2)
H161 H 0.5659 1.0197 0.8104
C214 C 0.5940(2) 0.9627(5) 0.8320(2)
H162 H 0.5915 0.9357 0.8178
C215 C 0.6118(2) 0.9536(5) 0.8568(2)
H163 H 0.6213 0.9196 0.8599
C216 C 0.6165(2) 0.9937(4) 0.8779(2)
H164 H 0.6292 0.9865 0.8951
C217 C 0.60221(19) 1.0450(4) 0.87369(18)
C218 C 0.6313(2) 1.0985(4) 0.91288(19)
C219 C 0.6530(2) 1.1654(4) 0.9507(2)
C220 C 0.6785(3) 1.1385(6) 0.9600(3)
H165 H 0.6807 1.1019 0.9542
C221 C 0.7008(3) 1.1645(6) 0.9777(3)
H166 H 0.7185 1.1470 0.9835
C222 C 0.6961(3) 1.2193(6) 0.9870(3)
C223 C 0.6715(3) 1.2438(6) 0.9784(3)
H167 H 0.6689 1.2798 0.9847
C224 C 0.6495(3) 1.2187(5) 0.9606(2)
H168 H 0.6321 1.2372 0.9550
C225 C 0.43034(19) 1.4375(4) 0.72310(18)
C226 C 0.4438(2) 1.4704(4) 0.7445(2)
H169 H 0.4630 1.4639 0.7525
C227 C 0.4291(2) 1.5151(5) 0.7549(2)
H170 H 0.4378 1.5348 0.7711
C228 C 0.40197(18) 1.5284(3) 0.74073(16)
C229 C 0.38835(19) 1.4959(4) 0.71743(17)
H171 H 0.3697 1.5037 0.7079
C230 C 0.40378(18) 1.4513(4) 0.70891(17)
H172 H 0.3954 1.4306 0.6929
C231 C 0.38879(19) 1.5954(4) 0.77496(18)
C232 C 0.36779(19) 1.6642(4) 0.80258(18)
C233 C 0.3714(2) 1.6362(5) 0.8274(2)
H173 H 0.3772 1.5990 0.8278
C234 C 0.3668(2) 1.6604(5) 0.8525(2)
H174 H 0.3691 1.6393 0.8691
C235 C 0.3590(2) 1.7142(5) 0.8525(2)
H175 H 0.3570 1.7312 0.8694
C236 C 0.3537(2) 1.7448(4) 0.8270(2)
H176 H 0.3463 1.7808 0.8267
C237 C 0.35955(19) 1.7218(4) 0.80231(18)
C238 C 0.3618(2) 1.8087(4) 0.77652(18)
C239 C 0.3637(2) 1.8862(3) 0.74209(19)
C240 C 0.3595(2) 1.9302(4) 0.75972(16)
H177 H 0.3546 1.9229 0.7771
C241 C 0.3628(3) 1.9850(4) 0.7514(2)
H178 H 0.3600 2.0144 0.7632
C242 C 0.3703(3) 1.9959(3) 0.7254(3)
C243 C 0.3745(3) 1.9519(5) 0.7077(2)
H179 H 0.3794 1.9591 0.6904
C244 C 0.3712(2) 1.8971(4) 0.71610(18)
H180 H 0.3740 1.8676 0.7043
C245 C 0.45885(17) 1.3168(3) 0.64758(16)
C246 C 0.44805(18) 1.3542(4) 0.62503(17)
H181 H 0.4412 1.3889 0.6293
C247 C 0.44735(19) 1.3412(4) 0.59733(18)
H182 H 0.4396 1.3667 0.5832
C248 C 0.45797(18) 1.2907(3) 0.58949(16)
C249 C 0.46818(18) 1.2523(4) 0.61107(17)
H183 H 0.4748 1.2178 0.6063
C250 C 0.46870(19) 1.2644(4) 0.63936(18)
H184 H 0.4756 1.2378 0.6533
C251 C 0.44165(19) 1.2952(4) 0.53767(18)
C252 C 0.4312(2) 1.2793(4) 0.4853(2)
C253 C 0.4031(3) 1.2990(5) 0.4798(2)
H185 H 0.3927 1.3033 0.4940
C254 C 0.3917(3) 1.3116(6) 0.4513(3)
H186 H 0.3732 1.3261 0.4468
C255 C 0.4054(3) 1.3044(6) 0.4302(3)
H187 H 0.3964 1.3132 0.4116
C256 C 0.4331(2) 1.2837(5) 0.4362(2)
H188 H 0.4424 1.2776 0.4212
C257 C 0.4469(2) 1.2722(4) 0.46296(19)
C258 C 0.4951(2) 1.2569(4) 0.45416(19)
C259 C 0.54317(19) 1.2205(4) 0.45111(18)
C260 C 0.5427(2) 1.2388(5) 0.4228(2)
H189 H 0.5273 1.2594 0.4129
C261 C 0.5662(2) 1.2254(4) 0.4100(2)
H190 H 0.5662 1.2368 0.3915
C262 C 0.5891(2) 1.1951(4) 0.4253(2)
C263 C 0.5890(2) 1.1787(4) 0.4538(2)
H191 H 0.6043 1.1586 0.4642
C264 C 0.5669(2) 1.1922(4) 0.4653(2)
H192 H 0.5675 1.1819 0.4841
N46 N 0.54116(15) 1.1774(3) 0.81966(14)
H193 H 0.5386 1.1877 0.8361
N47 N 0.56762(15) 1.1059(3) 0.84399(15)
H194 H 0.5641 1.1219 0.8590
N48 N 0.60585(15) 1.0877(3) 0.89519(14)
H195 H 0.5912 1.1073 0.8969
N49 N 0.62984(17) 1.1433(3) 0.93096(16)
H196 H 0.6133 1.1587 0.9299
N50 N 0.7204(3) 1.2538(6) 1.0080(2)
N51 N 0.38727(14) 1.5774(3) 0.74803(13)
H197 H 0.3770 1.5963 0.7344
N52 N 0.37248(15) 1.6419(3) 0.77686(15)
H198 H 0.3646 1.6585 0.7613
N53 N 0.35568(14) 1.7533(3) 0.77690(14)
H199 H 0.3492 1.7366 0.7610
N54 N 0.36052(18) 1.8305(4) 0.74939(18)
H200 H 0.3574 1.8070 0.7355
N55 N 0.3757(3) 2.0586(6) 0.7078(3)
N56 N 0.45917(14) 1.2751(3) 0.56147(13)
H201 H 0.4719 1.2510 0.5593
N57 N 0.44532(16) 1.2663(3) 0.51380(15)
H202 H 0.4570 1.2385 0.5163
N58 N 0.47457(16) 1.2504(3) 0.47000(16)
H203 H 0.4791 1.2314 0.4855
N59 N 0.52086(15) 1.2294(3) 0.46503(15)
H204 H 0.5231 1.2168 0.4821
N60 N 0.61261(18) 1.1814(4) 0.41231(17)
O37 O 0.56401(15) 1.1138(3) 0.79591(14)
O38 O 0.65407(15) 1.0736(3) 0.91234(14)
O39 O 0.7414(3) 1.2243(6) 1.0147(3)
O40 O 0.7160(2) 1.3013(5) 1.0115(2)
O41 O 0.40429(15) 1.5721(3) 0.79601(14)
O42 O 0.36901(15) 1.8381(3) 0.79824(14)
O43 O 0.3769(3) 2.0776(6) 0.7267(3)
O44 O 0.3692(4) 2.0560(7) 0.6837(4)
O45 O 0.42529(15) 1.3342(3) 0.53669(14)
O46 O 0.49216(16) 1.2858(3) 0.43212(15)
O47 O 0.61392(18) 1.2042(4) 0.38927(17)
O48 O 0.6314(2) 1.1520(4) 0.42424(19)
C265 C 0.4283(3) 1.0918(7) 0.6337(3)
C266 C 0.4318(4) 1.1126(7) 0.6031(3)
C267 C 0.4092(3) 1.1581(7) 0.5649(3)
C268 C 0.3836(3) 1.1968(6) 0.5512(3)
C269 C 0.3646(3) 1.2848(5) 0.5562(3)
C270 C 0.3686(3) 1.3384(6) 0.5749(3)
C271 C 0.3625(3) 1.3740(6) 0.6179(3)
C272 C 0.3550(3) 1.3509(6) 0.6462(3)
C273 C 0.3724(3) 1.2963(7) 0.6859(3)
C274 C 0.3983(4) 1.2581(8) 0.7009(4)
C275 C 0.4251(4) 1.1804(8) 0.6966(4)
C276 C 0.4290(4) 1.1251(8) 0.6789(4)
O49 O 0.4304(2) 1.1424(4) 0.65154(19)
O50 O 0.4090(2) 1.1466(4) 0.59293(18)
O51 O 0.38715(17) 1.2485(3) 0.56773(16)
O52 O 0.36308(16) 1.3232(3) 0.60119(15)
O53 O 0.37857(17) 1.3179(3) 0.66064(16)
O54 O 0.40171(19) 1.2150(4) 0.68359(18)
C277 C 0.6040(3) -0.1847(6) 0.5149(3)
C278 C 0.6338(3) -0.1881(6) 0.5313(3)
C279 C 0.6629(4) -0.1501(8) 0.5740(4)
C280 C 0.6882(4) -0.1332(8) 0.5639(4)
C281 C 0.7099(3) -0.0657(6) 0.5406(3)
C282 C 0.7074(3) -0.0110(6) 0.5261(3)
C283 C 0.6805(3) 0.0393(5) 0.4872(3)
C284 C 0.6548(2) 0.0339(5) 0.4619(2)
C285 C 0.6051(2) 0.0237(4) 0.4511(2)
C286 C 0.5783(2) 0.0220(4) 0.4657(2)
C287 C 0.5698(2) -0.0772(5) 0.4645(2)
C288 C 0.5708(3) -0.1266(5) 0.4839(2)
O55 O 0.59978(16) -0.1346(3) 0.49844(15)
O56 O 0.63818(18) -0.1423(3) 0.55197(17)
O57 O 0.6860(2) -0.0741(4) 0.5524(2)
O58 O 0.68342(17) -0.0137(3) 0.50237(15)
O59 O 0.62940(14) 0.0271(3) 0.47358(13)
O60 O 0.57824(13) -0.0282(3) 0.48177(12)
C289 C 0.1804(3) 0.8944(6) 0.7549(3)
C290 C 0.2046(4) 0.8803(7) 0.7404(3)
C291 C 0.2558(4) 0.8827(7) 0.7494(4)
C292 C 0.2803(3) 0.9087(6) 0.7666(3)
C293 C 0.3080(4) 0.8943(7) 0.8147(3)
C294 C 0.3033(3) 0.8679(6) 0.8416(3)
C295 C 0.2879(4) 0.9041(8) 0.8812(4)
C296 C 0.2656(3) 0.9360(6) 0.8901(3)
C297 C 0.2099(5) 0.9333(9) 0.8808(4)
C298 C 0.1883(4) 0.8989(7) 0.8665(4)
C299 C 0.1675(3) 0.8508(6) 0.8236(3)
C300 C 0.1603(4) 0.8697(7) 0.7931(3)
O61 O 0.1859(2) 0.8676(4) 0.78100(19)
O62 O 0.2313(2) 0.9043(4) 0.75799(18)
O63 O 0.2825(2) 0.8866(5) 0.7956(2)
O64 O 0.2864(2) 0.9078(5) 0.8537(2)
O65 O 0.2371(3) 0.9098(5) 0.8768(2)
O66 O 0.1847(2) 0.8976(4) 0.83702(19)
C301 C -0.0319(3) 1.1774(5) 0.8594(2)
C302 C -0.0536(3) 1.1948(5) 0.8374(2)
C303 C -0.0685(2) 1.2697(5) 0.8025(2)
C304 C -0.0589(3) 1.3204(5) 0.7902(2)
C305 C -0.0271(3) 1.3555(6) 0.7620(3)
C306 C -0.0011(3) 1.3371(6) 0.7497(3)
C307 C 0.0485(3) 1.3092(6) 0.7630(3)
C308 C 0.0714(3) 1.2970(5) 0.7896(2)
C309 C 0.0844(3) 1.2432(5) 0.8286(2)
C310 C 0.0781(3) 1.1921(5) 0.8420(2)
C311 C 0.0442(3) 1.1409(6) 0.8588(3)
C312 C 0.0170(3) 1.1477(5) 0.8692(2)
O67 O -0.00632(15) 1.1641(3) 0.84812(14)
O68 O -0.04607(15) 1.2467(3) 0.82347(14)
O69 O -0.03555(16) 1.3083(3) 0.77575(15)
O70 O 0.02327(16) 1.3228(3) 0.77332(15)
O71 O 0.06456(15) 1.2484(3) 0.80312(14)
O72 O 0.05092(15) 1.1921(3) 0.85041(15)
C313 C 0.0013(2) 0.4040(5) 0.9507(2)
C314 C -0.0073(5) 0.3811(9) 0.9226(4)
C315 C -0.0471(4) 0.3420(6) 0.8884(3)
C316 C -0.0733(6) 0.3455(12) 0.8784(5)
C317 C -0.1183(5) 0.4627(10) 0.8688(5)
C318 C -0.1362(4) 0.5141(8) 0.9021(4)
C319 C -0.1244(7) 0.5261(11) 0.9292(6)
C320 C -0.0876(3) 0.5567(6) 0.9705(3)
C321 C -0.0518(4) 0.5348(8) 0.9802(4)
C322 C -0.0097(3) 0.5477(5) 0.9704(3)
C323 C 0.0021(3) 0.4856(7) 0.9772(3)
O73 O -0.0985(4) 0.5362(6) 0.9427(3)
O74 O -0.1247(4) 0.4704(7) 0.8907(4)
O75 O -0.0772(3) 0.3951(7) 0.8742(3)
O76 O -0.0350(2) 0.3735(4) 0.9148(2)
O77 O -0.0069(2) 0.4639(4) 0.9517(2)
O78 O -0.0389(3) 0.5530(6) 0.9643(3)
C324 C -0.1118(8) 0.3937(15) 0.8653(7)
K4 K 0.40078(9) 1.23732(17) 0.63062(7)
K5 K 0.23259(5) 0.92059(10) 0.81536(5)
K6 K 0.00858(7) 1.23955(13) 0.81147(6)
K7 K -0.06178(9) 0.48542(18) 0.91066(8)
K8 K 0.56246(9) 0.72998(18) 0.62773(8)
K9 K 0.21649(7) 0.65943(14) 0.85835(7)
K10 K -0.15580(13) 1.2678(3) 0.55728(12)
K11 K 0.39849(10) 1.23929(19) 0.62117(8)
K12 K 0.00525(8) 1.24838(16) 0.80385(7)
K13 K -0.06048(10) 0.47690(19) 0.91784(8)
K14 K 0.55893(9) 0.71686(19) 0.62010(9)
C325 C 0.5266(5) 0.5378(9) 0.2280(4)
Cl1 Cl 0.4973(2) 0.4922(4) 0.2230(2)
C326 C 0.5269(3) 0.5705(6) 0.2560(3)
H205 H 0.5092 0.5906 0.2544
H206 H 0.5427 0.5964 0.2593
H207 H 0.5291 0.5447 0.2717
C327 C 0.5542(3) 0.4937(6) 0.2283(3)
H208 H 0.5554 0.4678 0.2438
H209 H 0.5717 0.5146 0.2307
H210 H 0.5512 0.4737 0.2106
C328 C 0.5226(4) 0.5730(7) 0.2040(3)
H211 H 0.5150 0.5516 0.1872
H212 H 0.5406 0.5891 0.2024
H213 H 0.5093 0.6022 0.2061
C329 C 0.2609(6) -0.0314(12) 0.1072(5)
C330 C 0.2932(8) 0.0017(15) 0.1199(8)
C331 C 0.3040(5) 0.0171(10) 0.1714(5)
C332 C 0.2943(5) 0.0466(10) 0.1925(5)
C333 C 0.2966(3) 0.1542(7) 0.1869(3)
C334 C 0.2775(3) 0.2032(5) 0.1862(3)
C335 C 0.2389(4) 0.2476(7) 0.1560(3)
C336 C 0.2142(5) 0.2457(11) 0.1263(5)
C337 C 0.1794(5) 0.1892(11) 0.0993(5)
C338 C 0.1748(9) 0.1331(18) 0.0966(8)
C339 C 0.2117(7) 0.0709(13) 0.0642(6)
C340 C 0.2172(5) 0.0135(9) 0.0744(4)
O79 O 0.2795(3) 0.0132(5) 0.1475(3)
O80 O 0.2802(2) 0.1044(4) 0.18747(19)
O81 O 0.2577(2) 0.1991(4) 0.1590(2)
O82 O 0.2025(3) 0.1933(5) 0.1245(2)
O83 O 0.1982(3) 0.0997(6) 0.0884(3)
O84 O 0.2456(5) 0.0175(10) 0.0957(5)
C341 C 0.2207(3) -0.0275(6) 0.2239(3)
C342 C 0.2180(3) 0.0043(6) 0.1980(3)
N61 N 0.2170(3) 0.0291(6) 0.1777(3)
K15 K 0.23734(8) 0.09330(16) 0.13845(7)
K16 K 0.52139(19) 0.4828(3) 0.47353(17)
K17 K 0.32568(19) 0.3740(4) 0.76772(18)
O85 O 0.05471(12) 0.6407(2) 0.89486(12)
O86 O 0.03018(15) 0.7160(3) 0.91804(14)
O87 O 0.08391(13) 0.7195(3) 0.92160(12)
O88 O 0.05019(13) 0.7387(2) 0.87452(12)
P1 P 0.05483(5) 0.70366(10) 0.90205(5)
O89 O 0.01034(11) 0.2931(2) 0.06146(10)
O90 O 0.01354(12) 0.3928(2) 0.04519(11)
O91 O -0.01958(11) 0.3263(2) 0.01487(10)
O92 O 0.03328(12) 0.3158(2) 0.01966(11)
P2 P 0.00951(4) 0.33180(8) 0.03578(4)
O93 O 0.19914(12) 0.7416(2) 0.22773(11)
O94 O 0.23052(13) 0.8145(3) 0.25558(12)
O95 O 0.18188(12) 0.8415(2) 0.22711(11)
O96 O 0.22205(12) 0.8158(2) 0.20248(11)
P3 P 0.20833(4) 0.80332(9) 0.22817(4)
O97 O 0.37627(12) 0.3388(2) 0.20438(11)
O98 O 0.35776(13) 0.2390(3) 0.20137(12)
O99 O 0.32734(12) 0.3169(2) 0.17536(12)
O100 O 0.33609(12) 0.3115(2) 0.22875(12)
P4 P 0.34971(5) 0.30202(9) 0.20250(4)
C343? C 0.2606(5) 0.5908(9) 0.8085(5)
C344? C 0.2778(5) 0.6029(10) 0.8308(5)
C345? C 0.2917(4) 0.6641(8) 0.8708(4)
C346? C 0.2859(4) 0.7218(8) 0.8828(4)
C347? C 0.2517(3) 0.7713(7) 0.9014(3)
C348? C 0.2228(3) 0.7624(7) 0.9097(3)
C349? C 0.1735(4) 0.7428(7) 0.8962(3)
C350? C 0.1522(3) 0.7199(6) 0.8715(3)
C351? C 0.1411(3) 0.6477(6) 0.8383(3)
C352? C 0.1500(4) 0.5928(7) 0.8296(3)
C353? C 0.1853(5) 0.5538(9) 0.8086(4)
C354? C 0.2103(4) 0.5694(8) 0.7957(4)
O101? O 0.2327(3) 0.5788(5) 0.8182(2)
O102? O 0.2720(3) 0.6537(5) 0.8461(3)
O103? O 0.2606(2) 0.7186(4) 0.8931(2)
O104? O 0.2017(2) 0.7493(4) 0.88898(18)
O105? O 0.1609(2) 0.6695(4) 0.86249(18)
O106? O 0.1733(2) 0.6047(5) 0.8195(2)
O107? O 0.2073(3) 0.5755(5) 0.8930(2)
C355? C 0.2813(8) 0.2955(16) 0.7070(8)
C356? C 0.2813(6) 0.2769(11) 0.7317(6)
C357? C 0.3285(5) 0.2344(9) 0.7518(4)
C358? C 0.3511(7) 0.2214(13) 0.7665(7)
O108? O 0.3114(5) 0.2722(8) 0.7505(4)
O109? O 0.2850(5) 0.3567(10) 0.7139(4)
O110? O 0.9488(7) 0.0318(14) 0.8938(7)
C359? C 0.4666(14) 0.474(3) 0.5099(13)
C360? C 0.4896(9) 0.4191(19) 0.5159(8)
C361? C 0.5070(14) 0.362(3) 0.5175(13)
C362? C 0.5339(7) 0.3474(13) 0.5106(7)
C363? C 0.5651(6) 0.3579(11) 0.4678(5)
O111? O 0.5113(8) 0.3855(14) 0.4897(8)
O112? O 0.5418(4) 0.3665(8) 0.4825(4)
C364? C 0.6359(5) 0.3127(11) 0.4413(5)
C365? C 0.6446(6) 0.3372(13) 0.4141(6)
C366? C 0.6369(6) 0.4201(12) 0.3844(6)
C367? C 0.6212(5) 0.4675(11) 0.3781(5)
O113? O 0.6306(3) 0.3920(6) 0.4091(3)
C368? C 0.5765(8) 0.4968(15) 0.4340(7)
C369? C 0.5484(7) 0.5823(13) 0.4345(6)
C370? C 0.5198(9) 0.5991(14) 0.4332(7)
O114? O 0.5445(4) 0.5241(7) 0.4332(3)
O115? O 0.5006(6) 0.6014(10) 0.4486(5)
O116? O 0.5667(5) 0.4310(10) 0.4547(5)
C371? C 0.2960(5) 0.4400(10) 0.5389(5)
C372? C 0.2872(6) 0.3849(12) 0.5465(6)
C373? C 0.2789(5) 0.3356(10) 0.5915(5)
C374? C 0.2754(7) 0.3490(14) 0.6197(7)
O117? O 0.2821(3) 0.3849(7) 0.5785(3)
C375? C 0.4896(4) 0.7426(8) 0.6376(4)
C376? C 0.5104(5) 0.7678(9) 0.6588(5)
C377? C 0.5487(4) 0.8270(7) 0.6755(4)
C378? C 0.5743(6) 0.8334(11) 0.6682(5)
C379? C 0.6197(4) 0.8310(9) 0.6517(4)
C380? C 0.6185(4) 0.7927(10) 0.6332(5)
C381? C 0.6111(5) 0.7027(11) 0.5997(5)
C382? C 0.6071(6) 0.6779(12) 0.5752(6)
C383? C 0.5680(7) 0.6346(12) 0.5707(6)
C384? C 0.5418(7) 0.6019(14) 0.5772(7)
C385? C 0.5037(3) 0.6245(7) 0.5900(3)
C386? C 0.4888(5) 0.6734(10) 0.6025(5)
O118? O 0.5029(2) 0.6987(4) 0.6253(2)
O119? O 0.5291(3) 0.7944(6) 0.6530(3)
O120? O 0.5908(5) 0.8098(9) 0.6593(5)
O121? O 0.6212(4) 0.7493(9) 0.6159(4)
O122? O 0.5884(5) 0.6565(9) 0.5860(4)
O123? O 0.5269(3) 0.6535(7) 0.5832(3)
C387? C 0.2755(9) 0.4734(16) 0.8838(8)
C388? C 0.2418(6) 0.4537(11) 0.8669(6)
C389? C 0.2015(5) 0.4249(9) 0.8787(5)
C390? C 0.1859(7) 0.4251(12) 0.9027(6)
O124? O 0.2263(3) 0.4547(6) 0.8913(3)
C391? C 0.3139(7) 0.5324(13) 0.7525(6)
C392? C 0.2813(9) 0.4543(17) 0.7071(9)
O125? O 0.3079(7) 0.4703(12) 0.7363(6)
C393? C 0.4007(13) 0.427(3) 0.8188(13)
O126? O 0.3876(5) 0.3725(9) 0.7966(5)
O127? O 0.3242(2) 0.3196(4) 0.80335(19)
O128? O 0.2722(6) 0.3823(12) 0.8017(6)
C394? C 0.6649(5) 0.7646(10) 0.8503(5)
C395? C 0.6718(4) 0.7140(9) 0.8411(4)
C396? C 0.6984(5) 0.6381(9) 0.8529(4)
C397? C 0.7203(8) 0.6117(14) 0.8799(7)
O129? O 0.6906(3) 0.6882(6) 0.8631(3)
K18? K -0.16233(15) 1.2370(3) 0.54696(14)
C398? C -0.1131(4) 1.1932(8) 0.6187(4)
C399? C -0.0919(10) 1.236(2) 0.6085(9)
C400? C -0.0923(7) 1.3099(15) 0.5885(7)
C401? C -0.1025(6) 1.3714(12) 0.5780(6)
C402? C -0.1238(8) 1.3982(15) 0.5328(8)
C403? C -0.1336(9) 1.3605(17) 0.5153(8)
C404? C -0.1726(8) 1.3249(14) 0.4825(7)
C405? C -0.2000(6) 1.2879(11) 0.4840(5)
C406? C -0.1991(4) 1.1499(8) 0.5207(4)
C407? C -0.1622(4) 1.1163(7) 0.5644(4)
C408? C -0.1493(6) 1.1277(11) 0.5935(5)
O130? O -0.1274(3) 1.1805(6) 0.5922(3)
O131? O -0.1066(5) 1.2776(10) 0.5988(5)
O132? O -0.1169(3) 1.3496(7) 0.5520(3)
O133? O -0.1606(4) 1.3360(7) 0.5122(4)
O134? O -0.1916(4) 1.2367(8) 0.4989(4)
O135? O -0.1802(4) 1.1644(7) 0.5495(4)
K19? K 0.2300(2) 0.1217(4) 0.1433(2)
C409? C 0.5742(3) -0.0091(7) 0.1773(4)
C410? C 0.5806(7) -0.0255(13) 0.2004(7)
C411? C 0.5863(5) -0.0876(9) 0.2429(5)
C412? C 0.6086(5) -0.1261(10) 0.2529(5)
C413? C 0.6376(3) -0.2019(6) 0.2520(3)
C414? C 0.6470(4) -0.2487(8) 0.2312(4)
C415? C 0.6622(4) -0.2616(7) 0.1932(4)
C416? C 0.6406(5) -0.2543(9) 0.1726(5)
C417? C 0.6125(7) -0.2266(13) 0.1287(6)
C418? C 0.6015(8) -0.1616(16) 0.1177(7)
C419? C 0.5811(7) -0.0641(13) 0.1426(7)
O136? O 0.5915(3) -0.0693(6) 0.2162(3)
O137? O 0.6146(3) -0.1701(5) 0.2382(2)
O138? O 0.6550(2) -0.2208(5) 0.2105(2)
O139? O 0.6356(3) -0.2202(6) 0.1499(3)
O140? O 0.5919(6) -0.0292(12) 0.1522(6)
O141? O 0.4996(6) 0.0357(10) 0.1944(5)
K20? K 0.5035(3) 0.4856(4) 0.4613(2)
O142? O 0.3978(7) 0.6839(13) 0.5053(7)
C420? C 0.3313(7) 0.5049(13) 0.7887(7)
O143? O 0.3658(5) 0.2951(10) 0.7671(5)
loop_
_geom_bond_atom_site_label_1
_geom_bond_atom_site_label_2
_geom_bond_site_symmetry_1
_geom_bond_site_symmetry_2
C1 C2 1_555 1_555
C2 H1 1_555 1_555
C3 C2 1_555 1_555
C4 C3 1_555 1_555
H2 C4 1_555 1_555
C5 C4 1_555 1_555
C6 C1 1_555 1_555
H3 C6 1_555 1_555
C7 C1 1_555 1_555
C8 C7 1_555 1_555
H4 C8 1_555 1_555
C9 C8 1_555 1_555
H5 C9 1_555 1_555
C10 C9 1_555 1_555
C11 C10 1_555 1_555
H6 C11 1_555 1_555
C12 C7 1_555 1_555
H7 C12 1_555 1_555
C13 N1 1_555 1_555
C14 C15 1_555 1_555
C15 H8 1_555 1_555
C16 C15 1_555 1_555
H9 C16 1_555 1_555
C17 C16 1_555 1_555
H10 C17 1_555 1_555
C18 C17 1_555 1_555
H11 C18 1_555 1_555
C19 C14 1_555 1_555
C20 N3 1_555 1_555
C21 C22 1_555 1_555
C22 H12 1_555 1_555
C23 C22 1_555 1_555
H13 C23 1_555 1_555
C24 C23 1_555 1_555
C25 C24 1_555 1_555
H14 C25 1_555 1_555
C26 C21 1_555 1_555
H15 C26 1_555 1_555
C27 C3 1_555 1_555
C28 C27 1_555 1_555
H16 C28 1_555 1_555
C29 C28 1_555 1_555
H17 C29 1_555 1_555
C30 C29 1_555 1_555
C31 C30 1_555 1_555
H18 C31 1_555 1_555
C32 C27 1_555 1_555
H19 C32 1_555 1_555
C33 N6 1_555 1_555
C34 C35 1_555 1_555
C35 H20 1_555 1_555
C36 C35 1_555 1_555
H21 C36 1_555 1_555
C37 C36 1_555 1_555
H22 C37 1_555 1_555
C38 C37 1_555 1_555
H23 C38 1_555 1_555
C39 C34 1_555 1_555
C40 N8 1_555 1_555
C41 C42 1_555 1_555
C42 H24 1_555 1_555
C43 C42 1_555 1_555
H25 C43 1_555 1_555
C44 C43 1_555 1_555
C45 C44 1_555 1_555
H26 C45 1_555 1_555
C46 C41 1_555 1_555
H27 C46 1_555 1_555
C47 C5 1_555 1_555
C48 C47 1_555 1_555
H28 C48 1_555 1_555
C49 C48 1_555 1_555
H29 C49 1_555 1_555
C50 C49 1_555 1_555
C51 C50 1_555 1_555
H30 C51 1_555 1_555
C52 C47 1_555 1_555
H31 C52 1_555 1_555
C53 N11 1_555 1_555
C54 C55 1_555 1_555
C55 H32 1_555 1_555
C56 C55 1_555 1_555
H33 C56 1_555 1_555
C57 C56 1_555 1_555
H34 C57 1_555 1_555
C58 C57 1_555 1_555
H35 C58 1_555 1_555
C59 C54 1_555 1_555
C60 N13 1_555 1_555
C61 C62 1_555 1_555
C62 H36 1_555 1_555
C63 C62 1_555 1_555
H37 C63 1_555 1_555
C64 C63 1_555 1_555
C65 C64 1_555 1_555
H38 C65 1_555 1_555
C66 C61 1_555 1_555
H39 C66 1_555 1_555
N1 C10 1_555 1_555
H40 N1 1_555 1_555
N2 C13 1_555 1_555
H41 N2 1_555 1_555
N3 C19 1_555 1_555
H42 N3 1_555 1_555
N4 C20 1_555 1_555
H43 N4 1_555 1_555
N5 C24 1_555 1_555
N6 C30 1_555 1_555
H44 N6 1_555 1_555
N7 C33 1_555 1_555
H45 N7 1_555 1_555
N8 C39 1_555 1_555
H46 N8 1_555 1_555
N9 C40 1_555 1_555
H47 N9 1_555 1_555
N10 C44 1_555 1_555
N11 C50 1_555 1_555
H48 N11 1_555 1_555
N12 C53 1_555 1_555
H49 N12 1_555 1_555
N13 C59 1_555 1_555
H50 N13 1_555 1_555
N14 C60 1_555 1_555
H51 N14 1_555 1_555
N15 C64 1_555 1_555
O1 C13 1_555 1_555
O2 C20 1_555 1_555
O3 N5 1_555 1_555
O4 N5 1_555 1_555
O5 C33 1_555 1_555
O6 C40 1_555 1_555
O7 N10 1_555 1_555
O8 N10 1_555 1_555
O9 C53 1_555 1_555
O10 C60 1_555 1_555
O11 N15 1_555 1_555
O12 N15 1_555 1_555
C67 H52 1_555 1_555
C68 C67 1_555 1_555
C69 C68 1_555 1_555
H53 C69 1_555 1_555
C70 C69 1_555 1_555
C71 C70 1_555 1_555
H54 C71 1_555 1_555
C72 C67 1_555 1_555
C73 C68 1_555 1_555
C74 C73 1_555 1_555
H55 C74 1_555 1_555
C75 C74 1_555 1_555
H56 C75 1_555 1_555
C76 C75 1_555 1_555
C77 C76 1_555 1_555
H57 C77 1_555 1_555
C78 C73 1_555 1_555
H58 C78 1_555 1_555
C79 N16 1_555 1_555
C80 C81 1_555 1_555
C81 H59 1_555 1_555
C82 C81 1_555 1_555
H60 C82 1_555 1_555
C83 C82 1_555 1_555
H61 C83 1_555 1_555
C84 C83 1_555 1_555
H62 C84 1_555 1_555
C85 C80 1_555 1_555
C86 N18 1_555 1_555
C87 C88 1_555 1_555
C88 H63 1_555 1_555
C89 C88 1_555 1_555
H64 C89 1_555 1_555
C90 C89 1_555 1_555
C91 C90 1_555 1_555
H65 C91 1_555 1_555
C92 C87 1_555 1_555
H66 C92 1_555 1_555
C93 C70 1_555 1_555
C94 C93 1_555 1_555
H67 C94 1_555 1_555
C95 C94 1_555 1_555
H68 C95 1_555 1_555
C96 C95 1_555 1_555
C97 C96 1_555 1_555
H69 C97 1_555 1_555
C98 C93 1_555 1_555
H70 C98 1_555 1_555
C99 N21 1_555 1_555
C100 C101 1_555 1_555
C101 H71 1_555 1_555
C102 C101 1_555 1_555
H72 C102 1_555 1_555
C103 C102 1_555 1_555
H73 C103 1_555 1_555
C104 C103 1_555 1_555
H74 C104 1_555 1_555
C105 C100 1_555 1_555
C106 N23 1_555 1_555
C107 C108 1_555 1_555
C108 H75 1_555 1_555
C109 C108 1_555 1_555
H76 C109 1_555 1_555
C110 C109 1_555 1_555
C111 C110 1_555 1_555
H77 C111 1_555 1_555
C112 C107 1_555 1_555
H78 C112 1_555 1_555
C113 C72 1_555 1_555
C114 C113 1_555 1_555
H79 C114 1_555 1_555
C115 C114 1_555 1_555
H80 C115 1_555 1_555
C116 C115 1_555 1_555
C117 C116 1_555 1_555
H81 C117 1_555 1_555
C118 C113 1_555 1_555
H82 C118 1_555 1_555
C119 N26 1_555 1_555
C120 C121 1_555 1_555
C121 H83 1_555 1_555
C122 C121 1_555 1_555
H84 C122 1_555 1_555
C123 C122 1_555 1_555
H85 C123 1_555 1_555
C124 C123 1_555 1_555
H86 C124 1_555 1_555
C125 C120 1_555 1_555
C126 N28 1_555 1_555
C127 C128 1_555 1_555
C128 H87 1_555 1_555
C129 C128 1_555 1_555
H88 C129 1_555 1_555
C130 C129 1_555 1_555
C131 C130 1_555 1_555
H89 C131 1_555 1_555
C132 C127 1_555 1_555
H90 C132 1_555 1_555
N16 C76 1_555 1_555
H91 N16 1_555 1_555
N17 C79 1_555 1_555
H92 N17 1_555 1_555
N18 C85 1_555 1_555
H93 N18 1_555 1_555
N19 C86 1_555 1_555
H94 N19 1_555 1_555
N20 C90 1_555 1_555
N21 C96 1_555 1_555
H95 N21 1_555 1_555
N22 C99 1_555 1_555
H96 N22 1_555 1_555
N23 C105 1_555 1_555
H97 N23 1_555 1_555
N24 C106 1_555 1_555
H98 N24 1_555 1_555
N25 C110 1_555 1_555
N26 C116 1_555 1_555
H99 N26 1_555 1_555
N27 C119 1_555 1_555
H100 N27 1_555 1_555
N28 C125 1_555 1_555
H101 N28 1_555 1_555
N29 C126 1_555 1_555
H102 N29 1_555 1_555
N30 C130 1_555 1_555
O13 C79 1_555 1_555
O14 C86 1_555 1_555
O15 N20 1_555 1_555
O16 N20 1_555 1_555
O17 C99 1_555 1_555
O18 C106 1_555 1_555
O19 N25 1_555 1_555
O20 N25 1_555 1_555
O21 C119 1_555 1_555
O22 C126 1_555 1_555
O23 N30 1_555 1_555
O24 N30 1_555 1_555
C133 C134 1_555 1_555
C134 H103 1_555 1_555
C135 C134 1_555 1_555
C136 C135 1_555 1_555
H104 C136 1_555 1_555
C137 C136 1_555 1_555
C138 C133 1_555 1_555
H105 C138 1_555 1_555
C139 C137 1_555 1_555
C140 C139 1_555 1_555
H106 C140 1_555 1_555
C141 C140 1_555 1_555
H107 C141 1_555 1_555
C142 C141 1_555 1_555
C143 C142 1_555 1_555
H108 C143 1_555 1_555
C144 C139 1_555 1_555
H109 C144 1_555 1_555
C145 N31 1_555 1_555
C146 C147 1_555 1_555
C147 H110 1_555 1_555
C148 C147 1_555 1_555
H111 C148 1_555 1_555
C149 C148 1_555 1_555
H112 C149 1_555 1_555
C150 C149 1_555 1_555
H113 C150 1_555 1_555
C151 C146 1_555 1_555
C152 N33 1_555 1_555
C153 C154 1_555 1_555
C154 H114 1_555 1_555
C155 C154 1_555 1_555
H115 C155 1_555 1_555
C156 C155 1_555 1_555
C157 C156 1_555 1_555
H116 C157 1_555 1_555
C158 C153 1_555 1_555
H117 C158 1_555 1_555
C159 C135 1_555 1_555
C160 C159 1_555 1_555
H118 C160 1_555 1_555
C161 C160 1_555 1_555
H119 C161 1_555 1_555
C162 C161 1_555 1_555
C163 C162 1_555 1_555
H120 C163 1_555 1_555
C164 C159 1_555 1_555
H121 C164 1_555 1_555
C165 N36 1_555 1_555
C166 C167 1_555 1_555
C167 H122 1_555 1_555
C168 C167 1_555 1_555
H123 C168 1_555 1_555
C169 C168 1_555 1_555
H124 C169 1_555 1_555
C170 C169 1_555 1_555
H125 C170 1_555 1_555
C171 C166 1_555 1_555
C172 N38 1_555 1_555
C173 C174 1_555 1_555
C174 H126 1_555 1_555
C175 C174 1_555 1_555
H127 C175 1_555 1_555
C176 C175 1_555 1_555
C177 C176 1_555 1_555
H128 C177 1_555 1_555
C178 C173 1_555 1_555
H129 C178 1_555 1_555
C179 C133 1_555 1_555
C180 C179 1_555 1_555
H130 C180 1_555 1_555
C181 C180 1_555 1_555
H131 C181 1_555 1_555
C182 C181 1_555 1_555
C183 C182 1_555 1_555
H132 C183 1_555 1_555
C184 C179 1_555 1_555
H133 C184 1_555 1_555
C185 N41 1_555 1_555
C186 C187 1_555 1_555
C187 H134 1_555 1_555
C188 C187 1_555 1_555
H135 C188 1_555 1_555
C189 C188 1_555 1_555
H136 C189 1_555 1_555
C190 C189 1_555 1_555
H137 C190 1_555 1_555
C191 C186 1_555 1_555
C192 N43 1_555 1_555
C193 C194 1_555 1_555
C194 H138 1_555 1_555
C195 C194 1_555 1_555
H139 C195 1_555 1_555
C196 C195 1_555 1_555
C197 C196 1_555 1_555
H140 C197 1_555 1_555
C198 C193 1_555 1_555
H141 C198 1_555 1_555
N31 C142 1_555 1_555
H142 N31 1_555 1_555
N32 C145 1_555 1_555
H143 N32 1_555 1_555
N33 C151 1_555 1_555
H144 N33 1_555 1_555
N34 C152 1_555 1_555
H145 N34 1_555 1_555
N35 C156 1_555 1_555
N36 C162 1_555 1_555
H146 N36 1_555 1_555
N37 C165 1_555 1_555
H147 N37 1_555 1_555
N38 C171 1_555 1_555
H148 N38 1_555 1_555
N39 C172 1_555 1_555
H149 N39 1_555 1_555
N40 C176 1_555 1_555
N41 C182 1_555 1_555
H150 N41 1_555 1_555
N42 C185 1_555 1_555
H151 N42 1_555 1_555
N43 C191 1_555 1_555
H152 N43 1_555 1_555
N44 C192 1_555 1_555
H153 N44 1_555 1_555
N45 C196 1_555 1_555
O25 C145 1_555 1_555
O26 C152 1_555 1_555
O27 N35 1_555 1_555
O28 N35 1_555 1_555
O29 C165 1_555 1_555
O30 C172 1_555 1_555
O31 N40 1_555 1_555
O32 N40 1_555 1_555
O33 C185 1_555 1_555
O34 C192 1_555 1_555
O35 N45 1_555 1_555
O36 N45 1_555 1_555
C199 C200 1_555 1_555
C200 H154 1_555 1_555
C201 C200 1_555 1_555
C202 C201 1_555 1_555
H155 C202 1_555 1_555
C203 C202 1_555 1_555
C204 C199 1_555 1_555
H156 C204 1_555 1_555
C205 C201 1_555 1_555
C206 C205 1_555 1_555
H157 C206 1_555 1_555
C207 C206 1_555 1_555
H158 C207 1_555 1_555
C208 C207 1_555 1_555
C209 C208 1_555 1_555
H159 C209 1_555 1_555
C210 C205 1_555 1_555
H160 C210 1_555 1_555
C211 N46 1_555 1_555
C212 C213 1_555 1_555
C213 H161 1_555 1_555
C214 C213 1_555 1_555
H162 C214 1_555 1_555
C215 C214 1_555 1_555
H163 C215 1_555 1_555
C216 C215 1_555 1_555
H164 C216 1_555 1_555
C217 C212 1_555 1_555
C218 N48 1_555 1_555
C219 C220 1_555 1_555
C220 H165 1_555 1_555
C221 C220 1_555 1_555
H166 C221 1_555 1_555
C222 C221 1_555 1_555
C223 C222 1_555 1_555
H167 C223 1_555 1_555
C224 C219 1_555 1_555
H168 C224 1_555 1_555
C225 C203 1_555 1_555
C226 C225 1_555 1_555
H169 C226 1_555 1_555
C227 C226 1_555 1_555
H170 C227 1_555 1_555
C228 C227 1_555 1_555
C229 C228 1_555 1_555
H171 C229 1_555 1_555
C230 C225 1_555 1_555
H172 C230 1_555 1_555
C231 N51 1_555 1_555
C232 C233 1_555 1_555
C233 H173 1_555 1_555
C234 C233 1_555 1_555
H174 C234 1_555 1_555
C235 C234 1_555 1_555
H175 C235 1_555 1_555
C236 C235 1_555 1_555
H176 C236 1_555 1_555
C237 C232 1_555 1_555
C238 N53 1_555 1_555
C239 C240 1_555 1_555
C240 H177 1_555 1_555
C241 C240 1_555 1_555
H178 C241 1_555 1_555
C242 C241 1_555 1_555
C243 C242 1_555 1_555
H179 C243 1_555 1_555
C244 C239 1_555 1_555
H180 C244 1_555 1_555
C245 C199 1_555 1_555
C246 C245 1_555 1_555
H181 C246 1_555 1_555
C247 C246 1_555 1_555
H182 C247 1_555 1_555
C248 C247 1_555 1_555
C249 C248 1_555 1_555
H183 C249 1_555 1_555
C250 C245 1_555 1_555
H184 C250 1_555 1_555
C251 N56 1_555 1_555
C252 C253 1_555 1_555
C253 H185 1_555 1_555
C254 C253 1_555 1_555
H186 C254 1_555 1_555
C255 C254 1_555 1_555
H187 C255 1_555 1_555
C256 C255 1_555 1_555
H188 C256 1_555 1_555
C257 C252 1_555 1_555
C258 N58 1_555 1_555
C259 C260 1_555 1_555
C260 H189 1_555 1_555
C261 C260 1_555 1_555
H190 C261 1_555 1_555
C262 C261 1_555 1_555
C263 C262 1_555 1_555
H191 C263 1_555 1_555
C264 C259 1_555 1_555
H192 C264 1_555 1_555
N46 C208 1_555 1_555
H193 N46 1_555 1_555
N47 C211 1_555 1_555
H194 N47 1_555 1_555
N48 C217 1_555 1_555
H195 N48 1_555 1_555
N49 C218 1_555 1_555
H196 N49 1_555 1_555
N50 C222 1_555 1_555
N51 C228 1_555 1_555
H197 N51 1_555 1_555
N52 C231 1_555 1_555
H198 N52 1_555 1_555
N53 C237 1_555 1_555
H199 N53 1_555 1_555
N54 C238 1_555 1_555
H200 N54 1_555 1_555
N55 C242 1_555 1_555
N56 C248 1_555 1_555
H201 N56 1_555 1_555
N57 C251 1_555 1_555
H202 N57 1_555 1_555
N58 C257 1_555 1_555
H203 N58 1_555 1_555
N59 C258 1_555 1_555
H204 N59 1_555 1_555
N60 C262 1_555 1_555
O37 C211 1_555 1_555
O38 C218 1_555 1_555
O39 N50 1_555 1_555
O40 N50 1_555 1_555
O41 C231 1_555 1_555
O42 C238 1_555 1_555
O43 N55 1_555 1_555
O44 N55 1_555 1_555
O45 C251 1_555 1_555
O46 C258 1_555 1_555
O47 N60 1_555 1_555
O48 N60 1_555 1_555
C265 C266 1_555 1_555
C266 O50 1_555 1_555
C267 C268 1_555 1_555
C268 O51 1_555 1_555
C269 C270 1_555 1_555
C270 O52 1_555 1_555
C271 C272 1_555 1_555
C272 O53 1_555 1_555
C273 C274 1_555 1_555
C274 O54 1_555 1_555
C275 C276 1_555 1_555
C276 O49 1_555 1_555
O49 C265 1_555 1_555
O50 C267 1_555 1_555
O51 C269 1_555 1_555
O52 C271 1_555 1_555
O53 C273 1_555 1_555
O54 C275 1_555 1_555
C277 C278 1_555 1_555
C278 O56 1_555 1_555
C279 C280 1_555 1_555
C280 O57 1_555 1_555
C281 C282 1_555 1_555
C282 O58 1_555 1_555
C283 C284 1_555 1_555
C284 O59 1_555 1_555
C285 C286 1_555 1_555
C286 O60 1_555 1_555
C287 C288 1_555 1_555
C288 O55 1_555 1_555
O55 C277 1_555 1_555
O56 C279 1_555 1_555
O57 C281 1_555 1_555
O58 C283 1_555 1_555
O59 C285 1_555 1_555
O60 C287 1_555 1_555
C289 C290 1_555 1_555
C290 O62 1_555 1_555
C291 C292 1_555 1_555
C292 O63 1_555 1_555
C293 C294 1_555 1_555
C294 O64 1_555 1_555
C295 C296 1_555 1_555
C296 O65 1_555 1_555
C297 C298 1_555 1_555
C298 O66 1_555 1_555
C299 C300 1_555 1_555
C300 O61 1_555 1_555
O61 C289 1_555 1_555
O62 C291 1_555 1_555
O63 C293 1_555 1_555
O64 C295 1_555 1_555
O65 C297 1_555 1_555
O66 C299 1_555 1_555
C301 C302 1_555 1_555
C302 O68 1_555 1_555
C303 C304 1_555 1_555
C304 O69 1_555 1_555
C305 C306 1_555 1_555
C306 O70 1_555 1_555
C307 C308 1_555 1_555
C308 O71 1_555 1_555
C309 C310 1_555 1_555
C310 O72 1_555 1_555
C311 C312 1_555 1_555
C312 O67 1_555 1_555
O67 C301 1_555 1_555
O68 C303 1_555 1_555
O69 C305 1_555 1_555
O70 C307 1_555 1_555
O71 C309 1_555 1_555
O72 C311 1_555 1_555
C313 C314 1_555 1_555
C314 O76 1_555 1_555
C315 C316 1_555 1_555
C316 O75 1_555 1_555
C317 O74 1_555 1_555
C318 C319 1_555 1_555
C319 O73 1_555 1_555
C320 C321 1_555 1_555
C321 O78 1_555 1_555
C322 C323 1_555 1_555
C323 O77 1_555 1_555
O73 C320 1_555 1_555
O74 C318 1_555 1_555
O75 C324 1_555 1_555
O76 C315 1_555 1_555
O77 C313 1_555 1_555
O78 C322 1_555 1_555
C324 C317 1_555 1_555
C325 Cl1 1_555 1_555
C326 C325 1_555 1_555
H205 C326 1_555 1_555
H206 C326 1_555 1_555
H207 C326 1_555 1_555
C327 C325 1_555 1_555
H208 C327 1_555 1_555
H209 C327 1_555 1_555
H210 C327 1_555 1_555
C328 C325 1_555 1_555
H211 C328 1_555 1_555
H212 C328 1_555 1_555
H213 C328 1_555 1_555
C329 C330 1_555 1_555
C330 O79 1_555 1_555
C331 C332 1_555 1_555
C332 O80 1_555 1_555
C333 C334 1_555 1_555
C334 O81 1_555 1_555
C335 C336 1_555 1_555
C336 O82 1_555 1_555
C337 C338 1_555 1_555
C338 O83 1_555 1_555
C339 C340 1_555 1_555
C340 O84 1_555 1_555
O79 C331 1_555 1_555
O80 C333 1_555 1_555
O81 C335 1_555 1_555
O82 C337 1_555 1_555
O83 C339 1_555 1_555
O84 C329 1_555 1_555
C341 C342 1_555 1_555
C342 N61 1_555 1_555
O85 P1 1_555 1_555
O86 P1 1_555 1_555
O87 P1 1_555 1_555
O88 P1 1_555 1_555
O89 P2 1_555 1_555
O90 P2 1_555 1_555
O91 P2 1_555 1_555
O92 P2 1_555 1_555
O93 P3 1_555 1_555
O94 P3 1_555 1_555
O95 P3 1_555 1_555
O96 P3 1_555 1_555
O97 P4 1_555 1_555
O98 P4 1_555 1_555
O99 P4 1_555 1_555
O100 P4 1_555 1_555
C5 C6 1_555 1_555
C11 C12 1_555 1_555
C14 N2 1_555 1_555
C18 C19 1_555 1_555
C21 N4 1_555 1_555
C25 C26 1_555 1_555
C31 C32 1_555 1_555
C34 N7 1_555 1_555
C38 C39 1_555 1_555
C41 N9 1_555 1_555
C45 C46 1_555 1_555
C51 C52 1_555 1_555
C54 N12 1_555 1_555
C58 C59 1_555 1_555
C61 N14 1_555 1_555
C65 C66 1_555 1_555
C71 C72 1_555 1_555
C77 C78 1_555 1_555
C80 N17 1_555 1_555
C84 C85 1_555 1_555
C87 N19 1_555 1_555
C91 C92 1_555 1_555
C97 C98 1_555 1_555
C100 N22 1_555 1_555
C104 C105 1_555 1_555
C107 N24 1_555 1_555
C111 C112 1_555 1_555
C117 C118 1_555 1_555
C120 N27 1_555 1_555
C124 C125 1_555 1_555
C127 N29 1_555 1_555
C131 C132 1_555 1_555
C137 C138 1_555 1_555
C143 C144 1_555 1_555
C146 N32 1_555 1_555
C150 C151 1_555 1_555
C153 N34 1_555 1_555
C157 C158 1_555 1_555
C163 C164 1_555 1_555
C166 N37 1_555 1_555
C170 C171 1_555 1_555
C173 N39 1_555 1_555
C177 C178 1_555 1_555
C183 C184 1_555 1_555
C186 N42 1_555 1_555
C190 C191 1_555 1_555
C193 N44 1_555 1_555
C197 C198 1_555 1_555
C203 C204 1_555 1_555
C209 C210 1_555 1_555
C212 N47 1_555 1_555
C216 C217 1_555 1_555
C219 N49 1_555 1_555
C223 C224 1_555 1_555
C229 C230 1_555 1_555
C232 N52 1_555 1_555
C236 C237 1_555 1_555
C239 N54 1_555 1_555
C243 C244 1_555 1_555
C249 C250 1_555 1_555
C252 N57 1_555 1_555
C256 C257 1_555 1_555
C259 N59 1_555 1_555
C263 C264 1_555 1_555

#END
