
#######################################################################
#
#                 Cambridge Crystallographic Data Centre
#                                CCDC 
#
#######################################################################
#
# If this CIF has been generated from an entry in the Cambridge 
# Structural Database, then it will include bibliographic, chemical, 
# crystal, experimental, refinement or atomic coordinate data resulting 
# from the CCDC's data processing and validation procedures.
#
#######################################################################

data_VUMLOG
_chemical_formula_moiety         
'C66 H51 N15 O12,0.5(C12 H24 O6),3(C4 H12 N1 1+),0.5(C4 H10 O1),O4 P1 3-,5.25(H2 O1)'
_chemical_name_systematic        
'tris(tetramethylammonium) phosphate 1,3,5-tris(4-([(2-([2-(4-nitrophenyl)-1-oxohydraziniumyl]amino)phenyl)carbamoyl]amino)phenyl)benzene 18-crown-6 diethyl ether solvate hydrate'
_symmetry_cell_setting           monoclinic
_symmetry_space_group_name_H-M   'C 2/c'
_symmetry_Int_Tables_number      15
_space_group_name_Hall           '-C 2yn'
loop_
_symmetry_equiv_pos_site_id
_symmetry_equiv_pos_as_xyz
1 x,y,z
2 -x,y,1/2-z
3 1/2+x,1/2+y,z
4 1/2-x,1/2+y,1/2-z
5 -x,-y,-z
6 x,-y,1/2+z
7 1/2-x,1/2-y,-z
8 1/2+x,1/2-y,1/2+z
_cell_length_a                   24.2329(8)
_cell_length_b                   59.1688(16)
_cell_length_c                   37.6191(11)
_cell_angle_alpha                90
_cell_angle_beta                 105.011(2)
_cell_angle_gamma                90
_cell_volume                     52098.8
_exptl_crystal_colour            yellow
_exptl_crystal_description       block
_cell_formula_units_Z            16
loop_
_atom_site_label
_atom_site_type_symbol
_atom_site_fract_x
_atom_site_fract_y
_atom_site_fract_z
P1 P 0.32934(5) 0.21232(2) 0.41910(3)
O1 O 0.32304(14) 0.23727(5) 0.40668(8)
O2 O 0.36785(14) 0.21110(5) 0.45907(8)
O3 O 0.27011(13) 0.20308(5) 0.41859(8)
O4 O 0.35559(13) 0.19824(5) 0.39340(8)
P2 P 0.17489(5) 0.025743(19) 0.07764(3)
O5 O 0.17216(12) -0.00009(5) 0.08254(8)
O6 O 0.12151(12) 0.03640(5) 0.08556(8)
O7 O 0.22943(12) 0.03533(5) 0.10380(8)
O8 O 0.17470(12) 0.03079(5) 0.03720(8)
O9 O 0.67159(17) -0.02637(7) 0.31872(12)
O10 O 0.96045(16) -0.01910(6) 0.34424(10)
O11 O 1.19347(19) 0.04653(7) 0.38793(13)
O12 O 1.1563(2) 0.07567(8) 0.40732(17)
O13 O 0.18707(16) 0.09955(6) 0.17074(10)
O14 O 0.0503(2) 0.09571(7) -0.00573(11)
O15 O 0.1095(4) 0.03583(13) -0.16210(16)
O16 O 0.0420(4) 0.06165(11) -0.17565(14)
O17 O 0.54413(18) 0.17114(7) 0.46953(12)
O18 O 0.47364(19) 0.28227(7) 0.48777(16)
O19 O 0.2310(3) 0.35270(8) 0.38312(16)
O20 O 0.2975(2) 0.37082(7) 0.42258(15)
N1 N 0.69127(16) 0.00201(6) 0.36108(11)
H1 H 0.7187 0.0078 0.3787
N2 N 0.76289(18) -0.02094(7) 0.35444(12)
H2 H 0.7834 -0.0120 0.3716
N3 N 0.88005(18) -0.01809(7) 0.36588(11)
H3 H 0.8633 -0.0105 0.3803
N4 N 0.94855(17) 0.00928(7) 0.38316(10)
H4 H 0.9248 0.0152 0.3948
N5 N 1.1539(2) 0.05581(9) 0.39677(15)
N6 N 0.21429(16) 0.06263(7) 0.16666(10)
H5 H 0.2093 0.0504 0.1530
N7 N 0.13556(16) 0.07659(7) 0.12480(10)
H6 H 0.1346 0.0634 0.1137
N8 N 0.08322(16) 0.07751(7) 0.04950(10)
H7 H 0.1013 0.0653 0.0599
N9 N 0.09610(19) 0.06149(7) -0.00312(11)
H8 H 0.1147 0.0509 0.0116
N10 N 0.0785(5) 0.04997(15) -0.15353(18)
N11 N 0.45244(17) 0.17070(6) 0.43337(11)
H9 H 0.4200 0.1782 0.4279
N12 N 0.48240(19) 0.19979(7) 0.47301(12)
H10 H 0.4474 0.2048 0.4636
N13 N 0.4525(2) 0.24465(8) 0.48144(14)
H11 H 0.4261 0.2350 0.4703
N14 N 0.3877(2) 0.27085(7) 0.45123(14)
H12 H 0.3672 0.2589 0.4421
N15 N 0.2766(3) 0.35342(10) 0.40711(19)
C1 C 0.48844(19) 0.05448(8) 0.33619(12)
C2 C 0.4406(2) 0.05107(8) 0.30667(13)
H13 H 0.4382 0.0378 0.2922
C3 C 0.3962(2) 0.06685(8) 0.29807(12)
C4 C 0.3999(2) 0.08602(8) 0.32027(12)
H14 H 0.3702 0.0969 0.3144
C5 C 0.4463(2) 0.08960(8) 0.35090(12)
C6 C 0.4898(2) 0.07363(8) 0.35789(13)
H15 H 0.5218 0.0759 0.3783
C7 C 0.5379(2) 0.03854(7) 0.34344(13)
C8 C 0.5478(2) 0.02462(8) 0.31570(14)
H16 H 0.5202 0.0241 0.2926
C9 C 0.5965(2) 0.01157(8) 0.32081(15)
H17 H 0.6021 0.0023 0.3014
C10 C 0.6377(2) 0.01212(7) 0.35476(13)
C11 C 0.6265(2) 0.02507(9) 0.38233(14)
H18 H 0.6532 0.0250 0.4058
C12 C 0.5784(2) 0.03808(8) 0.37734(13)
H19 H 0.5725 0.0469 0.3972
C13 C 0.7055(2) -0.01614(9) 0.34252(16)
C14 C 0.7923(2) -0.03860(9) 0.34211(16)
C15 C 0.7628(3) -0.05805(11) 0.3254(2)
H20 H 0.7227 -0.0594 0.3219
C16 C 0.7943(4) -0.07523(13) 0.3142(3)
H21 H 0.7751 -0.0884 0.3029
C17 C 0.8508(3) -0.07359(12) 0.3190(2)
H22 H 0.8709 -0.0854 0.3106
C18 C 0.8797(3) -0.05508(10) 0.33585(16)
H23 H 0.9200 -0.0544 0.3396
C19 C 0.8516(2) -0.03738(9) 0.34760(14)
C20 C 0.9315(2) -0.01048(9) 0.36270(13)
C21 C 1.0004(2) 0.02014(9) 0.38636(12)
C22 C 1.0495(2) 0.00949(10) 0.38123(14)
H24 H 1.0481 -0.0061 0.3752
C23 C 1.0988(3) 0.02102(10) 0.38472(14)
H25 H 1.1313 0.0136 0.3806
C24 C 1.1017(2) 0.04369(9) 0.39434(15)
C25 C 1.0537(3) 0.05473(10) 0.40010(16)
H26 H 1.0556 0.0703 0.4066
C26 C 1.0043(2) 0.04293(9) 0.39635(15)
H27 H 0.9718 0.0504 0.4006
C27 C 0.3475(2) 0.06432(8) 0.26494(12)
C28 C 0.3514(2) 0.05147(8) 0.23464(13)
H28 H 0.3852 0.0430 0.2359
C29 C 0.3072(2) 0.05079(8) 0.20275(13)
H29 H 0.3110 0.0418 0.1826
C30 C 0.2581(2) 0.06297(8) 0.19990(12)
C31 C 0.2519(2) 0.07482(9) 0.23027(13)
H30 H 0.2172 0.0825 0.2294
C32 C 0.2964(2) 0.07552(9) 0.26218(13)
H31 H 0.2916 0.0839 0.2827
C33 C 0.1796(2) 0.08091(9) 0.15521(14)
C34 C 0.0919(2) 0.09230(8) 0.11053(14)
C35 C 0.0724(3) 0.10654(12) 0.13399(18)
H32 H 0.0874 0.1051 0.1598
C36 C 0.0315(3) 0.12277(12) 0.1203(2)
H33 H 0.0191 0.1326 0.1366
C37 C 0.0088(3) 0.12461(10) 0.08322(18)
H34 H -0.0180 0.1362 0.0738
C38 C 0.0244(2) 0.10984(9) 0.05945(16)
H35 H 0.0068 0.1108 0.0338
C39 C 0.0661(2) 0.09322(8) 0.07266(14)
C40 C 0.0743(3) 0.07948(10) 0.01233(15)
C41 C 0.0902(3) 0.05927(9) -0.04067(14)
C42 C 0.0461(3) 0.06898(11) -0.06767(15)
H36 H 0.0180 0.0778 -0.0605
C43 C 0.0424(4) 0.06609(13) -0.10371(19)
H37 H 0.0122 0.0729 -0.1218
C44 C 0.0830(4) 0.05317(13) -0.11397(16)
C45 C 0.1263(3) 0.04281(11) -0.08857(17)
H38 H 0.1534 0.0336 -0.0961
C46 C 0.1297(3) 0.04598(10) -0.05164(15)
H39 H 0.1595 0.0389 -0.0336
C47 C 0.4488(2) 0.11016(8) 0.37350(13)
C48 C 0.3998(3) 0.12068(10) 0.37775(15)
H40 H 0.3635 0.1143 0.3666
C49 C 0.4031(3) 0.14079(10) 0.39843(16)
H41 H 0.3689 0.1477 0.4009
C50 C 0.4545(2) 0.15039(8) 0.41484(13)
C51 C 0.5021(3) 0.13873(9) 0.41420(15)
H42 H 0.5383 0.1442 0.4276
C52 C 0.4987(2) 0.11872(9) 0.39407(15)
H43 H 0.5330 0.1107 0.3948
C53 C 0.4969(3) 0.17980(9) 0.45935(15)
C54 C 0.5182(3) 0.21320(10) 0.50075(17)
C55 C 0.5662(3) 0.20402(13) 0.5252(2)
H44 H 0.5760 0.1887 0.5228
C56 C 0.5999(3) 0.21724(14) 0.5534(2)
H45 H 0.6325 0.2109 0.5701
C57 C 0.5857(3) 0.23927(14) 0.5565(2)
H46 H 0.6096 0.2484 0.5750
C58 C 0.5373(3) 0.24872(12) 0.5334(2)
H47 H 0.5272 0.2640 0.5367
C59 C 0.5035(3) 0.23550(10) 0.50525(18)
C60 C 0.4412(3) 0.26709(11) 0.4745(2)
C61 C 0.3636(3) 0.29200(9) 0.44110(17)
C62 C 0.3133(3) 0.29253(11) 0.4124(2)
H48 H 0.2986 0.2788 0.4005
C63 C 0.2853(3) 0.31218(11) 0.4013(2)
H49 H 0.2516 0.3122 0.3816
C64 C 0.3061(3) 0.33222(9) 0.41872(18)
C65 C 0.3548(3) 0.33218(9) 0.44649(17)
H50 H 0.3692 0.3461 0.4579
C66 C 0.3837(2) 0.31230(9) 0.45848(17)
H51 H 0.4170 0.3125 0.4784
O21 O 0.6304(2) 0.24773(7) 0.20938(13)
O22 O 0.87846(18) 0.25231(7) 0.15787(11)
O23 O 0.9932(2) 0.17339(10) 0.03945(18)
O24 O 1.0536(2) 0.19844(9) 0.06960(17)
O25 O 0.34722(16) 0.06622(6) 0.02485(11)
O26 O 0.21267(17) -0.03738(6) -0.02480(11)
O27 O 0.06309(16) -0.12359(6) 0.02370(11)
O28 O 0.06310(19) -0.11149(6) 0.07768(12)
O29 O 0.23916(17) 0.13195(6) 0.35148(10)
O30 O 0.2930(2) 0.15464(8) 0.52890(11)
O31 O 0.5108(3) 0.22649(13) 0.65478(18)
O32 O 0.4635(3) 0.20304(11) 0.68140(17)
N16 N 0.60434(18) 0.22511(7) 0.15845(12)
H52 H 0.6116 0.2221 0.1372
N17 N 0.6795(2) 0.24905(7) 0.16505(13)
H53 H 0.6817 0.2427 0.1443
N18 N 0.7813(2) 0.25073(7) 0.14346(11)
H54 H 0.7511 0.2443 0.1288
N19 N 0.82926(19) 0.22790(8) 0.11267(12)
H55 H 0.7951 0.2225 0.1021
N20 N 1.0049(3) 0.18999(12) 0.0598(2)
N21 N 0.29045(17) 0.06407(6) 0.06449(10)
H56 H 0.2634 0.0561 0.0703
N22 N 0.27543(18) 0.03971(7) 0.01678(11)
H57 H 0.2500 0.0341 0.0273
N23 N 0.21886(17) -0.00074(7) -0.00411(11)
H58 H 0.2083 0.0083 0.0115
N24 N 0.17578(18) -0.02753(7) 0.02319(11)
H59 H 0.1734 -0.0166 0.0385
N25 N 0.07382(19) -0.10900(7) 0.04793(14)
N26 N 0.28236(17) 0.16589(7) 0.34735(10)
H60 H 0.2926 0.1787 0.3590
N27 N 0.24779(17) 0.15877(7) 0.39640(11)
H61 H 0.2660 0.1713 0.4050
N28 N 0.27021(19) 0.16902(7) 0.47024(11)
H62 H 0.2799 0.1791 0.4558
N29 N 0.3401(2) 0.18564(8) 0.51473(12)
H63 H 0.3458 0.1936 0.4962
N30 N 0.4750(5) 0.21215(16) 0.6533(2)
C67 C 0.4238(2) 0.17115(9) 0.18250(15)
C68 C 0.4047(3) 0.15358(9) 0.15746(15)
H64 H 0.4218 0.1516 0.1376
C69 C 0.3615(3) 0.13886(9) 0.16060(14)
C70 C 0.3367(3) 0.14215(9) 0.18959(15)
H65 H 0.3061 0.1326 0.1916
C71 C 0.3555(2) 0.15911(9) 0.21595(15)
C72 C 0.3983(2) 0.17342(9) 0.21169(16)
H66 H 0.4108 0.1852 0.2291
C73 C 0.4709(3) 0.18582(10) 0.17856(16)
C74 C 0.5118(4) 0.17585(13) 0.1622(2)
H67 H 0.5097 0.1603 0.1558
C75 C 0.5543(3) 0.18925(13) 0.1557(2)
H68 H 0.5806 0.1830 0.1436
C76 C 0.5604(2) 0.21295(9) 0.16707(15)
C77 C 0.5300(3) 0.21834(11) 0.19109(19)
H69 H 0.5386 0.2319 0.2048
C78 C 0.4872(3) 0.20498(10) 0.19636(17)
H70 H 0.4677 0.2097 0.2140
C79 C 0.6376(3) 0.24147(10) 0.17994(17)
C80 C 0.7196(3) 0.26592(10) 0.17946(18)
C81 C 0.7716(3) 0.26686(10) 0.16910(16)
C82 C 0.8103(3) 0.28399(11) 0.18250(18)
H71 H 0.8442 0.2851 0.1744
C83 C 0.8003(4) 0.29961(12) 0.2076(2)
H72 H 0.8283 0.3107 0.2177
C84 C 0.7509(5) 0.29899(14) 0.2177(3)
H73 H 0.7433 0.3100 0.2341
C85 C 0.7108(4) 0.28217(13) 0.2040(2)
H74 H 0.6765 0.2818 0.2117
C86 C 0.8330(3) 0.24431(10) 0.13963(15)
C87 C 0.8746(2) 0.21949(10) 0.10117(15)
C88 C 0.8654(3) 0.19995(10) 0.07915(17)
H75 H 0.8287 0.1931 0.0734
C89 C 0.9068(3) 0.19051(11) 0.0659(2)
H76 H 0.8992 0.1773 0.0511
C90 C 0.9602(3) 0.20033(11) 0.0740(2)
C91 C 0.9709(3) 0.21951(13) 0.0950(2)
H77 H 1.0077 0.2262 0.1001
C92 C 0.9294(3) 0.22927(12) 0.10879(17)
H78 H 0.9376 0.2426 0.1234
C93 C 0.3456(2) 0.11939(9) 0.13527(14)
C94 C 0.3240(3) 0.09987(9) 0.14627(15)
H79 H 0.3200 0.0988 0.1707
C95 C 0.3079(3) 0.08167(9) 0.12272(15)
H80 H 0.2935 0.0684 0.1313
C96 C 0.3127(2) 0.08257(8) 0.08679(13)
C97 C 0.3362(2) 0.10183(9) 0.07569(15)
H81 H 0.3415 0.1028 0.0516
C98 C 0.3519(2) 0.11975(9) 0.10007(14)
H82 H 0.3678 0.1329 0.0920
C99 C 0.3080(2) 0.05753(8) 0.03415(14)
C100 C 0.2793(2) 0.02948(10) -0.01675(15)
C101 C 0.3105(3) 0.03869(12) -0.03871(19)
H83 H 0.3309 0.0523 -0.0314
C102 C 0.3127(4) 0.02843(14) -0.0717(2)
H84 H 0.3349 0.0349 -0.0865
C103 C 0.2826(4) 0.00890(13) -0.0827(2)
H85 H 0.2831 0.0021 -0.1055
C104 C 0.2518(3) -0.00083(10) -0.06085(16)
H86 H 0.2313 -0.0144 -0.0686
C105 C 0.2500(2) 0.00898(9) -0.02713(15)
C106 C 0.2036(2) -0.02291(9) -0.00402(14)
C107 C 0.1515(2) -0.04815(8) 0.02786(14)
C108 C 0.1480(3) -0.05381(9) 0.06321(16)
H87 H 0.1638 -0.0438 0.0830
C109 C 0.1221(3) -0.07349(9) 0.07011(16)
H88 H 0.1196 -0.0771 0.0943
C110 C 0.1000(2) -0.08787(8) 0.04096(15)
C111 C 0.1031(2) -0.08274(9) 0.00593(15)
H89 H 0.0877 -0.0929 -0.0137
C112 C 0.1284(2) -0.06311(9) -0.00065(15)
H90 H 0.1302 -0.0596 -0.0250
C113 C 0.3321(2) 0.16082(9) 0.24850(15)
C114 C 0.3112(2) 0.14237(9) 0.26269(15)
H91 H 0.3089 0.1284 0.2500
C115 C 0.2932(2) 0.14318(9) 0.29460(14)
H92 H 0.2789 0.1299 0.3034
C116 C 0.2960(2) 0.16307(8) 0.31354(14)
C117 C 0.3122(3) 0.18242(9) 0.29807(15)
H93 H 0.3108 0.1966 0.3096
C118 C 0.3303(3) 0.18152(10) 0.26634(16)
H94 H 0.3416 0.1950 0.2564
C119 C 0.2547(2) 0.15062(9) 0.36380(14)
C120 C 0.2139(2) 0.14873(8) 0.41739(15)
C121 C 0.1679(2) 0.13434(9) 0.40137(17)
H95 H 0.1605 0.1304 0.3761
C122 C 0.1337(3) 0.12599(10) 0.4224(2)
H96 H 0.1028 0.1162 0.4116
C123 C 0.1439(3) 0.13176(10) 0.4587(2)
H97 H 0.1198 0.1260 0.4729
C124 C 0.1885(3) 0.14573(10) 0.47480(18)
H98 H 0.1950 0.1496 0.5000
C125 C 0.2242(2) 0.15420(9) 0.45460(15)
C126 C 0.3005(3) 0.16850(11) 0.50661(17)
C127 C 0.3724(3) 0.19141(10) 0.55038(15)
C128 C 0.4174(3) 0.20571(12) 0.55250(17)
H99 H 0.4257 0.2109 0.5305
C129 C 0.4513(3) 0.21281(13) 0.58645(19)
H100 H 0.4820 0.2230 0.5879
C130 C 0.4393(4) 0.20474(15) 0.6177(2)
C131 C 0.3944(4) 0.19065(14) 0.61605(18)
H101 H 0.3863 0.1857 0.6382
C132 C 0.3601(3) 0.18337(11) 0.58233(17)
H102 H 0.3293 0.1732 0.5811
O33 O 0.3472(4) 0.0735(4) 0.5810(3)
O34 O 0.3533(3) 0.03328(17) 0.5427(2)
O35 O 0.4447(6) 0.0284(2) 0.5044(4)
O36 O 0.4911(4) 0.0685(2) 0.4849(2)
O37 O 0.4897(3) 0.10939(18) 0.5225(3)
O38 O 0.3995(6) 0.1167(2) 0.5607(3)
C133 C 0.3107(6) 0.0568(3) 0.5769(5)
H103 H 0.2786 0.0600 0.5551
H104 H 0.2950 0.0563 0.5987
C134 C 0.3346(5) 0.0333(3) 0.5720(4)
H105 H 0.3661 0.0295 0.5938
H106 H 0.3042 0.0218 0.5696
C135 C 0.3851(6) 0.0128(2) 0.5305(3)
H107 H 0.4145 0.0074 0.5524
H108 H 0.3571 0.0004 0.5228
C136 C 0.4071(7) 0.0158(3) 0.5072(5)
H109 H 0.3753 0.0194 0.4855
H110 H 0.4209 0.0007 0.5023
C137 C 0.4545(16) 0.0285(6) 0.4720(11)
H111 H 0.4212 0.0340 0.4527
H112 H 0.4661 0.0134 0.4650
C138 C 0.5094(11) 0.0471(5) 0.4807(7)
H113 H 0.5382 0.0425 0.5033
H114 H 0.5279 0.0469 0.4601
C139 C 0.5315(7) 0.0873(3) 0.4898(5)
H115 H 0.5473 0.0879 0.4681
H116 H 0.5636 0.0840 0.5115
C140 C 0.5076(6) 0.1107(3) 0.4951(5)
H117 H 0.5070 0.1237 0.4801
C141 C 0.4712(7) 0.1333(2) 0.5311(5)
H118 H 0.5044 0.1437 0.5372
H119 H 0.4421 0.1396 0.5098
C142 C 0.4463(6) 0.1301(2) 0.5643(5)
H120 H 0.4770 0.1240 0.5847
H121 H 0.4366 0.1453 0.5721
C143 C 0.3775(7) 0.1134(4) 0.5928(4)
H122 H 0.3660 0.1282 0.6008
H123 H 0.4086 0.1073 0.6131
C144 C 0.3222(8) 0.0959(5) 0.5855(6)
H124 H 0.3051 0.0958 0.6067
H125 H 0.2926 0.1001 0.5631
O39 O 0.5000 0.10461(14) 0.7500
O40 O 0.1896(3) 0.1392(3) 0.0722(4)
O41 O 0.9369(7) 0.8444(4) 0.0489(4)
O42 O 0.6132(6) 0.3074(2) 0.8005(3)
C145 C 0.5520(6) 0.3270(2) 0.8275(4)
H126 H 0.5275 0.3322 0.8039
H127 H 0.5511 0.3381 0.8467
H128 H 0.5381 0.3124 0.8340
C146 C 0.6154(8) 0.3243(2) 0.8242(4)
H129 H 0.6286 0.3384 0.8148
H130 H 0.6416 0.3206 0.8484
C147 C 0.6717(5) 0.3025(2) 0.7951(4)
H131 H 0.6980 0.2993 0.8194
H132 H 0.6856 0.3163 0.7854
C148 C 0.6755(7) 0.2825(3) 0.7688(4)
H133 H 0.6624 0.2686 0.7780
H134 H 0.7152 0.2807 0.7676
H135 H 0.6513 0.2858 0.7441
O43 O 0.1392(8) 0.0253(3) 0.2122(3)
O44 O 0.3935(7) 0.2598(3) 0.1377(4)
O45 O 0.2733(7) 0.1618(3) 0.0119(5)
O46 O 0.2329(8) 0.1044(3) 0.9764(4)
O47 O 0.0945(13) 0.0837(3) 0.3111(3)
O48 O 0.3635(15) 0.9791(6) 0.8628(9)
O49 O 0.3712(4) 0.0468(3) 0.8288(3)
O50 O 0.9050(6) 0.8145(4) 0.0304(5)
N31 N 0.5000 0.11073(12) 0.2500
C149 C 0.4710(3) 0.12524(12) 0.2718(2)
H136 H 0.4485 0.1158 0.2842
H137 H 0.4458 0.1359 0.2554
H138 H 0.4997 0.1336 0.2902
C150 C 0.4570(3) 0.09620(12) 0.2239(2)
H139 H 0.4760 0.0880 0.2078
H140 H 0.4268 0.1058 0.2090
H141 H 0.4404 0.0854 0.2379
C149A C 0.5290(3) 0.12524(12) 0.2282(2)
H136A H 0.5515 0.1158 0.2158
H137A H 0.5542 0.1359 0.2446
H138A H 0.5003 0.1336 0.2098
C150A C 0.5430(3) 0.09620(12) 0.2761(2)
H139A H 0.5240 0.0880 0.2922
H140A H 0.5732 0.1058 0.2910
H141A H 0.5596 0.0854 0.2621
N32 N 0.5000 0.25445(13) 0.7500
C151 C 0.4486(3) 0.24006(14) 0.7448(2)
H142 H 0.4144 0.2496 0.7387
H143 H 0.4502 0.2317 0.7676
H144 H 0.4472 0.2294 0.7247
C152 C 0.5055(3) 0.26909(13) 0.7837(2)
H145 H 0.5398 0.2785 0.7874
H146 H 0.5086 0.2595 0.8053
H147 H 0.4718 0.2788 0.7802
C151A C 0.5514(3) 0.24006(14) 0.7552(2)
H142A H 0.5856 0.2496 0.7613
H143A H 0.5498 0.2317 0.7324
H144A H 0.5528 0.2294 0.7753
C152A C 0.4945(3) 0.26909(13) 0.7163(2)
H145A H 0.4602 0.2785 0.7126
H146A H 0.4914 0.2595 0.6947
H147A H 0.5282 0.2788 0.7198
N33 N 0.0000 0.01283(14) 0.7500
C153 C 0.0455(4) 0.02736(15) 0.7408(2)
H148 H 0.0285 0.0365 0.7190
H149 H 0.0754 0.0177 0.7357
H150 H 0.0622 0.0373 0.7616
C154 C 0.0248(4) -0.00209(15) 0.7813(2)
H151 H 0.0414 0.0071 0.8032
H152 H 0.0546 -0.0115 0.7755
H153 H -0.0052 -0.0118 0.7862
C153A C -0.0455(4) 0.02736(15) 0.7592(2)
H148A H -0.0285 0.0365 0.7810
H149A H -0.0754 0.0177 0.7643
H150A H -0.0622 0.0373 0.7384
C154A C -0.0248(4) -0.00209(15) 0.7187(2)
H151A H -0.0414 0.0071 0.6968
H152A H -0.0546 -0.0115 0.7245
H153A H 0.0052 -0.0118 0.7138
N34 N 0.3130(2) 0.08999(11) 0.4642(2)
C155 C 0.3552(5) 0.0785(3) 0.4958(4)
C156 C 0.3098(13) 0.0640(4) 0.4558(17)
C157 C 0.3329(4) 0.11096(16) 0.4580(3)
H154 H 0.3555 0.1173 0.4813
H155 H 0.3004 0.1209 0.4476
H156 H 0.3568 0.1096 0.4407
C158 C 0.2578(3) 0.09282(15) 0.4766(3)
H157 H 0.2668 0.0994 0.5013
H158 H 0.2398 0.0780 0.4770
H159 H 0.2315 0.1028 0.4594
C159? C 0.2468(6) 0.2609(3) 0.4605(3)
N35? N 0.2500 0.2500 0.5000
C160? C 0.2469(8) 0.2305(3) 0.4840(4)
C161? C 0.3215(5) 0.2468(2) 0.5133(3)
N36? N 1.0000 0.0000 0.5000
C162? C 1.0329(5) 0.01639(18) 0.5335(3)
C163? C 0.9455(4) 0.00373(18) 0.5189(3)
C164? C 0.9563(5) 0.0075(2) 0.4783(3)
C165? C 0.9993(5) 0.02330(16) 0.4807(3)
loop_
_geom_bond_atom_site_label_1
_geom_bond_atom_site_label_2
_geom_bond_site_symmetry_1
_geom_bond_site_symmetry_2
P1 O1 1_555 1_555
O2 P1 1_555 1_555
O3 P1 1_555 1_555
O4 P1 1_555 1_555
P2 O5 1_555 1_555
O6 P2 1_555 1_555
O7 P2 1_555 1_555
O8 P2 1_555 1_555
O9 C13 1_555 1_555
O10 C20 1_555 1_555
O11 N5 1_555 1_555
O12 N5 1_555 1_555
O13 C33 1_555 1_555
O14 C40 1_555 1_555
O15 N10 1_555 1_555
O16 N10 1_555 1_555
O17 C53 1_555 1_555
O18 C60 1_555 1_555
O19 N15 1_555 1_555
O20 N15 1_555 1_555
N1 H1 1_555 1_555
N2 H2 1_555 1_555
N3 H3 1_555 1_555
N4 H4 1_555 1_555
N5 C24 1_555 1_555
N6 H5 1_555 1_555
N7 H6 1_555 1_555
N8 H7 1_555 1_555
N9 H8 1_555 1_555
N10 C44 1_555 1_555
N11 H9 1_555 1_555
N12 H10 1_555 1_555
N13 H11 1_555 1_555
N14 H12 1_555 1_555
N15 C64 1_555 1_555
C1 C2 1_555 1_555
C2 H13 1_555 1_555
C3 C2 1_555 1_555
C4 C3 1_555 1_555
H14 C4 1_555 1_555
C5 C4 1_555 1_555
C6 C1 1_555 1_555
H15 C6 1_555 1_555
C7 C1 1_555 1_555
C8 C7 1_555 1_555
H16 C8 1_555 1_555
C9 C8 1_555 1_555
H17 C9 1_555 1_555
C10 N1 1_555 1_555
C11 C10 1_555 1_555
H18 C11 1_555 1_555
C12 C7 1_555 1_555
H19 C12 1_555 1_555
C13 N1 1_555 1_555
C14 N2 1_555 1_555
C15 C14 1_555 1_555
H20 C15 1_555 1_555
C16 C15 1_555 1_555
H21 C16 1_555 1_555
C17 C16 1_555 1_555
H22 C17 1_555 1_555
C18 C17 1_555 1_555
H23 C18 1_555 1_555
C19 N3 1_555 1_555
C20 N3 1_555 1_555
C21 N4 1_555 1_555
C22 C21 1_555 1_555
H24 C22 1_555 1_555
C23 C22 1_555 1_555
H25 C23 1_555 1_555
C24 C23 1_555 1_555
C25 C24 1_555 1_555
H26 C25 1_555 1_555
C26 C21 1_555 1_555
H27 C26 1_555 1_555
C27 C3 1_555 1_555
C28 C27 1_555 1_555
H28 C28 1_555 1_555
C29 C28 1_555 1_555
H29 C29 1_555 1_555
C30 N6 1_555 1_555
C31 C30 1_555 1_555
H30 C31 1_555 1_555
C32 C27 1_555 1_555
H31 C32 1_555 1_555
C33 N6 1_555 1_555
C34 N7 1_555 1_555
C35 C34 1_555 1_555
H32 C35 1_555 1_555
C36 C35 1_555 1_555
H33 C36 1_555 1_555
C37 C36 1_555 1_555
H34 C37 1_555 1_555
C38 C37 1_555 1_555
H35 C38 1_555 1_555
C39 N8 1_555 1_555
C40 N8 1_555 1_555
C41 N9 1_555 1_555
C42 C41 1_555 1_555
H36 C42 1_555 1_555
C43 C42 1_555 1_555
H37 C43 1_555 1_555
C44 C43 1_555 1_555
C45 C44 1_555 1_555
H38 C45 1_555 1_555
C46 C41 1_555 1_555
H39 C46 1_555 1_555
C47 C5 1_555 1_555
C48 C47 1_555 1_555
H40 C48 1_555 1_555
C49 C48 1_555 1_555
H41 C49 1_555 1_555
C50 N11 1_555 1_555
C51 C50 1_555 1_555
H42 C51 1_555 1_555
C52 C47 1_555 1_555
H43 C52 1_555 1_555
C53 N11 1_555 1_555
C54 N12 1_555 1_555
C55 C54 1_555 1_555
H44 C55 1_555 1_555
C56 C55 1_555 1_555
H45 C56 1_555 1_555
C57 C56 1_555 1_555
H46 C57 1_555 1_555
C58 C57 1_555 1_555
H47 C58 1_555 1_555
C59 N13 1_555 1_555
C60 N13 1_555 1_555
C61 N14 1_555 1_555
C62 C61 1_555 1_555
H48 C62 1_555 1_555
C63 C62 1_555 1_555
H49 C63 1_555 1_555
C64 C63 1_555 1_555
C65 C64 1_555 1_555
H50 C65 1_555 1_555
C66 C61 1_555 1_555
H51 C66 1_555 1_555
O21 C79 1_555 1_555
O22 C86 1_555 1_555
O23 N20 1_555 1_555
O24 N20 1_555 1_555
O25 C99 1_555 1_555
O26 C106 1_555 1_555
O27 N25 1_555 1_555
O28 N25 1_555 1_555
O29 C119 1_555 1_555
O30 C126 1_555 1_555
O31 N30 1_555 1_555
O32 N30 1_555 1_555
N16 H52 1_555 1_555
N17 H53 1_555 1_555
N18 H54 1_555 1_555
N19 H55 1_555 1_555
N20 C90 1_555 1_555
N21 H56 1_555 1_555
N22 H57 1_555 1_555
N23 H58 1_555 1_555
N24 H59 1_555 1_555
N25 C110 1_555 1_555
N26 H60 1_555 1_555
N27 H61 1_555 1_555
N28 H62 1_555 1_555
N29 H63 1_555 1_555
N30 C130 1_555 1_555
C67 C68 1_555 1_555
C68 H64 1_555 1_555
C69 C68 1_555 1_555
C70 C69 1_555 1_555
H65 C70 1_555 1_555
C71 C70 1_555 1_555
C72 C67 1_555 1_555
H66 C72 1_555 1_555
C73 C67 1_555 1_555
C74 C73 1_555 1_555
H67 C74 1_555 1_555
C75 C74 1_555 1_555
H68 C75 1_555 1_555
C76 N16 1_555 1_555
C77 C76 1_555 1_555
H69 C77 1_555 1_555
C78 C73 1_555 1_555
H70 C78 1_555 1_555
C79 N16 1_555 1_555
C80 N17 1_555 1_555
C81 N18 1_555 1_555
C82 C81 1_555 1_555
H71 C82 1_555 1_555
C83 C82 1_555 1_555
H72 C83 1_555 1_555
C84 C83 1_555 1_555
H73 C84 1_555 1_555
C85 C80 1_555 1_555
H74 C85 1_555 1_555
C86 N18 1_555 1_555
C87 N19 1_555 1_555
C88 C87 1_555 1_555
H75 C88 1_555 1_555
C89 C88 1_555 1_555
H76 C89 1_555 1_555
C90 C89 1_555 1_555
C91 C90 1_555 1_555
H77 C91 1_555 1_555
C92 C87 1_555 1_555
H78 C92 1_555 1_555
C93 C69 1_555 1_555
C94 C93 1_555 1_555
H79 C94 1_555 1_555
C95 C94 1_555 1_555
H80 C95 1_555 1_555
C96 N21 1_555 1_555
C97 C96 1_555 1_555
H81 C97 1_555 1_555
C98 C93 1_555 1_555
H82 C98 1_555 1_555
C99 N21 1_555 1_555
C100 N22 1_555 1_555
C101 C100 1_555 1_555
H83 C101 1_555 1_555
C102 C101 1_555 1_555
H84 C102 1_555 1_555
C103 C102 1_555 1_555
H85 C103 1_555 1_555
C104 C103 1_555 1_555
H86 C104 1_555 1_555
C105 N23 1_555 1_555
C106 N23 1_555 1_555
C107 N24 1_555 1_555
C108 C107 1_555 1_555
H87 C108 1_555 1_555
C109 C108 1_555 1_555
H88 C109 1_555 1_555
C110 C109 1_555 1_555
C111 C110 1_555 1_555
H89 C111 1_555 1_555
C112 C107 1_555 1_555
H90 C112 1_555 1_555
C113 C71 1_555 1_555
C114 C113 1_555 1_555
H91 C114 1_555 1_555
C115 C114 1_555 1_555
H92 C115 1_555 1_555
C116 N26 1_555 1_555
C117 C116 1_555 1_555
H93 C117 1_555 1_555
C118 C113 1_555 1_555
H94 C118 1_555 1_555
C119 N26 1_555 1_555
C120 N27 1_555 1_555
C121 C120 1_555 1_555
H95 C121 1_555 1_555
C122 C121 1_555 1_555
H96 C122 1_555 1_555
C123 C122 1_555 1_555
H97 C123 1_555 1_555
C124 C123 1_555 1_555
H98 C124 1_555 1_555
C125 N28 1_555 1_555
C126 N28 1_555 1_555
C127 N29 1_555 1_555
C128 C127 1_555 1_555
H99 C128 1_555 1_555
C129 C128 1_555 1_555
H100 C129 1_555 1_555
C130 C129 1_555 1_555
C131 C130 1_555 1_555
H101 C131 1_555 1_555
C132 C127 1_555 1_555
H102 C132 1_555 1_555
O33 C133 1_555 1_555
O34 C134 1_555 1_555
O35 C136 1_555 1_555
O36 C138 1_555 1_555
O37 C140 1_555 1_555
O38 C142 1_555 1_555
C133 H103 1_555 1_555
H104 C133 1_555 1_555
C134 C133 1_555 1_555
H105 C134 1_555 1_555
H106 C134 1_555 1_555
C135 O34 1_555 1_555
H107 C135 1_555 1_555
H108 C135 1_555 1_555
C136 C135 1_555 1_555
H109 C136 1_555 1_555
H110 C136 1_555 1_555
C137 O35 1_555 1_555
H111 C137 1_555 1_555
H112 C137 1_555 1_555
C138 C137 1_555 1_555
H113 C138 1_555 1_555
H114 C138 1_555 1_555
C139 O36 1_555 1_555
H115 C139 1_555 1_555
H116 C139 1_555 1_555
C140 C139 1_555 1_555
H117 C140 1_555 1_555
C141 O37 1_555 1_555
H118 C141 1_555 1_555
H119 C141 1_555 1_555
C142 C141 1_555 1_555
H120 C142 1_555 1_555
H121 C142 1_555 1_555
C143 O38 1_555 1_555
H122 C143 1_555 1_555
H123 C143 1_555 1_555
C144 O33 1_555 1_555
H124 C144 1_555 1_555
H125 C144 1_555 1_555
O42 C146 1_555 1_555
C145 H126 1_555 1_555
H127 C145 1_555 1_555
H128 C145 1_555 1_555
C146 C145 1_555 1_555
H129 C146 1_555 1_555
H130 C146 1_555 1_555
C147 O42 1_555 1_555
H131 C147 1_555 1_555
H132 C147 1_555 1_555
C148 C147 1_555 1_555
H133 C148 1_555 1_555
H134 C148 1_555 1_555
H135 C148 1_555 1_555
N31 C149 1_555 1_555
C149 H136 1_555 1_555
H137 C149 1_555 1_555
H138 C149 1_555 1_555
C150 N31 1_555 1_555
H139 C150 1_555 1_555
H140 C150 1_555 1_555
H141 C150 1_555 1_555
N32 C151 1_555 1_555
C151 H142 1_555 1_555
H143 C151 1_555 1_555
H144 C151 1_555 1_555
C152 N32 1_555 1_555
H145 C152 1_555 1_555
H146 C152 1_555 1_555
H147 C152 1_555 1_555
N33 C153 1_555 1_555
C153 H148 1_555 1_555
H149 C153 1_555 1_555
H150 C153 1_555 1_555
C154 N33 1_555 1_555
H151 C154 1_555 1_555
H152 C154 1_555 1_555
H153 C154 1_555 1_555
N34 C155 1_555 1_555
C156 N34 1_555 1_555
C157 N34 1_555 1_555
H154 C157 1_555 1_555
H155 C157 1_555 1_555
H156 C157 1_555 1_555
C158 N34 1_555 1_555
H157 C158 1_555 1_555
H158 C158 1_555 1_555
H159 C158 1_555 1_555
C149A N31 1_555 1_555
H136A C149A 1_555 1_555
H137A C149A 1_555 1_555
H138A C149A 1_555 1_555
C150A N31 1_555 1_555
H139A C150A 1_555 1_555
H140A C150A 1_555 1_555
H141A C150A 1_555 1_555
C151A N32 1_555 1_555
H142A C151A 1_555 1_555
H143A C151A 1_555 1_555
H144A C151A 1_555 1_555
C152A N32 1_555 1_555
H145A C152A 1_555 1_555
H146A C152A 1_555 1_555
H147A C152A 1_555 1_555
C153A N33 1_555 1_555
H148A C153A 1_555 1_555
H149A C153A 1_555 1_555
H150A C153A 1_555 1_555
C154A N33 1_555 1_555
H151A C154A 1_555 1_555
H152A C154A 1_555 1_555
H153A C154A 1_555 1_555
N2 C13 1_555 1_555
N4 C20 1_555 1_555
N7 C33 1_555 1_555
N9 C40 1_555 1_555
N12 C53 1_555 1_555
N14 C60 1_555 1_555
C5 C6 1_555 1_555
C9 C10 1_555 1_555
C11 C12 1_555 1_555
C14 C19 1_555 1_555
C18 C19 1_555 1_555
C25 C26 1_555 1_555
C29 C30 1_555 1_555
C31 C32 1_555 1_555
C34 C39 1_555 1_555
C38 C39 1_555 1_555
C45 C46 1_555 1_555
C49 C50 1_555 1_555
C51 C52 1_555 1_555
C54 C59 1_555 1_555
C58 C59 1_555 1_555
C65 C66 1_555 1_555
N17 C79 1_555 1_555
N19 C86 1_555 1_555
N22 C99 1_555 1_555
N24 C106 1_555 1_555
N27 C119 1_555 1_555
N29 C126 1_555 1_555
C71 C72 1_555 1_555
C75 C76 1_555 1_555
C77 C78 1_555 1_555
C80 C81 1_555 1_555
C84 C85 1_555 1_555
C91 C92 1_555 1_555
C95 C96 1_555 1_555
C97 C98 1_555 1_555
C100 C105 1_555 1_555
C104 C105 1_555 1_555
C111 C112 1_555 1_555
C115 C116 1_555 1_555
C117 C118 1_555 1_555
C120 C125 1_555 1_555
C124 C125 1_555 1_555
C131 C132 1_555 1_555
C143 C144 1_555 1_555

#END
