
#######################################################################
#
#                 Cambridge Crystallographic Data Centre
#                                CCDC 
#
#######################################################################
#
# If this CIF has been generated from an entry in the Cambridge 
# Structural Database, then it will include bibliographic, chemical, 
# crystal, experimental, refinement or atomic coordinate data resulting 
# from the CCDC's data processing and validation procedures.
#
#######################################################################

data_VUMSUS
_chemical_formula_moiety         'C19 H26 N2 O6'
_chemical_name_systematic        
'Methyl 5-(((1-(diethylcarbamoyl)cyclopropyl)carbonyl)amino)-2,4-dimethoxybenzoate'
_symmetry_cell_setting           orthorhombic
_symmetry_space_group_name_H-M   'P b c a'
_symmetry_Int_Tables_number      61
_space_group_name_Hall           '-P 2ac 2ab'
loop_
_symmetry_equiv_pos_site_id
_symmetry_equiv_pos_as_xyz
1 x,y,z
2 1/2-x,-y,1/2+z
3 -x,1/2+y,1/2-z
4 1/2+x,1/2-y,-z
5 -x,-y,-z
6 1/2+x,y,1/2-z
7 x,1/2-y,1/2+z
8 1/2-x,1/2+y,z
_cell_length_a                   12.1796(9)
_cell_length_b                   12.9767(10)
_cell_length_c                   24.3972(19)
_cell_angle_alpha                90
_cell_angle_beta                 90
_cell_angle_gamma                90
_cell_volume                     3856
_exptl_crystal_colour            colorless
_cell_formula_units_Z            8
loop_
_atom_site_label
_atom_site_type_symbol
_atom_site_fract_x
_atom_site_fract_y
_atom_site_fract_z
O1 O 0.66256(9) 0.44814(9) 0.30724(5)
O2 O 0.93792(10) 0.36666(11) 0.42043(5)
O3 O 0.19289(12) 0.34276(14) 0.34862(8)
O4 O 0.29829(9) 0.48103(9) 0.35123(5)
O5 O 0.25820(9) 0.22136(9) 0.43624(5)
O6 O 0.65254(8) 0.18597(8) 0.44616(5)
N1 N 0.68213(11) 0.33327(11) 0.37629(6)
N2 N 0.93441(10) 0.24676(10) 0.35404(5)
C1 C 0.72180(12) 0.39965(11) 0.33839(6)
C2 C 0.84405(12) 0.41236(11) 0.33885(6)
C3 C 0.88045(15) 0.52400(13) 0.33760(7)
H1 H 0.8239 0.5766 0.3363
H2 H 0.9452 0.5426 0.3586
C4 C 0.89606(14) 0.45908(13) 0.28845(7)
H3 H 0.9703 0.4382 0.2794
H4 H 0.8491 0.4721 0.2571
C5 C 0.91075(12) 0.34042(12) 0.37411(6)
C6 C 0.90395(16) 0.21005(14) 0.29931(8)
H5 H 0.8484 0.2554 0.2842
H6 H 0.8721 0.1418 0.3025
C7 C 1.0006(2) 0.20571(19) 0.26038(8)
H7 H 1.0361 0.2717 0.2594
H8 H 0.9752 0.1882 0.2243
H9 H 1.0518 0.1545 0.2728
C8 C 0.99818(15) 0.17557(15) 0.38858(8)
H10 H 1.0522 0.2145 0.4092
H11 H 1.0372 0.1274 0.3653
C9 C 0.92637(16) 0.11607(16) 0.42809(8)
H12 H 0.8966 0.1624 0.4549
H13 H 0.9695 0.0642 0.4461
H14 H 0.8675 0.0839 0.4083
C10 C 0.57234(12) 0.30901(12) 0.38952(6)
C11 C 0.48073(12) 0.35904(11) 0.36927(6)
H15 H 0.4896 0.4139 0.3451
C12 C 0.37489(12) 0.32851(11) 0.38448(6)
C13 C 0.36252(12) 0.24732(11) 0.42138(6)
C14 C 0.45421(12) 0.19885(12) 0.44325(6)
H16 H 0.4457 0.1461 0.4687
C15 C 0.55794(11) 0.22894(12) 0.42722(6)
C16 C 0.27845(13) 0.38131(14) 0.36039(7)
C17 C 0.20913(16) 0.54054(17) 0.32806(9)
H17 H 0.1878 0.5111 0.2936
H18 H 0.2328 0.6103 0.3225
H19 H 0.1477 0.5396 0.3527
C18 C 0.24374(14) 0.13364(13) 0.47049(7)
H20 H 0.2697 0.0733 0.4518
H21 H 0.1672 0.1256 0.4790
H22 H 0.2845 0.1429 0.5038
C19 C 0.64457(14) 0.10277(13) 0.48459(7)
H23 H 0.6028 0.1246 0.5159
H24 H 0.7169 0.0827 0.4961
H25 H 0.6087 0.0452 0.4675
H26 H 0.7262(14) 0.3004(14) 0.3960(7)
loop_
_geom_bond_atom_site_label_1
_geom_bond_atom_site_label_2
_geom_bond_site_symmetry_1
_geom_bond_site_symmetry_2
O1 C1 1_555 1_555
O2 C5 1_555 1_555
O3 C16 1_555 1_555
O4 C16 1_555 1_555
O5 C13 1_555 1_555
O6 C15 1_555 1_555
N1 C1 1_555 1_555
N2 C5 1_555 1_555
C1 C2 1_555 1_555
C2 C3 1_555 1_555
C3 H1 1_555 1_555
H2 C3 1_555 1_555
C4 C2 1_555 1_555
H3 C4 1_555 1_555
H4 C4 1_555 1_555
C5 C2 1_555 1_555
C6 N2 1_555 1_555
H5 C6 1_555 1_555
H6 C6 1_555 1_555
C7 C6 1_555 1_555
H7 C7 1_555 1_555
H8 C7 1_555 1_555
H9 C7 1_555 1_555
C8 N2 1_555 1_555
H10 C8 1_555 1_555
H11 C8 1_555 1_555
C9 C8 1_555 1_555
H12 C9 1_555 1_555
H13 C9 1_555 1_555
H14 C9 1_555 1_555
C10 N1 1_555 1_555
C11 C10 1_555 1_555
H15 C11 1_555 1_555
C12 C11 1_555 1_555
C13 C12 1_555 1_555
C14 C13 1_555 1_555
H16 C14 1_555 1_555
C15 C10 1_555 1_555
C16 C12 1_555 1_555
C17 O4 1_555 1_555
H17 C17 1_555 1_555
H18 C17 1_555 1_555
H19 C17 1_555 1_555
C18 O5 1_555 1_555
H20 C18 1_555 1_555
H21 C18 1_555 1_555
H22 C18 1_555 1_555
C19 O6 1_555 1_555
H23 C19 1_555 1_555
H24 C19 1_555 1_555
H25 C19 1_555 1_555
H26 N1 1_555 1_555
C3 C4 1_555 1_555
C14 C15 1_555 1_555

#END
