
#######################################################################
#
#                 Cambridge Crystallographic Data Centre
#                                CCDC 
#
#######################################################################
#
# If this CIF has been generated from an entry in the Cambridge 
# Structural Database, then it will include bibliographic, chemical, 
# crystal, experimental, refinement or atomic coordinate data resulting 
# from the CCDC's data processing and validation procedures.
#
#######################################################################

data_VUMSOM
_chemical_formula_moiety         'C30 H35 N5 O8,C1 H2 Cl2'
_chemical_name_systematic        
"N'-(5-((2,4-Dimethoxy-5-((pyridin-2-ylcarbonyl)amino)phenyl)carbamoyl)-2,4-dimethoxyphenyl)-N,N-diethylmalonamide dichloromethane"
_symmetry_cell_setting           triclinic
_symmetry_space_group_name_H-M   'P -1'
_symmetry_Int_Tables_number      2
_space_group_name_Hall           '-P 1'
loop_
_symmetry_equiv_pos_site_id
_symmetry_equiv_pos_as_xyz
1 x,y,z
2 -x,-y,-z
_cell_length_a                   12.1817(11)
_cell_length_b                   12.3020(11)
_cell_length_c                   13.3647(12)
_cell_angle_alpha                99.276(2)
_cell_angle_beta                 108.272(2)
_cell_angle_gamma                113.276(2)
_cell_volume                     1651.12
_exptl_crystal_colour            colorless
_cell_formula_units_Z            2
loop_
_atom_site_label
_atom_site_type_symbol
_atom_site_fract_x
_atom_site_fract_y
_atom_site_fract_z
Cl1 Cl 0.2877(2) 0.33236(19) 0.32028(18)
Cl2 Cl 0.21177(19) 0.15035(18) 0.11632(14)
C31 C 0.2779(7) 0.1929(6) 0.2612(5)
H33 H 0.2234 0.1282 0.2832
H34 H 0.3650 0.1999 0.2883
O1 O 0.3119(3) 0.9578(3) 0.2670(2)
O2 O 0.6027(4) 1.2983(3) 0.3587(3)
O3 O 0.4193(3) 0.7647(2) 0.0041(2)
O4 O 0.8332(3) 1.1515(3) 0.1833(3)
O5 O -0.2943(2) 0.6072(2) 0.0337(2)
O6 O 0.0896(3) 0.6587(3) -0.0297(2)
O7 O 0.0114(3) 0.9808(3) 0.3502(2)
O8 O -0.3783(3) 0.7132(4) 0.2416(3)
N1 N 0.3157(3) 0.8616(3) 0.1101(3)
N2 N 0.7307(3) 1.2568(3) 0.2838(3)
N3 N -0.1508(3) 0.7944(3) 0.2237(3)
N4 N -0.3914(4) 0.8227(5) 0.3862(4)
N5 N 0.9064(4) 1.4966(4) 0.3613(3)
C1 C 0.6316(4) 0.9533(4) 0.0916(3)
H1 H 0.6680 0.9173 0.0544
C2 C 0.5028(4) 0.8844(3) 0.0759(3)
C3 C 0.4484(3) 0.9355(4) 0.1331(3)
C4 C 0.5238(4) 1.0592(4) 0.2040(3)
H2 H 0.4877 1.0950 0.2420
C5 C 0.6510(4) 1.1286(4) 0.2180(3)
C6 C 0.7057(4) 1.0748(4) 0.1619(3)
C7 C 0.2543(4) 0.8766(4) 0.1758(3)
C8 C 0.1094(4) 0.7934(3) 0.1309(3)
C9 C 0.0480(3) 0.8238(4) 0.1943(3)
H3 H 0.0999 0.8888 0.2620
C10 C -0.0861(3) 0.7624(3) 0.1619(3)
C11 C -0.1636(3) 0.6634(3) 0.0621(3)
C12 C -0.1051(4) 0.6285(3) -0.0021(3)
H4 H -0.1572 0.5615 -0.0684
C13 C 0.0293(4) 0.6920(3) 0.0309(3)
C14 C 0.7017(5) 1.3302(4) 0.3426(4)
C15 C 0.8061(4) 1.4671(4) 0.3900(4)
C16 C 0.7909(6) 1.5532(5) 0.4571(5)
H5 H 0.7186 1.5291 0.4746
C17 C 0.8878(7) 1.6768(6) 0.4970(6)
H6 H 0.8829 1.7374 0.5443
C18 C 0.9887(7) 1.7090(5) 0.4673(5)
H7 H 1.0519 1.7924 0.4907
C19 C 0.9975(6) 1.6159(5) 0.4011(5)
H8 H 1.0702 1.6382 0.3842
C20 C 0.4700(4) 0.7063(4) -0.0563(4)
H9 H 0.5050 0.7573 -0.0973
H10 H 0.4007 0.6255 -0.1072
H11 H 0.5384 0.6967 -0.0052
C21 C 0.8971(4) 1.1025(5) 0.1338(4)
H12 H 0.8953 1.0311 0.1551
H13 H 0.9867 1.1652 0.1584
H14 H 0.8531 1.0777 0.0542
C22 C -0.3786(4) 0.5125(4) -0.0726(3)
H15 H -0.3674 0.5475 -0.1302
H16 H -0.4683 0.4810 -0.0823
H17 H -0.3569 0.4455 -0.0769
C23 C 0.0119(5) 0.5690(4) -0.1381(4)
H18 H -0.0429 0.4904 -0.1334
H19 H 0.0683 0.5587 -0.1711
H20 H -0.0422 0.5974 -0.1834
C24 C -0.1014(4) 0.8960(4) 0.3109(3)
C25 C -0.1908(4) 0.9083(4) 0.3635(3)
H21 H -0.1460 0.9246 0.4427
H22 H -0.1970 0.9829 0.3556
C26 C -0.3282(4) 0.8055(5) 0.3256(3)
C27 C -0.3402(4) 0.9218(6) 0.4882(3)
H23 H -0.2486 0.9461 0.5304
H24 H -0.3876 0.8910 0.5325
C28 C -0.3511(6) 1.0350(7) 0.4690(4)
H25 H -0.3005 1.0687 0.4285
H26 H -0.3181 1.0972 0.5394
H27 H -0.4415 1.0115 0.4267
C29 C -0.5376(11) 0.7585(10) 0.3295(7)
H28 H -0.5726 0.8119 0.3519
H29 H -0.5684 0.7322 0.2491
C30 C -0.5726(13) 0.6518(8) 0.3691(8)
H30 H -0.5208 0.6119 0.3611
H31 H -0.6641 0.5933 0.3260
H32 H -0.5562 0.6797 0.4462
H35 H 0.266(5) 0.792(3) 0.056(4)
H36 H 0.806(3) 1.293(3) 0.278(3)
H37 H -0.230(3) 0.742(3) 0.212(4)
loop_
_geom_bond_atom_site_label_1
_geom_bond_atom_site_label_2
_geom_bond_site_symmetry_1
_geom_bond_site_symmetry_2
Cl1 C31 1_555 1_555
Cl2 C31 1_555 1_555
O1 C7 1_555 1_555
O2 C14 1_555 1_555
O3 C2 1_555 1_555
O4 C6 1_555 1_555
O5 C11 1_555 1_555
O6 C13 1_555 1_555
O7 C24 1_555 1_555
O8 C26 1_555 1_555
N1 C3 1_555 1_555
N2 C5 1_555 1_555
N3 C10 1_555 1_555
N4 C26 1_555 1_555
N5 C15 1_555 1_555
C1 H1 1_555 1_555
C2 C1 1_555 1_555
C3 C2 1_555 1_555
C4 C3 1_555 1_555
H2 C4 1_555 1_555
C5 C4 1_555 1_555
C6 C1 1_555 1_555
C7 N1 1_555 1_555
C8 C7 1_555 1_555
C9 C8 1_555 1_555
H3 C9 1_555 1_555
C10 C9 1_555 1_555
C11 C10 1_555 1_555
C12 C11 1_555 1_555
H4 C12 1_555 1_555
C13 C8 1_555 1_555
C14 N2 1_555 1_555
C15 C14 1_555 1_555
C16 C15 1_555 1_555
H5 C16 1_555 1_555
C17 C16 1_555 1_555
H6 C17 1_555 1_555
C18 C17 1_555 1_555
H7 C18 1_555 1_555
C19 N5 1_555 1_555
H8 C19 1_555 1_555
C20 O3 1_555 1_555
H9 C20 1_555 1_555
H10 C20 1_555 1_555
H11 C20 1_555 1_555
C21 O4 1_555 1_555
H12 C21 1_555 1_555
H13 C21 1_555 1_555
H14 C21 1_555 1_555
C22 O5 1_555 1_555
H15 C22 1_555 1_555
H16 C22 1_555 1_555
H17 C22 1_555 1_555
C23 O6 1_555 1_555
H18 C23 1_555 1_555
H19 C23 1_555 1_555
H20 C23 1_555 1_555
C24 N3 1_555 1_555
C25 C24 1_555 1_555
H21 C25 1_555 1_555
H22 C25 1_555 1_555
C26 C25 1_555 1_555
C27 N4 1_555 1_555
H23 C27 1_555 1_555
H24 C27 1_555 1_555
C28 C27 1_555 1_555
H25 C28 1_555 1_555
H26 C28 1_555 1_555
H27 C28 1_555 1_555
C29 N4 1_555 1_555
H28 C29 1_555 1_555
H29 C29 1_555 1_555
C30 C29 1_555 1_555
H30 C30 1_555 1_555
H31 C30 1_555 1_555
H32 C30 1_555 1_555
C31 H33 1_555 1_555
H34 C31 1_555 1_555
H35 N1 1_555 1_555
H36 N2 1_555 1_555
H37 N3 1_555 1_555
C5 C6 1_555 1_555
C12 C13 1_555 1_555
C18 C19 1_555 1_555

#END
