
#######################################################################
#
#                 Cambridge Crystallographic Data Centre
#                                CCDC 
#
#######################################################################
#
# If this CIF has been generated from an entry in the Cambridge 
# Structural Database, then it will include bibliographic, chemical, 
# crystal, experimental, refinement or atomic coordinate data resulting 
# from the CCDC's data processing and validation procedures.
#
#######################################################################

data_VUMTUS01
_chemical_formula_moiety         'C44 H56 O8'
_chemical_name_systematic        
25,26,27,28-tetrakis(2-Ethoxyethoxy)calix(4)arene
_symmetry_cell_setting           monoclinic
_symmetry_space_group_name_H-M   'P 21/m'
_symmetry_Int_Tables_number      11
_space_group_name_Hall           '-P 2yb'
loop_
_symmetry_equiv_pos_site_id
_symmetry_equiv_pos_as_xyz
1 x,y,z
2 x,1/2-y,z
3 -x,-y,-z
4 -x,1/2+y,-z
_cell_length_a                   11.675(1)
_cell_length_b                   16.630(1)
_cell_length_c                   11.811(1)
_cell_angle_alpha                90
_cell_angle_beta                 115.60(1)
_cell_angle_gamma                90
_cell_volume                     2068.05
_exptl_crystal_colour            colorless
_exptl_crystal_description       plates
_cell_formula_units_Z            2
loop_
_atom_site_label
_atom_site_type_symbol
_atom_site_fract_x
_atom_site_fract_y
_atom_site_fract_z
C1 C -0.0096(4) 0.0996(3) 0.0915(4)
H1 H 0.0810 0.0950 0.1168
H2 H -0.0513 0.0540 0.0384
C2 C -0.0358(4) 0.0991(2) 0.2082(4)
C3 C -0.1588(4) 0.1111(2) 0.1930(4)
H3 H -0.2248 0.1153 0.1128
C4 C -0.1838(4) 0.1170(3) 0.2971(4)
H4 H -0.2669 0.1236 0.2868
C5 C -0.0870(4) 0.1131(2) 0.4143(4)
H5 H -0.1051 0.1192 0.4832
C6 C 0.0365(3) 0.10044(19) 0.4348(3)
C7 C 0.0593(3) 0.09167(19) 0.3267(4)
O1 O 0.1837(2) 0.07912(14) 0.3440(2)
C8 C 0.2152(4) -0.0038(2) 0.3476(5)
H6 H 0.1531 -0.0307 0.2737
H7 H 0.2136 -0.0288 0.4212
C9 C 0.3414(5) -0.0121(3) 0.3519(6)
H8 H 0.3995 0.0251 0.4130
H9 H 0.3727 -0.0662 0.3777
O2 O 0.3367(4) 0.0036(2) 0.2349(4)
C10 C 0.4622(8) 0.0003(6) 0.2427(10)
H10 H 0.5078 0.0480 0.2864
H11 H 0.5053 -0.0458 0.2934
C11 C 0.4690(10) -0.0043(9) 0.1395(11)
H12 H 0.5566 -0.0064 0.1544
H13 H 0.4293 0.0419 0.0892
H14 H 0.4265 -0.0522 0.0961
C12 C 0.1418(4) 0.1007(2) 0.5654(4)
H15 H 0.2232 0.0982 0.5619
H16 H 0.1345 0.0540 0.6110
C13 C 0.1337(3) 0.1772(2) 0.6326(3)
C14 C 0.0862(4) 0.1789(3) 0.7223(3)
H17 H 0.0706 0.1308 0.7532
C15 C 0.0621(6) 0.2500 0.7658(5)
H18 H 0.0294 0.2500 0.8249
C16 C 0.1624(4) 0.2500 0.5945(4)
O3 O 0.2127(3) 0.2500 0.5078(3)
C17 C 0.3490(5) 0.2500 0.5692(6)
H19 H 0.3788 0.2972 0.6221
H20 H 0.3788 0.2028 0.6221
C18 C 0.3987(5) 0.2500 0.4775(6)
H21 H 0.3688 0.2028 0.4246
H22 H 0.3688 0.2972 0.4246
O4 O 0.5308(4) 0.2500 0.5365(4)
C19 C 0.5870(6) 0.2500 0.4540(7)
H23 H 0.5588 0.2029 0.4006
H24 H 0.5588 0.2971 0.4006
C20 C 0.7152(7) 0.2500 0.5131(8)
H25 H 0.7489 0.2500 0.4519
H26 H 0.7440 0.2029 0.5647
H27 H 0.7440 0.2971 0.5647
C21 C -0.2285(7) 0.2500 -0.1437(6)
H28 H -0.3034 0.2500 -0.2174
C22 C -0.1737(4) 0.1793(4) -0.0897(4)
H29 H -0.2136 0.1313 -0.1260
C23 C -0.0585(4) 0.1767(3) 0.0192(4)
C24 C 0.0005(5) 0.2500 0.0675(4)
O5 O 0.1161(3) 0.2500 0.1707(3)
C25 C 0.2191(8) 0.2172(5) 0.1435(8)
C26 C 0.2857(9) 0.2845(6) 0.1181(9)
O6 O 0.3944(5) 0.2500 0.1093(6)
C27 C 0.4066(11) 0.2500 0.0017(10)
H34 H 0.3606 0.2033 -0.0451
H35 H 0.3606 0.2967 -0.0451
C28 C 0.5163(10) 0.2500 -0.0042(13)
H36 H 0.5023 0.2500 -0.0905
H37 H 0.5634 0.2029 0.0369
H38 H 0.5634 0.2971 0.0369
C14A C 0.0862(4) 0.3211(3) 0.7223(3)
C13A C 0.1337(3) 0.3228(2) 0.6326(3)
C12A C 0.1418(4) 0.3993(2) 0.5654(4)
C6A C 0.0365(3) 0.39956(19) 0.4348(3)
C5A C -0.0870(4) 0.3869(2) 0.4143(4)
C4A C -0.1838(4) 0.3830(3) 0.2971(4)
C3A C -0.1588(4) 0.3889(2) 0.1930(4)
C2A C -0.0358(4) 0.4009(2) 0.2082(4)
C1A C -0.0096(4) 0.4004(3) 0.0915(4)
H1A H 0.0810 0.4050 0.1168
H2A H -0.0513 0.4460 0.0384
C23A C -0.0585(4) 0.3233(3) 0.0192(4)
C22A C -0.1737(4) 0.3207(4) -0.0897(4)
C25A C 0.2191(8) 0.2828(5) 0.1435(8)
C26A C 0.2857(9) 0.2155(6) 0.1181(9)
H29A H -0.2136 0.3687 -0.1260
C7A C 0.0593(3) 0.40833(19) 0.3267(4)
O1A O 0.1837(2) 0.42088(14) 0.3440(2)
C8A C 0.2152(4) 0.5038(2) 0.3476(5)
H6A H 0.1531 0.5307 0.2737
H7A H 0.2136 0.5288 0.4212
C9A C 0.3414(5) 0.5121(3) 0.3519(6)
H8A H 0.3995 0.4749 0.4130
H9A H 0.3727 0.5662 0.3777
O2A O 0.3367(4) 0.4964(2) 0.2349(4)
C10A C 0.4622(8) 0.4997(6) 0.2427(10)
H10A H 0.5078 0.4520 0.2864
H11A H 0.5053 0.5458 0.2934
C11A C 0.4690(10) 0.5043(9) 0.1395(11)
H12A H 0.5566 0.5064 0.1544
H13A H 0.4293 0.4581 0.0892
H14A H 0.4265 0.5522 0.0961
H3A H -0.2248 0.3847 0.1128
H4A H -0.2669 0.3764 0.2868
H5A H -0.1051 0.3808 0.4832
H15A H 0.2232 0.4018 0.5619
H16A H 0.1345 0.4460 0.6110
H17A H 0.0706 0.3692 0.7532
H30? H 0.2778 0.1864 0.2148
H31? H 0.1841 0.1818 0.0712
H32? H 0.2310 0.3109 0.0401
H33? H 0.3120 0.3236 0.1856
loop_
_geom_bond_atom_site_label_1
_geom_bond_atom_site_label_2
_geom_bond_site_symmetry_1
_geom_bond_site_symmetry_2
C1 H1 1_555 1_555
H2 C1 1_555 1_555
C2 C1 1_555 1_555
C3 C2 1_555 1_555
H3 C3 1_555 1_555
C4 C3 1_555 1_555
H4 C4 1_555 1_555
C5 C4 1_555 1_555
H5 C5 1_555 1_555
C6 C5 1_555 1_555
C7 C2 1_555 1_555
O1 C7 1_555 1_555
C8 O1 1_555 1_555
H6 C8 1_555 1_555
H7 C8 1_555 1_555
C9 C8 1_555 1_555
H8 C9 1_555 1_555
H9 C9 1_555 1_555
O2 C9 1_555 1_555
C10 O2 1_555 1_555
H10 C10 1_555 1_555
H11 C10 1_555 1_555
C11 C10 1_555 1_555
H12 C11 1_555 1_555
H13 C11 1_555 1_555
H14 C11 1_555 1_555
C12 C6 1_555 1_555
H15 C12 1_555 1_555
H16 C12 1_555 1_555
C13 C12 1_555 1_555
C14 C13 1_555 1_555
H17 C14 1_555 1_555
C15 C14 1_555 1_555
H18 C15 1_555 1_555
C16 C13 1_555 1_555
O3 C16 1_555 1_555
C17 O3 1_555 1_555
H19 C17 1_555 1_555
H20 C17 1_555 1_555
C18 C17 1_555 1_555
H21 C18 1_555 1_555
H22 C18 1_555 1_555
O4 C18 1_555 1_555
C19 O4 1_555 1_555
H23 C19 1_555 1_555
H24 C19 1_555 1_555
C20 C19 1_555 1_555
H25 C20 1_555 1_555
H26 C20 1_555 1_555
H27 C20 1_555 1_555
C21 H28 1_555 1_555
C22 C21 1_555 1_555
H29 C22 1_555 1_555
C23 C1 1_555 1_555
C24 C23 1_555 1_555
O5 C24 1_555 1_555
C25 O5 1_555 1_555
C26 C25 1_555 1_555
O6 C26 1_555 1_555
C27 O6 1_555 1_555
H34 C27 1_555 1_555
H35 C27 1_555 1_555
C28 C27 1_555 1_555
H36 C28 1_555 1_555
H37 C28 1_555 1_555
H38 C28 1_555 1_555
C14A C15 1_555 1_555
C13A C16 1_555 1_555
C12A C13A 1_555 1_555
C6A C12A 1_555 1_555
C5A C6A 1_555 1_555
C4A C5A 1_555 1_555
C3A C4A 1_555 1_555
C2A C3A 1_555 1_555
C1A C2A 1_555 1_555
H1A C1A 1_555 1_555
H2A C1A 1_555 1_555
C23A C24 1_555 1_555
C22A C21 1_555 1_555
C25A O5 1_555 1_555
C26A C25 1_555 1_555
H29A C22A 1_555 1_555
C7A C6A 1_555 1_555
O1A C7A 1_555 1_555
C8A O1A 1_555 1_555
H6A C8A 1_555 1_555
H7A C8A 1_555 1_555
C9A C8A 1_555 1_555
H8A C9A 1_555 1_555
H9A C9A 1_555 1_555
O2A C9A 1_555 1_555
C10A O2A 1_555 1_555
H10A C10A 1_555 1_555
H11A C10A 1_555 1_555
C11A C10A 1_555 1_555
H12A C11A 1_555 1_555
H13A C11A 1_555 1_555
H14A C11A 1_555 1_555
H3A C3A 1_555 1_555
H4A C4A 1_555 1_555
H5A C5A 1_555 1_555
H15A C12A 1_555 1_555
H16A C12A 1_555 1_555
H17A C14A 1_555 1_555
C6 C7 1_555 1_555
C22 C23 1_555 1_555
C25 C25A 1_555 1_555
C26 C25A 1_555 1_555
C26 C26A 1_555 1_555
O6 C26A 1_555 1_555
C14A C13A 1_555 1_555
C2A C7A 1_555 1_555
C1A C23A 1_555 1_555
C23A C22A 1_555 1_555
C25A C26A 1_555 1_555

#END
