
#######################################################################
#
#                 Cambridge Crystallographic Data Centre
#                                CCDC 
#
#######################################################################
#
# If this CIF has been generated from an entry in the Cambridge 
# Structural Database, then it will include bibliographic, chemical, 
# crystal, experimental, refinement or atomic coordinate data resulting 
# from the CCDC's data processing and validation procedures.
#
#######################################################################

data_VUMTUS02
_chemical_formula_moiety         'C44 H56 O8'
_chemical_name_systematic        
25,26,27,28-tetrakis(2-Ethoxyethoxy)calix(4)arene
_symmetry_cell_setting           monoclinic
_symmetry_space_group_name_H-M   'P 21/n'
_symmetry_Int_Tables_number      14
_space_group_name_Hall           '-P 2yn'
loop_
_symmetry_equiv_pos_site_id
_symmetry_equiv_pos_as_xyz
1 x,y,z
2 1/2+x,1/2-y,1/2+z
3 -x,-y,-z
4 1/2-x,1/2+y,1/2-z
_cell_length_a                   11.634(4)
_cell_length_b                   16.442(3)
_cell_length_c                   21.010(5)
_cell_angle_alpha                90
_cell_angle_beta                 93.87(2)
_cell_angle_gamma                90
_cell_volume                     4009.76
_exptl_crystal_colour            colorless
_exptl_crystal_description       prisms
_cell_formula_units_Z            4
loop_
_atom_site_label
_atom_site_type_symbol
_atom_site_fract_x
_atom_site_fract_y
_atom_site_fract_z
C1 C 0.3311(3) 0.3937(2) 0.29064(18)
C2 C 0.2141(3) 0.3798(2) 0.29812(19)
H1 H 0.1630 0.3757 0.2616
C3 C 0.1720(3) 0.3719(3) 0.3571(2)
H2 H 0.0926 0.3645 0.3610
C4 C 0.2471(3) 0.3749(3) 0.4108(2)
H3 H 0.2184 0.3679 0.4512
C5 C 0.3641(3) 0.3880(2) 0.40637(18)
C6 C 0.4034(3) 0.3991(2) 0.34623(18)
C7 C 0.4448(3) 0.3830(3) 0.46691(18)
H4 H 0.5245 0.3920 0.4564
H5 H 0.4244 0.4250 0.4972
C8 C 0.4332(3) 0.2997(3) 0.49633(16)
C9 C 0.3741(3) 0.2880(3) 0.55112(18)
H6 H 0.3510 0.3334 0.5744
C10 C 0.3491(3) 0.2112(3) 0.57155(19)
H7 H 0.3119 0.2042 0.6095
C11 C 0.3782(3) 0.1446(3) 0.53684(18)
H8 H 0.3579 0.0925 0.5505
C12 C 0.4373(3) 0.1527(2) 0.48170(17)
C13 C 0.4709(3) 0.2304(2) 0.46497(16)
C14 C 0.4521(3) 0.0813(2) 0.43748(19)
H9 H 0.4423 0.0302 0.4606
H10 H 0.5298 0.0819 0.4222
C15 C 0.3632(3) 0.0863(2) 0.38106(17)
C16 C 0.2470(3) 0.0986(2) 0.39206(18)
H11 H 0.2243 0.1000 0.4341
C17 C 0.1659(3) 0.1087(2) 0.34209(19)
H12 H 0.0881 0.1167 0.3499
C18 C 0.1992(3) 0.1069(2) 0.28087(18)
H13 H 0.1430 0.1146 0.2471
C19 C 0.3130(3) 0.0942(2) 0.26663(18)
C20 C 0.3935(3) 0.0830(2) 0.31822(18)
C21 C 0.3446(3) 0.0992(2) 0.19827(18)
H14 H 0.4278 0.0915 0.1963
H15 H 0.3050 0.0562 0.1731
C22 C 0.3101(3) 0.1809(2) 0.17148(16)
C23 C 0.2144(3) 0.1928(3) 0.12858(17)
H16 H 0.1753 0.1477 0.1102
C24 C 0.1769(3) 0.2707(3) 0.11300(18)
H17 H 0.1138 0.2779 0.0831
C25 C 0.2309(3) 0.3378(3) 0.14078(17)
H18 H 0.2033 0.3902 0.1303
C26 C 0.3262(3) 0.3287(2) 0.18424(17)
C27 C 0.3665(3) 0.2504(2) 0.19654(16)
C28 C 0.3740(3) 0.3978(2) 0.22445(18)
H19 H 0.3506 0.4496 0.2044
H20 H 0.4584 0.3953 0.2273
O1 O 0.5211(2) 0.41210(15) 0.34086(13)
C29 C 0.5507(4) 0.4962(2) 0.3415(2)
H21 H 0.5124 0.5244 0.3752
H22 H 0.5261 0.5213 0.3005
C30 C 0.6798(4) 0.5023(3) 0.3533(2)
H23 H 0.7176 0.4642 0.3256
H24 H 0.7054 0.5575 0.3438
O2 O 0.7098(2) 0.4833(2) 0.41835(15)
C31 C 0.8308(5) 0.4741(5) 0.4335(4)
H25 H 0.8702 0.5259 0.4273
H26 H 0.8624 0.4336 0.4052
C32 C 0.8499(7) 0.4471(6) 0.5023(5)
H27 H 0.9314 0.4372 0.5123
H28 H 0.8071 0.3974 0.5086
H29 H 0.8236 0.4893 0.5301
O3 O 0.5340(2) 0.23947(16) 0.41176(11)
C33 C 0.6516(4) 0.2628(3) 0.4271(2)
H30 H 0.6563 0.2943 0.4668
H31 H 0.6777 0.2977 0.3932
C34 C 0.7278(4) 0.1914(3) 0.4347(2)
H32 H 0.7107 0.1612 0.4731
H33 H 0.7146 0.1552 0.3979
O4 O 0.8454(3) 0.2178(3) 0.43963(19)
C35 C 0.9038(5) 0.2101(5) 0.4968(3)
H34 H 0.9041 0.1528 0.5097
H35 H 0.8646 0.2413 0.5287
C36 C 1.0244(5) 0.2391(4) 0.4954(3)
H36 H 1.0629 0.2341 0.5376
H37 H 1.0244 0.2957 0.4822
H38 H 1.0646 0.2067 0.4654
O5 O 0.50919(19) 0.07129(15) 0.30688(13)
C37 C 0.5392(3) -0.0123(2) 0.3020(2)
H39 H 0.4990 -0.0363 0.2640
H40 H 0.5162 -0.0420 0.3395
C38 C 0.6671(3) -0.0186(3) 0.2976(2)
H41 H 0.6863 -0.0727 0.2818
H42 H 0.6920 0.0218 0.2670
O6 O 0.7257(2) -0.00550(18) 0.35700(14)
C39 C 0.8470(4) -0.0155(3) 0.3564(3)
H43 H 0.8783 0.0275 0.3303
H44 H 0.8636 -0.0679 0.3368
C40 C 0.9032(5) -0.0124(5) 0.4198(4)
H45 H 0.9849 -0.0227 0.4175
H46 H 0.8702 -0.0533 0.4463
H47 H 0.8922 0.0410 0.4380
O7 O 0.46134(19) 0.24017(14) 0.23893(11)
C41 C 0.5655(3) 0.2385(3) 0.2074(2)
H48 H 0.5701 0.2861 0.1796
H49 H 0.5688 0.1894 0.1812
C42 C 0.6615(3) 0.2391(3) 0.2568(2)
H50 H 0.6567 0.2876 0.2836
H51 H 0.6570 0.1910 0.2841
O8 O 0.7658(2) 0.2390(2) 0.22719(15)
C43 C 0.8637(4) 0.2368(4) 0.2697(3)
H52 H 0.8668 0.1845 0.2921
H53 H 0.8581 0.2799 0.3016
C44 C 0.9662(4) 0.2475(3) 0.2380(3)
H54 H 0.9739 0.2035 0.2078
H55 H 1.0319 0.2472 0.2690
H56 H 0.9632 0.2990 0.2155
loop_
_geom_bond_atom_site_label_1
_geom_bond_atom_site_label_2
_geom_bond_site_symmetry_1
_geom_bond_site_symmetry_2
C1 C2 1_555 1_555
C2 H1 1_555 1_555
C3 C2 1_555 1_555
H2 C3 1_555 1_555
C4 C3 1_555 1_555
H3 C4 1_555 1_555
C5 C4 1_555 1_555
C6 C1 1_555 1_555
C7 C5 1_555 1_555
H4 C7 1_555 1_555
H5 C7 1_555 1_555
C8 C7 1_555 1_555
C9 C8 1_555 1_555
H6 C9 1_555 1_555
C10 C9 1_555 1_555
H7 C10 1_555 1_555
C11 C10 1_555 1_555
H8 C11 1_555 1_555
C12 C11 1_555 1_555
C13 C8 1_555 1_555
C14 C12 1_555 1_555
H9 C14 1_555 1_555
H10 C14 1_555 1_555
C15 C14 1_555 1_555
C16 C15 1_555 1_555
H11 C16 1_555 1_555
C17 C16 1_555 1_555
H12 C17 1_555 1_555
C18 C17 1_555 1_555
H13 C18 1_555 1_555
C19 C18 1_555 1_555
C20 C15 1_555 1_555
C21 C19 1_555 1_555
H14 C21 1_555 1_555
H15 C21 1_555 1_555
C22 C21 1_555 1_555
C23 C22 1_555 1_555
H16 C23 1_555 1_555
C24 C23 1_555 1_555
H17 C24 1_555 1_555
C25 C24 1_555 1_555
H18 C25 1_555 1_555
C26 C25 1_555 1_555
C27 C22 1_555 1_555
C28 C1 1_555 1_555
H19 C28 1_555 1_555
H20 C28 1_555 1_555
O1 C6 1_555 1_555
C29 O1 1_555 1_555
H21 C29 1_555 1_555
H22 C29 1_555 1_555
C30 C29 1_555 1_555
H23 C30 1_555 1_555
H24 C30 1_555 1_555
O2 C30 1_555 1_555
C31 O2 1_555 1_555
H25 C31 1_555 1_555
H26 C31 1_555 1_555
C32 C31 1_555 1_555
H27 C32 1_555 1_555
H28 C32 1_555 1_555
H29 C32 1_555 1_555
O3 C13 1_555 1_555
C33 O3 1_555 1_555
H30 C33 1_555 1_555
H31 C33 1_555 1_555
C34 C33 1_555 1_555
H32 C34 1_555 1_555
H33 C34 1_555 1_555
O4 C34 1_555 1_555
C35 O4 1_555 1_555
H34 C35 1_555 1_555
H35 C35 1_555 1_555
C36 C35 1_555 1_555
H36 C36 1_555 1_555
H37 C36 1_555 1_555
H38 C36 1_555 1_555
O5 C20 1_555 1_555
C37 O5 1_555 1_555
H39 C37 1_555 1_555
H40 C37 1_555 1_555
C38 C37 1_555 1_555
H41 C38 1_555 1_555
H42 C38 1_555 1_555
O6 C38 1_555 1_555
C39 O6 1_555 1_555
H43 C39 1_555 1_555
H44 C39 1_555 1_555
C40 C39 1_555 1_555
H45 C40 1_555 1_555
H46 C40 1_555 1_555
H47 C40 1_555 1_555
O7 C27 1_555 1_555
C41 O7 1_555 1_555
H48 C41 1_555 1_555
H49 C41 1_555 1_555
C42 C41 1_555 1_555
H50 C42 1_555 1_555
H51 C42 1_555 1_555
O8 C42 1_555 1_555
C43 O8 1_555 1_555
H52 C43 1_555 1_555
H53 C43 1_555 1_555
C44 C43 1_555 1_555
H54 C44 1_555 1_555
H55 C44 1_555 1_555
H56 C44 1_555 1_555
C5 C6 1_555 1_555
C12 C13 1_555 1_555
C19 C20 1_555 1_555
C26 C28 1_555 1_555
C26 C27 1_555 1_555

#END
