
#######################################################################
#
#                 Cambridge Crystallographic Data Centre
#                                CCDC 
#
#######################################################################
#
# If this CIF has been generated from an entry in the Cambridge 
# Structural Database, then it will include bibliographic, chemical, 
# crystal, experimental, refinement or atomic coordinate data resulting 
# from the CCDC's data processing and validation procedures.
#
#######################################################################

data_VUNFER
_chemical_name_common            
"hexa-aqua-magnesium bis(5-hydroxy-4'-methoxyisoflavone-3'-sulfonate) dihydrate"
_chemical_formula_moiety         '2(C16 H11 O7 S1 1-),H12 Mg1 O6 2+,2(H2 O1)'
_chemical_name_systematic        
'hexa-aqua-magnesium bis(5-(5-hydroxy-4-oxo-4H-chromen-3-yl)-2-methoxybenzenesulfonate) dihydrate'
_symmetry_cell_setting           monoclinic
_symmetry_space_group_name_H-M   'P 21/c'
_symmetry_Int_Tables_number      14
_space_group_name_Hall           '-P 2ybc'
loop_
_symmetry_equiv_pos_site_id
_symmetry_equiv_pos_as_xyz
1 x,y,z
2 -x,1/2+y,1/2-z
3 -x,-y,-z
4 x,1/2-y,1/2+z
_cell_length_a                   8.1938(13)
_cell_length_b                   33.781(5)
_cell_length_c                   7.4704(12)
_cell_angle_alpha                90
_cell_angle_beta                 116.919(2)
_cell_angle_gamma                90
_cell_volume                     1843.72
_exptl_crystal_colour            colorless
_exptl_crystal_description       spicula
_cell_formula_units_Z            2
loop_
_atom_site_label
_atom_site_type_symbol
_atom_site_fract_x
_atom_site_fract_y
_atom_site_fract_z
Mg1 Mg 0.5000 0.0000 0.0000
O1 O 0.4606(3) 0.05943(6) 0.0087(4)
O2 O 0.4501(3) -0.01044(7) 0.2414(3)
H1 H 0.417(5) 0.0711(9) 0.073(5)
H2 H 0.529(4) -0.0220(10) 0.338(4)
H3 H 0.515(5) 0.0754(9) -0.027(6)
H4 H 0.385(4) 0.0034(9) 0.274(5)
O3 O 0.2195(3) -0.00457(7) -0.1839(4)
H5 H 0.161(5) 0.0120(10) -0.267(5)
H6 H 0.151(4) -0.0226(8) -0.194(6)
O1B O 0.5394(3) -0.05943(6) -0.0087(4)
O2B O 0.5499(3) 0.01044(7) -0.2414(3)
H1B H 0.583(5) -0.0711(9) -0.073(5)
H2B H 0.471(4) 0.0220(10) -0.338(4)
H3B H 0.485(5) -0.0754(9) 0.027(6)
H4B H 0.615(4) -0.0034(9) -0.274(5)
O3B O 0.7805(3) 0.00457(7) 0.1839(4)
H5B H 0.839(5) -0.0120(10) 0.267(5)
H6B H 0.849(4) 0.0226(8) 0.194(6)
S1 S 0.18598(9) 0.075553(18) 0.30732(10)
O4 O 0.9180(3) 0.22993(6) 0.7733(4)
H7 H 0.8636 0.2088 0.7570
O5 O 0.6586(2) 0.18256(5) 0.7407(3)
O6 O 0.3505(2) 0.27858(5) 0.7271(3)
O7 O -0.0039(3) 0.06284(5) 0.5588(3)
O8 O 0.2938(3) 0.09541(6) 0.2258(3)
O9 O 0.2665(3) 0.03817(5) 0.4043(3)
O10 O -0.0039(2) 0.07046(6) 0.1622(3)
C1 C 0.8058(4) 0.25991(8) 0.7639(4)
C2 C 0.8642(4) 0.29835(9) 0.7719(5)
H8 H 0.9792 0.3035 0.7811
C3 C 0.7521(4) 0.32920(9) 0.7663(4)
H9 H 0.7936 0.3550 0.7725
C4 C 0.5803(4) 0.32301(8) 0.7518(4)
H10 H 0.5059 0.3441 0.7485
C5 C 0.5229(4) 0.28424(8) 0.7424(4)
C6 C 0.6300(3) 0.25198(7) 0.7474(4)
C7 C 0.5623(3) 0.21172(8) 0.7333(4)
C8 C 0.3768(3) 0.20808(7) 0.7083(4)
C9 C 0.2857(4) 0.24124(8) 0.7070(4)
H11 H 0.1669 0.2382 0.6907
C10 C 0.2848(3) 0.16892(7) 0.6791(4)
C11 C 0.1882(3) 0.15895(7) 0.7847(4)
H12 H 0.1892 0.1761 0.8827
C12 C 0.0908(4) 0.12404(8) 0.7465(4)
H13 H 0.0261 0.1180 0.8181
C13 C 0.0883(3) 0.09795(7) 0.6029(4)
C14 C 0.1873(3) 0.10726(7) 0.4970(4)
C15 C 0.2848(3) 0.14241(7) 0.5376(4)
H14 H 0.3518 0.1483 0.4684
C16 C -0.1521(5) 0.05933(10) 0.6105(6)
H15 H -0.1041 0.0582 0.7539
H16 H -0.2199 0.0356 0.5523
H17 H -0.2316 0.0818 0.5598
O11 O 0.6618(3) 0.10403(7) -0.1114(4)
H18 H 0.767(3) 0.0972(11) -0.039(5)
H19 H 0.655(5) 0.1256(7) -0.163(5)
loop_
_geom_bond_atom_site_label_1
_geom_bond_atom_site_label_2
_geom_bond_site_symmetry_1
_geom_bond_site_symmetry_2
Mg1 O1 1_555 1_555
O1 H1 1_555 1_555
O2 Mg1 1_555 1_555
H2 O2 1_555 1_555
H3 O1 1_555 1_555
H4 O2 1_555 1_555
O3 Mg1 1_555 1_555
H5 O3 1_555 1_555
H6 O3 1_555 1_555
S1 O8 1_555 1_555
O4 H7 1_555 1_555
O5 C7 1_555 1_555
O6 C5 1_555 1_555
O7 C13 1_555 1_555
O9 S1 1_555 1_555
O10 S1 1_555 1_555
C1 O4 1_555 1_555
C2 C1 1_555 1_555
H8 C2 1_555 1_555
C3 C2 1_555 1_555
H9 C3 1_555 1_555
C4 C3 1_555 1_555
H10 C4 1_555 1_555
C5 C4 1_555 1_555
C6 C1 1_555 1_555
C7 C6 1_555 1_555
C8 C7 1_555 1_555
C9 O6 1_555 1_555
H11 C9 1_555 1_555
C10 C8 1_555 1_555
C11 C10 1_555 1_555
H12 C11 1_555 1_555
C12 C11 1_555 1_555
H13 C12 1_555 1_555
C13 C12 1_555 1_555
C14 S1 1_555 1_555
C15 C10 1_555 1_555
H14 C15 1_555 1_555
C16 O7 1_555 1_555
H15 C16 1_555 1_555
H16 C16 1_555 1_555
H17 C16 1_555 1_555
O11 H18 1_555 1_555
H19 O11 1_555 1_555
O1B Mg1 1_555 1_555
O2B Mg1 1_555 1_555
H1B O1B 1_555 1_555
H2B O2B 1_555 1_555
H3B O1B 1_555 1_555
H4B O2B 1_555 1_555
O3B Mg1 1_555 1_555
H5B O3B 1_555 1_555
H6B O3B 1_555 1_555
C5 C6 1_555 1_555
C8 C9 1_555 1_555
C13 C14 1_555 1_555
C14 C15 1_555 1_555

#END
