
#######################################################################
#
#                 Cambridge Crystallographic Data Centre
#                                CCDC 
#
#######################################################################
#
# If this CIF has been generated from an entry in the Cambridge 
# Structural Database, then it will include bibliographic, chemical, 
# crystal, experimental, refinement or atomic coordinate data resulting 
# from the CCDC's data processing and validation procedures.
#
#######################################################################

data_VUNKAS
_chemical_formula_moiety         'C17 H18 N2 O3'
_chemical_name_systematic        
'2-(1-hydroxy-2-(4-methylphenyl)-1-diazen-1-yl)-5-methylphenyl propionate'
_symmetry_cell_setting           triclinic
_symmetry_space_group_name_H-M   'P -1'
_symmetry_Int_Tables_number      2
_space_group_name_Hall           '-P 1'
loop_
_symmetry_equiv_pos_site_id
_symmetry_equiv_pos_as_xyz
1 x,y,z
2 -x,-y,-z
_cell_length_a                   6.8879(9)
_cell_length_b                   8.2820(9)
_cell_length_c                   14.4023(10)
_cell_angle_alpha                104.655(8)
_cell_angle_beta                 94.121(9)
_cell_angle_gamma                91.668(10)
_cell_volume                     791.851
_cell_formula_units_Z            2
loop_
_atom_site_label
_atom_site_type_symbol
_atom_site_fract_x
_atom_site_fract_y
_atom_site_fract_z
O1 O -0.2149(3) 0.30110(18) 0.64377(12)
O2 O 0.30011(19) 0.26101(15) 0.78158(9)
O3 O 0.2495(2) 0.11774(17) 0.89195(10)
N1 N -0.1004(2) 0.25359(19) 0.70293(11)
N2 N -0.0561(2) 0.10517(19) 0.70119(11)
C1 C -0.0141(3) 0.3841(2) 0.78494(13)
C2 C -0.1288(3) 0.5159(2) 0.82280(15)
H1 H -0.2557 0.5177 0.7963
C3 C -0.0557(4) 0.6440(3) 0.89944(15)
H2 H -0.1347 0.7308 0.9249
C4 C 0.1335(4) 0.6457(2) 0.93926(14)
C5 C 0.2480(3) 0.5139(2) 0.89945(13)
H3 H 0.3763 0.5139 0.9244
C6 C 0.1752(3) 0.3834(2) 0.82389(13)
C7 C 0.2157(4) 0.7880(3) 1.02138(16)
H4 H 0.3256 0.7520 1.0544
H5 H 0.1176 0.8229 1.0654
H6 H 0.2562 0.8799 0.9967
C8 C -0.1320(3) -0.0298(2) 0.62476(13)
C9 C -0.2333(3) -0.0265(3) 0.53774(14)
H7 H -0.2615 0.0750 0.5246
C10 C -0.2908(3) -0.1739(3) 0.47193(14)
H8 H -0.3564 -0.1700 0.4139
C11 C -0.2554(3) -0.3278(2) 0.48815(14)
C12 C -0.1565(3) -0.3296(2) 0.57509(15)
H9 H -0.1315 -0.4314 0.5886
C13 C -0.0948(3) -0.1838(2) 0.64165(14)
H10 H -0.0269 -0.1885 0.6990
C14 C -0.3225(3) -0.4866(3) 0.41403(16)
H11 H -0.4530 -0.4764 0.3887
H12 H -0.3198 -0.5785 0.4434
H13 H -0.2375 -0.5061 0.3628
C15 C 0.3170(3) 0.1251(2) 0.81942(14)
C16 C 0.4319(3) -0.0034(2) 0.75698(15)
H14 H 0.5541 0.0491 0.7475
H15 H 0.3602 -0.0434 0.6944
C17 C 0.4750(4) -0.1499(3) 0.79712(18)
H16 H 0.5468 -0.2279 0.7530
H17 H 0.3549 -0.2034 0.8062
H18 H 0.5509 -0.1121 0.8578
loop_
_geom_bond_atom_site_label_1
_geom_bond_atom_site_label_2
_geom_bond_site_symmetry_1
_geom_bond_site_symmetry_2
O1 N1 1_555 1_555
O2 C6 1_555 1_555
O3 C15 1_555 1_555
N1 N2 1_555 1_555
N2 C8 1_555 1_555
C1 N1 1_555 1_555
C2 C1 1_555 1_555
H1 C2 1_555 1_555
C3 C2 1_555 1_555
H2 C3 1_555 1_555
C4 C3 1_555 1_555
C5 C4 1_555 1_555
H3 C5 1_555 1_555
C6 C1 1_555 1_555
C7 C4 1_555 1_555
H4 C7 1_555 1_555
H5 C7 1_555 1_555
H6 C7 1_555 1_555
C8 C9 1_555 1_555
C9 H7 1_555 1_555
C10 C9 1_555 1_555
H8 C10 1_555 1_555
C11 C10 1_555 1_555
C12 C11 1_555 1_555
H9 C12 1_555 1_555
C13 C8 1_555 1_555
H10 C13 1_555 1_555
C14 C11 1_555 1_555
H11 C14 1_555 1_555
H12 C14 1_555 1_555
H13 C14 1_555 1_555
C15 O2 1_555 1_555
C16 C15 1_555 1_555
H14 C16 1_555 1_555
H15 C16 1_555 1_555
C17 C16 1_555 1_555
H16 C17 1_555 1_555
H17 C17 1_555 1_555
H18 C17 1_555 1_555
C5 C6 1_555 1_555
C12 C13 1_555 1_555

#END
