
#######################################################################
#
#                 Cambridge Crystallographic Data Centre
#                                CCDC 
#
#######################################################################
#
# If this CIF has been generated from an entry in the Cambridge 
# Structural Database, then it will include bibliographic, chemical, 
# crystal, experimental, refinement or atomic coordinate data resulting 
# from the CCDC's data processing and validation procedures.
#
#######################################################################

data_VUNQEB
_chemical_formula_moiety         'C60 H58 N4 O2'
_chemical_name_systematic        
5,12-bis(8-(9H-carbazol-9-yl)octyl)-5,12-dihydroquino[2,3-b]acridine-7,14-dione
_symmetry_cell_setting           monoclinic
_symmetry_space_group_name_H-M   'P 21/c'
_symmetry_Int_Tables_number      14
_space_group_name_Hall           '-P 2ybc'
loop_
_symmetry_equiv_pos_site_id
_symmetry_equiv_pos_as_xyz
1 x,y,z
2 -x,1/2+y,1/2-z
3 -x,-y,-z
4 x,1/2-y,1/2+z
_cell_length_a                   16.0949(5)
_cell_length_b                   9.7684(4)
_cell_length_c                   15.7527(5)
_cell_angle_alpha                90
_cell_angle_beta                 111.3740(10)
_cell_angle_gamma                90
_cell_volume                     2306.32
_exptl_crystal_colour            red
_exptl_crystal_description       block
_cell_formula_units_Z            2
loop_
_atom_site_label
_atom_site_type_symbol
_atom_site_fract_x
_atom_site_fract_y
_atom_site_fract_z
C1 C 0.39812(13) 1.2402(3) 0.11757(14)
C2 C 0.36091(14) 1.2922(2) 0.17864(14)
H1 H 0.3557 1.2369 0.2245
C3 C 0.33237(15) 1.4247(3) 0.17020(16)
H2 H 0.3071 1.4582 0.2106
C4 C 0.33980(15) 1.5126(3) 0.10244(15)
H3 H 0.3206 1.6030 0.0984
C5 C 0.37570(13) 1.4617(2) 0.04311(14)
H4 H 0.3819 1.5189 -0.0014
C6 C 0.40339(13) 1.3261(3) 0.04741(14)
C7 C 0.43607(14) 1.2748(2) -0.02134(15)
C8 C 0.46903(12) 1.1338(2) -0.00877(14)
C9 C 0.46496(13) 1.0526(2) 0.06383(13)
C10 C 0.49609(12) 0.9185(2) 0.07060(12)
H5 H 0.4934 0.8629 0.1175
C11 C 0.43339(12) 1.0235(2) 0.20569(11)
H6 H 0.4418 1.0834 0.2573
H7 H 0.4843 0.9625 0.2220
C12 C 0.35019(13) 0.9391(2) 0.18877(12)
H8 H 0.3399 0.8814 0.1358
H9 H 0.2993 0.9996 0.1760
C13 C 0.35850(13) 0.8506(2) 0.27019(13)
H10 H 0.3725 0.9087 0.3235
H11 H 0.4080 0.7879 0.2809
C14 C 0.27547(13) 0.7686(2) 0.25962(13)
H12 H 0.2622 0.7086 0.2073
H13 H 0.2256 0.8309 0.2478
C15 C 0.28482(13) 0.6825(2) 0.34356(13)
H14 H 0.3363 0.6232 0.3567
H15 H 0.2960 0.7431 0.3953
C16 C 0.20327(13) 0.5945(2) 0.33327(13)
H16 H 0.1504 0.6517 0.3136
H17 H 0.1961 0.5258 0.2867
C17 C 0.21183(13) 0.5253(2) 0.42089(14)
H18 H 0.2251 0.5941 0.4684
H19 H 0.2621 0.4628 0.4374
C18 C 0.12996(15) 0.4462(2) 0.41824(14)
H20 H 0.1215 0.3692 0.3771
H21 H 0.1403 0.4100 0.4786
C19 C 0.03054(18) 0.6303(3) 0.44106(17)
C20 C 0.08227(17) 0.6710(3) 0.52878(18)
H22 H 0.1366 0.6295 0.5613
C21 C 0.0489(2) 0.7763(3) 0.5651(2)
H23 H 0.0808 0.8062 0.6241
C22 C -0.0320(2) 0.8386(3) 0.5146(3)
H24 H -0.0523 0.9105 0.5406
C23 C -0.08315(19) 0.7972(3) 0.4274(2)
H25 H -0.1369 0.8403 0.3948
C24 C -0.05187(18) 0.6888(2) 0.38939(18)
C25 C -0.08593(17) 0.6208(3) 0.30415(17)
C26 C -0.16174(19) 0.6334(3) 0.2276(2)
H26 H -0.2048 0.6980 0.2258
C27 C -0.1737(2) 0.5515(4) 0.1544(2)
H27 H -0.2245 0.5613 0.1021
C28 C -0.1100(3) 0.4524(3) 0.1575(2)
H28 H -0.1196 0.3959 0.1073
C29 C -0.03452(19) 0.4366(3) 0.23205(19)
H29 H 0.0076 0.3705 0.2338
C30 C -0.02243(17) 0.5226(3) 0.30566(17)
N1 N 0.43158(10) 1.10767(19) 0.12721(10)
N2 N 0.04855(13) 0.52782(19) 0.38902(14)
O1 O 0.43643(10) 1.34504(15) -0.08582(10)
C1B C 0.60188(13) 0.7598(3) -0.11757(14)
C2B C 0.63909(14) 0.7078(2) -0.17864(14)
H1B H 0.6443 0.7631 -0.2245
C3B C 0.66763(15) 0.5753(3) -0.17020(16)
H2B H 0.6929 0.5418 -0.2106
C4B C 0.66020(15) 0.4874(3) -0.10244(15)
H3B H 0.6794 0.3970 -0.0984
C5B C 0.62430(13) 0.5383(2) -0.04311(14)
H4B H 0.6181 0.4811 0.0014
C6B C 0.59661(13) 0.6739(3) -0.04741(14)
C7B C 0.56393(14) 0.7252(2) 0.02134(15)
C8B C 0.53097(12) 0.8662(2) 0.00877(14)
C9B C 0.53504(13) 0.9474(2) -0.06383(13)
C10B C 0.50391(12) 1.0815(2) -0.07060(12)
H5B H 0.5066 1.1371 -0.1175
C11B C 0.56661(12) 0.9765(2) -0.20569(11)
H6B H 0.5582 0.9166 -0.2573
H7B H 0.5157 1.0375 -0.2220
C12B C 0.64981(13) 1.0609(2) -0.18877(12)
H8B H 0.6601 1.1186 -0.1358
H9B H 0.7007 1.0004 -0.1760
C13B C 0.64150(13) 1.1494(2) -0.27019(13)
H10B H 0.6275 1.0913 -0.3235
H11B H 0.5920 1.2121 -0.2809
C14B C 0.72453(13) 1.2314(2) -0.25962(13)
H12B H 0.7378 1.2914 -0.2073
H13B H 0.7744 1.1691 -0.2478
C15B C 0.71518(13) 1.3175(2) -0.34356(13)
H14B H 0.6637 1.3768 -0.3567
H15B H 0.7040 1.2569 -0.3953
C16B C 0.79673(13) 1.4055(2) -0.33327(13)
H16B H 0.8496 1.3483 -0.3136
H17B H 0.8039 1.4742 -0.2867
C17B C 0.78817(13) 1.4747(2) -0.42089(14)
H18B H 0.7749 1.4059 -0.4684
H19B H 0.7379 1.5372 -0.4374
C18B C 0.87004(15) 1.5538(2) -0.41824(14)
H20B H 0.8785 1.6308 -0.3771
H21B H 0.8597 1.5900 -0.4786
C19B C 0.96946(18) 1.3697(3) -0.44106(17)
C20B C 0.91773(17) 1.3290(3) -0.52878(18)
H22B H 0.8634 1.3705 -0.5613
C21B C 0.9511(2) 1.2237(3) -0.5651(2)
H23B H 0.9192 1.1938 -0.6241
C22B C 1.0320(2) 1.1614(3) -0.5146(3)
H24B H 1.0523 1.0895 -0.5406
C23B C 1.08315(19) 1.2028(3) -0.4274(2)
H25B H 1.1369 1.1597 -0.3948
C24B C 1.05187(18) 1.3112(2) -0.38939(18)
C25B C 1.08593(17) 1.3792(3) -0.30415(17)
C26B C 1.16174(19) 1.3666(3) -0.2276(2)
H26B H 1.2048 1.3020 -0.2258
C27B C 1.1737(2) 1.4485(4) -0.1544(2)
H27B H 1.2245 1.4387 -0.1021
C28B C 1.1100(3) 1.5476(3) -0.1575(2)
H28B H 1.1196 1.6041 -0.1073
C29B C 1.03452(19) 1.5634(3) -0.23205(19)
H29B H 0.9924 1.6295 -0.2338
C30B C 1.02243(17) 1.4774(3) -0.30566(17)
N1B N 0.56842(10) 0.89233(19) -0.12721(10)
N2B N 0.95145(13) 1.47218(19) -0.38902(14)
O1B O 0.56357(10) 0.65496(15) 0.08582(10)
loop_
_geom_bond_atom_site_label_1
_geom_bond_atom_site_label_2
_geom_bond_site_symmetry_1
_geom_bond_site_symmetry_2
C1 C2 1_555 1_555
C2 H1 1_555 1_555
C3 C2 1_555 1_555
H2 C3 1_555 1_555
C4 C3 1_555 1_555
H3 C4 1_555 1_555
C5 C4 1_555 1_555
H4 C5 1_555 1_555
C6 C1 1_555 1_555
C7 C6 1_555 1_555
C8 C7 1_555 1_555
C9 C8 1_555 1_555
C10 C9 1_555 1_555
H5 C10 1_555 1_555
C11 H6 1_555 1_555
H7 C11 1_555 1_555
C12 C11 1_555 1_555
H8 C12 1_555 1_555
H9 C12 1_555 1_555
C13 C12 1_555 1_555
H10 C13 1_555 1_555
H11 C13 1_555 1_555
C14 C13 1_555 1_555
H12 C14 1_555 1_555
H13 C14 1_555 1_555
C15 C14 1_555 1_555
H14 C15 1_555 1_555
H15 C15 1_555 1_555
C16 C15 1_555 1_555
H16 C16 1_555 1_555
H17 C16 1_555 1_555
C17 C16 1_555 1_555
H18 C17 1_555 1_555
H19 C17 1_555 1_555
C18 C17 1_555 1_555
H20 C18 1_555 1_555
H21 C18 1_555 1_555
C19 C20 1_555 1_555
C20 H22 1_555 1_555
C21 C20 1_555 1_555
H23 C21 1_555 1_555
C22 C21 1_555 1_555
H24 C22 1_555 1_555
C23 C22 1_555 1_555
H25 C23 1_555 1_555
C24 C19 1_555 1_555
C25 C24 1_555 1_555
C26 C25 1_555 1_555
H26 C26 1_555 1_555
C27 C26 1_555 1_555
H27 C27 1_555 1_555
C28 C27 1_555 1_555
H28 C28 1_555 1_555
C29 C28 1_555 1_555
H29 C29 1_555 1_555
C30 C25 1_555 1_555
N1 C1 1_555 1_555
N2 C18 1_555 1_555
O1 C7 1_555 1_555
C1B C2B 1_555 1_555
C2B H1B 1_555 1_555
C3B C2B 1_555 1_555
H2B C3B 1_555 1_555
C4B C3B 1_555 1_555
H3B C4B 1_555 1_555
C5B C4B 1_555 1_555
H4B C5B 1_555 1_555
C6B C1B 1_555 1_555
C7B C6B 1_555 1_555
C8B C10 1_555 1_555
C9B C8B 1_555 1_555
C10B C8 1_555 1_555
H5B C10B 1_555 1_555
C11B H6B 1_555 1_555
H7B C11B 1_555 1_555
C12B C11B 1_555 1_555
H8B C12B 1_555 1_555
H9B C12B 1_555 1_555
C13B C12B 1_555 1_555
H10B C13B 1_555 1_555
H11B C13B 1_555 1_555
C14B C13B 1_555 1_555
H12B C14B 1_555 1_555
H13B C14B 1_555 1_555
C15B C14B 1_555 1_555
H14B C15B 1_555 1_555
H15B C15B 1_555 1_555
C16B C15B 1_555 1_555
H16B C16B 1_555 1_555
H17B C16B 1_555 1_555
C17B C16B 1_555 1_555
H18B C17B 1_555 1_555
H19B C17B 1_555 1_555
C18B C17B 1_555 1_555
H20B C18B 1_555 1_555
H21B C18B 1_555 1_555
C19B C20B 1_555 1_555
C20B H22B 1_555 1_555
C21B C20B 1_555 1_555
H23B C21B 1_555 1_555
C22B C21B 1_555 1_555
H24B C22B 1_555 1_555
C23B C22B 1_555 1_555
H25B C23B 1_555 1_555
C24B C19B 1_555 1_555
C25B C24B 1_555 1_555
C26B C25B 1_555 1_555
H26B C26B 1_555 1_555
C27B C26B 1_555 1_555
H27B C27B 1_555 1_555
C28B C27B 1_555 1_555
H28B C28B 1_555 1_555
C29B C28B 1_555 1_555
H29B C29B 1_555 1_555
C30B C25B 1_555 1_555
N1B C1B 1_555 1_555
N2B C18B 1_555 1_555
O1B C7B 1_555 1_555
C5 C6 1_555 1_555
C9 N1 1_555 1_555
C11 N1 1_555 1_555
C19 N2 1_555 1_555
C23 C24 1_555 1_555
C29 C30 1_555 1_555
C30 N2 1_555 1_555
C5B C6B 1_555 1_555
C7B C8B 1_555 1_555
C9B C10B 1_555 1_555
C9B N1B 1_555 1_555
C11B N1B 1_555 1_555
C19B N2B 1_555 1_555
C23B C24B 1_555 1_555
C29B C30B 1_555 1_555
C30B N2B 1_555 1_555

#END
