
#######################################################################
#
#                 Cambridge Crystallographic Data Centre
#                                CCDC 
#
#######################################################################
#
# If this CIF has been generated from an entry in the Cambridge 
# Structural Database, then it will include bibliographic, chemical, 
# crystal, experimental, refinement or atomic coordinate data resulting 
# from the CCDC's data processing and validation procedures.
#
#######################################################################

data_VUNSAZ03
_chemical_formula_moiety         'C2 H6 N5 1+,H2 O4 P1 1-'
_chemical_name_systematic        
'3,5-diamino-4H-1,2,4-triazol-1-ium dihydrogen phosphate'
_symmetry_cell_setting           orthorhombic
_symmetry_space_group_name_H-M   'F d d 2'
_symmetry_Int_Tables_number      43
_space_group_name_Hall           'F 2 -2d'
loop_
_symmetry_equiv_pos_site_id
_symmetry_equiv_pos_as_xyz
1 x,y,z
2 -x,-y,z
3 1/4-x,1/4+y,1/4+z
4 3/4+x,3/4-y,1/4+z
5 x,1/2+y,1/2+z
6 -x,1/2-y,1/2+z
7 1/4-x,3/4+y,3/4+z
8 3/4+x,1/4-y,3/4+z
9 1/2+x,y,1/2+z
10 1/2-x,-y,1/2+z
11 3/4-x,1/4+y,3/4+z
12 1/4+x,3/4-y,3/4+z
13 1/2+x,1/2+y,z
14 1/2-x,1/2-y,z
15 3/4-x,3/4+y,1/4+z
16 1/4+x,1/4-y,1/4+z
_cell_length_a                   13.481(3)
_cell_length_b                   36.938(8)
_cell_length_c                   6.0738(12)
_cell_angle_alpha                90
_cell_angle_beta                 90
_cell_angle_gamma                90
_cell_volume                     3024.52
_cell_formula_units_Z            16
loop_
_atom_site_label
_atom_site_type_symbol
_atom_site_fract_x
_atom_site_fract_y
_atom_site_fract_z
O1 O 0.69521(17) 0.79578(6) 0.9006(4)
P1 P 0.60869(6) 0.77061(2) 0.93646(14)
O2 O 0.51381(19) 0.78246(6) 0.8333(4)
O3 O 0.6304(2) 0.73180(6) 0.8438(5)
H1 H 0.6824 0.7242 0.8965
O4 O 0.5996(2) 0.76706(7) 1.1914(5)
H2 H 0.5596 0.7511 1.2214
N1 N 0.7300(3) 0.81537(8) 0.4453(6)
H3 H 0.7379 0.8110 0.5833
H4 H 0.7254 0.7977 0.3535
N2 N 0.7151(2) 0.85726(7) 0.1534(5)
H5 H 0.7100 0.8418 0.0480
N3 N 0.7073(3) 0.91155(8) -0.0534(6)
H6 H 0.7077 0.9348 -0.0532
H7 H 0.7018 0.8999 -0.1755
N4 N 0.7240(3) 0.90645(8) 0.3351(5)
H8 H 0.7257 0.9291 0.3666
N5 N 0.7305(3) 0.87868(9) 0.4913(5)
C1 C 0.7248(3) 0.84965(9) 0.3731(6)
C2 C 0.7152(3) 0.89355(9) 0.1346(6)
loop_
_geom_bond_atom_site_label_1
_geom_bond_atom_site_label_2
_geom_bond_site_symmetry_1
_geom_bond_site_symmetry_2
O1 P1 1_555 1_555
P1 O2 1_555 1_555
O3 P1 1_555 1_555
H1 O3 1_555 1_555
O4 P1 1_555 1_555
H2 O4 1_555 1_555
N1 H3 1_555 1_555
H4 N1 1_555 1_555
N2 H5 1_555 1_555
N3 H6 1_555 1_555
H7 N3 1_555 1_555
N4 H8 1_555 1_555
N5 N4 1_555 1_555
C1 N1 1_555 1_555
C2 N2 1_555 1_555
N2 C1 1_555 1_555
N3 C2 1_555 1_555
N4 C2 1_555 1_555
N5 C1 1_555 1_555

#END
