
#######################################################################
#
#                 Cambridge Crystallographic Data Centre
#                                CCDC 
#
#######################################################################
#
# If this CIF has been generated from an entry in the Cambridge 
# Structural Database, then it will include bibliographic, chemical, 
# crystal, experimental, refinement or atomic coordinate data resulting 
# from the CCDC's data processing and validation procedures.
#
#######################################################################

data_VUNSII
_chemical_formula_moiety         'C14 H14 N2 O3'
_chemical_name_systematic        1,3-dimethoxy-2-(phenyl-NNO-azoxy)benzene
_symmetry_cell_setting           monoclinic
_symmetry_space_group_name_H-M   'P 2/c'
_symmetry_Int_Tables_number      13
_space_group_name_Hall           '-P 2yc'
loop_
_symmetry_equiv_pos_site_id
_symmetry_equiv_pos_as_xyz
1 x,y,z
2 -x,y,1/2-z
3 -x,-y,-z
4 x,-y,1/2+z
_cell_length_a                   12.8276(3)
_cell_length_b                   8.4882(2)
_cell_length_c                   24.8068(7)
_cell_angle_alpha                90
_cell_angle_beta                 91.044(2)
_cell_angle_gamma                90
_cell_volume                     2700.6
_cell_formula_units_Z            8
loop_
_atom_site_label
_atom_site_type_symbol
_atom_site_fract_x
_atom_site_fract_y
_atom_site_fract_z
O1 O 0.90201(11) 0.37593(16) 0.62853(6)
O2 O 0.84975(13) 0.44343(19) 0.74621(6)
O3 O 0.65276(11) 0.3794(2) 0.58977(6)
N1 N 0.80212(11) 0.16777(17) 0.65335(6)
N2 N 0.82307(11) 0.31256(17) 0.64863(6)
C1 C 0.84849(16) -0.0977(2) 0.64982(8)
H1 H 0.7912 -0.1145 0.6715
C2 C 0.9092(2) -0.2243(2) 0.63466(10)
H2 H 0.8933 -0.3249 0.6468
C3 C 0.99223(17) -0.2024(3) 0.60196(10)
H3 H 1.0337 -0.2874 0.5923
C4 C 1.01425(17) -0.0536(3) 0.58336(10)
H4 H 1.0696 -0.0395 0.5601
C5 C 0.95573(16) 0.0757(2) 0.59847(9)
H5 H 0.9718 0.1757 0.5858
C6 C 0.87194(13) 0.0538(2) 0.63314(7)
C7 C 0.74495(14) 0.4206(2) 0.66967(8)
C8 C 0.76272(16) 0.4922(3) 0.71903(8)
C9 C 0.6930(2) 0.6058(3) 0.73639(11)
H6 H 0.7029 0.6558 0.7695
C10 C 0.6089(2) 0.6428(3) 0.70347(13)
H7 H 0.5627 0.7199 0.7148
C11 C 0.59042(18) 0.5712(3) 0.65480(12)
H8 H 0.5322 0.5983 0.6339
C12 C 0.65946(14) 0.4580(2) 0.63710(9)
C13 C 0.8838(2) 0.5317(4) 0.79221(11)
H9 H 0.8984 0.6381 0.7816
H10 H 0.9458 0.4847 0.8073
H11 H 0.8300 0.5317 0.8186
C14 C 0.56824(19) 0.4155(4) 0.55360(12)
H12 H 0.5725 0.3501 0.5221
H13 H 0.5721 0.5243 0.5432
H14 H 0.5034 0.3964 0.5711
O4 O 0.73461(11) 0.12596(16) 0.45453(6)
O5 O 0.48954(12) 0.1315(2) 0.43700(8)
O6 O 0.77704(15) 0.0528(2) 0.33001(6)
N3 N 0.68597(12) 0.33340(18) 0.40146(6)
N4 N 0.68805(11) 0.18983(18) 0.41514(6)
C15 C 0.73060(17) 0.5976(2) 0.41172(9)
H15 H 0.6902 0.6137 0.3807
C16 C 0.7785(2) 0.7236(3) 0.43638(10)
H16 H 0.7707 0.8241 0.4219
C17 C 0.8376(2) 0.7019(3) 0.48217(10)
H17 H 0.8698 0.7874 0.4989
C18 C 0.84912(18) 0.5544(3) 0.50328(9)
H18 H 0.8894 0.5406 0.5345
C19 C 0.80234(15) 0.4251(2) 0.47928(8)
H19 H 0.8111 0.3252 0.4941
C20 C 0.74165(13) 0.4462(2) 0.43241(7)
C21 C 0.62758(16) 0.0837(2) 0.38069(8)
C22 C 0.52607(19) 0.0511(3) 0.39421(11)
C23 C 0.4715(2) -0.0613(4) 0.36330(14)
H20 H 0.4027 -0.0858 0.3708
C24 C 0.5217(4) -0.1347(4) 0.32163(15)
H21 H 0.4854 -0.2100 0.3016
C25 C 0.6220(3) -0.1023(3) 0.30833(11)
H22 H 0.6529 -0.1542 0.2797
C26 C 0.6775(2) 0.0096(3) 0.33820(9)
C27 C 0.3865(2) 0.0963(5) 0.45530(16)
H23 H 0.3367 0.1175 0.4269
H24 H 0.3713 0.1607 0.4860
H25 H 0.3827 -0.0128 0.4652
C28 C 0.8394(3) -0.0402(4) 0.29471(12)
H26 H 0.8073 -0.0425 0.2595
H27 H 0.8449 -0.1456 0.3085
H28 H 0.9077 0.0053 0.2925
loop_
_geom_bond_atom_site_label_1
_geom_bond_atom_site_label_2
_geom_bond_site_symmetry_1
_geom_bond_site_symmetry_2
O1 N2 1_555 1_555
O2 C8 1_555 1_555
O3 C12 1_555 1_555
N1 N2 1_555 1_555
N2 C7 1_555 1_555
C1 H1 1_555 1_555
C2 C1 1_555 1_555
H2 C2 1_555 1_555
C3 C2 1_555 1_555
H3 C3 1_555 1_555
C4 C3 1_555 1_555
H4 C4 1_555 1_555
C5 C4 1_555 1_555
H5 C5 1_555 1_555
C6 N1 1_555 1_555
C7 C8 1_555 1_555
C8 C9 1_555 1_555
C9 H6 1_555 1_555
C10 C9 1_555 1_555
H7 C10 1_555 1_555
C11 C10 1_555 1_555
H8 C11 1_555 1_555
C12 C7 1_555 1_555
C13 O2 1_555 1_555
H9 C13 1_555 1_555
H10 C13 1_555 1_555
H11 C13 1_555 1_555
C14 O3 1_555 1_555
H12 C14 1_555 1_555
H13 C14 1_555 1_555
H14 C14 1_555 1_555
O4 N4 1_555 1_555
O5 C22 1_555 1_555
O6 C26 1_555 1_555
N3 N4 1_555 1_555
N4 C21 1_555 1_555
C15 H15 1_555 1_555
C16 C15 1_555 1_555
H16 C16 1_555 1_555
C17 C16 1_555 1_555
H17 C17 1_555 1_555
C18 C17 1_555 1_555
H18 C18 1_555 1_555
C19 C18 1_555 1_555
H19 C19 1_555 1_555
C20 N3 1_555 1_555
C21 C22 1_555 1_555
C22 C23 1_555 1_555
C23 H20 1_555 1_555
C24 C23 1_555 1_555
H21 C24 1_555 1_555
C25 C24 1_555 1_555
H22 C25 1_555 1_555
C26 C21 1_555 1_555
C27 O5 1_555 1_555
H23 C27 1_555 1_555
H24 C27 1_555 1_555
H25 C27 1_555 1_555
C28 O6 1_555 1_555
H26 C28 1_555 1_555
H27 C28 1_555 1_555
H28 C28 1_555 1_555
C1 C6 1_555 1_555
C5 C6 1_555 1_555
C11 C12 1_555 1_555
C15 C20 1_555 1_555
C19 C20 1_555 1_555
C25 C26 1_555 1_555

#END
