
#######################################################################
#
#                 Cambridge Crystallographic Data Centre
#                                CCDC 
#
#######################################################################
#
# If this CIF has been generated from an entry in the Cambridge 
# Structural Database, then it will include bibliographic, chemical, 
# crystal, experimental, refinement or atomic coordinate data resulting 
# from the CCDC's data processing and validation procedures.
#
#######################################################################

data_VUNSII01
_chemical_formula_moiety         'C14 H14 N2 O3'
_chemical_name_systematic        1-(2,6-dimethoxyphenyl)-1-oxy-2-phenyldiazene
_symmetry_cell_setting           monoclinic
_symmetry_space_group_name_H-M   'P 2/c'
_symmetry_Int_Tables_number      13
_space_group_name_Hall           '-P 2yc'
loop_
_symmetry_equiv_pos_site_id
_symmetry_equiv_pos_as_xyz
1 x,y,z
2 -x,y,1/2-z
3 -x,-y,-z
4 x,-y,1/2+z
_cell_length_a                   12.820(6)
_cell_length_b                   8.495(4)
_cell_length_c                   24.864(11)
_cell_angle_alpha                90
_cell_angle_beta                 90.948(9)
_cell_angle_gamma                90
_cell_volume                     2707.47
_exptl_crystal_colour            colorless
_exptl_crystal_description       block
_cell_formula_units_Z            8
loop_
_atom_site_label
_atom_site_type_symbol
_atom_site_fract_x
_atom_site_fract_y
_atom_site_fract_z
C1 C 0.2543(2) 0.9189(4) 0.33083(13)
C2 C 0.3402(3) 0.9588(4) 0.36280(13)
C3 C 0.4100(2) 1.0726(5) 0.34543(18)
H1 H 0.4675 1.0993 0.3668
C4 C 0.3938(3) 1.1464(4) 0.29611(19)
H2 H 0.4404 1.2224 0.2845
C5 C 0.3078(3) 1.1064(4) 0.26414(14)
H3 H 0.2970 1.1558 0.2311
C6 C 0.2381(3) 0.9927(4) 0.28150(13)
C7 C 0.0923(3) 0.2758(3) 0.36495(16)
H4 H 0.1080 0.1752 0.3526
C8 C 0.1522(2) 0.4035(4) 0.34909(14)
H5 H 0.2080 0.3884 0.3262
C9 C 0.1288(2) 0.5537(3) 0.36747(14)
C10 C 0.0455(3) 0.5762(3) 0.40171(15)
H6 H 0.0299 0.6767 0.4140
C11 C -0.0144(2) 0.4485(4) 0.41757(15)
H7 H -0.0701 0.4636 0.4405
C12 C 0.0090(3) 0.2983(3) 0.39919(16)
H8 H -0.0311 0.2128 0.4098
O1 O 0.0984(3) 0.8766(4) 0.37149(17)
O2 O 0.1501(3) 0.9446(5) 0.25397(16)
O3 O 0.3473(3) 0.8795(5) 0.41033(16)
N1 N 0.1986(3) 0.6680(5) 0.34677(16)
N2 N 0.1773(3) 0.8131(5) 0.35141(16)
C13 C 0.4307(5) 0.9185(11) 0.4458(3)
H9 H 0.4949 0.9185 0.4265
H10 H 0.4346 0.8425 0.4743
H11 H 0.4190 1.0212 0.4607
C14 C 0.1182(7) 1.0336(10) 0.2083(3)
H12 H 0.1098 1.1419 0.2184
H13 H 0.0530 0.9935 0.1945
H14 H 0.1701 1.0257 0.1810
C15 C 0.3230(3) 0.4908(5) 0.16200(15)
C16 C 0.3777(5) 0.6026(5) 0.19199(15)
H15 H 0.3457 0.6532 0.2205
C17 C 0.4801(4) 0.6388(5) 0.1794(2)
H16 H 0.5167 0.7136 0.1994
C18 C 0.5279(3) 0.5632(6) 0.1367(2)
H17 H 0.5964 0.5874 0.1283
C19 C 0.4732(3) 0.4514(5) 0.10673(17)
C20 C 0.3707(3) 0.4152(4) 0.11937(15)
C21 C 0.2578(3) 0.0533(3) 0.06728(12)
C22 C 0.2696(3) -0.0967(4) 0.08884(12)
H18 H 0.3097 -0.1115 0.1200
C23 C 0.2217(4) -0.2246(3) 0.06388(16)
H19 H 0.2296 -0.3250 0.0783
C24 C 0.1618(3) -0.2026(3) 0.01735(15)
H20 H 0.1298 -0.2882 0.0007
C25 C 0.1500(3) -0.0525(4) -0.00421(12)
H21 H 0.1100 -0.0378 -0.0353
C26 C 0.1980(3) 0.0754(3) 0.02075(13)
H22 H 0.1900 0.1758 0.0063
O4 O 0.2648(3) 0.3744(4) 0.04546(14)
O5 O 0.5100(3) 0.3708(6) 0.0640(2)
O6 O 0.2226(4) 0.4480(5) 0.16980(16)
N3 N 0.3137(3) 0.1675(5) 0.09840(16)
N4 N 0.3110(3) 0.3114(5) 0.08497(16)
C27 C 0.6135(6) 0.4045(14) 0.0463(4)
H23 H 0.6159 0.5094 0.0320
H24 H 0.6325 0.3307 0.0189
H25 H 0.6615 0.3959 0.0762
C28 C 0.1610(8) 0.5417(11) 0.2058(3)
H26 H 0.1571 0.6478 0.1927
H27 H 0.1930 0.5411 0.2410
H28 H 0.0920 0.4984 0.2077
loop_
_geom_bond_atom_site_label_1
_geom_bond_atom_site_label_2
_geom_bond_site_symmetry_1
_geom_bond_site_symmetry_2
C1 C2 1_555 1_555
C2 C3 1_555 1_555
C3 H1 1_555 1_555
C4 C3 1_555 1_555
H2 C4 1_555 1_555
C5 C4 1_555 1_555
H3 C5 1_555 1_555
C6 C1 1_555 1_555
C7 H4 1_555 1_555
C8 C7 1_555 1_555
H5 C8 1_555 1_555
C9 C8 1_555 1_555
C10 C9 1_555 1_555
H6 C10 1_555 1_555
C11 C10 1_555 1_555
H7 C11 1_555 1_555
C12 C7 1_555 1_555
H8 C12 1_555 1_555
O1 N2 1_555 1_555
O2 C6 1_555 1_555
O3 C2 1_555 1_555
N1 C9 1_555 1_555
N2 C1 1_555 1_555
C13 O3 1_555 1_555
H9 C13 1_555 1_555
H10 C13 1_555 1_555
H11 C13 1_555 1_555
C14 O2 1_555 1_555
H12 C14 1_555 1_555
H13 C14 1_555 1_555
H14 C14 1_555 1_555
C15 C16 1_555 1_555
C16 H15 1_555 1_555
C17 C16 1_555 1_555
H16 C17 1_555 1_555
C18 C17 1_555 1_555
H17 C18 1_555 1_555
C19 C18 1_555 1_555
C20 C15 1_555 1_555
C21 C22 1_555 1_555
C22 H18 1_555 1_555
C23 C22 1_555 1_555
H19 C23 1_555 1_555
C24 C23 1_555 1_555
H20 C24 1_555 1_555
C25 C24 1_555 1_555
H21 C25 1_555 1_555
C26 C21 1_555 1_555
H22 C26 1_555 1_555
O4 N4 1_555 1_555
O5 C19 1_555 1_555
O6 C15 1_555 1_555
N3 C21 1_555 1_555
N4 C20 1_555 1_555
C27 O5 1_555 1_555
H23 C27 1_555 1_555
H24 C27 1_555 1_555
H25 C27 1_555 1_555
C28 O6 1_555 1_555
H26 C28 1_555 1_555
H27 C28 1_555 1_555
H28 C28 1_555 1_555
C5 C6 1_555 1_555
C11 C12 1_555 1_555
N1 N2 1_555 1_555
C19 C20 1_555 1_555
C25 C26 1_555 1_555
N3 N4 1_555 1_555

#END
