
#######################################################################
#
#                 Cambridge Crystallographic Data Centre
#                                CCDC 
#
#######################################################################
#
# If this CIF has been generated from an entry in the Cambridge 
# Structural Database, then it will include bibliographic, chemical, 
# crystal, experimental, refinement or atomic coordinate data resulting 
# from the CCDC's data processing and validation procedures.
#
#######################################################################

data_VUNVEG
_chemical_formula_moiety         'C28 H22 O1'
_chemical_name_systematic        
4'-(2-(4-Methylphenyl)-1-phenylvinyl)biphenyl-4-carbaldehyde
_symmetry_cell_setting           monoclinic
_symmetry_space_group_name_H-M   'P 21/c'
_symmetry_Int_Tables_number      14
_space_group_name_Hall           '-P 2ybc'
loop_
_symmetry_equiv_pos_site_id
_symmetry_equiv_pos_as_xyz
1 x,y,z
2 -x,1/2+y,1/2-z
3 -x,-y,-z
4 x,1/2-y,1/2+z
_cell_length_a                   11.6838(16)
_cell_length_b                   15.626(2)
_cell_length_c                   11.3251(16)
_cell_angle_alpha                90
_cell_angle_beta                 92.662(6)
_cell_angle_gamma                90
_cell_volume                     2065.4
_exptl_crystal_colour            white
_exptl_crystal_description       rectangle
_cell_formula_units_Z            4
loop_
_atom_site_label
_atom_site_type_symbol
_atom_site_fract_x
_atom_site_fract_y
_atom_site_fract_z
C1 C 0.7938(2) 1.01014(17) 0.5575(2)
C2 C 0.8434(2) 0.95166(18) 0.6317(2)
H1 H 0.8513 0.9675 0.7108
C3 C 0.6634(3) 0.91080(19) 0.2782(2)
H2 H 0.6155 0.8652 0.2575
C4 C 0.6699(2) 0.94996(19) 0.0633(2)
C5 C 0.6573(3) 0.8665(2) 0.0177(3)
H3 H 0.6692 0.8197 0.0674
C6 C 0.8861(2) 0.86618(17) 0.6025(2)
C7 C 0.8047(3) 1.04508(19) 0.3421(2)
H4 H 0.8520 1.0911 0.3628
C8 C 0.7029(2) 0.96378(17) 0.1897(2)
C9 C 0.6938(3) 0.92463(18) 0.3958(2)
H5 H 0.6660 0.8883 0.4528
C10 C 0.9424(3) 0.84822(19) 0.4993(3)
H6 H 0.9553 0.8921 0.4460
C11 C 0.6514(3) 1.0184(2) -0.0139(2)
H7 H 0.6610 1.0741 0.0138
C12 C 0.7755(3) 1.03105(19) 0.2258(2)
H8 H 0.8044 1.0671 0.1691
C13 C 0.7659(2) 0.99262(17) 0.4305(2)
C14 C 0.8730(3) 0.79898(19) 0.6812(3)
H9 H 0.8396 0.8096 0.7527
C15 C 0.6073(3) 0.9221(2) -0.1752(2)
C16 C 0.7561(2) 1.09390(18) 0.6041(2)
C17 C 0.9594(3) 0.69894(19) 0.5519(3)
C18 C 0.8104(3) 1.1318(2) 0.7024(3)
H10 H 0.8756 1.1066 0.7374
C19 C 0.9793(3) 0.7664(2) 0.4751(3)
H11 H 1.0180 0.7562 0.4066
C20 C 0.6190(3) 1.0047(2) -0.1309(3)
H12 H 0.6048 1.0512 -0.1807
C21 C 0.9083(3) 0.71682(19) 0.6559(3)
H13 H 0.8973 0.6731 0.7100
C22 C 0.6277(3) 0.8539(2) -0.0993(3)
H14 H 0.6211 0.7984 -0.1284
O1 O 0.5637(3) 0.8378(2) -0.3470(2)
C23 C 0.5732(3) 0.9079(3) -0.3004(3)
H15 H 0.5578 0.9558 -0.3472
C24 C 0.7678(4) 1.2075(2) 0.7490(3)
H16 H 0.8034 1.2315 0.8163
C25 C 0.9927(4) 0.6085(2) 0.5209(4)
H17 H 0.9608 0.5944 0.4437
H18 H 0.9639 0.5696 0.5780
H19 H 1.0747 0.6041 0.5212
C26 C 0.6620(3) 1.1361(2) 0.5517(3)
H20 H 0.6252 1.1130 0.4844
C27 C 0.6741(4) 1.2465(3) 0.6960(4)
H21 H 0.6457 1.2969 0.7271
C28 C 0.6226(4) 1.2111(3) 0.5974(4)
H22 H 0.5597 1.2382 0.5606
loop_
_geom_bond_atom_site_label_1
_geom_bond_atom_site_label_2
_geom_bond_site_symmetry_1
_geom_bond_site_symmetry_2
C1 C2 1_555 1_555
C2 H1 1_555 1_555
C3 H2 1_555 1_555
C4 C5 1_555 1_555
C5 H3 1_555 1_555
C6 C2 1_555 1_555
C7 H4 1_555 1_555
C8 C3 1_555 1_555
C9 C3 1_555 1_555
H5 C9 1_555 1_555
C10 C6 1_555 1_555
H6 C10 1_555 1_555
C11 C4 1_555 1_555
H7 C11 1_555 1_555
C12 C7 1_555 1_555
H8 C12 1_555 1_555
C13 C1 1_555 1_555
C14 C6 1_555 1_555
H9 C14 1_555 1_555
C15 C20 1_555 1_555
C16 C1 1_555 1_555
C17 C19 1_555 1_555
C18 C16 1_555 1_555
H10 C18 1_555 1_555
C19 C10 1_555 1_555
H11 C19 1_555 1_555
C20 C11 1_555 1_555
H12 C20 1_555 1_555
C21 C14 1_555 1_555
H13 C21 1_555 1_555
C22 C5 1_555 1_555
H14 C22 1_555 1_555
O1 C23 1_555 1_555
C23 C15 1_555 1_555
H15 C23 1_555 1_555
C24 C18 1_555 1_555
H16 C24 1_555 1_555
C25 C17 1_555 1_555
H17 C25 1_555 1_555
H18 C25 1_555 1_555
H19 C25 1_555 1_555
C26 C16 1_555 1_555
H20 C26 1_555 1_555
C27 C24 1_555 1_555
H21 C27 1_555 1_555
C28 C26 1_555 1_555
H22 C28 1_555 1_555
C4 C8 1_555 1_555
C7 C13 1_555 1_555
C8 C12 1_555 1_555
C9 C13 1_555 1_555
C15 C22 1_555 1_555
C17 C21 1_555 1_555
C27 C28 1_555 1_555

#END
