
#######################################################################
#
#                 Cambridge Crystallographic Data Centre
#                                CCDC 
#
#######################################################################
#
# If this CIF has been generated from an entry in the Cambridge 
# Structural Database, then it will include bibliographic, chemical, 
# crystal, experimental, refinement or atomic coordinate data resulting 
# from the CCDC's data processing and validation procedures.
#
#######################################################################

data_VUPROO
_chemical_formula_moiety         'C4 H11 N1,C1 H1 Cl3'
_chemical_name_systematic        'diethylamine chloroform'
_symmetry_cell_setting           orthorhombic
_symmetry_space_group_name_H-M   'P 21 21 21'
_symmetry_Int_Tables_number      19
_space_group_name_Hall           'P 2ac 2ab'
loop_
_symmetry_equiv_pos_site_id
_symmetry_equiv_pos_as_xyz
1 x,y,z
2 1/2-x,-y,1/2+z
3 1/2+x,1/2-y,-z
4 -x,1/2+y,1/2-z
_cell_length_a                   7.1434(9)
_cell_length_b                   10.4147(15)
_cell_length_c                   13.2477(18)
_cell_angle_alpha                90
_cell_angle_beta                 90
_cell_angle_gamma                90
_cell_volume                     985.581
_exptl_crystal_colour            colorless
_exptl_crystal_description       cylinder
_chemical_melting_point          '174 K'
_cell_formula_units_Z            4
loop_
_atom_site_label
_atom_site_type_symbol
_atom_site_fract_x
_atom_site_fract_y
_atom_site_fract_z
Cl1 Cl 0.50098(16) 0.34170(7) 0.45940(5)
Cl2 Cl 0.53171(13) 0.24727(7) 0.66210(5)
Cl3 Cl 0.47735(15) 0.51850(7) 0.62741(8)
C5 C 0.5818(4) 0.3775(2) 0.58109(18)
H12 H 0.710(5) 0.393(3) 0.577(2)
N1 N 0.9787(3) 0.50326(16) 0.60076(13)
C1 C 0.9795(5) 0.6243(2) 0.54486(17)
C2 C 0.9733(7) 0.6001(3) 0.4319(2)
C3 C 0.9973(5) 0.5225(2) 0.71013(16)
C4 C 1.0170(5) 0.3947(2) 0.76402(18)
H1 H 1.069(5) 0.461(3) 0.584(2)
H2 H 0.867(5) 0.676(3) 0.560(3)
H3 H 1.107(5) 0.671(3) 0.565(2)
H4 H 1.077(6) 0.559(4) 0.408(3)
H5 H 0.874(6) 0.540(4) 0.419(3)
H6 H 0.983(5) 0.679(3) 0.394(2)
H7 H 0.880(5) 0.571(3) 0.735(3)
H8 H 1.109(5) 0.581(3) 0.718(2)
H9 H 1.133(6) 0.343(4) 0.737(3)
H10 H 0.900(5) 0.336(3) 0.748(2)
H11 H 1.031(5) 0.407(3) 0.832(3)
loop_
_geom_bond_atom_site_label_1
_geom_bond_atom_site_label_2
_geom_bond_site_symmetry_1
_geom_bond_site_symmetry_2
Cl1 C5 1_555 1_555
Cl2 C5 1_555 1_555
Cl3 C5 1_555 1_555
N1 C1 1_555 1_555
C1 C2 1_555 1_555
C2 H4 1_555 1_555
C3 N1 1_555 1_555
C4 C3 1_555 1_555
C5 H12 1_555 1_555
H1 N1 1_555 1_555
H2 C1 1_555 1_555
H3 C1 1_555 1_555
H5 C2 1_555 1_555
H6 C2 1_555 1_555
H7 C3 1_555 1_555
H8 C3 1_555 1_555
H9 C4 1_555 1_555
H10 C4 1_555 1_555
H11 C4 1_555 1_555

#END
