
#######################################################################
#
#                 Cambridge Crystallographic Data Centre
#                                CCDC 
#
#######################################################################
#
# If this CIF has been generated from an entry in the Cambridge 
# Structural Database, then it will include bibliographic, chemical, 
# crystal, experimental, refinement or atomic coordinate data resulting 
# from the CCDC's data processing and validation procedures.
#
#######################################################################

data_VUPRAA
_chemical_formula_moiety         'C5 H8 O1,C1 H1 Cl3'
_chemical_name_systematic        'cyclopentanone chloroform'
_symmetry_cell_setting           monoclinic
_symmetry_space_group_name_H-M   'P 21/n'
_symmetry_Int_Tables_number      14
_space_group_name_Hall           '-P 2yn'
loop_
_symmetry_equiv_pos_site_id
_symmetry_equiv_pos_as_xyz
1 x,y,z
2 1/2-x,1/2+y,1/2-z
3 -x,-y,-z
4 1/2+x,1/2-y,1/2+z
_cell_length_a                   9.9104(13)
_cell_length_b                   9.6599(14)
_cell_length_c                   10.1505(15)
_cell_angle_alpha                90
_cell_angle_beta                 106.05(2)
_cell_angle_gamma                90
_cell_volume                     933.865
_exptl_crystal_colour            'light colorless'
_exptl_crystal_description       cylinder
_chemical_melting_point          '178-180 K'
_cell_formula_units_Z            4
loop_
_atom_site_label
_atom_site_type_symbol
_atom_site_fract_x
_atom_site_fract_y
_atom_site_fract_z
Cl1 Cl 0.67538(7) 0.29322(5) 0.42381(5)
Cl2 Cl 0.76874(8) 0.44151(7) 0.67732(7)
Cl3 Cl 0.88174(8) 0.17067(7) 0.64793(8)
C1 C 0.8182(2) 0.32712(19) 0.56502(19)
H1 H 0.889(2) 0.368(2) 0.539(2)
O1 O 0.86118(16) 0.60257(15) 0.40412(18)
C2 C 0.7649(2) 0.68384(19) 0.3903(2)
C3 C 0.7759(3) 0.8274(3) 0.4505(3)
C4 C 0.6252(3) 0.8746(3) 0.4285(3)
C5 C 0.5443(3) 0.7999(2) 0.2993(3)
C6 C 0.6159(3) 0.6596(2) 0.3101(3)
H2 H 0.824(4) 0.826(3) 0.543(4)
H3 H 0.824(3) 0.882(3) 0.398(3)
H4 H 0.596(4) 0.835(4) 0.517(4)
H5 H 0.616(3) 0.973(4) 0.426(3)
H6 H 0.436(4) 0.798(3) 0.293(3)
H7 H 0.556(3) 0.851(3) 0.222(3)
H8 H 0.573(3) 0.593(3) 0.365(3)
H9 H 0.612(3) 0.623(4) 0.225(3)
loop_
_geom_bond_atom_site_label_1
_geom_bond_atom_site_label_2
_geom_bond_site_symmetry_1
_geom_bond_site_symmetry_2
Cl1 C1 1_555 1_555
Cl2 C1 1_555 1_555
Cl3 C1 1_555 1_555
C1 H1 1_555 1_555
O1 C2 1_555 1_555
C2 C3 1_555 1_555
C3 C4 1_555 1_555
C4 C5 1_555 1_555
C5 C6 1_555 1_555
C6 C2 1_555 1_555
H2 C3 1_555 1_555
H3 C3 1_555 1_555
H4 C4 1_555 1_555
H5 C4 1_555 1_555
H6 C5 1_555 1_555
H7 C5 1_555 1_555
H8 C6 1_555 1_555
H9 C6 1_555 1_555

#END
