
#######################################################################
#
#                 Cambridge Crystallographic Data Centre
#                                CCDC 
#
#######################################################################
#
# If this CIF has been generated from an entry in the Cambridge 
# Structural Database, then it will include bibliographic, chemical, 
# crystal, experimental, refinement or atomic coordinate data resulting 
# from the CCDC's data processing and validation procedures.
#
#######################################################################

data_VUPXOV
_chemical_formula_moiety         'C26 H33 Cl1 O4'
_chemical_name_systematic        
6-chloro-2-isopropylidene-8-methoxy-4-methyl-4-(4-methylpent-3-en-1-yl)-2,3,3a,4,11,11a-hexahydro-1H,7H-cyclopenta[c]naphtho[2,1-b]furan-7,10(7aH)-dione
_chemical_properties_biological  'antibacterial activity'
_symmetry_cell_setting           monoclinic
_symmetry_space_group_name_H-M   'P 21/c'
_symmetry_Int_Tables_number      14
_space_group_name_Hall           '-P 2ybc'
loop_
_symmetry_equiv_pos_site_id
_symmetry_equiv_pos_as_xyz
1 x,y,z
2 -x,1/2+y,1/2-z
3 -x,-y,-z
4 x,1/2-y,1/2+z
_cell_length_a                   12.8200(5)
_cell_length_b                   14.6670(7)
_cell_length_c                   12.6709(7)
_cell_angle_alpha                90
_cell_angle_beta                 101.774(5)
_cell_angle_gamma                90
_cell_volume                     2332.39
_cell_formula_units_Z            4
_exptl_crystal_recrystallization_method 'petroleum ether/ethyl acetate'
loop_
_atom_site_label
_atom_site_type_symbol
_atom_site_fract_x
_atom_site_fract_y
_atom_site_fract_z
C1 C 0.08478(14) 0.63628(13) 0.40172(15)
C2 C 0.06819(14) 0.71489(14) 0.45055(16)
C3 C 0.15570(15) 0.77507(14) 0.49739(15)
C4 C 0.26871(14) 0.74156(13) 0.49299(14)
H1 H 0.2944 0.7033 0.5585
C5 C 0.34367(15) 0.82059(13) 0.49763(15)
C6 C 0.36825(15) 0.85826(14) 0.40972(15)
H2 H 0.4179 0.9071 0.4175
C7 C 0.32030(15) 0.82577(13) 0.30244(15)
C8 C 0.25085(15) 0.74181(13) 0.29214(15)
H3 H 0.2636 0.7050 0.2305
H4 H 0.1752 0.7609 0.2761
C9 C 0.27098(14) 0.68196(13) 0.39366(15)
H5 H 0.3441 0.6555 0.4022
C10 C 0.19241(14) 0.60259(13) 0.39179(15)
C11 C 0.23670(15) 0.53051(13) 0.47985(15)
H6 H 0.2842 0.5593 0.5424
H7 H 0.1780 0.4989 0.5050
C12 C 0.29787(15) 0.46521(13) 0.42279(16)
C13 C 0.25253(15) 0.47080(14) 0.30200(16)
H8 H 0.2219 0.4114 0.2743
H9 H 0.3089 0.4878 0.2627
C14 C 0.16553(14) 0.54449(13) 0.28770(15)
H10 H 0.1697 0.5832 0.2237
C15 C 0.04845(15) 0.51334(13) 0.28182(16)
C16 C 0.45351(17) 0.92430(15) 0.61521(18)
H11 H 0.5172 0.9096 0.5869
H12 H 0.4743 0.9383 0.6923
H13 H 0.4177 0.9773 0.5767
C17 C -0.01929(15) 0.53005(14) 0.17001(16)
H14 H 0.0096 0.4931 0.1172
H15 H -0.0127 0.5950 0.1511
C18 C -0.13803(15) 0.50727(15) 0.15887(18)
H16 H -0.1476 0.4403 0.1552
H17 H -0.1628 0.5295 0.2233
C19 C -0.20435(16) 0.54997(15) 0.05966(18)
H18 H -0.2140 0.5161 -0.0055
C20 C -0.25035(16) 0.63103(15) 0.05579(18)
C21 C -0.31298(17) 0.66952(17) -0.0484(2)
H19 H -0.3092 0.6274 -0.1076
H20 H -0.2829 0.7286 -0.0627
H21 H -0.3875 0.6776 -0.0427
C22 C -0.2419(2) 0.69202(19) 0.1521(2)
H22 H -0.3086 0.6897 0.1785
H23 H -0.2286 0.7548 0.1317
H24 H -0.1829 0.6715 0.2091
C23 C 0.38261(16) 0.41601(14) 0.46922(17)
C24 C 0.42403(17) 0.41482(15) 0.58935(18)
H25 H 0.3770 0.4513 0.6248
H26 H 0.4961 0.4405 0.6058
H27 H 0.4259 0.3519 0.6156
C25 C 0.44637(17) 0.36042(15) 0.40527(19)
H28 H 0.4100 0.3597 0.3293
H29 H 0.4533 0.2979 0.4331
H30 H 0.5173 0.3874 0.4117
C26 C 0.03242(17) 0.41855(14) 0.32370(18)
H31 H 0.0834 0.4084 0.3916
H32 H 0.0439 0.3731 0.2705
H33 H -0.0404 0.4130 0.3360
Cl1 Cl -0.05950(4) 0.75186(4) 0.45367(5)
O1 O 0.00774(10) 0.57977(9) 0.35467(11)
O2 O 0.14251(11) 0.84768(10) 0.53927(12)
O3 O 0.38222(11) 0.84764(10) 0.60006(10)
O4 O 0.33506(13) 0.86625(10) 0.22253(11)
loop_
_geom_bond_atom_site_label_1
_geom_bond_atom_site_label_2
_geom_bond_site_symmetry_1
_geom_bond_site_symmetry_2
C1 C2 1_555 1_555
C2 C3 1_555 1_555
C3 C4 1_555 1_555
C4 H1 1_555 1_555
C5 C4 1_555 1_555
C6 C5 1_555 1_555
H2 C6 1_555 1_555
C7 C6 1_555 1_555
C8 C7 1_555 1_555
H3 C8 1_555 1_555
H4 C8 1_555 1_555
C9 C4 1_555 1_555
H5 C9 1_555 1_555
C10 C1 1_555 1_555
C11 C10 1_555 1_555
H6 C11 1_555 1_555
H7 C11 1_555 1_555
C12 C11 1_555 1_555
C13 C12 1_555 1_555
H8 C13 1_555 1_555
H9 C13 1_555 1_555
C14 C10 1_555 1_555
H10 C14 1_555 1_555
C15 C14 1_555 1_555
C16 H11 1_555 1_555
H12 C16 1_555 1_555
H13 C16 1_555 1_555
C17 C15 1_555 1_555
H14 C17 1_555 1_555
H15 C17 1_555 1_555
C18 C17 1_555 1_555
H16 C18 1_555 1_555
H17 C18 1_555 1_555
C19 C18 1_555 1_555
H18 C19 1_555 1_555
C20 C19 1_555 1_555
C21 C20 1_555 1_555
H19 C21 1_555 1_555
H20 C21 1_555 1_555
H21 C21 1_555 1_555
C22 C20 1_555 1_555
H22 C22 1_555 1_555
H23 C22 1_555 1_555
H24 C22 1_555 1_555
C23 C12 1_555 1_555
C24 C23 1_555 1_555
H25 C24 1_555 1_555
H26 C24 1_555 1_555
H27 C24 1_555 1_555
C25 C23 1_555 1_555
H28 C25 1_555 1_555
H29 C25 1_555 1_555
H30 C25 1_555 1_555
C26 C15 1_555 1_555
H31 C26 1_555 1_555
H32 C26 1_555 1_555
H33 C26 1_555 1_555
Cl1 C2 1_555 1_555
O1 C1 1_555 1_555
O2 C3 1_555 1_555
O3 C5 1_555 1_555
O4 C7 1_555 1_555
C8 C9 1_555 1_555
C9 C10 1_555 1_555
C13 C14 1_555 1_555
C15 O1 1_555 1_555
C16 O3 1_555 1_555

#END
