
#######################################################################
#
#                 Cambridge Crystallographic Data Centre
#                                CCDC 
#
#######################################################################
#
# If this CIF has been generated from an entry in the Cambridge 
# Structural Database, then it will include bibliographic, chemical, 
# crystal, experimental, refinement or atomic coordinate data resulting 
# from the CCDC's data processing and validation procedures.
#
#######################################################################

data_VUQCER
_chemical_formula_moiety         'C19 H15 Br2 Cl1 O1'
_chemical_name_systematic        
3-bromo-4-(2-bromoethyl)-5-(4-chlorophenyl)-2-(4-methylphenyl)furan
_symmetry_cell_setting           orthorhombic
_symmetry_space_group_name_H-M   'P 21 21 21'
_symmetry_Int_Tables_number      19
_space_group_name_Hall           'P 2ac 2ab'
loop_
_symmetry_equiv_pos_site_id
_symmetry_equiv_pos_as_xyz
1 x,y,z
2 1/2-x,-y,1/2+z
3 -x,1/2+y,1/2-z
4 1/2+x,1/2-y,-z
_cell_length_a                   4.501(2)
_cell_length_b                   16.229(8)
_cell_length_c                   24.197(12)
_cell_angle_alpha                90
_cell_angle_beta                 90
_cell_angle_gamma                90
_cell_volume                     1767.51
_exptl_crystal_colour            colorless
_exptl_crystal_description       block
_cell_formula_units_Z            4
loop_
_atom_site_label
_atom_site_type_symbol
_atom_site_fract_x
_atom_site_fract_y
_atom_site_fract_z
Br1 Br 0.56059(13) 0.31348(3) 0.23746(2)
Br2 Br 0.97606(14) 0.34760(3) 0.04113(2)
Cl1 Cl 1.3467(4) -0.17123(7) 0.03739(6)
O1 O 0.5661(7) 0.06899(15) 0.20747(11)
C1 C 0.4734(10) 0.1358(2) 0.23801(18)
C2 C 0.6001(9) 0.2034(2) 0.21485(18)
C3 C 0.7760(9) 0.1804(2) 0.16888(17)
C4 C 0.7486(10) 0.0959(3) 0.16612(18)
C5 C 0.8889(10) 0.0315(3) 0.13305(18)
C6 C 1.0058(12) 0.0446(2) 0.0816(2)
H1 H 0.9891 0.0967 0.0659
C7 C 1.1475(11) -0.0166(3) 0.0519(2)
H2 H 1.2278 -0.0051 0.0173
C8 C 1.1689(11) -0.0933(3) 0.0735(2)
C9 C 1.0513(15) -0.1096(3) 0.1249(2)
H3 H 1.0664 -0.1621 0.1400
C10 C 0.9128(12) -0.0484(3) 0.15360(18)
H4 H 0.8316 -0.0604 0.1880
C11 C 0.2757(10) 0.1170(3) 0.28338(19)
C12 C 0.1576(10) 0.0386(3) 0.2895(2)
H5 H 0.2063 -0.0019 0.2639
C13 C -0.0294(12) 0.0193(3) 0.3325(2)
H6 H -0.1067 -0.0337 0.3348
C14 C -0.1055(11) 0.0763(3) 0.3722(2)
C15 C 0.0117(13) 0.1540(3) 0.3665(2)
H7 H -0.0378 0.1942 0.3923
C16 C 0.1995(12) 0.1740(3) 0.3239(2)
H8 H 0.2777 0.2270 0.3221
C17 C -0.3079(11) 0.0564(3) 0.4194(2)
H9 H -0.1918 0.0427 0.4513
H10 H -0.4315 0.0104 0.4096
H11 H -0.4304 0.1033 0.4274
C18 C 0.9523(11) 0.2368(2) 0.13289(17)
H12 H 1.1145 0.2066 0.1160
H13 H 1.0367 0.2807 0.1552
C19 C 0.7590(10) 0.2734(3) 0.08849(19)
H14 H 0.5957 0.3030 0.1056
H15 H 0.6754 0.2293 0.0663
loop_
_geom_bond_atom_site_label_1
_geom_bond_atom_site_label_2
_geom_bond_site_symmetry_1
_geom_bond_site_symmetry_2
Br1 C2 1_555 1_555
Br2 C19 1_555 1_555
Cl1 C8 1_555 1_555
O1 C1 1_555 1_555
C1 C2 1_555 1_555
C2 C3 1_555 1_555
C3 C4 1_555 1_555
C4 O1 1_555 1_555
C5 C4 1_555 1_555
C6 C5 1_555 1_555
H1 C6 1_555 1_555
C7 C6 1_555 1_555
H2 C7 1_555 1_555
C8 C7 1_555 1_555
C9 C8 1_555 1_555
H3 C9 1_555 1_555
C10 C5 1_555 1_555
H4 C10 1_555 1_555
C11 C1 1_555 1_555
C12 C11 1_555 1_555
H5 C12 1_555 1_555
C13 C12 1_555 1_555
H6 C13 1_555 1_555
C14 C13 1_555 1_555
C15 C14 1_555 1_555
H7 C15 1_555 1_555
C16 C11 1_555 1_555
H8 C16 1_555 1_555
C17 C14 1_555 1_555
H9 C17 1_555 1_555
H10 C17 1_555 1_555
H11 C17 1_555 1_555
C18 C3 1_555 1_555
H12 C18 1_555 1_555
H13 C18 1_555 1_555
C19 C18 1_555 1_555
H14 C19 1_555 1_555
H15 C19 1_555 1_555
C9 C10 1_555 1_555
C15 C16 1_555 1_555

#END
