
#######################################################################
#
#                 Cambridge Crystallographic Data Centre
#                                CCDC 
#
#######################################################################
#
# If this CIF has been generated from an entry in the Cambridge 
# Structural Database, then it will include bibliographic, chemical, 
# crystal, experimental, refinement or atomic coordinate data resulting 
# from the CCDC's data processing and validation procedures.
#
#######################################################################

data_VUQFIX
_chemical_formula_moiety         'C22 H20 Br1 N1 O7'
_chemical_name_systematic        
'Diethyl 2-(4-bromobenzoyl)-3-(4-nitrophenyl)cyclopropane-1,1-dicarboxylate'
_symmetry_cell_setting           monoclinic
_symmetry_space_group_name_H-M   'P 21/c'
_symmetry_Int_Tables_number      14
_space_group_name_Hall           '-P 2ybc'
loop_
_symmetry_equiv_pos_site_id
_symmetry_equiv_pos_as_xyz
1 x,y,z
2 -x,1/2+y,1/2-z
3 -x,-y,-z
4 x,1/2-y,1/2+z
_cell_length_a                   13.8847(12)
_cell_length_b                   19.5903(16)
_cell_length_c                   8.0228(7)
_cell_angle_alpha                90
_cell_angle_beta                 92.7210(10)
_cell_angle_gamma                90
_cell_volume                     2179.78
_exptl_crystal_colour            colorless
_exptl_crystal_description       prism
_cell_formula_units_Z            4
loop_
_atom_site_label
_atom_site_type_symbol
_atom_site_fract_x
_atom_site_fract_y
_atom_site_fract_z
Br1 Br -0.03036(2) 0.085992(15) -0.17757(4)
C1 C 0.00024(18) 0.17966(12) -0.1538(3)
N1 N 0.29287(18) 0.66950(13) 0.5037(3)
O1 O 0.02902(17) 0.43099(10) -0.2004(3)
C2 C 0.08577(18) 0.19757(13) -0.0708(3)
H1 H 0.1269 0.1642 -0.0256
O2 O 0.2417(2) 0.42418(10) -0.3434(2)
C3 C 0.10948(17) 0.26595(12) -0.0558(3)
H2 H 0.1667 0.2786 0.0009
O3 O 0.32336(14) 0.36157(10) 0.2008(2)
C4 C 0.04928(16) 0.31568(12) -0.1238(3)
O4 O 0.33439(15) 0.34346(11) -0.2278(2)
C5 C -0.03636(16) 0.29587(14) -0.2082(3)
H3 H -0.0770 0.3289 -0.2560
O5 O 0.41684(13) 0.42651(10) 0.0456(2)
C6 C -0.06131(18) 0.22870(14) -0.2215(3)
H4 H -0.1193 0.2161 -0.2758
O6 O 0.30070(19) 0.64996(12) 0.6471(3)
C7 C 0.07345(19) 0.38954(13) -0.1156(3)
O7 O 0.3017(2) 0.72874(12) 0.4635(3)
C8 C 0.15414(17) 0.41166(11) 0.0046(3)
H5 H 0.1466 0.3980 0.1207
C9 C 0.25740(17) 0.41507(11) -0.0475(3)
C10 C 0.19923(17) 0.47946(11) -0.0167(3)
H6 H 0.1770 0.5027 -0.1196
C11 C 0.22521(16) 0.52715(11) 0.1221(3)
C12 C 0.25392(18) 0.59275(11) 0.0841(3)
H7 H 0.2576 0.6055 -0.0271
C13 C 0.27724(18) 0.63961(12) 0.2076(3)
H8 H 0.2964 0.6836 0.1810
C14 C 0.27142(17) 0.61969(12) 0.3712(3)
C15 C 0.24396(18) 0.55490(13) 0.4140(3)
H9 H 0.2412 0.5424 0.5255
C16 C 0.22066(18) 0.50905(12) 0.2894(3)
H10 H 0.2015 0.4652 0.3171
C17 C 0.33471(18) 0.39632(12) 0.0819(3)
C18 C 0.27742(19) 0.39702(13) -0.2236(3)
C19 C 0.3627(3) 0.3185(2) -0.3897(4)
H11 H 0.3267 0.2775 -0.4191
H12 H 0.3480 0.3527 -0.4746
C20 C 0.4622(3) 0.3042(3) -0.3828(5)
H13 H 0.4976 0.3452 -0.3566
H14 H 0.4804 0.2871 -0.4890
H15 H 0.4765 0.2706 -0.2982
C21 C 0.5006(2) 0.41572(18) 0.1598(4)
H16 H 0.4955 0.3716 0.2136
H17 H 0.5588 0.4158 0.0977
C22 C 0.5064(3) 0.4692(2) 0.2858(4)
H18 H 0.5016 0.5130 0.2324
H19 H 0.5669 0.4659 0.3484
H20 H 0.4545 0.4639 0.3597
loop_
_geom_bond_atom_site_label_1
_geom_bond_atom_site_label_2
_geom_bond_site_symmetry_1
_geom_bond_site_symmetry_2
Br1 C1 1_555 1_555
C1 C2 1_555 1_555
N1 O6 1_555 1_555
O1 C7 1_555 1_555
C2 H1 1_555 1_555
O2 C18 1_555 1_555
C3 C2 1_555 1_555
H2 C3 1_555 1_555
O3 C17 1_555 1_555
C4 C3 1_555 1_555
O4 C18 1_555 1_555
C5 C4 1_555 1_555
H3 C5 1_555 1_555
O5 C17 1_555 1_555
C6 C1 1_555 1_555
H4 C6 1_555 1_555
C7 C4 1_555 1_555
O7 N1 1_555 1_555
C8 C7 1_555 1_555
H5 C8 1_555 1_555
C9 C8 1_555 1_555
C10 C8 1_555 1_555
H6 C10 1_555 1_555
C11 C10 1_555 1_555
C12 C11 1_555 1_555
H7 C12 1_555 1_555
C13 C12 1_555 1_555
H8 C13 1_555 1_555
C14 N1 1_555 1_555
C15 C14 1_555 1_555
H9 C15 1_555 1_555
C16 C11 1_555 1_555
H10 C16 1_555 1_555
C17 C9 1_555 1_555
C18 C9 1_555 1_555
C19 O4 1_555 1_555
H11 C19 1_555 1_555
H12 C19 1_555 1_555
C20 C19 1_555 1_555
H13 C20 1_555 1_555
H14 C20 1_555 1_555
H15 C20 1_555 1_555
C21 O5 1_555 1_555
H16 C21 1_555 1_555
H17 C21 1_555 1_555
C22 C21 1_555 1_555
H18 C22 1_555 1_555
H19 C22 1_555 1_555
H20 C22 1_555 1_555
C5 C6 1_555 1_555
C9 C10 1_555 1_555
C13 C14 1_555 1_555
C15 C16 1_555 1_555

#END
