
#######################################################################
#
#                 Cambridge Crystallographic Data Centre
#                                CCDC 
#
#######################################################################
#
# If this CIF has been generated from an entry in the Cambridge 
# Structural Database, then it will include bibliographic, chemical, 
# crystal, experimental, refinement or atomic coordinate data resulting 
# from the CCDC's data processing and validation procedures.
#
#######################################################################

data_VUQFOD
_chemical_formula_moiety         'C23 H23 N1 O7'
_chemical_name_systematic        
'Diethyl 2-(4-methylbenzoyl)-3-(4-nitrophenyl)cyclopropane-1,1-dicarboxylate'
_symmetry_cell_setting           monoclinic
_symmetry_space_group_name_H-M   'P 21/c'
_symmetry_Int_Tables_number      14
_space_group_name_Hall           '-P 2ybc'
loop_
_symmetry_equiv_pos_site_id
_symmetry_equiv_pos_as_xyz
1 x,y,z
2 -x,1/2+y,1/2-z
3 -x,-y,-z
4 x,1/2-y,1/2+z
_cell_length_a                   13.9327(13)
_cell_length_b                   19.3010(18)
_cell_length_c                   8.1157(8)
_cell_angle_alpha                90
_cell_angle_beta                 93.7310(10)
_cell_angle_gamma                90
_cell_volume                     2177.81
_exptl_crystal_colour            colorless
_exptl_crystal_description       prism
_cell_formula_units_Z            4
loop_
_atom_site_label
_atom_site_type_symbol
_atom_site_fract_x
_atom_site_fract_y
_atom_site_fract_z
C1 C 0.4684(2) 0.09668(15) 0.3388(4)
H1 H 0.4848 0.0784 0.2343
H2 H 0.4003 0.0925 0.3483
H3 H 0.5019 0.0712 0.4264
N1 N 0.79784(18) 0.66977(15) 1.0053(4)
O1 O 0.52561(16) 0.42950(10) 0.3072(3)
C2 C 0.49697(18) 0.17222(15) 0.3506(3)
O2 O 0.8129(2) 0.72919(14) 0.9656(3)
C3 C 0.58173(19) 0.19196(14) 0.4314(3)
H4 H 0.6232 0.1583 0.4771
O3 O 0.80119(18) 0.64980(12) 1.1487(3)
C4 C 0.60688(18) 0.26124(13) 0.4465(3)
H5 H 0.6641 0.2736 0.5043
O4 O 0.82475(12) 0.36122(9) 0.7017(2)
C5 C 0.54764(16) 0.31197(13) 0.3763(3)
O5 O 0.91517(12) 0.42579(10) 0.5439(2)
C6 C 0.46243(18) 0.29137(15) 0.2907(3)
H6 H 0.4219 0.3245 0.2404
O6 O 0.73788(17) 0.42774(10) 0.1634(2)
C7 C 0.43783(19) 0.22279(17) 0.2799(3)
H7 H 0.3802 0.2101 0.2239
O7 O 0.82993(14) 0.34374(11) 0.2720(2)
C8 C 0.57116(18) 0.38627(14) 0.3875(3)
C9 C 0.65273(16) 0.40864(11) 0.5074(3)
H8 H 0.6469 0.3938 0.6218
C10 C 0.69562(16) 0.47828(12) 0.4885(3)
H9 H 0.6716 0.5022 0.3877
C11 C 0.75499(16) 0.41367(11) 0.4551(3)
C12 C 0.72319(16) 0.52630(12) 0.6272(3)
C13 C 0.75252(17) 0.59277(12) 0.5901(3)
H10 H 0.7550 0.6058 0.4802
C14 C 0.77801(18) 0.63985(13) 0.7125(3)
H11 H 0.7977 0.6843 0.6866
C15 C 0.77363(17) 0.61946(13) 0.8741(3)
C16 C 0.74640(18) 0.55410(14) 0.9160(3)
H12 H 0.7452 0.5411 1.0262
C17 C 0.72095(17) 0.50817(13) 0.7921(3)
H13 H 0.7017 0.4637 0.8194
C18 C 0.83371(18) 0.39577(12) 0.5817(3)
C19 C 0.9992(2) 0.41568(18) 0.6571(4)
H14 H 1.0567 0.4159 0.5959
H15 H 0.9949 0.3710 0.7108
C20 C 1.0061(2) 0.47046(19) 0.7823(4)
H16 H 0.9996 0.5148 0.7293
H17 H 1.0675 0.4678 0.8430
H18 H 0.9558 0.4647 0.8566
C21 C 0.77367(19) 0.39783(14) 0.2800(3)
C22 C 0.8575(2) 0.3210(2) 0.1099(4)
H19 H 0.8213 0.2798 0.0763
H20 H 0.8425 0.3570 0.0289
C23 C 0.9564(3) 0.3063(2) 0.1161(4)
H21 H 0.9921 0.3480 0.1399
H22 H 0.9729 0.2881 0.0115
H23 H 0.9716 0.2727 0.2011
loop_
_geom_bond_atom_site_label_1
_geom_bond_atom_site_label_2
_geom_bond_site_symmetry_1
_geom_bond_site_symmetry_2
C1 H1 1_555 1_555
H2 C1 1_555 1_555
H3 C1 1_555 1_555
N1 O2 1_555 1_555
O1 C8 1_555 1_555
C2 C1 1_555 1_555
C3 C2 1_555 1_555
H4 C3 1_555 1_555
O3 N1 1_555 1_555
C4 C3 1_555 1_555
H5 C4 1_555 1_555
O4 C18 1_555 1_555
C5 C4 1_555 1_555
O5 C18 1_555 1_555
C6 C5 1_555 1_555
H6 C6 1_555 1_555
O6 C21 1_555 1_555
C7 C2 1_555 1_555
H7 C7 1_555 1_555
O7 C21 1_555 1_555
C8 C5 1_555 1_555
C9 C8 1_555 1_555
H8 C9 1_555 1_555
C10 C9 1_555 1_555
H9 C10 1_555 1_555
C11 C9 1_555 1_555
C12 C10 1_555 1_555
C13 C12 1_555 1_555
H10 C13 1_555 1_555
C14 C13 1_555 1_555
H11 C14 1_555 1_555
C15 N1 1_555 1_555
C16 C15 1_555 1_555
H12 C16 1_555 1_555
C17 C12 1_555 1_555
H13 C17 1_555 1_555
C18 C11 1_555 1_555
C19 O5 1_555 1_555
H14 C19 1_555 1_555
H15 C19 1_555 1_555
C20 C19 1_555 1_555
H16 C20 1_555 1_555
H17 C20 1_555 1_555
H18 C20 1_555 1_555
C21 C11 1_555 1_555
C22 O7 1_555 1_555
H19 C22 1_555 1_555
H20 C22 1_555 1_555
C23 C22 1_555 1_555
H21 C23 1_555 1_555
H22 C23 1_555 1_555
H23 C23 1_555 1_555
C6 C7 1_555 1_555
C10 C11 1_555 1_555
C14 C15 1_555 1_555
C16 C17 1_555 1_555

#END
