
#######################################################################
#
#                 Cambridge Crystallographic Data Centre
#                                CCDC 
#
#######################################################################
#
# If this CIF has been generated from an entry in the Cambridge 
# Structural Database, then it will include bibliographic, chemical, 
# crystal, experimental, refinement or atomic coordinate data resulting 
# from the CCDC's data processing and validation procedures.
#
#######################################################################

data_VUQHEV
_chemical_formula_moiety         'C7 H2 F3 N2 S2'
_chemical_name_systematic        
'4-(3,4,5-Trifluorophenyl)-1,2,3,5-dithiadiazolyl radical'
_symmetry_cell_setting           triclinic
_symmetry_space_group_name_H-M   'P -1'
_symmetry_Int_Tables_number      2
_space_group_name_Hall           '-P 1'
loop_
_symmetry_equiv_pos_site_id
_symmetry_equiv_pos_as_xyz
1 x,y,z
2 -x,-y,-z
_cell_length_a                   5.9462(1)
_cell_length_b                   10.2733(2)
_cell_length_c                   14.3236(2)
_cell_angle_alpha                76.255(1)
_cell_angle_beta                 79.899(1)
_cell_angle_gamma                78.649(1)
_cell_volume                     825.671
_exptl_crystal_colour            brown
_exptl_crystal_description       block
_cell_formula_units_Z            4
loop_
_atom_site_label
_atom_site_type_symbol
_atom_site_fract_x
_atom_site_fract_y
_atom_site_fract_z
S1 S 0.08433(8) 0.69794(4) 0.39106(3)
S2 S -0.18318(7) 0.63726(4) 0.34214(3)
N1 N 0.2498(3) 0.54997(14) 0.40003(10)
N2 N -0.0453(2) 0.48293(14) 0.34092(11)
C1 C 0.1622(3) 0.45709(15) 0.37217(11)
C2 C 0.3016(3) 0.31969(15) 0.37632(11)
C3 C 0.5040(3) 0.28501(16) 0.41993(11)
H1 H 0.5532 0.3482 0.4476
C4 C 0.6304(3) 0.15683(17) 0.42172(12)
F1 F 0.82291(19) 0.11683(12) 0.46558(9)
C5 C 0.5641(3) 0.06389(16) 0.38041(12)
F2 F 0.6934(2) -0.05913(11) 0.38074(9)
C6 C 0.3621(3) 0.09997(17) 0.33866(13)
F3 F 0.2990(2) 0.00774(11) 0.29954(9)
C7 C 0.2288(3) 0.22662(16) 0.33587(12)
H2 H 0.0902 0.2501 0.3070
S3 S 0.30016(9) 0.78547(4) 0.17558(3)
S4 S 0.00396(9) 0.75224(4) 0.12940(3)
N3 N 0.4470(3) 0.63489(14) 0.16726(11)
N4 N 0.1158(3) 0.60036(15) 0.11314(11)
C8 C 0.3315(3) 0.55855(15) 0.13463(11)
C9 C 0.4455(3) 0.42020(15) 0.12301(11)
C10 C 0.6563(3) 0.36376(16) 0.15765(11)
H3 H 0.7336 0.4146 0.1856
C11 C 0.7490(3) 0.23221(17) 0.15019(12)
F4 F 0.94631(19) 0.16981(12) 0.18607(9)
C12 C 0.6422(3) 0.15667(16) 0.10784(12)
F5 F 0.7358(2) 0.02822(11) 0.10324(9)
C13 C 0.4359(3) 0.21507(16) 0.07277(12)
F6 F 0.3331(2) 0.14030(11) 0.03270(8)
C14 C 0.3353(3) 0.34625(15) 0.07932(11)
H4 H 0.1935 0.3858 0.0546
loop_
_geom_bond_atom_site_label_1
_geom_bond_atom_site_label_2
_geom_bond_site_symmetry_1
_geom_bond_site_symmetry_2
S1 S2 1_555 1_555
S2 N2 1_555 1_555
N1 S1 1_555 1_555
N2 C1 1_555 1_555
C1 N1 1_555 1_555
C2 C1 1_555 1_555
C3 C2 1_555 1_555
H1 C3 1_555 1_555
C4 C3 1_555 1_555
F1 C4 1_555 1_555
C5 C4 1_555 1_555
F2 C5 1_555 1_555
C6 C5 1_555 1_555
F3 C6 1_555 1_555
C7 C2 1_555 1_555
H2 C7 1_555 1_555
S3 S4 1_555 1_555
S4 N4 1_555 1_555
N3 S3 1_555 1_555
N4 C8 1_555 1_555
C8 N3 1_555 1_555
C9 C8 1_555 1_555
C10 C9 1_555 1_555
H3 C10 1_555 1_555
C11 C10 1_555 1_555
F4 C11 1_555 1_555
C12 C11 1_555 1_555
F5 C12 1_555 1_555
C13 C12 1_555 1_555
F6 C13 1_555 1_555
C14 C9 1_555 1_555
H4 C14 1_555 1_555
C6 C7 1_555 1_555
C13 C14 1_555 1_555

#END
