
#######################################################################
#
#                 Cambridge Crystallographic Data Centre
#                                CCDC 
#
#######################################################################
#
# If this CIF has been generated from an entry in the Cambridge 
# Structural Database, then it will include bibliographic, chemical, 
# crystal, experimental, refinement or atomic coordinate data resulting 
# from the CCDC's data processing and validation procedures.
#
#######################################################################

data_VUQROQ
_chemical_name_common            
1-benzamido-2-chloro-1-(4-methylphenyl)-2-nitropropane
_chemical_formula_moiety         'C17 H17 Cl1 N2 O3'
_chemical_name_systematic        
N-(2-chloro-1-(4-methylphenyl)-2-nitropropyl)benzamide
_symmetry_cell_setting           monoclinic
_symmetry_space_group_name_H-M   'C c'
_symmetry_Int_Tables_number      9
_space_group_name_Hall           'C -2yc'
loop_
_symmetry_equiv_pos_site_id
_symmetry_equiv_pos_as_xyz
1 x,y,z
2 x,-y,1/2+z
3 1/2+x,1/2+y,z
4 1/2+x,1/2-y,1/2+z
_cell_length_a                   17.390(9)
_cell_length_b                   21.120(10)
_cell_length_c                   9.734(5)
_cell_angle_alpha                90
_cell_angle_beta                 112.113(6)
_cell_angle_gamma                90
_cell_volume                     3312.1
_exptl_crystal_colour            colorless
_exptl_crystal_description       block
_chemical_melting_point          '421 K'
_cell_formula_units_Z            8
loop_
_atom_site_label
_atom_site_type_symbol
_atom_site_fract_x
_atom_site_fract_y
_atom_site_fract_z
C1 C 0.0862(3) 0.00213(16) 0.5321(4)
H1 H 0.0944 -0.0164 0.4487
H2 H 0.0278 0.0056 0.5112
H3 H 0.1117 -0.0241 0.6179
C2 C 0.1258(2) 0.06850(17) 0.5621(4)
C3 C 0.2173(2) 0.06937(16) 0.5732(3)
H4 H 0.2159 0.0564 0.4756
C4 C 0.2574(2) 0.13418(17) 0.6025(4)
C5 C 0.3043(3) 0.15478(17) 0.7458(4)
H5 H 0.3114 0.1285 0.8264
C6 C 0.3403(2) 0.21442(17) 0.7680(4)
H6 H 0.3725 0.2272 0.8640
C7 C 0.3293(2) 0.25612(15) 0.6497(3)
C8 C 0.2817(2) 0.23390(16) 0.5072(4)
H7 H 0.2741 0.2599 0.4261
C9 C 0.2455(2) 0.17381(16) 0.4836(3)
H8 H 0.2134 0.1606 0.3879
C10 C 0.3661(3) 0.32132(18) 0.6690(4)
H9 H 0.4218 0.3189 0.6717
H10 H 0.3668 0.3392 0.7601
H11 H 0.3332 0.3476 0.5875
C11 C 0.2932(2) -0.03016(16) 0.6278(4)
C12 C 0.3437(2) -0.07748(16) 0.7425(4)
C13 C 0.3412(2) -0.14128(16) 0.6960(4)
H12 H 0.3087 -0.1526 0.5991
C14 C 0.3874(3) -0.18667(18) 0.7954(4)
H13 H 0.3855 -0.2287 0.7656
C15 C 0.4364(3) -0.1696(2) 0.9389(5)
H14 H 0.4669 -0.2004 1.0055
C16 C 0.4405(3) -0.10668(19) 0.9849(4)
H15 H 0.4743 -0.0955 1.0812
C17 C 0.3929(3) -0.05985(19) 0.8848(4)
H16 H 0.3949 -0.0179 0.9147
Cl1 Cl 0.11600(5) 0.10049(4) 0.72305(8)
N1 N 0.0773(2) 0.11163(14) 0.4301(3)
N2 N 0.2628(2) 0.01999(15) 0.6763(3)
O1 O 0.05694(18) 0.16468(12) 0.4502(3)
O2 O 0.06226(17) 0.08821(12) 0.3065(3)
O3 O 0.27923(16) -0.03866(11) 0.4938(3)
loop_
_geom_bond_atom_site_label_1
_geom_bond_atom_site_label_2
_geom_bond_site_symmetry_1
_geom_bond_site_symmetry_2
C1 H1 1_555 1_555
H2 C1 1_555 1_555
H3 C1 1_555 1_555
C2 C1 1_555 1_555
C3 C2 1_555 1_555
H4 C3 1_555 1_555
C4 C3 1_555 1_555
C5 C4 1_555 1_555
H5 C5 1_555 1_555
C6 C5 1_555 1_555
H6 C6 1_555 1_555
C7 C6 1_555 1_555
C8 C7 1_555 1_555
H7 C8 1_555 1_555
C9 C4 1_555 1_555
H8 C9 1_555 1_555
C10 C7 1_555 1_555
H9 C10 1_555 1_555
H10 C10 1_555 1_555
H11 C10 1_555 1_555
C11 C12 1_555 1_555
C12 C13 1_555 1_555
C13 H12 1_555 1_555
C14 C13 1_555 1_555
H13 C14 1_555 1_555
C15 C14 1_555 1_555
H14 C15 1_555 1_555
C16 C15 1_555 1_555
H15 C16 1_555 1_555
C17 C12 1_555 1_555
H16 C17 1_555 1_555
Cl1 C2 1_555 1_555
N1 C2 1_555 1_555
N2 C3 1_555 1_555
O1 N1 1_555 1_555
O2 N1 1_555 1_555
O3 C11 1_555 1_555
C8 C9 1_555 1_555
C11 N2 1_555 1_555
C16 C17 1_555 1_555

#END
