
#######################################################################
#
#                 Cambridge Crystallographic Data Centre
#                                CCDC 
#
#######################################################################
#
# If this CIF has been generated from an entry in the Cambridge 
# Structural Database, then it will include bibliographic, chemical, 
# crystal, experimental, refinement or atomic coordinate data resulting 
# from the CCDC's data processing and validation procedures.
#
#######################################################################

data_VUQRIK
_chemical_formula_moiety         'C27 H26 F1 N3 O5'
_chemical_name_systematic        
N-t-butyl-N\a-(2-fluorophenyl)-N\a-((4-nitrophenyl)acetyl)-\b-oxophenylalaninamide
_symmetry_cell_setting           triclinic
_symmetry_space_group_name_H-M   'P -1'
_symmetry_Int_Tables_number      2
_space_group_name_Hall           '-P 1'
loop_
_symmetry_equiv_pos_site_id
_symmetry_equiv_pos_as_xyz
1 x,y,z
2 -x,-y,-z
_cell_length_a                   10.8141(6)
_cell_length_b                   11.0261(6)
_cell_length_c                   11.9967(7)
_cell_angle_alpha                83.398(4)
_cell_angle_beta                 65.586(3)
_cell_angle_gamma                81.088(4)
_cell_volume                     1284.76
_exptl_crystal_colour            colorless
_exptl_crystal_description       block
_chemical_melting_point          '423.65-428.45 K'
_cell_formula_units_Z            2
loop_
_atom_site_label
_atom_site_type_symbol
_atom_site_fract_x
_atom_site_fract_y
_atom_site_fract_z
F1 F 0.79339(12) 0.79452(11) 0.15515(12)
N1 N 0.75049(13) 0.60978(12) 0.04671(11)
N2 N 0.37176(18) 0.10715(17) 0.47451(17)
N3 N 0.97028(13) 0.76342(12) -0.15594(12)
H1 H 1.0164 0.7221 -0.1176
O1 O 0.3616(2) 0.06847(18) 0.57674(16)
O2 O 0.3235(2) 0.06151(17) 0.41631(17)
O3 O 0.83408(13) 0.42410(12) 0.10059(12)
O4 O 0.66932(13) 0.48349(13) -0.08468(13)
O5 O 0.79473(13) 0.75449(12) -0.21070(12)
C1 C 0.67915(18) 0.81063(17) 0.13315(17)
C2 C 0.5893(2) 0.91516(18) 0.16896(19)
H2 H 0.6069 0.9750 0.2074
C3 C 0.4477(2) 0.84018(19) 0.0909(2)
H3 H 0.3686 0.8507 0.0762
C4 C 0.53834(18) 0.73522(17) 0.05642(18)
H4 H 0.5203 0.6752 0.0185
C5 C 0.65546(16) 0.71887(15) 0.07781(14)
C6 C 0.5068(2) 0.3735(2) 0.26386(17)
H5 H 0.5028 0.4136 0.1927
C7 C 0.43831(19) 0.2726(2) 0.31358(17)
H6 H 0.3877 0.2444 0.2774
C8 C 0.44644(18) 0.21380(17) 0.41868(15)
C9 C 0.5207(2) 0.25343(18) 0.47353(16)
H7 H 0.5250 0.2127 0.5444
C10 C 0.5889(2) 0.35486(18) 0.42151(16)
H8 H 0.6406 0.3820 0.4572
C11 C 0.58155(17) 0.41702(16) 0.31693(15)
C12 C 0.4733(2) 0.92960(19) 0.1470(2)
H9 H 0.4114 1.0002 0.1702
C13 C 0.6511(2) 0.53044(18) 0.26246(16)
H10 H 0.6985 0.5478 0.3110
H11 H 0.5825 0.5997 0.2660
C14 C 0.75252(17) 0.51690(16) 0.13053(15)
C15 C 1.0158(2) 0.4658(2) -0.3148(2)
H12 H 1.0502 0.5231 -0.2876
C16 C 1.0995(3) 0.4049(3) -0.4196(2)
H13 H 1.1893 0.4219 -0.4628
C17 C 1.0498(3) 0.3195(3) -0.4600(2)
H14 H 1.1057 0.2787 -0.5306
C18 C 0.9184(3) 0.2947(3) -0.3961(2)
H15 H 0.8855 0.2355 -0.4223
C19 C 0.8335(3) 0.3566(2) -0.2925(2)
H16 H 0.7432 0.3404 -0.2511
C20 C 0.88120(19) 0.44222(17) -0.24977(16)
C21 C 0.78771(17) 0.50305(16) -0.13613(15)
C22 C 0.84378(16) 0.58908(15) -0.08116(14)
H17 H 0.9318 0.5492 -0.0824
C23 C 0.86776(16) 0.71142(15) -0.15741(14)
C24 C 1.01334(17) 0.88418(16) -0.21297(16)
C25 C 1.0583(3) 0.8858(2) -0.35087(19)
H18 H 1.1319 0.8216 -0.3838
H19 H 1.0885 0.9639 -0.3872
H20 H 0.9827 0.8730 -0.3688
C26 C 0.8960(2) 0.98463(19) -0.1580(2)
H21 H 0.8677 0.9809 -0.0707
H22 H 0.8206 0.9729 -0.1767
H23 H 0.9257 1.0635 -0.1920
C27 C 1.1329(2) 0.8998(2) -0.1830(2)
H24 H 1.1036 0.8983 -0.0957
H25 H 1.1661 0.9770 -0.2190
H26 H 1.2048 0.8340 -0.2154
loop_
_geom_bond_atom_site_label_1
_geom_bond_atom_site_label_2
_geom_bond_site_symmetry_1
_geom_bond_site_symmetry_2
F1 C1 1_555 1_555
N1 C5 1_555 1_555
N2 O1 1_555 1_555
N3 H1 1_555 1_555
O2 N2 1_555 1_555
O3 C14 1_555 1_555
O4 C21 1_555 1_555
O5 C23 1_555 1_555
C1 C2 1_555 1_555
C2 H2 1_555 1_555
C3 H3 1_555 1_555
C4 C3 1_555 1_555
H4 C4 1_555 1_555
C5 C1 1_555 1_555
C6 H5 1_555 1_555
C7 C6 1_555 1_555
H6 C7 1_555 1_555
C8 N2 1_555 1_555
C9 C8 1_555 1_555
H7 C9 1_555 1_555
C10 C9 1_555 1_555
H8 C10 1_555 1_555
C11 C6 1_555 1_555
C12 C2 1_555 1_555
H9 C12 1_555 1_555
C13 C11 1_555 1_555
H10 C13 1_555 1_555
H11 C13 1_555 1_555
C14 N1 1_555 1_555
C15 H12 1_555 1_555
C16 C15 1_555 1_555
H13 C16 1_555 1_555
C17 C16 1_555 1_555
H14 C17 1_555 1_555
C18 C17 1_555 1_555
H15 C18 1_555 1_555
C19 C18 1_555 1_555
H16 C19 1_555 1_555
C20 C15 1_555 1_555
C21 C20 1_555 1_555
C22 N1 1_555 1_555
H17 C22 1_555 1_555
C23 N3 1_555 1_555
C24 N3 1_555 1_555
C25 C24 1_555 1_555
H18 C25 1_555 1_555
H19 C25 1_555 1_555
H20 C25 1_555 1_555
C26 C24 1_555 1_555
H21 C26 1_555 1_555
H22 C26 1_555 1_555
H23 C26 1_555 1_555
C27 C24 1_555 1_555
H24 C27 1_555 1_555
H25 C27 1_555 1_555
H26 C27 1_555 1_555
C3 C12 1_555 1_555
C4 C5 1_555 1_555
C7 C8 1_555 1_555
C10 C11 1_555 1_555
C13 C14 1_555 1_555
C19 C20 1_555 1_555
C21 C22 1_555 1_555
C22 C23 1_555 1_555

#END
