
#######################################################################
#
#                 Cambridge Crystallographic Data Centre
#                                CCDC 
#
#######################################################################
#
# If this CIF has been generated from an entry in the Cambridge 
# Structural Database, then it will include bibliographic, chemical, 
# crystal, experimental, refinement or atomic coordinate data resulting 
# from the CCDC's data processing and validation procedures.
#
#######################################################################

data_VUQWOV
_chemical_formula_moiety         'C80 H86,C6 H14'
_chemical_name_systematic        
'4,5,11,12,17,18-hexakis(4-t-butylphenyl)pentacyclo[6.6.6.0^2,7^.0^9,14^.0^15,20^]icosa-2,4,6,9,11,13,15,17,19-nonaene hexane solvate'
_symmetry_cell_setting           monoclinic
_symmetry_space_group_name_H-M   'P 21/n'
_symmetry_Int_Tables_number      14
_space_group_name_Hall           '-P 2yn'
loop_
_symmetry_equiv_pos_site_id
_symmetry_equiv_pos_as_xyz
1 x,y,z
2 1/2-x,1/2+y,1/2-z
3 -x,-y,-z
4 1/2+x,1/2-y,1/2+z
_cell_length_a                   18.7503(15)
_cell_length_b                   11.6048(9)
_cell_length_c                   36.709(3)
_cell_angle_alpha                90
_cell_angle_beta                 100.131(3)
_cell_angle_gamma                90
_cell_volume                     7863.1
_exptl_crystal_colour            colorless
_exptl_crystal_description       needle
_cell_formula_units_Z            4
loop_
_atom_site_label
_atom_site_type_symbol
_atom_site_fract_x
_atom_site_fract_y
_atom_site_fract_z
C1 C 0.4995(2) 0.3819(4) 0.66994(11)
H1 H 0.4741 0.3091 0.6606
C2 C 0.5649(2) 0.5710(4) 0.69430(11)
H2 H 0.5905 0.6436 0.7037
C3 C 0.4775(2) 0.4260(4) 0.70533(11)
C4 C 0.5127(2) 0.5275(4) 0.71867(11)
C5 C 0.4981(2) 0.5775(4) 0.75050(12)
H3 H 0.5209 0.6482 0.7588
C6 C 0.4503(2) 0.5260(4) 0.77096(12)
C7 C 0.4159(2) 0.4221(4) 0.75802(12)
C8 C 0.4297(2) 0.3743(4) 0.72501(12)
H4 H 0.4060 0.3051 0.7159
C9 C 0.4854(2) 0.4806(4) 0.64232(11)
C10 C 0.5206(2) 0.5832(3) 0.65557(11)
C11 C 0.5108(2) 0.6812(4) 0.63441(12)
H5 H 0.5336 0.7508 0.6438
C12 C 0.4678(2) 0.6804(4) 0.59914(12)
C13 C 0.4374(2) 0.5757(4) 0.58468(11)
C14 C 0.4459(2) 0.4772(4) 0.60715(12)
H6 H 0.4240 0.4069 0.5978
C15 C 0.5815(2) 0.3689(4) 0.67880(11)
C16 C 0.6163(2) 0.4708(3) 0.69198(11)
C17 C 0.6909(2) 0.4715(4) 0.70174(11)
H7 H 0.7146 0.5406 0.7109
C18 C 0.7325(2) 0.3732(4) 0.69845(11)
C19 C 0.6972(2) 0.2704(3) 0.68548(11)
C20 C 0.6213(2) 0.2710(4) 0.67578(11)
H8 H 0.5969 0.2021 0.6669
C21 C 0.4374(3) 0.5847(4) 0.80523(13)
C22 C 0.3683(3) 0.6095(5) 0.81201(15)
H9 H 0.3274 0.5874 0.7943
C23 C 0.3578(4) 0.6653(5) 0.84390(17)
H10 H 0.3098 0.6810 0.8476
C24 C 0.4158(4) 0.6987(6) 0.87043(17)
C25 C 0.4845(4) 0.6752(5) 0.86396(16)
H11 H 0.5252 0.6971 0.8818
C26 C 0.4955(3) 0.6199(4) 0.83164(14)
H12 H 0.5435 0.6061 0.8277
C27 C 0.4034(5) 0.7582(8) 0.9062(2)
C28 C 0.4441(12) 0.6942(17) 0.9395(3)
H13 H 0.4947 0.6839 0.9366
H14 H 0.4422 0.7387 0.9620
H15 H 0.4217 0.6187 0.9413
C29 C 0.4386(9) 0.8814(10) 0.9053(4)
H16 H 0.4132 0.9245 0.8839
H17 H 0.4348 0.9230 0.9281
H18 H 0.4898 0.8732 0.9032
C30 C 0.3238(6) 0.7794(13) 0.9075(4)
H19 H 0.3013 0.8209 0.8852
H20 H 0.2992 0.7054 0.9088
H21 H 0.3197 0.8254 0.9294
C31 C 0.3699(2) 0.3556(4) 0.77986(12)
C32 C 0.3041(2) 0.3090(4) 0.76309(13)
H22 H 0.2869 0.3237 0.7376
C33 C 0.2633(2) 0.2419(4) 0.78267(13)
H23 H 0.2190 0.2098 0.7702
C34 C 0.2851(2) 0.2201(4) 0.81988(13)
C35 C 0.3507(2) 0.2663(4) 0.83666(13)
H24 H 0.3676 0.2521 0.8622
C36 C 0.3925(3) 0.3330(4) 0.81705(13)
H25 H 0.4373 0.3635 0.8294
C37 C 0.2388(3) 0.1447(5) 0.84076(14)
C38 C 0.2337(4) 0.0234(5) 0.82435(19)
H26 H 0.2143 0.0276 0.7978
H27 H 0.2820 -0.0115 0.8281
H28 H 0.2015 -0.0236 0.8366
C39 C 0.2687(3) 0.1372(6) 0.88175(15)
H29 H 0.3181 0.1064 0.8854
H30 H 0.2694 0.2142 0.8928
H31 H 0.2381 0.0861 0.8936
C40 C 0.1622(3) 0.1927(7) 0.8358(2)
H32 H 0.1420 0.1981 0.8094
H33 H 0.1320 0.1414 0.8479
H34 H 0.1633 0.2694 0.8470
C41 C 0.4517(3) 0.7925(4) 0.57950(12)
C42 C 0.3811(3) 0.8210(4) 0.56361(13)
H35 H 0.3439 0.7653 0.5633
C43 C 0.3636(3) 0.9284(4) 0.54821(14)
H36 H 0.3147 0.9449 0.5376
C44 C 0.4166(3) 1.0128(4) 0.54808(15)
C45 C 0.4868(3) 0.9833(4) 0.56332(16)
H37 H 0.5242 1.0383 0.5632
C46 C 0.5043(3) 0.8752(4) 0.57892(14)
H38 H 0.5532 0.8582 0.5893
C47 C 0.3948(3) 1.1326(5) 0.53231(18)
C48 C 0.3404(4) 1.1856(5) 0.5542(2)
H39 H 0.2986 1.1342 0.5530
H40 H 0.3636 1.1959 0.5800
H41 H 0.3242 1.2605 0.5435
C49 C 0.4584(4) 1.2141(5) 0.5348(2)
H42 H 0.4821 1.2219 0.5607
H43 H 0.4931 1.1835 0.5201
H44 H 0.4412 1.2898 0.5251
C50 C 0.3576(5) 1.1200(6) 0.4921(2)
H45 H 0.3164 1.0672 0.4906
H46 H 0.3403 1.1956 0.4823
H47 H 0.3921 1.0893 0.4774
C51 C 0.3996(2) 0.5637(4) 0.54568(11)
C52 C 0.3320(2) 0.5148(4) 0.53633(12)
H48 H 0.3076 0.4892 0.5554
C53 C 0.2984(3) 0.5021(4) 0.49966(13)
H49 H 0.2513 0.4693 0.4941
C54 C 0.3330(3) 0.5368(4) 0.47103(12)
C55 C 0.4013(3) 0.5834(5) 0.48065(13)
H50 H 0.4266 0.6066 0.4616
C56 C 0.4340(3) 0.5973(4) 0.51683(12)
H51 H 0.4810 0.6306 0.5223
C57 C 0.2984(3) 0.5250(6) 0.43029(14)
C58 C 0.2221(3) 0.4806(7) 0.42456(17)
H52 H 0.1924 0.5317 0.4370
H53 H 0.2024 0.4783 0.3980
H54 H 0.2218 0.4028 0.4349
C59 C 0.3448(4) 0.4462(7) 0.41108(19)
H55 H 0.3946 0.4755 0.4149
H56 H 0.3446 0.3684 0.4214
H57 H 0.3252 0.4439 0.3845
C60 C 0.2974(5) 0.6441(7) 0.41206(19)
H58 H 0.3468 0.6748 0.4155
H59 H 0.2781 0.6372 0.3856
H60 H 0.2667 0.6964 0.4235
C61 C 0.8124(2) 0.3867(4) 0.71008(12)
C62 C 0.8607(2) 0.3669(4) 0.68632(14)
H61 H 0.8434 0.3358 0.6625
C63 C 0.9339(3) 0.3916(4) 0.69667(15)
H62 H 0.9655 0.3778 0.6796
C64 C 0.9620(2) 0.4360(4) 0.73124(16)
C65 C 0.9139(2) 0.4516(4) 0.75506(15)
H63 H 0.9317 0.4791 0.7793
C66 C 0.8406(2) 0.4289(4) 0.74509(13)
H64 H 0.8092 0.4422 0.7624
C67 C 1.0421(3) 0.4683(5) 0.74146(18)
C68 C 1.0624(5) 0.5071(12) 0.7822(3)
H65 H 1.0305 0.5702 0.7868
H66 H 1.0569 0.4422 0.7985
H67 H 1.1128 0.5336 0.7870
C69 C 1.0904(4) 0.3718(7) 0.7338(3)
H68 H 1.1411 0.3955 0.7406
H69 H 1.0816 0.3040 0.7483
H70 H 1.0799 0.3527 0.7074
C70 C 1.0552(5) 0.5758(8) 0.7187(4)
H71 H 1.0234 0.6384 0.7239
H72 H 1.1059 0.6000 0.7255
H73 H 1.0446 0.5571 0.6923
C71 C 0.7355(2) 0.1596(4) 0.68204(12)
C72 C 0.7142(3) 0.0860(4) 0.65237(13)
H74 H 0.6773 0.1104 0.6328
C73 C 0.7449(3) -0.0220(4) 0.65037(14)
H75 H 0.7283 -0.0696 0.6295
C74 C 0.7988(2) -0.0621(4) 0.67796(12)
C75 C 0.8213(2) 0.0121(4) 0.70715(12)
H76 H 0.8592 -0.0116 0.7264
C76 C 0.7906(2) 0.1196(4) 0.70934(12)
H77 H 0.8077 0.1672 0.7301
C77 C 0.8311(3) -0.1831(4) 0.67707(14)
C78 C 0.8882(7) -0.2085(9) 0.7106(3)
H78 H 0.9268 -0.1507 0.7125
H79 H 0.8662 -0.2060 0.7329
H80 H 0.9086 -0.2852 0.7081
C79 C 0.8685(8) -0.1892(9) 0.6425(3)
H81 H 0.9085 -0.1338 0.6452
H82 H 0.8873 -0.2671 0.6402
H83 H 0.8332 -0.1705 0.6203
C80 C 0.7699(6) -0.2688(9) 0.6723(4)
H84 H 0.7344 -0.2488 0.6503
H85 H 0.7889 -0.3462 0.6694
H86 H 0.7465 -0.2670 0.6942
C81 C 1.029(3) 0.298(5) 0.4400(15)
H87 H 0.9763 0.3113 0.4350
H88 H 1.0502 0.3388 0.4627
H89 H 1.0499 0.3278 0.4192
C82 C 1.047(3) 0.145(4) 0.4454(16)
H90 H 1.0201 0.1218 0.4652
H91 H 1.0198 0.1110 0.4224
C83 C 1.129(3) 0.060(4) 0.4548(14)
H92 H 1.1519 0.0785 0.4332
H93 H 1.1577 0.1025 0.4757
C84 C 1.159(2) -0.086(5) 0.4648(14)
H94 H 1.1328 -0.1301 0.4435
H95 H 1.2102 -0.0841 0.4610
C85 C 1.162(2) -0.185(5) 0.5028(15)
H96 H 1.1906 -0.1425 0.5238
H97 H 1.1944 -0.2467 0.4969
C86 C 1.096(3) -0.262(5) 0.5241(13)
H98 H 1.1216 -0.3080 0.5448
H99 H 1.0641 -0.2069 0.5332
H100 H 1.0679 -0.3130 0.5058
C87? C 1.0829(10) 0.444(2) 0.7090(5)
H101? H 1.0746 0.3640 0.7009
H102? H 1.0649 0.4960 0.6884
H103? H 1.1349 0.4569 0.7172
C88? C 1.0522(10) 0.5879(11) 0.7551(7)
H104? H 1.1041 0.6050 0.7613
H105? H 1.0292 0.6411 0.7358
H106? H 1.0301 0.5969 0.7772
C89? C 1.0764(9) 0.3810(15) 0.7719(6)
H107? H 1.0691 0.3023 0.7623
H108? H 1.1284 0.3964 0.7788
H109? H 1.0533 0.3894 0.7937
C90? C 0.7862(8) -0.2630(12) 0.6495(4)
H110? H 0.7360 -0.2636 0.6537
H111? H 0.7873 -0.2359 0.6243
H112? H 0.8062 -0.3411 0.6525
C91? C 0.8308(9) -0.2427(10) 0.7157(3)
H113? H 0.7808 -0.2493 0.7199
H114? H 0.8523 -0.3197 0.7157
H115? H 0.8590 -0.1962 0.7353
C92? C 0.9088(6) -0.1763(11) 0.6727(5)
H116? H 0.9348 -0.1236 0.6913
H117? H 0.9307 -0.2531 0.6761
H118? H 0.9118 -0.1479 0.6479
C93? C 0.3392(15) 0.838(3) 0.9023(9)
H119? H 0.2980 0.8026 0.8860
H120? H 0.3264 0.8516 0.9267
H121? H 0.3513 0.9113 0.8917
C94? C 0.376(2) 0.6533(18) 0.9286(7)
H122? H 0.4143 0.5941 0.9330
H123? H 0.3662 0.6812 0.9523
H124? H 0.3323 0.6202 0.9141
C95? C 0.4720(11) 0.799(4) 0.9306(8)
H125? H 0.5100 0.7412 0.9311
H126? H 0.4877 0.8718 0.9207
H127? H 0.4628 0.8122 0.9557
loop_
_geom_bond_atom_site_label_1
_geom_bond_atom_site_label_2
_geom_bond_site_symmetry_1
_geom_bond_site_symmetry_2
C1 H1 1_555 1_555
C2 H2 1_555 1_555
C3 C1 1_555 1_555
C4 C2 1_555 1_555
C5 C4 1_555 1_555
H3 C5 1_555 1_555
C6 C5 1_555 1_555
C7 C6 1_555 1_555
C8 C3 1_555 1_555
H4 C8 1_555 1_555
C9 C1 1_555 1_555
C10 C2 1_555 1_555
C11 C10 1_555 1_555
H5 C11 1_555 1_555
C12 C11 1_555 1_555
C13 C12 1_555 1_555
C14 C9 1_555 1_555
H6 C14 1_555 1_555
C15 C1 1_555 1_555
C16 C2 1_555 1_555
C17 C16 1_555 1_555
H7 C17 1_555 1_555
C18 C17 1_555 1_555
C19 C18 1_555 1_555
C20 C15 1_555 1_555
H8 C20 1_555 1_555
C21 C6 1_555 1_555
C22 C21 1_555 1_555
H9 C22 1_555 1_555
C23 C22 1_555 1_555
H10 C23 1_555 1_555
C24 C23 1_555 1_555
C25 C24 1_555 1_555
H11 C25 1_555 1_555
C26 C21 1_555 1_555
H12 C26 1_555 1_555
C27 C24 1_555 1_555
C28 C27 1_555 1_555
H13 C28 1_555 1_555
H14 C28 1_555 1_555
H15 C28 1_555 1_555
C29 C27 1_555 1_555
H16 C29 1_555 1_555
H17 C29 1_555 1_555
H18 C29 1_555 1_555
C30 C27 1_555 1_555
H19 C30 1_555 1_555
H20 C30 1_555 1_555
H21 C30 1_555 1_555
C31 C7 1_555 1_555
C32 C31 1_555 1_555
H22 C32 1_555 1_555
C33 C32 1_555 1_555
H23 C33 1_555 1_555
C34 C33 1_555 1_555
C35 C34 1_555 1_555
H24 C35 1_555 1_555
C36 C31 1_555 1_555
H25 C36 1_555 1_555
C37 C34 1_555 1_555
C38 C37 1_555 1_555
H26 C38 1_555 1_555
H27 C38 1_555 1_555
H28 C38 1_555 1_555
C39 C37 1_555 1_555
H29 C39 1_555 1_555
H30 C39 1_555 1_555
H31 C39 1_555 1_555
C40 C37 1_555 1_555
H32 C40 1_555 1_555
H33 C40 1_555 1_555
H34 C40 1_555 1_555
C41 C12 1_555 1_555
C42 C41 1_555 1_555
H35 C42 1_555 1_555
C43 C42 1_555 1_555
H36 C43 1_555 1_555
C44 C43 1_555 1_555
C45 C44 1_555 1_555
H37 C45 1_555 1_555
C46 C41 1_555 1_555
H38 C46 1_555 1_555
C47 C44 1_555 1_555
C48 C47 1_555 1_555
H39 C48 1_555 1_555
H40 C48 1_555 1_555
H41 C48 1_555 1_555
C49 C47 1_555 1_555
H42 C49 1_555 1_555
H43 C49 1_555 1_555
H44 C49 1_555 1_555
C50 C47 1_555 1_555
H45 C50 1_555 1_555
H46 C50 1_555 1_555
H47 C50 1_555 1_555
C51 C13 1_555 1_555
C52 C51 1_555 1_555
H48 C52 1_555 1_555
C53 C52 1_555 1_555
H49 C53 1_555 1_555
C54 C53 1_555 1_555
C55 C54 1_555 1_555
H50 C55 1_555 1_555
C56 C51 1_555 1_555
H51 C56 1_555 1_555
C57 C54 1_555 1_555
C58 C57 1_555 1_555
H52 C58 1_555 1_555
H53 C58 1_555 1_555
H54 C58 1_555 1_555
C59 C57 1_555 1_555
H55 C59 1_555 1_555
H56 C59 1_555 1_555
H57 C59 1_555 1_555
C60 C57 1_555 1_555
H58 C60 1_555 1_555
H59 C60 1_555 1_555
H60 C60 1_555 1_555
C61 C18 1_555 1_555
C62 C61 1_555 1_555
H61 C62 1_555 1_555
C63 C62 1_555 1_555
H62 C63 1_555 1_555
C64 C63 1_555 1_555
C65 C64 1_555 1_555
H63 C65 1_555 1_555
C66 C61 1_555 1_555
H64 C66 1_555 1_555
C67 C64 1_555 1_555
C68 C67 1_555 1_555
H65 C68 1_555 1_555
H66 C68 1_555 1_555
H67 C68 1_555 1_555
C69 C67 1_555 1_555
H68 C69 1_555 1_555
H69 C69 1_555 1_555
H70 C69 1_555 1_555
C70 C67 1_555 1_555
H71 C70 1_555 1_555
H72 C70 1_555 1_555
H73 C70 1_555 1_555
C71 C19 1_555 1_555
C72 C71 1_555 1_555
H74 C72 1_555 1_555
C73 C72 1_555 1_555
H75 C73 1_555 1_555
C74 C73 1_555 1_555
C75 C74 1_555 1_555
H76 C75 1_555 1_555
C76 C71 1_555 1_555
H77 C76 1_555 1_555
C77 C74 1_555 1_555
C78 C77 1_555 1_555
H78 C78 1_555 1_555
H79 C78 1_555 1_555
H80 C78 1_555 1_555
C79 C77 1_555 1_555
H81 C79 1_555 1_555
H82 C79 1_555 1_555
H83 C79 1_555 1_555
C80 C77 1_555 1_555
H84 C80 1_555 1_555
H85 C80 1_555 1_555
H86 C80 1_555 1_555
C81 H87 1_555 1_555
H88 C81 1_555 1_555
H89 C81 1_555 1_555
C82 C81 1_555 1_555
H90 C82 1_555 1_555
H91 C82 1_555 1_555
C83 C82 1_555 1_555
H92 C83 1_555 1_555
H93 C83 1_555 1_555
C84 C83 1_555 1_555
H94 C84 1_555 1_555
H95 C84 1_555 1_555
C85 C84 1_555 1_555
H96 C85 1_555 1_555
H97 C85 1_555 1_555
C86 C85 1_555 1_555
H98 C86 1_555 1_555
H99 C86 1_555 1_555
H100 C86 1_555 1_555
C3 C4 1_555 1_555
C7 C8 1_555 1_555
C9 C10 1_555 1_555
C13 C14 1_555 1_555
C15 C16 1_555 1_555
C19 C20 1_555 1_555
C25 C26 1_555 1_555
C35 C36 1_555 1_555
C45 C46 1_555 1_555
C55 C56 1_555 1_555
C65 C66 1_555 1_555
C75 C76 1_555 1_555

#END
