
#######################################################################
#
#                 Cambridge Crystallographic Data Centre
#                                CCDC 
#
#######################################################################
#
# If this CIF has been generated from an entry in the Cambridge 
# Structural Database, then it will include bibliographic, chemical, 
# crystal, experimental, refinement or atomic coordinate data resulting 
# from the CCDC's data processing and validation procedures.
#
#######################################################################

data_VUQWIP
_chemical_formula_moiety         'C80 H86'
_chemical_name_systematic        
4,5,11,12,17,18-hexakis(3-t-butylphenyl)pentacyclo[6.6.6.0^2,7^.0^9,14^.0^15,20^]icosa-2,4,6,9,11,13,15,17,19-nonaene
_symmetry_cell_setting           monoclinic
_symmetry_space_group_name_H-M   'P 21/n'
_symmetry_Int_Tables_number      14
_space_group_name_Hall           '-P 2yn'
loop_
_symmetry_equiv_pos_site_id
_symmetry_equiv_pos_as_xyz
1 x,y,z
2 1/2-x,1/2+y,1/2-z
3 -x,-y,-z
4 1/2+x,1/2-y,1/2+z
_cell_length_a                   22.557(3)
_cell_length_b                   13.1345(18)
_cell_length_c                   23.298(3)
_cell_angle_alpha                90
_cell_angle_beta                 112.701(4)
_cell_angle_gamma                90
_cell_volume                     6367.88
_exptl_crystal_colour            colorless
_exptl_crystal_description       plate
_cell_formula_units_Z            4
loop_
_atom_site_label
_atom_site_type_symbol
_atom_site_fract_x
_atom_site_fract_y
_atom_site_fract_z
C1 C 0.5388(3) 0.4732(4) 0.7319(2)
H1 H 0.5820 0.4406 0.7439
C2 C 0.4266(3) 0.5575(4) 0.7013(2)
H2 H 0.3835 0.5903 0.6894
C3 C 0.5328(3) 0.5375(4) 0.7835(3)
C4 C 0.4726(3) 0.5818(4) 0.7679(2)
C5 C 0.4595(3) 0.6416(4) 0.8104(3)
H3 H 0.4177 0.6693 0.7998
C6 C 0.5075(3) 0.6618(4) 0.8689(3)
C7 C 0.5695(3) 0.6218(4) 0.8835(3)
C8 C 0.5808(3) 0.5575(4) 0.8403(3)
H4 H 0.6220 0.5277 0.8506
C9 C 0.4841(3) 0.3966(4) 0.7133(2)
C10 C 0.4237(3) 0.4401(4) 0.6989(3)
C11 C 0.3700(3) 0.3803(4) 0.6833(3)
H5 H 0.3296 0.4109 0.6763
C12 C 0.3738(3) 0.2739(4) 0.6775(3)
C13 C 0.4342(3) 0.2313(4) 0.6858(3)
C14 C 0.4889(3) 0.2932(4) 0.7055(3)
H6 H 0.5298 0.2638 0.7136
C15 C 0.5218(3) 0.5431(4) 0.6757(3)
C16 C 0.4615(3) 0.5874(4) 0.6589(3)
C17 C 0.4394(3) 0.6506(4) 0.6074(3)
H7 H 0.3983 0.6815 0.5955
C18 C 0.4771(3) 0.6699(4) 0.5720(3)
C19 C 0.5381(3) 0.6261(4) 0.5912(3)
C20 C 0.5597(3) 0.5624(4) 0.6429(3)
H8 H 0.6010 0.5320 0.6556
C21 C 0.4920(3) 0.7258(4) 0.9140(3)
C22 C 0.5060(3) 0.6935(5) 0.9745(3)
H9 H 0.5246 0.6280 0.9864
C23 C 0.4944(3) 0.7517(5) 1.0185(3)
C24 C 0.4668(3) 0.8476(5) 0.9992(3)
H10 H 0.4582 0.8903 1.0280
C25 C 0.4521(3) 0.8810(5) 0.9397(3)
H11 H 0.4337 0.9466 0.9280
C26 C 0.4634(3) 0.8207(5) 0.8962(3)
H12 H 0.4518 0.8439 0.8547
C27 C 0.5106(3) 0.7149(5) 1.0848(3)
C28 C 0.6257(3) 0.6515(4) 0.9404(3)
C29 C 0.6387(3) 0.7540(4) 0.9551(3)
H13 H 0.6096 0.8033 0.9296
C30 C 0.6924(3) 0.7876(4) 1.0053(3)
C31 C 0.7340(3) 0.7141(5) 1.0411(3)
H14 H 0.7714 0.7343 1.0754
C32 C 0.7226(3) 0.6118(5) 1.0281(3)
H15 H 0.7519 0.5628 1.0536
C33 C 0.6687(3) 0.5803(5) 0.9783(3)
H16 H 0.6610 0.5097 0.9699
C34 C 0.7025(3) 0.9008(5) 1.0206(3)
C35 C 0.3152(3) 0.2106(4) 0.6653(3)
C36 C 0.3200(3) 0.1193(4) 0.6971(3)
H17 H 0.3609 0.0997 0.7268
C37 C 0.2676(3) 0.0549(5) 0.6874(3)
C38 C 0.2087(3) 0.0880(5) 0.6447(3)
H18 H 0.1720 0.0463 0.6364
C39 C 0.2020(3) 0.1796(5) 0.6141(3)
H19 H 0.1606 0.2008 0.5862
C40 C 0.2544(3) 0.2406(5) 0.6233(3)
H20 H 0.2493 0.3029 0.6011
C41 C 0.2777(3) -0.0458(5) 0.7220(3)
C42 C 0.4423(3) 0.1231(4) 0.6702(3)
C43 C 0.4949(3) 0.0675(4) 0.7103(3)
H21 H 0.5221 0.0979 0.7484
C44 C 0.5092(3) -0.0305(4) 0.6967(3)
C45 C 0.4675(3) -0.0727(5) 0.6410(3)
H22 H 0.4754 -0.1397 0.6303
C46 C 0.4150(3) -0.0200(5) 0.6007(3)
H23 H 0.3873 -0.0513 0.5632
C47 C 0.4024(3) 0.0780(4) 0.6144(3)
H24 H 0.3668 0.1145 0.5860
C48 C 0.5682(3) -0.0875(4) 0.7408(3)
C49 C 0.4528(3) 0.7387(4) 0.5167(3)
C50 C 0.3928(3) 0.7214(5) 0.4687(3)
H25 H 0.3668 0.6673 0.4728
C51 C 0.3703(3) 0.7815(5) 0.4149(3)
C52 C 0.4092(4) 0.8602(5) 0.4108(3)
H26 H 0.3953 0.9012 0.3744
C53 C 0.4674(4) 0.8809(5) 0.4577(3)
H27 H 0.4925 0.9366 0.4540
C54 C 0.4895(3) 0.8207(4) 0.5104(3)
H28 H 0.5299 0.8350 0.5426
C55 C 0.3064(3) 0.7585(6) 0.3627(3)
C56 C 0.5810(3) 0.6423(4) 0.5563(3)
C57 C 0.6390(3) 0.6922(4) 0.5852(3)
H29 H 0.6519 0.7112 0.6277
C58 C 0.6793(3) 0.7156(4) 0.5542(3)
C59 C 0.6602(3) 0.6842(5) 0.4934(3)
H30 H 0.6867 0.6988 0.4711
C60 C 0.6032(3) 0.6318(5) 0.4639(3)
H31 H 0.5918 0.6093 0.4223
C61 C 0.5627(3) 0.6119(5) 0.4943(3)
H32 H 0.5229 0.5779 0.4734
C62 C 0.7412(3) 0.7747(5) 0.5880(3)
C63 C 0.5346(4) 0.6044(5) 1.0959(4)
H33 H 0.5021 0.5593 1.0669
H34 H 0.5747 0.5986 1.0891
H35 H 0.5423 0.5847 1.1387
C64 C 0.5631(4) 0.7793(6) 1.1309(4)
H36 H 0.6014 0.7769 1.1209
H37 H 0.5482 0.8498 1.1287
H38 H 0.5735 0.7528 1.1730
C65 C 0.4517(4) 0.7196(8) 1.1011(4)
H39 H 0.4173 0.6782 1.0715
H40 H 0.4625 0.6934 1.1433
H41 H 0.4372 0.7904 1.0989
C66 C 0.7702(5) 0.9276(9) 1.0628(8)
H42 H 0.7997 0.9080 1.0430
H43 H 0.7733 1.0011 1.0706
H44 H 0.7817 0.8912 1.1024
C67 C 0.6576(7) 0.9312(9) 1.0516(8)
H45 H 0.6134 0.9140 1.0244
H46 H 0.6693 0.8948 1.0912
H47 H 0.6609 1.0047 1.0594
C68 C 0.6846(9) 0.9660(9) 0.9615(5)
H48 H 0.6406 0.9501 0.9331
H49 H 0.6875 1.0383 0.9728
H50 H 0.7143 0.9513 0.9410
C69 C 0.2973(4) -0.0224(6) 0.7909(3)
H51 H 0.3041 -0.0863 0.8143
H52 H 0.3372 0.0171 0.8057
H53 H 0.2633 0.0169 0.7970
C70 C 0.3323(3) -0.1067(5) 0.7146(3)
H54 H 0.3380 -0.1712 0.7373
H55 H 0.3217 -0.1206 0.6704
H56 H 0.3722 -0.0673 0.7315
C71 C 0.2181(3) -0.1131(5) 0.7007(4)
H57 H 0.2277 -0.1765 0.7247
H58 H 0.1831 -0.0773 0.7072
H59 H 0.2051 -0.1288 0.6564
C72 C 0.6158(5) -0.0193(8) 0.7882(6)
H60 H 0.6303 0.0335 0.7669
H61 H 0.5955 0.0126 0.8140
H62 H 0.6528 -0.0597 0.8147
C73 C 0.6028(5) -0.1377(10) 0.7028(5)
H63 H 0.5728 -0.1828 0.6714
H64 H 0.6181 -0.0849 0.6822
H65 H 0.6394 -0.1774 0.7306
C74 C 0.5442(5) -0.1709(9) 0.7712(6)
H66 H 0.5133 -0.2137 0.7390
H67 H 0.5805 -0.2127 0.7975
H68 H 0.5231 -0.1404 0.7968
C75 C 0.2520(5) 0.7758(10) 0.3855(5)
H69 H 0.2541 0.8458 0.4008
H70 H 0.2105 0.7647 0.3511
H71 H 0.2566 0.7281 0.4193
C76 C 0.3055(5) 0.6527(7) 0.3388(5)
H72 H 0.2638 0.6395 0.3051
H73 H 0.3397 0.6452 0.3230
H74 H 0.3123 0.6039 0.3726
C77 C 0.2912(6) 0.8357(9) 0.3077(5)
H75 H 0.2917 0.9052 0.3233
H76 H 0.3237 0.8294 0.2896
H77 H 0.2486 0.8210 0.2758
C78 C 0.7281(4) 0.8702(6) 0.6173(5)
H78 H 0.6977 0.9133 0.5850
H79 H 0.7097 0.8517 0.6478
H80 H 0.7684 0.9074 0.6383
C79 C 0.7881(4) 0.7089(7) 0.6383(4)
H81 H 0.7969 0.6468 0.6197
H82 H 0.8283 0.7465 0.6592
H83 H 0.7696 0.6908 0.6688
C80 C 0.7745(4) 0.8057(7) 0.5452(4)
H84 H 0.7835 0.7448 0.5255
H85 H 0.7466 0.8517 0.5130
H86 H 0.8149 0.8404 0.5693
C81? C 0.6433(8) 0.9657(13) 0.9873(12)
H87? H 0.6294 0.9566 0.9423
H88? H 0.6086 0.9448 1.0003
H89? H 0.6537 1.0375 0.9979
C82? C 0.7553(10) 0.9401(14) 1.0006(13)
H90? H 0.7945 0.9002 1.0211
H91? H 0.7412 0.9336 0.9553
H92? H 0.7639 1.0119 1.0124
C83? C 0.7249(15) 0.9138(16) 1.0908(6)
H93? H 0.7630 0.8716 1.1117
H94? H 0.7355 0.9855 1.1017
H95? H 0.6905 0.8928 1.1041
C84? C 0.5696(13) -0.1978(11) 0.7228(12)
H96? H 0.5681 -0.2016 0.6802
H97? H 0.6093 -0.2298 0.7514
H98? H 0.5324 -0.2335 0.7250
C85? C 0.5706(14) -0.083(2) 0.8072(7)
H99? H 0.5697 -0.0115 0.8192
H100? H 0.5334 -0.1187 0.8092
H101? H 0.6102 -0.1150 0.8356
C86? C 0.6284(8) -0.0334(19) 0.7406(15)
H102? H 0.6277 0.0382 0.7522
H103? H 0.6669 -0.0665 0.7704
H104? H 0.6291 -0.0372 0.6988
C87? C 0.3186(12) 0.723(2) 0.3050(9)
H105? H 0.3497 0.6668 0.3167
H106? H 0.2781 0.6994 0.2728
H107? H 0.3357 0.7797 0.2888
C88? C 0.2592(11) 0.8437(17) 0.3470(14)
H108? H 0.2194 0.8228 0.3130
H109? H 0.2500 0.8612 0.3836
H110? H 0.2772 0.9031 0.3340
C89? C 0.2774(12) 0.6611(17) 0.3806(12)
H111? H 0.3089 0.6057 0.3908
H112? H 0.2668 0.6759 0.4168
H113? H 0.2384 0.6407 0.3455
loop_
_geom_bond_atom_site_label_1
_geom_bond_atom_site_label_2
_geom_bond_site_symmetry_1
_geom_bond_site_symmetry_2
C1 H1 1_555 1_555
C2 H2 1_555 1_555
C3 C1 1_555 1_555
C4 C2 1_555 1_555
C5 C4 1_555 1_555
H3 C5 1_555 1_555
C6 C5 1_555 1_555
C7 C6 1_555 1_555
C8 C3 1_555 1_555
H4 C8 1_555 1_555
C9 C1 1_555 1_555
C10 C2 1_555 1_555
C11 C10 1_555 1_555
H5 C11 1_555 1_555
C12 C11 1_555 1_555
C13 C12 1_555 1_555
C14 C9 1_555 1_555
H6 C14 1_555 1_555
C15 C1 1_555 1_555
C16 C2 1_555 1_555
C17 C16 1_555 1_555
H7 C17 1_555 1_555
C18 C17 1_555 1_555
C19 C18 1_555 1_555
C20 C15 1_555 1_555
H8 C20 1_555 1_555
C21 C6 1_555 1_555
C22 C21 1_555 1_555
H9 C22 1_555 1_555
C23 C22 1_555 1_555
C24 C23 1_555 1_555
H10 C24 1_555 1_555
C25 C24 1_555 1_555
H11 C25 1_555 1_555
C26 C21 1_555 1_555
H12 C26 1_555 1_555
C27 C23 1_555 1_555
C28 C7 1_555 1_555
C29 C28 1_555 1_555
H13 C29 1_555 1_555
C30 C29 1_555 1_555
C31 C30 1_555 1_555
H14 C31 1_555 1_555
C32 C31 1_555 1_555
H15 C32 1_555 1_555
C33 C28 1_555 1_555
H16 C33 1_555 1_555
C34 C30 1_555 1_555
C35 C12 1_555 1_555
C36 C35 1_555 1_555
H17 C36 1_555 1_555
C37 C36 1_555 1_555
C38 C37 1_555 1_555
H18 C38 1_555 1_555
C39 C38 1_555 1_555
H19 C39 1_555 1_555
C40 C35 1_555 1_555
H20 C40 1_555 1_555
C41 C37 1_555 1_555
C42 C13 1_555 1_555
C43 C42 1_555 1_555
H21 C43 1_555 1_555
C44 C43 1_555 1_555
C45 C44 1_555 1_555
H22 C45 1_555 1_555
C46 C45 1_555 1_555
H23 C46 1_555 1_555
C47 C42 1_555 1_555
H24 C47 1_555 1_555
C48 C44 1_555 1_555
C49 C18 1_555 1_555
C50 C49 1_555 1_555
H25 C50 1_555 1_555
C51 C50 1_555 1_555
C52 C51 1_555 1_555
H26 C52 1_555 1_555
C53 C52 1_555 1_555
H27 C53 1_555 1_555
C54 C49 1_555 1_555
H28 C54 1_555 1_555
C55 C51 1_555 1_555
C56 C19 1_555 1_555
C57 C56 1_555 1_555
H29 C57 1_555 1_555
C58 C57 1_555 1_555
C59 C58 1_555 1_555
H30 C59 1_555 1_555
C60 C59 1_555 1_555
H31 C60 1_555 1_555
C61 C56 1_555 1_555
H32 C61 1_555 1_555
C62 C58 1_555 1_555
C63 C27 1_555 1_555
H33 C63 1_555 1_555
H34 C63 1_555 1_555
H35 C63 1_555 1_555
C64 C27 1_555 1_555
H36 C64 1_555 1_555
H37 C64 1_555 1_555
H38 C64 1_555 1_555
C65 C27 1_555 1_555
H39 C65 1_555 1_555
H40 C65 1_555 1_555
H41 C65 1_555 1_555
C66 C34 1_555 1_555
H42 C66 1_555 1_555
H43 C66 1_555 1_555
H44 C66 1_555 1_555
C67 C34 1_555 1_555
H45 C67 1_555 1_555
H46 C67 1_555 1_555
H47 C67 1_555 1_555
C68 C34 1_555 1_555
H48 C68 1_555 1_555
H49 C68 1_555 1_555
H50 C68 1_555 1_555
C69 C41 1_555 1_555
H51 C69 1_555 1_555
H52 C69 1_555 1_555
H53 C69 1_555 1_555
C70 C41 1_555 1_555
H54 C70 1_555 1_555
H55 C70 1_555 1_555
H56 C70 1_555 1_555
C71 C41 1_555 1_555
H57 C71 1_555 1_555
H58 C71 1_555 1_555
H59 C71 1_555 1_555
C72 C48 1_555 1_555
H60 C72 1_555 1_555
H61 C72 1_555 1_555
H62 C72 1_555 1_555
C73 C48 1_555 1_555
H63 C73 1_555 1_555
H64 C73 1_555 1_555
H65 C73 1_555 1_555
C74 C48 1_555 1_555
H66 C74 1_555 1_555
H67 C74 1_555 1_555
H68 C74 1_555 1_555
C75 C55 1_555 1_555
H69 C75 1_555 1_555
H70 C75 1_555 1_555
H71 C75 1_555 1_555
C76 C55 1_555 1_555
H72 C76 1_555 1_555
H73 C76 1_555 1_555
H74 C76 1_555 1_555
C77 C55 1_555 1_555
H75 C77 1_555 1_555
H76 C77 1_555 1_555
H77 C77 1_555 1_555
C78 C62 1_555 1_555
H78 C78 1_555 1_555
H79 C78 1_555 1_555
H80 C78 1_555 1_555
C79 C62 1_555 1_555
H81 C79 1_555 1_555
H82 C79 1_555 1_555
H83 C79 1_555 1_555
C80 C62 1_555 1_555
H84 C80 1_555 1_555
H85 C80 1_555 1_555
H86 C80 1_555 1_555
C3 C4 1_555 1_555
C7 C8 1_555 1_555
C9 C10 1_555 1_555
C13 C14 1_555 1_555
C15 C16 1_555 1_555
C19 C20 1_555 1_555
C25 C26 1_555 1_555
C32 C33 1_555 1_555
C39 C40 1_555 1_555
C46 C47 1_555 1_555
C53 C54 1_555 1_555
C60 C61 1_555 1_555

#END
