
#######################################################################
#
#                 Cambridge Crystallographic Data Centre
#                                CCDC 
#
#######################################################################
#
# If this CIF has been generated from an entry in the Cambridge 
# Structural Database, then it will include bibliographic, chemical, 
# crystal, experimental, refinement or atomic coordinate data resulting 
# from the CCDC's data processing and validation procedures.
#
#######################################################################

data_VUQWUB
_chemical_formula_moiety         'C68 H56 O12,8(C1 H1 Cl3)'
_chemical_name_systematic        
'7,8,13,14,26,27,32,33,44,45,50,51-dodecamethoxytetradecacyclo[18.18.18.0^2,19^.0^4,17^.0^5,10^.0^11,16^.0^21,38^.0^23,36^.0^24,29^.0^30,35^.0^39,56^.0^41,54^.0^42,47^.0^48,53^]hexapentaconta-2,4,6,8,10,12,14,16,18,21,23,25,27,29,31,33,35,37,39,41,43,45,47,49,51,53,55-heptacosaene chloroform solvate'
_symmetry_cell_setting           monoclinic
_symmetry_space_group_name_H-M   'C 2/m'
_symmetry_Int_Tables_number      12
_space_group_name_Hall           '-C 2y'
loop_
_symmetry_equiv_pos_site_id
_symmetry_equiv_pos_as_xyz
1 x,y,z
2 -x,y,-z
3 1/2+x,1/2+y,z
4 1/2-x,1/2+y,-z
5 -x,-y,-z
6 x,-y,z
7 1/2-x,1/2-y,-z
8 1/2+x,1/2-y,z
_cell_length_a                   17.898(2)
_cell_length_b                   25.162(3)
_cell_length_c                   20.571(3)
_cell_angle_alpha                90
_cell_angle_beta                 107.287(2)
_cell_angle_gamma                90
_cell_volume                     8845.66
_exptl_crystal_colour            colorless
_exptl_crystal_description       needle
_cell_formula_units_Z            4
loop_
_atom_site_label
_atom_site_type_symbol
_atom_site_fract_x
_atom_site_fract_y
_atom_site_fract_z
C1 C 0.6763(4) 0.5517(3) 0.2966(3)
H1 H 0.6759 0.5915 0.2967
C2 C 0.6170(4) 0.5279(2) 0.2349(3)
C3 C 0.5660(4) 0.5552(3) 0.1821(3)
H2 H 0.5670 0.5930 0.1821
C4 C 0.5122(4) 0.5281(2) 0.1276(3)
C5 C 0.4576(4) 0.5569(3) 0.0714(3)
C6 C 0.4567(4) 0.6127(3) 0.0702(3)
H3 H 0.4915 0.6313 0.1071
C7 C 0.4081(4) 0.6412(3) 0.0185(4)
C8 C 0.3569(4) 0.6134(3) -0.0361(4)
C9 C 0.3557(4) 0.5593(3) -0.0359(3)
H4 H 0.3198 0.5412 -0.0727
C10 C 0.4063(4) 0.5292(3) 0.0174(3)
O1 O 0.4059(3) 0.69546(18) 0.0128(3)
C11 C 0.4566(5) 0.7247(3) 0.0683(4)
H5 H 0.4500 0.7629 0.0588
H6 H 0.4433 0.7167 0.1102
H7 H 0.5110 0.7146 0.0741
O2 O 0.3105(3) 0.64500(19) -0.0867(2)
C12 C 0.2516(5) 0.6203(3) -0.1390(4)
H8 H 0.2233 0.6472 -0.1714
H9 H 0.2754 0.5945 -0.1626
H10 H 0.2152 0.6019 -0.1193
C13 C 0.6576(4) 0.5275(2) 0.3584(3)
C14 C 0.6410(4) 0.5552(3) 0.4097(3)
H11 H 0.6411 0.5929 0.4089
C15 C 0.6237(4) 0.5281(2) 0.4640(3)
C16 C 0.6071(4) 0.5569(3) 0.5199(3)
C17 C 0.6068(4) 0.6130(3) 0.5215(4)
H12 H 0.6185 0.6319 0.4858
C18 C 0.5905(4) 0.6410(3) 0.5724(4)
C19 C 0.5738(4) 0.6133(3) 0.6256(4)
C20 C 0.5736(4) 0.5588(3) 0.6253(3)
H13 H 0.5616 0.5405 0.6614
C21 C 0.5905(4) 0.5289(3) 0.5731(3)
O3 O 0.5876(3) 0.69485(18) 0.5761(3)
C22 C 0.6072(6) 0.7241(3) 0.5243(4)
H14 H 0.6030 0.7622 0.5322
H15 H 0.6609 0.7156 0.5251
H16 H 0.5712 0.7146 0.4798
O4 O 0.5583(3) 0.64451(18) 0.6747(3)
C23 C 0.5421(6) 0.6182(3) 0.7306(4)
H17 H 0.5321 0.6447 0.7619
H18 H 0.4960 0.5954 0.7136
H19 H 0.5872 0.5964 0.7547
C24 C 0.7550(4) 0.5282(2) 0.2961(3)
C25 C 0.8201(4) 0.5550(3) 0.2940(3)
H20 H 0.8194 0.5927 0.2936
C26 C 0.8886(4) 0.5281(2) 0.2925(3)
C27 C 0.9583(4) 0.5570(3) 0.2887(3)
C28 C 0.9604(4) 0.6127(3) 0.2872(4)
H21 H 0.9150 0.6318 0.2884
C29 C 1.0245(4) 0.6406(3) 0.2842(5)
C30 C 1.0920(4) 0.6124(3) 0.2828(4)
C31 C 1.0915(4) 0.5584(3) 0.2835(4)
H22 H 1.1373 0.5398 0.2821
C32 C 1.0257(4) 0.5288(3) 0.2862(3)
O5 O 1.0304(3) 0.6946(2) 0.2835(4)
C33 C 0.9647(6) 0.7241(3) 0.2898(8)
H23 H 0.9754 0.7622 0.2886
H24 H 0.9184 0.7150 0.2520
H25 H 0.9553 0.7152 0.3330
O6 O 1.1545(3) 0.64367(18) 0.2807(3)
C34 C 1.2255(5) 0.6172(3) 0.2824(5)
H26 H 1.2653 0.6435 0.2807
H27 H 1.2440 0.5965 0.3246
H28 H 1.2162 0.5933 0.2432
C1E C 0.6763(4) 0.4483(3) 0.2966(3)
H1E H 0.6759 0.4085 0.2967
C2E C 0.6170(4) 0.4721(2) 0.2349(3)
C3E C 0.5660(4) 0.4448(3) 0.1821(3)
H2E H 0.5670 0.4070 0.1821
C4E C 0.5122(4) 0.4719(2) 0.1276(3)
C5E C 0.4576(4) 0.4431(3) 0.0714(3)
C6E C 0.4567(4) 0.3873(3) 0.0702(3)
H3E H 0.4915 0.3687 0.1071
C7E C 0.4081(4) 0.3588(3) 0.0185(4)
C8E C 0.3569(4) 0.3866(3) -0.0361(4)
C9E C 0.3557(4) 0.4407(3) -0.0359(3)
H4E H 0.3198 0.4588 -0.0727
C10E C 0.4063(4) 0.4708(3) 0.0174(3)
O1E O 0.4059(3) 0.30454(18) 0.0128(3)
C11E C 0.4566(5) 0.2753(3) 0.0683(4)
H5E H 0.4500 0.2371 0.0588
H6E H 0.4433 0.2833 0.1102
H7E H 0.5110 0.2854 0.0741
O2E O 0.3105(3) 0.35500(19) -0.0867(2)
C12E C 0.2516(5) 0.3797(3) -0.1390(4)
H8E H 0.2233 0.3528 -0.1714
H9E H 0.2754 0.4055 -0.1626
H10E H 0.2152 0.3981 -0.1193
C13E C 0.6576(4) 0.4725(2) 0.3584(3)
C14E C 0.6410(4) 0.4448(3) 0.4097(3)
H11E H 0.6411 0.4071 0.4089
C15E C 0.6237(4) 0.4719(2) 0.4640(3)
C16E C 0.6071(4) 0.4431(3) 0.5199(3)
C17E C 0.6068(4) 0.3870(3) 0.5215(4)
H12E H 0.6185 0.3681 0.4858
C18E C 0.5905(4) 0.3590(3) 0.5724(4)
C19E C 0.5738(4) 0.3867(3) 0.6256(4)
C20E C 0.5736(4) 0.4412(3) 0.6253(3)
H13E H 0.5616 0.4595 0.6614
C21E C 0.5905(4) 0.4711(3) 0.5731(3)
O3E O 0.5876(3) 0.30515(18) 0.5761(3)
C22E C 0.6072(6) 0.2759(3) 0.5243(4)
H14E H 0.6030 0.2378 0.5322
H15E H 0.6609 0.2844 0.5251
H16E H 0.5712 0.2854 0.4798
O4E O 0.5583(3) 0.35549(18) 0.6747(3)
C23E C 0.5421(6) 0.3818(3) 0.7306(4)
H17E H 0.5321 0.3553 0.7619
H18E H 0.4960 0.4046 0.7136
H19E H 0.5872 0.4036 0.7547
C24E C 0.7550(4) 0.4718(2) 0.2961(3)
C25E C 0.8201(4) 0.4450(3) 0.2940(3)
H20E H 0.8194 0.4073 0.2936
C26E C 0.8886(4) 0.4719(2) 0.2925(3)
C27E C 0.9583(4) 0.4430(3) 0.2887(3)
C28E C 0.9604(4) 0.3873(3) 0.2872(4)
H21E H 0.9150 0.3682 0.2884
C29E C 1.0245(4) 0.3594(3) 0.2842(5)
C30E C 1.0920(4) 0.3876(3) 0.2828(4)
C31E C 1.0915(4) 0.4416(3) 0.2835(4)
H22E H 1.1373 0.4602 0.2821
C32E C 1.0257(4) 0.4712(3) 0.2862(3)
O5E O 1.0304(3) 0.3054(2) 0.2835(4)
C33E C 0.9647(6) 0.2759(3) 0.2898(8)
H23E H 0.9754 0.2378 0.2886
H24E H 0.9184 0.2850 0.2520
H25E H 0.9553 0.2848 0.3330
O6E O 1.1545(3) 0.35633(18) 0.2807(3)
C34E C 1.2255(5) 0.3828(3) 0.2824(5)
H26E H 1.2653 0.3565 0.2807
H27E H 1.2440 0.4035 0.3246
H28E H 1.2162 0.4067 0.2432
C35 C 1.1750(4) 0.7674(3) 0.2966(3)
H29 H 1.1575 0.7295 0.2922
Cl1 Cl 1.1462(2) 0.79730(11) 0.36191(16)
Cl2 Cl 1.13230(19) 0.79979(10) 0.21970(14)
Cl3 Cl 1.27550(15) 0.76918(16) 0.31487(17)
C36 C 0.3031(4) 0.7865(3) -0.0812(4)
H30 H 0.3196 0.7488 -0.0699
Cl4 Cl 0.28881(17) 0.81630(10) -0.00902(13)
Cl5 Cl 0.21571(17) 0.78655(13) -0.14784(15)
Cl6 Cl 0.37681(17) 0.81903(11) -0.10536(16)
C37 C 0.2880(7) 0.5000 0.1242(5)
H31 H 0.3388 0.5000 0.1131
Cl7 Cl 0.2382(2) 0.44297(12) 0.09054(17)
Cl8 Cl 0.3095(2) 0.5000 0.2133(2)
Cl7E Cl 0.2382(2) 0.55703(12) 0.09054(17)
C38? C 0.5903(14) 0.8848(9) 0.5024(19)
H32? H 0.5985 0.8715 0.5499
Cl9? Cl 0.5744(15) 0.9537(7) 0.5039(17)
Cl10? Cl 0.6787(11) 0.8747(8) 0.4834(12)
Cl11? Cl 0.5278(8) 0.8393(5) 0.4478(7)
C39? C 0.6293(13) 0.9158(7) 0.4637(8)
H33? H 0.5742 0.9174 0.4332
Cl12? Cl 0.6297(7) 0.9043(6) 0.5496(3)
Cl13? Cl 0.6753(8) 0.8558(6) 0.4478(5)
Cl14? Cl 0.6840(4) 0.9746(6) 0.4498(4)
C40? C 0.5534(10) 1.0167(7) -0.0760(15)
H34? H 0.5733 1.0107 -0.0257
Cl15? Cl 0.5440(7) 1.0840(5) -0.0821(7)
Cl16? Cl 0.4667(6) 0.9805(6) -0.0994(4)
Cl17? Cl 0.6252(5) 0.9911(10) -0.1040(5)
loop_
_geom_bond_atom_site_label_1
_geom_bond_atom_site_label_2
_geom_bond_site_symmetry_1
_geom_bond_site_symmetry_2
C1 H1 1_555 1_555
C2 C1 1_555 1_555
C3 C2 1_555 1_555
H2 C3 1_555 1_555
C4 C3 1_555 1_555
C5 C4 1_555 1_555
C6 C5 1_555 1_555
H3 C6 1_555 1_555
C7 C6 1_555 1_555
C8 C7 1_555 1_555
C9 C8 1_555 1_555
H4 C9 1_555 1_555
C10 C5 1_555 1_555
O1 C7 1_555 1_555
C11 O1 1_555 1_555
H5 C11 1_555 1_555
H6 C11 1_555 1_555
H7 C11 1_555 1_555
O2 C8 1_555 1_555
C12 O2 1_555 1_555
H8 C12 1_555 1_555
H9 C12 1_555 1_555
H10 C12 1_555 1_555
C13 C1 1_555 1_555
C14 C13 1_555 1_555
H11 C14 1_555 1_555
C15 C14 1_555 1_555
C16 C15 1_555 1_555
C17 C16 1_555 1_555
H12 C17 1_555 1_555
C18 C17 1_555 1_555
C19 C18 1_555 1_555
C20 C19 1_555 1_555
H13 C20 1_555 1_555
C21 C16 1_555 1_555
O3 C18 1_555 1_555
C22 O3 1_555 1_555
H14 C22 1_555 1_555
H15 C22 1_555 1_555
H16 C22 1_555 1_555
O4 C19 1_555 1_555
C23 O4 1_555 1_555
H17 C23 1_555 1_555
H18 C23 1_555 1_555
H19 C23 1_555 1_555
C24 C1 1_555 1_555
C25 C24 1_555 1_555
H20 C25 1_555 1_555
C26 C25 1_555 1_555
C27 C26 1_555 1_555
C28 C27 1_555 1_555
H21 C28 1_555 1_555
C29 C28 1_555 1_555
C30 C29 1_555 1_555
C31 C30 1_555 1_555
H22 C31 1_555 1_555
C32 C27 1_555 1_555
O5 C29 1_555 1_555
C33 O5 1_555 1_555
H23 C33 1_555 1_555
H24 C33 1_555 1_555
H25 C33 1_555 1_555
O6 C30 1_555 1_555
C34 O6 1_555 1_555
H26 C34 1_555 1_555
H27 C34 1_555 1_555
H28 C34 1_555 1_555
C35 H29 1_555 1_555
Cl1 C35 1_555 1_555
Cl2 C35 1_555 1_555
Cl3 C35 1_555 1_555
C36 H30 1_555 1_555
Cl4 C36 1_555 1_555
Cl5 C36 1_555 1_555
Cl6 C36 1_555 1_555
C37 H31 1_555 1_555
Cl7 C37 1_555 1_555
Cl8 C37 1_555 1_555
C1E H1E 1_555 1_555
C2E C2 1_555 1_555
C3E C2E 1_555 1_555
H2E C3E 1_555 1_555
C4E C4 1_555 1_555
C5E C4E 1_555 1_555
C6E C5E 1_555 1_555
H3E C6E 1_555 1_555
C7E C6E 1_555 1_555
C8E C7E 1_555 1_555
C9E C8E 1_555 1_555
H4E C9E 1_555 1_555
C10E C10 1_555 1_555
O1E C7E 1_555 1_555
C11E O1E 1_555 1_555
H5E C11E 1_555 1_555
H6E C11E 1_555 1_555
H7E C11E 1_555 1_555
O2E C8E 1_555 1_555
C12E O2E 1_555 1_555
H8E C12E 1_555 1_555
H9E C12E 1_555 1_555
H10E C12E 1_555 1_555
C13E C13 1_555 1_555
C14E C13E 1_555 1_555
H11E C14E 1_555 1_555
C15E C15 1_555 1_555
C16E C15E 1_555 1_555
C17E C16E 1_555 1_555
H12E C17E 1_555 1_555
C18E C17E 1_555 1_555
C19E C18E 1_555 1_555
C20E C19E 1_555 1_555
H13E C20E 1_555 1_555
C21E C21 1_555 1_555
O3E C18E 1_555 1_555
C22E O3E 1_555 1_555
H14E C22E 1_555 1_555
H15E C22E 1_555 1_555
H16E C22E 1_555 1_555
O4E C19E 1_555 1_555
C23E O4E 1_555 1_555
H17E C23E 1_555 1_555
H18E C23E 1_555 1_555
H19E C23E 1_555 1_555
C24E C24 1_555 1_555
C25E C24E 1_555 1_555
H20E C25E 1_555 1_555
C26E C26 1_555 1_555
C27E C26E 1_555 1_555
C28E C27E 1_555 1_555
H21E C28E 1_555 1_555
C29E C28E 1_555 1_555
C30E C29E 1_555 1_555
C31E C30E 1_555 1_555
H22E C31E 1_555 1_555
C32E C32 1_555 1_555
O5E C29E 1_555 1_555
C33E O5E 1_555 1_555
H23E C33E 1_555 1_555
H24E C33E 1_555 1_555
H25E C33E 1_555 1_555
O6E C30E 1_555 1_555
C34E O6E 1_555 1_555
H26E C34E 1_555 1_555
H27E C34E 1_555 1_555
H28E C34E 1_555 1_555
Cl7E C37 1_555 1_555
C9 C10 1_555 1_555
C20 C21 1_555 1_555
C31 C32 1_555 1_555
C1E C2E 1_555 1_555
C1E C13E 1_555 1_555
C1E C24E 1_555 1_555
C3E C4E 1_555 1_555
C5E C10E 1_555 1_555
C9E C10E 1_555 1_555
C14E C15E 1_555 1_555
C16E C21E 1_555 1_555
C20E C21E 1_555 1_555
C25E C26E 1_555 1_555
C27E C32E 1_555 1_555
C31E C32E 1_555 1_555

#END
