
#######################################################################
#
#                 Cambridge Crystallographic Data Centre
#                                CCDC 
#
#######################################################################
#
# If this CIF has been generated from an entry in the Cambridge 
# Structural Database, then it will include bibliographic, chemical, 
# crystal, experimental, refinement or atomic coordinate data resulting 
# from the CCDC's data processing and validation procedures.
#
#######################################################################

data_VUQZIS
_chemical_formula_moiety         'C20 H22 O2'
_chemical_name_systematic        
4,4-dimethyl-2-(4-methylphenyl)-2,3,3a,9b-tetrahydro-4H-furo[3,2-c]chromene
_symmetry_cell_setting           orthorhombic
_symmetry_space_group_name_H-M   'P 21 21 21'
_symmetry_Int_Tables_number      19
_space_group_name_Hall           'P 2ac 2ab'
loop_
_symmetry_equiv_pos_site_id
_symmetry_equiv_pos_as_xyz
1 x,y,z
2 1/2-x,-y,1/2+z
3 1/2+x,1/2-y,-z
4 -x,1/2+y,1/2-z
_cell_length_a                   8.033(2)
_cell_length_b                   10.739(3)
_cell_length_c                   18.778(5)
_cell_angle_alpha                90
_cell_angle_beta                 90
_cell_angle_gamma                90
_cell_volume                     1619.91
_exptl_crystal_colour            colorless
_exptl_crystal_description       block
_cell_formula_units_Z            4
loop_
_atom_site_label
_atom_site_type_symbol
_atom_site_fract_x
_atom_site_fract_y
_atom_site_fract_z
O1 O 0.15408(17) 0.15573(13) 0.24158(7)
C1 C 0.4604(3) 0.3874(2) 0.28814(13)
H1 H 0.120(3) -0.022(2) 0.0341(11)
H2 H 0.126(2) 0.2978(18) 0.0905(9)
H3 H -0.166(3) 0.147(2) 0.1334(15)
H4 H 0.306(3) -0.017(2) -0.1129(13)
H5 H 0.448(3) 0.429(2) 0.1151(13)
H6 H 0.219(3) 0.169(2) -0.0484(12)
H7 H 0.525(3) -0.155(2) -0.1384(14)
H8 H 0.278(2) 0.0689(17) 0.1290(10)
H9 H -0.039(4) -0.075(3) 0.1645(16)
H10 H -0.168(4) 0.169(3) 0.2179(15)
H11 H -0.088(3) 0.276(3) 0.1679(15)
H12 H 0.551(3) 0.089(2) 0.0643(12)
H13 H -0.036(3) -0.035(2) 0.2445(14)
H14 H 0.761(3) -0.055(2) 0.0402(13)
H15 H 0.129(4) -0.078(3) 0.2094(14)
H16 H 0.008(3) 0.105(2) 0.0292(11)
H17 H 0.314(3) 0.254(2) 0.3384(13)
H18 H 0.587(4) 0.506(3) 0.2202(14)
H19 H 0.513(3) 0.416(3) 0.3290(15)
O2 O 0.32357(17) 0.23730(12) 0.03944(7)
C2 C 0.5020(3) 0.4388(2) 0.22295(14)
C3 C 0.4267(3) 0.39385(19) 0.16213(12)
C4 C 0.3103(2) 0.29839(15) 0.16521(9)
C5 C 0.2686(2) 0.24899(17) 0.23145(9)
C6 C 0.3449(3) 0.29307(19) 0.29266(10)
C7 C 0.0597(2) 0.10493(18) 0.18118(9)
C8 C -0.1019(3) 0.1773(3) 0.17458(14)
C9 C 0.0267(3) -0.0292(2) 0.20214(13)
C10 C 0.1731(2) 0.11296(16) 0.11709(9)
C11 C 0.2235(2) 0.24618(16) 0.10211(9)
C12 C 0.2622(2) 0.13364(17) -0.00222(9)
C13 C 0.1226(2) 0.07169(19) 0.04268(10)
C14 C 0.4043(2) 0.04647(17) -0.01907(9)
C15 C 0.5411(2) 0.03445(19) 0.02508(10)
C16 C 0.6668(3) -0.0483(2) 0.00945(11)
C17 C 0.6632(3) -0.12108(19) -0.05146(11)
C18 C 0.5262(3) -0.1082(2) -0.09593(11)
C19 C 0.4001(3) -0.0262(2) -0.08038(10)
C20 C 0.8038(4) -0.2081(3) -0.06938(17)
H20 H 0.9060 -0.1620 -0.0720
H21 H 0.7824 -0.2470 -0.1145
H22 H 0.8127 -0.2708 -0.0331
loop_
_geom_bond_atom_site_label_1
_geom_bond_atom_site_label_2
_geom_bond_site_symmetry_1
_geom_bond_site_symmetry_2
O1 C5 1_555 1_555
C1 H19 1_555 1_555
H1 C13 1_555 1_555
H2 C11 1_555 1_555
H3 C8 1_555 1_555
H4 C19 1_555 1_555
H5 C3 1_555 1_555
H6 C12 1_555 1_555
H7 C18 1_555 1_555
H8 C10 1_555 1_555
H9 C9 1_555 1_555
H10 C8 1_555 1_555
H11 C8 1_555 1_555
H12 C15 1_555 1_555
H13 C9 1_555 1_555
H14 C16 1_555 1_555
H15 C9 1_555 1_555
H16 C13 1_555 1_555
H17 C6 1_555 1_555
H18 C2 1_555 1_555
O2 C11 1_555 1_555
C2 C1 1_555 1_555
C3 C2 1_555 1_555
C4 C3 1_555 1_555
C5 C4 1_555 1_555
C6 C1 1_555 1_555
C7 O1 1_555 1_555
C8 C7 1_555 1_555
C9 C7 1_555 1_555
C10 C7 1_555 1_555
C11 C4 1_555 1_555
C12 O2 1_555 1_555
C13 C10 1_555 1_555
C14 C12 1_555 1_555
C15 C14 1_555 1_555
C16 C15 1_555 1_555
C17 C16 1_555 1_555
C18 C17 1_555 1_555
C19 C14 1_555 1_555
C20 C17 1_555 1_555
H20 C20 1_555 1_555
H21 C20 1_555 1_555
H22 C20 1_555 1_555
C5 C6 1_555 1_555
C10 C11 1_555 1_555
C12 C13 1_555 1_555
C18 C19 1_555 1_555

#END
