
#######################################################################
#
#                 Cambridge Crystallographic Data Centre
#                                CCDC 
#
#######################################################################
#
# If this CIF has been generated from an entry in the Cambridge 
# Structural Database, then it will include bibliographic, chemical, 
# crystal, experimental, refinement or atomic coordinate data resulting 
# from the CCDC's data processing and validation procedures.
#
#######################################################################

data_VURKEA
_chemical_formula_moiety         'C12 H18 N1 O6 P1 S1'
_chemical_name_systematic        
'Dimethyl (2,2-dioxido-4-(2-phenylethyl)-1,2,3-oxathiazolidin-5-yl)phosphonate'
_symmetry_cell_setting           monoclinic
_symmetry_space_group_name_H-M   'P 21'
_symmetry_Int_Tables_number      4
_space_group_name_Hall           'P 2yb'
loop_
_symmetry_equiv_pos_site_id
_symmetry_equiv_pos_as_xyz
1 x,y,z
2 -x,1/2+y,-z
_cell_length_a                   9.5293(4)
_cell_length_b                   15.7276(6)
_cell_length_c                   10.3868(4)
_cell_angle_alpha                90
_cell_angle_beta                 100.495(2)
_cell_angle_gamma                90
_cell_volume                     1530.66
_exptl_crystal_colour            silver
_exptl_crystal_description       Block
_cell_formula_units_Z            4
loop_
_atom_site_label
_atom_site_type_symbol
_atom_site_fract_x
_atom_site_fract_y
_atom_site_fract_z
P1 P 0.48034(7) 0.14461(3) 0.10893(6)
S1 S 0.45642(7) -0.00158(4) -0.16774(6)
O1 O 0.4425(2) 0.06286(14) -0.26520(19)
O2 O 0.4096(2) -0.08502(13) -0.2068(2)
O3 O 0.3697(2) 0.02606(11) -0.05537(18)
O4 O 0.3239(2) 0.17566(11) 0.10076(18)
O5 O 0.54373(19) 0.14278(11) 0.25873(16)
O6 O 0.56288(19) 0.19167(10) 0.02624(16)
N1 N 0.6150(2) -0.00248(13) -0.07981(19)
H1 H 0.6955 0.0040 -0.1088
C1 C 1.0880(3) 0.02823(16) 0.2340(3)
H2 H 1.0788 0.0590 0.1542
C2 C 1.2024(3) 0.04383(18) 0.3336(3)
H3 H 1.2718 0.0849 0.3214
C3 C 1.2168(3) 0.0002(2) 0.4512(3)
H4 H 1.2958 0.0109 0.5194
C4 C 1.1148(3) -0.05920(18) 0.4679(3)
H5 H 1.1234 -0.0891 0.5484
C5 C 1.0011(3) -0.07544(17) 0.3693(3)
H6 H 0.9318 -0.1165 0.3822
C6 C 0.9864(3) -0.03209(16) 0.2499(3)
C7 C 0.8595(3) -0.05053(18) 0.1424(3)
H7 H 0.8301 -0.1106 0.1484
H8 H 0.8874 -0.0422 0.0560
C8 C 0.7334(3) 0.00800(15) 0.1535(2)
H9 H 0.7134 0.0049 0.2436
H10 H 0.7594 0.0674 0.1370
C9 C 0.6005(3) -0.01616(14) 0.0575(2)
H11 H 0.5834 -0.0782 0.0688
C10 C 0.4627(3) 0.03153(15) 0.0727(2)
H12 H 0.4166 0.0025 0.1399
C11 C 0.2629(4) 0.2444(2) 0.0196(3)
H13 H 0.1635 0.2526 0.0298
H14 H 0.2659 0.2313 -0.0721
H15 H 0.3172 0.2965 0.0454
C12 C 0.5503(4) 0.22217(18) 0.3329(3)
H16 H 0.5922 0.2112 0.4248
H17 H 0.4537 0.2450 0.3274
H18 H 0.6093 0.2634 0.2963
S2 S 0.49544(6) 0.31112(4) -0.29134(6)
P2 P 0.82725(7) 0.16058(4) -0.28586(6)
O7 O 0.4874(2) 0.39052(12) -0.35822(19)
O8 O 0.3667(2) 0.26829(12) -0.28188(18)
O9 O 0.59265(19) 0.24841(12) -0.35874(16)
O10 O 0.7842(2) 0.11858(11) -0.42456(16)
O11 O 0.98624(19) 0.18773(11) -0.27984(17)
O12 O 0.79761(19) 0.10899(11) -0.17702(16)
N2 N 0.6016(2) 0.31966(12) -0.15083(18)
H19 H 0.5771 0.3219 -0.0732
C13 C 0.9077(3) 0.25935(17) 0.2422(3)
H20 H 0.8192 0.2329 0.2074
C14 C 0.9906(3) 0.22732(18) 0.3565(3)
H21 H 0.9584 0.1796 0.3991
C15 C 1.1189(3) 0.26491(17) 0.4072(3)
H22 H 1.1759 0.2433 0.4850
C16 C 1.1646(3) 0.33400(18) 0.3448(3)
H23 H 1.2538 0.3596 0.3793
C17 C 1.0810(3) 0.36670(16) 0.2314(3)
H24 H 1.1127 0.4152 0.1902
C18 C 0.9519(3) 0.32900(15) 0.1784(2)
C19 C 0.8598(3) 0.36105(16) 0.0535(2)
H25 H 0.8968 0.4167 0.0300
H26 H 0.7612 0.3697 0.0686
C20 C 0.8573(3) 0.29895(15) -0.0608(2)
H27 H 0.9529 0.2976 -0.0853
H28 H 0.8361 0.2411 -0.0320
C21 C 0.7475(3) 0.32296(14) -0.1797(2)
H29 H 0.7669 0.3828 -0.2041
C22 C 0.7432(3) 0.26534(15) -0.3049(2)
H30 H 0.7852 0.2981 -0.3711
C23 C 0.6886(4) 0.04677(18) -0.4512(3)
H31 H 0.6770 0.0316 -0.5441
H32 H 0.5956 0.0617 -0.4301
H33 H 0.7286 -0.0017 -0.3976
C24 C 1.0950(3) 0.12299(19) -0.2747(4)
H34 H 1.1882 0.1501 -0.2713
H35 H 1.0734 0.0871 -0.3529
H36 H 1.0972 0.0879 -0.1964
loop_
_geom_bond_atom_site_label_1
_geom_bond_atom_site_label_2
_geom_bond_site_symmetry_1
_geom_bond_site_symmetry_2
P1 O4 1_555 1_555
S1 O1 1_555 1_555
O2 S1 1_555 1_555
O3 S1 1_555 1_555
O4 C11 1_555 1_555
O5 P1 1_555 1_555
O6 P1 1_555 1_555
N1 S1 1_555 1_555
H1 N1 1_555 1_555
C1 H2 1_555 1_555
C2 C1 1_555 1_555
H3 C2 1_555 1_555
C3 C2 1_555 1_555
H4 C3 1_555 1_555
C4 C3 1_555 1_555
H5 C4 1_555 1_555
C5 C4 1_555 1_555
H6 C5 1_555 1_555
C6 C1 1_555 1_555
C7 C6 1_555 1_555
H7 C7 1_555 1_555
H8 C7 1_555 1_555
C8 C7 1_555 1_555
H9 C8 1_555 1_555
H10 C8 1_555 1_555
C9 N1 1_555 1_555
H11 C9 1_555 1_555
C10 P1 1_555 1_555
H12 C10 1_555 1_555
C11 H13 1_555 1_555
H14 C11 1_555 1_555
H15 C11 1_555 1_555
C12 O5 1_555 1_555
H16 C12 1_555 1_555
H17 C12 1_555 1_555
H18 C12 1_555 1_555
S2 O7 1_555 1_555
P2 O10 1_555 1_555
O8 S2 1_555 1_555
O9 S2 1_555 1_555
O10 C23 1_555 1_555
O11 P2 1_555 1_555
O12 P2 1_555 1_555
N2 S2 1_555 1_555
H19 N2 1_555 1_555
C13 H20 1_555 1_555
C14 C13 1_555 1_555
H21 C14 1_555 1_555
C15 C14 1_555 1_555
H22 C15 1_555 1_555
C16 C15 1_555 1_555
H23 C16 1_555 1_555
C17 C16 1_555 1_555
H24 C17 1_555 1_555
C18 C13 1_555 1_555
C19 C18 1_555 1_555
H25 C19 1_555 1_555
H26 C19 1_555 1_555
C20 C19 1_555 1_555
H27 C20 1_555 1_555
H28 C20 1_555 1_555
C21 N2 1_555 1_555
H29 C21 1_555 1_555
C22 P2 1_555 1_555
H30 C22 1_555 1_555
C23 H31 1_555 1_555
H32 C23 1_555 1_555
H33 C23 1_555 1_555
C24 O11 1_555 1_555
H34 C24 1_555 1_555
H35 C24 1_555 1_555
H36 C24 1_555 1_555
O3 C10 1_555 1_555
C5 C6 1_555 1_555
C8 C9 1_555 1_555
C9 C10 1_555 1_555
O9 C22 1_555 1_555
C17 C18 1_555 1_555
C20 C21 1_555 1_555
C21 C22 1_555 1_555

#END
