
#######################################################################
#
#                 Cambridge Crystallographic Data Centre
#                                CCDC 
#
#######################################################################
#
# If this CIF has been generated from an entry in the Cambridge 
# Structural Database, then it will include bibliographic, chemical, 
# crystal, experimental, refinement or atomic coordinate data resulting 
# from the CCDC's data processing and validation procedures.
#
#######################################################################

data_VURMIF
_chemical_formula_moiety         'C16 H16 N4 O5,H2 O1'
_chemical_name_systematic        
'1-(3,4-Dihydroxy-5-(hydroxymethyl)tetrahydrofuran-2-yl)-5-(phenylethynyl)-1H-1,2,4-triazole-3-carboxamide monohydrate'
_symmetry_cell_setting           triclinic
_symmetry_space_group_name_H-M   'P 1'
_symmetry_Int_Tables_number      1
_space_group_name_Hall           'P 1'
loop_
_symmetry_equiv_pos_site_id
_symmetry_equiv_pos_as_xyz
1 x,y,z
_cell_length_a                   7.5538(11)
_cell_length_b                   11.1140(17)
_cell_length_c                   11.5618(17)
_cell_angle_alpha                66.563(2)
_cell_angle_beta                 89.504(3)
_cell_angle_gamma                78.045(3)
_cell_volume                     868.306
_exptl_crystal_colour            colorless
_exptl_crystal_description       block
_cell_formula_units_Z            2
loop_
_atom_site_label
_atom_site_type_symbol
_atom_site_fract_x
_atom_site_fract_y
_atom_site_fract_z
C1 C 0.9266(12) 0.3070(7) 1.0018(7)
H1 H 0.8532 0.3359 0.9274
C2 C 1.0163(18) 0.1761(8) 1.0590(10)
H2 H 1.0078 0.1172 1.0215
C3 C 1.1160(14) 0.1313(7) 1.1679(10)
H3 H 1.1749 0.0411 1.2065
C4 C 1.1326(11) 0.2154(7) 1.2230(8)
H4 H 1.2019 0.1836 1.2995
C5 C 1.0449(10) 0.3501(6) 1.1638(7)
H5 H 1.0555 0.4094 1.2004
C6 C 0.9430(7) 0.3949(5) 1.0516(5)
C7 C 0.8539(7) 0.5367(6) 0.9842(5)
C8 C 0.7891(6) 0.6470(5) 0.9313(4)
C9 C 0.7124(6) 0.7896(4) 0.8675(4)
C10 C 0.6183(6) 0.9949(4) 0.8215(4)
C11 C 0.5667(6) 1.1244(5) 0.8362(4)
C12 C 0.6506(5) 0.7904(4) 0.6528(4)
H6 H 0.5986 0.7107 0.6875
C13 C 0.5497(5) 0.8882(4) 0.5259(4)
H7 H 0.4460 0.9528 0.5343
C14 C 0.6984(5) 0.9541(4) 0.4576(4)
H8 H 0.7216 1.0164 0.4933
C15 C 0.8592(5) 0.8345(4) 0.4981(4)
H9 H 0.8519 0.7836 0.4466
C16 C 1.0431(6) 0.8648(5) 0.4932(4)
H10 H 1.0563 0.9268 0.4080
H11 H 1.0540 0.9087 0.5496
N1 N 0.6939(5) 0.8796(3) 0.9179(3)
N2 N 0.5869(4) 0.9851(3) 0.7133(3)
N3 N 0.6472(4) 0.8516(3) 0.7442(3)
N7 N 0.4975(6) 1.2306(4) 0.7371(4)
H23 H 0.4641 1.3069 0.7425
H24 H 0.4848 1.2253 0.6656
O1 O 0.5900(5) 1.1227(3) 0.9421(3)
O2 O 0.8327(3) 0.7536(3) 0.6273(2)
O3 O 1.1845(4) 0.7481(3) 0.5280(3)
H25 H 1.1782 0.6976 0.6017
O4 O 0.6638(4) 1.0248(3) 0.3249(3)
H26 H 0.6431 0.9739 0.2939
O5 O 0.5015(4) 0.8164(3) 0.4592(3)
H27 H 0.4030 0.7979 0.4796
C17 C 0.0145(9) 1.2985(6) 0.7007(6)
H12 H 0.0905 1.2650 0.7746
C18 C -0.0585(12) 1.4323(6) 0.6434(7)
H13 H -0.0304 1.4903 0.6767
C19 C -0.1725(12) 1.4810(6) 0.5375(7)
H14 H -0.2277 1.5720 0.5002
C20 C -0.2060(12) 1.3971(7) 0.4857(7)
H15 H -0.2829 1.4317 0.4121
C21 C -0.1297(10) 1.2641(6) 0.5390(6)
H16 H -0.1496 1.2084 0.5004
C22 C -0.0220(7) 1.2115(5) 0.6514(5)
C23 C 0.0522(6) 1.0669(5) 0.7163(4)
C24 C 0.1088(6) 0.9539(5) 0.7689(4)
C25 C 0.1817(5) 0.8117(4) 0.8356(4)
C26 C 0.3008(5) 0.6092(4) 0.8880(4)
C27 C 0.3789(7) 0.4808(5) 0.8751(4)
C28 C 0.1599(5) 0.8099(4) 1.0545(3)
H17 H 0.0553 0.8861 1.0193
C29 C 0.1172(5) 0.7122(4) 1.1822(4)
H18 H 0.0590 0.6438 1.1757
C30 C 0.3075(6) 0.6538(4) 1.2505(3)
H19 H 0.3746 0.5901 1.2181
C31 C 0.3873(5) 0.7766(4) 1.2064(3)
H20 H 0.3462 0.8270 1.2582
C32 C 0.5900(6) 0.7518(4) 1.2091(4)
H21 H 0.6413 0.6877 1.2930
H22 H 0.6305 0.7118 1.1499
N4 N 0.2438(5) 0.7249(3) 0.7852(3)
N5 N 0.2798(5) 0.6176(3) 0.9983(3)
N6 N 0.2020(4) 0.7500(3) 0.9624(3)
O6 O 0.3786(6) 0.4815(4) 0.7686(3)
N8 N 0.4435(6) 0.3745(4) 0.9784(4)
H28 H 0.4896 0.2989 0.9743
H29 H 0.4400 0.3802 1.0505
O7 O 0.3087(4) 0.8573(3) 1.0772(2)
O8 O 0.0188(4) 0.7834(3) 1.2463(3)
H30 H -0.0874 0.8102 1.2170
O9 O 0.3095(4) 0.5883(3) 1.3834(2)
H31 H 0.2554 0.6416 1.4114
O10 O 0.6572(4) 0.8708(3) 1.1779(3)
H32 H 0.6553 0.9094 1.1008
O11 O 0.3510(8) 0.3126(4) 0.4633(4)
H33 H 0.3384 0.3951 0.4328
H34 H 0.2584 0.2858 0.4897
O12 O 0.5646(7) 0.3085(5) 0.2492(4)
H35 H 0.6635 0.2657 0.2891
H36 H 0.4759 0.2960 0.2911
loop_
_geom_bond_atom_site_label_1
_geom_bond_atom_site_label_2
_geom_bond_site_symmetry_1
_geom_bond_site_symmetry_2
C1 H1 1_555 1_555
C2 C1 1_555 1_555
H2 C2 1_555 1_555
C3 C2 1_555 1_555
H3 C3 1_555 1_555
C4 C3 1_555 1_555
H4 C4 1_555 1_555
C5 C4 1_555 1_555
H5 C5 1_555 1_555
C6 C1 1_555 1_555
C7 C6 1_555 1_555
C8 C7 1_555 1_555
C9 C8 1_555 1_555
C10 C11 1_555 1_555
C11 N7 1_555 1_555
C12 H6 1_555 1_555
C13 C12 1_555 1_555
H7 C13 1_555 1_555
C14 C13 1_555 1_555
H8 C14 1_555 1_555
C15 C14 1_555 1_555
H9 C15 1_555 1_555
C16 C15 1_555 1_555
H10 C16 1_555 1_555
H11 C16 1_555 1_555
C17 H12 1_555 1_555
C18 C17 1_555 1_555
H13 C18 1_555 1_555
C19 C18 1_555 1_555
H14 C19 1_555 1_555
C20 C19 1_555 1_555
H15 C20 1_555 1_555
C21 C20 1_555 1_555
H16 C21 1_555 1_555
C22 C17 1_555 1_555
C23 C22 1_555 1_555
C24 C23 1_555 1_555
C25 C24 1_555 1_555
C26 C27 1_555 1_555
C27 O6 1_555 1_555
C28 H17 1_555 1_555
C29 C28 1_555 1_555
H18 C29 1_555 1_555
C30 C29 1_555 1_555
H19 C30 1_555 1_555
C31 C30 1_555 1_555
H20 C31 1_555 1_555
C32 C31 1_555 1_555
H21 C32 1_555 1_555
H22 C32 1_555 1_555
N1 C9 1_555 1_555
N2 C10 1_555 1_555
N3 C9 1_555 1_555
N4 C25 1_555 1_555
N5 C26 1_555 1_555
N6 C25 1_555 1_555
N7 H23 1_555 1_555
H24 N7 1_555 1_555
O1 C11 1_555 1_555
O2 C12 1_555 1_555
O3 C16 1_555 1_555
H25 O3 1_555 1_555
O4 C14 1_555 1_555
H26 O4 1_555 1_555
O5 C13 1_555 1_555
H27 O5 1_555 1_555
N8 C27 1_555 1_555
H28 N8 1_555 1_555
H29 N8 1_555 1_555
O7 C28 1_555 1_555
O8 C29 1_555 1_555
H30 O8 1_555 1_555
O9 C30 1_555 1_555
H31 O9 1_555 1_555
O10 C32 1_555 1_555
H32 O10 1_555 1_555
O11 H33 1_555 1_555
H34 O11 1_555 1_555
O12 H35 1_555 1_555
H36 O12 1_555 1_555
C5 C6 1_555 1_555
C10 N1 1_555 1_555
C12 N3 1_555 1_555
C15 O2 1_555 1_555
C21 C22 1_555 1_555
C26 N4 1_555 1_555
C28 N6 1_555 1_555
C31 O7 1_555 1_555
N2 N3 1_555 1_555
N5 N6 1_555 1_555

#END
