
#######################################################################
#
#                 Cambridge Crystallographic Data Centre
#                                CCDC 
#
#######################################################################
#
# If this CIF has been generated from an entry in the Cambridge 
# Structural Database, then it will include bibliographic, chemical, 
# crystal, experimental, refinement or atomic coordinate data resulting 
# from the CCDC's data processing and validation procedures.
#
#######################################################################

data_VURMAX
_chemical_formula_moiety         'C14 H23 N3'
_chemical_name_systematic        2,5-bis(pyrrolidin-1-ylmethyl)-1H-pyrrole
_symmetry_cell_setting           monoclinic
_symmetry_space_group_name_H-M   'P 21/c'
_symmetry_Int_Tables_number      14
_space_group_name_Hall           '-P 2ybc'
loop_
_symmetry_equiv_pos_site_id
_symmetry_equiv_pos_as_xyz
1 x,y,z
2 -x,1/2+y,1/2-z
3 -x,-y,-z
4 x,1/2-y,1/2+z
_cell_length_a                   9.002(4)
_cell_length_b                   16.939(8)
_cell_length_c                   18.173(8)
_cell_angle_alpha                90
_cell_angle_beta                 90.00
_cell_angle_gamma                90
_cell_volume                     2771.11
_exptl_crystal_colour            colorless
_exptl_crystal_description       stick
_cell_formula_units_Z            8
loop_
_atom_site_label
_atom_site_type_symbol
_atom_site_fract_x
_atom_site_fract_y
_atom_site_fract_z
N1 N 0.7558(5) 0.2551(3) 0.1930(2)
H1 H 0.8347 0.2780 0.2090
N2 N 0.9954(5) 0.1445(3) 0.1178(3)
N3 N 0.5249(4) 0.3727(3) 0.2890(2)
C1 C 0.7487(6) 0.1790(4) 0.1682(3)
C2 C 0.6049(7) 0.1655(4) 0.1480(4)
H2 H 0.5668 0.1186 0.1291
C3 C 0.5249(6) 0.2353(4) 0.1608(3)
H3 H 0.4243 0.2430 0.1515
C4 C 0.6190(6) 0.2894(4) 0.1887(3)
C5 C 0.8796(7) 0.1243(4) 0.1706(4)
H4 H 0.9217 0.1252 0.2197
H5 H 0.8458 0.0710 0.1609
C6 C 0.5910(6) 0.3719(4) 0.2161(3)
H6 H 0.6843 0.4005 0.2174
H7 H 0.5254 0.3989 0.1821
C7 C 0.9535(7) 0.1339(5) 0.0413(4)
H8 H 0.8915 0.1771 0.0244
H9 H 0.9006 0.0846 0.0343
C8 C 1.1014(9) 0.1331(6) 0.0011(4)
H10 H 1.0987 0.0963 -0.0397
H11 H 1.1247 0.1852 -0.0178
C9 C 1.2135(8) 0.1081(6) 0.0566(4)
H12 H 1.2889 0.1485 0.0629
H13 H 1.2615 0.0594 0.0416
C10 C 1.1278(7) 0.0963(5) 0.1265(4)
H14 H 1.1017 0.0412 0.1330
H15 H 1.1853 0.1135 0.1687
C11 C 0.4951(6) 0.4528(3) 0.3156(3)
H16 H 0.4112 0.4759 0.2900
H17 H 0.5812 0.4865 0.3090
C12 C 0.4610(7) 0.4416(4) 0.3955(3)
H18 H 0.3552 0.4345 0.4031
H19 H 0.4941 0.4867 0.4240
C13 C 0.5466(9) 0.3674(5) 0.4172(4)
H20 H 0.6209 0.3793 0.4542
H21 H 0.4799 0.3273 0.4363
C14 C 0.6190(7) 0.3399(4) 0.3465(3)
H22 H 0.7197 0.3598 0.3425
H23 H 0.6211 0.2827 0.3438
N4 N 0.2559(5) 0.2552(3) 0.3067(2)
H24 H 0.3348 0.2780 0.2907
N5 N 0.0251(4) 0.3725(3) 0.2109(2)
N6 N 0.4946(5) 0.1449(3) 0.3826(3)
C15 C 0.1185(6) 0.2897(3) 0.3113(3)
C16 C 0.0254(6) 0.2346(4) 0.3393(3)
H25 H -0.0754 0.2415 0.3485
C17 C 0.1061(7) 0.1660(4) 0.3517(4)
H26 H 0.0683 0.1191 0.3706
C18 C 0.2485(6) 0.1787(4) 0.3317(3)
C19 C 0.0916(6) 0.3713(4) 0.2840(3)
H27 H 0.0265 0.3986 0.3181
H28 H 0.1852 0.3997 0.2826
C20 C 0.3785(7) 0.1245(4) 0.3296(4)
H29 H 0.3447 0.0711 0.3394
H30 H 0.4206 0.1252 0.2804
C21 C -0.0045(6) 0.4532(3) 0.1845(3)
H31 H 0.0817 0.4868 0.1911
H32 H -0.0884 0.4764 0.2102
C22 C -0.0388(7) 0.4414(4) 0.1040(3)
H33 H -0.0059 0.4864 0.0753
H34 H -0.1446 0.4341 0.0964
C23 C 0.0464(9) 0.3675(5) 0.0824(4)
H35 H -0.0204 0.3275 0.0632
H36 H 0.1206 0.3794 0.0454
C24 C 0.1191(7) 0.3395(4) 0.1529(3)
H37 H 0.1210 0.2823 0.1553
H38 H 0.2200 0.3592 0.1567
C25 C 0.4544(7) 0.1347(5) 0.4583(4)
H39 H 0.4011 0.0855 0.4653
H40 H 0.3924 0.1780 0.4750
C26 C 0.6006(9) 0.1337(6) 0.4993(4)
H41 H 0.6244 0.1858 0.5181
H42 H 0.5970 0.0968 0.5401
C27 C 0.7131(8) 0.1079(6) 0.4432(4)
H43 H 0.7890 0.1480 0.4369
H44 H 0.7603 0.0590 0.4582
C28 C 0.6281(7) 0.0963(5) 0.3732(4)
H45 H 0.6856 0.1139 0.3311
H46 H 0.6021 0.0412 0.3664
loop_
_geom_bond_atom_site_label_1
_geom_bond_atom_site_label_2
_geom_bond_site_symmetry_1
_geom_bond_site_symmetry_2
N1 H1 1_555 1_555
N2 C5 1_555 1_555
N3 C6 1_555 1_555
C1 N1 1_555 1_555
C2 C1 1_555 1_555
H2 C2 1_555 1_555
C3 C2 1_555 1_555
H3 C3 1_555 1_555
C4 N1 1_555 1_555
C5 C1 1_555 1_555
H4 C5 1_555 1_555
H5 C5 1_555 1_555
C6 C4 1_555 1_555
H6 C6 1_555 1_555
H7 C6 1_555 1_555
C7 N2 1_555 1_555
H8 C7 1_555 1_555
H9 C7 1_555 1_555
C8 C7 1_555 1_555
H10 C8 1_555 1_555
H11 C8 1_555 1_555
C9 C8 1_555 1_555
H12 C9 1_555 1_555
H13 C9 1_555 1_555
C10 N2 1_555 1_555
H14 C10 1_555 1_555
H15 C10 1_555 1_555
C11 N3 1_555 1_555
H16 C11 1_555 1_555
H17 C11 1_555 1_555
C12 C11 1_555 1_555
H18 C12 1_555 1_555
H19 C12 1_555 1_555
C13 C12 1_555 1_555
H20 C13 1_555 1_555
H21 C13 1_555 1_555
C14 N3 1_555 1_555
H22 C14 1_555 1_555
H23 C14 1_555 1_555
N4 H24 1_555 1_555
N5 C19 1_555 1_555
N6 C20 1_555 1_555
C15 N4 1_555 1_555
C16 C15 1_555 1_555
H25 C16 1_555 1_555
C17 C16 1_555 1_555
H26 C17 1_555 1_555
C18 N4 1_555 1_555
C19 C15 1_555 1_555
H27 C19 1_555 1_555
H28 C19 1_555 1_555
C20 C18 1_555 1_555
H29 C20 1_555 1_555
H30 C20 1_555 1_555
C21 N5 1_555 1_555
H31 C21 1_555 1_555
H32 C21 1_555 1_555
C22 C21 1_555 1_555
H33 C22 1_555 1_555
H34 C22 1_555 1_555
C23 C22 1_555 1_555
H35 C23 1_555 1_555
H36 C23 1_555 1_555
C24 N5 1_555 1_555
H37 C24 1_555 1_555
H38 C24 1_555 1_555
C25 N6 1_555 1_555
H39 C25 1_555 1_555
H40 C25 1_555 1_555
C26 C25 1_555 1_555
H41 C26 1_555 1_555
H42 C26 1_555 1_555
C27 C26 1_555 1_555
H43 C27 1_555 1_555
H44 C27 1_555 1_555
C28 N6 1_555 1_555
H45 C28 1_555 1_555
H46 C28 1_555 1_555
C3 C4 1_555 1_555
C9 C10 1_555 1_555
C13 C14 1_555 1_555
C17 C18 1_555 1_555
C23 C24 1_555 1_555
C27 C28 1_555 1_555

#END
