
#######################################################################
#
#                 Cambridge Crystallographic Data Centre
#                                CCDC 
#
#######################################################################
#
# If this CIF has been generated from an entry in the Cambridge 
# Structural Database, then it will include bibliographic, chemical, 
# crystal, experimental, refinement or atomic coordinate data resulting 
# from the CCDC's data processing and validation procedures.
#
#######################################################################

data_VURZOY
_chemical_formula_moiety         'C20 H24 Br1 N1 O6 S1'
_chemical_name_systematic        
rac-N-(2-Bromo-3-oxo-1-(3,4,5-trimethoxyphenyl)butyl)-4-methylbenzenesulfonamide
_symmetry_cell_setting           monoclinic
_symmetry_space_group_name_H-M   'P 21/n'
_symmetry_Int_Tables_number      14
_space_group_name_Hall           '-P 2yn'
loop_
_symmetry_equiv_pos_site_id
_symmetry_equiv_pos_as_xyz
1 x,y,z
2 1/2-x,1/2+y,1/2-z
3 -x,-y,-z
4 1/2+x,1/2-y,1/2+z
_cell_length_a                   10.951(2)
_cell_length_b                   19.920(4)
_cell_length_c                   10.951(2)
_cell_angle_alpha                90
_cell_angle_beta                 101.08(3)
_cell_angle_gamma                90
_cell_volume                     2344.36
_exptl_crystal_colour            colorless
_exptl_crystal_description       block
_chemical_melting_point          177-179deg.C
_cell_formula_units_Z            4
loop_
_atom_site_label
_atom_site_type_symbol
_atom_site_fract_x
_atom_site_fract_y
_atom_site_fract_z
Br1 Br 0.34657(5) 0.06786(2) 0.32934(5)
C1 C 0.0606(4) 0.0474(2) -0.1588(5)
H1 H 0.1315 0.0303 -0.1885
H2 H -0.0142 0.0333 -0.2136
H3 H 0.0611 0.0305 -0.0766
C2 C -0.0496(3) 0.2547(2) -0.0486(4)
H4 H -0.0654 0.2099 -0.0234
H5 H -0.1235 0.2725 -0.0999
H6 H -0.0260 0.2825 0.0237
C3 C 0.3063(4) 0.35456(18) 0.1442(4)
H7 H 0.3060 0.3324 0.2219
H8 H 0.2779 0.3999 0.1485
H9 H 0.3893 0.3547 0.1277
C4 C 0.2472(3) 0.25230(19) 0.0312(3)
C5 C 0.1543(3) 0.21842(18) -0.0532(3)
C6 C 0.1647(3) 0.14841(18) -0.0744(3)
C7 C 0.2697(3) 0.11345(18) -0.0133(3)
H10 H 0.2782 0.0679 -0.0280
C8 C 0.3622(3) 0.14771(17) 0.0706(3)
C9 C 0.3519(3) 0.21678(17) 0.0925(3)
H11 H 0.4143 0.2389 0.1474
C10 C 0.4793(3) 0.10864(16) 0.1359(3)
H12 H 0.5308 0.1384 0.1960
C11 C 0.4470(3) 0.04418(16) 0.2054(4)
H13 H 0.3970 0.0145 0.1439
C12 C 0.5611(3) 0.00488(19) 0.2697(4)
C13 C 0.6512(4) 0.0365(2) 0.3754(4)
H14 H 0.6122 0.0411 0.4463
H15 H 0.6752 0.0800 0.3504
H16 H 0.7236 0.0086 0.3967
C14 C 0.6497(3) 0.20832(18) -0.0026(4)
C15 C 0.5821(3) 0.2237(2) -0.1203(4)
H17 H 0.5605 0.1902 -0.1795
C16 C 0.5466(4) 0.2909(2) -0.1489(4)
H18 H 0.5021 0.3015 -0.2278
C17 C 0.5775(4) 0.3421(2) -0.0604(5)
C18 C 0.6480(3) 0.3258(2) 0.0552(4)
H19 H 0.6721 0.3595 0.1135
C19 C 0.6840(3) 0.2585(2) 0.0856(4)
H20 H 0.7300 0.2481 0.1638
C20 C 0.5351(5) 0.4145(2) -0.0909(6)
H21 H 0.5363 0.4237 -0.1767
H22 H 0.5903 0.4448 -0.0390
H23 H 0.4521 0.4203 -0.0762
N1 N 0.5550(2) 0.08440(14) 0.0442(3)
O1 O 0.7299(2) 0.08968(12) -0.0675(3)
O2 O 0.76468(19) 0.12047(13) 0.1606(2)
O3 O 0.2252(2) 0.31968(12) 0.0462(3)
O4 O 0.0499(2) 0.25362(14) -0.1183(2)
O5 O 0.0658(2) 0.11943(13) -0.1554(2)
O6 O 0.5783(3) -0.05217(14) 0.2310(3)
S1 S 0.68779(8) 0.12232(5) 0.03627(10)
H24 H 0.516(2) 0.0750(15) -0.0340(10)
loop_
_geom_bond_atom_site_label_1
_geom_bond_atom_site_label_2
_geom_bond_site_symmetry_1
_geom_bond_site_symmetry_2
Br1 C11 1_555 1_555
C1 H1 1_555 1_555
H2 C1 1_555 1_555
H3 C1 1_555 1_555
C2 H4 1_555 1_555
H5 C2 1_555 1_555
H6 C2 1_555 1_555
C3 H7 1_555 1_555
H8 C3 1_555 1_555
H9 C3 1_555 1_555
C4 C5 1_555 1_555
C5 C6 1_555 1_555
C6 C7 1_555 1_555
C7 H10 1_555 1_555
C8 C7 1_555 1_555
C9 C4 1_555 1_555
H11 C9 1_555 1_555
C10 C8 1_555 1_555
H12 C10 1_555 1_555
C11 C10 1_555 1_555
H13 C11 1_555 1_555
C12 C11 1_555 1_555
C13 C12 1_555 1_555
H14 C13 1_555 1_555
H15 C13 1_555 1_555
H16 C13 1_555 1_555
C14 C15 1_555 1_555
C15 H17 1_555 1_555
C16 C15 1_555 1_555
H18 C16 1_555 1_555
C17 C16 1_555 1_555
C18 C17 1_555 1_555
H19 C18 1_555 1_555
C19 C14 1_555 1_555
H20 C19 1_555 1_555
C20 C17 1_555 1_555
H21 C20 1_555 1_555
H22 C20 1_555 1_555
H23 C20 1_555 1_555
N1 C10 1_555 1_555
O1 S1 1_555 1_555
O2 S1 1_555 1_555
O3 C3 1_555 1_555
O4 C2 1_555 1_555
O5 C1 1_555 1_555
O6 C12 1_555 1_555
S1 C14 1_555 1_555
H24 N1 1_555 1_555
C4 O3 1_555 1_555
C5 O4 1_555 1_555
C6 O5 1_555 1_555
C8 C9 1_555 1_555
C18 C19 1_555 1_555
N1 S1 1_555 1_555

#END
