
#######################################################################
#
#                 Cambridge Crystallographic Data Centre
#                                CCDC 
#
#######################################################################
#
# If this CIF has been generated from an entry in the Cambridge 
# Structural Database, then it will include bibliographic, chemical, 
# crystal, experimental, refinement or atomic coordinate data resulting 
# from the CCDC's data processing and validation procedures.
#
#######################################################################

data_VUSLAX
_chemical_formula_moiety         'C34 H50 N2 O2 S1'
_chemical_name_systematic        2,5-bis(4-(Decyloxy)phenyl)-1,3,4-thiadiazole
_symmetry_cell_setting           triclinic
_symmetry_space_group_name_H-M   'P -1'
_symmetry_Int_Tables_number      2
_space_group_name_Hall           '-P 1'
loop_
_symmetry_equiv_pos_site_id
_symmetry_equiv_pos_as_xyz
1 x,y,z
2 -x,-y,-z
_cell_length_a                   8.0416(16)
_cell_length_b                   14.428(3)
_cell_length_c                   27.726(6)
_cell_angle_alpha                83.938(7)
_cell_angle_beta                 86.433(7)
_cell_angle_gamma                75.692(7)
_cell_volume                     3097.49
_cell_formula_units_Z            4
_exptl_crystal_recrystallization_method dichloromethane
loop_
_atom_site_label
_atom_site_type_symbol
_atom_site_fract_x
_atom_site_fract_y
_atom_site_fract_z
S1 S 0.13473(7) -0.04133(4) 0.386275(19)
O1 O -0.07271(19) 0.27508(10) 0.55554(5)
O2 O 0.3996(2) -0.37017(10) 0.22509(5)
N1 N 0.3847(2) -0.07422(12) 0.44329(6)
N2 N 0.4320(2) -0.14167(12) 0.41019(6)
C1 C 0.2326(3) -0.01686(14) 0.43578(7)
C2 C 0.3151(3) -0.13393(14) 0.37808(8)
C3 C 0.1536(3) 0.05988(14) 0.46682(7)
C4 C -0.0154(3) 0.11325(14) 0.46207(7)
H1 H -0.0827 0.1006 0.4377
C5 C -0.0864(3) 0.18404(14) 0.49206(7)
H2 H -0.2019 0.2197 0.4883
C6 C 0.0101(3) 0.20361(14) 0.52787(8)
C7 C 0.1791(3) 0.15113(15) 0.53382(7)
H3 H 0.2458 0.1640 0.5583
C8 C 0.2481(3) 0.07983(15) 0.50344(7)
H4 H 0.3629 0.0434 0.5076
C9 C 0.3374(3) -0.19700(14) 0.33886(7)
C10 C 0.2101(3) -0.18851(15) 0.30536(7)
H5 H 0.1052 -0.1412 0.3081
C11 C 0.2348(3) -0.24775(15) 0.26847(8)
H6 H 0.1465 -0.2412 0.2462
C12 C 0.3876(3) -0.31721(15) 0.26346(7)
C13 C 0.5153(3) -0.32775(15) 0.29684(8)
H7 H 0.6196 -0.3757 0.2942
C14 C 0.4888(3) -0.26780(15) 0.33377(8)
H8 H 0.5764 -0.2751 0.3563
C15 C 0.0205(3) 0.30123(15) 0.59253(8)
H9 H 0.1248 0.3197 0.5782
H10 H 0.0556 0.2465 0.6175
C16 C -0.0984(3) 0.38470(15) 0.61470(8)
H11 H -0.2063 0.3666 0.6260
H12 H -0.1275 0.4395 0.5895
C17 C -0.0216(3) 0.41653(15) 0.65726(8)
H13 H 0.0059 0.3624 0.6829
H14 H 0.0866 0.4345 0.6462
C18 C -0.1455(3) 0.50179(15) 0.67827(8)
H15 H -0.1619 0.5573 0.6533
H16 H -0.2581 0.4858 0.6849
C19 C -0.0922(3) 0.53259(15) 0.72436(7)
H17 H 0.0195 0.5498 0.7182
H18 H -0.0772 0.4782 0.7499
C20 C -0.2250(3) 0.61826(15) 0.74211(8)
H19 H -0.2392 0.6720 0.7162
H20 H -0.3366 0.6006 0.7473
C21 C -0.1834(3) 0.65390(15) 0.78863(8)
H21 H -0.1599 0.5995 0.8142
H22 H -0.0781 0.6780 0.7828
C22 C -0.3285(3) 0.73351(16) 0.80650(8)
H23 H -0.3543 0.7868 0.7804
H24 H -0.4327 0.7086 0.8130
C23 C -0.2898(3) 0.77284(16) 0.85197(8)
H25 H -0.1891 0.8008 0.8451
H26 H -0.2588 0.7192 0.8777
C24 C -0.4396(3) 0.84926(17) 0.87069(9)
H27 H -0.4067 0.8720 0.8999
H28 H -0.5389 0.8217 0.8785
H29 H -0.4696 0.9033 0.8457
C25 C 0.5554(3) -0.44234(16) 0.21750(8)
H30 H 0.5738 -0.4913 0.2457
H31 H 0.6547 -0.4127 0.2136
C26 C 0.5386(3) -0.48821(16) 0.17233(8)
H32 H 0.5132 -0.4379 0.1448
H33 H 0.4411 -0.5192 0.1771
C27 C 0.7010(3) -0.56265(16) 0.16006(8)
H34 H 0.7241 -0.6134 0.1875
H35 H 0.7985 -0.5316 0.1566
C28 C 0.6931(3) -0.60959(16) 0.11370(8)
H36 H 0.5980 -0.6425 0.1173
H37 H 0.6678 -0.5591 0.0863
C29 C 0.8590(3) -0.68150(16) 0.10213(8)
H38 H 0.8832 -0.7315 0.1298
H39 H 0.9534 -0.6481 0.0992
C30 C 0.8614(3) -0.73095(17) 0.05601(8)
H40 H 0.7675 -0.7647 0.0587
H41 H 0.8386 -0.6814 0.0281
C31 C 1.0294(3) -0.80236(16) 0.04612(8)
H42 H 1.0476 -0.8543 0.0730
H43 H 1.1240 -0.7695 0.0460
C32 C 1.0397(3) -0.84737(16) -0.00165(8)
H44 H 0.9444 -0.8796 -0.0018
H45 H 1.0231 -0.7956 -0.0286
C33 C 1.2071(4) -0.91947(17) -0.01101(9)
H46 H 1.2227 -0.9721 0.0155
H47 H 1.3028 -0.8878 -0.0103
C34 C 1.2166(4) -0.96225(19) -0.05939(10)
H48 H 1.3276 -1.0084 -0.0632
H49 H 1.2044 -0.9108 -0.0859
H50 H 1.1238 -0.9951 -0.0601
S2 S -0.06489(7) 0.25386(4) 0.338516(19)
O3 O -0.27535(19) 0.57599(10) 0.50240(5)
O4 O 0.0891(2) -0.03854(11) 0.15583(6)
N3 N -0.3543(2) 0.36436(13) 0.31428(6)
N4 N -0.3100(2) 0.29965(13) 0.27971(6)
C35 C -0.2389(3) 0.34991(14) 0.34748(7)
C36 C -0.1633(3) 0.23786(14) 0.28738(7)
C37 C -0.2541(3) 0.40914(14) 0.38791(7)
C38 C -0.3977(3) 0.48421(14) 0.39439(7)
H51 H -0.4884 0.4961 0.3725
C39 C -0.4119(3) 0.54207(15) 0.43197(7)
H52 H -0.5109 0.5931 0.4358
C40 C -0.2783(3) 0.52423(14) 0.46423(7)
C41 C -0.1354(3) 0.44871(14) 0.45862(8)
H53 H -0.0459 0.4357 0.4810
C42 C -0.1231(3) 0.39278(14) 0.42087(7)
H54 H -0.0238 0.3420 0.4171
C43 C -0.0902(3) 0.16299(14) 0.25474(7)
C44 C -0.1917(3) 0.14939(15) 0.21804(8)
H55 H -0.3061 0.1872 0.2152
C45 C -0.1265(3) 0.08157(16) 0.18607(8)
H56 H -0.1959 0.0731 0.1612
C46 C 0.0404(3) 0.02527(15) 0.18997(8)
C47 C 0.1421(3) 0.03670(15) 0.22640(8)
H57 H 0.2559 -0.0020 0.2293
C48 C 0.0757(3) 0.10538(15) 0.25853(8)
H58 H 0.1450 0.1132 0.2836
C49 C -0.4159(3) 0.65676(14) 0.51076(7)
H59 H -0.5245 0.6361 0.5168
H60 H -0.4289 0.7053 0.4823
C50 C -0.3714(3) 0.69754(15) 0.55484(8)
H61 H -0.2617 0.7167 0.5479
H62 H -0.3538 0.6466 0.5822
C51 C -0.5079(3) 0.78378(14) 0.57013(7)
H63 H -0.5253 0.8351 0.5429
H64 H -0.6179 0.7649 0.5772
C52 C -0.4598(3) 0.82292(15) 0.61461(8)
H65 H -0.3492 0.8410 0.6076
H66 H -0.4429 0.7715 0.6417
C53 C -0.5937(3) 0.90970(15) 0.63046(7)
H67 H -0.7049 0.8920 0.6369
H68 H -0.6089 0.9616 0.6036
C54 C -0.5465(3) 0.94755(15) 0.67575(7)
H69 H -0.5287 0.8951 0.7024
H70 H -0.4364 0.9664 0.6690
C55 C -0.6811(3) 1.03301(15) 0.69260(8)
H71 H -0.7911 1.0142 0.6994
H72 H -0.6990 1.0856 0.6660
C56 C -0.6329(3) 1.07033(15) 0.73769(7)
H73 H -0.6050 1.0165 0.7634
H74 H -0.5285 1.0946 0.7300
C57 C -0.7744(3) 1.14997(16) 0.75680(8)
H75 H -0.8018 1.2040 0.7311
H76 H -0.8790 1.1258 0.7642
C58 C -0.7272(4) 1.18699(18) 0.80197(9)
H77 H -0.8235 1.2377 0.8127
H78 H -0.6259 1.2130 0.7946
H79 H -0.7016 1.1342 0.8278
C59 C 0.2634(3) -0.09246(16) 0.15173(8)
H80 H 0.2937 -0.1383 0.1808
H81 H 0.3426 -0.0492 0.1481
C60 C 0.2735(3) -0.14500(17) 0.10723(9)
H82 H 0.2414 -0.0970 0.0790
H83 H 0.1872 -0.1839 0.1113
C61 C 0.4457(3) -0.21010(16) 0.09565(8)
H84 H 0.4762 -0.2609 0.1228
H85 H 0.5340 -0.1724 0.0926
C62 C 0.4468(3) -0.25676(16) 0.04898(8)
H86 H 0.3534 -0.2909 0.0517
H87 H 0.4205 -0.2055 0.0219
C63 C 0.6126(3) -0.32670(16) 0.03620(8)
H88 H 0.6409 -0.3775 0.0634
H89 H 0.7058 -0.2924 0.0324
C64 C 0.6070(3) -0.37389(16) -0.01015(8)
H90 H 0.5123 -0.4071 -0.0065
H91 H 0.5805 -0.3231 -0.0374
C65 C 0.7715(3) -0.44528(16) -0.02277(8)
H92 H 0.7996 -0.4947 0.0051
H93 H 0.8652 -0.4114 -0.0272
C66 C 0.7680(3) -0.49548(16) -0.06793(8)
H94 H 0.6749 -0.5299 -0.0637
H95 H 0.7408 -0.4465 -0.0960
C67 C 0.9354(4) -0.56630(17) -0.07910(9)
H96 H 0.9619 -0.6152 -0.0510
H97 H 1.0282 -0.5317 -0.0829
C68 C 0.9364(4) -0.61750(18) -0.12447(9)
H98 H 1.0491 -0.6616 -0.1292
H99 H 0.9130 -0.5700 -0.1527
H100 H 0.8476 -0.6539 -0.1207
loop_
_geom_bond_atom_site_label_1
_geom_bond_atom_site_label_2
_geom_bond_site_symmetry_1
_geom_bond_site_symmetry_2
S1 C1 1_555 1_555
S2 C35 1_555 1_555
O1 C6 1_555 1_555
O2 C12 1_555 1_555
O3 C40 1_555 1_555
O4 C46 1_555 1_555
N1 N2 1_555 1_555
N2 C2 1_555 1_555
N3 N4 1_555 1_555
N4 C36 1_555 1_555
C1 N1 1_555 1_555
C2 S1 1_555 1_555
C3 C1 1_555 1_555
C4 C3 1_555 1_555
H1 C4 1_555 1_555
C5 C4 1_555 1_555
H2 C5 1_555 1_555
C6 C5 1_555 1_555
C7 C6 1_555 1_555
H3 C7 1_555 1_555
C8 C3 1_555 1_555
H4 C8 1_555 1_555
C9 C2 1_555 1_555
C10 C9 1_555 1_555
H5 C10 1_555 1_555
C11 C10 1_555 1_555
H6 C11 1_555 1_555
C12 C11 1_555 1_555
C13 C12 1_555 1_555
H7 C13 1_555 1_555
C14 C9 1_555 1_555
H8 C14 1_555 1_555
C15 O1 1_555 1_555
H9 C15 1_555 1_555
H10 C15 1_555 1_555
C16 C15 1_555 1_555
H11 C16 1_555 1_555
H12 C16 1_555 1_555
C17 C16 1_555 1_555
H13 C17 1_555 1_555
H14 C17 1_555 1_555
C18 C17 1_555 1_555
H15 C18 1_555 1_555
H16 C18 1_555 1_555
C19 C18 1_555 1_555
H17 C19 1_555 1_555
H18 C19 1_555 1_555
C20 C19 1_555 1_555
H19 C20 1_555 1_555
H20 C20 1_555 1_555
C21 C20 1_555 1_555
H21 C21 1_555 1_555
H22 C21 1_555 1_555
C22 C21 1_555 1_555
H23 C22 1_555 1_555
H24 C22 1_555 1_555
C23 C22 1_555 1_555
H25 C23 1_555 1_555
H26 C23 1_555 1_555
C24 C23 1_555 1_555
H27 C24 1_555 1_555
H28 C24 1_555 1_555
H29 C24 1_555 1_555
C25 O2 1_555 1_555
H30 C25 1_555 1_555
H31 C25 1_555 1_555
C26 C25 1_555 1_555
H32 C26 1_555 1_555
H33 C26 1_555 1_555
C27 C26 1_555 1_555
H34 C27 1_555 1_555
H35 C27 1_555 1_555
C28 C27 1_555 1_555
H36 C28 1_555 1_555
H37 C28 1_555 1_555
C29 C28 1_555 1_555
H38 C29 1_555 1_555
H39 C29 1_555 1_555
C30 C29 1_555 1_555
H40 C30 1_555 1_555
H41 C30 1_555 1_555
C31 C30 1_555 1_555
H42 C31 1_555 1_555
H43 C31 1_555 1_555
C32 C31 1_555 1_555
H44 C32 1_555 1_555
H45 C32 1_555 1_555
C33 C32 1_555 1_555
H46 C33 1_555 1_555
H47 C33 1_555 1_555
C34 C33 1_555 1_555
H48 C34 1_555 1_555
H49 C34 1_555 1_555
H50 C34 1_555 1_555
C35 N3 1_555 1_555
C36 S2 1_555 1_555
C37 C35 1_555 1_555
C38 C37 1_555 1_555
H51 C38 1_555 1_555
C39 C38 1_555 1_555
H52 C39 1_555 1_555
C40 C39 1_555 1_555
C41 C40 1_555 1_555
H53 C41 1_555 1_555
C42 C37 1_555 1_555
H54 C42 1_555 1_555
C43 C36 1_555 1_555
C44 C43 1_555 1_555
H55 C44 1_555 1_555
C45 C44 1_555 1_555
H56 C45 1_555 1_555
C46 C45 1_555 1_555
C47 C46 1_555 1_555
H57 C47 1_555 1_555
C48 C43 1_555 1_555
H58 C48 1_555 1_555
C49 O3 1_555 1_555
H59 C49 1_555 1_555
H60 C49 1_555 1_555
C50 C49 1_555 1_555
H61 C50 1_555 1_555
H62 C50 1_555 1_555
C51 C50 1_555 1_555
H63 C51 1_555 1_555
H64 C51 1_555 1_555
C52 C51 1_555 1_555
H65 C52 1_555 1_555
H66 C52 1_555 1_555
C53 C52 1_555 1_555
H67 C53 1_555 1_555
H68 C53 1_555 1_555
C54 C53 1_555 1_555
H69 C54 1_555 1_555
H70 C54 1_555 1_555
C55 C54 1_555 1_555
H71 C55 1_555 1_555
H72 C55 1_555 1_555
C56 C55 1_555 1_555
H73 C56 1_555 1_555
H74 C56 1_555 1_555
C57 C56 1_555 1_555
H75 C57 1_555 1_555
H76 C57 1_555 1_555
C58 C57 1_555 1_555
H77 C58 1_555 1_555
H78 C58 1_555 1_555
H79 C58 1_555 1_555
C59 O4 1_555 1_555
H80 C59 1_555 1_555
H81 C59 1_555 1_555
C60 C59 1_555 1_555
H82 C60 1_555 1_555
H83 C60 1_555 1_555
C61 C60 1_555 1_555
H84 C61 1_555 1_555
H85 C61 1_555 1_555
C62 C61 1_555 1_555
H86 C62 1_555 1_555
H87 C62 1_555 1_555
C63 C62 1_555 1_555
H88 C63 1_555 1_555
H89 C63 1_555 1_555
C64 C63 1_555 1_555
H90 C64 1_555 1_555
H91 C64 1_555 1_555
C65 C64 1_555 1_555
H92 C65 1_555 1_555
H93 C65 1_555 1_555
C66 C65 1_555 1_555
H94 C66 1_555 1_555
H95 C66 1_555 1_555
C67 C66 1_555 1_555
H96 C67 1_555 1_555
H97 C67 1_555 1_555
C68 C67 1_555 1_555
H98 C68 1_555 1_555
H99 C68 1_555 1_555
H100 C68 1_555 1_555
C7 C8 1_555 1_555
C13 C14 1_555 1_555
C41 C42 1_555 1_555
C47 C48 1_555 1_555

#END
