
#######################################################################
#
#                 Cambridge Crystallographic Data Centre
#                                CCDC 
#
#######################################################################
#
# If this CIF has been generated from an entry in the Cambridge 
# Structural Database, then it will include bibliographic, chemical, 
# crystal, experimental, refinement or atomic coordinate data resulting 
# from the CCDC's data processing and validation procedures.
#
#######################################################################

data_VUSSOS
_chemical_name_common            1-(4-Fluorobenzoyl)pyrrolo[1,2-a]quinoline
_chemical_formula_moiety         'C19 H12 F1 N1 O1'
_chemical_name_systematic        
(4-Fluorophenyl)(pyrrolo[1,2-a]quinolin-1-yl)methanone
_symmetry_cell_setting           triclinic
_symmetry_space_group_name_H-M   'P -1'
_symmetry_Int_Tables_number      2
_space_group_name_Hall           '-P 1'
loop_
_symmetry_equiv_pos_site_id
_symmetry_equiv_pos_as_xyz
1 x,y,z
2 -x,-y,-z
_cell_length_a                   7.8880(16)
_cell_length_b                   13.530(3)
_cell_length_c                   14.876(3)
_cell_angle_alpha                103.97(3)
_cell_angle_beta                 105.05(3)
_cell_angle_gamma                102.57(3)
_cell_volume                     1419.71
_exptl_crystal_colour            yellow
_exptl_crystal_description       block
_chemical_melting_point          '393 K'
_cell_formula_units_Z            4
loop_
_atom_site_label
_atom_site_type_symbol
_atom_site_fract_x
_atom_site_fract_y
_atom_site_fract_z
F1 F 0.1644(4) -0.0461(2) 0.6364(2)
O1 O 0.3313(4) -0.1821(3) 1.0177(2)
N1 N 0.6438(4) -0.2734(3) 1.0351(3)
C1 C 0.3838(8) -0.5050(4) 1.1407(3)
H1 H 0.3266 -0.5583 1.1619
C2 C 0.5708(8) -0.4694(5) 1.1683(4)
H2 H 0.6407 -0.4983 1.2093
C3 C 0.6621(7) -0.3888(4) 1.1357(3)
C4 C 0.5515(6) -0.3496(4) 1.0730(3)
C5 C 0.3613(6) -0.3834(4) 1.0461(3)
H3 H 0.2886 -0.3551 1.0056
C6 C 0.2830(8) -0.4618(4) 1.0823(4)
H4 H 0.1556 -0.4852 1.0653
C7 C 0.8543(8) -0.3611(5) 1.1555(4)
H5 H 0.9251 -0.3874 1.1989
C8 C 0.9370(7) -0.2973(4) 1.1127(4)
H6 H 1.0633 -0.2811 1.1253
C9 C 0.8323(6) -0.2559(4) 1.0497(4)
C10 C 0.8793(6) -0.1959(4) 0.9903(4)
H7 H 0.9957 -0.1727 0.9856
C11 C 0.7226(6) -0.1771(4) 0.9402(4)
H8 H 0.7155 -0.1399 0.8950
C12 C 0.5763(5) -0.2229(3) 0.9679(3)
C13 C 0.4118(6) -0.1892(4) 0.9565(3)
C14 C 0.3468(5) -0.1540(3) 0.8689(3)
C15 C 0.3557(6) -0.2006(3) 0.7782(3)
H9 H 0.4070 -0.2565 0.7702
C16 C 0.2915(6) -0.1678(4) 0.6983(4)
H10 H 0.2929 -0.2024 0.6364
C17 C 0.2257(6) -0.0819(4) 0.7144(4)
C18 C 0.2130(6) -0.0318(4) 0.8014(4)
H11 H 0.1643 0.0252 0.8084
C19 C 0.2751(6) -0.0678(4) 0.8803(4)
H12 H 0.2686 -0.0342 0.9412
F2 F 0.7743(4) -0.0820(2) 0.7539(2)
O2 O 0.6985(4) 0.2627(2) 0.5433(2)
N2 N 0.4349(4) 0.3698(2) 0.6016(2)
C20 C 0.8211(7) 0.6677(4) 0.6777(4)
H13 H 0.9059 0.7345 0.6951
C21 C 0.6372(7) 0.6542(3) 0.6397(3)
H14 H 0.5989 0.7125 0.6306
C22 C 0.5039(6) 0.5553(3) 0.6139(3)
C23 C 0.5696(5) 0.4682(3) 0.6264(3)
C24 C 0.7553(5) 0.4828(3) 0.6645(3)
H15 H 0.7970 0.4254 0.6732
C25 C 0.8798(6) 0.5821(4) 0.6900(4)
H16 H 1.0050 0.5911 0.7157
C26 C 0.3122(6) 0.5430(4) 0.5844(3)
H17 H 0.2707 0.5993 0.5723
C27 C 0.1896(6) 0.4506(4) 0.5736(3)
H18 H 0.0652 0.4452 0.5586
C28 C 0.2502(5) 0.3619(3) 0.5852(3)
C29 C 0.1599(6) 0.2640(4) 0.5848(3)
H19 H 0.0352 0.2387 0.5757
C30 C 0.2877(5) 0.2091(3) 0.6004(3)
H20 H 0.2628 0.1402 0.6045
C31 C 0.4572(5) 0.2717(3) 0.6090(3)
C32 C 0.6083(6) 0.2310(3) 0.5931(3)
C33 C 0.6425(5) 0.1459(3) 0.6354(3)
C34 C 0.6166(5) 0.1412(3) 0.7232(3)
H21 H 0.5687 0.1904 0.7555
C35 C 0.6609(6) 0.0646(3) 0.7632(3)
H22 H 0.6429 0.0611 0.8219
C36 C 0.7314(6) -0.0056(3) 0.7151(4)
C37 C 0.7558(6) -0.0059(3) 0.6266(4)
H23 H 0.7994 -0.0572 0.5939
C38 C 0.7137(6) 0.0720(3) 0.5879(3)
H24 H 0.7332 0.0751 0.5295
loop_
_geom_bond_atom_site_label_1
_geom_bond_atom_site_label_2
_geom_bond_site_symmetry_1
_geom_bond_site_symmetry_2
F1 C17 1_555 1_555
O1 C13 1_555 1_555
N1 C4 1_555 1_555
C1 H1 1_555 1_555
C2 C1 1_555 1_555
H2 C2 1_555 1_555
C3 C2 1_555 1_555
C4 C3 1_555 1_555
C5 C4 1_555 1_555
H3 C5 1_555 1_555
C6 C1 1_555 1_555
H4 C6 1_555 1_555
C7 C3 1_555 1_555
H5 C7 1_555 1_555
C8 C7 1_555 1_555
H6 C8 1_555 1_555
C9 N1 1_555 1_555
C10 C9 1_555 1_555
H7 C10 1_555 1_555
C11 C10 1_555 1_555
H8 C11 1_555 1_555
C12 N1 1_555 1_555
C13 C12 1_555 1_555
C14 C13 1_555 1_555
C15 C14 1_555 1_555
H9 C15 1_555 1_555
C16 C15 1_555 1_555
H10 C16 1_555 1_555
C17 C16 1_555 1_555
C18 C17 1_555 1_555
H11 C18 1_555 1_555
C19 C14 1_555 1_555
H12 C19 1_555 1_555
F2 C36 1_555 1_555
O2 C32 1_555 1_555
N2 C23 1_555 1_555
C20 H13 1_555 1_555
C21 C20 1_555 1_555
H14 C21 1_555 1_555
C22 C21 1_555 1_555
C23 C22 1_555 1_555
C24 C23 1_555 1_555
H15 C24 1_555 1_555
C25 C20 1_555 1_555
H16 C25 1_555 1_555
C26 C22 1_555 1_555
H17 C26 1_555 1_555
C27 C26 1_555 1_555
H18 C27 1_555 1_555
C28 N2 1_555 1_555
C29 C28 1_555 1_555
H19 C29 1_555 1_555
C30 C29 1_555 1_555
H20 C30 1_555 1_555
C31 N2 1_555 1_555
C32 C31 1_555 1_555
C33 C32 1_555 1_555
C34 C33 1_555 1_555
H21 C34 1_555 1_555
C35 C34 1_555 1_555
H22 C35 1_555 1_555
C36 C35 1_555 1_555
C37 C36 1_555 1_555
H23 C37 1_555 1_555
C38 C33 1_555 1_555
H24 C38 1_555 1_555
C5 C6 1_555 1_555
C8 C9 1_555 1_555
C11 C12 1_555 1_555
C18 C19 1_555 1_555
C24 C25 1_555 1_555
C27 C28 1_555 1_555
C30 C31 1_555 1_555
C37 C38 1_555 1_555

#END
