
#######################################################################
#
#                 Cambridge Crystallographic Data Centre
#                                CCDC 
#
#######################################################################
#
# If this CIF has been generated from an entry in the Cambridge 
# Structural Database, then it will include bibliographic, chemical, 
# crystal, experimental, refinement or atomic coordinate data resulting 
# from the CCDC's data processing and validation procedures.
#
#######################################################################

data_VUSTOT
_chemical_formula_moiety         'C21 H23 Cl1 O5 S1,C3 H7 N1 O1'
_chemical_name_systematic        
'3-(((4-chlorophenyl)sulfonyl)methyl)-3-phenyl-1,2,5-trioxaspiro[5.5]undecane N,N-dimethylformamide solvate'
_symmetry_cell_setting           triclinic
_symmetry_space_group_name_H-M   'P -1'
_symmetry_Int_Tables_number      2
_space_group_name_Hall           '-P 1'
loop_
_symmetry_equiv_pos_site_id
_symmetry_equiv_pos_as_xyz
1 x,y,z
2 -x,-y,-z
_cell_length_a                   5.6889(13)
_cell_length_b                   13.461(3)
_cell_length_c                   16.663(4)
_cell_angle_alpha                67.393(4)
_cell_angle_beta                 80.926(5)
_cell_angle_gamma                83.493(4)
_cell_volume                     1161.29
_exptl_crystal_colour            colorless
_exptl_crystal_description       plate
_cell_formula_units_Z            2
loop_
_atom_site_label
_atom_site_type_symbol
_atom_site_fract_x
_atom_site_fract_y
_atom_site_fract_z
Cl1 Cl 0.66406(11) 0.03028(4) 0.59454(4)
S1 S 0.95563(9) 0.50137(4) 0.37893(3)
O1 O 1.1237(3) 0.64651(10) 0.13849(9)
O2 O 1.1134(3) 0.52860(11) 0.17165(9)
O3 O 0.7422(3) 0.66974(11) 0.09961(9)
O4 O 1.2082(3) 0.49863(11) 0.35172(9)
O5 O 0.8560(3) 0.57089(11) 0.42474(9)
C1 C 0.9846(4) 0.69279(16) 0.06692(13)
C2 C 0.8736(4) 0.50268(16) 0.21191(13)
C3 C 0.7088(4) 0.55681(16) 0.14088(13)
C4 C 0.9990(4) 0.81344(16) 0.04037(14)
C5 C 1.2478(4) 0.85096(18) -0.00161(14)
C6 C 1.3349(5) 0.81535(18) -0.07835(14)
C7 C 1.3249(4) 0.69363(18) -0.05034(14)
C8 C 1.0769(4) 0.65619(17) -0.00864(13)
C9 C 0.7979(4) 0.54587(16) 0.28576(13)
C10 C 0.8743(4) 0.36836(16) 0.44288(13)
C11 C 0.6463(4) 0.35092(16) 0.48783(13)
C12 C 0.5819(4) 0.24607(17) 0.53553(13)
C13 C 0.7473(4) 0.16170(17) 0.53708(13)
C14 C 0.9762(4) 0.17860(17) 0.49409(13)
C15 C 1.0406(4) 0.28320(16) 0.44617(13)
C16 C 0.8685(4) 0.38112(16) 0.24147(13)
C17 C 0.6570(4) 0.33253(17) 0.28435(13)
C18 C 0.6443(4) 0.22163(17) 0.31090(13)
C19 C 0.8411(4) 0.15842(17) 0.29472(14)
C20 C 1.0513(4) 0.20724(17) 0.25173(14)
C21 C 1.0661(4) 0.31776(17) 0.22512(13)
H1 H 0.74240 0.52340 0.09640
H2 H 0.54080 0.54540 0.16740
H3 H 0.95390 0.83240 0.09280
H4 H 0.88320 0.85190 -0.00160
H5 H 1.36010 0.82080 0.04280
H6 H 1.24490 0.93050 -0.02250
H7 H 1.50100 0.83610 -0.10130
H8 H 1.23440 0.85260 -0.12590
H9 H 1.37190 0.67360 -0.10220
H10 H 1.44030 0.65650 -0.00790
H11 H 1.08100 0.57650 0.01310
H12 H 0.96600 0.68510 -0.05360
H13 H 0.62890 0.52960 0.30760
H14 H 0.80270 0.62530 0.25880
H15 H 0.53590 0.41000 0.48590
H16 H 0.42670 0.23230 0.56670
H17 H 1.08750 0.11940 0.49740
H18 H 1.19680 0.29670 0.41580
H19 H 0.52060 0.37520 0.29560
H20 H 0.49930 0.18900 0.34040
H21 H 0.83220 0.08270 0.31280
H22 H 1.18720 0.16440 0.24030
H23 H 1.21130 0.35010 0.19570
O6 O -0.1616(3) 0.90807(15) 0.28090(14)
N1 N 0.2166(3) 0.85243(14) 0.24227(12)
C22 C -0.0005(4) 0.83856(19) 0.28715(17)
C23 C 0.2893(5) 0.95826(18) 0.18322(16)
C24 C 0.3953(4) 0.76352(17) 0.25456(15)
H24 H -0.03290 0.76790 0.32780
H25 H 0.15510 1.01130 0.18120
H26 H 0.33950 0.95750 0.12440
H27 H 0.42260 0.97750 0.20410
H28 H 0.32860 0.69750 0.29880
H29 H 0.53470 0.77970 0.27420
H30 H 0.44310 0.75330 0.19900
loop_
_geom_bond_atom_site_label_1
_geom_bond_atom_site_label_2
_geom_bond_site_symmetry_1
_geom_bond_site_symmetry_2
Cl1 C13 1_555 1_555
S1 O4 1_555 1_555
O1 O2 1_555 1_555
O2 C2 1_555 1_555
O3 C1 1_555 1_555
O5 S1 1_555 1_555
C1 O1 1_555 1_555
C2 C3 1_555 1_555
C3 O3 1_555 1_555
C4 C1 1_555 1_555
C5 C4 1_555 1_555
C6 C5 1_555 1_555
C7 C6 1_555 1_555
C8 C1 1_555 1_555
C9 S1 1_555 1_555
C10 S1 1_555 1_555
C11 C10 1_555 1_555
C12 C11 1_555 1_555
C13 C12 1_555 1_555
C14 C13 1_555 1_555
C15 C10 1_555 1_555
C16 C2 1_555 1_555
C17 C16 1_555 1_555
C18 C17 1_555 1_555
C19 C18 1_555 1_555
C20 C19 1_555 1_555
C21 C16 1_555 1_555
O6 C22 1_555 1_555
N1 C22 1_555 1_555
C22 H24 1_555 1_555
C23 N1 1_555 1_555
C24 N1 1_555 1_555
H1 C3 1_555 1_555
H2 C3 1_555 1_555
H3 C4 1_555 1_555
H4 C4 1_555 1_555
H5 C5 1_555 1_555
H6 C5 1_555 1_555
H7 C6 1_555 1_555
H8 C6 1_555 1_555
H9 C7 1_555 1_555
H10 C7 1_555 1_555
H11 C8 1_555 1_555
H12 C8 1_555 1_555
H13 C9 1_555 1_555
H14 C9 1_555 1_555
H15 C11 1_555 1_555
H16 C12 1_555 1_555
H17 C14 1_555 1_555
H18 C15 1_555 1_555
H19 C17 1_555 1_555
H20 C18 1_555 1_555
H21 C19 1_555 1_555
H22 C20 1_555 1_555
H23 C21 1_555 1_555
H25 C23 1_555 1_555
H26 C23 1_555 1_555
H27 C23 1_555 1_555
H28 C24 1_555 1_555
H29 C24 1_555 1_555
H30 C24 1_555 1_555
C2 C9 1_555 1_555
C7 C8 1_555 1_555
C14 C15 1_555 1_555
C20 C21 1_555 1_555

#END
