
#######################################################################
#
#                 Cambridge Crystallographic Data Centre
#                                CCDC 
#
#######################################################################
#
# If this CIF has been generated from an entry in the Cambridge 
# Structural Database, then it will include bibliographic, chemical, 
# crystal, experimental, refinement or atomic coordinate data resulting 
# from the CCDC's data processing and validation procedures.
#
#######################################################################

data_VUSWIQ
_chemical_formula_moiety         'C34 H49 N2 1+,I1 1-'
_chemical_name_systematic        
'1,3-bis(2,6-diisopropylphenyl)-2-(4,4-dimethylpent-2-en-2-yl)imidazolium iodide'
_symmetry_cell_setting           orthorhombic
_symmetry_space_group_name_H-M   'P b c a'
_symmetry_Int_Tables_number      61
_space_group_name_Hall           '-P 2ac 2ab'
loop_
_symmetry_equiv_pos_site_id
_symmetry_equiv_pos_as_xyz
1 x,y,z
2 1/2-x,-y,1/2+z
3 1/2+x,1/2-y,-z
4 -x,1/2+y,1/2-z
5 -x,-y,-z
6 1/2+x,y,1/2-z
7 1/2-x,1/2+y,z
8 x,1/2-y,1/2+z
_cell_length_a                   17.0042(8)
_cell_length_b                   18.6505(13)
_cell_length_c                   20.0765(14)
_cell_angle_alpha                90
_cell_angle_beta                 90
_cell_angle_gamma                90
_cell_volume                     6367
_exptl_crystal_colour            colorless
_exptl_crystal_description       platelet
_cell_formula_units_Z            8
loop_
_atom_site_label
_atom_site_type_symbol
_atom_site_fract_x
_atom_site_fract_y
_atom_site_fract_z
N1 N 0.0768(3) 0.4357(4) 0.3297(3)
N2 N 0.1295(3) 0.4423(3) 0.2310(3)
C1 C 0.0723(4) 0.4102(4) 0.2674(4)
C2 C 0.1692(4) 0.4905(4) 0.2725(4)
H1 H 0.2109 0.5212 0.2592
C3 C 0.1396(4) 0.4864(4) 0.3329(4)
H2 H 0.1566 0.5121 0.3711
C4 C 0.0175(4) 0.4271(4) 0.3832(4)
C5 C 0.1439(4) 0.4369(5) 0.1596(4)
C6 C -0.0489(4) 0.4674(4) 0.3792(4)
C7 C 0.1154(4) 0.4937(4) 0.1199(4)
C8 C -0.1017(5) 0.4589(5) 0.4298(4)
H3 H -0.1484 0.4869 0.4297
C9 C 0.1327(4) 0.4888(5) 0.0528(4)
H4 H 0.1170 0.5264 0.0238
C10 C -0.0896(4) 0.4118(4) 0.4805(4)
H5 H -0.1287 0.4065 0.5140
C11 C 0.1727(4) 0.4298(5) 0.0265(4)
H6 H 0.1820 0.4266 -0.0200
C12 C -0.0222(5) 0.3719(4) 0.4842(4)
H7 H -0.0143 0.3402 0.5206
C13 C 0.1980(4) 0.3773(4) 0.0675(4)
H8 H 0.2264 0.3383 0.0488
C14 C 0.0357(4) 0.3777(5) 0.4339(4)
C15 C 0.1846(4) 0.3777(5) 0.1359(4)
C16 C 0.1098(5) 0.3334(4) 0.4365(4)
H9 H 0.1318 0.3299 0.3904
C17 C 0.2130(4) 0.3174(4) 0.1785(4)
H10 H 0.2005 0.3296 0.2258
C18 C 0.0965(6) 0.2584(5) 0.4625(5)
H11 H 0.0810 0.2606 0.5095
H12 H 0.1452 0.2306 0.4583
H13 H 0.0547 0.2352 0.4366
C19 C 0.3028(4) 0.3064(5) 0.1734(4)
H14 H 0.3164 0.2904 0.1283
H15 H 0.3194 0.2700 0.2057
H16 H 0.3297 0.3517 0.1830
C20 C 0.1713(5) 0.3720(5) 0.4816(4)
H17 H 0.1774 0.4218 0.4668
H18 H 0.2220 0.3473 0.4783
H19 H 0.1531 0.3713 0.5279
C21 C 0.1725(5) 0.2470(4) 0.1625(4)
H20 H 0.1154 0.2538 0.1637
H21 H 0.1877 0.2108 0.1954
H22 H 0.1883 0.2310 0.1179
C22 C -0.0607(4) 0.5227(5) 0.3219(4)
H23 H -0.0317 0.5054 0.2817
C23 C 0.0697(4) 0.5577(4) 0.1468(4)
H24 H 0.0564 0.5474 0.1944
C24 C -0.0299(5) 0.5962(4) 0.3405(4)
H25 H -0.0551 0.6123 0.3817
H26 H -0.0417 0.6302 0.3046
H27 H 0.0272 0.5937 0.3471
C25 C -0.0070(5) 0.5699(5) 0.1097(5)
H28 H 0.0044 0.5836 0.0636
H29 H -0.0367 0.6083 0.1315
H30 H -0.0381 0.5257 0.1101
C26 C -0.1502(4) 0.5292(5) 0.3041(5)
H31 H -0.1711 0.4817 0.2930
H32 H -0.1566 0.5612 0.2658
H33 H -0.1789 0.5487 0.3423
C27 C 0.1210(5) 0.6246(5) 0.1455(5)
H34 H 0.1680 0.6167 0.1728
H35 H 0.0912 0.6653 0.1633
H36 H 0.1367 0.6349 0.0995
C28 C 0.0173(4) 0.3527(4) 0.2431(4)
C29 C -0.0264(5) 0.3706(5) 0.1913(5)
H37 H -0.0210 0.4193 0.1782
C30 C -0.0826(5) 0.3291(7) 0.1496(5)
C31 C -0.0529(6) 0.3319(8) 0.0784(6)
H38 H -0.0009 0.3094 0.0759
H39 H -0.0490 0.3820 0.0640
H40 H -0.0895 0.3061 0.0492
C32 C -0.0861(4) 0.2578(4) 0.1734(5)
H41 H -0.1312 0.2333 0.1533
H42 H -0.0918 0.2582 0.2219
H43 H -0.0376 0.2325 0.1613
C33 C -0.1644(4) 0.3671(6) 0.1514(4)
H44 H -0.2016 0.3406 0.1233
H45 H -0.1590 0.4162 0.1347
H46 H -0.1839 0.3682 0.1973
C34 C 0.0179(5) 0.2849(4) 0.2830(4)
H47 H -0.0022 0.2454 0.2557
H48 H -0.0154 0.2908 0.3224
H49 H 0.0719 0.2741 0.2970
I1 I 0.24961(3) 0.15598(3) 0.35284(3)
H50? H -0.0425 0.2494 0.2044
H51? H -0.0819 0.2245 0.1358
H52? H -0.1362 0.2501 0.1964
H53? H 0.0384 0.2948 0.3277
H54? H 0.0516 0.2494 0.2610
H55? H -0.0357 0.2661 0.2864
loop_
_geom_bond_atom_site_label_1
_geom_bond_atom_site_label_2
_geom_bond_site_symmetry_1
_geom_bond_site_symmetry_2
N1 C1 1_555 1_555
N2 C1 1_555 1_555
C1 C28 1_555 1_555
C2 N2 1_555 1_555
H1 C2 1_555 1_555
C3 N1 1_555 1_555
H2 C3 1_555 1_555
C4 N1 1_555 1_555
C5 N2 1_555 1_555
C6 C4 1_555 1_555
C7 C5 1_555 1_555
C8 C6 1_555 1_555
H3 C8 1_555 1_555
C9 C7 1_555 1_555
H4 C9 1_555 1_555
C10 C8 1_555 1_555
H5 C10 1_555 1_555
C11 C9 1_555 1_555
H6 C11 1_555 1_555
C12 C10 1_555 1_555
H7 C12 1_555 1_555
C13 C11 1_555 1_555
H8 C13 1_555 1_555
C14 C4 1_555 1_555
C15 C5 1_555 1_555
C16 C14 1_555 1_555
H9 C16 1_555 1_555
C17 C15 1_555 1_555
H10 C17 1_555 1_555
C18 C16 1_555 1_555
H11 C18 1_555 1_555
H12 C18 1_555 1_555
H13 C18 1_555 1_555
C19 C17 1_555 1_555
H14 C19 1_555 1_555
H15 C19 1_555 1_555
H16 C19 1_555 1_555
C20 C16 1_555 1_555
H17 C20 1_555 1_555
H18 C20 1_555 1_555
H19 C20 1_555 1_555
C21 C17 1_555 1_555
H20 C21 1_555 1_555
H21 C21 1_555 1_555
H22 C21 1_555 1_555
C22 C6 1_555 1_555
H23 C22 1_555 1_555
C23 C7 1_555 1_555
H24 C23 1_555 1_555
C24 C22 1_555 1_555
H25 C24 1_555 1_555
H26 C24 1_555 1_555
H27 C24 1_555 1_555
C25 C23 1_555 1_555
H28 C25 1_555 1_555
H29 C25 1_555 1_555
H30 C25 1_555 1_555
C26 C22 1_555 1_555
H31 C26 1_555 1_555
H32 C26 1_555 1_555
H33 C26 1_555 1_555
C27 C23 1_555 1_555
H34 C27 1_555 1_555
H35 C27 1_555 1_555
H36 C27 1_555 1_555
C28 C29 1_555 1_555
C29 H37 1_555 1_555
C30 C29 1_555 1_555
C31 C30 1_555 1_555
H38 C31 1_555 1_555
H39 C31 1_555 1_555
H40 C31 1_555 1_555
C32 C30 1_555 1_555
H41 C32 1_555 1_555
H42 C32 1_555 1_555
H43 C32 1_555 1_555
C33 C30 1_555 1_555
H44 C33 1_555 1_555
H45 C33 1_555 1_555
H46 C33 1_555 1_555
C34 C28 1_555 1_555
H47 C34 1_555 1_555
H48 C34 1_555 1_555
H49 C34 1_555 1_555
C2 C3 1_555 1_555
C12 C14 1_555 1_555
C13 C15 1_555 1_555

#END
