
#######################################################################
#
#                 Cambridge Crystallographic Data Centre
#                                CCDC 
#
#######################################################################
#
# If this CIF has been generated from an entry in the Cambridge 
# Structural Database, then it will include bibliographic, chemical, 
# crystal, experimental, refinement or atomic coordinate data resulting 
# from the CCDC's data processing and validation procedures.
#
#######################################################################

data_VUSYOY
_chemical_formula_moiety         
'C40 H44 N24 O12,C14 H18 N2 2+,2(Br1 1-),10(H2 O1)'
_chemical_name_systematic        
"\a,\a',\f,\f'-Tetramethylcucurbit(6)uril 1,1'-(butane-1,4-diyl)-dipyridinium clathrate dibromide decahydrate"
_symmetry_cell_setting           triclinic
_symmetry_space_group_name_H-M   'P -1'
_symmetry_Int_Tables_number      2
_space_group_name_Hall           '-P 1'
loop_
_symmetry_equiv_pos_site_id
_symmetry_equiv_pos_as_xyz
1 x,y,z
2 -x,-y,-z
_cell_length_a                   12.658(2)
_cell_length_b                   14.791(3)
_cell_length_c                   18.238(3)
_cell_angle_alpha                85.230(3)
_cell_angle_beta                 80.930(3)
_cell_angle_gamma                75.415(3)
_cell_volume                     3259.87
_exptl_crystal_colour            colorless
_exptl_crystal_description       block
_cell_formula_units_Z            2
loop_
_atom_site_label
_atom_site_type_symbol
_atom_site_fract_x
_atom_site_fract_y
_atom_site_fract_z
C1 C 0.9167(3) 0.5971(2) 0.54350(16)
C2 C 0.7541(2) 0.6325(2) 0.49018(16)
H1 H 0.7503 0.6144 0.4404
C3 C 0.7531(2) 0.5495(2) 0.54879(15)
H2 H 0.7531 0.4921 0.5256
C4 C 0.5927(3) 0.6679(2) 0.57521(16)
C5 C 0.8989(3) 0.4592(2) 0.62424(16)
H3 H 0.9780 0.4514 0.6196
H4 H 0.8858 0.4045 0.6048
C6 C 0.6036(3) 0.5233(2) 0.65346(16)
H5 H 0.5250 0.5508 0.6645
H6 H 0.6130 0.4628 0.6330
C7 C 0.9157(3) 0.4597(2) 0.75656(16)
C8 C 0.7508(2) 0.4377(2) 0.73039(15)
H7 H 0.7490 0.3786 0.7105
C9 C 0.7505(2) 0.4285(2) 0.81541(15)
H8 H 0.7471 0.3655 0.8351
C10 C 0.5902(3) 0.5361(2) 0.78924(17)
C11 C 0.8962(3) 0.4351(2) 0.89331(16)
H9 H 0.9755 0.4276 0.8837
H10 H 0.8824 0.3778 0.9182
C12 C 0.6054(2) 0.4954(2) 0.92128(16)
H11 H 0.6193 0.4310 0.9403
H12 H 0.5262 0.5196 0.9248
C13 C 0.9071(3) 0.5759(2) 0.94917(16)
C14 C 0.7520(2) 0.6063(2) 1.04235(15)
C15 C 0.7511(2) 0.5180(2) 0.99857(15)
C16 C 0.5913(3) 0.6381(2) 0.98526(15)
C17 C 0.8903(3) 0.7115(2) 1.02112(16)
H13 H 0.8718 0.7230 1.0737
H14 H 0.9699 0.6981 1.0090
C18 C 0.6088(3) 0.7668(2) 1.05492(16)
H15 H 0.5289 0.7799 1.0616
H16 H 0.6312 0.7654 1.1036
C19 C 0.9061(3) 0.8335(2) 0.92398(16)
C20 C 0.7475(2) 0.8646(2) 1.01057(15)
H17 H 0.7547 0.8812 1.0601
C21 C 0.7449(2) 0.9484(2) 0.95355(15)
H18 H 0.7415 1.0060 0.9776
C22 C 0.5805(3) 0.9002(2) 0.96194(15)
C23 C 0.8920(3) 0.9814(2) 0.84966(16)
H19 H 0.8784 1.0424 0.8701
H20 H 0.9712 0.9569 0.8392
C24 C 0.5975(3) 1.0356(2) 0.87670(15)
H21 H 0.6087 1.0910 0.8961
H22 H 0.5186 1.0419 0.8809
C25 C 0.9077(3) 0.9631(2) 0.71416(16)
C26 C 0.7452(2) 1.0602(2) 0.77113(15)
H23 H 0.7437 1.1202 0.7908
C27 C 0.7466(2) 1.0682(2) 0.68622(15)
H24 H 0.7491 1.1313 0.6660
C28 C 0.5837(3) 1.0314(2) 0.74396(16)
C29 C 0.8950(2) 1.0013(2) 0.58174(16)
H25 H 0.9742 0.9772 0.5790
H26 H 0.8814 1.0657 0.5624
C30 C 0.6028(2) 1.0597(2) 0.60744(16)
H27 H 0.6162 1.1174 0.5829
H28 H 0.5236 1.0665 0.6166
C31 C 0.9096(2) 0.8579(2) 0.51933(15)
C32 C 0.7518(2) 0.9779(2) 0.50313(15)
C33 C 0.7523(2) 0.8904(2) 0.45811(15)
C34 C 0.5925(2) 0.9222(2) 0.54647(16)
C35 C 0.8943(3) 0.7291(2) 0.44911(16)
H29 H 0.8741 0.7300 0.3999
H30 H 0.9741 0.7153 0.4440
C36 C 0.6137(3) 0.7858(2) 0.47387(16)
H31 H 0.5338 0.7998 0.4829
H32 H 0.6366 0.7734 0.4216
C37 C 0.7504(3) 0.5899(2) 1.12594(16)
H33 H 0.8167 0.5454 1.1359
H34 H 0.6876 0.5662 1.1468
H35 H 0.7459 0.6478 1.1478
C38 C 0.7551(3) 0.4275(2) 1.04535(18)
H36 H 0.8242 0.4082 1.0645
H37 H 0.7479 0.3798 1.0152
H38 H 0.6957 0.4373 1.0859
C39 C 0.7475(3) 1.0688(2) 0.45734(17)
H39 H 0.8134 1.0627 0.4220
H40 H 0.7418 1.1185 0.4895
H41 H 0.6844 1.0827 0.4315
C40 C 0.7591(3) 0.9077(2) 0.37405(16)
H42 H 0.8283 0.9221 0.3545
H43 H 0.6998 0.9593 0.3629
H44 H 0.7537 0.8527 0.3519
N1 N 0.8575(2) 0.65499(17) 0.49394(14)
N2 N 0.8530(2) 0.54057(17) 0.58008(13)
N3 N 0.6570(2) 0.70270(17) 0.51756(13)
N4 N 0.6521(2) 0.58254(17) 0.59833(13)
N5 N 0.8530(2) 0.46415(17) 0.70246(13)
N6 N 0.8537(2) 0.44841(18) 0.82375(13)
N7 N 0.6512(2) 0.50995(17) 0.72158(13)
N8 N 0.6531(2) 0.49753(17) 0.84400(13)
N9 N 0.8481(2) 0.51181(17) 0.94247(13)
N10 N 0.8541(2) 0.63012(18) 1.00728(14)
N11 N 0.6478(2) 0.54907(17) 0.96779(13)
N12 N 0.6534(2) 0.67504(17) 1.02426(13)
N13 N 0.8431(2) 0.79498(17) 0.97977(14)
N14 N 0.8462(2) 0.91956(18) 0.90442(13)
N15 N 0.6432(2) 0.84192(17) 1.00967(14)
N16 N 0.6452(2) 0.95414(17) 0.92140(13)
N17 N 0.8456(2) 0.99165(17) 0.78098(13)
N18 N 0.8455(2) 0.99955(17) 0.65896(13)
N19 N 0.6449(2) 1.03020(17) 0.79853(13)
N20 N 0.6445(2) 1.04614(17) 0.67741(13)
N21 N 0.8535(2) 0.94728(17) 0.53518(13)
N22 N 0.8495(2) 0.82145(17) 0.47851(13)
N23 N 0.6526(2) 0.98318(17) 0.55806(13)
N24 N 0.6491(2) 0.86702(17) 0.48977(14)
O1 O 1.01011(18) 0.59601(15) 0.55285(12)
O2 O 1.01190(18) 0.46601(16) 0.74755(12)
O3 O 0.99240(18) 0.58244(16) 0.91073(13)
O4 O 1.00005(19) 0.79694(16) 0.89690(13)
O5 O 1.00080(18) 0.91326(16) 0.70632(12)
O6 O 0.99891(18) 0.81810(15) 0.53762(12)
O7 O 0.49949(19) 0.70684(16) 0.60134(12)
O8 O 0.49685(18) 0.58587(16) 0.79860(12)
O9 O 0.50034(17) 0.67756(15) 0.96913(12)
O10 O 0.48585(18) 0.90316(15) 0.95617(11)
O11 O 0.48948(18) 1.02074(16) 0.75214(12)
O12 O 0.50332(18) 0.91845(15) 0.58079(12)
C41 C 0.8466(3) 0.7360(3) 0.7100(2)
H45 H 0.9198 0.7247 0.6879
C42 C 0.7616(3) 0.7686(3) 0.6683(2)
H46 H 0.7774 0.7770 0.6170
C43 C 0.6541(3) 0.7888(3) 0.70173(18)
H47 H 0.5975 0.8123 0.6733
C44 C 0.7121(3) 0.7413(3) 0.8161(2)
H48 H 0.6948 0.7321 0.8672
C45 C 0.8205(4) 0.7208(3) 0.7840(2)
H49 H 0.8759 0.6965 0.8132
C46 C 0.5140(3) 0.7976(2) 0.81263(17)
H50 H 0.5006 0.8564 0.8366
H51 H 0.5064 0.7497 0.8514
C47 C 0.4255(3) 0.8056(2) 0.76372(18)
H52 H 0.4414 0.7503 0.7349
H53 H 0.4231 0.8598 0.7296
C48 C 0.3145(3) 0.8153(3) 0.8141(2)
H54 H 0.3160 0.7581 0.8445
H55 H 0.3045 0.8658 0.8471
C49 C 0.2187(3) 0.8343(3) 0.7721(2)
H56 H 0.1515 0.8538 0.8066
H57 H 0.2237 0.8860 0.7364
C50 C 0.1489(3) 0.6965(3) 0.7662(2)
H58 H 0.1150 0.7066 0.8149
C51 C 0.1350(3) 0.6243(3) 0.7316(3)
H59 H 0.0927 0.5847 0.7556
C52 C 0.1859(4) 0.6109(3) 0.6590(3)
H60 H 0.1757 0.5631 0.6329
C53 C 0.2502(4) 0.6671(3) 0.6262(2)
H61 H 0.2867 0.6567 0.5781
C54 C 0.2614(3) 0.7395(3) 0.6640(2)
H62 H 0.3055 0.7785 0.6413
N25 N 0.6304(2) 0.77475(19) 0.77441(15)
N26 N 0.2103(2) 0.75460(18) 0.73233(15)
Br1 Br 0.93711(3) 0.20543(2) 0.71924(2)
Br2 Br 0.56238(3) 1.29084(3) 0.77792(2)
O13 O 0.1784(2) 0.7365(2) 0.43473(16)
O14 O 0.5989(2) 0.28373(19) 0.59114(16)
O15 O 0.3188(2) 0.7701(2) 0.06876(17)
O16 O 0.5529(3) 0.5581(2) 0.45416(15)
O17 O 0.2890(2) 0.1655(2) 0.79704(16)
O18 O 0.2126(2) 0.3240(2) 0.70358(16)
O19 O 0.9039(3) 0.2137(2) 0.90625(19)
O20 O 0.9461(3) 0.9427(3) 0.04552(17)
O21 O 0.8605(3) 0.9447(2) 0.19400(18)
O22 O 0.6376(3) 0.5659(3) 0.30472(18)
H63? H 0.6262 0.7155 0.7679
H64? H 0.2706 0.7183 0.7508
loop_
_geom_bond_atom_site_label_1
_geom_bond_atom_site_label_2
_geom_bond_site_symmetry_1
_geom_bond_site_symmetry_2
C1 N1 1_555 1_555
C2 H1 1_555 1_555
C3 C2 1_555 1_555
H2 C3 1_555 1_555
C4 N3 1_555 1_555
C5 H3 1_555 1_555
H4 C5 1_555 1_555
C6 H5 1_555 1_555
H6 C6 1_555 1_555
C7 N5 1_555 1_555
C8 H7 1_555 1_555
C9 C8 1_555 1_555
H8 C9 1_555 1_555
C10 N7 1_555 1_555
C11 H9 1_555 1_555
H10 C11 1_555 1_555
C12 H11 1_555 1_555
H12 C12 1_555 1_555
C13 N9 1_555 1_555
C14 C15 1_555 1_555
C15 C38 1_555 1_555
C16 N11 1_555 1_555
C17 H13 1_555 1_555
H14 C17 1_555 1_555
C18 H15 1_555 1_555
H16 C18 1_555 1_555
C19 N13 1_555 1_555
C20 H17 1_555 1_555
C21 C20 1_555 1_555
H18 C21 1_555 1_555
C22 N15 1_555 1_555
C23 H19 1_555 1_555
H20 C23 1_555 1_555
C24 H21 1_555 1_555
H22 C24 1_555 1_555
C25 N17 1_555 1_555
C26 H23 1_555 1_555
C27 C26 1_555 1_555
H24 C27 1_555 1_555
C28 N19 1_555 1_555
C29 H25 1_555 1_555
H26 C29 1_555 1_555
C30 H27 1_555 1_555
H28 C30 1_555 1_555
C31 N21 1_555 1_555
C32 C33 1_555 1_555
C33 C40 1_555 1_555
C34 N23 1_555 1_555
C35 H29 1_555 1_555
H30 C35 1_555 1_555
C36 H31 1_555 1_555
H32 C36 1_555 1_555
C37 C14 1_555 1_555
H33 C37 1_555 1_555
H34 C37 1_555 1_555
H35 C37 1_555 1_555
C38 H36 1_555 1_555
H37 C38 1_555 1_555
H38 C38 1_555 1_555
C39 C32 1_555 1_555
H39 C39 1_555 1_555
H40 C39 1_555 1_555
H41 C39 1_555 1_555
C40 H42 1_555 1_555
H43 C40 1_555 1_555
H44 C40 1_555 1_555
C41 H45 1_555 1_555
C42 C41 1_555 1_555
H46 C42 1_555 1_555
C43 C42 1_555 1_555
H47 C43 1_555 1_555
C44 H48 1_555 1_555
C45 C41 1_555 1_555
H49 C45 1_555 1_555
C46 H50 1_555 1_555
H51 C46 1_555 1_555
C47 C46 1_555 1_555
H52 C47 1_555 1_555
H53 C47 1_555 1_555
C48 C47 1_555 1_555
H54 C48 1_555 1_555
H55 C48 1_555 1_555
C49 C48 1_555 1_555
H56 C49 1_555 1_555
H57 C49 1_555 1_555
C50 H58 1_555 1_555
C51 C50 1_555 1_555
H59 C51 1_555 1_555
C52 C51 1_555 1_555
H60 C52 1_555 1_555
C53 C52 1_555 1_555
H61 C53 1_555 1_555
C54 C53 1_555 1_555
H62 C54 1_555 1_555
N1 C2 1_555 1_555
N2 C1 1_555 1_555
N3 C2 1_555 1_555
N4 C3 1_555 1_555
N5 C5 1_555 1_555
N6 C7 1_555 1_555
N7 C6 1_555 1_555
N8 C9 1_555 1_555
N9 C11 1_555 1_555
N10 C13 1_555 1_555
N11 C12 1_555 1_555
N12 C14 1_555 1_555
N13 C17 1_555 1_555
N14 C19 1_555 1_555
N15 C18 1_555 1_555
N16 C21 1_555 1_555
N17 C23 1_555 1_555
N18 C25 1_555 1_555
N19 C24 1_555 1_555
N20 C27 1_555 1_555
N21 C29 1_555 1_555
N22 C31 1_555 1_555
N23 C30 1_555 1_555
N24 C33 1_555 1_555
N25 C43 1_555 1_555
N26 C49 1_555 1_555
O1 C1 1_555 1_555
O2 C7 1_555 1_555
O3 C13 1_555 1_555
O4 C19 1_555 1_555
O5 C25 1_555 1_555
O6 C31 1_555 1_555
O7 C4 1_555 1_555
O8 C10 1_555 1_555
O9 C16 1_555 1_555
O10 C22 1_555 1_555
O11 C28 1_555 1_555
O12 C34 1_555 1_555
C3 N2 1_555 1_555
C4 N4 1_555 1_555
C5 N2 1_555 1_555
C6 N4 1_555 1_555
C8 N5 1_555 1_555
C8 N7 1_555 1_555
C9 N6 1_555 1_555
C10 N8 1_555 1_555
C11 N6 1_555 1_555
C12 N8 1_555 1_555
C14 N10 1_555 1_555
C15 N9 1_555 1_555
C15 N11 1_555 1_555
C16 N12 1_555 1_555
C17 N10 1_555 1_555
C18 N12 1_555 1_555
C20 N13 1_555 1_555
C20 N15 1_555 1_555
C21 N14 1_555 1_555
C22 N16 1_555 1_555
C23 N14 1_555 1_555
C24 N16 1_555 1_555
C26 N17 1_555 1_555
C26 N19 1_555 1_555
C27 N18 1_555 1_555
C28 N20 1_555 1_555
C29 N18 1_555 1_555
C30 N20 1_555 1_555
C32 N21 1_555 1_555
C32 N23 1_555 1_555
C33 N22 1_555 1_555
C34 N24 1_555 1_555
C35 N1 1_555 1_555
C35 N22 1_555 1_555
C36 N3 1_555 1_555
C36 N24 1_555 1_555
C44 C45 1_555 1_555
C44 N25 1_555 1_555
C46 N25 1_555 1_555
C50 N26 1_555 1_555
C54 N26 1_555 1_555

#END
