
#######################################################################
#
#                 Cambridge Crystallographic Data Centre
#                                CCDC 
#
#######################################################################
#
# If this CIF has been generated from an entry in the Cambridge 
# Structural Database, then it will include bibliographic, chemical, 
# crystal, experimental, refinement or atomic coordinate data resulting 
# from the CCDC's data processing and validation procedures.
#
#######################################################################

data_VUSYUE
_chemical_formula_moiety         
'C18 H26 N2 2+,C40 H44 N24 O12,2(Cl1 1-),18.71(H2 O1)'
_chemical_name_systematic        
"(2)-(1,1'-(octane-1,8-diyl)-dipyridinium)-(\a,\a',\f,\f'-tetramethylcucurbit(6)uril)-pseudorotaxane dichloride hydrate"
_symmetry_cell_setting           triclinic
_symmetry_space_group_name_H-M   'P -1'
_symmetry_Int_Tables_number      2
_space_group_name_Hall           '-P 1'
loop_
_symmetry_equiv_pos_site_id
_symmetry_equiv_pos_as_xyz
1 x,y,z
2 -x,-y,-z
_cell_length_a                   12.3530(3)
_cell_length_b                   12.6642(3)
_cell_length_c                   24.8487(6)
_cell_angle_alpha                99.053(2)
_cell_angle_beta                 93.879(2)
_cell_angle_gamma                96.771(2)
_cell_volume                     3797.4
_exptl_crystal_colour            colorless
_exptl_crystal_description       prism
_cell_formula_units_Z            2
loop_
_atom_site_label
_atom_site_type_symbol
_atom_site_fract_x
_atom_site_fract_y
_atom_site_fract_z
O1 O 0.5177(6) 0.1059(5) 0.4913(2)
O2 O -0.1702(5) -0.0082(6) 0.2768(3)
O4 O 0.8140(6) 0.7369(6) 0.2463(4)
O5 O -0.1053(10) 0.2388(7) 0.4997(4)
O6 O 0.1312(8) -0.1975(7) 0.0233(4)
O7 O -0.067(2) 0.7095(11) 0.4342(6)
O9 O 0.1033(9) 0.5751(8) 0.0219(3)
O10 O -0.0669(7) 0.3943(9) 0.4289(3)
O11 O -0.1595(6) 0.5521(10) 0.4887(4)
O12 O 0.1455(15) 0.4532(14) -0.0769(7)
O13 O 0.7278(8) 0.320(2) 0.0968(4)
O14 O 0.775(2) 1.159(2) 0.4489(6)
O15 O 0.1102(16) 0.1058(10) -0.0367(12)
O16 O 0.7376(13) 0.5629(13) 0.1666(7)
O17 O 0.5000 0.0000 0.0000
O18 O 0.023(3) -0.2475(19) 0.0790(13)
O21 O 0.8947(19) -0.246(7) 0.143(2)
O22 O 0.256(4) -0.169(3) -0.0473(14)
C1 C 0.5859(4) 0.6232(4) 0.31834(19)
C2 C 0.4674(4) 0.7660(4) 0.3359(2)
H1 H 0.4840 0.8243 0.3668
H2 H 0.5028 0.7887 0.3052
C3 C 0.4904(4) 0.1244(4) 0.1425(2)
C4 C 0.4950(4) -0.0079(4) 0.1992(2)
C5 C 0.1175(4) 0.5169(4) 0.1529(2)
C6 C 0.3430(4) -0.0099(4) 0.2527(2)
C7 C 0.0433(4) 0.1541(4) 0.1219(2)
H3 H -0.0217 0.1301 0.0961
C8 C -0.0689(4) 0.2251(4) 0.1983(2)
H4 H -0.1291 0.2155 0.1700
H5 H -0.0964 0.1961 0.2293
C9 C 0.3837(4) -0.0319(4) 0.16037(19)
C10 C 0.4391(4) 0.4944(4) 0.43255(19)
C11 C 0.2662(4) 0.7515(4) 0.36129(19)
C12 C 0.0609(5) 0.3393(4) 0.0948(2)
H6 H -0.0114 0.3145 0.0764
H7 H 0.1051 0.3715 0.0693
C13 C 0.3666(5) -0.1400(4) 0.1214(2)
H8 H 0.3604 -0.1979 0.1422
H9 H 0.4278 -0.1454 0.0997
H10 H 0.3008 -0.1446 0.0978
C14 C 0.2089(4) 0.2257(4) 0.09242(18)
C15 C 0.3063(4) 0.7293(4) 0.26897(19)
C16 C 0.1561(4) 0.7274(4) 0.3222(2)
C17 C 0.1825(4) -0.0491(4) 0.1862(2)
H11 H 0.1680 -0.1077 0.1555
H12 H 0.1496 -0.0736 0.2172
C18 C 0.5847(5) 0.3761(4) 0.4276(2)
H13 H 0.6571 0.3983 0.4465
H14 H 0.5396 0.3417 0.4520
C19 C 0.0610(4) 0.0903(4) 0.2055(2)
C20 C 0.1254(4) 0.0689(4) 0.11843(19)
H15 H 0.0986 0.0056 0.0906
C21 C 0.6028(4) 0.5643(4) 0.40235(19)
H16 H 0.6678 0.5879 0.4282
C22 C 0.6861(4) 0.3033(4) 0.3468(2)
H17 H 0.7558 0.3129 0.3695
C23 C 0.6573(4) 0.1424(4) 0.2039(2)
H18 H 0.7015 0.0864 0.2100
H19 H 0.6878 0.1778 0.1754
C24 C 0.1271(4) 0.6891(4) 0.2170(2)
H20 H 0.1685 0.7139 0.1885
H21 H 0.0650 0.7293 0.2205
C25 C 0.5286(4) 0.2005(4) 0.3681(2)
C26 C 0.1628(4) 0.5926(4) 0.3786(2)
C27 C 0.6660(4) 0.1908(4) 0.3078(2)
H22 H 0.7246 0.1470 0.3139
C28 C -0.0062(4) 0.5763(4) 0.3191(2)
H23 H -0.0348 0.5410 0.3481
H24 H -0.0515 0.6318 0.3134
C29 C 0.2835(5) 0.8585(4) 0.4002(2)
H25 H 0.2880 0.9166 0.3795
H26 H 0.3503 0.8635 0.4231
H27 H 0.2232 0.8630 0.4225
C30 C 0.3324(4) 0.6501(4) 0.43804(18)
H28 H 0.3571 0.7216 0.4585
H29 H 0.2914 0.6096 0.4618
C31 C -0.0335(4) 0.3885(4) 0.2682(2)
C32 C 0.6869(4) 0.3300(4) 0.2556(2)
C33 C -0.0370(4) 0.4144(4) 0.1771(2)
H30 H -0.1083 0.4041 0.1559
C34 C 0.0822(5) 0.8161(4) 0.3296(2)
H31 H 0.0582 0.8236 0.3658
H32 H 0.0197 0.7975 0.3032
H33 H 0.1221 0.8830 0.3244
C35 C 0.5220(4) 0.0292(4) 0.3051(2)
H34 H 0.4797 0.0044 0.3333
H35 H 0.5837 -0.0114 0.3017
C36 C 0.3165(4) 0.0730(4) 0.0856(2)
H36 H 0.2887 0.0029 0.0643
H37 H 0.3549 0.1151 0.0617
C37 C 0.5243(4) 0.6504(4) 0.40573(19)
H38 H 0.5549 0.7156 0.4314
C38 C 0.5679(5) -0.0969(4) 0.1929(2)
H39 H 0.5928 -0.1053 0.1569
H40 H 0.5271 -0.1634 0.1981
H41 H 0.6298 -0.0784 0.2197
C39 C 0.7194(4) 0.4942(4) 0.3262(2)
H42 H 0.7475 0.5242 0.2955
H43 H 0.7786 0.5046 0.3550
C40 C -0.0165(4) 0.5275(4) 0.2152(2)
H44 H -0.0751 0.5711 0.2090
N1 N 0.1953(3) 0.7132(3) 0.26778(15)
N2 N 0.3494(3) 0.7474(3) 0.32199(15)
N3 N 0.1048(3) 0.6273(3) 0.33697(16)
N4 N 0.2595(3) 0.6597(3) 0.39071(16)
N5 N 0.5134(3) 0.6712(3) 0.34973(16)
N6 N 0.6314(3) 0.5534(3) 0.34605(17)
N7 N 0.4270(3) 0.5977(3) 0.42410(16)
N8 N 0.5387(3) 0.4709(3) 0.41601(16)
N9 N 0.6857(3) 0.3793(3) 0.30906(17)
N10 N 0.6645(3) 0.2209(3) 0.25389(17)
N11 N 0.5930(4) 0.2987(3) 0.37960(16)
N12 N 0.5626(3) 0.1426(3) 0.32212(16)
N13 N 0.5462(3) 0.0925(3) 0.18476(17)
N14 N 0.3929(3) 0.0586(3) 0.12952(17)
N15 N 0.4544(3) 0.0071(3) 0.25379(16)
N16 N 0.3005(3) -0.0245(3) 0.19954(16)
N17 N 0.2245(3) 0.1265(3) 0.10419(16)
N18 N 0.1082(4) 0.2486(3) 0.10857(17)
N19 N 0.1311(3) 0.0414(3) 0.17287(17)
N20 N 0.0167(3) 0.1632(3) 0.17755(17)
N21 N 0.0518(4) 0.4215(3) 0.14167(16)
N22 N 0.0864(3) 0.5747(3) 0.19989(17)
N23 N -0.0337(3) 0.3389(3) 0.21483(17)
N24 N -0.0152(3) 0.4974(3) 0.26917(17)
O24 O 0.3585(3) 0.7318(3) 0.22917(14)
O25 O 0.6057(3) 0.6392(3) 0.27270(14)
O26 O 0.7055(3) 0.3750(3) 0.21675(15)
O27 O 0.5209(3) 0.1983(3) 0.11860(15)
O28 O 0.2720(3) 0.2849(3) 0.07182(15)
O29 O 0.1902(3) 0.5478(3) 0.12634(14)
O30 O 0.1336(3) 0.5172(3) 0.40100(15)
O31 O 0.3733(3) 0.4338(3) 0.45227(14)
O32 O 0.4543(3) 0.1710(3) 0.39455(14)
O33 O 0.2897(3) -0.0130(3) 0.29214(14)
O34 O 0.0399(3) 0.0725(3) 0.25067(15)
O35 O -0.0493(3) 0.3432(3) 0.30703(15)
C41 C 0.4096(6) 0.5957(6) 0.0595(3)
H45 H 0.3433 0.5606 0.0670
C42 C 0.4823(6) 0.5760(5) 0.1507(2)
H46 H 0.5467 0.6052 0.1755
H47 H 0.4195 0.6038 0.1664
C43 C 0.2079(7) 0.1178(7) 0.4694(3)
H48 H 0.2601 0.1154 0.4978
C44 C 0.2255(6) 0.1913(5) 0.4359(3)
H49 H 0.2901 0.2390 0.4417
C45 C 0.1771(8) 0.2766(6) 0.3572(3)
H50 H 0.2082 0.3454 0.3788
H51 H 0.1097 0.2869 0.3375
C46 C 0.5933(6) 0.6564(6) 0.0849(3)
H52 H 0.6538 0.6633 0.1103
C47 C 0.4672(6) 0.4562(5) 0.1447(3)
H53 H 0.5314 0.4289 0.1303
H54 H 0.4048 0.4271 0.1186
C48 C 0.4489(6) 0.4171(5) 0.1992(3)
H55 H 0.4446 0.3391 0.1930
H56 H 0.5128 0.4452 0.2245
C49 C 0.0385(8) 0.0535(7) 0.4178(4)
H57 H -0.0265 0.0066 0.4111
C50 C 0.6049(7) 0.6915(6) 0.0358(3)
H58 H 0.6724 0.7241 0.0282
C51 C 0.2563(7) 0.2395(7) 0.3167(4)
H59 H 0.2326 0.1644 0.3013
H60 H 0.3277 0.2435 0.3362
C52 C 0.0621(6) 0.1293(7) 0.3850(3)
H61 H 0.0129 0.1324 0.3554
C53 C 0.5159(8) 0.6781(6) -0.0020(3)
H62 H 0.5219 0.7012 -0.0355
C54 C 0.3528(6) 0.4460(7) 0.2257(3)
H63 H 0.2893 0.4250 0.1994
H64 H 0.3607 0.5238 0.2360
C55 C 0.4186(7) 0.6301(6) 0.0108(3)
H65 H 0.3575 0.6207 -0.0142
C56 C 0.2683(9) 0.3026(10) 0.2701(5)
H66 H 0.2943 0.2557 0.2404
H67 H 0.1954 0.3148 0.2577
C57 C 0.3308(8) 0.3958(9) 0.2763(4)
H68 H 0.4009 0.3873 0.2940
H69 H 0.2980 0.4470 0.3013
C58 C 0.1153(8) 0.0483(6) 0.4619(4)
H70 H 0.1020 -0.0019 0.4850
N25 N 0.4952(5) 0.6121(4) 0.0966(2)
N26 N 0.1522(4) 0.1974(4) 0.3943(2)
Cl1 Cl 0.75837(10) 0.86384(11) 0.37733(5)
Cl2 Cl 0.7881(13) -0.0339(7) 0.0984(6)
O3? O 0.0507(12) 0.0925(9) -0.0063(3)
O8? O 0.7263(11) 1.058(2) 0.4231(9)
O19? O 0.752(6) 0.946(3) 0.094(2)
O20? O 0.873(7) -0.129(11) 0.121(6)
O23? O -0.135(3) 0.744(2) 0.4194(9)
Cl3? Cl 0.7492(10) -0.0055(18) 0.0753(8)
loop_
_geom_bond_atom_site_label_1
_geom_bond_atom_site_label_2
_geom_bond_site_symmetry_1
_geom_bond_site_symmetry_2
C1 N5 1_555 1_555
C2 H1 1_555 1_555
H2 C2 1_555 1_555
C3 N13 1_555 1_555
C4 C9 1_555 1_555
C5 N21 1_555 1_555
C6 N15 1_555 1_555
C7 H3 1_555 1_555
C8 H4 1_555 1_555
H5 C8 1_555 1_555
C9 C13 1_555 1_555
C10 N7 1_555 1_555
C11 C16 1_555 1_555
C12 H6 1_555 1_555
H7 C12 1_555 1_555
C13 H8 1_555 1_555
H9 C13 1_555 1_555
H10 C13 1_555 1_555
C14 N17 1_555 1_555
C15 N1 1_555 1_555
C16 C34 1_555 1_555
C17 H11 1_555 1_555
H12 C17 1_555 1_555
C18 H13 1_555 1_555
H14 C18 1_555 1_555
C19 N19 1_555 1_555
C20 C7 1_555 1_555
H15 C20 1_555 1_555
C21 H16 1_555 1_555
C22 H17 1_555 1_555
C23 H18 1_555 1_555
H19 C23 1_555 1_555
C24 H20 1_555 1_555
H21 C24 1_555 1_555
C25 N11 1_555 1_555
C26 N3 1_555 1_555
C27 C22 1_555 1_555
H22 C27 1_555 1_555
C28 H23 1_555 1_555
H24 C28 1_555 1_555
C29 C11 1_555 1_555
H25 C29 1_555 1_555
H26 C29 1_555 1_555
H27 C29 1_555 1_555
C30 H28 1_555 1_555
H29 C30 1_555 1_555
C31 N23 1_555 1_555
C32 N9 1_555 1_555
C33 H30 1_555 1_555
C34 H31 1_555 1_555
H32 C34 1_555 1_555
H33 C34 1_555 1_555
C35 H34 1_555 1_555
H35 C35 1_555 1_555
C36 H36 1_555 1_555
H37 C36 1_555 1_555
C37 C21 1_555 1_555
H38 C37 1_555 1_555
C38 C4 1_555 1_555
H39 C38 1_555 1_555
H40 C38 1_555 1_555
H41 C38 1_555 1_555
C39 H42 1_555 1_555
H43 C39 1_555 1_555
C40 C33 1_555 1_555
H44 C40 1_555 1_555
C41 H45 1_555 1_555
C42 H46 1_555 1_555
H47 C42 1_555 1_555
C43 H48 1_555 1_555
C44 C43 1_555 1_555
H49 C44 1_555 1_555
C45 H50 1_555 1_555
H51 C45 1_555 1_555
C46 H52 1_555 1_555
C47 C42 1_555 1_555
H53 C47 1_555 1_555
H54 C47 1_555 1_555
C48 C47 1_555 1_555
H55 C48 1_555 1_555
H56 C48 1_555 1_555
C49 H57 1_555 1_555
C50 C46 1_555 1_555
H58 C50 1_555 1_555
C51 C45 1_555 1_555
H59 C51 1_555 1_555
H60 C51 1_555 1_555
C52 C49 1_555 1_555
H61 C52 1_555 1_555
C53 C50 1_555 1_555
H62 C53 1_555 1_555
C54 C48 1_555 1_555
H63 C54 1_555 1_555
H64 C54 1_555 1_555
C55 C41 1_555 1_555
H65 C55 1_555 1_555
C56 C51 1_555 1_555
H66 C56 1_555 1_555
H67 C56 1_555 1_555
C57 C54 1_555 1_555
H68 C57 1_555 1_555
H69 C57 1_555 1_555
C58 C43 1_555 1_555
H70 C58 1_555 1_555
N1 C16 1_555 1_555
N2 C2 1_555 1_555
N3 C16 1_555 1_555
N4 C11 1_555 1_555
N5 C2 1_555 1_555
N6 C1 1_555 1_555
N7 C30 1_555 1_555
N8 C10 1_555 1_555
N9 C22 1_555 1_555
N10 C23 1_555 1_555
N11 C18 1_555 1_555
N12 C25 1_555 1_555
N13 C4 1_555 1_555
N14 C3 1_555 1_555
N15 C4 1_555 1_555
N16 C6 1_555 1_555
N17 C20 1_555 1_555
N18 C7 1_555 1_555
N19 C17 1_555 1_555
N20 C7 1_555 1_555
N21 C12 1_555 1_555
N22 C5 1_555 1_555
N23 C8 1_555 1_555
N24 C28 1_555 1_555
N25 C41 1_555 1_555
N26 C44 1_555 1_555
O24 C15 1_555 1_555
O25 C1 1_555 1_555
O26 C32 1_555 1_555
O27 C3 1_555 1_555
O28 C14 1_555 1_555
O29 C5 1_555 1_555
O30 C26 1_555 1_555
O31 C10 1_555 1_555
O32 C25 1_555 1_555
O33 C6 1_555 1_555
O34 C19 1_555 1_555
O35 C31 1_555 1_555
C8 N20 1_555 1_555
C9 N14 1_555 1_555
C9 N16 1_555 1_555
C11 N2 1_555 1_555
C12 N18 1_555 1_555
C14 N18 1_555 1_555
C15 N2 1_555 1_555
C17 N16 1_555 1_555
C18 N8 1_555 1_555
C19 N20 1_555 1_555
C20 N19 1_555 1_555
C21 N6 1_555 1_555
C21 N8 1_555 1_555
C22 N11 1_555 1_555
C23 N13 1_555 1_555
C24 N1 1_555 1_555
C24 N22 1_555 1_555
C26 N4 1_555 1_555
C27 N10 1_555 1_555
C27 N12 1_555 1_555
C28 N3 1_555 1_555
C30 N4 1_555 1_555
C31 N24 1_555 1_555
C32 N10 1_555 1_555
C33 N21 1_555 1_555
C33 N23 1_555 1_555
C35 N12 1_555 1_555
C35 N15 1_555 1_555
C36 N14 1_555 1_555
C36 N17 1_555 1_555
C37 N5 1_555 1_555
C37 N7 1_555 1_555
C39 N6 1_555 1_555
C39 N9 1_555 1_555
C40 N22 1_555 1_555
C40 N24 1_555 1_555
C42 N25 1_555 1_555
C45 N26 1_555 1_555
C46 N25 1_555 1_555
C49 C58 1_555 1_555
C52 N26 1_555 1_555
C53 C55 1_555 1_555
C56 C57 1_555 1_555

#END
