
#######################################################################
#
#                 Cambridge Crystallographic Data Centre
#                                CCDC 
#
#######################################################################
#
# If this CIF has been generated from an entry in the Cambridge 
# Structural Database, then it will include bibliographic, chemical, 
# crystal, experimental, refinement or atomic coordinate data resulting 
# from the CCDC's data processing and validation procedures.
#
#######################################################################

data_VUSZAL
_chemical_formula_moiety         
'2(C40 H44 N24 O12),C20 H30 N2 2+,2(Cl1 1-),34(H2 O1)'
_chemical_name_systematic        
"bis(\a,\a',\f,\f'-Tetramethylcucurbit(6)uril) 1,1'-(decane-1,10-diyl)-dipyridinium clathrate dichloride tetratriacontahydrate"
_symmetry_cell_setting           monoclinic
_symmetry_space_group_name_H-M   'C 2/c'
_symmetry_Int_Tables_number      15
_space_group_name_Hall           '-C 2yn'
loop_
_symmetry_equiv_pos_site_id
_symmetry_equiv_pos_as_xyz
1 x,y,z
2 -x,y,1/2-z
3 1/2+x,1/2+y,z
4 1/2-x,1/2+y,1/2-z
5 -x,-y,-z
6 x,-y,1/2+z
7 1/2-x,1/2-y,-z
8 1/2+x,1/2-y,1/2+z
_cell_length_a                   40.2898(9)
_cell_length_b                   16.5781(3)
_cell_length_c                   24.2103(6)
_cell_angle_alpha                90
_cell_angle_beta                 120.892(2)
_cell_angle_gamma                90
_cell_volume                     13876.7
_exptl_crystal_colour            colorless
_exptl_crystal_description       block
_cell_formula_units_Z            4
loop_
_atom_site_label
_atom_site_type_symbol
_atom_site_fract_x
_atom_site_fract_y
_atom_site_fract_z
C1 C 0.38280(13) 0.3456(3) 0.8207(2)
C2 C 0.44038(12) 0.4198(3) 0.86477(19)
C3 C 0.44442(12) 0.3517(3) 0.91338(19)
C4 C 0.45341(11) 0.4785(3) 0.9618(2)
C5 C 0.47123(13) 0.4194(3) 0.8459(2)
H1 H 0.4695 0.3701 0.8237
H2 H 0.4964 0.4233 0.8839
H3 H 0.4672 0.4644 0.8182
C6 C 0.47496(14) 0.2893(3) 0.9272(2)
H4 H 0.4999 0.3146 0.9479
H5 H 0.4699 0.2651 0.8876
H6 H 0.4745 0.2484 0.9549
C7 C 0.39419(14) 0.2461(3) 0.9031(2)
H7 H 0.3737 0.2186 0.8657
H8 H 0.4161 0.2096 0.9239
C8 C 0.46189(12) 0.3649(3) 1.0319(2)
H9 H 0.4769 0.3159 1.0405
H10 H 0.4776 0.4033 1.0656
C9 C 0.34329(13) 0.2537(3) 0.9303(2)
C10 C 0.40680(12) 0.2715(3) 1.01528(19)
H11 H 0.4244 0.2253 1.0331
C11 C 0.37922(12) 0.2755(3) 1.04137(19)
H12 H 0.3849 0.2333 1.0734
C12 C 0.41652(13) 0.3932(3) 1.0694(2)
C13 C 0.30738(12) 0.2443(2) 0.9873(2)
H13 H 0.3151 0.2116 1.0253
H14 H 0.2905 0.2118 0.9499
C14 C 0.36977(12) 0.3844(3) 1.10645(19)
H15 H 0.3855 0.4285 1.1336
H16 H 0.3708 0.3413 1.1344
C15 C 0.25020(12) 0.3348(2) 0.9380(2)
C16 C 0.29687(12) 0.3605(2) 1.04582(19)
H17 H 0.2994 0.3262 1.0807
C17 C 0.26268(12) 0.4204(2) 1.02315(18)
H18 H 0.2498 0.4141 1.0479
C18 C 0.32058(13) 0.4924(3) 1.06473(19)
C19 C 0.19951(12) 0.4357(2) 0.9165(2)
H19 H 0.1841 0.4001 0.8803
H20 H 0.1869 0.4395 0.9413
C20 C 0.26205(13) 0.5718(3) 1.03551(19)
H21 H 0.2443 0.5590 1.0501
H22 H 0.2813 0.6089 1.0664
C21 C 0.19292(12) 0.5232(2) 0.83069(19)
C22 C 0.20168(12) 0.5920(2) 0.92252(18)
C23 C 0.19447(12) 0.6544(2) 0.86888(19)
C24 C 0.25516(14) 0.6787(2) 0.9607(2)
C25 C 0.17358(14) 0.5955(3) 0.9469(2)
H23 H 0.1754 0.6472 0.9661
H24 H 0.1799 0.5539 0.9784
H25 H 0.1477 0.5875 0.9115
C26 C 0.15940(13) 0.7087(3) 0.8465(2)
H26 H 0.1628 0.7414 0.8818
H27 H 0.1366 0.6762 0.8312
H28 H 0.1566 0.7430 0.8124
C27 C 0.18138(12) 0.6311(3) 0.75371(18)
H29 H 0.1672 0.5893 0.7222
H30 H 0.1648 0.6782 0.7421
C28 C 0.23874(13) 0.7712(2) 0.8717(2)
H31 H 0.2152 0.8016 0.8455
H32 H 0.2568 0.8058 0.9066
C29 C 0.22822(12) 0.6077(3) 0.71775(18)
C30 C 0.23182(12) 0.7315(2) 0.76489(18)
H33 H 0.2120 0.7727 0.7415
C31 C 0.26156(12) 0.7289(2) 0.74289(19)
H34 H 0.2555 0.7685 0.7089
C32 C 0.29299(13) 0.7671(3) 0.8512(2)
C33 C 0.27340(12) 0.6237(3) 0.67931(19)
H35 H 0.2712 0.6691 0.6523
H36 H 0.2575 0.5804 0.6512
C34 C 0.33284(13) 0.7638(3) 0.8011(2)
H37 H 0.3500 0.7956 0.8388
H38 H 0.3265 0.7958 0.7634
C35 C 0.32360(12) 0.5199(3) 0.71151(19)
C36 C 0.34556(12) 0.6514(3) 0.74203(19)
H39 H 0.3440 0.6899 0.7101
C37 C 0.38059(12) 0.5946(3) 0.7657(2)
H40 H 0.3969 0.6103 0.7484
C38 C 0.38606(13) 0.6646(3) 0.8536(2)
C39 C 0.38455(12) 0.4437(3) 0.74694(18)
H41 H 0.3671 0.4061 0.7141
H42 H 0.4048 0.4572 0.7380
C40 C 0.44024(13) 0.5747(3) 0.8760(2)
H43 H 0.4535 0.5769 0.8521
H44 H 0.4537 0.6105 0.9127
N1 N 0.40199(9) 0.4041(2) 0.80914(16)
N2 N 0.40559(10) 0.3172(2) 0.88160(16)
N3 N 0.44224(10) 0.4930(2) 0.89900(16)
N4 N 0.45376(10) 0.3976(2) 0.97059(16)
N5 N 0.38109(10) 0.2634(2) 0.94685(16)
N6 N 0.34139(9) 0.2655(2) 0.98491(16)
N7 N 0.42764(10) 0.3466(2) 1.03502(16)
N8 N 0.38628(10) 0.3556(2) 1.06959(16)
N9 N 0.28608(10) 0.3137(2) 0.98899(16)
N10 N 0.23753(10) 0.3996(2) 0.95670(15)
N11 N 0.33007(10) 0.4120(2) 1.06791(16)
N12 N 0.28127(10) 0.4982(2) 1.03422(15)
N13 N 0.20006(10) 0.51469(19) 0.89206(15)
N14 N 0.19048(10) 0.6031(2) 0.81665(15)
N15 N 0.24094(10) 0.6112(2) 0.97383(15)
N16 N 0.23002(10) 0.70163(19) 0.89862(15)
N17 N 0.21544(9) 0.6516(2) 0.75128(15)
N18 N 0.25835(9) 0.6474(2) 0.71994(15)
N19 N 0.25506(10) 0.7501(2) 0.83290(16)
N20 N 0.29774(10) 0.7474(2) 0.80132(16)
N21 N 0.31336(9) 0.5973(2) 0.71451(16)
N22 N 0.36320(10) 0.5169(2) 0.74232(17)
N23 N 0.35305(10) 0.6920(2) 0.80078(16)
N24 N 0.40080(10) 0.6034(2) 0.83498(16)
O1 O 0.35025(9) 0.32067(18) 0.78157(14)
O2 O 0.31621(9) 0.2379(2) 0.87731(15)
O3 O 0.23282(9) 0.29966(18) 0.88636(15)
O4 O 0.18892(9) 0.46792(17) 0.79442(14)
O5 O 0.21428(9) 0.54311(18) 0.69037(14)
O6 O 0.30142(9) 0.46401(19) 0.68455(14)
O7 O 0.46198(9) 0.5302(2) 1.00303(14)
O8 O 0.43198(10) 0.4559(2) 1.09750(15)
O9 O 0.34365(9) 0.54819(19) 1.08627(14)
O10 O 0.28585(9) 0.71179(17) 0.99815(14)
O11 O 0.31730(9) 0.79471(19) 0.90338(14)
O12 O 0.39982(10) 0.6914(2) 0.90801(15)
C41 C 0.12254(15) 0.9578(3) 0.0328(3)
H45 H 0.0958 0.9572 0.0062
C42 C 0.13939(17) 1.0196(4) 0.0753(3)
H46 H 0.1241 1.0601 0.0775
C43 C 0.17866(16) 1.0226(4) 0.1148(3)
H47 H 0.1906 1.0654 0.1431
C44 C 0.19969(18) 0.9606(4) 0.1114(3)
H48 H 0.2264 0.9596 0.1385
C45 C 0.18133(17) 0.8996(4) 0.0679(3)
H49 H 0.1959 0.8576 0.0659
N25 N 0.14286(12) 0.8992(2) 0.02826(18)
C46 C 0.12621(17) 0.8312(3) -0.0174(3)
H50 H 0.1440 0.8174 -0.0316
H51 H 0.1247 0.7849 0.0058
C47 C 0.08818(16) 0.8437(4) -0.0741(3)
H52 H 0.0888 0.8922 -0.0960
H53 H 0.0696 0.8524 -0.0606
C48 C 0.07446(17) 0.7734(4) -0.1216(3)
H54 H 0.0925 0.7676 -0.1367
H55 H 0.0761 0.7246 -0.0983
C49 C 0.03497(19) 0.7784(4) -0.1786(3)
H56 H 0.0335 0.8272 -0.2019
H57 H 0.0171 0.7850 -0.1633
C50 C 0.0206(2) 0.7101(5) -0.2257(3)
H58 H 0.0351 0.7102 -0.2477
H59 H 0.0265 0.6600 -0.2017
C41A C -0.12254(15) 0.9578(3) -0.5328(3)
H45A H -0.0958 0.9572 -0.5062
C42A C -0.13939(17) 1.0196(4) -0.5753(3)
H46A H -0.1241 1.0601 -0.5775
C43A C -0.17866(16) 1.0226(4) -0.6148(3)
H47A H -0.1906 1.0654 -0.6431
C44A C -0.19969(18) 0.9606(4) -0.6114(3)
H48A H -0.2264 0.9596 -0.6385
C45A C -0.18133(17) 0.8996(4) -0.5679(3)
H49A H -0.1959 0.8576 -0.5659
N25A N -0.14286(12) 0.8992(2) -0.52826(18)
C46A C -0.12621(17) 0.8312(3) -0.4826(3)
H50A H -0.1440 0.8174 -0.4684
H51A H -0.1247 0.7849 -0.5058
C47A C -0.08818(16) 0.8437(4) -0.4259(3)
H52A H -0.0888 0.8922 -0.4040
H53A H -0.0696 0.8524 -0.4394
C48A C -0.07446(17) 0.7734(4) -0.3784(3)
H54A H -0.0925 0.7676 -0.3633
H55A H -0.0761 0.7246 -0.4017
C49A C -0.03497(19) 0.7784(4) -0.3214(3)
H56A H -0.0335 0.8272 -0.2981
H57A H -0.0171 0.7850 -0.3367
C50A C -0.0206(2) 0.7101(5) -0.2743(3)
H58A H -0.0351 0.7102 -0.2523
H59A H -0.0265 0.6600 -0.2983
O13 O 0.18791(13) 0.5582(3) 0.55372(19)
O14 O 0.45993(13) 0.4589(4) 1.2275(2)
O15 O 0.25458(18) 0.4050(3) 0.7506(3)
O16 O 0.4399(2) 0.8243(4) 0.9869(4)
O17 O 0.3734(2) 0.9123(4) 0.9476(4)
O18 O 0.4647(2) 0.2227(9) 1.1648(4)
O19 O 0.0752(3) 0.5994(6) 0.6835(6)
O20 O 0.1231(3) 0.4573(5) 0.6678(5)
O21 O 0.4669(3) 0.6883(6) 0.7864(5)
O22 O 0.1085(2) 0.5659(6) 0.4737(5)
O23 O 0.4590(5) 0.0888(7) 1.0116(10)
O24 O 0.0909(3) 0.5072(8) 0.8050(8)
O25 O -0.0042(5) 0.5924(10) 0.6033(9)
Cl1 Cl 0.10997(12) 0.3118(3) 0.80658(14)
O27 O 0.5184(9) 0.1903(14) 1.1023(16)
O28 O -0.0522(15) 0.5006(15) 0.6503(19)
O26? O 0.1019(2) 0.3038(5) 0.7846(3)
O29? O -0.0039(16) 0.469(4) 0.685(2)
loop_
_geom_bond_atom_site_label_1
_geom_bond_atom_site_label_2
_geom_bond_site_symmetry_1
_geom_bond_site_symmetry_2
C1 N1 1_555 1_555
C2 C3 1_555 1_555
C3 C6 1_555 1_555
C4 N3 1_555 1_555
C5 C2 1_555 1_555
H1 C5 1_555 1_555
H2 C5 1_555 1_555
H3 C5 1_555 1_555
C6 H4 1_555 1_555
H5 C6 1_555 1_555
H6 C6 1_555 1_555
C7 H7 1_555 1_555
H8 C7 1_555 1_555
C8 H9 1_555 1_555
H10 C8 1_555 1_555
C9 N5 1_555 1_555
C10 H11 1_555 1_555
C11 C10 1_555 1_555
H12 C11 1_555 1_555
C12 N7 1_555 1_555
C13 H13 1_555 1_555
H14 C13 1_555 1_555
C14 H15 1_555 1_555
H16 C14 1_555 1_555
C15 N9 1_555 1_555
C16 H17 1_555 1_555
C17 C16 1_555 1_555
H18 C17 1_555 1_555
C18 N11 1_555 1_555
C19 H19 1_555 1_555
H20 C19 1_555 1_555
C20 H21 1_555 1_555
H22 C20 1_555 1_555
C21 N13 1_555 1_555
C22 C23 1_555 1_555
C23 C26 1_555 1_555
C24 N15 1_555 1_555
C25 C22 1_555 1_555
H23 C25 1_555 1_555
H24 C25 1_555 1_555
H25 C25 1_555 1_555
C26 H26 1_555 1_555
H27 C26 1_555 1_555
H28 C26 1_555 1_555
C27 H29 1_555 1_555
H30 C27 1_555 1_555
C28 H31 1_555 1_555
H32 C28 1_555 1_555
C29 N17 1_555 1_555
C30 H33 1_555 1_555
C31 C30 1_555 1_555
H34 C31 1_555 1_555
C32 N19 1_555 1_555
C33 H35 1_555 1_555
H36 C33 1_555 1_555
C34 H37 1_555 1_555
H38 C34 1_555 1_555
C35 N21 1_555 1_555
C36 H39 1_555 1_555
C37 C36 1_555 1_555
H40 C37 1_555 1_555
C38 N23 1_555 1_555
C39 H41 1_555 1_555
H42 C39 1_555 1_555
C40 H43 1_555 1_555
H44 C40 1_555 1_555
N1 C2 1_555 1_555
N2 C1 1_555 1_555
N3 C2 1_555 1_555
N4 C3 1_555 1_555
N5 C7 1_555 1_555
N6 C9 1_555 1_555
N7 C8 1_555 1_555
N8 C11 1_555 1_555
N9 C13 1_555 1_555
N10 C15 1_555 1_555
N11 C14 1_555 1_555
N12 C17 1_555 1_555
N13 C19 1_555 1_555
N14 C21 1_555 1_555
N15 C20 1_555 1_555
N16 C23 1_555 1_555
N17 C27 1_555 1_555
N18 C29 1_555 1_555
N19 C28 1_555 1_555
N20 C31 1_555 1_555
N21 C33 1_555 1_555
N22 C35 1_555 1_555
N23 C34 1_555 1_555
N24 C37 1_555 1_555
O1 C1 1_555 1_555
O2 C9 1_555 1_555
O3 C15 1_555 1_555
O4 C21 1_555 1_555
O5 C29 1_555 1_555
O6 C35 1_555 1_555
O7 C4 1_555 1_555
O8 C12 1_555 1_555
O9 C18 1_555 1_555
O10 C24 1_555 1_555
O11 C32 1_555 1_555
O12 C38 1_555 1_555
C41 H45 1_555 1_555
C42 C41 1_555 1_555
H46 C42 1_555 1_555
C43 C42 1_555 1_555
H47 C43 1_555 1_555
C44 C43 1_555 1_555
H48 C44 1_555 1_555
C45 C44 1_555 1_555
H49 C45 1_555 1_555
N25 C41 1_555 1_555
C46 N25 1_555 1_555
H50 C46 1_555 1_555
H51 C46 1_555 1_555
C47 C46 1_555 1_555
H52 C47 1_555 1_555
H53 C47 1_555 1_555
C48 C47 1_555 1_555
H54 C48 1_555 1_555
H55 C48 1_555 1_555
C49 C48 1_555 1_555
H56 C49 1_555 1_555
H57 C49 1_555 1_555
C50 C49 1_555 1_555
H58 C50 1_555 1_555
H59 C50 1_555 1_555
C41A H45A 1_555 1_555
C42A C41A 1_555 1_555
H46A C42A 1_555 1_555
C43A C42A 1_555 1_555
H47A C43A 1_555 1_555
C44A C43A 1_555 1_555
H48A C44A 1_555 1_555
C45A C44A 1_555 1_555
H49A C45A 1_555 1_555
N25A C41A 1_555 1_555
C46A N25A 1_555 1_555
H50A C46A 1_555 1_555
H51A C46A 1_555 1_555
C47A C46A 1_555 1_555
H52A C47A 1_555 1_555
H53A C47A 1_555 1_555
C48A C47A 1_555 1_555
H54A C48A 1_555 1_555
H55A C48A 1_555 1_555
C49A C48A 1_555 1_555
H56A C49A 1_555 1_555
H57A C49A 1_555 1_555
C50A C50 1_555 1_555
H58A C50A 1_555 1_555
H59A C50A 1_555 1_555
C3 N2 1_555 1_555
C4 N4 1_555 1_555
C7 N2 1_555 1_555
C8 N4 1_555 1_555
C10 N5 1_555 1_555
C10 N7 1_555 1_555
C11 N6 1_555 1_555
C12 N8 1_555 1_555
C13 N6 1_555 1_555
C14 N8 1_555 1_555
C16 N9 1_555 1_555
C16 N11 1_555 1_555
C17 N10 1_555 1_555
C18 N12 1_555 1_555
C19 N10 1_555 1_555
C20 N12 1_555 1_555
C22 N13 1_555 1_555
C22 N15 1_555 1_555
C23 N14 1_555 1_555
C24 N16 1_555 1_555
C27 N14 1_555 1_555
C28 N16 1_555 1_555
C30 N17 1_555 1_555
C30 N19 1_555 1_555
C31 N18 1_555 1_555
C32 N20 1_555 1_555
C33 N18 1_555 1_555
C34 N20 1_555 1_555
C36 N21 1_555 1_555
C36 N23 1_555 1_555
C37 N22 1_555 1_555
C38 N24 1_555 1_555
C39 N1 1_555 1_555
C39 N22 1_555 1_555
C40 N3 1_555 1_555
C40 N24 1_555 1_555
C45 N25 1_555 1_555
C45A N25A 1_555 1_555
C49A C50A 1_555 1_555

#END
