
#######################################################################
#
#                 Cambridge Crystallographic Data Centre
#                                CCDC 
#
#######################################################################
#
# If this CIF has been generated from an entry in the Cambridge 
# Structural Database, then it will include bibliographic, chemical, 
# crystal, experimental, refinement or atomic coordinate data resulting 
# from the CCDC's data processing and validation procedures.
#
#######################################################################

data_VUTFEV
_chemical_name_common            "4,4'-Dimethoxy chalcone"
_chemical_formula_moiety         'C17 H16 O3'
_chemical_name_systematic        1,3-bis(4-Methoxyphenyl)-3-oxopropene
_symmetry_cell_setting           orthorhombic
_symmetry_space_group_name_H-M   'P 21 21 21'
_symmetry_Int_Tables_number      19
_space_group_name_Hall           'P 2ac 2ab'
loop_
_symmetry_equiv_pos_site_id
_symmetry_equiv_pos_as_xyz
1 x,y,z
2 1/2+x,1/2-y,-z
3 -x,1/2+y,1/2-z
4 1/2-x,-y,1/2+z
_cell_length_a                   5.268(3)
_cell_length_b                   30.639(8)
_cell_length_c                   8.652(4)
_cell_angle_alpha                90
_cell_angle_beta                 90
_cell_angle_gamma                90
_cell_volume                     1396.49
_cell_formula_units_Z            4
loop_
_atom_site_label
_atom_site_type_symbol
_atom_site_fract_x
_atom_site_fract_y
_atom_site_fract_z
O1 O 0.521(2) 0.1129(3) 0.597(1)
O2 O -0.348(1) -0.1143(2) 0.4936(9)
O3 O 0.256(2) 0.2783(2) 0.1948(8)
C1 C 0.218(2) 0.0420(3) 0.556(1)
C2 C 0.167(2) 0.0799(3) 0.480(1)
C3 C 0.341(2) 0.1168(4) 0.504(1)
C4 C 0.053(2) 0.0024(3) 0.533(1)
C5 C -0.142(2) 0.0002(4) 0.425(1)
C6 C -0.286(2) -0.0392(4) 0.408(1)
C7 C -0.219(2) -0.0750(3) 0.502(1)
C8 C -0.032(2) -0.0727(3) 0.613(1)
C9 C 0.119(2) -0.0340(3) 0.625(1)
C10 C 0.311(2) 0.1587(3) 0.420(1)
C11 C 0.487(2) 0.1923(3) 0.450(1)
C12 C 0.462(2) 0.2320(3) 0.369(1)
C13 C 0.270(2) 0.2376(3) 0.265(1)
C14 C 0.090(2) 0.2046(3) 0.235(1)
C15 C 0.114(2) 0.1642(3) 0.315(1)
C16 C -0.522(2) -0.1210(4) 0.367(1)
C17 C 0.034(2) 0.288(4) 0.101(1)
loop_
_geom_bond_atom_site_label_1
_geom_bond_atom_site_label_2
_geom_bond_site_symmetry_1
_geom_bond_site_symmetry_2
O1 C3 1_555 1_555
O2 C7 1_555 1_555
O3 C13 1_555 1_555
C1 C2 1_555 1_555
C2 C3 1_555 1_555
C3 C10 1_555 1_555
C4 C1 1_555 1_555
C5 C4 1_555 1_555
C6 C5 1_555 1_555
C7 C6 1_555 1_555
C8 C7 1_555 1_555
C9 C4 1_555 1_555
C10 C11 1_555 1_555
C11 C12 1_555 1_555
C12 C13 1_555 1_555
C13 C14 1_555 1_555
C14 C15 1_555 1_555
C15 C10 1_555 1_555
C16 O2 1_555 1_555
C17 O3 1_555 1_555
C8 C9 1_555 1_555

#END
