
#######################################################################
#
#                 Cambridge Crystallographic Data Centre
#                                CCDC 
#
#######################################################################
#
# If this CIF has been generated from an entry in the Cambridge 
# Structural Database, then it will include bibliographic, chemical, 
# crystal, experimental, refinement or atomic coordinate data resulting 
# from the CCDC's data processing and validation procedures.
#
#######################################################################

data_VUTMAY
_chemical_formula_moiety         'C66 H78 O8 P2,5(C2 H3 N1)'
_chemical_name_systematic        
'5,11,17,23,29,35-Hexa-t-butylcalix(4)arene-37,38,39,40,41,42-diphosphate acetonitrile solvate'
_symmetry_cell_setting           triclinic
_symmetry_space_group_name_H-M   'P -1'
_symmetry_Int_Tables_number      2
_space_group_name_Hall           '-P 1'
loop_
_symmetry_equiv_pos_site_id
_symmetry_equiv_pos_as_xyz
1 x,y,z
2 -x,-y,-z
_cell_length_a                   15.110(7)
_cell_length_b                   19.435(10)
_cell_length_c                   14.192(2)
_cell_angle_alpha                102.11(4)
_cell_angle_beta                 106.35(3)
_cell_angle_gamma                89.84(5)
_cell_volume                     3903.09
_exptl_crystal_colour            white
_chemical_melting_point          'above 450deg.C'
_cell_formula_units_Z            2
loop_
_atom_site_label
_atom_site_type_symbol
_atom_site_fract_x
_atom_site_fract_y
_atom_site_fract_z
P1 P 0.50004(9) 0.82137(7) 0.3936(1)
P2 P 0.14049(9) 0.76866(7) 0.1563(1)
O1 O 0.4687(2) 0.7627(1) 0.4410(2)
O2 O 0.6049(2) 0.8389(2) 0.4545(2)
O3 O 0.4465(2) 0.8864(2) 0.4284(2)
O4 O 0.1211(2) 0.7932(1) 0.2613(2)
O5 O 0.0414(2) 0.7550(2) 0.0784(2)
O6 O 0.1807(2) 0.6944(2) 0.1602(3)
O7 O 0.4855(2) 0.8054(2) 0.2864(3)
O8 O 0.1996(2) 0.8147(2) 0.1299(3)
C1 C 0.4822(3) 0.6895(2) 0.4082(4)
C2 C 0.4012(3) 0.6475(2) 0.3579(4)
C3 C 0.4093(4) 0.5763(3) 0.3246(4)
C4 C 0.4960(4) 0.5470(3) 0.3424(4)
C5 C 0.5727(3) 0.5913(3) 0.3946(4)
C6 C 0.5681(3) 0.6633(2) 0.4283(4)
C7 C 0.6601(3) 0.7056(3) 0.4794(4)
C8 C 0.6349(3) 0.8303(2) 0.5549(4)
C9 C 0.6637(3) 0.7646(2) 0.5685(4)
C10 C 0.6975(3) 0.7565(3) 0.6669(4)
C11 C 0.7015(3) 0.8107(3) 0.7495(4)
C12 C 0.6674(3) 0.8748(2) 0.7294(4)
C13 C 0.6343(3) 0.8853(2) 0.6314(4)
C14 C 0.5899(3) 0.9527(2) 0.6105(4)
C15 C 0.4231(3) 0.9095(2) 0.5191(4)
C16 C 0.4888(3) 0.9455(2) 0.6045(4)
C17 C 0.4600(3) 0.9714(2) 0.6893(4)
C18 C 0.3704(3) 0.9611(3) 0.6911(4)
C19 C 0.3077(3) 0.9247(3) 0.6037(4)
C20 C 0.3309(3) 0.8988(2) 0.5150(4)
C21 C 0.2603(3) 0.8607(3) 0.4220(4)
C22 C 0.1072(3) 0.8652(2) 0.2990(4)
C23 C 0.1773(3) 0.9003(2) 0.3805(4)
C24 C 0.1678(3) 0.9709(2) 0.4190(4)
C25 C 0.0878(3) 1.0055(2) 0.3804(4)
C26 C 0.0207(3) 0.9668(2) 0.3019(4)
C27 C 0.0261(3) 0.8957(2) 0.2576(4)
C28 C -0.0522(3) 0.8630(3) 0.1651(4)
C29 C -0.0337(3) 0.7337(3) 0.1081(4)
C30 C -0.0817(3) 0.7865(2) 0.1500(4)
C31 C -0.1607(4) 0.7652(3) 0.1714(4)
C32 C -0.1910(3) 0.6947(3) 0.1530(4)
C33 C -0.1358(4) 0.6444(3) 0.1146(4)
C34 C -0.0558(3) 0.6629(2) 0.0934(4)
C35 C 0.0096(3) 0.6086(3) 0.0652(4)
C36 C 0.1592(3) 0.6414(2) 0.2058(4)
C37 C 0.0807(3) 0.5976(2) 0.1590(4)
C38 C 0.0650(3) 0.5444(3) 0.2048(4)
C39 C 0.1240(4) 0.5342(3) 0.2937(4)
C40 C 0.2038(4) 0.5803(3) 0.3376(4)
C41 C 0.2232(3) 0.6334(2) 0.2933(4)
C42 C 0.3089(3) 0.6820(3) 0.3431(4)
C43 C 0.5029(4) 0.4676(3) 0.3020(5)
C44 C 0.474(1) 0.4515(5) 0.1957(8)
C45 C 0.439(1) 0.4254(4) 0.336(1)
C46 C 0.5950(8) 0.4439(4) 0.338(1)
C47 C 0.7439(4) 0.8003(3) 0.8550(4)
C48 C 0.7234(7) 0.7287(4) 0.8682(5)
C49 C 0.8525(6) 0.8059(5) 0.8731(6)
C50 C 0.7304(8) 0.8576(4) 0.9335(6)
C51 C 0.3440(4) 0.9909(4) 0.7873(5)
C52 C 0.4118(6) 0.9859(8) 0.8763(6)
C53 C 0.343(2) 1.0699(7) 0.798(1)
C54 C 0.2505(9) 0.974(1) 0.778(1)
C55 C 0.0790(3) 1.0836(2) 0.4216(4)
C56 C 0.1488(5) 1.1118(3) 0.5228(5)
C57 C 0.0984(5) 1.1252(3) 0.3479(6)
C58 C -0.0178(4) 1.0967(3) 0.4306(6)
C59 C -0.2781(4) 0.6716(3) 0.1721(5)
C60 C -0.3279(5) 0.7305(4) 0.2133(7)
C61 C -0.3408(5) 0.6277(5) 0.0738(7)
C62 C -0.2552(6) 0.6243(5) 0.2460(7)
C63 C 0.1041(4) 0.4750(3) 0.3429(5)
C64 C 0.0107(7) 0.4797(5) 0.3573(8)
C65 C 0.104(1) 0.4051(4) 0.273(1)
C66 C 0.1729(8) 0.4738(7) 0.440(1)
H1 H 0.3550 0.5469 0.2886
H2 H 0.6312 0.5717 0.4086
H3 H 0.7189 0.7120 0.6788
H4 H 0.6669 0.9121 0.7845
H5 H 0.5039 0.9975 0.7480
H6 H 0.2460 0.9169 0.6041
H7 H 0.2168 0.9963 0.4734
H8 H -0.0334 0.9897 0.2757
H9 H -0.1955 0.8004 0.2000
H10 H -0.1538 0.5957 0.1026
H11 H 0.0112 0.5136 0.1743
H12 H 0.2453 0.5748 0.3991
H13 H 0.7047 0.6737 0.5018
H14 H 0.6761 0.7256 0.4305
H15 H 0.5955 0.9602 0.5482
H16 H 0.6194 0.9914 0.6630
H17 H 0.2379 0.8195 0.4360
H18 H 0.2899 0.8476 0.3706
H19 H -0.0337 0.8678 0.1076
H20 H -0.1048 0.8896 0.1671
H21 H 0.0397 0.6245 0.0228
H22 H -0.0245 0.5652 0.0308
H23 H 0.3055 0.7057 0.4076
H24 H 0.3088 0.7154 0.3029
H25 H 0.4101 0.4588 0.1742
H26 H 0.5082 0.4803 0.1724
H27 H 0.4838 0.4031 0.1734
H28 H 0.3769 0.4380 0.3122
H29 H 0.4427 0.3766 0.3128
H30 H 0.4560 0.4358 0.4087
H31 H 0.5958 0.3952 0.3097
H32 H 0.6367 0.4691 0.3133
H33 H 0.6149 0.4534 0.4075
H34 H 0.6609 0.7218 0.8606
H35 H 0.7422 0.6947 0.8191
H36 H 0.7595 0.7242 0.9336
H37 H 0.8824 0.7984 0.9390
H38 H 0.8684 0.7698 0.8249
H39 H 0.8710 0.8503 0.8676
H40 H 0.7622 0.8496 0.9972
H41 H 0.7510 0.9008 0.9247
H42 H 0.6653 0.8584 0.9275
H43 H 0.4197 0.9386 0.8806
H44 H 0.4698 1.0069 0.8762
H45 H 0.3956 1.0115 0.9333
H46 H 0.4034 1.0878 0.8089
H47 H 0.3028 1.0792 0.7391
H48 H 0.3212 1.0889 0.8544
H49 H 0.2343 0.9978 0.8371
H50 H 0.2104 0.9845 0.7209
H51 H 0.2423 0.9234 0.7751
H52 H 0.1375 1.0876 0.5716
H53 H 0.2094 1.1038 0.5186
H54 H 0.1427 1.1606 0.5449
H55 H 0.1592 1.1173 0.3432
H56 H 0.0551 1.1097 0.2841
H57 H 0.0934 1.1739 0.3725
H58 H -0.0230 1.1456 0.4531
H59 H -0.0616 1.0804 0.3664
H60 H -0.0298 1.0717 0.4769
H61 H -0.2883 0.7574 0.2746
H62 H -0.3459 0.7601 0.1662
H63 H -0.3810 0.7127 0.2251
H64 H -0.3965 0.6126 0.0851
H65 H -0.3562 0.6556 0.0246
H66 H -0.3106 0.5878 0.0509
H67 H -0.3095 0.6085 0.2581
H68 H -0.2241 0.5851 0.2219
H69 H -0.2148 0.6501 0.3095
H70 H 0.0078 0.5221 0.4025
H71 H -0.0336 0.4780 0.2939
H72 H -0.0020 0.4405 0.3831
H73 H 0.0874 0.3680 0.2996
H74 H 0.0556 0.4045 0.2094
H75 H 0.1601 0.3989 0.2590
H76 H 0.1578 0.4348 0.4636
H77 H 0.2319 0.4711 0.4306
H78 H 0.1699 0.5164 0.4868
N1 N 0.664(1) 0.0372(6) 0.898(1)
C67 C 0.6411(7) 0.0933(9) 0.9125(9)
C68 C 0.6143(8) 0.1770(6) 0.9439(8)
N2 N 1.0604(9) 0.3136(5) 0.4835(8)
C69 C 1.0217(7) 0.3051(4) 0.5391(8)
C70 C 0.9732(6) 0.2916(4) 0.6097(6)
N3 N 0.913(1) 0.043(1) 1.085(1)
C71 C 0.890(1) 0.0351(7) 0.993(2)
C72 C 0.8631(8) 0.0261(6) 0.885(1)
N4 N 0.802(2) 0.445(1) 0.057(2)
C73 C 0.729(3) 0.424(2) -0.015(2)
C74 C 0.642(1) 0.376(1) -0.061(2)
N5 N 0.761(2) 0.273(1) 0.415(1)
C75 C 0.662(2) 0.253(1) 0.376(2)
C76 C 0.5595(8) 0.2287(5) 0.3271(9)
N6? N 0.580(2) 0.259(1) 0.153(2)
C77? C 0.5631 0.243(1) 0.234(2)
loop_
_geom_bond_atom_site_label_1
_geom_bond_atom_site_label_2
_geom_bond_site_symmetry_1
_geom_bond_site_symmetry_2
P1 O1 1_555 1_555
P2 O4 1_555 1_555
O1 C1 1_555 1_555
O2 P1 1_555 1_555
O3 P1 1_555 1_555
O4 C22 1_555 1_555
O5 P2 1_555 1_555
O6 P2 1_555 1_555
O7 P1 1_555 1_555
O8 P2 1_555 1_555
C1 C2 1_555 1_555
C2 C3 1_555 1_555
C3 C4 1_555 1_555
C4 C5 1_555 1_555
C5 C6 1_555 1_555
C6 C1 1_555 1_555
C7 C6 1_555 1_555
C8 O2 1_555 1_555
C9 C7 1_555 1_555
C10 C9 1_555 1_555
C11 C10 1_555 1_555
C12 C11 1_555 1_555
C13 C8 1_555 1_555
C14 C13 1_555 1_555
C15 O3 1_555 1_555
C16 C14 1_555 1_555
C17 C16 1_555 1_555
C18 C17 1_555 1_555
C19 C18 1_555 1_555
C20 C15 1_555 1_555
C21 C20 1_555 1_555
C22 C23 1_555 1_555
C23 C21 1_555 1_555
C24 C23 1_555 1_555
C25 C24 1_555 1_555
C26 C25 1_555 1_555
C27 C22 1_555 1_555
C28 C27 1_555 1_555
C29 O5 1_555 1_555
C30 C28 1_555 1_555
C31 C30 1_555 1_555
C32 C31 1_555 1_555
C33 C32 1_555 1_555
C34 C29 1_555 1_555
C35 C34 1_555 1_555
C36 O6 1_555 1_555
C37 C35 1_555 1_555
C38 C37 1_555 1_555
C39 C38 1_555 1_555
C40 C39 1_555 1_555
C41 C36 1_555 1_555
C42 C2 1_555 1_555
C43 C4 1_555 1_555
C44 C43 1_555 1_555
C45 C43 1_555 1_555
C46 C43 1_555 1_555
C47 C11 1_555 1_555
C48 C47 1_555 1_555
C49 C47 1_555 1_555
C50 C47 1_555 1_555
C51 C18 1_555 1_555
C52 C51 1_555 1_555
C53 C51 1_555 1_555
C54 C51 1_555 1_555
C55 C25 1_555 1_555
C56 C55 1_555 1_555
C57 C55 1_555 1_555
C58 C55 1_555 1_555
C59 C32 1_555 1_555
C60 C59 1_555 1_555
C61 C59 1_555 1_555
C62 C59 1_555 1_555
C63 C39 1_555 1_555
C64 C63 1_555 1_555
C65 C63 1_555 1_555
C66 C63 1_555 1_555
H1 C3 1_555 1_555
H2 C5 1_555 1_555
H3 C10 1_555 1_555
H4 C12 1_555 1_555
H5 C17 1_555 1_555
H6 C19 1_555 1_555
H7 C24 1_555 1_555
H8 C26 1_555 1_555
H9 C31 1_555 1_555
H10 C33 1_555 1_555
H11 C38 1_555 1_555
H12 C40 1_555 1_555
H13 C7 1_555 1_555
H14 C7 1_555 1_555
H15 C14 1_555 1_555
H16 C14 1_555 1_555
H17 C21 1_555 1_555
H18 C21 1_555 1_555
H19 C28 1_555 1_555
H20 C28 1_555 1_555
H21 C35 1_555 1_555
H22 C35 1_555 1_555
H23 C42 1_555 1_555
H24 C42 1_555 1_555
H25 C44 1_555 1_555
H26 C44 1_555 1_555
H27 C44 1_555 1_555
H28 C45 1_555 1_555
H29 C45 1_555 1_555
H30 C45 1_555 1_555
H31 C46 1_555 1_555
H32 C46 1_555 1_555
H33 C46 1_555 1_555
H34 C48 1_555 1_555
H35 C48 1_555 1_555
H36 C48 1_555 1_555
H37 C49 1_555 1_555
H38 C49 1_555 1_555
H39 C49 1_555 1_555
H40 C50 1_555 1_555
H41 C50 1_555 1_555
H42 C50 1_555 1_555
H43 C52 1_555 1_555
H44 C52 1_555 1_555
H45 C52 1_555 1_555
H46 C53 1_555 1_555
H47 C53 1_555 1_555
H48 C53 1_555 1_555
H49 C54 1_555 1_555
H50 C54 1_555 1_555
H51 C54 1_555 1_555
H52 C56 1_555 1_555
H53 C56 1_555 1_555
H54 C56 1_555 1_555
H55 C57 1_555 1_555
H56 C57 1_555 1_555
H57 C57 1_555 1_555
H58 C58 1_555 1_555
H59 C58 1_555 1_555
H60 C58 1_555 1_555
H61 C60 1_555 1_555
H62 C60 1_555 1_555
H63 C60 1_555 1_555
H64 C61 1_555 1_555
H65 C61 1_555 1_555
H66 C61 1_555 1_555
H67 C62 1_555 1_555
H68 C62 1_555 1_555
H69 C62 1_555 1_555
H70 C64 1_555 1_555
H71 C64 1_555 1_555
H72 C64 1_555 1_555
H73 C65 1_555 1_555
H74 C65 1_555 1_555
H75 C65 1_555 1_555
H76 C66 1_555 1_555
H77 C66 1_555 1_555
H78 C66 1_555 1_555
N1 C67 1_555 1_555
C67 C68 1_555 1_555
N2 C69 1_555 1_555
C69 C70 1_555 1_555
N3 C71 1_555 1_555
C71 C72 1_555 1_555
N4 C73 1_555 1_555
C73 C74 1_555 1_555
N5 C75 1_555 1_555
C75 C76 1_555 1_555
C8 C9 1_555 1_555
C12 C13 1_555 1_555
C15 C16 1_555 1_555
C19 C20 1_555 1_555
C26 C27 1_555 1_555
C29 C30 1_555 1_555
C33 C34 1_555 1_555
C36 C37 1_555 1_555
C40 C41 1_555 1_555
C41 C42 1_555 1_555

#END
