
#######################################################################
#
#                 Cambridge Crystallographic Data Centre
#                                CCDC 
#
#######################################################################
#
# If this CIF has been generated from an entry in the Cambridge 
# Structural Database, then it will include bibliographic, chemical, 
# crystal, experimental, refinement or atomic coordinate data resulting 
# from the CCDC's data processing and validation procedures.
#
#######################################################################

data_VUVBIY
_chemical_formula_moiety         'C24 H24 O3 S1'
_chemical_name_systematic        
(Z)-2-((4-Methylphenyl)sulfonyl)-1,3-diphenylpent-2-en-1-ol
_symmetry_cell_setting           monoclinic
_symmetry_space_group_name_H-M   'P 21/n'
_symmetry_Int_Tables_number      14
_space_group_name_Hall           '-P 2yn'
loop_
_symmetry_equiv_pos_site_id
_symmetry_equiv_pos_as_xyz
1 x,y,z
2 1/2-x,1/2+y,1/2-z
3 -x,-y,-z
4 1/2+x,1/2-y,1/2+z
_cell_length_a                   7.9248(8)
_cell_length_b                   22.178(2)
_cell_length_c                   12.3117(12)
_cell_angle_alpha                90
_cell_angle_beta                 106.8700(10)
_cell_angle_gamma                90
_cell_volume                     2070.74
_chemical_melting_point          166-169deg.C
_cell_formula_units_Z            4
loop_
_atom_site_label
_atom_site_type_symbol
_atom_site_fract_x
_atom_site_fract_y
_atom_site_fract_z
C1 C 0.6096(3) 0.08557(11) -0.49088(15)
H1 H 0.4958 0.0882 -0.5460
H2 H 0.6611 0.0470 -0.4967
H3 H 0.6844 0.1169 -0.5047
O1 O 0.43628(12) 0.06904(5) 0.00184(8)
S1 S 0.55610(4) 0.115284(15) -0.01428(3)
C2 C 0.5897(2) 0.09292(8) -0.37344(12)
O2 O 0.51571(16) 0.17655(5) 0.00571(9)
C3 C 0.5513(2) 0.14859(8) -0.33579(13)
H4 H 0.5333 0.1814 -0.3848
O3 O 0.80152(14) -0.00132(4) 0.18056(9)
H5 H 0.7286 -0.0187 0.1290
C4 C 0.5389(2) 0.15654(7) -0.22681(13)
H6 H 0.5133 0.1942 -0.2025
C5 C 0.56538(18) 0.10723(6) -0.15480(11)
C6 C 0.60014(19) 0.05084(7) -0.19104(12)
H7 H 0.6148 0.0178 -0.1427
C7 C 0.6129(2) 0.04408(7) -0.29994(13)
H8 H 0.6374 0.0063 -0.3244
C8 C 0.76678(17) 0.09430(6) 0.07668(10)
C9 C 0.75430(18) 0.06016(6) 0.18227(11)
H9 H 0.6312 0.0618 0.1834
C10 C 0.86644(19) 0.08967(7) 0.29051(11)
C11 C 0.8418(3) 0.15041(8) 0.30777(14)
H10 H 0.7578 0.1721 0.2534
C12 C 0.9412(3) 0.17894(9) 0.40519(17)
H11 H 0.9236 0.2197 0.4162
C13 C 1.0658(3) 0.14729(12) 0.48549(16)
H12 H 1.1342 0.1667 0.5503
C14 C 1.0898(3) 0.08706(12) 0.47036(15)
H13 H 1.1738 0.0656 0.5253
C15 C 0.9891(2) 0.05778(8) 0.37316(13)
H14 H 1.0044 0.0167 0.3639
C16 C 0.91733(18) 0.10663(6) 0.05188(11)
C17 C 0.93162(18) 0.14767(7) -0.04119(12)
C18 C 0.9954(2) 0.12612(8) -0.12775(14)
H15 H 1.0243 0.0856 -0.1299
C19 C 1.0157(3) 0.16519(12) -0.21057(16)
H16 H 1.0563 0.1507 -0.2693
C20 C 0.9760(3) 0.22558(12) -0.20649(19)
H17 H 0.9900 0.2517 -0.2624
C21 C 0.9160(3) 0.24724(9) -0.12009(19)
H18 H 0.8907 0.2880 -0.1170
C22 C 0.8930(2) 0.20853(7) -0.03785(14)
H19 H 0.8514 0.2233 0.0202
C23 C 1.09213(18) 0.08041(7) 0.11951(12)
H20 H 1.1444 0.0591 0.0684
H21 H 1.0720 0.0514 0.1733
C24 C 1.2207(2) 0.12796(10) 0.18345(16)
H22 H 1.2397 0.1573 0.1308
H23 H 1.3308 0.1092 0.2223
H24 H 1.1730 0.1475 0.2376
loop_
_geom_bond_atom_site_label_1
_geom_bond_atom_site_label_2
_geom_bond_site_symmetry_1
_geom_bond_site_symmetry_2
C1 H1 1_555 1_555
H2 C1 1_555 1_555
H3 C1 1_555 1_555
O1 S1 1_555 1_555
S1 O2 1_555 1_555
C2 C1 1_555 1_555
C3 C2 1_555 1_555
H4 C3 1_555 1_555
O3 H5 1_555 1_555
C4 C3 1_555 1_555
H6 C4 1_555 1_555
C5 S1 1_555 1_555
C6 C5 1_555 1_555
H7 C6 1_555 1_555
C7 C2 1_555 1_555
H8 C7 1_555 1_555
C8 S1 1_555 1_555
C9 O3 1_555 1_555
H9 C9 1_555 1_555
C10 C9 1_555 1_555
C11 C10 1_555 1_555
H10 C11 1_555 1_555
C12 C11 1_555 1_555
H11 C12 1_555 1_555
C13 C12 1_555 1_555
H12 C13 1_555 1_555
C14 C13 1_555 1_555
H13 C14 1_555 1_555
C15 C10 1_555 1_555
H14 C15 1_555 1_555
C16 C8 1_555 1_555
C17 C16 1_555 1_555
C18 C17 1_555 1_555
H15 C18 1_555 1_555
C19 C18 1_555 1_555
H16 C19 1_555 1_555
C20 C19 1_555 1_555
H17 C20 1_555 1_555
C21 C20 1_555 1_555
H18 C21 1_555 1_555
C22 C17 1_555 1_555
H19 C22 1_555 1_555
C23 C16 1_555 1_555
H20 C23 1_555 1_555
H21 C23 1_555 1_555
C24 C23 1_555 1_555
H22 C24 1_555 1_555
H23 C24 1_555 1_555
H24 C24 1_555 1_555
C4 C5 1_555 1_555
C6 C7 1_555 1_555
C8 C9 1_555 1_555
C14 C15 1_555 1_555
C21 C22 1_555 1_555

#END
