
#######################################################################
#
#                 Cambridge Crystallographic Data Centre
#                                CCDC 
#
#######################################################################
#
# If this CIF has been generated from an entry in the Cambridge 
# Structural Database, then it will include bibliographic, chemical, 
# crystal, experimental, refinement or atomic coordinate data resulting 
# from the CCDC's data processing and validation procedures.
#
#######################################################################

data_VUVQEK
_chemical_formula_moiety         'C28 H20 Br2 N2'
_chemical_name_systematic        
1-(4-bromobenzyl)-2-(4-bromophenyl)-4,5-diphenyl-1H-imidazole
_symmetry_cell_setting           orthorhombic
_symmetry_space_group_name_H-M   'P b c a'
_symmetry_Int_Tables_number      61
_space_group_name_Hall           '-P 2ac 2ab'
loop_
_symmetry_equiv_pos_site_id
_symmetry_equiv_pos_as_xyz
1 x,y,z
2 1/2-x,-y,1/2+z
3 1/2+x,1/2-y,-z
4 -x,1/2+y,1/2-z
5 -x,-y,-z
6 1/2+x,y,1/2-z
7 1/2-x,1/2+y,z
8 x,1/2-y,1/2+z
_cell_length_a                   9.106(3)
_cell_length_b                   21.881(7)
_cell_length_c                   24.002(8)
_cell_angle_alpha                90
_cell_angle_beta                 90
_cell_angle_gamma                90
_cell_volume                     4782.36
_cell_formula_units_Z            8
loop_
_atom_site_label
_atom_site_type_symbol
_atom_site_fract_x
_atom_site_fract_y
_atom_site_fract_z
Br1 Br 0.91773(10) 0.20271(4) 0.30343(3)
Br2 Br 0.76781(11) 0.17209(5) 0.72309(5)
N1 N 1.2566(5) 0.05534(19) 0.52900(17)
N2 N 1.2570(5) -0.0178(2) 0.46566(18)
C1 C 1.2548(6) 0.1169(2) 0.5532(2)
H1 H 1.2425 0.1465 0.5234
H2 H 1.3491 0.1247 0.5706
C2 C 1.1357(6) 0.1268(2) 0.5956(2)
C3 C 1.1417(7) 0.1798(3) 0.6278(2)
H3 H 1.2202 0.2066 0.6236
C4 C 1.0335(8) 0.1930(3) 0.6656(3)
H4 H 1.0386 0.2285 0.6868
C5 C 0.9184(7) 0.1539(3) 0.6720(3)
C6 C 0.9093(7) 0.1010(3) 0.6412(2)
H5 H 0.8302 0.0746 0.6457
C7 C 1.0205(7) 0.0878(3) 0.6034(2)
H6 H 1.0163 0.0518 0.5830
C8 C 1.2207(6) 0.0391(3) 0.4758(2)
C9 C 1.1478(6) 0.0797(2) 0.4355(2)
C10 C 1.0301(7) 0.1167(3) 0.4497(2)
H7 H 0.9964 0.1168 0.4862
C11 C 0.9622(7) 0.1533(3) 0.4111(3)
H8 H 0.8832 0.1778 0.4214
C12 C 1.0121(7) 0.1535(3) 0.3569(2)
C13 C 1.1272(8) 0.1174(3) 0.3412(3)
H9 H 1.1603 0.1180 0.3046
C14 C 1.1948(7) 0.0797(3) 0.3803(2)
H10 H 1.2717 0.0544 0.3695
C15 C 1.3170(6) -0.0402(2) 0.5140(2)
C16 C 1.3709(6) -0.1037(3) 0.5168(2)
C17 C 1.3326(7) -0.1450(3) 0.4759(2)
H11 H 1.2708 -0.1327 0.4472
C18 C 1.3838(8) -0.2040(3) 0.4768(3)
H12 H 1.3575 -0.2311 0.4487
C19 C 1.4733(8) -0.2228(3) 0.5190(3)
H13 H 1.5074 -0.2629 0.5197
C20 C 1.5130(8) -0.1832(3) 0.5600(3)
H14 H 1.5750 -0.1959 0.5886
C21 C 1.4603(7) -0.1242(3) 0.5589(3)
H15 H 1.4861 -0.0975 0.5874
C22 C 1.3188(6) 0.0046(2) 0.5542(2)
C23 C 1.3540(7) 0.0040(2) 0.6144(2)
C24 C 1.2633(7) -0.0274(3) 0.6503(3)
H16 H 1.1818 -0.0480 0.6364
C25 C 1.2927(9) -0.0285(4) 0.7065(3)
H17 H 1.2313 -0.0502 0.7304
C26 C 1.4099(9) 0.0016(3) 0.7274(3)
H18 H 1.4287 0.0008 0.7655
C27 C 1.5002(8) 0.0330(3) 0.6926(3)
H19 H 1.5808 0.0538 0.7071
C28 C 1.4734(7) 0.0345(3) 0.6357(2)
H20 H 1.5358 0.0560 0.6121
loop_
_geom_bond_atom_site_label_1
_geom_bond_atom_site_label_2
_geom_bond_site_symmetry_1
_geom_bond_site_symmetry_2
Br1 C12 1_555 1_555
Br2 C5 1_555 1_555
N1 C1 1_555 1_555
N2 C8 1_555 1_555
C1 H1 1_555 1_555
H2 C1 1_555 1_555
C2 C1 1_555 1_555
C3 C2 1_555 1_555
H3 C3 1_555 1_555
C4 C3 1_555 1_555
H4 C4 1_555 1_555
C5 C4 1_555 1_555
C6 C5 1_555 1_555
H5 C6 1_555 1_555
C7 C2 1_555 1_555
H6 C7 1_555 1_555
C8 N1 1_555 1_555
C9 C8 1_555 1_555
C10 C9 1_555 1_555
H7 C10 1_555 1_555
C11 C10 1_555 1_555
H8 C11 1_555 1_555
C12 C11 1_555 1_555
C13 C12 1_555 1_555
H9 C13 1_555 1_555
C14 C9 1_555 1_555
H10 C14 1_555 1_555
C15 N2 1_555 1_555
C16 C15 1_555 1_555
C17 C16 1_555 1_555
H11 C17 1_555 1_555
C18 C17 1_555 1_555
H12 C18 1_555 1_555
C19 C18 1_555 1_555
H13 C19 1_555 1_555
C20 C19 1_555 1_555
H14 C20 1_555 1_555
C21 C16 1_555 1_555
H15 C21 1_555 1_555
C22 N1 1_555 1_555
C23 C22 1_555 1_555
C24 C23 1_555 1_555
H16 C24 1_555 1_555
C25 C24 1_555 1_555
H17 C25 1_555 1_555
C26 C25 1_555 1_555
H18 C26 1_555 1_555
C27 C26 1_555 1_555
H19 C27 1_555 1_555
C28 C23 1_555 1_555
H20 C28 1_555 1_555
C6 C7 1_555 1_555
C13 C14 1_555 1_555
C15 C22 1_555 1_555
C20 C21 1_555 1_555
C27 C28 1_555 1_555

#END
