
#######################################################################
#
#                 Cambridge Crystallographic Data Centre
#                                CCDC 
#
#######################################################################
#
# If this CIF has been generated from an entry in the Cambridge 
# Structural Database, then it will include bibliographic, chemical, 
# crystal, experimental, refinement or atomic coordinate data resulting 
# from the CCDC's data processing and validation procedures.
#
#######################################################################

data_VUVREK
_chemical_formula_moiety         'C13 H24 N2 O1'
_chemical_name_systematic        10-(1H-Imidazol-1-yl)decan-1-ol
_symmetry_cell_setting           monoclinic
_symmetry_space_group_name_H-M   'P 21'
_symmetry_Int_Tables_number      4
_space_group_name_Hall           'P 2yb'
loop_
_symmetry_equiv_pos_site_id
_symmetry_equiv_pos_as_xyz
1 x,y,z
2 -x,1/2+y,-z
_cell_length_a                   7.3483(14)
_cell_length_b                   5.0942(10)
_cell_length_c                   17.320(3)
_cell_angle_alpha                90
_cell_angle_beta                 94.455(3)
_cell_angle_gamma                90
_cell_volume                     646.393
_exptl_crystal_colour            colorless
_exptl_crystal_description       plate
_chemical_melting_point          '65 deg.C'
_cell_formula_units_Z            2
loop_
_atom_site_label
_atom_site_type_symbol
_atom_site_fract_x
_atom_site_fract_y
_atom_site_fract_z
O1 O 0.5420(2) 0.2803(3) 0.80378(8)
H1 H 0.6177 0.3463 0.8371
N1 N -0.2230(2) 0.4436(4) 0.05125(10)
N2 N -0.2238(2) 0.5000(4) -0.07542(9)
C1 C -0.1703(3) 0.3494(5) -0.01608(11)
H2 H -0.1022 0.1922 -0.0204
C2 C -0.3177(3) 0.7023(5) -0.04345(12)
H3 H -0.3742 0.8438 -0.0719
C3 C -0.3178(3) 0.6708(4) 0.03419(12)
H4 H -0.3724 0.7831 0.0696
C4 C -0.1900(3) 0.3188(5) 0.12783(11)
H5 H -0.1435 0.1386 0.1208
H6 H -0.3074 0.3045 0.1520
C5 C -0.0548(3) 0.4673(5) 0.18232(11)
H7 H -0.0993 0.6484 0.1896
H8 H 0.0646 0.4777 0.1597
C6 C -0.0322(3) 0.3265(5) 0.26059(11)
H9 H -0.1530 0.3141 0.2820
H10 H 0.0115 0.1456 0.2524
C7 C 0.1008(3) 0.4633(5) 0.31975(11)
H11 H 0.2236 0.4663 0.2999
H12 H 0.0613 0.6474 0.3260
C8 C 0.1128(3) 0.3284(4) 0.39854(11)
H13 H 0.1521 0.1444 0.3921
H14 H -0.0103 0.3250 0.4180
C9 C 0.2447(3) 0.4618(4) 0.45880(11)
H15 H 0.3683 0.4628 0.4398
H16 H 0.2065 0.6465 0.4649
C10 C 0.2532(3) 0.3265(4) 0.53768(10)
H17 H 0.2890 0.1409 0.5313
H18 H 0.1298 0.3282 0.5570
C11 C 0.3872(3) 0.4552(4) 0.59805(10)
H19 H 0.3494 0.6393 0.6057
H20 H 0.5100 0.4580 0.5782
C12 C 0.3983(3) 0.3135(4) 0.67610(11)
H21 H 0.2765 0.3166 0.6968
H22 H 0.4316 0.1277 0.6681
C13 C 0.5354(3) 0.4341(4) 0.73486(11)
H23 H 0.6573 0.4383 0.7142
H24 H 0.4994 0.6164 0.7462
loop_
_geom_bond_atom_site_label_1
_geom_bond_atom_site_label_2
_geom_bond_site_symmetry_1
_geom_bond_site_symmetry_2
O1 H1 1_555 1_555
N1 C1 1_555 1_555
N2 C1 1_555 1_555
C1 H2 1_555 1_555
C2 N2 1_555 1_555
H3 C2 1_555 1_555
C3 N1 1_555 1_555
H4 C3 1_555 1_555
C4 N1 1_555 1_555
H5 C4 1_555 1_555
H6 C4 1_555 1_555
C5 C4 1_555 1_555
H7 C5 1_555 1_555
H8 C5 1_555 1_555
C6 C5 1_555 1_555
H9 C6 1_555 1_555
H10 C6 1_555 1_555
C7 C6 1_555 1_555
H11 C7 1_555 1_555
H12 C7 1_555 1_555
C8 C7 1_555 1_555
H13 C8 1_555 1_555
H14 C8 1_555 1_555
C9 C8 1_555 1_555
H15 C9 1_555 1_555
H16 C9 1_555 1_555
C10 C9 1_555 1_555
H17 C10 1_555 1_555
H18 C10 1_555 1_555
C11 C10 1_555 1_555
H19 C11 1_555 1_555
H20 C11 1_555 1_555
C12 C11 1_555 1_555
H21 C12 1_555 1_555
H22 C12 1_555 1_555
C13 O1 1_555 1_555
H23 C13 1_555 1_555
H24 C13 1_555 1_555
C2 C3 1_555 1_555
C12 C13 1_555 1_555

#END
