
#######################################################################
#
#                 Cambridge Crystallographic Data Centre
#                                CCDC 
#
#######################################################################
#
# If this CIF has been generated from an entry in the Cambridge 
# Structural Database, then it will include bibliographic, chemical, 
# crystal, experimental, refinement or atomic coordinate data resulting 
# from the CCDC's data processing and validation procedures.
#
#######################################################################

data_VUVSOW
_chemical_formula_moiety         'C22 H23 F3 N2 O2 S1'
_chemical_name_systematic        
7-methyl-2-(4-methylphenyl)-5-((4-methylphenyl)sulfonyl)-7-(2,2,2-trifluoroethyl)-1,5-diazaspiro[2.4]hept-1-ene
_symmetry_cell_setting           monoclinic
_symmetry_space_group_name_H-M   'P 21/n'
_symmetry_Int_Tables_number      14
_space_group_name_Hall           '-P 2yn'
loop_
_symmetry_equiv_pos_site_id
_symmetry_equiv_pos_as_xyz
1 x,y,z
2 1/2-x,1/2+y,1/2-z
3 -x,-y,-z
4 1/2+x,1/2-y,1/2+z
_cell_length_a                   11.8464(7)
_cell_length_b                   9.2394(6)
_cell_length_c                   20.0684(12)
_cell_angle_alpha                90
_cell_angle_beta                 96.768(6)
_cell_angle_gamma                90
_cell_volume                     2181.25
_cell_formula_units_Z            4
loop_
_atom_site_label
_atom_site_type_symbol
_atom_site_fract_x
_atom_site_fract_y
_atom_site_fract_z
S1 S 0.33956(8) 0.92606(11) 0.36500(5)
F1 F 0.4957(3) 0.2832(4) 0.3997(2)
F2 F 0.5476(2) 0.4780(4) 0.36466(19)
F3 F 0.4911(3) 0.3135(5) 0.2967(2)
O1 O 0.2823(3) 0.9850(3) 0.30414(13)
O2 O 0.4598(2) 0.9406(3) 0.38037(14)
N1 N 0.3139(2) 0.7528(3) 0.36257(15)
N2 N 0.1051(3) 0.5675(4) 0.43769(17)
C1 C 0.1951(3) 0.7032(4) 0.3441(2)
H1 H 0.1804 0.6833 0.2964
H2 H 0.1411 0.7748 0.3560
C2 C 0.1890(3) 0.5666(4) 0.38480(18)
C3 C 0.3107(3) 0.5152(4) 0.40601(19)
C4 C 0.3692(3) 0.6626(4) 0.4174(2)
H3 H 0.3572 0.7022 0.4608
H4 H 0.4502 0.6548 0.4149
C5 C 0.0845(3) 0.4857(4) 0.38672(19)
C6 C -0.0017(3) 0.3897(4) 0.35602(19)
C7 C -0.0962(3) 0.3562(5) 0.3883(2)
H5 H -0.1031 0.3949 0.4304
C8 C -0.1789(3) 0.2665(5) 0.3582(2)
H6 H -0.2414 0.2448 0.3804
C9 C -0.1718(4) 0.2075(5) 0.2958(3)
C10 C -0.0771(4) 0.2404(5) 0.2641(2)
H7 H -0.0700 0.2005 0.2222
C11 C 0.0065(3) 0.3310(5) 0.2936(2)
H8 H 0.0689 0.3528 0.2713
C12 C -0.2636(5) 0.1082(6) 0.2632(3)
H9 H -0.2943 0.0521 0.2971
H10 H -0.2319 0.0445 0.2325
H11 H -0.3231 0.1649 0.2392
C13 C 0.3214(4) 0.4268(5) 0.4707(2)
H12 H 0.2789 0.3386 0.4633
H13 H 0.2921 0.4817 0.5054
H14 H 0.4000 0.4044 0.4840
C14 C 0.3498(3) 0.4321(5) 0.3467(2)
H15 H 0.2994 0.3497 0.3378
H16 H 0.3379 0.4947 0.3077
C15 C 0.4679(4) 0.3773(6) 0.3511(3)
C16 C 0.2749(3) 0.9981(4) 0.43211(19)
C17 C 0.1648(3) 1.0525(4) 0.4213(2)
H17 H 0.1252 1.0526 0.3784
C18 C 0.1151(4) 1.1064(5) 0.4750(3)
H18 H 0.0415 1.1429 0.4679
C19 C 0.1724(4) 1.1074(5) 0.5395(2)
C20 C 0.2812(3) 1.0525(4) 0.5484(2)
H19 H 0.3210 1.0530 0.5912
C21 C 0.3326(3) 0.9971(4) 0.49622(19)
H20 H 0.4057 0.9592 0.5038
C22 C 0.1171(4) 1.1701(6) 0.5968(3)
H21 H 0.0589 1.2371 0.5797
H22 H 0.1733 1.2196 0.6269
H23 H 0.0840 1.0936 0.6204
loop_
_geom_bond_atom_site_label_1
_geom_bond_atom_site_label_2
_geom_bond_site_symmetry_1
_geom_bond_site_symmetry_2
S1 O1 1_555 1_555
F1 C15 1_555 1_555
F2 C15 1_555 1_555
F3 C15 1_555 1_555
O2 S1 1_555 1_555
N1 S1 1_555 1_555
N2 C2 1_555 1_555
C1 N1 1_555 1_555
H1 C1 1_555 1_555
H2 C1 1_555 1_555
C2 C1 1_555 1_555
C3 C2 1_555 1_555
C4 N1 1_555 1_555
H3 C4 1_555 1_555
H4 C4 1_555 1_555
C5 N2 1_555 1_555
C6 C5 1_555 1_555
C7 C6 1_555 1_555
H5 C7 1_555 1_555
C8 C7 1_555 1_555
H6 C8 1_555 1_555
C9 C8 1_555 1_555
C10 C9 1_555 1_555
H7 C10 1_555 1_555
C11 C6 1_555 1_555
H8 C11 1_555 1_555
C12 C9 1_555 1_555
H9 C12 1_555 1_555
H10 C12 1_555 1_555
H11 C12 1_555 1_555
C13 C3 1_555 1_555
H12 C13 1_555 1_555
H13 C13 1_555 1_555
H14 C13 1_555 1_555
C14 C3 1_555 1_555
H15 C14 1_555 1_555
H16 C14 1_555 1_555
C15 C14 1_555 1_555
C16 S1 1_555 1_555
C17 C16 1_555 1_555
H17 C17 1_555 1_555
C18 C17 1_555 1_555
H18 C18 1_555 1_555
C19 C18 1_555 1_555
C20 C19 1_555 1_555
H19 C20 1_555 1_555
C21 C16 1_555 1_555
H20 C21 1_555 1_555
C22 C19 1_555 1_555
H21 C22 1_555 1_555
H22 C22 1_555 1_555
H23 C22 1_555 1_555
C2 C5 1_555 1_555
C3 C4 1_555 1_555
C10 C11 1_555 1_555
C20 C21 1_555 1_555

#END
