
#######################################################################
#
#                 Cambridge Crystallographic Data Centre
#                                CCDC 
#
#######################################################################
#
# If this CIF has been generated from an entry in the Cambridge 
# Structural Database, then it will include bibliographic, chemical, 
# crystal, experimental, refinement or atomic coordinate data resulting 
# from the CCDC's data processing and validation procedures.
#
#######################################################################

data_VUWHIG
_chemical_formula_moiety         'C22 H12 F1 N1 O2'
_chemical_name_systematic        
5-(4-fluorophenyl)-5H-benzo[b]carbazole-6,11-dione
_symmetry_cell_setting           orthorhombic
_symmetry_space_group_name_H-M   'P 21 21 21'
_symmetry_Int_Tables_number      19
_space_group_name_Hall           'P 2ac 2ab'
loop_
_symmetry_equiv_pos_site_id
_symmetry_equiv_pos_as_xyz
1 x,y,z
2 1/2-x,-y,1/2+z
3 -x,1/2+y,1/2-z
4 1/2+x,1/2-y,-z
_cell_length_a                   6.7446(3)
_cell_length_b                   11.9083(4)
_cell_length_c                   19.4626(8)
_cell_angle_alpha                90
_cell_angle_beta                 90
_cell_angle_gamma                90
_cell_volume                     1563.17
_exptl_crystal_colour            orange
_exptl_crystal_description       rod
_cell_formula_units_Z            4
loop_
_atom_site_label
_atom_site_type_symbol
_atom_site_fract_x
_atom_site_fract_y
_atom_site_fract_z
O1 O 0.93104(17) 0.89979(7) 0.06217(5)
O2 O 0.93895(17) 0.44670(7) 0.09320(4)
N1 N 0.92904(17) 0.55386(8) -0.04402(5)
C1 C 0.92740(19) 0.63719(10) -0.09400(6)
C2 C 0.9249(2) 0.62580(12) -0.16556(6)
H1 H 0.9251 0.5543 -0.1872
C3 C 0.9220(2) 0.72441(13) -0.20315(7)
H2 H 0.9215 0.7203 -0.2519
C4 C 0.9198(2) 0.83015(12) -0.17165(7)
H3 H 0.9175 0.8957 -0.1995
C5 C 0.9210(2) 0.84109(11) -0.10096(7)
H4 H 0.9195 0.9131 -0.0799
C6 C 0.92451(19) 0.74268(10) -0.06104(6)
C7 C 0.9240(2) 0.72053(9) 0.01119(6)
C8 C 0.92559(19) 0.60497(9) 0.01933(6)
C9 C 0.9257(2) 0.79717(9) 0.06916(6)
C10 C 0.92185(19) 0.74332(10) 0.13879(6)
C11 C 0.9212(2) 0.62615(10) 0.14649(6)
C12 C 0.9287(2) 0.54851(9) 0.08625(6)
C13 C 0.9183(2) 0.81130(10) 0.19690(6)
H5 H 0.9191 0.8907 0.1919
C14 C 0.9135(2) 0.76396(12) 0.26231(7)
H6 H 0.9120 0.8110 0.3018
C15 C 0.9111(2) 0.64830(13) 0.26982(7)
H7 H 0.9070 0.6160 0.3144
C16 C 0.9145(2) 0.57927(11) 0.21201(6)
H8 H 0.9123 0.5000 0.2173
C17 C 0.947(7) 0.4360(13) -0.061(3)
C18 C 0.7833(14) 0.3660(7) -0.0486(4)
H9 H 0.6671 0.3959 -0.0280
C19 C 0.7910(14) 0.2484(8) -0.0671(3)
H10 H 0.6834 0.1985 -0.0594
C20 C 0.960(7) 0.2156(14) -0.096(3)
C21 C 1.1228(14) 0.2876(7) -0.1076(3)
H11 H 1.2392 0.2588 -0.1287
C22 C 1.1152(15) 0.3944(4) -0.0897(3)
H12 H 1.2266 0.4418 -0.0968
F1 F 0.963(8) 0.1043(14) -0.111(3)
C23? C 0.921(8) 0.4364(13) -0.058(3)
C24? C 1.0930(19) 0.3877(7) -0.0855(4)
H13? H 1.2082 0.4324 -0.0921
C25? C 1.0962(17) 0.2693(8) -0.1039(3)
H14? H 1.2102 0.2333 -0.1222
C26? C 0.926(8) 0.2158(15) -0.093(3)
C27? C 0.7572(12) 0.2668(8) -0.0642(3)
H15? H 0.6422 0.2226 -0.0562
C28? C 0.7546(13) 0.3743(5) -0.0481(4)
H16? H 0.6382 0.4077 -0.0297
F2? F 0.932(9) 0.1075(14) -0.115(3)
loop_
_geom_bond_atom_site_label_1
_geom_bond_atom_site_label_2
_geom_bond_site_symmetry_1
_geom_bond_site_symmetry_2
O1 C9 1_555 1_555
O2 C12 1_555 1_555
N1 C1 1_555 1_555
C1 C2 1_555 1_555
C2 H1 1_555 1_555
C3 C2 1_555 1_555
H2 C3 1_555 1_555
C4 C3 1_555 1_555
H3 C4 1_555 1_555
C5 C4 1_555 1_555
H4 C5 1_555 1_555
C6 C1 1_555 1_555
C7 C6 1_555 1_555
C8 N1 1_555 1_555
C9 C7 1_555 1_555
C10 C9 1_555 1_555
C11 C10 1_555 1_555
C12 C8 1_555 1_555
C13 C10 1_555 1_555
H5 C13 1_555 1_555
C14 C13 1_555 1_555
H6 C14 1_555 1_555
C15 C14 1_555 1_555
H7 C15 1_555 1_555
C16 C11 1_555 1_555
H8 C16 1_555 1_555
C17 N1 1_555 1_555
C18 C17 1_555 1_555
H9 C18 1_555 1_555
C19 C18 1_555 1_555
H10 C19 1_555 1_555
C20 C19 1_555 1_555
C21 C20 1_555 1_555
H11 C21 1_555 1_555
C22 C17 1_555 1_555
H12 C22 1_555 1_555
F1 C20 1_555 1_555
C5 C6 1_555 1_555
C7 C8 1_555 1_555
C11 C12 1_555 1_555
C15 C16 1_555 1_555
C21 C22 1_555 1_555

#END
