
#######################################################################
#
#                 Cambridge Crystallographic Data Centre
#                                CCDC 
#
#######################################################################
#
# If this CIF has been generated from an entry in the Cambridge 
# Structural Database, then it will include bibliographic, chemical, 
# crystal, experimental, refinement or atomic coordinate data resulting 
# from the CCDC's data processing and validation procedures.
#
#######################################################################

data_VUWJEC
_chemical_compound_source        'Aerial parts of Peucedanum japonicum'
_chemical_formula_moiety         'C24 H26 O7'
_chemical_name_systematic        cis-3',4'-Disenecioylkhellactone
_chemical_properties_biological  'antiplatelet aggregation activity'
_symmetry_cell_setting           orthorhombic
_symmetry_space_group_name_H-M   'P 21 21 21'
_symmetry_Int_Tables_number      19
_space_group_name_Hall           'P 2ac 2ab'
loop_
_symmetry_equiv_pos_site_id
_symmetry_equiv_pos_as_xyz
1 x,y,z
2 1/2+x,1/2-y,-z
3 -x,1/2+y,1/2-z
4 1/2-x,-y,1/2+z
_cell_length_a                   15.525(3)
_cell_length_b                   6.780(1)
_cell_length_c                   22.001(5)
_cell_angle_alpha                90
_cell_angle_beta                 90
_cell_angle_gamma                90
_cell_volume                     2315.81
_exptl_crystal_colour            colorless
_chemical_melting_point          113-114deg.C
_cell_formula_units_Z            4
loop_
_atom_site_label
_atom_site_type_symbol
_atom_site_fract_x
_atom_site_fract_y
_atom_site_fract_z
O1 O 0.4668(2) 0.0788(4) 0.6677(1)
O2 O 0.5684(2) 0.0942(6) 0.5979(2)
C1 C 0.5534(3) 0.0872(6) 0.6515(2)
C2 C 0.6149(3) 0.0851(6) 0.6997(2)
C3 C 0.5895(3) 0.0837(6) 0.7577(2)
C4 C 0.4685(3) 0.0845(6) 0.8333(2)
C5 C 0.3824(3) 0.0852(6) 0.8451(2)
C6 C 0.3232(3) 0.0783(6) 0.7969(2)
C7 C 0.3519(2) 0.0732(5) 0.7369(2)
C8 C 0.4413(2) 0.0807(5) 0.7274(2)
C9 C 0.5011(3) 0.0847(5) 0.7740(2)
C10 C 0.1666(3) 0.3216(7) 0.7526(2)
C11 C 0.1746(3) 0.1017(7) 0.7649(2)
C12 C 0.2921(2) 0.0402(5) 0.6853(2)
C13 C 0.0913(3) 0.0199(10) 0.7913(3)
C14 C 0.2034(3) -0.0194(6) 0.7106(2)
O3 O 0.2387(2) 0.0699(5) 0.8123(1)
C15 C 0.2867(3) 0.1857(6) 0.5867(2)
C16 C 0.2760(3) 0.3751(6) 0.5554(2)
C17 C 0.2714(3) 0.3999(6) 0.4962(2)
C18 C 0.2807(5) 0.2394(10) 0.4489(2)
C19 C 0.2549(3) 0.6011(7) 0.4700(2)
O4 O 0.2936(3) 0.0243(5) 0.5650(1)
O5 O 0.2859(2) 0.2142(3) 0.6479(1)
O6 O 0.1500(3) -0.3355(6) 0.6515(2)
C20 C 0.1203(3) -0.1816(7) 0.6343(2)
C21 C 0.0656(3) -0.1456(8) 0.5834(2)
C22 C 0.0285(3) -0.2854(10) 0.5473(2)
C23 C 0.0387(4) -0.5040(9) 0.5572(3)
C24 C -0.0224(4) -0.2235(13) 0.4938(3)
O7 O 0.1409(2) -0.0093(4) 0.6636(1)
H1 H 0.6728 0.0552 0.7036
H2 H 0.6265 0.0725 0.7836
H3 H 0.5167 0.0894 0.8720
H4 H 0.3664 0.0822 0.8808
H5 H 0.2345 0.3748 0.7334
H6 H 0.1249 0.3452 0.7282
H7 H 0.1353 0.4239 0.7888
H8 H 0.3129(19) -0.0603(48) 0.6600(15)
H9 H 0.1047 -0.1220 0.7987
H10 H 0.0707 0.0878 0.8297
H11 H 0.0444 0.0442 0.7622
H12 H 0.2096(22) -0.1547(58) 0.7255(16)
H13 H 0.2571 0.4847 0.5987
H14 H 0.3069 0.1347 0.4678
H15 H 0.2036 0.2263 0.4279
H16 H 0.3126 0.2443 0.4060
H17 H 0.2423 0.7016 0.5094
H18 H 0.2697 0.6231 0.4348
H19 H 0.1864 0.6147 0.4611
H20 H 0.0484 -0.0187 0.5776
H21 H 0.0399 -0.5261 0.6035
H22 H -0.0329 -0.5530 0.5684
H23 H 0.0289 -0.5908 0.5169
H24 H -0.0286 -0.0371 0.4844
H25 H 0.0046 -0.2764 0.4572
H26 H -0.0725 -0.2720 0.4947
loop_
_geom_bond_atom_site_label_1
_geom_bond_atom_site_label_2
_geom_bond_site_symmetry_1
_geom_bond_site_symmetry_2
O1 C1 1_555 1_555
O2 C1 1_555 1_555
C1 C2 1_555 1_555
C2 C3 1_555 1_555
C3 C9 1_555 1_555
C4 C5 1_555 1_555
C5 C6 1_555 1_555
C6 C7 1_555 1_555
C7 C8 1_555 1_555
C8 O1 1_555 1_555
C9 C4 1_555 1_555
C10 C11 1_555 1_555
C11 C13 1_555 1_555
C12 C7 1_555 1_555
C13 H9 1_555 1_555
C14 C11 1_555 1_555
O3 C6 1_555 1_555
C15 C16 1_555 1_555
C16 C17 1_555 1_555
C17 C18 1_555 1_555
C18 H14 1_555 1_555
C19 C17 1_555 1_555
O4 C15 1_555 1_555
O5 C12 1_555 1_555
O6 C20 1_555 1_555
C20 C21 1_555 1_555
C21 C22 1_555 1_555
C22 C23 1_555 1_555
C23 H21 1_555 1_555
C24 C22 1_555 1_555
O7 C14 1_555 1_555
H1 C2 1_555 1_555
H2 C3 1_555 1_555
H3 C4 1_555 1_555
H4 C5 1_555 1_555
H5 C10 1_555 1_555
H6 C10 1_555 1_555
H7 C10 1_555 1_555
H8 C12 1_555 1_555
H10 C13 1_555 1_555
H11 C13 1_555 1_555
H12 C14 1_555 1_555
H13 C16 1_555 1_555
H15 C18 1_555 1_555
H16 C18 1_555 1_555
H17 C19 1_555 1_555
H18 C19 1_555 1_555
H19 C19 1_555 1_555
H20 C21 1_555 1_555
H22 C23 1_555 1_555
H23 C23 1_555 1_555
H24 C24 1_555 1_555
H25 C24 1_555 1_555
H26 C24 1_555 1_555
C8 C9 1_555 1_555
C11 O3 1_555 1_555
C12 C14 1_555 1_555
C15 O5 1_555 1_555
C20 O7 1_555 1_555

#END
