
#######################################################################
#
#                 Cambridge Crystallographic Data Centre
#                                CCDC 
#
#######################################################################
#
# If this CIF has been generated from an entry in the Cambridge 
# Structural Database, then it will include bibliographic, chemical, 
# crystal, experimental, refinement or atomic coordinate data resulting 
# from the CCDC's data processing and validation procedures.
#
#######################################################################

data_VUWJOM
_chemical_compound_source        'Polanisia dodecandra'
_chemical_name_common            'Polacandrin pentahydrate'
_chemical_formula_moiety         'C30 H52 O5,5(H2 O1)'
_chemical_name_systematic        
'1\b,3\a,12\b,25-Tetrahydroxy-20(S),24(S)-epoxydammarane pentahydrate'
_chemical_properties_biological  'antitumour and cytotoxic activity'
_symmetry_cell_setting           orthorhombic
_symmetry_space_group_name_H-M   'C 2 2 21'
_symmetry_Int_Tables_number      20
_space_group_name_Hall           'C 2n 2'
loop_
_symmetry_equiv_pos_site_id
_symmetry_equiv_pos_as_xyz
1 x,y,z
2 1/2+x,1/2+y,z
3 x,-y,-z
4 1/2+x,1/2-y,-z
5 -x,y,1/2-z
6 1/2-x,1/2+y,1/2-z
7 -x,-y,1/2+z
8 1/2-x,1/2-y,1/2+z
_cell_length_a                   13.001(2)
_cell_length_b                   15.160(2)
_cell_length_c                   33.255(4)
_cell_angle_alpha                90
_cell_angle_beta                 90
_cell_angle_gamma                90
_cell_volume                     6554.4
_exptl_crystal_colour            colorless
_chemical_melting_point          234-238deg.C
_cell_formula_units_Z            8
loop_
_atom_site_label
_atom_site_type_symbol
_atom_site_fract_x
_atom_site_fract_y
_atom_site_fract_z
C1 C 0.1634(4) -0.1940(3) 0.4061(1)
C2 C 0.1615(4) -0.2944(3) 0.4094(1)
C3 C 0.1026(4) -0.3386(3) 0.3752(1)
C4 C 0.1450(4) -0.3129(3) 0.3341(1)
C5 C 0.1498(3) -0.2101(3) 0.3314(1)
C6 C 0.1836(4) -0.1756(3) 0.2900(1)
C7 C 0.1492(4) -0.0799(3) 0.2846(1)
C8 C 0.1912(4) -0.0171(3) 0.3176(1)
C9 C 0.1741(3) -0.0595(3) 0.3602(1)
C10 C 0.2068(3) -0.1585(3) 0.3657(1)
C11 C 0.2127(4) 0.0050(3) 0.3930(1)
C12 C 0.1595(3) 0.0942(3) 0.3910(1)
C13 C 0.1740(3) 0.1355(3) 0.3496(1)
C14 C 0.1321(3) 0.0728(3) 0.3171(1)
C15 C 0.1444(4) 0.1308(3) 0.2795(1)
C16 C 0.1055(4) 0.2218(3) 0.2933(1)
C17 C 0.1231(4) 0.2251(3) 0.3399(1)
C18 C 0.3069(4) -0.0016(3) 0.3081(1)
C19 C 0.3251(4) -0.1710(4) 0.3663(1)
C20 C 0.1794(3) 0.3102(3) 0.3513(1)
C21 C 0.1100(5) 0.3919(4) 0.3445(2)
C22 C 0.2857(4) 0.3230(3) 0.3321(1)
C23 C 0.3429(4) 0.3776(3) 0.3634(2)
C24 C 0.3040(3) 0.3427(3) 0.4028(1)
C25 C 0.2993(4) 0.4059(4) 0.4373(2)
C26 C 0.4079(5) 0.4404(6) 0.4448(2)
C27 C 0.2538(5) 0.3630(4) 0.4748(2)
C28 C 0.0723(5) -0.3491(4) 0.3014(2)
C29 C 0.2508(4) -0.3590(4) 0.3277(2)
C30 C 0.0144(3) 0.0588(3) 0.3224(1)
O1 O 0.2189(4) -0.1609(2) 0.4401(1)
O2 O -0.0029(3) -0.3134(2) 0.3767(1)
O3 O 0.2043(3) 0.1477(2) 0.4229(1)
O4 O 0.2005(2) 0.3089(2) 0.3942(1)
O5 O 0.2396(4) 0.4831(2) 0.4266(1)
H1 H 0.0872 -0.1709 0.4062
H2 H 0.1265 -0.3117 0.4367
H3 H 0.2376 -0.3176 0.4091
H4 H 0.1108 -0.4070 0.3790
H5 H 0.0718 -0.1953 0.3361
H6 H 0.1503 -0.2147 0.2674
H7 H 0.2641 -0.1790 0.2878
H8 H 0.0685 -0.0779 0.2853
H9 H 0.1752 -0.0575 0.2565
H10 H 0.0943 -0.0674 0.3636
H11 H 0.2921 0.0145 0.3892
H12 H 0.1987 -0.0230 0.4213
H13 H 0.0797 0.0887 0.3952
H14 H 0.2537 0.1468 0.3499
H15 H 0.0997 0.1066 0.2556
H16 H 0.2218 0.1341 0.2706
H17 H 0.0270 0.2288 0.2866
H18 H 0.1473 0.2722 0.2791
H19 H 0.0571 0.2302 0.3580
H20 H 0.3142 0.0267 0.2794
H21 H 0.3385 0.0411 0.3297
H22 H 0.3461 -0.0621 0.3088
H23 H 0.3567 -0.1343 0.3901
H24 H 0.3425 -0.2381 0.3703
H25 H 0.3563 -0.1491 0.3389
H26 H 0.1504 0.4492 0.3525
H27 H 0.0890 0.3954 0.3141
H28 H 0.0436 0.3864 0.3623
H29 H 0.2800 0.3571 0.3047
H30 H 0.3223 0.2621 0.3273
H31 H 0.3255 0.4449 0.3603
H32 H 0.4227 0.3684 0.3609
H33 H 0.3571 0.2954 0.4129
H34 H 0.4068 0.4850 0.4689
H35 H 0.4568 0.3874 0.4517
H36 H 0.4348 0.4725 0.4189
H37 H 0.2518 0.4092 0.4983
H38 H 0.1788 0.3412 0.4686
H39 H 0.2995 0.3091 0.4833
H40 H -0.0005 -0.3198 0.3045
H41 H 0.1024 -0.3344 0.2729
H42 H 0.0655 -0.4178 0.3046
H43 H 0.3033 -0.3364 0.3494
H44 H 0.2418 -0.4275 0.3306
H45 H 0.2787 -0.3441 0.2988
H46 H -0.0126 0.0159 0.3000
H47 H -0.0001 0.0313 0.3508
H48 H -0.0235 0.1197 0.3200
H49 H 0.1830 -0.1378 0.4626
H50 H -0.0329 -0.3333 0.4011
H51 H 0.2029 0.2061 0.4125
H52 H 0.1712 0.4810 0.4366
O6 O 0.4066(3) 0.1265(3) 0.4503(1)
H53 H 0.4099 0.1456 0.4775
H54 H 0.3380 0.1337 0.4410
O7 O 0.4165(4) 0.1831(4) 0.5308(1)
H55 H 0.3486 0.1755 0.5408
H56 H 0.4539 0.1300 0.5347
O8 O 0.1141(5) -0.0934(5) 0.5058(2)
O9 O 0.0291(4) 0.4767(3) 0.4575(2)
O10 O 0.441(1) 0.335(2) 0.5524(4)
loop_
_geom_bond_atom_site_label_1
_geom_bond_atom_site_label_2
_geom_bond_site_symmetry_1
_geom_bond_site_symmetry_2
C1 C2 1_555 1_555
C2 C3 1_555 1_555
C3 C4 1_555 1_555
C4 C5 1_555 1_555
C5 C6 1_555 1_555
C6 C7 1_555 1_555
C7 C8 1_555 1_555
C8 C9 1_555 1_555
C9 C10 1_555 1_555
C10 C1 1_555 1_555
C11 C9 1_555 1_555
C12 C11 1_555 1_555
C13 C12 1_555 1_555
C14 C8 1_555 1_555
C15 C14 1_555 1_555
C16 C15 1_555 1_555
C17 C13 1_555 1_555
C18 C8 1_555 1_555
C19 C10 1_555 1_555
C20 C17 1_555 1_555
C21 C20 1_555 1_555
C22 C20 1_555 1_555
C23 C22 1_555 1_555
C24 C23 1_555 1_555
C25 C24 1_555 1_555
C26 C25 1_555 1_555
C27 C25 1_555 1_555
C28 C4 1_555 1_555
C29 C4 1_555 1_555
C30 C14 1_555 1_555
O1 C1 1_555 1_555
O2 C3 1_555 1_555
O3 C12 1_555 1_555
O4 C20 1_555 1_555
O5 C25 1_555 1_555
O6 H53 1_555 1_555
O7 H55 1_555 1_555
H1 C1 1_555 1_555
H2 C2 1_555 1_555
H3 C2 1_555 1_555
H4 C3 1_555 1_555
H5 C5 1_555 1_555
H6 C6 1_555 1_555
H7 C6 1_555 1_555
H8 C7 1_555 1_555
H9 C7 1_555 1_555
H10 C9 1_555 1_555
H11 C11 1_555 1_555
H12 C11 1_555 1_555
H13 C12 1_555 1_555
H14 C13 1_555 1_555
H15 C15 1_555 1_555
H16 C15 1_555 1_555
H17 C16 1_555 1_555
H18 C16 1_555 1_555
H19 C17 1_555 1_555
H20 C18 1_555 1_555
H21 C18 1_555 1_555
H22 C18 1_555 1_555
H23 C19 1_555 1_555
H24 C19 1_555 1_555
H25 C19 1_555 1_555
H26 C21 1_555 1_555
H27 C21 1_555 1_555
H28 C21 1_555 1_555
H29 C22 1_555 1_555
H30 C22 1_555 1_555
H31 C23 1_555 1_555
H32 C23 1_555 1_555
H33 C24 1_555 1_555
H34 C26 1_555 1_555
H35 C26 1_555 1_555
H36 C26 1_555 1_555
H37 C27 1_555 1_555
H38 C27 1_555 1_555
H39 C27 1_555 1_555
H40 C28 1_555 1_555
H41 C28 1_555 1_555
H42 C28 1_555 1_555
H43 C29 1_555 1_555
H44 C29 1_555 1_555
H45 C29 1_555 1_555
H46 C30 1_555 1_555
H47 C30 1_555 1_555
H48 C30 1_555 1_555
H49 O1 1_555 1_555
H50 O2 1_555 1_555
H51 O3 1_555 1_555
H52 O5 1_555 1_555
H54 O6 1_555 1_555
H56 O7 1_555 1_555
C5 C10 1_555 1_555
C13 C14 1_555 1_555
C16 C17 1_555 1_555
C24 O4 1_555 1_555

#END
