
#######################################################################
#
#                 Cambridge Crystallographic Data Centre
#                                CCDC 
#
#######################################################################
#
# If this CIF has been generated from an entry in the Cambridge 
# Structural Database, then it will include bibliographic, chemical, 
# crystal, experimental, refinement or atomic coordinate data resulting 
# from the CCDC's data processing and validation procedures.
#
#######################################################################

data_VUWKAA
_chemical_formula_moiety         '2(C36 H26 N8 O6),2(C1 H1 Cl3)'
_chemical_name_systematic        
"16b,16c-Diphenyl-16b,16c-dihydro-5a,6a,7a,8a,14a,15a,16a,17a-octaazanaphtho[2',3':5,6]azuleno[2,1,8-ija]naphtho[2,3-f]azulene-5,7,9,14,16,18-hexone chloroform solvate"
_symmetry_cell_setting           triclinic
_symmetry_space_group_name_H-M   'P -1'
_symmetry_Int_Tables_number      2
_space_group_name_Hall           '-P 1'
loop_
_symmetry_equiv_pos_site_id
_symmetry_equiv_pos_as_xyz
1 x,y,z
2 -x,-y,-z
_cell_length_a                   14.1307(12)
_cell_length_b                   14.6268(12)
_cell_length_c                   17.9728(15)
_cell_angle_alpha                87.514(2)
_cell_angle_beta                 73.552(2)
_cell_angle_gamma                76.403(2)
_cell_volume                     3461.8
_exptl_crystal_colour            colorless
_chemical_melting_point          'above 300deg.C'
_cell_formula_units_Z            2
_exptl_crystal_recrystallization_method chloroform/methanol
loop_
_atom_site_label
_atom_site_type_symbol
_atom_site_fract_x
_atom_site_fract_y
_atom_site_fract_z
C1 C 0.7188(2) 0.7862(2) 0.51504(19)
C2 C 0.8151(3) 0.7550(3) 0.5258(2)
H1 H 0.8285 0.7033 0.5563
C3 C 0.8901(3) 0.8012(3) 0.4907(2)
H2 H 0.9549 0.7798 0.4966
C4 C 0.8692(3) 0.8800(3) 0.4465(2)
H3 H 0.9198 0.9116 0.4240
C5 C 0.7745(3) 0.9113(3) 0.4358(2)
H4 H 0.7612 0.9637 0.4059
C6 C 0.6985(2) 0.8640(2) 0.47014(19)
C7 C 0.5988(2) 0.8955(2) 0.45579(18)
C8 C 0.6406(3) 0.7336(3) 0.5506(2)
C9 C 0.4260(2) 0.8753(2) 0.47886(18)
H5 H 0.3784 0.8826 0.5303
H6 H 0.4198 0.9368 0.4557
C10 C 0.4700(2) 0.7116(2) 0.56239(17)
H7 H 0.4940 0.6601 0.5933
H8 H 0.4102 0.7525 0.5960
C11 C 0.4346(2) 0.8082(2) 0.35359(18)
C12 C 0.5057(2) 0.5996(2) 0.45336(18)
C13 C 0.3665(2) 0.7303(2) 0.46758(17)
C14 C 0.2610(2) 0.7540(2) 0.52314(18)
C15 C 0.1908(2) 0.8340(2) 0.5140(2)
H9 H 0.2098 0.8757 0.4752
C16 C 0.0927(3) 0.8527(3) 0.5620(2)
H10 H 0.0461 0.9066 0.5550
C17 C 0.0637(3) 0.7924(3) 0.6199(2)
H11 H -0.0026 0.8047 0.6520
C18 C 0.1339(3) 0.7130(3) 0.6300(2)
H12 H 0.1150 0.6721 0.6695
C19 C 0.2316(3) 0.6939(3) 0.5820(2)
H13 H 0.2782 0.6402 0.5893
C20 C 0.3786(2) 0.6694(2) 0.39266(18)
C21 C 0.2848(2) 0.6382(2) 0.3892(2)
C22 C 0.2171(3) 0.6927(3) 0.3532(2)
H14 H 0.2303 0.7476 0.3289
C23 C 0.1297(3) 0.6652(4) 0.3536(3)
H15 H 0.0847 0.7019 0.3291
C24 C 0.1086(4) 0.5854(4) 0.3891(4)
H16 H 0.0496 0.5676 0.3890
C25 C 0.1750(4) 0.5319(3) 0.4249(4)
H17 H 0.1606 0.4775 0.4496
C26 C 0.2636(3) 0.5571(3) 0.4251(3)
H18 H 0.3085 0.5195 0.4493
C27 C 0.4535(2) 0.6933(2) 0.25119(18)
H19 H 0.4446 0.7443 0.2156
H20 H 0.4164 0.6486 0.2429
C28 C 0.5130(3) 0.5277(2) 0.32993(19)
H21 H 0.4630 0.5163 0.3062
H22 H 0.5446 0.4680 0.3480
C29 C 0.6279(3) 0.6807(3) 0.17353(19)
C30 C 0.6872(3) 0.5071(3) 0.2502(2)
C31 C 0.7338(3) 0.6263(3) 0.15149(19)
C32 C 0.8056(3) 0.6586(3) 0.0929(2)
H23 H 0.7875 0.7158 0.0699
C33 C 0.9017(4) 0.6065(4) 0.0699(3)
H24 H 0.9493 0.6273 0.0299
C34 C 0.9306(3) 0.5218(4) 0.1050(3)
H25 H 0.9973 0.4868 0.0887
C35 C 0.8616(3) 0.4900(3) 0.1634(2)
H26 H 0.8810 0.4337 0.1871
C36 C 0.7612(3) 0.5428(3) 0.1872(2)
N1 N 0.52959(18) 0.84260(18) 0.48644(14)
N2 N 0.54899(19) 0.76479(18) 0.53462(15)
N3 N 0.39829(18) 0.81410(17) 0.43334(13)
N4 N 0.44169(19) 0.67412(18) 0.50171(14)
N5 N 0.41048(19) 0.73054(17) 0.32922(14)
N6 N 0.46219(18) 0.59046(17) 0.39537(14)
N7 N 0.5614(2) 0.64667(18) 0.23251(15)
N8 N 0.5907(2) 0.56239(18) 0.27083(15)
O1 O 0.57766(17) 0.96496(17) 0.41750(13)
O2 O 0.65591(19) 0.66673(19) 0.59190(15)
O3 O 0.47799(17) 0.86191(15) 0.31263(12)
O4 O 0.58341(16) 0.55071(15) 0.46203(13)
O5 O 0.59993(19) 0.75244(18) 0.14008(14)
O6 O 0.7099(2) 0.43396(19) 0.28266(15)
C37 C 0.3302(3) 0.6254(2) 1.05635(19)
C38 C 0.2507(3) 0.6192(3) 1.1222(2)
H27 H 0.2323 0.6621 1.1634
C39 C 0.1997(3) 0.5487(3) 1.1252(3)
H28 H 0.1469 0.5440 1.1688
C40 C 0.2261(3) 0.4860(3) 1.0650(3)
H29 H 0.1908 0.4391 1.0676
C41 C 0.3043(3) 0.4913(3) 1.0002(2)
H30 H 0.3219 0.4479 0.9594
C42 C 0.3574(3) 0.5614(2) 0.9954(2)
C43 C 0.4413(3) 0.5662(2) 0.9256(2)
C44 C 0.3863(3) 0.6989(2) 1.05462(19)
C45 C 0.5722(3) 0.6451(2) 0.85562(18)
H31 H 0.6356 0.6245 0.8692
H32 H 0.5735 0.6020 0.8156
C46 C 0.5357(2) 0.7594(2) 0.99093(18)
H33 H 0.5153 0.7884 1.0423
H34 H 0.6026 0.7185 0.9836
C47 C 0.5166(2) 0.7699(2) 0.76998(18)
C48 C 0.4695(2) 0.9145(2) 0.94093(18)
C49 C 0.6035(2) 0.8073(2) 0.85531(16)
C50 C 0.7159(2) 0.7782(2) 0.84901(18)
C51 C 0.7821(3) 0.7172(2) 0.7900(2)
H35 H 0.7577 0.6927 0.7542
C52 C 0.8858(3) 0.6926(3) 0.7844(3)
H36 H 0.9302 0.6508 0.7455
C53 C 0.9217(3) 0.7301(3) 0.8365(3)
H37 H 0.9908 0.7140 0.8323
C54 C 0.8573(3) 0.7910(3) 0.8945(3)
H38 H 0.8823 0.8160 0.9297
C55 C 0.7548(3) 0.8150(3) 0.9005(2)
H39 H 0.7111 0.8566 0.9398
C56 C 0.5684(2) 0.8977(2) 0.80974(16)
C57 C 0.6494(2) 0.9498(2) 0.76964(17)
C58 C 0.7085(3) 0.9249(2) 0.69455(18)
H40 H 0.6972 0.8771 0.6680
C59 C 0.7838(3) 0.9703(3) 0.6590(2)
H41 H 0.8232 0.9531 0.6085
C60 C 0.8012(3) 1.0405(3) 0.6975(2)
H42 H 0.8519 1.0712 0.6730
C61 C 0.7438(3) 1.0659(2) 0.7724(2)
H43 H 0.7559 1.1134 0.7987
C62 C 0.6687(2) 1.0209(2) 0.80816(19)
H44 H 0.6301 1.0380 0.8589
C63 C 0.4648(2) 0.9254(2) 0.71520(17)
H45 H 0.4674 0.8952 0.6674
H46 H 0.4928 0.9803 0.7014
C64 C 0.4195(2) 1.0360(2) 0.85055(18)
H47 H 0.4578 1.0673 0.8080
H48 H 0.3921 1.0796 0.8947
C65 C 0.2857(3) 0.9342(2) 0.7333(2)
C66 C 0.2377(3) 1.0489(3) 0.8726(2)
C67 C 0.1801(3) 0.9682(3) 0.7806(2)
C68 C 0.1030(3) 0.9427(3) 0.7573(3)
H49 H 0.1183 0.9075 0.7118
C69 C 0.0049(4) 0.9704(4) 0.8026(3)
H50 H -0.0467 0.9531 0.7880
C70 C -0.0185(3) 1.0247(4) 0.8709(3)
H51 H -0.0853 1.0432 0.9013
C71 C 0.0570(3) 1.0501(3) 0.8925(3)
H52 H 0.0412 1.0865 0.9374
C72 C 0.1574(3) 1.0222(3) 0.8479(2)
N9 N 0.4887(2) 0.63752(18) 0.92435(14)
N10 N 0.4646(2) 0.70113(18) 0.98844(14)
N11 N 0.5681(2) 0.73636(17) 0.82395(14)
N12 N 0.54299(19) 0.83192(17) 0.93498(13)
N13 N 0.52726(18) 0.86127(18) 0.75470(13)
N14 N 0.48719(18) 0.95522(17) 0.87013(13)
N15 N 0.3587(2) 0.95618(18) 0.76066(14)
N16 N 0.3350(2) 1.01392(18) 0.82824(15)
O7 O 0.4674(2) 0.50947(18) 0.87144(15)
O8 O 0.36715(18) 0.75382(17) 1.10893(13)
O9 O 0.47367(18) 0.72665(16) 0.73992(13)
O10 O 0.40281(17) 0.94517(15) 0.99865(12)
O11 O 0.30693(18) 0.88797(18) 0.67302(14)
O12 O 0.21958(18) 1.09968(19) 0.92975(16)
C73 C 0.8354(4) 0.7160(4) 0.3035(5)
H53 H 0.851(6) 0.757(6) 0.337(5)
Cl1 Cl 0.7160(6) 0.7611(10) 0.3027(7)
Cl2 Cl 0.9356(5) 0.7568(9) 0.2438(5)
Cl3 Cl 0.8130(10) 0.6171(4) 0.3470(5)
C74 C 0.8311(3) 0.2094(3) 0.0802(3)
H54 H 0.8790 0.1580 0.0963
Cl4 Cl 0.76132(12) 0.27743(10) 0.16057(9)
Cl5 Cl 0.90127(10) 0.27206(10) 0.01089(8)
Cl6 Cl 0.75463(10) 0.15913(9) 0.04104(9)
Cl7? Cl 0.8490(7) 0.6156(6) 0.3507(5)
Cl8? Cl 0.7340(4) 0.7889(3) 0.2833(3)
Cl9? Cl 0.9399(4) 0.6943(8) 0.2341(4)
loop_
_geom_bond_atom_site_label_1
_geom_bond_atom_site_label_2
_geom_bond_site_symmetry_1
_geom_bond_site_symmetry_2
C1 C2 1_555 1_555
C2 H1 1_555 1_555
C3 C2 1_555 1_555
H2 C3 1_555 1_555
C4 C3 1_555 1_555
H3 C4 1_555 1_555
C5 C4 1_555 1_555
H4 C5 1_555 1_555
C6 C1 1_555 1_555
C7 C6 1_555 1_555
C8 C1 1_555 1_555
C9 H5 1_555 1_555
H6 C9 1_555 1_555
C10 H7 1_555 1_555
H8 C10 1_555 1_555
C11 N3 1_555 1_555
C12 N4 1_555 1_555
C13 C14 1_555 1_555
C14 C15 1_555 1_555
C15 H9 1_555 1_555
C16 C15 1_555 1_555
H10 C16 1_555 1_555
C17 C16 1_555 1_555
H11 C17 1_555 1_555
C18 C17 1_555 1_555
H12 C18 1_555 1_555
C19 C14 1_555 1_555
H13 C19 1_555 1_555
C20 C13 1_555 1_555
C21 C20 1_555 1_555
C22 C21 1_555 1_555
H14 C22 1_555 1_555
C23 C22 1_555 1_555
H15 C23 1_555 1_555
C24 C23 1_555 1_555
H16 C24 1_555 1_555
C25 C24 1_555 1_555
H17 C25 1_555 1_555
C26 C21 1_555 1_555
H18 C26 1_555 1_555
C27 H19 1_555 1_555
H20 C27 1_555 1_555
C28 H21 1_555 1_555
H22 C28 1_555 1_555
C29 C31 1_555 1_555
C30 C36 1_555 1_555
C31 C32 1_555 1_555
C32 H23 1_555 1_555
C33 C32 1_555 1_555
H24 C33 1_555 1_555
C34 C33 1_555 1_555
H25 C34 1_555 1_555
C35 C34 1_555 1_555
H26 C35 1_555 1_555
C36 C31 1_555 1_555
C37 C38 1_555 1_555
C38 H27 1_555 1_555
C39 C38 1_555 1_555
H28 C39 1_555 1_555
C40 C39 1_555 1_555
H29 C40 1_555 1_555
C41 C40 1_555 1_555
H30 C41 1_555 1_555
C42 C37 1_555 1_555
C43 C42 1_555 1_555
C44 C37 1_555 1_555
C45 H31 1_555 1_555
H32 C45 1_555 1_555
C46 H33 1_555 1_555
H34 C46 1_555 1_555
C47 N11 1_555 1_555
C48 N12 1_555 1_555
C49 C50 1_555 1_555
C50 C51 1_555 1_555
C51 H35 1_555 1_555
C52 C51 1_555 1_555
H36 C52 1_555 1_555
C53 C52 1_555 1_555
H37 C53 1_555 1_555
C54 C53 1_555 1_555
H38 C54 1_555 1_555
C55 C50 1_555 1_555
H39 C55 1_555 1_555
C56 C49 1_555 1_555
C57 C56 1_555 1_555
C58 C57 1_555 1_555
H40 C58 1_555 1_555
C59 C58 1_555 1_555
H41 C59 1_555 1_555
C60 C59 1_555 1_555
H42 C60 1_555 1_555
C61 C60 1_555 1_555
H43 C61 1_555 1_555
C62 C57 1_555 1_555
H44 C62 1_555 1_555
C63 H45 1_555 1_555
H46 C63 1_555 1_555
C64 H47 1_555 1_555
H48 C64 1_555 1_555
C65 C67 1_555 1_555
C66 C72 1_555 1_555
C67 C68 1_555 1_555
C68 H49 1_555 1_555
C69 C68 1_555 1_555
H50 C69 1_555 1_555
C70 C69 1_555 1_555
H51 C70 1_555 1_555
C71 C70 1_555 1_555
H52 C71 1_555 1_555
C72 C67 1_555 1_555
C73 H53 1_555 1_555
C74 H54 1_555 1_555
Cl1 C73 1_555 1_555
Cl2 C73 1_555 1_555
Cl3 C73 1_555 1_555
Cl4 C74 1_555 1_555
Cl5 C74 1_555 1_555
Cl6 C74 1_555 1_555
N1 C7 1_555 1_555
N2 C8 1_555 1_555
N3 C9 1_555 1_555
N4 C10 1_555 1_555
N5 C11 1_555 1_555
N6 C12 1_555 1_555
N7 C27 1_555 1_555
N8 C28 1_555 1_555
N9 C43 1_555 1_555
N10 C44 1_555 1_555
N11 C45 1_555 1_555
N12 C46 1_555 1_555
N13 C47 1_555 1_555
N14 C48 1_555 1_555
N15 C63 1_555 1_555
N16 C64 1_555 1_555
O1 C7 1_555 1_555
O2 C8 1_555 1_555
O3 C11 1_555 1_555
O4 C12 1_555 1_555
O5 C29 1_555 1_555
O6 C30 1_555 1_555
O7 C43 1_555 1_555
O8 C44 1_555 1_555
O9 C47 1_555 1_555
O10 C48 1_555 1_555
O11 C65 1_555 1_555
O12 C66 1_555 1_555
C5 C6 1_555 1_555
C9 N1 1_555 1_555
C10 N2 1_555 1_555
C13 N3 1_555 1_555
C13 N4 1_555 1_555
C18 C19 1_555 1_555
C20 N5 1_555 1_555
C20 N6 1_555 1_555
C25 C26 1_555 1_555
C27 N5 1_555 1_555
C28 N6 1_555 1_555
C29 N7 1_555 1_555
C30 N8 1_555 1_555
C35 C36 1_555 1_555
C41 C42 1_555 1_555
C45 N9 1_555 1_555
C46 N10 1_555 1_555
C49 N11 1_555 1_555
C49 N12 1_555 1_555
C54 C55 1_555 1_555
C56 N13 1_555 1_555
C56 N14 1_555 1_555
C61 C62 1_555 1_555
C63 N13 1_555 1_555
C64 N14 1_555 1_555
C65 N15 1_555 1_555
C66 N16 1_555 1_555
C71 C72 1_555 1_555
N1 N2 1_555 1_555
N7 N8 1_555 1_555
N9 N10 1_555 1_555
N15 N16 1_555 1_555

#END
