
#######################################################################
#
#                 Cambridge Crystallographic Data Centre
#                                CCDC 
#
#######################################################################
#
# If this CIF has been generated from an entry in the Cambridge 
# Structural Database, then it will include bibliographic, chemical, 
# crystal, experimental, refinement or atomic coordinate data resulting 
# from the CCDC's data processing and validation procedures.
#
#######################################################################

data_VUWLAB01
_chemical_formula_moiety         
'4(C6 H2 N3 O7 1-),C2 H10 N2 2+,2(C2 H9 N2 1+),2(H2 O1)'
_chemical_name_systematic        
'bis(2-aminoethanaminium) ethane-1,2-diaminium tetrakis(2,4,6-trinitrophenolate) dihydrate'
_symmetry_cell_setting           orthorhombic
_symmetry_space_group_name_H-M   'P b c a'
_symmetry_Int_Tables_number      61
_space_group_name_Hall           '-P 2ac 2ab'
loop_
_symmetry_equiv_pos_site_id
_symmetry_equiv_pos_as_xyz
1 x,y,z
2 1/2-x,-y,1/2+z
3 -x,1/2+y,1/2-z
4 1/2+x,1/2-y,-z
5 -x,-y,-z
6 1/2+x,y,1/2-z
7 x,1/2-y,1/2+z
8 1/2-x,1/2+y,z
_cell_length_a                   9.2277(8)
_cell_length_b                   22.1115(17)
_cell_length_c                   22.4546(19)
_cell_angle_alpha                90
_cell_angle_beta                 90
_cell_angle_gamma                90
_cell_volume                     4581.6
_exptl_crystal_colour            colorless
_exptl_crystal_description       block
_cell_formula_units_Z            4
loop_
_atom_site_label
_atom_site_type_symbol
_atom_site_fract_x
_atom_site_fract_y
_atom_site_fract_z
N1 N 0.6700(2) 0.51160(10) 0.45556(11)
H1 H 0.7361 0.4998 0.4820
H2 H 0.7028 0.5437 0.4358
H3 H 0.6529 0.4816 0.4301
C1 C 0.5349(3) 0.52754(12) 0.48664(14)
H4 H 0.4684 0.5463 0.4588
H5 H 0.5559 0.5566 0.5179
N1D N 0.3300(2) 0.48840(10) 0.54444(11)
H1D H 0.2639 0.5002 0.5180
H2D H 0.2972 0.4563 0.5642
H3D H 0.3471 0.5184 0.5699
C1D C 0.4651(3) 0.47246(12) 0.51336(14)
H4D H 0.5316 0.4537 0.5412
H5D H 0.4441 0.4434 0.4821
N2 N 0.1346(3) 0.49991(12) 0.44383(13)
H6 H 0.0526 0.5184 0.4541
H7 H 0.1151 0.4624 0.4320
N3 N 0.1894(3) 0.57136(11) 0.29197(12)
H8 H 0.1886 0.6101 0.3026
H9 H 0.1427 0.5670 0.2575
H10 H 0.2806 0.5589 0.2878
C2 C 0.1166(4) 0.53482(15) 0.33845(15)
H11 H 0.1024 0.4940 0.3237
H12 H 0.0219 0.5520 0.3466
C3 C 0.2022(3) 0.53243(15) 0.39509(15)
H13 H 0.2950 0.5137 0.3867
H14 H 0.2210 0.5735 0.4080
N4 N 0.9067(3) 0.65597(11) 0.44415(13)
N5 N 0.7167(3) 0.85920(12) 0.45815(13)
N6 N 0.4117(3) 0.70604(13) 0.37047(15)
O1 O 0.6387(2) 0.61934(8) 0.39209(10)
O2 O 0.8858(3) 0.60273(10) 0.45358(14)
O3 O 1.0287(2) 0.67760(11) 0.44139(13)
O4 O 0.8245(3) 0.87204(10) 0.48720(13)
O5 O 0.6283(3) 0.89669(10) 0.44103(13)
O6 O 0.3538(5) 0.74930(17) 0.3400(2)
O7 O 0.3742(3) 0.65731(11) 0.36098(16)
C4 C 0.6539(3) 0.67315(12) 0.40828(13)
C5 C 0.7846(3) 0.69633(12) 0.43560(14)
C6 C 0.8044(3) 0.75525(13) 0.45190(14)
H15 H 0.8906 0.7674 0.4697
C7 C 0.6954(3) 0.79653(12) 0.44178(14)
C8 C 0.5674(3) 0.77965(13) 0.41498(14)
H16 H 0.4952 0.8080 0.4077
C9 C 0.5481(3) 0.72021(13) 0.39923(14)
N7 N 0.8079(3) 0.41709(13) 0.29708(15)
N8 N 0.6632(3) 0.20695(12) 0.28728(12)
N9 N 0.3383(3) 0.35214(13) 0.38193(16)
O9 O 0.5407(2) 0.44020(9) 0.36394(10)
O10 O 0.7737(7) 0.4704(3) 0.2921(8)
O11 O 0.9305(3) 0.40020(12) 0.28610(15)
O12 O 0.7833(3) 0.19649(10) 0.26612(12)
O13 O 0.5729(3) 0.16734(10) 0.29678(13)
O14 O 0.3252(4) 0.3350(2) 0.43178(17)
O15 O 0.2484(3) 0.38167(16) 0.35760(18)
C10 C 0.5697(3) 0.38899(13) 0.34225(14)
C11 C 0.6979(3) 0.37184(13) 0.31077(14)
C12 C 0.7275(3) 0.31355(13) 0.29302(13)
H17 H 0.8142 0.3047 0.2738
C13 C 0.6282(3) 0.26845(12) 0.30376(14)
C14 C 0.4989(3) 0.28066(13) 0.33256(14)
H18 H 0.4316 0.2502 0.3396
C15 C 0.4728(3) 0.33855(12) 0.35034(14)
O17 O 0.5029(2) 0.55012(9) 0.30373(10)
H19 H 0.5420 0.5748 0.3279
H20 H 0.5092 0.5148 0.3185
O8? O 0.3005(10) 0.7334(4) 0.3947(5)
O16? O 0.785(3) 0.4665(10) 0.3225(18)
loop_
_geom_bond_atom_site_label_1
_geom_bond_atom_site_label_2
_geom_bond_site_symmetry_1
_geom_bond_site_symmetry_2
N1 H1 1_555 1_555
H2 N1 1_555 1_555
H3 N1 1_555 1_555
C1 N1 1_555 1_555
H4 C1 1_555 1_555
H5 C1 1_555 1_555
N2 H6 1_555 1_555
H7 N2 1_555 1_555
N3 H8 1_555 1_555
H9 N3 1_555 1_555
H10 N3 1_555 1_555
C2 N3 1_555 1_555
H11 C2 1_555 1_555
H12 C2 1_555 1_555
C3 N2 1_555 1_555
H13 C3 1_555 1_555
H14 C3 1_555 1_555
N4 O2 1_555 1_555
N5 O4 1_555 1_555
N6 O6 1_555 1_555
O1 C4 1_555 1_555
O3 N4 1_555 1_555
O5 N5 1_555 1_555
O7 N6 1_555 1_555
C4 C5 1_555 1_555
C5 N4 1_555 1_555
C6 C5 1_555 1_555
H15 C6 1_555 1_555
C7 N5 1_555 1_555
C8 C7 1_555 1_555
H16 C8 1_555 1_555
C9 N6 1_555 1_555
N7 O10 1_555 1_555
N8 O12 1_555 1_555
N9 O14 1_555 1_555
O9 C10 1_555 1_555
O11 N7 1_555 1_555
O13 N8 1_555 1_555
O15 N9 1_555 1_555
C10 C11 1_555 1_555
C11 N7 1_555 1_555
C12 C11 1_555 1_555
H17 C12 1_555 1_555
C13 N8 1_555 1_555
C14 C13 1_555 1_555
H18 C14 1_555 1_555
C15 N9 1_555 1_555
O17 H19 1_555 1_555
H20 O17 1_555 1_555
N1D H1D 1_555 1_555
H2D N1D 1_555 1_555
H3D N1D 1_555 1_555
C1D C1 1_555 1_555
H4D C1D 1_555 1_555
H5D C1D 1_555 1_555
C2 C3 1_555 1_555
C4 C9 1_555 1_555
C6 C7 1_555 1_555
C8 C9 1_555 1_555
C10 C15 1_555 1_555
C12 C13 1_555 1_555
C14 C15 1_555 1_555
N1D C1D 1_555 1_555

#END
