
#######################################################################
#
#                 Cambridge Crystallographic Data Centre
#                                CCDC 
#
#######################################################################
#
# If this CIF has been generated from an entry in the Cambridge 
# Structural Database, then it will include bibliographic, chemical, 
# crystal, experimental, refinement or atomic coordinate data resulting 
# from the CCDC's data processing and validation procedures.
#
#######################################################################

data_VUWNUX
_chemical_compound_source        'Raphanus sativus L'
_chemical_formula_moiety         'C6 H11 N1 O1 S3'
_chemical_name_systematic        
(S)-6-((Methylsulfinyl)methyl)-1,3-thiazinane-2-thione
_symmetry_cell_setting           orthorhombic
_symmetry_space_group_name_H-M   'P 21 21 21'
_symmetry_Int_Tables_number      19
_space_group_name_Hall           'P 2ac 2ab'
loop_
_symmetry_equiv_pos_site_id
_symmetry_equiv_pos_as_xyz
1 x,y,z
2 1/2-x,-y,1/2+z
3 -x,1/2+y,1/2-z
4 1/2+x,1/2-y,-z
_cell_length_a                   8.3400(15)
_cell_length_b                   8.7935(16)
_cell_length_c                   13.041(2)
_cell_angle_alpha                90
_cell_angle_beta                 90
_cell_angle_gamma                90
_cell_volume                     956.398
_exptl_crystal_colour            colorless
_exptl_crystal_description       block
_chemical_melting_point          196-198deg.C
_cell_formula_units_Z            4
_exptl_crystal_recrystallization_method methanol
loop_
_atom_site_label
_atom_site_type_symbol
_atom_site_fract_x
_atom_site_fract_y
_atom_site_fract_z
C1 C 0.6633(3) 0.3530(3) 0.5196(2)
C2 C 0.5938(4) 0.2979(3) 0.3393(2)
H1 H 0.6122 0.3536 0.2762
H2 H 0.4821 0.2673 0.3407
C3 C 0.6988(4) 0.1579(3) 0.3408(2)
H3 H 0.6844 0.1021 0.2773
H4 H 0.8104 0.1887 0.3450
C4 C 0.6597(3) 0.0554(3) 0.4303(2)
H5 H 0.5505 0.0162 0.4220
C5 C 0.7745(4) -0.0777(3) 0.4431(2)
H6 H 0.7544 -0.1272 0.5083
H7 H 0.8839 -0.0404 0.4435
C6 C 0.9178(4) -0.3298(4) 0.3758(3)
H8 H 0.9050 -0.3641 0.4452
H9 H 1.0148 -0.2716 0.3702
H10 H 0.9233 -0.4160 0.3308
N1 N 0.6269(3) 0.3973(3) 0.42710(19)
H11 H 0.6217 0.4937 0.4166
O1 O 0.6014(2) -0.3013(2) 0.36652(18)
S1 S 0.67226(11) 0.16084(8) 0.55174(6)
S2 S 0.70036(10) 0.47302(9) 0.61736(6)
S3 S 0.75056(9) -0.21347(8) 0.34093(6)
loop_
_geom_bond_atom_site_label_1
_geom_bond_atom_site_label_2
_geom_bond_site_symmetry_1
_geom_bond_site_symmetry_2
C1 N1 1_555 1_555
C2 H1 1_555 1_555
H2 C2 1_555 1_555
C3 C2 1_555 1_555
H3 C3 1_555 1_555
H4 C3 1_555 1_555
C4 C3 1_555 1_555
H5 C4 1_555 1_555
C5 C4 1_555 1_555
H6 C5 1_555 1_555
H7 C5 1_555 1_555
C6 H8 1_555 1_555
H9 C6 1_555 1_555
H10 C6 1_555 1_555
N1 C2 1_555 1_555
H11 N1 1_555 1_555
O1 S3 1_555 1_555
S1 C1 1_555 1_555
S2 C1 1_555 1_555
S3 C5 1_555 1_555
C4 S1 1_555 1_555
C6 S3 1_555 1_555

#END
