
#######################################################################
#
#                 Cambridge Crystallographic Data Centre
#                                CCDC 
#
#######################################################################
#
# If this CIF has been generated from an entry in the Cambridge 
# Structural Database, then it will include bibliographic, chemical, 
# crystal, experimental, refinement or atomic coordinate data resulting 
# from the CCDC's data processing and validation procedures.
#
#######################################################################

data_VUWPAF
_chemical_compound_source        'Raphanus sativus L'
_chemical_formula_moiety         'C8 H15 N1 O2 S2'
_chemical_name_systematic        
'O-Ethyl (4-(methylsulfinyl)but-3-en-1-yl)carbamothioate'
_symmetry_cell_setting           orthorhombic
_symmetry_space_group_name_H-M   'P 21 21 21'
_symmetry_Int_Tables_number      19
_space_group_name_Hall           'P 2ac 2ab'
loop_
_symmetry_equiv_pos_site_id
_symmetry_equiv_pos_as_xyz
1 x,y,z
2 1/2-x,-y,1/2+z
3 -x,1/2+y,1/2-z
4 1/2+x,1/2-y,-z
_cell_length_a                   7.8022(13)
_cell_length_b                   8.6674(14)
_cell_length_c                   16.728(3)
_cell_angle_alpha                90
_cell_angle_beta                 90
_cell_angle_gamma                90
_cell_volume                     1131.23
_exptl_crystal_colour            colorless
_exptl_crystal_description       prism
_chemical_melting_point          80-82deg.C
_cell_formula_units_Z            4
_exptl_crystal_recrystallization_method 'ethyl acetate'
loop_
_atom_site_label
_atom_site_type_symbol
_atom_site_fract_x
_atom_site_fract_y
_atom_site_fract_z
C1 C 1.1320(3) -0.1323(3) 0.13953(16)
H1 H 1.2240 -0.0702 0.1600
H2 H 1.1539 -0.1569 0.0845
H3 H 1.1239 -0.2258 0.1700
C2 C 0.9949(3) 0.1331(3) 0.08800(14)
H4 H 1.0148 0.1192 0.0337
C3 C 1.0118(3) 0.2687(3) 0.11847(15)
H5 H 0.9983 0.2771 0.1735
C4 C 1.0512(3) 0.4151(3) 0.07357(14)
H6 H 1.0929 0.3893 0.0206
H7 H 1.1412 0.4709 0.1012
C5 C 0.8942(3) 0.5180(3) 0.06610(13)
H8 H 0.9241 0.6103 0.0365
H9 H 0.8057 0.4639 0.0365
C6 C 0.6767(3) 0.6223(3) 0.15696(14)
C7 C 0.4981(4) 0.7187(4) 0.26340(17)
H10 H 0.3989 0.6680 0.2403
H11 H 0.4962 0.8264 0.2477
C8 C 0.4944(4) 0.7054(4) 0.35058(17)
H12 H 0.4888 0.5985 0.3654
H13 H 0.3956 0.7584 0.3710
H14 H 0.5963 0.7507 0.3726
N1 N 0.8285(3) 0.5610(2) 0.14420(11)
H15 H 0.8934 0.5453 0.1850
O1 O 0.9202(2) 0.0255(2) 0.23178(9)
O2 O 0.6538(2) 0.6460(2) 0.23556(10)
S1 S 0.93468(8) -0.02765(7) 0.14708(4)
S2 S 0.53233(9) 0.66111(10) 0.08721(4)
loop_
_geom_bond_atom_site_label_1
_geom_bond_atom_site_label_2
_geom_bond_site_symmetry_1
_geom_bond_site_symmetry_2
C1 H1 1_555 1_555
H2 C1 1_555 1_555
H3 C1 1_555 1_555
C2 H4 1_555 1_555
C3 C2 1_555 1_555
H5 C3 1_555 1_555
C4 C3 1_555 1_555
H6 C4 1_555 1_555
H7 C4 1_555 1_555
C5 C4 1_555 1_555
H8 C5 1_555 1_555
H9 C5 1_555 1_555
C6 N1 1_555 1_555
C7 H10 1_555 1_555
H11 C7 1_555 1_555
C8 C7 1_555 1_555
H12 C8 1_555 1_555
H13 C8 1_555 1_555
H14 C8 1_555 1_555
N1 C5 1_555 1_555
H15 N1 1_555 1_555
O1 S1 1_555 1_555
O2 C6 1_555 1_555
S1 C1 1_555 1_555
S2 C6 1_555 1_555
C2 S1 1_555 1_555
C7 O2 1_555 1_555

#END
