
#######################################################################
#
#                 Cambridge Crystallographic Data Centre
#                                CCDC 
#
#######################################################################
#
# If this CIF has been generated from an entry in the Cambridge 
# Structural Database, then it will include bibliographic, chemical, 
# crystal, experimental, refinement or atomic coordinate data resulting 
# from the CCDC's data processing and validation procedures.
#
#######################################################################

data_VUWTAI
_chemical_compound_source        'Needles of Taxus canadensi (Canadian yew)'
_chemical_formula_moiety         'C33 H42 O12,2(H2 O1)'
_chemical_name_systematic        '9-Dihydro-13-acetylbaccatin III dihydrate'
_chemical_properties_biological  
'some activity as an inhibitor of leukaemia cell proliferation'
_symmetry_cell_setting           monoclinic
_symmetry_space_group_name_H-M   'P 21'
_symmetry_Int_Tables_number      4
_space_group_name_Hall           'P 2yb'
loop_
_symmetry_equiv_pos_site_id
_symmetry_equiv_pos_as_xyz
1 x,y,z
2 -x,1/2+y,-z
_cell_length_a                   8.513(3)
_cell_length_b                   16.164(2)
_cell_length_c                   12.772(2)
_cell_angle_alpha                90
_cell_angle_beta                 100.16(2)
_cell_angle_gamma                90
_cell_volume                     1729.92
_exptl_crystal_colour            white
_chemical_melting_point          221deg.C
_cell_formula_units_Z            2
loop_
_atom_site_label
_atom_site_type_symbol
_atom_site_fract_x
_atom_site_fract_y
_atom_site_fract_z
O1 O 0.262(2) -0.1107 0.187(1)
O2 O -0.279(1) -0.027(1) 0.0941(8)
O3 O -0.129(1) 0.055(1) -0.038(1)
O4 O 0.016(2) 0.155(1) 0.429(1)
O5 O -0.364(2) 0.123(1) -0.062(1)
O6 O 0.189(1) 0.045(1) -0.0481(9)
O7 O 0.408(1) 0.042(1) 0.073(1)
O8 O 0.248(2) 0.199(2) 0.525(1)
O9 O 0.177(2) 0.234(1) -0.110(1)
O10 O 0.321(2) 0.294(1) 0.246(1)
O11 O 0.049(2) 0.286(1) 0.306(1)
O12 O 0.300(2) -0.205(1) 0.313(2)
C1 C -0.179(3) 0.000(2) -0.243(2)
C2 C -0.210(3) -0.027(2) -0.347(2)
C3 C -0.357(5) -0.011(2) -0.410(2)
C4 C -0.470(3) 0.030(3) -0.367(3)
C5 C -0.437(3) 0.056(2) -0.266(2)
C6 C -0.293(3) 0.044(2) -0.202(2)
C7 C -0.269(3) 0.078(2) -0.094(2)
C8 C -0.091(2) 0.082(1) 0.073(2)
C9 C -0.122(2) 0.005(1) 0.140(1)
C10 C -0.005(2) -0.066(1) 0.129(1)
C11 C 0.128(2) -0.079(1) 0.228(2)
C12 C 0.170(2) -0.001(2) 0.291(1)
C13 C 0.053(2) 0.051(2) 0.301(1)
C14 C -0.122(2) 0.028(1) 0.257(2)
C15 C -0.258(2) 0.089(1) 0.268(1)
C16 C -0.160(2) -0.050(2) 0.325(1)
C17 C 0.345(2) 0.011(2) 0.336(2)
C18 C 0.095(2) 0.140(2) 0.338(2)
C19 C 0.030(2) 0.208(2) 0.257(1)
C20 C 0.339(3) -0.172(2) 0.234(3)
C21 C 0.077(2) 0.125(1) 0.088(1)
C22 C 0.148(2) 0.128(1) -0.016(2)
C23 C 0.276(2) 0.190(1) -0.026(2)
C24 C 0.344(2) 0.244(2) 0.069(2)
C25 C 0.281(2) 0.224(2) 0.176(2)
C26 C 0.093(2) 0.209(2) 0.148(1)
C27 C 0.002(2) 0.277(1) 0.083(2)
C28 C 0.481(2) -0.202(2) 0.196(2)
C29 C 0.055(2) 0.173(2) -0.111(2)
C30 C 0.106(3) 0.186(2) 0.514(2)
C31 C 0.008(3) 0.205(2) 0.599(2)
C32 C 0.326(2) 0.012(2) -0.001(2)
C33 C 0.362(2) -0.066(2) -0.055(2)
H1 H -0.0792 -0.0112 -0.1994
H2 H -0.1310 -0.0571 -0.3759
H3 H -0.3791 -0.0289 -0.4820
H4 H -0.5716 0.0403 -0.4091
H5 H -0.5173 0.0840 -0.2373
H6 H -0.1666 0.1234 0.0825
H7 H -0.0642 -0.1155 0.1159
H8 H 0.0455 -0.0538 0.0699
H9 H 0.0929 -0.1200 0.2722
H10 H -0.2552 0.1013 0.3405
H11 H -0.2447 0.1379 0.2297
H12 H -0.3578 0.0641 0.2390
H13 H -0.1597 -0.0335 0.3966
H14 H -0.2621 -0.0718 0.2957
H15 H -0.0813 -0.0915 0.3238
H16 H 0.4049 -0.0347 0.3181
H17 H 0.3823 0.0603 0.3071
H18 H 0.3590 0.0162 0.4112
H19 H 0.2075 0.1451 0.3583
H20 H 0.1456 0.0882 0.1334
H21 H 0.3610 0.1634 -0.0526
H22 H 0.4568 0.2375 0.0830
H23 H 0.3183 0.2999 0.0510
H24 H 0.3319 0.1757 0.2072
H25 H 0.0214 0.3277 0.1205
H26 H 0.0367 0.2810 0.0166
H27 H -0.1088 0.2647 0.0718
H28 H 0.5229 -0.2483 0.2370
H29 H 0.4530 -0.2172 0.1234
H30 H 0.5590 -0.1591 0.2030
H31 H -0.0439 0.1946 -0.0994
H32 H 0.0373 0.1400 -0.1744
H33 H 0.0762 0.2234 0.6617
H34 H -0.0672 0.2474 0.5743
H35 H -0.0469 0.1567 0.6141
H36 H 0.2783 -0.1044 -0.0547
H37 H 0.3718 -0.0536 -0.1265
H38 H 0.4595 -0.0886 -0.0188
H39 H -0.0816 0.1991 0.2398
O13 O 0.552(3) 0.235(2) 0.470(2)
O14 O 0.666(4) 0.310(2) 0.320(2)
loop_
_geom_bond_atom_site_label_1
_geom_bond_atom_site_label_2
_geom_bond_site_symmetry_1
_geom_bond_site_symmetry_2
O1 C11 1_555 1_555
O2 C9 1_555 1_555
O3 C7 1_555 1_555
O4 C18 1_555 1_555
O5 C7 1_555 1_555
O6 C22 1_555 1_555
O7 C32 1_555 1_555
O8 C30 1_555 1_555
O9 C23 1_555 1_555
O10 C25 1_555 1_555
O11 C19 1_555 1_555
O12 C20 1_555 1_555
C1 C2 1_555 1_555
C2 C3 1_555 1_555
C3 C4 1_555 1_555
C4 C5 1_555 1_555
C5 C6 1_555 1_555
C6 C1 1_555 1_555
C7 C6 1_555 1_555
C8 O3 1_555 1_555
C9 C8 1_555 1_555
C10 C9 1_555 1_555
C11 C10 1_555 1_555
C12 C11 1_555 1_555
C13 C12 1_555 1_555
C14 C9 1_555 1_555
C15 C14 1_555 1_555
C16 C14 1_555 1_555
C17 C12 1_555 1_555
C18 C13 1_555 1_555
C19 C18 1_555 1_555
C20 O1 1_555 1_555
C21 C8 1_555 1_555
C22 C21 1_555 1_555
C23 C22 1_555 1_555
C24 C23 1_555 1_555
C25 C24 1_555 1_555
C26 C19 1_555 1_555
C27 C26 1_555 1_555
C28 C20 1_555 1_555
C29 O9 1_555 1_555
C30 O4 1_555 1_555
C31 C30 1_555 1_555
C32 O6 1_555 1_555
C33 C32 1_555 1_555
H1 C1 1_555 1_555
H2 C2 1_555 1_555
H3 C3 1_555 1_555
H4 C4 1_555 1_555
H5 C5 1_555 1_555
H6 C8 1_555 1_555
H7 C10 1_555 1_555
H8 C10 1_555 1_555
H9 C11 1_555 1_555
H10 C15 1_555 1_555
H11 C15 1_555 1_555
H12 C15 1_555 1_555
H13 C16 1_555 1_555
H14 C16 1_555 1_555
H15 C16 1_555 1_555
H16 C17 1_555 1_555
H17 C17 1_555 1_555
H18 C17 1_555 1_555
H19 C18 1_555 1_555
H20 C21 1_555 1_555
H21 C23 1_555 1_555
H22 C24 1_555 1_555
H23 C24 1_555 1_555
H24 C25 1_555 1_555
H25 C27 1_555 1_555
H26 C27 1_555 1_555
H27 C27 1_555 1_555
H28 C28 1_555 1_555
H29 C28 1_555 1_555
H30 C28 1_555 1_555
H31 C29 1_555 1_555
H32 C29 1_555 1_555
H33 C31 1_555 1_555
H34 C31 1_555 1_555
H35 C31 1_555 1_555
H36 C33 1_555 1_555
H37 C33 1_555 1_555
H38 C33 1_555 1_555
H39 C19 1_555 1_555
C13 C14 1_555 1_555
C21 C26 1_555 1_555
C22 C29 1_555 1_555
C25 C26 1_555 1_555

#END
