
#######################################################################
#
#                 Cambridge Crystallographic Data Centre
#                                CCDC 
#
#######################################################################
#
# If this CIF has been generated from an entry in the Cambridge 
# Structural Database, then it will include bibliographic, chemical, 
# crystal, experimental, refinement or atomic coordinate data resulting 
# from the CCDC's data processing and validation procedures.
#
#######################################################################

data_VUWXIV
_chemical_formula_moiety         'C14 H10 F1 N1 O2'
_chemical_name_systematic        3-Fluoro-4-(4-methoxyphenoxy)benzonitrile
_symmetry_cell_setting           monoclinic
_symmetry_space_group_name_H-M   'P 21/c'
_symmetry_Int_Tables_number      14
_space_group_name_Hall           '-P 2ybc'
loop_
_symmetry_equiv_pos_site_id
_symmetry_equiv_pos_as_xyz
1 x,y,z
2 -x,1/2+y,1/2-z
3 -x,-y,-z
4 x,1/2-y,1/2+z
_cell_length_a                   12.534(3)
_cell_length_b                   8.060(2)
_cell_length_c                   12.364(3)
_cell_angle_alpha                90
_cell_angle_beta                 105.273(3)
_cell_angle_gamma                90
_cell_volume                     1204.95
_cell_formula_units_Z            4
loop_
_atom_site_label
_atom_site_type_symbol
_atom_site_fract_x
_atom_site_fract_y
_atom_site_fract_z
N1 N 0.4282(2) 0.6640(3) 1.1514(2)
O1 O 0.8225(1) 1.0157(2) 0.9516(1)
O2 O 0.8919(1) 0.9100(2) 0.5340(1)
F1 F 0.8137(1) 1.0622(2) 1.1579(1)
C1 C 0.7339(2) 0.9689(2) 1.0917(1)
C2 C 0.6532(2) 0.9045(2) 1.1347(1)
C3 C 0.5730(1) 0.8037(2) 1.0670(1)
C4 C 0.5743(2) 0.7759(2) 0.9572(2)
C5 C 0.6558(2) 0.8453(2) 0.9154(1)
C6 C 0.7373(1) 0.9421(2) 0.9826(1)
C7 C 0.4908(2) 0.7269(3) 1.1124(2)
C8 C 0.8337(2) 0.9849(2) 0.8428(2)
C9 C 0.9124(2) 0.8749(2) 0.8297(2)
C10 C 0.9294(2) 0.8517(3) 0.7252(2)
C11 C 0.8680(1) 0.9399(2) 0.6341(2)
C12 C 0.7889(2) 1.0494(2) 0.6482(2)
C13 C 0.7723(2) 1.0724(3) 0.7539(2)
C14 C 0.8449(2) 1.0180(3) 0.4436(2)
loop_
_geom_bond_atom_site_label_1
_geom_bond_atom_site_label_2
_geom_bond_site_symmetry_1
_geom_bond_site_symmetry_2
N1 C7 1_555 1_555
O1 C6 1_555 1_555
O2 C11 1_555 1_555
F1 C1 1_555 1_555
C1 C2 1_555 1_555
C2 C3 1_555 1_555
C3 C4 1_555 1_555
C4 C5 1_555 1_555
C5 C6 1_555 1_555
C6 C1 1_555 1_555
C7 C3 1_555 1_555
C8 O1 1_555 1_555
C9 C8 1_555 1_555
C10 C9 1_555 1_555
C11 C10 1_555 1_555
C12 C11 1_555 1_555
C13 C8 1_555 1_555
C14 O2 1_555 1_555
C12 C13 1_555 1_555

#END
