
#######################################################################
#
#                 Cambridge Crystallographic Data Centre
#                                CCDC 
#
#######################################################################
#
# If this CIF has been generated from an entry in the Cambridge 
# Structural Database, then it will include bibliographic, chemical, 
# crystal, experimental, refinement or atomic coordinate data resulting 
# from the CCDC's data processing and validation procedures.
#
#######################################################################

data_VUXFUP
_chemical_formula_moiety         'C10 H16 N3 O5'
_chemical_name_systematic        
5'-Hydroxymethyl-5'-deoxy-1-\b-D-arabinofuranosyl-3H-cytosine
_chemical_properties_biological  'agent for inhibition of DNA synthesis'
_symmetry_cell_setting           orthorhombic
_symmetry_space_group_name_H-M   'P 21 21 2'
_symmetry_Int_Tables_number      18
_space_group_name_Hall           'P 2 2ab'
loop_
_symmetry_equiv_pos_site_id
_symmetry_equiv_pos_as_xyz
1 x,y,z
2 1/2+x,1/2-y,-z
3 1/2-x,1/2+y,-z
4 -x,-y,z
_cell_length_a                   8.261(2)
_cell_length_b                   19.644(4)
_cell_length_c                   6.993(6)
_cell_angle_alpha                90
_cell_angle_beta                 90
_cell_angle_gamma                90
_cell_volume                     1134.82
_cell_formula_units_Z            4
loop_
_atom_site_label
_atom_site_type_symbol
_atom_site_fract_x
_atom_site_fract_y
_atom_site_fract_z
C1 C -0.3127(5) -0.4656(2) -0.2056(6)
C2 C -0.3504(5) -0.4364(2) -0.5261(6)
O1 O -0.3304(4) -0.4555(1) -0.0327(4)
C3 C -0.1525(5) -0.5665(2) -0.1191(6)
C4 C -0.1901(5) -0.5326(2) -0.4553(6)
O2 O -0.3609(4) -0.6517(1) -0.1857(4)
O3 O 0.1604(5) -0.7888(2) -0.4544(5)
O4 O -0.0251(4) -0.6039(1) -0.2039(4)
N1 N -0.3801(4) -0.4250(2) -0.3419(5)
C5 C -0.1470(5) -0.6709(2) 0.0425(6)
C6 C -0.2513(6) -0.4914(2) -0.5872(5)
C7 C -0.0016(5) -0.6657(2) -0.0957(6)
O5 O -0.0964(5) -0.6528(2) 0.2308(4)
C8 C -0.2689(5) -0.6194(2) -0.0391(5)
N2 N -0.4130(5) -0.3945(2) -0.6563(5)
N3 N -0.2201(4) -0.5214(1) -0.2663(4)
C9 C 0.0096(5) -0.7265(2) -0.2279(6)
C10 C 0.1385(6) -0.7217(2) -0.3831(6)
H1 H -0.12881 -0.53240 -0.03440
H2 H 0.10009 -0.66247 -0.01827
H3 H -0.42339 -0.67887 -0.28543
H4 H -0.07001 -0.63607 0.33705
H5 H -0.24036 -0.49630 -0.71577
H6 H 0.22426 -0.80955 -0.41253
H7 H -0.46156 -0.36043 -0.60919
H8 H -0.41709 -0.40157 -0.79235
H9 H -0.11924 -0.57076 -0.48283
H10 H -0.33898 -0.59800 0.06888
H11 H -0.18134 -0.72400 0.05505
H12 H 0.01873 -0.76347 -0.15826
H13 H -0.09499 -0.72707 -0.30483
H14 H 0.10678 -0.69577 -0.46271
H15 H 0.25298 -0.71160 -0.33680
H16 H -0.44588 -0.39006 -0.30561
loop_
_geom_bond_atom_site_label_1
_geom_bond_atom_site_label_2
_geom_bond_site_symmetry_1
_geom_bond_site_symmetry_2
C1 O1 1_555 1_555
C2 N1 1_555 1_555
C3 O4 1_555 1_555
C4 C6 1_555 1_555
O2 C8 1_555 1_555
O3 C10 1_555 1_555
O4 C7 1_555 1_555
N1 C1 1_555 1_555
C5 C7 1_555 1_555
C6 C2 1_555 1_555
C7 C9 1_555 1_555
O5 C5 1_555 1_555
C8 C3 1_555 1_555
N2 C2 1_555 1_555
N3 C1 1_555 1_555
C9 C10 1_555 1_555
C10 H14 1_555 1_555
H1 C3 1_555 1_555
H2 C7 1_555 1_555
H3 O2 1_555 1_555
H4 O5 1_555 1_555
H5 C6 1_555 1_555
H6 O3 1_555 1_555
H7 N2 1_555 1_555
H8 N2 1_555 1_555
H9 C4 1_555 1_555
H10 C8 1_555 1_555
H11 C5 1_555 1_555
H12 C9 1_555 1_555
H13 C9 1_555 1_555
H15 C10 1_555 1_555
H16 N1 1_555 1_555
C3 N3 1_555 1_555
C4 N3 1_555 1_555
C5 C8 1_555 1_555

#END
