
#######################################################################
#
#                 Cambridge Crystallographic Data Centre
#                                CCDC 
#
#######################################################################
#
# If this CIF has been generated from an entry in the Cambridge 
# Structural Database, then it will include bibliographic, chemical, 
# crystal, experimental, refinement or atomic coordinate data resulting 
# from the CCDC's data processing and validation procedures.
#
#######################################################################

data_VUXMUY
_chemical_formula_moiety         'C14 H9 Cl1 N2 O3'
_chemical_name_systematic        
(5-Chloro-2-hydroxyphenyl)(3-methylisoxazolo[5,4-b]pyridin-5-yl)methanone
_symmetry_cell_setting           monoclinic
_symmetry_space_group_name_H-M   'P 21/c'
_symmetry_Int_Tables_number      14
_space_group_name_Hall           '-P 2ybc'
loop_
_symmetry_equiv_pos_site_id
_symmetry_equiv_pos_as_xyz
1 x,y,z
2 -x,1/2+y,1/2-z
3 -x,-y,-z
4 x,1/2-y,1/2+z
_cell_length_a                   11.0317(10)
_cell_length_b                   11.8701(10)
_cell_length_c                   11.1220(9)
_cell_angle_alpha                90
_cell_angle_beta                 118.675(2)
_cell_angle_gamma                90
_cell_volume                     1277.78
_exptl_crystal_colour            colorless
_exptl_crystal_description       block
_cell_formula_units_Z            4
loop_
_atom_site_label
_atom_site_type_symbol
_atom_site_fract_x
_atom_site_fract_y
_atom_site_fract_z
C1 C 0.1833(3) -0.0368(3) 0.9816(3)
C2 C 0.1378(3) 0.0264(4) 0.8629(3)
H1 H 0.1386 -0.0051 0.7868
C3 C 0.0917(3) 0.1343(3) 0.8560(3)
H2 H 0.0614 0.1755 0.7755
C4 C 0.0900(3) 0.1827(3) 0.9696(3)
C5 C 0.1386(2) 0.1234(2) 1.0890(2)
H3 H 0.1384 0.1564 1.1648
C6 C 0.1887(2) 0.0133(2) 1.0988(3)
C7 C 0.2418(2) -0.0531(2) 1.2263(3)
C8 C 0.2796(2) -0.0001(2) 1.3606(3)
C9 C 0.2544(3) -0.0637(2) 1.4535(3)
H4 H 0.2125 -0.1336 1.4243
C10 C 0.3469(3) 0.0675(3) 1.6116(3)
C11 C 0.3811(2) 0.1373(2) 1.5332(2)
C12 C 0.3455(2) 0.1025(2) 1.4011(2)
H5 H 0.3652 0.1460 1.3430
C13 C 0.4447(3) 0.2330(2) 1.6185(2)
C14 C 0.5010(3) 0.3350(3) 1.5876(3)
H6 H 0.5386 0.3840 1.6659
H7 H 0.4286 0.3733 1.5107
H8 H 0.5726 0.3140 1.5662
N1 N 0.2861(3) -0.0312(2) 1.5798(3)
N2 N 0.4480(3) 0.2213(2) 1.7365(2)
O1 O 0.2205(3) -0.1444(2) 0.9793(3)
H9 H 0.2460 -0.1732 1.0547
O2 O 0.2567(2) -0.15626(16) 1.2243(2)
O3 O 0.3854(2) 0.1149(2) 1.73518(19)
Cl1 Cl 0.02472(9) 0.31717(7) 0.95930(9)
loop_
_geom_bond_atom_site_label_1
_geom_bond_atom_site_label_2
_geom_bond_site_symmetry_1
_geom_bond_site_symmetry_2
C1 C2 1_555 1_555
C2 H1 1_555 1_555
C3 C2 1_555 1_555
H2 C3 1_555 1_555
C4 C3 1_555 1_555
C5 C4 1_555 1_555
H3 C5 1_555 1_555
C6 C1 1_555 1_555
C7 C6 1_555 1_555
C8 C7 1_555 1_555
C9 C8 1_555 1_555
H4 C9 1_555 1_555
C10 C11 1_555 1_555
C11 C12 1_555 1_555
C12 C8 1_555 1_555
H5 C12 1_555 1_555
C13 C11 1_555 1_555
C14 C13 1_555 1_555
H6 C14 1_555 1_555
H7 C14 1_555 1_555
H8 C14 1_555 1_555
N1 C9 1_555 1_555
N2 C13 1_555 1_555
O1 C1 1_555 1_555
H9 O1 1_555 1_555
O2 C7 1_555 1_555
O3 C10 1_555 1_555
Cl1 C4 1_555 1_555
C5 C6 1_555 1_555
C10 N1 1_555 1_555
N2 O3 1_555 1_555

#END
