
#######################################################################
#
#                 Cambridge Crystallographic Data Centre
#                                CCDC 
#
#######################################################################
#
# If this CIF has been generated from an entry in the Cambridge 
# Structural Database, then it will include bibliographic, chemical, 
# crystal, experimental, refinement or atomic coordinate data resulting 
# from the CCDC's data processing and validation procedures.
#
#######################################################################

data_VUXPAH
_chemical_formula_moiety         'C22 H38 Si2'
_chemical_name_systematic        
1,1,2,2-Tetramethyl-1,2-bis(2,3,4,5-tetramethylcyclopenta-2,4-dien-1-yl)disilane
_symmetry_cell_setting           monoclinic
_symmetry_space_group_name_H-M   'P 21/n'
_symmetry_Int_Tables_number      14
_space_group_name_Hall           '-P 2yn'
loop_
_symmetry_equiv_pos_site_id
_symmetry_equiv_pos_as_xyz
1 x,y,z
2 1/2-x,1/2+y,1/2-z
3 -x,-y,-z
4 1/2+x,1/2-y,1/2+z
_cell_length_a                   8.7790(2)
_cell_length_b                   15.3039(4)
_cell_length_c                   16.4355(4)
_cell_angle_alpha                90
_cell_angle_beta                 93.678(1)
_cell_angle_gamma                90
_cell_volume                     2203.61
_exptl_crystal_colour            colorless
_exptl_crystal_description       prism
_cell_formula_units_Z            4
loop_
_atom_site_label
_atom_site_type_symbol
_atom_site_fract_x
_atom_site_fract_y
_atom_site_fract_z
C1 C 0.85658(13) 0.71127(8) 0.10459(7)
H1 H 0.8437 0.6501 0.1244
C2 C 1.01814(13) 0.72631(8) 0.08367(8)
C3 C 1.01837(14) 0.75224(8) 0.00516(8)
C4 C 0.86221(14) 0.75132(8) -0.03149(7)
C5 C 0.76715(14) 0.72439(8) 0.02488(7)
C6 C 1.15522(16) 0.71322(10) 0.14202(9)
H2 H 1.2403 0.6908 0.1123
H3 H 1.1304 0.6712 0.1842
H4 H 1.1843 0.7691 0.1676
C7 C 1.15333(17) 0.77834(11) -0.04066(10)
H5 H 1.2463 0.7744 -0.0045
H6 H 1.1400 0.8385 -0.0601
H7 H 1.1620 0.7392 -0.0873
C8 C 0.81945(17) 0.77582(10) -0.11828(8)
H8 H 0.8533 0.7299 -0.1546
H9 H 0.8687 0.8312 -0.1311
H10 H 0.7084 0.7823 -0.1259
C9 C 0.59858(16) 0.70960(11) 0.01139(9)
H11 H 0.5448 0.7653 0.0159
H12 H 0.5648 0.6688 0.0525
H13 H 0.5760 0.6850 -0.0431
C10 C 0.59182(15) 0.77168(9) 0.20801(9)
H14 H 0.5796 0.7097 0.2212
H15 H 0.5237 0.7867 0.1605
H16 H 0.5661 0.8075 0.2546
C11 C 0.91263(16) 0.77522(9) 0.28252(8)
H17 H 0.8710 0.8103 0.3258
H18 H 1.0184 0.7928 0.2756
H19 H 0.9099 0.7132 0.2973
C12 C 0.69980(16) 0.95635(9) 0.04136(7)
H20 H 0.6950 1.0192 0.0299
H21 H 0.5966 0.9340 0.0475
H22 H 0.7448 0.9260 -0.0038
C13 C 1.02293(15) 0.96094(9) 0.11437(8)
H23 H 1.0465 0.9302 0.0644
H24 H 1.0925 0.9412 0.1597
H25 H 1.0353 1.0240 0.1066
C14 C 0.76149(13) 1.01788(8) 0.21979(7)
H26 H 0.7769 1.0788 0.1999
C15 C 0.59856(13) 1.00765(8) 0.24095(7)
C16 C 0.59561(14) 0.98747(8) 0.32073(8)
C17 C 0.75209(14) 0.98656(8) 0.35759(7)
C18 C 0.84985(13) 1.00645(8) 0.30048(7)
C19 C 0.46292(15) 1.01960(10) 0.18157(9)
H27 H 0.4372 0.9637 0.1550
H28 H 0.4872 1.0627 0.1403
H29 H 0.3758 1.0402 0.2107
C20 C 0.45939(16) 0.97111(10) 0.36880(10)
H30 H 0.4494 1.0185 0.4082
H31 H 0.4722 0.9155 0.3979
H32 H 0.3674 0.9686 0.3318
C21 C 0.78832(18) 0.96916(10) 0.44647(8)
H33 H 0.8990 0.9635 0.4570
H34 H 0.7385 0.9149 0.4620
H35 H 0.7511 1.0177 0.4786
C22 C 1.01980(15) 1.01596(10) 0.31332(9)
H36 H 1.0463 1.0338 0.3697
H37 H 1.0554 1.0604 0.2760
H38 H 1.0687 0.9599 0.3026
Si1 Si 0.79503(4) 0.79312(2) 0.184414(19)
Si2 Si 0.82065(4) 0.93696(2) 0.138159(18)
loop_
_geom_bond_atom_site_label_1
_geom_bond_atom_site_label_2
_geom_bond_site_symmetry_1
_geom_bond_site_symmetry_2
C1 H1 1_555 1_555
C2 C1 1_555 1_555
C3 C2 1_555 1_555
C4 C3 1_555 1_555
C5 C1 1_555 1_555
C6 C2 1_555 1_555
H2 C6 1_555 1_555
H3 C6 1_555 1_555
H4 C6 1_555 1_555
C7 C3 1_555 1_555
H5 C7 1_555 1_555
H6 C7 1_555 1_555
H7 C7 1_555 1_555
C8 C4 1_555 1_555
H8 C8 1_555 1_555
H9 C8 1_555 1_555
H10 C8 1_555 1_555
C9 C5 1_555 1_555
H11 C9 1_555 1_555
H12 C9 1_555 1_555
H13 C9 1_555 1_555
C10 H14 1_555 1_555
H15 C10 1_555 1_555
H16 C10 1_555 1_555
C11 H17 1_555 1_555
H18 C11 1_555 1_555
H19 C11 1_555 1_555
C12 H20 1_555 1_555
H21 C12 1_555 1_555
H22 C12 1_555 1_555
C13 H23 1_555 1_555
H24 C13 1_555 1_555
H25 C13 1_555 1_555
C14 H26 1_555 1_555
C15 C14 1_555 1_555
C16 C15 1_555 1_555
C17 C16 1_555 1_555
C18 C14 1_555 1_555
C19 C15 1_555 1_555
H27 C19 1_555 1_555
H28 C19 1_555 1_555
H29 C19 1_555 1_555
C20 C16 1_555 1_555
H30 C20 1_555 1_555
H31 C20 1_555 1_555
H32 C20 1_555 1_555
C21 C17 1_555 1_555
H33 C21 1_555 1_555
H34 C21 1_555 1_555
H35 C21 1_555 1_555
C22 C18 1_555 1_555
H36 C22 1_555 1_555
H37 C22 1_555 1_555
H38 C22 1_555 1_555
Si1 C1 1_555 1_555
Si2 C12 1_555 1_555
C4 C5 1_555 1_555
C10 Si1 1_555 1_555
C11 Si1 1_555 1_555
C13 Si2 1_555 1_555
C14 Si2 1_555 1_555
C17 C18 1_555 1_555
Si1 Si2 1_555 1_555

#END
