
#######################################################################
#
#                 Cambridge Crystallographic Data Centre
#                                CCDC 
#
#######################################################################
#
# If this CIF has been generated from an entry in the Cambridge 
# Structural Database, then it will include bibliographic, chemical, 
# crystal, experimental, refinement or atomic coordinate data resulting 
# from the CCDC's data processing and validation procedures.
#
#######################################################################

data_VUXXUH
_chemical_formula_moiety         'C12 H28 N2 O4 2+,2(C9 H7 O3 1-)'
_chemical_name_systematic        
'Diaza-18-crown-6 2-hydroxy-5-methyl-1,3-benzenedicarbaldehyde'
_symmetry_cell_setting           triclinic
_symmetry_space_group_name_H-M   'P -1'
_symmetry_Int_Tables_number      2
_space_group_name_Hall           '-P 1'
loop_
_symmetry_equiv_pos_site_id
_symmetry_equiv_pos_as_xyz
1 x,y,z
2 -x,-y,-z
_cell_length_a                   7.412(1)
_cell_length_b                   8.763(1)
_cell_length_c                   12.688(1)
_cell_angle_alpha                72.44(1)
_cell_angle_beta                 85.95(1)
_cell_angle_gamma                76.34(1)
_cell_volume                     763.477
_exptl_crystal_colour            colorless
_cell_formula_units_Z            1
loop_
_atom_site_label
_atom_site_type_symbol
_atom_site_fract_x
_atom_site_fract_y
_atom_site_fract_z
C1 C 0.2173(3) 0.4238(3) 0.2464(2)
C2 C 0.2066(4) 0.3971(4) 0.3650(2)
O1 O 0.2311(3) 0.2638(2) 0.4344(1)
C3 C 0.1947(3) 0.5858(3) 0.1724(2)
O2 O 0.1600(3) 0.7148(2) 0.2057(1)
C4 C 0.2153(3) 0.5983(3) 0.0579(2)
C5 C 0.1955(4) 0.7588(3) -0.0230(2)
O3 O 0.2113(3) 0.7843(2) -0.1218(2)
C6 C 0.2544(4) 0.4587(3) 0.0235(2)
C7 C 0.2757(4) 0.3021(3) 0.0950(2)
C8 C 0.3185(5) 0.1520(3) 0.0550(2)
C9 C 0.2581(3) 0.2897(3) 0.2054(2)
H1 H 0.1840(32) 0.4932(29) 0.3908(18)
H2 H 0.1684(28) 0.8475(24) 0.0055(17)
H3 H 0.2690(30) 0.4759(25) -0.0540(18)
H4 H 0.3254(44) 0.0639(37) 0.1075(27)
H5 H 0.2262(41) 0.1663(35) -0.0010(25)
H6 H 0.4281(48) 0.1524(41) 0.0100(29)
H7 H 0.2763(28) 0.1865(24) 0.2559(16)
N1 N 0.0855(3) 0.1936(2) 0.6584(1)
C10 C 0.2732(4) 0.1476(3) 0.7075(2)
C11 C 0.3123(4) 0.2888(3) 0.7380(2)
O4 O 0.2995(2) 0.4235(2) 0.6413(1)
C12 C 0.3183(5) 0.5678(3) 0.6647(2)
C13 C 0.3378(4) 0.6957(3) 0.5595(2)
O5 O 0.1639(2) 0.7614(2) 0.5049(1)
C14 C 0.1717(4) 0.8844(3) 0.4038(2)
C15 C 0.0177(4) 0.0547(3) 0.6436(2)
H8 H 0.0979(30) 0.2609(25) 0.5920(18)
H9 H -0.0262(44) 0.2522(36) 0.7147(26)
H10 H 0.2774(29) 0.0586(25) 0.7660(18)
H11 H 0.3662(32) 0.1113(26) 0.6503(18)
H12 H 0.2192(30) 0.3231(25) 0.7880(17)
H13 H 0.4436(32) 0.2602(26) 0.7684(18)
H14 H 0.2031(33) 0.6103(26) 0.7037(18)
H15 H 0.4280(34) 0.5441(25) 0.7141(19)
H16 H 0.3826(30) 0.7860(26) 0.5761(17)
H17 H 0.4306(30) 0.6512(26) 0.5109(18)
H18 H 0.2677(30) 0.8331(25) 0.3569(17)
H19 H 0.2211(31) 0.9775(27) 0.4147(18)
H20 H 0.0210(28) -0.0245(24) 0.7156(17)
H21 H 0.1050(26) 0.0084(22) 0.5978(15)
C15A C -0.0177(4) 0.9453(3) 0.3564(2)
C14A C -0.1717(4) 0.1156(3) 0.5962(2)
N1A N -0.0855(3) 0.8064(2) 0.3416(1)
H20A H -0.0210(28) 1.0245(24) 0.2844(17)
H21A H -0.1050(26) 0.9916(22) 0.4022(15)
O5A O -0.1639(2) 0.2386(2) 0.4951(1)
H18A H -0.2677(30) 0.1669(25) 0.6431(17)
H19A H -0.2211(31) 0.0225(27) 0.5853(18)
C10A C -0.2732(4) 0.8524(3) 0.2925(2)
H8A H -0.0979(30) 0.7391(25) 0.4080(18)
H9A H 0.0262(44) 0.7478(36) 0.2853(26)
C13A C -0.3378(4) 0.3043(3) 0.4405(2)
C11A C -0.3123(4) 0.7112(3) 0.2620(2)
H10A H -0.2774(29) 0.9414(25) 0.2340(18)
H11A H -0.3662(32) 0.8887(26) 0.3497(18)
C12A C -0.3183(5) 0.4322(3) 0.3353(2)
H16A H -0.3826(30) 0.2140(26) 0.4239(17)
H17A H -0.4306(30) 0.3488(26) 0.4891(18)
O4A O -0.2995(2) 0.5765(2) 0.3587(1)
H12A H -0.2192(30) 0.6769(25) 0.2120(17)
H13A H -0.4436(32) 0.7398(26) 0.2316(18)
H14A H -0.2031(33) 0.3897(26) 0.2963(18)
H15A H -0.4280(34) 0.4559(25) 0.2859(19)
loop_
_geom_bond_atom_site_label_1
_geom_bond_atom_site_label_2
_geom_bond_site_symmetry_1
_geom_bond_site_symmetry_2
C1 C2 1_555 1_555
C2 O1 1_555 1_555
C3 C1 1_555 1_555
O2 C3 1_555 1_555
C4 C3 1_555 1_555
C5 C4 1_555 1_555
O3 C5 1_555 1_555
C6 C4 1_555 1_555
C7 C6 1_555 1_555
C8 C7 1_555 1_555
C9 C1 1_555 1_555
H1 C2 1_555 1_555
H2 C5 1_555 1_555
H3 C6 1_555 1_555
H4 C8 1_555 1_555
H5 C8 1_555 1_555
H6 C8 1_555 1_555
H7 C9 1_555 1_555
N1 C10 1_555 1_555
C10 C11 1_555 1_555
C11 O4 1_555 1_555
O4 C12 1_555 1_555
C12 C13 1_555 1_555
C13 O5 1_555 1_555
O5 C14 1_555 1_555
C14 H18 1_555 1_555
C15 N1 1_555 1_555
H8 N1 1_555 1_555
H9 N1 1_555 1_555
H10 C10 1_555 1_555
H11 C10 1_555 1_555
H12 C11 1_555 1_555
H13 C11 1_555 1_555
H14 C12 1_555 1_555
H15 C12 1_555 1_555
H16 C13 1_555 1_555
H17 C13 1_555 1_555
H19 C14 1_555 1_555
H20 C15 1_555 1_555
H21 C15 1_555 1_555
C15A C14 1_555 1_555
C14A C15 1_555 1_555
N1A C15A 1_555 1_555
H20A C15A 1_555 1_555
H21A C15A 1_555 1_555
O5A C14A 1_555 1_555
H18A C14A 1_555 1_555
H19A C14A 1_555 1_555
C10A N1A 1_555 1_555
H8A N1A 1_555 1_555
H9A N1A 1_555 1_555
C13A O5A 1_555 1_555
C11A C10A 1_555 1_555
H10A C10A 1_555 1_555
H11A C10A 1_555 1_555
C12A C13A 1_555 1_555
H16A C13A 1_555 1_555
H17A C13A 1_555 1_555
O4A C11A 1_555 1_555
H12A C11A 1_555 1_555
H13A C11A 1_555 1_555
H14A C12A 1_555 1_555
H15A C12A 1_555 1_555
C7 C9 1_555 1_555
C12A O4A 1_555 1_555

#END
