
#######################################################################
#
#                 Cambridge Crystallographic Data Centre
#                                CCDC 
#
#######################################################################
#
# If this CIF has been generated from an entry in the Cambridge 
# Structural Database, then it will include bibliographic, chemical, 
# crystal, experimental, refinement or atomic coordinate data resulting 
# from the CCDC's data processing and validation procedures.
#
#######################################################################

data_VUXZEU01
_chemical_formula_moiety         'C7 H3 F2 N2 S2'
_chemical_name_systematic        
'4-(2,6-Difluorophenyl)-1,2,3,5-dithiadiazolyl radical'
_symmetry_cell_setting           monoclinic
_symmetry_space_group_name_H-M   'P 21/c'
_symmetry_Int_Tables_number      14
_space_group_name_Hall           '-P 2ybc'
loop_
_symmetry_equiv_pos_site_id
_symmetry_equiv_pos_as_xyz
1 x,y,z
2 -x,1/2+y,1/2-z
3 -x,-y,-z
4 x,1/2-y,1/2+z
_cell_length_a                   16.885(4)
_cell_length_b                   11.989(4)
_cell_length_c                   8.207(4)
_cell_angle_alpha                90
_cell_angle_beta                 95.51(3)
_cell_angle_gamma                90
_cell_volume                     1653.7
_exptl_crystal_colour            red
_exptl_crystal_description       block
_cell_formula_units_Z            8
loop_
_atom_site_label
_atom_site_type_symbol
_atom_site_fract_x
_atom_site_fract_y
_atom_site_fract_z
N1 N 0.1522(4) 0.6639(5) 0.2276(7)
N2 N 0.1198(4) 0.5175(6) 0.3982(8)
S1 S 0.15322(13) 0.74196(17) 0.3925(2)
S2 S 0.12287(13) 0.61205(18) 0.5425(2)
C1 C 0.1351(5) 0.5565(7) 0.2544(10)
C2 C 0.1303(5) 0.4787(6) 0.1136(9)
C3 C 0.0667(5) 0.4060(7) 0.0781(10)
F1 F 0.0072(3) 0.4095(4) 0.1765(6)
C4 C 0.0605(5) 0.3343(7) -0.0482(11)
H1 H 0.0155 0.2868 -0.0665
C5 C 0.1219(6) 0.3309(8) -0.1530(12)
H2 H 0.1179 0.2820 -0.2445
C6 C 0.1880(5) 0.3987(7) -0.1225(10)
H3 H 0.2306 0.3958 -0.1901
C7 C 0.1902(5) 0.4707(6) 0.0089(9)
F2 F 0.2558(3) 0.5346(4) 0.0395(5)
S3 S 0.32970(13) 0.73062(17) 0.5219(2)
S4 S 0.30217(14) 0.60360(18) 0.6798(2)
N3 N 0.3571(4) 0.6469(5) 0.3809(8)
N4 N 0.3272(4) 0.5030(6) 0.5613(8)
C8 C 0.3534(5) 0.5386(6) 0.4215(9)
C9 C 0.3824(5) 0.4540(7) 0.3088(10)
C10 C 0.3415(5) 0.3576(7) 0.2604(10)
F3 F 0.2700(3) 0.3421(4) 0.3184(6)
C11 C 0.3694(6) 0.2795(7) 0.1604(10)
H4 H 0.3394 0.2139 0.1331
C12 C 0.4416(6) 0.2966(8) 0.0992(12)
H5 H 0.4612 0.2439 0.0264
C13 C 0.4852(5) 0.3905(8) 0.1446(11)
H6 H 0.5362 0.4012 0.1070
C14 C 0.4555(5) 0.4675(7) 0.2424(10)
F4 F 0.4999(3) 0.5583(5) 0.2868(7)
loop_
_geom_bond_atom_site_label_1
_geom_bond_atom_site_label_2
_geom_bond_site_symmetry_1
_geom_bond_site_symmetry_2
N1 S1 1_555 1_555
N2 S2 1_555 1_555
S1 S2 1_555 1_555
C1 N1 1_555 1_555
C2 C1 1_555 1_555
C3 C2 1_555 1_555
F1 C3 1_555 1_555
C4 C3 1_555 1_555
H1 C4 1_555 1_555
C5 C4 1_555 1_555
H2 C5 1_555 1_555
C6 C5 1_555 1_555
H3 C6 1_555 1_555
C7 C2 1_555 1_555
F2 C7 1_555 1_555
S3 S4 1_555 1_555
S4 N4 1_555 1_555
N3 S3 1_555 1_555
N4 C8 1_555 1_555
C8 N3 1_555 1_555
C9 C8 1_555 1_555
C10 C9 1_555 1_555
F3 C10 1_555 1_555
C11 C10 1_555 1_555
H4 C11 1_555 1_555
C12 C11 1_555 1_555
H5 C12 1_555 1_555
C13 C12 1_555 1_555
H6 C13 1_555 1_555
C14 C9 1_555 1_555
F4 C14 1_555 1_555
N2 C1 1_555 1_555
C6 C7 1_555 1_555
C13 C14 1_555 1_555

#END
