
#######################################################################
#
#                 Cambridge Crystallographic Data Centre
#                                CCDC 
#
#######################################################################
#
# If this CIF has been generated from an entry in the Cambridge 
# Structural Database, then it will include bibliographic, chemical, 
# crystal, experimental, refinement or atomic coordinate data resulting 
# from the CCDC's data processing and validation procedures.
#
#######################################################################

data_VUYMIN
_chemical_formula_moiety         'C22 H22 O9 S2,0.25(H2 O1)'
_chemical_name_systematic        
'6-hydroxy-3a-(hydroxy(4-(methylsulfonyl)phenyl)methyl)-2-(4-(methylsulfonyl)benzylidene)tetrahydrofuro[3,2-b]furan-3(2H)-one hydrate'
_symmetry_cell_setting           orthorhombic
_symmetry_space_group_name_H-M   'P 21 21 21'
_symmetry_Int_Tables_number      19
_space_group_name_Hall           'P 2ac 2ab'
loop_
_symmetry_equiv_pos_site_id
_symmetry_equiv_pos_as_xyz
1 x,y,z
2 1/2-x,-y,1/2+z
3 1/2+x,1/2-y,-z
4 -x,1/2+y,1/2-z
_cell_length_a                   8.5104(3)
_cell_length_b                   12.7419(4)
_cell_length_c                   21.2747(6)
_cell_angle_alpha                90
_cell_angle_beta                 90
_cell_angle_gamma                90
_cell_volume                     2307
_cell_formula_units_Z            4
loop_
_atom_site_label
_atom_site_type_symbol
_atom_site_fract_x
_atom_site_fract_y
_atom_site_fract_z
S1 S -0.08695(15) 0.30992(7) -0.04491(5)
S2 S 0.08010(12) 0.18811(7) 0.62027(4)
O1 O 0.1167(3) 0.38729(17) 0.31727(9)
O2 O 0.0874(5) 0.66006(19) 0.30825(13)
O3 O 0.2256(3) 0.5317(2) 0.20020(13)
O4 O 0.2777(4) 0.2555(2) 0.23494(13)
H1 H 0.3336 0.2694 0.2652
O5 O -0.1908(4) 0.5391(3) 0.23694(16)
H2 H -0.2250 0.5963 0.2480
O6 O -0.1045(7) 0.2019(2) -0.03015(18)
O7 O 0.0484(5) 0.3392(3) -0.08230(16)
O8 O 0.0706(8) 0.0869(3) 0.59609(17)
O9 O -0.0465(4) 0.2217(4) 0.65932(17)
C1 C 0.1111(4) 0.4821(2) 0.34647(14)
C2 C 0.0940(5) 0.5668(3) 0.29920(15)
C3 C 0.0827(4) 0.5131(3) 0.23506(14)
C4 C 0.0810(4) 0.3967(3) 0.25058(13)
H3 H -0.0210 0.3651 0.2406
C5 C 0.2115(5) 0.3490(3) 0.21096(17)
H4 H 0.1686 0.3338 0.1692
C6 C 0.3222(5) 0.4398(4) 0.2050(2)
H5 H 0.3899 0.4442 0.2416
H6 H 0.3872 0.4322 0.1679
C7 C 0.1096(4) 0.4975(3) 0.40852(15)
H7 H 0.1101 0.5672 0.4214
C8 C -0.0591(4) 0.5539(3) 0.19777(16)
H8 H -0.0456 0.6290 0.1896
C9 C -0.0755(4) 0.4967(3) 0.13607(15)
C10 C -0.1754(5) 0.4118(3) 0.13002(17)
H9 H -0.2416 0.3940 0.1631
C11 C -0.1785(5) 0.3533(3) 0.07560(18)
H10 H -0.2437 0.2950 0.0723
C12 C -0.0827(5) 0.3826(3) 0.02586(15)
C13 C 0.0165(5) 0.4681(3) 0.03027(17)
H11 H 0.0797 0.4877 -0.0034
C14 C 0.0195(5) 0.5239(3) 0.08580(16)
H12 H 0.0868 0.5810 0.0896
C15 C -0.2560(6) 0.3549(4) -0.0831(2)
H13 H -0.3468 0.3376 -0.0585
H14 H -0.2639 0.3222 -0.1237
H15 H -0.2499 0.4297 -0.0882
C16 C 0.1071(4) 0.4195(2) 0.45891(14)
C17 C 0.1544(4) 0.3153(3) 0.45043(15)
H16 H 0.1902 0.2931 0.4113
C18 C 0.1484(5) 0.2453(3) 0.49976(17)
H17 H 0.1809 0.1763 0.4942
C19 C 0.0934(4) 0.2785(2) 0.55782(13)
C20 C 0.0454(5) 0.3801(3) 0.56709(15)
H18 H 0.0071 0.4013 0.6060
C21 C 0.0545(5) 0.4503(3) 0.51803(16)
H19 H 0.0249 0.5197 0.5245
C22 C 0.2501(6) 0.2032(5) 0.6648(2)
H20 H 0.3399 0.1850 0.6398
H21 H 0.2452 0.1581 0.7009
H22 H 0.2590 0.2749 0.6783
O10 O 0.527(2) 0.5913(15) 0.2887(7)
H23 H 0.5545 0.5968 0.2479
H24 H 0.4448 0.6314 0.2999
loop_
_geom_bond_atom_site_label_1
_geom_bond_atom_site_label_2
_geom_bond_site_symmetry_1
_geom_bond_site_symmetry_2
S1 O6 1_555 1_555
S2 O8 1_555 1_555
O1 C1 1_555 1_555
O2 C2 1_555 1_555
O3 C3 1_555 1_555
O4 H1 1_555 1_555
O5 H2 1_555 1_555
O7 S1 1_555 1_555
O9 S2 1_555 1_555
C1 C2 1_555 1_555
C2 C3 1_555 1_555
C3 C4 1_555 1_555
C4 O1 1_555 1_555
H3 C4 1_555 1_555
C5 O4 1_555 1_555
H4 C5 1_555 1_555
C6 O3 1_555 1_555
H5 C6 1_555 1_555
H6 C6 1_555 1_555
C7 C1 1_555 1_555
H7 C7 1_555 1_555
C8 O5 1_555 1_555
H8 C8 1_555 1_555
C9 C8 1_555 1_555
C10 C9 1_555 1_555
H9 C10 1_555 1_555
C11 C10 1_555 1_555
H10 C11 1_555 1_555
C12 S1 1_555 1_555
C13 C12 1_555 1_555
H11 C13 1_555 1_555
C14 C9 1_555 1_555
H12 C14 1_555 1_555
C15 S1 1_555 1_555
H13 C15 1_555 1_555
H14 C15 1_555 1_555
H15 C15 1_555 1_555
C16 C7 1_555 1_555
C17 C16 1_555 1_555
H16 C17 1_555 1_555
C18 C17 1_555 1_555
H17 C18 1_555 1_555
C19 S2 1_555 1_555
C20 C19 1_555 1_555
H18 C20 1_555 1_555
C21 C16 1_555 1_555
H19 C21 1_555 1_555
C22 S2 1_555 1_555
H20 C22 1_555 1_555
H21 C22 1_555 1_555
H22 C22 1_555 1_555
O10 H23 1_555 1_555
H24 O10 1_555 1_555
C3 C8 1_555 1_555
C4 C5 1_555 1_555
C5 C6 1_555 1_555
C11 C12 1_555 1_555
C13 C14 1_555 1_555
C18 C19 1_555 1_555
C20 C21 1_555 1_555

#END
