
#######################################################################
#
#                 Cambridge Crystallographic Data Centre
#                                CCDC 
#
#######################################################################
#
# If this CIF has been generated from an entry in the Cambridge 
# Structural Database, then it will include bibliographic, chemical, 
# crystal, experimental, refinement or atomic coordinate data resulting 
# from the CCDC's data processing and validation procedures.
#
#######################################################################

data_VUZDUQ
_chemical_formula_moiety         'C22 H25 F5 N4 O9'
_chemical_name_systematic        
Pentafluorophenyl(3R,4R,5S)-5-([(3R,4R,5S)-5-azidomethyl-3,4-dimethoxy-2,3,4,5-tetrahydrofuran-3-carboxamido]methyl)-3,4-dimethoxy-2,3,4,5-tetrahydrofuran-3-carboxylate
_symmetry_cell_setting           monoclinic
_symmetry_space_group_name_H-M   'C 2'
_symmetry_Int_Tables_number      5
_space_group_name_Hall           'C 2y'
loop_
_symmetry_equiv_pos_site_id
_symmetry_equiv_pos_as_xyz
1 x,y,z
2 1/2+x,1/2+y,z
3 -x,y,-z
4 1/2-x,1/2+y,-z
_cell_length_a                   26.8973(4)
_cell_length_b                   7.90700(10)
_cell_length_c                   24.7763(5)
_cell_angle_alpha                90
_cell_angle_beta                 102.4436(6)
_cell_angle_gamma                90
_cell_volume                     5145.56
_exptl_crystal_colour            colorless
_exptl_crystal_description       plate
_chemical_melting_point          '364.2 K'
_cell_formula_units_Z            8
_exptl_crystal_recrystallization_method 'ethyl acetate/petroleum ether(60-80)'
loop_
_atom_site_label
_atom_site_type_symbol
_atom_site_fract_x
_atom_site_fract_y
_atom_site_fract_z
C1 C 0.4720(2) 0.0750(9) 0.3805(2)
O1 O 0.44018(13) 0.1870(6) 0.34614(16)
C2 C 0.38899(19) 0.1640(8) 0.3421(2)
C3 C 0.35842(18) 0.2805(7) 0.2970(2)
C4 C 0.30354(19) 0.2195(8) 0.2792(3)
O2 O 0.27353(15) 0.3616(6) 0.2641(2)
C5 C 0.3045(2) 0.5121(7) 0.2749(2)
C6 C 0.35104(18) 0.4609(7) 0.3173(2)
O3 O 0.34056(13) 0.4538(6) 0.37104(15)
C7 C 0.3731(3) 0.5595(13) 0.4103(3)
C8 C 0.2724(2) 0.6557(8) 0.2890(3)
N1 N 0.23588(15) 0.7098(6) 0.2389(2)
C9 C 0.2519(2) 0.8066(7) 0.2025(3)
C10 C 0.21709(19) 0.8268(7) 0.1449(3)
C11 C 0.2357(2) 0.7039(8) 0.1041(2)
O4 O 0.27759(15) 0.6052(6) 0.13194(17)
C12 C 0.2760(5) 0.4357(10) 0.1194(5)
C13 C 0.2499(2) 0.8238(9) 0.0613(3)
O5 O 0.2628(2) 0.9862(7) 0.0925(2)
C14 C 0.2237(3) 1.0042(8) 0.1210(4)
C15 C 0.2956(3) 0.7817(11) 0.0418(3)
N2 N 0.3103(2) 0.9143(9) 0.0060(2)
N3 N 0.33914(17) 1.0349(8) 0.0317(2)
N4 N 0.3598(3) 1.1349(12) 0.0451(4)
O6 O 0.16578(14) 0.7812(6) 0.14434(18)
C16 C 0.1388(3) 0.9057(11) 0.1697(3)
O7 O 0.29382(14) 0.8802(6) 0.2127(2)
O8 O 0.38321(12) 0.3016(5) 0.25249(14)
C17 C 0.38704(19) 0.1522(8) 0.2206(2)
O9 O 0.37183(15) 0.0637(7) 0.3697(2)
C18 C 0.4741(3) -0.0927(9) 0.3682(3)
C19 C 0.5094(3) -0.1973(12) 0.4007(4)
C20 C 0.5434(3) -0.1318(14) 0.4461(3)
C21 C 0.5418(2) 0.0377(14) 0.4584(3)
C22 C 0.5070(2) 0.1392(11) 0.4262(3)
F1 F 0.50605(14) 0.3058(7) 0.43773(17)
F2 F 0.57451(14) 0.1043(9) 0.50139(17)
F3 F 0.5772(2) -0.2327(9) 0.4771(2)
F4 F 0.5108(3) -0.3608(7) 0.3887(3)
F5 F 0.44264(17) -0.1554(6) 0.32414(17)
H1 H 0.2930 0.1663 0.3101
H2 H 0.2992 0.1399 0.2486
H3 H 0.3164 0.5395 0.2409
H4 H 0.3792 0.5329 0.3159
H5 H 0.3618 0.5613 0.4445
H6 H 0.4076 0.5171 0.4164
H7 H 0.3719 0.6722 0.3955
H8 H 0.2539 0.6184 0.3168
H9 H 0.2937 0.7512 0.3025
H10 H 0.2073 0.6292 0.0873
H11 H 0.3063 0.3811 0.1416
H12 H 0.2756 0.4218 0.0805
H13 H 0.2452 0.3864 0.1274
H14 H 0.2193 0.8517 0.0330
H15 H 0.2328 1.0904 0.1501
H16 H 0.1922 1.0373 0.0961
H17 H 0.2902 0.6730 0.0219
H18 H 0.3233 0.7699 0.0747
H19 H 0.1043 0.8660 0.1674
H20 H 0.1557 0.9180 0.2081
H21 H 0.1385 1.0131 0.1508
H22 H 0.4064 0.1752 0.1929
H23 H 0.4042 0.0641 0.2445
H24 H 0.3534 0.1133 0.2030
H25 H 0.2049 0.6703 0.2314
C23 C 0.5021(3) 0.2319(13) 0.0929(4)
O10 O 0.49194(18) 0.4042(8) 0.0831(2)
C24 C 0.4454(2) 0.4581(10) 0.0950(3)
C25 C 0.45486(17) 0.5879(7) 0.1427(2)
C26 C 0.4646(3) 0.7465(9) 0.1117(2)
O11 O 0.4268(2) 0.7415(9) 0.06111(19)
C27 C 0.4153(2) 0.5647(11) 0.0463(2)
C28 C 0.4308(5) 0.575(2) -0.0090(4)
N5 N 0.3979(5) 0.6849(15) -0.0521(5)
N6 N 0.4064(5) 0.8486(15) -0.0497(5)
N7 N 0.4131(5) 0.9747(17) -0.0512(5)
C29 C 0.49815(17) 0.5442(7) 0.1907(2)
N8 N 0.48531(14) 0.4574(6) 0.23224(18)
C30 C 0.5243(2) 0.3948(8) 0.2780(2)
C31 C 0.55076(18) 0.2409(7) 0.2601(2)
O12 O 0.51648(13) 0.0987(5) 0.25502(17)
C32 C 0.54569(18) -0.0488(8) 0.2533(2)
C33 C 0.60205(17) -0.0040(7) 0.2762(2)
C34 C 0.59836(18) 0.1781(7) 0.2994(2)
O13 O 0.59212(13) 0.1648(5) 0.35444(15)
C35 C 0.6201(2) 0.2895(9) 0.3900(2)
C36 C 0.62809(17) -0.1243(7) 0.3212(2)
O14 O 0.67965(12) -0.0920(5) 0.33282(14)
C37 C 0.71065(17) -0.1939(7) 0.3717(2)
C38 C 0.71597(19) -0.3638(7) 0.3636(2)
C39 C 0.7505(2) -0.4588(8) 0.4010(2)
C40 C 0.7793(2) -0.3825(8) 0.4467(2)
C41 C 0.7739(2) -0.2145(8) 0.4554(2)
C42 C 0.73976(19) -0.1191(7) 0.4179(2)
F6 F 0.73630(13) 0.0473(5) 0.42632(14)
F7 F 0.80219(14) -0.1370(6) 0.50043(14)
F8 F 0.81310(13) -0.4746(5) 0.48326(15)
F9 F 0.75578(15) -0.6241(5) 0.39232(16)
F10 F 0.68948(12) -0.4392(5) 0.31769(13)
O15 O 0.60865(14) -0.2288(5) 0.34484(17)
O16 O 0.63024(12) 0.0180(5) 0.23410(14)
C43 C 0.63836(19) -0.1350(8) 0.2052(2)
O17 O 0.54240(12) 0.5832(5) 0.19084(17)
O18 O 0.40702(12) 0.5920(5) 0.15871(14)
C44 C 0.3985(2) 0.7382(9) 0.1890(3)
H26 H 0.5378 0.2119 0.0944
H27 H 0.4817 0.1663 0.0638
H28 H 0.4944 0.2023 0.1280
H29 H 0.4263 0.3604 0.1032
H30 H 0.4993 0.7468 0.1062
H31 H 0.4591 0.8459 0.1319
H32 H 0.5084 0.3635 0.3083
H33 H 0.5502 0.4822 0.2899
H34 H 0.5596 0.2633 0.2239
H35 H 0.5413 -0.0905 0.2154
H36 H 0.5354 -0.1370 0.2760
H37 H 0.6282 0.2477 0.2973
H38 H 0.6117 0.2792 0.4257
H39 H 0.6113 0.4009 0.3753
H40 H 0.6556 0.2705 0.3940
H41 H 0.6531 -0.1053 0.1746
H42 H 0.6069 -0.1947 0.1926
H43 H 0.6617 -0.2071 0.2299
H44 H 0.3708 0.7169 0.2070
H45 H 0.3899 0.8332 0.1646
H46 H 0.4291 0.7634 0.2163
H47 H 0.4538 0.4325 0.2307
H48 H 0.4310 0.4576 -0.0243
H49 H 0.4661 0.6221 -0.0016
H50 H 0.3782 0.5463 0.0443
C45? C 0.4201(5) 0.4784(19) -0.0043(4)
H51? H 0.4058 0.3615 -0.0054
H52? H 0.4568 0.4724 -0.0061
N9? N 0.3914(4) 0.581(2) -0.0501(4)
N10? N 0.4109(6) 0.730(3) -0.0551(7)
N11? N 0.4213(7) 0.848(2) -0.0642(7)
loop_
_geom_bond_atom_site_label_1
_geom_bond_atom_site_label_2
_geom_bond_site_symmetry_1
_geom_bond_site_symmetry_2
C1 O1 1_555 1_555
O1 C2 1_555 1_555
C2 C3 1_555 1_555
C3 C4 1_555 1_555
C4 O2 1_555 1_555
O2 C5 1_555 1_555
C5 C6 1_555 1_555
C6 C3 1_555 1_555
O3 C6 1_555 1_555
C7 O3 1_555 1_555
C8 C5 1_555 1_555
N1 C8 1_555 1_555
C9 N1 1_555 1_555
C10 C9 1_555 1_555
C11 C10 1_555 1_555
O4 C11 1_555 1_555
C12 O4 1_555 1_555
C13 C11 1_555 1_555
O5 C13 1_555 1_555
C14 C10 1_555 1_555
C15 C13 1_555 1_555
N2 C15 1_555 1_555
N3 N2 1_555 1_555
N4 N3 1_555 1_555
O6 C10 1_555 1_555
C16 O6 1_555 1_555
O7 C9 1_555 1_555
O8 C3 1_555 1_555
C17 O8 1_555 1_555
O9 C2 1_555 1_555
C18 C1 1_555 1_555
C19 C18 1_555 1_555
C20 C19 1_555 1_555
C21 C20 1_555 1_555
C22 C1 1_555 1_555
F1 C22 1_555 1_555
F2 C21 1_555 1_555
F3 C20 1_555 1_555
F4 C19 1_555 1_555
F5 C18 1_555 1_555
H1 C4 1_555 1_555
H2 C4 1_555 1_555
H3 C5 1_555 1_555
H4 C6 1_555 1_555
H5 C7 1_555 1_555
H6 C7 1_555 1_555
H7 C7 1_555 1_555
H8 C8 1_555 1_555
H9 C8 1_555 1_555
H10 C11 1_555 1_555
H11 C12 1_555 1_555
H12 C12 1_555 1_555
H13 C12 1_555 1_555
H14 C13 1_555 1_555
H15 C14 1_555 1_555
H16 C14 1_555 1_555
H17 C15 1_555 1_555
H18 C15 1_555 1_555
H19 C16 1_555 1_555
H20 C16 1_555 1_555
H21 C16 1_555 1_555
H22 C17 1_555 1_555
H23 C17 1_555 1_555
H24 C17 1_555 1_555
H25 N1 1_555 1_555
C23 O10 1_555 1_555
O10 C24 1_555 1_555
C24 C25 1_555 1_555
C25 C26 1_555 1_555
C26 O11 1_555 1_555
O11 C27 1_555 1_555
C27 C24 1_555 1_555
C28 C27 1_555 1_555
N5 C28 1_555 1_555
N6 N5 1_555 1_555
N7 N6 1_555 1_555
C29 C25 1_555 1_555
N8 C29 1_555 1_555
C30 N8 1_555 1_555
C31 C30 1_555 1_555
O12 C31 1_555 1_555
C32 O12 1_555 1_555
C33 C32 1_555 1_555
C34 C31 1_555 1_555
O13 C34 1_555 1_555
C35 O13 1_555 1_555
C36 C33 1_555 1_555
O14 C36 1_555 1_555
C37 O14 1_555 1_555
C38 C37 1_555 1_555
C39 C38 1_555 1_555
C40 C39 1_555 1_555
C41 C40 1_555 1_555
C42 C37 1_555 1_555
F6 C42 1_555 1_555
F7 C41 1_555 1_555
F8 C40 1_555 1_555
F9 C39 1_555 1_555
F10 C38 1_555 1_555
O15 C36 1_555 1_555
O16 C33 1_555 1_555
C43 O16 1_555 1_555
O17 C29 1_555 1_555
O18 C25 1_555 1_555
C44 O18 1_555 1_555
H26 C23 1_555 1_555
H27 C23 1_555 1_555
H28 C23 1_555 1_555
H29 C24 1_555 1_555
H30 C26 1_555 1_555
H31 C26 1_555 1_555
H32 C30 1_555 1_555
H33 C30 1_555 1_555
H34 C31 1_555 1_555
H35 C32 1_555 1_555
H36 C32 1_555 1_555
H37 C34 1_555 1_555
H38 C35 1_555 1_555
H39 C35 1_555 1_555
H40 C35 1_555 1_555
H41 C43 1_555 1_555
H42 C43 1_555 1_555
H43 C43 1_555 1_555
H44 C44 1_555 1_555
H45 C44 1_555 1_555
H46 C44 1_555 1_555
H47 N8 1_555 1_555
H48 C28 1_555 1_555
H49 C28 1_555 1_555
H50 C27 1_555 1_555
O5 C14 1_555 1_555
C21 C22 1_555 1_555
C33 C34 1_555 1_555
C41 C42 1_555 1_555

#END
