
#######################################################################
#
#                 Cambridge Crystallographic Data Centre
#                                CCDC 
#
#######################################################################
#
# If this CIF has been generated from an entry in the Cambridge 
# Structural Database, then it will include bibliographic, chemical, 
# crystal, experimental, refinement or atomic coordinate data resulting 
# from the CCDC's data processing and validation procedures.
#
#######################################################################

data_VUZHUU
_chemical_formula_moiety         'C25 H27 N7 O2,H2 O1'
_chemical_name_systematic        
"(N^2^,N^2'^-bis(4-(Dimethylamino)benzylidene)pyridine-2,6-dicarbohydrazide) monohydrate"
_symmetry_cell_setting           monoclinic
_symmetry_space_group_name_H-M   'C 2/c'
_symmetry_Int_Tables_number      15
_space_group_name_Hall           '-C 2yn'
loop_
_symmetry_equiv_pos_site_id
_symmetry_equiv_pos_as_xyz
1 x,y,z
2 -x,y,1/2-z
3 1/2+x,1/2+y,z
4 1/2-x,1/2+y,1/2-z
5 -x,-y,-z
6 x,-y,1/2+z
7 1/2-x,1/2-y,-z
8 1/2+x,1/2-y,1/2+z
_cell_length_a                   8.5718(11)
_cell_length_b                   10.2802(14)
_cell_length_c                   27.112(3)
_cell_angle_alpha                90
_cell_angle_beta                 97.8650(10)
_cell_angle_gamma                90
_cell_volume                     2366.63
_exptl_crystal_colour            red
_exptl_crystal_description       block
_cell_formula_units_Z            4
loop_
_atom_site_label
_atom_site_type_symbol
_atom_site_fract_x
_atom_site_fract_y
_atom_site_fract_z
N1 N 0.0000 0.0318(3) 0.2500
N2 N 0.1517(3) 0.1645(2) 0.18533(9)
H1 H 0.0721 0.1938 0.1981
N3 N 0.2319(3) 0.2465(2) 0.15743(8)
N4 N 0.4368(3) 0.7693(2) 0.05148(10)
O1 O 0.3055(3) -0.0104(2) 0.17635(9)
C1 C 0.1949(3) 0.0402(3) 0.19306(10)
C2 C 0.0935(3) -0.0351(3) 0.22381(10)
C3 C 0.0976(3) -0.1702(3) 0.22298(11)
H3 H 0.1650 -0.2141 0.2046
C4 C 0.0000 -0.2371(4) 0.2500
H4 H 0.0000 -0.3276 0.2500
C5 C 0.1730(3) 0.3604(3) 0.15200(10)
H5 H 0.0817 0.3786 0.1657
C6 C 0.2429(3) 0.4630(3) 0.12527(10)
C7 C 0.3772(3) 0.4455(3) 0.10227(11)
H6 H 0.4255 0.3643 0.1035
C8 C 0.4387(3) 0.5447(3) 0.07816(11)
H7 H 0.5276 0.5292 0.0628
C9 C 0.3728(3) 0.6699(3) 0.07561(10)
C10 C 0.2390(3) 0.6870(3) 0.09890(11)
H8 H 0.1917 0.7685 0.0982
C11 C 0.1755(3) 0.5864(3) 0.12276(11)
H9 H 0.0854 0.6010 0.1376
C12 C 0.5716(4) 0.7484(3) 0.02620(13)
H10 H 0.6567 0.7141 0.0492
H11 H 0.6031 0.8295 0.0130
H12 H 0.5450 0.6877 -0.0005
C13 C 0.3639(4) 0.8964(3) 0.04783(13)
H13 H 0.2669 0.8923 0.0255
H14 H 0.4335 0.9576 0.0354
H15 H 0.3430 0.9235 0.0802
N2A N -0.1517(3) 0.1645(2) 0.31467(9)
H1A H -0.0721 0.1938 0.3019
N3A N -0.2319(3) 0.2465(2) 0.34257(8)
N4A N -0.4368(3) 0.7693(2) 0.44852(10)
O1A O -0.3055(3) -0.0104(2) 0.32365(9)
C1A C -0.1949(3) 0.0402(3) 0.30694(10)
C2A C -0.0935(3) -0.0351(3) 0.27619(10)
C3A C -0.0976(3) -0.1702(3) 0.27702(11)
H3A H -0.1650 -0.2141 0.2954
C5A C -0.1730(3) 0.3604(3) 0.34800(10)
H5A H -0.0817 0.3786 0.3343
C6A C -0.2429(3) 0.4630(3) 0.37473(10)
C7A C -0.3772(3) 0.4455(3) 0.39773(11)
H6A H -0.4255 0.3643 0.3965
C8A C -0.4387(3) 0.5447(3) 0.42184(11)
H7A H -0.5276 0.5292 0.4372
C9A C -0.3728(3) 0.6699(3) 0.42439(10)
C10A C -0.2390(3) 0.6870(3) 0.40110(11)
H8A H -0.1917 0.7685 0.4018
C11A C -0.1755(3) 0.5864(3) 0.37724(11)
H9A H -0.0854 0.6010 0.3624
C12A C -0.5716(4) 0.7484(3) 0.47380(13)
H10A H -0.6567 0.7141 0.4508
H11A H -0.6031 0.8295 0.4870
H12A H -0.5450 0.6877 0.5005
C13A C -0.3639(4) 0.8964(3) 0.45217(13)
H13A H -0.2669 0.8923 0.4745
H14A H -0.4335 0.9576 0.4646
H15A H -0.3430 0.9235 0.4198
O2 O 1.0000 0.3442(4) 0.2500
H2 H 0.934(4) 0.398(3) 0.2352(16)
H2A H 1.066(4) 0.398(3) 0.2648(16)
loop_
_geom_bond_atom_site_label_1
_geom_bond_atom_site_label_2
_geom_bond_site_symmetry_1
_geom_bond_site_symmetry_2
N1 C2 1_555 1_555
N2 H1 1_555 1_555
N3 N2 1_555 1_555
N4 C9 1_555 1_555
O1 C1 1_555 1_555
O2 H2 1_555 1_555
C1 N2 1_555 1_555
C2 C1 1_555 1_555
C3 C2 1_555 1_555
H3 C3 1_555 1_555
C4 C3 1_555 1_555
H4 C4 1_555 1_555
C5 N3 1_555 1_555
H5 C5 1_555 1_555
C6 C5 1_555 1_555
C7 C6 1_555 1_555
H6 C7 1_555 1_555
C8 C7 1_555 1_555
H7 C8 1_555 1_555
C9 C8 1_555 1_555
C10 C9 1_555 1_555
H8 C10 1_555 1_555
C11 C6 1_555 1_555
H9 C11 1_555 1_555
C12 N4 1_555 1_555
H10 C12 1_555 1_555
H11 C12 1_555 1_555
H12 C12 1_555 1_555
C13 N4 1_555 1_555
H13 C13 1_555 1_555
H14 C13 1_555 1_555
H15 C13 1_555 1_555
N2A H1A 1_555 1_555
N3A N2A 1_555 1_555
N4A C9A 1_555 1_555
O1A C1A 1_555 1_555
H2A O2 1_555 1_555
C1A N2A 1_555 1_555
C2A N1 1_555 1_555
C3A C4 1_555 1_555
H3A C3A 1_555 1_555
C5A N3A 1_555 1_555
H5A C5A 1_555 1_555
C6A C5A 1_555 1_555
C7A C6A 1_555 1_555
H6A C7A 1_555 1_555
C8A C7A 1_555 1_555
H7A C8A 1_555 1_555
C9A C8A 1_555 1_555
C10A C9A 1_555 1_555
H8A C10A 1_555 1_555
C11A C6A 1_555 1_555
H9A C11A 1_555 1_555
C12A N4A 1_555 1_555
H10A C12A 1_555 1_555
H11A C12A 1_555 1_555
H12A C12A 1_555 1_555
C13A N4A 1_555 1_555
H13A C13A 1_555 1_555
H14A C13A 1_555 1_555
H15A C13A 1_555 1_555
C10 C11 1_555 1_555
C1A C2A 1_555 1_555
C2A C3A 1_555 1_555
C10A C11A 1_555 1_555

#END
