
#######################################################################
#
#                 Cambridge Crystallographic Data Centre
#                                CCDC 
#
#######################################################################
#
# If this CIF has been generated from an entry in the Cambridge 
# Structural Database, then it will include bibliographic, chemical, 
# crystal, experimental, refinement or atomic coordinate data resulting 
# from the CCDC's data processing and validation procedures.
#
#######################################################################

data_VUZJEG
_chemical_formula_moiety         'C29 H23 N3'
_chemical_name_systematic        
5-(4-Methylphenyl)-2,3-diphenyl-5,6-dihydroimidazo[1,2-c]quinazoline
_symmetry_cell_setting           monoclinic
_symmetry_space_group_name_H-M   'P 21/c'
_symmetry_Int_Tables_number      14
_space_group_name_Hall           '-P 2ybc'
loop_
_symmetry_equiv_pos_site_id
_symmetry_equiv_pos_as_xyz
1 x,y,z
2 -x,1/2+y,1/2-z
3 -x,-y,-z
4 x,1/2-y,1/2+z
_cell_length_a                   16.006(4)
_cell_length_b                   11.382(3)
_cell_length_c                   11.906(3)
_cell_angle_alpha                90
_cell_angle_beta                 91.810(4)
_cell_angle_gamma                90
_cell_volume                     2167.96
_exptl_crystal_colour            yellow
_exptl_crystal_description       block
_cell_formula_units_Z            4
loop_
_atom_site_label
_atom_site_type_symbol
_atom_site_fract_x
_atom_site_fract_y
_atom_site_fract_z
N1 N 0.14553(14) 0.83172(18) 0.85068(18)
H1 H 0.1495 0.8943 0.8910
N2 N 0.21849(13) 0.69225(17) 0.74512(16)
N3 N 0.16675(13) 0.59511(17) 0.59709(16)
C1 C 0.21383(16) 0.7487(2) 0.8563(2)
H2 H 0.2657 0.7927 0.8704
C2 C 0.28310(15) 0.6234(2) 0.7078(2)
C3 C 0.24973(16) 0.5649(2) 0.6166(2)
C4 C 0.15000(16) 0.6717(2) 0.67723(19)
C5 C 0.07381(16) 0.7354(2) 0.6952(2)
C6 C 0.00388(17) 0.7246(2) 0.6248(2)
H3 H 0.0039 0.6710 0.5658
C7 C -0.06578(18) 0.7928(3) 0.6415(3)
H4 H -0.1127 0.7855 0.5939
C8 C -0.06544(19) 0.8721(3) 0.7295(3)
H5 H -0.1124 0.9181 0.7407
C9 C 0.00313(19) 0.8838(2) 0.8003(2)
H6 H 0.0024 0.9371 0.8594
C10 C 0.07411(17) 0.8157(2) 0.7839(2)
C11 C 0.20700(16) 0.6564(2) 0.9477(2)
C12 C 0.13376(18) 0.5960(2) 0.9621(2)
H7 H 0.0878 0.6108 0.9144
C13 C 0.1277(2) 0.5138(2) 1.0465(2)
H8 H 0.0775 0.4742 1.0552
C14 C 0.1946(2) 0.4892(2) 1.1179(2)
C15 C 0.2675(2) 0.5504(3) 1.1031(2)
H9 H 0.3134 0.5355 1.1508
C16 C 0.27413(18) 0.6330(2) 1.0196(2)
H10 H 0.3242 0.6732 1.0116
C17 C 0.1870(3) 0.4005(3) 1.2109(3)
H11 H 0.1699 0.4394 1.2779
H12 H 0.2401 0.3631 1.2249
H13 H 0.1461 0.3424 1.1890
C18 C 0.36672(16) 0.6215(2) 0.7620(2)
C19 C 0.41102(18) 0.7239(3) 0.7841(2)
H14 H 0.3885 0.7957 0.7613
C20 C 0.48788(19) 0.7208(3) 0.8393(3)
H15 H 0.5163 0.7904 0.8552
C21 C 0.5223(2) 0.6158(3) 0.8708(3)
H16 H 0.5742 0.6137 0.9083
C22 C 0.48048(19) 0.5135(3) 0.8470(3)
H17 H 0.5046 0.4419 0.8673
C23 C 0.40312(17) 0.5155(3) 0.7934(2)
H18 H 0.3751 0.4454 0.7781
C24 C 0.29181(16) 0.4794(2) 0.5439(2)
C25 C 0.25755(18) 0.3695(2) 0.5252(2)
H19 H 0.2068 0.3504 0.5563
C26 C 0.2981(2) 0.2877(3) 0.4605(3)
H20 H 0.2755 0.2131 0.4501
C27 C 0.3716(2) 0.3166(3) 0.4118(3)
H21 H 0.3985 0.2619 0.3677
C28 C 0.40545(19) 0.4259(3) 0.4280(2)
H22 H 0.4551 0.4457 0.3942
C29 C 0.36592(17) 0.5066(2) 0.4945(2)
H23 H 0.3897 0.5804 0.5061
loop_
_geom_bond_atom_site_label_1
_geom_bond_atom_site_label_2
_geom_bond_site_symmetry_1
_geom_bond_site_symmetry_2
N1 H1 1_555 1_555
N2 C1 1_555 1_555
N3 C3 1_555 1_555
C1 N1 1_555 1_555
H2 C1 1_555 1_555
C2 N2 1_555 1_555
C3 C2 1_555 1_555
C4 N2 1_555 1_555
C5 C4 1_555 1_555
C6 C5 1_555 1_555
H3 C6 1_555 1_555
C7 C6 1_555 1_555
H4 C7 1_555 1_555
C8 C7 1_555 1_555
H5 C8 1_555 1_555
C9 C8 1_555 1_555
H6 C9 1_555 1_555
C10 N1 1_555 1_555
C11 C1 1_555 1_555
C12 C11 1_555 1_555
H7 C12 1_555 1_555
C13 C12 1_555 1_555
H8 C13 1_555 1_555
C14 C13 1_555 1_555
C15 C14 1_555 1_555
H9 C15 1_555 1_555
C16 C11 1_555 1_555
H10 C16 1_555 1_555
C17 C14 1_555 1_555
H11 C17 1_555 1_555
H12 C17 1_555 1_555
H13 C17 1_555 1_555
C18 C2 1_555 1_555
C19 C18 1_555 1_555
H14 C19 1_555 1_555
C20 C19 1_555 1_555
H15 C20 1_555 1_555
C21 C20 1_555 1_555
H16 C21 1_555 1_555
C22 C21 1_555 1_555
H17 C22 1_555 1_555
C23 C18 1_555 1_555
H18 C23 1_555 1_555
C24 C3 1_555 1_555
C25 C24 1_555 1_555
H19 C25 1_555 1_555
C26 C25 1_555 1_555
H20 C26 1_555 1_555
C27 C26 1_555 1_555
H21 C27 1_555 1_555
C28 C27 1_555 1_555
H22 C28 1_555 1_555
C29 C24 1_555 1_555
H23 C29 1_555 1_555
N3 C4 1_555 1_555
C5 C10 1_555 1_555
C9 C10 1_555 1_555
C15 C16 1_555 1_555
C22 C23 1_555 1_555
C28 C29 1_555 1_555

#END
