
#######################################################################
#
#                 Cambridge Crystallographic Data Centre
#                                CCDC 
#
#######################################################################
#
# If this CIF has been generated from an entry in the Cambridge 
# Structural Database, then it will include bibliographic, chemical, 
# crystal, experimental, refinement or atomic coordinate data resulting 
# from the CCDC's data processing and validation procedures.
#
#######################################################################

data_VUZKOR
_chemical_formula_moiety         'C15 H13 Cl1 N2 O2,C1 H4 O1'
_chemical_name_systematic        
"4-Chloro-N'-(4-methoxybenzylidene)benzohydrazide methanol solvate"
_symmetry_cell_setting           monoclinic
_symmetry_space_group_name_H-M   'P 21'
_symmetry_Int_Tables_number      4
_space_group_name_Hall           'P 2yb'
loop_
_symmetry_equiv_pos_site_id
_symmetry_equiv_pos_as_xyz
1 x,y,z
2 -x,1/2+y,-z
_cell_length_a                   10.914(3)
_cell_length_b                   6.459(2)
_cell_length_c                   11.358(2)
_cell_angle_alpha                90
_cell_angle_beta                 93.000(3)
_cell_angle_gamma                90
_cell_volume                     799.568
_exptl_crystal_colour            colorless
_exptl_crystal_description       block
_cell_formula_units_Z            2
loop_
_atom_site_label
_atom_site_type_symbol
_atom_site_fract_x
_atom_site_fract_y
_atom_site_fract_z
Cl1 Cl 0.58789(14) 1.0709(3) 1.25398(13)
O1 O 0.7358(4) 0.4112(6) 0.8320(3)
O2 O 1.0029(3) 0.3682(6) 0.1329(3)
N1 N 0.7495(4) 0.7047(7) 0.7275(4)
H1 H 0.7447 0.8376 0.7257
N2 N 0.7810(4) 0.5948(7) 0.6283(4)
C1 C 0.6292(5) 0.9354(10) 1.1301(5)
C2 C 0.6174(5) 1.0320(9) 1.0215(5)
H2 H 0.5886 1.1673 1.0156
C3 C 0.6487(5) 0.9259(9) 0.9215(5)
H3 H 0.6402 0.9908 0.8484
C4 C 0.6922(4) 0.7256(8) 0.9284(5)
C5 C 0.7063(5) 0.6364(9) 1.0389(5)
H4 H 0.7393 0.5039 1.0456
C6 C 0.6732(5) 0.7365(10) 1.1399(5)
H5 H 0.6805 0.6708 1.2128
C7 C 0.7264(5) 0.5997(10) 0.8265(5)
C8 C 0.8292(5) 0.7001(9) 0.5487(5)
H6 H 0.8390 0.8418 0.5605
C9 C 0.8700(4) 0.6108(9) 0.4395(4)
C10 C 0.9473(5) 0.7190(8) 0.3688(5)
H7 H 0.9700 0.8532 0.3901
C11 C 0.9914(5) 0.6360(9) 0.2693(5)
H8 H 1.0449 0.7116 0.2248
C12 C 0.9561(5) 0.4384(9) 0.2346(5)
C13 C 0.8792(5) 0.3255(8) 0.3021(4)
H9 H 0.8558 0.1925 0.2791
C14 C 0.8365(5) 0.4103(9) 0.4045(5)
H10 H 0.7852 0.3329 0.4503
C15 C 0.9668(6) 0.1704(10) 0.0893(5)
H11 H 0.9827 0.0682 0.1496
H12 H 1.0125 0.1372 0.0218
H13 H 0.8807 0.1718 0.0670
O3 O 0.7025(4) 0.1217(6) 0.6473(4)
H14 H 0.7236 0.2346 0.6745
C16 C 0.5831(6) 0.1364(13) 0.5954(5)
H15 H 0.5772 0.2565 0.5456
H16 H 0.5254 0.1481 0.6560
H17 H 0.5651 0.0147 0.5491
loop_
_geom_bond_atom_site_label_1
_geom_bond_atom_site_label_2
_geom_bond_site_symmetry_1
_geom_bond_site_symmetry_2
Cl1 C1 1_555 1_555
O1 C7 1_555 1_555
O2 C12 1_555 1_555
N1 H1 1_555 1_555
N2 N1 1_555 1_555
C1 C2 1_555 1_555
C2 H2 1_555 1_555
C3 C2 1_555 1_555
H3 C3 1_555 1_555
C4 C3 1_555 1_555
C5 C4 1_555 1_555
H4 C5 1_555 1_555
C6 C1 1_555 1_555
H5 C6 1_555 1_555
C7 N1 1_555 1_555
C8 N2 1_555 1_555
H6 C8 1_555 1_555
C9 C8 1_555 1_555
C10 C9 1_555 1_555
H7 C10 1_555 1_555
C11 C10 1_555 1_555
H8 C11 1_555 1_555
C12 C11 1_555 1_555
C13 C12 1_555 1_555
H9 C13 1_555 1_555
C14 C9 1_555 1_555
H10 C14 1_555 1_555
C15 O2 1_555 1_555
H11 C15 1_555 1_555
H12 C15 1_555 1_555
H13 C15 1_555 1_555
O3 H14 1_555 1_555
C16 O3 1_555 1_555
H15 C16 1_555 1_555
H16 C16 1_555 1_555
H17 C16 1_555 1_555
C4 C7 1_555 1_555
C5 C6 1_555 1_555
C13 C14 1_555 1_555

#END
