
#######################################################################
#
#                 Cambridge Crystallographic Data Centre
#                                CCDC 
#
#######################################################################
#
# If this CIF has been generated from an entry in the Cambridge 
# Structural Database, then it will include bibliographic, chemical, 
# crystal, experimental, refinement or atomic coordinate data resulting 
# from the CCDC's data processing and validation procedures.
#
#######################################################################

data_VUZMIM
_chemical_formula_moiety         'C26 H28 N8'
_chemical_name_systematic        
trans-1,2-bis(5-Cyano-2-(diethylamino)-2H-indazol-3-yl)ethene
_symmetry_cell_setting           monoclinic
_symmetry_space_group_name_H-M   'P 21/c'
_symmetry_Int_Tables_number      14
_space_group_name_Hall           '-P 2ybc'
loop_
_symmetry_equiv_pos_site_id
_symmetry_equiv_pos_as_xyz
1 x,y,z
2 -x,1/2+y,1/2-z
3 -x,-y,-z
4 x,1/2-y,1/2+z
_cell_length_a                   13.899(2)
_cell_length_b                   13.485(2)
_cell_length_c                   14.436(3)
_cell_angle_alpha                90
_cell_angle_beta                 110.71(2)
_cell_angle_gamma                90
_cell_volume                     2530.87
_exptl_crystal_colour            yellow
_exptl_crystal_description       tablet
_chemical_melting_point          '224.6-226.4 deg.C'
_cell_formula_units_Z            4
_exptl_crystal_recrystallization_method ethanol
loop_
_atom_site_label
_atom_site_type_symbol
_atom_site_fract_x
_atom_site_fract_y
_atom_site_fract_z
N1 N 0.8222(3) 0.1149(2) 0.3834(3)
N2 N 0.8502(3) 0.0179(3) 0.4012(3)
N3 N 0.8869(4) 0.1892(3) 0.4411(3)
N4 N 0.4660(4) -0.1675(3) 0.0181(3)
N5 N 0.6898(3) 0.4948(3) 0.2974(3)
N6 N 0.6297(3) 0.5712(3) 0.2476(4)
N7 N 0.7816(4) 0.5096(3) 0.3761(4)
N8 N 0.2515(4) 0.3028(4) -0.0644(4)
C1 C 0.6150(3) -0.0981(3) 0.1689(3)
C2 C 0.6228(3) 0.0020(3) 0.1840(3)
C3 C 0.7048(3) 0.0372(3) 0.2644(3)
C4 C 0.7771(4) -0.0292(3) 0.3280(3)
C5 C 0.7664(4) -0.1325(3) 0.3104(4)
C6 C 0.6866(4) -0.1659(3) 0.2332(4)
C7 C 0.7369(3) 0.1317(3) 0.3029(3)
C8 C 0.6883(3) 0.2249(3) 0.2673(3)
C9 C 0.7097(3) 0.3149(3) 0.3065(3)
C10 C 0.6528(4) 0.4029(3) 0.2632(4)
C11 C 0.5608(4) 0.4213(3) 0.1851(4)
C12 C 0.4822(4) 0.3622(3) 0.1218(3)
C13 C 0.4000(4) 0.4070(4) 0.0530(4)
C14 C 0.3932(4) 0.5119(4) 0.0446(4)
C15 C 0.4654(4) 0.5712(3) 0.1061(4)
C16 C 0.5509(4) 0.5260(3) 0.1793(4)
C17 C 0.5314(4) -0.1368(3) 0.0857(4)
C18 C 0.3171(4) 0.3494(4) -0.0135(4)
C19 C 0.9906(4) 0.1829(4) 0.4324(5)
C20 C 0.9819(5) 0.2017(5) 0.3285(6)
C21 C 0.8966(6) 0.1780(5) 0.5444(6)
C22 C 0.8072(7) 0.2144(6) 0.5603(6)
C23 C 0.7482(9) 0.5602(7) 0.4564(7)
C24 C 0.815(1) 0.5404(8) 0.547(1)
C25 C 0.8518(7) 0.5650(5) 0.3398(9)
C26 C 0.8798(6) 0.5050(7) 0.2692(9)
H1 H 0.5740 0.0461 0.1400
H2 H 0.8150 -0.1774 0.3524
H3 H 0.6777 -0.2351 0.2214
H4 H 0.6322 0.2218 0.2061
H5 H 0.7661 0.3216 0.3671
H6 H 0.4862 0.2920 0.1267
H7 H 0.3361 0.5408 -0.0057
H8 H 0.4595 0.6413 0.1006
H9 H 1.0347 0.2311 0.4744
H10 H 1.0184 0.1187 0.4518
H11 H 0.9537 0.2657 0.3089
H12 H 1.0482 0.1981 0.3235
H13 H 0.9384 0.1532 0.2865
H14 H 0.9051 0.1098 0.5617
H15 H 0.9550 0.2140 0.5849
H16 H 0.7998 0.2833 0.5458
H17 H 0.7482 0.1802 0.5182
H18 H 0.8141 0.2041 0.6274
H19 H 0.7449 0.6298 0.4461
H20 H 0.6823 0.5362 0.4515
H21 H 0.8199 0.4707 0.5567
H22 H 0.8811 0.5656 0.5523
H23 H 0.7932 0.5707 0.5949
H24 H 0.8189 0.6240 0.3081
H25 H 0.9121 0.5817 0.3940
H26 H 0.8195 0.4876 0.2153
H27 H 0.9245 0.5418 0.2454
H28 H 0.9137 0.4465 0.3010
loop_
_geom_bond_atom_site_label_1
_geom_bond_atom_site_label_2
_geom_bond_site_symmetry_1
_geom_bond_site_symmetry_2
N1 N2 1_555 1_555
N2 C4 1_555 1_555
N3 N1 1_555 1_555
N4 C17 1_555 1_555
N5 N6 1_555 1_555
N6 C16 1_555 1_555
N7 N5 1_555 1_555
N8 C18 1_555 1_555
C1 C2 1_555 1_555
C2 C3 1_555 1_555
C3 C4 1_555 1_555
C4 C5 1_555 1_555
C5 C6 1_555 1_555
C6 C1 1_555 1_555
C7 N1 1_555 1_555
C8 C7 1_555 1_555
C9 C8 1_555 1_555
C10 N5 1_555 1_555
C11 C10 1_555 1_555
C12 C11 1_555 1_555
C13 C12 1_555 1_555
C14 C13 1_555 1_555
C15 C14 1_555 1_555
C16 C11 1_555 1_555
C17 C1 1_555 1_555
C18 C13 1_555 1_555
C19 N3 1_555 1_555
C20 C19 1_555 1_555
C21 N3 1_555 1_555
C22 C21 1_555 1_555
C23 N7 1_555 1_555
C24 C23 1_555 1_555
C25 N7 1_555 1_555
C26 C25 1_555 1_555
H1 C2 1_555 1_555
H2 C5 1_555 1_555
H3 C6 1_555 1_555
H4 C8 1_555 1_555
H5 C9 1_555 1_555
H6 C12 1_555 1_555
H7 C14 1_555 1_555
H8 C15 1_555 1_555
H9 C19 1_555 1_555
H10 C19 1_555 1_555
H11 C20 1_555 1_555
H12 C20 1_555 1_555
H13 C20 1_555 1_555
H14 C21 1_555 1_555
H15 C21 1_555 1_555
H16 C22 1_555 1_555
H17 C22 1_555 1_555
H18 C22 1_555 1_555
H19 C23 1_555 1_555
H20 C23 1_555 1_555
H21 C24 1_555 1_555
H22 C24 1_555 1_555
H23 C24 1_555 1_555
H24 C25 1_555 1_555
H25 C25 1_555 1_555
H26 C26 1_555 1_555
H27 C26 1_555 1_555
H28 C26 1_555 1_555
C3 C7 1_555 1_555
C9 C10 1_555 1_555
C15 C16 1_555 1_555

#END
