
#######################################################################
#
#                 Cambridge Crystallographic Data Centre
#                                CCDC 
#
#######################################################################
#
# If this CIF has been generated from an entry in the Cambridge 
# Structural Database, then it will include bibliographic, chemical, 
# crystal, experimental, refinement or atomic coordinate data resulting 
# from the CCDC's data processing and validation procedures.
#
#######################################################################

data_VUZPEL
_chemical_formula_moiety         'C42 H28 Cl2 O2 P2,C1 H1 Cl3'
_chemical_name_systematic        
'9,10-Dihydro-9,10-etheno-1,8-dichloro-11-(diphenylphosphinoyl)-12-(2-(diphenylphosphinoyl)ethynyl)anthracene chloroform solvate'
_symmetry_cell_setting           triclinic
_symmetry_space_group_name_H-M   'P -1'
_symmetry_Int_Tables_number      2
_space_group_name_Hall           '-P 1'
loop_
_symmetry_equiv_pos_site_id
_symmetry_equiv_pos_as_xyz
1 x,y,z
2 -x,-y,-z
_cell_length_a                   11.881(3)
_cell_length_b                   13.769(3)
_cell_length_c                   14.034(3)
_cell_angle_alpha                74.837(4)
_cell_angle_beta                 88.156(4)
_cell_angle_gamma                65.398(4)
_cell_volume                     2007.02
_chemical_melting_point          '115-117 deg.C'
_cell_formula_units_Z            2
_exptl_crystal_recrystallization_method 'petroleum ether/chloroform'
loop_
_atom_site_label
_atom_site_type_symbol
_atom_site_fract_x
_atom_site_fract_y
_atom_site_fract_z
P1 P 0.6884(1) 0.1029(1) 0.3710(1)
P2 P 0.3500(1) 0.5216(1) 0.3356(1)
O1 O 0.7376(3) 0.0140(3) 0.3193(3)
O2 O 0.4849(2) 0.4898(3) 0.3473(2)
Cl1 Cl 0.1697(1) 0.2320(1) 0.0962(1)
Cl2 Cl 0.4362(1) 0.3482(1) -0.0849(1)
C1 C 0.5524(4) 0.2182(4) 0.3108(3)
C2 C 0.4647(4) 0.2982(3) 0.2668(3)
C3 C 0.3609(3) 0.3924(3) 0.2093(3)
C4 C 0.3041(3) 0.4912(3) 0.2290(3)
C5 C 0.3069(3) 0.3855(3) 0.1146(3)
C6 C 0.1970(3) 0.5750(3) 0.1510(3)
C7 C 0.1684(3) 0.4180(4) 0.1278(3)
C8 C 0.1103(4) 0.5204(4) 0.1470(3)
C9 C -0.0153(4) 0.5646(4) 0.1619(3)
C10 C -0.0807(5) 0.5031(6) 0.1572(4)
C11 C -0.0270(5) 0.4042(5) 0.1369(4)
C12 C 0.1007(4) 0.3590(4) 0.1222(3)
C13 C 0.3121(3) 0.4802(3) 0.0321(3)
C14 C 0.2530(4) 0.5831(4) 0.0514(3)
C15 C 0.2488(4) 0.6773(4) -0.0141(4)
C16 C 0.3030(5) 0.6690(5) -0.1028(4)
C17 C 0.3608(4) 0.5691(5) -0.1243(3)
C18 C 0.3652(4) 0.4741(4) -0.0569(3)
C19 C 0.6472(4) 0.0545(4) 0.4922(3)
C20 C 0.5831(6) 0.1235(5) 0.5488(4)
C21 C 0.5565(7) 0.0805(7) 0.6434(5)
C22 C 0.5925(7) -0.0307(8) 0.6794(6)
C23 C 0.6544(6) -0.0971(6) 0.6243(7)
C24 C 0.6790(4) -0.0573(4) 0.5299(5)
C25 C 0.7951(4) 0.1619(4) 0.3813(3)
C26 C 0.7598(5) 0.2693(4) 0.3852(4)
C27 C 0.8508(6) 0.3081(5) 0.3879(4)
C28 C 0.9730(5) 0.2418(6) 0.3840(4)
C29 C 1.0061(5) 0.1379(6) 0.3801(5)
C30 C 0.9190(5) 0.0964(5) 0.3795(4)
C31 C 0.2577(4) 0.6673(4) 0.3138(3)
C32 C 0.1369(5) 0.7110(5) 0.3415(4)
C33 C 0.0654(7) 0.8270(6) 0.3103(6)
C34 C 0.1132(10) 0.8955(6) 0.2539(6)
C35 C 0.2347(8) 0.8520(6) 0.2291(5)
C36 C 0.3043(6) 0.7374(5) 0.2584(4)
C37 C 0.2944(4) 0.4522(3) 0.4408(3)
C38 C 0.1994(5) 0.4208(5) 0.4320(4)
C39 C 0.1598(6) 0.3703(5) 0.5163(5)
C40 C 0.2140(7) 0.3500(5) 0.6085(4)
C41 C 0.3070(6) 0.3816(5) 0.6165(4)
C42 C 0.3470(4) 0.4311(4) 0.5336(4)
C43 C 0.7176(7) 0.9683(5) 0.1243(5)
Cl3 Cl 0.6823(3) 0.8567(2) 0.1329(2)
Cl4 Cl 0.8524(3) 0.9444(4) 0.0674(3)
Cl5 Cl 0.6026(3) 1.0889(2) 0.0614(2)
loop_
_geom_bond_atom_site_label_1
_geom_bond_atom_site_label_2
_geom_bond_site_symmetry_1
_geom_bond_site_symmetry_2
P1 O1 1_555 1_555
P2 O2 1_555 1_555
Cl1 C12 1_555 1_555
Cl2 C18 1_555 1_555
C1 P1 1_555 1_555
C2 C1 1_555 1_555
C3 C2 1_555 1_555
C4 P2 1_555 1_555
C5 C3 1_555 1_555
C6 C4 1_555 1_555
C7 C5 1_555 1_555
C8 C6 1_555 1_555
C9 C8 1_555 1_555
C10 C9 1_555 1_555
C11 C10 1_555 1_555
C12 C7 1_555 1_555
C13 C5 1_555 1_555
C14 C6 1_555 1_555
C15 C14 1_555 1_555
C16 C15 1_555 1_555
C17 C16 1_555 1_555
C18 C13 1_555 1_555
C19 P1 1_555 1_555
C20 C19 1_555 1_555
C21 C20 1_555 1_555
C22 C21 1_555 1_555
C23 C22 1_555 1_555
C24 C19 1_555 1_555
C25 P1 1_555 1_555
C26 C25 1_555 1_555
C27 C26 1_555 1_555
C28 C27 1_555 1_555
C29 C28 1_555 1_555
C30 C25 1_555 1_555
C31 P2 1_555 1_555
C32 C31 1_555 1_555
C33 C32 1_555 1_555
C34 C33 1_555 1_555
C35 C34 1_555 1_555
C36 C31 1_555 1_555
C37 P2 1_555 1_555
C38 C37 1_555 1_555
C39 C38 1_555 1_555
C40 C39 1_555 1_555
C41 C40 1_555 1_555
C42 C37 1_555 1_555
C43 Cl3 1_555 1_555
Cl4 C43 1_555 1_555
Cl5 C43 1_555 1_555
C3 C4 1_555 1_555
C7 C8 1_555 1_555
C11 C12 1_555 1_555
C13 C14 1_555 1_555
C17 C18 1_555 1_555
C23 C24 1_555 1_555
C29 C30 1_555 1_555
C35 C36 1_555 1_555
C41 C42 1_555 1_555

#END
