
#######################################################################
#
#                 Cambridge Crystallographic Data Centre
#                                CCDC 
#
#######################################################################
#
# If this CIF has been generated from an entry in the Cambridge 
# Structural Database, then it will include bibliographic, chemical, 
# crystal, experimental, refinement or atomic coordinate data resulting 
# from the CCDC's data processing and validation procedures.
#
#######################################################################

data_VUZRIS
_chemical_formula_moiety         'C19 H21 N1 O4'
_chemical_name_systematic        
'Methyl 4-(4-methoxyphenyl)-2-methyl-5-oxo-1,4,5,6,7,8-hexahydroquinoline-3-carboxylate'
_symmetry_cell_setting           monoclinic
_symmetry_space_group_name_H-M   'P 21/c'
_symmetry_Int_Tables_number      14
_space_group_name_Hall           '-P 2ybc'
loop_
_symmetry_equiv_pos_site_id
_symmetry_equiv_pos_as_xyz
1 x,y,z
2 -x,1/2+y,1/2-z
3 -x,-y,-z
4 x,1/2-y,1/2+z
_cell_length_a                   13.628(3)
_cell_length_b                   8.6300(17)
_cell_length_c                   14.577(3)
_cell_angle_alpha                90
_cell_angle_beta                 98.39(3)
_cell_angle_gamma                90
_cell_volume                     1696.05
_exptl_crystal_colour            colorless
_exptl_crystal_description       block
_cell_formula_units_Z            4
_exptl_crystal_recrystallization_method ethanol
loop_
_atom_site_label
_atom_site_type_symbol
_atom_site_fract_x
_atom_site_fract_y
_atom_site_fract_z
N1 N 0.7089(2) -0.1346(4) 1.10531(19)
H1 H 0.7239 -0.1617 1.1624
O1 O 0.7167(2) -0.2573(3) 0.79342(17)
C1 C 0.7348(2) -0.2312(4) 1.0380(2)
O2 O 0.5828(3) 0.3072(4) 1.0342(2)
O3 O 0.5564(2) 0.2194(3) 0.8893(2)
C2 C 0.7719(3) -0.3882(4) 1.0694(2)
H2 H 0.7161 -0.4545 1.0764
H3 H 0.8130 -0.3795 1.1294
C3 C 0.8315(3) -0.4604(5) 1.0013(3)
H4 H 0.8450 -0.5680 1.0178
H5 H 0.8944 -0.4069 1.0040
O4 O 1.0127(2) 0.2744(3) 0.7949(2)
C4 C 0.7756(3) -0.4514(5) 0.9038(3)
H6 H 0.8194 -0.4841 0.8606
H7 H 0.7204 -0.5234 0.8983
C5 C 0.7367(3) -0.2935(5) 0.8765(3)
C6 C 0.7201(3) -0.1864(4) 0.9470(2)
C7 C 0.6864(3) -0.0254(4) 0.9202(2)
H8 H 0.6318 -0.0343 0.8686
C8 C 0.6458(3) 0.0595(4) 0.9990(3)
C9 C 0.6599(3) 0.0044(4) 1.0854(3)
C10 C 0.6220(3) 0.0715(4) 1.1683(2)
H9 H 0.5884 0.1673 1.1514
H10 H 0.6767 0.0903 1.2165
H11 H 0.5767 0.0000 1.1902
C11 C 0.5931(3) 0.2038(5) 0.9799(3)
C12 C 0.5003(4) 0.3605(5) 0.8655(3)
H12 H 0.4785 0.3631 0.7998
H13 H 0.5416 0.4487 0.8832
H14 H 0.4437 0.3628 0.8977
C13 C 0.7696(3) 0.0644(4) 0.8845(2)
C14 C 0.8566(3) 0.0938(4) 0.9442(2)
H15 H 0.8619 0.0646 1.0061
C15 C 0.9360(3) 0.1667(5) 0.9120(3)
H16 H 0.9937 0.1868 0.9527
C16 C 0.9296(3) 0.2093(5) 0.8199(3)
C17 C 0.8445(3) 0.1823(4) 0.7607(2)
H17 H 0.8393 0.2115 0.6988
C18 C 0.7645(3) 0.1101(4) 0.7942(2)
H18 H 0.7063 0.0927 0.7537
C19 C 1.0128(3) 0.3077(6) 0.6991(3)
H19 H 1.0752 0.3531 0.6908
H20 H 0.9602 0.3788 0.6781
H21 H 1.0032 0.2135 0.6638
loop_
_geom_bond_atom_site_label_1
_geom_bond_atom_site_label_2
_geom_bond_site_symmetry_1
_geom_bond_site_symmetry_2
N1 H1 1_555 1_555
O1 C5 1_555 1_555
C1 N1 1_555 1_555
O2 C11 1_555 1_555
O3 C11 1_555 1_555
C2 C1 1_555 1_555
H2 C2 1_555 1_555
H3 C2 1_555 1_555
C3 C2 1_555 1_555
H4 C3 1_555 1_555
H5 C3 1_555 1_555
O4 C16 1_555 1_555
C4 C3 1_555 1_555
H6 C4 1_555 1_555
H7 C4 1_555 1_555
C5 C4 1_555 1_555
C6 C1 1_555 1_555
C7 C6 1_555 1_555
H8 C7 1_555 1_555
C8 C7 1_555 1_555
C9 N1 1_555 1_555
C10 C9 1_555 1_555
H9 C10 1_555 1_555
H10 C10 1_555 1_555
H11 C10 1_555 1_555
C11 C8 1_555 1_555
C12 O3 1_555 1_555
H12 C12 1_555 1_555
H13 C12 1_555 1_555
H14 C12 1_555 1_555
C13 C7 1_555 1_555
C14 C13 1_555 1_555
H15 C14 1_555 1_555
C15 C14 1_555 1_555
H16 C15 1_555 1_555
C16 C15 1_555 1_555
C17 C16 1_555 1_555
H17 C17 1_555 1_555
C18 C13 1_555 1_555
H18 C18 1_555 1_555
C19 O4 1_555 1_555
H19 C19 1_555 1_555
H20 C19 1_555 1_555
H21 C19 1_555 1_555
C5 C6 1_555 1_555
C8 C9 1_555 1_555
C17 C18 1_555 1_555

#END
