
#######################################################################
#
#                 Cambridge Crystallographic Data Centre
#                                CCDC 
#
#######################################################################
#
# If this CIF has been generated from an entry in the Cambridge 
# Structural Database, then it will include bibliographic, chemical, 
# crystal, experimental, refinement or atomic coordinate data resulting 
# from the CCDC's data processing and validation procedures.
#
#######################################################################

data_VUZVES
_chemical_formula_moiety         'C15 H13 N1 O2'
_chemical_name_systematic        (S)-(+)-4-(Oxiran-2-ylmethoxy)-9H-carbazole
_symmetry_cell_setting           orthorhombic
_symmetry_space_group_name_H-M   'P 21 21 21'
_symmetry_Int_Tables_number      19
_space_group_name_Hall           'P 2ac 2ab'
loop_
_symmetry_equiv_pos_site_id
_symmetry_equiv_pos_as_xyz
1 x,y,z
2 1/2-x,-y,1/2+z
3 1/2+x,1/2-y,-z
4 -x,1/2+y,1/2-z
_cell_length_a                   7.6140(15)
_cell_length_b                   9.5870(19)
_cell_length_c                   16.628(3)
_cell_angle_alpha                90
_cell_angle_beta                 90
_cell_angle_gamma                90
_cell_volume                     1213.77
_exptl_crystal_colour            colorless
_exptl_crystal_description       prism
_cell_formula_units_Z            4
_exptl_crystal_recrystallization_method 'ethyl acetate'
loop_
_atom_site_label
_atom_site_type_symbol
_atom_site_fract_x
_atom_site_fract_y
_atom_site_fract_z
N1 N 0.8591(5) 1.1011(4) 0.7894(2)
H1 H 0.9127 1.1158 0.8341
O1 O 0.4664(4) 0.9701(4) 0.59614(16)
O2 O 0.4551(4) 0.8193(4) 0.43812(17)
C1 C 0.8311(6) 1.1218(5) 0.5757(2)
H2 H 0.7493 1.0967 0.5367
C2 C 0.9839(7) 1.1859(6) 0.5539(3)
H3 H 1.0065 1.2022 0.4998
C3 C 1.1059(7) 1.2271(6) 0.6109(3)
H4 H 1.2082 1.2719 0.5946
C4 C 1.0774(6) 1.2024(6) 0.6922(3)
H5 H 1.1595 1.2291 0.7306
C5 C 0.9233(6) 1.1369(5) 0.7139(3)
C6 C 0.7981(6) 1.0942(5) 0.6563(2)
C7 C 0.6551(6) 1.0313(5) 0.6998(2)
C8 C 0.6986(6) 1.0394(5) 0.7821(3)
C9 C 0.5853(7) 0.9866(5) 0.8409(2)
H6 H 0.6131 0.9928 0.8953
C10 C 0.4327(7) 0.9258(6) 0.8160(3)
H7 H 0.3572 0.8893 0.8546
C11 C 0.3850(7) 0.9158(6) 0.7348(3)
H8 H 0.2803 0.8731 0.7198
C12 C 0.4970(6) 0.9709(5) 0.6776(2)
C13 C 0.3242(6) 0.8870(6) 0.5679(2)
H9 H 0.2137 0.9217 0.5890
H10 H 0.3387 0.7909 0.5849
C14 C 0.3258(7) 0.8962(7) 0.4805(3)
H11 H 0.3019 0.9894 0.4589
C15 C 0.2734(6) 0.7819(6) 0.4288(3)
H12 H 0.2331 0.6966 0.4541
H13 H 0.2164 0.8046 0.3783
loop_
_geom_bond_atom_site_label_1
_geom_bond_atom_site_label_2
_geom_bond_site_symmetry_1
_geom_bond_site_symmetry_2
N1 H1 1_555 1_555
O1 C12 1_555 1_555
O2 C14 1_555 1_555
C1 H2 1_555 1_555
C2 C1 1_555 1_555
H3 C2 1_555 1_555
C3 C2 1_555 1_555
H4 C3 1_555 1_555
C4 C3 1_555 1_555
H5 C4 1_555 1_555
C5 N1 1_555 1_555
C6 C1 1_555 1_555
C7 C6 1_555 1_555
C8 N1 1_555 1_555
C9 C8 1_555 1_555
H6 C9 1_555 1_555
C10 C9 1_555 1_555
H7 C10 1_555 1_555
C11 C10 1_555 1_555
H8 C11 1_555 1_555
C12 C7 1_555 1_555
C13 O1 1_555 1_555
H9 C13 1_555 1_555
H10 C13 1_555 1_555
C14 C13 1_555 1_555
H11 C14 1_555 1_555
C15 O2 1_555 1_555
H12 C15 1_555 1_555
H13 C15 1_555 1_555
C4 C5 1_555 1_555
C5 C6 1_555 1_555
C7 C8 1_555 1_555
C11 C12 1_555 1_555
C14 C15 1_555 1_555

#END
