
#######################################################################
#
#                 Cambridge Crystallographic Data Centre
#                                CCDC 
#
#######################################################################
#
# If this CIF has been generated from an entry in the Cambridge 
# Structural Database, then it will include bibliographic, chemical, 
# crystal, experimental, refinement or atomic coordinate data resulting 
# from the CCDC's data processing and validation procedures.
#
#######################################################################

data_VUZVOC
_chemical_compound_source        'roots of Aconitum carmichaeli Debx'
_chemical_name_common            Hypaconitine
_chemical_formula_moiety         'C33 H45 N1 O10'
_chemical_name_systematic        
8\b-Acetoxy-14\a-benzoyloxy-N-methyl-13\b,15\a-dihydroxy-1\a,6\a,16\b-trimethoxy-4\b-(methoxymethyl)aconitane
_symmetry_cell_setting           orthorhombic
_symmetry_space_group_name_H-M   'P 21 21 21'
_symmetry_Int_Tables_number      19
_space_group_name_Hall           'P 2ac 2ab'
loop_
_symmetry_equiv_pos_site_id
_symmetry_equiv_pos_as_xyz
1 x,y,z
2 1/2-x,-y,1/2+z
3 -x,1/2+y,1/2-z
4 1/2+x,1/2-y,-z
_cell_length_a                   12.457(2)
_cell_length_b                   15.689(3)
_cell_length_c                   15.771(3)
_cell_angle_alpha                90
_cell_angle_beta                 90
_cell_angle_gamma                90
_cell_volume                     3082.25
_exptl_crystal_colour            colorless
_exptl_crystal_description       block
_cell_formula_units_Z            4
_exptl_crystal_recrystallization_method acetone
loop_
_atom_site_label
_atom_site_type_symbol
_atom_site_fract_x
_atom_site_fract_y
_atom_site_fract_z
O1 O 1.23858(11) 0.89466(8) 0.31289(9)
O2 O 1.07598(11) 0.84457(8) 0.13939(9)
O3 O 0.91073(10) 0.62972(8) 0.42341(8)
O4 O 0.79646(10) 0.87205(8) 0.12467(8)
O5 O 0.80028(12) 0.78668(9) 0.00869(8)
O6 O 0.66939(11) 1.02025(8) 0.23958(11)
O7 O 0.60560(10) 0.88599(8) 0.23532(8)
O8 O 0.74141(11) 0.66278(8) 0.12664(9)
H1 H 0.7649 0.6749 0.0782
O9 O 0.52663(10) 0.71641(9) 0.22035(8)
O10 O 0.55459(10) 0.76257(9) 0.37461(9)
H2 H 0.5011 0.7562 0.3428
N1 N 1.03362(12) 0.64061(9) 0.23693(10)
C1 C 0.98310(14) 0.69978(11) 0.41053(11)
H3 H 0.9735 0.7401 0.4591
C2 C 1.09733(14) 0.66559(12) 0.41484(12)
H4 H 1.1154 0.6519 0.4744
H5 H 1.1023 0.6124 0.3814
C3 C 1.17712(15) 0.72968(12) 0.38090(12)
H6 H 1.2493 0.7033 0.3798
H7 H 1.1800 0.7792 0.4198
C4 C 1.14877(14) 0.76100(12) 0.29144(11)
C5 C 1.04062(14) 0.80980(11) 0.29511(11)
H8 H 1.0466 0.8612 0.3323
C6 C 0.99822(14) 0.83478(12) 0.20478(11)
H9 H 0.9574 0.8894 0.2099
C7 C 0.91787(14) 0.76308(11) 0.18088(11)
H10 H 0.9326 0.7409 0.1226
C8 C 0.80427(15) 0.80051(11) 0.18664(11)
C9 C 0.79423(14) 0.84829(11) 0.27182(11)
H11 H 0.8295 0.9054 0.2679
C10 C 0.84333(14) 0.79591(11) 0.34650(11)
H12 H 0.8581 0.8372 0.3934
C11 C 0.95087(14) 0.74792(11) 0.32833(11)
C12 C 0.74725(14) 0.73924(12) 0.37588(12)
H13 H 0.7630 0.6783 0.3653
H14 H 0.7339 0.7471 0.4373
C13 C 0.64957(14) 0.76738(12) 0.32456(11)
C14 C 0.67831(14) 0.85795(12) 0.30017(11)
H15 H 0.6738 0.8963 0.3507
C15 C 0.70879(14) 0.73879(11) 0.16864(11)
H16 H 0.6605 0.7694 0.1282
C16 C 0.63726(15) 0.71180(12) 0.24422(12)
H17 H 0.6546 0.6514 0.2593
C17 C 0.93745(14) 0.69281(11) 0.24888(11)
H18 H 0.8726 0.6556 0.2544
C18 C 1.24163(15) 0.81852(12) 0.26341(13)
H19 H 1.3109 0.7889 0.2719
H20 H 1.2344 0.8325 0.2025
C19 C 1.13661(15) 0.68636(12) 0.22852(12)
H21 H 1.1429 0.7087 0.1700
H22 H 1.1961 0.6456 0.2376
C20 C 1.02178(17) 0.57792(12) 0.16930(13)
H23 H 0.9539 0.5472 0.1765
H24 H 1.0816 0.5374 0.1716
H25 H 1.0219 0.6070 0.1143
C21 C 0.89680(16) 0.60786(13) 0.50979(12)
H26 H 0.9656 0.5893 0.5336
H27 H 0.8444 0.5615 0.5144
H28 H 0.8707 0.6576 0.5412
C22 C 1.32008(17) 0.95307(13) 0.29058(14)
H29 H 1.3905 0.9271 0.3007
H30 H 1.3130 1.0047 0.3251
H31 H 1.3133 0.9679 0.2305
C23 C 1.0983(3) 0.9342(2) 0.1242(3)
H32 H 1.1498 0.9396 0.0775
H33 H 1.1286 0.9598 0.1756
H34 H 1.0315 0.9636 0.1092
C24 C 0.79618(15) 0.85677(13) 0.04047(12)
C25 C 0.78886(19) 0.93861(14) -0.00785(14)
H35 H 0.7831 0.9263 -0.0686
H36 H 0.8534 0.9728 0.0026
H37 H 0.7254 0.9704 0.0107
C26 C 0.49317(17) 0.65471(14) 0.15989(14)
H38 H 0.5280 0.6662 0.1054
H39 H 0.4151 0.6577 0.1530
H40 H 0.5134 0.5977 0.1796
C27 C 0.61137(15) 0.96722(11) 0.20869(13)
C28 C 0.53567(14) 0.98128(12) 0.13698(12)
C29 C 0.47300(16) 0.91484(13) 0.10516(12)
H41 H 0.4788 0.8593 0.1287
C30 C 0.40216(18) 0.93033(14) 0.03905(14)
H42 H 0.3594 0.8853 0.0173
C31 C 0.39364(18) 1.01139(15) 0.00471(13)
H43 H 0.3456 1.0216 -0.0409
C32 C 0.45470(18) 1.07705(15) 0.03665(15)
H44 H 0.4483 1.1327 0.0134
C33 C 0.52578(16) 1.06205(13) 0.10295(15)
H45 H 0.5677 1.1075 0.1249
C34? C 1.0854(9) 0.9162(7) 0.0954(9)
H46? H 1.0189 0.9267 0.0639
H47? H 1.1454 0.9109 0.0555
H48? H 1.0990 0.9637 0.1342
loop_
_geom_bond_atom_site_label_1
_geom_bond_atom_site_label_2
_geom_bond_site_symmetry_1
_geom_bond_site_symmetry_2
O1 C18 1_555 1_555
O2 C6 1_555 1_555
O3 C1 1_555 1_555
O4 C8 1_555 1_555
O5 C24 1_555 1_555
O6 C27 1_555 1_555
O7 C14 1_555 1_555
O8 H1 1_555 1_555
O9 C16 1_555 1_555
O10 H2 1_555 1_555
N1 C17 1_555 1_555
C1 H3 1_555 1_555
C2 C1 1_555 1_555
H4 C2 1_555 1_555
H5 C2 1_555 1_555
C3 C2 1_555 1_555
H6 C3 1_555 1_555
H7 C3 1_555 1_555
C4 C3 1_555 1_555
C5 C4 1_555 1_555
H8 C5 1_555 1_555
C6 C5 1_555 1_555
H9 C6 1_555 1_555
C7 C6 1_555 1_555
H10 C7 1_555 1_555
C8 C7 1_555 1_555
C9 C8 1_555 1_555
H11 C9 1_555 1_555
C10 C9 1_555 1_555
H12 C10 1_555 1_555
C11 C1 1_555 1_555
C12 C10 1_555 1_555
H13 C12 1_555 1_555
H14 C12 1_555 1_555
C13 O10 1_555 1_555
C14 C9 1_555 1_555
H15 C14 1_555 1_555
C15 O8 1_555 1_555
H16 C15 1_555 1_555
C16 C13 1_555 1_555
H17 C16 1_555 1_555
C17 C7 1_555 1_555
H18 C17 1_555 1_555
C18 C4 1_555 1_555
H19 C18 1_555 1_555
H20 C18 1_555 1_555
C19 N1 1_555 1_555
H21 C19 1_555 1_555
H22 C19 1_555 1_555
C20 N1 1_555 1_555
H23 C20 1_555 1_555
H24 C20 1_555 1_555
H25 C20 1_555 1_555
C21 O3 1_555 1_555
H26 C21 1_555 1_555
H27 C21 1_555 1_555
H28 C21 1_555 1_555
C22 O1 1_555 1_555
H29 C22 1_555 1_555
H30 C22 1_555 1_555
H31 C22 1_555 1_555
C23 O2 1_555 1_555
H32 C23 1_555 1_555
H33 C23 1_555 1_555
H34 C23 1_555 1_555
C24 O4 1_555 1_555
C25 C24 1_555 1_555
H35 C25 1_555 1_555
H36 C25 1_555 1_555
H37 C25 1_555 1_555
C26 O9 1_555 1_555
H38 C26 1_555 1_555
H39 C26 1_555 1_555
H40 C26 1_555 1_555
C27 O7 1_555 1_555
C28 C27 1_555 1_555
C29 C28 1_555 1_555
H41 C29 1_555 1_555
C30 C29 1_555 1_555
H42 C30 1_555 1_555
C31 C30 1_555 1_555
H43 C31 1_555 1_555
C32 C31 1_555 1_555
H44 C32 1_555 1_555
C33 C28 1_555 1_555
H45 C33 1_555 1_555
C4 C19 1_555 1_555
C5 C11 1_555 1_555
C8 C15 1_555 1_555
C10 C11 1_555 1_555
C11 C17 1_555 1_555
C12 C13 1_555 1_555
C13 C14 1_555 1_555
C15 C16 1_555 1_555
C32 C33 1_555 1_555

#END
