
#######################################################################
#
#                 Cambridge Crystallographic Data Centre
#                                CCDC 
#
#######################################################################
#
# If this CIF has been generated from an entry in the Cambridge 
# Structural Database, then it will include bibliographic, chemical, 
# crystal, experimental, refinement or atomic coordinate data resulting 
# from the CCDC's data processing and validation procedures.
#
#######################################################################

data_VUZVAP
_chemical_formula_moiety         'C28 H27 N3 O3'
_chemical_name_systematic        
2-(1,3-bis(2-hydroxybenzyl)-5-(pyridin-2-yl)imidazolidin-4-yl)phenol
_symmetry_cell_setting           monoclinic
_symmetry_space_group_name_H-M   'P 21/c'
_symmetry_Int_Tables_number      14
_space_group_name_Hall           '-P 2ybc'
loop_
_symmetry_equiv_pos_site_id
_symmetry_equiv_pos_as_xyz
1 x,y,z
2 -x,1/2+y,1/2-z
3 -x,-y,-z
4 x,1/2-y,1/2+z
_cell_length_a                   13.4599(4)
_cell_length_b                   14.7706(4)
_cell_length_c                   12.0271(5)
_cell_angle_alpha                90
_cell_angle_beta                 100.490(1)
_cell_angle_gamma                90
_cell_volume                     2351.15
_exptl_crystal_colour            yellow
_exptl_crystal_description       Block
_chemical_melting_point          '421-424 K'
_cell_formula_units_Z            4
_chemical_properties_physical    Deliquescent
_exptl_crystal_recrystallization_method 
'Re-crystallisation from solvent: ethanol,dichloromethane'
_exptl_crystal_preparation       Luminescent
loop_
_atom_site_label
_atom_site_type_symbol
_atom_site_fract_x
_atom_site_fract_y
_atom_site_fract_z
O1 O 0.61515(8) 0.14037(8) 0.40352(9)
O2 O 0.82337(8) 0.44372(6) 0.49309(9)
O3 O 0.89988(7) 0.25526(7) 0.52452(8)
N1 N 0.77102(7) 0.29749(6) 0.65989(8)
N2 N 0.67588(7) 0.16983(6) 0.62680(8)
C1 C 0.93485(10) -0.08201(9) 0.65618(14)
C2 C 0.82764(9) 0.22977(8) 0.73862(9)
C3 C 0.75919(8) 0.14296(8) 0.71796(10)
C4 C 0.66584(9) 0.26736(8) 0.64234(10)
C5 C 0.96580(9) 0.22829(8) 0.61839(10)
C6 C 1.06556(10) 0.21148(9) 0.60728(12)
C7 C 1.13398(10) 0.17887(10) 0.69776(14)
C8 C 1.10510(10) 0.16396(10) 0.80050(13)
C9 C 1.00638(10) 0.18276(8) 0.81266(11)
C10 C 0.93541(9) 0.21575(7) 0.72258(10)
C11 C 0.74387(10) 0.48520(8) 0.52736(11)
C12 C 0.68640(11) 0.55155(9) 0.46304(12)
C13 C 0.60852(12) 0.59354(10) 0.50358(13)
C14 C 0.58638(12) 0.56989(10) 0.60710(14)
C15 C 0.64301(11) 0.50311(9) 0.67076(12)
C16 C 0.72203(9) 0.46001(8) 0.63261(10)
C17 C 0.78600(10) 0.39074(8) 0.70513(11)
C18 C 0.51866(10) 0.14755(9) 0.42429(11)
C19 C 0.44020(11) 0.16190(10) 0.33339(13)
C20 C 0.34273(11) 0.17106(10) 0.35164(15)
C21 C 0.32221(11) 0.16621(11) 0.45970(16)
C22 C 0.40005(10) 0.15086(10) 0.54997(14)
C23 C 0.49905(9) 0.14052(8) 0.53399(11)
C24 C 0.58281(9) 0.11853(9) 0.63148(11)
C25 C 0.81492(9) 0.06011(8) 0.68963(10)
N3 N 0.85158(8) 0.00699(7) 0.77811(10)
C26 C 0.91122(11) -0.06269(9) 0.76016(14)
C27 C 0.89517(10) -0.02803(9) 0.56516(13)
C28 C 0.83458(10) 0.04435(8) 0.58208(11)
H1 H 0.8297(10) 0.2486(9) 0.8179(12)
H2 H 0.6340(10) 0.2814(9) 0.7086(12)
H3 H 0.6259(10) 0.2964(9) 0.5735(12)
H4 H 0.5605(11) 0.1297(10) 0.7058(13)
H5 H 0.9857(10) 0.1701(9) 0.8855(12)
H6 H 0.7324(10) 0.1304(9) 0.7885(11)
H7 H 0.9107(12) -0.0397(11) 0.4886(14)
H8 H 0.8079(11) 0.0860(10) 0.5188(12)
H9 H 0.6013(11) 0.0526(10) 0.6294(12)
H10 H 0.8601(11) 0.4049(9) 0.7111(12)
H11 H 0.7692(10) 0.3915(9) 0.7824(13)
H12 H 0.7023(12) 0.5678(11) 0.3919(14)
H13 H 0.6278(12) 0.4856(11) 0.7444(14)
H14 H 1.0879(12) 0.2221(11) 0.5323(14)
H15 H 0.3859(13) 0.1481(11) 0.6265(15)
H16 H 1.1511(13) 0.1397(11) 0.8661(15)
H17 H 0.9791(13) -0.1332(12) 0.6486(14)
H18 H 0.4566(13) 0.1664(12) 0.2599(16)
H19 H 0.5708(13) 0.6405(11) 0.4597(15)
H20 H 0.8332(15) 0.4648(14) 0.4198(18)
H21 H 0.9369(13) -0.0989(12) 0.8275(15)
H22 H 0.5302(14) 0.5995(13) 0.6361(15)
H23 H 1.2030(14) 0.1671(11) 0.6885(15)
H24 H 0.8408(16) 0.2809(14) 0.5550(17)
H25 H 0.2532(14) 0.1746(12) 0.4738(15)
H26 H 0.2882(14) 0.1840(12) 0.2884(15)
H27 H 0.6565(15) 0.1463(13) 0.4750(18)
loop_
_geom_bond_atom_site_label_1
_geom_bond_atom_site_label_2
_geom_bond_site_symmetry_1
_geom_bond_site_symmetry_2
O1 C18 1_555 1_555
O2 C11 1_555 1_555
O3 C5 1_555 1_555
N1 C2 1_555 1_555
N2 C3 1_555 1_555
C1 C26 1_555 1_555
C2 C3 1_555 1_555
C3 C25 1_555 1_555
C4 N1 1_555 1_555
C5 C6 1_555 1_555
C6 C7 1_555 1_555
C7 C8 1_555 1_555
C8 C9 1_555 1_555
C9 C10 1_555 1_555
C10 C2 1_555 1_555
C11 C12 1_555 1_555
C12 C13 1_555 1_555
C13 C14 1_555 1_555
C14 C15 1_555 1_555
C15 C16 1_555 1_555
C16 C11 1_555 1_555
C17 N1 1_555 1_555
C18 C19 1_555 1_555
C19 C20 1_555 1_555
C20 C21 1_555 1_555
C21 C22 1_555 1_555
C22 C23 1_555 1_555
C23 C18 1_555 1_555
C24 N2 1_555 1_555
C25 N3 1_555 1_555
N3 C26 1_555 1_555
C26 H21 1_555 1_555
C27 C1 1_555 1_555
C28 C25 1_555 1_555
H1 C2 1_555 1_555
H2 C4 1_555 1_555
H3 C4 1_555 1_555
H4 C24 1_555 1_555
H5 C9 1_555 1_555
H6 C3 1_555 1_555
H7 C27 1_555 1_555
H8 C28 1_555 1_555
H9 C24 1_555 1_555
H10 C17 1_555 1_555
H11 C17 1_555 1_555
H12 C12 1_555 1_555
H13 C15 1_555 1_555
H14 C6 1_555 1_555
H15 C22 1_555 1_555
H16 C8 1_555 1_555
H17 C1 1_555 1_555
H18 C19 1_555 1_555
H19 C13 1_555 1_555
H20 O2 1_555 1_555
H22 C14 1_555 1_555
H23 C7 1_555 1_555
H24 O3 1_555 1_555
H25 C21 1_555 1_555
H26 C20 1_555 1_555
H27 O1 1_555 1_555
N2 C4 1_555 1_555
C5 C10 1_555 1_555
C16 C17 1_555 1_555
C23 C24 1_555 1_555
C27 C28 1_555 1_555

#END
