
#######################################################################
#
#                 Cambridge Crystallographic Data Centre
#                                CCDC 
#
#######################################################################
#
# If this CIF has been generated from an entry in the Cambridge 
# Structural Database, then it will include bibliographic, chemical, 
# crystal, experimental, refinement or atomic coordinate data resulting 
# from the CCDC's data processing and validation procedures.
#
#######################################################################

data_VUZVOC02
_chemical_name_common            
(+)-8beta-Acetoxy-14alpha-benzoyloxy-13beta,15alpha-dihydroxy-1alpha,6alpha,16alpha,18-tetramethoxy-N-methylaconitane
_chemical_formula_moiety         'C33 H45 N1 O10'
_chemical_name_systematic        
'8-Acetoxy-13,15-dihydroxy-1,6,16-trimethoxy-4-(methoxymethyl)-20-methylaconitan-14-yl benzoate'
_symmetry_cell_setting           orthorhombic
_symmetry_space_group_name_H-M   'P 21 21 21'
_symmetry_Int_Tables_number      19
_space_group_name_Hall           'P 2ac 2ab'
loop_
_symmetry_equiv_pos_site_id
_symmetry_equiv_pos_as_xyz
1 x,y,z
2 1/2-x,-y,1/2+z
3 1/2+x,1/2-y,-z
4 -x,1/2+y,1/2-z
_cell_length_a                   12.432(2)
_cell_length_b                   15.932(4)
_cell_length_c                   15.983(3)
_cell_angle_alpha                90
_cell_angle_beta                 90
_cell_angle_gamma                90
_cell_volume                     3165.7
_exptl_crystal_colour            colorless
_exptl_crystal_description       block
_cell_formula_units_Z            4
loop_
_atom_site_label
_atom_site_type_symbol
_atom_site_fract_x
_atom_site_fract_y
_atom_site_fract_z
N1 N 1.03712(12) 0.35645(9) 0.26302(10)
O1 O 0.91120(11) 0.36806(8) 0.08053(8)
O2 O 0.55624(10) 0.23562(10) 0.13069(9)
H1 H 0.5078 0.2559 0.1591
O3 O 0.53166(10) 0.28234(9) 0.28243(9)
O4 O 0.60967(10) 0.11372(7) 0.26742(8)
O5 O 0.66857(14) -0.01851(9) 0.25822(14)
O6 O 0.80145(10) 0.12776(8) 0.37473(7)
O7 O 0.80516(14) 0.21073(10) 0.48968(9)
O8 O 0.74694(11) 0.33401(8) 0.37345(8)
H2 H 0.7739 0.3219 0.4187
C1 C 0.98383(14) 0.29945(11) 0.09194(10)
H3 H 0.9734 0.2609 0.0448
C2 C 1.09797(16) 0.33312(13) 0.08605(12)
H4 H 1.1142 0.3466 0.0282
H5 H 1.1036 0.3843 0.1186
C3 C 1.17869(15) 0.26993(14) 0.11800(12)
H6 H 1.2496 0.2953 0.1181
H7 H 1.1805 0.2223 0.0802
C4 C 1.15232(13) 0.23885(12) 0.20676(11)
C5 C 1.04448(13) 0.19094(11) 0.20469(11)
H8 H 1.0500 0.1415 0.1685
C6 C 1.00419(14) 0.16533(12) 0.29351(11)
H9 H 0.9651 0.1121 0.2888
C7 C 0.92322(13) 0.23496(11) 0.31823(10)
H10 H 0.9385 0.2560 0.3746
C8 C 0.80965(13) 0.19821(10) 0.31355(10)
C9 C 0.79804(13) 0.15148(10) 0.22977(10)
H11 H 0.8325 0.0963 0.2331
C10 C 0.84639(13) 0.20325(11) 0.15588(10)
H12 H 0.8609 0.1635 0.1105
C11 C 0.95322(12) 0.25119(10) 0.17283(9)
C12 C 0.74879(14) 0.25849(14) 0.12719(11)
H13 H 0.7640 0.3175 0.1365
H14 H 0.7346 0.2501 0.0681
C13 C 0.65216(14) 0.23103(12) 0.17916(11)
C14 C 0.68167(13) 0.14239(12) 0.20275(11)
H15 H 0.6767 0.1056 0.1537
C15 C 0.71344(13) 0.25934(11) 0.33209(10)
H16 H 0.6663 0.2298 0.3714
C16 C 0.64145(14) 0.28621(12) 0.25797(12)
H17 H 0.6589 0.3443 0.2430
C17 C 0.94133(13) 0.30504(10) 0.25163(10)
H18 H 0.8774 0.3407 0.2473
C18 C 1.24666(16) 0.18242(15) 0.23260(14)
H19 H 1.3141 0.2118 0.2242
H20 H 1.2407 0.1681 0.2914
C19 C 1.14120(15) 0.31199(12) 0.26895(13)
H21 H 1.1496 0.2905 0.3253
H22 H 1.1988 0.3518 0.2590
C20 C 1.0266(2) 0.41849(14) 0.32914(15)
H23 H 0.9597 0.4479 0.3228
H24 H 1.0851 0.4577 0.3258
H25 H 1.0281 0.3909 0.3825
C21 C 0.8963(2) 0.39091(16) -0.00405(14)
H26 H 0.8420 0.4336 -0.0077
H27 H 0.8740 0.3426 -0.0355
H28 H 0.9626 0.4120 -0.0264
C22 C 0.80006(16) 0.14178(14) 0.45797(11)
C23 C 0.7902(2) 0.06173(17) 0.50503(15)
H29 H 0.8183 0.0690 0.5605
H30 H 0.8301 0.0186 0.4768
H31 H 0.7158 0.0458 0.5082
C24 C 0.61272(15) 0.03372(11) 0.29101(13)
C25 C 0.4973(2) 0.34445(19) 0.33935(19)
H32 H 0.4213 0.3392 0.3483
H33 H 0.5130 0.3990 0.3169
H34 H 0.5344 0.3374 0.3916
C26 C 0.53806(15) 0.01802(12) 0.36245(12)
C27 C 0.5275(2) -0.06165(15) 0.39390(18)
H35 H 0.5672 -0.1054 0.3708
C28 C 0.4584(3) -0.0773(2) 0.4596(2)
H36 H 0.4523 -0.1313 0.4810
C29 C 0.3991(2) -0.0137(2) 0.49332(16)
H37 H 0.3531 -0.0242 0.5380
C30 C 0.4074(2) 0.06532(19) 0.46129(16)
H38 H 0.3658 0.1083 0.4837
C31 C 0.47689(18) 0.08243(14) 0.39578(14)
H39 H 0.4824 0.1366 0.3744
O9 O 1.08627(12) 0.15584(10) 0.35496(9)
C32 C 1.0769(9) 0.0933(13) 0.4109(11)
H40 H 1.1394 0.0921 0.4461
H41 H 1.0705 0.0407 0.3819
H42 H 1.0139 0.1022 0.4445
O10 O 1.24456(14) 0.10772(11) 0.18284(11)
C33 C 1.3199(5) 0.0487(5) 0.2049(5)
H43 H 1.3011 -0.0044 0.1805
H44 H 1.3220 0.0435 0.2647
H45 H 1.3893 0.0658 0.1848
C34? C 1.301(3) 0.0415(12) 0.2185(18)
C35? C 1.1013(9) 0.0685(7) 0.3741(12)
H46? H 1.2977 -0.0065 0.1823
H47? H 1.2702 0.0277 0.2717
H48? H 1.3750 0.0576 0.2261
H49? H 1.1572 0.0627 0.4151
H50? H 1.1212 0.0389 0.3242
H51? H 1.0355 0.0457 0.3958
O11? O 1.24456(14) 0.10772(11) 0.18284(11)
O12? O 1.08627(12) 0.15584(10) 0.35496(9)
loop_
_geom_bond_atom_site_label_1
_geom_bond_atom_site_label_2
_geom_bond_site_symmetry_1
_geom_bond_site_symmetry_2
N1 C17 1_555 1_555
O1 C1 1_555 1_555
O2 H1 1_555 1_555
O3 C16 1_555 1_555
O4 C14 1_555 1_555
O5 C24 1_555 1_555
O6 C8 1_555 1_555
O7 C22 1_555 1_555
O8 H2 1_555 1_555
C1 H3 1_555 1_555
C2 C1 1_555 1_555
H4 C2 1_555 1_555
H5 C2 1_555 1_555
C3 C2 1_555 1_555
H6 C3 1_555 1_555
H7 C3 1_555 1_555
C4 C3 1_555 1_555
C5 C4 1_555 1_555
H8 C5 1_555 1_555
C6 C5 1_555 1_555
H9 C6 1_555 1_555
C7 C6 1_555 1_555
H10 C7 1_555 1_555
C8 C7 1_555 1_555
C9 C8 1_555 1_555
H11 C9 1_555 1_555
C10 C9 1_555 1_555
H12 C10 1_555 1_555
C11 C1 1_555 1_555
C12 C10 1_555 1_555
H13 C12 1_555 1_555
H14 C12 1_555 1_555
C13 O2 1_555 1_555
C14 C9 1_555 1_555
H15 C14 1_555 1_555
C15 O8 1_555 1_555
H16 C15 1_555 1_555
C16 C13 1_555 1_555
H17 C16 1_555 1_555
C17 C7 1_555 1_555
H18 C17 1_555 1_555
C18 C4 1_555 1_555
H19 C18 1_555 1_555
H20 C18 1_555 1_555
C19 N1 1_555 1_555
H21 C19 1_555 1_555
H22 C19 1_555 1_555
C20 N1 1_555 1_555
H23 C20 1_555 1_555
H24 C20 1_555 1_555
H25 C20 1_555 1_555
C21 O1 1_555 1_555
H26 C21 1_555 1_555
H27 C21 1_555 1_555
H28 C21 1_555 1_555
C22 O6 1_555 1_555
C23 C22 1_555 1_555
H29 C23 1_555 1_555
H30 C23 1_555 1_555
H31 C23 1_555 1_555
C24 O4 1_555 1_555
C25 O3 1_555 1_555
H32 C25 1_555 1_555
H33 C25 1_555 1_555
H34 C25 1_555 1_555
C26 C24 1_555 1_555
C27 C26 1_555 1_555
H35 C27 1_555 1_555
C28 C27 1_555 1_555
H36 C28 1_555 1_555
C29 C28 1_555 1_555
H37 C29 1_555 1_555
C30 C29 1_555 1_555
H38 C30 1_555 1_555
C31 C26 1_555 1_555
H39 C31 1_555 1_555
O9 C6 1_555 1_555
C32 O9 1_555 1_555
H40 C32 1_555 1_555
H41 C32 1_555 1_555
H42 C32 1_555 1_555
O10 C18 1_555 1_555
C33 O10 1_555 1_555
H43 C33 1_555 1_555
H44 C33 1_555 1_555
H45 C33 1_555 1_555
C4 C19 1_555 1_555
C5 C11 1_555 1_555
C8 C15 1_555 1_555
C10 C11 1_555 1_555
C11 C17 1_555 1_555
C12 C13 1_555 1_555
C13 C14 1_555 1_555
C15 C16 1_555 1_555
C30 C31 1_555 1_555

#END
