
#######################################################################
#
#                 Cambridge Crystallographic Data Centre
#                                CCDC 
#
#######################################################################
#
# If this CIF has been generated from an entry in the Cambridge 
# Structural Database, then it will include bibliographic, chemical, 
# crystal, experimental, refinement or atomic coordinate data resulting 
# from the CCDC's data processing and validation procedures.
#
#######################################################################

data_VUZWOD
_chemical_name_common            '3-(Mesitylcarbonyl)-2-naphthoic acid'
_chemical_formula_moiety         'C21 H18 O3'
_chemical_name_systematic        '3-(2,4,6-Trimethylbenzoyl)-2-naphthoic acid'
_symmetry_cell_setting           triclinic
_symmetry_space_group_name_H-M   'P -1'
_symmetry_Int_Tables_number      2
_space_group_name_Hall           '-P 1'
loop_
_symmetry_equiv_pos_site_id
_symmetry_equiv_pos_as_xyz
1 x,y,z
2 -x,-y,-z
_cell_length_a                   10.5233(3)
_cell_length_b                   12.7712(3)
_cell_length_c                   13.0588(3)
_cell_angle_alpha                93.102(2)
_cell_angle_beta                 101.609(2)
_cell_angle_gamma                99.219(2)
_cell_volume                     1690.15
_exptl_crystal_colour            white
_exptl_crystal_description       block
_cell_formula_units_Z            4
_exptl_crystal_recrystallization_method chloroform
loop_
_atom_site_label
_atom_site_type_symbol
_atom_site_fract_x
_atom_site_fract_y
_atom_site_fract_z
C1 C 1.11744(17) 0.05037(16) 0.42909(14)
H1 H 1.1613 0.1155 0.4641
C2 C 1.1637(2) -0.04010(19) 0.45394(16)
H2 H 1.2395 -0.0363 0.5059
C3 C 1.0997(2) -0.13863(19) 0.40314(17)
H3 H 1.1329 -0.1999 0.4214
C4 C 0.9894(2) -0.14580(15) 0.32728(15)
H4 H 0.9467 -0.2121 0.2942
C5 C 0.93850(17) -0.05327(13) 0.29797(13)
C6 C 1.00277(15) 0.04601(13) 0.35011(12)
C7 C 0.95130(15) 0.13796(12) 0.32070(12)
H5 H 0.9925 0.2035 0.3562
C8 C 0.84305(14) 0.13400(11) 0.24178(11)
C9 C 0.77928(15) 0.03304(11) 0.18832(12)
C10 C 0.82655(17) -0.05676(13) 0.21683(13)
H6 H 0.7838 -0.1222 0.1818
C11 C 0.65636(15) 0.02060(12) 0.10617(12)
C12 C 0.80778(14) 0.23579(12) 0.20428(12)
C13 C 0.82973(14) 0.33111(11) 0.28178(11)
C14 C 0.75382(14) 0.33287(11) 0.35780(11)
C15 C 0.77141(15) 0.42539(12) 0.42389(12)
H7 H 0.7229 0.4267 0.4760
C16 C 0.85886(16) 0.51545(12) 0.41436(12)
C17 C 0.93509(16) 0.51054(12) 0.34061(13)
H8 H 0.9962 0.5701 0.3353
C18 C 0.92364(15) 0.41989(12) 0.27422(12)
C19 C 1.01500(19) 0.41711(16) 0.19955(16)
H9 H 0.9722 0.4334 0.1317
H10 H 1.0375 0.3474 0.1940
H11 H 1.0937 0.4687 0.2253
C20 C 0.64975(18) 0.24030(14) 0.36671(15)
H12 H 0.6184 0.2523 0.4298
H13 H 0.6866 0.1762 0.3690
H14 H 0.5778 0.2334 0.3071
C21 C 0.8693(2) 0.61697(14) 0.48227(16)
H15 H 0.9598 0.6514 0.5020
H16 H 0.8367 0.6007 0.5442
H17 H 0.8180 0.6635 0.4439
O1 O 0.76841(14) 0.24315(10) 0.11138(9)
O2 O 0.56779(12) 0.07128(11) 0.12213(10)
H35 H 0.5041 0.0568 0.0728
O3 O 0.64372(13) -0.04411(10) 0.02849(10)
C22 C 0.5784(2) 0.69010(15) -0.02850(15)
H18 H 0.5372 0.7429 -0.0600
C23 C 0.6618(2) 0.64349(16) -0.07632(17)
H19 H 0.6775 0.6654 -0.1401
C24 C 0.7238(2) 0.56368(17) -0.03095(16)
H20 H 0.7807 0.5331 -0.0645
C25 C 0.70201(18) 0.53005(17) 0.06189(15)
H21 H 0.7434 0.4763 0.0913
C26 C 0.61658(16) 0.57651(15) 0.11395(12)
C27 C 0.55480(17) 0.65819(13) 0.06865(13)
C28 C 0.46686(18) 0.70208(13) 0.12034(13)
H22 H 0.4259 0.7560 0.0910
C29 C 0.44055(16) 0.66714(13) 0.21255(12)
C30 C 0.50410(16) 0.58553(15) 0.25766(12)
C31 C 0.58855(17) 0.54186(17) 0.20916(13)
H23 H 0.6288 0.4879 0.2394
C32 C 0.49066(17) 0.55014(17) 0.36282(13)
C33 C 0.33412(16) 0.70412(13) 0.25617(13)
C34 C 0.2862(4) 0.8075(5) 0.2189(3)
C35 C 0.1698(4) 0.8031(4) 0.1440(3)
C36 C 0.1307(4) 0.8974(3) 0.1156(3)
H24 H 0.0542 0.8947 0.0646
C37 C 0.2009(5) 0.9959(3) 0.1600(4)
C38 C 0.3163(4) 0.9983(3) 0.2342(4)
H25 H 0.3651 1.0637 0.2649
C39 C 0.3606(4) 0.9055(3) 0.2635(3)
C40 C 0.4859(4) 0.9130(4) 0.3451(4)
H26 H 0.4699 0.8687 0.3998
H27 H 0.5154 0.9856 0.3743
H28 H 0.5523 0.8897 0.3132
C41 C 0.0880(6) 0.6981(4) 0.0961(4)
H29 H 0.0451 0.6647 0.1473
H30 H 0.1437 0.6529 0.0737
H31 H 0.0227 0.7094 0.0369
C42 C 0.1530(6) 1.0968(3) 0.1284(5)
H32 H 0.1990 1.1550 0.1786
H33 H 0.0602 1.0887 0.1261
H34 H 0.1694 1.1109 0.0603
O4 O 0.27640(14) 0.64882(12) 0.31134(11)
O5 O 0.52720(15) 0.61471(12) 0.44170(9)
O6 O 0.44929(14) 0.45080(13) 0.36565(10)
H36 H 0.4530 0.4375 0.4268
C43? C 0.3195(13) 0.8079(13) 0.2462(9)
C44? C 0.2097(13) 0.8196(10) 0.1747(8)
C45? C 0.1871(9) 0.9259(9) 0.1584(7)
C46? C 0.2724(17) 1.0074(13) 0.2146(16)
C47? C 0.3806(10) 0.9930(8) 0.2864(9)
C48? C 0.4073(10) 0.8927(8) 0.3034(8)
C49? C 0.5246(11) 0.8720(9) 0.3837(8)
C50? C 0.1120(16) 0.7329(10) 0.1118(12)
C51? C 0.2527(13) 1.1240(8) 0.1984(11)
H37? H 0.1144 0.9378 0.1096
H38? H 0.4371 1.0521 0.3244
H39? H 0.6034 0.8896 0.3573
H40? H 0.5120 0.7982 0.3967
H41? H 0.5324 0.9152 0.4480
H42? H 0.1455 0.7075 0.0537
H43? H 0.0318 0.7587 0.0859
H44? H 0.0949 0.6757 0.1547
H45? H 0.2719 1.1424 0.1321
H46? H 0.3110 1.1713 0.2539
H47? H 0.1632 1.1301 0.1991
loop_
_geom_bond_atom_site_label_1
_geom_bond_atom_site_label_2
_geom_bond_site_symmetry_1
_geom_bond_site_symmetry_2
C1 H1 1_555 1_555
C2 C1 1_555 1_555
H2 C2 1_555 1_555
C3 C2 1_555 1_555
H3 C3 1_555 1_555
C4 C3 1_555 1_555
H4 C4 1_555 1_555
C5 C4 1_555 1_555
C6 C1 1_555 1_555
C7 C6 1_555 1_555
H5 C7 1_555 1_555
C8 C7 1_555 1_555
C9 C8 1_555 1_555
C10 C5 1_555 1_555
H6 C10 1_555 1_555
C11 C9 1_555 1_555
C12 C8 1_555 1_555
C13 C12 1_555 1_555
C14 C13 1_555 1_555
C15 C14 1_555 1_555
H7 C15 1_555 1_555
C16 C15 1_555 1_555
C17 C16 1_555 1_555
H8 C17 1_555 1_555
C18 C13 1_555 1_555
C19 C18 1_555 1_555
H9 C19 1_555 1_555
H10 C19 1_555 1_555
H11 C19 1_555 1_555
C20 C14 1_555 1_555
H12 C20 1_555 1_555
H13 C20 1_555 1_555
H14 C20 1_555 1_555
C21 C16 1_555 1_555
H15 C21 1_555 1_555
H16 C21 1_555 1_555
H17 C21 1_555 1_555
C22 H18 1_555 1_555
C23 C22 1_555 1_555
H19 C23 1_555 1_555
C24 C23 1_555 1_555
H20 C24 1_555 1_555
C25 C24 1_555 1_555
H21 C25 1_555 1_555
C26 C25 1_555 1_555
C27 C22 1_555 1_555
C28 C27 1_555 1_555
H22 C28 1_555 1_555
C29 C28 1_555 1_555
C30 C29 1_555 1_555
C31 C26 1_555 1_555
H23 C31 1_555 1_555
C32 C30 1_555 1_555
C33 C29 1_555 1_555
C34 C33 1_555 1_555
C35 C34 1_555 1_555
C36 C35 1_555 1_555
H24 C36 1_555 1_555
C37 C36 1_555 1_555
C38 C37 1_555 1_555
H25 C38 1_555 1_555
C39 C34 1_555 1_555
C40 C39 1_555 1_555
H26 C40 1_555 1_555
H27 C40 1_555 1_555
H28 C40 1_555 1_555
C41 C35 1_555 1_555
H29 C41 1_555 1_555
H30 C41 1_555 1_555
H31 C41 1_555 1_555
C42 C37 1_555 1_555
H32 C42 1_555 1_555
H33 C42 1_555 1_555
H34 C42 1_555 1_555
O1 C12 1_555 1_555
O2 C11 1_555 1_555
H35 O2 1_555 1_555
O3 C11 1_555 1_555
O4 C33 1_555 1_555
O5 C32 1_555 1_555
O6 C32 1_555 1_555
H36 O6 1_555 1_555
C5 C6 1_555 1_555
C9 C10 1_555 1_555
C17 C18 1_555 1_555
C26 C27 1_555 1_555
C30 C31 1_555 1_555
C38 C39 1_555 1_555

#END
