
#######################################################################
#
#                 Cambridge Crystallographic Data Centre
#                                CCDC 
#
#######################################################################
#
# If this CIF has been generated from an entry in the Cambridge 
# Structural Database, then it will include bibliographic, chemical, 
# crystal, experimental, refinement or atomic coordinate data resulting 
# from the CCDC's data processing and validation procedures.
#
#######################################################################

data_WABGOY
_chemical_formula_moiety         'C31 H19 N3'
_chemical_name_systematic        3,5-bis(9H-carbazol-9-yl)benzonitrile
_symmetry_cell_setting           monoclinic
_symmetry_space_group_name_H-M   'P 21/n'
_symmetry_Int_Tables_number      14
_space_group_name_Hall           '-P 2yn'
loop_
_symmetry_equiv_pos_site_id
_symmetry_equiv_pos_as_xyz
1 x,y,z
2 1/2-x,1/2+y,1/2-z
3 -x,-y,-z
4 1/2+x,1/2-y,1/2+z
_cell_length_a                   9.1838(15)
_cell_length_b                   13.264(2)
_cell_length_c                   18.172(3)
_cell_angle_alpha                90
_cell_angle_beta                 97.142(4)
_cell_angle_gamma                90
_cell_volume                     2196.43
_exptl_crystal_colour            colorless
_exptl_crystal_description       prism
_cell_formula_units_Z            4
loop_
_atom_site_label
_atom_site_type_symbol
_atom_site_fract_x
_atom_site_fract_y
_atom_site_fract_z
N1 N 0.6613(2) 0.86568(17) 0.12483(10)
N2 N 0.20345(15) 0.65121(13) 0.26440(7)
N3 N 0.14279(14) 0.64041(12) -0.00417(7)
C1 C 0.5584(2) 0.81918(18) 0.12712(10)
C2 C 0.42676(18) 0.76005(15) 0.12899(10)
C3 C 0.37812(19) 0.73638(15) 0.19611(9)
H1 H 0.4307 0.7573 0.2405
C4 C 0.25075(19) 0.68149(15) 0.19611(9)
C5 C 0.17278(18) 0.64985(14) 0.13015(9)
H2 H 0.0874 0.6123 0.1308
C6 C 0.22150(17) 0.67385(14) 0.06326(9)
C7 C 0.34857(18) 0.72889(14) 0.06242(9)
H3 H 0.3818 0.7451 0.0176
C8 C 0.2797(2) 0.58398(15) 0.31467(10)
C9 C 0.4174(2) 0.54232(18) 0.31419(11)
H4 H 0.4747 0.5576 0.2769
C10 C 0.4666(3) 0.47717(19) 0.37110(14)
H5 H 0.5589 0.4480 0.3724
C11 C 0.3810(3) 0.45455(18) 0.42621(13)
H6 H 0.4171 0.4107 0.4641
C12 C 0.2446(3) 0.49519(18) 0.42623(11)
H7 H 0.1883 0.4794 0.4638
C13 C 0.1906(2) 0.56056(15) 0.36943(10)
C14 C 0.0557(2) 0.61512(16) 0.35152(9)
C15 C -0.0727(2) 0.62291(18) 0.38462(11)
H8 H -0.0836 0.5857 0.4269
C16 C -0.1826(2) 0.6855(2) 0.35471(13)
H9 H -0.2680 0.6911 0.3771
C17 C -0.1681(2) 0.74064(18) 0.29127(12)
H10 H -0.2437 0.7833 0.2720
C18 C -0.0437(2) 0.73371(16) 0.25604(10)
H11 H -0.0344 0.7706 0.2134
C19 C 0.06646(19) 0.66981(15) 0.28667(9)
C20 C 0.20185(19) 0.58954(14) -0.06067(9)
C21 C 0.3438(2) 0.55646(15) -0.06362(11)
H12 H 0.4175 0.5683 -0.0247
C22 C 0.3722(2) 0.50538(17) -0.12619(13)
H13 H 0.4665 0.4813 -0.1291
C23 C 0.2635(3) 0.48905(18) -0.18498(13)
H14 H 0.2863 0.4558 -0.2271
C24 C 0.1225(2) 0.52154(17) -0.18164(11)
H15 H 0.0496 0.5099 -0.2210
C25 C 0.09011(19) 0.57183(14) -0.11886(9)
C26 C -0.04334(19) 0.61150(15) -0.09624(10)
C27 C -0.1887(2) 0.61516(16) -0.12942(11)
H16 H -0.2148 0.5882 -0.1764
C28 C -0.2924(2) 0.65902(17) -0.09178(12)
H17 H -0.3898 0.6608 -0.1132
C29 C -0.2543(2) 0.70041(18) -0.02271(13)
H18 H -0.3266 0.7306 0.0014
C30 C -0.1127(2) 0.69852(16) 0.01177(11)
H19 H -0.0881 0.7270 0.0584
C31 C -0.00795(18) 0.65276(14) -0.02536(9)
loop_
_geom_bond_atom_site_label_1
_geom_bond_atom_site_label_2
_geom_bond_site_symmetry_1
_geom_bond_site_symmetry_2
N1 C1 1_555 1_555
N2 C4 1_555 1_555
N3 C6 1_555 1_555
C1 C2 1_555 1_555
C2 C3 1_555 1_555
C3 H1 1_555 1_555
C4 C3 1_555 1_555
C5 C4 1_555 1_555
H2 C5 1_555 1_555
C6 C5 1_555 1_555
C7 C2 1_555 1_555
H3 C7 1_555 1_555
C8 N2 1_555 1_555
C9 C8 1_555 1_555
H4 C9 1_555 1_555
C10 C9 1_555 1_555
H5 C10 1_555 1_555
C11 C10 1_555 1_555
H6 C11 1_555 1_555
C12 C11 1_555 1_555
H7 C12 1_555 1_555
C13 C8 1_555 1_555
C14 C13 1_555 1_555
C15 C14 1_555 1_555
H8 C15 1_555 1_555
C16 C15 1_555 1_555
H9 C16 1_555 1_555
C17 C16 1_555 1_555
H10 C17 1_555 1_555
C18 C17 1_555 1_555
H11 C18 1_555 1_555
C19 N2 1_555 1_555
C20 N3 1_555 1_555
C21 C20 1_555 1_555
H12 C21 1_555 1_555
C22 C21 1_555 1_555
H13 C22 1_555 1_555
C23 C22 1_555 1_555
H14 C23 1_555 1_555
C24 C23 1_555 1_555
H15 C24 1_555 1_555
C25 C20 1_555 1_555
C26 C25 1_555 1_555
C27 C26 1_555 1_555
H16 C27 1_555 1_555
C28 C27 1_555 1_555
H17 C28 1_555 1_555
C29 C28 1_555 1_555
H18 C29 1_555 1_555
C30 C29 1_555 1_555
H19 C30 1_555 1_555
C31 N3 1_555 1_555
C6 C7 1_555 1_555
C12 C13 1_555 1_555
C14 C19 1_555 1_555
C18 C19 1_555 1_555
C24 C25 1_555 1_555
C26 C31 1_555 1_555
C30 C31 1_555 1_555

#END
