
#######################################################################
#
#                 Cambridge Crystallographic Data Centre
#                                CCDC 
#
#######################################################################
#
# If this CIF has been generated from an entry in the Cambridge 
# Structural Database, then it will include bibliographic, chemical, 
# crystal, experimental, refinement or atomic coordinate data resulting 
# from the CCDC's data processing and validation procedures.
#
#######################################################################

data_WABGEO
_chemical_formula_moiety         'C31 H19 N3'
_chemical_name_systematic        2,4-bis(9H-carbazol-9-yl)benzonitrile
_symmetry_cell_setting           monoclinic
_symmetry_space_group_name_H-M   'C c'
_symmetry_Int_Tables_number      9
_space_group_name_Hall           'C -2yc'
loop_
_symmetry_equiv_pos_site_id
_symmetry_equiv_pos_as_xyz
1 x,y,z
2 x,-y,1/2+z
3 1/2+x,1/2+y,z
4 1/2+x,1/2-y,1/2+z
_cell_length_a                   16.7003(9)
_cell_length_b                   14.0892(12)
_cell_length_c                   9.3429(6)
_cell_angle_alpha                90
_cell_angle_beta                 96.029(6)
_cell_angle_gamma                90
_cell_volume                     2186.17
_exptl_crystal_colour            white
_exptl_crystal_description       prism
_cell_formula_units_Z            4
loop_
_atom_site_label
_atom_site_type_symbol
_atom_site_fract_x
_atom_site_fract_y
_atom_site_fract_z
N1 N 0.27317(9) 0.21496(10) 0.16071(17)
N2 N 0.24811(8) 0.53626(11) 0.33933(16)
N3 N 0.44202(9) 0.59667(12) 0.51719(18)
C1 C 0.17877(10) 0.53763(14) 0.41251(19)
C2 C 0.18531(11) 0.09333(14) 0.1004(2)
C3 C 0.14485(11) 0.62937(14) 0.3985(2)
C4 C 0.42361(11) 0.37241(13) 0.3596(2)
H1 H 0.4789 0.3719 0.3959
C5 C 0.25672(11) 0.62555(13) 0.2767(2)
C6 C 0.14732(10) 0.46668(14) 0.4926(2)
H2 H 0.1709 0.4053 0.5004
C7 C 0.37683(11) 0.45300(13) 0.37660(19)
C8 C 0.19837(11) 0.17606(13) 0.1842(2)
C9 C 0.18667(13) 0.77610(14) 0.2523(2)
H3 H 0.1439 0.8167 0.2726
C10 C 0.38080(11) 0.16735(14) 0.0028(2)
H4 H 0.4153 0.2199 0.0269
C11 C 0.41202(10) 0.53382(14) 0.4544(2)
C12 C 0.30869(11) 0.15627(13) 0.06311(19)
C13 C 0.40023(12) 0.09895(15) -0.0934(2)
H5 H 0.4494 0.1044 -0.1356
C14 C 0.29554(10) 0.45448(13) 0.32003(19)
C15 C 0.07977(11) 0.48893(16) 0.5610(2)
H6 H 0.0566 0.4417 0.6165
C16 C 0.19316(11) 0.68439(14) 0.3098(2)
C17 C 0.26227(11) 0.37652(13) 0.24644(19)
H7 H 0.2078 0.3782 0.2053
C18 C 0.38932(11) 0.29329(13) 0.2900(2)
H8 H 0.4206 0.2377 0.2812
C19 C 0.30854(10) 0.29551(13) 0.2326(2)
C20 C 0.25557(12) 0.08049(13) 0.0236(2)
C21 C 0.30695(12) 0.74751(15) 0.1358(2)
H9 H 0.3457 0.7707 0.0769
C22 C 0.14397(11) 0.20559(14) 0.2784(2)
H10 H 0.1536 0.2609 0.3358
C23 C 0.04520(12) 0.57948(17) 0.5499(2)
H11 H -0.0008 0.5928 0.5982
C24 C 0.34953(13) 0.02163(14) -0.1308(2)
H12 H 0.3653 -0.0251 -0.1956
C25 C 0.31465(12) 0.65588(14) 0.1902(2)
H13 H 0.3576 0.6157 0.1692
C26 C 0.11557(12) 0.04044(15) 0.1088(2)
H14 H 0.1056 -0.0150 0.0518
C27 C 0.06075(12) 0.06965(15) 0.2014(2)
H15 H 0.0130 0.0339 0.2080
C28 C 0.07693(11) 0.64954(15) 0.4698(2)
H16 H 0.0531 0.7108 0.4629
C29 C 0.07525(12) 0.15133(15) 0.2853(2)
H17 H 0.0371 0.1700 0.3485
C30 C 0.27704(12) 0.01282(14) -0.0744(2)
H18 H 0.2421 -0.0387 -0.1018
C31 C 0.24347(13) 0.80650(15) 0.1656(2)
H19 H 0.2394 0.8685 0.1256
loop_
_geom_bond_atom_site_label_1
_geom_bond_atom_site_label_2
_geom_bond_site_symmetry_1
_geom_bond_site_symmetry_2
N1 C8 1_555 1_555
N2 C1 1_555 1_555
N3 C11 1_555 1_555
C1 C3 1_555 1_555
C2 C8 1_555 1_555
C3 C16 1_555 1_555
C4 H1 1_555 1_555
C5 N2 1_555 1_555
C6 C1 1_555 1_555
H2 C6 1_555 1_555
C7 C4 1_555 1_555
C8 C22 1_555 1_555
C9 H3 1_555 1_555
C10 H4 1_555 1_555
C11 C7 1_555 1_555
C12 N1 1_555 1_555
C13 C10 1_555 1_555
H5 C13 1_555 1_555
C14 N2 1_555 1_555
C15 C6 1_555 1_555
H6 C15 1_555 1_555
C16 C5 1_555 1_555
C17 C14 1_555 1_555
H7 C17 1_555 1_555
C18 C4 1_555 1_555
H8 C18 1_555 1_555
C19 N1 1_555 1_555
C20 C2 1_555 1_555
C21 H9 1_555 1_555
C22 H10 1_555 1_555
C23 C15 1_555 1_555
H11 C23 1_555 1_555
C24 C13 1_555 1_555
H12 C24 1_555 1_555
C25 C5 1_555 1_555
H13 C25 1_555 1_555
C26 C2 1_555 1_555
H14 C26 1_555 1_555
C27 C26 1_555 1_555
H15 C27 1_555 1_555
C28 C3 1_555 1_555
H16 C28 1_555 1_555
C29 C22 1_555 1_555
H17 C29 1_555 1_555
C30 C20 1_555 1_555
H18 C30 1_555 1_555
C31 C9 1_555 1_555
H19 C31 1_555 1_555
C7 C14 1_555 1_555
C9 C16 1_555 1_555
C10 C12 1_555 1_555
C12 C20 1_555 1_555
C17 C19 1_555 1_555
C18 C19 1_555 1_555
C21 C25 1_555 1_555
C21 C31 1_555 1_555
C23 C28 1_555 1_555
C24 C30 1_555 1_555
C27 C29 1_555 1_555

#END
