
#######################################################################
#
#                 Cambridge Crystallographic Data Centre
#                                CCDC 
#
#######################################################################
#
# If this CIF has been generated from an entry in the Cambridge 
# Structural Database, then it will include bibliographic, chemical, 
# crystal, experimental, refinement or atomic coordinate data resulting 
# from the CCDC's data processing and validation procedures.
#
#######################################################################

data_WABKUI
_chemical_formula_moiety         'C19 H20 N2 O2'
_chemical_name_systematic        
N-t-butyl-3-oxo-2-phenylisoindoline-1-carboxamide
_symmetry_cell_setting           triclinic
_symmetry_space_group_name_H-M   'P -1'
_symmetry_Int_Tables_number      2
_space_group_name_Hall           '-P 1'
loop_
_symmetry_equiv_pos_site_id
_symmetry_equiv_pos_as_xyz
1 x,y,z
2 -x,-y,-z
_cell_length_a                   7.9956(16)
_cell_length_b                   10.113(2)
_cell_length_c                   11.179(2)
_cell_angle_alpha                87.157(3)
_cell_angle_beta                 78.091(3)
_cell_angle_gamma                72.541(3)
_cell_volume                     843.653
_exptl_crystal_colour            colorless
_exptl_crystal_description       block
_cell_formula_units_Z            2
loop_
_atom_site_label
_atom_site_type_symbol
_atom_site_fract_x
_atom_site_fract_y
_atom_site_fract_z
C1 C 0.3047(4) -0.1637(3) 0.2996(4)
C2 C 0.3991(5) -0.1794(3) 0.1792(4)
H1 H 0.4469 -0.1102 0.1434
C3 C 0.4221(7) -0.2969(5) 0.1126(4)
H2 H 0.4868 -0.3073 0.0326
C4 C 0.3495(8) -0.3993(5) 0.1643(5)
H3 H 0.3651 -0.4787 0.1195
C5 C 0.2546(7) -0.3830(5) 0.2817(5)
H4 H 0.2041 -0.4512 0.3163
C6 C 0.2323(4) -0.2666(5) 0.3499(3)
H5 H 0.1682 -0.2576 0.4301
C7 C 0.2184(2) -0.0252(3) 0.49547(18)
C8 C 0.2512(4) 0.1018(3) 0.5291(4)
C9 C 0.2100(5) 0.1658(5) 0.6432(3)
H6 H 0.1533 0.1295 0.7124
C10 C 0.2575(9) 0.2863(8) 0.6490(4)
H7 H 0.2325 0.3321 0.7236
C11 C 0.3413(10) 0.3388(5) 0.5456(7)
H8 H 0.3719 0.4196 0.5518
C12 C 0.3809(5) 0.2739(6) 0.4326(4)
H9 H 0.4367 0.3103 0.3631
C13 C 0.3352(4) 0.1539(4) 0.4265(4)
C14 C 0.3607(2) 0.0651(2) 0.31764(17)
H10 H 0.4890 0.0248 0.2851
C15 C 0.2719(3) 0.1526(3) 0.2179(2)
C16 C -0.0035(11) 0.2413(8) 0.1373(7)
C17 C -0.0001(9) 0.3896(7) 0.1464(7)
H11 H -0.0342 0.4190 0.2306
H12 H -0.0824 0.4488 0.1010
H13 H 0.1185 0.3948 0.1135
C18 C 0.0781(10) 0.2118(8) 0.0035(4)
H14 H 0.1786 0.2476 -0.0188
H15 H -0.0096 0.2556 -0.0446
H16 H 0.1172 0.1135 -0.0114
C19 C -0.1932(7) 0.2363(6) 0.1746(6)
H17 H -0.1961 0.1430 0.1666
H18 H -0.2651 0.2958 0.1228
H19 H -0.2397 0.2670 0.2580
N1 N 0.2847(5) -0.0448(3) 0.3708(3)
N2 N 0.105(5) 0.154(3) 0.219(3)
H20 H 0.0582 0.1025 0.2705
O1 O 0.1507(8) -0.1028(8) 0.5618(5)
O2 O 0.3588(2) 0.2159(3) 0.14921(19)
C20? C 0.2942(9) 0.1159(7) 0.4650(10)
C21? C 0.2174(10) 0.1429(8) 0.5881(9)
H21? H 0.1544 0.0861 0.6314
C22? C 0.2349(16) 0.2549(11) 0.6463(6)
H22? H 0.1835 0.2731 0.7286
C23? C 0.3292(18) 0.3399(10) 0.5815(9)
H23? H 0.3409 0.4148 0.6205
C24? C 0.4060(12) 0.3128(10) 0.4584(9)
H24? H 0.4691 0.3696 0.4151
C25? C 0.3885(9) 0.2008(11) 0.4002(5)
H25? H 0.4399 0.1827 0.3179
C26? C 0.2237(6) -0.1042(7) 0.4477(5)
C27? C 0.2634(8) -0.2034(9) 0.3478(7)
C28? C 0.2324(7) -0.3318(10) 0.3510(6)
H26? H 0.1744 -0.3620 0.4232
C29? C 0.2882(14) -0.4151(6) 0.2464(9)
H27? H 0.2675 -0.5010 0.2486
C30? C 0.3749(16) -0.3700(10) 0.1386(7)
H28? H 0.4123 -0.4257 0.0686
C31? C 0.4059(12) -0.2416(10) 0.1354(7)
H29? H 0.4639 -0.2114 0.0632
C32? C 0.3501(10) -0.1583(5) 0.2399(10)
C33? C 0.3669(6) -0.0212(6) 0.2672(4)
H30? H 0.4943 -0.0286 0.2553
C34? C 0.2814(8) 0.0899(7) 0.1801(5)
C35? C -0.015(3) 0.2370(18) 0.128(2)
C36? C -0.0797(14) 0.3835(13) 0.1793(13)
H31? H -0.1413 0.3840 0.2627
H32? H -0.1597 0.4417 0.1318
H33? H 0.0208 0.4180 0.1758
C37? C 0.051(4) 0.182(3) -0.0002(18)
H34? H 0.1790 0.1510 -0.0180
H35? H 0.0091 0.2545 -0.0556
H36? H 0.0054 0.1063 -0.0094
C38? C -0.1659(16) 0.1733(9) 0.1540(10)
H37? H -0.1201 0.0762 0.1337
H38? H -0.2527 0.2179 0.1055
H39? H -0.2214 0.1851 0.2391
N3? N 0.2873(12) 0.0036(9) 0.3964(9)
N4? N 0.104(13) 0.147(7) 0.204(7)
H40? H 0.0501 0.1276 0.2742
O3? O 0.1460(14) -0.1038(14) 0.5597(10)
O4? O 0.3814(5) 0.1181(7) 0.0925(4)
loop_
_geom_bond_atom_site_label_1
_geom_bond_atom_site_label_2
_geom_bond_site_symmetry_1
_geom_bond_site_symmetry_2
C1 C2 1_555 1_555
C2 H1 1_555 1_555
C3 C2 1_555 1_555
H2 C3 1_555 1_555
C4 C3 1_555 1_555
H3 C4 1_555 1_555
C5 C4 1_555 1_555
H4 C5 1_555 1_555
C6 C1 1_555 1_555
H5 C6 1_555 1_555
C7 C8 1_555 1_555
C8 C9 1_555 1_555
C9 H6 1_555 1_555
C10 C9 1_555 1_555
H7 C10 1_555 1_555
C11 C10 1_555 1_555
H8 C11 1_555 1_555
C12 C11 1_555 1_555
H9 C12 1_555 1_555
C13 C8 1_555 1_555
C14 C13 1_555 1_555
H10 C14 1_555 1_555
C15 C14 1_555 1_555
C16 C17 1_555 1_555
C17 H11 1_555 1_555
H12 C17 1_555 1_555
H13 C17 1_555 1_555
C18 C16 1_555 1_555
H14 C18 1_555 1_555
H15 C18 1_555 1_555
H16 C18 1_555 1_555
C19 C16 1_555 1_555
H17 C19 1_555 1_555
H18 C19 1_555 1_555
H19 C19 1_555 1_555
N1 C1 1_555 1_555
N2 C15 1_555 1_555
H20 N2 1_555 1_555
O1 C7 1_555 1_555
O2 C15 1_555 1_555
C5 C6 1_555 1_555
C7 N1 1_555 1_555
C12 C13 1_555 1_555
C14 N1 1_555 1_555
C16 N2 1_555 1_555

#END
