
#######################################################################
#
#                 Cambridge Crystallographic Data Centre
#                                CCDC 
#
#######################################################################
#
# If this CIF has been generated from an entry in the Cambridge 
# Structural Database, then it will include bibliographic, chemical, 
# crystal, experimental, refinement or atomic coordinate data resulting 
# from the CCDC's data processing and validation procedures.
#
#######################################################################

data_WABSOH02
_chemical_formula_moiety         'C7 H14 Cl1 F1 N2 2+,2(B1 F4 1-)'
_chemical_name_systematic        
'1-(chloromethyl)-4-fluoro-1,4-diazabicyclo[2.2.2]octane-1,4-diium bis(tetrafluoroborate)'
_symmetry_cell_setting           orthorhombic
_symmetry_space_group_name_H-M   'P n m a'
_symmetry_Int_Tables_number      62
_space_group_name_Hall           '-P 2ac 2n'
loop_
_symmetry_equiv_pos_site_id
_symmetry_equiv_pos_as_xyz
1 x,y,z
2 1/2-x,-y,1/2+z
3 1/2+x,1/2-y,1/2-z
4 -x,1/2+y,-z
5 -x,-y,-z
6 1/2+x,y,1/2-z
7 1/2-x,1/2+y,1/2+z
8 x,1/2-y,z
_cell_length_a                   12.600(6)
_cell_length_b                   7.660(6)
_cell_length_c                   14.112(6)
_cell_angle_alpha                90
_cell_angle_beta                 90
_cell_angle_gamma                90
_cell_volume                     1362.03
_exptl_crystal_colour            colorless
_exptl_crystal_description       block
_cell_formula_units_Z            4
loop_
_atom_site_label
_atom_site_type_symbol
_atom_site_fract_x
_atom_site_fract_y
_atom_site_fract_z
B1 B 0.4590(7) 0.2500 0.2360(6)
F1 F 0.5052(6) 0.1097(7) 0.2812(6)
F2 F 0.4785(9) 0.2500 0.1477(9)
F3 F 0.3538(8) 0.2500 0.2613(7)
F1G F 0.5052(6) 0.3903(7) 0.2812(6)
C1 C 0.2171(6) 0.5911(9) 0.3143(4)
H1 H 0.2447 0.5917 0.2501
H2 H 0.1736 0.4878 0.3225
C2 C 0.3081(4) 0.5858(7) 0.3850(4)
H3 H 0.3044 0.4825 0.4245
H4 H 0.3756 0.5853 0.3520
C3 C 0.1932(5) 0.7500 0.4984(4)
H5 H 0.1876 0.6475 0.5384
C4 C 0.1018(9) 0.7500 0.4205(9)
H6 H 0.0578 0.6473 0.4292
C5 C 0.3806(7) 0.7500 0.5219(6)
H7 H 0.3720 0.6475 0.5614
Cl1 Cl 0.50970(15) 0.7500 0.47352(16)
F4 F 0.0716(5) 0.7500 0.2627(5)
N1 N 0.1524(6) 0.7500 0.3273(6)
N2 N 0.2979(4) 0.7500 0.4449(4)
C1G C 0.2171(6) 0.9089(9) 0.3143(4)
H1G H 0.2447 0.9083 0.2501
H2G H 0.1736 1.0122 0.3225
C2G C 0.3081(4) 0.9142(7) 0.3850(4)
H3G H 0.3044 1.0175 0.4245
H4G H 0.3756 0.9147 0.3520
H5G H 0.1876 0.8525 0.5384
H6G H 0.0578 0.8527 0.4292
H7G H 0.3720 0.8525 0.5614
F5? F 0.230(3) 0.607(3) 0.091(2)
F6? F 0.3639(8) 0.722(2) 0.1464(8)
B2? B 0.3071(16) 0.7500 0.0736(15)
F7? F 0.3414(6) 0.8176(10) -0.0102(5)
F8? F 0.231(3) 0.607(3) 0.091(2)
loop_
_geom_bond_atom_site_label_1
_geom_bond_atom_site_label_2
_geom_bond_site_symmetry_1
_geom_bond_site_symmetry_2
B1 F1 1_555 1_555
F2 B1 1_555 1_555
F3 B1 1_555 1_555
C1 H1 1_555 1_555
H2 C1 1_555 1_555
C2 C1 1_555 1_555
H3 C2 1_555 1_555
H4 C2 1_555 1_555
C3 H5 1_555 1_555
C4 C3 1_555 1_555
H6 C4 1_555 1_555
C5 H7 1_555 1_555
Cl1 C5 1_555 1_555
F4 N1 1_555 1_555
N1 C1 1_555 1_555
N2 C2 1_555 1_555
F1G B1 1_555 1_555
C1G N1 1_555 1_555
H1G C1G 1_555 1_555
H2G C1G 1_555 1_555
C2G N2 1_555 1_555
H3G C2G 1_555 1_555
H4G C2G 1_555 1_555
H5G C3 1_555 1_555
H6G C4 1_555 1_555
H7G C5 1_555 1_555
C3 N2 1_555 1_555
C4 N1 1_555 1_555
C5 N2 1_555 1_555
C1G C2G 1_555 1_555

#END
