
#######################################################################
#
#                 Cambridge Crystallographic Data Centre
#                                CCDC 
#
#######################################################################
#
# If this CIF has been generated from an entry in the Cambridge 
# Structural Database, then it will include bibliographic, chemical, 
# crystal, experimental, refinement or atomic coordinate data resulting 
# from the CCDC's data processing and validation procedures.
#
#######################################################################

data_WABTUO
_chemical_formula_moiety         'C23 H22 N2 O2'
_chemical_name_systematic        
6,7,8a,9-Tetrahydro-17,17-dimethylnaphtho(1'',2'':5',6')(1,4)oxazino(3',2':2,3)(1,4)oxazino(4,3-a)(3H)indole
_symmetry_cell_setting           monoclinic
_symmetry_space_group_name_H-M   'P 21/n'
_symmetry_Int_Tables_number      14
_space_group_name_Hall           '-P 2yn'
loop_
_symmetry_equiv_pos_site_id
_symmetry_equiv_pos_as_xyz
1 x,y,z
2 1/2-x,1/2+y,1/2-z
3 -x,-y,-z
4 1/2+x,1/2-y,1/2+z
_cell_length_a                   13.215(3)
_cell_length_b                   9.321(1)
_cell_length_c                   15.600(4)
_cell_angle_alpha                90
_cell_angle_beta                 105.68(2)
_cell_angle_gamma                90
_cell_volume                     1850.05
_exptl_crystal_colour            colorless
_cell_formula_units_Z            4
loop_
_atom_site_label
_atom_site_type_symbol
_atom_site_fract_x
_atom_site_fract_y
_atom_site_fract_z
O1 O 0.6620(1) 0.0506(2) 0.8584(1)
O2 O 0.7990(1) 0.2668(2) 0.8229(1)
N1 N 0.8370(2) -0.0112(2) 0.8799(1)
N2 N 0.7193(2) 0.3186(2) 0.9352(1)
C1 C 0.7680(2) 0.0742(3) 0.9154(2)
C2 C 0.8446(2) -0.1485(3) 0.9157(2)
C3 C 0.8827(2) -0.2725(3) 0.8877(2)
C4 C 0.8912(2) -0.3938(3) 0.9412(2)
C5 C 0.8613(2) -0.3912(3) 1.0194(2)
C6 C 0.8197(2) -0.2665(3) 1.0455(2)
C7 C 0.8113(2) -0.1451(3) 0.9938(2)
C8 C 0.7786(2) 0.0060(3) 1.0094(2)
C9 C 0.7959(2) 0.2315(3) 0.9114(2)
C10 C 0.8755(2) 0.1841(3) 0.7947(2)
C11 C 0.8485(2) 0.0266(3) 0.7925(2)
C12 C 0.6148(2) 0.2920(3) 0.8873(2)
C13 C 0.5892(2) 0.1577(3) 0.8520(2)
C14 C 0.4850(2) 0.1246(3) 0.8057(2)
C15 C 0.4083(2) 0.2251(4) 0.7964(2)
C16 C 0.4311(2) 0.3645(3) 0.8316(2)
C17 C 0.5359(2) 0.3989(3) 0.8782(2)
C18 C 0.5580(2) 0.5405(3) 0.9111(2)
C19 C 0.4801(3) 0.6401(4) 0.9004(2)
C20 C 0.3768(3) 0.6058(4) 0.8563(2)
C21 C 0.3525(2) 0.4718(4) 0.8235(2)
C22 C 0.8685(2) 0.0759(3) 1.0802(2)
C23 C 0.6777(2) 0.0120(3) 1.0389(2)
H1 H 0.7383 0.4092 0.9367
H2 H 0.9046 -0.2762 0.8335
H3 H 0.9185 -0.4816 0.9206
H4 H 0.8720 -0.4779 1.0578
H5 H 0.7965 -0.2648 1.1015
H6 H 0.8700 0.2512 0.9528
H7 H 0.9516 0.1992 0.8371
H8 H 0.8705 0.2189 0.7317
H9 H 0.7782 0.0108 0.7437
H10 H 0.9106 -0.0278 0.7826
H11 H 0.4707 0.0265 0.7820
H12 H 0.3354 0.2062 0.7633
H13 H 0.6319 0.5663 0.9425
H14 H 0.4976 0.7388 0.9265
H15 H 0.3236 0.6787 0.8532
H16 H 0.2866 0.4405 0.7954
H17 H 0.8787 0.0205 1.1352
H18 H 0.8514 0.1853 1.0917
H19 H 0.9361 0.0733 1.0625
H20 H 0.6866 -0.0340 1.0956
H21 H 0.6515 0.1150 1.0436
H22 H 0.6171 -0.0335 0.9945
loop_
_geom_bond_atom_site_label_1
_geom_bond_atom_site_label_2
_geom_bond_site_symmetry_1
_geom_bond_site_symmetry_2
O1 C1 1_555 1_555
O2 C9 1_555 1_555
N1 C1 1_555 1_555
N2 C9 1_555 1_555
C1 C8 1_555 1_555
C2 N1 1_555 1_555
C3 C2 1_555 1_555
C4 C3 1_555 1_555
C5 C4 1_555 1_555
C6 C5 1_555 1_555
C7 C2 1_555 1_555
C8 C7 1_555 1_555
C9 C1 1_555 1_555
C10 O2 1_555 1_555
C11 N1 1_555 1_555
C12 N2 1_555 1_555
C13 O1 1_555 1_555
C14 C13 1_555 1_555
C15 C14 1_555 1_555
C16 C15 1_555 1_555
C17 C12 1_555 1_555
C18 C17 1_555 1_555
C19 C18 1_555 1_555
C20 C19 1_555 1_555
C21 C16 1_555 1_555
C22 C8 1_555 1_555
C23 C8 1_555 1_555
H1 N2 1_555 1_555
H2 C3 1_555 1_555
H3 C4 1_555 1_555
H4 C5 1_555 1_555
H5 C6 1_555 1_555
H6 C9 1_555 1_555
H7 C10 1_555 1_555
H8 C10 1_555 1_555
H9 C11 1_555 1_555
H10 C11 1_555 1_555
H11 C14 1_555 1_555
H12 C15 1_555 1_555
H13 C18 1_555 1_555
H14 C19 1_555 1_555
H15 C20 1_555 1_555
H16 C21 1_555 1_555
H17 C22 1_555 1_555
H18 C22 1_555 1_555
H19 C22 1_555 1_555
H20 C23 1_555 1_555
H21 C23 1_555 1_555
H22 C23 1_555 1_555
C6 C7 1_555 1_555
C10 C11 1_555 1_555
C12 C13 1_555 1_555
C16 C17 1_555 1_555
C20 C21 1_555 1_555

#END
