
#######################################################################
#
#                 Cambridge Crystallographic Data Centre
#                                CCDC 
#
#######################################################################
#
# If this CIF has been generated from an entry in the Cambridge 
# Structural Database, then it will include bibliographic, chemical, 
# crystal, experimental, refinement or atomic coordinate data resulting 
# from the CCDC's data processing and validation procedures.
#
#######################################################################

data_WABYIK
_chemical_formula_moiety         'C30 H28 O4,C1 H1 Cl3'
_chemical_name_systematic        
'2,2-diphenyl-4-(2,4,6-trimethoxyphenyl)chromane chloroform solvate'
_symmetry_cell_setting           triclinic
_symmetry_space_group_name_H-M   'P -1'
_symmetry_Int_Tables_number      2
_space_group_name_Hall           '-P 1'
loop_
_symmetry_equiv_pos_site_id
_symmetry_equiv_pos_as_xyz
1 x,y,z
2 -x,-y,-z
_cell_length_a                   8.363(3)
_cell_length_b                   10.542(4)
_cell_length_c                   16.757(6)
_cell_angle_alpha                92.806(7)
_cell_angle_beta                 99.733(6)
_cell_angle_gamma                104.290(6)
_cell_volume                     1404.65
_exptl_crystal_colour            colorless
_exptl_crystal_description       block
_cell_formula_units_Z            2
loop_
_atom_site_label
_atom_site_type_symbol
_atom_site_fract_x
_atom_site_fract_y
_atom_site_fract_z
Cl1 Cl 0.8495(7) 0.6562(7) 0.8296(4)
Cl2 Cl 0.6227(9) 0.5918(7) 0.9345(4)
Cl3 Cl 0.6140(7) 0.7890(5) 0.8314(5)
C1 C 0.728(2) 0.7142(12) 0.8853(10)
H1 H 0.8046 0.7795 0.9273
O1 O 0.6355(5) 0.3917(4) 0.6630(3)
O2 O 0.8073(5) 0.0831(4) 0.5097(2)
O3 O 0.3236(6) 0.2152(5) 0.3946(3)
O4 O 1.0277(6) 0.3840(4) 0.8147(2)
C2 C 0.4719(8) 0.3083(7) 0.5296(4)
H2 H 0.3986 0.3604 0.5350
C3 C 0.4499(8) 0.2281(7) 0.4606(4)
C4 C 0.5591(8) 0.1516(6) 0.4516(4)
H3 H 0.5431 0.0974 0.4039
C5 C 0.6938(7) 0.1560(6) 0.5147(3)
C6 C 0.7182(7) 0.2355(5) 0.5872(3)
C7 C 0.6048(7) 0.3114(6) 0.5917(4)
C8 C 0.5052(9) 0.4466(9) 0.6816(5)
H4 H 0.4764 0.5005 0.6397
H5 H 0.5432 0.4993 0.7328
H6 H 0.4083 0.3771 0.6846
C9 C 0.7952(10) 0.0080(7) 0.4348(4)
H7 H 0.6920 -0.0601 0.4241
H8 H 0.8883 -0.0308 0.4383
H9 H 0.7971 0.0643 0.3915
C10 C 0.1957(10) 0.2814(10) 0.4032(5)
H10 H 0.1415 0.2489 0.4470
H11 H 0.1142 0.2654 0.3536
H12 H 0.2458 0.3742 0.4147
C11 C 0.8657(7) 0.2409(5) 0.6558(3)
H13 H 0.9226 0.1756 0.6396
C12 C 0.8094(7) 0.2039(6) 0.7369(3)
H14 H 0.7230 0.2470 0.7456
H15 H 0.7611 0.1097 0.7333
C13 C 0.9924(6) 0.3734(5) 0.6681(3)
C14 C 1.0651(7) 0.4366(6) 0.7451(3)
C15 C 1.1774(8) 0.5600(6) 0.7562(4)
H16 H 1.2209 0.6021 0.8083
C16 C 1.2241(8) 0.6199(6) 0.6892(4)
H17 H 1.3007 0.7021 0.6964
C17 C 1.1589(8) 0.5595(7) 0.6123(4)
H18 H 1.1907 0.6001 0.5673
C18 C 1.0452(7) 0.4376(6) 0.6024(4)
H19 H 1.0022 0.3967 0.5501
C19 C 0.9558(7) 0.2440(6) 0.8095(3)
C20 C 1.0953(8) 0.1742(7) 0.8044(3)
C21 C 1.2602(9) 0.2372(9) 0.8375(5)
H20 H 1.2876 0.3238 0.8604
C22 C 1.3873(11) 0.1711(14) 0.8367(7)
H21 H 1.4985 0.2151 0.8578
C23 C 1.3498(15) 0.0468(14) 0.8060(6)
H22 H 1.4345 0.0036 0.8073
C24 C 1.1897(14) -0.0177(10) 0.7730(5)
H23 H 1.1648 -0.1046 0.7511
C25 C 1.0605(10) 0.0464(8) 0.7716(4)
H24 H 0.9507 0.0018 0.7483
C26 C 0.8915(8) 0.2218(7) 0.8894(4)
C27 C 0.8555(15) 0.1046(9) 0.9185(6)
H25 H 0.8784 0.0341 0.8911
C28 C 0.7860(18) 0.0830(11) 0.9873(7)
H26 H 0.7598 -0.0013 1.0039
C29 C 0.7567(12) 0.1798(11) 1.0292(5)
H27 H 0.7128 0.1657 1.0764
C30 C 0.7916(13) 0.3012(11) 1.0027(5)
H28 H 0.7718 0.3712 1.0320
C31 C 0.8562(11) 0.3215(9) 0.9325(5)
H29 H 0.8760 0.4048 0.9142
loop_
_geom_bond_atom_site_label_1
_geom_bond_atom_site_label_2
_geom_bond_site_symmetry_1
_geom_bond_site_symmetry_2
Cl1 C1 1_555 1_555
Cl2 C1 1_555 1_555
Cl3 C1 1_555 1_555
C1 H1 1_555 1_555
O1 C7 1_555 1_555
O2 C5 1_555 1_555
O3 C3 1_555 1_555
O4 C14 1_555 1_555
C2 H2 1_555 1_555
C3 C2 1_555 1_555
C4 C3 1_555 1_555
H3 C4 1_555 1_555
C5 C4 1_555 1_555
C6 C5 1_555 1_555
C7 C2 1_555 1_555
C8 O1 1_555 1_555
H4 C8 1_555 1_555
H5 C8 1_555 1_555
H6 C8 1_555 1_555
C9 O2 1_555 1_555
H7 C9 1_555 1_555
H8 C9 1_555 1_555
H9 C9 1_555 1_555
C10 O3 1_555 1_555
H10 C10 1_555 1_555
H11 C10 1_555 1_555
H12 C10 1_555 1_555
C11 C6 1_555 1_555
H13 C11 1_555 1_555
C12 C11 1_555 1_555
H14 C12 1_555 1_555
H15 C12 1_555 1_555
C13 C11 1_555 1_555
C14 C13 1_555 1_555
C15 C14 1_555 1_555
H16 C15 1_555 1_555
C16 C15 1_555 1_555
H17 C16 1_555 1_555
C17 C16 1_555 1_555
H18 C17 1_555 1_555
C18 C13 1_555 1_555
H19 C18 1_555 1_555
C19 O4 1_555 1_555
C20 C19 1_555 1_555
C21 C20 1_555 1_555
H20 C21 1_555 1_555
C22 C21 1_555 1_555
H21 C22 1_555 1_555
C23 C22 1_555 1_555
H22 C23 1_555 1_555
C24 C23 1_555 1_555
H23 C24 1_555 1_555
C25 C20 1_555 1_555
H24 C25 1_555 1_555
C26 C19 1_555 1_555
C27 C26 1_555 1_555
H25 C27 1_555 1_555
C28 C27 1_555 1_555
H26 C28 1_555 1_555
C29 C28 1_555 1_555
H27 C29 1_555 1_555
C30 C29 1_555 1_555
H28 C30 1_555 1_555
C31 C26 1_555 1_555
H29 C31 1_555 1_555
C6 C7 1_555 1_555
C12 C19 1_555 1_555
C17 C18 1_555 1_555
C24 C25 1_555 1_555
C30 C31 1_555 1_555

#END
