
#######################################################################
#
#                 Cambridge Crystallographic Data Centre
#                                CCDC 
#
#######################################################################
#
# If this CIF has been generated from an entry in the Cambridge 
# Structural Database, then it will include bibliographic, chemical, 
# crystal, experimental, refinement or atomic coordinate data resulting 
# from the CCDC's data processing and validation procedures.
#
#######################################################################

data_WABZUX
_chemical_formula_moiety         'C21 H17 Br1 N2 O2'
_chemical_name_systematic        
1-allyl-6-benzylidene-3-(3-bromobenzylidene)piperazine-2,5-dione
_symmetry_cell_setting           monoclinic
_symmetry_space_group_name_H-M   'P 21/c'
_symmetry_Int_Tables_number      14
_space_group_name_Hall           '-P 2ybc'
loop_
_symmetry_equiv_pos_site_id
_symmetry_equiv_pos_as_xyz
1 x,y,z
2 -x,1/2+y,1/2-z
3 -x,-y,-z
4 x,1/2-y,1/2+z
_cell_length_a                   15.4568(4)
_cell_length_b                   11.0483(3)
_cell_length_c                   10.8255(3)
_cell_angle_alpha                90
_cell_angle_beta                 100.095(3)
_cell_angle_gamma                90
_cell_volume                     1820.06
_cell_formula_units_Z            4
loop_
_atom_site_label
_atom_site_type_symbol
_atom_site_fract_x
_atom_site_fract_y
_atom_site_fract_z
N1 N 0.20998(14) 0.5214(2) 0.4292(2)
N2 N 0.38217(13) 0.5386(2) 0.39174(19)
H1 H 0.4351 0.5321 0.3782
O1 O 0.16646(13) 0.4962(2) 0.21937(18)
O2 O 0.43130(12) 0.5252(2) 0.59941(17)
Br1 Br 0.65885(2) 0.73114(3) 0.22198(3)
C1 C 0.22443(18) 0.5210(3) 0.3075(3)
C2 C 0.31478(17) 0.5519(2) 0.2876(2)
C3 C 0.36942(17) 0.5355(2) 0.5118(2)
C4 C 0.27655(16) 0.5472(2) 0.5329(2)
C5 C 0.26617(18) 0.5735(3) 0.6493(3)
H2 H 0.3186 0.5753 0.7066
C6 C 0.18790(19) 0.6006(3) 0.7056(3)
C7 C 0.1698(2) 0.5320(4) 0.8057(3)
H3 H 0.2058 0.4666 0.8341
C8 C 0.0996(3) 0.5593(5) 0.8635(4)
H4 H 0.0879 0.5117 0.9295
C9 C 0.0476(3) 0.6558(5) 0.8239(5)
H5 H -0.0002 0.6732 0.8625
C10 C 0.0643(3) 0.7271(4) 0.7290(5)
H6 H 0.0291 0.7941 0.7043
C11 C 0.1351(2) 0.6995(3) 0.6680(4)
H7 H 0.1463 0.7478 0.6022
C12 C 0.32484(18) 0.5824(3) 0.1713(2)
H8 H 0.2728 0.5811 0.1132
C13 C 0.40151(19) 0.6173(2) 0.1178(2)
C14 C 0.48209(18) 0.6525(2) 0.1867(2)
H9 H 0.4902 0.6548 0.2738
C15 C 0.5500(2) 0.6840(2) 0.1255(2)
C16 C 0.5407(2) 0.6801(3) -0.0037(3)
H10 H 0.5873 0.7010 -0.0434
C17 C 0.4619(3) 0.6448(3) -0.0721(3)
H11 H 0.4551 0.6402 -0.1590
C18 C 0.3926(2) 0.6161(3) -0.0133(3)
H12 H 0.3388 0.5954 -0.0615
C19 C 0.12344(19) 0.4769(3) 0.4491(3)
H13 H 0.0975 0.5396 0.4937
H14 H 0.0866 0.4690 0.3672
C20 C 0.1174(7) 0.3653(10) 0.5149(10)
H15 H 0.0710 0.3567 0.5584
C21 C 0.1709(7) 0.2771(9) 0.5183(12)
H16 H 0.2182 0.2823 0.4760
H17 H 0.1626 0.2075 0.5632
H18? H 0.0787 0.4880 0.3751
H19? H 0.1047 0.5158 0.5203
C22? C 0.1441(14) 0.340(2) 0.474(2)
H20? H 0.1609 0.2945 0.4095
C23? C 0.1391(12) 0.2831(15) 0.582(2)
H21? H 0.1225 0.3260 0.6484
H22? H 0.1522 0.2011 0.5914
loop_
_geom_bond_atom_site_label_1
_geom_bond_atom_site_label_2
_geom_bond_site_symmetry_1
_geom_bond_site_symmetry_2
N1 C1 1_555 1_555
N2 H1 1_555 1_555
O1 C1 1_555 1_555
O2 C3 1_555 1_555
Br1 C15 1_555 1_555
C1 C2 1_555 1_555
C2 N2 1_555 1_555
C3 N2 1_555 1_555
C4 N1 1_555 1_555
C5 C4 1_555 1_555
H2 C5 1_555 1_555
C6 C5 1_555 1_555
C7 C6 1_555 1_555
H3 C7 1_555 1_555
C8 C7 1_555 1_555
H4 C8 1_555 1_555
C9 C8 1_555 1_555
H5 C9 1_555 1_555
C10 C9 1_555 1_555
H6 C10 1_555 1_555
C11 C6 1_555 1_555
H7 C11 1_555 1_555
C12 C2 1_555 1_555
H8 C12 1_555 1_555
C13 C12 1_555 1_555
C14 C13 1_555 1_555
H9 C14 1_555 1_555
C15 C14 1_555 1_555
C16 C15 1_555 1_555
H10 C16 1_555 1_555
C17 C16 1_555 1_555
H11 C17 1_555 1_555
C18 C13 1_555 1_555
H12 C18 1_555 1_555
C19 N1 1_555 1_555
H13 C19 1_555 1_555
H14 C19 1_555 1_555
C20 C19 1_555 1_555
H15 C20 1_555 1_555
C21 C20 1_555 1_555
H16 C21 1_555 1_555
H17 C21 1_555 1_555
C3 C4 1_555 1_555
C10 C11 1_555 1_555
C17 C18 1_555 1_555

#END
