
#######################################################################
#
#                 Cambridge Crystallographic Data Centre
#                                CCDC 
#
#######################################################################
#
# If this CIF has been generated from an entry in the Cambridge 
# Structural Database, then it will include bibliographic, chemical, 
# crystal, experimental, refinement or atomic coordinate data resulting 
# from the CCDC's data processing and validation procedures.
#
#######################################################################

data_WABZOR
_chemical_formula_moiety         'C52 H38 N2 O8 S2'
_chemical_name_systematic        
'3,8-Dihydroxy-2,7-bis((4-methylphenyl)sulfonyl)-3,4,8,9-tetraphenyl-2,3,7,8-tetrahydroisoindolo[5,6-f]isoindole-1,6-dione unknown solvate'
_symmetry_cell_setting           monoclinic
_symmetry_space_group_name_H-M   'C c'
_symmetry_Int_Tables_number      9
_space_group_name_Hall           'C -2yc'
loop_
_symmetry_equiv_pos_site_id
_symmetry_equiv_pos_as_xyz
1 x,y,z
2 x,-y,1/2+z
3 1/2+x,1/2+y,z
4 1/2+x,1/2-y,1/2+z
_cell_length_a                   24.514(2)
_cell_length_b                   14.1412(7)
_cell_length_c                   15.8848(14)
_cell_angle_alpha                90
_cell_angle_beta                 117.388(11)
_cell_angle_gamma                90
_cell_volume                     4889.36
_exptl_crystal_colour            yellow
_exptl_crystal_description       block
_cell_formula_units_Z            4
loop_
_atom_site_label
_atom_site_type_symbol
_atom_site_fract_x
_atom_site_fract_y
_atom_site_fract_z
S1 S 0.71737(6) 1.05605(8) 0.38878(9)
S2 S 0.50364(6) 0.24373(9) 0.12849(9)
O1 O 0.66622(18) 1.1196(3) 0.3413(3)
O2 O 0.7544(2) 1.0661(3) 0.4882(3)
O3 O 0.77671(18) 0.8630(3) 0.4338(3)
O4 O 0.59386(19) 0.9756(3) 0.2181(2)
H1 H 0.5934 1.0330 0.2254
O5 O 0.4699(2) 0.2379(3) 0.0281(3)
O6 O 0.55141(19) 0.1775(3) 0.1784(3)
O7 O 0.44922(19) 0.4384(3) 0.0835(3)
O8 O 0.62565(19) 0.3217(3) 0.3100(3)
H2 H 0.6370 0.2674 0.3088
N1 N 0.6855(2) 0.9484(3) 0.3642(3)
N2 N 0.5387(2) 0.3481(3) 0.1584(3)
C1 C 0.7643(3) 1.0551(4) 0.3320(4)
C2 C 0.8260(3) 1.0741(5) 0.3840(4)
H3 H 0.8433 1.0870 0.4485
C3 C 0.8611(3) 1.0733(5) 0.3368(5)
H4 H 0.9025 1.0885 0.3708
C4 C 0.8383(3) 1.0512(4) 0.2418(5)
C5 C 0.7765(3) 1.0352(5) 0.1925(5)
H5 H 0.7593 1.0237 0.1277
C6 C 0.7380(3) 1.0355(5) 0.2361(4)
H6 H 0.6962 1.0230 0.2016
C7 C 0.8775(4) 1.0488(7) 0.1921(7)
H7 H 0.8870 0.9844 0.1849
H8 H 0.9148 1.0830 0.2287
H9 H 0.8556 1.0776 0.1307
C8 C 0.7221(3) 0.8655(4) 0.3857(4)
C9 C 0.6787(2) 0.7885(4) 0.3359(4)
C10 C 0.6921(2) 0.6961(4) 0.3336(4)
H10 H 0.7326 0.6753 0.3649
C11 C 0.6442(2) 0.6314(4) 0.2835(3)
C12 C 0.6564(2) 0.5310(3) 0.2806(4)
C13 C 0.6074(2) 0.4716(3) 0.2327(4)
C14 C 0.6068(2) 0.3634(3) 0.2218(4)
C15 C 0.5038(3) 0.4317(4) 0.1348(4)
C16 C 0.5486(2) 0.5088(4) 0.1855(4)
C17 C 0.5343(3) 0.6025(4) 0.1858(4)
H11 H 0.4939 0.6235 0.1526
C18 C 0.5829(2) 0.6668(3) 0.2383(4)
C19 C 0.5693(2) 0.7648(4) 0.2435(3)
C20 C 0.6184(2) 0.8232(3) 0.2903(4)
C21 C 0.6172(3) 0.9308(4) 0.3063(4)
C22 C 0.5842(3) 0.9535(4) 0.3651(4)
C23 C 0.6092(3) 0.9207(5) 0.4582(4)
H12 H 0.6477 0.8921 0.4853
C24 C 0.5779(4) 0.9301(5) 0.5101(5)
H13 H 0.5941 0.9046 0.5708
C25 C 0.5217(4) 0.9778(6) 0.4725(6)
H14 H 0.5012 0.9870 0.5086
C26 C 0.4979(4) 1.0103(6) 0.3826(7)
H15 H 0.4602 1.0412 0.3567
C27 C 0.5286(3) 0.9986(5) 0.3265(5)
H16 H 0.5113 1.0212 0.2646
C28 C 0.5038(3) 0.7966(4) 0.2022(5)
C29 C 0.4717(3) 0.7854(5) 0.2532(7)
H17 H 0.4909 0.7577 0.3130
C30 C 0.4120(4) 0.8144(6) 0.2169(8)
H18 H 0.3910 0.8098 0.2529
C31 C 0.3836(4) 0.8502(7) 0.1274(9)
H19 H 0.3421 0.8652 0.1012
C32 C 0.4123(5) 0.8642(7) 0.0772(9)
H20 H 0.3919 0.8928 0.0180
C33 C 0.4746(4) 0.8360(5) 0.1123(8)
H21 H 0.4952 0.8437 0.0760
C34 C 0.7216(2) 0.4986(4) 0.3268(4)
C35 C 0.7578(3) 0.5110(5) 0.2815(6)
H22 H 0.7425 0.5429 0.2239
C36 C 0.8192(3) 0.4738(6) 0.3246(7)
H23 H 0.8437 0.4793 0.2943
C37 C 0.8406(4) 0.4314(6) 0.4087(8)
H24 H 0.8803 0.4074 0.4362
C38 C 0.8069(4) 0.4221(6) 0.4556(7)
H25 H 0.8242 0.3935 0.5150
C39 C 0.7473(4) 0.4543(5) 0.4164(6)
H26 H 0.7241 0.4470 0.4488
C40 C 0.6438(3) 0.3309(3) 0.1710(4)
C41 C 0.7026(3) 0.2945(4) 0.2230(4)
H27 H 0.7186 0.2849 0.2880
C42 C 0.7371(3) 0.2725(5) 0.1769(6)
H28 H 0.7766 0.2484 0.2114
C43 C 0.7144(4) 0.2856(6) 0.0826(6)
H29 H 0.7382 0.2719 0.0525
C44 C 0.6560(4) 0.3193(6) 0.0316(5)
H30 H 0.6399 0.3272 -0.0336
C45 C 0.6212(3) 0.3414(5) 0.0746(5)
H31 H 0.5814 0.3639 0.0386
C46 C 0.4524(3) 0.2468(4) 0.1776(4)
C47 C 0.3909(3) 0.2605(5) 0.1209(6)
H32 H 0.3760 0.2661 0.0556
C48 C 0.3502(4) 0.2663(6) 0.1600(7)
H33 H 0.3083 0.2749 0.1214
C49 C 0.3736(4) 0.2590(6) 0.2574(7)
C50 C 0.4356(4) 0.2459(6) 0.3135(6)
H34 H 0.4507 0.2407 0.3788
C51 C 0.4759(4) 0.2402(5) 0.2746(5)
H35 H 0.5179 0.2321 0.3131
C52 C 0.3305(5) 0.2702(8) 0.3030(9)
H36 H 0.3341 0.3332 0.3277
H37 H 0.3416 0.2254 0.3536
H38 H 0.2888 0.2591 0.2561
loop_
_geom_bond_atom_site_label_1
_geom_bond_atom_site_label_2
_geom_bond_site_symmetry_1
_geom_bond_site_symmetry_2
S1 O1 1_555 1_555
S2 O5 1_555 1_555
O2 S1 1_555 1_555
O3 C8 1_555 1_555
O4 H1 1_555 1_555
O6 S2 1_555 1_555
O7 C15 1_555 1_555
O8 H2 1_555 1_555
N1 S1 1_555 1_555
N2 S2 1_555 1_555
C1 S1 1_555 1_555
C2 C1 1_555 1_555
H3 C2 1_555 1_555
C3 C2 1_555 1_555
H4 C3 1_555 1_555
C4 C3 1_555 1_555
C5 C4 1_555 1_555
H5 C5 1_555 1_555
C6 C1 1_555 1_555
H6 C6 1_555 1_555
C7 C4 1_555 1_555
H7 C7 1_555 1_555
H8 C7 1_555 1_555
H9 C7 1_555 1_555
C8 N1 1_555 1_555
C9 C8 1_555 1_555
C10 C9 1_555 1_555
H10 C10 1_555 1_555
C11 C10 1_555 1_555
C12 C11 1_555 1_555
C13 C12 1_555 1_555
C14 O8 1_555 1_555
C15 N2 1_555 1_555
C16 C13 1_555 1_555
C17 C16 1_555 1_555
H11 C17 1_555 1_555
C18 C11 1_555 1_555
C19 C18 1_555 1_555
C20 C9 1_555 1_555
C21 O4 1_555 1_555
C22 C21 1_555 1_555
C23 C22 1_555 1_555
H12 C23 1_555 1_555
C24 C23 1_555 1_555
H13 C24 1_555 1_555
C25 C24 1_555 1_555
H14 C25 1_555 1_555
C26 C25 1_555 1_555
H15 C26 1_555 1_555
C27 C22 1_555 1_555
H16 C27 1_555 1_555
C28 C19 1_555 1_555
C29 C28 1_555 1_555
H17 C29 1_555 1_555
C30 C29 1_555 1_555
H18 C30 1_555 1_555
C31 C30 1_555 1_555
H19 C31 1_555 1_555
C32 C31 1_555 1_555
H20 C32 1_555 1_555
C33 C28 1_555 1_555
H21 C33 1_555 1_555
C34 C12 1_555 1_555
C35 C34 1_555 1_555
H22 C35 1_555 1_555
C36 C35 1_555 1_555
H23 C36 1_555 1_555
C37 C36 1_555 1_555
H24 C37 1_555 1_555
C38 C37 1_555 1_555
H25 C38 1_555 1_555
C39 C34 1_555 1_555
H26 C39 1_555 1_555
C40 C14 1_555 1_555
C41 C40 1_555 1_555
H27 C41 1_555 1_555
C42 C41 1_555 1_555
H28 C42 1_555 1_555
C43 C42 1_555 1_555
H29 C43 1_555 1_555
C44 C43 1_555 1_555
H30 C44 1_555 1_555
C45 C40 1_555 1_555
H31 C45 1_555 1_555
C46 S2 1_555 1_555
C47 C46 1_555 1_555
H32 C47 1_555 1_555
C48 C47 1_555 1_555
H33 C48 1_555 1_555
C49 C48 1_555 1_555
C50 C49 1_555 1_555
H34 C50 1_555 1_555
C51 C46 1_555 1_555
H35 C51 1_555 1_555
C52 C49 1_555 1_555
H36 C52 1_555 1_555
H37 C52 1_555 1_555
H38 C52 1_555 1_555
N1 C21 1_555 1_555
N2 C14 1_555 1_555
C5 C6 1_555 1_555
C13 C14 1_555 1_555
C15 C16 1_555 1_555
C17 C18 1_555 1_555
C19 C20 1_555 1_555
C20 C21 1_555 1_555
C26 C27 1_555 1_555
C32 C33 1_555 1_555
C38 C39 1_555 1_555
C44 C45 1_555 1_555
C50 C51 1_555 1_555

#END
