
#######################################################################
#
#                 Cambridge Crystallographic Data Centre
#                                CCDC 
#
#######################################################################
#
# If this CIF has been generated from an entry in the Cambridge 
# Structural Database, then it will include bibliographic, chemical, 
# crystal, experimental, refinement or atomic coordinate data resulting 
# from the CCDC's data processing and validation procedures.
#
#######################################################################

data_WACHUG
_chemical_formula_moiety         'C35 H27 N1 O3'
_chemical_name_systematic        
4-(2,2-diphenylvinyl)-6-nitro-2,2-diphenylchromane
_symmetry_cell_setting           orthorhombic
_symmetry_space_group_name_H-M   'P c a 21'
_symmetry_Int_Tables_number      29
_space_group_name_Hall           'P 2c -2ac'
loop_
_symmetry_equiv_pos_site_id
_symmetry_equiv_pos_as_xyz
1 x,y,z
2 -x,-y,1/2+z
3 1/2+x,-y,z
4 1/2-x,y,1/2+z
_cell_length_a                   14.2021(12)
_cell_length_b                   10.8102(10)
_cell_length_c                   17.2955(15)
_cell_angle_alpha                90
_cell_angle_beta                 90
_cell_angle_gamma                90
_cell_volume                     2655.34
_exptl_crystal_colour            yellow
_exptl_crystal_description       block
_cell_formula_units_Z            4
loop_
_atom_site_label
_atom_site_type_symbol
_atom_site_fract_x
_atom_site_fract_y
_atom_site_fract_z
O1 O 0.03505(8) 0.43692(10) 0.21980(7)
O2 O 0.40833(12) 0.43367(18) 0.40838(10)
O3 O 0.43141(12) 0.27359(19) 0.33800(12)
N1 N 0.38309(12) 0.36126(19) 0.35801(10)
C1 C 0.29278(13) 0.38086(18) 0.32021(11)
C2 C 0.23927(13) 0.48224(17) 0.34036(10)
H1 H 0.2612 0.5393 0.3764
C3 C 0.15296(12) 0.49707(17) 0.30607(10)
H2 H 0.1154 0.5642 0.3194
C4 C 0.12108(12) 0.41212(15) 0.25128(9)
C5 C 0.17597(12) 0.31007(16) 0.23032(10)
C6 C 0.26264(13) 0.29658(16) 0.26571(11)
H3 H 0.3010 0.2300 0.2526
C7 C 0.14024(12) 0.21730(16) 0.17237(10)
H4 H 0.1157 0.1462 0.2012
C8 C 0.05899(12) 0.27333(16) 0.12715(11)
H5 H 0.0278 0.2088 0.0977
H6 H 0.0834 0.3338 0.0909
C9 C -0.01234(12) 0.33556(15) 0.18038(10)
C10 C -0.09011(12) 0.39875(16) 0.13426(10)
C11 C -0.18430(13) 0.37464(18) 0.14673(11)
H7 H -0.2018 0.3203 0.1859
C12 C -0.25316(15) 0.4302(2) 0.10186(12)
H8 H -0.3163 0.4127 0.1108
C13 C -0.22822(16) 0.5107(2) 0.04445(13)
H9 H -0.2744 0.5478 0.0142
C14 C -0.13564(17) 0.5367(2) 0.03156(13)
H10 H -0.1189 0.5917 -0.0074
C15 C -0.06684(15) 0.48205(18) 0.07597(12)
H11 H -0.0039 0.5010 0.0669
C16 C -0.05135(12) 0.24657(17) 0.24074(11)
C17 C -0.07333(15) 0.2874(2) 0.31381(12)
H12 H -0.0601 0.3686 0.3279
C18 C -0.11517(17) 0.2082(3) 0.36650(14)
H13 H -0.1307 0.2371 0.4155
C19 C -0.13398(17) 0.0881(3) 0.34740(17)
H14 H -0.1629 0.0357 0.3828
C20 C -0.10995(16) 0.0460(2) 0.27593(18)
H15 H -0.1205 -0.0365 0.2632
C21 C -0.07015(13) 0.12421(19) 0.22207(14)
H16 H -0.0558 0.0948 0.1729
C22 C 0.21341(12) 0.17005(17) 0.11692(10)
H17 H 0.2615 0.2240 0.1028
C23 C 0.21472(12) 0.05678(15) 0.08641(10)
C24 C 0.14786(12) -0.04113(15) 0.11321(10)
C25 C 0.07563(15) -0.08141(19) 0.06599(12)
H18 H 0.0680 -0.0463 0.0173
C26 C 0.01488(15) -0.1728(2) 0.09008(15)
H19 H -0.0332 -0.1991 0.0575
C27 C 0.02478(18) -0.2251(2) 0.16167(15)
H20 H -0.0162 -0.2870 0.1777
C28 C 0.09522(16) -0.18568(18) 0.20924(13)
H21 H 0.1019 -0.2207 0.2580
C29 C 0.15662(14) -0.09448(17) 0.18566(11)
H22 H 0.2044 -0.0685 0.2187
C30 C 0.28004(12) 0.02277(16) 0.02266(10)
C31 C 0.31568(14) -0.09601(19) 0.01705(12)
H23 H 0.2969 -0.1555 0.0527
C32 C 0.37840(15) -0.1279(2) -0.04034(13)
H24 H 0.4023 -0.2079 -0.0426
C33 C 0.40564(17) -0.0419(3) -0.09418(14)
H25 H 0.4482 -0.0634 -0.1328
C34 C 0.36995(17) 0.0755(3) -0.09098(13)
H26 H 0.3880 0.1340 -0.1275
C35 C 0.30671(15) 0.1072(2) -0.03313(11)
H27 H 0.2818 0.1868 -0.0319
loop_
_geom_bond_atom_site_label_1
_geom_bond_atom_site_label_2
_geom_bond_site_symmetry_1
_geom_bond_site_symmetry_2
O1 C4 1_555 1_555
O2 N1 1_555 1_555
O3 N1 1_555 1_555
N1 C1 1_555 1_555
C1 C2 1_555 1_555
C2 H1 1_555 1_555
C3 C2 1_555 1_555
H2 C3 1_555 1_555
C4 C3 1_555 1_555
C5 C4 1_555 1_555
C6 C1 1_555 1_555
H3 C6 1_555 1_555
C7 C5 1_555 1_555
H4 C7 1_555 1_555
C8 C7 1_555 1_555
H5 C8 1_555 1_555
H6 C8 1_555 1_555
C9 O1 1_555 1_555
C10 C9 1_555 1_555
C11 C10 1_555 1_555
H7 C11 1_555 1_555
C12 C11 1_555 1_555
H8 C12 1_555 1_555
C13 C12 1_555 1_555
H9 C13 1_555 1_555
C14 C13 1_555 1_555
H10 C14 1_555 1_555
C15 C10 1_555 1_555
H11 C15 1_555 1_555
C16 C9 1_555 1_555
C17 C16 1_555 1_555
H12 C17 1_555 1_555
C18 C17 1_555 1_555
H13 C18 1_555 1_555
C19 C18 1_555 1_555
H14 C19 1_555 1_555
C20 C19 1_555 1_555
H15 C20 1_555 1_555
C21 C16 1_555 1_555
H16 C21 1_555 1_555
C22 C7 1_555 1_555
H17 C22 1_555 1_555
C23 C22 1_555 1_555
C24 C23 1_555 1_555
C25 C24 1_555 1_555
H18 C25 1_555 1_555
C26 C25 1_555 1_555
H19 C26 1_555 1_555
C27 C26 1_555 1_555
H20 C27 1_555 1_555
C28 C27 1_555 1_555
H21 C28 1_555 1_555
C29 C24 1_555 1_555
H22 C29 1_555 1_555
C30 C23 1_555 1_555
C31 C30 1_555 1_555
H23 C31 1_555 1_555
C32 C31 1_555 1_555
H24 C32 1_555 1_555
C33 C32 1_555 1_555
H25 C33 1_555 1_555
C34 C33 1_555 1_555
H26 C34 1_555 1_555
C35 C30 1_555 1_555
H27 C35 1_555 1_555
C5 C6 1_555 1_555
C8 C9 1_555 1_555
C14 C15 1_555 1_555
C20 C21 1_555 1_555
C28 C29 1_555 1_555
C34 C35 1_555 1_555

#END
