
#######################################################################
#
#                 Cambridge Crystallographic Data Centre
#                                CCDC 
#
#######################################################################
#
# If this CIF has been generated from an entry in the Cambridge 
# Structural Database, then it will include bibliographic, chemical, 
# crystal, experimental, refinement or atomic coordinate data resulting 
# from the CCDC's data processing and validation procedures.
#
#######################################################################

data_WACJAO
_chemical_formula_moiety         'C28 H22 O3'
_chemical_name_systematic        
6,6,8-triphenyl-7,8-dihydro-6H-[1,3]dioxolo[4,5-g]chromene
_symmetry_cell_setting           monoclinic
_symmetry_space_group_name_H-M   'C 2/c'
_symmetry_Int_Tables_number      15
_space_group_name_Hall           '-C 2yn'
loop_
_symmetry_equiv_pos_site_id
_symmetry_equiv_pos_as_xyz
1 x,y,z
2 -x,y,1/2-z
3 1/2+x,1/2+y,z
4 1/2-x,1/2+y,1/2-z
5 -x,-y,-z
6 x,-y,1/2+z
7 1/2-x,1/2-y,-z
8 1/2+x,1/2-y,1/2+z
_cell_length_a                   28.756(7)
_cell_length_b                   10.207(3)
_cell_length_c                   16.802(4)
_cell_angle_alpha                90
_cell_angle_beta                 117.739(4)
_cell_angle_gamma                90
_cell_volume                     4364.84
_exptl_crystal_colour            yellow
_exptl_crystal_description       block
_cell_formula_units_Z            8
loop_
_atom_site_label
_atom_site_type_symbol
_atom_site_fract_x
_atom_site_fract_y
_atom_site_fract_z
C1 C 0.02637(10) 0.1931(2) 0.47675(15)
H1 H 0.0478 0.2225 0.5381
H2 H -0.0094 0.1831 0.4670
C2 C 0.05466(6) 0.22731(16) 0.37513(10)
C3 C 0.06966(6) 0.27943(16) 0.31562(11)
H3 H 0.0631 0.3666 0.2976
C4 C 0.09565(5) 0.19463(15) 0.28276(10)
C5 C 0.10588(6) 0.06427(14) 0.30942(10)
C6 C 0.09089(6) 0.01559(16) 0.37298(10)
H4 H 0.0982 -0.0704 0.3933
C7 C 0.06529(6) 0.09825(16) 0.40380(10)
C8 C 0.14989(6) 0.18720(15) 0.20786(11)
C9 C 0.13468(7) 0.04164(17) 0.18943(12)
H5 H 0.1602 -0.0034 0.1768
H6 H 0.1007 0.0345 0.1366
C10 C 0.13213(6) -0.02592(16) 0.26964(11)
H7 H 0.1682 -0.0422 0.3162
C11 C 0.10453(7) -0.15860(16) 0.23913(11)
C12 C 0.13310(10) -0.26880(19) 0.23983(14)
H8 H 0.1693 -0.2624 0.2617
C13 C 0.10820(13) -0.3890(2) 0.20810(15)
H9 H 0.1278 -0.4616 0.2083
C14 C 0.05489(14) -0.4006(2) 0.17647(16)
H10 H 0.0384 -0.4810 0.1559
C15 C 0.02593(11) -0.2922(2) 0.17545(15)
H11 H -0.0101 -0.2996 0.1544
C16 C 0.05066(8) -0.17179(19) 0.20589(13)
H12 H 0.0307 -0.0990 0.2039
C17 C 0.20306(7) 0.21277(18) 0.29076(12)
C18 C 0.24556(8) 0.1275(3) 0.31541(18)
H13 H 0.2418 0.0510 0.2829
C19 C 0.29384(11) 0.1577(5) 0.3893(3)
H14 H 0.3222 0.1014 0.4051
C20 C 0.29977(13) 0.2702(5) 0.4388(3)
H15 H 0.3319 0.2892 0.4880
C21 C 0.25841(13) 0.3529(4) 0.41531(18)
H16 H 0.2624 0.4286 0.4487
C22 C 0.21008(9) 0.3256(2) 0.34168(14)
H17 H 0.1822 0.3833 0.3264
C23 C 0.14792(7) 0.25146(18) 0.12286(12)
C24 C 0.18520(11) 0.2191(3) 0.09569(19)
H18 H 0.2122 0.1613 0.1298
C25 C 0.18211(15) 0.2740(4) 0.0161(2)
H19 H 0.2067 0.2500 -0.0025
C26 C 0.14370(14) 0.3615(3) -0.03378(18)
H20 H 0.1425 0.3987 -0.0852
C27 C 0.10743(11) 0.3932(2) -0.00737(14)
H21 H 0.0813 0.4533 -0.0409
C28 C 0.10836(8) 0.33751(18) 0.06941(11)
H22 H 0.0821 0.3585 0.0848
O1 O 0.02797(5) 0.28777(13) 0.41571(9)
O2 O 0.04538(5) 0.07125(13) 0.46344(9)
O3 O 0.10880(4) 0.25173(11) 0.22075(7)
loop_
_geom_bond_atom_site_label_1
_geom_bond_atom_site_label_2
_geom_bond_site_symmetry_1
_geom_bond_site_symmetry_2
C1 H1 1_555 1_555
H2 C1 1_555 1_555
C2 C3 1_555 1_555
C3 H3 1_555 1_555
C4 C3 1_555 1_555
C5 C4 1_555 1_555
C6 C5 1_555 1_555
H4 C6 1_555 1_555
C7 C2 1_555 1_555
C8 C9 1_555 1_555
C9 H5 1_555 1_555
H6 C9 1_555 1_555
C10 C5 1_555 1_555
H7 C10 1_555 1_555
C11 C10 1_555 1_555
C12 C11 1_555 1_555
H8 C12 1_555 1_555
C13 C12 1_555 1_555
H9 C13 1_555 1_555
C14 C13 1_555 1_555
H10 C14 1_555 1_555
C15 C14 1_555 1_555
H11 C15 1_555 1_555
C16 C11 1_555 1_555
H12 C16 1_555 1_555
C17 C8 1_555 1_555
C18 C17 1_555 1_555
H13 C18 1_555 1_555
C19 C18 1_555 1_555
H14 C19 1_555 1_555
C20 C19 1_555 1_555
H15 C20 1_555 1_555
C21 C20 1_555 1_555
H16 C21 1_555 1_555
C22 C17 1_555 1_555
H17 C22 1_555 1_555
C23 C8 1_555 1_555
C24 C23 1_555 1_555
H18 C24 1_555 1_555
C25 C24 1_555 1_555
H19 C25 1_555 1_555
C26 C25 1_555 1_555
H20 C26 1_555 1_555
C27 C26 1_555 1_555
H21 C27 1_555 1_555
C28 C23 1_555 1_555
H22 C28 1_555 1_555
O1 C1 1_555 1_555
O2 C1 1_555 1_555
O3 C4 1_555 1_555
C2 O1 1_555 1_555
C6 C7 1_555 1_555
C7 O2 1_555 1_555
C8 O3 1_555 1_555
C9 C10 1_555 1_555
C15 C16 1_555 1_555
C21 C22 1_555 1_555
C27 C28 1_555 1_555

#END
