
#######################################################################
#
#                 Cambridge Crystallographic Data Centre
#                                CCDC 
#
#######################################################################
#
# If this CIF has been generated from an entry in the Cambridge 
# Structural Database, then it will include bibliographic, chemical, 
# crystal, experimental, refinement or atomic coordinate data resulting 
# from the CCDC's data processing and validation procedures.
#
#######################################################################

data_WACJUH
_chemical_formula_moiety         'C10 H13 N1 O3'
_chemical_name_systematic        'Ethyl 2-(3-amino-4-hydroxyphenyl)acetate'
_symmetry_cell_setting           triclinic
_symmetry_space_group_name_H-M   'P -1'
_symmetry_Int_Tables_number      2
_space_group_name_Hall           '-P 1'
loop_
_symmetry_equiv_pos_site_id
_symmetry_equiv_pos_as_xyz
1 x,y,z
2 -x,-y,-z
_cell_length_a                   8.5940(17)
_cell_length_b                   10.142(2)
_cell_length_c                   12.043(2)
_cell_angle_alpha                98.23(3)
_cell_angle_beta                 104.96(3)
_cell_angle_gamma                90.41(3)
_cell_volume                     1002.58
_exptl_crystal_colour            colorless
_exptl_crystal_description       block
_cell_formula_units_Z            4
_exptl_crystal_recrystallization_method 'ethyl acetate/petroleum ether'
loop_
_atom_site_label
_atom_site_type_symbol
_atom_site_fract_x
_atom_site_fract_y
_atom_site_fract_z
O1 O 1.0536(4) 0.8579(3) 0.9060(3)
O2 O 1.2035(3) 0.7342(3) 0.8128(3)
O3 O 0.9659(3) 0.2198(3) 0.4667(3)
H1 H 1.0353 0.1671 0.4878
N1 N 0.7667(5) 0.3994(3) 0.4283(3)
H2 H 0.6993 0.4586 0.4059
H3 H 0.7774 0.3314 0.3797
C1 C 1.1307(7) 1.0449(5) 0.8320(6)
H4 H 1.2096 1.1172 0.8466
H5 H 1.0260 1.0801 0.8263
H6 H 1.1306 0.9893 0.7604
C2 C 1.1679(6) 0.9708(5) 0.9218(5)
H7 H 1.1697 1.0281 0.9939
H8 H 1.2750 0.9377 0.9283
C3 C 1.0796(5) 0.7484(4) 0.8404(4)
C4 C 0.9484(5) 0.6448(4) 0.8233(4)
H9 H 0.8454 0.6861 0.8036
H10 H 0.9581 0.6112 0.8962
C5 C 0.9492(5) 0.5276(4) 0.7290(4)
C6 C 1.0634(5) 0.4308(4) 0.7533(4)
H11 H 1.1342 0.4357 0.8267
C7 C 1.0690(5) 0.3282(4) 0.6664(4)
H12 H 1.1455 0.2644 0.6825
C8 C 0.9663(4) 0.3164(3) 0.5569(3)
C9 C 0.8494(4) 0.4121(3) 0.5322(3)
C10 C 0.8459(5) 0.5164(4) 0.6213(4)
H13 H 0.7697 0.5806 0.6061
O4 O 0.3631(3) 0.5329(2) 0.1330(2)
O5 O 0.5351(4) 0.6553(3) 0.2847(3)
O6 O 0.4558(4) 1.2663(3) 0.4366(3)
H14 H 0.5107 1.3115 0.4082
N2 N 0.2886(4) 1.1022(4) 0.5184(3)
H15 H 0.2324 1.0498 0.5447
H16 H 0.3165 1.1816 0.5548
C11 C 0.4060(6) 0.3167(4) 0.0431(4)
H17 H 0.4722 0.2412 0.0527
H18 H 0.4119 0.3505 -0.0263
H19 H 0.2963 0.2901 0.0369
C12 C 0.4636(5) 0.4217(4) 0.1442(4)
H20 H 0.4625 0.3866 0.2148
H21 H 0.5737 0.4501 0.1496
C13 C 0.4116(5) 0.6431(4) 0.2094(3)
C14 C 0.2909(5) 0.7474(4) 0.1919(4)
H22 H 0.1973 0.7178 0.2141
H23 H 0.2568 0.7527 0.1094
C15 C 0.3408(4) 0.8849(3) 0.2550(3)
C16 C 0.4443(5) 0.9678(4) 0.2213(4)
H24 H 0.4852 0.9373 0.1584
C17 C 0.4866(5) 1.0952(4) 0.2809(3)
H25 H 0.5512 1.1512 0.2548
C18 C 0.4349(4) 1.1409(3) 0.3781(3)
C19 C 0.3347(4) 1.0583(3) 0.4161(3)
C20 C 0.2923(4) 0.9312(3) 0.3547(3)
H26 H 0.2290 0.8746 0.3812
loop_
_geom_bond_atom_site_label_1
_geom_bond_atom_site_label_2
_geom_bond_site_symmetry_1
_geom_bond_site_symmetry_2
O1 C2 1_555 1_555
O2 C3 1_555 1_555
O3 H1 1_555 1_555
N1 H2 1_555 1_555
H3 N1 1_555 1_555
C1 H4 1_555 1_555
H5 C1 1_555 1_555
H6 C1 1_555 1_555
C2 C1 1_555 1_555
H7 C2 1_555 1_555
H8 C2 1_555 1_555
C3 O1 1_555 1_555
C4 C3 1_555 1_555
H9 C4 1_555 1_555
H10 C4 1_555 1_555
C5 C4 1_555 1_555
C6 C5 1_555 1_555
H11 C6 1_555 1_555
C7 C6 1_555 1_555
H12 C7 1_555 1_555
C8 O3 1_555 1_555
C9 N1 1_555 1_555
C10 C5 1_555 1_555
H13 C10 1_555 1_555
O4 C12 1_555 1_555
O5 C13 1_555 1_555
O6 H14 1_555 1_555
N2 H15 1_555 1_555
H16 N2 1_555 1_555
C11 H17 1_555 1_555
H18 C11 1_555 1_555
H19 C11 1_555 1_555
C12 C11 1_555 1_555
H20 C12 1_555 1_555
H21 C12 1_555 1_555
C13 O4 1_555 1_555
C14 C13 1_555 1_555
H22 C14 1_555 1_555
H23 C14 1_555 1_555
C15 C14 1_555 1_555
C16 C15 1_555 1_555
H24 C16 1_555 1_555
C17 C16 1_555 1_555
H25 C17 1_555 1_555
C18 O6 1_555 1_555
C19 N2 1_555 1_555
C20 C15 1_555 1_555
H26 C20 1_555 1_555
C7 C8 1_555 1_555
C8 C9 1_555 1_555
C9 C10 1_555 1_555
C17 C18 1_555 1_555
C18 C19 1_555 1_555
C19 C20 1_555 1_555

#END
