
#######################################################################
#
#                 Cambridge Crystallographic Data Centre
#                                CCDC 
#
#######################################################################
#
# If this CIF has been generated from an entry in the Cambridge 
# Structural Database, then it will include bibliographic, chemical, 
# crystal, experimental, refinement or atomic coordinate data resulting 
# from the CCDC's data processing and validation procedures.
#
#######################################################################

data_WACMAQ
_chemical_formula_moiety         'C26 H25 F1 N2 O5'
_chemical_name_systematic        
4-(3-Fluoro-4-methoxyphenyl)-1-(4-methoxyphenyl)-5-(3,4,5-trimethoxyphenyl)-1H-imidazole
_symmetry_cell_setting           triclinic
_symmetry_space_group_name_H-M   'P -1'
_symmetry_Int_Tables_number      2
_space_group_name_Hall           '-P 1'
loop_
_symmetry_equiv_pos_site_id
_symmetry_equiv_pos_as_xyz
1 x,y,z
2 -x,-y,-z
_cell_length_a                   9.795(2)
_cell_length_b                   10.202(2)
_cell_length_c                   13.008(3)
_cell_angle_alpha                104.76(3)
_cell_angle_beta                 109.81(3)
_cell_angle_gamma                91.45(3)
_cell_volume                     1173.65
_exptl_crystal_colour            colorless
_exptl_crystal_description       block
_cell_formula_units_Z            2
loop_
_atom_site_label
_atom_site_type_symbol
_atom_site_fract_x
_atom_site_fract_y
_atom_site_fract_z
F1 F -0.1298(3) 0.7973(2) -0.06705(17)
N1 N 0.2523(3) 0.9865(2) 0.5152(2)
O1 O 0.5861(3) 1.1432(3) 0.9767(2)
C1 C 0.5238(6) 1.2059(5) 1.0579(3)
H1 H 0.5975 1.2293 1.1327
H2 H 0.4460 1.1437 1.0543
H3 H 0.4859 1.2872 1.0417
N2 N 0.1490(3) 1.0175(2) 0.3441(2)
O2 O -0.2366(3) 0.5452(3) -0.0943(2)
C2 C 0.4976(4) 1.1028(3) 0.8645(3)
O3 O 0.3163(3) 0.3936(2) 0.44874(19)
C3 C 0.5629(4) 1.0514(4) 0.7881(3)
H4 H 0.6625 1.0436 0.8141
O4 O 0.2214(3) 0.4035(2) 0.61811(19)
C4 C 0.4832(4) 1.0104(4) 0.6723(3)
H5 H 0.5287 0.9753 0.6207
O5 O 0.1123(3) 0.6229(2) 0.7079(2)
C5 C 0.3357(3) 1.0222(3) 0.6343(3)
C6 C 0.2704(4) 1.0724(3) 0.7116(3)
H6 H 0.1707 1.0795 0.6861
C7 C 0.3502(4) 1.1125(3) 0.8265(3)
H7 H 0.3046 1.1462 0.8782
C8 C 0.1876(3) 0.8580(3) 0.4414(2)
C9 C 0.1239(3) 0.8803(3) 0.3364(3)
C10 C 0.2242(4) 1.0762(3) 0.4503(3)
H8 H 0.2557 1.1694 0.4795
C11 C 0.0325(3) 0.7870(3) 0.2272(3)
C12 C -0.0271(4) 0.6560(3) 0.2128(3)
H9 H -0.0059 0.6230 0.2762
C13 C -0.1153(4) 0.5736(3) 0.1099(3)
H10 H -0.1527 0.4864 0.1045
C14 C -0.1503(4) 0.6184(3) 0.0124(3)
C15 C -0.0923(4) 0.7503(3) 0.0273(3)
C16 C -0.0043(4) 0.8328(3) 0.1282(3)
H11 H 0.0325 0.9199 0.1331
C17 C -0.2849(5) 0.4069(4) -0.1106(3)
H12 H -0.3444 0.3664 -0.1890
H13 H -0.3412 0.4023 -0.0636
H14 H -0.2018 0.3582 -0.0901
C18 C 0.1942(3) 0.7367(3) 0.4859(2)
C19 C 0.1424(3) 0.7387(3) 0.5724(3)
H15 H 0.0995 0.8133 0.5999
C20 C 0.1548(3) 0.6278(3) 0.6190(3)
C21 C 0.2126(3) 0.5149(3) 0.5745(3)
C22 C 0.2609(3) 0.5107(3) 0.4851(3)
C23 C 0.2545(3) 0.6233(3) 0.4415(3)
H16 H 0.2901 0.6227 0.3836
C24 C 0.3521(5) 0.3753(4) 0.3498(3)
H17 H 0.3897 0.2894 0.3341
H18 H 0.4248 0.4480 0.3616
H19 H 0.2661 0.3761 0.2865
C25 C 0.3515(5) 0.4118(4) 0.7100(3)
H20 H 0.3507 0.3318 0.7359
H21 H 0.3595 0.4915 0.7708
H22 H 0.4334 0.4176 0.6859
C26 C 0.0553(5) 0.7381(4) 0.7569(4)
H23 H 0.0299 0.7219 0.8181
H24 H -0.0302 0.7540 0.7002
H25 H 0.1276 0.8166 0.7858
loop_
_geom_bond_atom_site_label_1
_geom_bond_atom_site_label_2
_geom_bond_site_symmetry_1
_geom_bond_site_symmetry_2
F1 C15 1_555 1_555
N1 C5 1_555 1_555
O1 C1 1_555 1_555
C1 H1 1_555 1_555
H2 C1 1_555 1_555
H3 C1 1_555 1_555
N2 C9 1_555 1_555
O2 C14 1_555 1_555
C2 O1 1_555 1_555
O3 C22 1_555 1_555
C3 C2 1_555 1_555
H4 C3 1_555 1_555
O4 C21 1_555 1_555
C4 C3 1_555 1_555
H5 C4 1_555 1_555
O5 C20 1_555 1_555
C5 C4 1_555 1_555
C6 C5 1_555 1_555
H6 C6 1_555 1_555
C7 C2 1_555 1_555
H7 C7 1_555 1_555
C8 N1 1_555 1_555
C9 C8 1_555 1_555
C10 N1 1_555 1_555
H8 C10 1_555 1_555
C11 C9 1_555 1_555
C12 C11 1_555 1_555
H9 C12 1_555 1_555
C13 C12 1_555 1_555
H10 C13 1_555 1_555
C14 C13 1_555 1_555
C15 C14 1_555 1_555
C16 C11 1_555 1_555
H11 C16 1_555 1_555
C17 O2 1_555 1_555
H12 C17 1_555 1_555
H13 C17 1_555 1_555
H14 C17 1_555 1_555
C18 C8 1_555 1_555
C19 C18 1_555 1_555
H15 C19 1_555 1_555
C20 C19 1_555 1_555
C21 C20 1_555 1_555
C22 C21 1_555 1_555
C23 C18 1_555 1_555
H16 C23 1_555 1_555
C24 O3 1_555 1_555
H17 C24 1_555 1_555
H18 C24 1_555 1_555
H19 C24 1_555 1_555
C25 O4 1_555 1_555
H20 C25 1_555 1_555
H21 C25 1_555 1_555
H22 C25 1_555 1_555
C26 O5 1_555 1_555
H23 C26 1_555 1_555
H24 C26 1_555 1_555
H25 C26 1_555 1_555
N2 C10 1_555 1_555
C6 C7 1_555 1_555
C15 C16 1_555 1_555
C22 C23 1_555 1_555

#END
