
#######################################################################
#
#                 Cambridge Crystallographic Data Centre
#                                CCDC 
#
#######################################################################
#
# If this CIF has been generated from an entry in the Cambridge 
# Structural Database, then it will include bibliographic, chemical, 
# crystal, experimental, refinement or atomic coordinate data resulting 
# from the CCDC's data processing and validation procedures.
#
#######################################################################

data_WACNAR
_chemical_formula_moiety         'C17 H18 I2 N2 O1'
_chemical_name_systematic        
2-(((4-(Diethylamino)phenyl)imino)methyl)-4,6-diiodophenol
_symmetry_cell_setting           monoclinic
_symmetry_space_group_name_H-M   'P 21/n'
_symmetry_Int_Tables_number      14
_space_group_name_Hall           '-P 2yn'
loop_
_symmetry_equiv_pos_site_id
_symmetry_equiv_pos_as_xyz
1 x,y,z
2 1/2-x,1/2+y,1/2-z
3 -x,-y,-z
4 1/2+x,1/2-y,1/2+z
_cell_length_a                   11.5562(5)
_cell_length_b                   11.1325(5)
_cell_length_c                   15.1207(6)
_cell_angle_alpha                90
_cell_angle_beta                 111.958(2)
_cell_angle_gamma                90
_cell_volume                     1804.16
_exptl_crystal_colour            yellow
_exptl_crystal_description       block
_cell_formula_units_Z            4
loop_
_atom_site_label
_atom_site_type_symbol
_atom_site_fract_x
_atom_site_fract_y
_atom_site_fract_z
I1 I 0.33796(2) 0.47955(2) 0.048244(18)
I2 I -0.17213(2) 0.45975(3) -0.257569(17)
O1 O -0.18770(18) 0.2470(2) -0.12546(15)
H1 H -0.1935 0.1911 -0.0920
N1 N -0.1205(2) 0.10225(19) 0.01926(16)
N2 N -0.2604(2) -0.2797(2) 0.20106(18)
C1 C -0.0432(2) 0.3956(2) -0.12942(18)
C2 C -0.0754(2) 0.2987(2) -0.08510(19)
C3 C 0.0127(2) 0.2571(2) 0.00140(18)
C4 C 0.1298(2) 0.3106(2) 0.0396(2)
H2 H 0.1882 0.2827 0.0969
C5 C 0.1596(2) 0.4050(2) -0.00723(19)
C6 C 0.0732(2) 0.4483(2) -0.09115(19)
H3 H 0.0931 0.5128 -0.1220
C7 C -0.0155(3) 0.1572(2) 0.0516(2)
H4 H 0.0447 0.1321 0.1091
C8 C -0.1490(2) 0.0059(2) 0.06823(19)
C9 C -0.0659(2) -0.0478(2) 0.1498(2)
H5 H 0.0160 -0.0206 0.1753
C10 C -0.1022(3) -0.1412(3) 0.1942(2)
H6 H -0.0442 -0.1752 0.2490
C11 C -0.2248(2) -0.1854(2) 0.15812(19)
C12 C -0.3081(3) -0.1300(3) 0.0757(2)
H7 H -0.3906 -0.1557 0.0501
C13 C -0.2698(3) -0.0380(2) 0.03204(19)
H8 H -0.3268 -0.0044 -0.0234
C14 C -0.3909(3) -0.3145(3) 0.1708(2)
H9 H -0.3951 -0.3952 0.1936
H10 H -0.4266 -0.3168 0.1017
C15 C -0.4696(4) -0.2328(4) 0.2052(3)
H11 H -0.4382 -0.2334 0.2737
H12 H -0.5544 -0.2605 0.1808
H13 H -0.4662 -0.1525 0.1832
C16 C -0.1740(3) -0.3316(3) 0.2895(3)
H14 H -0.0935 -0.3421 0.2842
H15 H -0.2042 -0.4105 0.2977
C17 C -0.1568(4) -0.2583(5) 0.3760(3)
H16 H -0.1348 -0.1777 0.3662
H17 H -0.0914 -0.2926 0.4300
H18 H -0.2331 -0.2575 0.3874
loop_
_geom_bond_atom_site_label_1
_geom_bond_atom_site_label_2
_geom_bond_site_symmetry_1
_geom_bond_site_symmetry_2
I1 C5 1_555 1_555
I2 C1 1_555 1_555
O1 H1 1_555 1_555
N1 C7 1_555 1_555
N2 C11 1_555 1_555
C1 C2 1_555 1_555
C2 O1 1_555 1_555
C3 C2 1_555 1_555
C4 C3 1_555 1_555
H2 C4 1_555 1_555
C5 C4 1_555 1_555
C6 C1 1_555 1_555
H3 C6 1_555 1_555
C7 C3 1_555 1_555
H4 C7 1_555 1_555
C8 N1 1_555 1_555
C9 C8 1_555 1_555
H5 C9 1_555 1_555
C10 C9 1_555 1_555
H6 C10 1_555 1_555
C11 C10 1_555 1_555
C12 C11 1_555 1_555
H7 C12 1_555 1_555
C13 C8 1_555 1_555
H8 C13 1_555 1_555
C14 N2 1_555 1_555
H9 C14 1_555 1_555
H10 C14 1_555 1_555
C15 C14 1_555 1_555
H11 C15 1_555 1_555
H12 C15 1_555 1_555
H13 C15 1_555 1_555
C16 N2 1_555 1_555
H14 C16 1_555 1_555
H15 C16 1_555 1_555
C17 C16 1_555 1_555
H16 C17 1_555 1_555
H17 C17 1_555 1_555
H18 C17 1_555 1_555
C5 C6 1_555 1_555
C12 C13 1_555 1_555

#END
