
#######################################################################
#
#                 Cambridge Crystallographic Data Centre
#                                CCDC 
#
#######################################################################
#
# If this CIF has been generated from an entry in the Cambridge 
# Structural Database, then it will include bibliographic, chemical, 
# crystal, experimental, refinement or atomic coordinate data resulting 
# from the CCDC's data processing and validation procedures.
#
#######################################################################

data_WACNUL
_chemical_formula_moiety         'C14 H12 F3 N1 O1 S1'
_chemical_name_systematic        
2-(Benzylsulfanyl)-3-(2,2,2-trifluoroethoxy)pyridine
_symmetry_cell_setting           monoclinic
_symmetry_space_group_name_H-M   'P 21/n'
_symmetry_Int_Tables_number      14
_space_group_name_Hall           '-P 2yn'
loop_
_symmetry_equiv_pos_site_id
_symmetry_equiv_pos_as_xyz
1 x,y,z
2 1/2-x,1/2+y,1/2-z
3 -x,-y,-z
4 1/2+x,1/2-y,1/2+z
_cell_length_a                   8.3770(17)
_cell_length_b                   16.860(3)
_cell_length_c                   10.144(2)
_cell_angle_alpha                90
_cell_angle_beta                 97.32(3)
_cell_angle_gamma                90
_cell_volume                     1421.02
_exptl_crystal_colour            colorless
_exptl_crystal_description       block
_chemical_melting_point          '353 K'
_cell_formula_units_Z            4
loop_
_atom_site_label
_atom_site_type_symbol
_atom_site_fract_x
_atom_site_fract_y
_atom_site_fract_z
S1 S 0.18955(13) 0.37494(6) 0.26098(10)
O1 O -0.0642(3) 0.33867(16) 0.0614(3)
N1 N 0.2971(4) 0.45168(18) 0.0576(3)
F1 F -0.2695(4) 0.21214(19) 0.1032(4)
F2 F -0.4629(4) 0.2729(2) -0.0088(4)
F3 F -0.3439(4) 0.3240(2) 0.1674(3)
C1 C -0.3180(6) 0.2823(3) 0.0625(6)
C2 C -0.2097(5) 0.3222(3) -0.0197(4)
H1 H -0.1897 0.2882 -0.0930
H2 H -0.2582 0.3710 -0.0560
C3 C 0.0459(4) 0.3844(2) 0.0070(4)
C4 C 0.0345(5) 0.4081(3) -0.1235(4)
H3 H -0.0530 0.3936 -0.1846
C5 C 0.1580(5) 0.4542(3) -0.1607(4)
H4 H 0.1544 0.4714 -0.2482
C6 C 0.2844(5) 0.4742(2) -0.0694(4)
H5 H 0.3661 0.5051 -0.0966
C7 C 0.1804(4) 0.4077(2) 0.0952(3)
C8 C 0.3643(5) 0.4284(2) 0.3398(4)
H6 H 0.4075 0.4004 0.4201
H7 H 0.4463 0.4285 0.2804
C9 C 0.3294(4) 0.5127(2) 0.3752(3)
C10 C 0.4057(4) 0.5758(2) 0.3243(4)
H8 H 0.4780 0.5663 0.2637
C11 C 0.3776(5) 0.6527(2) 0.3611(4)
H9 H 0.4310 0.6943 0.3254
C12 C 0.2721(5) 0.6681(3) 0.4494(5)
H10 H 0.2528 0.7200 0.4739
C13 C 0.1939(5) 0.6058(3) 0.5023(5)
H11 H 0.1226 0.6157 0.5635
C14 C 0.2214(5) 0.5291(3) 0.4647(4)
H12 H 0.1668 0.4877 0.4997
loop_
_geom_bond_atom_site_label_1
_geom_bond_atom_site_label_2
_geom_bond_site_symmetry_1
_geom_bond_site_symmetry_2
S1 C7 1_555 1_555
O1 C2 1_555 1_555
N1 C6 1_555 1_555
F1 C1 1_555 1_555
F2 C1 1_555 1_555
F3 C1 1_555 1_555
C1 C2 1_555 1_555
C2 H1 1_555 1_555
H2 C2 1_555 1_555
C3 O1 1_555 1_555
C4 C3 1_555 1_555
H3 C4 1_555 1_555
C5 C4 1_555 1_555
H4 C5 1_555 1_555
C6 C5 1_555 1_555
H5 C6 1_555 1_555
C7 N1 1_555 1_555
C8 S1 1_555 1_555
H6 C8 1_555 1_555
H7 C8 1_555 1_555
C9 C8 1_555 1_555
C10 C9 1_555 1_555
H8 C10 1_555 1_555
C11 C10 1_555 1_555
H9 C11 1_555 1_555
C12 C11 1_555 1_555
H10 C12 1_555 1_555
C13 C12 1_555 1_555
H11 C13 1_555 1_555
C14 C9 1_555 1_555
H12 C14 1_555 1_555
C3 C7 1_555 1_555
C13 C14 1_555 1_555

#END
