
#######################################################################
#
#                 Cambridge Crystallographic Data Centre
#                                CCDC 
#
#######################################################################
#
# If this CIF has been generated from an entry in the Cambridge 
# Structural Database, then it will include bibliographic, chemical, 
# crystal, experimental, refinement or atomic coordinate data resulting 
# from the CCDC's data processing and validation procedures.
#
#######################################################################

data_WACREZ
_chemical_formula_moiety         'C10 H10 Cl3 N1 O1'
_chemical_name_systematic        
(E)-2,4-Dichloro-6-(1-((2-chloroethyl)iminio)ethyl)phenolate
_symmetry_cell_setting           monoclinic
_symmetry_space_group_name_H-M   'P 21/c'
_symmetry_Int_Tables_number      14
_space_group_name_Hall           '-P 2ybc'
loop_
_symmetry_equiv_pos_site_id
_symmetry_equiv_pos_as_xyz
1 x,y,z
2 -x,1/2+y,1/2-z
3 -x,-y,-z
4 x,1/2-y,1/2+z
_cell_length_a                   14.5710(2)
_cell_length_b                   10.2323(2)
_cell_length_c                   7.7384(1)
_cell_angle_alpha                90
_cell_angle_beta                 94.376(1)
_cell_angle_gamma                90
_cell_volume                     1150.39
_exptl_crystal_colour            orange
_exptl_crystal_description       plate
_cell_formula_units_Z            4
_exptl_crystal_recrystallization_method 'ethyl acetate'
loop_
_atom_site_label
_atom_site_type_symbol
_atom_site_fract_x
_atom_site_fract_y
_atom_site_fract_z
C1 C 0.57736(13) 0.15817(19) -0.1505(2)
C2 C 0.61146(13) 0.0340(2) -0.1143(2)
H1 H 0.5771 -0.0395 -0.1481
C3 C 0.69659(12) 0.02119(17) -0.0279(2)
C4 C 0.75065(12) 0.12988(16) 0.0289(2)
C5 C 0.71381(12) 0.25627(16) -0.0117(2)
C6 C 0.62665(12) 0.26726(18) -0.1027(2)
H2 H 0.6026 0.3495 -0.1303
C7 C 0.76729(12) 0.37256(16) 0.0405(2)
C8 C 0.73432(14) 0.50736(18) -0.0072(3)
H3 H 0.6689 0.5122 0.0002
H4 H 0.7487 0.5268 -0.1235
H5 H 0.7642 0.5696 0.0710
C9 C 0.90715(13) 0.45820(17) 0.1910(2)
H6 H 0.8749 0.5189 0.2611
H7 H 0.9276 0.5057 0.0925
C10 C 0.98893(13) 0.40380(19) 0.2962(2)
H8 H 0.9682 0.3582 0.3961
H9 H 1.0284 0.4752 0.3382
Cl1 Cl 0.46922(4) 0.17442(7) -0.26165(8)
Cl2 Cl 0.74236(4) -0.13318(4) 0.01161(8)
Cl3 Cl 1.05345(3) 0.29415(5) 0.17400(7)
N1 N 0.84464(10) 0.35378(14) 0.12961(19)
H10 H 0.858(3) 0.271(2) 0.146(5)
O1 O 0.83069(9) 0.11256(12) 0.11379(18)
H11? H 0.855(3) 0.183(3) 0.145(6)
loop_
_geom_bond_atom_site_label_1
_geom_bond_atom_site_label_2
_geom_bond_site_symmetry_1
_geom_bond_site_symmetry_2
C1 C2 1_555 1_555
C2 H1 1_555 1_555
C3 C2 1_555 1_555
C4 C3 1_555 1_555
C5 C4 1_555 1_555
C6 C1 1_555 1_555
H2 C6 1_555 1_555
C7 C5 1_555 1_555
C8 C7 1_555 1_555
H3 C8 1_555 1_555
H4 C8 1_555 1_555
H5 C8 1_555 1_555
C9 H6 1_555 1_555
H7 C9 1_555 1_555
C10 C9 1_555 1_555
H8 C10 1_555 1_555
H9 C10 1_555 1_555
Cl1 C1 1_555 1_555
Cl2 C3 1_555 1_555
Cl3 C10 1_555 1_555
N1 C7 1_555 1_555
H10 N1 1_555 1_555
O1 C4 1_555 1_555
C5 C6 1_555 1_555
C9 N1 1_555 1_555

#END
