
#######################################################################
#
#                 Cambridge Crystallographic Data Centre
#                                CCDC 
#
#######################################################################
#
# If this CIF has been generated from an entry in the Cambridge 
# Structural Database, then it will include bibliographic, chemical, 
# crystal, experimental, refinement or atomic coordinate data resulting 
# from the CCDC's data processing and validation procedures.
#
#######################################################################

data_WACSIE
_chemical_formula_moiety         'C13 H16 O4'
_chemical_name_systematic        'Dimethyl 3-phenylpentanedioate'
_symmetry_cell_setting           triclinic
_symmetry_space_group_name_H-M   'P -1'
_symmetry_Int_Tables_number      2
_space_group_name_Hall           '-P 1'
loop_
_symmetry_equiv_pos_site_id
_symmetry_equiv_pos_as_xyz
1 x,y,z
2 -x,-y,-z
_cell_length_a                   5.7944(2)
_cell_length_b                   8.7668(3)
_cell_length_c                   12.7591(4)
_cell_angle_alpha                92.609(2)
_cell_angle_beta                 101.979(2)
_cell_angle_gamma                96.140(2)
_cell_volume                     628.86
_exptl_crystal_colour            colorless
_exptl_crystal_description       prism
_cell_formula_units_Z            2
loop_
_atom_site_label
_atom_site_type_symbol
_atom_site_fract_x
_atom_site_fract_y
_atom_site_fract_z
C1 C 0.4786(2) 0.22914(15) 0.76660(10)
C2 C 0.6254(3) 0.26207(18) 0.69556(13)
H1 H 0.7299 0.1932 0.6833
C3 C 0.6182(3) 0.3963(2) 0.64272(13)
H2 H 0.7184 0.4169 0.5955
C4 C 0.4658(3) 0.49892(18) 0.65906(13)
H3 H 0.4610 0.5886 0.6229
C5 C 0.3203(3) 0.46854(17) 0.72911(13)
H4 H 0.2166 0.5382 0.7410
C6 C 0.3263(3) 0.33451(16) 0.78254(12)
H5 H 0.2261 0.3152 0.8299
C7 C 0.4854(2) 0.08246(15) 0.82520(11)
H6 H 0.3652 0.0799 0.8692
C8 C 0.7273(3) 0.07618(17) 0.89975(11)
H7 H 0.7261 -0.0220 0.9319
H8 H 0.8482 0.0813 0.8572
C9 C 0.7936(3) 0.20195(16) 0.98715(11)
C10 C 1.1203(4) 0.3609(2) 1.09571(16)
H9 H 1.0243 0.4439 1.0931
H10 H 1.2801 0.4007 1.0937
H11 H 1.1199 0.3104 1.1609
C11 C 0.4293(2) -0.06163(16) 0.74809(12)
H12 H 0.5381 -0.0554 0.6996
H13 H 0.4573 -0.1507 0.7892
C12 C 0.1809(3) -0.08498(16) 0.68321(12)
C13 C -0.0740(4) -0.2120(3) 0.52859(17)
H14 H -0.1606 -0.2865 0.5633
H15 H -0.0641 -0.2549 0.4593
H16 H -0.1546 -0.1218 0.5202
O1 O 1.02509(18) 0.25234(13) 1.00486(9)
O2 O 0.6623(2) 0.25035(15) 1.03815(10)
O3 O 0.1625(2) -0.17144(14) 0.59333(9)
O4 O 0.0144(2) -0.03577(17) 0.70777(11)
loop_
_geom_bond_atom_site_label_1
_geom_bond_atom_site_label_2
_geom_bond_site_symmetry_1
_geom_bond_site_symmetry_2
C1 C2 1_555 1_555
C2 H1 1_555 1_555
C3 C2 1_555 1_555
H2 C3 1_555 1_555
C4 C3 1_555 1_555
H3 C4 1_555 1_555
C5 C4 1_555 1_555
H4 C5 1_555 1_555
C6 C1 1_555 1_555
H5 C6 1_555 1_555
C7 C1 1_555 1_555
H6 C7 1_555 1_555
C8 C7 1_555 1_555
H7 C8 1_555 1_555
H8 C8 1_555 1_555
C9 C8 1_555 1_555
C10 H9 1_555 1_555
H10 C10 1_555 1_555
H11 C10 1_555 1_555
C11 C7 1_555 1_555
H12 C11 1_555 1_555
H13 C11 1_555 1_555
C12 C11 1_555 1_555
C13 H14 1_555 1_555
H15 C13 1_555 1_555
H16 C13 1_555 1_555
O1 C9 1_555 1_555
O2 C9 1_555 1_555
O3 C12 1_555 1_555
O4 C12 1_555 1_555
C5 C6 1_555 1_555
C10 O1 1_555 1_555
C13 O3 1_555 1_555

#END
