
#######################################################################
#
#                 Cambridge Crystallographic Data Centre
#                                CCDC 
#
#######################################################################
#
# If this CIF has been generated from an entry in the Cambridge 
# Structural Database, then it will include bibliographic, chemical, 
# crystal, experimental, refinement or atomic coordinate data resulting 
# from the CCDC's data processing and validation procedures.
#
#######################################################################

data_WACWII
_chemical_formula_moiety         'C13 H9 Br2 N3 O1'
_chemical_name_systematic        
2-(5,6-Dibromo-7-methyl-3H-imidazo[4,5-b]pyridin-2-yl)phenol
_symmetry_cell_setting           orthorhombic
_symmetry_space_group_name_H-M   'P b c a'
_symmetry_Int_Tables_number      61
_space_group_name_Hall           '-P 2ac 2ab'
loop_
_symmetry_equiv_pos_site_id
_symmetry_equiv_pos_as_xyz
1 x,y,z
2 1/2-x,-y,1/2+z
3 -x,1/2+y,1/2-z
4 1/2+x,1/2-y,-z
5 -x,-y,-z
6 1/2+x,y,1/2-z
7 x,1/2-y,1/2+z
8 1/2-x,1/2+y,z
_cell_length_a                   13.181(5)
_cell_length_b                   8.494(3)
_cell_length_c                   22.692(8)
_cell_angle_alpha                90
_cell_angle_beta                 90
_cell_angle_gamma                90
_cell_volume                     2540.58
_exptl_crystal_colour            'orange yellow'
_exptl_crystal_description       block
_cell_formula_units_Z            8
loop_
_atom_site_label
_atom_site_type_symbol
_atom_site_fract_x
_atom_site_fract_y
_atom_site_fract_z
Br1 Br 0.27968(6) 1.22305(9) 0.48970(3)
Br2 Br 0.51701(6) 1.19032(9) 0.54180(3)
O1 O 0.0310(3) 0.7707(6) 0.73898(19)
H1 H 0.0614 0.8111 0.7113
N1 N 0.3413(3) 0.8522(5) 0.7102(2)
H2 H 0.4011 0.8215 0.7306
N2 N 0.1806(3) 0.8887(5) 0.68102(19)
N3 N 0.4280(4) 1.0090(7) 0.6313(2)
C1 C 0.3468(4) 0.9445(6) 0.6601(2)
C2 C 0.2452(4) 0.9659(6) 0.6416(2)
C3 C 0.2226(4) 1.0517(7) 0.5909(2)
C4 C 0.3060(4) 1.1146(7) 0.5612(2)
C5 C 0.4049(4) 1.0950(6) 0.5811(2)
C6 C 0.1127(5) 1.0806(9) 0.5643(3)
H3 H 0.0923 1.1873 0.5717
H4 H 0.0653 1.0098 0.5825
H5 H 0.1140 1.0621 0.5226
C7 C 0.2410(4) 0.8221(6) 0.7213(2)
C8 C 0.2041(4) 0.7275(6) 0.7696(2)
C9 C 0.0988(5) 0.7064(7) 0.7768(3)
C10 C 0.0636(5) 0.6169(8) 0.8237(3)
H6 H -0.0057 0.6022 0.8288
C11 C 0.1315(5) 0.5488(8) 0.8632(3)
H7 H 0.1074 0.4895 0.8947
C12 C 0.2329(5) 0.5690(8) 0.8558(3)
H8 H 0.2779 0.5226 0.8821
C13 C 0.2693(4) 0.6560(7) 0.8104(3)
H9 H 0.3390 0.6686 0.8063
loop_
_geom_bond_atom_site_label_1
_geom_bond_atom_site_label_2
_geom_bond_site_symmetry_1
_geom_bond_site_symmetry_2
Br1 C4 1_555 1_555
Br2 C5 1_555 1_555
O1 H1 1_555 1_555
N1 H2 1_555 1_555
N2 C2 1_555 1_555
N3 C1 1_555 1_555
C1 N1 1_555 1_555
C2 C1 1_555 1_555
C3 C2 1_555 1_555
C4 C3 1_555 1_555
C5 N3 1_555 1_555
C6 C3 1_555 1_555
H3 C6 1_555 1_555
H4 C6 1_555 1_555
H5 C6 1_555 1_555
C7 N1 1_555 1_555
C8 C7 1_555 1_555
C9 O1 1_555 1_555
C10 C9 1_555 1_555
H6 C10 1_555 1_555
C11 C10 1_555 1_555
H7 C11 1_555 1_555
C12 C11 1_555 1_555
H8 C12 1_555 1_555
C13 C8 1_555 1_555
H9 C13 1_555 1_555
N2 C7 1_555 1_555
C4 C5 1_555 1_555
C8 C9 1_555 1_555
C12 C13 1_555 1_555

#END
