
#######################################################################
#
#                 Cambridge Crystallographic Data Centre
#                                CCDC 
#
#######################################################################
#
# If this CIF has been generated from an entry in the Cambridge 
# Structural Database, then it will include bibliographic, chemical, 
# crystal, experimental, refinement or atomic coordinate data resulting 
# from the CCDC's data processing and validation procedures.
#
#######################################################################

data_WADCAG
_chemical_formula_moiety         'C12 H12 O3'
_chemical_name_systematic        3-Acetyl-2-hydroxy-2-methylchromene
_chemical_properties_biological  
'antifeedant activity against Spilarctia obliqua larvae; potential antimicrobial activity'
_symmetry_cell_setting           triclinic
_symmetry_space_group_name_H-M   'P -1'
_symmetry_Int_Tables_number      2
_space_group_name_Hall           '-P 1'
loop_
_symmetry_equiv_pos_site_id
_symmetry_equiv_pos_as_xyz
1 x,y,z
2 -x,-y,-z
_cell_length_a                   7.574(2)
_cell_length_b                   8.672(2)
_cell_length_c                   8.789(3)
_cell_angle_alpha                106.32(3)
_cell_angle_beta                 110.99(3)
_cell_angle_gamma                93.28(3)
_cell_volume                     509.162
_exptl_crystal_colour            yellow
_exptl_crystal_description       prism
_cell_formula_units_Z            2
_exptl_crystal_recrystallization_method 'chloroform/petroleum ether'
loop_
_atom_site_label
_atom_site_type_symbol
_atom_site_fract_x
_atom_site_fract_y
_atom_site_fract_z
O1 O 0.77151(15) 0.09860(13) 0.39864(16)
C1 C 0.8307(2) 0.26962(17) 0.5000(2)
C2 C 0.6864(2) 0.32875(17) 0.57756(19)
C3 C 0.5039(2) 0.24953(18) 0.5018(2)
H1 H 0.4158 0.2868 0.5486
C4 C 0.2484(2) 0.0368(2) 0.2492(2)
H2 H 0.1527 0.0804 0.2811
C5 C 0.1993(3) -0.0976(2) 0.1030(2)
H3 H 0.0709 -0.1440 0.0367
C6 C 0.3413(3) -0.1628(2) 0.0560(2)
H4 H 0.3076 -0.2527 -0.0427
C7 C 0.5331(3) -0.0961(2) 0.1536(2)
H5 H 0.6283 -0.1413 0.1220
C8 C 0.5814(2) 0.03956(18) 0.2996(2)
C9 C 0.4410(2) 0.10749(18) 0.3491(2)
O2 O 0.83018(16) 0.36112(14) 0.39158(15)
H6 H 0.9329 0.3650 0.3800
C10 C 1.0288(2) 0.2744(2) 0.6304(2)
H7 H 1.1032 0.2176 0.5718
H8 H 1.0169 0.2228 0.7104
H9 H 1.0919 0.3858 0.6914
C11 C 0.7453(2) 0.48739(19) 0.7176(2)
O3 O 0.88717(19) 0.58295(15) 0.7476(2)
C12 C 0.6240(3) 0.5332(2) 0.8216(2)
H10 H 0.6928 0.6271 0.9208
H11 H 0.5959 0.4436 0.8581
H12 H 0.5062 0.5581 0.7521
loop_
_geom_bond_atom_site_label_1
_geom_bond_atom_site_label_2
_geom_bond_site_symmetry_1
_geom_bond_site_symmetry_2
O1 C1 1_555 1_555
C1 C2 1_555 1_555
C2 C3 1_555 1_555
C3 H1 1_555 1_555
C4 H2 1_555 1_555
C5 C4 1_555 1_555
H3 C5 1_555 1_555
C6 C5 1_555 1_555
H4 C6 1_555 1_555
C7 C6 1_555 1_555
H5 C7 1_555 1_555
C8 O1 1_555 1_555
C9 C3 1_555 1_555
O2 C1 1_555 1_555
H6 O2 1_555 1_555
C10 C1 1_555 1_555
H7 C10 1_555 1_555
H8 C10 1_555 1_555
H9 C10 1_555 1_555
C11 C2 1_555 1_555
O3 C11 1_555 1_555
C12 C11 1_555 1_555
H10 C12 1_555 1_555
H11 C12 1_555 1_555
H12 C12 1_555 1_555
C4 C9 1_555 1_555
C7 C8 1_555 1_555
C8 C9 1_555 1_555

#END
