
#######################################################################
#
#                 Cambridge Crystallographic Data Centre
#                                CCDC 
#
#######################################################################
#
# If this CIF has been generated from an entry in the Cambridge 
# Structural Database, then it will include bibliographic, chemical, 
# crystal, experimental, refinement or atomic coordinate data resulting 
# from the CCDC's data processing and validation procedures.
#
#######################################################################

data_WADCAH
_chemical_formula_moiety         'C8 H12 Br2 O4'
_chemical_name_systematic        'meso-Dimethyl 2,5-dibromohexanedioate'
_symmetry_cell_setting           monoclinic
_symmetry_space_group_name_H-M   'P 21/c'
_symmetry_Int_Tables_number      14
_space_group_name_Hall           '-P 2ybc'
loop_
_symmetry_equiv_pos_site_id
_symmetry_equiv_pos_as_xyz
1 x,y,z
2 -x,1/2+y,1/2-z
3 -x,-y,-z
4 x,1/2-y,1/2+z
_cell_length_a                   4.5580(9)
_cell_length_b                   12.134(2)
_cell_length_c                   10.554(2)
_cell_angle_alpha                90
_cell_angle_beta                 90.36(3)
_cell_angle_gamma                90
_cell_volume                     583.696
_exptl_crystal_colour            colorless
_exptl_crystal_description       block
_cell_formula_units_Z            2
_exptl_crystal_recrystallization_method ethanol
loop_
_atom_site_label
_atom_site_type_symbol
_atom_site_fract_x
_atom_site_fract_y
_atom_site_fract_z
Br1 Br 0.23822(12) 0.64074(4) 0.70596(6)
O1 O 0.3762(8) 0.4221(3) 0.8857(4)
O2 O 0.0821(9) 0.3620(3) 0.7400(4)
C1 C 0.2255(11) 0.3583(4) 0.9715(5)
H1 H 0.3263 0.3595 1.0516
H2 H 0.2144 0.2839 0.9409
H3 H 0.0310 0.3872 0.9817
C2 C 0.2723(12) 0.4259(4) 0.7836(5)
C3 C 0.4550(10) 0.4973(3) 0.6885(4)
H4 H 0.6595 0.5044 0.7166
C4 C 0.4369(9) 0.4614(3) 0.5570(4)
H5 H 0.2315 0.4476 0.5384
H6 H 0.5370 0.3911 0.5517
Br1B Br 0.76178(12) 0.35926(4) 0.29404(6)
O1B O 0.6238(8) 0.5779(3) 0.1143(4)
O2B O 0.9179(9) 0.6380(3) 0.2600(4)
C1B C 0.7745(11) 0.6417(4) 0.0285(5)
H1B H 0.6737 0.6405 -0.0516
H2B H 0.7856 0.7161 0.0591
H3B H 0.9690 0.6128 0.0183
C2B C 0.7277(12) 0.5741(4) 0.2164(5)
C3B C 0.5450(10) 0.5027(3) 0.3115(4)
H4B H 0.3405 0.4956 0.2834
C4B C 0.5631(9) 0.5386(3) 0.4430(4)
H5B H 0.7685 0.5524 0.4616
H6B H 0.4630 0.6089 0.4483
loop_
_geom_bond_atom_site_label_1
_geom_bond_atom_site_label_2
_geom_bond_site_symmetry_1
_geom_bond_site_symmetry_2
Br1 C3 1_555 1_555
O1 C1 1_555 1_555
O2 C2 1_555 1_555
C1 H1 1_555 1_555
H2 C1 1_555 1_555
H3 C1 1_555 1_555
C2 O1 1_555 1_555
C3 C2 1_555 1_555
H4 C3 1_555 1_555
C4 C3 1_555 1_555
H5 C4 1_555 1_555
H6 C4 1_555 1_555
Br1B C3B 1_555 1_555
O1B C1B 1_555 1_555
O2B C2B 1_555 1_555
C1B H1B 1_555 1_555
H2B C1B 1_555 1_555
H3B C1B 1_555 1_555
C2B O1B 1_555 1_555
C3B C2B 1_555 1_555
H4B C3B 1_555 1_555
C4B C4 1_555 1_555
H5B C4B 1_555 1_555
H6B C4B 1_555 1_555
C3B C4B 1_555 1_555

#END
