
#######################################################################
#
#                 Cambridge Crystallographic Data Centre
#                                CCDC 
#
#######################################################################
#
# If this CIF has been generated from an entry in the Cambridge 
# Structural Database, then it will include bibliographic, chemical, 
# crystal, experimental, refinement or atomic coordinate data resulting 
# from the CCDC's data processing and validation procedures.
#
#######################################################################

data_WADCIQ
_chemical_formula_moiety         'C8 H4 Br1 N1 O2'
_chemical_name_systematic        4-Bromo-1H-indole-2,3-dione
_symmetry_cell_setting           monoclinic
_symmetry_space_group_name_H-M   'P 21/c'
_symmetry_Int_Tables_number      14
_space_group_name_Hall           '-P 2ybc'
loop_
_symmetry_equiv_pos_site_id
_symmetry_equiv_pos_as_xyz
1 x,y,z
2 -x,1/2+y,1/2-z
3 -x,-y,-z
4 x,1/2-y,1/2+z
_cell_length_a                   7.3655(11)
_cell_length_b                   13.689(2)
_cell_length_c                   7.2866(12)
_cell_angle_alpha                90
_cell_angle_beta                 93.378(5)
_cell_angle_gamma                90
_cell_volume                     733.405
_exptl_crystal_colour            orange
_exptl_crystal_description       block
_cell_formula_units_Z            4
loop_
_atom_site_label
_atom_site_type_symbol
_atom_site_fract_x
_atom_site_fract_y
_atom_site_fract_z
Br1 Br 0.77232(2) 0.02480(2) 0.59115(3)
O1 O 1.14710(19) 0.39227(10) 0.4387(2)
O2 O 1.08320(19) 0.18127(10) 0.4576(2)
N1 N 0.8665(2) 0.39792(12) 0.5663(2)
H1 H 0.834(3) 0.4616(12) 0.575(3)
C1 C 1.0132(3) 0.35425(13) 0.4988(2)
C2 C 0.9784(3) 0.24155(13) 0.5103(2)
C3 C 0.8006(2) 0.23315(14) 0.5902(2)
C4 C 0.6908(3) 0.15392(14) 0.6301(2)
C5 C 0.5213(3) 0.17041(15) 0.6988(3)
H2 H 0.4463 0.1169 0.7285
C6 C 0.4620(3) 0.26585(15) 0.7239(2)
H3 H 0.3457 0.2762 0.7704
C7 C 0.5677(3) 0.34683(15) 0.6832(3)
H4 H 0.5253 0.4116 0.6999
C8 C 0.7367(3) 0.32875(14) 0.6174(2)
loop_
_geom_bond_atom_site_label_1
_geom_bond_atom_site_label_2
_geom_bond_site_symmetry_1
_geom_bond_site_symmetry_2
Br1 C4 1_555 1_555
O1 C1 1_555 1_555
O2 C2 1_555 1_555
N1 H1 1_555 1_555
C1 N1 1_555 1_555
C2 C1 1_555 1_555
C3 C2 1_555 1_555
C4 C3 1_555 1_555
C5 C4 1_555 1_555
H2 C5 1_555 1_555
C6 C5 1_555 1_555
H3 C6 1_555 1_555
C7 C6 1_555 1_555
H4 C7 1_555 1_555
C8 N1 1_555 1_555
C3 C8 1_555 1_555
C7 C8 1_555 1_555

#END
