
#######################################################################
#
#                 Cambridge Crystallographic Data Centre
#                                CCDC 
#
#######################################################################
#
# If this CIF has been generated from an entry in the Cambridge 
# Structural Database, then it will include bibliographic, chemical, 
# crystal, experimental, refinement or atomic coordinate data resulting 
# from the CCDC's data processing and validation procedures.
#
#######################################################################

data_WADFEO
_chemical_formula_moiety         'C16 H19 N1 O4'
_chemical_name_systematic        
(Z)-3-[(4-Ethoxyphenyl)(hydroxy)methylidene]-1-isopropylpyrrolidine-2,4-dione
_chemical_properties_biological  'potent herbicidal activity'
_symmetry_cell_setting           monoclinic
_symmetry_space_group_name_H-M   'P 21'
_symmetry_Int_Tables_number      4
_space_group_name_Hall           'P 2yb'
loop_
_symmetry_equiv_pos_site_id
_symmetry_equiv_pos_as_xyz
1 x,y,z
2 -x,1/2+y,-z
_cell_length_a                   11.3390(15)
_cell_length_b                   5.3830(8)
_cell_length_c                   12.0490(18)
_cell_angle_alpha                90
_cell_angle_beta                 91.581(7)
_cell_angle_gamma                90
_cell_volume                     735.165
_exptl_crystal_colour            colorless
_exptl_crystal_description       prism
_cell_formula_units_Z            2
_exptl_crystal_recrystallization_method 'petroleum ether/ethyl acetate'
loop_
_atom_site_label
_atom_site_type_symbol
_atom_site_fract_x
_atom_site_fract_y
_atom_site_fract_z
O1 O 0.70417(9) 0.6075(2) 0.35972(9)
H1 H 0.7435 0.6020 0.3017
O2 O 0.84775(9) 0.4899(2) 0.21845(9)
O3 O 0.89526(9) -0.0316(2) 0.53336(9)
O4 O 0.48151(10) 0.4135(3) 0.82015(9)
N1 N 0.96813(11) 0.1603(3) 0.26539(10)
C1 C 0.74116(13) 0.4313(3) 0.42897(13)
C2 C 0.83157(13) 0.2766(3) 0.39424(13)
C3 C 0.88176(13) 0.3211(3) 0.28521(13)
C4 C 0.99039(13) -0.0049(3) 0.35867(12)
H2 H 1.0717 0.0165 0.3892
H3 H 0.9791 -0.1805 0.3364
C5 C 0.89965(13) 0.0726(3) 0.44344(13)
C6 C 0.67596(12) 0.4261(3) 0.53246(13)
C7 C 0.59784(13) 0.6206(3) 0.55394(13)
H4 H 0.5904 0.7537 0.5024
C8 C 0.53130(13) 0.6236(3) 0.64833(13)
H5 H 0.4786 0.7570 0.6612
C9 C 0.54203(13) 0.4304(4) 0.72421(13)
C10 C 0.61937(14) 0.2358(3) 0.70400(14)
H6 H 0.6266 0.1029 0.7556
C11 C 0.68552(14) 0.2340(3) 0.60987(14)
H7 H 0.7383 0.1004 0.5975
C12 C 0.39293(16) 0.5968(4) 0.83947(16)
H8 H 0.3344 0.6001 0.7769
H9 H 0.4292 0.7635 0.8466
C13 C 0.3340(2) 0.5264(5) 0.94565(16)
H10 H 0.2992 0.3605 0.9377
H11 H 0.2719 0.6472 0.9612
H12 H 0.3926 0.5258 1.0070
C14 C 1.04354(13) 0.1741(3) 0.16876(13)
H13 H 1.0084 0.2990 0.1160
C15 C 1.16687(15) 0.2627(5) 0.20292(15)
H14 H 1.1614 0.4220 0.2418
H15 H 1.2141 0.2834 0.1366
H16 H 1.2045 0.1397 0.2523
C16 C 1.0475(2) -0.0729(5) 0.10959(16)
H17 H 1.0895 -0.1942 0.1567
H18 H 1.0888 -0.0536 0.0397
H19 H 0.9669 -0.1313 0.0939
loop_
_geom_bond_atom_site_label_1
_geom_bond_atom_site_label_2
_geom_bond_site_symmetry_1
_geom_bond_site_symmetry_2
O1 H1 1_555 1_555
O2 C3 1_555 1_555
O3 C5 1_555 1_555
O4 C9 1_555 1_555
N1 C3 1_555 1_555
C1 O1 1_555 1_555
C2 C1 1_555 1_555
C3 C2 1_555 1_555
C4 N1 1_555 1_555
H2 C4 1_555 1_555
H3 C4 1_555 1_555
C5 C2 1_555 1_555
C6 C1 1_555 1_555
C7 C6 1_555 1_555
H4 C7 1_555 1_555
C8 C7 1_555 1_555
H5 C8 1_555 1_555
C9 C8 1_555 1_555
C10 C9 1_555 1_555
H6 C10 1_555 1_555
C11 C6 1_555 1_555
H7 C11 1_555 1_555
C12 O4 1_555 1_555
H8 C12 1_555 1_555
H9 C12 1_555 1_555
C13 C12 1_555 1_555
H10 C13 1_555 1_555
H11 C13 1_555 1_555
H12 C13 1_555 1_555
C14 N1 1_555 1_555
H13 C14 1_555 1_555
C15 C14 1_555 1_555
H14 C15 1_555 1_555
H15 C15 1_555 1_555
H16 C15 1_555 1_555
C16 C14 1_555 1_555
H17 C16 1_555 1_555
H18 C16 1_555 1_555
H19 C16 1_555 1_555
C4 C5 1_555 1_555
C10 C11 1_555 1_555

#END
