
#######################################################################
#
#                 Cambridge Crystallographic Data Centre
#                                CCDC 
#
#######################################################################
#
# If this CIF has been generated from an entry in the Cambridge 
# Structural Database, then it will include bibliographic, chemical, 
# crystal, experimental, refinement or atomic coordinate data resulting 
# from the CCDC's data processing and validation procedures.
#
#######################################################################

data_WADGUF
_chemical_formula_moiety         'C12 H10 N4 O1 2+,H2 O1,2(Br1 1-)'
_chemical_name_systematic        
"4,4'-(1,3,4-Oxadiazole-2,5-diyl)dipyridinium dibromide monohydrate"
_symmetry_cell_setting           monoclinic
_symmetry_space_group_name_H-M   'P 21/n'
_symmetry_Int_Tables_number      14
_space_group_name_Hall           '-P 2yn'
loop_
_symmetry_equiv_pos_site_id
_symmetry_equiv_pos_as_xyz
1 x,y,z
2 1/2-x,1/2+y,1/2-z
3 -x,-y,-z
4 1/2+x,1/2-y,1/2+z
_cell_length_a                   5.2917(11)
_cell_length_b                   17.531(4)
_cell_length_c                   15.909(3)
_cell_angle_alpha                90
_cell_angle_beta                 95.42(3)
_cell_angle_gamma                90
_cell_volume                     1469.26
_exptl_crystal_colour            colorless
_exptl_crystal_description       prism
_chemical_melting_point          '365 K'
_cell_formula_units_Z            4
loop_
_atom_site_label
_atom_site_type_symbol
_atom_site_fract_x
_atom_site_fract_y
_atom_site_fract_z
Br1 Br 0.18714(17) 0.55914(5) 0.63099(6)
O1 O 0.0187(10) 0.3400(3) 0.9429(3)
C1 C 0.1428(16) 0.5397(5) 0.8894(5)
H1 H 0.2942 0.5478 0.9229
N1 N 0.0017(14) 0.0806(4) 1.0711(5)
H2 H -0.0375 0.0360 1.0885
N2 N 0.3649(13) 0.4071(4) 0.9798(5)
C2 C 0.1437(15) 0.4071(5) 0.9364(5)
N3 N 0.3954(13) 0.3359(4) 1.0176(5)
C3 C -0.0995(16) 0.1868(4) 0.9865(6)
H3 H -0.2092 0.2117 0.9463
N4 N -0.1899(14) 0.5864(4) 0.7948(5)
H4 H -0.2572 0.6235 0.7653
C4 C 0.2829(16) 0.1829(5) 1.0785(5)
H5 H 0.4331 0.2056 1.1010
C5 C 0.1883(15) 0.2988(4) 0.9944(5)
C6 C -0.2029(15) 0.4591(5) 0.8382(6)
H6 H -0.2838 0.4119 0.8365
C7 C -0.1564(16) 0.1146(5) 1.0141(6)
H7 H -0.3048 0.0903 0.9926
C8 C 0.1220(15) 0.2216(4) 1.0193(5)
C9 C 0.0254(15) 0.4693(4) 0.8867(5)
C10 C 0.0294(18) 0.5977(5) 0.8412(6)
H8 H 0.1069 0.6453 0.8411
C11 C -0.3083(17) 0.5193(5) 0.7925(6)
H9 H -0.4624 0.5133 0.7599
C12 C 0.2213(17) 0.1121(5) 1.1036(6)
H10 H 0.3293 0.0856 1.1428
Br2 Br 0.19209(18) 0.82026(5) 0.74803(7)
O2 O 0.6881(12) 0.7150(3) 0.7191(4)
H11 H 0.6726 0.7611 0.7028
H12 H 0.5106 0.7367 0.7060
loop_
_geom_bond_atom_site_label_1
_geom_bond_atom_site_label_2
_geom_bond_site_symmetry_1
_geom_bond_site_symmetry_2
O1 C2 1_555 1_555
C1 H1 1_555 1_555
N1 H2 1_555 1_555
N2 C2 1_555 1_555
C2 C9 1_555 1_555
N3 N2 1_555 1_555
C3 H3 1_555 1_555
N4 H4 1_555 1_555
C4 H5 1_555 1_555
C5 O1 1_555 1_555
C6 H6 1_555 1_555
C7 N1 1_555 1_555
H7 C7 1_555 1_555
C8 C3 1_555 1_555
C9 C1 1_555 1_555
C10 C1 1_555 1_555
H8 C10 1_555 1_555
C11 N4 1_555 1_555
H9 C11 1_555 1_555
C12 N1 1_555 1_555
H10 C12 1_555 1_555
O2 H11 1_555 1_555
H12 O2 1_555 1_555
N3 C5 1_555 1_555
C3 C7 1_555 1_555
N4 C10 1_555 1_555
C4 C8 1_555 1_555
C4 C12 1_555 1_555
C5 C8 1_555 1_555
C6 C9 1_555 1_555
C6 C11 1_555 1_555

#END
