
#######################################################################
#
#                 Cambridge Crystallographic Data Centre
#                                CCDC 
#
#######################################################################
#
# If this CIF has been generated from an entry in the Cambridge 
# Structural Database, then it will include bibliographic, chemical, 
# crystal, experimental, refinement or atomic coordinate data resulting 
# from the CCDC's data processing and validation procedures.
#
#######################################################################

data_WADGOZ
_chemical_name_common            
1,3-Phenylenebis(N-(1H-pyrrol-2-ylmethylene)methanamine)
_chemical_formula_moiety         'C18 H18 N4'
_chemical_name_systematic        
(1H-Pyrrol-2-ylmethylidene)(3-([(1H-pyrrol-2-ylmethylidene)amino]methyl)benzyl)amine
_symmetry_cell_setting           monoclinic
_symmetry_space_group_name_H-M   'P 21/n'
_symmetry_Int_Tables_number      14
_space_group_name_Hall           '-P 2yn'
loop_
_symmetry_equiv_pos_site_id
_symmetry_equiv_pos_as_xyz
1 x,y,z
2 1/2-x,1/2+y,1/2-z
3 -x,-y,-z
4 1/2+x,1/2-y,1/2+z
_cell_length_a                   5.0010(6)
_cell_length_b                   17.271(2)
_cell_length_c                   17.764(2)
_cell_angle_alpha                90
_cell_angle_beta                 96.128(9)
_cell_angle_gamma                90
_cell_volume                     1525.55
_exptl_crystal_colour            yellow
_exptl_crystal_description       plate
_cell_formula_units_Z            4
_exptl_crystal_recrystallization_method dichloromethane
loop_
_atom_site_label
_atom_site_type_symbol
_atom_site_fract_x
_atom_site_fract_y
_atom_site_fract_z
N1 N 0.1887(4) 0.93308(13) 0.30396(12)
H1 H 0.2430 0.9034 0.2683
N2 N -0.1228(4) 0.78669(13) 0.30188(12)
N3 N 0.0866(4) 0.37738(12) 0.33592(12)
N4 N 0.4888(4) 0.24887(12) 0.35156(12)
H2 H 0.4867 0.2670 0.3052
C1 C 0.2853(6) 1.00448(17) 0.32310(17)
H3 H 0.4232 1.0307 0.3004
C2 C 0.1523(6) 1.03243(18) 0.38019(17)
H4 H 0.1807 1.0812 0.4045
C3 C -0.0330(6) 0.97645(17) 0.39655(15)
H5 H -0.1554 0.9803 0.4338
C4 C -0.0070(5) 0.91461(16) 0.34911(14)
C5 C -0.1556(6) 0.84397(16) 0.34583(15)
H6 H -0.2909 0.8389 0.3792
C6 C -0.2874(5) 0.71839(15) 0.31250(16)
H7 H -0.3806 0.7024 0.2630
H8 H -0.4261 0.7318 0.3461
C7 C -0.1203(5) 0.65149(15) 0.34658(14)
C8 C -0.1874(5) 0.57583(16) 0.32711(14)
H9 H -0.3368 0.5664 0.2906
C9 C -0.0432(5) 0.51348(15) 0.35929(14)
C10 C 0.1738(6) 0.52757(16) 0.41134(14)
H10 H 0.2763 0.4856 0.4336
C11 C 0.2443(5) 0.60305(16) 0.43154(14)
H11 H 0.3950 0.6126 0.4676
C12 C 0.0964(6) 0.66413(16) 0.39942(15)
H12 H 0.1448 0.7156 0.4140
C13 C -0.1352(5) 0.43160(15) 0.33830(17)
H13 H -0.2540 0.4130 0.3756
H14 H -0.2420 0.4326 0.2881
C14 C 0.1251(6) 0.33165(16) 0.39264(15)
H15 H 0.0085 0.3373 0.4311
C15 C 0.3263(5) 0.27306(15) 0.40368(14)
C16 C 0.3911(6) 0.23031(17) 0.46802(16)
H16 H 0.3085 0.2341 0.5136
C17 C 0.5993(6) 0.18029(17) 0.45480(17)
H17 H 0.6864 0.1444 0.4898
C18 C 0.6545(6) 0.19249(16) 0.38240(18)
H18 H 0.7867 0.1660 0.3576
loop_
_geom_bond_atom_site_label_1
_geom_bond_atom_site_label_2
_geom_bond_site_symmetry_1
_geom_bond_site_symmetry_2
N1 H1 1_555 1_555
N2 C5 1_555 1_555
N3 C13 1_555 1_555
N4 H2 1_555 1_555
C1 N1 1_555 1_555
H3 C1 1_555 1_555
C2 C1 1_555 1_555
H4 C2 1_555 1_555
C3 C2 1_555 1_555
H5 C3 1_555 1_555
C4 N1 1_555 1_555
C5 C4 1_555 1_555
H6 C5 1_555 1_555
C6 N2 1_555 1_555
H7 C6 1_555 1_555
H8 C6 1_555 1_555
C7 C6 1_555 1_555
C8 C7 1_555 1_555
H9 C8 1_555 1_555
C9 C8 1_555 1_555
C10 C9 1_555 1_555
H10 C10 1_555 1_555
C11 C10 1_555 1_555
H11 C11 1_555 1_555
C12 C7 1_555 1_555
H12 C12 1_555 1_555
C13 C9 1_555 1_555
H13 C13 1_555 1_555
H14 C13 1_555 1_555
C14 N3 1_555 1_555
H15 C14 1_555 1_555
C15 N4 1_555 1_555
C16 C15 1_555 1_555
H16 C16 1_555 1_555
C17 C16 1_555 1_555
H17 C17 1_555 1_555
C18 N4 1_555 1_555
H18 C18 1_555 1_555
C3 C4 1_555 1_555
C11 C12 1_555 1_555
C14 C15 1_555 1_555
C17 C18 1_555 1_555

#END
