
#######################################################################
#
#                 Cambridge Crystallographic Data Centre
#                                CCDC 
#
#######################################################################
#
# If this CIF has been generated from an entry in the Cambridge 
# Structural Database, then it will include bibliographic, chemical, 
# crystal, experimental, refinement or atomic coordinate data resulting 
# from the CCDC's data processing and validation procedures.
#
#######################################################################

data_WADHEQ
_chemical_formula_moiety         'C9 H10 Cl1 N1 O1 S1'
_chemical_name_systematic        
2-Chloro-1-(4,5,6,7-tetrahydrothieno[3,2-c]pyridin-5-yl)ethanone
_symmetry_cell_setting           orthorhombic
_symmetry_space_group_name_H-M   'P c a 21'
_symmetry_Int_Tables_number      29
_space_group_name_Hall           'P 2c -2ac'
loop_
_symmetry_equiv_pos_site_id
_symmetry_equiv_pos_as_xyz
1 x,y,z
2 1/2-x,y,1/2+z
3 1/2+x,-y,z
4 -x,-y,1/2+z
_cell_length_a                   10.5753(4)
_cell_length_b                   10.8291(4)
_cell_length_c                   8.0679(3)
_cell_angle_alpha                90
_cell_angle_beta                 90
_cell_angle_gamma                90
_cell_volume                     923.944
_exptl_crystal_colour            colorless
_exptl_crystal_description       block
_cell_formula_units_Z            4
_exptl_crystal_recrystallization_method 'petroleum ether/acetone'
loop_
_atom_site_label
_atom_site_type_symbol
_atom_site_fract_x
_atom_site_fract_y
_atom_site_fract_z
Cl1 Cl 0.26658(4) -0.10564(3) 0.20010(5)
S1 S 0.01605(3) 0.55872(3) 0.34620(6)
O1 O 0.35771(11) 0.10076(10) 0.39637(14)
N1 N 0.17029(11) 0.18603(10) 0.47077(16)
C1 C 0.14078(15) 0.62110(13) 0.4538(2)
H1 H 0.1563 0.7072 0.4633
C2 C 0.21493(14) 0.53226(13) 0.52392(19)
H2 H 0.2877 0.5491 0.5891
C3 C 0.17003(14) 0.41084(12) 0.48778(19)
C4 C 0.06333(14) 0.40982(12) 0.39463(19)
C5 C -0.01059(13) 0.29663(11) 0.3500(3)
H3 H 0.0058 0.2734 0.2333
H4 H -0.1023 0.3123 0.3631
C6 C 0.03142(13) 0.19294(12) 0.4661(2)
H5 H -0.0015 0.2086 0.5790
H6 H -0.0035 0.1133 0.4269
C7 C 0.22995(14) 0.29303(12) 0.5499(2)
H7 H 0.3215 0.2936 0.5246
H8 H 0.2198 0.2873 0.6717
C8 C 0.24161(16) 0.10101(12) 0.3917(2)
C9 C 0.16586(13) 0.00648(13) 0.29136(19)
H9 H 0.1180 0.0496 0.2032
H10 H 0.1043 -0.0352 0.3649
loop_
_geom_bond_atom_site_label_1
_geom_bond_atom_site_label_2
_geom_bond_site_symmetry_1
_geom_bond_site_symmetry_2
Cl1 C9 1_555 1_555
S1 C1 1_555 1_555
O1 C8 1_555 1_555
N1 C6 1_555 1_555
C1 H1 1_555 1_555
C2 C1 1_555 1_555
H2 C2 1_555 1_555
C3 C2 1_555 1_555
C4 S1 1_555 1_555
C5 C4 1_555 1_555
H3 C5 1_555 1_555
H4 C5 1_555 1_555
C6 C5 1_555 1_555
H5 C6 1_555 1_555
H6 C6 1_555 1_555
C7 N1 1_555 1_555
H7 C7 1_555 1_555
H8 C7 1_555 1_555
C8 N1 1_555 1_555
C9 C8 1_555 1_555
H9 C9 1_555 1_555
H10 C9 1_555 1_555
C3 C4 1_555 1_555
C3 C7 1_555 1_555

#END
