
#######################################################################
#
#                 Cambridge Crystallographic Data Centre
#                                CCDC 
#
#######################################################################
#
# If this CIF has been generated from an entry in the Cambridge 
# Structural Database, then it will include bibliographic, chemical, 
# crystal, experimental, refinement or atomic coordinate data resulting 
# from the CCDC's data processing and validation procedures.
#
#######################################################################

data_WADHOB
_chemical_formula_moiety         'C8 H4 Br1 N1 O2'
_chemical_name_systematic        7-Bromo-1H-indole-2,3-dione
_symmetry_cell_setting           monoclinic
_symmetry_space_group_name_H-M   'P 21/c'
_symmetry_Int_Tables_number      14
_space_group_name_Hall           '-P 2ybc'
loop_
_symmetry_equiv_pos_site_id
_symmetry_equiv_pos_as_xyz
1 x,y,z
2 -x,1/2+y,1/2-z
3 -x,-y,-z
4 x,1/2-y,1/2+z
_cell_length_a                   3.8320(7)
_cell_length_b                   13.072(2)
_cell_length_c                   15.004(3)
_cell_angle_alpha                90
_cell_angle_beta                 91.917(7)
_cell_angle_gamma                90
_cell_volume                     751.158
_exptl_crystal_colour            orange
_exptl_crystal_description       block
_cell_formula_units_Z            4
loop_
_atom_site_label
_atom_site_type_symbol
_atom_site_fract_x
_atom_site_fract_y
_atom_site_fract_z
Br1 Br 0.78559(9) 0.81463(3) 0.42774(2)
O1 O 0.2403(7) 0.47659(19) 0.59756(17)
O2 O 0.0200(7) 0.6053(2) 0.74584(16)
N1 N 0.4553(8) 0.6310(2) 0.54806(19)
H1 H 0.553(9) 0.614(3) 0.5007(18)
C1 C 0.2953(9) 0.5674(3) 0.6052(2)
C2 C 0.1872(9) 0.6353(3) 0.6853(2)
C3 C 0.3267(8) 0.7365(3) 0.6663(2)
C4 C 0.3144(9) 0.8280(3) 0.7137(2)
H2 H 0.2105 0.8314 0.7703
C5 C 0.4604(9) 0.9145(3) 0.6752(2)
H3 H 0.4629 0.9776 0.7067
C6 C 0.6015(9) 0.9095(3) 0.5915(2)
H4 H 0.6955 0.9697 0.5661
C7 C 0.6088(9) 0.8177(2) 0.5437(2)
C8 C 0.4733(8) 0.7315(2) 0.5823(2)
loop_
_geom_bond_atom_site_label_1
_geom_bond_atom_site_label_2
_geom_bond_site_symmetry_1
_geom_bond_site_symmetry_2
Br1 C7 1_555 1_555
O1 C1 1_555 1_555
O2 C2 1_555 1_555
N1 H1 1_555 1_555
C1 N1 1_555 1_555
C2 C1 1_555 1_555
C3 C2 1_555 1_555
C4 C3 1_555 1_555
H2 C4 1_555 1_555
C5 C4 1_555 1_555
H3 C5 1_555 1_555
C6 C5 1_555 1_555
H4 C6 1_555 1_555
C7 C6 1_555 1_555
C8 N1 1_555 1_555
C3 C8 1_555 1_555
C7 C8 1_555 1_555

#END
