
#######################################################################
#
#                 Cambridge Crystallographic Data Centre
#                                CCDC 
#
#######################################################################
#
# If this CIF has been generated from an entry in the Cambridge 
# Structural Database, then it will include bibliographic, chemical, 
# crystal, experimental, refinement or atomic coordinate data resulting 
# from the CCDC's data processing and validation procedures.
#
#######################################################################

data_WADNUM
_chemical_formula_moiety         'C19 H21 N3 O6'
_chemical_name_systematic        
'Benzyl (3-hydroxy-1-(2-(2-hydroxy-4-methoxybenzylidene)hydrazino)-1-oxopropan-2-yl)carbamate'
_chemical_properties_biological  'potential anti-tumour activity'
_symmetry_cell_setting           monoclinic
_symmetry_space_group_name_H-M   'P 21'
_symmetry_Int_Tables_number      4
_space_group_name_Hall           'P 2yb'
loop_
_symmetry_equiv_pos_site_id
_symmetry_equiv_pos_as_xyz
1 x,y,z
2 -x,1/2+y,-z
_cell_length_a                   5.1634(2)
_cell_length_b                   32.3173(11)
_cell_length_c                   5.7030(2)
_cell_angle_alpha                90
_cell_angle_beta                 103.918(2)
_cell_angle_gamma                90
_cell_volume                     923.704
_exptl_crystal_colour            colorless
_exptl_crystal_description       prism
_cell_formula_units_Z            2
_exptl_crystal_recrystallization_method methanol
loop_
_atom_site_label
_atom_site_type_symbol
_atom_site_fract_x
_atom_site_fract_y
_atom_site_fract_z
O1 O -0.1786(3) 1.07693(5) 0.1104(3)
H1 H -0.050(4) 1.0606(8) 0.111(5)
O2 O -0.3856(3) 1.18463(5) 0.6089(3)
O3 O 0.3291(3) 0.99440(5) -0.1161(3)
O4 O 0.8158(3) 0.98932(5) -0.2785(3)
H2 H 0.981(2) 0.9933(11) -0.240(5)
O5 O 1.1738(3) 0.91538(5) 0.3209(3)
O6 O 0.9066(3) 0.87370(4) 0.4806(3)
N1 N 0.2721(4) 1.03527(5) 0.2864(3)
N2 N 0.4763(3) 1.00743(5) 0.2848(3)
H3 H 0.597(4) 1.0034(8) 0.415(3)
N3 N 0.7233(3) 0.92467(5) 0.2328(3)
H4 H 0.575(3) 0.9171(8) 0.263(4)
C1 C 0.1100(4) 1.08823(6) 0.5067(4)
C2 C -0.1163(4) 1.09787(7) 0.3212(4)
C3 C -0.2859(4) 1.13016(7) 0.3504(4)
H5 H -0.4368 1.1368 0.2240
C4 C -0.2330(5) 1.15243(6) 0.5648(4)
C5 C -0.0123(5) 1.14263(8) 0.7516(4)
H6 H 0.0222 1.1578 0.8987
C6 C 0.1537(5) 1.11119(7) 0.7217(4)
H7 H 0.3029 1.1047 0.8500
C7 C -0.6104(5) 1.19656(7) 0.4213(5)
H8 H -0.5516 1.2027 0.2740
H9 H -0.6934 1.2212 0.4717
H10 H -0.7403 1.1739 0.3896
C8 C 0.3021(4) 1.05654(7) 0.4826(4)
H11 H 0.4518 1.0514 0.6132
C9 C 0.4915(4) 0.98936(6) 0.0787(4)
C10 C 0.7381(4) 0.96234(6) 0.0944(4)
H12 H 0.8987 0.9784 0.1799
C11 C 0.7671(4) 0.95243(7) -0.1585(4)
H13 H 0.9168 0.9329 -0.1487
H14 H 0.6019 0.9390 -0.2521
C12 C 0.9530(4) 0.90556(6) 0.3433(4)
C13 C 1.1447(4) 0.85176(7) 0.6038(4)
H15 H 1.2736 0.8713 0.7031
H16 H 1.2301 0.8387 0.4844
C14 C 1.0676(4) 0.81910(7) 0.7625(4)
C15 C 1.1859(5) 0.78017(7) 0.7770(5)
H17 H 1.3004 0.7736 0.6746
C16 C 1.1382(5) 0.75094(8) 0.9394(5)
H18 H 1.2225 0.7247 0.9493
C17 C 0.9694(5) 0.75974(8) 1.0862(4)
H19 H 0.9395 0.7398 1.1991
C18 C 0.8429(5) 0.79800(8) 1.0684(4)
H20 H 0.7217 0.8039 1.1656
C19 C 0.8938(5) 0.82745(7) 0.9084(4)
H21 H 0.8087 0.8537 0.8984
loop_
_geom_bond_atom_site_label_1
_geom_bond_atom_site_label_2
_geom_bond_site_symmetry_1
_geom_bond_site_symmetry_2
O1 H1 1_555 1_555
O2 C4 1_555 1_555
O3 C9 1_555 1_555
O4 H2 1_555 1_555
O5 C12 1_555 1_555
O6 C12 1_555 1_555
N1 N2 1_555 1_555
N2 H3 1_555 1_555
N3 H4 1_555 1_555
C1 C2 1_555 1_555
C2 O1 1_555 1_555
C3 C2 1_555 1_555
H5 C3 1_555 1_555
C4 C3 1_555 1_555
C5 C4 1_555 1_555
H6 C5 1_555 1_555
C6 C1 1_555 1_555
H7 C6 1_555 1_555
C7 O2 1_555 1_555
H8 C7 1_555 1_555
H9 C7 1_555 1_555
H10 C7 1_555 1_555
C8 N1 1_555 1_555
H11 C8 1_555 1_555
C9 N2 1_555 1_555
C10 N3 1_555 1_555
H12 C10 1_555 1_555
C11 O4 1_555 1_555
H13 C11 1_555 1_555
H14 C11 1_555 1_555
C12 N3 1_555 1_555
C13 O6 1_555 1_555
H15 C13 1_555 1_555
H16 C13 1_555 1_555
C14 C13 1_555 1_555
C15 C14 1_555 1_555
H17 C15 1_555 1_555
C16 C15 1_555 1_555
H18 C16 1_555 1_555
C17 C16 1_555 1_555
H19 C17 1_555 1_555
C18 C17 1_555 1_555
H20 C18 1_555 1_555
C19 C14 1_555 1_555
H21 C19 1_555 1_555
C1 C8 1_555 1_555
C5 C6 1_555 1_555
C9 C10 1_555 1_555
C10 C11 1_555 1_555
C18 C19 1_555 1_555

#END
