
#######################################################################
#
#                 Cambridge Crystallographic Data Centre
#                                CCDC 
#
#######################################################################
#
# If this CIF has been generated from an entry in the Cambridge 
# Structural Database, then it will include bibliographic, chemical, 
# crystal, experimental, refinement or atomic coordinate data resulting 
# from the CCDC's data processing and validation procedures.
#
#######################################################################

data_WADPAU
_chemical_formula_moiety         'C10 H9 N2 1+,C8 H3 I3 N1 O4 1-,C8 H4 I3 N1 O4'
_chemical_name_systematic        
'4-(4-Pyridyl)pyridinium 3-amino-5-carboxy-2,4,6-triiodobenzoate 5-amino-2,4,6-tri-iodoisophthalic acid'
_symmetry_cell_setting           monoclinic
_symmetry_space_group_name_H-M   'P 21/c'
_symmetry_Int_Tables_number      14
_space_group_name_Hall           '-P 2ybc'
loop_
_symmetry_equiv_pos_site_id
_symmetry_equiv_pos_as_xyz
1 x,y,z
2 -x,1/2+y,1/2-z
3 -x,-y,-z
4 x,1/2-y,1/2+z
_cell_length_a                   7.7388(4)
_cell_length_b                   34.2377(19)
_cell_length_c                   13.0739(7)
_cell_angle_alpha                90
_cell_angle_beta                 106.5060(10)
_cell_angle_gamma                90
_cell_volume                     3321.29
_exptl_crystal_colour            yellow
_exptl_crystal_description       prism
_cell_formula_units_Z            4
loop_
_atom_site_label
_atom_site_type_symbol
_atom_site_fract_x
_atom_site_fract_y
_atom_site_fract_z
I1 I 0.89589(4) 0.633599(10) 0.26091(3)
I2 I 0.17486(6) 0.713602(10) 0.08490(4)
I3 I 0.22245(5) 0.537807(9) 0.07851(3)
O1 O 0.6872(5) 0.54473(9) 0.2775(2)
O2 O 0.6823(5) 0.54041(10) 0.1070(3)
O3 O 0.6689(6) 0.71617(11) 0.1148(3)
H1 H 0.724(12) 0.7376(14) 0.130(7)
O4 O 0.6193(7) 0.72189(11) 0.2738(3)
N1 N 0.0653(6) 0.62476(12) 0.0256(4)
H4 H 0.004(7) 0.6029(9) 0.018(4)
H5 H -0.001(7) 0.6455(11) 0.029(5)
C1 C 0.6421(6) 0.55702(12) 0.1815(3)
C2 C 0.5326(6) 0.59425(12) 0.1600(3)
C3 C 0.6155(6) 0.63055(12) 0.1880(3)
C4 C 0.5151(6) 0.66494(12) 0.1677(3)
C5 C 0.3306(6) 0.66243(12) 0.1171(4)
C6 C 0.2431(6) 0.62650(12) 0.0846(3)
C7 C 0.3500(6) 0.59272(12) 0.1111(3)
C8 C 0.6070(7) 0.70421(13) 0.1925(4)
I4 I 0.63572(4) 0.521651(8) 0.65077(2)
I5 I 0.57056(6) 0.666532(10) 0.90690(3)
I6 I 0.36084(5) 0.672374(10) 0.42509(3)
O5 O 0.6413(5) 0.58392(11) 0.4353(3)
H2 H 0.628(8) 0.5720(16) 0.377(3)
O6 O 0.3505(5) 0.56703(11) 0.4066(3)
O7 O 0.5332(5) 0.56640(12) 0.9082(3)
H3 H 0.575(9) 0.5570(19) 0.970(2)
O8 O 0.8114(5) 0.56830(13) 0.8926(3)
N2 N 0.4185(7) 0.69823(12) 0.6687(4)
H6 H 0.461(8) 0.7106(16) 0.730(3)
H7 H 0.412(8) 0.7143(14) 0.615(3)
C9 C 0.6552(6) 0.57584(13) 0.8604(3)
C10 C 0.5792(6) 0.59878(13) 0.7573(3)
C11 C 0.5321(7) 0.63773(13) 0.7594(3)
C12 C 0.4688(6) 0.66010(13) 0.6662(4)
C13 C 0.4532(6) 0.64080(13) 0.5687(3)
C14 C 0.5027(6) 0.60201(12) 0.5647(3)
C15 C 0.5677(6) 0.58054(12) 0.6596(3)
C16 C 0.4885(6) 0.58222(13) 0.4591(3)
N3 N 0.8284(5) 0.47376(12) 0.3134(3)
H8 H 0.787(8) 0.4976(7) 0.299(5)
N4 N 1.1535(6) 0.28111(12) 0.3578(4)
C17 C 0.8615(7) 0.45571(14) 0.4059(4)
H9 H 0.8434 0.4689 0.4641
C18 C 0.9221(7) 0.41776(14) 0.4184(4)
H10 H 0.9461 0.4056 0.4846
C19 C 0.9471(6) 0.39770(12) 0.3306(4)
C20 C 0.9103(7) 0.41793(14) 0.2341(4)
H11 H 0.9257 0.4057 0.1737
C21 C 0.8514(7) 0.45584(15) 0.2286(4)
H12 H 0.8271 0.4692 0.1641
C22 C 1.1572(7) 0.30185(14) 0.4440(4)
H13 H 1.2063 0.2907 0.5109
C23 C 1.0905(7) 0.33952(14) 0.4377(4)
H14 H 1.0955 0.3532 0.4999
C24 C 1.0163(6) 0.35702(13) 0.3398(4)
C25 C 1.0087(9) 0.33460(16) 0.2503(5)
H15 H 0.9564 0.3446 0.1823
C26 C 1.0804(9) 0.29694(16) 0.2632(5)
H16 H 1.0766 0.2823 0.2026
loop_
_geom_bond_atom_site_label_1
_geom_bond_atom_site_label_2
_geom_bond_site_symmetry_1
_geom_bond_site_symmetry_2
I1 C3 1_555 1_555
I2 C5 1_555 1_555
I3 C7 1_555 1_555
I4 C15 1_555 1_555
I5 C11 1_555 1_555
I6 C13 1_555 1_555
O1 C1 1_555 1_555
O2 C1 1_555 1_555
O3 H1 1_555 1_555
O4 C8 1_555 1_555
O5 H2 1_555 1_555
O6 C16 1_555 1_555
O7 H3 1_555 1_555
O8 C9 1_555 1_555
N1 H4 1_555 1_555
H5 N1 1_555 1_555
N2 H6 1_555 1_555
H7 N2 1_555 1_555
N3 H8 1_555 1_555
N4 C22 1_555 1_555
C1 C2 1_555 1_555
C2 C3 1_555 1_555
C3 C4 1_555 1_555
C4 C5 1_555 1_555
C5 C6 1_555 1_555
C6 N1 1_555 1_555
C7 C2 1_555 1_555
C8 O3 1_555 1_555
C9 O7 1_555 1_555
C10 C9 1_555 1_555
C11 C10 1_555 1_555
C12 N2 1_555 1_555
C13 C12 1_555 1_555
C14 C13 1_555 1_555
C15 C10 1_555 1_555
C16 O5 1_555 1_555
C17 N3 1_555 1_555
H9 C17 1_555 1_555
C18 C17 1_555 1_555
H10 C18 1_555 1_555
C19 C18 1_555 1_555
C20 C19 1_555 1_555
H11 C20 1_555 1_555
C21 N3 1_555 1_555
H12 C21 1_555 1_555
C22 H13 1_555 1_555
C23 C22 1_555 1_555
H14 C23 1_555 1_555
C24 C19 1_555 1_555
C25 C24 1_555 1_555
H15 C25 1_555 1_555
C26 N4 1_555 1_555
H16 C26 1_555 1_555
C4 C8 1_555 1_555
C6 C7 1_555 1_555
C11 C12 1_555 1_555
C14 C15 1_555 1_555
C14 C16 1_555 1_555
C20 C21 1_555 1_555
C23 C24 1_555 1_555
C25 C26 1_555 1_555

#END
