
#######################################################################
#
#                 Cambridge Crystallographic Data Centre
#                                CCDC 
#
#######################################################################
#
# If this CIF has been generated from an entry in the Cambridge 
# Structural Database, then it will include bibliographic, chemical, 
# crystal, experimental, refinement or atomic coordinate data resulting 
# from the CCDC's data processing and validation procedures.
#
#######################################################################

data_WADQEY02
_chemical_name_common            Podophyllotoxone
_chemical_formula_moiety         'C22 H20 O8'
_chemical_name_systematic        
9-(3,4,5-trimethoxyphenyl)-5a,6,8a,9-tetrahydro-2H-furo[3',4':6,7]naphtho[2,3-d][1,3]dioxole-5,8-dione
_symmetry_cell_setting           orthorhombic
_symmetry_space_group_name_H-M   'P 21 21 21'
_symmetry_Int_Tables_number      19
_space_group_name_Hall           'P 2ac 2ab'
loop_
_symmetry_equiv_pos_site_id
_symmetry_equiv_pos_as_xyz
1 x,y,z
2 1/2-x,-y,1/2+z
3 1/2+x,1/2-y,-z
4 -x,1/2+y,1/2-z
_cell_length_a                   6.48709(10)
_cell_length_b                   12.19948(18)
_cell_length_c                   24.9636(4)
_cell_angle_alpha                90
_cell_angle_beta                 90
_cell_angle_gamma                90
_cell_volume                     1975.6
_exptl_crystal_colour            colorless
_exptl_crystal_description       block
_cell_formula_units_Z            4
loop_
_atom_site_label
_atom_site_type_symbol
_atom_site_fract_x
_atom_site_fract_y
_atom_site_fract_z
O1 O 0.7134(3) 0.29945(13) 0.15936(5)
C1 C 0.7444(3) 0.25962(13) 0.32483(7)
O2 O 1.0148(3) 0.39789(13) 0.21391(6)
O3 O 0.1739(2) 0.22235(13) 0.45789(5)
O4 O 0.4956(3) -0.16488(12) 0.46072(7)
C2 C 0.4772(3) 0.13070(15) 0.42929(7)
O5 O 0.8505(3) 0.50311(12) 0.39529(7)
C3 C 0.6747(3) 0.13877(14) 0.40596(7)
C4 C 0.5883(3) 0.20904(15) 0.29576(7)
H1 H 0.4905 0.1663 0.3133
C5 C 0.5786(3) 0.22236(16) 0.24051(7)
C6 C 0.7606(3) 0.24733(14) 0.38533(7)
H2 H 0.9072 0.2498 0.3947
O6 O 0.4336(2) 0.17515(14) 0.20839(6)
C7 C 0.6527(3) 0.33720(15) 0.41689(7)
H3 H 0.6833 0.3225 0.4547
C8 C 0.8899(3) 0.32322(15) 0.29837(8)
H4 H 0.9947 0.3569 0.3177
C9 C 0.8801(3) 0.33682(15) 0.24321(8)
C10 C 0.3418(3) 0.22710(16) 0.43555(7)
C11 C 0.6954(4) 0.45759(17) 0.40855(8)
C12 C 0.7241(3) 0.28618(15) 0.21386(7)
C13 C 0.5279(4) -0.05928(15) 0.44359(8)
C14 C 0.7225(4) -0.05117(16) 0.42087(8)
C15 C 0.7992(3) 0.04536(16) 0.40164(8)
H5 H 0.9295 0.0490 0.3862
C16 C 0.4206(3) 0.33167(15) 0.41183(7)
H6 H 0.3845 0.3332 0.3737
O7 O 0.5231(3) 0.51401(12) 0.42210(7)
C17 C 0.3571(4) 0.43999(18) 0.43685(10)
H7 H 0.2264 0.4650 0.4225
H8 H 0.3457 0.4335 0.4755
C18 C 1.1916(4) 0.4406(2) 0.24010(11)
H9 H 1.2783 0.4766 0.2144
H10 H 1.2664 0.3818 0.2567
H11 H 1.1495 0.4923 0.2669
O8 O 0.8192(3) -0.15018(13) 0.42277(8)
C19 C 0.4032(3) 0.02868(16) 0.44846(8)
H12 H 0.2732 0.0226 0.4639
C20 C 0.2854(4) 0.1056(2) 0.23268(10)
H13 H 0.1953 0.0766 0.2057
H14 H 0.2062 0.1468 0.2582
H15 H 0.3543 0.0465 0.2506
C21 C 0.6655(5) -0.22647(19) 0.43899(13)
H16 H 0.7205 -0.2758 0.4659
H17 H 0.6200 -0.2696 0.4086
C22 C 0.8198(5) 0.2143(2) 0.13125(9)
H18 H 0.8107 0.2272 0.0934
H19 H 0.7582 0.1448 0.1396
H20 H 0.9620 0.2136 0.1419
loop_
_geom_bond_atom_site_label_1
_geom_bond_atom_site_label_2
_geom_bond_site_symmetry_1
_geom_bond_site_symmetry_2
O1 C12 1_555 1_555
C1 C4 1_555 1_555
O2 C9 1_555 1_555
O3 C10 1_555 1_555
O4 C13 1_555 1_555
C2 C3 1_555 1_555
O5 C11 1_555 1_555
C3 C6 1_555 1_555
C4 H1 1_555 1_555
C5 C4 1_555 1_555
C6 C1 1_555 1_555
H2 C6 1_555 1_555
O6 C5 1_555 1_555
C7 C6 1_555 1_555
H3 C7 1_555 1_555
C8 C1 1_555 1_555
H4 C8 1_555 1_555
C9 C8 1_555 1_555
C10 C2 1_555 1_555
C11 C7 1_555 1_555
C12 C5 1_555 1_555
C13 C14 1_555 1_555
C14 C15 1_555 1_555
C15 C3 1_555 1_555
H5 C15 1_555 1_555
C16 C7 1_555 1_555
H6 C16 1_555 1_555
O7 C11 1_555 1_555
C17 C16 1_555 1_555
H7 C17 1_555 1_555
H8 C17 1_555 1_555
C18 O2 1_555 1_555
H9 C18 1_555 1_555
H10 C18 1_555 1_555
H11 C18 1_555 1_555
O8 C14 1_555 1_555
C19 C2 1_555 1_555
H12 C19 1_555 1_555
C20 O6 1_555 1_555
H13 C20 1_555 1_555
H14 C20 1_555 1_555
H15 C20 1_555 1_555
C21 O4 1_555 1_555
H16 C21 1_555 1_555
H17 C21 1_555 1_555
C22 O1 1_555 1_555
H18 C22 1_555 1_555
H19 C22 1_555 1_555
H20 C22 1_555 1_555
C9 C12 1_555 1_555
C10 C16 1_555 1_555
C13 C19 1_555 1_555
O7 C17 1_555 1_555
O8 C21 1_555 1_555

#END
