
#######################################################################
#
#                 Cambridge Crystallographic Data Centre
#                                CCDC 
#
#######################################################################
#
# If this CIF has been generated from an entry in the Cambridge 
# Structural Database, then it will include bibliographic, chemical, 
# crystal, experimental, refinement or atomic coordinate data resulting 
# from the CCDC's data processing and validation procedures.
#
#######################################################################

data_WADQEY
_chemical_name_common            Podophyllotoxone
_chemical_formula_moiety         'C22 H20 O8'
_chemical_name_systematic        
(5aR,8aR,9R)-9-(3,4,5-Trimethoxyphenyl)-5a,6,8a,9-tetrahydrofuro(3',4':6,7)naphtho(2,3-d)(1,3)dioxole-5,8-dione
_symmetry_cell_setting           orthorhombic
_symmetry_space_group_name_H-M   'P 21 21 21'
_symmetry_Int_Tables_number      19
_space_group_name_Hall           'P 2ac 2ab'
loop_
_symmetry_equiv_pos_site_id
_symmetry_equiv_pos_as_xyz
1 x,y,z
2 1/2-x,-y,1/2+z
3 1/2+x,1/2-y,-z
4 -x,1/2+y,1/2-z
_cell_length_a                   6.4927(9)
_cell_length_b                   12.1940(11)
_cell_length_c                   24.9681(18)
_cell_angle_alpha                90
_cell_angle_beta                 90
_cell_angle_gamma                90
_cell_volume                     1976.77
_exptl_crystal_colour            colorless
_exptl_crystal_description       prism
_cell_formula_units_Z            4
_exptl_crystal_recrystallization_method 'ethyl acetate'
loop_
_atom_site_label
_atom_site_type_symbol
_atom_site_fract_x
_atom_site_fract_y
_atom_site_fract_z
C1 C 0.3339(7) -0.2267(3) 0.06118(18)
H1 H 0.2786 -0.276 0.0343
H2 H 0.3792 -0.2699 0.0916
C2 C 0.4716(6) -0.0592(2) 0.05652(11)
C3 C 0.5954(5) 0.0284(2) 0.05157(11)
H3 H 0.7248 0.0222 0.0359
C4 C 0.5225(5) 0.1307(2) 0.07098(10)
C5 C 0.6568(5) 0.2269(2) 0.06469(10)
C6 C 0.5788(4) 0.3315(2) 0.08826(11)
H4 H 0.6144 0.3326 0.1264
C7 C 0.6426(6) 0.4404(3) 0.06363(14)
H5 H 0.7728 0.4653 0.0783
H6 H 0.6551 0.4344 0.025
C8 C 0.3044(6) 0.4577(3) 0.09154(12)
C9 C 0.3467(5) 0.3369(2) 0.08316(10)
H7 H 0.3161 0.3221 0.0454
C10 C 0.2392(4) 0.2475(2) 0.11477(10)
H8 H 0.0927 0.25000 0.1054
C11 C 0.3252(5) 0.1386(2) 0.09408(10)
C12 C 0.2017(5) 0.0453(3) 0.09833(11)
H9 H 0.0713 0.0489 0.1136
C13 C 0.2784(5) -0.0513(3) 0.07935(12)
C14 C 0.2552(4) 0.2596(2) 0.17518(10)
C15 C 0.1103(4) 0.3232(2) 0.20177(10)
H10 H 0.0054 0.3569 0.1825
C16 C 0.1204(5) 0.3368(2) 0.25649(11)
C17 C -0.1912(6) 0.4404(3) 0.25986(15)
H11 H -0.2721 0.4813 0.2851
H12 H -0.2719 0.381 0.2458
H13 H -0.1493 0.4876 0.2311
C18 C 0.2758(4) 0.2861(2) 0.28575(10)
C19 C 0.1794(6) 0.2143(3) 0.36825(13)
H14 H 0.1906 0.2261 0.4062
H15 H 0.2388 0.1447 0.3592
H16 H 0.0368 0.215 0.358
C20 C 0.4209(4) 0.2224(2) 0.25943(10)
C21 C 0.7144(6) 0.1063(3) 0.26739(14)
H17 H 0.8075 0.0798 0.2943
H18 H 0.7899 0.147 0.241
H19 H 0.6466 0.0454 0.2506
C22 C 0.4108(4) 0.2090(2) 0.20434(10)
H20 H 0.5084 0.1661 0.1869
O1 O 0.1811(5) -0.15024(19) 0.07740(11)
O2 O 0.5046(5) -0.16511(18) 0.03935(9)
O3 O 0.8250(3) 0.22234(18) 0.04240(8)
O4 O 0.4771(5) 0.51390(17) 0.07818(10)
O5 O 0.1495(4) 0.50262(19) 0.10486(9)
O6 O -0.0150(4) 0.39790(19) 0.28581(8)
O7 O 0.2866(4) 0.29970(18) 0.34039(7)
O8 O 0.5659(4) 0.1752(2) 0.29143(8)
loop_
_geom_bond_atom_site_label_1
_geom_bond_atom_site_label_2
_geom_bond_site_symmetry_1
_geom_bond_site_symmetry_2
C1 H1 1_555 1_555
H2 C1 1_555 1_555
C2 C3 1_555 1_555
C3 H3 1_555 1_555
C4 C3 1_555 1_555
C5 C4 1_555 1_555
C6 C5 1_555 1_555
H4 C6 1_555 1_555
C7 C6 1_555 1_555
H5 C7 1_555 1_555
H6 C7 1_555 1_555
C8 C9 1_555 1_555
C9 C6 1_555 1_555
H7 C9 1_555 1_555
C10 C9 1_555 1_555
H8 C10 1_555 1_555
C11 C4 1_555 1_555
C12 C11 1_555 1_555
H9 C12 1_555 1_555
C13 C2 1_555 1_555
C14 C10 1_555 1_555
C15 C14 1_555 1_555
H10 C15 1_555 1_555
C16 C15 1_555 1_555
C17 H11 1_555 1_555
H12 C17 1_555 1_555
H13 C17 1_555 1_555
C18 C16 1_555 1_555
C19 H14 1_555 1_555
H15 C19 1_555 1_555
H16 C19 1_555 1_555
C20 C18 1_555 1_555
C21 H17 1_555 1_555
H18 C21 1_555 1_555
H19 C21 1_555 1_555
C22 C14 1_555 1_555
H20 C22 1_555 1_555
O1 C1 1_555 1_555
O2 C1 1_555 1_555
O3 C5 1_555 1_555
O4 C7 1_555 1_555
O5 C8 1_555 1_555
O6 C16 1_555 1_555
O7 C18 1_555 1_555
O8 C20 1_555 1_555
C2 O2 1_555 1_555
C8 O4 1_555 1_555
C10 C11 1_555 1_555
C12 C13 1_555 1_555
C13 O1 1_555 1_555
C17 O6 1_555 1_555
C19 O7 1_555 1_555
C20 C22 1_555 1_555
C21 O8 1_555 1_555

#END
