
#######################################################################
#
#                 Cambridge Crystallographic Data Centre
#                                CCDC 
#
#######################################################################
#
# If this CIF has been generated from an entry in the Cambridge 
# Structural Database, then it will include bibliographic, chemical, 
# crystal, experimental, refinement or atomic coordinate data resulting 
# from the CCDC's data processing and validation procedures.
#
#######################################################################

data_WADRID
_chemical_compound_source        'dried flowers of Wedelia trilobata'
_chemical_formula_moiety         'C23 H32 O9'
_chemical_name_systematic        Trilobolide-6-O-isobutyrate
_symmetry_cell_setting           hexagonal
_symmetry_space_group_name_H-M   'P 65'
_symmetry_Int_Tables_number      170
_space_group_name_Hall           'P 65'
loop_
_symmetry_equiv_pos_site_id
_symmetry_equiv_pos_as_xyz
1 x,y,z
2 -y,x-y,2/3+z
3 -x+y,-x,1/3+z
4 -x,-y,1/2+z
5 y,-x+y,1/6+z
6 x-y,x,5/6+z
_cell_length_a                   9.8368(8)
_cell_length_b                   9.8368(8)
_cell_length_c                   42.455(5)
_cell_angle_alpha                90
_cell_angle_beta                 90
_cell_angle_gamma                120
_cell_volume                     3557.68
_exptl_crystal_colour            colorless
_exptl_crystal_description       block
_cell_formula_units_Z            6
_exptl_crystal_recrystallization_method acetone
loop_
_atom_site_label
_atom_site_type_symbol
_atom_site_fract_x
_atom_site_fract_y
_atom_site_fract_z
O1 O 1.0229(4) 0.4731(4) 0.15271(7)
O2 O 0.7978(6) 0.3943(7) 0.17972(11)
O3 O 0.8361(4) 0.5346(4) 0.08709(7)
O4 O 0.8481(7) 0.6893(8) 0.12673(14)
O5 O 0.8084(5) 0.0559(4) 0.05076(10)
H1 H 0.8146 -0.0236 0.0484
O6 O 1.1286(4) 0.3798(4) 0.02784(7)
O7 O 1.0525(5) 0.3461(6) -0.02266(8)
O8 O 1.0362(5) 0.7789(4) 0.05164(8)
O9 O 0.8391(7) 0.7867(5) 0.02710(11)
C1 C 0.9351(6) 0.3630(6) 0.12733(11)
H2 H 0.8296 0.3499 0.1265
C2 C 0.9204(7) 0.2058(6) 0.13451(12)
H3 H 0.8634 0.1644 0.1541
H4 H 1.0238 0.2174 0.1368
C3 C 0.8322(7) 0.0934(6) 0.10729(13)
H5 H 0.8211 -0.0083 0.1119
H6 H 0.7277 0.0797 0.1059
C4 C 0.9140(6) 0.1505(5) 0.07540(11)
C5 C 0.9342(5) 0.3163(5) 0.06973(10)
H7 H 0.8265 0.2969 0.0710
C6 C 0.9848(5) 0.3804(5) 0.03632(10)
H8 H 0.9019 0.3098 0.0218
C7 C 1.0154(6) 0.5468(5) 0.03049(11)
H9 H 1.0960 0.5926 0.0141
C8 C 1.0765(6) 0.6583(5) 0.05857(11)
H10 H 1.1908 0.7060 0.0600
C9 C 1.0026(5) 0.5819(5) 0.08962(10)
H11 H 1.0509 0.6586 0.1067
C10 C 1.0203(5) 0.4385(5) 0.09645(10)
C11 C 0.8805(6) 0.5655(6) 0.01966(11)
C12 C 0.9120(7) 0.7198(6) 0.03235(12)
C13 C 0.7620(9) 0.4789(9) 0.00149(15)
H12 H 0.6921 0.5125 -0.0041
H13 H 0.7469 0.3833 -0.0059
C14 C 1.0630(7) 0.1371(7) 0.07467(14)
H14 H 1.0356 0.0302 0.0785
H15 H 1.1345 0.2035 0.0906
H16 H 1.1120 0.1692 0.0544
C15 C 1.1982(6) 0.4990(6) 0.09873(11)
H17 H 1.2420 0.5723 0.1158
H18 H 1.2482 0.5501 0.0794
H19 H 1.2150 0.4122 0.1024
C16 C 0.9365(8) 0.4699(8) 0.17795(13)
C17 C 1.0411(10) 0.5783(9) 0.20335(16)
H20 H 0.9782 0.5753 0.2209
H21 H 1.0986 0.6834 0.1953
H22 H 1.1133 0.5452 0.2101
C18 C 0.7774(7) 0.6038(7) 0.10565(13)
C19 C 0.6121(8) 0.5561(10) 0.09579(19)
H23 H 0.5719 0.6066 0.1092
H24 H 0.5468 0.4442 0.0976
H25 H 0.6123 0.5870 0.0743
C20 C 1.1473(6) 0.3604(7) -0.00316(12)
C21 C 1.2954(8) 0.3593(9) -0.00938(14)
H26 H 1.3739 0.4137 0.0071
C22 C 1.2545(19) 0.194(2) -0.0127(5)
H27 H 1.2169 0.1408 0.0071
H28 H 1.3459 0.1892 -0.0190
H29 H 1.1741 0.1437 -0.0284
C23 C 1.3581(19) 0.4185(17) -0.0409(4)
H30 H 1.3908 0.5281 -0.0422
H31 H 1.2781 0.3617 -0.0564
H32 H 1.4463 0.4043 -0.0449
loop_
_geom_bond_atom_site_label_1
_geom_bond_atom_site_label_2
_geom_bond_site_symmetry_1
_geom_bond_site_symmetry_2
O1 C1 1_555 1_555
O2 C16 1_555 1_555
O3 C9 1_555 1_555
O4 C18 1_555 1_555
O5 H1 1_555 1_555
O6 C6 1_555 1_555
O7 C20 1_555 1_555
O8 C8 1_555 1_555
O9 C12 1_555 1_555
C1 H2 1_555 1_555
C2 C1 1_555 1_555
H3 C2 1_555 1_555
H4 C2 1_555 1_555
C3 C2 1_555 1_555
H5 C3 1_555 1_555
H6 C3 1_555 1_555
C4 O5 1_555 1_555
C5 C4 1_555 1_555
H7 C5 1_555 1_555
C6 C5 1_555 1_555
H8 C6 1_555 1_555
C7 C6 1_555 1_555
H9 C7 1_555 1_555
C8 C7 1_555 1_555
H10 C8 1_555 1_555
C9 C8 1_555 1_555
H11 C9 1_555 1_555
C10 C1 1_555 1_555
C11 C7 1_555 1_555
C12 O8 1_555 1_555
C13 C11 1_555 1_555
H12 C13 1_555 1_555
H13 C13 1_555 1_555
C14 C4 1_555 1_555
H14 C14 1_555 1_555
H15 C14 1_555 1_555
H16 C14 1_555 1_555
C15 C10 1_555 1_555
H17 C15 1_555 1_555
H18 C15 1_555 1_555
H19 C15 1_555 1_555
C16 O1 1_555 1_555
C17 C16 1_555 1_555
H20 C17 1_555 1_555
H21 C17 1_555 1_555
H22 C17 1_555 1_555
C18 O3 1_555 1_555
C19 C18 1_555 1_555
H23 C19 1_555 1_555
H24 C19 1_555 1_555
H25 C19 1_555 1_555
C20 O6 1_555 1_555
C21 C20 1_555 1_555
H26 C21 1_555 1_555
C22 C21 1_555 1_555
H27 C22 1_555 1_555
H28 C22 1_555 1_555
H29 C22 1_555 1_555
C23 C21 1_555 1_555
H30 C23 1_555 1_555
H31 C23 1_555 1_555
H32 C23 1_555 1_555
C3 C4 1_555 1_555
C5 C10 1_555 1_555
C9 C10 1_555 1_555
C11 C12 1_555 1_555

#END
