
#######################################################################
#
#                 Cambridge Crystallographic Data Centre
#                                CCDC 
#
#######################################################################
#
# If this CIF has been generated from an entry in the Cambridge 
# Structural Database, then it will include bibliographic, chemical, 
# crystal, experimental, refinement or atomic coordinate data resulting 
# from the CCDC's data processing and validation procedures.
#
#######################################################################

data_WADSIF
_chemical_formula_moiety         'C17 H12 O4,H2 O1'
_chemical_name_systematic        
'8-Benzoyl-7-hydroxy-4-methyl-2H-1-benzopyran-2-one monohydrate'
_symmetry_cell_setting           monoclinic
_symmetry_space_group_name_H-M   'C 2/c'
_symmetry_Int_Tables_number      15
_space_group_name_Hall           '-C 2yn'
loop_
_symmetry_equiv_pos_site_id
_symmetry_equiv_pos_as_xyz
1 x,y,z
2 -x,y,1/2-z
3 1/2+x,1/2+y,z
4 1/2-x,1/2+y,1/2-z
5 -x,-y,-z
6 x,-y,1/2+z
7 1/2-x,1/2-y,-z
8 1/2+x,1/2-y,1/2+z
_cell_length_a                   14.8912(15)
_cell_length_b                   9.6768(11)
_cell_length_c                   20.644(2)
_cell_angle_alpha                90
_cell_angle_beta                 104.275(2)
_cell_angle_gamma                90
_cell_volume                     2882.93
_exptl_crystal_colour            colorless
_exptl_crystal_description       prism
_chemical_melting_point          '492 K'
_cell_formula_units_Z            8
_exptl_crystal_recrystallization_method water/ethanol
loop_
_atom_site_label
_atom_site_type_symbol
_atom_site_fract_x
_atom_site_fract_y
_atom_site_fract_z
O1 O 0.17438(9) 0.30443(14) 0.31197(6)
O2 O 0.13299(12) 0.09551(16) 0.27504(8)
O3 O 0.27345(10) 0.73405(18) 0.40667(7)
H1 H 0.2699(19) 0.830(3) 0.4027(13)
O4 O 0.23351(10) 0.42720(19) 0.46551(7)
C1 C 0.12717(15) 0.2185(2) 0.26211(10)
C2 C 0.07607(15) 0.2814(2) 0.20096(10)
H2 H 0.0427(14) 0.218(2) 0.1671(10)
C3 C 0.07320(13) 0.4192(2) 0.19106(9)
C4 C 0.12370(13) 0.5072(2) 0.24429(9)
C5 C 0.12629(15) 0.6515(2) 0.24161(11)
H3 H 0.0918(13) 0.697(2) 0.2017(10)
C6 C 0.17489(14) 0.7290(2) 0.29421(11)
H4 H 0.1748(14) 0.829(2) 0.2898(10)
C7 C 0.22368(14) 0.6637(2) 0.35315(10)
C8 C 0.22316(13) 0.5202(2) 0.35827(9)
C9 C 0.17343(13) 0.4459(2) 0.30380(9)
C10 C 0.01805(19) 0.4821(3) 0.12713(12)
H5 H -0.0231(17) 0.414(3) 0.0985(12)
H6 H -0.0219(17) 0.555(3) 0.1356(12)
H7 H 0.0575(16) 0.525(3) 0.1039(12)
C11 C 0.27364(14) 0.4473(2) 0.42133(9)
C12 C 0.37057(13) 0.4036(2) 0.42734(9)
H8 H 0.3868(14) 0.308(2) 0.5173(11)
C13 C 0.41872(16) 0.3316(2) 0.48382(11)
C14 C 0.51066(17) 0.2977(3) 0.49076(13)
H9 H 0.5453(14) 0.250(2) 0.5300(11)
C15 C 0.55516(17) 0.3334(3) 0.44212(12)
H10 H 0.6208(17) 0.309(2) 0.4484(11)
C16 C 0.50801(16) 0.4022(3) 0.38535(12)
H11 H 0.5390(16) 0.430(2) 0.3503(12)
C17 C 0.41556(15) 0.4371(2) 0.37787(10)
H12 H 0.3830(13) 0.483(2) 0.3384(10)
O5 O 0.25946(14) 0.00677(18) 0.39756(10)
H13 H 0.220(2) 0.049(4) 0.3623(17)
H14 H 0.258(2) 0.045(3) 0.4355(16)
loop_
_geom_bond_atom_site_label_1
_geom_bond_atom_site_label_2
_geom_bond_site_symmetry_1
_geom_bond_site_symmetry_2
O1 C1 1_555 1_555
O2 C1 1_555 1_555
O3 H1 1_555 1_555
O4 C11 1_555 1_555
C1 C2 1_555 1_555
C2 H2 1_555 1_555
C3 C2 1_555 1_555
C4 C3 1_555 1_555
C5 C4 1_555 1_555
H3 C5 1_555 1_555
C6 C5 1_555 1_555
H4 C6 1_555 1_555
C7 O3 1_555 1_555
C8 C7 1_555 1_555
C9 O1 1_555 1_555
C10 C3 1_555 1_555
H5 C10 1_555 1_555
H6 C10 1_555 1_555
H7 C10 1_555 1_555
C11 C8 1_555 1_555
C12 C11 1_555 1_555
H8 C13 1_555 1_555
C13 C12 1_555 1_555
C14 C13 1_555 1_555
H9 C14 1_555 1_555
C15 C14 1_555 1_555
H10 C15 1_555 1_555
C16 C15 1_555 1_555
H11 C16 1_555 1_555
C17 C12 1_555 1_555
H12 C17 1_555 1_555
O5 H13 1_555 1_555
H14 O5 1_555 1_555
C4 C9 1_555 1_555
C6 C7 1_555 1_555
C8 C9 1_555 1_555
C16 C17 1_555 1_555

#END
