
#######################################################################
#
#                 Cambridge Crystallographic Data Centre
#                                CCDC 
#
#######################################################################
#
# If this CIF has been generated from an entry in the Cambridge 
# Structural Database, then it will include bibliographic, chemical, 
# crystal, experimental, refinement or atomic coordinate data resulting 
# from the CCDC's data processing and validation procedures.
#
#######################################################################

data_WADSOL
_chemical_formula_moiety         'C7 H6 N2 S3'
_chemical_name_systematic        5,6-Diamino-1,3-benzodithiole-2-thione
_symmetry_cell_setting           monoclinic
_symmetry_space_group_name_H-M   'P 21/n'
_symmetry_Int_Tables_number      14
_space_group_name_Hall           '-P 2yn'
loop_
_symmetry_equiv_pos_site_id
_symmetry_equiv_pos_as_xyz
1 x,y,z
2 1/2-x,1/2+y,1/2-z
3 -x,-y,-z
4 1/2+x,1/2-y,1/2+z
_cell_length_a                   5.7695(9)
_cell_length_b                   7.6130(11)
_cell_length_c                   19.993(3)
_cell_angle_alpha                90
_cell_angle_beta                 94.265(2)
_cell_angle_gamma                90
_cell_volume                     875.725
_exptl_crystal_colour            yellow
_exptl_crystal_description       block
_cell_formula_units_Z            4
_exptl_crystal_recrystallization_method 'ethyl acetate'
loop_
_atom_site_label
_atom_site_type_symbol
_atom_site_fract_x
_atom_site_fract_y
_atom_site_fract_z
C1 C 0.5326(4) 0.8170(3) 0.39432(11)
C2 C 0.3149(4) 0.8999(3) 0.37772(11)
C3 C 0.2459(4) 0.9342(3) 0.31133(11)
C4 C 0.3887(3) 0.8872(3) 0.26093(10)
C5 C 0.6025(4) 0.8080(3) 0.27734(10)
C6 C 0.6739(4) 0.7722(3) 0.34410(11)
C7 C 0.5787(4) 0.8467(3) 0.14729(11)
H1 H 0.097(5) 0.992(3) 0.3011(12)
H2 H 0.820(4) 0.719(3) 0.3564(12)
H3 H 0.724(6) 0.720(4) 0.4636(16)
H4 H 0.490(7) 0.760(4) 0.4841(17)
H5 H 0.250(5) 0.978(4) 0.4623(15)
H6 H 0.060(6) 0.999(4) 0.4153(15)
N1 N 0.6017(4) 0.7889(3) 0.46186(11)
N2 N 0.1723(4) 0.9361(3) 0.42920(11)
S1 S 0.32535(10) 0.93005(7) 0.17590(3)
S2 S 0.76856(9) 0.76272(7) 0.20996(3)
S3 S 0.63040(13) 0.84730(10) 0.06737(3)
loop_
_geom_bond_atom_site_label_1
_geom_bond_atom_site_label_2
_geom_bond_site_symmetry_1
_geom_bond_site_symmetry_2
C1 C2 1_555 1_555
C2 C3 1_555 1_555
C3 C4 1_555 1_555
C4 C5 1_555 1_555
C5 C6 1_555 1_555
C6 C1 1_555 1_555
C7 S1 1_555 1_555
H1 C3 1_555 1_555
H2 C6 1_555 1_555
H3 N1 1_555 1_555
H4 N1 1_555 1_555
H5 N2 1_555 1_555
H6 N2 1_555 1_555
N1 C1 1_555 1_555
N2 C2 1_555 1_555
S1 C4 1_555 1_555
S2 C5 1_555 1_555
S3 C7 1_555 1_555
C7 S2 1_555 1_555

#END
