
#######################################################################
#
#                 Cambridge Crystallographic Data Centre
#                                CCDC 
#
#######################################################################
#
# If this CIF has been generated from an entry in the Cambridge 
# Structural Database, then it will include bibliographic, chemical, 
# crystal, experimental, refinement or atomic coordinate data resulting 
# from the CCDC's data processing and validation procedures.
#
#######################################################################

data_WADVOO
_chemical_formula_moiety         'C11 H19 N1 O5'
_chemical_name_systematic        
'(2R,4R)-1-(t-Butoxycarbonyl)-4-methoxypyrrolidine-2-carboxylic acid'
_symmetry_cell_setting           monoclinic
_symmetry_space_group_name_H-M   'P 21'
_symmetry_Int_Tables_number      4
_space_group_name_Hall           'P 2yb'
loop_
_symmetry_equiv_pos_site_id
_symmetry_equiv_pos_as_xyz
1 x,y,z
2 -x,1/2+y,-z
_cell_length_a                   6.4299(13)
_cell_length_b                   9.784(2)
_cell_length_c                   10.279(2)
_cell_angle_alpha                90
_cell_angle_beta                 90.12(3)
_cell_angle_gamma                90
_cell_volume                     646.652
_exptl_crystal_colour            colorless
_exptl_crystal_description       prism
_cell_formula_units_Z            2
_exptl_crystal_recrystallization_method methanol
loop_
_atom_site_label
_atom_site_type_symbol
_atom_site_fract_x
_atom_site_fract_y
_atom_site_fract_z
O1 O 0.9616(2) 0.74085(17) 0.56702(14)
O2 O 1.2349(3) 0.63017(18) 0.30520(17)
O3 O 1.1022(3) 0.83878(17) 0.27707(17)
H1 H 1.253(5) 0.861(4) 0.262(3)
O4 O 0.4931(2) 0.92660(17) 0.24970(16)
O5 O 0.6949(2) 0.80182(16) 0.10995(13)
N1 N 0.7106(2) 0.7625(2) 0.32240(16)
C1 C 1.0873(3) 0.7059(2) 0.2972(2)
C2 C 0.8634(3) 0.6534(2) 0.3036(2)
H2 H 0.8304 0.6019 0.2244
C3 C 0.8259(4) 0.5636(2) 0.4235(2)
H3 H 0.7087 0.5027 0.4103
H4 H 0.9482 0.5099 0.4448
C4 C 0.7804(4) 0.6680(2) 0.5283(2)
H5 H 0.7092 0.6269 0.6028
C5 C 0.6428(3) 0.7725(3) 0.45841(19)
H6 H 0.4968 0.7493 0.4670
H7 H 0.6654 0.8638 0.4924
C6 C 1.1031(4) 0.6610(3) 0.6413(2)
H8 H 1.0289 0.6135 0.7084
H9 H 1.2057 0.7197 0.6801
H10 H 1.1706 0.5960 0.5856
C7 C 0.6240(3) 0.8376(2) 0.2284(2)
C8 C 0.6706(4) 0.8926(2) -0.0042(2)
C9 C 0.7760(5) 1.0273(3) 0.0251(3)
H11 H 0.7098 1.0697 0.0983
H12 H 0.7650 1.0863 -0.0493
H13 H 0.9200 1.0115 0.0447
C10 C 0.7858(5) 0.8146(4) -0.1077(2)
H14 H 0.9256 0.7975 -0.0791
H15 H 0.7884 0.8672 -0.1865
H16 H 0.7167 0.7291 -0.1235
C11 C 0.4450(5) 0.9100(4) -0.0410(3)
H17 H 0.3765 0.8229 -0.0382
H18 H 0.4356 0.9469 -0.1274
H19 H 0.3794 0.9714 0.0191
loop_
_geom_bond_atom_site_label_1
_geom_bond_atom_site_label_2
_geom_bond_site_symmetry_1
_geom_bond_site_symmetry_2
O1 C4 1_555 1_555
O2 C1 1_555 1_555
O3 H1 1_555 1_555
O4 C7 1_555 1_555
O5 C7 1_555 1_555
N1 C2 1_555 1_555
C1 O3 1_555 1_555
C2 C1 1_555 1_555
H2 C2 1_555 1_555
C3 C2 1_555 1_555
H3 C3 1_555 1_555
H4 C3 1_555 1_555
C4 C3 1_555 1_555
H5 C4 1_555 1_555
C5 N1 1_555 1_555
H6 C5 1_555 1_555
H7 C5 1_555 1_555
C6 O1 1_555 1_555
H8 C6 1_555 1_555
H9 C6 1_555 1_555
H10 C6 1_555 1_555
C7 N1 1_555 1_555
C8 O5 1_555 1_555
C9 C8 1_555 1_555
H11 C9 1_555 1_555
H12 C9 1_555 1_555
H13 C9 1_555 1_555
C10 C8 1_555 1_555
H14 C10 1_555 1_555
H15 C10 1_555 1_555
H16 C10 1_555 1_555
C11 C8 1_555 1_555
H17 C11 1_555 1_555
H18 C11 1_555 1_555
H19 C11 1_555 1_555
C4 C5 1_555 1_555

#END
