
#######################################################################
#
#                 Cambridge Crystallographic Data Centre
#                                CCDC 
#
#######################################################################
#
# If this CIF has been generated from an entry in the Cambridge 
# Structural Database, then it will include bibliographic, chemical, 
# crystal, experimental, refinement or atomic coordinate data resulting 
# from the CCDC's data processing and validation procedures.
#
#######################################################################

data_WADWOP
_chemical_name_common            
'8-Isopropyl-4,11-dimethyl-5,12-dioxatricyclo[9.1.0.0$4,6!]dodecan-7-ol monohydrate'
_chemical_formula_moiety         'C15 H26 O3,H2 O1'
_chemical_name_systematic        
'1\b,10\a:4\b,5\a-Diepoxy-7\aH-germacran-6\b-ol monohydrate'
_symmetry_cell_setting           orthorhombic
_symmetry_space_group_name_H-M   'P 21 21 21'
_symmetry_Int_Tables_number      19
_space_group_name_Hall           'P 2ac 2ab'
loop_
_symmetry_equiv_pos_site_id
_symmetry_equiv_pos_as_xyz
1 x,y,z
2 1/2-x,-y,1/2+z
3 -x,1/2+y,1/2-z
4 1/2+x,1/2-y,-z
_cell_length_a                   8.087(2)
_cell_length_b                   11.380(3)
_cell_length_c                   16.943(5)
_cell_angle_alpha                90
_cell_angle_beta                 90
_cell_angle_gamma                90
_cell_volume                     1559.27
_exptl_crystal_colour            colorless
_exptl_crystal_description       prismatic
_cell_formula_units_Z            4
loop_
_atom_site_label
_atom_site_type_symbol
_atom_site_fract_x
_atom_site_fract_y
_atom_site_fract_z
O1 O 0.3976(4) 1.2287(2) 0.77838(15)
O2 O 0.3551(4) 1.2022(2) 0.59240(17)
H1 H 0.4081 1.2005 0.5512
O3 O 0.1549(4) 0.7702(2) 0.79520(15)
C1 C 0.2708(6) 0.8691(3) 0.7992(2)
H2 H 0.3781 0.8546 0.7742
C2 C 0.2798(6) 0.9355(3) 0.8767(2)
H3 H 0.3750 0.9079 0.9063
H4 H 0.1818 0.9180 0.9075
C3 C 0.2933(6) 1.0692(3) 0.8662(2)
H5 H 0.1844 1.1006 0.8545
H6 H 0.3303 1.1038 0.9154
C4 C 0.4113(6) 1.1048(3) 0.8008(2)
C5 C 0.3410(5) 1.1380(3) 0.7247(2)
H7 H 0.2204 1.1304 0.7220
C6 C 0.4256(5) 1.1207(3) 0.64782(19)
H8 H 0.5433 1.1386 0.6542
C7 C 0.4075(5) 0.9917(3) 0.6206(2)
H9 H 0.4511 0.9430 0.6635
C8 C 0.2216(5) 0.9560(4) 0.6100(2)
H10 H 0.1534 1.0230 0.6240
H11 H 0.2026 0.9393 0.5546
C9 C 0.1633(7) 0.8502(4) 0.6583(2)
H12 H 0.0630 0.8198 0.6344
H13 H 0.2467 0.7892 0.6547
C10 C 0.1297(5) 0.8741(3) 0.7439(2)
C11 C 0.5160(6) 0.9655(4) 0.5473(2)
H14 H 0.4710 1.0109 0.5031
C12 C 0.6958(6) 1.0003(6) 0.5569(3)
H15 H 0.7404 0.9632 0.6031
H16 H 0.7036 1.0841 0.5625
H17 H 0.7572 0.9758 0.5114
C13 C 0.5033(9) 0.8344(4) 0.5254(3)
H18 H 0.3915 0.8162 0.5108
H19 H 0.5348 0.7874 0.5700
H20 H 0.5756 0.8179 0.4819
C14 C -0.0276(6) 0.9371(4) 0.7621(3)
H21 H -0.0342 1.0073 0.7309
H22 H -0.0299 0.9575 0.8171
H23 H -0.1198 0.8870 0.7502
C15 C 0.5860(6) 1.0613(4) 0.8082(2)
H24 H 0.6288 1.0823 0.8592
H25 H 0.6530 1.0965 0.7679
H26 H 0.5878 0.9774 0.8024
O4 O -0.0212(5) 0.7428(3) 0.9509(2)
H27 H -0.133(8) 0.744(5) 0.935(3)
H28 H 0.024(6) 0.740(4) 0.900(3)
loop_
_geom_bond_atom_site_label_1
_geom_bond_atom_site_label_2
_geom_bond_site_symmetry_1
_geom_bond_site_symmetry_2
O1 C4 1_555 1_555
O2 H1 1_555 1_555
O3 C1 1_555 1_555
O4 H27 1_555 1_555
C1 H2 1_555 1_555
C2 C1 1_555 1_555
H3 C2 1_555 1_555
H4 C2 1_555 1_555
C3 C2 1_555 1_555
H5 C3 1_555 1_555
H6 C3 1_555 1_555
C4 C3 1_555 1_555
C5 O1 1_555 1_555
H7 C5 1_555 1_555
C6 O2 1_555 1_555
H8 C6 1_555 1_555
C7 C6 1_555 1_555
H9 C7 1_555 1_555
C8 C7 1_555 1_555
H10 C8 1_555 1_555
H11 C8 1_555 1_555
C9 C8 1_555 1_555
H12 C9 1_555 1_555
H13 C9 1_555 1_555
C10 O3 1_555 1_555
C11 C7 1_555 1_555
H14 C11 1_555 1_555
C12 C11 1_555 1_555
H15 C12 1_555 1_555
H16 C12 1_555 1_555
H17 C12 1_555 1_555
C13 C11 1_555 1_555
H18 C13 1_555 1_555
H19 C13 1_555 1_555
H20 C13 1_555 1_555
C14 C10 1_555 1_555
H21 C14 1_555 1_555
H22 C14 1_555 1_555
H23 C14 1_555 1_555
C15 C4 1_555 1_555
H24 C15 1_555 1_555
H25 C15 1_555 1_555
H26 C15 1_555 1_555
H28 O4 1_555 1_555
C1 C10 1_555 1_555
C4 C5 1_555 1_555
C5 C6 1_555 1_555
C9 C10 1_555 1_555

#END
