
#######################################################################
#
#                 Cambridge Crystallographic Data Centre
#                                CCDC 
#
#######################################################################
#
# If this CIF has been generated from an entry in the Cambridge 
# Structural Database, then it will include bibliographic, chemical, 
# crystal, experimental, refinement or atomic coordinate data resulting 
# from the CCDC's data processing and validation procedures.
#
#######################################################################

data_WADWIK
_chemical_formula_moiety         'C22 H23 N1 O1'
_chemical_name_systematic        
2-cyclohexyl-1-(2-phenyl-1H-indol-3-yl)ethanone
_symmetry_cell_setting           orthorhombic
_symmetry_space_group_name_H-M   'P 21 21 21'
_symmetry_Int_Tables_number      19
_space_group_name_Hall           'P 2ac 2ab'
loop_
_symmetry_equiv_pos_site_id
_symmetry_equiv_pos_as_xyz
1 x,y,z
2 1/2-x,-y,1/2+z
3 1/2+x,1/2-y,-z
4 -x,1/2+y,1/2-z
_cell_length_a                   7.3587(5)
_cell_length_b                   13.2250(10)
_cell_length_c                   17.5445(13)
_cell_angle_alpha                90
_cell_angle_beta                 90
_cell_angle_gamma                90
_cell_volume                     1707.41
_exptl_crystal_colour            colorless
_exptl_crystal_description       rod
_cell_formula_units_Z            4
loop_
_atom_site_label
_atom_site_type_symbol
_atom_site_fract_x
_atom_site_fract_y
_atom_site_fract_z
C1 C 0.5113(3) 0.83148(17) 0.07278(14)
C2 C 0.6084(3) 0.91323(18) 0.04474(14)
H1 H 0.7374 0.9150 0.0468
C3 C 0.5096(3) 0.99203(18) 0.01371(13)
H2 H 0.5715 1.0495 -0.0059
C4 C 0.3199(4) 0.98840(19) 0.01069(15)
H3 H 0.2557 1.0431 -0.0118
C5 C 0.2234(3) 0.90765(19) 0.03949(14)
H4 H 0.0944 0.9067 0.0377
C6 C 0.3208(3) 0.82674(17) 0.07151(14)
C7 C 0.2707(3) 0.73248(17) 0.10822(13)
C8 C 0.4327(4) 0.68492(16) 0.12730(13)
C9 C 0.0841(4) 0.70348(16) 0.12692(13)
C10 C 0.0489(3) 0.62762(16) 0.18942(13)
H5 H 0.1269 0.5675 0.1815
H6 H -0.0795 0.6054 0.1872
C11 C 0.0883(4) 0.67346(16) 0.26852(13)
H7 H 0.2197 0.6927 0.2698
C12 C 0.0567(4) 0.59550(18) 0.33148(14)
H8 H -0.0704 0.5712 0.3290
H9 H 0.1378 0.5368 0.3232
C13 C 0.0930(4) 0.64022(19) 0.41026(15)
H10 H 0.0655 0.5890 0.4497
H11 H 0.2231 0.6583 0.4146
C14 C -0.0226(4) 0.7338(2) 0.42403(15)
H12 H 0.0074 0.7630 0.4745
H13 H -0.1527 0.7148 0.4243
C15 C 0.0112(4) 0.81255(19) 0.36219(14)
H14 H -0.0699 0.8712 0.3706
H15 H 0.1384 0.8366 0.3656
C16 C -0.0229(4) 0.76918(18) 0.28315(13)
H16 H 0.0086 0.8206 0.2444
H17 H -0.1537 0.7533 0.2777
C17 C 0.4700(3) 0.58519(17) 0.16354(13)
C18 C 0.4340(3) 0.49591(17) 0.12458(13)
H18 H 0.3862 0.4983 0.0743
C19 C 0.4678(4) 0.40310(18) 0.15890(15)
H19 H 0.4434 0.3422 0.1321
C20 C 0.5369(4) 0.39947(18) 0.23207(15)
H20 H 0.5589 0.3360 0.2557
C21 C 0.5741(4) 0.48777(18) 0.27102(15)
H21 H 0.6214 0.4850 0.3214
C22 C 0.5425(3) 0.58032(17) 0.23671(14)
H22 H 0.5704 0.6409 0.2633
N1 N 0.5754(3) 0.74414(14) 0.10656(11)
H23 H 0.696(4) 0.7293(18) 0.1088(15)
O1 O -0.0440(2) 0.74797(12) 0.09706(9)
loop_
_geom_bond_atom_site_label_1
_geom_bond_atom_site_label_2
_geom_bond_site_symmetry_1
_geom_bond_site_symmetry_2
C1 C2 1_555 1_555
C2 H1 1_555 1_555
C3 C2 1_555 1_555
H2 C3 1_555 1_555
C4 C3 1_555 1_555
H3 C4 1_555 1_555
C5 C4 1_555 1_555
H4 C5 1_555 1_555
C6 C1 1_555 1_555
C7 C6 1_555 1_555
C8 C7 1_555 1_555
C9 C7 1_555 1_555
C10 C9 1_555 1_555
H5 C10 1_555 1_555
H6 C10 1_555 1_555
C11 C10 1_555 1_555
H7 C11 1_555 1_555
C12 C11 1_555 1_555
H8 C12 1_555 1_555
H9 C12 1_555 1_555
C13 C12 1_555 1_555
H10 C13 1_555 1_555
H11 C13 1_555 1_555
C14 C13 1_555 1_555
H12 C14 1_555 1_555
H13 C14 1_555 1_555
C15 C14 1_555 1_555
H14 C15 1_555 1_555
H15 C15 1_555 1_555
C16 C11 1_555 1_555
H16 C16 1_555 1_555
H17 C16 1_555 1_555
C17 C8 1_555 1_555
C18 C17 1_555 1_555
H18 C18 1_555 1_555
C19 C18 1_555 1_555
H19 C19 1_555 1_555
C20 C19 1_555 1_555
H20 C20 1_555 1_555
C21 C20 1_555 1_555
H21 C21 1_555 1_555
C22 C17 1_555 1_555
H22 C22 1_555 1_555
N1 C1 1_555 1_555
H23 N1 1_555 1_555
O1 C9 1_555 1_555
C5 C6 1_555 1_555
C8 N1 1_555 1_555
C15 C16 1_555 1_555
C21 C22 1_555 1_555

#END
