
#######################################################################
#
#                 Cambridge Crystallographic Data Centre
#                                CCDC 
#
#######################################################################
#
# If this CIF has been generated from an entry in the Cambridge 
# Structural Database, then it will include bibliographic, chemical, 
# crystal, experimental, refinement or atomic coordinate data resulting 
# from the CCDC's data processing and validation procedures.
#
#######################################################################

data_WADWUW
_chemical_formula_moiety         'C21 H15 N1 O1'
_chemical_name_systematic        phenyl(2-phenyl-1H-indol-3-yl)methanone
_symmetry_cell_setting           monoclinic
_symmetry_space_group_name_H-M   'P 21/c'
_symmetry_Int_Tables_number      14
_space_group_name_Hall           '-P 2ybc'
loop_
_symmetry_equiv_pos_site_id
_symmetry_equiv_pos_as_xyz
1 x,y,z
2 -x,1/2+y,1/2-z
3 -x,-y,-z
4 x,1/2-y,1/2+z
_cell_length_a                   14.5065(10)
_cell_length_b                   11.7911(9)
_cell_length_c                   18.6961(13)
_cell_angle_alpha                90
_cell_angle_beta                 107.782(2)
_cell_angle_gamma                90
_cell_volume                     3045.14
_exptl_crystal_colour            colorless
_exptl_crystal_description       lath
_cell_formula_units_Z            8
loop_
_atom_site_label
_atom_site_type_symbol
_atom_site_fract_x
_atom_site_fract_y
_atom_site_fract_z
C1 C 0.19446(19) 0.8013(2) 0.39664(13)
C2 C 0.2396(2) 0.9067(3) 0.40907(14)
H1 H 0.3052 0.9158 0.4104
C3 C 0.1852(2) 0.9976(3) 0.41944(15)
H2 H 0.2133 1.0711 0.4277
C4 C 0.0883(2) 0.9826(3) 0.41792(16)
H3 H 0.0525 1.0465 0.4255
C5 C 0.0442(2) 0.8786(3) 0.40575(14)
H4 H -0.0212 0.8702 0.4051
C6 C 0.09729(19) 0.7850(2) 0.39430(13)
C7 C 0.07731(18) 0.6637(2) 0.37913(13)
C8 C 0.16308(17) 0.6165(2) 0.37209(13)
C9 C -0.01375(19) 0.6113(2) 0.37465(14)
C10 C -0.02686(18) 0.4863(2) 0.36931(14)
C11 C 0.02580(19) 0.4146(2) 0.42699(14)
H5 H 0.0744 0.4450 0.4690
C12 C 0.0070(2) 0.2997(2) 0.42273(15)
H6 H 0.0407 0.2513 0.4628
C13 C -0.0617(2) 0.2544(3) 0.35948(15)
H7 H -0.0730 0.1749 0.3559
C14 C -0.1135(2) 0.3254(3) 0.30192(15)
H8 H -0.1601 0.2945 0.2590
C15 C -0.09743(19) 0.4396(3) 0.30696(14)
H9 H -0.1342 0.4880 0.2680
C16 C 0.18695(18) 0.4990(2) 0.35550(14)
C17 C 0.26730(19) 0.4451(2) 0.40466(15)
H10 H 0.3073 0.4848 0.4470
C18 C 0.2887(2) 0.3346(3) 0.39201(16)
H11 H 0.3431 0.2983 0.4259
C19 C 0.2305(2) 0.2747(3) 0.32906(16)
H12 H 0.2447 0.1980 0.3210
C20 C 0.1522(2) 0.3291(2) 0.27911(15)
H13 H 0.1134 0.2903 0.2359
C21 C 0.13070(19) 0.4405(2) 0.29238(14)
H14 H 0.0770 0.4773 0.2580
N1 N 0.23136(15) 0.69798(19) 0.38248(11)
H15 H 0.2906 0.6871 0.3806
O1 O -0.08448(13) 0.67091(16) 0.37534(11)
C22 C 0.69538(18) 0.5190(2) 0.40301(13)
C23 C 0.74041(19) 0.4145(2) 0.41931(14)
H16 H 0.8060 0.4039 0.4210
C24 C 0.6850(2) 0.3256(2) 0.43313(15)
H17 H 0.7126 0.2521 0.4438
C25 C 0.5884(2) 0.3439(3) 0.43146(15)
H18 H 0.5524 0.2825 0.4422
C26 C 0.54494(19) 0.4484(2) 0.41476(14)
H19 H 0.4797 0.4591 0.4139
C27 C 0.59814(18) 0.5380(2) 0.39919(13)
C28 C 0.57881(18) 0.6581(2) 0.38018(13)
C29 C 0.66528(18) 0.7025(2) 0.37257(13)
C30 C 0.48733(19) 0.7126(2) 0.37205(14)
C31 C 0.47679(19) 0.8381(2) 0.36448(14)
C32 C 0.53489(19) 0.9104(2) 0.41874(14)
H20 H 0.5833 0.8801 0.4608
C33 C 0.5216(2) 1.0267(3) 0.41100(15)
H21 H 0.5605 1.0763 0.4482
C34 C 0.4517(2) 1.0708(3) 0.34902(16)
H22 H 0.4439 1.1507 0.3435
C35 C 0.3934(2) 1.0000(3) 0.29536(15)
H23 H 0.3454 1.0311 0.2533
C36 C 0.40478(19) 0.8845(3) 0.30272(14)
H24 H 0.3640 0.8357 0.2661
C37 C 0.68882(19) 0.8182(2) 0.35194(14)
C38 C 0.76544(19) 0.8797(2) 0.40043(15)
H25 H 0.8052 0.8450 0.4451
C39 C 0.7836(2) 0.9894(3) 0.38400(16)
H26 H 0.8355 1.0304 0.4174
C40 C 0.7257(2) 1.0408(3) 0.31815(16)
H27 H 0.7375 1.1171 0.3072
C41 C 0.65150(19) 0.9803(2) 0.26904(14)
H28 H 0.6129 1.0146 0.2238
C42 C 0.63344(19) 0.8698(2) 0.28572(14)
H29 H 0.5826 0.8285 0.2515
N2 N 0.73368(16) 0.62092(19) 0.38683(11)
H30 H 0.7935 0.6305 0.3860
O2 O 0.41519(13) 0.65488(17) 0.37109(11)
loop_
_geom_bond_atom_site_label_1
_geom_bond_atom_site_label_2
_geom_bond_site_symmetry_1
_geom_bond_site_symmetry_2
C1 C2 1_555 1_555
C2 H1 1_555 1_555
C3 C2 1_555 1_555
H2 C3 1_555 1_555
C4 C3 1_555 1_555
H3 C4 1_555 1_555
C5 C4 1_555 1_555
H4 C5 1_555 1_555
C6 C1 1_555 1_555
C7 C6 1_555 1_555
C8 C7 1_555 1_555
C9 C7 1_555 1_555
C10 C9 1_555 1_555
C11 C10 1_555 1_555
H5 C11 1_555 1_555
C12 C11 1_555 1_555
H6 C12 1_555 1_555
C13 C12 1_555 1_555
H7 C13 1_555 1_555
C14 C13 1_555 1_555
H8 C14 1_555 1_555
C15 C10 1_555 1_555
H9 C15 1_555 1_555
C16 C8 1_555 1_555
C17 C16 1_555 1_555
H10 C17 1_555 1_555
C18 C17 1_555 1_555
H11 C18 1_555 1_555
C19 C18 1_555 1_555
H12 C19 1_555 1_555
C20 C19 1_555 1_555
H13 C20 1_555 1_555
C21 C16 1_555 1_555
H14 C21 1_555 1_555
N1 C1 1_555 1_555
H15 N1 1_555 1_555
O1 C9 1_555 1_555
C22 C23 1_555 1_555
C23 H16 1_555 1_555
C24 C23 1_555 1_555
H17 C24 1_555 1_555
C25 C24 1_555 1_555
H18 C25 1_555 1_555
C26 C25 1_555 1_555
H19 C26 1_555 1_555
C27 C22 1_555 1_555
C28 C27 1_555 1_555
C29 C28 1_555 1_555
C30 C28 1_555 1_555
C31 C30 1_555 1_555
C32 C31 1_555 1_555
H20 C32 1_555 1_555
C33 C32 1_555 1_555
H21 C33 1_555 1_555
C34 C33 1_555 1_555
H22 C34 1_555 1_555
C35 C34 1_555 1_555
H23 C35 1_555 1_555
C36 C31 1_555 1_555
H24 C36 1_555 1_555
C37 C29 1_555 1_555
C38 C37 1_555 1_555
H25 C38 1_555 1_555
C39 C38 1_555 1_555
H26 C39 1_555 1_555
C40 C39 1_555 1_555
H27 C40 1_555 1_555
C41 C40 1_555 1_555
H28 C41 1_555 1_555
C42 C37 1_555 1_555
H29 C42 1_555 1_555
N2 C22 1_555 1_555
H30 N2 1_555 1_555
O2 C30 1_555 1_555
C5 C6 1_555 1_555
C8 N1 1_555 1_555
C14 C15 1_555 1_555
C20 C21 1_555 1_555
C26 C27 1_555 1_555
C29 N2 1_555 1_555
C35 C36 1_555 1_555
C41 C42 1_555 1_555

#END
