
#######################################################################
#
#                 Cambridge Crystallographic Data Centre
#                                CCDC 
#
#######################################################################
#
# If this CIF has been generated from an entry in the Cambridge 
# Structural Database, then it will include bibliographic, chemical, 
# crystal, experimental, refinement or atomic coordinate data resulting 
# from the CCDC's data processing and validation procedures.
#
#######################################################################

data_WADYUX
_chemical_formula_moiety         'C6 H8 N2 O3 S1'
_chemical_name_systematic        4-Amino-3-ammoniobenzenesulfonate
_symmetry_cell_setting           monoclinic
_symmetry_space_group_name_H-M   'P 21/c'
_symmetry_Int_Tables_number      14
_space_group_name_Hall           '-P 2ybc'
loop_
_symmetry_equiv_pos_site_id
_symmetry_equiv_pos_as_xyz
1 x,y,z
2 -x,1/2+y,1/2-z
3 -x,-y,-z
4 x,1/2-y,1/2+z
_cell_length_a                   5.6020(10)
_cell_length_b                   8.4135(15)
_cell_length_c                   16.221(3)
_cell_angle_alpha                90
_cell_angle_beta                 95.613(2)
_cell_angle_gamma                90
_cell_volume                     760.869
_exptl_crystal_colour            orange
_exptl_crystal_description       block
_cell_formula_units_Z            4
_exptl_crystal_recrystallization_method water
loop_
_atom_site_label
_atom_site_type_symbol
_atom_site_fract_x
_atom_site_fract_y
_atom_site_fract_z
C1 C 0.1329(3) 0.2272(2) 1.04906(10)
C2 C 0.1963(3) 0.15996(19) 0.97641(10)
H1 H 0.3348 0.0988 0.9769
C3 C 0.0532(3) 0.18407(19) 0.90339(10)
C4 C -0.1567(3) 0.2754(2) 0.90017(10)
C5 C -0.2178(3) 0.3403(2) 0.97466(11)
H2 H -0.3570 0.4005 0.9747
C6 C -0.0764(3) 0.3168(2) 1.04811(11)
H3 H -0.1207 0.3608 1.0970
H4 H 0.266(4) 0.065(3) 0.8377(14)
H5 H 0.132(4) 0.185(3) 0.7858(16)
H6 H 0.012(4) 0.033(3) 0.8111(15)
N1 N 0.1219(3) 0.1112(2) 0.82725(9)
N2 N -0.2985(3) 0.3022(2) 0.82732(11)
H7 H -0.4260 0.3592 0.8274
H8 H -0.2597 0.2619 0.7818
O1 O 0.1572(3) 0.16078(16) 1.20518(8)
O2 O 0.4779(3) 0.07161(18) 1.12735(8)
O3 O 0.4413(2) 0.34942(17) 1.16250(8)
S1 S 0.31916(8) 0.20155(5) 1.14202(2)
loop_
_geom_bond_atom_site_label_1
_geom_bond_atom_site_label_2
_geom_bond_site_symmetry_1
_geom_bond_site_symmetry_2
C1 C2 1_555 1_555
C2 H1 1_555 1_555
C3 C2 1_555 1_555
C4 C3 1_555 1_555
C5 C4 1_555 1_555
H2 C5 1_555 1_555
C6 C1 1_555 1_555
H3 C6 1_555 1_555
H4 N1 1_555 1_555
H5 N1 1_555 1_555
H6 N1 1_555 1_555
N1 C3 1_555 1_555
N2 C4 1_555 1_555
H7 N2 1_555 1_555
H8 N2 1_555 1_555
O1 S1 1_555 1_555
O2 S1 1_555 1_555
O3 S1 1_555 1_555
S1 C1 1_555 1_555
C5 C6 1_555 1_555

#END
