
#######################################################################
#
#                 Cambridge Crystallographic Data Centre
#                                CCDC 
#
#######################################################################
#
# If this CIF has been generated from an entry in the Cambridge 
# Structural Database, then it will include bibliographic, chemical, 
# crystal, experimental, refinement or atomic coordinate data resulting 
# from the CCDC's data processing and validation procedures.
#
#######################################################################

data_WADYAD
_chemical_formula_moiety         'C16 H13 N3 O4'
_chemical_name_systematic        
'Ethyl 8-(4-nitrophenyl)imidazo[1,2-a]pyridine-7-carboxylate'
_symmetry_cell_setting           monoclinic
_symmetry_space_group_name_H-M   'P 21/c'
_symmetry_Int_Tables_number      14
_space_group_name_Hall           '-P 2ybc'
loop_
_symmetry_equiv_pos_site_id
_symmetry_equiv_pos_as_xyz
1 x,y,z
2 -x,1/2+y,1/2-z
3 -x,-y,-z
4 x,1/2-y,1/2+z
_cell_length_a                   8.189(4)
_cell_length_b                   15.821(8)
_cell_length_c                   11.884(6)
_cell_angle_alpha                90
_cell_angle_beta                 105.380(8)
_cell_angle_gamma                90
_cell_volume                     1484.53
_exptl_crystal_colour            colorless
_exptl_crystal_description       block
_cell_formula_units_Z            4
_exptl_crystal_recrystallization_method 'ethyl acetate'
loop_
_atom_site_label
_atom_site_type_symbol
_atom_site_fract_x
_atom_site_fract_y
_atom_site_fract_z
O1 O 0.4896(3) 0.09876(13) 0.56705(14)
O2 O 0.2458(2) 0.15378(13) 0.49165(14)
O3 O 0.26198(16) 0.02576(9) 0.02277(12)
O4 O 0.16766(15) 0.07201(9) -0.15928(11)
N1 N 0.3843(3) 0.12901(12) 0.48549(16)
N2 N 0.72970(16) 0.19702(9) -0.06373(12)
N3 N 0.80707(17) 0.22853(10) 0.12673(13)
C1 C 0.8789(2) 0.24074(12) -0.04309(17)
H1 H 0.9381 0.2550 -0.0972
C2 C 0.9223(2) 0.25889(13) 0.07191(18)
H2 H 1.0193 0.2886 0.1096
C3 C 0.6901(2) 0.19066(11) 0.04239(14)
C4 C 0.53881(19) 0.14865(10) 0.04674(14)
C5 C 0.4368(2) 0.11716(11) -0.05585(14)
C6 C 0.4823(2) 0.12748(12) -0.16214(14)
H3 H 0.4108 0.1070 -0.2311
C7 C 0.6262(2) 0.16622(12) -0.16469(15)
H4 H 0.6555 0.1721 -0.2347
C8 C 0.2819(2) 0.06715(11) -0.05705(15)
C9 C 0.0130(2) 0.02350(15) -0.17049(19)
H5 H 0.0405 -0.0349 -0.1484
H6 H -0.0509 0.0467 -0.1197
C10 C -0.0864(3) 0.02810(19) -0.2914(2)
H7 H -0.1100 0.0862 -0.3130
H8 H -0.1909 -0.0019 -0.3003
H9 H -0.0238 0.0031 -0.3407
C11 C 0.4992(2) 0.14378(10) 0.16178(13)
C12 C 0.6133(2) 0.10865(12) 0.25694(14)
H10 H 0.7159 0.0879 0.2490
C13 C 0.5773(2) 0.10392(12) 0.36384(15)
H11 H 0.6541 0.0801 0.4280
C14 C 0.4254(3) 0.13518(12) 0.37291(15)
C15 C 0.3104(2) 0.17153(12) 0.28087(17)
H12 H 0.2089 0.1931 0.2897
C16 C 0.3482(2) 0.17554(12) 0.17493(15)
H13 H 0.2711 0.1999 0.1114
loop_
_geom_bond_atom_site_label_1
_geom_bond_atom_site_label_2
_geom_bond_site_symmetry_1
_geom_bond_site_symmetry_2
O1 N1 1_555 1_555
O2 N1 1_555 1_555
O3 C8 1_555 1_555
O4 C8 1_555 1_555
N1 C14 1_555 1_555
N2 C1 1_555 1_555
N3 C2 1_555 1_555
C1 H1 1_555 1_555
C2 C1 1_555 1_555
H2 C2 1_555 1_555
C3 N2 1_555 1_555
C4 C3 1_555 1_555
C5 C4 1_555 1_555
C6 C5 1_555 1_555
H3 C6 1_555 1_555
C7 N2 1_555 1_555
H4 C7 1_555 1_555
C8 C5 1_555 1_555
C9 O4 1_555 1_555
H5 C9 1_555 1_555
H6 C9 1_555 1_555
C10 C9 1_555 1_555
H7 C10 1_555 1_555
H8 C10 1_555 1_555
H9 C10 1_555 1_555
C11 C4 1_555 1_555
C12 C11 1_555 1_555
H10 C12 1_555 1_555
C13 C12 1_555 1_555
H11 C13 1_555 1_555
C14 C13 1_555 1_555
C15 C14 1_555 1_555
H12 C15 1_555 1_555
C16 C11 1_555 1_555
H13 C16 1_555 1_555
N3 C3 1_555 1_555
C6 C7 1_555 1_555
C15 C16 1_555 1_555

#END
