
#######################################################################
#
#                 Cambridge Crystallographic Data Centre
#                                CCDC 
#
#######################################################################
#
# If this CIF has been generated from an entry in the Cambridge 
# Structural Database, then it will include bibliographic, chemical, 
# crystal, experimental, refinement or atomic coordinate data resulting 
# from the CCDC's data processing and validation procedures.
#
#######################################################################

data_WADZAE
_chemical_formula_moiety         'C13 H22 N4 O2 2+,2(F6 P1 1-)'
_chemical_name_systematic        
"3,3'-Dimethyl-1,1'-[(1,3-dihydroxypropane-2,2-diyl)dimethylidene]di-imidazolium bis(hexafluorophosphate)"
_symmetry_cell_setting           orthorhombic
_symmetry_space_group_name_H-M   'P n a 21'
_symmetry_Int_Tables_number      33
_space_group_name_Hall           'P 2c -2n'
loop_
_symmetry_equiv_pos_site_id
_symmetry_equiv_pos_as_xyz
1 x,y,z
2 -x,-y,1/2+z
3 1/2-x,1/2+y,1/2+z
4 1/2+x,1/2-y,z
_cell_length_a                   14.622(3)
_cell_length_b                   12.504(3)
_cell_length_c                   12.165(2)
_cell_angle_alpha                90
_cell_angle_beta                 90
_cell_angle_gamma                90
_cell_volume                     2224.17
_exptl_crystal_colour            colorless
_exptl_crystal_description       block
_chemical_melting_point          '497-500 K'
_cell_formula_units_Z            4
_exptl_crystal_recrystallization_method methanol
loop_
_atom_site_label
_atom_site_type_symbol
_atom_site_fract_x
_atom_site_fract_y
_atom_site_fract_z
O1 O 0.8641(3) 0.5204(5) 0.2865(3)
H1 H 0.8104 0.5362 0.2756
N1 N 1.0848(6) 0.8302(5) 0.4610(6)
C1 C 1.1347(5) 0.9027(6) 0.5270(7)
H2 H 1.1127 0.9740 0.5144
H3 H 1.1983 0.8989 0.5082
H4 H 1.1268 0.8845 0.6030
O2 O 1.0931(3) 0.4708(3) 0.5634(3)
H5 H 1.1025 0.4740 0.6298
N2 N 1.0515(4) 0.6773(4) 0.3942(5)
C2 C 1.1092(6) 0.7153(6) 0.4672(6)
H6 H 1.1525 0.6804 0.5101
N3 N 0.9585(3) 0.2977(4) 0.4254(4)
C3 C 1.0013(6) 0.7562(7) 0.3474(7)
H7 H 0.9577 0.7467 0.2927
N4 N 0.8598(4) 0.1738(4) 0.4570(4)
C4 C 1.0258(6) 0.8556(7) 0.3952(8)
H8 H 1.0027 0.9233 0.3801
C5 C 1.0500(4) 0.5689(4) 0.3557(5)
H9 H 1.1108 0.5385 0.3631
H10 H 1.0342 0.5684 0.2783
C6 C 0.9823(3) 0.4998(4) 0.4183(4)
C7 C 1.0003(4) 0.4992(5) 0.5411(4)
H11 H 0.9877 0.5695 0.5712
H12 H 0.9598 0.4484 0.5765
C8 C 0.8832(3) 0.5271(5) 0.3995(4)
H13 H 0.8445 0.4778 0.4398
H14 H 0.8709 0.5990 0.4257
C9 C 1.0043(4) 0.3873(4) 0.3704(5)
H15 H 0.9872 0.3866 0.2934
H16 H 1.0698 0.3760 0.3744
C10 C 0.9922(5) 0.2325(5) 0.5067(5)
H17 H 1.0493 0.2387 0.5397
C11 C 0.9291(5) 0.1587(6) 0.5303(6)
H18 H 0.9320 0.1074 0.5855
C12 C 0.8786(4) 0.2570(4) 0.3921(5)
H19 H 0.8428 0.2821 0.3344
C13 C 0.7815(5) 0.1020(6) 0.4552(6)
H20 H 0.7397 0.1243 0.3988
H21 H 0.7513 0.1040 0.5252
H22 H 0.8019 0.0305 0.4404
P1 P 0.72571(13) 0.35606(18) 0.68464(19)
F1 F 0.7669(3) 0.4744(3) 0.6875(5)
F2 F 0.6868(3) 0.2424(3) 0.6720(5)
F3 F 0.6246(3) 0.4001(4) 0.6840(4)
F4 F 0.7290(3) 0.3498(5) 0.8136(3)
F5 F 0.7254(4) 0.3651(4) 0.5546(4)
F6 F 0.8266(2) 0.3132(4) 0.6825(5)
P2 P 0.64385(14) 0.33975(18) 0.1878(2)
F7 F 0.7457(4) 0.3277(4) 0.1659(6)
F8 F 0.6282(7) 0.3840(8) 0.0811(7)
F9 F 0.6598(5) 0.3032(5) 0.3039(4)
F10 F 0.6708(5) 0.4574(5) 0.2350(7)
F11 F 0.6079(10) 0.2399(7) 0.1625(8)
F12 F 0.5486(5) 0.3672(9) 0.2204(9)
loop_
_geom_bond_atom_site_label_1
_geom_bond_atom_site_label_2
_geom_bond_site_symmetry_1
_geom_bond_site_symmetry_2
O1 H1 1_555 1_555
N1 C1 1_555 1_555
C1 H2 1_555 1_555
H3 C1 1_555 1_555
H4 C1 1_555 1_555
O2 H5 1_555 1_555
N2 C2 1_555 1_555
C2 N1 1_555 1_555
H6 C2 1_555 1_555
N3 C9 1_555 1_555
C3 N2 1_555 1_555
H7 C3 1_555 1_555
N4 C11 1_555 1_555
C4 N1 1_555 1_555
H8 C4 1_555 1_555
C5 N2 1_555 1_555
H9 C5 1_555 1_555
H10 C5 1_555 1_555
C6 C5 1_555 1_555
C7 O2 1_555 1_555
H11 C7 1_555 1_555
H12 C7 1_555 1_555
C8 O1 1_555 1_555
H13 C8 1_555 1_555
H14 C8 1_555 1_555
C9 C6 1_555 1_555
H15 C9 1_555 1_555
H16 C9 1_555 1_555
C10 N3 1_555 1_555
H17 C10 1_555 1_555
C11 C10 1_555 1_555
H18 C11 1_555 1_555
C12 N3 1_555 1_555
H19 C12 1_555 1_555
C13 N4 1_555 1_555
H20 C13 1_555 1_555
H21 C13 1_555 1_555
H22 C13 1_555 1_555
P1 F1 1_555 1_555
F2 P1 1_555 1_555
F3 P1 1_555 1_555
F4 P1 1_555 1_555
F5 P1 1_555 1_555
F6 P1 1_555 1_555
P2 F7 1_555 1_555
F8 P2 1_555 1_555
F9 P2 1_555 1_555
F10 P2 1_555 1_555
F11 P2 1_555 1_555
F12 P2 1_555 1_555
C3 C4 1_555 1_555
N4 C12 1_555 1_555
C6 C7 1_555 1_555
C6 C8 1_555 1_555

#END
