
#######################################################################
#
#                 Cambridge Crystallographic Data Centre
#                                CCDC 
#
#######################################################################
#
# If this CIF has been generated from an entry in the Cambridge 
# Structural Database, then it will include bibliographic, chemical, 
# crystal, experimental, refinement or atomic coordinate data resulting 
# from the CCDC's data processing and validation procedures.
#
#######################################################################

data_WAFBOV
_chemical_formula_moiety         'C24 H21 N3 O5'
_chemical_name_systematic        
rac-4-(2-((benzo(1,3)dioxol-5-yl)methyl)-1,3-dioxo-2,3,3a,4,5,6,7,8,8a,8b-decahydro-7-hydroxy-1H-pyrrolo(3,4-a)pyrrolizin-4-yl)benzonitrile
_symmetry_cell_setting           triclinic
_symmetry_space_group_name_H-M   'P 1'
_symmetry_Int_Tables_number      1
_space_group_name_Hall           'P 1'
loop_
_symmetry_equiv_pos_site_id
_symmetry_equiv_pos_as_xyz
1 x,y,z
_cell_length_a                   4.7947(1)
_cell_length_b                   14.9058(3)
_cell_length_c                   15.1606(5)
_cell_angle_alpha                111.174(1)
_cell_angle_beta                 94.024(1)
_cell_angle_gamma                99.021(1)
_cell_volume                     988.358
_exptl_crystal_colour            colorless
_cell_formula_units_Z            2
_exptl_crystal_recrystallization_method methanol
loop_
_atom_site_label
_atom_site_type_symbol
_atom_site_fract_x
_atom_site_fract_y
_atom_site_fract_z
N1 N 0.7381(6) 0.84892(18) 0.49585(19)
C1 C 0.7677(7) 0.7995(2) 0.5370(2)
C2 C 0.8050(6) 0.73719(19) 0.58892(18)
C3 C 0.9727(6) 0.66670(19) 0.55912(19)
H1 H 1.0616 0.6584 0.5034
C4 C 1.0106(6) 0.60794(19) 0.61121(18)
H2 H 1.1270 0.5602 0.5911
C5 C 0.8789(6) 0.61907(17) 0.69222(18)
C6 C 0.7074(6) 0.68860(19) 0.71994(19)
H3 H 0.6123 0.6951 0.7742
C7 C 0.6723(6) 0.74863(18) 0.67021(19)
H4 H 0.5588 0.7972 0.6912
C8 C 0.9262(5) 0.55614(17) 0.74906(18)
H5 H 1.0315 0.5052 0.7118
N2 N 0.6508(4) 0.50453(14) 0.76248(14)
C9 C 0.5422(6) 0.41000(19) 0.68047(19)
H6 H 0.6284 0.4109 0.6233
H7 H 0.3326 0.3998 0.6655
C10 C 0.6220(6) 0.32661(19) 0.7080(2)
H8 H 0.7309 0.2859 0.6602
C11 C 0.8028(6) 0.37822(19) 0.80608(19)
H9 H 1.0087 0.3873 0.8002
H10 H 0.7635 0.3406 0.8474
C12 C 0.7080(6) 0.47723(16) 0.84562(17)
H11 H 0.5305 0.4704 0.8755
O1 O 0.3648(4) 0.26747(12) 0.71742(13)
H12 H 0.3234 0.2145 0.6695
C13 C 1.0939(5) 0.60943(17) 0.85144(18)
H13 H 1.2930 0.5971 0.8520
C14 C 0.9306(5) 0.56336(16) 0.91405(17)
H14 H 1.0625 0.5414 0.9526
C15 C 0.8009(6) 0.64625(17) 0.97807(18)
N3 N 0.9150(5) 0.73164(14) 0.96628(15)
C16 C 1.0981(5) 0.71748(17) 0.89781(18)
O2 O 1.2359(4) 0.78275(13) 0.88117(14)
O3 O 0.6257(4) 0.64022(14) 1.03046(14)
C17 C 0.8529(6) 0.82849(19) 1.0221(2)
H15 H 0.6733 0.8193 1.0490
H16 H 0.8256 0.8641 0.9793
C18 C 1.0909(6) 0.88933(17) 1.10255(18)
C19 C 1.1160(6) 0.86758(18) 1.18605(19)
H17 H 0.9859 0.8165 1.1933
C20 C 1.3406(6) 0.92491(18) 1.25655(19)
C21 C 1.5272(6) 1.00069(18) 1.24642(18)
C22 C 1.5051(6) 1.02268(19) 1.1662(2)
H18 H 1.6338 1.0748 1.1601
C23 C 1.2846(6) 0.96461(18) 1.09429(19)
H19 H 1.2654 0.9768 1.0371
O4 O 1.4026(5) 0.92108(14) 1.34475(14)
C24 C 1.6756(7) 0.9883(2) 1.3841(2)
H20 H 1.6744 1.0296 1.4519
H21 H 1.8312 0.9511 1.3805
O5 O 1.7176(5) 1.04806(15) 1.32916(14)
N4 N 1.2541(8) 1.1541(2) 1.5050(2)
C25 C 1.2269(7) 1.2014(2) 1.4619(2)
C26 C 1.1901(7) 1.26338(19) 1.4085(2)
C27 C 1.0254(7) 1.3340(2) 1.4392(2)
H22 H 0.9365 1.3420 1.4949
C28 C 0.9910(6) 1.3928(2) 1.38825(19)
H23 H 0.8757 1.4408 1.4090
C29 C 1.1221(6) 1.38301(17) 1.30698(17)
C30 C 1.2930(6) 1.3127(2) 1.2783(2)
H24 H 1.3867 1.3058 1.2237
C31 C 1.3274(6) 1.2534(2) 1.3280(2)
H25 H 1.4440 1.2057 1.3078
C32 C 1.0764(6) 1.44672(17) 1.25141(18)
H26 H 0.9734 1.4982 1.2891
N5 N 1.3517(5) 1.49637(14) 1.23685(15)
C33 C 1.4677(6) 1.59083(17) 1.31702(19)
H27 H 1.6787 1.6038 1.3250
H28 H 1.4050 1.5885 1.3772
C34 C 1.3550(6) 1.67349(17) 1.29367(19)
H29 H 1.5179 1.7253 1.2954
C35 C 1.1926(6) 1.62172(17) 1.19229(19)
H30 H 0.9842 1.6111 1.1936
H31 H 1.2404 1.6608 1.1528
C36 C 1.2915(6) 1.52428(17) 1.15345(17)
H32 H 1.4678 1.5316 1.1231
O6 O 1.1657(4) 1.71591(12) 1.35969(12)
H33 H 1.2347 1.7756 1.3906
C37 C 0.9060(5) 1.39294(17) 1.14848(17)
H34 H 0.7069 1.4053 1.1477
C38 C 1.0687(6) 1.43668(18) 1.08569(18)
H35 H 0.9369 1.4578 1.0463
C39 C 1.2033(6) 1.35544(18) 1.02295(17)
N6 N 1.0865(5) 1.26886(14) 1.03358(15)
C40 C 0.9040(6) 1.28367(18) 1.10204(18)
O7 O 0.7676(4) 1.21828(13) 1.12082(14)
O8 O 1.3811(5) 1.36129(14) 0.97149(14)
C41 C 1.1478(6) 1.17246(18) 0.9777(2)
H36 H 1.1779 1.1371 1.0206
H37 H 1.3262 1.1818 0.9502
C42 C 0.9100(6) 1.11095(17) 0.89811(19)
C43 C 0.8838(6) 1.12916(19) 0.8136(2)
H38 H 1.0134 1.1794 0.8048
C44 C 0.6643(6) 1.07161(19) 0.74513(19)
C45 C 0.4743(6) 0.99757(18) 0.7557(2)
C46 C 0.4944(6) 0.97745(19) 0.8363(2)
H39 H 0.3631 0.9265 0.8434
C47 C 0.7204(6) 1.03620(19) 0.90896(19)
H40 H 0.7432 1.0244 0.9663
O9 O 0.5946(5) 1.07235(15) 0.65470(14)
C48 C 0.3272(7) 1.0062(2) 0.6166(2)
H41 H 0.3296 0.9636 0.5493
H42 H 0.1718 1.0433 0.6188
O10 O 0.2822(5) 0.94771(15) 0.67378(15)
loop_
_geom_bond_atom_site_label_1
_geom_bond_atom_site_label_2
_geom_bond_site_symmetry_1
_geom_bond_site_symmetry_2
N1 C1 1_555 1_555
C1 C2 1_555 1_555
C2 C3 1_555 1_555
C3 H1 1_555 1_555
C4 C3 1_555 1_555
H2 C4 1_555 1_555
C5 C4 1_555 1_555
C6 C5 1_555 1_555
H3 C6 1_555 1_555
C7 C2 1_555 1_555
H4 C7 1_555 1_555
C8 C5 1_555 1_555
H5 C8 1_555 1_555
N2 C8 1_555 1_555
C9 N2 1_555 1_555
H6 C9 1_555 1_555
H7 C9 1_555 1_555
C10 C9 1_555 1_555
H8 C10 1_555 1_555
C11 C10 1_555 1_555
H9 C11 1_555 1_555
H10 C11 1_555 1_555
C12 N2 1_555 1_555
H11 C12 1_555 1_555
O1 C10 1_555 1_555
H12 O1 1_555 1_555
C13 C8 1_555 1_555
H13 C13 1_555 1_555
C14 C12 1_555 1_555
H14 C14 1_555 1_555
C15 C14 1_555 1_555
N3 C15 1_555 1_555
C16 C13 1_555 1_555
O2 C16 1_555 1_555
O3 C15 1_555 1_555
C17 N3 1_555 1_555
H15 C17 1_555 1_555
H16 C17 1_555 1_555
C18 C17 1_555 1_555
C19 C18 1_555 1_555
H17 C19 1_555 1_555
C20 C19 1_555 1_555
C21 C20 1_555 1_555
C22 C21 1_555 1_555
H18 C22 1_555 1_555
C23 C18 1_555 1_555
H19 C23 1_555 1_555
O4 C20 1_555 1_555
C24 O4 1_555 1_555
H20 C24 1_555 1_555
H21 C24 1_555 1_555
O5 C21 1_555 1_555
N4 C25 1_555 1_555
C25 C26 1_555 1_555
C26 C27 1_555 1_555
C27 H22 1_555 1_555
C28 C27 1_555 1_555
H23 C28 1_555 1_555
C29 C28 1_555 1_555
C30 C29 1_555 1_555
H24 C30 1_555 1_555
C31 C26 1_555 1_555
H25 C31 1_555 1_555
C32 C29 1_555 1_555
H26 C32 1_555 1_555
N5 C32 1_555 1_555
C33 N5 1_555 1_555
H27 C33 1_555 1_555
H28 C33 1_555 1_555
C34 C33 1_555 1_555
H29 C34 1_555 1_555
C35 C34 1_555 1_555
H30 C35 1_555 1_555
H31 C35 1_555 1_555
C36 N5 1_555 1_555
H32 C36 1_555 1_555
O6 C34 1_555 1_555
H33 O6 1_555 1_555
C37 C32 1_555 1_555
H34 C37 1_555 1_555
C38 C36 1_555 1_555
H35 C38 1_555 1_555
C39 C38 1_555 1_555
N6 C39 1_555 1_555
C40 C37 1_555 1_555
O7 C40 1_555 1_555
O8 C39 1_555 1_555
C41 N6 1_555 1_555
H36 C41 1_555 1_555
H37 C41 1_555 1_555
C42 C41 1_555 1_555
C43 C42 1_555 1_555
H38 C43 1_555 1_555
C44 C43 1_555 1_555
C45 C44 1_555 1_555
C46 C45 1_555 1_555
H39 C46 1_555 1_555
C47 C42 1_555 1_555
H40 C47 1_555 1_555
O9 C44 1_555 1_555
C48 O9 1_555 1_555
H41 C48 1_555 1_555
H42 C48 1_555 1_555
O10 C45 1_555 1_555
C6 C7 1_555 1_555
C11 C12 1_555 1_555
C13 C14 1_555 1_555
N3 C16 1_555 1_555
C22 C23 1_555 1_555
C24 O5 1_555 1_555
C30 C31 1_555 1_555
C35 C36 1_555 1_555
C37 C38 1_555 1_555
N6 C40 1_555 1_555
C46 C47 1_555 1_555
C48 O10 1_555 1_555

#END
