
#######################################################################
#
#                 Cambridge Crystallographic Data Centre
#                                CCDC 
#
#######################################################################
#
# If this CIF has been generated from an entry in the Cambridge 
# Structural Database, then it will include bibliographic, chemical, 
# crystal, experimental, refinement or atomic coordinate data resulting 
# from the CCDC's data processing and validation procedures.
#
#######################################################################

data_WAFBAI
_chemical_formula_moiety         'C13 H9 N3 O2'
_chemical_name_systematic        4-Anilino-3-nitrobenzonitrile
_symmetry_cell_setting           monoclinic
_symmetry_space_group_name_H-M   'P 21/c'
_symmetry_Int_Tables_number      14
_space_group_name_Hall           '-P 2ybc'
loop_
_symmetry_equiv_pos_site_id
_symmetry_equiv_pos_as_xyz
1 x,y,z
2 -x,1/2+y,1/2-z
3 -x,-y,-z
4 x,1/2-y,1/2+z
_cell_length_a                   14.066(3)
_cell_length_b                   7.4290(15)
_cell_length_c                   11.652(2)
_cell_angle_alpha                90
_cell_angle_beta                 109.04(3)
_cell_angle_gamma                90
_cell_volume                     1150.98
_exptl_crystal_colour            colorless
_exptl_crystal_description       block
_cell_formula_units_Z            4
loop_
_atom_site_label
_atom_site_type_symbol
_atom_site_fract_x
_atom_site_fract_y
_atom_site_fract_z
O1 O 0.91767(8) 0.4271(2) 0.39718(10)
O2 O 0.84253(9) 0.43363(19) 0.20463(10)
N1 N 0.82164(10) 0.5168(2) 0.54802(11)
H1 H 0.8774 0.4845 0.5388
N2 N 0.84229(10) 0.45587(19) 0.30832(11)
N3 N 0.43509(11) 0.6904(2) 0.03546(14)
C1 C 0.74708(13) 0.4539(2) 0.70743(15)
H2 H 0.6921 0.3979 0.6517
C2 C 0.75504(15) 0.4625(3) 0.82822(17)
H3 H 0.7042 0.4143 0.8535
C3 C 0.83667(16) 0.5411(3) 0.91186(16)
H4 H 0.8414 0.5451 0.9933
C4 C 0.91129(15) 0.6136(3) 0.87473(16)
H5 H 0.9671 0.6659 0.9314
C5 C 0.90432(12) 0.6097(3) 0.75389(14)
H6 H 0.9548 0.6605 0.7290
C6 C 0.82202(11) 0.5299(2) 0.67003(13)
C7 C 0.74482(11) 0.5487(2) 0.44502(13)
C8 C 0.65218(12) 0.6207(2) 0.44808(14)
H7 H 0.6447 0.6444 0.5230
C9 C 0.57426(12) 0.6561(2) 0.34586(14)
H8 H 0.5150 0.7039 0.3520
C10 C 0.58206(11) 0.6214(2) 0.23110(14)
C11 C 0.67092(11) 0.5533(2) 0.22313(13)
H9 H 0.6771 0.5300 0.1474
C12 C 0.75095(11) 0.5196(2) 0.32739(13)
C13 C 0.49993(12) 0.6596(2) 0.12224(15)
loop_
_geom_bond_atom_site_label_1
_geom_bond_atom_site_label_2
_geom_bond_site_symmetry_1
_geom_bond_site_symmetry_2
O1 N2 1_555 1_555
O2 N2 1_555 1_555
N1 H1 1_555 1_555
N2 C12 1_555 1_555
N3 C13 1_555 1_555
C1 H2 1_555 1_555
C2 C1 1_555 1_555
H3 C2 1_555 1_555
C3 C2 1_555 1_555
H4 C3 1_555 1_555
C4 C3 1_555 1_555
H5 C4 1_555 1_555
C5 C4 1_555 1_555
H6 C5 1_555 1_555
C6 N1 1_555 1_555
C7 N1 1_555 1_555
C8 C7 1_555 1_555
H7 C8 1_555 1_555
C9 C8 1_555 1_555
H8 C9 1_555 1_555
C10 C9 1_555 1_555
C11 C10 1_555 1_555
H9 C11 1_555 1_555
C12 C7 1_555 1_555
C13 C10 1_555 1_555
C1 C6 1_555 1_555
C5 C6 1_555 1_555
C11 C12 1_555 1_555

#END
