
#######################################################################
#
#                 Cambridge Crystallographic Data Centre
#                                CCDC 
#
#######################################################################
#
# If this CIF has been generated from an entry in the Cambridge 
# Structural Database, then it will include bibliographic, chemical, 
# crystal, experimental, refinement or atomic coordinate data resulting 
# from the CCDC's data processing and validation procedures.
#
#######################################################################

data_WAFCUD
_chemical_formula_moiety         'C6 H6 N5 1+,Cl1 1-'
_chemical_name_systematic        '4-(1H-Tetrazol-5-yl)pyridinium chloride'
_symmetry_cell_setting           monoclinic
_symmetry_space_group_name_H-M   'P 21'
_symmetry_Int_Tables_number      4
_space_group_name_Hall           'P 2yb'
loop_
_symmetry_equiv_pos_site_id
_symmetry_equiv_pos_as_xyz
1 x,y,z
2 -x,1/2+y,-z
_cell_length_a                   4.8552(10)
_cell_length_b                   7.5862(15)
_cell_length_c                   10.884(2)
_cell_angle_alpha                90
_cell_angle_beta                 92.88(3)
_cell_angle_gamma                90
_cell_volume                     400.379
_exptl_crystal_colour            colorless
_exptl_crystal_description       block
_cell_formula_units_Z            2
loop_
_atom_site_label
_atom_site_type_symbol
_atom_site_fract_x
_atom_site_fract_y
_atom_site_fract_z
N1 N 0.6191(4) 0.2346(2) 0.94401(17)
C1 C 0.5024(4) 0.7071(3) 0.67942(18)
H1 H 0.3611 0.6417 0.6407
N2 N 0.4093(4) 0.2114(2) 0.86534(18)
N3 N 0.3900(3) 0.3586(2) 0.79785(15)
H2 H 0.2678 0.3786 0.7396
C2 C 0.5897(4) 0.4690(2) 0.83517(16)
N4 N 0.7754(3) 0.9626(2) 0.69060(16)
H3 H 0.8175 1.0632 0.6604
C3 C 0.8551(4) 0.7442(3) 0.83953(19)
H4 H 0.9528 0.7030 0.9094
N5 N 0.7348(4) 0.3944(2) 0.92686(16)
C4 C 0.9159(5) 0.9050(3) 0.7917(2)
H5 H 1.0541 0.9743 0.8292
C5 C 0.5724(4) 0.8690(3) 0.63512(18)
H6 H 0.4775 0.9142 0.5657
C6 C 0.6467(4) 0.6419(3) 0.78358(16)
Cl1 Cl 0.95294(9) 0.32109(6) 0.59025(4)
loop_
_geom_bond_atom_site_label_1
_geom_bond_atom_site_label_2
_geom_bond_site_symmetry_1
_geom_bond_site_symmetry_2
N1 N2 1_555 1_555
C1 H1 1_555 1_555
N2 N3 1_555 1_555
N3 H2 1_555 1_555
C2 N3 1_555 1_555
N4 H3 1_555 1_555
C3 H4 1_555 1_555
N5 N1 1_555 1_555
C4 N4 1_555 1_555
H5 C4 1_555 1_555
C5 C1 1_555 1_555
H6 C5 1_555 1_555
C6 C1 1_555 1_555
C2 N5 1_555 1_555
C2 C6 1_555 1_555
N4 C5 1_555 1_555
C3 C4 1_555 1_555
C3 C6 1_555 1_555

#END
