
#######################################################################
#
#                 Cambridge Crystallographic Data Centre
#                                CCDC 
#
#######################################################################
#
# If this CIF has been generated from an entry in the Cambridge 
# Structural Database, then it will include bibliographic, chemical, 
# crystal, experimental, refinement or atomic coordinate data resulting 
# from the CCDC's data processing and validation procedures.
#
#######################################################################

data_WAFCAJ01
_chemical_name_common            
N-(1,3-Benzodioxol-5-ylmethylene)-4-methylaniline
_chemical_formula_moiety         'C15 H13 N1 O2'
_chemical_name_systematic        
N-(Benzo[d][1,3]dioxol-5-ylmethylene)-4-methylaniline
_symmetry_cell_setting           triclinic
_symmetry_space_group_name_H-M   'P -1'
_symmetry_Int_Tables_number      2
_space_group_name_Hall           '-P 1'
loop_
_symmetry_equiv_pos_site_id
_symmetry_equiv_pos_as_xyz
1 x,y,z
2 -x,-y,-z
_cell_length_a                   10.697(3)
_cell_length_b                   10.791(3)
_cell_length_c                   13.328(3)
_cell_angle_alpha                89.394(19)
_cell_angle_beta                 67.05(2)
_cell_angle_gamma                62.45(3)
_cell_volume                     1228.59
_exptl_crystal_colour            colorless
_exptl_crystal_description       block
_cell_formula_units_Z            4
_exptl_crystal_recrystallization_method methanol
loop_
_atom_site_label
_atom_site_type_symbol
_atom_site_fract_x
_atom_site_fract_y
_atom_site_fract_z
N1 N 0.18413(19) 0.50182(19) 0.16820(15)
O1 O -0.34589(18) 1.14723(16) 0.31286(15)
C1 C -0.2121(3) 0.9102(2) 0.30218(19)
C2 C 0.3193(2) 0.3645(2) 0.12525(19)
C3 C -0.0907(2) 0.7741(2) 0.26243(18)
H1 H -0.0959 0.6998 0.2964
C4 C 0.0431(2) 0.7505(2) 0.16785(18)
O2 O -0.35485(18) 0.95859(17) 0.39322(14)
C5 C 0.4392(2) 0.3175(2) 0.01805(19)
H2 H 0.4354 0.3790 -0.0315
C6 C 0.5643(3) 0.1793(3) -0.0151(2)
H3 H 0.6428 0.1493 -0.0875
C7 C -0.2081(3) 1.0220(2) 0.2540(2)
C8 C -0.0824(3) 1.0034(2) 0.16100(19)
H4 H -0.0806 1.0790 0.1276
C9 C 0.0445(3) 0.8638(2) 0.11824(19)
H5 H 0.1328 0.8464 0.0543
C10 C 0.1806(3) 0.6074(2) 0.12360(19)
H6 H 0.2685 0.5932 0.0607
C11 C 0.3288(3) 0.2695(2) 0.1957(2)
H7 H 0.2486 0.2984 0.2674
C12 C 0.5765(2) 0.0847(2) 0.0556(2)
C13 C 0.7141(2) -0.0666(2) 0.0167(2)
H8 H 0.7026 -0.1168 0.0765
H9 H 0.8095 -0.0639 -0.0062
H10 H 0.7171 -0.1149 -0.0451
C14 C 0.4555(3) 0.1318(3) 0.1619(2)
H11 H 0.4592 0.0701 0.2113
C15 C -0.4328(3) 1.1108(3) 0.4082(2)
H12 H -0.5385 1.1470 0.4162
H13 H -0.4387 1.1529 0.4750
O3 O 0.84912(18) 0.34387(15) 0.13115(14)
N2 N 0.2721(2) 0.9647(2) 0.35889(15)
C16 C 0.2767(2) 0.8474(3) 0.33823(18)
H14 H 0.1834 0.8477 0.3559
O4 O 0.85314(18) 0.55202(16) 0.16228(16)
C17 C 0.4259(3) 0.7108(2) 0.28704(17)
C18 C 0.7015(3) 0.5801(2) 0.20381(19)
C19 C 0.6989(3) 0.4566(2) 0.18417(18)
C20 C -0.0304(3) 1.3374(2) 0.5002(2)
H15 H -0.0470 1.4083 0.5509
C21 C 0.5635(3) 0.4546(2) 0.21224(19)
H16 H 0.5625 0.3710 0.1978
C22 C 0.5678(3) 0.7094(2) 0.25622(18)
H17 H 0.5710 0.7918 0.2706
C23 C 0.1283(3) 1.0951(2) 0.39578(19)
C24 C 0.4245(3) 0.5873(2) 0.26467(19)
H18 H 0.3289 0.5914 0.2848
C25 C -0.1380(3) 1.3674(3) 0.4579(2)
C26 C 0.0196(3) 1.1227(3) 0.3553(2)
H19 H 0.0337 1.0507 0.3071
C27 C 0.1019(3) 1.2038(2) 0.46876(19)
H20 H 0.1737 1.1871 0.4972
C28 C -0.1111(3) 1.2581(3) 0.3863(2)
H21 H -0.1826 1.2751 0.3575
C29 C -0.2766(3) 1.5170(2) 0.4862(2)
H22 H -0.2755 1.5783 0.5371
H23 H -0.3721 1.5138 0.5200
H24 H -0.2697 1.5534 0.4194
C30 C 0.9488(3) 0.4011(2) 0.1220(2)
H25 H 1.0066 0.3590 0.1656
H26 H 1.0233 0.3798 0.0449
loop_
_geom_bond_atom_site_label_1
_geom_bond_atom_site_label_2
_geom_bond_site_symmetry_1
_geom_bond_site_symmetry_2
N1 C2 1_555 1_555
O1 C7 1_555 1_555
C1 C3 1_555 1_555
C2 C5 1_555 1_555
C3 H1 1_555 1_555
C4 C3 1_555 1_555
O2 C1 1_555 1_555
C5 H2 1_555 1_555
C6 C5 1_555 1_555
H3 C6 1_555 1_555
C7 C1 1_555 1_555
C8 C7 1_555 1_555
H4 C8 1_555 1_555
C9 C4 1_555 1_555
H5 C9 1_555 1_555
C10 N1 1_555 1_555
H6 C10 1_555 1_555
C11 C2 1_555 1_555
H7 C11 1_555 1_555
C12 C6 1_555 1_555
C13 C12 1_555 1_555
H8 C13 1_555 1_555
H9 C13 1_555 1_555
H10 C13 1_555 1_555
C14 C11 1_555 1_555
H11 C14 1_555 1_555
C15 O1 1_555 1_555
H12 C15 1_555 1_555
H13 C15 1_555 1_555
O3 C19 1_555 1_555
N2 C16 1_555 1_555
C16 H14 1_555 1_555
O4 C18 1_555 1_555
C17 C16 1_555 1_555
C18 C19 1_555 1_555
C19 C21 1_555 1_555
C20 H15 1_555 1_555
C21 H16 1_555 1_555
C22 C17 1_555 1_555
H17 C22 1_555 1_555
C23 N2 1_555 1_555
C24 C17 1_555 1_555
H18 C24 1_555 1_555
C25 C20 1_555 1_555
C26 C23 1_555 1_555
H19 C26 1_555 1_555
C27 C20 1_555 1_555
H20 C27 1_555 1_555
C28 C25 1_555 1_555
H21 C28 1_555 1_555
C29 C25 1_555 1_555
H22 C29 1_555 1_555
H23 C29 1_555 1_555
H24 C29 1_555 1_555
C30 O3 1_555 1_555
H25 C30 1_555 1_555
H26 C30 1_555 1_555
C4 C10 1_555 1_555
O2 C15 1_555 1_555
C8 C9 1_555 1_555
C12 C14 1_555 1_555
O4 C30 1_555 1_555
C18 C22 1_555 1_555
C21 C24 1_555 1_555
C23 C27 1_555 1_555
C26 C28 1_555 1_555

#END
