
#######################################################################
#
#                 Cambridge Crystallographic Data Centre
#                                CCDC 
#
#######################################################################
#
# If this CIF has been generated from an entry in the Cambridge 
# Structural Database, then it will include bibliographic, chemical, 
# crystal, experimental, refinement or atomic coordinate data resulting 
# from the CCDC's data processing and validation procedures.
#
#######################################################################

data_WAFCAI
_chemical_formula_moiety         'C31 H27 N3 O5'
_chemical_name_systematic        
4-((3aSR,4RS,7SR,8aSR,8bRS)-2-((benzo(1,3)dioxol-5-yl)methyl)-7-(benzyloxy)-2,3,3a,4,5,6,7,8,8a,8b-decahydro-1,3-dioxo-1H-pyrrolo(3,4-a)pyrrolizin-4-yl)benzonitrile
_symmetry_cell_setting           orthorhombic
_symmetry_space_group_name_H-M   'P 21 21 21'
_symmetry_Int_Tables_number      19
_space_group_name_Hall           'P 2ac 2ab'
loop_
_symmetry_equiv_pos_site_id
_symmetry_equiv_pos_as_xyz
1 x,y,z
2 1/2-x,-y,1/2+z
3 1/2+x,1/2-y,-z
4 -x,1/2+y,1/2-z
_cell_length_a                   13.6217(2)
_cell_length_b                   17.3424(2)
_cell_length_c                   22.5267(4)
_cell_angle_alpha                90
_cell_angle_beta                 90
_cell_angle_gamma                90
_cell_volume                     5321.55
_exptl_crystal_colour            colorless
_exptl_crystal_description       needle
_chemical_melting_point          '151 deg.C'
_cell_formula_units_Z            8
loop_
_atom_site_label
_atom_site_type_symbol
_atom_site_fract_x
_atom_site_fract_y
_atom_site_fract_z
O1 O 0.64983(17) 0.25091(12) 0.18538(10)
O2 O 0.35429(15) 0.36811(14) 0.20510(9)
O3 O 0.67943(18) 0.61592(13) 0.06038(13)
O4 O 0.53744(18) 0.62040(13) 0.11400(11)
O5 O 0.56469(14) 0.35062(10) 0.46121(8)
N1 N 0.56750(15) 0.38862(11) 0.31948(9)
N2 N 0.50260(16) 0.31423(12) 0.18225(10)
N3 N 0.1047(2) 0.64139(18) 0.31133(14)
C1 C 0.55227(19) 0.26491(14) 0.27514(12)
C2 C 0.62018(18) 0.31420(14) 0.31373(12)
C3 C 0.6363(2) 0.28556(15) 0.37757(12)
C4 C 0.6373(2) 0.35839(15) 0.41559(12)
C5 C 0.6138(2) 0.42441(14) 0.37186(12)
C6 C 0.46455(18) 0.36594(13) 0.32927(11)
C7 C 0.45102(18) 0.30208(14) 0.28170(11)
C8 C 0.4263(2) 0.33319(15) 0.22035(12)
C9 C 0.5770(2) 0.27402(14) 0.20999(12)
C10 C 0.5015(2) 0.33388(16) 0.11909(12)
C11 C 0.5539(2) 0.40848(17) 0.10491(12)
C12 C 0.6419(2) 0.40622(17) 0.07383(15)
C13 C 0.6913(3) 0.47313(18) 0.05662(16)
C14 C 0.6497(3) 0.54171(17) 0.07344(15)
C15 C 0.6171(3) 0.66375(18) 0.09417(15)
C16 C 0.5628(2) 0.54528(16) 0.10532(12)
C17 C 0.5127(2) 0.47842(17) 0.12145(13)
C18 C 0.39172(19) 0.43088(13) 0.32598(11)
C19 C 0.4095(2) 0.50000(15) 0.29692(13)
C20 C 0.3380(2) 0.55546(15) 0.29325(13)
C21 C 0.2460(2) 0.54313(15) 0.31836(12)
C22 C 0.2270(2) 0.47427(16) 0.34737(12)
C23 C 0.3001(2) 0.41936(15) 0.35195(12)
C24 C 0.1692(2) 0.59929(18) 0.31439(13)
C25 C 0.5762(2) 0.40602(17) 0.50706(13)
C26 C 0.4975(2) 0.39772(14) 0.55268(11)
C27 C 0.4023(2) 0.37822(18) 0.53787(13)
C28 C 0.3307(3) 0.3715(2) 0.58044(16)
C29 C 0.3516(3) 0.38501(18) 0.63928(14)
C30 C 0.4463(3) 0.40481(14) 0.65477(13)
C31 C 0.5177(2) 0.41101(15) 0.61261(12)
H1 H 0.5565 0.2082 0.2857
H2 H 0.6837 0.3268 0.2953
H3 H 0.5843 0.2496 0.3896
H4 H 0.7014 0.2596 0.3801
H5 H 0.6975 0.3678 0.4339
H6 H 0.6716 0.4472 0.3612
H7 H 0.5727 0.4687 0.3893
H8 H 0.4536 0.3408 0.3700
H9 H 0.4021 0.2688 0.2912
H10 H 0.5323 0.2949 0.1002
H11 H 0.4258 0.3299 0.1155
H12 H 0.6782 0.3565 0.0657
H13 H 0.7582 0.4739 0.0304
H14 H 0.6523 0.6852 0.1272
H15 H 0.5935 0.7047 0.0693
H16 H 0.4403 0.4760 0.1375
H17 H 0.4773 0.5111 0.2785
H18 H 0.3518 0.6011 0.2716
H19 H 0.1721 0.4693 0.3669
H20 H 0.2908 0.3719 0.3710
H21 H 0.6380 0.4065 0.5220
H22 H 0.5826 0.4576 0.4910
H23 H 0.3899 0.3711 0.4986
H24 H 0.2644 0.3513 0.5787
H25 H 0.3056 0.3781 0.6653
H26 H 0.4569 0.4094 0.6944
H27 H 0.5847 0.4332 0.6214
O6 O 1.17067(15) 0.25520(11) 0.38029(9)
O7 O 0.85433(14) 0.32934(12) 0.35250(9)
O8 O 1.08498(15) 0.32743(10) 0.09798(8)
O9 O 0.9477(2) 0.59997(12) 0.43005(11)
O10 O 1.0915(2) 0.62861(13) 0.48008(12)
N4 N 1.08106(14) 0.37095(10) 0.24062(9)
N5 N 1.01064(15) 0.29607(11) 0.37927(9)
N6 N 0.6353(2) 0.63340(15) 0.26105(13)
C32 C 1.07472(19) 0.25004(13) 0.28874(11)
C33 C 1.13834(18) 0.29930(13) 0.24820(11)
C34 C 1.1557(2) 0.26807(15) 0.18478(12)
C35 C 1.1543(2) 0.34005(15) 0.14497(12)
C36 C 1.1237(2) 0.40606(14) 0.18680(12)
C37 C 0.97916(18) 0.34485(13) 0.23207(10)
C38 C 0.96821(18) 0.27924(13) 0.27885(11)
C39 C 0.93431(19) 0.30474(13) 0.33930(11)
C40 C 1.09467(19) 0.26585(13) 0.35407(11)
C41 C 0.90556(17) 0.41021(12) 0.23823(10)
C42 C 0.81561(19) 0.40434(15) 0.20978(12)
C43 C 0.74563(19) 0.46173(16) 0.21628(12)
C44 C 0.76680(18) 0.52669(13) 0.25086(11)
C45 C 0.8570(2) 0.53302(14) 0.27891(12)
C46 C 0.92598(19) 0.47506(14) 0.27226(11)
C47 C 0.6939(2) 0.58644(16) 0.25677(13)
C48 C 1.0974(3) 0.38147(18) 0.05112(14)
C49 C 1.0181(3) 0.37001(16) 0.00593(13)
C50 C 1.0383(3) 0.37934(18) -0.05411(14)
C51 C 0.9680(3) 0.3693(2) -0.09713(16)
C52 C 0.8774(4) 0.3503(2) -0.08134(16)
C53 C 0.8534(3) 0.3405(3) -0.02208(19)
C54 C 0.9254(3) 0.3507(2) 0.02089(15)
C55 C 1.0025(2) 0.31728(15) 0.44216(11)
C56 C 1.0295(2) 0.40018(15) 0.45375(11)
C57 C 1.1158(2) 0.41767(17) 0.48282(13)
C58 C 1.1433(3) 0.49453(19) 0.49415(15)
C59 C 1.0819(3) 0.55017(16) 0.47387(13)
C60 C 0.9967(3) 0.53358(16) 0.44458(12)
C61 C 0.9671(3) 0.45928(16) 0.43396(13)
C62 C 1.0089(4) 0.6609(2) 0.45010(17)
H28 H 1.0780 0.1980 0.2821
H29 H 1.1996 0.3058 0.2606
H30 H 1.2228 0.2405 0.1810
H31 H 1.1052 0.2379 0.1723
H32 H 1.2204 0.3563 0.1245
H33 H 1.0782 0.4409 0.1648
H34 H 1.1841 0.4376 0.1947
H35 H 0.9711 0.3202 0.1936
H36 H 0.9233 0.2390 0.2675
H37 H 0.7976 0.3576 0.1849
H38 H 0.6744 0.4585 0.1986
H39 H 0.8726 0.5747 0.3017
H40 H 0.9779 0.4813 0.2904
H41 H 1.0979 0.4355 0.0685
H42 H 1.1719 0.3785 0.0319
H43 H 1.1010 0.3883 -0.0664
H44 H 0.9822 0.3818 -0.1450
H45 H 0.8233 0.3508 -0.1187
H46 H 0.7854 0.3268 -0.0192
H47 H 0.9107 0.3439 0.0532
H48 H 0.9394 0.3012 0.4532
H49 H 1.0425 0.2824 0.4648
H50 H 1.1566 0.3706 0.5008
H51 H 1.2033 0.5086 0.5179
H52 H 1.0306 0.6902 0.4164
H53 H 0.9721 0.6935 0.4763
H54 H 0.903(3) 0.452(2) 0.4121(18)
loop_
_geom_bond_atom_site_label_1
_geom_bond_atom_site_label_2
_geom_bond_site_symmetry_1
_geom_bond_site_symmetry_2
O1 C9 1_555 1_555
O2 C8 1_555 1_555
O3 C14 1_555 1_555
O4 C15 1_555 1_555
O5 C4 1_555 1_555
O6 C40 1_555 1_555
O7 C39 1_555 1_555
O8 C35 1_555 1_555
O9 C60 1_555 1_555
O10 C59 1_555 1_555
N1 C2 1_555 1_555
N2 C8 1_555 1_555
N3 C24 1_555 1_555
N4 C33 1_555 1_555
N5 C39 1_555 1_555
N6 C47 1_555 1_555
C1 C2 1_555 1_555
C2 C3 1_555 1_555
C3 C4 1_555 1_555
C4 C5 1_555 1_555
C5 N1 1_555 1_555
C6 N1 1_555 1_555
C7 C1 1_555 1_555
C8 C7 1_555 1_555
C9 N2 1_555 1_555
C10 N2 1_555 1_555
C11 C10 1_555 1_555
C12 C11 1_555 1_555
C13 C12 1_555 1_555
C14 C13 1_555 1_555
C15 O3 1_555 1_555
C16 O4 1_555 1_555
C17 C11 1_555 1_555
C18 C6 1_555 1_555
C19 C18 1_555 1_555
C20 C19 1_555 1_555
C21 C20 1_555 1_555
C22 C21 1_555 1_555
C23 C18 1_555 1_555
C24 C21 1_555 1_555
C25 O5 1_555 1_555
C26 C25 1_555 1_555
C27 C26 1_555 1_555
C28 C27 1_555 1_555
C29 C28 1_555 1_555
C30 C29 1_555 1_555
C31 C26 1_555 1_555
C32 C33 1_555 1_555
C33 C34 1_555 1_555
C34 C35 1_555 1_555
C35 C36 1_555 1_555
C36 N4 1_555 1_555
C37 N4 1_555 1_555
C38 C32 1_555 1_555
C39 C38 1_555 1_555
C40 N5 1_555 1_555
C41 C37 1_555 1_555
C42 C41 1_555 1_555
C43 C42 1_555 1_555
C44 C43 1_555 1_555
C45 C44 1_555 1_555
C46 C41 1_555 1_555
C47 C44 1_555 1_555
C48 O8 1_555 1_555
C49 C48 1_555 1_555
C50 C49 1_555 1_555
C51 C50 1_555 1_555
C52 C51 1_555 1_555
C53 C52 1_555 1_555
C54 C49 1_555 1_555
C55 N5 1_555 1_555
C56 C55 1_555 1_555
C57 C56 1_555 1_555
C58 C57 1_555 1_555
C59 C58 1_555 1_555
C60 C59 1_555 1_555
C61 C56 1_555 1_555
C62 O9 1_555 1_555
H1 C1 1_555 1_555
H2 C2 1_555 1_555
H3 C3 1_555 1_555
H4 C3 1_555 1_555
H5 C4 1_555 1_555
H6 C5 1_555 1_555
H7 C5 1_555 1_555
H8 C6 1_555 1_555
H9 C7 1_555 1_555
H10 C10 1_555 1_555
H11 C10 1_555 1_555
H12 C12 1_555 1_555
H13 C13 1_555 1_555
H14 C15 1_555 1_555
H15 C15 1_555 1_555
H16 C17 1_555 1_555
H17 C19 1_555 1_555
H18 C20 1_555 1_555
H19 C22 1_555 1_555
H20 C23 1_555 1_555
H21 C25 1_555 1_555
H22 C25 1_555 1_555
H23 C27 1_555 1_555
H24 C28 1_555 1_555
H25 C29 1_555 1_555
H26 C30 1_555 1_555
H27 C31 1_555 1_555
H28 C32 1_555 1_555
H29 C33 1_555 1_555
H30 C34 1_555 1_555
H31 C34 1_555 1_555
H32 C35 1_555 1_555
H33 C36 1_555 1_555
H34 C36 1_555 1_555
H35 C37 1_555 1_555
H36 C38 1_555 1_555
H37 C42 1_555 1_555
H38 C43 1_555 1_555
H39 C45 1_555 1_555
H40 C46 1_555 1_555
H41 C48 1_555 1_555
H42 C48 1_555 1_555
H43 C50 1_555 1_555
H44 C51 1_555 1_555
H45 C52 1_555 1_555
H46 C53 1_555 1_555
H47 C54 1_555 1_555
H48 C55 1_555 1_555
H49 C55 1_555 1_555
H50 C57 1_555 1_555
H51 C58 1_555 1_555
H52 C62 1_555 1_555
H53 C62 1_555 1_555
H54 C61 1_555 1_555
O10 C62 1_555 1_555
C1 C9 1_555 1_555
C6 C7 1_555 1_555
C14 C16 1_555 1_555
C16 C17 1_555 1_555
C22 C23 1_555 1_555
C30 C31 1_555 1_555
C32 C40 1_555 1_555
C37 C38 1_555 1_555
C45 C46 1_555 1_555
C53 C54 1_555 1_555
C60 C61 1_555 1_555

#END
