
#######################################################################
#
#                 Cambridge Crystallographic Data Centre
#                                CCDC 
#
#######################################################################
#
# If this CIF has been generated from an entry in the Cambridge 
# Structural Database, then it will include bibliographic, chemical, 
# crystal, experimental, refinement or atomic coordinate data resulting 
# from the CCDC's data processing and validation procedures.
#
#######################################################################

data_WAFHAO
_chemical_name_common            Piperazine-2,3,5,6-tetrone
_chemical_formula_moiety         'C4 H2 N2 O4'
_chemical_name_systematic        Piperazine-2,3,5,6-tetraone
_symmetry_cell_setting           monoclinic
_symmetry_space_group_name_H-M   'P 21/n'
_symmetry_Int_Tables_number      14
_space_group_name_Hall           '-P 2yn'
loop_
_symmetry_equiv_pos_site_id
_symmetry_equiv_pos_as_xyz
1 x,y,z
2 1/2-x,1/2+y,1/2-z
3 -x,-y,-z
4 1/2+x,1/2-y,1/2+z
_cell_length_a                   5.1630(10)
_cell_length_b                   8.6220(17)
_cell_length_c                   5.6540(11)
_cell_angle_alpha                90
_cell_angle_beta                 105.25(3)
_cell_angle_gamma                90
_cell_volume                     242.827
_exptl_crystal_colour            colorless
_exptl_crystal_description       block
_cell_formula_units_Z            2
loop_
_atom_site_label
_atom_site_type_symbol
_atom_site_fract_x
_atom_site_fract_y
_atom_site_fract_z
O1 O 0.1613(3) 0.55814(19) 0.7646(3)
O2 O 0.8069(3) 0.25100(19) 0.6060(3)
N1 N 0.4775(4) 0.3995(2) 0.6856(3)
H1 H 0.4603 0.3362 0.7981
C1 C 0.6621(5) 0.3635(2) 0.5614(4)
C2 C 0.3169(4) 0.5281(2) 0.6461(4)
O1B O 0.8387(3) 0.44186(19) 0.2354(3)
O2B O 0.1931(3) 0.74900(19) 0.3940(3)
N1B N 0.5225(4) 0.6005(2) 0.3144(3)
H1B H 0.5397 0.6638 0.2019
C1B C 0.3379(5) 0.6365(2) 0.4386(4)
C2B C 0.6831(4) 0.4719(2) 0.3539(4)
loop_
_geom_bond_atom_site_label_1
_geom_bond_atom_site_label_2
_geom_bond_site_symmetry_1
_geom_bond_site_symmetry_2
O1 C2 1_555 1_555
O2 C1 1_555 1_555
N1 H1 1_555 1_555
C1 N1 1_555 1_555
C2 N1 1_555 1_555
O1B C2B 1_555 1_555
O2B C1B 1_555 1_555
N1B H1B 1_555 1_555
C1B C2 1_555 1_555
C2B C1 1_555 1_555
N1B C1B 1_555 1_555
N1B C2B 1_555 1_555

#END
