
#######################################################################
#
#                 Cambridge Crystallographic Data Centre
#                                CCDC 
#
#######################################################################
#
# If this CIF has been generated from an entry in the Cambridge 
# Structural Database, then it will include bibliographic, chemical, 
# crystal, experimental, refinement or atomic coordinate data resulting 
# from the CCDC's data processing and validation procedures.
#
#######################################################################

data_WAFJAQ
_chemical_formula_moiety         'C11 H22 N2 O2'
_chemical_name_systematic        
(5S)-4-(2,2-Dimethylpropyl)-5-isopropyl-1,3,4-oxadiazinan-2-one
_symmetry_cell_setting           monoclinic
_symmetry_space_group_name_H-M   'P 21'
_symmetry_Int_Tables_number      4
_space_group_name_Hall           'P 2yb'
loop_
_symmetry_equiv_pos_site_id
_symmetry_equiv_pos_as_xyz
1 x,y,z
2 -x,1/2+y,-z
_cell_length_a                   17.0330(18)
_cell_length_b                   11.2270(12)
_cell_length_c                   17.404(2)
_cell_angle_alpha                90
_cell_angle_beta                 100.073(2)
_cell_angle_gamma                90
_cell_volume                     3276.86
_exptl_crystal_colour            colorless
_exptl_crystal_description       prism
_cell_formula_units_Z            10
loop_
_atom_site_label
_atom_site_type_symbol
_atom_site_fract_x
_atom_site_fract_y
_atom_site_fract_z
O1 O 0.4885(2) 0.4683(3) -0.06758(17)
C1 C 0.4247(3) 0.4157(5) -0.0465(3)
N1 N 0.4016(2) 0.4554(4) 0.0188(3)
N2 N 0.44061(17) 0.5387(3) 0.07359(18)
C2 C 0.5244(2) 0.5438(3) 0.0642(2)
H1 H 0.5489 0.6146 0.0941
C3 C 0.5273(3) 0.5655(4) -0.0204(2)
H2 H 0.500 0.6414 -0.0373
H3 H 0.5834 0.572 -0.0278
C4 C 0.5696(2) 0.4339(4) 0.0995(2)
H4 H 0.5419 0.3622 0.0737
C5 C 0.6560(2) 0.4309(5) 0.0861(3)
H5 H 0.6821 0.3586 0.1096
H6 H 0.6845 0.5011 0.1102
H7 H 0.6568 0.4311 0.0299
C6 C 0.5678(3) 0.4252(5) 0.1864(3)
H8 H 0.597 0.3539 0.2078
H9 H 0.5124 0.4199 0.1945
H10 H 0.5929 0.4961 0.213
C7 C 0.3986(2) 0.6556(3) 0.0666(2)
H11 H 0.3527 0.6517 0.023
H12 H 0.4354 0.7179 0.0539
C8 C 0.3688(2) 0.6901(3) 0.1414(2)
C9 C 0.3260(3) 0.8094(4) 0.1264(3)
H13 H 0.2807 0.8009 0.0834
H14 H 0.3631 0.8691 0.1124
H15 H 0.3067 0.835 0.1736
C10 C 0.3113(3) 0.5967(4) 0.1610(3)
H16 H 0.2668 0.5885 0.1174
H17 H 0.291 0.6209 0.208
H18 H 0.3391 0.5202 0.1705
C11 C 0.4384(3) 0.7049(5) 0.2076(3)
H19 H 0.4751 0.7651 0.1934
H20 H 0.4665 0.6288 0.2175
H21 H 0.4189 0.7304 0.2547
O2 O 0.3927(2) 0.3348(4) -0.0854(3)
H22 H 0.365(3) 0.416(5) 0.035(3)
O3 O 0.60240(16) 0.0228(3) 0.35395(17)
C12 C 0.6241(2) 0.0932(4) 0.4166(2)
N3 N 0.56820(19) 0.1295(3) 0.4561(2)
N4 N 0.48479(16) 0.1070(3) 0.43763(17)
C13 C 0.4650(2) 0.0769(4) 0.3543(2)
H23 H 0.4099 0.0429 0.3446
C14 C 0.5212(2) -0.0197(4) 0.3368(3)
H24 H 0.5153 -0.091 0.3688
H25 H 0.5077 -0.0425 0.2811
C15 C 0.4643(2) 0.1884(4) 0.3030(2)
H26 H 0.519 0.2241 0.3128
C16 C 0.4435(3) 0.1552(6) 0.2171(3)
H27 H 0.4816 0.0958 0.2047
H28 H 0.4461 0.2264 0.185
H29 H 0.3895 0.122 0.2061
C17 C 0.4062(3) 0.2798(5) 0.3235(3)
H30 H 0.4067 0.3501 0.2902
H31 H 0.4217 0.3029 0.3783
H32 H 0.3524 0.2456 0.3152
C18 C 0.4607(3) 0.0152(4) 0.4906(3)
H33 H 0.5086 -0.0121 0.527
H34 H 0.4383 -0.0543 0.4592
C19 C 0.3996(2) 0.0603(4) 0.5375(2)
C20 C 0.3795(3) -0.0402(6) 0.5887(3)
H35 H 0.4276 -0.0641 0.625
H36 H 0.359 -0.1083 0.556
H37 H 0.3388 -0.0133 0.6183
C21 C 0.4337(4) 0.1663(6) 0.5866(3)
H38 H 0.4822 0.142 0.6221
H39 H 0.3943 0.1952 0.6171
H40 H 0.4465 0.2301 0.5524
C22 C 0.3249(3) 0.0960(5) 0.4830(3)
H41 H 0.3368 0.1618 0.4499
H42 H 0.2846 0.1215 0.5134
H43 H 0.3046 0.0279 0.4502
O4 O 0.69335(16) 0.1255(4) 0.43234(17)
H44 H 0.584(2) 0.169(4) 0.492(3)
O5 O 0.26808(14) 0.8230(3) 0.31233(16)
C23 C 0.2958(2) 0.7617(4) 0.3774(2)
N5 N 0.24610(18) 0.6941(3) 0.4097(2)
N6 N 0.16241(17) 0.6874(3) 0.38521(18)
C24 C 0.1355(2) 0.7981(4) 0.3434(2)
H45 H 0.0787 0.7861 0.3181
C25 C 0.1835(2) 0.8159(5) 0.2790(2)
H46 H 0.1741 0.7486 0.2418
H47 H 0.1664 0.8902 0.2502
C26 C 0.1371(2) 0.9001(4) 0.4006(3)
H48 H 0.193 0.9072 0.4297
C27 C 0.1156(5) 1.0160(7) 0.3609(5)
H49 H 0.1172 1.079 0.4001
H50 H 0.0617 1.0109 0.3301
H51 H 0.1536 1.0345 0.3264
C28 C 0.0835(4) 0.8758(7) 0.4601(4)
H52 H 0.0982 0.7995 0.486
H53 H 0.0278 0.8726 0.4335
H54 H 0.0898 0.9397 0.499
C29 C 0.1397(3) 0.5776(5) 0.3403(3)
H55 H 0.1791 0.5632 0.3057
H56 H 0.0873 0.5906 0.3066
C30 C 0.1346(3) 0.4674(5) 0.3887(3)
C31 C 0.2148(10) 0.4158(14) 0.4062(10)
H57 H 0.2136 0.3437 0.4376
H58 H 0.2515 0.4738 0.4352
H59 H 0.2328 0.3956 0.3573
C32 C 0.0741(8) 0.3832(14) 0.3425(10)
H60 H 0.0701 0.3109 0.3731
H61 H 0.0914 0.362 0.2934
H62 H 0.022 0.4224 0.3312
C33 C 0.1074(11) 0.5004(16) 0.4667(10)
H63 H 0.1044 0.4281 0.4975
H64 H 0.0547 0.5382 0.4556
H65 H 0.1458 0.5558 0.4961
O6 O 0.36702(14) 0.7706(3) 0.40520(15)
H66 H 0.262(2) 0.673(3) 0.459(2)
O7 O -0.06692(15) 0.3012(3) -0.09221(17)
C34 C -0.0031(2) 0.3696(4) -0.0965(3)
N7 N 0.0563(2) 0.3695(3) -0.03533(19)
N8 N 0.05885(16) 0.3060(3) 0.03561(18)
C35 C -0.0238(2) 0.2907(4) 0.0483(3)
H67 H -0.0228 0.234 0.0928
C36 C -0.0709(2) 0.2334(5) -0.0230(3)
H68 H -0.05 0.1522 -0.0289
H69 H -0.1273 0.2259 -0.0165
C37 C -0.0578(2) 0.4086(4) 0.0716(3)
H70 H -0.0659 0.4619 0.0248
C38 C -0.1395(3) 0.3876(6) 0.0954(4)
H71 H -0.1747 0.3467 0.053
H72 H -0.163 0.4643 0.1057
H73 H -0.1327 0.3383 0.1426
C39 C -0.0022(4) 0.4701(7) 0.1355(4)
H74 H -0.0263 0.545 0.1487
H75 H 0.0483 0.4869 0.118
H76 H 0.0077 0.4187 0.1817
C40 C 0.1029(2) 0.1934(4) 0.0357(2)
H77 H 0.1085 0.1742 -0.0186
H78 H 0.0713 0.129 0.0543
C41 C 0.1850(2) 0.1955(4) 0.0860(3)
C42 C 0.2217(3) 0.0725(4) 0.0846(4)
H79 H 0.1869 0.0136 0.1031
H80 H 0.274 0.0717 0.1186
H81 H 0.228 0.0529 0.0311
C43 C 0.2369(3) 0.2847(6) 0.0590(6)
H82 H 0.2433 0.2662 0.0054
H83 H 0.2891 0.2838 0.0931
H84 H 0.2129 0.3639 0.0604
C44 C 0.1731(5) 0.2199(8) 0.1695(4)
H85 H 0.1381 0.1589 0.1855
H86 H 0.1488 0.2985 0.1722
H87 H 0.2248 0.2179 0.2045
O8 O -0.00226(17) 0.4282(4) -0.15440(18)
H88 H 0.092(2) 0.422(4) -0.030(2)
O9 O 0.26791(18) 0.5980(3) 0.87572(16)
C45 C 0.2004(3) 0.5404(4) 0.8848(2)
N9 N 0.1615(2) 0.4771(3) 0.82481(18)
N10 N 0.18487(17) 0.4653(3) 0.75098(17)
C46 C 0.2253(2) 0.5750(3) 0.7346(2)
H89 H 0.248 0.5615 0.6862
C47 C 0.2943(3) 0.5952(4) 0.8008(3)
H90 H 0.3339 0.5305 0.801
H91 H 0.3207 0.6715 0.7926
C48 C 0.1666(3) 0.6781(4) 0.7187(3)
H92 H 0.144 0.6927 0.7671
C49 C 0.2050(4) 0.7922(5) 0.6981(3)
H93 H 0.1646 0.8551 0.6882
H94 H 0.2285 0.7798 0.6512
H95 H 0.2468 0.8159 0.7415
C50 C 0.0988(3) 0.6471(5) 0.6541(4)
H96 H 0.0741 0.5724 0.6668
H97 H 0.1191 0.6376 0.6051
H98 H 0.059 0.711 0.6484
C51 C 0.2337(2) 0.3574(4) 0.7488(3)
H99 H 0.2631 0.3415 0.8021
H100 H 0.2736 0.3729 0.7149
C52 C 0.1870(3) 0.2476(4) 0.7195(3)
C53 C 0.2443(4) 0.1445(5) 0.7213(5)
H101 H 0.2651 0.1229 0.7757
H102 H 0.2886 0.1676 0.6953
H103 H 0.2164 0.076 0.6942
C54 C 0.1213(5) 0.2203(5) 0.7643(5)
H104 H 0.1442 0.2063 0.8192
H105 H 0.0925 0.1489 0.7425
H106 H 0.0843 0.2878 0.7603
C55 C 0.1492(5) 0.2668(7) 0.6349(4)
H107 H 0.1189 0.1956 0.615
H108 H 0.1909 0.2818 0.6038
H109 H 0.1131 0.3355 0.631
O10 O 0.1774(2) 0.5505(3) 0.94701(17)
H110 H 0.111(3) 0.459(4) 0.828(2)
C56? C 0.2081(13) 0.4386(14) 0.4517(9)
C57? C 0.1269(12) 0.3535(13) 0.3335(9)
C58? C 0.0622(11) 0.4802(16) 0.4233(13)
H111? H 0.2549 0.427 0.4268
H112? H 0.198 0.3657 0.4794
H113? H 0.218 0.5048 0.4889
H114? H 0.1754 0.345 0.311
H115? H 0.0808 0.3631 0.2914
H116? H 0.1195 0.2823 0.364
H117? H 0.0563 0.4103 0.4556
H118? H 0.0155 0.4868 0.3817
H119? H 0.0665 0.552 0.4558
loop_
_geom_bond_atom_site_label_1
_geom_bond_atom_site_label_2
_geom_bond_site_symmetry_1
_geom_bond_site_symmetry_2
O1 C1 1_555 1_555
C1 N1 1_555 1_555
N1 N2 1_555 1_555
N2 C2 1_555 1_555
C2 H1 1_555 1_555
C3 O1 1_555 1_555
H2 C3 1_555 1_555
H3 C3 1_555 1_555
C4 C2 1_555 1_555
H4 C4 1_555 1_555
C5 C4 1_555 1_555
H5 C5 1_555 1_555
H6 C5 1_555 1_555
H7 C5 1_555 1_555
C6 C4 1_555 1_555
H8 C6 1_555 1_555
H9 C6 1_555 1_555
H10 C6 1_555 1_555
C7 N2 1_555 1_555
H11 C7 1_555 1_555
H12 C7 1_555 1_555
C8 C7 1_555 1_555
C9 C8 1_555 1_555
H13 C9 1_555 1_555
H14 C9 1_555 1_555
H15 C9 1_555 1_555
C10 C8 1_555 1_555
H16 C10 1_555 1_555
H17 C10 1_555 1_555
H18 C10 1_555 1_555
C11 C8 1_555 1_555
H19 C11 1_555 1_555
H20 C11 1_555 1_555
H21 C11 1_555 1_555
O2 C1 1_555 1_555
H22 N1 1_555 1_555
O3 C12 1_555 1_555
C12 N3 1_555 1_555
N3 N4 1_555 1_555
N4 C13 1_555 1_555
C13 H23 1_555 1_555
C14 O3 1_555 1_555
H24 C14 1_555 1_555
H25 C14 1_555 1_555
C15 C13 1_555 1_555
H26 C15 1_555 1_555
C16 C15 1_555 1_555
H27 C16 1_555 1_555
H28 C16 1_555 1_555
H29 C16 1_555 1_555
C17 C15 1_555 1_555
H30 C17 1_555 1_555
H31 C17 1_555 1_555
H32 C17 1_555 1_555
C18 N4 1_555 1_555
H33 C18 1_555 1_555
H34 C18 1_555 1_555
C19 C18 1_555 1_555
C20 C19 1_555 1_555
H35 C20 1_555 1_555
H36 C20 1_555 1_555
H37 C20 1_555 1_555
C21 C19 1_555 1_555
H38 C21 1_555 1_555
H39 C21 1_555 1_555
H40 C21 1_555 1_555
C22 C19 1_555 1_555
H41 C22 1_555 1_555
H42 C22 1_555 1_555
H43 C22 1_555 1_555
O4 C12 1_555 1_555
H44 N3 1_555 1_555
O5 C23 1_555 1_555
C23 N5 1_555 1_555
N5 N6 1_555 1_555
N6 C24 1_555 1_555
C24 H45 1_555 1_555
C25 O5 1_555 1_555
H46 C25 1_555 1_555
H47 C25 1_555 1_555
C26 C24 1_555 1_555
H48 C26 1_555 1_555
C27 C26 1_555 1_555
H49 C27 1_555 1_555
H50 C27 1_555 1_555
H51 C27 1_555 1_555
C28 C26 1_555 1_555
H52 C28 1_555 1_555
H53 C28 1_555 1_555
H54 C28 1_555 1_555
C29 N6 1_555 1_555
H55 C29 1_555 1_555
H56 C29 1_555 1_555
C30 C29 1_555 1_555
C31 C30 1_555 1_555
H57 C31 1_555 1_555
H58 C31 1_555 1_555
H59 C31 1_555 1_555
C32 C30 1_555 1_555
H60 C32 1_555 1_555
H61 C32 1_555 1_555
H62 C32 1_555 1_555
C33 C30 1_555 1_555
H63 C33 1_555 1_555
H64 C33 1_555 1_555
H65 C33 1_555 1_555
O6 C23 1_555 1_555
H66 N5 1_555 1_555
O7 C34 1_555 1_555
C34 N7 1_555 1_555
N7 N8 1_555 1_555
N8 C35 1_555 1_555
C35 H67 1_555 1_555
C36 O7 1_555 1_555
H68 C36 1_555 1_555
H69 C36 1_555 1_555
C37 C35 1_555 1_555
H70 C37 1_555 1_555
C38 C37 1_555 1_555
H71 C38 1_555 1_555
H72 C38 1_555 1_555
H73 C38 1_555 1_555
C39 C37 1_555 1_555
H74 C39 1_555 1_555
H75 C39 1_555 1_555
H76 C39 1_555 1_555
C40 N8 1_555 1_555
H77 C40 1_555 1_555
H78 C40 1_555 1_555
C41 C40 1_555 1_555
C42 C41 1_555 1_555
H79 C42 1_555 1_555
H80 C42 1_555 1_555
H81 C42 1_555 1_555
C43 C41 1_555 1_555
H82 C43 1_555 1_555
H83 C43 1_555 1_555
H84 C43 1_555 1_555
C44 C41 1_555 1_555
H85 C44 1_555 1_555
H86 C44 1_555 1_555
H87 C44 1_555 1_555
O8 C34 1_555 1_555
H88 N7 1_555 1_555
O9 C45 1_555 1_555
C45 N9 1_555 1_555
N9 N10 1_555 1_555
N10 C46 1_555 1_555
C46 H89 1_555 1_555
C47 O9 1_555 1_555
H90 C47 1_555 1_555
H91 C47 1_555 1_555
C48 C46 1_555 1_555
H92 C48 1_555 1_555
C49 C48 1_555 1_555
H93 C49 1_555 1_555
H94 C49 1_555 1_555
H95 C49 1_555 1_555
C50 C48 1_555 1_555
H96 C50 1_555 1_555
H97 C50 1_555 1_555
H98 C50 1_555 1_555
C51 N10 1_555 1_555
H99 C51 1_555 1_555
H100 C51 1_555 1_555
C52 C51 1_555 1_555
C53 C52 1_555 1_555
H101 C53 1_555 1_555
H102 C53 1_555 1_555
H103 C53 1_555 1_555
C54 C52 1_555 1_555
H104 C54 1_555 1_555
H105 C54 1_555 1_555
H106 C54 1_555 1_555
C55 C52 1_555 1_555
H107 C55 1_555 1_555
H108 C55 1_555 1_555
H109 C55 1_555 1_555
O10 C45 1_555 1_555
H110 N9 1_555 1_555
C2 C3 1_555 1_555
C13 C14 1_555 1_555
C24 C25 1_555 1_555
C35 C36 1_555 1_555
C46 C47 1_555 1_555

#END
