
#######################################################################
#
#                 Cambridge Crystallographic Data Centre
#                                CCDC 
#
#######################################################################
#
# If this CIF has been generated from an entry in the Cambridge 
# Structural Database, then it will include bibliographic, chemical, 
# crystal, experimental, refinement or atomic coordinate data resulting 
# from the CCDC's data processing and validation procedures.
#
#######################################################################

data_WAFLUK
_chemical_formula_moiety         'C22 H24 O2 Si1'
_chemical_name_systematic        
2-(Trimethylsilylmethyl)-3-methoxy-4,5-diphenylcyclopent-2,4-dienone
_symmetry_cell_setting           monoclinic
_symmetry_space_group_name_H-M   'P 21/n'
_symmetry_Int_Tables_number      14
_space_group_name_Hall           '-P 2yn'
loop_
_symmetry_equiv_pos_site_id
_symmetry_equiv_pos_as_xyz
1 x,y,z
2 1/2-x,1/2+y,1/2-z
3 -x,-y,-z
4 1/2+x,1/2-y,1/2+z
_cell_length_a                   6.1680(10)
_cell_length_b                   19.302(4)
_cell_length_c                   16.877(3)
_cell_angle_alpha                90
_cell_angle_beta                 96.98(3)
_cell_angle_gamma                90
_cell_volume                     1994.4
_exptl_crystal_colour            'dark purple'
_chemical_melting_point          118-120deg.C
_cell_formula_units_Z            4
loop_
_atom_site_label
_atom_site_type_symbol
_atom_site_fract_x
_atom_site_fract_y
_atom_site_fract_z
Si1 Si 0.2008(3) 0.2971(1) 0.5468(1)
C1 C 0.2251(8) 0.1743(3) 0.6461(3)
C2 C 0.2033(8) 0.1062(3) 0.6307(3)
O1 O 0.0535(6) 0.0693(2) 0.5837(2)
C3 C 0.3780(8) 0.0634(3) 0.6759(3)
C4 C 0.5165(8) 0.1049(2) 0.7203(3)
C5 C 0.4286(9) 0.1778(3) 0.7044(3)
O2 O 0.5016(6) 0.2298(2) 0.7374(2)
C6 C -0.1205(10) 0.1027(3) 0.5361(4)
C7 C 0.1055(8) 0.2395(3) 0.6250(3)
C8 C 0.4987(10) 0.2964(4) 0.5538(5)
C9 C 0.1024(10) 0.3854(3) 0.5651(4)
C10 C 0.0811(12) 0.2705(3) 0.4466(4)
C11 C 0.3857(10) -0.0130(3) 0.6694(3)
C12 C 0.5652(11) -0.0442(3) 0.6456(4)
C13 C 0.5762(14) -0.1149(4) 0.6425(5)
C14 C 0.4151(18) -0.1543(4) 0.6638(5)
C15 C 0.2334(14) -0.1243(4) 0.6889(4)
C16 C 0.2195(10) -0.0535(3) 0.6906(3)
C17 C 0.7079(8) 0.0891(2) 0.7773(3)
C18 C 0.8860(9) 0.1328(3) 0.7867(3)
C19 C 1.0684(9) 0.1175(3) 0.8399(3)
C20 C 1.0703(10) 0.0585(4) 0.8858(3)
C21 C 0.8933(11) 0.0158(3) 0.8788(4)
C22 C 0.7120(9) 0.0306(3) 0.8256(3)
H1 H -0.2103 0.0684 0.5069
H2 H -0.0623 0.1335 0.4994
H3 H -0.2068 0.1286 0.5695
H4 H -0.0431 0.2271 0.6070
H5 H 0.1104 0.2664 0.6730
H6 H 0.5603 0.3103 0.6064
H7 H 0.5453 0.3278 0.5152
H8 H 0.5470 0.2504 0.5433
H9 H 0.1622 0.4003 0.6175
H10 H -0.0541 0.3850 0.5614
H11 H 0.1475 0.4166 0.5260
H12 H 0.1308 0.2247 0.4358
H13 H 0.1262 0.3022 0.4080
H14 H -0.0754 0.2706 0.4434
H15 H 0.6832 -0.0165 0.6309
H16 H 0.7022 -0.1366 0.6251
H17 H 0.4263 -0.2038 0.6613
H18 H 0.1183 -0.1526 0.7049
H19 H 0.0920 -0.0319 0.7070
H20 H 0.8834 0.1747 0.7559
H21 H 1.1929 0.1477 0.8447
H22 H 1.1965 0.0475 0.9226
H23 H 0.8950 -0.0250 0.9114
H24 H 0.5874 0.0005 0.8219
loop_
_geom_bond_atom_site_label_1
_geom_bond_atom_site_label_2
_geom_bond_site_symmetry_1
_geom_bond_site_symmetry_2
Si1 C7 1_555 1_555
C1 C2 1_555 1_555
C2 O1 1_555 1_555
O1 C6 1_555 1_555
C3 C2 1_555 1_555
C4 C3 1_555 1_555
C5 C1 1_555 1_555
O2 C5 1_555 1_555
C6 H1 1_555 1_555
C7 C1 1_555 1_555
C8 Si1 1_555 1_555
C9 Si1 1_555 1_555
C10 Si1 1_555 1_555
C11 C3 1_555 1_555
C12 C11 1_555 1_555
C13 C12 1_555 1_555
C14 C13 1_555 1_555
C15 C14 1_555 1_555
C16 C11 1_555 1_555
C17 C4 1_555 1_555
C18 C17 1_555 1_555
C19 C18 1_555 1_555
C20 C19 1_555 1_555
C21 C20 1_555 1_555
C22 C17 1_555 1_555
H2 C6 1_555 1_555
H3 C6 1_555 1_555
H4 C7 1_555 1_555
H5 C7 1_555 1_555
H6 C8 1_555 1_555
H7 C8 1_555 1_555
H8 C8 1_555 1_555
H9 C9 1_555 1_555
H10 C9 1_555 1_555
H11 C9 1_555 1_555
H12 C10 1_555 1_555
H13 C10 1_555 1_555
H14 C10 1_555 1_555
H15 C12 1_555 1_555
H16 C13 1_555 1_555
H17 C14 1_555 1_555
H18 C15 1_555 1_555
H19 C16 1_555 1_555
H20 C18 1_555 1_555
H21 C19 1_555 1_555
H22 C20 1_555 1_555
H23 C21 1_555 1_555
H24 C22 1_555 1_555
C4 C5 1_555 1_555
C15 C16 1_555 1_555
C21 C22 1_555 1_555

#END
