
#######################################################################
#
#                 Cambridge Crystallographic Data Centre
#                                CCDC 
#
#######################################################################
#
# If this CIF has been generated from an entry in the Cambridge 
# Structural Database, then it will include bibliographic, chemical, 
# crystal, experimental, refinement or atomic coordinate data resulting 
# from the CCDC's data processing and validation procedures.
#
#######################################################################

data_WAFMOI
_chemical_formula_moiety         'C22 H16 Cl1 N1'
_chemical_name_systematic        N-(4-chlorophenyl)-3-phenylnaphthalen-1-amine
_symmetry_cell_setting           triclinic
_symmetry_space_group_name_H-M   'P -1'
_symmetry_Int_Tables_number      2
_space_group_name_Hall           '-P 1'
loop_
_symmetry_equiv_pos_site_id
_symmetry_equiv_pos_as_xyz
1 x,y,z
2 -x,-y,-z
_cell_length_a                   4.961
_cell_length_b                   16.810
_cell_length_c                   21.337
_cell_angle_alpha                108.34
_cell_angle_beta                 96.71
_cell_angle_gamma                98.43
_cell_volume                     1645.4
_exptl_crystal_colour            yellow
_exptl_crystal_description       block
_cell_formula_units_Z            4
loop_
_atom_site_label
_atom_site_type_symbol
_atom_site_fract_x
_atom_site_fract_y
_atom_site_fract_z
Cl1 Cl 0.56425(13) -0.39567(4) 0.04190(3)
N1 N 0.4322(3) -0.07647(11) 0.24409(9)
H1 H 0.5083 -0.0690 0.2854
C1 C 0.1715(4) 0.08069(13) 0.17372(10)
C2 C 0.4644(4) -0.14942(13) 0.19444(10)
C3 C 0.2900(4) -0.01330(13) 0.23491(10)
C4 C 0.1376(4) 0.02487(12) 0.28573(9)
C5 C 0.0028(4) 0.09123(12) 0.27854(10)
C6 C 0.3044(4) 0.01451(13) 0.18132(10)
H2 H 0.4068 -0.0115 0.1482
C7 C 0.0229(4) 0.11772(13) 0.22208(10)
H3 H -0.0682 0.1620 0.2175
C8 C 0.1996(4) 0.11126(13) 0.11596(10)
C9 C 0.6714(4) -0.19269(13) 0.20854(10)
H4 H 0.7945 -0.1696 0.2503
C10 C 0.5212(4) -0.30202(13) 0.10127(10)
C11 C 0.2869(4) -0.18481(14) 0.13280(10)
H5 H 0.1443 -0.1565 0.1226
C12 C 0.6985(4) -0.26857(13) 0.16251(10)
H6 H 0.8383 -0.2978 0.1727
C13 C 0.3145(4) -0.26037(14) 0.08629(11)
H7 H 0.1928 -0.2836 0.0444
C14 C 0.1138(4) -0.00111(15) 0.34264(10)
H8 H 0.2023 -0.0455 0.3482
C15 C -0.1502(5) 0.12905(14) 0.32820(11)
H9 H -0.2412 0.1735 0.3239
C16 C -0.0361(5) 0.03754(15) 0.38926(11)
H10 H -0.0498 0.0198 0.4271
C17 C -0.1691(5) 0.10261(16) 0.38215(11)
H11 H -0.2729 0.1286 0.4149
C18 C 0.2517(4) 0.17070(17) 0.00866(13)
H12 H 0.2716 0.1919 -0.0272
C19 C 0.2222(9) 0.1939(3) 0.1226(2)
H13 H 0.2221 0.2337 0.1656
C20 C 0.2456(9) 0.2237(3) 0.0698(3)
H14 H 0.2577 0.2830 0.0771
C21 C 0.2273(9) 0.0808(3) -0.0019(2)
H15 H 0.2290 0.0418 -0.0451
C22 C 0.2013(8) 0.0516(3) 0.0522(2)
H16 H 0.1849 -0.0075 0.0461
Cl2 Cl 1.41847(12) 0.89572(4) 0.45815(3)
N2 N 0.7646(3) 0.57649(11) 0.25580(8)
H22 H 0.7922 0.5691 0.2145
C27 C 0.9191(4) 0.64935(13) 0.30534(10)
C28 C 0.3266(4) 0.47514(13) 0.21406(10)
C29 C 0.5679(4) 0.51296(13) 0.26462(10)
C30 C 0.4162(4) 0.41935(13) 0.32624(10)
C31 C 0.1828(4) 0.38240(13) 0.27773(10)
H23 H 0.0520 0.3382 0.2823
C32 C 0.4724(4) 0.38906(13) 0.38393(10)
C33 C 0.6082(4) 0.48559(13) 0.31858(10)
H24 H 0.7693 0.5117 0.3518
C34 C 1.2211(4) 0.80193(13) 0.39840(10)
C35 C 0.8390(4) 0.68471(14) 0.36743(10)
H25 H 0.6802 0.6561 0.3781
C36 C 1.3038(4) 0.76881(13) 0.33773(11)
H26 H 1.4629 0.7981 0.3277
C37 C 0.9883(4) 0.76047(14) 0.41322(10)
H27 H 0.9312 0.7842 0.4550
C38 C 0.1328(4) 0.40867(13) 0.22121(10)
C39 C 1.1552(4) 0.69293(13) 0.29142(10)
H28 H 1.2137 0.6700 0.2497
C40 C 0.2727(4) 0.50096(14) 0.15757(10)
H29 H 0.4009 0.5451 0.1521
C41 C -0.1083(4) 0.37093(14) 0.17171(11)
H30 H -0.2398 0.3267 0.1761
C42 C 0.0377(5) 0.46294(15) 0.11072(11)
H31 H 0.0037 0.4811 0.0731
C43 C -0.1537(5) 0.39733(16) 0.11790(11)
H32 H -0.3157 0.3712 0.0850
C44 C 0.5715(5) 0.32961(17) 0.49132(13)
H33 H 0.6049 0.3081 0.5271
C45 C 0.4048(8) 0.3049(3) 0.3766(2)
H34 H 0.3230 0.2648 0.3337
C46 C 0.4524(9) 0.2765(3) 0.4302(3)
H35 H 0.3988 0.2173 0.4234
C47 C 0.5987(8) 0.4482(3) 0.4484(2)
H36 H 0.6489 0.5072 0.4546
C48 C 0.6491(9) 0.4193(3) 0.5029(2)
H37 H 0.7323 0.4582 0.5462
H17? H 0.2656 0.1873 -0.0297
C23? C 0.4549(9) 0.1378(4) 0.0331(2)
H18? H 0.6180 0.1354 0.0138
C24? C 0.4292(9) 0.1074(3) 0.0861(2)
H19? H 0.5738 0.0836 0.1019
C25? C -0.0064(9) 0.1510(3) 0.0923(2)
H20? H -0.1646 0.1573 0.1132
C26? C 0.0208(11) 0.1803(3) 0.0398(3)
H21? H -0.1170 0.2070 0.0247
H38? H 0.6060 0.3133 0.5298
C49? C 0.7855(10) 0.3615(4) 0.4674(3)
H39? H 0.9701 0.3632 0.4865
C50? C 0.7349(9) 0.3918(3) 0.4146(2)
H40? H 0.8882 0.4155 0.3990
C51? C 0.2508(9) 0.3496(3) 0.4078(2)
H41? H 0.0657 0.3436 0.3868
C52? C 0.2988(10) 0.3201(3) 0.4603(2)
H42? H 0.1491 0.2937 0.4754
loop_
_geom_bond_atom_site_label_1
_geom_bond_atom_site_label_2
_geom_bond_site_symmetry_1
_geom_bond_site_symmetry_2
Cl1 C10 1_555 1_555
N1 H1 1_555 1_555
C1 C6 1_555 1_555
C2 N1 1_555 1_555
C3 N1 1_555 1_555
C4 C3 1_555 1_555
C5 C4 1_555 1_555
C6 C3 1_555 1_555
H2 C6 1_555 1_555
C7 C1 1_555 1_555
H3 C7 1_555 1_555
C8 C1 1_555 1_555
C9 C2 1_555 1_555
H4 C9 1_555 1_555
C10 C12 1_555 1_555
C11 C2 1_555 1_555
H5 C11 1_555 1_555
C12 C9 1_555 1_555
H6 C12 1_555 1_555
C13 C10 1_555 1_555
H7 C13 1_555 1_555
C14 C4 1_555 1_555
H8 C14 1_555 1_555
C15 C5 1_555 1_555
H9 C15 1_555 1_555
C16 C14 1_555 1_555
H10 C16 1_555 1_555
C17 C15 1_555 1_555
H11 C17 1_555 1_555
C18 H12 1_555 1_555
C19 C8 1_555 1_555
H13 C19 1_555 1_555
C20 C18 1_555 1_555
H14 C20 1_555 1_555
C21 C18 1_555 1_555
H15 C21 1_555 1_555
C22 C8 1_555 1_555
H16 C22 1_555 1_555
Cl2 C34 1_555 1_555
N2 H22 1_555 1_555
C27 N2 1_555 1_555
C28 C29 1_555 1_555
C29 N2 1_555 1_555
C30 C31 1_555 1_555
C31 H23 1_555 1_555
C32 C30 1_555 1_555
C33 C29 1_555 1_555
H24 C33 1_555 1_555
C34 C36 1_555 1_555
C35 C27 1_555 1_555
H25 C35 1_555 1_555
C36 H26 1_555 1_555
C37 C34 1_555 1_555
H27 C37 1_555 1_555
C38 C28 1_555 1_555
C39 C27 1_555 1_555
H28 C39 1_555 1_555
C40 C28 1_555 1_555
H29 C40 1_555 1_555
C41 C38 1_555 1_555
H30 C41 1_555 1_555
C42 C40 1_555 1_555
H31 C42 1_555 1_555
C43 C41 1_555 1_555
H32 C43 1_555 1_555
C44 H33 1_555 1_555
C45 C32 1_555 1_555
H34 C45 1_555 1_555
C46 C44 1_555 1_555
H35 C46 1_555 1_555
C47 C32 1_555 1_555
H36 C47 1_555 1_555
C48 C44 1_555 1_555
H37 C48 1_555 1_555
C5 C7 1_555 1_555
C11 C13 1_555 1_555
C16 C17 1_555 1_555
C19 C20 1_555 1_555
C21 C22 1_555 1_555
C30 C33 1_555 1_555
C31 C38 1_555 1_555
C35 C37 1_555 1_555
C36 C39 1_555 1_555
C42 C43 1_555 1_555
C45 C46 1_555 1_555
C47 C48 1_555 1_555

#END
