
#######################################################################
#
#                 Cambridge Crystallographic Data Centre
#                                CCDC 
#
#######################################################################
#
# If this CIF has been generated from an entry in the Cambridge 
# Structural Database, then it will include bibliographic, chemical, 
# crystal, experimental, refinement or atomic coordinate data resulting 
# from the CCDC's data processing and validation procedures.
#
#######################################################################

data_WAFMIB
_chemical_name_common            (2-Aminophenyl)(p-tolyl)methanone
_chemical_formula_moiety         'C14 H13 N1 O1'
_chemical_name_systematic        (2-Aminophenyl)(4-methylphenyl)methanone
_symmetry_cell_setting           orthorhombic
_symmetry_space_group_name_H-M   'P 21 21 21'
_symmetry_Int_Tables_number      19
_space_group_name_Hall           'P 2ac 2ab'
loop_
_symmetry_equiv_pos_site_id
_symmetry_equiv_pos_as_xyz
1 x,y,z
2 1/2-x,-y,1/2+z
3 1/2+x,1/2-y,-z
4 -x,1/2+y,1/2-z
_cell_length_a                   7.7720(16)
_cell_length_b                   10.490(2)
_cell_length_c                   14.114(3)
_cell_angle_alpha                90
_cell_angle_beta                 90
_cell_angle_gamma                90
_cell_volume                     1150.69
_exptl_crystal_colour            brown
_exptl_crystal_description       plate
_cell_formula_units_Z            4
loop_
_atom_site_label
_atom_site_type_symbol
_atom_site_fract_x
_atom_site_fract_y
_atom_site_fract_z
O1 O -0.0723(5) 0.48772(18) 0.66689(13)
N1 N 0.0516(5) 0.2583(3) 0.72595(18)
C1 C -0.0893(6) 0.8175(3) 0.2825(2)
C2 C -0.0848(4) 0.7203(2) 0.36079(19)
C3 C -0.1864(4) 0.7310(2) 0.4405(2)
C4 C -0.1798(4) 0.6431(2) 0.51329(19)
C5 C -0.0737(3) 0.5373(2) 0.50607(16)
C6 C 0.0293(3) 0.5256(2) 0.42633(17)
C7 C 0.0251(4) 0.6161(2) 0.35603(17)
C8 C -0.0684(4) 0.4450(2) 0.58631(17)
C9 C -0.0553(3) 0.3074(2) 0.56775(17)
C10 C 0.0012(4) 0.2205(3) 0.63780(18)
C11 C 0.0141(4) 0.0914(3) 0.6133(2)
C12 C -0.0327(4) 0.0487(2) 0.5261(2)
C13 C -0.0940(4) 0.1319(2) 0.45806(19)
C14 C -0.1042(3) 0.2588(3) 0.47965(16)
H1 H 0.065(5) 0.203(3) 0.766(2)
H2 H -0.17140 0.88270 0.29780
H3 H -0.12190 0.77690 0.22430
H4 H 0.02260 0.85510 0.27550
H5 H 0.029(5) 0.336(3) 0.743(2)
H6 H -0.26180 0.79950 0.44540
H7 H -0.24660 0.65500 0.56720
H8 H 0.10210 0.45570 0.42040
H9 H 0.09750 0.60730 0.30400
H10 H 0.05570 0.03360 0.65770
H11 H -0.02340 -0.03760 0.51200
H12 H -0.12750 0.10230 0.39880
H13 H -0.14530 0.31490 0.43390
loop_
_geom_bond_atom_site_label_1
_geom_bond_atom_site_label_2
_geom_bond_site_symmetry_1
_geom_bond_site_symmetry_2
O1 C8 1_555 1_555
N1 C10 1_555 1_555
C1 C2 1_555 1_555
C2 C3 1_555 1_555
C3 C4 1_555 1_555
C4 C5 1_555 1_555
C5 C6 1_555 1_555
C6 C7 1_555 1_555
C7 C2 1_555 1_555
C8 C5 1_555 1_555
C9 C8 1_555 1_555
C10 C9 1_555 1_555
C11 C10 1_555 1_555
C12 C11 1_555 1_555
C13 C12 1_555 1_555
C14 C9 1_555 1_555
H1 N1 1_555 1_555
H2 C1 1_555 1_555
H3 C1 1_555 1_555
H4 C1 1_555 1_555
H5 N1 1_555 1_555
H6 C3 1_555 1_555
H7 C4 1_555 1_555
H8 C6 1_555 1_555
H9 C7 1_555 1_555
H10 C11 1_555 1_555
H11 C12 1_555 1_555
H12 C13 1_555 1_555
H13 C14 1_555 1_555
C13 C14 1_555 1_555

#END
