
#######################################################################
#
#                 Cambridge Crystallographic Data Centre
#                                CCDC 
#
#######################################################################
#
# If this CIF has been generated from an entry in the Cambridge 
# Structural Database, then it will include bibliographic, chemical, 
# crystal, experimental, refinement or atomic coordinate data resulting 
# from the CCDC's data processing and validation procedures.
#
#######################################################################

data_WAFPIE
_chemical_name_common            
4,4'-(Iminobis(ethane-2,1-diylimino(phenylmethylylidene)))bis(5-methyl-2-phenyl-2,4-dihydro-3H-pyrazol-3-one)
_chemical_formula_moiety         'C38 H37 N7 O2'
_chemical_name_systematic        
(E,E)-3,3'-Dimethyl-1,1'-diphenyl-4,4'-([3-azapentane-1,5-diylbis(azanediyl)]bis(phenylmethylidyne))di-1H-pyrazol-5(4H)-one
_symmetry_cell_setting           monoclinic
_symmetry_space_group_name_H-M   'C 2/c'
_symmetry_Int_Tables_number      15
_space_group_name_Hall           '-C 2yn'
loop_
_symmetry_equiv_pos_site_id
_symmetry_equiv_pos_as_xyz
1 x,y,z
2 -x,y,1/2-z
3 1/2+x,1/2+y,z
4 1/2-x,1/2+y,1/2-z
5 -x,-y,-z
6 x,-y,1/2+z
7 1/2-x,1/2-y,-z
8 1/2+x,1/2-y,1/2+z
_cell_length_a                   20.3219(8)
_cell_length_b                   8.1990(2)
_cell_length_c                   20.5468(6)
_cell_angle_alpha                90
_cell_angle_beta                 106.748(2)
_cell_angle_gamma                90
_cell_volume                     3278.27
_exptl_crystal_colour            yellow
_exptl_crystal_description       block
_cell_formula_units_Z            4
loop_
_atom_site_label
_atom_site_type_symbol
_atom_site_fract_x
_atom_site_fract_y
_atom_site_fract_z
O1 O 0.06573(8) 0.23883(18) 0.35444(8)
N1 N 0.14838(9) 0.0606(2) 0.41990(8)
C1 C 0.12657(11) 0.1980(3) 0.38051(10)
C2 C 0.25215(10) 0.4844(3) 0.32781(11)
N2 N 0.21985(10) 0.0439(3) 0.43823(10)
N3 N 0.12874(9) 0.4629(2) 0.29494(10)
H1 H 0.0927 0.4145 0.2992
C3 C 0.18821(10) 0.4066(3) 0.33364(11)
N4 N 0.0000 0.6106(3) 0.2500
H2 H 0.0000 0.5057 0.2500
C4 C 0.18835(10) 0.2749(3) 0.37639(10)
C5 C 0.10856(13) -0.0732(3) 0.42954(10)
C6 C 0.27276(12) 0.4657(3) 0.27000(11)
H3 H 0.2456 0.4070 0.2333
C7 C 0.24330(11) 0.1713(3) 0.41344(10)
C8 C 0.06028(11) 0.7026(3) 0.25289(12)
H4 H 0.0749 0.7608 0.2958
H5 H 0.0500 0.7825 0.2165
C9 C 0.37336(13) 0.6229(3) 0.32006(17)
H6 H 0.4144 0.6685 0.3174
C10 C 0.29269(12) 0.5747(3) 0.38196(12)
H7 H 0.2791 0.5876 0.4212
C11 C 0.33348(14) 0.5339(3) 0.26650(14)
H8 H 0.3476 0.5196 0.2277
C12 C 0.04144(14) -0.0517(3) 0.42877(12)
H9 H 0.0224 0.0524 0.4239
C13 C 0.11649(12) 0.5955(3) 0.24635(13)
H10 H 0.1048 0.5511 0.2007
H11 H 0.1582 0.6592 0.2535
C14 C 0.35261(13) 0.6447(3) 0.37766(15)
H12 H 0.3792 0.7068 0.4136
C15 C 0.31871(12) 0.1867(4) 0.42487(13)
H13 H 0.3412 0.0905 0.4472
H14 H 0.3354 0.2803 0.4528
H15 H 0.3281 0.1991 0.3820
C16 C 0.13730(17) -0.2275(3) 0.43868(12)
H16 H 0.1832 -0.2428 0.4409
C17 C 0.0968(2) -0.3578(4) 0.44439(14)
H17 H 0.1156 -0.4621 0.4496
C18 C 0.00213(17) -0.1842(4) 0.43516(14)
H18 H -0.0435 -0.1692 0.4344
C19 C 0.0297(3) -0.3380(5) 0.44262(15)
H19 H 0.0030 -0.4276 0.4464
O1A O -0.06573(8) 0.23883(18) 0.14556(8)
N1A N -0.14838(9) 0.0606(2) 0.08010(8)
C1A C -0.12657(11) 0.1980(3) 0.11949(10)
C2A C -0.25215(10) 0.4844(3) 0.17219(11)
N2A N -0.21985(10) 0.0439(3) 0.06177(10)
N3A N -0.12874(9) 0.4629(2) 0.20506(10)
H1A H -0.0927 0.4145 0.2008
C3A C -0.18821(10) 0.4066(3) 0.16636(11)
C4A C -0.18835(10) 0.2749(3) 0.12361(10)
C5A C -0.10856(13) -0.0732(3) 0.07046(10)
C6A C -0.27276(12) 0.4657(3) 0.23000(11)
H3A H -0.2456 0.4070 0.2667
C7A C -0.24330(11) 0.1713(3) 0.08656(10)
C8A C -0.06028(11) 0.7026(3) 0.24711(12)
H4A H -0.0749 0.7608 0.2042
H5A H -0.0500 0.7825 0.2835
C9A C -0.37336(13) 0.6229(3) 0.17994(17)
H6A H -0.4144 0.6685 0.1826
C10A C -0.29269(12) 0.5747(3) 0.11804(12)
H7A H -0.2791 0.5876 0.0788
C11A C -0.33348(14) 0.5339(3) 0.23350(14)
H8A H -0.3476 0.5196 0.2723
C12A C -0.04144(14) -0.0517(3) 0.07123(12)
H9A H -0.0224 0.0524 0.0761
C13A C -0.11649(12) 0.5955(3) 0.25365(13)
H10A H -0.1048 0.5511 0.2993
H11A H -0.1582 0.6592 0.2465
C14A C -0.35261(13) 0.6447(3) 0.12234(15)
H12A H -0.3792 0.7068 0.0864
C15A C -0.31871(12) 0.1867(4) 0.07513(13)
H13A H -0.3412 0.0905 0.0528
H14A H -0.3354 0.2803 0.0472
H15A H -0.3281 0.1991 0.1180
C16A C -0.13730(17) -0.2275(3) 0.06132(12)
H16A H -0.1832 -0.2428 0.0591
C17A C -0.0968(2) -0.3578(4) 0.05561(14)
H17A H -0.1156 -0.4621 0.0504
C18A C -0.00213(17) -0.1842(4) 0.06484(14)
H18A H 0.0435 -0.1692 0.0656
C19A C -0.0297(3) -0.3380(5) 0.05738(15)
H19A H -0.0030 -0.4276 0.0536
loop_
_geom_bond_atom_site_label_1
_geom_bond_atom_site_label_2
_geom_bond_site_symmetry_1
_geom_bond_site_symmetry_2
O1 C1 1_555 1_555
N1 C1 1_555 1_555
C1 C4 1_555 1_555
C2 C3 1_555 1_555
N2 N1 1_555 1_555
N3 H1 1_555 1_555
C3 N3 1_555 1_555
N4 H2 1_555 1_555
C4 C3 1_555 1_555
C5 N1 1_555 1_555
C6 C2 1_555 1_555
H3 C6 1_555 1_555
C7 N2 1_555 1_555
C8 N4 1_555 1_555
H4 C8 1_555 1_555
H5 C8 1_555 1_555
C9 H6 1_555 1_555
C10 C2 1_555 1_555
H7 C10 1_555 1_555
C11 C6 1_555 1_555
H8 C11 1_555 1_555
C12 C5 1_555 1_555
H9 C12 1_555 1_555
C13 N3 1_555 1_555
H10 C13 1_555 1_555
H11 C13 1_555 1_555
C14 C9 1_555 1_555
H12 C14 1_555 1_555
C15 C7 1_555 1_555
H13 C15 1_555 1_555
H14 C15 1_555 1_555
H15 C15 1_555 1_555
C16 C5 1_555 1_555
H16 C16 1_555 1_555
C17 C16 1_555 1_555
H17 C17 1_555 1_555
C18 C12 1_555 1_555
H18 C18 1_555 1_555
C19 C17 1_555 1_555
H19 C19 1_555 1_555
O1A C1A 1_555 1_555
N1A C1A 1_555 1_555
C1A C4A 1_555 1_555
C2A C3A 1_555 1_555
N2A N1A 1_555 1_555
N3A H1A 1_555 1_555
C3A N3A 1_555 1_555
C4A C3A 1_555 1_555
C5A N1A 1_555 1_555
C6A C2A 1_555 1_555
H3A C6A 1_555 1_555
C7A N2A 1_555 1_555
C8A N4 1_555 1_555
H4A C8A 1_555 1_555
H5A C8A 1_555 1_555
C9A H6A 1_555 1_555
C10A C2A 1_555 1_555
H7A C10A 1_555 1_555
C11A C6A 1_555 1_555
H8A C11A 1_555 1_555
C12A C5A 1_555 1_555
H9A C12A 1_555 1_555
C13A N3A 1_555 1_555
H10A C13A 1_555 1_555
H11A C13A 1_555 1_555
C14A C9A 1_555 1_555
H12A C14A 1_555 1_555
C15A C7A 1_555 1_555
H13A C15A 1_555 1_555
H14A C15A 1_555 1_555
H15A C15A 1_555 1_555
C16A C5A 1_555 1_555
H16A C16A 1_555 1_555
C17A C16A 1_555 1_555
H17A C17A 1_555 1_555
C18A C12A 1_555 1_555
H18A C18A 1_555 1_555
C19A C17A 1_555 1_555
H19A C19A 1_555 1_555
C4 C7 1_555 1_555
C8 C13 1_555 1_555
C9 C11 1_555 1_555
C10 C14 1_555 1_555
C18 C19 1_555 1_555
C4A C7A 1_555 1_555
C8A C13A 1_555 1_555
C9A C11A 1_555 1_555
C10A C14A 1_555 1_555
C18A C19A 1_555 1_555

#END
