
#######################################################################
#
#                 Cambridge Crystallographic Data Centre
#                                CCDC 
#
#######################################################################
#
# If this CIF has been generated from an entry in the Cambridge 
# Structural Database, then it will include bibliographic, chemical, 
# crystal, experimental, refinement or atomic coordinate data resulting 
# from the CCDC's data processing and validation procedures.
#
#######################################################################

data_WAFQUQ
_chemical_formula_moiety         'C23 H18 N2 O2'
_chemical_name_systematic        
(1R*,3S*)-1,3-bis(3-Formylindol-1-yl)cyclopent-4-ene
_symmetry_cell_setting           tetragonal
_symmetry_space_group_name_H-M   'P 41 21 2'
_symmetry_Int_Tables_number      92
_space_group_name_Hall           'P 4abw 2nw'
loop_
_symmetry_equiv_pos_site_id
_symmetry_equiv_pos_as_xyz
1 x,y,z
2 1/2-y,1/2+x,1/4+z
3 -x,-y,1/2+z
4 1/2+y,1/2-x,3/4+z
5 1/2-x,1/2+y,1/4-z
6 y,x,-z
7 1/2+x,1/2-y,3/4-z
8 -y,-x,1/2-z
_cell_length_a                   12.05800(10)
_cell_length_b                   12.05800(10)
_cell_length_c                   23.7500(2)
_cell_angle_alpha                90
_cell_angle_beta                 90
_cell_angle_gamma                90
_cell_volume                     3453.14
_exptl_crystal_colour            colorless
_exptl_crystal_description       needle
_cell_formula_units_Z            8
loop_
_atom_site_label
_atom_site_type_symbol
_atom_site_fract_x
_atom_site_fract_y
_atom_site_fract_z
C1 C 0.3188(3) 0.1393(3) 0.03958(14)
N1 N 0.6005(2) -0.0980(2) -0.02023(12)
N2 N 0.3763(2) 0.1179(3) -0.00962(12)
C2 C 0.3927(3) -0.0880(3) -0.02344(15)
H1 H 0.3360 -0.1458 -0.0300
H2 H 0.4062 -0.0818 0.0176
C3 C 0.7294(3) -0.1232(3) 0.04837(14)
C4 C 0.6319(3) -0.1672(3) 0.02441(14)
C5 C 0.5825(3) -0.2626(3) 0.04436(15)
H3 H 0.5174 -0.2915 0.0273
C6 C 0.2286(3) 0.0821(3) 0.06219(16)
H4 H 0.1966 0.0199 0.0437
C7 C 0.1879(4) 0.1214(4) 0.11351(17)
H5 H 0.1268 0.0848 0.1305
C8 C 0.3544(3) 0.0237(3) -0.04759(14)
H6 H 0.2734 0.0203 -0.0565
C9 C 0.3228(4) 0.2691(3) 0.11712(16)
H7 H 0.3538 0.3316 0.1356
C10 C 0.5012(3) -0.1168(3) -0.05471(14)
H8 H 0.4990 -0.1959 -0.0673
C11 C 0.8522(4) 0.0448(4) 0.0254(2)
H9 H 0.9058 0.0213 0.0522
C12 C 0.7772(3) -0.1781(4) 0.09444(15)
H10 H 0.8427 -0.1503 0.1116
C13 C 0.7559(3) -0.0247(3) 0.01664(16)
C14 C 0.4196(4) 0.0340(4) -0.10115(15)
H11 H 0.4059 0.0888 -0.1291
C15 C 0.6747(3) -0.0134(3) -0.02371(16)
H12 H 0.6710 0.0453 -0.0503
C16 C 0.4983(4) -0.0420(3) -0.10493(15)
H13 H 0.5475 -0.0484 -0.1360
C17 C 0.5266(4) 0.3618(4) 0.0347(2)
H14 H 0.5819 0.3710 0.0066
O1 O 0.5225(3) 0.4320(3) 0.07244(17)
C18 C 0.7274(4) -0.2728(4) 0.11419(16)
H15 H 0.7597 -0.3107 0.1452
C19 C 0.3654(3) 0.2322(3) 0.06604(15)
C20 C 0.6308(4) -0.3149(4) 0.09006(16)
H16 H 0.5979 -0.3801 0.1051
C21 C 0.4587(3) 0.1965(3) -0.01485(16)
H17 H 0.5102 0.2005 -0.0450
O2 O 0.8680(3) 0.1276(3) 0.00157(16)
C22 C 0.2344(4) 0.2123(4) 0.14024(18)
H18 H 0.2047 0.2361 0.1753
C23 C 0.4552(4) 0.2678(3) 0.02970(16)
loop_
_geom_bond_atom_site_label_1
_geom_bond_atom_site_label_2
_geom_bond_site_symmetry_1
_geom_bond_site_symmetry_2
C1 N2 1_555 1_555
N1 C4 1_555 1_555
N2 C8 1_555 1_555
C2 H1 1_555 1_555
H2 C2 1_555 1_555
C3 C4 1_555 1_555
C4 C5 1_555 1_555
C5 H3 1_555 1_555
C6 C1 1_555 1_555
H4 C6 1_555 1_555
C7 C6 1_555 1_555
H5 C7 1_555 1_555
C8 C2 1_555 1_555
H6 C8 1_555 1_555
C9 H7 1_555 1_555
C10 N1 1_555 1_555
H8 C10 1_555 1_555
C11 H9 1_555 1_555
C12 C3 1_555 1_555
H10 C12 1_555 1_555
C13 C3 1_555 1_555
C14 C8 1_555 1_555
H11 C14 1_555 1_555
C15 N1 1_555 1_555
H12 C15 1_555 1_555
C16 C10 1_555 1_555
H13 C16 1_555 1_555
C17 H14 1_555 1_555
O1 C17 1_555 1_555
C18 C12 1_555 1_555
H15 C18 1_555 1_555
C19 C1 1_555 1_555
C20 C5 1_555 1_555
H16 C20 1_555 1_555
C21 N2 1_555 1_555
H17 C21 1_555 1_555
O2 C11 1_555 1_555
C22 C7 1_555 1_555
H18 C22 1_555 1_555
C23 C17 1_555 1_555
C2 C10 1_555 1_555
C9 C22 1_555 1_555
C9 C19 1_555 1_555
C11 C13 1_555 1_555
C13 C15 1_555 1_555
C14 C16 1_555 1_555
C18 C20 1_555 1_555
C19 C23 1_555 1_555
C21 C23 1_555 1_555

#END
