
#######################################################################
#
#                 Cambridge Crystallographic Data Centre
#                                CCDC 
#
#######################################################################
#
# If this CIF has been generated from an entry in the Cambridge 
# Structural Database, then it will include bibliographic, chemical, 
# crystal, experimental, refinement or atomic coordinate data resulting 
# from the CCDC's data processing and validation procedures.
#
#######################################################################

data_WAFQOM
_chemical_formula_moiety         'C16 H17 N1 O4'
_chemical_name_systematic        
4a-hydroxy-5-methoxy-8,9-dimethyl-1,4a,5,10b-tetrahydrophenanthridine-2,6-dione
_symmetry_cell_setting           triclinic
_symmetry_space_group_name_H-M   'P -1'
_symmetry_Int_Tables_number      2
_space_group_name_Hall           '-P 1'
loop_
_symmetry_equiv_pos_site_id
_symmetry_equiv_pos_as_xyz
1 x,y,z
2 -x,-y,-z
_cell_length_a                   7.6471(8)
_cell_length_b                   10.1457(11)
_cell_length_c                   10.4036(11)
_cell_angle_alpha                108.059(2)
_cell_angle_beta                 102.095(2)
_cell_angle_gamma                102.883(2)
_cell_volume                     713.473
_exptl_crystal_colour            colorless
_exptl_crystal_description       block
_cell_formula_units_Z            2
loop_
_atom_site_label
_atom_site_type_symbol
_atom_site_fract_x
_atom_site_fract_y
_atom_site_fract_z
O1 O 0.2525(2) 0.22516(16) 0.56179(17)
O2 O -0.0506(2) 0.04463(15) 0.35854(16)
O3 O -0.2566(2) 0.07331(16) 0.57818(16)
O4 O -0.5849(2) 0.3279(2) 0.2689(2)
N1 N -0.0607(2) 0.17172(18) 0.45805(18)
C1 C 0.0462(4) 0.7335(3) 1.0121(3)
H1 H -0.0828 0.7317 0.9928
H2 H 0.1224 0.8232 1.0132
H3 H 0.0877 0.7263 1.1027
C2 C 0.0642(4) 0.6067(3) 0.8985(2)
C3 C 0.2387(3) 0.5826(2) 0.9003(2)
C4 C 0.2458(3) 0.4640(2) 0.7924(2)
H4 H 0.3605 0.4468 0.7936
C5 C 0.0856(3) 0.3707(2) 0.6825(2)
C6 C -0.0885(3) 0.3936(2) 0.6800(2)
C7 C -0.0955(3) 0.5120(2) 0.7887(2)
H5 H -0.2106 0.5282 0.7878
C8 C 0.4162(4) 0.6849(3) 1.0167(3)
H6 H 0.5213 0.6523 1.0012
H7 H 0.4033 0.6860 1.1068
H8 H 0.4366 0.7815 1.0158
C9 C 0.1034(3) 0.2493(2) 0.5666(2)
C10 C -0.0259(4) 0.0728(3) 0.2362(3)
H9 H -0.0193 -0.0134 0.1679
H10 H 0.0885 0.1508 0.2630
H11 H -0.1304 0.0999 0.1955
C11 C -0.2633(3) 0.2980(2) 0.5586(2)
H12 H -0.3690 0.2841 0.5976
C12 C -0.2452(3) 0.1481(2) 0.4855(2)
C13 C -0.3967(3) 0.0627(2) 0.3461(2)
H13 H -0.4178 -0.0373 0.3063
C14 C -0.5022(3) 0.1211(3) 0.2763(3)
H14 H -0.5957 0.0605 0.1920
C15 C -0.4759(3) 0.2776(3) 0.3276(3)
C16 C -0.3067(3) 0.3716(2) 0.4530(2)
H15 H -0.3280 0.4624 0.5010
H16 H -0.1984 0.3948 0.4200
loop_
_geom_bond_atom_site_label_1
_geom_bond_atom_site_label_2
_geom_bond_site_symmetry_1
_geom_bond_site_symmetry_2
O1 C9 1_555 1_555
O2 N1 1_555 1_555
O3 C12 1_555 1_555
O4 C15 1_555 1_555
N1 C9 1_555 1_555
C1 H1 1_555 1_555
H2 C1 1_555 1_555
H3 C1 1_555 1_555
C2 C1 1_555 1_555
C3 C2 1_555 1_555
C4 C3 1_555 1_555
H4 C4 1_555 1_555
C5 C4 1_555 1_555
C6 C5 1_555 1_555
C7 C2 1_555 1_555
H5 C7 1_555 1_555
C8 C3 1_555 1_555
H6 C8 1_555 1_555
H7 C8 1_555 1_555
H8 C8 1_555 1_555
C9 C5 1_555 1_555
C10 O2 1_555 1_555
H9 C10 1_555 1_555
H10 C10 1_555 1_555
H11 C10 1_555 1_555
C11 C6 1_555 1_555
H12 C11 1_555 1_555
C12 N1 1_555 1_555
C13 C12 1_555 1_555
H13 C13 1_555 1_555
C14 C13 1_555 1_555
H14 C14 1_555 1_555
C15 C14 1_555 1_555
C16 C11 1_555 1_555
H15 C16 1_555 1_555
H16 C16 1_555 1_555
C6 C7 1_555 1_555
C11 C12 1_555 1_555
C15 C16 1_555 1_555

#END
