
#######################################################################
#
#                 Cambridge Crystallographic Data Centre
#                                CCDC 
#
#######################################################################
#
# If this CIF has been generated from an entry in the Cambridge 
# Structural Database, then it will include bibliographic, chemical, 
# crystal, experimental, refinement or atomic coordinate data resulting 
# from the CCDC's data processing and validation procedures.
#
#######################################################################

data_WAFRON
_chemical_formula_moiety         'C16 H13 N1 O2'
_chemical_name_systematic        2-(2-methoxybenzoyl)-6-methylbenzonitrile
_symmetry_cell_setting           triclinic
_symmetry_space_group_name_H-M   'P -1'
_symmetry_Int_Tables_number      2
_space_group_name_Hall           '-P 1'
loop_
_symmetry_equiv_pos_site_id
_symmetry_equiv_pos_as_xyz
1 x,y,z
2 -x,-y,-z
_cell_length_a                   7.9139(5)
_cell_length_b                   8.2369(5)
_cell_length_c                   11.5044(8)
_cell_angle_alpha                76.314(6)
_cell_angle_beta                 85.795(6)
_cell_angle_gamma                62.838(6)
_cell_volume                     647.757
_exptl_crystal_colour            yellow
_exptl_crystal_description       block
_cell_formula_units_Z            2
loop_
_atom_site_label
_atom_site_type_symbol
_atom_site_fract_x
_atom_site_fract_y
_atom_site_fract_z
C1 C -0.2836(3) 0.6113(3) 0.10443(18)
H1 H -0.4053 0.6920 0.0712
C2 C -0.1532(2) 0.6804(3) 0.10323(16)
C3 C 0.0302(2) 0.5537(3) 0.15194(15)
C4 C 0.0790(2) 0.3652(3) 0.20177(15)
C5 C -0.0567(3) 0.3031(3) 0.20320(17)
H2 H -0.0269 0.1785 0.2375
C6 C -0.2376(3) 0.4266(3) 0.15350(19)
H3 H -0.3281 0.3841 0.1535
C7 C 0.2791(3) 0.2269(3) 0.24414(16)
C8 C 0.3174(2) 0.0620(3) 0.34476(16)
C9 C 0.2305(3) 0.0753(3) 0.45482(17)
C10 C 0.2894(3) -0.0834(3) 0.54828(19)
H4 H 0.2340 -0.0752 0.6222
C11 C 0.4301(3) -0.2531(3) 0.5313(2)
H5 H 0.4691 -0.3586 0.5943
C12 C 0.5126(3) -0.2681(3) 0.4233(3)
H6 H 0.6053 -0.3836 0.4124
C13 C 0.4583(3) -0.1124(3) 0.3314(2)
H7 H 0.5164 -0.1229 0.2584
C14 C 0.1641(3) 0.6273(3) 0.15350(18)
C15 C -0.2073(3) 0.8836(3) 0.0510(2)
H8 H -0.3211 0.9390 0.0015
H9 H -0.1063 0.8944 0.0036
H10 H -0.2290 0.9475 0.1146
C16 C 0.0073(3) 0.2697(3) 0.5754(2)
H11 H -0.0540 0.1901 0.5953
H12 H -0.0855 0.3978 0.5688
H13 H 0.1011 0.2350 0.6370
N1 N 0.2581(3) 0.6981(3) 0.1549(2)
O1 O 0.41117(18) 0.2453(2) 0.19201(13)
O2 O 0.09721(19) 0.24918(19) 0.46394(12)
loop_
_geom_bond_atom_site_label_1
_geom_bond_atom_site_label_2
_geom_bond_site_symmetry_1
_geom_bond_site_symmetry_2
C1 H1 1_555 1_555
C2 C1 1_555 1_555
C3 C2 1_555 1_555
C4 C3 1_555 1_555
C5 C4 1_555 1_555
H2 C5 1_555 1_555
C6 C1 1_555 1_555
H3 C6 1_555 1_555
C7 C4 1_555 1_555
C8 C7 1_555 1_555
C9 C8 1_555 1_555
C10 C9 1_555 1_555
H4 C10 1_555 1_555
C11 C10 1_555 1_555
H5 C11 1_555 1_555
C12 C11 1_555 1_555
H6 C12 1_555 1_555
C13 C8 1_555 1_555
H7 C13 1_555 1_555
C14 C3 1_555 1_555
C15 C2 1_555 1_555
H8 C15 1_555 1_555
H9 C15 1_555 1_555
H10 C15 1_555 1_555
C16 H11 1_555 1_555
H12 C16 1_555 1_555
H13 C16 1_555 1_555
N1 C14 1_555 1_555
O1 C7 1_555 1_555
O2 C9 1_555 1_555
C5 C6 1_555 1_555
C12 C13 1_555 1_555
C16 O2 1_555 1_555

#END
