
#######################################################################
#
#                 Cambridge Crystallographic Data Centre
#                                CCDC 
#
#######################################################################
#
# If this CIF has been generated from an entry in the Cambridge 
# Structural Database, then it will include bibliographic, chemical, 
# crystal, experimental, refinement or atomic coordinate data resulting 
# from the CCDC's data processing and validation procedures.
#
#######################################################################

data_WAFRIG
_chemical_formula_moiety         'C28 H19 N1 O2'
_chemical_name_systematic        
14-(1,3-Benzodioxol-5-yl)-7,14-dihydrodibenzo[a,j]acridine
_symmetry_cell_setting           monoclinic
_symmetry_space_group_name_H-M   'P 21/n'
_symmetry_Int_Tables_number      14
_space_group_name_Hall           '-P 2yn'
loop_
_symmetry_equiv_pos_site_id
_symmetry_equiv_pos_as_xyz
1 x,y,z
2 1/2-x,1/2+y,1/2-z
3 -x,-y,-z
4 1/2+x,1/2-y,1/2+z
_cell_length_a                   9.4920(11)
_cell_length_b                   11.2767(16)
_cell_length_c                   18.883(2)
_cell_angle_alpha                90
_cell_angle_beta                 102.650(2)
_cell_angle_gamma                90
_cell_volume                     1972.14
_exptl_crystal_colour            yellow
_exptl_crystal_description       block
_chemical_melting_point          'above 573 K'
_cell_formula_units_Z            4
loop_
_atom_site_label
_atom_site_type_symbol
_atom_site_fract_x
_atom_site_fract_y
_atom_site_fract_z
N1 N 0.45989(16) 0.20369(16) 0.04518(9)
H1 H 0.4105 0.1523 0.0631
O1 O 0.99695(14) 0.01008(13) 0.12539(7)
O2 O 1.20015(14) 0.07828(14) 0.08905(8)
C1 C 0.4820(2) 0.18618(19) -0.02422(11)
C2 C 0.3990(2) 0.0986(2) -0.06736(12)
H2 H 0.3326 0.0545 -0.0487
C3 C 0.4150(2) 0.0779(2) -0.13573(13)
H3 H 0.3610 0.0186 -0.1634
C4 C 0.5134(2) 0.1458(2) -0.16540(12)
C5 C 0.5262(2) 0.1275(2) -0.23780(12)
H4 H 0.4712 0.0690 -0.2658
C6 C 0.6184(2) 0.1946(2) -0.26691(12)
H5 H 0.6264 0.1817 -0.3145
C7 C 0.7013(2) 0.2831(2) -0.22529(12)
H6 H 0.7642 0.3285 -0.2456
C8 C 0.6910(2) 0.30386(19) -0.15506(11)
H7 H 0.7465 0.3633 -0.1284
C9 C 0.5960(2) 0.23510(19) -0.12254(11)
C10 C 0.58159(19) 0.25377(18) -0.04931(11)
C11 C 0.68212(19) 0.33592(18) 0.00266(10)
H8 H 0.6959 0.4083 -0.0238
C12 C 0.61922(19) 0.37069(19) 0.06732(10)
C13 C 0.6730(2) 0.46985(19) 0.11175(11)
C14 C 0.7842(2) 0.5444(2) 0.09827(11)
H9 H 0.8244 0.5294 0.0585
C15 C 0.8335(2) 0.6380(2) 0.14276(12)
H10 H 0.9064 0.6859 0.1326
C16 C 0.7766(3) 0.6629(2) 0.20290(12)
H11 H 0.8115 0.7268 0.2328
C17 C 0.6702(2) 0.5938(2) 0.21792(12)
H12 H 0.6319 0.6111 0.2580
C18 C 0.6164(2) 0.4957(2) 0.17369(11)
C19 C 0.5078(2) 0.4219(2) 0.19024(11)
H13 H 0.4698 0.4385 0.2305
C20 C 0.4587(2) 0.3275(2) 0.14816(11)
H14 H 0.3875 0.2794 0.1598
C21 C 0.5148(2) 0.3012(2) 0.08644(11)
C22 C 0.82907(19) 0.27519(19) 0.02735(10)
C23 C 0.8363(2) 0.17159(19) 0.06878(10)
H15 H 0.7561 0.1442 0.0847
C24 C 0.9643(2) 0.11199(19) 0.08518(10)
C25 C 1.0846(2) 0.1529(2) 0.06323(11)
C26 C 1.0822(2) 0.2545(2) 0.02452(11)
H16 H 1.1644 0.2825 0.0107
C27 C 0.9509(2) 0.31549(19) 0.00623(10)
H17 H 0.9456 0.3849 -0.0208
C28 C 1.1380(2) -0.0228(2) 0.11716(11)
H18 H 1.1318 -0.0892 0.0839
H19 H 1.1974 -0.0461 0.1636
loop_
_geom_bond_atom_site_label_1
_geom_bond_atom_site_label_2
_geom_bond_site_symmetry_1
_geom_bond_site_symmetry_2
N1 H1 1_555 1_555
O1 C24 1_555 1_555
O2 C25 1_555 1_555
C1 N1 1_555 1_555
C2 C1 1_555 1_555
H2 C2 1_555 1_555
C3 C2 1_555 1_555
H3 C3 1_555 1_555
C4 C3 1_555 1_555
C5 C4 1_555 1_555
H4 C5 1_555 1_555
C6 C5 1_555 1_555
H5 C6 1_555 1_555
C7 C6 1_555 1_555
H6 C7 1_555 1_555
C8 C7 1_555 1_555
H7 C8 1_555 1_555
C9 C4 1_555 1_555
C10 C1 1_555 1_555
C11 C10 1_555 1_555
H8 C11 1_555 1_555
C12 C11 1_555 1_555
C13 C12 1_555 1_555
C14 C13 1_555 1_555
H9 C14 1_555 1_555
C15 C14 1_555 1_555
H10 C15 1_555 1_555
C16 C15 1_555 1_555
H11 C16 1_555 1_555
C17 C16 1_555 1_555
H12 C17 1_555 1_555
C18 C13 1_555 1_555
C19 C18 1_555 1_555
H13 C19 1_555 1_555
C20 C19 1_555 1_555
H14 C20 1_555 1_555
C21 N1 1_555 1_555
C22 C11 1_555 1_555
C23 C22 1_555 1_555
H15 C23 1_555 1_555
C24 C23 1_555 1_555
C25 C24 1_555 1_555
C26 C25 1_555 1_555
H16 C26 1_555 1_555
C27 C22 1_555 1_555
H17 C27 1_555 1_555
C28 O1 1_555 1_555
H18 C28 1_555 1_555
H19 C28 1_555 1_555
O2 C28 1_555 1_555
C8 C9 1_555 1_555
C9 C10 1_555 1_555
C12 C21 1_555 1_555
C17 C18 1_555 1_555
C20 C21 1_555 1_555
C26 C27 1_555 1_555

#END
