
#######################################################################
#
#                 Cambridge Crystallographic Data Centre
#                                CCDC 
#
#######################################################################
#
# If this CIF has been generated from an entry in the Cambridge 
# Structural Database, then it will include bibliographic, chemical, 
# crystal, experimental, refinement or atomic coordinate data resulting 
# from the CCDC's data processing and validation procedures.
#
#######################################################################

data_WAFTEF
_chemical_formula_moiety         'C18 H24 N1 O5 P1 S1'
_chemical_name_systematic        
'(S)-diethyl (4-methylphenylsulfonamido)(phenyl)methylphosphonate'
_symmetry_cell_setting           orthorhombic
_symmetry_space_group_name_H-M   'P 21 21 2'
_symmetry_Int_Tables_number      18
_space_group_name_Hall           'P 2 2ab'
loop_
_symmetry_equiv_pos_site_id
_symmetry_equiv_pos_as_xyz
1 x,y,z
2 -x,-y,z
3 1/2-x,1/2+y,-z
4 1/2+x,1/2-y,-z
_cell_length_a                   13.893(2)
_cell_length_b                   16.329(2)
_cell_length_c                   9.2136(15)
_cell_angle_alpha                90
_cell_angle_beta                 90
_cell_angle_gamma                90
_cell_volume                     2090.19
_exptl_crystal_colour            white
_exptl_crystal_description       prismatic
_chemical_melting_point          '130-131 deg.C'
_cell_formula_units_Z            4
_exptl_crystal_recrystallization_method dichloromethane
loop_
_atom_site_label
_atom_site_type_symbol
_atom_site_fract_x
_atom_site_fract_y
_atom_site_fract_z
P1 P 0.68406(6) 0.99527(6) 0.47096(12)
S1 S 0.54240(7) 0.78005(6) 0.36252(11)
N1 N 0.5684(2) 0.87275(18) 0.4146(4)
O1 O 0.63034(19) 0.74418(17) 0.3139(3)
O2 O 0.4630(2) 0.78765(18) 0.2662(3)
O3 O 0.60526(16) 1.04923(14) 0.5116(3)
O4 O 0.77843(18) 1.01051(19) 0.5564(4)
O5 O 0.7194(2) 1.0008(2) 0.3107(3)
C1 C 0.6561(2) 0.8874(2) 0.4972(4)
H1 H 0.7075 0.8560 0.4503
C2 C 0.6546(2) 0.8625(2) 0.6544(4)
C3 C 0.5775(3) 0.8784(2) 0.7437(5)
H2 H 0.5247 0.9071 0.7082
C4 C 0.5783(4) 0.8516(3) 0.8868(5)
H3 H 0.5265 0.8629 0.9475
C5 C 0.6561(4) 0.8081(3) 0.9382(6)
H4 H 0.6561 0.7888 1.0331
C6 C 0.7318(4) 0.7938(3) 0.8522(6)
H5 H 0.7849 0.7658 0.8885
C7 C 0.7316(3) 0.8197(3) 0.7127(5)
H6 H 0.7846 0.8085 0.6544
C8 C 0.5026(2) 0.72578(18) 0.5165(4)
C9 C 0.4165(2) 0.7454(2) 0.5802(5)
H7 H 0.3774 0.7855 0.5393
C10 C 0.3880(3) 0.7057(3) 0.7047(5)
H8 H 0.3295 0.7194 0.7472
C11 C 0.4440(3) 0.6468(3) 0.7670(5)
C12 C 0.5284(3) 0.6273(3) 0.7011(6)
H9 H 0.5664 0.5862 0.7410
C13 C 0.5598(3) 0.6664(2) 0.5766(5)
H10 H 0.6185 0.6527 0.5346
C14 C 0.4141(4) 0.6058(4) 0.9068(6)
H11 H 0.4323 0.6397 0.9874
H12 H 0.4455 0.5536 0.9147
H13 H 0.3456 0.5982 0.9071
C15 C 0.7799(4) 1.0458(4) 0.6970(8)
H14 H 0.7303 1.0212 0.7568
H15 H 0.7674 1.1041 0.6905
C16 C 0.8753(5) 1.0316(5) 0.7628(9)
H16 H 0.8843 0.9741 0.7790
H17 H 0.8792 1.0602 0.8537
H18 H 0.9245 1.0515 0.6987
C17 C 0.6479(10) 1.0198(8) 0.1886(13)
H19 H 0.6202 0.9694 0.1518
H20 H 0.5962 1.0540 0.2251
C18 C 0.7015(10) 1.0643(9) 0.0675(14)
H21 H 0.7414 1.1063 0.1085
H22 H 0.6559 1.0885 0.0021
H23 H 0.7410 1.0260 0.0155
H24 H 0.521(2) 0.900(2) 0.449(4)
C19? C 0.7066(8) 1.0672(7) 0.2202(12)
H25? H 0.7687 1.0867 0.1870
H26? H 0.6756 1.1111 0.2734
C20? C 0.6498(10) 1.0456(10) 0.1001(18)
H27? H 0.6768 0.9983 0.0536
H28? H 0.6481 1.0904 0.0326
H29? H 0.5855 1.0335 0.1319
loop_
_geom_bond_atom_site_label_1
_geom_bond_atom_site_label_2
_geom_bond_site_symmetry_1
_geom_bond_site_symmetry_2
P1 O3 1_555 1_555
S1 N1 1_555 1_555
N1 C1 1_555 1_555
O1 S1 1_555 1_555
O2 S1 1_555 1_555
O4 P1 1_555 1_555
O5 P1 1_555 1_555
C1 P1 1_555 1_555
H1 C1 1_555 1_555
C2 C1 1_555 1_555
C3 C2 1_555 1_555
H2 C3 1_555 1_555
C4 C3 1_555 1_555
H3 C4 1_555 1_555
C5 C4 1_555 1_555
H4 C5 1_555 1_555
C6 C5 1_555 1_555
H5 C6 1_555 1_555
C7 C2 1_555 1_555
H6 C7 1_555 1_555
C8 S1 1_555 1_555
C9 C8 1_555 1_555
H7 C9 1_555 1_555
C10 C9 1_555 1_555
H8 C10 1_555 1_555
C11 C10 1_555 1_555
C12 C11 1_555 1_555
H9 C12 1_555 1_555
C13 C8 1_555 1_555
H10 C13 1_555 1_555
C14 C11 1_555 1_555
H11 C14 1_555 1_555
H12 C14 1_555 1_555
H13 C14 1_555 1_555
C15 O4 1_555 1_555
H14 C15 1_555 1_555
H15 C15 1_555 1_555
C16 C15 1_555 1_555
H16 C16 1_555 1_555
H17 C16 1_555 1_555
H18 C16 1_555 1_555
C17 O5 1_555 1_555
H19 C17 1_555 1_555
H20 C17 1_555 1_555
C18 C17 1_555 1_555
H21 C18 1_555 1_555
H22 C18 1_555 1_555
H23 C18 1_555 1_555
H24 N1 1_555 1_555
C6 C7 1_555 1_555
C12 C13 1_555 1_555

#END
