
#######################################################################
#
#                 Cambridge Crystallographic Data Centre
#                                CCDC 
#
#######################################################################
#
# If this CIF has been generated from an entry in the Cambridge 
# Structural Database, then it will include bibliographic, chemical, 
# crystal, experimental, refinement or atomic coordinate data resulting 
# from the CCDC's data processing and validation procedures.
#
#######################################################################

data_WAFVEH
_chemical_formula_moiety         'C18 H28 B1 N1 Si1'
_chemical_name_systematic        
2-(trimethylsilyl)-1H-spiro[1,2-azaborolo[1,5-a]pyridine-1,9'-[9\l^5^]borabicyclo[3.3.1]nonane]
_symmetry_cell_setting           orthorhombic
_symmetry_space_group_name_H-M   'P 21 21 21'
_symmetry_Int_Tables_number      19
_space_group_name_Hall           'P 2ac 2ab'
loop_
_symmetry_equiv_pos_site_id
_symmetry_equiv_pos_as_xyz
1 x,y,z
2 1/2+x,1/2-y,-z
3 -x,1/2+y,1/2-z
4 1/2-x,-y,1/2+z
_cell_length_a                   6.6373(3)
_cell_length_b                   9.5044(4)
_cell_length_c                   27.3003(11)
_cell_angle_alpha                90
_cell_angle_beta                 90
_cell_angle_gamma                90
_cell_volume                     1722.2
_exptl_crystal_colour            colorless
_exptl_crystal_description       block
_cell_formula_units_Z            4
loop_
_atom_site_label
_atom_site_type_symbol
_atom_site_fract_x
_atom_site_fract_y
_atom_site_fract_z
Si1 Si 0.32698(7) 0.77801(5) 0.187029(16)
B1 B 0.2281(3) 0.98540(17) 0.09441(6)
N1 N 0.23337(19) 0.92071(13) 0.03840(4)
C1 C 0.2539(2) 0.83600(15) 0.12345(5)
C2 C 0.2447(2) 0.73083(15) 0.09030(5)
H1 H 0.2457 0.6343 0.0993
C3 C 0.0105(2) 1.06114(15) 0.10263(5)
H2 H -0.0972 0.9903 0.0957
C4 C -0.0193(2) 1.18625(16) 0.06764(6)
H3 H -0.1440 1.2363 0.0772
H4 H -0.0402 1.1489 0.0342
C5 C 0.1541(3) 1.29367(17) 0.06592(6)
H5 H 0.1440 1.3464 0.0347
H6 H 0.1339 1.3620 0.0929
C6 C 0.3688(3) 1.23448(17) 0.07003(6)
H7 H 0.4587 1.3107 0.0816
H8 H 0.4145 1.2070 0.0369
C7 C -0.0066(2) 1.10432(17) 0.15654(6)
H9 H -0.0110 1.0182 0.1769
H10 H -0.1355 1.1550 0.1613
C8 C 0.1660(3) 1.19806(17) 0.17465(6)
H11 H 0.1422 1.2951 0.1628
H12 H 0.1625 1.2003 0.2109
C9 C 0.3769(2) 1.15197(17) 0.15835(5)
H13 H 0.4201 1.0723 0.1792
H14 H 0.4716 1.2306 0.1643
C10 C 0.3947(2) 1.10717(15) 0.10435(6)
H15 H 0.5317 1.0663 0.0990
C11 C 0.2332(2) 0.77753(16) 0.04013(5)
C12 C 0.2285(2) 0.69785(16) -0.00257(6)
H16 H 0.2275 0.5980 -0.0008
C13 C 0.2256(3) 0.76340(19) -0.04705(6)
H17 H 0.2222 0.7099 -0.0764
C14 C 0.2275(3) 0.90970(19) -0.04879(6)
H18 H 0.2268 0.9573 -0.0794
C15 C 0.2303(2) 0.98446(16) -0.00568(5)
H19 H 0.2300 1.0843 -0.0070
C16 C 0.6078(3) 0.7925(2) 0.19027(7)
H20 H 0.6517 0.7810 0.2243
H21 H 0.6498 0.8851 0.1782
H22 H 0.6689 0.7189 0.1700
C17 C 0.2576(4) 0.5889(2) 0.19563(8)
H23 H 0.2874 0.5604 0.2294
H24 H 0.3356 0.5306 0.1729
H25 H 0.1134 0.5765 0.1892
C18 C 0.2156(3) 0.87225(19) 0.24058(6)
H26 H 0.2659 0.8302 0.2710
H27 H 0.0685 0.8643 0.2395
H28 H 0.2541 0.9717 0.2394
loop_
_geom_bond_atom_site_label_1
_geom_bond_atom_site_label_2
_geom_bond_site_symmetry_1
_geom_bond_site_symmetry_2
Si1 C1 1_555 1_555
B1 N1 1_555 1_555
N1 C11 1_555 1_555
C1 B1 1_555 1_555
C2 C1 1_555 1_555
H1 C2 1_555 1_555
C3 B1 1_555 1_555
H2 C3 1_555 1_555
C4 C3 1_555 1_555
H3 C4 1_555 1_555
H4 C4 1_555 1_555
C5 C4 1_555 1_555
H5 C5 1_555 1_555
H6 C5 1_555 1_555
C6 C5 1_555 1_555
H7 C6 1_555 1_555
H8 C6 1_555 1_555
C7 C3 1_555 1_555
H9 C7 1_555 1_555
H10 C7 1_555 1_555
C8 C7 1_555 1_555
H11 C8 1_555 1_555
H12 C8 1_555 1_555
C9 C8 1_555 1_555
H13 C9 1_555 1_555
H14 C9 1_555 1_555
C10 B1 1_555 1_555
H15 C10 1_555 1_555
C11 C2 1_555 1_555
C12 C11 1_555 1_555
H16 C12 1_555 1_555
C13 C12 1_555 1_555
H17 C13 1_555 1_555
C14 C13 1_555 1_555
H18 C14 1_555 1_555
C15 N1 1_555 1_555
H19 C15 1_555 1_555
C16 Si1 1_555 1_555
H20 C16 1_555 1_555
H21 C16 1_555 1_555
H22 C16 1_555 1_555
C17 Si1 1_555 1_555
H23 C17 1_555 1_555
H24 C17 1_555 1_555
H25 C17 1_555 1_555
C18 Si1 1_555 1_555
H26 C18 1_555 1_555
H27 C18 1_555 1_555
H28 C18 1_555 1_555
C6 C10 1_555 1_555
C9 C10 1_555 1_555
C14 C15 1_555 1_555

#END
