
#######################################################################
#
#                 Cambridge Crystallographic Data Centre
#                                CCDC 
#
#######################################################################
#
# If this CIF has been generated from an entry in the Cambridge 
# Structural Database, then it will include bibliographic, chemical, 
# crystal, experimental, refinement or atomic coordinate data resulting 
# from the CCDC's data processing and validation procedures.
#
#######################################################################

data_WAFWAE
_chemical_formula_moiety         'C30 H31 N1 O5'
_chemical_name_systematic        
'methyl 2-((1,2-bis(4-methoxyphenyl)-6-methyl-4-oxohept-2-en-1-ylidene)amino)benzoate'
_symmetry_cell_setting           triclinic
_symmetry_space_group_name_H-M   'P -1'
_symmetry_Int_Tables_number      2
_space_group_name_Hall           '-P 1'
loop_
_symmetry_equiv_pos_site_id
_symmetry_equiv_pos_as_xyz
1 x,y,z
2 -x,-y,-z
_cell_length_a                   8.4206(3)
_cell_length_b                   13.0965(9)
_cell_length_c                   13.5607(7)
_cell_angle_alpha                62.238(6)
_cell_angle_beta                 82.896(4)
_cell_angle_gamma                77.063(4)
_cell_volume                     1289.42
_exptl_crystal_colour            yellow
_exptl_crystal_description       block
_cell_formula_units_Z            2
loop_
_atom_site_label
_atom_site_type_symbol
_atom_site_fract_x
_atom_site_fract_y
_atom_site_fract_z
O1 O 0.61199(19) 0.20713(11) 0.14741(10)
O2 O 0.25585(13) 0.47197(8) 0.40823(9)
O3 O 0.17192(14) 0.34455(10) 0.57438(9)
O4 O 0.91135(11) 0.67053(8) 0.00014(8)
O5 O 0.65532(12) 0.17755(8) 0.78775(7)
N1 N 0.36509(12) 0.37177(8) 0.26179(8)
C1 C 0.51967(14) 0.33829(10) 0.26949(9)
C2 C 0.59575(13) 0.21986(10) 0.35969(9)
C3 C 0.65896(14) 0.12667(10) 0.34056(10)
C4 C 0.6722(3) 0.12482(14) 0.23202(12)
C5 C 0.77332(18) 0.01308(12) 0.23400(11)
C6 C 0.7984(2) 0.00659(15) 0.12376(13)
C7 C 0.9309(2) -0.10009(15) 0.13752(15)
C8 C 0.6433(2) -0.00025(17) 0.08346(14)
C9 C 0.25872(13) 0.29510(10) 0.32948(10)
C10 C 0.22015(15) 0.21926(11) 0.29373(11)
C11 C 0.10845(15) 0.14785(11) 0.35283(11)
C12 C 0.03345(14) 0.14901(10) 0.44990(11)
C13 C 0.06983(14) 0.22331(10) 0.48583(11)
C14 C 0.18084(14) 0.29795(10) 0.42663(10)
C15 C 0.20922(15) 0.38156(11) 0.46535(11)
C16 C 0.1875(2) 0.42226(17) 0.61998(16)
C17 C 0.62738(13) 0.42084(10) 0.19656(9)
C18 C 0.56564(14) 0.52499(10) 0.10413(10)
C19 C 0.66297(15) 0.60546(10) 0.04021(10)
C20 C 0.82613(14) 0.58467(10) 0.06726(10)
C21 C 0.89049(14) 0.48117(11) 0.15723(10)
C22 C 0.79079(14) 0.40026(10) 0.22061(10)
C23 C 1.07763(17) 0.65247(13) 0.02664(13)
C24 C 0.59983(13) 0.21213(10) 0.47166(10)
C25 C 0.60603(14) 0.31093(10) 0.48461(10)
C26 C 0.62560(15) 0.30363(11) 0.58819(11)
C27 C 0.63673(15) 0.19586(11) 0.68207(10)
C28 C 0.60835(15) 0.10467(10) 0.56831(10)
C29 C 0.6529(2) 0.27795(14) 0.80398(13)
C30 C 0.62724(16) 0.09608(11) 0.67158(10)
H1 H 0.2703 0.2184 0.2268
H2 H 0.0820 0.0982 0.3258
H3 H -0.0435 0.1011 0.4895
H4 H 0.0167 0.2256 0.5515
H5 H 0.1402 0.3957 0.6910
H6 H 0.3019 0.4239 0.6215
H7 H 0.1323 0.5007 0.5738
H8 H 0.4569 0.5395 0.0859
H9 H 0.6204 0.6749 -0.0220
H10 H 0.9995 0.4654 0.1759
H11 H 0.8354 0.3291 0.2824
H12 H 1.1195 0.7214 -0.0287
H13 H 1.0862 0.6450 0.1020
H14 H 1.1408 0.5818 0.0244
H15 H 0.5980 0.3841 0.4214
H16 H 0.6315 0.3720 0.5936
H17 H 0.6006 0.0355 0.5624
H18 H 0.6630 0.2508 0.8844
H19 H 0.7465 0.3160 0.7628
H20 H 0.5511 0.3349 0.7776
H21 H 0.6331 0.0210 0.7371
H22 H 0.6990 0.0550 0.4032
H23 H 0.8779 0.0030 0.2604
H24 H 0.7218 -0.0500 0.2849
H25 H 0.8353 0.0754 0.0693
H26 H 0.9474 -0.1049 0.0691
H27 H 1.0296 -0.0920 0.1580
H28 H 0.8979 -0.1695 0.1940
H29 H 0.6648 -0.0041 0.0147
H30 H 0.6044 -0.0685 0.1372
H31 H 0.5633 0.0676 0.0731
O6? O 0.589(4) 0.227(2) 0.1555(19)
C31? C 0.652(6) 0.1330(17) 0.2292(14)
C32? C 0.685(3) 0.0175(17) 0.2201(17)
C33? C 0.819(3) -0.004(2) 0.142(2)
C34? C 0.807(4) -0.114(2) 0.133(3)
C35? C 0.979(3) -0.006(3) 0.187(3)
H32? H 0.7090 0.0554 0.3997
H33? H 0.7105 -0.0442 0.2927
H34? H 0.5866 0.0117 0.1974
H35? H 0.8026 0.0618 0.0707
H36? H 0.8907 -0.1265 0.0840
H37? H 0.8185 -0.1796 0.2045
H38? H 0.7036 -0.1031 0.1043
H39? H 1.0669 -0.0192 0.1401
H40? H 0.9758 0.0667 0.1866
H41? H 0.9936 -0.0679 0.2604
loop_
_geom_bond_atom_site_label_1
_geom_bond_atom_site_label_2
_geom_bond_site_symmetry_1
_geom_bond_site_symmetry_2
O1 C4 1_555 1_555
O2 C15 1_555 1_555
O3 C15 1_555 1_555
O4 C20 1_555 1_555
O5 C27 1_555 1_555
N1 C1 1_555 1_555
C1 C2 1_555 1_555
C2 C3 1_555 1_555
C3 C4 1_555 1_555
C4 C5 1_555 1_555
C5 C6 1_555 1_555
C6 C7 1_555 1_555
C7 H26 1_555 1_555
C8 C6 1_555 1_555
C9 N1 1_555 1_555
C10 C9 1_555 1_555
C11 C10 1_555 1_555
C12 C11 1_555 1_555
C13 C12 1_555 1_555
C14 C9 1_555 1_555
C15 C14 1_555 1_555
C16 O3 1_555 1_555
C17 C1 1_555 1_555
C18 C17 1_555 1_555
C19 C18 1_555 1_555
C20 C19 1_555 1_555
C21 C20 1_555 1_555
C22 C17 1_555 1_555
C23 O4 1_555 1_555
C24 C2 1_555 1_555
C25 C24 1_555 1_555
C26 C25 1_555 1_555
C27 C26 1_555 1_555
C28 C24 1_555 1_555
C29 O5 1_555 1_555
C30 C27 1_555 1_555
H1 C10 1_555 1_555
H2 C11 1_555 1_555
H3 C12 1_555 1_555
H4 C13 1_555 1_555
H5 C16 1_555 1_555
H6 C16 1_555 1_555
H7 C16 1_555 1_555
H8 C18 1_555 1_555
H9 C19 1_555 1_555
H10 C21 1_555 1_555
H11 C22 1_555 1_555
H12 C23 1_555 1_555
H13 C23 1_555 1_555
H14 C23 1_555 1_555
H15 C25 1_555 1_555
H16 C26 1_555 1_555
H17 C28 1_555 1_555
H18 C29 1_555 1_555
H19 C29 1_555 1_555
H20 C29 1_555 1_555
H21 C30 1_555 1_555
H22 C3 1_555 1_555
H23 C5 1_555 1_555
H24 C5 1_555 1_555
H25 C6 1_555 1_555
H27 C7 1_555 1_555
H28 C7 1_555 1_555
H29 C8 1_555 1_555
H30 C8 1_555 1_555
H31 C8 1_555 1_555
C13 C14 1_555 1_555
C21 C22 1_555 1_555
C28 C30 1_555 1_555

#END
