
#######################################################################
#
#                 Cambridge Crystallographic Data Centre
#                                CCDC 
#
#######################################################################
#
# If this CIF has been generated from an entry in the Cambridge 
# Structural Database, then it will include bibliographic, chemical, 
# crystal, experimental, refinement or atomic coordinate data resulting 
# from the CCDC's data processing and validation procedures.
#
#######################################################################

data_WAFXEJ
_chemical_formula_moiety         'C33 H31 N1 O7 S1,H2 O1'
_chemical_name_systematic        
"1'-t-butyl 3-ethyl 4a-hydroxy-2-methyl-2',9-dioxo-1-(2-thienyl)-2,3,4a,9-tetrahydrospiro[fluorene-4,3'-indole]-1',3(2'H)-dicarboxylate monohydrate"
_symmetry_cell_setting           triclinic
_symmetry_space_group_name_H-M   'P -1'
_symmetry_Int_Tables_number      2
_space_group_name_Hall           '-P 1'
loop_
_symmetry_equiv_pos_site_id
_symmetry_equiv_pos_as_xyz
1 x,y,z
2 -x,-y,-z
_cell_length_a                   9.1909(10)
_cell_length_b                   11.4084(10)
_cell_length_c                   14.6334(12)
_cell_angle_alpha                86.770(3)
_cell_angle_beta                 83.447(3)
_cell_angle_gamma                87.553(3)
_cell_volume                     1520.9
_exptl_crystal_colour            yellow
_exptl_crystal_description       prism
_cell_formula_units_Z            2
loop_
_atom_site_label
_atom_site_type_symbol
_atom_site_fract_x
_atom_site_fract_y
_atom_site_fract_z
C1 C 1.1673(6) -0.4923(5) 0.4069(3)
H1 H 1.1815 -0.5652 0.4369
C2 C 1.2641(5) -0.4083(4) 0.3999(3)
H2 H 1.3499 -0.4166 0.4280
C3 C 1.2280(5) -0.3027(4) 0.3457(3)
H3 H 1.2867 -0.2388 0.3290
C4 C 1.0779(4) -0.3186(3) 0.3228(3)
C5 C 0.9920(4) -0.2330(3) 0.2696(2)
C6 C 1.0769(4) -0.1782(3) 0.1845(2)
H4 H 1.1727 -0.1597 0.2022
C7 C 1.1066(6) -0.2688(4) 0.1099(3)
H5 H 1.1605 -0.2333 0.0561
H6 H 1.0151 -0.2949 0.0943
H7 H 1.1626 -0.3347 0.1329
C8 C 1.0104(4) -0.0617(3) 0.1444(2)
H8 H 0.9834 -0.0779 0.0835
C9 C 1.1256(4) 0.0320(3) 0.1290(2)
C10 C 1.1630(5) 0.2341(4) 0.0851(4)
H9 H 1.2025 0.2436 0.0209
H10 H 1.2443 0.2212 0.1218
C11 C 1.0775(6) 0.3402(5) 0.1130(5)
H11 H 1.1393 0.4065 0.1044
H12 H 1.0396 0.3305 0.1768
H13 H 0.9977 0.3529 0.0762
C12 C 0.8691(4) -0.0119(3) 0.2006(2)
C13 C 0.8944(4) 0.0600(3) 0.2802(2)
C14 C 0.9812(4) 0.0367(3) 0.3507(2)
H14 H 1.0327 -0.0350 0.3553
C15 C 0.9915(4) 0.1203(4) 0.4145(3)
H15 H 1.0515 0.1051 0.4612
C16 C 0.9140(5) 0.2250(4) 0.4092(3)
H16 H 0.9196 0.2794 0.4536
C17 C 0.8267(5) 0.2515(4) 0.3385(3)
H17 H 0.7744 0.3229 0.3349
C18 C 0.8201(4) 0.1690(3) 0.2737(2)
C19 C 0.7861(4) 0.0753(3) 0.1408(2)
C20 C 0.6612(4) 0.2694(3) 0.1569(3)
C21 C 0.5917(5) 0.4762(4) 0.1801(3)
C22 C 0.6250(6) 0.5524(4) 0.2565(4)
H18 H 0.7290 0.5612 0.2533
H19 H 0.5900 0.5160 0.3152
H20 H 0.5772 0.6283 0.2494
C23 C 0.6607(8) 0.5229(5) 0.0869(4)
H21 H 0.7637 0.5317 0.0889
H22 H 0.6155 0.5978 0.0717
H23 H 0.6466 0.4689 0.0410
C24 C 0.4315(6) 0.4599(5) 0.1836(5)
H24 H 0.4133 0.4111 0.1351
H25 H 0.3819 0.5349 0.1759
H26 H 0.3960 0.4231 0.2420
C25 C 0.7693(4) -0.1193(3) 0.2302(2)
C26 C 0.6276(4) -0.0877(3) 0.2905(2)
C27 C 0.5107(4) -0.0140(4) 0.2702(3)
H27 H 0.5110 0.0254 0.2128
C28 C 0.3935(4) -0.0006(4) 0.3374(3)
H28 H 0.3152 0.0500 0.3253
C29 C 0.3904(5) -0.0613(4) 0.4227(3)
H29 H 0.3103 -0.0506 0.4667
C30 C 0.5042(5) -0.1366(4) 0.4425(3)
H30 H 0.5019 -0.1782 0.4991
C31 C 0.6231(4) -0.1488(3) 0.3755(3)
C32 C 0.7580(4) -0.2234(3) 0.3816(3)
C33 C 0.8507(4) -0.2027(3) 0.2925(2)
N1 N 0.7483(3) 0.1760(2) 0.19119(19)
O1 O 1.2510(3) 0.0181(3) 0.1429(2)
O2 O 1.0685(3) 0.1338(2) 0.09830(19)
O3 O 0.7541(3) 0.0600(2) 0.06514(17)
O4 O 0.5922(4) 0.2607(3) 0.0937(2)
O5 O 0.6689(3) 0.3628(2) 0.20461(19)
O6 O 0.7436(3) -0.1789(2) 0.15129(16)
H31 H 0.6421 -0.1566 0.1333
O7 O 0.7871(4) -0.2817(3) 0.4495(2)
S1 S 1.01898(18) -0.45417(13) 0.35673(12)
O8 O 0.4895(4) 0.8567(4) 0.0668(3)
H32 H 0.4137 0.9050 0.0827
H33 H 0.4507 0.8248 0.0183
loop_
_geom_bond_atom_site_label_1
_geom_bond_atom_site_label_2
_geom_bond_site_symmetry_1
_geom_bond_site_symmetry_2
C1 H1 1_555 1_555
C2 C1 1_555 1_555
H2 C2 1_555 1_555
C3 C2 1_555 1_555
H3 C3 1_555 1_555
C4 C3 1_555 1_555
C5 C4 1_555 1_555
C6 C5 1_555 1_555
H4 C6 1_555 1_555
C7 C6 1_555 1_555
H5 C7 1_555 1_555
H6 C7 1_555 1_555
H7 C7 1_555 1_555
C8 C6 1_555 1_555
H8 C8 1_555 1_555
C9 C8 1_555 1_555
C10 H9 1_555 1_555
H10 C10 1_555 1_555
C11 C10 1_555 1_555
H11 C11 1_555 1_555
H12 C11 1_555 1_555
H13 C11 1_555 1_555
C12 C8 1_555 1_555
C13 C12 1_555 1_555
C14 C13 1_555 1_555
H14 C14 1_555 1_555
C15 C14 1_555 1_555
H15 C15 1_555 1_555
C16 C15 1_555 1_555
H16 C16 1_555 1_555
C17 C16 1_555 1_555
H17 C17 1_555 1_555
C18 C13 1_555 1_555
C19 C12 1_555 1_555
C20 N1 1_555 1_555
C21 C22 1_555 1_555
C22 H18 1_555 1_555
H19 C22 1_555 1_555
H20 C22 1_555 1_555
C23 C21 1_555 1_555
H21 C23 1_555 1_555
H22 C23 1_555 1_555
H23 C23 1_555 1_555
C24 C21 1_555 1_555
H24 C24 1_555 1_555
H25 C24 1_555 1_555
H26 C24 1_555 1_555
C25 C12 1_555 1_555
C26 C25 1_555 1_555
C27 C26 1_555 1_555
H27 C27 1_555 1_555
C28 C27 1_555 1_555
H28 C28 1_555 1_555
C29 C28 1_555 1_555
H29 C29 1_555 1_555
C30 C29 1_555 1_555
H30 C30 1_555 1_555
C31 C26 1_555 1_555
C32 C31 1_555 1_555
C33 C5 1_555 1_555
N1 C18 1_555 1_555
O1 C9 1_555 1_555
O2 C9 1_555 1_555
O3 C19 1_555 1_555
O4 C20 1_555 1_555
O5 C20 1_555 1_555
O6 C25 1_555 1_555
H31 O6 1_555 1_555
O7 C32 1_555 1_555
S1 C1 1_555 1_555
O8 H32 1_555 1_555
H33 O8 1_555 1_555
C4 S1 1_555 1_555
C10 O2 1_555 1_555
C17 C18 1_555 1_555
C19 N1 1_555 1_555
C21 O5 1_555 1_555
C25 C33 1_555 1_555
C30 C31 1_555 1_555
C32 C33 1_555 1_555

#END
