
#######################################################################
#
#                 Cambridge Crystallographic Data Centre
#                                CCDC 
#
#######################################################################
#
# If this CIF has been generated from an entry in the Cambridge 
# Structural Database, then it will include bibliographic, chemical, 
# crystal, experimental, refinement or atomic coordinate data resulting 
# from the CCDC's data processing and validation procedures.
#
#######################################################################

data_WAFYEK
_chemical_formula_moiety         'C15 H25 N1 O2'
_chemical_name_systematic        
11-oxa-3-azatetracyclo[7.5.3.0^1,10^.0^3,8^]heptadecan-12-ol
_symmetry_cell_setting           monoclinic
_symmetry_space_group_name_H-M   'P 21/c'
_symmetry_Int_Tables_number      14
_space_group_name_Hall           '-P 2ybc'
loop_
_symmetry_equiv_pos_site_id
_symmetry_equiv_pos_as_xyz
1 x,y,z
2 -x,1/2+y,1/2-z
3 -x,-y,-z
4 x,1/2-y,1/2+z
_cell_length_a                   10.6087(13)
_cell_length_b                   12.4575(14)
_cell_length_c                   10.8471(15)
_cell_angle_alpha                90
_cell_angle_beta                 104.219(13)
_cell_angle_gamma                90
_cell_volume                     1389.61
_exptl_crystal_colour            'light colorless'
_exptl_crystal_description       block
_cell_formula_units_Z            4
loop_
_atom_site_label
_atom_site_type_symbol
_atom_site_fract_x
_atom_site_fract_y
_atom_site_fract_z
O1 O -0.04574(15) -0.02660(12) -0.16034(14)
O2 O 0.10369(18) -0.12352(14) -0.00914(16)
H1 H 0.0968 -0.0878 0.0523
N1 N -0.32447(18) -0.24326(15) -0.37707(17)
C1 C -0.3993(3) -0.3427(2) -0.3982(3)
H2 H -0.3789 -0.3852 -0.3209
H3 H -0.3746 -0.3839 -0.4645
C2 C -0.5439(3) -0.3215(3) -0.4366(3)
H4 H -0.5657 -0.2845 -0.5178
H5 H -0.5904 -0.3892 -0.4466
C3 C -0.5856(3) -0.2542(3) -0.3380(3)
H6 H -0.5753 -0.2950 -0.2600
H7 H -0.6765 -0.2350 -0.3682
C4 C -0.5025(2) -0.1528(2) -0.3124(3)
H8 H -0.5216 -0.1081 -0.3880
H9 H -0.5247 -0.1125 -0.2442
C5 C -0.3580(2) -0.17855(19) -0.2759(2)
H10 H -0.3412 -0.2228 -0.1989
C6 C -0.2720(2) -0.07800(18) -0.2455(2)
H11 H -0.2917 -0.0427 -0.1717
C7 C -0.2897(3) 0.0053(2) -0.3532(2)
H12 H -0.3802 0.0270 -0.3780
H13 H -0.2382 0.0684 -0.3217
C8 C -0.2499(3) -0.0366(2) -0.4692(2)
H14 H -0.2471 0.0224 -0.5267
H15 H -0.3142 -0.0878 -0.5134
C9 C -0.1170(2) -0.0908(2) -0.4326(2)
H16 H -0.0509 -0.0354 -0.4116
H17 H -0.1037 -0.1292 -0.5061
C10 C -0.0969(2) -0.16972(18) -0.3201(2)
C11 C -0.1319(2) -0.11571(17) -0.20725(19)
H18 H -0.1235 -0.1686 -0.1388
C12 C 0.0879(2) -0.0582(2) -0.1138(2)
H19 H 0.1405 0.0066 -0.0892
C13 C 0.1355(2) -0.1154(2) -0.2175(3)
H20 H 0.2216 -0.1443 -0.1815
H21 H 0.1424 -0.0638 -0.2826
C14 C 0.0450(2) -0.2067(2) -0.2788(2)
H22 H 0.0520 -0.2652 -0.2186
H23 H 0.0720 -0.2332 -0.3524
C15 C -0.1854(2) -0.26749(18) -0.3508(2)
H24 H -0.1682 -0.3035 -0.4242
H25 H -0.1635 -0.3170 -0.2797
loop_
_geom_bond_atom_site_label_1
_geom_bond_atom_site_label_2
_geom_bond_site_symmetry_1
_geom_bond_site_symmetry_2
O1 C11 1_555 1_555
O2 H1 1_555 1_555
N1 C1 1_555 1_555
C1 H2 1_555 1_555
H3 C1 1_555 1_555
C2 C1 1_555 1_555
H4 C2 1_555 1_555
H5 C2 1_555 1_555
C3 C2 1_555 1_555
H6 C3 1_555 1_555
H7 C3 1_555 1_555
C4 C3 1_555 1_555
H8 C4 1_555 1_555
H9 C4 1_555 1_555
C5 N1 1_555 1_555
H10 C5 1_555 1_555
C6 C5 1_555 1_555
H11 C6 1_555 1_555
C7 C6 1_555 1_555
H12 C7 1_555 1_555
H13 C7 1_555 1_555
C8 C7 1_555 1_555
H14 C8 1_555 1_555
H15 C8 1_555 1_555
C9 C8 1_555 1_555
H16 C9 1_555 1_555
H17 C9 1_555 1_555
C10 C9 1_555 1_555
C11 C6 1_555 1_555
H18 C11 1_555 1_555
C12 O1 1_555 1_555
H19 C12 1_555 1_555
C13 C12 1_555 1_555
H20 C13 1_555 1_555
H21 C13 1_555 1_555
C14 C10 1_555 1_555
H22 C14 1_555 1_555
H23 C14 1_555 1_555
C15 N1 1_555 1_555
H24 C15 1_555 1_555
H25 C15 1_555 1_555
O2 C12 1_555 1_555
C4 C5 1_555 1_555
C10 C11 1_555 1_555
C10 C15 1_555 1_555
C13 C14 1_555 1_555

#END
