
#######################################################################
#
#                 Cambridge Crystallographic Data Centre
#                                CCDC 
#
#######################################################################
#
# If this CIF has been generated from an entry in the Cambridge 
# Structural Database, then it will include bibliographic, chemical, 
# crystal, experimental, refinement or atomic coordinate data resulting 
# from the CCDC's data processing and validation procedures.
#
#######################################################################

data_WAGCUF
_chemical_compound_source        'Sarcandra glabra'
_chemical_name_common            'sarglaperoxide A'
_chemical_formula_moiety         'C23 H28 O5'
_chemical_name_systematic        
(4S,4aS,8aS,9aS,10aR,10bS,10cS)-3,3,7,10b-tetramethyl-9-methylene-4-((E)-3-oxobut-1-en-1-yl)-3,4,8,8a,9,9a,10,10a,10b,10c-decahydro-6H-cyclopropa[2,3]furo[2',3':5,6]indeno[4,5-c][1,2]dioxin-6-one
_symmetry_cell_setting           monoclinic
_symmetry_space_group_name_H-M   'P 21'
_symmetry_Int_Tables_number      4
_space_group_name_Hall           'P 2yb'
loop_
_symmetry_equiv_pos_site_id
_symmetry_equiv_pos_as_xyz
1 x,y,z
2 -x,1/2+y,-z
_cell_length_a                   7.19550(10)
_cell_length_b                   19.2595(3)
_cell_length_c                   7.63950(10)
_cell_angle_alpha                90
_cell_angle_beta                 101.353(2)
_cell_angle_gamma                90
_cell_volume                     1037.98
_exptl_crystal_colour            colorless
_exptl_crystal_description       block
_chemical_melting_point          '506-508 K'
_cell_formula_units_Z            2
_exptl_crystal_recrystallization_method methanol
loop_
_atom_site_label
_atom_site_type_symbol
_atom_site_fract_x
_atom_site_fract_y
_atom_site_fract_z
O1 O 0.3386(2) 0.58567(9) 0.9463(2)
O2 O 0.7596(3) 0.63885(9) 1.1962(2)
O3 O 0.0633(3) 0.56435(12) 0.7583(4)
O4 O 0.6733(4) 0.58093(10) 1.2745(2)
C1 C 0.5287(3) 0.60508(11) 0.9286(3)
C2 C 0.7954(3) 0.69368(11) 0.8302(3)
H1 H 0.8718 0.6557 0.8922
C3 C 0.6656(3) 0.66071(12) 0.6700(3)
H2 H 0.6168 0.6960 0.5823
H3 H 0.7352 0.6269 0.6144
C4 C 0.9342(3) 0.74975(13) 0.8053(3)
O5 O 0.7242(6) 0.34685(18) 0.5888(5)
C5 C 0.5195(3) 0.77087(12) 0.8808(3)
H4 H 0.4142 0.7420 0.8292
H5 H 0.5561 0.7988 0.7892
H6 H 0.4835 0.8005 0.9696
C6 C 0.9905(4) 0.76543(17) 0.6555(4)
H7 H 1.0794 0.8004 0.6546
H8 H 0.9412 0.7415 0.5510
C7 C 0.6583(3) 0.54019(11) 0.9691(3)
H9 H 0.7811 0.5526 0.9408
C8 C 0.5833(3) 0.48008(12) 0.8520(3)
H10 H 0.4579 0.4670 0.8468
C9 C 0.5058(3) 0.62616(11) 0.7350(3)
C10 C 0.6835(4) 0.44443(13) 0.7555(3)
H11 H 0.8064 0.4593 0.7555
C11 C 0.6070(3) 0.66476(11) 1.0623(3)
H12 H 0.5053 0.6820 1.1193
C12 C 0.6867(3) 0.72509(10) 0.9677(3)
C13 C 0.6956(4) 0.51991(13) 1.1698(3)
C14 C 0.8928(6) 0.4899(2) 1.2263(5)
H13 H 0.9184 0.4816 1.3527
H14 H 0.9842 0.5220 1.1974
H15 H 0.9008 0.4469 1.1646
C15 C 0.8434(3) 0.76742(13) 1.0890(3)
H16 H 0.8804 0.7545 1.2151
C16 C 0.9969(4) 0.78226(15) 0.9850(4)
H17 H 1.1300 0.7783 1.0451
C17 C 0.3288(3) 0.61329(13) 0.6490(3)
C18 C 0.2411(4) 0.6269(2) 0.4587(4)
H18 H 0.2743 0.5903 0.3854
H19 H 0.2867 0.6704 0.4223
H20 H 0.1058 0.6289 0.4458
C19 C 0.8793(4) 0.84056(15) 1.0348(5)
H21 H 0.7864 0.8616 0.9404
H22 H 0.9392 0.8723 1.1274
C20 C 0.2246(3) 0.58559(14) 0.7796(4)
C21 C 0.5445(7) 0.47266(19) 1.2227(5)
H23 H 0.4208 0.4888 1.1666
H24 H 0.5559 0.4736 1.3500
H25 H 0.5620 0.4260 1.1847
C22 C 0.6149(5) 0.38281(15) 0.6478(4)
C23 C 0.4062(7) 0.3671(2) 0.6073(6)
H26 H 0.3830 0.3272 0.5308
H27 H 0.3384 0.4062 0.5486
H28 H 0.3638 0.3578 0.7166
loop_
_geom_bond_atom_site_label_1
_geom_bond_atom_site_label_2
_geom_bond_site_symmetry_1
_geom_bond_site_symmetry_2
O1 C1 1_555 1_555
O2 O4 1_555 1_555
O3 C20 1_555 1_555
O4 C13 1_555 1_555
C1 C7 1_555 1_555
C2 H1 1_555 1_555
C3 C2 1_555 1_555
H2 C3 1_555 1_555
H3 C3 1_555 1_555
C4 C2 1_555 1_555
O5 C22 1_555 1_555
C5 H4 1_555 1_555
H5 C5 1_555 1_555
H6 C5 1_555 1_555
C6 C4 1_555 1_555
H7 C6 1_555 1_555
H8 C6 1_555 1_555
C7 H9 1_555 1_555
C8 C7 1_555 1_555
H10 C8 1_555 1_555
C9 C1 1_555 1_555
C10 C8 1_555 1_555
H11 C10 1_555 1_555
C11 O2 1_555 1_555
H12 C11 1_555 1_555
C12 C2 1_555 1_555
C13 C7 1_555 1_555
C14 C13 1_555 1_555
H13 C14 1_555 1_555
H14 C14 1_555 1_555
H15 C14 1_555 1_555
C15 C12 1_555 1_555
H16 C15 1_555 1_555
C16 C4 1_555 1_555
H17 C16 1_555 1_555
C17 C9 1_555 1_555
C18 C17 1_555 1_555
H18 C18 1_555 1_555
H19 C18 1_555 1_555
H20 C18 1_555 1_555
C19 C15 1_555 1_555
H21 C19 1_555 1_555
H22 C19 1_555 1_555
C20 O1 1_555 1_555
C21 C13 1_555 1_555
H23 C21 1_555 1_555
H24 C21 1_555 1_555
H25 C21 1_555 1_555
C22 C10 1_555 1_555
C23 C22 1_555 1_555
H26 C23 1_555 1_555
H27 C23 1_555 1_555
H28 C23 1_555 1_555
C1 C11 1_555 1_555
C3 C9 1_555 1_555
C5 C12 1_555 1_555
C11 C12 1_555 1_555
C15 C16 1_555 1_555
C16 C19 1_555 1_555
C17 C20 1_555 1_555

#END
