
#######################################################################
#
#                 Cambridge Crystallographic Data Centre
#                                CCDC 
#
#######################################################################
#
# If this CIF has been generated from an entry in the Cambridge 
# Structural Database, then it will include bibliographic, chemical, 
# crystal, experimental, refinement or atomic coordinate data resulting 
# from the CCDC's data processing and validation procedures.
#
#######################################################################

data_WAGDEQ
_chemical_formula_moiety         'C24 H26 N4 O4'
_chemical_name_systematic        
"t-butyl 1-methyl-2,7'-dioxo-3'-phenyl-1,2,6',7'-tetrahydro-5'H-spiro[indole-3,1'-pyrazolo[1,2-a][1,2,4]triazole]-2'(3'H)-carboxylate"
_symmetry_cell_setting           triclinic
_symmetry_space_group_name_H-M   'P -1'
_symmetry_Int_Tables_number      2
_space_group_name_Hall           '-P 1'
loop_
_symmetry_equiv_pos_site_id
_symmetry_equiv_pos_as_xyz
1 x,y,z
2 -x,-y,-z
_cell_length_a                   9.715(3)
_cell_length_b                   10.003(3)
_cell_length_c                   13.038(3)
_cell_angle_alpha                105.483(5)
_cell_angle_beta                 98.771(2)
_cell_angle_gamma                111.440(4)
_cell_volume                     1091.49
_exptl_crystal_colour            colorless
_exptl_crystal_description       Prism
_cell_formula_units_Z            2
loop_
_atom_site_label
_atom_site_type_symbol
_atom_site_fract_x
_atom_site_fract_y
_atom_site_fract_z
O1 O 0.86570(10) 0.75262(10) 0.24306(8)
O2 O 0.74723(11) 0.64068(11) 0.35618(8)
O3 O 0.47099(11) 0.38859(11) 0.12723(8)
O4 O 0.17254(11) 0.42442(11) 0.06794(8)
N1 N 0.62773(12) 0.72522(12) 0.24201(9)
N2 N 0.46926(12) 0.79871(12) 0.15315(9)
N3 N 0.37617(12) 0.65753(12) 0.16655(9)
N4 N 0.37697(13) 0.39594(12) 0.27974(9)
C1 C 0.79115(16) 1.05767(16) 0.26843(12)
H1 H 0.7500 1.0416 0.3280
C2 C 0.90130(17) 1.20166(17) 0.28165(13)
H2 H 0.9359 1.2836 0.3504
C3 C 0.96056(16) 1.22566(16) 0.19482(13)
H3 H 1.0346 1.3245 0.2036
C4 C 0.91213(16) 1.10610(16) 0.09539(12)
H4 H 0.9538 1.1225 0.0361
C5 C 0.80231(15) 0.96151(16) 0.08190(12)
H5 H 0.7693 0.8794 0.0135
C6 C 0.74108(15) 0.93724(15) 0.16822(11)
C7 C 0.61492(14) 0.78324(14) 0.14985(11)
H6 H 0.6022 0.7054 0.0782
C8 C 0.75001(15) 0.70085(15) 0.28699(11)
C9 C 1.02287(14) 0.77347(15) 0.29407(11)
C10 C 1.02390(17) 0.62397(16) 0.29916(13)
H7 H 0.9741 0.5962 0.3551
H8 H 1.1305 0.6365 0.3190
H9 H 0.9678 0.5427 0.2266
C11 C 1.10778(17) 0.82493(17) 0.21310(13)
H10 H 1.0630 0.7427 0.1404
H11 H 1.2168 0.8485 0.2402
H12 H 1.0984 0.9167 0.2065
C12 C 1.08539(17) 0.89844(17) 0.40763(12)
H13 H 1.0771 0.9906 0.4008
H14 H 1.1937 0.9224 0.4384
H15 H 1.0257 0.8629 0.4569
C13 C 0.47400(14) 0.62812(15) 0.24610(11)
C14 C 0.43886(14) 0.65338(15) 0.35637(11)
C15 C 0.45265(15) 0.78402(16) 0.43547(11)
H16 H 0.4983 0.8814 0.4280
C16 C 0.39805(16) 0.77003(17) 0.52668(12)
H17 H 0.4068 0.8588 0.5822
C17 C 0.33097(16) 0.62742(17) 0.53703(12)
H18 H 0.2934 0.6200 0.5994
C18 C 0.31756(15) 0.49495(16) 0.45779(11)
H19 H 0.2717 0.3974 0.4649
C19 C 0.37355(14) 0.51100(15) 0.36863(11)
C20 C 0.44071(15) 0.45471(15) 0.20707(11)
C21 C 0.32382(17) 0.23481(15) 0.26685(13)
H20 H 0.2121 0.1819 0.2337
H21 H 0.3491 0.2256 0.3396
H22 H 0.3745 0.1883 0.2185
C22 C 0.25863(15) 0.55212(16) 0.07384(11)
C23 C 0.25524(16) 0.62844(16) -0.01088(11)
H23 H 0.1529 0.6275 -0.0341
H24 H 0.2785 0.5755 -0.0771
C24 C 0.37923(16) 0.79285(16) 0.04711(12)
H25 H 0.4475 0.8212 -0.0002
H26 H 0.3312 0.8653 0.0622
loop_
_geom_bond_atom_site_label_1
_geom_bond_atom_site_label_2
_geom_bond_site_symmetry_1
_geom_bond_site_symmetry_2
O1 C8 1_555 1_555
O2 C8 1_555 1_555
O3 C20 1_555 1_555
O4 C22 1_555 1_555
N1 C7 1_555 1_555
N2 N3 1_555 1_555
N3 C13 1_555 1_555
N4 C19 1_555 1_555
C1 H1 1_555 1_555
C2 C1 1_555 1_555
H2 C2 1_555 1_555
C3 C2 1_555 1_555
H3 C3 1_555 1_555
C4 C3 1_555 1_555
H4 C4 1_555 1_555
C5 C4 1_555 1_555
H5 C5 1_555 1_555
C6 C1 1_555 1_555
C7 N2 1_555 1_555
H6 C7 1_555 1_555
C8 N1 1_555 1_555
C9 O1 1_555 1_555
C10 C9 1_555 1_555
H7 C10 1_555 1_555
H8 C10 1_555 1_555
H9 C10 1_555 1_555
C11 C9 1_555 1_555
H10 C11 1_555 1_555
H11 C11 1_555 1_555
H12 C11 1_555 1_555
C12 C9 1_555 1_555
H13 C12 1_555 1_555
H14 C12 1_555 1_555
H15 C12 1_555 1_555
C13 N1 1_555 1_555
C14 C13 1_555 1_555
C15 C14 1_555 1_555
H16 C15 1_555 1_555
C16 C15 1_555 1_555
H17 C16 1_555 1_555
C17 C16 1_555 1_555
H18 C17 1_555 1_555
C18 C17 1_555 1_555
H19 C18 1_555 1_555
C19 C14 1_555 1_555
C20 N4 1_555 1_555
C21 N4 1_555 1_555
H20 C21 1_555 1_555
H21 C21 1_555 1_555
H22 C21 1_555 1_555
C22 N3 1_555 1_555
C23 C22 1_555 1_555
H23 C23 1_555 1_555
H24 C23 1_555 1_555
C24 N2 1_555 1_555
H25 C24 1_555 1_555
H26 C24 1_555 1_555
C5 C6 1_555 1_555
C6 C7 1_555 1_555
C13 C20 1_555 1_555
C18 C19 1_555 1_555
C23 C24 1_555 1_555

#END
