
#######################################################################
#
#                 Cambridge Crystallographic Data Centre
#                                CCDC 
#
#######################################################################
#
# If this CIF has been generated from an entry in the Cambridge 
# Structural Database, then it will include bibliographic, chemical, 
# crystal, experimental, refinement or atomic coordinate data resulting 
# from the CCDC's data processing and validation procedures.
#
#######################################################################

data_WAGDUG
_chemical_formula_moiety         'C26 H21 N1 O4 S1'
_chemical_name_systematic        
'methyl 4-(1,1-dioxido-1,2-benzothiazol-3-yl)-3,5-diphenylcyclopent-1-ene-1-carboxylate'
_symmetry_cell_setting           monoclinic
_symmetry_space_group_name_H-M   'P 21/n'
_symmetry_Int_Tables_number      14
_space_group_name_Hall           '-P 2yn'
loop_
_symmetry_equiv_pos_site_id
_symmetry_equiv_pos_as_xyz
1 x,y,z
2 1/2-x,1/2+y,1/2-z
3 -x,-y,-z
4 1/2+x,1/2-y,1/2+z
_cell_length_a                   15.5173(4)
_cell_length_b                   9.24556(19)
_cell_length_c                   15.6647(5)
_cell_angle_alpha                90
_cell_angle_beta                 90.404(2)
_cell_angle_gamma                90
_cell_volume                     2247.3
_exptl_crystal_colour            colorless
_cell_formula_units_Z            4
loop_
_atom_site_label
_atom_site_type_symbol
_atom_site_fract_x
_atom_site_fract_y
_atom_site_fract_z
S1 S 0.65136(6) 0.17703(8) 0.48616(7)
N1 N 0.72098(16) 0.3144(3) 0.47396(18)
O1 O 0.98681(15) 0.7914(4) 0.34950(18)
O2 O 0.6383(2) 0.1532(3) 0.5752(2)
C1 C 0.73045(14) 0.5592(3) 0.41904(16)
H1 H 0.6950 0.6402 0.4388
C2 C 0.68261(15) 0.4222(3) 0.43927(16)
C3 C 0.82011(14) 0.5744(3) 0.46197(17)
H2 H 0.8459 0.4781 0.4680
C4 C 0.74591(16) 0.5815(3) 0.32050(17)
H3 H 0.7548 0.4864 0.2944
O3 O 0.6791(2) 0.0585(3) 0.4358(2)
O4 O 0.99823(18) 0.6861(5) 0.4736(2)
C5 C 0.86893(15) 0.6578(3) 0.39464(18)
C6 C 0.81452(15) 0.6437(3) 0.54897(18)
C7 C 0.58895(16) 0.4044(3) 0.41980(17)
C8 C 0.67618(17) 0.6585(3) 0.27132(19)
C9 C 0.83018(16) 0.6608(3) 0.32050(18)
H4 H 0.8524 0.7072 0.2728
C10 C 0.95676(18) 0.7144(4) 0.4122(2)
C11 C 0.64255(19) 0.7888(3) 0.3000(2)
H5 H 0.6632 0.8309 0.3500
C12 C 0.79721(18) 0.7892(4) 0.5584(2)
H6 H 0.7907 0.8463 0.5099
C13 C 0.52992(17) 0.5017(4) 0.3869(2)
H7 H 0.5461 0.5958 0.3734
C14 C 0.5626(2) 0.2667(4) 0.4401(2)
C15 C 0.4460(2) 0.4552(5) 0.3746(2)
H8 H 0.4054 0.5200 0.3532
C16 C 0.8240(2) 0.5633(5) 0.6218(2)
H9 H 0.8351 0.4647 0.6175
C17 C 0.6451(2) 0.6018(5) 0.1953(2)
H10 H 0.6669 0.5145 0.1754
C18 C 0.7893(2) 0.8522(5) 0.6375(3)
H11 H 0.7771 0.9504 0.6413
C19 C 0.5777(2) 0.8552(4) 0.2528(3)
H12 H 0.5539 0.9411 0.2725
C20 C 0.8174(3) 0.6258(7) 0.7023(3)
H13 H 0.8251 0.5700 0.7512
C21 C 0.5481(3) 0.7969(6) 0.1780(3)
H14 H 0.5046 0.8426 0.1470
C22 C 0.7988(2) 0.7747(6) 0.7090(3)
H15 H 0.7933 0.8182 0.7623
C23 C 0.4788(3) 0.2204(5) 0.4271(3)
H16 H 0.4620 0.1267 0.4408
C24 C 0.4209(2) 0.3183(6) 0.3929(3)
H17 H 0.3643 0.2901 0.3823
C25 C 0.5831(3) 0.6713(6) 0.1494(3)
H18 H 0.5644 0.6325 0.0977
C26 C 1.0709(3) 0.8562(7) 0.3620(4)
H19 H 1.1095 0.8216 0.3188
H20 H 1.0929 0.8303 0.4173
H21 H 1.0661 0.9595 0.3580
loop_
_geom_bond_atom_site_label_1
_geom_bond_atom_site_label_2
_geom_bond_site_symmetry_1
_geom_bond_site_symmetry_2
S1 N1 1_555 1_555
N1 C2 1_555 1_555
O1 C10 1_555 1_555
O2 S1 1_555 1_555
C1 H1 1_555 1_555
C2 C1 1_555 1_555
C3 C1 1_555 1_555
H2 C3 1_555 1_555
C4 C1 1_555 1_555
H3 C4 1_555 1_555
O3 S1 1_555 1_555
O4 C10 1_555 1_555
C5 C3 1_555 1_555
C6 C3 1_555 1_555
C7 C2 1_555 1_555
C8 C4 1_555 1_555
C9 C4 1_555 1_555
H4 C9 1_555 1_555
C10 C5 1_555 1_555
C11 C8 1_555 1_555
H5 C11 1_555 1_555
C12 C6 1_555 1_555
H6 C12 1_555 1_555
C13 C7 1_555 1_555
H7 C13 1_555 1_555
C14 S1 1_555 1_555
C15 C13 1_555 1_555
H8 C15 1_555 1_555
C16 C6 1_555 1_555
H9 C16 1_555 1_555
C17 C8 1_555 1_555
H10 C17 1_555 1_555
C18 C12 1_555 1_555
H11 C18 1_555 1_555
C19 C11 1_555 1_555
H12 C19 1_555 1_555
C20 C16 1_555 1_555
H13 C20 1_555 1_555
C21 C19 1_555 1_555
H14 C21 1_555 1_555
C22 C18 1_555 1_555
H15 C22 1_555 1_555
C23 C14 1_555 1_555
H16 C23 1_555 1_555
C24 C15 1_555 1_555
H17 C24 1_555 1_555
C25 C17 1_555 1_555
H18 C25 1_555 1_555
C26 O1 1_555 1_555
H19 C26 1_555 1_555
H20 C26 1_555 1_555
H21 C26 1_555 1_555
C5 C9 1_555 1_555
C7 C14 1_555 1_555
C20 C22 1_555 1_555
C21 C25 1_555 1_555
C23 C24 1_555 1_555

#END
