
#######################################################################
#
#                 Cambridge Crystallographic Data Centre
#                                CCDC 
#
#######################################################################
#
# If this CIF has been generated from an entry in the Cambridge 
# Structural Database, then it will include bibliographic, chemical, 
# crystal, experimental, refinement or atomic coordinate data resulting 
# from the CCDC's data processing and validation procedures.
#
#######################################################################

data_WAGFAO
_chemical_formula_moiety         'C28 H24 N2 O5 S1'
_chemical_name_systematic        
"methyl 5-(1,1-dioxido-2,3-dihydro-1,2-benzothiazol-3-yl)-1'-methyl-2'-oxo-4-phenyl-1',2'-dihydrospiro[cyclopent-2-ene-1,3'-indole]-2-carboxylate"
_symmetry_cell_setting           orthorhombic
_symmetry_space_group_name_H-M   'P 21 21 21'
_symmetry_Int_Tables_number      19
_space_group_name_Hall           'P 2ac 2ab'
loop_
_symmetry_equiv_pos_site_id
_symmetry_equiv_pos_as_xyz
1 x,y,z
2 1/2-x,-y,1/2+z
3 -x,1/2+y,1/2-z
4 1/2+x,1/2-y,-z
_cell_length_a                   8.7970(12)
_cell_length_b                   12.2522(17)
_cell_length_c                   22.914(3)
_cell_angle_alpha                90
_cell_angle_beta                 90
_cell_angle_gamma                90
_cell_volume                     2469.73
_exptl_crystal_colour            colorless
_exptl_crystal_description       Prism
_cell_formula_units_Z            4
loop_
_atom_site_label
_atom_site_type_symbol
_atom_site_fract_x
_atom_site_fract_y
_atom_site_fract_z
S1 S 0.73266(5) 0.28430(4) 0.32548(2)
O1 O 0.62729(17) 0.19547(11) 0.32158(9)
O2 O 0.88123(16) 0.26280(12) 0.34793(7)
O3 O 0.32928(15) 0.26270(11) 0.43023(7)
O4 O 0.09585(15) 0.45793(11) 0.47391(6)
O5 O -0.09049(14) 0.49799(12) 0.41087(6)
N1 N 0.65357(16) 0.38424(13) 0.36215(6)
N2 N 0.44611(18) 0.40501(16) 0.47849(6)
C1 C 0.7334(2) 0.35398(16) 0.25857(8)
C2 C 0.8214(3) 0.3322(3) 0.21005(10)
H1 H 0.8888 0.2717 0.2091
C3 C 0.8076(3) 0.4013(3) 0.16335(10)
H2 H 0.8674 0.3894 0.1294
C4 C 0.7068(3) 0.4891(3) 0.16518(9)
H3 H 0.6990 0.5361 0.1323
C5 C 0.6173(2) 0.50927(19) 0.21415(8)
H4 H 0.5481 0.5688 0.2150
C6 C 0.63219(18) 0.43995(14) 0.26177(7)
C7 C 0.56056(16) 0.45294(13) 0.32167(7)
H5 H 0.5696 0.5310 0.3339
C8 C 0.39387(17) 0.41727(12) 0.32805(7)
H6 H 0.3924 0.3358 0.3254
C9 C 0.27828(18) 0.46040(13) 0.28250(7)
H7 H 0.3116 0.5339 0.2685
C10 C 0.13605(18) 0.47254(13) 0.31855(8)
H8 H 0.0387 0.4860 0.3021
C11 C 0.15996(18) 0.46268(13) 0.37556(8)
C12 C 0.32759(17) 0.44814(13) 0.38929(7)
C13 C 0.39314(18) 0.54816(15) 0.41837(7)
C14 C 0.3897(2) 0.65672(15) 0.40167(9)
H9 H 0.3383 0.6786 0.3671
C15 C 0.4634(3) 0.7331(2) 0.43669(11)
H10 H 0.4612 0.8080 0.4261
C16 C 0.5385(3) 0.7020(3) 0.48584(13)
H11 H 0.5894 0.7556 0.5086
C17 C 0.5422(3) 0.5935(3) 0.50353(10)
H12 H 0.5955 0.5721 0.5377
C18 C 0.4654(2) 0.51709(19) 0.46954(8)
C19 C 0.36392(19) 0.35867(15) 0.43397(8)
C20 C 0.5052(4) 0.3453(3) 0.52816(10)
H13 H 0.4602 0.2722 0.5291
H14 H 0.4795 0.3843 0.5642
H15 H 0.6160 0.3392 0.5248
C21 C 0.25301(18) 0.38636(13) 0.23041(7)
C22 C 0.22267(19) 0.27596(14) 0.23751(8)
H16 H 0.2230 0.2454 0.2756
C23 C 0.19188(19) 0.20942(15) 0.18979(9)
H17 H 0.1725 0.1339 0.1954
C24 C 0.1895(2) 0.25322(16) 0.13393(9)
H18 H 0.1683 0.2080 0.1012
C25 C 0.2179(2) 0.36251(17) 0.12634(8)
H19 H 0.2160 0.3928 0.0882
C26 C 0.2493(2) 0.42939(15) 0.17378(8)
H20 H 0.2685 0.5049 0.1678
C27 C 0.04104(19) 0.47438(13) 0.42033(8)
C28 C -0.0114(3) 0.46520(18) 0.52160(10)
H21 H -0.0728 0.5314 0.5172
H22 H 0.0439 0.4680 0.5587
H23 H -0.0780 0.4011 0.5212
H24 H 0.729(3) 0.423(2) 0.3764(10)
loop_
_geom_bond_atom_site_label_1
_geom_bond_atom_site_label_2
_geom_bond_site_symmetry_1
_geom_bond_site_symmetry_2
S1 O1 1_555 1_555
O2 S1 1_555 1_555
O3 C19 1_555 1_555
O4 C27 1_555 1_555
O5 C27 1_555 1_555
N1 S1 1_555 1_555
N2 C18 1_555 1_555
C1 S1 1_555 1_555
C2 C1 1_555 1_555
H1 C2 1_555 1_555
C3 C2 1_555 1_555
H2 C3 1_555 1_555
C4 C3 1_555 1_555
H3 C4 1_555 1_555
C5 C4 1_555 1_555
H4 C5 1_555 1_555
C6 C1 1_555 1_555
C7 N1 1_555 1_555
H5 C7 1_555 1_555
C8 C7 1_555 1_555
H6 C8 1_555 1_555
C9 C8 1_555 1_555
H7 C9 1_555 1_555
C10 C9 1_555 1_555
H8 C10 1_555 1_555
C11 C10 1_555 1_555
C12 C8 1_555 1_555
C13 C12 1_555 1_555
C14 C13 1_555 1_555
H9 C14 1_555 1_555
C15 C14 1_555 1_555
H10 C15 1_555 1_555
C16 C15 1_555 1_555
H11 C16 1_555 1_555
C17 C16 1_555 1_555
H12 C17 1_555 1_555
C18 C13 1_555 1_555
C19 N2 1_555 1_555
C20 N2 1_555 1_555
H13 C20 1_555 1_555
H14 C20 1_555 1_555
H15 C20 1_555 1_555
C21 C9 1_555 1_555
C22 C21 1_555 1_555
H16 C22 1_555 1_555
C23 C22 1_555 1_555
H17 C23 1_555 1_555
C24 C23 1_555 1_555
H18 C24 1_555 1_555
C25 C24 1_555 1_555
H19 C25 1_555 1_555
C26 C21 1_555 1_555
H20 C26 1_555 1_555
C27 C11 1_555 1_555
C28 O4 1_555 1_555
H21 C28 1_555 1_555
H22 C28 1_555 1_555
H23 C28 1_555 1_555
H24 N1 1_555 1_555
C5 C6 1_555 1_555
C6 C7 1_555 1_555
C11 C12 1_555 1_555
C12 C19 1_555 1_555
C17 C18 1_555 1_555
C25 C26 1_555 1_555

#END
