
#######################################################################
#
#                 Cambridge Crystallographic Data Centre
#                                CCDC 
#
#######################################################################
#
# If this CIF has been generated from an entry in the Cambridge 
# Structural Database, then it will include bibliographic, chemical, 
# crystal, experimental, refinement or atomic coordinate data resulting 
# from the CCDC's data processing and validation procedures.
#
#######################################################################

data_WAGHER
_chemical_formula_moiety         'C18 H20 S6'
_chemical_name_systematic        
tris(4,5-Dimethyl-1,3-dithiole-2-ylidene)-(3)-dendralene
_symmetry_cell_setting           triclinic
_symmetry_space_group_name_H-M   'P -1'
_symmetry_Int_Tables_number      2
_space_group_name_Hall           '-P 1'
loop_
_symmetry_equiv_pos_site_id
_symmetry_equiv_pos_as_xyz
1 x,y,z
2 -x,-y,-z
_cell_length_a                   9.968(3)
_cell_length_b                   10.636(5)
_cell_length_c                   12.085(5)
_cell_angle_alpha                65.89(3)
_cell_angle_beta                 67.07(3)
_cell_angle_gamma                67.52(4)
_cell_volume                     1038.4
_exptl_crystal_colour            yellow
_chemical_melting_point          'above 230deg.C'
_cell_formula_units_Z            2
loop_
_atom_site_label
_atom_site_type_symbol
_atom_site_fract_x
_atom_site_fract_y
_atom_site_fract_z
S1 S 0.6277(2) 0.1146(2) 0.3531(2)
S2 S 0.7148(2) -0.0831(2) 0.2123(2)
S3 S 0.0238(2) 0.3773(2) 0.2890(2)
S4 S 0.1680(2) 0.1972(2) 0.1242(2)
S5 S 0.3151(2) 0.4785(2) 0.4396(2)
S6 S 0.3696(2) 0.5080(2) 0.1764(2)
C1 C 0.4390(7) 0.1009(7) 0.2388(6)
C2 C 0.5748(7) 0.0520(7) 0.2650(6)
C3 C 0.8057(6) -0.0069(7) 0.3449(5)
C4 C 0.8470(6) -0.0968(7) 0.2815(6)
C5 C 0.8963(7) 0.0017(7) 0.4153(6)
C6 C 0.9902(9) -0.2118(10) 0.2674(9)
C7 C 0.3116(7) 0.2084(7) 0.2756(6)
C8 C 0.1849(6) 0.2546(7) 0.2341(6)
C9 C -0.0842(7) 0.3845(7) 0.2001(7)
C10 C -0.0188(7) 0.3010(8) 0.1272(6)
C11 C -0.2399(7) 0.4819(8) 0.2171(8)
C12 C -0.0860(9) 0.2875(10) 0.0410(7)
C13 C 0.3077(6) 0.2710(6) 0.3681(6)
C14 C 0.3270(6) 0.4005(6) 0.3335(5)
C15 C 0.3574(6) 0.6354(7) 0.3286(7)
C16 C 0.3836(6) 0.6484(6) 0.2084(7)
C17 C 0.3587(9) 0.7402(8) 0.3797(8)
C18 C 0.4207(8) 0.7724(8) 0.0950(7)
H1 H 0.4298 0.0567 0.1878
H2 H 0.9920 -0.0687 0.4059
H3 H 0.9125 0.0952 0.3806
H4 H 0.8428 -0.0151 0.5032
H5 H 1.0538 -0.2092 0.3086
H6 H 0.9673 -0.3026 0.3048
H7 H 1.0416 -0.1982 0.1793
H8 H -0.2900 0.4783 0.1653
H9 H -0.2959 0.4532 0.3041
H10 H -0.2335 0.5777 0.1939
H11 H -0.1877 0.3470 0.0480
H12 H -0.0255 0.3161 -0.0445
H13 H -0.0857 0.1896 0.0645
H14 H 0.2906 0.2163 0.4558
H15 H 0.3822 0.8238 0.3130
H16 H 0.2607 0.7669 0.4356
H17 H 0.4330 0.6963 0.4258
H18 H 0.4249 0.8440 0.1217
H19 H 0.5167 0.7407 0.0390
H20 H 0.3438 0.8120 0.0519
loop_
_geom_bond_atom_site_label_1
_geom_bond_atom_site_label_2
_geom_bond_site_symmetry_1
_geom_bond_site_symmetry_2
S1 C2 1_555 1_555
S2 C2 1_555 1_555
S3 C8 1_555 1_555
S4 C8 1_555 1_555
S5 C14 1_555 1_555
S6 C14 1_555 1_555
C1 C2 1_555 1_555
C3 S1 1_555 1_555
C4 S2 1_555 1_555
C5 C3 1_555 1_555
C6 C4 1_555 1_555
C7 C1 1_555 1_555
C8 C7 1_555 1_555
C9 S3 1_555 1_555
C10 S4 1_555 1_555
C11 C9 1_555 1_555
C12 C10 1_555 1_555
C13 C7 1_555 1_555
C14 C13 1_555 1_555
C15 S5 1_555 1_555
C16 S6 1_555 1_555
C17 C15 1_555 1_555
C18 C16 1_555 1_555
H1 C1 1_555 1_555
H2 C5 1_555 1_555
H3 C5 1_555 1_555
H4 C5 1_555 1_555
H5 C6 1_555 1_555
H6 C6 1_555 1_555
H7 C6 1_555 1_555
H8 C11 1_555 1_555
H9 C11 1_555 1_555
H10 C11 1_555 1_555
H11 C12 1_555 1_555
H12 C12 1_555 1_555
H13 C12 1_555 1_555
H14 C13 1_555 1_555
H15 C17 1_555 1_555
H16 C17 1_555 1_555
H17 C17 1_555 1_555
H18 C18 1_555 1_555
H19 C18 1_555 1_555
H20 C18 1_555 1_555
C3 C4 1_555 1_555
C9 C10 1_555 1_555
C15 C16 1_555 1_555

#END
