
#######################################################################
#
#                 Cambridge Crystallographic Data Centre
#                                CCDC 
#
#######################################################################
#
# If this CIF has been generated from an entry in the Cambridge 
# Structural Database, then it will include bibliographic, chemical, 
# crystal, experimental, refinement or atomic coordinate data resulting 
# from the CCDC's data processing and validation procedures.
#
#######################################################################

data_WAGMOJ
_chemical_formula_moiety         'C19 H15 Br1 O4'
_chemical_name_systematic        
3-(2-(4-bromophenyl)-2-oxoethyl)-3a,9a-dihydro-4H-furo[2,3-b]chromen-2(3H)-one
_symmetry_cell_setting           monoclinic
_symmetry_space_group_name_H-M   'P 21'
_symmetry_Int_Tables_number      4
_space_group_name_Hall           'P 2yb'
loop_
_symmetry_equiv_pos_site_id
_symmetry_equiv_pos_as_xyz
1 x,y,z
2 -x,1/2+y,-z
_cell_length_a                   10.8044(14)
_cell_length_b                   6.7767(8)
_cell_length_c                   12.3031(14)
_cell_angle_alpha                90
_cell_angle_beta                 113.354(15)
_cell_angle_gamma                90
_cell_volume                     827.01
_exptl_crystal_colour            colorless
_exptl_crystal_description       block
_cell_formula_units_Z            2
loop_
_atom_site_label
_atom_site_type_symbol
_atom_site_fract_x
_atom_site_fract_y
_atom_site_fract_z
Br1 Br 0.92816(12) 0.0671(2) 0.04645(10)
O1 O 0.5921(7) 0.8376(13) 0.1617(6)
O2 O 0.9320(7) 1.2832(13) 0.4394(6)
O3 O 0.7808(7) 1.2780(10) 0.5202(6)
O4 O 0.6275(7) 1.1742(10) 0.5945(5)
C1 C 0.8610(9) 0.2948(14) 0.0971(7)
C2 C 0.9522(9) 0.4231(15) 0.1738(7)
H1 H 1.0444 0.4006 0.1998
C3 C 0.9036(8) 0.5866(18) 0.2114(6)
H2 H 0.9638 0.6747 0.2641
C4 C 0.7668(8) 0.6204(15) 0.1716(6)
C5 C 0.6790(9) 0.4904(16) 0.0914(8)
H3 H 0.5869 0.5153 0.0624
C6 C 0.7239(9) 0.3256(16) 0.0534(7)
H4 H 0.6639 0.2380 0.0002
C7 C 0.7097(8) 0.7969(16) 0.2092(7)
C8 C 0.8058(8) 0.9230(16) 0.3077(7)
H5 H 0.8642 0.9944 0.2786
H6 H 0.8620 0.8382 0.3718
C9 C 0.7328(8) 1.0710(18) 0.3558(6)
H7 H 0.6678 1.1431 0.2882
C10 C 0.6575(8) 0.9944(13) 0.4307(6)
H8 H 0.5673 0.9449 0.3813
C11 C 0.6517(9) 1.1833(14) 0.4919(7)
H9 H 0.5821 1.2671 0.4349
C12 C 0.8299(10) 1.2204(14) 0.4377(7)
C13 C 0.7429(9) 0.8382(14) 0.5208(8)
H10 H 0.7315 0.7103 0.4827
H11 H 0.8376 0.8735 0.5501
C14 C 0.6972(8) 0.8287(14) 0.6239(7)
C15 C 0.7105(9) 0.6594(16) 0.6896(7)
H12 H 0.7462 0.5460 0.6707
C16 C 0.6710(11) 0.6576(18) 0.7836(8)
H13 H 0.6784 0.5425 0.8270
C17 C 0.6208(11) 0.8256(19) 0.8125(8)
H14 H 0.5960 0.8234 0.8768
C18 C 0.6062(10) 0.9962(16) 0.7500(7)
H15 H 0.5699 1.1083 0.7697
C19 C 0.6472(8) 0.9990(14) 0.6552(7)
loop_
_geom_bond_atom_site_label_1
_geom_bond_atom_site_label_2
_geom_bond_site_symmetry_1
_geom_bond_site_symmetry_2
Br1 C1 1_555 1_555
O1 C7 1_555 1_555
O2 C12 1_555 1_555
O3 C11 1_555 1_555
O4 C11 1_555 1_555
C1 C2 1_555 1_555
C2 H1 1_555 1_555
C3 C2 1_555 1_555
H2 C3 1_555 1_555
C4 C3 1_555 1_555
C5 C4 1_555 1_555
H3 C5 1_555 1_555
C6 C1 1_555 1_555
H4 C6 1_555 1_555
C7 C4 1_555 1_555
C8 C7 1_555 1_555
H5 C8 1_555 1_555
H6 C8 1_555 1_555
C9 C8 1_555 1_555
H7 C9 1_555 1_555
C10 C9 1_555 1_555
H8 C10 1_555 1_555
C11 C10 1_555 1_555
H9 C11 1_555 1_555
C12 O3 1_555 1_555
C13 C10 1_555 1_555
H10 C13 1_555 1_555
H11 C13 1_555 1_555
C14 C13 1_555 1_555
C15 C14 1_555 1_555
H12 C15 1_555 1_555
C16 C15 1_555 1_555
H13 C16 1_555 1_555
C17 C16 1_555 1_555
H14 C17 1_555 1_555
C18 C17 1_555 1_555
H15 C18 1_555 1_555
C19 O4 1_555 1_555
C5 C6 1_555 1_555
C9 C12 1_555 1_555
C14 C19 1_555 1_555
C18 C19 1_555 1_555

#END
