
#######################################################################
#
#                 Cambridge Crystallographic Data Centre
#                                CCDC 
#
#######################################################################
#
# If this CIF has been generated from an entry in the Cambridge 
# Structural Database, then it will include bibliographic, chemical, 
# crystal, experimental, refinement or atomic coordinate data resulting 
# from the CCDC's data processing and validation procedures.
#
#######################################################################

data_WAGROM
_chemical_formula_moiety         'C19 H18 N4 O3'
_chemical_name_systematic        
'Ethyl 5-anilinocarbonyl-1-benzyl-1H-1,2,3-triazole-4-carboxylate'
_symmetry_cell_setting           monoclinic
_symmetry_space_group_name_H-M   'P 21/c'
_symmetry_Int_Tables_number      14
_space_group_name_Hall           '-P 2ybc'
loop_
_symmetry_equiv_pos_site_id
_symmetry_equiv_pos_as_xyz
1 x,y,z
2 -x,1/2+y,1/2-z
3 -x,-y,-z
4 x,1/2-y,1/2+z
_cell_length_a                   5.6619(6)
_cell_length_b                   22.918(3)
_cell_length_c                   13.2320(15)
_cell_angle_alpha                90
_cell_angle_beta                 99.670(2)
_cell_angle_gamma                90
_cell_volume                     1692.58
_exptl_crystal_colour            white
_exptl_crystal_description       prisms
_chemical_melting_point          '141-142 deg.C'
_cell_formula_units_Z            4
loop_
_atom_site_label
_atom_site_type_symbol
_atom_site_fract_x
_atom_site_fract_y
_atom_site_fract_z
N1 N 0.2525(3) 0.3809(1) 0.8419(1)
N2 N 0.0656(3) 0.3488(1) 0.7952(1)
N3 N 0.0812(3) 0.3456(1) 0.6981(1)
C1 C 0.2772(3) 0.3756(1) 0.6813(1)
C2 C 0.3908(3) 0.3989(1) 0.7737(1)
C3 C 0.2687(3) 0.3890(1) 0.9526(1)
C4 C 0.3935(3) 0.3389(1) 1.0135(1)
C5 C 0.3133(3) 0.3219(1) 1.1018(2)
C6 C 0.4272(4) 0.2779(1) 1.1631(2)
C7 C 0.6217(4) 0.2502(1) 1.1354(2)
C8 C 0.7016(3) 0.2660(1) 1.0474(2)
C9 C 0.5888(3) 0.3103(1) 0.9862(2)
C10 C 0.3317(4) 0.3788(1) 0.5766(2)
O1 O 0.4858(2) 0.4095(1) 0.5504(1)
O2 O 0.1883(2) 0.3448(1) 0.5132(1)
C11 C 0.2246(3) 0.3435(1) 0.4071(1)
C12 C 0.0300(4) 0.3051(1) 0.3516(1)
C13 C 0.6085(3) 0.4358(1) 0.8077(2)
O3 O 0.6835(2) 0.4432(1) 0.8992(1)
N4 N 0.7054(3) 0.4587(1) 0.7308(1)
C14 C 0.9064(3) 0.4957(1) 0.7393(2)
C15 C 1.0088(3) 0.5235(1) 0.8291(2)
C16 C 1.2056(4) 0.5592(1) 0.8291(2)
C17 C 1.3019(4) 0.5675(1) 0.7413(2)
C18 C 1.2002(3) 0.5403(1) 0.6516(2)
C19 C 1.0030(3) 0.5046(1) 0.6505(2)
H1 H 0.1052 0.3931 0.9689
H2 H 0.3569 0.4255 0.9732
H3 H 0.1777 0.3406 1.1208
H4 H 0.3710 0.2669 1.2241
H5 H 0.7007 0.2200 1.1774
H6 H 0.8353 0.2465 1.0281
H7 H 0.6456 0.3211 0.9252
H8 H 0.3844 0.3273 0.4021
H9 H 0.2128 0.3833 0.3776
H10 H 0.0459 0.3026 0.2791
H11 H -0.1266 0.3217 0.3575
H12 H 0.0439 0.2660 0.3820
H13 H 0.6410(30) 0.4470(8) 0.6669(15)
H14 H 0.9442 0.5180 0.8902
H15 H 1.2755 0.5782 0.8907
H16 H 1.4379 0.5919 0.7425
H17 H 1.2654 0.5461 0.5907
H18 H 0.9328 0.4859 0.5886
loop_
_geom_bond_atom_site_label_1
_geom_bond_atom_site_label_2
_geom_bond_site_symmetry_1
_geom_bond_site_symmetry_2
N1 N2 1_555 1_555
N2 N3 1_555 1_555
N3 C1 1_555 1_555
C1 C2 1_555 1_555
C2 N1 1_555 1_555
C3 N1 1_555 1_555
C4 C3 1_555 1_555
C5 C4 1_555 1_555
C6 C5 1_555 1_555
C7 C6 1_555 1_555
C8 C7 1_555 1_555
C9 C4 1_555 1_555
C10 C1 1_555 1_555
O1 C10 1_555 1_555
O2 C10 1_555 1_555
C11 O2 1_555 1_555
C12 C11 1_555 1_555
C13 C2 1_555 1_555
O3 C13 1_555 1_555
N4 C13 1_555 1_555
C14 N4 1_555 1_555
C15 C14 1_555 1_555
C16 C15 1_555 1_555
C17 C16 1_555 1_555
C18 C17 1_555 1_555
C19 C14 1_555 1_555
H1 C3 1_555 1_555
H2 C3 1_555 1_555
H3 C5 1_555 1_555
H4 C6 1_555 1_555
H5 C7 1_555 1_555
H6 C8 1_555 1_555
H7 C9 1_555 1_555
H8 C11 1_555 1_555
H9 C11 1_555 1_555
H10 C12 1_555 1_555
H11 C12 1_555 1_555
H12 C12 1_555 1_555
H13 N4 1_555 1_555
H14 C15 1_555 1_555
H15 C16 1_555 1_555
H16 C17 1_555 1_555
H17 C18 1_555 1_555
H18 C19 1_555 1_555
C8 C9 1_555 1_555
C18 C19 1_555 1_555

#END
