
#######################################################################
#
#                 Cambridge Crystallographic Data Centre
#                                CCDC 
#
#######################################################################
#
# If this CIF has been generated from an entry in the Cambridge 
# Structural Database, then it will include bibliographic, chemical, 
# crystal, experimental, refinement or atomic coordinate data resulting 
# from the CCDC's data processing and validation procedures.
#
#######################################################################

data_WAGSEF
_chemical_formula_moiety         'C18 H26 N2 O2'
_chemical_name_systematic        
'4-(cyclohexylamino)-6-(cyclohexyliminio)-3-oxocyclohexa-1,4-dien-1-olate unknown solvate'
_symmetry_cell_setting           tetragonal
_symmetry_space_group_name_H-M   'P 41 21 2'
_symmetry_Int_Tables_number      92
_space_group_name_Hall           'P 4abw 2nw'
loop_
_symmetry_equiv_pos_site_id
_symmetry_equiv_pos_as_xyz
1 x,y,z
2 -x,-y,1/2+z
3 1/2+x,1/2-y,3/4-z
4 1/2-x,1/2+y,1/4-z
5 -y,-x,1/2-z
6 y,x,-z
7 1/2+y,1/2-x,3/4+z
8 1/2-y,1/2+x,1/4+z
_cell_length_a                   11.7927(2)
_cell_length_b                   11.7927(2)
_cell_length_c                   25.0037(5)
_cell_angle_alpha                90
_cell_angle_beta                 90
_cell_angle_gamma                90
_cell_volume                     3477.21
_exptl_crystal_colour            red
_exptl_crystal_description       block
_cell_formula_units_Z            8
loop_
_atom_site_label
_atom_site_type_symbol
_atom_site_fract_x
_atom_site_fract_y
_atom_site_fract_z
C1 C 0.51712(17) 0.05167(17) 0.20019(7)
H1 H 0.4938 0.0685 0.1647
C2 C 0.62628(17) 0.07817(16) 0.21754(7)
C3 C 0.66468(18) 0.05379(17) 0.27481(7)
C4 C 0.58543(19) 0.00726(18) 0.31006(8)
H2 H 0.6068 -0.0044 0.3463
C5 C 0.47654(18) -0.02266(17) 0.29420(7)
C6 C 0.44331(17) 0.00010(17) 0.23593(7)
C7 C 0.69773(18) 0.15774(18) 0.13150(7)
H3 H 0.6281 0.1228 0.1157
C8 C 0.6887(2) 0.28624(19) 0.12716(8)
H4 H 0.7551 0.3218 0.1447
H5 H 0.6195 0.3125 0.1458
C9 C 0.6841(2) 0.3222(2) 0.06851(8)
H6 H 0.6802 0.4059 0.0662
H7 H 0.6150 0.2907 0.0516
C10 C 0.7890(2) 0.2798(2) 0.03870(9)
H8 H 0.7839 0.3019 0.0006
H9 H 0.8577 0.3156 0.0540
C11 C 0.7989(2) 0.1516(2) 0.04299(9)
H10 H 0.8691 0.1262 0.0249
H11 H 0.7336 0.1158 0.0247
C12 C 0.8014(2) 0.1142(2) 0.10137(8)
H12 H 0.8033 0.0304 0.1031
H13 H 0.8710 0.1435 0.1186
C13 C 0.27981(18) -0.02906(19) 0.17376(8)
H14 H 0.3372 -0.0285 0.1443
C14 C 0.2085(2) 0.07820(19) 0.16942(10)
H15 H 0.2582 0.1456 0.1725
H16 H 0.1531 0.0806 0.1991
C15 C 0.1458(2) 0.0814(2) 0.11609(11)
H17 H 0.0962 0.1491 0.1149
H18 H 0.2014 0.0877 0.0866
C16 C 0.0742(2) -0.0248(2) 0.10816(11)
H19 H 0.0127 -0.0261 0.1351
H20 H 0.0389 -0.0227 0.0722
C17 C 0.1450(2) -0.1316(2) 0.11344(11)
H21 H 0.2016 -0.1344 0.0842
H22 H 0.0953 -0.1990 0.1101
C18 C 0.2058(2) -0.1346(2) 0.16745(10)
H23 H 0.1493 -0.1376 0.1967
H24 H 0.2537 -0.2035 0.1697
N1 N 0.70631(15) 0.12447(15) 0.18803(6)
H25 H 0.7719 0.1368 0.2038
N2 N 0.33988(15) -0.03444(17) 0.22500(7)
H26 H 0.3020 -0.0645 0.2518
O1 O 0.76555(13) 0.07749(14) 0.28612(6)
O2 O 0.40120(14) -0.06638(15) 0.32277(6)
loop_
_geom_bond_atom_site_label_1
_geom_bond_atom_site_label_2
_geom_bond_site_symmetry_1
_geom_bond_site_symmetry_2
C1 H1 1_555 1_555
C2 C1 1_555 1_555
C3 C2 1_555 1_555
C4 C3 1_555 1_555
H2 C4 1_555 1_555
C5 C4 1_555 1_555
C6 C1 1_555 1_555
C7 H3 1_555 1_555
C8 C7 1_555 1_555
H4 C8 1_555 1_555
H5 C8 1_555 1_555
C9 C8 1_555 1_555
H6 C9 1_555 1_555
H7 C9 1_555 1_555
C10 C9 1_555 1_555
H8 C10 1_555 1_555
H9 C10 1_555 1_555
C11 C10 1_555 1_555
H10 C11 1_555 1_555
H11 C11 1_555 1_555
C12 C7 1_555 1_555
H12 C12 1_555 1_555
H13 C12 1_555 1_555
C13 H14 1_555 1_555
C14 C13 1_555 1_555
H15 C14 1_555 1_555
H16 C14 1_555 1_555
C15 C14 1_555 1_555
H17 C15 1_555 1_555
H18 C15 1_555 1_555
C16 C15 1_555 1_555
H19 C16 1_555 1_555
H20 C16 1_555 1_555
C17 C16 1_555 1_555
H21 C17 1_555 1_555
H22 C17 1_555 1_555
C18 C13 1_555 1_555
H23 C18 1_555 1_555
H24 C18 1_555 1_555
N1 C2 1_555 1_555
H25 N1 1_555 1_555
N2 C6 1_555 1_555
H26 N2 1_555 1_555
O1 C3 1_555 1_555
O2 C5 1_555 1_555
C5 C6 1_555 1_555
C7 N1 1_555 1_555
C11 C12 1_555 1_555
C13 N2 1_555 1_555
C17 C18 1_555 1_555

#END
