
#######################################################################
#
#                 Cambridge Crystallographic Data Centre
#                                CCDC 
#
#######################################################################
#
# If this CIF has been generated from an entry in the Cambridge 
# Structural Database, then it will include bibliographic, chemical, 
# crystal, experimental, refinement or atomic coordinate data resulting 
# from the CCDC's data processing and validation procedures.
#
#######################################################################

data_WAGVUV
_chemical_formula_moiety         'C23 H35 B2 N1'
_chemical_name_systematic        
"9,9'-(\m~2~-Hydrido)-9,9'-(\m~2~-benzylideneamino)-bis(9-borabicyclo (3.3.1)nonane)"
_symmetry_cell_setting           triclinic
_symmetry_space_group_name_H-M   'P -1'
_symmetry_Int_Tables_number      2
_space_group_name_Hall           '-P 1'
loop_
_symmetry_equiv_pos_site_id
_symmetry_equiv_pos_as_xyz
1 x,y,z
2 -x,-y,-z
_cell_length_a                   9.963(2)
_cell_length_b                   10.077(2)
_cell_length_c                   11.730(3)
_cell_angle_alpha                89.56(2)
_cell_angle_beta                 105.54(2)
_cell_angle_gamma                117.86(2)
_cell_volume                     993.505
_exptl_crystal_colour            colorless
_chemical_melting_point          149-150deg.C
_cell_formula_units_Z            2
loop_
_atom_site_label
_atom_site_type_symbol
_atom_site_fract_x
_atom_site_fract_y
_atom_site_fract_z
B1 B 0.26885(23) 1.08507(21) 0.74917(17)
B2 B 0.14985(23) 0.86159(21) 0.74831(17)
H1 H 0.1939(18) 0.9851(18) 0.8123(13)
N1 N 0.23138(15) 0.95346(15) 0.65865(12)
C1 C 0.23360(20) 0.90942(20) 0.55761(15)
H2 H 0.1715(20) 0.7935(21) 0.5245(14)
C2 C 0.18016(19) 1.18263(19) 0.71554(15)
H3 H 0.07908(19) 1.12116(19) 0.65765(15)
C3 C 0.15435(20) 1.22779(19) 0.82989(15)
H4 H 0.07709(20) 1.13944(19) 0.85208(15)
H5 H 0.11174(20) 1.29594(19) 0.81307(15)
C4 C 0.30504(21) 1.30532(20) 0.93614(15)
H6 H 0.27450(21) 1.30993(20) 1.00609(15)
H7 H 0.36829(21) 1.40745(20) 0.92396(15)
C5 C 0.40688(20) 1.22587(19) 0.95737(14)
H8 H 0.35634(20) 1.13607(19) 0.99194(14)
H9 H 0.50702(20) 1.29262(19) 1.01429(14)
C6 C 0.43904(19) 1.18533(18) 0.84478(15)
H10 H 0.49200(19) 1.12582(18) 0.86256(15)
C7 C 0.28099(20) 1.31873(19) 0.65995(15)
H11 H 0.23596(20) 1.38531(19) 0.64966(15)
H12 H 0.27512(20) 1.28327(19) 0.58239(15)
C8 C 0.45817(21) 1.41381(20) 0.73137(16)
H13 H 0.46700(21) 1.48672(20) 0.78892(16)
H14 H 0.51478(21) 1.46932(20) 0.67787(16)
C9 C 0.54161(20) 1.32783(19) 0.79581(15)
H15 H 0.58717(20) 1.30180(19) 0.74328(15)
H16 H 0.62756(20) 1.39713(19) 0.86195(15)
C10 C 0.22755(19) 0.77291(18) 0.82745(15)
H17 H 0.34076(19) 0.83546(18) 0.85016(15)
C11 C 0.18136(21) 0.62732(19) 0.74923(16)
H18 H 0.21856(21) 0.56896(19) 0.79955(16)
H19 H 0.23469(21) 0.65239(19) 0.68915(16)
C12 C 0.00215(21) 0.52696(19) 0.69011(16)
H20 H -0.04534(21) 0.47195(19) 0.74801(16)
H21 H -0.01355(21) 0.45413(19) 0.62895(16)
C13 C -0.08733(21) 0.61188(19) 0.63434(16)
H22 H -0.19875(21) 0.54544(19) 0.62060(16)
H23 H -0.07091(21) 0.63244(19) 0.55812(16)
C14 C -0.03989(19) 0.76134(19) 0.70896(15)
H24 H -0.08662(19) 0.81463(19) 0.66072(15)
C15 C -0.09091(20) 0.73838(20) 0.82313(15)
H25 H -0.20375(20) 0.67424(20) 0.80238(15)
H26 H -0.06736(20) 0.83434(20) 0.86025(15)
C16 C -0.00848(21) 0.67179(21) 0.91714(16)
H27 H -0.05527(21) 0.56603(21) 0.88936(16)
H28 H -0.03152(21) 0.68011(21) 0.99004(16)
C17 C 0.17155(20) 0.74489(20) 0.93917(15)
H29 H 0.22166(20) 0.83920(20) 0.99048(15)
H30 H 0.20660(20) 0.67934(20) 0.98055(15)
C18 C 0.30442(19) 0.99868(19) 0.47027(14)
C19 C 0.25571(21) 0.92488(21) 0.35569(16)
H31 H 0.17914(21) 0.81922(21) 0.33767(16)
C20 C 0.31245(22) 1.00261(23) 0.26745(16)
H32 H 0.27626(22) 0.95073(23) 0.18837(16)
C21 C 0.42167(21) 1.15455(22) 0.29247(16)
H33 H 0.46204(21) 1.20834(22) 0.23141(16)
C22 C 0.47512(21) 1.22835(21) 0.40678(16)
H34 H 0.55169(21) 1.33401(21) 0.42480(16)
C23 C 0.41756(20) 1.15160(19) 0.49536(16)
H35 H 0.45375(20) 1.20348(19) 0.57444(16)
loop_
_geom_bond_atom_site_label_1
_geom_bond_atom_site_label_2
_geom_bond_site_symmetry_1
_geom_bond_site_symmetry_2
B1 H1 1_555 1_555
B2 H1 1_555 1_555
N1 B1 1_555 1_555
C1 N1 1_555 1_555
H2 C1 1_555 1_555
C2 B1 1_555 1_555
H3 C2 1_555 1_555
C3 C2 1_555 1_555
H4 C3 1_555 1_555
H5 C3 1_555 1_555
C4 C3 1_555 1_555
H6 C4 1_555 1_555
H7 C4 1_555 1_555
C5 C4 1_555 1_555
H8 C5 1_555 1_555
H9 C5 1_555 1_555
C6 B1 1_555 1_555
H10 C6 1_555 1_555
C7 C2 1_555 1_555
H11 C7 1_555 1_555
H12 C7 1_555 1_555
C8 C7 1_555 1_555
H13 C8 1_555 1_555
H14 C8 1_555 1_555
C9 C6 1_555 1_555
H15 C9 1_555 1_555
H16 C9 1_555 1_555
C10 B2 1_555 1_555
H17 C10 1_555 1_555
C11 C10 1_555 1_555
H18 C11 1_555 1_555
H19 C11 1_555 1_555
C12 C11 1_555 1_555
H20 C12 1_555 1_555
H21 C12 1_555 1_555
C13 C12 1_555 1_555
H22 C13 1_555 1_555
H23 C13 1_555 1_555
C14 B2 1_555 1_555
H24 C14 1_555 1_555
C15 C14 1_555 1_555
H25 C15 1_555 1_555
H26 C15 1_555 1_555
C16 C15 1_555 1_555
H27 C16 1_555 1_555
H28 C16 1_555 1_555
C17 C10 1_555 1_555
H29 C17 1_555 1_555
H30 C17 1_555 1_555
C18 C1 1_555 1_555
C19 C18 1_555 1_555
H31 C19 1_555 1_555
C20 C19 1_555 1_555
H32 C20 1_555 1_555
C21 C20 1_555 1_555
H33 C21 1_555 1_555
C22 C21 1_555 1_555
H34 C22 1_555 1_555
C23 C18 1_555 1_555
H35 C23 1_555 1_555
B2 N1 1_555 1_555
C5 C6 1_555 1_555
C8 C9 1_555 1_555
C13 C14 1_555 1_555
C16 C17 1_555 1_555
C22 C23 1_555 1_555

#END
