
#######################################################################
#
#                 Cambridge Crystallographic Data Centre
#                                CCDC 
#
#######################################################################
#
# If this CIF has been generated from an entry in the Cambridge 
# Structural Database, then it will include bibliographic, chemical, 
# crystal, experimental, refinement or atomic coordinate data resulting 
# from the CCDC's data processing and validation procedures.
#
#######################################################################

data_WAGWEG
_chemical_formula_moiety         'C12 H16 O2'
_chemical_name_systematic        4-Hydroxy-3-hydroxymethyl-4-p-tolylbutene
_symmetry_cell_setting           monoclinic
_symmetry_space_group_name_H-M   'P 21/c'
_symmetry_Int_Tables_number      14
_space_group_name_Hall           '-P 2ybc'
loop_
_symmetry_equiv_pos_site_id
_symmetry_equiv_pos_as_xyz
1 x,y,z
2 -x,1/2+y,1/2-z
3 -x,-y,-z
4 x,1/2-y,1/2+z
_cell_length_a                   9.529(3)
_cell_length_b                   6.205(2)
_cell_length_c                   19.065(5)
_cell_angle_alpha                90
_cell_angle_beta                 96.79(5)
_cell_angle_gamma                90
_cell_volume                     1119.36
_exptl_crystal_colour            colorless
_cell_formula_units_Z            4
loop_
_atom_site_label
_atom_site_type_symbol
_atom_site_fract_x
_atom_site_fract_y
_atom_site_fract_z
O1 O 0.0867(1) 0.2143(1) 0.28462(6)
O2 O 0.1382(1) 0.7876(2) 0.31164(6)
C1 C 0.0815(2) 0.3261(2) 0.3488(1)
C2 C 0.2145(2) 0.4537(2) 0.37126(8)
C3 C 0.2065(2) 0.5492(3) 0.44238(9)
C4 C 0.2853(4) 0.4958(4) 0.4991(1)
C5 C 0.2434(1) 0.6225(2) 0.31630(8)
C6 C 0.3859(2) 0.7211(2) 0.33374(8)
C7 C 0.5010(2) 0.6249(3) 0.31003(9)
C8 C 0.6343(2) 0.7044(3) 0.32819(9)
C9 C 0.6568(2) 0.8838(3) 0.37053(9)
C10 C 0.5418(2) 0.9800(3) 0.3938(1)
C11 C 0.4084(2) 0.9015(2) 0.37622(9)
C12 C 0.8033(2) 0.9686(4) 0.3908(1)
H1 H -0.001(2) 0.425(2) 0.3426(8)
H2 H 0.065(2) 0.226(3) 0.3888(9)
H3 H 0.115(2) 0.094(3) 0.294(1)
H4 H 0.294(1) 0.354(2) 0.3753(8)
H5 H 0.067(2) 0.749(2) 0.2821(8)
H6 H 0.124(3) 0.620(4) 0.457(2)
H7 H 0.371(3) 0.370(5) 0.489(2)
H8 H 0.276(3) 0.560(5) 0.546(1)
H9 H 0.238(2) 0.553(2) 0.2694(7)
H10 H 0.487(2) 0.504(3) 0.2790(9)
H11 H 0.710(2) 0.631(3) 0.310(1)
H12 H 0.549(2) 1.102(3) 0.422(1)
H13 H 0.330(2) 0.965(3) 0.3960(8)
H14 H 0.836(3) 0.935(5) 0.435(2)
H15 H 0.869(4) 0.913(6) 0.362(2)
H16 H 0.800(3) 1.108(5) 0.384(2)
loop_
_geom_bond_atom_site_label_1
_geom_bond_atom_site_label_2
_geom_bond_site_symmetry_1
_geom_bond_site_symmetry_2
O1 C1 1_555 1_555
O2 C5 1_555 1_555
C1 C2 1_555 1_555
C2 C3 1_555 1_555
C3 C4 1_555 1_555
C4 H7 1_555 1_555
C5 C2 1_555 1_555
C6 C5 1_555 1_555
C7 C6 1_555 1_555
C8 C7 1_555 1_555
C9 C8 1_555 1_555
C10 C9 1_555 1_555
C11 C6 1_555 1_555
C12 C9 1_555 1_555
H1 C1 1_555 1_555
H2 C1 1_555 1_555
H3 O1 1_555 1_555
H4 C2 1_555 1_555
H5 O2 1_555 1_555
H6 C3 1_555 1_555
H8 C4 1_555 1_555
H9 C5 1_555 1_555
H10 C7 1_555 1_555
H11 C8 1_555 1_555
H12 C10 1_555 1_555
H13 C11 1_555 1_555
H14 C12 1_555 1_555
H15 C12 1_555 1_555
H16 C12 1_555 1_555
C10 C11 1_555 1_555

#END
