
#######################################################################
#
#                 Cambridge Crystallographic Data Centre
#                                CCDC 
#
#######################################################################
#
# If this CIF has been generated from an entry in the Cambridge 
# Structural Database, then it will include bibliographic, chemical, 
# crystal, experimental, refinement or atomic coordinate data resulting 
# from the CCDC's data processing and validation procedures.
#
#######################################################################

data_WAGXOU
_chemical_formula_moiety         'C25 H20 N4 O1 S1'
_chemical_name_systematic        
2-(1-benzyl-3-phenyl-1H-pyrazol-5-yl)-5-(benzylsulfanyl)-1,3,4-oxadiazole
_symmetry_cell_setting           orthorhombic
_symmetry_space_group_name_H-M   'P n a 21'
_symmetry_Int_Tables_number      33
_space_group_name_Hall           'P 2c -2n'
loop_
_symmetry_equiv_pos_site_id
_symmetry_equiv_pos_as_xyz
1 x,y,z
2 -x,-y,1/2+z
3 1/2+x,1/2-y,z
4 1/2-x,1/2+y,1/2+z
_cell_length_a                   7.3055(12)
_cell_length_b                   27.669(4)
_cell_length_c                   10.6111(17)
_cell_angle_alpha                90
_cell_angle_beta                 90
_cell_angle_gamma                90
_cell_volume                     2144.88
_exptl_crystal_colour            colorless
_exptl_crystal_description       block
_chemical_melting_point          '438 K'
_cell_formula_units_Z            4
_exptl_crystal_recrystallization_method Methanol
_exptl_crystal_preparation       Luminescent
loop_
_atom_site_label
_atom_site_type_symbol
_atom_site_fract_x
_atom_site_fract_y
_atom_site_fract_z
C1 C 1.0052(2) 0.81341(7) 0.0714(2)
C2 C 1.0508(3) 0.85194(7) 0.1479(2)
H1 H 1.0940 0.8461 0.2290
C3 C 1.0332(3) 0.89886(8) 0.1059(2)
H2 H 1.0650 0.9243 0.1587
C4 C 0.9688(3) 0.90832(9) -0.0136(3)
H3 H 0.9550 0.9400 -0.0413
C5 C 0.9252(3) 0.87030(8) -0.0915(3)
H4 H 0.8837 0.8763 -0.1729
C6 C 0.9428(3) 0.82315(8) -0.0496(2)
H5 H 0.9125 0.7977 -0.1031
C7 C 1.0245(2) 0.76317(7) 0.11560(19)
C8 C 0.9841(3) 0.72024(7) 0.0535(2)
H6 H 0.9361 0.7168 -0.0272
C9 C 1.0294(3) 0.68422(7) 0.13526(19)
C10 C 1.0136(3) 0.63263(7) 0.12030(19)
C11 C 0.9755(3) 0.56744(8) 0.0205(2)
C12 C 1.1741(3) 0.68402(7) 0.35376(18)
H7 H 1.2841 0.7018 0.3755
H8 H 1.2103 0.6512 0.3337
C13 C 1.0510(3) 0.68284(7) 0.4666(2)
C14 C 0.8709(3) 0.69616(8) 0.4629(2)
H9 H 0.8192 0.7061 0.3872
C15 C 0.7644(4) 0.69494(10) 0.5716(3)
H10 H 0.6427 0.7048 0.5685
C16 C 0.8376(5) 0.67941(12) 0.6824(3)
H11 H 0.7665 0.6785 0.7551
C17 C 1.0155(5) 0.66533(14) 0.6857(3)
H12 H 1.0654 0.6543 0.7611
C18 C 1.1229(4) 0.66700(10) 0.5801(2)
H13 H 1.2448 0.6574 0.5845
C19 C 0.9174(3) 0.47334(7) -0.0373(3)
H14 H 0.9578 0.4485 -0.0955
H15 H 0.9962 0.4720 0.0362
C20 C 0.7259(3) 0.46239(7) 0.0025(2)
C21 C 0.6673(4) 0.46932(8) 0.1246(2)
H16 H 0.7476 0.4820 0.1840
C22 C 0.4926(4) 0.45779(10) 0.1595(3)
H17 H 0.4544 0.4632 0.2419
C23 C 0.3735(4) 0.43828(10) 0.0740(3)
H18 H 0.2560 0.4296 0.0988
C24 C 0.4280(4) 0.43160(11) -0.0487(3)
H19 H 0.3468 0.4189 -0.1075
C25 C 0.6040(3) 0.44381(9) -0.0842(2)
H20 H 0.6406 0.4395 -0.1674
N1 N 1.0919(2) 0.75427(6) 0.23057(15)
N2 N 1.0938(2) 0.70582(5) 0.24149(15)
N3 N 1.0236(3) 0.59864(6) 0.20226(17)
N4 N 1.0006(3) 0.55497(6) 0.1356(2)
O1 O 0.98131(19) 0.61576(5) 0.00164(13)
S1 S 0.94500(9) 0.53218(2) -0.11241(6)
loop_
_geom_bond_atom_site_label_1
_geom_bond_atom_site_label_2
_geom_bond_site_symmetry_1
_geom_bond_site_symmetry_2
C1 C2 1_555 1_555
C2 H1 1_555 1_555
C3 C2 1_555 1_555
H2 C3 1_555 1_555
C4 C3 1_555 1_555
H3 C4 1_555 1_555
C5 C4 1_555 1_555
H4 C5 1_555 1_555
C6 C1 1_555 1_555
H5 C6 1_555 1_555
C7 C1 1_555 1_555
C8 C7 1_555 1_555
H6 C8 1_555 1_555
C9 C8 1_555 1_555
C10 C9 1_555 1_555
C11 N4 1_555 1_555
C12 H7 1_555 1_555
H8 C12 1_555 1_555
C13 C12 1_555 1_555
C14 C13 1_555 1_555
H9 C14 1_555 1_555
C15 C14 1_555 1_555
H10 C15 1_555 1_555
C16 C15 1_555 1_555
H11 C16 1_555 1_555
C17 C16 1_555 1_555
H12 C17 1_555 1_555
C18 C13 1_555 1_555
H13 C18 1_555 1_555
C19 H14 1_555 1_555
H15 C19 1_555 1_555
C20 C19 1_555 1_555
C21 C20 1_555 1_555
H16 C21 1_555 1_555
C22 C21 1_555 1_555
H17 C22 1_555 1_555
C23 C22 1_555 1_555
H18 C23 1_555 1_555
C24 C23 1_555 1_555
H19 C24 1_555 1_555
C25 C20 1_555 1_555
H20 C25 1_555 1_555
N1 C7 1_555 1_555
N2 C9 1_555 1_555
N3 C10 1_555 1_555
N4 N3 1_555 1_555
O1 C10 1_555 1_555
S1 C11 1_555 1_555
C5 C6 1_555 1_555
C11 O1 1_555 1_555
C12 N2 1_555 1_555
C17 C18 1_555 1_555
C19 S1 1_555 1_555
C24 C25 1_555 1_555
N1 N2 1_555 1_555

#END
