
#######################################################################
#
#                 Cambridge Crystallographic Data Centre
#                                CCDC 
#
#######################################################################
#
# If this CIF has been generated from an entry in the Cambridge 
# Structural Database, then it will include bibliographic, chemical, 
# crystal, experimental, refinement or atomic coordinate data resulting 
# from the CCDC's data processing and validation procedures.
#
#######################################################################

data_WAGYOU
_chemical_formula_moiety         'C19 H20 N2 O5'
_chemical_name_systematic        
'Dimethyl 16-oxo-3,13-diazatetracyclo[11.3.1.0^2,10^.0^4,9^]heptadeca-2(10),4,6,8-tetraene-1,12-dicarboxylate'
_symmetry_cell_setting           orthorhombic
_symmetry_space_group_name_H-M   'P 21 21 21'
_symmetry_Int_Tables_number      19
_space_group_name_Hall           'P 2ac 2ab'
loop_
_symmetry_equiv_pos_site_id
_symmetry_equiv_pos_as_xyz
1 x,y,z
2 1/2-x,-y,1/2+z
3 -x,1/2+y,1/2-z
4 1/2+x,1/2-y,-z
_cell_length_a                   7.8077(9)
_cell_length_b                   10.4954(12)
_cell_length_c                   21.518(3)
_cell_angle_alpha                90
_cell_angle_beta                 90
_cell_angle_gamma                90
_cell_volume                     1763.29
_exptl_crystal_colour            colorless
_exptl_crystal_description       prismatic
_cell_formula_units_Z            4
loop_
_atom_site_label
_atom_site_type_symbol
_atom_site_fract_x
_atom_site_fract_y
_atom_site_fract_z
O1 O 0.8234(3) 0.22704(17) 0.96237(9)
O2 O 0.9802(3) 0.12338(17) 0.84085(10)
O3 O 1.1940(3) 0.20727(16) 0.89396(10)
O4 O 0.5872(3) 0.67235(18) 0.75185(10)
O5 O 0.7354(3) 0.81667(17) 0.80440(10)
N1 N 0.7340(3) 0.47590(19) 0.82168(9)
N2 N 1.1570(3) 0.44198(19) 0.95022(9)
C1 C 0.8147(4) 0.3165(2) 0.92771(11)
C2 C 0.6774(4) 0.4140(3) 0.93127(13)
H1 H 0.7236 0.4915 0.9493
H2 H 0.5868 0.3835 0.9583
C3 C 0.6026(3) 0.4439(3) 0.86698(13)
H3 H 0.5388 0.3705 0.8523
H4 H 0.5233 0.5146 0.8706
C4 C 0.8543(4) 0.3723(2) 0.81575(11)
H5 H 0.9387 0.3948 0.7845
H6 H 0.7936 0.2975 0.8010
C5 C 0.9495(3) 0.3373(2) 0.87713(10)
C6 C 1.0642(3) 0.4461(2) 0.89569(10)
C7 C 1.0915(3) 0.5599(2) 0.86666(10)
C8 C 0.9900(3) 0.6182(2) 0.81482(11)
H7 H 1.0170 0.5757 0.7760
H8 H 1.0198 0.7075 0.8106
C9 C 0.7981(3) 0.6055(2) 0.82840(11)
H9 H 0.7812 0.6299 0.8719
C10 C 1.2163(3) 0.6266(2) 0.90303(12)
C11 C 1.3024(4) 0.7422(2) 0.89553(14)
H10 H 1.2806 0.7938 0.8613
C12 C 1.4194(4) 0.7782(3) 0.93950(17)
H11 H 1.4797 0.8539 0.9344
C13 C 1.4493(4) 0.7035(3) 0.99157(18)
H12 H 1.5273 0.7316 1.0212
C14 C 1.3673(4) 0.5895(2) 1.00055(13)
H13 H 1.3878 0.5401 1.0356
C15 C 1.2521(3) 0.5508(2) 0.95504(11)
C16 C 1.0421(4) 0.2105(2) 0.86810(11)
C17 C 1.2860(5) 0.0877(3) 0.89074(17)
H14 H 1.3065 0.0661 0.8480
H15 H 1.2190 0.0219 0.9100
H16 H 1.3934 0.0958 0.9121
C18 C 0.6935(4) 0.6981(2) 0.78909(12)
C19 C 0.6463(4) 0.9184(3) 0.77402(15)
H17 H 0.5251 0.9039 0.7768
H18 H 0.6798 0.9217 0.7311
H19 H 0.6742 0.9977 0.7938
H20 H 1.176(4) 0.376(2) 0.9739(11)
loop_
_geom_bond_atom_site_label_1
_geom_bond_atom_site_label_2
_geom_bond_site_symmetry_1
_geom_bond_site_symmetry_2
O1 C1 1_555 1_555
O2 C16 1_555 1_555
O3 C16 1_555 1_555
O4 C18 1_555 1_555
O5 C18 1_555 1_555
N1 C3 1_555 1_555
N2 C6 1_555 1_555
C1 C2 1_555 1_555
C2 H1 1_555 1_555
H2 C2 1_555 1_555
C3 C2 1_555 1_555
H3 C3 1_555 1_555
H4 C3 1_555 1_555
C4 N1 1_555 1_555
H5 C4 1_555 1_555
H6 C4 1_555 1_555
C5 C1 1_555 1_555
C6 C5 1_555 1_555
C7 C6 1_555 1_555
C8 C7 1_555 1_555
H7 C8 1_555 1_555
H8 C8 1_555 1_555
C9 N1 1_555 1_555
H9 C9 1_555 1_555
C10 C7 1_555 1_555
C11 C10 1_555 1_555
H10 C11 1_555 1_555
C12 C11 1_555 1_555
H11 C12 1_555 1_555
C13 C12 1_555 1_555
H12 C13 1_555 1_555
C14 C13 1_555 1_555
H13 C14 1_555 1_555
C15 N2 1_555 1_555
C16 C5 1_555 1_555
C17 O3 1_555 1_555
H14 C17 1_555 1_555
H15 C17 1_555 1_555
H16 C17 1_555 1_555
C18 C9 1_555 1_555
C19 O5 1_555 1_555
H17 C19 1_555 1_555
H18 C19 1_555 1_555
H19 C19 1_555 1_555
H20 N2 1_555 1_555
C4 C5 1_555 1_555
C8 C9 1_555 1_555
C10 C15 1_555 1_555
C14 C15 1_555 1_555

#END
