
#######################################################################
#
#                 Cambridge Crystallographic Data Centre
#                                CCDC 
#
#######################################################################
#
# If this CIF has been generated from an entry in the Cambridge 
# Structural Database, then it will include bibliographic, chemical, 
# crystal, experimental, refinement or atomic coordinate data resulting 
# from the CCDC's data processing and validation procedures.
#
#######################################################################

data_WAGYEK
_chemical_formula_moiety         'C18 H18 N2 O4'
_chemical_name_systematic        
'Ethyl 12,16-dioxo-3,13-diazatetracyclo[11.3.1.0^2,10^.0^4,9^]heptadeca-2(10),4,6,8-tetraene-3-carboxylate'
_symmetry_cell_setting           triclinic
_symmetry_space_group_name_H-M   'P -1'
_symmetry_Int_Tables_number      2
_space_group_name_Hall           '-P 1'
loop_
_symmetry_equiv_pos_site_id
_symmetry_equiv_pos_as_xyz
1 x,y,z
2 -x,-y,-z
_cell_length_a                   9.4790(16)
_cell_length_b                   10.0749(17)
_cell_length_c                   18.579(3)
_cell_angle_alpha                95.772(3)
_cell_angle_beta                 97.284(4)
_cell_angle_gamma                114.575(3)
_cell_volume                     1577.27
_exptl_crystal_colour            colorless
_exptl_crystal_description       prismatic
_cell_formula_units_Z            4
loop_
_atom_site_label
_atom_site_type_symbol
_atom_site_fract_x
_atom_site_fract_y
_atom_site_fract_z
O1 O 0.2570(3) 0.3712(2) 0.09299(13)
O2 O 0.4402(2) 0.0794(2) 0.28354(10)
O3 O 0.7923(3) 0.0862(3) 0.19861(15)
O4 O 0.54984(19) -0.09363(17) 0.18535(8)
N1 N 0.1551(2) 0.1460(2) 0.12646(12)
N2 N 0.5901(2) 0.09506(19) 0.12350(10)
C1 C 0.2286(3) 0.2401(3) 0.08144(16)
C2 C 0.2823(3) 0.1775(3) 0.02010(15)
H1 H 0.3119 0.2456 -0.0146
H2 H 0.1973 0.0845 -0.0058
C3 C 0.4220(3) 0.1526(2) 0.05167(13)
C4 C 0.4345(3) 0.0812(2) 0.10853(13)
C5 C 0.3162(3) 0.0136(2) 0.15679(12)
H3 H 0.3072 -0.0856 0.1612
C6 C 0.1555(3) 0.0005(3) 0.12212(14)
H4 H 0.1295 -0.0463 0.0709
H5 H 0.0756 -0.0616 0.1474
C7 C 0.1718(3) 0.2112(3) 0.20258(15)
H6 H 0.0898 0.1441 0.2252
H7 H 0.1614 0.3032 0.2041
C8 C 0.3336(3) 0.2404(3) 0.24413(14)
H8 H 0.4136 0.3222 0.2275
H9 H 0.3396 0.2698 0.2962
C9 C 0.3690(3) 0.1079(3) 0.23387(14)
C10 C 0.5707(3) 0.2137(2) 0.02897(12)
C11 C 0.6755(3) 0.1779(2) 0.07392(12)
C12 C 0.8291(3) 0.2200(3) 0.06543(14)
H10 H 0.8972 0.1952 0.0957
C13 C 0.8785(3) 0.3007(3) 0.01010(15)
H11 H 0.9813 0.3289 0.0024
C14 C 0.7790(3) 0.3404(3) -0.03391(14)
H12 H 0.8165 0.3967 -0.0699
C15 C 0.6262(3) 0.2983(3) -0.02537(13)
H13 H 0.5598 0.3254 -0.0553
C16 C 0.6543(3) 0.0304(3) 0.17242(15)
C17 C 0.6048(4) -0.1637(3) 0.24010(16)
H14 H 0.6515 -0.0959 0.2866
H15 H 0.6841 -0.1907 0.2239
C18 C 0.4680(4) -0.2965(3) 0.24912(19)
H16 H 0.3885 -0.2690 0.2632
H17 H 0.5002 -0.3424 0.2866
H18 H 0.4258 -0.3649 0.2034
O5 O 0.2724(2) 1.10211(18) 0.58252(9)
O6 O 0.0465(3) 0.88144(19) 0.28260(11)
O7 O -0.3385(3) 0.4716(3) 0.33963(12)
O8 O -0.1149(2) 0.57060(19) 0.29907(10)
N3 N 0.3236(2) 1.02215(18) 0.47536(11)
N4 N -0.1121(2) 0.61672(18) 0.41957(10)
C19 C 0.2841(3) 1.0046(3) 0.54239(14)
C20 C 0.2431(3) 0.8526(2) 0.56320(13)
H19 H 0.3264 0.8230 0.5566
H20 H 0.2320 0.8551 0.6144
C21 C 0.0895(3) 0.7436(2) 0.51423(13)
C22 C 0.0478(3) 0.7237(2) 0.43995(13)
C23 C 0.1436(3) 0.7999(2) 0.38555(12)
H21 H 0.1431 0.7245 0.3477
C24 C 0.3147(3) 0.8976(2) 0.42483(13)
H22 H 0.3546 0.8391 0.4519
H23 H 0.3803 0.9342 0.3886
C25 C 0.2830(3) 1.1244(2) 0.43725(14)
H24 H 0.3533 1.1621 0.4029
H25 H 0.2939 1.2076 0.4724
C26 C 0.1123(3) 1.0411(2) 0.39584(14)
H26 H 0.0415 1.0160 0.4309
H27 H 0.0866 1.1040 0.3657
C27 C 0.0901(3) 0.9027(2) 0.34806(14)
C28 C -0.0431(3) 0.6495(2) 0.54267(13)
C29 C -0.1688(3) 0.5735(2) 0.48357(13)
C30 C -0.3165(3) 0.4756(2) 0.49364(16)
H28 H -0.3995 0.4254 0.4540
C31 C -0.3355(3) 0.4558(3) 0.56486(18)
H29 H -0.4336 0.3916 0.5733
C32 C -0.2122(4) 0.5291(3) 0.62379(17)
H30 H -0.2284 0.5121 0.6710
C33 C -0.0667(3) 0.6260(2) 0.61417(14)
H31 H 0.0152 0.6756 0.6543
C34 C -0.2014(3) 0.5462(3) 0.35034(16)
C35 C -0.1949(5) 0.5048(4) 0.22335(17)
H32 H -0.2327 0.3982 0.2172
H33 H -0.2854 0.5261 0.2123
C36 C -0.0930(7) 0.5607(5) 0.1753(2)
H34 H -0.0334 0.6658 0.1904
H35 H -0.1528 0.5403 0.1264
H36 H -0.0222 0.5148 0.1756
loop_
_geom_bond_atom_site_label_1
_geom_bond_atom_site_label_2
_geom_bond_site_symmetry_1
_geom_bond_site_symmetry_2
O1 C1 1_555 1_555
O2 C9 1_555 1_555
O3 C16 1_555 1_555
O4 C16 1_555 1_555
O5 C19 1_555 1_555
O6 C27 1_555 1_555
O7 C34 1_555 1_555
O8 C34 1_555 1_555
N1 C1 1_555 1_555
N2 C4 1_555 1_555
N3 C19 1_555 1_555
N4 C22 1_555 1_555
C1 C2 1_555 1_555
C2 H1 1_555 1_555
H2 C2 1_555 1_555
C3 C2 1_555 1_555
C4 C3 1_555 1_555
C5 C4 1_555 1_555
H3 C5 1_555 1_555
C6 N1 1_555 1_555
H4 C6 1_555 1_555
H5 C6 1_555 1_555
C7 N1 1_555 1_555
H6 C7 1_555 1_555
H7 C7 1_555 1_555
C8 C7 1_555 1_555
H8 C8 1_555 1_555
H9 C8 1_555 1_555
C9 C5 1_555 1_555
C10 C3 1_555 1_555
C11 N2 1_555 1_555
C12 C11 1_555 1_555
H10 C12 1_555 1_555
C13 C12 1_555 1_555
H11 C13 1_555 1_555
C14 C13 1_555 1_555
H12 C14 1_555 1_555
C15 C10 1_555 1_555
H13 C15 1_555 1_555
C16 N2 1_555 1_555
C17 O4 1_555 1_555
H14 C17 1_555 1_555
H15 C17 1_555 1_555
C18 C17 1_555 1_555
H16 C18 1_555 1_555
H17 C18 1_555 1_555
H18 C18 1_555 1_555
C19 C20 1_555 1_555
C20 H19 1_555 1_555
H20 C20 1_555 1_555
C21 C20 1_555 1_555
C22 C21 1_555 1_555
C23 C22 1_555 1_555
H21 C23 1_555 1_555
C24 N3 1_555 1_555
H22 C24 1_555 1_555
H23 C24 1_555 1_555
C25 N3 1_555 1_555
H24 C25 1_555 1_555
H25 C25 1_555 1_555
C26 C25 1_555 1_555
H26 C26 1_555 1_555
H27 C26 1_555 1_555
C27 C23 1_555 1_555
C28 C21 1_555 1_555
C29 N4 1_555 1_555
C30 C29 1_555 1_555
H28 C30 1_555 1_555
C31 C30 1_555 1_555
H29 C31 1_555 1_555
C32 C31 1_555 1_555
H30 C32 1_555 1_555
C33 C28 1_555 1_555
H31 C33 1_555 1_555
C34 N4 1_555 1_555
C35 O8 1_555 1_555
H32 C35 1_555 1_555
H33 C35 1_555 1_555
C36 C35 1_555 1_555
H34 C36 1_555 1_555
H35 C36 1_555 1_555
H36 C36 1_555 1_555
C5 C6 1_555 1_555
C8 C9 1_555 1_555
C10 C11 1_555 1_555
C14 C15 1_555 1_555
C23 C24 1_555 1_555
C26 C27 1_555 1_555
C28 C29 1_555 1_555
C32 C33 1_555 1_555

#END
