
#######################################################################
#
#                 Cambridge Crystallographic Data Centre
#                                CCDC 
#
#######################################################################
#
# If this CIF has been generated from an entry in the Cambridge 
# Structural Database, then it will include bibliographic, chemical, 
# crystal, experimental, refinement or atomic coordinate data resulting 
# from the CCDC's data processing and validation procedures.
#
#######################################################################

data_WAHCIT
_chemical_formula_moiety         'C12 H10 N4 O3,H2 O1'
_chemical_name_systematic        
"N'-(E)-(2,5-Dihydroxybenzylidene)-2-pyrazinecarbohydrazide monohydrate"
_symmetry_cell_setting           triclinic
_symmetry_space_group_name_H-M   'P -1'
_symmetry_Int_Tables_number      2
_space_group_name_Hall           '-P 1'
loop_
_symmetry_equiv_pos_site_id
_symmetry_equiv_pos_as_xyz
1 x,y,z
2 -x,-y,-z
_cell_length_a                   6.6861(4)
_cell_length_b                   8.9330(3)
_cell_length_c                   10.5220(6)
_cell_angle_alpha                99.598(3)
_cell_angle_beta                 102.523(2)
_cell_angle_gamma                95.653(3)
_cell_volume                     598.959
_exptl_crystal_colour            yellow
_exptl_crystal_description       plate
_chemical_melting_point          '557-559 K'
_cell_formula_units_Z            2
_exptl_crystal_recrystallization_method ethanol
loop_
_atom_site_label
_atom_site_type_symbol
_atom_site_fract_x
_atom_site_fract_y
_atom_site_fract_z
O1 O 0.1902(2) 0.20153(16) 0.51113(15)
O2 O 0.1977(2) 0.45003(15) 0.24606(15)
H1 H 0.2112 0.4260 0.3210
O3 O 0.2817(3) 1.07986(16) 0.27963(16)
H2 H 0.3031 1.1275 0.3583
N1 N 0.2620(3) 0.04706(19) 0.86865(18)
N2 N 0.3223(3) 0.35985(19) 0.85636(17)
N3 N 0.2672(3) 0.44996(18) 0.62079(17)
H3 H 0.2971 0.5149 0.6972
N4 N 0.2514(3) 0.50099(19) 0.50306(17)
C1 C 0.2615(3) 0.2496(2) 0.7472(2)
C2 C 0.2298(3) 0.0956(2) 0.7523(2)
H4 H 0.1843 0.0223 0.6719
C3 C 0.3230(3) 0.1565(2) 0.9772(2)
H5 H 0.3474 0.1278 1.0616
C4 C 0.3524(3) 0.3114(2) 0.9714(2)
H6 H 0.3953 0.3849 1.0519
C5 C 0.2353(3) 0.2978(2) 0.6155(2)
C6 C 0.2773(3) 0.6468(2) 0.5079(2)
H7 H 0.3072 0.7160 0.5908
C7 C 0.2602(3) 0.7045(2) 0.3848(2)
C8 C 0.2189(3) 0.6066(2) 0.2604(2)
C9 C 0.1976(3) 0.6688(2) 0.1457(2)
H8 H 0.1687 0.6028 0.0614
C10 C 0.2182(3) 0.8258(2) 0.1542(2)
H9 H 0.2024 0.8668 0.0755
C11 C 0.2621(3) 0.9247(2) 0.2776(2)
C12 C 0.2826(3) 0.8637(2) 0.3913(2)
H10 H 0.3122 0.9306 0.4753
O4 O 0.2176(3) 0.71437(19) 0.81488(16)
H11 H 0.086(4) 0.679(3) 0.810(3)
H12 H 0.215(4) 0.812(4) 0.837(3)
loop_
_geom_bond_atom_site_label_1
_geom_bond_atom_site_label_2
_geom_bond_site_symmetry_1
_geom_bond_site_symmetry_2
O1 C5 1_555 1_555
O2 H1 1_555 1_555
O3 H2 1_555 1_555
N1 C2 1_555 1_555
N2 C1 1_555 1_555
N3 H3 1_555 1_555
N4 N3 1_555 1_555
C1 C2 1_555 1_555
C2 H4 1_555 1_555
C3 N1 1_555 1_555
H5 C3 1_555 1_555
C4 N2 1_555 1_555
H6 C4 1_555 1_555
C5 N3 1_555 1_555
C6 N4 1_555 1_555
H7 C6 1_555 1_555
C7 C6 1_555 1_555
C8 O2 1_555 1_555
C9 C8 1_555 1_555
H8 C9 1_555 1_555
C10 C9 1_555 1_555
H9 C10 1_555 1_555
C11 O3 1_555 1_555
C12 C7 1_555 1_555
H10 C12 1_555 1_555
O4 H11 1_555 1_555
H12 O4 1_555 1_555
C1 C5 1_555 1_555
C3 C4 1_555 1_555
C7 C8 1_555 1_555
C10 C11 1_555 1_555
C11 C12 1_555 1_555

#END
