
#######################################################################
#
#                 Cambridge Crystallographic Data Centre
#                                CCDC 
#
#######################################################################
#
# If this CIF has been generated from an entry in the Cambridge 
# Structural Database, then it will include bibliographic, chemical, 
# crystal, experimental, refinement or atomic coordinate data resulting 
# from the CCDC's data processing and validation procedures.
#
#######################################################################

data_WAHCEO
_chemical_formula_moiety         'C16 H29 N5 O2'
_chemical_name_systematic        
(8S,18S)-1,4,10,13,16-Penta-azatricyclo(16.3.0.0^4,8^)henicosane-9,17-dione
_symmetry_cell_setting           monoclinic
_symmetry_space_group_name_H-M   'P 21'
_symmetry_Int_Tables_number      4
_space_group_name_Hall           'P 2yb'
loop_
_symmetry_equiv_pos_site_id
_symmetry_equiv_pos_as_xyz
1 x,y,z
2 -x,1/2+y,-z
_cell_length_a                   5.2495(10)
_cell_length_b                   18.956(4)
_cell_length_c                   9.1171(18)
_cell_angle_alpha                90
_cell_angle_beta                 104.93(3)
_cell_angle_gamma                90
_cell_volume                     876.611
_exptl_crystal_colour            colorless
_exptl_crystal_description       prismatic
_cell_formula_units_Z            2
loop_
_atom_site_label
_atom_site_type_symbol
_atom_site_fract_x
_atom_site_fract_y
_atom_site_fract_z
O1 O 1.2920(9) 0.1447(4) 0.3887(6)
O2 O 0.1203(10) 0.3991(4) 0.3694(7)
N1 N 0.553(5) 0.2688(8) 0.1751(11)
H1 H 0.5963 0.2714 0.2726
N2 N 0.5395(11) 0.3910(4) 0.3537(7)
H2 H 0.7021 0.3889 0.4042
N3 N 0.9317(10) 0.1784(3) 0.6673(6)
N4 N 0.7111(9) 0.3661(3) 0.6606(6)
N5 N 0.8567(11) 0.1517(4) 0.3643(6)
H3 H 0.7350 0.1531 0.4118
C1 C 0.645(3) 0.2192(12) 0.1385(12)
H4 H 0.7691 0.2394 0.0877
H5 H 0.5015 0.2017 0.0570
C2 C 1.009(3) 0.0699(5) 0.7963(14)
H6 H 1.1264 0.0542 0.8911
H7 H 0.8551 0.0395 0.7727
C3 C 0.734(3) 0.4750(6) 0.7799(15)
H8 H 0.6956 0.4917 0.8726
H9 H 0.8657 0.5058 0.7570
C4 C 0.410(3) 0.3208(5) 0.1216(13)
H10 H 0.2319 0.3099 0.1262
H11 H 0.4073 0.3246 0.0151
C5 C 0.4758(16) 0.3887(5) 0.1889(9)
H12 H 0.3285 0.4202 0.1494
H13 H 0.6254 0.4069 0.1566
C6 C 0.9285(14) 0.1453(5) 0.8096(9)
H14 H 0.7535 0.1476 0.8262
H15 H 1.0514 0.1685 0.8935
C7 C 0.4977(16) 0.4776(4) 0.6579(10)
H16 H 0.5210 0.5084 0.5773
H17 H 0.3499 0.4945 0.6936
C8 C 0.8388(15) 0.4014(5) 0.8029(9)
H18 H 1.0290 0.4009 0.8205
H19 H 0.7921 0.3791 0.8882
C9 C 1.1468(15) 0.0669(4) 0.6712(10)
H20 H 1.0526 0.0366 0.5893
H21 H 1.3256 0.0494 0.7086
C10 C 0.6924(13) 0.2899(4) 0.6670(9)
H22 H 0.5587 0.2733 0.5794
H23 H 0.6391 0.2765 0.7575
C11 C 0.9537(12) 0.2553(4) 0.6696(9)
H24 H 1.0120 0.2708 0.5822
H25 H 1.0850 0.2698 0.7603
C12 C 0.7783(16) 0.1535(5) 0.1991(9)
H26 H 0.6615 0.1142 0.1621
H27 H 0.9338 0.1478 0.1613
C13 C 0.3551(13) 0.3963(4) 0.4286(8)
C14 C 1.1460(12) 0.1441(4) 0.6175(8)
H28 H 1.3143 0.1664 0.6676
C15 C 0.4529(12) 0.4008(3) 0.6021(8)
H29 H 0.3231 0.3786 0.6477
C16 C 1.1031(13) 0.1478(4) 0.4449(8)
loop_
_geom_bond_atom_site_label_1
_geom_bond_atom_site_label_2
_geom_bond_site_symmetry_1
_geom_bond_site_symmetry_2
O1 C16 1_555 1_555
O2 C13 1_555 1_555
N1 H1 1_555 1_555
N2 H2 1_555 1_555
N3 C6 1_555 1_555
N4 C8 1_555 1_555
N5 H3 1_555 1_555
C1 N1 1_555 1_555
H4 C1 1_555 1_555
H5 C1 1_555 1_555
C2 H6 1_555 1_555
H7 C2 1_555 1_555
C3 H8 1_555 1_555
H9 C3 1_555 1_555
C4 N1 1_555 1_555
H10 C4 1_555 1_555
H11 C4 1_555 1_555
C5 N2 1_555 1_555
H12 C5 1_555 1_555
H13 C5 1_555 1_555
C6 C2 1_555 1_555
H14 C6 1_555 1_555
H15 C6 1_555 1_555
C7 C3 1_555 1_555
H16 C7 1_555 1_555
H17 C7 1_555 1_555
C8 C3 1_555 1_555
H18 C8 1_555 1_555
H19 C8 1_555 1_555
C9 C2 1_555 1_555
H20 C9 1_555 1_555
H21 C9 1_555 1_555
C10 N4 1_555 1_555
H22 C10 1_555 1_555
H23 C10 1_555 1_555
C11 N3 1_555 1_555
H24 C11 1_555 1_555
H25 C11 1_555 1_555
C12 N5 1_555 1_555
H26 C12 1_555 1_555
H27 C12 1_555 1_555
C13 N2 1_555 1_555
C14 N3 1_555 1_555
H28 C14 1_555 1_555
C15 N4 1_555 1_555
H29 C15 1_555 1_555
C16 N5 1_555 1_555
C1 C12 1_555 1_555
C4 C5 1_555 1_555
C7 C15 1_555 1_555
C9 C14 1_555 1_555
C10 C11 1_555 1_555
C13 C15 1_555 1_555
C14 C16 1_555 1_555

#END
