
#######################################################################
#
#                 Cambridge Crystallographic Data Centre
#                                CCDC 
#
#######################################################################
#
# If this CIF has been generated from an entry in the Cambridge 
# Structural Database, then it will include bibliographic, chemical, 
# crystal, experimental, refinement or atomic coordinate data resulting 
# from the CCDC's data processing and validation procedures.
#
#######################################################################

data_WAHFES
_chemical_formula_moiety         'C16 H11 Cl1 F1 N3'
_chemical_name_systematic        
7-Chloro-4-((E)-2-(3-fluorobenzylidene)hydrazin-1-yl)quinoline
_symmetry_cell_setting           monoclinic
_symmetry_space_group_name_H-M   'P 21/c'
_symmetry_Int_Tables_number      14
_space_group_name_Hall           '-P 2ybc'
loop_
_symmetry_equiv_pos_site_id
_symmetry_equiv_pos_as_xyz
1 x,y,z
2 -x,1/2+y,1/2-z
3 -x,-y,-z
4 x,1/2-y,1/2+z
_cell_length_a                   13.6922(6)
_cell_length_b                   8.3118(5)
_cell_length_c                   12.0416(7)
_cell_angle_alpha                90
_cell_angle_beta                 98.617(3)
_cell_angle_gamma                90
_cell_volume                     1354.95
_exptl_crystal_colour            yellow
_exptl_crystal_description       plate
_chemical_melting_point          '225 deg.C'
_cell_formula_units_Z            4
_exptl_crystal_recrystallization_method ethanol
loop_
_atom_site_label
_atom_site_type_symbol
_atom_site_fract_x
_atom_site_fract_y
_atom_site_fract_z
Cl1 Cl 0.71865(4) 0.03109(7) 0.46935(5)
F1 F -0.10447(11) 0.8077(2) 0.45439(13)
N1 N 0.37349(14) 0.1772(2) 0.27959(16)
N2 N 0.31435(13) 0.4518(2) 0.55582(15)
H1 H 0.3566 0.4513 0.6186
N3 N 0.22729(13) 0.5368(2) 0.54773(16)
C1 C 0.29005(17) 0.2589(3) 0.2789(2)
H2 H 0.2422 0.2511 0.2133
C2 C 0.26660(17) 0.3552(3) 0.36587(19)
H3 H 0.2055 0.4113 0.3582
C3 C 0.33344(16) 0.3677(3) 0.46329(19)
C4 C 0.42752(15) 0.2901(3) 0.46725(19)
C5 C 0.50470(16) 0.3053(3) 0.55888(19)
H4 H 0.4950 0.3697 0.6215
C6 C 0.59351(16) 0.2282(3) 0.5585(2)
H5 H 0.6454 0.2410 0.6197
C7 C 0.60667(16) 0.1307(3) 0.4669(2)
C8 C 0.53465(16) 0.1137(3) 0.37635(19)
H6 H 0.5458 0.0477 0.3151
C9 C 0.44304(16) 0.1944(3) 0.37367(19)
C10 C 0.21009(17) 0.6063(3) 0.6384(2)
H7 H 0.2556 0.5950 0.7057
C11 C 0.12064(16) 0.7027(3) 0.63799(19)
C12 C 0.04721(17) 0.7079(3) 0.5439(2)
H8 H 0.0534 0.6460 0.4789
C13 C -0.03345(17) 0.8034(3) 0.5469(2)
C14 C -0.04618(17) 0.8979(3) 0.6374(2)
H9 H -0.1029 0.9642 0.6358
C15 C 0.02589(19) 0.8937(3) 0.7307(2)
H10 H 0.0190 0.9575 0.7945
C16 C 0.10914(18) 0.7957(3) 0.7315(2)
H11 H 0.1582 0.7926 0.7963
loop_
_geom_bond_atom_site_label_1
_geom_bond_atom_site_label_2
_geom_bond_site_symmetry_1
_geom_bond_site_symmetry_2
Cl1 C7 1_555 1_555
F1 C13 1_555 1_555
N1 C1 1_555 1_555
N2 H1 1_555 1_555
N3 N2 1_555 1_555
C1 H2 1_555 1_555
C2 C1 1_555 1_555
H3 C2 1_555 1_555
C3 N2 1_555 1_555
C4 C3 1_555 1_555
C5 C4 1_555 1_555
H4 C5 1_555 1_555
C6 C5 1_555 1_555
H5 C6 1_555 1_555
C7 C6 1_555 1_555
C8 C7 1_555 1_555
H6 C8 1_555 1_555
C9 N1 1_555 1_555
C10 N3 1_555 1_555
H7 C10 1_555 1_555
C11 C10 1_555 1_555
C12 C11 1_555 1_555
H8 C12 1_555 1_555
C13 C12 1_555 1_555
C14 C13 1_555 1_555
H9 C14 1_555 1_555
C15 C14 1_555 1_555
H10 C15 1_555 1_555
C16 C11 1_555 1_555
H11 C16 1_555 1_555
C2 C3 1_555 1_555
C4 C9 1_555 1_555
C8 C9 1_555 1_555
C15 C16 1_555 1_555

#END
