
#######################################################################
#
#                 Cambridge Crystallographic Data Centre
#                                CCDC 
#
#######################################################################
#
# If this CIF has been generated from an entry in the Cambridge 
# Structural Database, then it will include bibliographic, chemical, 
# crystal, experimental, refinement or atomic coordinate data resulting 
# from the CCDC's data processing and validation procedures.
#
#######################################################################

data_WAHFIW
_chemical_formula_moiety         'C17 H14 Cl1 N3 O1'
_chemical_name_systematic        
7-Chloro-4-((E)-2-(3-methoxybenzylidene)hydrazin-1-yl)quinoline
_symmetry_cell_setting           orthorhombic
_symmetry_space_group_name_H-M   'P b c a'
_symmetry_Int_Tables_number      61
_space_group_name_Hall           '-P 2ac 2ab'
loop_
_symmetry_equiv_pos_site_id
_symmetry_equiv_pos_as_xyz
1 x,y,z
2 1/2-x,-y,1/2+z
3 -x,1/2+y,1/2-z
4 1/2+x,1/2-y,-z
5 -x,-y,-z
6 1/2+x,y,1/2-z
7 x,1/2-y,1/2+z
8 1/2-x,1/2+y,z
_cell_length_a                   11.3111(3)
_cell_length_b                   12.2496(2)
_cell_length_c                   20.8668(6)
_cell_angle_alpha                90
_cell_angle_beta                 90
_cell_angle_gamma                90
_cell_volume                     2891.23
_exptl_crystal_colour            yellow
_exptl_crystal_description       block
_chemical_melting_point          '117-119 deg.C'
_cell_formula_units_Z            8
_exptl_crystal_recrystallization_method ethanol
loop_
_atom_site_label
_atom_site_type_symbol
_atom_site_fract_x
_atom_site_fract_y
_atom_site_fract_z
Cl1 Cl 1.07060(4) 0.46412(4) 0.63850(2)
O1 O 0.08417(12) 0.77166(10) 0.30091(7)
N1 N 0.83298(14) 0.28054(12) 0.46245(8)
N2 N 0.59682(13) 0.54612(12) 0.44408(7)
H1 H 0.6041 0.6051 0.4678
N3 N 0.50867(13) 0.53689(12) 0.39925(7)
C1 C 0.74234(18) 0.28104(15) 0.42204(9)
H2 H 0.7323 0.2183 0.3959
C2 C 0.66065(17) 0.36504(14) 0.41445(9)
H3 H 0.5971 0.3576 0.3850
C3 C 0.67301(16) 0.46003(14) 0.45047(8)
C4 C 0.76822(16) 0.46415(14) 0.49598(8)
C5 C 0.78837(16) 0.55336(14) 0.53770(8)
H4 H 0.7372 0.6148 0.5360
C6 C 0.88016(17) 0.55284(15) 0.58048(9)
H5 H 0.8923 0.6132 0.6083
C7 C 0.95632(15) 0.46223(15) 0.58279(8)
C8 C 0.94063(16) 0.37390(14) 0.54387(8)
H6 H 0.9931 0.3135 0.5465
C9 C 0.84571(16) 0.37261(14) 0.49947(8)
C10 C 0.43300(16) 0.61489(14) 0.39570(9)
H7 H 0.4380 0.6755 0.4240
C11 C 0.33872(16) 0.60945(14) 0.34751(8)
C12 C 0.25363(17) 0.69125(14) 0.34403(8)
H8 H 0.2563 0.7504 0.3735
C13 C 0.16454(17) 0.68761(14) 0.29795(9)
C14 C 0.15969(17) 0.60229(14) 0.25427(9)
H9 H 0.0999 0.6001 0.2223
C15 C 0.24437(17) 0.51984(15) 0.25821(9)
H10 H 0.2413 0.4607 0.2288
C16 C 0.33286(17) 0.52221(15) 0.30401(9)
H11 H 0.3894 0.4650 0.3060
C17 C -0.0048(2) 0.77502(16) 0.25230(11)
H12 H 0.0328 0.7743 0.2100
H13 H -0.0517 0.8418 0.2570
H14 H -0.0565 0.7113 0.2565
loop_
_geom_bond_atom_site_label_1
_geom_bond_atom_site_label_2
_geom_bond_site_symmetry_1
_geom_bond_site_symmetry_2
Cl1 C7 1_555 1_555
O1 C13 1_555 1_555
N1 C1 1_555 1_555
N2 H1 1_555 1_555
N3 N2 1_555 1_555
C1 H2 1_555 1_555
C2 C1 1_555 1_555
H3 C2 1_555 1_555
C3 N2 1_555 1_555
C4 C3 1_555 1_555
C5 C4 1_555 1_555
H4 C5 1_555 1_555
C6 C5 1_555 1_555
H5 C6 1_555 1_555
C7 C6 1_555 1_555
C8 C7 1_555 1_555
H6 C8 1_555 1_555
C9 N1 1_555 1_555
C10 N3 1_555 1_555
H7 C10 1_555 1_555
C11 C10 1_555 1_555
C12 C11 1_555 1_555
H8 C12 1_555 1_555
C13 C12 1_555 1_555
C14 C13 1_555 1_555
H9 C14 1_555 1_555
C15 C14 1_555 1_555
H10 C15 1_555 1_555
C16 C11 1_555 1_555
H11 C16 1_555 1_555
C17 O1 1_555 1_555
H12 C17 1_555 1_555
H13 C17 1_555 1_555
H14 C17 1_555 1_555
C2 C3 1_555 1_555
C4 C9 1_555 1_555
C8 C9 1_555 1_555
C15 C16 1_555 1_555

#END
