
#######################################################################
#
#                 Cambridge Crystallographic Data Centre
#                                CCDC 
#
#######################################################################
#
# If this CIF has been generated from an entry in the Cambridge 
# Structural Database, then it will include bibliographic, chemical, 
# crystal, experimental, refinement or atomic coordinate data resulting 
# from the CCDC's data processing and validation procedures.
#
#######################################################################

data_WAHKUN
_chemical_formula_moiety         'C22 H38 N7 O5 S2 1+,Cl1 1-,6.2(H2 O1)'
_chemical_name_systematic        
'2-(4,10-Diaza-1,7-diazoniacyclododecan-4-ylmethyl)-5,7-bis(dimethylsulfamoyl)quinolin-8-olate chloride hydrate'
_symmetry_cell_setting           monoclinic
_symmetry_space_group_name_H-M   'C 2/c'
_symmetry_Int_Tables_number      15
_space_group_name_Hall           '-C 2yn'
loop_
_symmetry_equiv_pos_site_id
_symmetry_equiv_pos_as_xyz
1 x,y,z
2 -x,y,1/2-z
3 1/2+x,1/2+y,z
4 1/2-x,1/2+y,1/2-z
5 -x,-y,-z
6 x,-y,1/2+z
7 1/2-x,1/2-y,-z
8 1/2+x,1/2-y,1/2+z
_cell_length_a                   35.8779(7)
_cell_length_b                   19.7401(4)
_cell_length_c                   21.4880(7)
_cell_angle_alpha                90
_cell_angle_beta                 118.8100(7)
_cell_angle_gamma                90
_cell_volume                     13334.8
_exptl_crystal_colour            colorless
_exptl_crystal_description       block
_cell_formula_units_Z            16
loop_
_atom_site_label
_atom_site_type_symbol
_atom_site_fract_x
_atom_site_fract_y
_atom_site_fract_z
S1 S 0.69721(3) 0.87406(4) 0.43310(5)
S2 S 0.73829(3) 0.84579(4) 0.70519(4)
O1 O 0.72020(8) 0.69685(12) 0.67013(12)
O2 O 0.70336(8) 0.84153(13) 0.37904(13)
O3 O 0.72255(8) 0.93273(12) 0.46838(14)
O4 O 0.70686(9) 0.83507(13) 0.72747(14)
O5 O 0.74731(9) 0.91480(13) 0.69416(14)
N1 N 0.69816(10) 0.49550(14) 0.54804(16)
N2 N 0.74589(9) 0.56657(15) 0.67767(15)
H1 H 0.7332 0.6085 0.6698
H2 H 0.7529 0.5592 0.6423
N3 N 0.82244(10) 0.50320(16) 0.69582(17)
H3 H 0.8374 0.5346 0.6920
N4 N 0.77771(10) 0.42876(15) 0.56749(16)
H4 H 0.7757 0.4741 0.5751
H5 H 0.7944 0.4248 0.5458
N5 N 0.69538(9) 0.63654(14) 0.54394(15)
N6 N 0.64736(10) 0.90089(17) 0.39412(17)
N7 N 0.78261(10) 0.81481(16) 0.76793(16)
C1 C 0.67918(11) 0.50915(18) 0.59432(18)
H11 H 0.6594 0.4721 0.5897
H12 H 0.6628 0.5519 0.5797
C2 C 0.71409(11) 0.51460(18) 0.67115(18)
H13 H 0.7015 0.5273 0.7016
H14 H 0.7283 0.4702 0.6875
C3 C 0.78598(11) 0.56824(19) 0.74730(19)
H15 H 0.7788 0.5688 0.7864
H16 H 0.8018 0.6103 0.7504
C4 C 0.81396(12) 0.50747(19) 0.75610(19)
H17 H 0.8411 0.5117 0.8009
H18 H 0.7996 0.4656 0.7587
C5 C 0.83791(13) 0.4371(2) 0.6880(2)
H19 H 0.8535 0.4147 0.7349
H20 H 0.8576 0.4425 0.6683
C6 C 0.80007(14) 0.3940(2) 0.6383(2)
H21 H 0.8098 0.3486 0.6330
H22 H 0.7804 0.3885 0.6581
C7 C 0.73439(13) 0.40308(19) 0.5176(2)
H23 H 0.7354 0.3531 0.5146
H24 H 0.7253 0.4218 0.4697
C8 C 0.70171(13) 0.42199(18) 0.5404(2)
H25 H 0.6736 0.4043 0.5049
H26 H 0.7095 0.3998 0.5864
C9 C 0.67535(13) 0.52962(18) 0.47913(19)
H27 H 0.6445 0.5205 0.4589
H28 H 0.6846 0.5099 0.4464
C10 C 0.68223(11) 0.60600(18) 0.48257(18)
C11 C 0.67445(12) 0.64154(19) 0.42045(19)
H29 H 0.6645 0.6181 0.3767
C12 C 0.68137(12) 0.70968(19) 0.42365(18)
H30 H 0.6766 0.7336 0.3821
C13 C 0.69574(11) 0.74506(17) 0.48897(17)
C14 C 0.70205(11) 0.70479(17) 0.54806(17)
C15 C 0.71569(10) 0.73377(17) 0.61844(17)
C16 C 0.72349(11) 0.80431(18) 0.62431(18)
C17 C 0.71807(11) 0.84391(18) 0.56640(18)
H31 H 0.7239 0.8911 0.5731
C18 C 0.70443(11) 0.81617(17) 0.49988(18)
C19 C 0.61608(13) 0.8514(2) 0.3476(2)
H32 H 0.6147 0.8137 0.3762
H33 H 0.6245 0.8341 0.3134
H34 H 0.5881 0.8730 0.3221
C20 C 0.63475(13) 0.9373(2) 0.4406(2)
H35 H 0.6563 0.9715 0.4680
H36 H 0.6323 0.9052 0.4732
H37 H 0.6073 0.9596 0.4117
C21 C 0.78204(14) 0.7593(2) 0.8132(2)
H38 H 0.7829 0.7157 0.7921
H39 H 0.7560 0.7621 0.8171
H40 H 0.8068 0.7632 0.8606
C22 C 0.81829(12) 0.8123(2) 0.7521(2)
H41 H 0.8453 0.8148 0.7965
H42 H 0.8162 0.8506 0.7215
H43 H 0.8171 0.7697 0.7276
S3 S 0.53067(3) 0.36192(5) 0.48926(5)
S4 S 0.61489(3) 0.47413(5) 0.74586(5)
O6 O 0.61271(8) 0.60192(14) 0.66646(13)
O7 O 0.52350(9) 0.31834(15) 0.53604(14)
O8 O 0.49588(8) 0.37669(15) 0.42031(13)
O9 O 0.66005(8) 0.48245(15) 0.77817(13)
O10 O 0.59910(10) 0.40962(14) 0.75439(14)
N8 N 0.56356(10) 0.75348(18) 0.47954(18)
N9 N 0.58564(11) 0.73198(17) 0.62313(17)
H6 H 0.5977 0.6896 0.6342
H7 H 0.5593 0.7277 0.5836
N10 N 0.50910(12) 0.79532(19) 0.60044(18)
H8 H 0.4947 0.7617 0.6149
N11 N 0.48290(11) 0.82197(19) 0.45479(18)
H9 H 0.4539 0.8172 0.4269
H10 H 0.4929 0.7825 0.4803
N12 N 0.57417(9) 0.61934(17) 0.52443(16)
N13 N 0.56697(10) 0.32353(17) 0.47615(16)
N14 N 0.59811(10) 0.52998(17) 0.78176(16)
C23 C 0.60878(12) 0.7560(2) 0.5348(2)
H44 H 0.6242 0.7889 0.5207
H45 H 0.6219 0.7109 0.5393
C24 C 0.61263(13) 0.7764(2) 0.6050(2)
H46 H 0.6427 0.7729 0.6425
H47 H 0.6036 0.8242 0.6026
C25 C 0.57965(16) 0.7566(2) 0.6834(2)
H48 H 0.6075 0.7701 0.7233
H49 H 0.5681 0.7194 0.7001
C26 C 0.54959(16) 0.8161(2) 0.6612(2)
H50 H 0.5450 0.8305 0.7010
H51 H 0.5618 0.8547 0.6476
C27 C 0.48076(15) 0.8517(3) 0.5629(2)
H52 H 0.4847 0.8885 0.5968
H53 H 0.4508 0.8364 0.5409
C28 C 0.49060(14) 0.8776(2) 0.5060(2)
H54 H 0.4721 0.9168 0.4812
H55 H 0.5206 0.8925 0.5278
C29 C 0.50180(13) 0.8282(3) 0.4067(2)
H56 H 0.4945 0.8732 0.3834
H57 H 0.4891 0.7934 0.3691
C30 C 0.54982(13) 0.8201(2) 0.4452(2)
H58 H 0.5605 0.8262 0.4109
H59 H 0.5626 0.8559 0.4818
C31 C 0.55594(14) 0.7000(2) 0.4275(2)
H60 H 0.5780 0.7028 0.4125
H61 H 0.5280 0.7079 0.3850
C32 C 0.55635(12) 0.6291(2) 0.4553(2)
C33 C 0.53726(13) 0.5764(2) 0.4066(2)
H62 H 0.5255 0.5848 0.3571
C34 C 0.53549(12) 0.5124(2) 0.4303(2)
H63 H 0.5224 0.4764 0.3975
C35 C 0.55340(12) 0.5006(2) 0.50452(19)
C36 C 0.57337(11) 0.5569(2) 0.54915(19)
C37 C 0.59406(11) 0.5508(2) 0.62694(19)
C38 C 0.59128(12) 0.4871(2) 0.65372(19)
C39 C 0.57088(11) 0.4321(2) 0.60933(19)
H64 H 0.5695 0.3902 0.6299
C40 C 0.55269(11) 0.4369(2) 0.53660(19)
C41 C 0.60575(12) 0.3030(2) 0.5406(2)
H65 H 0.5979 0.2779 0.5720
H66 H 0.6221 0.3434 0.5653
H67 H 0.6231 0.2740 0.5276
C42 C 0.57602(13) 0.3550(2) 0.4226(2)
H68 H 0.5897 0.3990 0.4400
H69 H 0.5494 0.3613 0.3782
H70 H 0.5950 0.3255 0.4139
C43 C 0.62299(13) 0.5910(2) 0.8151(2)
H71 H 0.6114 0.6292 0.7822
H72 H 0.6527 0.5835 0.8269
H73 H 0.6216 0.6010 0.8586
C44 C 0.55204(13) 0.5371(3) 0.7524(2)
H74 H 0.5384 0.4930 0.7351
H75 H 0.5411 0.5695 0.7129
H76 H 0.5458 0.5535 0.7894
Cl1 Cl 0.39091(4) 0.83475(7) 0.33221(7)
Cl2 Cl 0.5000 0.72333(11) 0.7500
Cl3 Cl 0.91237(8) 0.46308(12) 0.94092(17)
O11 O 0.68925(9) 0.65633(15) 0.75930(14)
O12 O 0.73967(11) 0.55837(18) 0.86043(17)
O13 O 0.80889(11) 0.60346(19) 0.97488(18)
O14 O 0.5000 0.2209(3) 0.7500
O15 O 0.56734(14) 0.2744(2) 0.7331(2)
O16 O 0.87754(13) 0.5918(3) 0.9518(2)
O17 O 0.93195(11) 0.5228(2) 0.8207(4)
O18 O 0.6930(3) 0.7217(2) 0.8823(2)
O19 O 1.0267(2) 0.5157(3) 0.8980(4)
O20 O 0.5000 0.0872(4) 0.7500
O21 O 0.44712(19) -0.0380(4) 0.7136(5)
O22 O 0.5767(3) 0.8066(4) 0.8443(3)
O23 O 0.6621(4) 0.7638(4) 0.9571(6)
O24? O 0.5986(3) 0.7655(5) 0.8398(4)
loop_
_geom_bond_atom_site_label_1
_geom_bond_atom_site_label_2
_geom_bond_site_symmetry_1
_geom_bond_site_symmetry_2
S1 O2 1_555 1_555
S2 O4 1_555 1_555
S3 O7 1_555 1_555
S4 O9 1_555 1_555
O1 C15 1_555 1_555
O3 S1 1_555 1_555
O5 S2 1_555 1_555
O6 C37 1_555 1_555
O8 S3 1_555 1_555
O10 S4 1_555 1_555
N1 C1 1_555 1_555
N2 H1 1_555 1_555
H2 N2 1_555 1_555
N3 H3 1_555 1_555
N4 H4 1_555 1_555
H5 N4 1_555 1_555
N5 C10 1_555 1_555
N6 S1 1_555 1_555
N7 S2 1_555 1_555
N8 C23 1_555 1_555
N9 H6 1_555 1_555
H7 N9 1_555 1_555
N10 H8 1_555 1_555
N11 H9 1_555 1_555
H10 N11 1_555 1_555
N12 C32 1_555 1_555
N13 S3 1_555 1_555
N14 S4 1_555 1_555
C1 H11 1_555 1_555
H12 C1 1_555 1_555
C2 N2 1_555 1_555
H13 C2 1_555 1_555
H14 C2 1_555 1_555
C3 N2 1_555 1_555
H15 C3 1_555 1_555
H16 C3 1_555 1_555
C4 N3 1_555 1_555
H17 C4 1_555 1_555
H18 C4 1_555 1_555
C5 N3 1_555 1_555
H19 C5 1_555 1_555
H20 C5 1_555 1_555
C6 N4 1_555 1_555
H21 C6 1_555 1_555
H22 C6 1_555 1_555
C7 N4 1_555 1_555
H23 C7 1_555 1_555
H24 C7 1_555 1_555
C8 N1 1_555 1_555
H25 C8 1_555 1_555
H26 C8 1_555 1_555
C9 N1 1_555 1_555
H27 C9 1_555 1_555
H28 C9 1_555 1_555
C10 C9 1_555 1_555
C11 C10 1_555 1_555
H29 C11 1_555 1_555
C12 C11 1_555 1_555
H30 C12 1_555 1_555
C13 C12 1_555 1_555
C14 N5 1_555 1_555
C15 C14 1_555 1_555
C16 S2 1_555 1_555
C17 C16 1_555 1_555
H31 C17 1_555 1_555
C18 S1 1_555 1_555
C19 N6 1_555 1_555
H32 C19 1_555 1_555
H33 C19 1_555 1_555
H34 C19 1_555 1_555
C20 N6 1_555 1_555
H35 C20 1_555 1_555
H36 C20 1_555 1_555
H37 C20 1_555 1_555
C21 N7 1_555 1_555
H38 C21 1_555 1_555
H39 C21 1_555 1_555
H40 C21 1_555 1_555
C22 N7 1_555 1_555
H41 C22 1_555 1_555
H42 C22 1_555 1_555
H43 C22 1_555 1_555
C23 H44 1_555 1_555
H45 C23 1_555 1_555
C24 N9 1_555 1_555
H46 C24 1_555 1_555
H47 C24 1_555 1_555
C25 N9 1_555 1_555
H48 C25 1_555 1_555
H49 C25 1_555 1_555
C26 N10 1_555 1_555
H50 C26 1_555 1_555
H51 C26 1_555 1_555
C27 N10 1_555 1_555
H52 C27 1_555 1_555
H53 C27 1_555 1_555
C28 N11 1_555 1_555
H54 C28 1_555 1_555
H55 C28 1_555 1_555
C29 N11 1_555 1_555
H56 C29 1_555 1_555
H57 C29 1_555 1_555
C30 N8 1_555 1_555
H58 C30 1_555 1_555
H59 C30 1_555 1_555
C31 N8 1_555 1_555
H60 C31 1_555 1_555
H61 C31 1_555 1_555
C32 C31 1_555 1_555
C33 C32 1_555 1_555
H62 C33 1_555 1_555
C34 C33 1_555 1_555
H63 C34 1_555 1_555
C35 C34 1_555 1_555
C36 N12 1_555 1_555
C37 C36 1_555 1_555
C38 S4 1_555 1_555
C39 C38 1_555 1_555
H64 C39 1_555 1_555
C40 S3 1_555 1_555
C41 N13 1_555 1_555
H65 C41 1_555 1_555
H66 C41 1_555 1_555
H67 C41 1_555 1_555
C42 N13 1_555 1_555
H68 C42 1_555 1_555
H69 C42 1_555 1_555
H70 C42 1_555 1_555
C43 N14 1_555 1_555
H71 C43 1_555 1_555
H72 C43 1_555 1_555
H73 C43 1_555 1_555
C44 N14 1_555 1_555
H74 C44 1_555 1_555
H75 C44 1_555 1_555
H76 C44 1_555 1_555
C1 C2 1_555 1_555
C3 C4 1_555 1_555
C5 C6 1_555 1_555
C7 C8 1_555 1_555
C13 C14 1_555 1_555
C13 C18 1_555 1_555
C15 C16 1_555 1_555
C17 C18 1_555 1_555
C23 C24 1_555 1_555
C25 C26 1_555 1_555
C27 C28 1_555 1_555
C29 C30 1_555 1_555
C35 C36 1_555 1_555
C35 C40 1_555 1_555
C37 C38 1_555 1_555
C39 C40 1_555 1_555

#END
