
#######################################################################
#
#                 Cambridge Crystallographic Data Centre
#                                CCDC 
#
#######################################################################
#
# If this CIF has been generated from an entry in the Cambridge 
# Structural Database, then it will include bibliographic, chemical, 
# crystal, experimental, refinement or atomic coordinate data resulting 
# from the CCDC's data processing and validation procedures.
#
#######################################################################

data_WAHYAI
_chemical_formula_moiety         'C18 H23 N3 O4'
_chemical_name_systematic        
'3-pentyl-3,3a,4,5,6,6a-hexahydrocyclopenta[c]pyrazol-6-yl 4-nitrobenzoate'
_symmetry_cell_setting           triclinic
_symmetry_space_group_name_H-M   'P -1'
_symmetry_Int_Tables_number      2
_space_group_name_Hall           '-P 1'
loop_
_symmetry_equiv_pos_site_id
_symmetry_equiv_pos_as_xyz
1 x,y,z
2 -x,-y,-z
_cell_length_a                   6.7889(2)
_cell_length_b                   15.1416(4)
_cell_length_c                   17.9178(4)
_cell_angle_alpha                80.9060(10)
_cell_angle_beta                 79.6860(10)
_cell_angle_gamma                81.2950(10)
_cell_volume                     1774.91
_exptl_crystal_colour            colorless
_exptl_crystal_description       rod
_cell_formula_units_Z            4
loop_
_atom_site_label
_atom_site_type_symbol
_atom_site_fract_x
_atom_site_fract_y
_atom_site_fract_z
O1 O 0.8164(3) -0.20372(11) 0.29773(10)
O2 O 0.5276(2) -0.15654(10) 0.36134(10)
O3 O 1.25578(17) 0.12192(7) 0.41624(6)
O4 O 0.94280(16) 0.18114(7) 0.46526(6)
N1 N 0.7074(3) -0.15209(10) 0.33823(10)
N2 N 1.1275(2) 0.46696(9) 0.40832(7)
N3 N 1.1987(2) 0.38581(9) 0.41030(7)
C1 C 0.8005(3) -0.08022(11) 0.36089(9)
C2 C 1.0049(3) -0.07783(11) 0.33874(9)
H1 H 1.0826 -0.1198 0.3094
C3 C 1.0920(3) -0.01143(11) 0.36124(9)
H2 H 1.2297 -0.0084 0.3470
C4 C 0.9726(2) 0.05110(10) 0.40535(8)
C5 C 0.7661(2) 0.04790(11) 0.42542(9)
H3 H 0.6870 0.0905 0.4539
C6 C 0.6776(3) -0.01826(11) 0.40335(9)
H4 H 0.5397 -0.0210 0.4166
C7 C 1.0754(2) 0.12048(10) 0.42869(8)
C8 C 1.0264(3) 0.25821(11) 0.48212(8)
H5 H 1.1565 0.2406 0.5003
C9 C 0.8690(3) 0.30392(12) 0.53941(9)
H6 H 0.9285 0.3433 0.5644
H7 H 0.8069 0.2597 0.5781
C10 C 0.7143(3) 0.35803(12) 0.49222(9)
H8 H 0.6445 0.4094 0.5166
H9 H 0.6156 0.3207 0.4860
C11 C 0.8389(2) 0.38940(10) 0.41407(8)
H10 H 0.7686 0.3841 0.3720
C12 C 0.9072(2) 0.48287(10) 0.40460(8)
H11 H 0.8364 0.5147 0.4472
C13 C 1.0401(2) 0.32720(10) 0.40978(8)
H12 H 1.0674 0.2975 0.3635
C14 C 0.8747(2) 0.54106(11) 0.32887(8)
H13 H 0.9519 0.5916 0.3212
H14 H 0.9251 0.5056 0.2873
C15 C 0.6538(2) 0.57672(11) 0.32634(9)
H15 H 0.6083 0.6181 0.3639
H16 H 0.5745 0.5267 0.3405
C16 C 0.6157(2) 0.62504(11) 0.24809(8)
H17 H 0.7039 0.6716 0.2318
H18 H 0.6494 0.5823 0.2113
C17 C 0.3983(3) 0.66764(12) 0.24797(10)
H19 H 0.3112 0.6204 0.2601
H20 H 0.3612 0.7065 0.2878
C18 C 0.3624(3) 0.72241(13) 0.17209(11)
H21 H 0.4422 0.7715 0.1611
H22 H 0.2221 0.7458 0.1749
H23 H 0.4003 0.6846 0.1322
O5 O 1.51124(18) -0.10931(8) 0.01918(7)
O6 O 1.30010(19) -0.17664(9) -0.02159(7)
O7 O 0.51174(17) 0.03840(8) 0.21268(7)
O8 O 0.72564(15) 0.13474(7) 0.22288(6)
N4 N 1.3394(2) -0.12448(9) 0.01808(7)
N5 N 0.20926(19) 0.36898(9) 0.21950(7)
N6 N 0.24274(18) 0.28508(9) 0.22537(7)
C19 C 1.1703(2) -0.07752(10) 0.06702(8)
C20 C 1.2117(2) -0.01099(10) 0.10462(9)
H24 H 1.3427 0.0026 0.1004
C21 C 1.0514(2) 0.03492(10) 0.14891(8)
H25 H 1.0738 0.0809 0.1739
C22 C 0.8580(2) 0.01204(10) 0.15574(8)
C23 C 0.8231(2) -0.05719(10) 0.11893(9)
H26 H 0.6938 -0.0734 0.1252
C24 C 0.9803(2) -0.10197(10) 0.07299(9)
H27 H 0.9581 -0.1472 0.0470
C25 C 0.6790(2) 0.06138(10) 0.20021(8)
C26 C 0.5548(2) 0.19377(10) 0.25799(8)
H28 H 0.4589 0.1601 0.2949
C27 C 0.6415(2) 0.26028(10) 0.29393(8)
H29 H 0.7502 0.2302 0.3209
H30 H 0.5383 0.2905 0.3295
C28 C 0.7201(2) 0.32722(11) 0.22568(8)
H31 H 0.8530 0.3040 0.2013
H32 H 0.7275 0.3847 0.2418
C29 C 0.5644(2) 0.33740(10) 0.17080(8)
H33 H 0.6312 0.3413 0.1174
C30 C 0.3894(2) 0.41391(10) 0.18150(8)
H34 H 0.4197 0.4530 0.2156
C31 C 0.4556(2) 0.25271(10) 0.19377(8)
H35 H 0.4623 0.2202 0.1500
C32 C 0.3444(2) 0.47123(10) 0.10679(8)
H36 H 0.4528 0.5079 0.0875
H37 H 0.3453 0.4312 0.0695
C33 C 0.1446(2) 0.53325(10) 0.11248(8)
H38 H 0.0343 0.4969 0.1272
H39 H 0.1380 0.5708 0.1522
C34 C 0.1188(2) 0.59331(10) 0.03734(8)
H40 H 0.1363 0.5556 -0.0030
H41 H 0.2243 0.6323 0.0247
C35 C -0.0852(2) 0.65152(11) 0.03887(9)
H42 H -0.1912 0.6128 0.0521
H43 H -0.1020 0.6902 0.0784
C36 C -0.1083(3) 0.70977(11) -0.03721(9)
H44 H -0.0055 0.7492 -0.0502
H45 H -0.2388 0.7450 -0.0330
H46 H -0.0952 0.6718 -0.0764
loop_
_geom_bond_atom_site_label_1
_geom_bond_atom_site_label_2
_geom_bond_site_symmetry_1
_geom_bond_site_symmetry_2
O1 N1 1_555 1_555
O2 N1 1_555 1_555
O3 C7 1_555 1_555
O4 C7 1_555 1_555
N1 C1 1_555 1_555
N2 N3 1_555 1_555
N3 C13 1_555 1_555
C1 C2 1_555 1_555
C2 H1 1_555 1_555
C3 C2 1_555 1_555
H2 C3 1_555 1_555
C4 C3 1_555 1_555
C5 C4 1_555 1_555
H3 C5 1_555 1_555
C6 C1 1_555 1_555
H4 C6 1_555 1_555
C7 C4 1_555 1_555
C8 O4 1_555 1_555
H5 C8 1_555 1_555
C9 C8 1_555 1_555
H6 C9 1_555 1_555
H7 C9 1_555 1_555
C10 C9 1_555 1_555
H8 C10 1_555 1_555
H9 C10 1_555 1_555
C11 C10 1_555 1_555
H10 C11 1_555 1_555
C12 N2 1_555 1_555
H11 C12 1_555 1_555
C13 C8 1_555 1_555
H12 C13 1_555 1_555
C14 C12 1_555 1_555
H13 C14 1_555 1_555
H14 C14 1_555 1_555
C15 C14 1_555 1_555
H15 C15 1_555 1_555
H16 C15 1_555 1_555
C16 C15 1_555 1_555
H17 C16 1_555 1_555
H18 C16 1_555 1_555
C17 C16 1_555 1_555
H19 C17 1_555 1_555
H20 C17 1_555 1_555
C18 C17 1_555 1_555
H21 C18 1_555 1_555
H22 C18 1_555 1_555
H23 C18 1_555 1_555
O5 N4 1_555 1_555
O6 N4 1_555 1_555
O7 C25 1_555 1_555
O8 C25 1_555 1_555
N4 C19 1_555 1_555
N5 N6 1_555 1_555
N6 C31 1_555 1_555
C19 C20 1_555 1_555
C20 H24 1_555 1_555
C21 C20 1_555 1_555
H25 C21 1_555 1_555
C22 C21 1_555 1_555
C23 C22 1_555 1_555
H26 C23 1_555 1_555
C24 C19 1_555 1_555
H27 C24 1_555 1_555
C25 C22 1_555 1_555
C26 O8 1_555 1_555
H28 C26 1_555 1_555
C27 C26 1_555 1_555
H29 C27 1_555 1_555
H30 C27 1_555 1_555
C28 C27 1_555 1_555
H31 C28 1_555 1_555
H32 C28 1_555 1_555
C29 C28 1_555 1_555
H33 C29 1_555 1_555
C30 N5 1_555 1_555
H34 C30 1_555 1_555
C31 C26 1_555 1_555
H35 C31 1_555 1_555
C32 C30 1_555 1_555
H36 C32 1_555 1_555
H37 C32 1_555 1_555
C33 C32 1_555 1_555
H38 C33 1_555 1_555
H39 C33 1_555 1_555
C34 C33 1_555 1_555
H40 C34 1_555 1_555
H41 C34 1_555 1_555
C35 C34 1_555 1_555
H42 C35 1_555 1_555
H43 C35 1_555 1_555
C36 C35 1_555 1_555
H44 C36 1_555 1_555
H45 C36 1_555 1_555
H46 C36 1_555 1_555
C5 C6 1_555 1_555
C11 C12 1_555 1_555
C11 C13 1_555 1_555
C23 C24 1_555 1_555
C29 C30 1_555 1_555
C29 C31 1_555 1_555

#END
