
#######################################################################
#
#                 Cambridge Crystallographic Data Centre
#                                CCDC 
#
#######################################################################
#
# If this CIF has been generated from an entry in the Cambridge 
# Structural Database, then it will include bibliographic, chemical, 
# crystal, experimental, refinement or atomic coordinate data resulting 
# from the CCDC's data processing and validation procedures.
#
#######################################################################

data_WAJGUJ
_chemical_formula_moiety         'C9 H3 N4 Se2'
_chemical_name_systematic        
'3,5-Dicyanophenyl-1,2,3,5-diselenadiazolyl radical'
_symmetry_cell_setting           triclinic
_symmetry_space_group_name_H-M   'P -1'
_symmetry_Int_Tables_number      2
_space_group_name_Hall           '-P 1'
loop_
_symmetry_equiv_pos_site_id
_symmetry_equiv_pos_as_xyz
1 x,y,z
2 -x,-y,-z
_cell_length_a                   7.197(2)
_cell_length_b                   10.753(3)
_cell_length_c                   13.345(5)
_cell_angle_alpha                88.00(3)
_cell_angle_beta                 82.05(2)
_cell_angle_gamma                81.00(2)
_cell_volume                     1010.15
_exptl_crystal_colour            'dark green'
_chemical_melting_point          280-284deg.C
_cell_formula_units_Z            4
loop_
_atom_site_label
_atom_site_type_symbol
_atom_site_fract_x
_atom_site_fract_y
_atom_site_fract_z
Se1 Se 0.3995(2) 0.1651(1) 0.2610(1)
Se2 Se 0.3314(2) 0.1064(1) 0.4302(1)
N1 N 0.4008(18) 0.0080(11) 0.2206(10)
N2 N 0.3312(18) -0.0526(11) 0.3923(9)
N3 N 0.2819(23) -0.3840(14) -0.0501(12)
N4 N 0.4241(20) -0.6204(14) 0.4287(11)
C1 C 0.3684(19) -0.0759(12) 0.2937(10)
C2 C 0.3630(20) -0.2089(13) 0.2650(11)
C3 C 0.3450(19) -0.2281(13) 0.1647(10)
C4 C 0.3408(21) -0.3541(13) 0.1353(10)
C5 C 0.3677(23) -0.4569(14) 0.2012(11)
C6 C 0.3865(20) -0.4296(12) 0.3021(12)
C7 C 0.3916(17) -0.3070(11) 0.3326(10)
C8 C 0.3060(24) -0.3760(15) 0.0330(12)
C9 C 0.4100(23) -0.5358(15) 0.3731(12)
H1 H 0.3354 -0.1594 0.1168
H2 H 0.3711 -0.5416 0.1797
H3 H 0.4137 -0.2918 0.4001
Se3 Se -0.1178(2) 0.1609(1) 0.4192(1)
Se4 Se -0.0560(2) 0.2208(1) 0.2502(1)
N5 N -0.1353(19) 0.0029(10) 0.3840(10)
N6 N -0.0719(20) 0.0671(12) 0.2092(9)
N7 N -0.0669(24) -0.5628(12) 0.4035(12)
N8 N -0.2377(25) -0.3225(16) -0.0575(12)
C10 C -0.1096(18) -0.0125(12) 0.2848(11)
C11 C -0.1175(22) -0.1420(12) 0.2513(11)
C12 C -0.1085(21) -0.2498(14) 0.3184(11)
C13 C -0.1159(20) -0.3705(13) 0.2873(11)
C14 C -0.1447(21) -0.3861(14) 0.1871(12)
C15 C -0.1709(21) -0.2867(14) 0.1216(11)
C16 C -0.1619(20) -0.1696(14) 0.1547(12)
C17 C -0.0884(23) -0.4753(13) 0.3523(12)
C18 C -0.2094(29) -0.2995(17) 0.0238(14)
H4 H -0.0978 -0.2378 0.3882
H5 H -0.1480 -0.4693 0.1643
H6 H -0.1878 -0.1003 0.1088
loop_
_geom_bond_atom_site_label_1
_geom_bond_atom_site_label_2
_geom_bond_site_symmetry_1
_geom_bond_site_symmetry_2
Se1 Se2 1_555 1_555
Se2 N2 1_555 1_555
N1 Se1 1_555 1_555
N2 C1 1_555 1_555
N3 C8 1_555 1_555
N4 C9 1_555 1_555
C1 N1 1_555 1_555
C2 C1 1_555 1_555
C3 C2 1_555 1_555
C4 C3 1_555 1_555
C5 C4 1_555 1_555
C6 C5 1_555 1_555
C7 C2 1_555 1_555
C8 C4 1_555 1_555
C9 C6 1_555 1_555
H1 C3 1_555 1_555
H2 C5 1_555 1_555
H3 C7 1_555 1_555
Se3 Se4 1_555 1_555
Se4 N6 1_555 1_555
N5 Se3 1_555 1_555
N6 C10 1_555 1_555
N7 C17 1_555 1_555
N8 C18 1_555 1_555
C10 N5 1_555 1_555
C11 C10 1_555 1_555
C12 C11 1_555 1_555
C13 C12 1_555 1_555
C14 C13 1_555 1_555
C15 C14 1_555 1_555
C16 C11 1_555 1_555
C17 C13 1_555 1_555
C18 C15 1_555 1_555
H4 C12 1_555 1_555
H5 C14 1_555 1_555
H6 C16 1_555 1_555
C6 C7 1_555 1_555
C15 C16 1_555 1_555

#END
