
#######################################################################
#
#                 Cambridge Crystallographic Data Centre
#                                CCDC 
#
#######################################################################
#
# If this CIF has been generated from an entry in the Cambridge 
# Structural Database, then it will include bibliographic, chemical, 
# crystal, experimental, refinement or atomic coordinate data resulting 
# from the CCDC's data processing and validation procedures.
#
#######################################################################

data_WAJKAW
_chemical_formula_moiety         'C6 H2 N3 O7 1-,C4 H5 N6 1+'
_chemical_name_systematic        
'4-(1H-1,2,4-triazol-3-yl)-4H-1,2,4-triazol-1-ium 2,4,6-trinitrophenolate'
_symmetry_cell_setting           monoclinic
_symmetry_space_group_name_H-M   'P 21/c'
_symmetry_Int_Tables_number      14
_space_group_name_Hall           '-P 2ybc'
loop_
_symmetry_equiv_pos_site_id
_symmetry_equiv_pos_as_xyz
1 x,y,z
2 -x,1/2+y,1/2-z
3 -x,-y,-z
4 x,1/2-y,1/2+z
_cell_length_a                   12.244(3)
_cell_length_b                   9.215(2)
_cell_length_c                   12.892(4)
_cell_angle_alpha                90
_cell_angle_beta                 106.770(4)
_cell_angle_gamma                90
_cell_volume                     1392.72
_exptl_crystal_colour            yellow
_exptl_crystal_description       Block
_cell_formula_units_Z            4
loop_
_atom_site_label
_atom_site_type_symbol
_atom_site_fract_x
_atom_site_fract_y
_atom_site_fract_z
O1 O 0.79048(7) 0.61355(11) 0.56651(8)
O2 O 0.75377(8) 0.85724(10) 0.44518(7)
O3 O 0.85764(9) 0.85287(14) 0.33520(8)
O4 O 1.26095(9) 0.83104(13) 0.53239(12)
O5 O 1.31867(9) 0.66836(15) 0.65610(11)
O6 O 1.04837(10) 0.43601(14) 0.80312(9)
O7 O 0.88447(9) 0.38019(11) 0.69143(9)
N1 N 0.84006(8) 0.82052(11) 0.42157(8)
N2 N 1.24262(9) 0.73319(13) 0.58927(10)
N3 N 0.97215(9) 0.45260(12) 0.71712(9)
C1 C 0.89317(9) 0.63449(12) 0.56949(9)
C2 C 0.92708(9) 0.73703(12) 0.49959(8)
C3 C 1.03826(9) 0.76713(12) 0.50289(9)
H1 H 1.0550 0.8348 0.4540
C4 C 1.12512(9) 0.69618(13) 0.57937(10)
C5 C 1.10174(10) 0.59490(13) 0.64939(9)
H2 H 1.1622 0.5480 0.7018
C6 C 0.98988(10) 0.56291(12) 0.64223(9)
N4 N 0.56482(11) 0.36375(14) 0.55708(10)
N5 N 0.64301(9) 0.44785(12) 0.62943(9)
N6 N 0.51189(8) 0.40739(11) 0.70350(8)
N7 N 0.46246(9) 0.50683(13) 0.85515(8)
N8 N 0.32577(10) 0.35231(14) 0.85330(9)
N9 N 0.36634(10) 0.31026(14) 0.77064(10)
C7 C 0.48607(12) 0.33998(15) 0.60482(11)
H3 H 0.4196 0.2834 0.5750
C8 C 0.61189(10) 0.47465(14) 0.71653(10)
H4 H 0.6524 0.5309 0.7772
C9 C 0.44657(9) 0.40735(13) 0.77746(9)
C10 C 0.38251(10) 0.46816(15) 0.90224(10)
H5 H 0.3684 0.5167 0.9621
H6 H 0.7100(15) 0.484(2) 0.6122(15)
H7 H 0.2699(18) 0.306(2) 0.8776(17)
loop_
_geom_bond_atom_site_label_1
_geom_bond_atom_site_label_2
_geom_bond_site_symmetry_1
_geom_bond_site_symmetry_2
O1 C1 1_555 1_555
O2 N1 1_555 1_555
O3 N1 1_555 1_555
O4 N2 1_555 1_555
O5 N2 1_555 1_555
O6 N3 1_555 1_555
O7 N3 1_555 1_555
N1 C2 1_555 1_555
N2 C4 1_555 1_555
N3 C6 1_555 1_555
C1 C2 1_555 1_555
C2 C3 1_555 1_555
C3 H1 1_555 1_555
C4 C3 1_555 1_555
C5 C4 1_555 1_555
H2 C5 1_555 1_555
C6 C1 1_555 1_555
N4 N5 1_555 1_555
N5 C8 1_555 1_555
N6 C7 1_555 1_555
N7 C9 1_555 1_555
N8 N9 1_555 1_555
N9 C9 1_555 1_555
C7 N4 1_555 1_555
H3 C7 1_555 1_555
C8 N6 1_555 1_555
H4 C8 1_555 1_555
C9 N6 1_555 1_555
C10 N7 1_555 1_555
H5 C10 1_555 1_555
H6 N5 1_555 1_555
H7 N8 1_555 1_555
C5 C6 1_555 1_555
N8 C10 1_555 1_555

#END
