
#######################################################################
#
#                 Cambridge Crystallographic Data Centre
#                                CCDC 
#
#######################################################################
#
# If this CIF has been generated from an entry in the Cambridge 
# Structural Database, then it will include bibliographic, chemical, 
# crystal, experimental, refinement or atomic coordinate data resulting 
# from the CCDC's data processing and validation procedures.
#
#######################################################################

data_WAJMID
_chemical_formula_moiety         'C20 H28 N2 O8'
_chemical_name_systematic        
1-Isopropyl-2,3-dicarbomethoxy-5-(1,2-dicarbomethoxy-2-(isopropylamino)ethenyl)pyrrole
_symmetry_cell_setting           monoclinic
_symmetry_space_group_name_H-M   'P 21/n'
_symmetry_Int_Tables_number      14
_space_group_name_Hall           '-P 2yn'
loop_
_symmetry_equiv_pos_site_id
_symmetry_equiv_pos_as_xyz
1 x,y,z
2 1/2-x,1/2+y,1/2-z
3 -x,-y,-z
4 1/2+x,1/2-y,1/2+z
_cell_length_a                   8.442(6)
_cell_length_b                   29.240(7)
_cell_length_c                   9.567(9)
_cell_angle_alpha                90
_cell_angle_beta                 109.797(8)
_cell_angle_gamma                90
_cell_volume                     2221.99
_cell_formula_units_Z            4
loop_
_atom_site_label
_atom_site_type_symbol
_atom_site_fract_x
_atom_site_fract_y
_atom_site_fract_z
C1 C 0.9843(4) 0.6225(1) 0.6624(3)
C2 C 1.0332(4) 0.6622(1) 0.7404(4)
C3 C 0.9179(4) 0.6717(1) 0.8143(3)
C4 C 0.8000(4) 0.6366(1) 0.7790(3)
C5 C 0.7460(4) 0.5656(1) 0.6149(4)
C6 C 0.5890(5) 0.5786(2) 0.4868(5)
C7 C 0.7105(6) 0.5341(1) 0.7259(5)
C8 C 0.6470(4) 0.6333(1) 0.8226(4)
C9 C 0.5406(6) 0.6155(2) 1.0120(5)
C10 C 0.9152(4) 0.7096(1) 0.9124(4)
C11 C 1.0497(6) 0.7779(2) 1.0245(5)
C12 C 1.0601(4) 0.5986(1) 0.5648(4)
C13 C 1.0469(4) 0.6177(1) 0.4292(4)
C14 C 1.1080(4) 0.6213(1) 0.1903(4)
C15 C 1.1168(6) 0.5823(3) 0.0886(4)
C16 C 1.2469(5) 0.6559(2) 0.2070(5)
C17 C 1.1536(4) 0.5563(1) 0.6106(4)
C18 C 1.2392(6) 0.4991(2) 0.7946(6)
C19 C 0.9353(4) 0.6595(1) 0.3819(4)
C20 C 0.9250(7) 0.7398(2) 0.3669(7)
N1 N 0.8403(3) 0.60698(9) 0.6865(3)
N2 N 1.1191(4) 0.6017(1) 0.3350(3)
O1 O 0.5091(3) 0.6447(1) 0.7448(3)
O2 O 0.6796(3) 0.6161(1) 0.9569(3)
O3 O 0.8157(4) 0.7139(1) 0.9763(4)
O4 O 1.0383(3) 0.73951(9) 0.9238(3)
O5 O 1.2215(3) 0.53471(3) 0.5386(3)
O6 O 1.1571(3) 0.54248(9) 0.7466(3)
O7 O 0.7862(3) 0.6569(1) 0.3316(3)
O8 O 1.0230(3) 0.69747(9) 0.4044(3)
H1 H 1.138(4) 0.681(1) 0.742(4)
H2 H 0.827(4) 0.548(1) 0.575(3)
H3 H 0.989(3) 0.637(1) 0.148(4)
H4 H 0.530(5) 0.549(1) 0.427(5)
H5 H 0.514(5) 0.595(2) 0.539(5)
H6 H 0.631(5) 0.598(1) 0.411(4)
H7 H 0.625(4) 0.550(1) 0.769(4)
H8 H 0.691(7) 0.502(1) 0.673(6)
H9 H 0.821(4) 0.527(2) 0.815(4)
H10 H 0.497(6) 0.650(1) 0.995(6)
H11 H 0.434(5) 0.600(2) 0.931(5)
H12 H 0.585(7) 0.605(2) 1.124(3)
H13 H 0.925(4) 0.789(2) 1.018(2)
H14 H 1.109(5) 0.764(1) 1.131(3)
H15 H 1.129(7) 0.801(2) 0.987(7)
H16 H 1.111(6) 0.597(2) -0.014(4)
H17 H 1.231(4) 0.564(2) 0.141(5)
H18 H 1.022(5) 0.557(2) 0.083(6)
H19 H 1.369(4) 0.642(1) 0.255(5)
H20 H 1.235(5) 0.671(1) 0.103(3)
H21 H 1.252(7) 0.682(1) 0.287(5)
H22 H 1.170(7) 0.471(2) 0.733(7)
H23 H 1.364(4) 0.500(2) 0.795(6)
H24 H 1.245(7) 0.497(2) 0.907(3)
H25 H 0.847(6) 0.740(2) 0.253(3)
H26 H 0.867(7) 0.739(2) 0.451(5)
H27 H 1.027(5) 0.764(2) 0.391(6)
H28 H 1.192(6) 0.572(1) 0.367(5)
loop_
_geom_bond_atom_site_label_1
_geom_bond_atom_site_label_2
_geom_bond_site_symmetry_1
_geom_bond_site_symmetry_2
C1 C2 1_555 1_555
C2 C3 1_555 1_555
C3 C4 1_555 1_555
C4 C8 1_555 1_555
C5 C6 1_555 1_555
C6 H4 1_555 1_555
C7 C5 1_555 1_555
C8 O1 1_555 1_555
C9 O2 1_555 1_555
C10 C3 1_555 1_555
C11 O4 1_555 1_555
C12 C1 1_555 1_555
C13 C12 1_555 1_555
C14 C15 1_555 1_555
C15 H16 1_555 1_555
C16 C14 1_555 1_555
C17 C12 1_555 1_555
C18 O6 1_555 1_555
C19 C13 1_555 1_555
C20 O8 1_555 1_555
N1 C1 1_555 1_555
N2 C13 1_555 1_555
O2 C8 1_555 1_555
O3 C10 1_555 1_555
O4 C10 1_555 1_555
O5 C17 1_555 1_555
O6 C17 1_555 1_555
O7 C19 1_555 1_555
O8 C19 1_555 1_555
H1 C2 1_555 1_555
H2 C5 1_555 1_555
H3 C14 1_555 1_555
H5 C6 1_555 1_555
H6 C6 1_555 1_555
H7 C7 1_555 1_555
H8 C7 1_555 1_555
H9 C7 1_555 1_555
H10 C9 1_555 1_555
H11 C9 1_555 1_555
H12 C9 1_555 1_555
H13 C11 1_555 1_555
H14 C11 1_555 1_555
H15 C11 1_555 1_555
H17 C15 1_555 1_555
H18 C15 1_555 1_555
H19 C16 1_555 1_555
H20 C16 1_555 1_555
H21 C16 1_555 1_555
H22 C18 1_555 1_555
H23 C18 1_555 1_555
H24 C18 1_555 1_555
H25 C20 1_555 1_555
H26 C20 1_555 1_555
H27 C20 1_555 1_555
H28 N2 1_555 1_555
C4 N1 1_555 1_555
C5 N1 1_555 1_555
C14 N2 1_555 1_555

#END
