
#######################################################################
#
#                 Cambridge Crystallographic Data Centre
#                                CCDC 
#
#######################################################################
#
# If this CIF has been generated from an entry in the Cambridge 
# Structural Database, then it will include bibliographic, chemical, 
# crystal, experimental, refinement or atomic coordinate data resulting 
# from the CCDC's data processing and validation procedures.
#
#######################################################################

data_WAJREH
_chemical_formula_moiety         'C15 H15 N3 O3'
_chemical_name_systematic        
2',5'-Dimethyl-1-methylene-3-(nitromethyl)-1,3-dihydrospiro[indene-2,4'-pyrazol]-3'(2'H)-one
_symmetry_cell_setting           monoclinic
_symmetry_space_group_name_H-M   'P 21'
_symmetry_Int_Tables_number      4
_space_group_name_Hall           'P 2yb'
loop_
_symmetry_equiv_pos_site_id
_symmetry_equiv_pos_as_xyz
1 x,y,z
2 -x,1/2+y,-z
_cell_length_a                   7.2058(4)
_cell_length_b                   6.2264(3)
_cell_length_c                   15.4550(7)
_cell_angle_alpha                90
_cell_angle_beta                 99.548(2)
_cell_angle_gamma                90
_cell_volume                     683.801
_exptl_crystal_colour            colorless
_exptl_crystal_description       rod-like
_cell_formula_units_Z            2
loop_
_atom_site_label
_atom_site_type_symbol
_atom_site_fract_x
_atom_site_fract_y
_atom_site_fract_z
O1 O -0.07114(11) 0.3295(4) 0.29416(6)
O2 O 0.04465(11) 0.4607(4) 0.18443(5)
O3 O 0.22953(11) 0.9850(4) 0.24986(5)
N1 N 0.22753(13) 0.8569(4) 0.10959(6)
N2 N 0.29981(13) 0.6823(4) 0.06768(7)
N3 N 0.04831(13) 0.4298(4) 0.26301(6)
C1 C 0.40646(15) 0.5740(4) 0.12709(7)
C2 C 0.28005(14) 0.8575(4) 0.19791(7)
C3 C 0.86426(15) 0.7302(4) 0.48235(8)
C4 C 0.67376(15) 0.7316(4) 0.33941(7)
C5 C 0.61768(15) 0.7772(4) 0.24555(7)
C6 C 0.58602(15) 0.5055(4) 0.45372(7)
C7 C 0.83039(15) 0.8092(4) 0.39705(8)
C8 C 0.74306(16) 0.5810(4) 0.51041(7)
C9 C 0.55219(14) 0.5829(4) 0.36768(7)
C10 C 0.39551(15) 0.5193(4) 0.29374(7)
C11 C 0.20623(15) 0.5296(4) 0.32581(8)
C12 C 0.50771(17) 0.3769(4) 0.10734(8)
C13 C 0.71446(15) 0.8821(4) 0.19264(7)
C14 C 0.42214(14) 0.6732(4) 0.21707(7)
C15 C 0.09234(19) 0.9985(4) 0.05848(8)
H1 H 0.209(2) 0.463(3) 0.3795(10)
H2 H 0.502(2) 0.399(3) 0.4736(9)
H3 H 0.769(2) 0.534(3) 0.5689(11)
H4 H 0.484(2) 0.363(3) 0.0474(12)
H5 H -0.022(3) 0.927(4) 0.0428(12)
H6 H 0.170(2) 0.674(3) 0.3332(10)
H7 H 0.4139(18) 0.379(3) 0.2727(9)
H8 H 0.133(3) 1.040(4) 0.0068(14)
H9 H 0.833(2) 0.946(3) 0.2142(9)
H10 H 0.632(3) 0.394(3) 0.1285(12)
H11 H 0.917(2) 0.914(3) 0.3756(9)
H12 H 0.968(2) 0.785(3) 0.5265(11)
H13 H 0.454(3) 0.250(4) 0.1380(13)
H14 H 0.072(3) 1.111(4) 0.0972(14)
H15 H 0.666(2) 0.901(12) 0.1309(10)
loop_
_geom_bond_atom_site_label_1
_geom_bond_atom_site_label_2
_geom_bond_site_symmetry_1
_geom_bond_site_symmetry_2
O1 N3 1_555 1_555
O2 N3 1_555 1_555
O3 C2 1_555 1_555
N1 N2 1_555 1_555
N2 C1 1_555 1_555
N3 C11 1_555 1_555
C1 C12 1_555 1_555
C2 N1 1_555 1_555
C3 C7 1_555 1_555
C4 C5 1_555 1_555
C5 C13 1_555 1_555
C6 C8 1_555 1_555
C7 C4 1_555 1_555
C8 C3 1_555 1_555
C9 C4 1_555 1_555
C10 C9 1_555 1_555
C11 C10 1_555 1_555
C12 H4 1_555 1_555
C13 H9 1_555 1_555
C14 C1 1_555 1_555
C15 N1 1_555 1_555
H1 C11 1_555 1_555
H2 C6 1_555 1_555
H3 C8 1_555 1_555
H5 C15 1_555 1_555
H6 C11 1_555 1_555
H7 C10 1_555 1_555
H8 C15 1_555 1_555
H10 C12 1_555 1_555
H11 C7 1_555 1_555
H12 C3 1_555 1_555
H13 C12 1_555 1_555
H14 C15 1_555 1_555
H15 C13 1_555 1_555
C2 C14 1_555 1_555
C5 C14 1_555 1_555
C6 C9 1_555 1_555
C10 C14 1_555 1_555

#END
