
#######################################################################
#
#                 Cambridge Crystallographic Data Centre
#                                CCDC 
#
#######################################################################
#
# If this CIF has been generated from an entry in the Cambridge 
# Structural Database, then it will include bibliographic, chemical, 
# crystal, experimental, refinement or atomic coordinate data resulting 
# from the CCDC's data processing and validation procedures.
#
#######################################################################

data_WAJSOQ
_chemical_formula_moiety         'C30 H24 N2 Si1'
_chemical_name_systematic        
5,6-Dimethyl-11,11-diphenyl-6,11-dihydro-5H-indolo(2',3':4,5)silolo(3,2-b)indole
_symmetry_cell_setting           monoclinic
_symmetry_space_group_name_H-M   'P 21/n'
_symmetry_Int_Tables_number      14
_space_group_name_Hall           '-P 2yn'
loop_
_symmetry_equiv_pos_site_id
_symmetry_equiv_pos_as_xyz
1 x,y,z
2 1/2+x,1/2-y,1/2+z
3 -x,-y,-z
4 1/2-x,1/2+y,1/2-z
_cell_length_a                   9.6901(3)
_cell_length_b                   15.6311(5)
_cell_length_c                   16.1127(5)
_cell_angle_alpha                90
_cell_angle_beta                 102.4017(9)
_cell_angle_gamma                90
_cell_volume                     2383.59
_exptl_crystal_colour            yellow
_exptl_crystal_description       block
_chemical_melting_point          283-285deg.C
_cell_formula_units_Z            4
loop_
_atom_site_label
_atom_site_type_symbol
_atom_site_fract_x
_atom_site_fract_y
_atom_site_fract_z
Si1 Si 0.77315(7) 0.15687(5) 0.18262(4)
N1 N 0.8254(2) 0.0432(1) -0.0259(1)
N2 N 0.6092(2) -0.0602(1) 0.0858(1)
C1 C 0.7800(3) 0.0589(2) 0.0481(2)
C2 C 0.8307(2) 0.1373(2) 0.0819(2)
C3 C 0.9103(3) 0.1727(2) 0.0261(2)
C4 C 0.9047(3) 0.1133(2) -0.0407(2)
C5 C 0.9730(3) 0.1276(2) -0.1064(2)
C6 C 1.0488(3) 0.2020(3) -0.1047(2)
C7 C 1.0567(3) 0.2621(2) -0.0393(2)
C8 C 0.9884(3) 0.2480(2) 0.0259(2)
C9 C 0.6902(2) 0.0131(2) 0.0975(2)
C10 C 0.6746(2) 0.0548(2) 0.1706(2)
C11 C 0.5785(3) 0.0052(2) 0.2065(2)
C12 C 0.5393(3) -0.0659(2) 0.1523(2)
C13 C 0.4439(3) -0.1275(2) 0.1687(2)
C14 C 0.3890(3) -0.1167(2) 0.2392(2)
C15 C 0.4255(3) -0.0473(2) 0.2939(2)
C16 C 0.5191(3) 0.0135(2) 0.2782(2)
C17 C 0.8054(3) -0.0314(2) -0.0815(2)
C18 C 0.5901(3) -0.1225(2) 0.0174(2)
C19 C 0.9252(3) 0.1573(2) 0.2771(2)
C20 C 0.9024(3) 0.1558(2) 0.3588(2)
C21 C 1.0135(4) 0.1498(2) 0.4288(2)
C22 C 1.1502(4) 0.1468(2) 0.4176(3)
C23 C 1.1761(3) 0.1487(2) 0.3376(3)
C24 C 1.0647(3) 0.1533(2) 0.2676(2)
C25 C 0.6525(3) 0.2506(2) 0.1794(2)
C26 C 0.7034(3) 0.3341(2) 0.1836(2)
C27 C 0.6109(3) 0.4035(2) 0.1746(2)
C28 C 0.4679(3) 0.3902(2) 0.1608(2)
C29 C 0.4155(3) 0.3085(2) 0.1566(2)
C30 C 0.5063(3) 0.2399(2) 0.1662(2)
H1 H 0.9684 0.0870 -0.1508
H2 H 1.0963 0.2132 -0.1493
H3 H 1.1107 0.3126 -0.0404
H4 H 0.9927 0.2892 0.0698
H5 H 0.4183 -0.1750 0.1318
H6 H 0.3241 -0.1580 0.2513
H7 H 0.3849 -0.0426 0.3424
H8 H 0.5433 0.0611 0.3152
H9 H 0.8803 -0.0708 -0.0633
H10 H 0.8044 -0.0139 -0.1381
H11 H 0.7180 -0.0580 -0.0795
H12 H 0.5126 -0.1059 -0.0265
H13 H 0.5718 -0.1771 0.0385
H14 H 0.6734 -0.1252 -0.0047
H15 H 0.8082 0.1589 0.3667
H16 H 0.9967 0.1487 0.4847
H17 H 1.2267 0.1419 0.4654
H18 H 1.2709 0.1474 0.3305
H19 H 1.0829 0.1544 0.2119
H20 H 0.8023 0.3439 0.1931
H21 H 0.6466 0.4603 0.1782
H22 H 0.4051 0.4376 0.1537
H23 H 0.3164 0.2996 0.1474
H24 H 0.4686 0.1836 0.1639
loop_
_geom_bond_atom_site_label_1
_geom_bond_atom_site_label_2
_geom_bond_site_symmetry_1
_geom_bond_site_symmetry_2
Si1 C2 1_555 1_555
N1 C1 1_555 1_555
N2 C9 1_555 1_555
C1 C2 1_555 1_555
C2 C3 1_555 1_555
C3 C4 1_555 1_555
C4 N1 1_555 1_555
C5 C4 1_555 1_555
C6 C5 1_555 1_555
C7 C6 1_555 1_555
C8 C3 1_555 1_555
C9 C1 1_555 1_555
C10 Si1 1_555 1_555
C11 C10 1_555 1_555
C12 N2 1_555 1_555
C13 C12 1_555 1_555
C14 C13 1_555 1_555
C15 C14 1_555 1_555
C16 C11 1_555 1_555
C17 N1 1_555 1_555
C18 N2 1_555 1_555
C19 Si1 1_555 1_555
C20 C19 1_555 1_555
C21 C20 1_555 1_555
C22 C21 1_555 1_555
C23 C22 1_555 1_555
C24 C19 1_555 1_555
C25 Si1 1_555 1_555
C26 C25 1_555 1_555
C27 C26 1_555 1_555
C28 C27 1_555 1_555
C29 C28 1_555 1_555
C30 C25 1_555 1_555
H1 C5 1_555 1_555
H2 C6 1_555 1_555
H3 C7 1_555 1_555
H4 C8 1_555 1_555
H5 C13 1_555 1_555
H6 C14 1_555 1_555
H7 C15 1_555 1_555
H8 C16 1_555 1_555
H9 C17 1_555 1_555
H10 C17 1_555 1_555
H11 C17 1_555 1_555
H12 C18 1_555 1_555
H13 C18 1_555 1_555
H14 C18 1_555 1_555
H15 C20 1_555 1_555
H16 C21 1_555 1_555
H17 C22 1_555 1_555
H18 C23 1_555 1_555
H19 C24 1_555 1_555
H20 C26 1_555 1_555
H21 C27 1_555 1_555
H22 C28 1_555 1_555
H23 C29 1_555 1_555
H24 C30 1_555 1_555
C7 C8 1_555 1_555
C9 C10 1_555 1_555
C11 C12 1_555 1_555
C15 C16 1_555 1_555
C23 C24 1_555 1_555
C29 C30 1_555 1_555

#END
