
#######################################################################
#
#                 Cambridge Crystallographic Data Centre
#                                CCDC 
#
#######################################################################
#
# If this CIF has been generated from an entry in the Cambridge 
# Structural Database, then it will include bibliographic, chemical, 
# crystal, experimental, refinement or atomic coordinate data resulting 
# from the CCDC's data processing and validation procedures.
#
#######################################################################

data_WAJVOU
_chemical_formula_moiety         'C12 H8 N4 O3,C6 H6 O2'
_chemical_name_systematic        
"4,4'-(1,3,4-Oxadiazole-2,5-diylidene)dipyridin-1(4H)-ol benzene-1,3-diol"
_symmetry_cell_setting           orthorhombic
_symmetry_space_group_name_H-M   'P b c n'
_symmetry_Int_Tables_number      60
_space_group_name_Hall           '-P 2n 2ab'
loop_
_symmetry_equiv_pos_site_id
_symmetry_equiv_pos_as_xyz
1 x,y,z
2 1/2-x,1/2-y,1/2+z
3 1/2+x,1/2-y,-z
4 -x,y,1/2-z
5 -x,-y,-z
6 1/2+x,1/2+y,1/2-z
7 1/2-x,1/2+y,z
8 x,-y,1/2+z
_cell_length_a                   9.991(2)
_cell_length_b                   22.751(5)
_cell_length_c                   7.1579(16)
_cell_angle_alpha                90
_cell_angle_beta                 90
_cell_angle_gamma                90
_cell_volume                     1627.03
_exptl_crystal_colour            yellow
_exptl_crystal_description       block
_cell_formula_units_Z            4
loop_
_atom_site_label
_atom_site_type_symbol
_atom_site_fract_x
_atom_site_fract_y
_atom_site_fract_z
C1 C 0.09953(17) 0.16878(7) 0.8022(2)
C2 C 0.22625(17) 0.14550(7) 0.8673(2)
C3 C 0.32418(19) 0.18287(8) 0.9340(3)
H1 H 0.3087 0.2232 0.9373
C4 C 0.4435(2) 0.16092(8) 0.9952(3)
H2 H 0.5088 0.1865 1.0397
C5 C 0.3745(2) 0.06591(8) 0.9285(4)
H3 H 0.3914 0.0257 0.9274
C6 C 0.2546(2) 0.08647(8) 0.8654(3)
H4 H 0.1910 0.0601 0.8205
N1 N 0.06523(16) 0.22301(6) 0.7848(2)
N2 N 0.46808(15) 0.10281(7) 0.9918(2)
O1 O 0.0000 0.13146(6) 0.7500
O2 O 0.58373(14) 0.08247(6) 1.0492(2)
C1C C -0.09953(17) 0.16878(7) 0.6978(2)
C2C C -0.22625(17) 0.14550(7) 0.6327(2)
C3C C -0.32418(19) 0.18287(8) 0.5660(3)
H1C H -0.3087 0.2232 0.5627
C4C C -0.4435(2) 0.16092(8) 0.5048(3)
H2C H -0.5088 0.1865 0.4603
C5C C -0.3745(2) 0.06591(8) 0.5715(4)
H3C H -0.3914 0.0257 0.5726
C6C C -0.2546(2) 0.08647(8) 0.6346(3)
H4C H -0.1910 0.0601 0.6795
N1C N -0.06523(16) 0.22301(6) 0.7152(2)
N2C N -0.46808(15) 0.10281(7) 0.5082(2)
O2C O -0.58373(14) 0.08247(6) 0.4508(2)
C7 C 0.0000 0.15638(11) 0.2500
H5 H 0.0000 0.1973 0.2500
C8 C 0.10847(18) 0.12635(8) 0.3198(3)
C9 C 0.1090(2) 0.06633(9) 0.3213(4)
H6 H 0.1816 0.0457 0.3695
C10 C 0.0000 0.03702(13) 0.2500
H7 H 0.0000 -0.0039 0.2500
O3 O 0.21242(14) 0.15791(6) 0.3891(2)
H8 H 0.2763 0.1360 0.4076
C8C C -0.10847(18) 0.12635(8) 0.1802(3)
C9C C -0.1090(2) 0.06633(9) 0.1787(4)
H6C H -0.1816 0.0457 0.1305
O3C O -0.21242(14) 0.15791(6) 0.1109(2)
H8C H -0.2763 0.1360 0.0924
loop_
_geom_bond_atom_site_label_1
_geom_bond_atom_site_label_2
_geom_bond_site_symmetry_1
_geom_bond_site_symmetry_2
C1 C2 1_555 1_555
C2 C3 1_555 1_555
C3 H1 1_555 1_555
C4 C3 1_555 1_555
H2 C4 1_555 1_555
C5 H3 1_555 1_555
C6 C2 1_555 1_555
H4 C6 1_555 1_555
C7 H5 1_555 1_555
C8 C7 1_555 1_555
C9 C8 1_555 1_555
H6 C9 1_555 1_555
C10 C9 1_555 1_555
H7 C10 1_555 1_555
N1 C1 1_555 1_555
N2 C4 1_555 1_555
O1 C1 1_555 1_555
O2 N2 1_555 1_555
O3 C8 1_555 1_555
H8 O3 1_555 1_555
C1C O1 1_555 1_555
C2C C1C 1_555 1_555
C3C C2C 1_555 1_555
H1C C3C 1_555 1_555
C4C C3C 1_555 1_555
H2C C4C 1_555 1_555
C5C H3C 1_555 1_555
C6C C2C 1_555 1_555
H4C C6C 1_555 1_555
C8C C7 1_555 1_555
C9C C10 1_555 1_555
H6C C9C 1_555 1_555
N1C N1 1_555 1_555
N2C C4C 1_555 1_555
O2C N2C 1_555 1_555
O3C C8C 1_555 1_555
H8C O3C 1_555 1_555
C5 C6 1_555 1_555
C5 N2 1_555 1_555
C1C N1C 1_555 1_555
C5C C6C 1_555 1_555
C5C N2C 1_555 1_555
C8C C9C 1_555 1_555

#END
