
#######################################################################
#
#                 Cambridge Crystallographic Data Centre
#                                CCDC 
#
#######################################################################
#
# If this CIF has been generated from an entry in the Cambridge 
# Structural Database, then it will include bibliographic, chemical, 
# crystal, experimental, refinement or atomic coordinate data resulting 
# from the CCDC's data processing and validation procedures.
#
#######################################################################

data_WAJWUB
_chemical_formula_moiety         'C12 H8 N4 O2,C6 H6 O3,0.25(H2 O1)'
_chemical_name_systematic        
'4-(5-(Pyridin-4-yl)-1,3,4-oxadiazol-2-yl)-1\l^5^-pyridin-1-ol benzene-1,2,3-triol hydrate'
_symmetry_cell_setting           monoclinic
_symmetry_space_group_name_H-M   'C 2/c'
_symmetry_Int_Tables_number      15
_space_group_name_Hall           '-C 2yn'
loop_
_symmetry_equiv_pos_site_id
_symmetry_equiv_pos_as_xyz
1 x,y,z
2 -x,y,1/2-z
3 1/2+x,1/2+y,z
4 1/2-x,1/2+y,1/2-z
5 -x,-y,-z
6 x,-y,1/2+z
7 1/2-x,1/2-y,-z
8 1/2+x,1/2-y,1/2+z
_cell_length_a                   12.002(4)
_cell_length_b                   7.804(3)
_cell_length_c                   35.338(11)
_cell_angle_alpha                90
_cell_angle_beta                 92.773(6)
_cell_angle_gamma                90
_cell_volume                     3306.01
_exptl_crystal_colour            yellow
_exptl_crystal_description       block
_cell_formula_units_Z            8
loop_
_atom_site_label
_atom_site_type_symbol
_atom_site_fract_x
_atom_site_fract_y
_atom_site_fract_z
N1 N 0.6416(2) 1.0312(4) 0.71859(8)
O1 O 0.52169(18) 0.8736(3) 0.58620(7)
C1 C 0.6182(3) 0.8902(4) 0.64755(10)
O3 O 0.6528(2) 1.0991(3) 0.75272(7)
C4 C 0.5517(3) 1.0250(4) 0.65807(10)
H2 H 0.4978 1.0690 0.6410
N2 N 0.3159(3) 0.8799(4) 0.45877(9)
C5 C 0.5650(3) 1.0936(4) 0.69354(10)
H4 H 0.5203 1.1849 0.7003
C6 C 0.6035(3) 0.8122(5) 0.61012(10)
C7 C 0.7083(3) 0.9006(4) 0.70905(10)
H5 H 0.7621 0.8592 0.7265
C8 C 0.6972(3) 0.8288(4) 0.67375(10)
H6 H 0.7431 0.7383 0.6674
C11 C 0.4718(3) 0.7301(5) 0.48782(11)
H8 H 0.5297 0.6525 0.4851
C12 C 0.4567(3) 0.8076(4) 0.52215(10)
N3 N 0.6111(3) 0.6653(4) 0.55901(9)
C14 C 0.5309(3) 0.7752(5) 0.55471(10)
C15 C 0.3998(3) 0.7691(5) 0.45743(11)
H10 H 0.4106 0.7144 0.4345
C16 C 0.3681(3) 0.9220(5) 0.52441(11)
H11 H 0.3540 0.9761 0.5471
N4 N 0.6589(3) 0.6882(4) 0.59582(9)
C18 C 0.3018(3) 0.9534(5) 0.49227(11)
H13 H 0.2434 1.0309 0.4940
O2 O 0.7577(2) 0.8158(3) 0.88384(7)
C2 C 0.6267(3) 0.5935(4) 0.87118(10)
O4 O 0.7304(2) 0.9277(3) 0.81183(7)
H1 H 0.7027 0.9715 0.7925
C3 C 0.6686(3) 0.7887(4) 0.82132(10)
O5 O 0.6412(2) 0.5362(3) 0.90756(7)
H3 H 0.7012 0.5707 0.9167
C9 C 0.5927(3) 0.7063(5) 0.79688(10)
H7 H 0.5821 0.7432 0.7719
C10 C 0.6853(3) 0.7347(4) 0.85848(10)
C13 C 0.5497(3) 0.5131(4) 0.84660(12)
H9 H 0.5091 0.4203 0.8550
C17 C 0.5328(3) 0.5693(5) 0.80973(11)
H12 H 0.4807 0.5146 0.7935
H14 H 0.7701 0.8998 0.8706
O6 O 0.3782(16) 0.195(3) 0.5898(7)
H15 H 0.3844 0.3026 0.5880
H16 H 0.3194 0.1740 0.6015
loop_
_geom_bond_atom_site_label_1
_geom_bond_atom_site_label_2
_geom_bond_site_symmetry_1
_geom_bond_site_symmetry_2
N1 O3 1_555 1_555
O1 C6 1_555 1_555
O2 C10 1_555 1_555
C1 C4 1_555 1_555
C2 O5 1_555 1_555
O4 H1 1_555 1_555
C3 O4 1_555 1_555
C4 H2 1_555 1_555
O5 H3 1_555 1_555
N2 C15 1_555 1_555
C5 N1 1_555 1_555
H4 C5 1_555 1_555
C6 C1 1_555 1_555
C7 N1 1_555 1_555
H5 C7 1_555 1_555
C8 C1 1_555 1_555
H6 C8 1_555 1_555
C9 C3 1_555 1_555
H7 C9 1_555 1_555
C10 C2 1_555 1_555
C11 H8 1_555 1_555
C12 C11 1_555 1_555
N3 C14 1_555 1_555
C13 C2 1_555 1_555
H9 C13 1_555 1_555
C14 O1 1_555 1_555
C15 C11 1_555 1_555
H10 C15 1_555 1_555
C16 C12 1_555 1_555
H11 C16 1_555 1_555
C17 C9 1_555 1_555
H12 C17 1_555 1_555
N4 C6 1_555 1_555
C18 N2 1_555 1_555
H13 C18 1_555 1_555
H14 O2 1_555 1_555
O6 H15 1_555 1_555
H16 O6 1_555 1_555
C3 C10 1_555 1_555
C4 C5 1_555 1_555
C7 C8 1_555 1_555
C12 C14 1_555 1_555
N3 N4 1_555 1_555
C13 C17 1_555 1_555
C16 C18 1_555 1_555

#END
