
#######################################################################
#
#                 Cambridge Crystallographic Data Centre
#                                CCDC 
#
#######################################################################
#
# If this CIF has been generated from an entry in the Cambridge 
# Structural Database, then it will include bibliographic, chemical, 
# crystal, experimental, refinement or atomic coordinate data resulting 
# from the CCDC's data processing and validation procedures.
#
#######################################################################

data_WAJWUA
_chemical_formula_moiety         'C18 H16 N4 O3'
_chemical_name_systematic        
1,5-Dimethyl-4-((4-nitrobenzylidene)amino)-2-phenyl-2,3-dihydro-1H-pyrazol-3-one
_chemical_properties_biological  'potential biological activity'
_symmetry_cell_setting           triclinic
_symmetry_space_group_name_H-M   'P -1'
_symmetry_Int_Tables_number      2
_space_group_name_Hall           '-P 1'
loop_
_symmetry_equiv_pos_site_id
_symmetry_equiv_pos_as_xyz
1 x,y,z
2 -x,-y,-z
_cell_length_a                   7.003(2)
_cell_length_b                   9.537(4)
_cell_length_c                   12.540(3)
_cell_angle_alpha                100.3970(15)
_cell_angle_beta                 98.8080(15)
_cell_angle_gamma                94.5490(15)
_cell_volume                     809.108
_exptl_crystal_colour            yellow
_exptl_crystal_description       block
_cell_formula_units_Z            2
_exptl_crystal_recrystallization_method methanol
loop_
_atom_site_label
_atom_site_type_symbol
_atom_site_fract_x
_atom_site_fract_y
_atom_site_fract_z
N1 N 0.4885(7) 0.1496(5) 0.7237(4)
N2 N 0.6399(7) 0.0907(5) 0.6722(4)
N3 N 0.4633(7) 0.2816(5) 0.4708(4)
N4 N 0.1928(10) 0.5936(6) 0.0693(5)
O1 O 0.2355(6) 0.2768(4) 0.6678(3)
O2 O 0.0547(8) 0.6638(5) 0.0565(4)
O3 O 0.3033(8) 0.5720(6) 0.0033(4)
C1 C 0.3885(10) 0.2269(6) 0.6500(5)
C2 C 0.4982(8) 0.2224(6) 0.5644(5)
C3 C 0.6510(9) 0.1461(6) 0.5837(5)
C4 C 0.8086(9) 0.1195(7) 0.5199(5)
H1 H 0.8914 0.2072 0.5274
H2 H 0.7540 0.0850 0.4437
H3 H 0.8832 0.0491 0.5468
C5 C 0.7977(10) 0.0419(7) 0.7423(5)
H4 H 0.8574 -0.0295 0.6984
H5 H 0.7464 0.0014 0.7982
H6 H 0.8930 0.1218 0.7763
C6 C 0.3163(9) 0.3549(6) 0.4527(4)
H7 H 0.2329 0.3700 0.5037
C7 C 0.2825(10) 0.4133(6) 0.3528(4)
C8 C 0.4187(10) 0.4107(7) 0.2834(5)
H8 H 0.5339 0.3711 0.3008
C9 C 0.3856(10) 0.4662(7) 0.1889(5)
H9 H 0.4747 0.4599 0.1408
C10 C 0.2211(10) 0.5301(6) 0.1668(5)
C11 C 0.0843(10) 0.5359(6) 0.2342(5)
H10 H -0.0299 0.5766 0.2166
C12 C 0.1182(10) 0.4810(7) 0.3278(5)
H11 H 0.0291 0.4893 0.3759
C13 C 0.4010(8) 0.0799(7) 0.7964(5)
C14 C 0.3738(10) -0.0652(8) 0.7824(5)
H12 H 0.4162 -0.1198 0.7230
C15 C 0.2867(11) -0.1347(8) 0.8517(6)
H13 H 0.2713 -0.2343 0.8407
C16 C 0.2229(11) -0.0528(10) 0.9377(6)
H14 H 0.1613 -0.0973 0.9853
C17 C 0.2487(10) 0.0945(9) 0.9548(5)
H15 H 0.2059 0.1492 1.0139
C18 C 0.3387(9) 0.1607(7) 0.8834(5)
H16 H 0.3568 0.2602 0.8945
loop_
_geom_bond_atom_site_label_1
_geom_bond_atom_site_label_2
_geom_bond_site_symmetry_1
_geom_bond_site_symmetry_2
N1 N2 1_555 1_555
N2 C3 1_555 1_555
N3 C2 1_555 1_555
N4 O2 1_555 1_555
O1 C1 1_555 1_555
O3 N4 1_555 1_555
C1 N1 1_555 1_555
C2 C1 1_555 1_555
C3 C2 1_555 1_555
C4 C3 1_555 1_555
H1 C4 1_555 1_555
H2 C4 1_555 1_555
H3 C4 1_555 1_555
C5 N2 1_555 1_555
H4 C5 1_555 1_555
H5 C5 1_555 1_555
H6 C5 1_555 1_555
C6 N3 1_555 1_555
H7 C6 1_555 1_555
C7 C6 1_555 1_555
C8 C7 1_555 1_555
H8 C8 1_555 1_555
C9 C8 1_555 1_555
H9 C9 1_555 1_555
C10 N4 1_555 1_555
C11 C10 1_555 1_555
H10 C11 1_555 1_555
C12 C7 1_555 1_555
H11 C12 1_555 1_555
C13 N1 1_555 1_555
C14 C13 1_555 1_555
H12 C14 1_555 1_555
C15 C14 1_555 1_555
H13 C15 1_555 1_555
C16 C15 1_555 1_555
H14 C16 1_555 1_555
C17 C16 1_555 1_555
H15 C17 1_555 1_555
C18 C13 1_555 1_555
H16 C18 1_555 1_555
C9 C10 1_555 1_555
C11 C12 1_555 1_555
C17 C18 1_555 1_555

#END
