
#######################################################################
#
#                 Cambridge Crystallographic Data Centre
#                                CCDC 
#
#######################################################################
#
# If this CIF has been generated from an entry in the Cambridge 
# Structural Database, then it will include bibliographic, chemical, 
# crystal, experimental, refinement or atomic coordinate data resulting 
# from the CCDC's data processing and validation procedures.
#
#######################################################################

data_WAJXAI
_chemical_formula_moiety         'C12 H8 N4 O2,C7 H6 O5'
_chemical_name_systematic        
'3,4,5-Trihydroxybenzoic acid 4-(5-(pyridin-4-yl)-1,3,4-oxadiazol-2-yl)-1\l^5^-pyridin-1-ol'
_symmetry_cell_setting           monoclinic
_symmetry_space_group_name_H-M   'P 21'
_symmetry_Int_Tables_number      4
_space_group_name_Hall           'P 2yb'
loop_
_symmetry_equiv_pos_site_id
_symmetry_equiv_pos_as_xyz
1 x,y,z
2 -x,1/2+y,-z
_cell_length_a                   10.351(3)
_cell_length_b                   6.9394(18)
_cell_length_c                   13.099(3)
_cell_angle_alpha                90
_cell_angle_beta                 108.018(4)
_cell_angle_gamma                90
_cell_volume                     894.755
_exptl_crystal_colour            yellow
_exptl_crystal_description       bar
_cell_formula_units_Z            2
loop_
_atom_site_label
_atom_site_type_symbol
_atom_site_fract_x
_atom_site_fract_y
_atom_site_fract_z
C1 C 0.6802(3) -0.0128(6) 0.6231(3)
H1 H 0.7168 -0.0362 0.5677
C2 C 0.5468(3) 0.0438(5) 0.5968(2)
H2 H 0.4944 0.0553 0.5252
C3 C 0.4919(2) 0.0833(4) 0.6772(2)
C4 C 0.5735(3) 0.0670(4) 0.7818(2)
H3 H 0.5407 0.0963 0.8385
C5 C 0.7059(3) 0.0058(5) 0.8004(2)
H4 H 0.7606 -0.0068 0.8712
C6 C 0.3501(2) 0.1413(4) 0.65158(19)
C7 C 0.1690(2) 0.2326(4) 0.67924(19)
C8 C 0.0817(2) 0.2954(4) 0.74113(19)
C9 C -0.0473(2) 0.3658(4) 0.6898(2)
H5 H -0.0789 0.3727 0.6153
C10 C -0.1280(2) 0.4250(4) 0.7489(2)
H6 H -0.2141 0.4740 0.7145
C11 C 0.0409(2) 0.3446(4) 0.90772(19)
H7 H 0.0698 0.3365 0.9822
C12 C 0.1254(2) 0.2871(4) 0.8515(2)
H8 H 0.2123 0.2425 0.8878
N1 N 0.2603(2) 0.1515(4) 0.55886(16)
N2 N 0.1410(2) 0.2133(4) 0.57750(16)
N3 N 0.7596(2) -0.0359(4) 0.7234(2)
N4 N -0.0837(2) 0.4128(3) 0.85627(16)
O1 O 0.30055(15) 0.1903(3) 0.73261(12)
O2 O -0.16323(17) 0.4706(3) 0.91242(14)
C13 C 0.1848(2) 0.7162(4) 0.66375(18)
C14 C 0.1035(2) 0.7827(4) 0.72354(19)
C15 C 0.1573(2) 0.7957(4) 0.83407(19)
C16 C 0.2915(2) 0.7485(4) 0.8846(2)
H9 H 0.3277 0.7601 0.9587
C17 C 0.3726(2) 0.6838(4) 0.82454(19)
C18 C 0.3179(2) 0.6674(4) 0.71396(19)
H10 H 0.3716 0.6230 0.6736
C19 C 0.5163(3) 0.6339(4) 0.8809(2)
O3 O 0.13296(16) 0.6968(3) 0.55561(12)
H11 H 0.0520 0.7245 0.5364
O4 O -0.02563(16) 0.8281(3) 0.66883(14)
H12 H -0.0659 0.8603 0.7111
O5 O 0.06802(17) 0.8522(3) 0.88608(15)
H13 H 0.1102 0.8878 0.9470
O6 O 0.57720(18) 0.5546(4) 0.81637(15)
H14 H 0.6571 0.5341 0.8498
O7 O 0.57253(18) 0.6649(4) 0.97408(15)
loop_
_geom_bond_atom_site_label_1
_geom_bond_atom_site_label_2
_geom_bond_site_symmetry_1
_geom_bond_site_symmetry_2
C1 H1 1_555 1_555
C2 C1 1_555 1_555
H2 C2 1_555 1_555
C3 C2 1_555 1_555
C4 C3 1_555 1_555
H3 C4 1_555 1_555
C5 C4 1_555 1_555
H4 C5 1_555 1_555
C6 C3 1_555 1_555
C7 C8 1_555 1_555
C8 C9 1_555 1_555
C9 H5 1_555 1_555
C10 C9 1_555 1_555
H6 C10 1_555 1_555
C11 H7 1_555 1_555
C12 C8 1_555 1_555
H8 C12 1_555 1_555
C13 C14 1_555 1_555
C14 C15 1_555 1_555
C15 C16 1_555 1_555
C16 H9 1_555 1_555
C17 C16 1_555 1_555
C18 C13 1_555 1_555
H10 C18 1_555 1_555
C19 C17 1_555 1_555
N1 C6 1_555 1_555
N2 C7 1_555 1_555
N3 C1 1_555 1_555
N4 C10 1_555 1_555
O1 C6 1_555 1_555
O2 N4 1_555 1_555
O3 C13 1_555 1_555
H11 O3 1_555 1_555
O4 C14 1_555 1_555
H12 O4 1_555 1_555
O5 C15 1_555 1_555
H13 O5 1_555 1_555
O6 C19 1_555 1_555
H14 O6 1_555 1_555
O7 C19 1_555 1_555
C5 N3 1_555 1_555
C7 O1 1_555 1_555
C11 C12 1_555 1_555
C11 N4 1_555 1_555
C17 C18 1_555 1_555
N1 N2 1_555 1_555

#END
