
#######################################################################
#
#                 Cambridge Crystallographic Data Centre
#                                CCDC 
#
#######################################################################
#
# If this CIF has been generated from an entry in the Cambridge 
# Structural Database, then it will include bibliographic, chemical, 
# crystal, experimental, refinement or atomic coordinate data resulting 
# from the CCDC's data processing and validation procedures.
#
#######################################################################

data_WAJZIR
_chemical_formula_moiety         'C25 H18 Cl3 O4 P1'
_chemical_name_systematic        
'Diphenyl 2-(\a,\a,4-trichlorobenzyl)phenyl phosphate'
_symmetry_cell_setting           triclinic
_symmetry_space_group_name_H-M   'P -1'
_symmetry_Int_Tables_number      2
_space_group_name_Hall           '-P 1'
loop_
_symmetry_equiv_pos_site_id
_symmetry_equiv_pos_as_xyz
1 x,y,z
2 -x,-y,-z
_cell_length_a                   9.452(4)
_cell_length_b                   9.629(5)
_cell_length_c                   15.136(5)
_cell_angle_alpha                74.051(18)
_cell_angle_beta                 79.192(12)
_cell_angle_gamma                60.608(10)
_cell_volume                     1151.77
_exptl_crystal_colour            colorless
_exptl_crystal_description       block
_chemical_melting_point          '349.0-349.8 K'
_cell_formula_units_Z            2
_exptl_crystal_recrystallization_method cyclohexane
loop_
_atom_site_label
_atom_site_type_symbol
_atom_site_fract_x
_atom_site_fract_y
_atom_site_fract_z
P1 P 0.32395(5) 0.35871(5) 0.25600(3)
Cl1 Cl -0.34476(5) 0.90688(5) 0.18297(3)
Cl2 Cl -0.07562(5) 0.62094(5) 0.13060(3)
Cl3 Cl -0.00959(5) 1.19247(5) 0.20942(3)
O1 O 0.15429(13) 0.50146(12) 0.28245(7)
O2 O 0.46335(13) 0.33075(13) 0.29928(7)
O3 O 0.32656(13) 0.40798(13) 0.14838(7)
O4 O 0.28355(13) 0.21308(13) 0.27800(7)
C1 C -0.15739(18) 0.73113(18) 0.22265(11)
C2 C -0.03522(18) 0.78225(19) 0.23585(10)
C3 C 0.11984(19) 0.66499(18) 0.26475(10)
C4 C 0.23229(19) 0.7074(2) 0.27898(10)
H1 H 0.3337 0.6268 0.2993
C5 C 0.1935(2) 0.8705(2) 0.26282(11)
H2 H 0.2682 0.9010 0.2718
C6 C 0.0418(2) 0.98691(19) 0.23317(11)
C7 C -0.07221(19) 0.94485(19) 0.22070(10)
H3 H -0.1744 1.0261 0.2020
C8 C -0.20327(18) 0.63226(18) 0.30863(11)
C9 C -0.17739(18) 0.63620(19) 0.39508(11)
H4 H -0.1279 0.6963 0.4003
C10 C -0.22527(19) 0.5506(2) 0.47378(11)
H5 H -0.2066 0.5524 0.5315
C11 C -0.30029(19) 0.46302(19) 0.46642(11)
H6 H -0.3315 0.4050 0.5192
C12 C -0.32928(19) 0.46121(19) 0.38040(12)
H7 H -0.3812 0.4031 0.3756
C13 C -0.28127(19) 0.54555(19) 0.30175(11)
H8 H -0.3012 0.5443 0.2442
C14 C 0.26699(19) 0.13162(18) 0.36991(10)
C15 C 0.3992(2) -0.00891(19) 0.40701(11)
H9 H 0.4994 -0.0473 0.3738
C16 C 0.3791(2) -0.0918(2) 0.49527(12)
H10 H 0.4668 -0.1869 0.5219
C17 C 0.2298(2) -0.0341(2) 0.54379(11)
H11 H 0.2174 -0.0900 0.6030
C18 C 0.0985(2) 0.1072(2) 0.50441(11)
H12 H -0.0021 0.1455 0.5372
C19 C 0.1164(2) 0.19146(19) 0.41641(11)
H13 H 0.0288 0.2862 0.3894
C20 C 0.46301(19) 0.33034(19) 0.08992(10)
C21 C 0.6052(2) 0.33568(19) 0.09098(11)
H14 H 0.6157 0.3855 0.1323
C22 C 0.7327(2) 0.2649(2) 0.02893(11)
H15 H 0.8302 0.2668 0.0285
C23 C 0.7160(2) 0.1916(2) -0.03212(12)
H16 H 0.8026 0.1432 -0.0731
C24 C 0.5710(2) 0.1899(2) -0.03264(12)
H17 H 0.5598 0.1416 -0.0746
C25 C 0.4420(2) 0.2597(2) 0.02899(11)
H18 H 0.3440 0.2588 0.0292
loop_
_geom_bond_atom_site_label_1
_geom_bond_atom_site_label_2
_geom_bond_site_symmetry_1
_geom_bond_site_symmetry_2
P1 O1 1_555 1_555
Cl1 C1 1_555 1_555
Cl2 C1 1_555 1_555
Cl3 C6 1_555 1_555
O1 C3 1_555 1_555
O2 P1 1_555 1_555
O3 P1 1_555 1_555
O4 P1 1_555 1_555
C1 C2 1_555 1_555
C2 C3 1_555 1_555
C3 C4 1_555 1_555
C4 H1 1_555 1_555
C5 C4 1_555 1_555
H2 C5 1_555 1_555
C6 C5 1_555 1_555
C7 C2 1_555 1_555
H3 C7 1_555 1_555
C8 C1 1_555 1_555
C9 C8 1_555 1_555
H4 C9 1_555 1_555
C10 C9 1_555 1_555
H5 C10 1_555 1_555
C11 C10 1_555 1_555
H6 C11 1_555 1_555
C12 C11 1_555 1_555
H7 C12 1_555 1_555
C13 C8 1_555 1_555
H8 C13 1_555 1_555
C14 O4 1_555 1_555
C15 C14 1_555 1_555
H9 C15 1_555 1_555
C16 C15 1_555 1_555
H10 C16 1_555 1_555
C17 C16 1_555 1_555
H11 C17 1_555 1_555
C18 C17 1_555 1_555
H12 C18 1_555 1_555
C19 C14 1_555 1_555
H13 C19 1_555 1_555
C20 O3 1_555 1_555
C21 C20 1_555 1_555
H14 C21 1_555 1_555
C22 C21 1_555 1_555
H15 C22 1_555 1_555
C23 C22 1_555 1_555
H16 C23 1_555 1_555
C24 C23 1_555 1_555
H17 C24 1_555 1_555
C25 C20 1_555 1_555
H18 C25 1_555 1_555
C6 C7 1_555 1_555
C12 C13 1_555 1_555
C18 C19 1_555 1_555
C24 C25 1_555 1_555

#END
