
#######################################################################
#
#                 Cambridge Crystallographic Data Centre
#                                CCDC 
#
#######################################################################
#
# If this CIF has been generated from an entry in the Cambridge 
# Structural Database, then it will include bibliographic, chemical, 
# crystal, experimental, refinement or atomic coordinate data resulting 
# from the CCDC's data processing and validation procedures.
#
#######################################################################

data_WAKCIX
_chemical_formula_moiety         'C14 H18 Ca1 N12 O8'
_chemical_name_systematic        
Tetra-aqua-bis((5-(pyrimidin-2-yl)-1H-tetrazol-1-yl)acetato)-calcium
_symmetry_cell_setting           monoclinic
_symmetry_space_group_name_H-M   'P 21/n'
_symmetry_Int_Tables_number      14
_space_group_name_Hall           '-P 2yn'
loop_
_symmetry_equiv_pos_site_id
_symmetry_equiv_pos_as_xyz
1 x,y,z
2 1/2-x,1/2+y,1/2-z
3 -x,-y,-z
4 1/2+x,1/2-y,1/2+z
_cell_length_a                   5.3699(11)
_cell_length_b                   11.012(2)
_cell_length_c                   18.822(4)
_cell_angle_alpha                90
_cell_angle_beta                 91.39(3)
_cell_angle_gamma                90
_cell_volume                     1112.68
_exptl_crystal_colour            colorless
_exptl_crystal_description       block
_cell_formula_units_Z            2
loop_
_atom_site_label
_atom_site_type_symbol
_atom_site_fract_x
_atom_site_fract_y
_atom_site_fract_z
Ca1 Ca 0.0000 0.5000 0.5000
O1 O 0.2485(3) 0.33318(13) 0.53430(7)
O2 O 0.3152(3) 0.63601(13) 0.54108(7)
H1 H 0.4513 0.6472 0.5199
H2 H 0.3131 0.6633 0.5833
N1 N 0.1623(4) 0.1547(2) 0.69242(12)
N2 N 0.7066(5) -0.0396(2) 0.71922(14)
C1 C 0.1019(3) 0.19634(15) 0.62088(9)
H3 H -0.0614 0.2340 0.6200
H4 H 0.0963 0.1274 0.5888
O3 O 0.1946(3) 0.50930(15) 0.39174(9)
H5 H 0.1325 0.4948 0.3507
H6 H 0.2947 0.5672 0.3837
C2 C 0.3458(5) 0.0833(2) 0.71845(15)
C3 C 0.2956(5) 0.2881(3) 0.59545(15)
N3 N 0.1513(5) 0.1618(3) 0.80472(14)
N4 N 0.0440(5) 0.2044(2) 0.74795(14)
N5 N 0.3408(5) 0.0863(2) 0.78791(13)
O4 O 0.4813(4) 0.3075(2) 0.63299(12)
C4 C 0.5235(6) 0.0080(2) 0.67913(16)
C5 C 0.8602(7) -0.1138(3) 0.6856(2)
H7 H 0.9898 -0.1502 0.7115
C6 C 0.6424(8) -0.0831(3) 0.5784(2)
H8 H 0.6222 -0.0982 0.5299
N6 N 0.4820(6) -0.0081(2) 0.60960(15)
C7 C 0.8348(7) -0.1385(3) 0.6147(2)
H9 H 0.9436 -0.1906 0.5921
O1B O -0.2485(3) 0.66682(13) 0.46570(7)
O2B O -0.3152(3) 0.36399(13) 0.45892(7)
H1B H -0.4513 0.3528 0.4801
H2B H -0.3131 0.3367 0.4167
N1B N -0.1623(4) 0.8453(2) 0.30758(12)
N2B N -0.7066(5) 1.0396(2) 0.28078(14)
C1B C -0.1019(3) 0.80366(15) 0.37912(9)
H3B H 0.0614 0.7660 0.3800
H4B H -0.0963 0.8726 0.4112
O3B O -0.1946(3) 0.49070(15) 0.60826(9)
H5B H -0.1325 0.5052 0.6493
H6B H -0.2947 0.4328 0.6163
C2B C -0.3458(5) 0.9167(2) 0.28155(15)
C3B C -0.2956(5) 0.7119(3) 0.40455(15)
N3B N -0.1513(5) 0.8382(3) 0.19528(14)
N4B N -0.0440(5) 0.7956(2) 0.25205(14)
N5B N -0.3408(5) 0.9137(2) 0.21209(13)
O4B O -0.4813(4) 0.6925(2) 0.36701(12)
C4B C -0.5235(6) 0.9920(2) 0.32087(16)
C5B C -0.8602(7) 1.1138(3) 0.3144(2)
H7B H -0.9898 1.1502 0.2885
C6B C -0.6424(8) 1.0831(3) 0.4216(2)
H8B H -0.6222 1.0982 0.4701
N6B N -0.4820(6) 1.0081(2) 0.39040(15)
C7B C -0.8348(7) 1.1385(3) 0.3853(2)
H9B H -0.9436 1.1906 0.4079
loop_
_geom_bond_atom_site_label_1
_geom_bond_atom_site_label_2
_geom_bond_site_symmetry_1
_geom_bond_site_symmetry_2
Ca1 O1 1_555 1_555
O1 C3 1_555 1_555
O2 Ca1 1_555 1_555
H1 O2 1_555 1_555
H2 O2 1_555 1_555
N1 C1 1_555 1_555
N2 C4 1_555 1_555
C1 H3 1_555 1_555
H4 C1 1_555 1_555
O3 Ca1 1_555 1_555
H5 O3 1_555 1_555
H6 O3 1_555 1_555
C2 N1 1_555 1_555
C3 C1 1_555 1_555
N3 N4 1_555 1_555
N4 N1 1_555 1_555
N5 C2 1_555 1_555
O4 C3 1_555 1_555
C4 C2 1_555 1_555
C5 N2 1_555 1_555
H7 C5 1_555 1_555
C6 H8 1_555 1_555
N6 C4 1_555 1_555
C7 C5 1_555 1_555
H9 C7 1_555 1_555
O1B Ca1 1_555 1_555
O2B Ca1 1_555 1_555
H1B O2B 1_555 1_555
H2B O2B 1_555 1_555
N1B C1B 1_555 1_555
N2B C4B 1_555 1_555
C1B H3B 1_555 1_555
H4B C1B 1_555 1_555
O3B Ca1 1_555 1_555
H5B O3B 1_555 1_555
H6B O3B 1_555 1_555
C2B N1B 1_555 1_555
C3B O1B 1_555 1_555
N3B N4B 1_555 1_555
N4B N1B 1_555 1_555
N5B C2B 1_555 1_555
O4B C3B 1_555 1_555
C4B C2B 1_555 1_555
C5B N2B 1_555 1_555
H7B C5B 1_555 1_555
C6B H8B 1_555 1_555
N6B C4B 1_555 1_555
C7B C5B 1_555 1_555
H9B C7B 1_555 1_555
N3 N5 1_555 1_555
C6 N6 1_555 1_555
C6 C7 1_555 1_555
C1B C3B 1_555 1_555
N3B N5B 1_555 1_555
C6B N6B 1_555 1_555
C6B C7B 1_555 1_555

#END
