
#######################################################################
#
#                 Cambridge Crystallographic Data Centre
#                                CCDC 
#
#######################################################################
#
# If this CIF has been generated from an entry in the Cambridge 
# Structural Database, then it will include bibliographic, chemical, 
# crystal, experimental, refinement or atomic coordinate data resulting 
# from the CCDC's data processing and validation procedures.
#
#######################################################################

data_WAKHEY
_chemical_formula_moiety         'C25 H22 B1 F2 N1 O2,0.5(C3 H6 O1)'
_chemical_name_systematic        
'1-(3-butyl-2,2-difluoro-2H-3,2-naphtho[2,3-e][1,3,2]oxazaborinin-10-yl)-2-naphthol acetone unknown solvate'
_symmetry_cell_setting           monoclinic
_symmetry_space_group_name_H-M   'C 2'
_symmetry_Int_Tables_number      5
_space_group_name_Hall           'C 2y'
loop_
_symmetry_equiv_pos_site_id
_symmetry_equiv_pos_as_xyz
1 x,y,z
2 -x,y,-z
3 1/2+x,1/2+y,z
4 1/2-x,1/2+y,-z
_cell_length_a                   20.241(4)
_cell_length_b                   11.901(2)
_cell_length_c                   22.031(4)
_cell_angle_alpha                90
_cell_angle_beta                 101.175(4)
_cell_angle_gamma                90
_cell_volume                     5206.38
_exptl_crystal_colour            yellow
_exptl_crystal_description       plate
_cell_formula_units_Z            8
loop_
_atom_site_label
_atom_site_type_symbol
_atom_site_fract_x
_atom_site_fract_y
_atom_site_fract_z
F1 F 0.9101(2) 0.7304(5) 0.6326(3)
F2 F 0.8534(2) 0.8947(4) 0.62457(18)
N1 N 0.7954(2) 0.7320(4) 0.6484(2)
O1 O 0.90822(16) 1.0262(3) 0.8325(2)
H1 H 0.9130 1.0943 0.8243
O2 O 0.89130(16) 0.8220(3) 0.71941(16)
B1 B 0.8642(3) 0.7991(7) 0.6559(3)
C1 C 0.9692(2) 0.9736(4) 0.8408(3)
C2 C 1.0304(2) 1.0372(4) 0.8510(3)
H2 H 1.0288 1.1169 0.8530
C3 C 1.0901(2) 0.9840(4) 0.8576(3)
H3 H 1.1302 1.0274 0.8641
C4 C 1.0948(2) 0.8667(4) 0.8552(3)
C5 C 1.1575(3) 0.8115(5) 0.8637(4)
H4 H 1.1981 0.8538 0.8719
C6 C 1.1600(3) 0.6963(5) 0.8602(3)
H5 H 1.2026 0.6599 0.8655
C7 C 1.1019(2) 0.6322(5) 0.8490(3)
H6 H 1.1045 0.5526 0.8474
C8 C 1.0395(2) 0.6860(4) 0.8401(2)
H7 H 0.9997 0.6419 0.8318
C9 C 1.0338(2) 0.8039(4) 0.8430(3)
C10 C 0.9698(2) 0.8584(4) 0.8371(2)
C11 C 0.9062(2) 0.7914(4) 0.8266(2)
C12 C 0.8836(2) 0.7425(3) 0.8781(2)
C13 C 0.9184(3) 0.7532(4) 0.9390(2)
H8 H 0.9594 0.7943 0.9473
C14 C 0.8942(3) 0.7047(5) 0.9877(3)
H9 H 0.9172 0.7167 1.0291
C15 C 0.8363(3) 0.6385(5) 0.9763(2)
H10 H 0.8218 0.6013 1.0096
C16 C 0.8010(2) 0.6271(4) 0.9186(2)
H11 H 0.7601 0.5856 0.9119
C17 C 0.8231(2) 0.6756(3) 0.8669(2)
C18 C 0.7869(2) 0.6617(3) 0.8061(2)
H12 H 0.7465 0.6189 0.7987
C19 C 0.8098(2) 0.7098(4) 0.7574(2)
C20 C 0.8705(2) 0.7754(4) 0.7680(2)
C21 C 0.7741(2) 0.6951(4) 0.6959(2)
H13 H 0.7324 0.6560 0.6895
C22 C 0.7552(4) 0.7105(8) 0.5854(3)
H14 H 0.7643 0.7698 0.5566
H15 H 0.7066 0.7119 0.5865
C23 C 0.7744(4) 0.5954(8) 0.5629(4)
H16 H 0.7693 0.5371 0.5937
H17 H 0.8220 0.5963 0.5581
C24 C 0.7282(4) 0.5673(9) 0.4999(4)
H18 H 0.7466 0.5007 0.4820
H19 H 0.7295 0.6310 0.4712
C25 C 0.6480(5) 0.5417(10) 0.5040(5)
H20 H 0.6451 0.4793 0.5191
H21 H 0.6246 0.5439 0.4692
H22 H 0.6350 0.5894 0.5259
F3 F 0.3431(3) 0.5019(4) 0.3582(3)
F4 F 0.30510(16) 0.4449(3) 0.2597(3)
N2 N 0.4217(2) 0.4165(4) 0.3025(3)
O3 O 0.3737(2) 0.8732(4) 0.3679(2)
H23 H 0.3926 0.8103 0.3741
O4 O 0.36996(15) 0.6043(3) 0.2767(2)
B2 B 0.3580(3) 0.4950(6) 0.3000(5)
C26 C 0.3481(3) 0.8854(5) 0.3071(3)
C27 C 0.2880(3) 0.9505(5) 0.2930(3)
H24 H 0.2699 0.9837 0.3254
C28 C 0.2567(2) 0.9652(4) 0.2336(3)
H25 H 0.2163 1.0081 0.2251
C29 C 0.2820(2) 0.9188(4) 0.1836(3)
C30 C 0.2490(3) 0.9341(4) 0.1223(3)
H26 H 0.2081 0.9754 0.1135
C31 C 0.2756(3) 0.8893(5) 0.0746(3)
H27 H 0.2526 0.8984 0.0330
C32 C 0.3377(3) 0.8294(6) 0.0877(3)
H28 H 0.3576 0.8020 0.0549
C33 C 0.3682(3) 0.8118(5) 0.1475(3)
H29 H 0.4081 0.7680 0.1560
C34 C 0.3425(2) 0.8561(4) 0.1966(3)
C35 C 0.3748(2) 0.8369(4) 0.2605(3)
C36 C 0.4375(2) 0.7678(5) 0.2749(3)
C37 C 0.5027(3) 0.8148(5) 0.2807(3)
C38 C 0.5134(3) 0.9299(5) 0.2736(3)
H30 H 0.4757 0.9792 0.2659
C39 C 0.5762(3) 0.9727(6) 0.2773(3)
H31 H 0.5814 1.0509 0.2712
C40 C 0.6337(3) 0.9038(8) 0.2902(4)
H32 H 0.6772 0.9357 0.2929
C41 C 0.6270(3) 0.7935(7) 0.2985(4)
H33 H 0.6660 0.7474 0.3076
C42 C 0.5608(2) 0.7433(6) 0.2939(3)
C43 C 0.5518(3) 0.6291(6) 0.3036(3)
H34 H 0.5904 0.5822 0.3136
C44 C 0.4895(2) 0.5824(5) 0.2992(3)
C45 C 0.4310(2) 0.6528(5) 0.2842(3)
C46 C 0.4792(3) 0.4625(5) 0.3036(3)
H35 H 0.5175 0.4149 0.3075
C47 C 0.4158(5) 0.2956(8) 0.3063(4)
H36 H 0.4604 0.2614 0.3066
H37 H 0.3846 0.2684 0.2689
C48 C 0.3900(4) 0.2565(9) 0.3638(4)
H38 H 0.3443 0.2878 0.3618
H39 H 0.3857 0.1737 0.3621
C49 C 0.4322(5) 0.2877(9) 0.4249(4)
H40 H 0.4429 0.3686 0.4226
H41 H 0.4753 0.2467 0.4283
C50 C 0.4087(6) 0.2703(12) 0.4859(5)
H42 H 0.3766 0.2270 0.4805
H43 H 0.3974 0.3307 0.4985
H44 H 0.4396 0.2436 0.5114
O5 O 0.5594(2) 0.7503(4) 0.1437(3)
C51 C 0.6604(3) 0.8279(7) 0.1222(5)
H45 H 0.6809 0.7595 0.1423
H46 H 0.6821 0.8939 0.1441
H47 H 0.6662 0.8296 0.0791
C52 C 0.5865(3) 0.8291(5) 0.1241(4)
C53 C 0.5490(3) 0.9333(5) 0.1027(4)
H48 H 0.5011 0.9222 0.1028
H49 H 0.5549 0.9511 0.0607
H50 H 0.5663 0.9954 0.1305
loop_
_geom_bond_atom_site_label_1
_geom_bond_atom_site_label_2
_geom_bond_site_symmetry_1
_geom_bond_site_symmetry_2
F1 B1 1_555 1_555
F2 B1 1_555 1_555
N1 B1 1_555 1_555
O1 H1 1_555 1_555
O2 B1 1_555 1_555
C1 O1 1_555 1_555
C2 C1 1_555 1_555
H2 C2 1_555 1_555
C3 C2 1_555 1_555
H3 C3 1_555 1_555
C4 C3 1_555 1_555
C5 C4 1_555 1_555
H4 C5 1_555 1_555
C6 C5 1_555 1_555
H5 C6 1_555 1_555
C7 C6 1_555 1_555
H6 C7 1_555 1_555
C8 C7 1_555 1_555
H7 C8 1_555 1_555
C9 C4 1_555 1_555
C10 C1 1_555 1_555
C11 C10 1_555 1_555
C12 C11 1_555 1_555
C13 C12 1_555 1_555
H8 C13 1_555 1_555
C14 C13 1_555 1_555
H9 C14 1_555 1_555
C15 C14 1_555 1_555
H10 C15 1_555 1_555
C16 C15 1_555 1_555
H11 C16 1_555 1_555
C17 C12 1_555 1_555
C18 C17 1_555 1_555
H12 C18 1_555 1_555
C19 C18 1_555 1_555
C20 O2 1_555 1_555
C21 N1 1_555 1_555
H13 C21 1_555 1_555
C22 N1 1_555 1_555
H14 C22 1_555 1_555
H15 C22 1_555 1_555
C23 C22 1_555 1_555
H16 C23 1_555 1_555
H17 C23 1_555 1_555
C24 C23 1_555 1_555
H18 C24 1_555 1_555
H19 C24 1_555 1_555
C25 C24 1_555 1_555
H20 C25 1_555 1_555
H21 C25 1_555 1_555
H22 C25 1_555 1_555
F3 B2 1_555 1_555
F4 B2 1_555 1_555
N2 B2 1_555 1_555
O3 H23 1_555 1_555
O4 B2 1_555 1_555
C26 O3 1_555 1_555
C27 C26 1_555 1_555
H24 C27 1_555 1_555
C28 C27 1_555 1_555
H25 C28 1_555 1_555
C29 C28 1_555 1_555
C30 C29 1_555 1_555
H26 C30 1_555 1_555
C31 C30 1_555 1_555
H27 C31 1_555 1_555
C32 C31 1_555 1_555
H28 C32 1_555 1_555
C33 C32 1_555 1_555
H29 C33 1_555 1_555
C34 C29 1_555 1_555
C35 C26 1_555 1_555
C36 C35 1_555 1_555
C37 C36 1_555 1_555
C38 C37 1_555 1_555
H30 C38 1_555 1_555
C39 C38 1_555 1_555
H31 C39 1_555 1_555
C40 C39 1_555 1_555
H32 C40 1_555 1_555
C41 C40 1_555 1_555
H33 C41 1_555 1_555
C42 C37 1_555 1_555
C43 C42 1_555 1_555
H34 C43 1_555 1_555
C44 C43 1_555 1_555
C45 O4 1_555 1_555
C46 N2 1_555 1_555
H35 C46 1_555 1_555
C47 N2 1_555 1_555
H36 C47 1_555 1_555
H37 C47 1_555 1_555
C48 C47 1_555 1_555
H38 C48 1_555 1_555
H39 C48 1_555 1_555
C49 C48 1_555 1_555
H40 C49 1_555 1_555
H41 C49 1_555 1_555
C50 C49 1_555 1_555
H42 C50 1_555 1_555
H43 C50 1_555 1_555
H44 C50 1_555 1_555
O5 C52 1_555 1_555
C51 H45 1_555 1_555
H46 C51 1_555 1_555
H47 C51 1_555 1_555
C52 C51 1_555 1_555
C53 C52 1_555 1_555
H48 C53 1_555 1_555
H49 C53 1_555 1_555
H50 C53 1_555 1_555
C8 C9 1_555 1_555
C9 C10 1_555 1_555
C11 C20 1_555 1_555
C16 C17 1_555 1_555
C19 C20 1_555 1_555
C19 C21 1_555 1_555
C33 C34 1_555 1_555
C34 C35 1_555 1_555
C36 C45 1_555 1_555
C41 C42 1_555 1_555
C44 C45 1_555 1_555
C44 C46 1_555 1_555

#END
