
#######################################################################
#
#                 Cambridge Crystallographic Data Centre
#                                CCDC 
#
#######################################################################
#
# If this CIF has been generated from an entry in the Cambridge 
# Structural Database, then it will include bibliographic, chemical, 
# crystal, experimental, refinement or atomic coordinate data resulting 
# from the CCDC's data processing and validation procedures.
#
#######################################################################

data_WAKJIC
_chemical_formula_moiety         'C31 H32 N2 O7'
_chemical_name_systematic        
N'-t-Butyl-N'-(3,5-dimethylbenzoyl)-N-(4-carboxyphenoxy)oxalyl-N-(4-ethylbenzoyl)hydrazine
_symmetry_cell_setting           triclinic
_symmetry_space_group_name_H-M   'P -1'
_symmetry_Int_Tables_number      2
_space_group_name_Hall           '-P 1'
loop_
_symmetry_equiv_pos_site_id
_symmetry_equiv_pos_as_xyz
1 x,y,z
2 -x,-y,-z
_cell_length_a                   9.971(4)
_cell_length_b                   13.239(5)
_cell_length_c                   13.649(5)
_cell_angle_alpha                111.141(6)
_cell_angle_beta                 103.553(6)
_cell_angle_gamma                107.231(6)
_cell_volume                     1482.68
_exptl_crystal_colour            colorless
_exptl_crystal_description       prism
_cell_formula_units_Z            2
_exptl_crystal_recrystallization_method acetonitrile
loop_
_atom_site_label
_atom_site_type_symbol
_atom_site_fract_x
_atom_site_fract_y
_atom_site_fract_z
N1 N 0.6676(2) 0.69375(17) 0.34408(15)
N2 N 0.6736(2) 0.75617(16) 0.45356(15)
O1 O 0.7931(3) 0.61289(18) 0.24637(16)
O2 O 0.4851(2) 0.59205(17) 0.42924(15)
O3 O 0.8314(2) 0.92937(15) 0.46759(15)
O4 O 0.5887(2) 0.94448(17) 0.58646(15)
O5 O 0.8411(2) 1.03205(15) 0.69160(15)
O6 O 0.8700(3) 1.46375(17) 1.10505(17)
H1 H 0.8531 1.5052 1.1577
O7 O 0.7067(3) 1.31638(19) 1.11520(18)
C1 C 0.7809(3) 0.6583(2) 0.3380(2)
C2 C 0.8887(3) 0.6759(2) 0.4451(2)
C3 C 0.8492(3) 0.5941(2) 0.4858(2)
H2 H 0.7543 0.5295 0.4467
C4 C 0.9489(3) 0.6070(2) 0.5837(2)
C5 C 1.0898(3) 0.7032(3) 0.6391(2)
H3 H 1.1582 0.7123 0.7045
C6 C 1.1325(3) 0.7862(2) 0.6003(3)
C7 C 1.0299(3) 0.7711(2) 0.5024(2)
H4 H 1.0566 0.8258 0.4748
C8 C 0.9026(4) 0.5216(3) 0.6307(3)
H5 H 0.8483 0.5465 0.6772
H6 H 0.9916 0.5206 0.6757
H7 H 0.8383 0.4430 0.5691
C9 C 1.2863(3) 0.8914(3) 0.6646(3)
H8 H 1.3491 0.8817 0.6214
H9 H 1.3336 0.8957 0.7368
H10 H 1.2740 0.9636 0.6764
C10 C 0.5479(3) 0.6799(3) 0.2429(2)
C11 C 0.4522(4) 0.5462(3) 0.1642(3)
H11 H 0.5166 0.5094 0.1406
H12 H 0.3757 0.5350 0.0986
H13 H 0.4044 0.5105 0.2041
C12 C 0.6233(4) 0.7418(3) 0.1828(3)
H14 H 0.6906 0.8233 0.2364
H15 H 0.5468 0.7395 0.1232
H16 H 0.6802 0.7017 0.1508
C13 C 0.4474(4) 0.7384(3) 0.2846(3)
H17 H 0.4019 0.7018 0.3249
H18 H 0.3690 0.7280 0.2207
H19 H 0.5081 0.8220 0.3345
C14 C 0.5876(3) 0.6876(2) 0.4959(2)
C15 C 0.6381(3) 0.7341(2) 0.6202(2)
C16 C 0.5273(3) 0.7074(2) 0.6640(2)
H20 H 0.4250 0.6713 0.6169
C17 C 0.5688(4) 0.7342(3) 0.7764(3)
H21 H 0.4938 0.7187 0.8054
C18 C 0.7196(5) 0.7836(3) 0.8477(3)
C19 C 0.8284(4) 0.8097(3) 0.8031(2)
H22 H 0.9307 0.8435 0.8496
C20 C 0.7883(3) 0.7864(2) 0.6908(2)
H23 H 0.8635 0.8062 0.6629
C21 C 0.7651(6) 0.8108(4) 0.9712(3)
H24 H 0.6959 0.7456 0.9765
H25 H 0.8661 0.8140 0.9981
C22 C 0.7653(7) 0.9205(4) 1.0450(3)
H26 H 0.8261 0.9847 1.0354
H27 H 0.8069 0.9360 1.1226
H28 H 0.6631 0.9139 1.0264
C23 C 0.7514(3) 0.8794(2) 0.5043(2)
C24 C 0.7141(3) 0.9527(2) 0.6002(2)
C25 C 0.8265(3) 1.1102(2) 0.7871(2)
C26 C 0.9177(3) 1.2286(2) 0.8324(2)
H29 H 0.9837 1.2555 0.8000
C27 C 0.9094(3) 1.3079(2) 0.9280(2)
H30 H 0.9708 1.3891 0.9604
C28 C 0.8115(3) 1.2678(2) 0.9753(2)
C29 C 0.7243(3) 1.1468(2) 0.9287(2)
H31 H 0.6599 1.1191 0.9617
C30 C 0.7313(3) 1.0667(2) 0.8339(2)
H32 H 0.6727 0.9852 0.8026
C31 C 0.7899(3) 1.3503(3) 1.0724(2)
loop_
_geom_bond_atom_site_label_1
_geom_bond_atom_site_label_2
_geom_bond_site_symmetry_1
_geom_bond_site_symmetry_2
N1 N2 1_555 1_555
N2 C14 1_555 1_555
O1 C1 1_555 1_555
O2 C14 1_555 1_555
O3 C23 1_555 1_555
O4 C24 1_555 1_555
O5 C24 1_555 1_555
O6 H1 1_555 1_555
O7 C31 1_555 1_555
C1 N1 1_555 1_555
C2 C1 1_555 1_555
C3 C2 1_555 1_555
H2 C3 1_555 1_555
C4 C3 1_555 1_555
C5 C4 1_555 1_555
H3 C5 1_555 1_555
C6 C5 1_555 1_555
C7 C2 1_555 1_555
H4 C7 1_555 1_555
C8 C4 1_555 1_555
H5 C8 1_555 1_555
H6 C8 1_555 1_555
H7 C8 1_555 1_555
C9 C6 1_555 1_555
H8 C9 1_555 1_555
H9 C9 1_555 1_555
H10 C9 1_555 1_555
C10 N1 1_555 1_555
C11 C10 1_555 1_555
H11 C11 1_555 1_555
H12 C11 1_555 1_555
H13 C11 1_555 1_555
C12 C10 1_555 1_555
H14 C12 1_555 1_555
H15 C12 1_555 1_555
H16 C12 1_555 1_555
C13 C10 1_555 1_555
H17 C13 1_555 1_555
H18 C13 1_555 1_555
H19 C13 1_555 1_555
C14 C15 1_555 1_555
C15 C16 1_555 1_555
C16 H20 1_555 1_555
C17 C16 1_555 1_555
H21 C17 1_555 1_555
C18 C17 1_555 1_555
C19 C18 1_555 1_555
H22 C19 1_555 1_555
C20 C15 1_555 1_555
H23 C20 1_555 1_555
C21 C18 1_555 1_555
H24 C21 1_555 1_555
H25 C21 1_555 1_555
C22 C21 1_555 1_555
H26 C22 1_555 1_555
H27 C22 1_555 1_555
H28 C22 1_555 1_555
C23 N2 1_555 1_555
C24 C23 1_555 1_555
C25 O5 1_555 1_555
C26 C25 1_555 1_555
H29 C26 1_555 1_555
C27 C26 1_555 1_555
H30 C27 1_555 1_555
C28 C27 1_555 1_555
C29 C28 1_555 1_555
H31 C29 1_555 1_555
C30 C25 1_555 1_555
H32 C30 1_555 1_555
C31 O6 1_555 1_555
C6 C7 1_555 1_555
C19 C20 1_555 1_555
C28 C31 1_555 1_555
C29 C30 1_555 1_555

#END
