
#######################################################################
#
#                 Cambridge Crystallographic Data Centre
#                                CCDC 
#
#######################################################################
#
# If this CIF has been generated from an entry in the Cambridge 
# Structural Database, then it will include bibliographic, chemical, 
# crystal, experimental, refinement or atomic coordinate data resulting 
# from the CCDC's data processing and validation procedures.
#
#######################################################################

data_WAKJAU
_chemical_formula_moiety         'C11 H7 Cl2 N5 S1'
_chemical_name_systematic        
2-Amino-4-(2,5-dichlorophenyl)-5-(1H-1,2,4-triazol-1-yl)-1,3-thiazole
_chemical_properties_biological  'potent fungicidal agent'
_symmetry_cell_setting           orthorhombic
_symmetry_space_group_name_H-M   'P 21 21 21'
_symmetry_Int_Tables_number      19
_space_group_name_Hall           'P 2ac 2ab'
loop_
_symmetry_equiv_pos_site_id
_symmetry_equiv_pos_as_xyz
1 x,y,z
2 1/2-x,-y,1/2+z
3 -x,1/2+y,1/2-z
4 1/2+x,1/2-y,-z
_cell_length_a                   7.842(2)
_cell_length_b                   11.324(3)
_cell_length_c                   14.840(4)
_cell_angle_alpha                90
_cell_angle_beta                 90
_cell_angle_gamma                90
_cell_volume                     1317.83
_exptl_crystal_colour            colorless
_exptl_crystal_description       block
_cell_formula_units_Z            4
_exptl_crystal_recrystallization_method ethanol
loop_
_atom_site_label
_atom_site_type_symbol
_atom_site_fract_x
_atom_site_fract_y
_atom_site_fract_z
S1 S 0.18558(8) 0.92926(5) 0.21465(4)
Cl1 Cl -0.02376(8) 0.99790(5) -0.08471(4)
Cl2 Cl 0.23456(9) 0.48866(7) -0.15771(5)
N1 N 0.2815(2) 1.01777(15) 0.05210(12)
N2 N 0.2546(3) 1.13213(17) 0.07811(15)
N3 N 0.4194(3) 1.12287(19) -0.04678(15)
N4 N 0.0611(2) 0.74991(15) 0.12839(11)
N5 N 0.0245(3) 0.74121(19) 0.28473(14)
H1 H 0.028(3) 0.7831(19) 0.3332(11)
H2 H -0.048(3) 0.6845(16) 0.2799(18)
C1 C 0.1164(3) 0.7887(2) -0.03114(14)
C2 C 0.1704(3) 0.67423(19) -0.05086(15)
H3 H 0.2111 0.6261 -0.0048
C3 C 0.1642(3) 0.6317(2) -0.13752(16)
C4 C 0.1081(3) 0.7005(3) -0.20782(17)
H4 H 0.1076 0.6714 -0.2664
C5 C 0.0528(3) 0.8131(2) -0.18966(15)
H5 H 0.0132 0.8606 -0.2363
C6 C 0.0557(3) 0.8563(2) -0.10253(14)
C7 C 0.1253(3) 0.82680(18) 0.06407(14)
C8 C 0.1981(3) 0.92585(19) 0.09752(13)
C9 C 0.0799(3) 0.79313(19) 0.20912(15)
C10 C 0.3413(5) 1.1899(2) 0.01612(19)
H6 H 0.3483 1.2718 0.0157
C11 C 0.3791(3) 1.0151(2) -0.02241(15)
H7 H 0.4131 0.9468 -0.0523
loop_
_geom_bond_atom_site_label_1
_geom_bond_atom_site_label_2
_geom_bond_site_symmetry_1
_geom_bond_site_symmetry_2
S1 C8 1_555 1_555
Cl1 C6 1_555 1_555
Cl2 C3 1_555 1_555
N1 N2 1_555 1_555
N2 C10 1_555 1_555
N3 C10 1_555 1_555
N4 C7 1_555 1_555
N5 H1 1_555 1_555
H2 N5 1_555 1_555
C1 C2 1_555 1_555
C2 H3 1_555 1_555
C3 C2 1_555 1_555
C4 C3 1_555 1_555
H4 C4 1_555 1_555
C5 C4 1_555 1_555
H5 C5 1_555 1_555
C6 C1 1_555 1_555
C7 C1 1_555 1_555
C8 N1 1_555 1_555
C9 S1 1_555 1_555
C10 H6 1_555 1_555
C11 N1 1_555 1_555
H7 C11 1_555 1_555
N3 C11 1_555 1_555
N4 C9 1_555 1_555
N5 C9 1_555 1_555
C5 C6 1_555 1_555
C7 C8 1_555 1_555

#END
