
#######################################################################
#
#                 Cambridge Crystallographic Data Centre
#                                CCDC 
#
#######################################################################
#
# If this CIF has been generated from an entry in the Cambridge 
# Structural Database, then it will include bibliographic, chemical, 
# crystal, experimental, refinement or atomic coordinate data resulting 
# from the CCDC's data processing and validation procedures.
#
#######################################################################

data_WAKKAX
_chemical_formula_moiety         'C12 H13 N3 O3'
_chemical_name_systematic        
2-cyano-N'-(3-ethoxy-2-hydroxybenzylidene)acetohydrazide
_symmetry_cell_setting           monoclinic
_symmetry_space_group_name_H-M   'P 21/c'
_symmetry_Int_Tables_number      14
_space_group_name_Hall           '-P 2ybc'
loop_
_symmetry_equiv_pos_site_id
_symmetry_equiv_pos_as_xyz
1 x,y,z
2 -x,1/2+y,1/2-z
3 -x,-y,-z
4 x,1/2-y,1/2+z
_cell_length_a                   19.573(7)
_cell_length_b                   9.620(4)
_cell_length_c                   13.731(5)
_cell_angle_alpha                90
_cell_angle_beta                 110.372(4)
_cell_angle_gamma                90
_cell_volume                     2423.73
_exptl_crystal_colour            colorless
_exptl_crystal_description       block
_cell_formula_units_Z            8
loop_
_atom_site_label
_atom_site_type_symbol
_atom_site_fract_x
_atom_site_fract_y
_atom_site_fract_z
N1 N 0.4481(2) 0.0816(4) 0.3609(3)
N2 N 0.4778(2) 0.0189(4) 0.2945(3)
N3 N 0.6270(4) 0.1532(7) 0.1117(6)
O1 O 0.4144(2) 0.2898(4) 0.4543(3)
H1 H 0.4354 0.2499 0.4201
O2 O 0.3455(2) 0.3848(4) 0.5712(3)
O3 O 0.50964(19) 0.2300(4) 0.2462(3)
C1 C 0.3860(2) 0.0526(5) 0.4809(3)
C2 C 0.3827(2) 0.1949(5) 0.4974(4)
C3 C 0.3456(2) 0.2432(5) 0.5604(4)
C4 C 0.3133(3) 0.1495(7) 0.6074(4)
H2 H 0.2883 0.1826 0.6492
C5 C 0.3172(3) 0.0091(7) 0.5938(5)
H3 H 0.2958 -0.0524 0.6269
C6 C 0.3536(3) -0.0407(6) 0.5298(4)
H4 H 0.3563 -0.1359 0.5197
C7 C 0.4202(2) -0.0019(5) 0.4108(4)
H5 H 0.4222 -0.0974 0.4017
C8 C 0.5060(2) 0.1029(5) 0.2389(3)
C9 C 0.5303(3) 0.0213(6) 0.1619(4)
H6 H 0.5500 -0.0676 0.1922
H7 H 0.4886 0.0034 0.0997
C10 C 0.5852(4) 0.0961(6) 0.1339(5)
C11 C 0.2981(3) 0.4485(8) 0.6156(6)
H8 H 0.3106 0.4193 0.6873
H9 H 0.2482 0.4211 0.5778
C12 C 0.3054(4) 0.6007(7) 0.6106(6)
H10 H 0.3551 0.6269 0.6469
H11 H 0.2745 0.6450 0.6422
H12 H 0.2914 0.6292 0.5393
H13 H 0.476(3) -0.0730(16) 0.283(5)
N4 N 0.9483(2) 0.5859(4) 1.0858(3)
N5 N 0.9786(2) 0.5240(4) 1.1812(3)
N6 N 1.1177(4) 0.6587(6) 1.5147(5)
O4 O 0.9160(2) 0.7965(4) 0.9595(3)
H14 H 0.9388 0.7544 1.0128
O5 O 0.8476(2) 0.8967(4) 0.7756(3)
O6 O 1.00886(19) 0.7331(4) 1.2622(3)
C13 C 0.8822(2) 0.5637(5) 0.9061(3)
C14 C 0.8815(2) 0.7057(5) 0.8851(4)
C15 C 0.8443(2) 0.7569(6) 0.7850(3)
C16 C 0.8074(3) 0.6644(7) 0.7084(4)
H15 H 0.7813 0.6976 0.6422
C17 C 0.8083(3) 0.5259(8) 0.7270(5)
H16 H 0.7836 0.4662 0.6729
C18 C 0.8448(3) 0.4716(6) 0.8236(4)
H17 H 0.8452 0.3763 0.8350
C19 C 0.9172(2) 0.5060(5) 1.0082(4)
H18 H 0.9172 0.4103 1.0179
C20 C 1.0063(3) 0.6050(5) 1.2650(4)
C21 C 1.0306(3) 0.5202(5) 1.3644(4)
H19 H 0.9884 0.4930 1.3814
H20 H 1.0549 0.4364 1.3544
C22 C 1.0805(3) 0.6013(6) 1.4502(4)
C23 C 0.8017(3) 0.9598(7) 0.6833(4)
H21 H 0.7514 0.9344 0.6709
H22 H 0.8145 0.9275 0.6249
C24 C 0.8100(4) 1.1115(7) 0.6928(5)
H23 H 0.7947 1.1434 0.7482
H24 H 0.7805 1.1544 0.6288
H25 H 0.8602 1.1357 0.7075
H26 H 0.987(3) 0.4318(16) 1.183(5)
loop_
_geom_bond_atom_site_label_1
_geom_bond_atom_site_label_2
_geom_bond_site_symmetry_1
_geom_bond_site_symmetry_2
N1 N2 1_555 1_555
N2 C8 1_555 1_555
N3 C10 1_555 1_555
O1 H1 1_555 1_555
O2 C3 1_555 1_555
O3 C8 1_555 1_555
C1 C2 1_555 1_555
C2 O1 1_555 1_555
C3 C2 1_555 1_555
C4 C3 1_555 1_555
H2 C4 1_555 1_555
C5 C4 1_555 1_555
H3 C5 1_555 1_555
C6 C1 1_555 1_555
H4 C6 1_555 1_555
C7 N1 1_555 1_555
H5 C7 1_555 1_555
C8 C9 1_555 1_555
C9 H6 1_555 1_555
H7 C9 1_555 1_555
C10 C9 1_555 1_555
C11 O2 1_555 1_555
H8 C11 1_555 1_555
H9 C11 1_555 1_555
C12 C11 1_555 1_555
H10 C12 1_555 1_555
H11 C12 1_555 1_555
H12 C12 1_555 1_555
H13 N2 1_555 1_555
N4 N5 1_555 1_555
N5 C20 1_555 1_555
N6 C22 1_555 1_555
O4 H14 1_555 1_555
O5 C15 1_555 1_555
O6 C20 1_555 1_555
C13 C14 1_555 1_555
C14 O4 1_555 1_555
C15 C14 1_555 1_555
C16 C15 1_555 1_555
H15 C16 1_555 1_555
C17 C16 1_555 1_555
H16 C17 1_555 1_555
C18 C13 1_555 1_555
H17 C18 1_555 1_555
C19 N4 1_555 1_555
H18 C19 1_555 1_555
C20 C21 1_555 1_555
C21 H19 1_555 1_555
H20 C21 1_555 1_555
C22 C21 1_555 1_555
C23 O5 1_555 1_555
H21 C23 1_555 1_555
H22 C23 1_555 1_555
C24 C23 1_555 1_555
H23 C24 1_555 1_555
H24 C24 1_555 1_555
H25 C24 1_555 1_555
H26 N5 1_555 1_555
C1 C7 1_555 1_555
C5 C6 1_555 1_555
C13 C19 1_555 1_555
C17 C18 1_555 1_555

#END
