
#######################################################################
#
#                 Cambridge Crystallographic Data Centre
#                                CCDC 
#
#######################################################################
#
# If this CIF has been generated from an entry in the Cambridge 
# Structural Database, then it will include bibliographic, chemical, 
# crystal, experimental, refinement or atomic coordinate data resulting 
# from the CCDC's data processing and validation procedures.
#
#######################################################################

data_WAKSUX
_chemical_formula_moiety         'C2 H5 N5 O4'
_chemical_name_systematic        N'-Methyl-N',N''-dinitroguanidine
_symmetry_cell_setting           orthorhombic
_symmetry_space_group_name_H-M   'P b c a'
_symmetry_Int_Tables_number      61
_space_group_name_Hall           '-P 2ac 2ab'
loop_
_symmetry_equiv_pos_site_id
_symmetry_equiv_pos_as_xyz
1 x,y,z
2 1/2-x,-y,1/2+z
3 1/2+x,1/2-y,-z
4 -x,1/2+y,1/2-z
5 -x,-y,-z
6 1/2+x,y,1/2-z
7 1/2-x,1/2+y,z
8 x,1/2-y,1/2+z
_cell_length_a                   11.116(1)
_cell_length_b                   18.075(2)
_cell_length_c                   6.5590(7)
_cell_angle_alpha                90
_cell_angle_beta                 90
_cell_angle_gamma                90
_cell_volume                     1317.85
_chemical_melting_point          '80 deg.C'
_cell_formula_units_Z            8
_exptl_crystal_recrystallization_method benzene
loop_
_atom_site_label
_atom_site_type_symbol
_atom_site_fract_x
_atom_site_fract_y
_atom_site_fract_z
N1 N 0.6595(2) 0.1503(1) 0.4892(3)
N2 N 0.7205(2) 0.1023(1) 0.1931(3)
C1 C 0.6266(2) 0.1097(1) 0.3177(4)
N3 N 0.5184(2) 0.0821(1) 0.2982(4)
H1 H 0.481(3) 0.086(2) 0.394(5)
H2 H 0.510(3) 0.057(2) 0.188(5)
N4 N 0.5760(3) 0.1809(1) 0.6202(4)
O1 O 0.6173(3) 0.2132(2) 0.7663(4)
O2 O 0.4700(2) 0.1748(2) 0.5809(5)
N5 N 0.7080(2) 0.0605(1) 0.0255(4)
O3 O 0.8014(2) 0.0477(1) -0.0670(3)
O4 O 0.6109(2) 0.0374(1) -0.0375(4)
C2 C 0.7850(3) 0.1717(2) 0.5284(5)
H3 H 0.793 0.189 0.667
H4 H 0.808 0.211 0.437
H5 H 0.837 0.130 0.507
loop_
_geom_bond_atom_site_label_1
_geom_bond_atom_site_label_2
_geom_bond_site_symmetry_1
_geom_bond_site_symmetry_2
N1 C1 1_555 1_555
N2 C1 1_555 1_555
C1 N3 1_555 1_555
N3 H1 1_555 1_555
H2 N3 1_555 1_555
N4 N1 1_555 1_555
O1 N4 1_555 1_555
O2 N4 1_555 1_555
N5 N2 1_555 1_555
O3 N5 1_555 1_555
O4 N5 1_555 1_555
C2 N1 1_555 1_555
H3 C2 1_555 1_555
H4 C2 1_555 1_555
H5 C2 1_555 1_555

#END
