
#######################################################################
#
#                 Cambridge Crystallographic Data Centre
#                                CCDC 
#
#######################################################################
#
# If this CIF has been generated from an entry in the Cambridge 
# Structural Database, then it will include bibliographic, chemical, 
# crystal, experimental, refinement or atomic coordinate data resulting 
# from the CCDC's data processing and validation procedures.
#
#######################################################################

data_WALDES
_chemical_formula_moiety         'C13 H18 O2'
_chemical_name_systematic        
syn,syn-4,7-Dimethylpentacyclo(6.3.0.0^2,6^.0^3,10^.0^5,9^)undecane-4,7-diol
_symmetry_cell_setting           monoclinic
_symmetry_space_group_name_H-M   'P 21/c'
_symmetry_Int_Tables_number      14
_space_group_name_Hall           '-P 2ybc'
loop_
_symmetry_equiv_pos_site_id
_symmetry_equiv_pos_as_xyz
1 x,y,z
2 -x,1/2+y,1/2-z
3 -x,-y,-z
4 x,1/2-y,1/2+z
_cell_length_a                   6.3005(5)
_cell_length_b                   22.373(1)
_cell_length_c                   7.5313(6)
_cell_angle_alpha                90
_cell_angle_beta                 96.748(4)
_cell_angle_gamma                90
_cell_volume                     1054.27
_exptl_crystal_colour            colorless
_chemical_melting_point          248-249deg.C
_cell_formula_units_Z            4
loop_
_atom_site_label
_atom_site_type_symbol
_atom_site_fract_x
_atom_site_fract_y
_atom_site_fract_z
O1 O 0.4624(3) 0.0598(1) 0.8417(2)
O2 O 0.4658(3) 0.0620(1) 0.2104(2)
C1 C 0.0799(5) 0.2107(1) 0.4889(4)
C2 C 0.2977(5) 0.1982(1) 0.5896(4)
C3 C 0.2562(5) 0.1454(1) 0.7100(4)
C4 C 0.4743(5) 0.1163(1) 0.7519(3)
C5 C 0.4989(4) 0.1038(1) 0.5549(3)
C6 C 0.4254(5) 0.1631(1) 0.4536(3)
C7 C 0.2456(5) 0.1421(1) 0.3046(3)
C8 C 0.0517(5) 0.1487(1) 0.4094(4)
C9 C 0.1277(4) 0.1044(1) 0.5683(3)
C10 C 0.3053(4) 0.0652(1) 0.4937(3)
C11 C 0.2723(5) 0.0748(1) 0.2905(3)
C12 C 0.6469(6) 0.1540(2) 0.8529(4)
C13 C 0.0876(6) 0.0412(2) 0.1913(4)
H1 H 0.4502 0.0666 0.9528
H2 H 0.4807 0.0195 0.2154
H3 H 0.0834 0.2408 0.3951
H4 H -0.0303 0.2208 0.5689
H5 H 0.3746 0.2314 0.6516
H6 H 0.1821 0.1546 0.8169
H7 H 0.6413 0.0886 0.5313
H8 H 0.5441 0.1849 0.4073
H9 H 0.2365 0.1634 0.1887
H10 H -0.0905 0.1404 0.3404
H11 H 0.0089 0.0827 0.6147
H12 H 0.3141 0.0245 0.5356
H13 H 0.6154 0.1593 0.9788
H14 H 0.7896 0.1353 0.8527
H15 H 0.6485 0.1921 0.7927
H16 H 0.0775 0.0498 0.0607
H17 H 0.1133 -0.0008 0.2108
H18 H -0.0489 0.0521 0.2379
loop_
_geom_bond_atom_site_label_1
_geom_bond_atom_site_label_2
_geom_bond_site_symmetry_1
_geom_bond_site_symmetry_2
O1 C4 1_555 1_555
O2 C11 1_555 1_555
C1 C2 1_555 1_555
C2 C3 1_555 1_555
C3 C4 1_555 1_555
C4 C5 1_555 1_555
C5 C6 1_555 1_555
C6 C2 1_555 1_555
C7 C6 1_555 1_555
C8 C1 1_555 1_555
C9 C3 1_555 1_555
C10 C5 1_555 1_555
C11 C7 1_555 1_555
C12 C4 1_555 1_555
C13 C11 1_555 1_555
H1 O1 1_555 1_555
H2 O2 1_555 1_555
H3 C1 1_555 1_555
H4 C1 1_555 1_555
H5 C2 1_555 1_555
H6 C3 1_555 1_555
H7 C5 1_555 1_555
H8 C6 1_555 1_555
H9 C7 1_555 1_555
H10 C8 1_555 1_555
H11 C9 1_555 1_555
H12 C10 1_555 1_555
H13 C12 1_555 1_555
H14 C12 1_555 1_555
H15 C12 1_555 1_555
H16 C13 1_555 1_555
H17 C13 1_555 1_555
H18 C13 1_555 1_555
C7 C8 1_555 1_555
C8 C9 1_555 1_555
C9 C10 1_555 1_555
C10 C11 1_555 1_555

#END
