
#######################################################################
#
#                 Cambridge Crystallographic Data Centre
#                                CCDC 
#
#######################################################################
#
# If this CIF has been generated from an entry in the Cambridge 
# Structural Database, then it will include bibliographic, chemical, 
# crystal, experimental, refinement or atomic coordinate data resulting 
# from the CCDC's data processing and validation procedures.
#
#######################################################################

data_WALFIZ
_chemical_formula_moiety         'C18 H18 N2 O4'
_chemical_name_systematic        
'(Z)-Ethyl 2,6-bis(4-pyridyl)-(1,3)dioxan-4-ylideneacetate'
_symmetry_cell_setting           monoclinic
_symmetry_space_group_name_H-M   'P 21/c'
_symmetry_Int_Tables_number      14
_space_group_name_Hall           '-P 2ybc'
loop_
_symmetry_equiv_pos_site_id
_symmetry_equiv_pos_as_xyz
1 x,y,z
2 -x,1/2+y,1/2-z
3 -x,-y,-z
4 x,1/2-y,1/2+z
_cell_length_a                   9.570(4)
_cell_length_b                   20.478(9)
_cell_length_c                   8.368(4)
_cell_angle_alpha                90
_cell_angle_beta                 94.969(8)
_cell_angle_gamma                90
_cell_volume                     1633.75
_exptl_crystal_colour            colorless
_exptl_crystal_description       platelet
_cell_formula_units_Z            4
loop_
_atom_site_label
_atom_site_type_symbol
_atom_site_fract_x
_atom_site_fract_y
_atom_site_fract_z
O1 O 1.00136(16) 0.33279(9) 0.10526(19)
O2 O 0.96872(16) 0.22095(9) 0.1483(2)
O3 O 0.94274(17) 0.08748(10) 0.1180(2)
O4 O 0.72706(17) 0.05571(9) 0.0204(2)
N1 N 0.7159(2) 0.53728(12) 0.0202(3)
N2 N 1.4725(2) 0.25055(12) 0.3169(3)
C1 C 0.6988(2) 0.42693(14) -0.0772(3)
H1 H 0.6498 0.3962 -0.1461
C2 C 0.6540(3) 0.49037(14) -0.0733(3)
H2 H 0.5733 0.5020 -0.1416
C3 C 0.8298(3) 0.51766(15) 0.1141(3)
H3 H 0.8773 0.5493 0.1819
C4 C 0.8822(3) 0.45453(14) 0.1185(3)
H4 H 0.9624 0.4437 0.1884
C5 C 0.8170(2) 0.40784(14) 0.0206(3)
C6 C 0.8675(2) 0.33882(14) 0.0115(3)
H5 H 0.8803 0.3280 -0.1028
C7 C 1.0550(2) 0.26956(14) 0.0844(3)
H6 H 1.0612 0.2612 -0.0325
C8 C 1.1990(3) 0.26432(14) 0.1716(3)
C9 C 1.2902(2) 0.31639(14) 0.1813(3)
H7 H 1.2619 0.3578 0.1386
C10 C 1.4250(3) 0.30715(15) 0.2551(3)
H8 H 1.4869 0.3435 0.2617
C11 C 1.3821(3) 0.20082(15) 0.3062(3)
H9 H 1.4127 0.1601 0.3509
C12 C 1.2464(3) 0.20470(15) 0.2343(3)
H10 H 1.1871 0.1674 0.2281
C13 C 0.8304(3) 0.22234(15) 0.0868(3)
C14 C 0.7673(2) 0.28909(13) 0.0762(3)
H11 H 0.7437 0.3029 0.1839
H12 H 0.6792 0.2878 0.0047
C15 C 0.7617(3) 0.16696(14) 0.0533(3)
H13 H 0.6652 0.1701 0.0167
C16 C 0.8228(3) 0.10129(15) 0.0682(3)
C17 C 0.7761(3) -0.01139(13) 0.0374(3)
H14 H 0.8046 -0.0211 0.1515
H15 H 0.8581 -0.0181 -0.0251
C18 C 0.6568(3) -0.05579(13) -0.0244(3)
H16 H 0.5752 -0.0477 0.0360
H17 H 0.6861 -0.1014 -0.0107
H18 H 0.6320 -0.0469 -0.1384
loop_
_geom_bond_atom_site_label_1
_geom_bond_atom_site_label_2
_geom_bond_site_symmetry_1
_geom_bond_site_symmetry_2
O1 C6 1_555 1_555
O2 C7 1_555 1_555
O3 C16 1_555 1_555
O4 C16 1_555 1_555
N1 C2 1_555 1_555
N2 C10 1_555 1_555
C1 H1 1_555 1_555
C2 C1 1_555 1_555
H2 C2 1_555 1_555
C3 N1 1_555 1_555
H3 C3 1_555 1_555
C4 C3 1_555 1_555
H4 C4 1_555 1_555
C5 C1 1_555 1_555
C6 C5 1_555 1_555
H5 C6 1_555 1_555
C7 O1 1_555 1_555
H6 C7 1_555 1_555
C8 C7 1_555 1_555
C9 C8 1_555 1_555
H7 C9 1_555 1_555
C10 C9 1_555 1_555
H8 C10 1_555 1_555
C11 N2 1_555 1_555
H9 C11 1_555 1_555
C12 C8 1_555 1_555
H10 C12 1_555 1_555
C13 O2 1_555 1_555
C14 C6 1_555 1_555
H11 C14 1_555 1_555
H12 C14 1_555 1_555
C15 C13 1_555 1_555
H13 C15 1_555 1_555
C16 C15 1_555 1_555
C17 O4 1_555 1_555
H14 C17 1_555 1_555
H15 C17 1_555 1_555
C18 C17 1_555 1_555
H16 C18 1_555 1_555
H17 C18 1_555 1_555
H18 C18 1_555 1_555
C4 C5 1_555 1_555
C11 C12 1_555 1_555
C13 C14 1_555 1_555

#END
