
#######################################################################
#
#                 Cambridge Crystallographic Data Centre
#                                CCDC 
#
#######################################################################
#
# If this CIF has been generated from an entry in the Cambridge 
# Structural Database, then it will include bibliographic, chemical, 
# crystal, experimental, refinement or atomic coordinate data resulting 
# from the CCDC's data processing and validation procedures.
#
#######################################################################

data_WALKIE
_chemical_formula_moiety         'C8 H12 N1 1+,C12 H13 O2 1-'
_chemical_name_systematic        
'(R)-1-Phenylethylammonium (R)-3-phenylpentene-2-carboxylate'
_symmetry_cell_setting           monoclinic
_symmetry_space_group_name_H-M   'P 21'
_symmetry_Int_Tables_number      4
_space_group_name_Hall           'P 2yb'
loop_
_symmetry_equiv_pos_site_id
_symmetry_equiv_pos_as_xyz
1 x,y,z
2 -x,1/2+y,-z
_cell_length_a                   11.927(2)
_cell_length_b                   19.015(3)
_cell_length_c                   12.876(2)
_cell_angle_alpha                90
_cell_angle_beta                 111.661(3)
_cell_angle_gamma                90
_cell_volume                     2713.96
_exptl_crystal_colour            colorless
_exptl_crystal_description       needle
_cell_formula_units_Z            6
loop_
_atom_site_label
_atom_site_type_symbol
_atom_site_fract_x
_atom_site_fract_y
_atom_site_fract_z
O1 O 0.66436(13) 0.09029(7) 0.20680(11)
O2 O 0.62213(12) 0.19126(7) 0.11282(10)
C1 C 0.67388(15) 0.15491(10) 0.20030(14)
C2 C 0.75269(16) 0.19451(10) 0.30323(15)
C3 C 0.70119(16) 0.26145(10) 0.33020(15)
H1 H 0.6955 0.2954 0.2691
C4 C 0.77942(18) 0.29778(12) 0.44057(16)
H2 H 0.8614 0.3047 0.4399
H3 H 0.7451 0.3449 0.4426
C5 C 0.79070(19) 0.25911(14) 0.54728(17)
H4 H 0.7103 0.2521 0.5497
H5 H 0.8400 0.2870 0.6121
H6 H 0.8290 0.2133 0.5488
C6 C 0.86317(18) 0.17011(13) 0.35851(18)
H7 H 0.9168 0.1954 0.4206
H8 H 0.8886 0.1273 0.3359
C7 C 0.57255(16) 0.25101(10) 0.32559(14)
C8 C 0.48886(18) 0.30510(11) 0.28491(16)
H9 H 0.5118 0.3475 0.2592
C9 C 0.37203(19) 0.29699(14) 0.28192(17)
H10 H 0.3151 0.3337 0.2526
C10 C 0.33738(18) 0.23673(14) 0.32060(18)
H11 H 0.2571 0.2317 0.3180
C11 C 0.42094(19) 0.18316(12) 0.36362(17)
H12 H 0.3984 0.1416 0.3921
C12 C 0.53733(17) 0.19034(11) 0.36505(15)
H13 H 0.5936 0.1532 0.3934
N1 N 0.59258(13) 0.32845(9) 0.02648(12)
H14 H 0.6110 0.2854 0.0592
H15 H 0.5142 0.3289 -0.0213
H16 H 0.6038 0.3618 0.0800
C13 C 0.67272(17) 0.34370(11) -0.03681(16)
H17 H 0.6437 0.3880 -0.0803
C14 C 0.80081(17) 0.35546(11) 0.04295(17)
C15 C 0.85940(17) 0.30758(12) 0.12684(18)
H18 H 0.8189 0.2662 0.1350
C16 C 0.97764(19) 0.32021(15) 0.1991(2)
H19 H 1.0172 0.2879 0.2574
C17 C 1.0370(2) 0.37953(16) 0.1860(3)
H20 H 1.1176 0.3880 0.2353
C18 C 0.9812(2) 0.42618(16) 0.1028(3)
H21 H 1.0235 0.4667 0.0940
C19 C 0.8626(2) 0.41507(13) 0.0304(2)
H22 H 0.8240 0.4480 -0.0273
C20 C 0.6609(2) 0.28479(14) -0.11893(18)
H23 H 0.6899 0.2408 -0.0781
H24 H 0.7092 0.2958 -0.1641
H25 H 0.5761 0.2795 -0.1679
O3 O 0.32857(13) 0.25768(8) -0.19099(12)
O4 O 0.36449(12) 0.36306(7) -0.11123(11)
C21 C 0.31000(15) 0.32192(10) -0.19091(14)
C22 C 0.21584(15) 0.35425(11) -0.29341(15)
C23 C 0.25264(15) 0.42018(10) -0.33811(15)
H26 H 0.2646 0.4578 -0.2808
C24 C 0.15443(18) 0.44590(14) -0.44638(18)
H27 H 0.1347 0.4076 -0.5023
H28 H 0.0806 0.4566 -0.4313
C25 C 0.1906(2) 0.51034(15) -0.4949(2)
H29 H 0.2178 0.5471 -0.4376
H30 H 0.1211 0.5275 -0.5584
H31 H 0.2562 0.4983 -0.5202
C26 C 0.10902(18) 0.32239(14) -0.33538(18)
H32 H 0.0473 0.3411 -0.3996
H33 H 0.0945 0.2809 -0.3011
C27 C 0.37306(16) 0.40938(10) -0.35119(15)
C28 C 0.39224(18) 0.35249(11) -0.41033(17)
H34 H 0.3294 0.3192 -0.4422
C29 C 0.5016(2) 0.34347(12) -0.42354(18)
H35 H 0.5129 0.3045 -0.4648
C30 C 0.59418(19) 0.39120(13) -0.37655(18)
H36 H 0.6694 0.3850 -0.3849
C31 C 0.57615(18) 0.44779(13) -0.31743(17)
H37 H 0.6395 0.4806 -0.2850
C32 C 0.46629(17) 0.45729(11) -0.30476(16)
H38 H 0.4549 0.4966 -0.2643
N2 N 0.39300(13) 0.16033(9) -0.02993(13)
H39 H 0.3782 0.1199 -0.0706
H40 H 0.4721 0.1618 0.0158
H41 H 0.3756 0.1979 -0.0770
C33 C 0.31569(16) 0.16255(11) 0.03911(15)
H42 H 0.3427 0.2031 0.0919
C34 C 0.18523(17) 0.17446(11) -0.03480(16)
C35 C 0.1259(2) 0.23455(14) -0.02018(19)
H43 H 0.1679 0.2684 0.0347
C36 C 0.0049(2) 0.24486(17) -0.0863(2)
H44 H -0.0360 0.2855 -0.0759
C37 C -0.0553(2) 0.19649(17) -0.1662(2)
H45 H -0.1378 0.2038 -0.2111
C38 C 0.0025(2) 0.13782(16) -0.1818(2)
H46 H -0.0401 0.1047 -0.2377
C39 C 0.12358(18) 0.12600(14) -0.11648(18)
H47 H 0.1634 0.0851 -0.1278
C40 C 0.33554(19) 0.09561(12) 0.10751(18)
H48 H 0.3114 0.0550 0.0573
H49 H 0.2870 0.0971 0.1545
H50 H 0.4211 0.0915 0.1550
O5 O 0.63394(13) 0.42154(7) 0.19113(12)
O6 O 0.60985(12) 0.52779(7) 0.11602(11)
C41 C 0.65976(15) 0.48518(10) 0.19438(15)
C42 C 0.75663(15) 0.51277(10) 0.29856(15)
C43 C 0.73331(15) 0.58382(10) 0.33958(14)
H51 H 0.7324 0.6197 0.2825
C44 C 0.83294(18) 0.60478(12) 0.45139(18)
H52 H 0.8363 0.5694 0.5088
H53 H 0.9118 0.6045 0.4423
C45 C 0.8124(2) 0.67661(15) 0.4915(2)
H54 H 0.8107 0.7121 0.4358
H55 H 0.8778 0.6874 0.5625
H56 H 0.7352 0.6769 0.5023
C46 C 0.85410(19) 0.47337(13) 0.3451(2)
H57 H 0.8608 0.4295 0.3125
H58 H 0.9172 0.4890 0.4109
C47 C 0.60979(16) 0.58402(11) 0.34853(15)
C48 C 0.53303(18) 0.64114(11) 0.30925(17)
H59 H 0.5571 0.6796 0.2752
C49 C 0.42118(19) 0.64214(13) 0.31962(19)
H60 H 0.3695 0.6815 0.2929
C50 C 0.38438(19) 0.58685(13) 0.36810(19)
H61 H 0.3074 0.5877 0.3742
C51 C 0.46019(19) 0.53006(13) 0.40780(19)
H62 H 0.4356 0.4919 0.4420
C52 C 0.57212(18) 0.52844(12) 0.39794(18)
H63 H 0.6235 0.4890 0.4252
N3 N 0.62004(13) 0.00118(9) 0.03353(13)
H64 H 0.5427 0.0009 -0.0166
H65 H 0.6275 0.0336 0.0876
H66 H 0.6392 -0.0421 0.0652
C53 C 0.70372(17) 0.01957(12) -0.02525(17)
H67 H 0.6773 0.0656 -0.0643
C54 C 0.83141(17) 0.02810(12) 0.05929(17)
C55 C 0.8912(2) 0.09119(14) 0.0650(2)
H68 H 0.8523 0.1288 0.0165
C56 C 1.0092(2) 0.09957(18) 0.1423(3)
H69 H 1.0505 0.1427 0.1456
C57 C 1.0648(2) 0.0460(2) 0.2126(2)
H70 H 1.1445 0.0520 0.2656
C58 C 1.0056(2) -0.01715(18) 0.2071(2)
H71 H 1.0449 -0.0544 0.2562
C59 C 0.8887(2) -0.02652(15) 0.1300(2)
H72 H 0.8485 -0.0702 0.1259
C60 C 0.6927(2) -0.03624(16) -0.11273(19)
H73 H 0.7223 -0.0813 -0.0757
H74 H 0.7408 -0.0224 -0.1568
H75 H 0.6080 -0.0411 -0.1621
loop_
_geom_bond_atom_site_label_1
_geom_bond_atom_site_label_2
_geom_bond_site_symmetry_1
_geom_bond_site_symmetry_2
O1 C1 1_555 1_555
O2 C1 1_555 1_555
C1 C2 1_555 1_555
C2 C3 1_555 1_555
C3 H1 1_555 1_555
C4 C3 1_555 1_555
H2 C4 1_555 1_555
H3 C4 1_555 1_555
C5 C4 1_555 1_555
H4 C5 1_555 1_555
H5 C5 1_555 1_555
H6 C5 1_555 1_555
C6 C2 1_555 1_555
H7 C6 1_555 1_555
H8 C6 1_555 1_555
C7 C3 1_555 1_555
C8 C7 1_555 1_555
H9 C8 1_555 1_555
C9 C8 1_555 1_555
H10 C9 1_555 1_555
C10 C9 1_555 1_555
H11 C10 1_555 1_555
C11 C10 1_555 1_555
H12 C11 1_555 1_555
C12 C7 1_555 1_555
H13 C12 1_555 1_555
N1 H14 1_555 1_555
H15 N1 1_555 1_555
H16 N1 1_555 1_555
C13 N1 1_555 1_555
H17 C13 1_555 1_555
C14 C13 1_555 1_555
C15 C14 1_555 1_555
H18 C15 1_555 1_555
C16 C15 1_555 1_555
H19 C16 1_555 1_555
C17 C16 1_555 1_555
H20 C17 1_555 1_555
C18 C17 1_555 1_555
H21 C18 1_555 1_555
C19 C14 1_555 1_555
H22 C19 1_555 1_555
C20 C13 1_555 1_555
H23 C20 1_555 1_555
H24 C20 1_555 1_555
H25 C20 1_555 1_555
O3 C21 1_555 1_555
O4 C21 1_555 1_555
C21 C22 1_555 1_555
C22 C23 1_555 1_555
C23 H26 1_555 1_555
C24 C23 1_555 1_555
H27 C24 1_555 1_555
H28 C24 1_555 1_555
C25 C24 1_555 1_555
H29 C25 1_555 1_555
H30 C25 1_555 1_555
H31 C25 1_555 1_555
C26 C22 1_555 1_555
H32 C26 1_555 1_555
H33 C26 1_555 1_555
C27 C23 1_555 1_555
C28 C27 1_555 1_555
H34 C28 1_555 1_555
C29 C28 1_555 1_555
H35 C29 1_555 1_555
C30 C29 1_555 1_555
H36 C30 1_555 1_555
C31 C30 1_555 1_555
H37 C31 1_555 1_555
C32 C27 1_555 1_555
H38 C32 1_555 1_555
N2 H39 1_555 1_555
H40 N2 1_555 1_555
H41 N2 1_555 1_555
C33 N2 1_555 1_555
H42 C33 1_555 1_555
C34 C33 1_555 1_555
C35 C34 1_555 1_555
H43 C35 1_555 1_555
C36 C35 1_555 1_555
H44 C36 1_555 1_555
C37 C36 1_555 1_555
H45 C37 1_555 1_555
C38 C37 1_555 1_555
H46 C38 1_555 1_555
C39 C34 1_555 1_555
H47 C39 1_555 1_555
C40 C33 1_555 1_555
H48 C40 1_555 1_555
H49 C40 1_555 1_555
H50 C40 1_555 1_555
O5 C41 1_555 1_555
O6 C41 1_555 1_555
C41 C42 1_555 1_555
C42 C43 1_555 1_555
C43 H51 1_555 1_555
C44 C43 1_555 1_555
H52 C44 1_555 1_555
H53 C44 1_555 1_555
C45 C44 1_555 1_555
H54 C45 1_555 1_555
H55 C45 1_555 1_555
H56 C45 1_555 1_555
C46 C42 1_555 1_555
H57 C46 1_555 1_555
H58 C46 1_555 1_555
C47 C43 1_555 1_555
C48 C47 1_555 1_555
H59 C48 1_555 1_555
C49 C48 1_555 1_555
H60 C49 1_555 1_555
C50 C49 1_555 1_555
H61 C50 1_555 1_555
C51 C50 1_555 1_555
H62 C51 1_555 1_555
C52 C47 1_555 1_555
H63 C52 1_555 1_555
N3 H64 1_555 1_555
H65 N3 1_555 1_555
H66 N3 1_555 1_555
C53 N3 1_555 1_555
H67 C53 1_555 1_555
C54 C53 1_555 1_555
C55 C54 1_555 1_555
H68 C55 1_555 1_555
C56 C55 1_555 1_555
H69 C56 1_555 1_555
C57 C56 1_555 1_555
H70 C57 1_555 1_555
C58 C57 1_555 1_555
H71 C58 1_555 1_555
C59 C54 1_555 1_555
H72 C59 1_555 1_555
C60 C53 1_555 1_555
H73 C60 1_555 1_555
H74 C60 1_555 1_555
H75 C60 1_555 1_555
C11 C12 1_555 1_555
C18 C19 1_555 1_555
C31 C32 1_555 1_555
C38 C39 1_555 1_555
C51 C52 1_555 1_555
C58 C59 1_555 1_555

#END
