
#######################################################################
#
#                 Cambridge Crystallographic Data Centre
#                                CCDC 
#
#######################################################################
#
# If this CIF has been generated from an entry in the Cambridge 
# Structural Database, then it will include bibliographic, chemical, 
# crystal, experimental, refinement or atomic coordinate data resulting 
# from the CCDC's data processing and validation procedures.
#
#######################################################################

data_WALLUS
_chemical_formula_moiety         'C17 H13 N5 O2'
_chemical_name_systematic        
'bis(pyridin-2-yl)ketone 2-nitrophenylhydrazone'
_symmetry_cell_setting           monoclinic
_symmetry_space_group_name_H-M   'P 21/c'
_symmetry_Int_Tables_number      14
_space_group_name_Hall           '-P 2ybc'
loop_
_symmetry_equiv_pos_site_id
_symmetry_equiv_pos_as_xyz
1 x,y,z
2 -x,1/2+y,1/2-z
3 -x,-y,-z
4 x,1/2-y,1/2+z
_cell_length_a                   17.159(2)
_cell_length_b                   3.8564(5)
_cell_length_c                   22.307(3)
_cell_angle_alpha                90
_cell_angle_beta                 103.695(2)
_cell_angle_gamma                90
_cell_volume                     1434.13
_exptl_crystal_colour            orange
_exptl_crystal_description       lath
_cell_formula_units_Z            4
loop_
_atom_site_label
_atom_site_type_symbol
_atom_site_fract_x
_atom_site_fract_y
_atom_site_fract_z
N1 N 0.27812(5) 0.4811(3) 0.35906(4)
H1 H 0.3140(9) 0.551(4) 0.3925(7)
N2 N 0.05816(5) 0.6818(3) 0.43704(4)
C1 C 0.18124(6) 0.7220(3) 0.40160(4)
N3 N 0.19995(5) 0.5546(2) 0.35615(4)
N4 N 0.31553(5) 0.7953(3) 0.46473(4)
C2 C 0.09298(6) 0.7807(3) 0.39167(5)
N5 N 0.44498(5) 0.3498(3) 0.35413(4)
O1 O 0.51254(5) 0.3116(3) 0.34478(4)
C3 C 0.23523(6) 0.1780(3) 0.26166(5)
H2 H 0.1807 0.2194 0.2620
C4 C 0.29661(6) 0.3008(3) 0.31127(4)
C5 C 0.37631(6) 0.2298(3) 0.30760(4)
C6 C 0.39326(6) 0.0525(3) 0.25727(5)
H3 H 0.4474 0.0122 0.2559
O2 O 0.43470(5) 0.4894(3) 0.40135(4)
C7 C 0.33202(7) -0.0637(3) 0.20989(5)
H4 H 0.3433 -0.1844 0.1758
C8 C 0.25280(7) -0.0002(3) 0.21299(5)
H5 H 0.2101 -0.0818 0.1808
C9 C 0.04979(6) 0.9290(3) 0.33667(5)
H6 H 0.0761 0.9920 0.3053
C10 C 0.23656(6) 0.8577(3) 0.45830(4)
C11 C -0.02118(7) 0.7340(3) 0.42806(5)
H7 H -0.0465 0.6639 0.4596
C12 C 0.20880(7) 1.0498(3) 0.50231(5)
H8 H 0.1532 1.0972 0.4968
C13 C -0.06815(6) 0.8844(3) 0.37529(5)
H9 H -0.1240 0.9192 0.3713
C14 C 0.36775(7) 0.9141(3) 0.51476(5)
H10 H 0.4232 0.8683 0.5189
C15 C 0.26403(7) 1.1696(3) 0.55408(5)
H11 H 0.2464 1.2982 0.5847
C16 C 0.34488(7) 1.1013(3) 0.56102(5)
H12 H 0.3835 1.1799 0.5963
C17 C -0.03202(6) 0.9831(3) 0.32851(5)
H13 H -0.0626 1.0856 0.2917
loop_
_geom_bond_atom_site_label_1
_geom_bond_atom_site_label_2
_geom_bond_site_symmetry_1
_geom_bond_site_symmetry_2
N1 H1 1_555 1_555
N2 C2 1_555 1_555
C1 N3 1_555 1_555
N3 N1 1_555 1_555
N4 C10 1_555 1_555
C2 C1 1_555 1_555
N5 O1 1_555 1_555
C3 H2 1_555 1_555
C4 N1 1_555 1_555
C5 N5 1_555 1_555
C6 C5 1_555 1_555
H3 C6 1_555 1_555
O2 N5 1_555 1_555
C7 C6 1_555 1_555
H4 C7 1_555 1_555
C8 C3 1_555 1_555
H5 C8 1_555 1_555
C9 C2 1_555 1_555
H6 C9 1_555 1_555
C10 C1 1_555 1_555
C11 N2 1_555 1_555
H7 C11 1_555 1_555
C12 C10 1_555 1_555
H8 C12 1_555 1_555
C13 C11 1_555 1_555
H9 C13 1_555 1_555
C14 N4 1_555 1_555
H10 C14 1_555 1_555
C15 C12 1_555 1_555
H11 C15 1_555 1_555
C16 C14 1_555 1_555
H12 C16 1_555 1_555
C17 C9 1_555 1_555
H13 C17 1_555 1_555
C3 C4 1_555 1_555
C4 C5 1_555 1_555
C7 C8 1_555 1_555
C13 C17 1_555 1_555
C15 C16 1_555 1_555

#END
