
#######################################################################
#
#                 Cambridge Crystallographic Data Centre
#                                CCDC 
#
#######################################################################
#
# If this CIF has been generated from an entry in the Cambridge 
# Structural Database, then it will include bibliographic, chemical, 
# crystal, experimental, refinement or atomic coordinate data resulting 
# from the CCDC's data processing and validation procedures.
#
#######################################################################

data_WALNOP
_chemical_formula_moiety         'C14 H10 F2 N2 O2'
_chemical_name_systematic        
2,2'-(hydrazine-1,2-diylidenedimethylylidene)bis(4-fluorophenol)
_symmetry_cell_setting           monoclinic
_symmetry_space_group_name_H-M   'P 21/n'
_symmetry_Int_Tables_number      14
_space_group_name_Hall           '-P 2yn'
loop_
_symmetry_equiv_pos_site_id
_symmetry_equiv_pos_as_xyz
1 x,y,z
2 1/2-x,1/2+y,1/2-z
3 -x,-y,-z
4 1/2+x,1/2-y,1/2+z
_cell_length_a                   8.2052(12)
_cell_length_b                   6.6429(8)
_cell_length_c                   11.8160(15)
_cell_angle_alpha                90
_cell_angle_beta                 105.848(3)
_cell_angle_gamma                90
_cell_volume                     619.566
_cell_formula_units_Z            2
loop_
_atom_site_label
_atom_site_type_symbol
_atom_site_fract_x
_atom_site_fract_y
_atom_site_fract_z
F1 F 0.90014(16) 0.82218(18) 0.95549(11)
N1 N 0.49688(19) 0.0802(2) 0.96101(12)
O1 O 0.38367(18) 0.2993(2) 0.77191(12)
H1 H 0.3863 0.2032 0.8159
C1 C 0.6306(2) 0.3836(3) 0.92866(14)
C2 C 0.5140(2) 0.4253(3) 0.82012(15)
C3 C 0.5301(2) 0.5994(3) 0.75963(16)
H2 H 0.4520 0.6265 0.6879
C4 C 0.6592(3) 0.7320(3) 0.80394(17)
H3 H 0.6698 0.8486 0.7630
C5 C 0.7729(2) 0.6895(3) 0.91020(18)
C6 C 0.7615(2) 0.5207(3) 0.97236(16)
H4 H 0.8409 0.4965 1.0440
C7 C 0.6172(2) 0.2066(3) 0.99639(15)
H5 H 0.6982 0.1841 1.0675
F1B F 0.09986(16) -0.82218(18) 1.04451(11)
N1B N 0.50312(19) -0.0802(2) 1.03899(12)
O1B O 0.61633(18) -0.2993(2) 1.22809(12)
H1B H 0.6137 -0.2032 1.1841
C1B C 0.3694(2) -0.3836(3) 1.07134(14)
C2B C 0.4860(2) -0.4253(3) 1.17988(15)
C3B C 0.4699(2) -0.5994(3) 1.24037(16)
H2B H 0.5480 -0.6265 1.3121
C4B C 0.3408(3) -0.7320(3) 1.19606(17)
H3B H 0.3302 -0.8486 1.2370
C5B C 0.2271(2) -0.6895(3) 1.08980(18)
C6B C 0.2385(2) -0.5207(3) 1.02764(16)
H4B H 0.1591 -0.4965 0.9560
C7B C 0.3828(2) -0.2066(3) 1.00361(15)
H5B H 0.3018 -0.1841 0.9325
loop_
_geom_bond_atom_site_label_1
_geom_bond_atom_site_label_2
_geom_bond_site_symmetry_1
_geom_bond_site_symmetry_2
F1 C5 1_555 1_555
N1 C7 1_555 1_555
O1 H1 1_555 1_555
C1 C2 1_555 1_555
C2 O1 1_555 1_555
C3 C2 1_555 1_555
H2 C3 1_555 1_555
C4 C3 1_555 1_555
H3 C4 1_555 1_555
C5 C4 1_555 1_555
C6 C1 1_555 1_555
H4 C6 1_555 1_555
C7 C1 1_555 1_555
H5 C7 1_555 1_555
F1B C5B 1_555 1_555
N1B N1 1_555 1_555
O1B H1B 1_555 1_555
C1B C2B 1_555 1_555
C2B O1B 1_555 1_555
C3B C2B 1_555 1_555
H2B C3B 1_555 1_555
C4B C3B 1_555 1_555
H3B C4B 1_555 1_555
C5B C4B 1_555 1_555
C6B C1B 1_555 1_555
H4B C6B 1_555 1_555
C7B N1B 1_555 1_555
H5B C7B 1_555 1_555
C5 C6 1_555 1_555
C1B C7B 1_555 1_555
C5B C6B 1_555 1_555

#END
