
#######################################################################
#
#                 Cambridge Crystallographic Data Centre
#                                CCDC 
#
#######################################################################
#
# If this CIF has been generated from an entry in the Cambridge 
# Structural Database, then it will include bibliographic, chemical, 
# crystal, experimental, refinement or atomic coordinate data resulting 
# from the CCDC's data processing and validation procedures.
#
#######################################################################

data_WALPEH
_chemical_formula_moiety         'C14 H16 N2 O8'
_chemical_name_systematic        
1,1'-((1,6-dioxohexane-1,6-diyl)bis(oxy))dipyrrolidine-2,5-dione
_symmetry_cell_setting           monoclinic
_symmetry_space_group_name_H-M   'P 21/c'
_symmetry_Int_Tables_number      14
_space_group_name_Hall           '-P 2ybc'
loop_
_symmetry_equiv_pos_site_id
_symmetry_equiv_pos_as_xyz
1 x,y,z
2 -x,1/2+y,1/2-z
3 -x,-y,-z
4 x,1/2-y,1/2+z
_cell_length_a                   5.2972(3)
_cell_length_b                   7.5196(5)
_cell_length_c                   19.2660(13)
_cell_angle_alpha                90
_cell_angle_beta                 99.776(6)
_cell_angle_gamma                90
_cell_volume                     756.276
_cell_formula_units_Z            2
_chemical_properties_physical    Heat-sensitive
loop_
_atom_site_label
_atom_site_type_symbol
_atom_site_fract_x
_atom_site_fract_y
_atom_site_fract_z
O1 O 0.5439(4) -0.5022(3) -0.26337(9)
O2 O 0.9620(4) -0.6724(3) -0.04819(8)
O3 O 0.5540(3) -0.4751(2) -0.11676(8)
O4 O 0.8392(3) -0.2506(2) -0.11743(7)
N1 N 0.7166(3) -0.5764(2) -0.15021(9)
C1 C 0.6970(4) -0.5833(3) -0.22223(11)
C2 C 0.9042(4) -0.7092(3) -0.23547(11)
H1 H 1.0275 -0.6482 -0.2589
H2 H 0.8314 -0.8074 -0.2649
C3 C 1.0325(4) -0.7769(3) -0.16372(12)
H3 H 1.0025 -0.9033 -0.1594
H4 H 1.2157 -0.7560 -0.1569
C4 C 0.9131(4) -0.6742(3) -0.11087(10)
C5 C 0.6548(3) -0.3050(3) -0.09748(9)
C6 C 0.4909(4) -0.2220(3) -0.05085(11)
H5 H 0.4934 -0.2964 -0.0096
H6 H 0.3158 -0.2173 -0.0757
C7 C 0.5756(4) -0.0360(3) -0.02723(10)
H7 H 0.5527 0.0425 -0.0678
H8 H 0.7564 -0.0376 -0.0072
O1B O 0.4561(4) 0.5022(3) 0.26337(9)
O2B O 0.0380(4) 0.6724(3) 0.04819(8)
O3B O 0.4460(3) 0.4751(2) 0.11676(8)
O4B O 0.1608(3) 0.2506(2) 0.11743(7)
N1B N 0.2834(3) 0.5764(2) 0.15021(9)
C1B C 0.3030(4) 0.5833(3) 0.22223(11)
C2B C 0.0958(4) 0.7092(3) 0.23547(11)
H1B H -0.0275 0.6482 0.2589
H2B H 0.1686 0.8074 0.2649
C3B C -0.0325(4) 0.7769(3) 0.16372(12)
H3B H -0.0025 0.9033 0.1594
H4B H -0.2157 0.7560 0.1569
C4B C 0.0869(4) 0.6742(3) 0.11087(10)
C5B C 0.3452(3) 0.3050(3) 0.09748(9)
C6B C 0.5091(4) 0.2220(3) 0.05085(11)
H5B H 0.5066 0.2964 0.0096
H6B H 0.6842 0.2173 0.0757
C7B C 0.4244(4) 0.0360(3) 0.02723(10)
H7B H 0.4473 -0.0425 0.0678
H8B H 0.2436 0.0376 0.0072
loop_
_geom_bond_atom_site_label_1
_geom_bond_atom_site_label_2
_geom_bond_site_symmetry_1
_geom_bond_site_symmetry_2
O1 C1 1_555 1_555
O2 C4 1_555 1_555
O3 N1 1_555 1_555
O4 C5 1_555 1_555
N1 C1 1_555 1_555
C1 C2 1_555 1_555
C2 H1 1_555 1_555
H2 C2 1_555 1_555
C3 C2 1_555 1_555
H3 C3 1_555 1_555
H4 C3 1_555 1_555
C4 N1 1_555 1_555
C5 O3 1_555 1_555
C6 C5 1_555 1_555
H5 C6 1_555 1_555
H6 C6 1_555 1_555
C7 C6 1_555 1_555
H7 C7 1_555 1_555
H8 C7 1_555 1_555
O1B C1B 1_555 1_555
O2B C4B 1_555 1_555
O3B N1B 1_555 1_555
O4B C5B 1_555 1_555
N1B C1B 1_555 1_555
C1B C2B 1_555 1_555
C2B H1B 1_555 1_555
H2B C2B 1_555 1_555
C3B C2B 1_555 1_555
H3B C3B 1_555 1_555
H4B C3B 1_555 1_555
C4B N1B 1_555 1_555
C5B O3B 1_555 1_555
C6B C5B 1_555 1_555
H5B C6B 1_555 1_555
H6B C6B 1_555 1_555
C7B C7 1_555 1_555
H7B C7B 1_555 1_555
H8B C7B 1_555 1_555
C3 C4 1_555 1_555
C3B C4B 1_555 1_555
C6B C7B 1_555 1_555

#END
