
#######################################################################
#
#                 Cambridge Crystallographic Data Centre
#                                CCDC 
#
#######################################################################
#
# If this CIF has been generated from an entry in the Cambridge 
# Structural Database, then it will include bibliographic, chemical, 
# crystal, experimental, refinement or atomic coordinate data resulting 
# from the CCDC's data processing and validation procedures.
#
#######################################################################

data_WALTAH
_chemical_formula_moiety         'C18 H17 I1 O4'
_chemical_name_systematic        
1-((1-(4-Methoxyphenyl)cyclobutyl)oxy)-1\l^3^,2-benziodoxol-3(1H)-one
_symmetry_cell_setting           monoclinic
_symmetry_space_group_name_H-M   'P 21/c'
_symmetry_Int_Tables_number      14
_space_group_name_Hall           '-P 2ybc'
loop_
_symmetry_equiv_pos_site_id
_symmetry_equiv_pos_as_xyz
1 x,y,z
2 -x,1/2+y,1/2-z
3 -x,-y,-z
4 x,1/2-y,1/2+z
_cell_length_a                   9.270(5)
_cell_length_b                   7.881(4)
_cell_length_c                   22.818(12)
_cell_angle_alpha                90
_cell_angle_beta                 99.868(12)
_cell_angle_gamma                90
_cell_volume                     1642.35
_exptl_crystal_colour            colorless
_exptl_crystal_description       prismatic
_cell_formula_units_Z            4
loop_
_atom_site_label
_atom_site_type_symbol
_atom_site_fract_x
_atom_site_fract_y
_atom_site_fract_z
I1 I 0.16897(6) 0.97461(5) 0.23727(2)
O1 O 0.1813(7) 1.3545(6) 0.3661(3)
O2 O 0.1878(6) 1.2260(6) 0.2805(2)
O3 O 0.1479(5) 0.7288(6) 0.2123(2)
O4 O 0.3387(7) 1.1970(8) 0.0229(3)
C1 C 0.1661(7) 0.9132(8) 0.3259(3)
C2 C 0.1557(8) 0.7503(8) 0.3463(3)
H1 H 0.1530 0.6574 0.3209
C3 C 0.1493(9) 0.7299(9) 0.4058(3)
H2 H 0.1449 0.6213 0.4213
C4 C 0.1494(10) 0.8693(10) 0.4428(3)
H3 H 0.1416 0.8533 0.4825
C5 C 0.1610(9) 1.0300(9) 0.4215(4)
H4 H 0.1643 1.1224 0.4471
C6 C 0.1679(8) 1.0550(8) 0.3624(3)
C7 C 0.1795(8) 1.2276(8) 0.3357(4)
C8 C 0.2614(8) 0.6688(9) 0.1817(3)
C9 C 0.3965(9) 0.5863(11) 0.2208(3)
H5 H 0.4858 0.6519 0.2233
H6 H 0.3799 0.5516 0.2599
C10 C 0.3825(11) 0.4431(12) 0.1754(4)
H7 H 0.4448 0.4569 0.1457
H8 H 0.3942 0.3310 0.1932
C11 C 0.2240(10) 0.4925(9) 0.1537(4)
H9 H 0.1541 0.4288 0.1721
H10 H 0.1962 0.4941 0.1108
C12 C 0.2935(8) 0.8015(9) 0.1375(3)
C13 C 0.4297(9) 0.8669(9) 0.1361(3)
H11 H 0.5102 0.8217 0.1612
C14 C 0.4508(10) 0.9965(10) 0.0987(4)
H12 H 0.5448 1.0373 0.0983
C15 C 0.3338(9) 1.0664(10) 0.0618(3)
C16 C 0.1969(10) 1.0000(10) 0.0610(4)
H13 H 0.1173 1.0432 0.0349
C17 C 0.1773(8) 0.8713(9) 0.0983(3)
H14 H 0.0835 0.8285 0.0976
C18 C 0.4779(12) 1.2658(13) 0.0202(4)
H15 H 0.5133 1.3262 0.0564
H16 H 0.4706 1.3422 -0.0129
H17 H 0.5446 1.1757 0.0154
loop_
_geom_bond_atom_site_label_1
_geom_bond_atom_site_label_2
_geom_bond_site_symmetry_1
_geom_bond_site_symmetry_2
I1 O2 1_555 1_555
O1 C7 1_555 1_555
O2 C7 1_555 1_555
O3 I1 1_555 1_555
O4 C15 1_555 1_555
C1 I1 1_555 1_555
C2 C1 1_555 1_555
H1 C2 1_555 1_555
C3 C2 1_555 1_555
H2 C3 1_555 1_555
C4 C3 1_555 1_555
H3 C4 1_555 1_555
C5 C4 1_555 1_555
H4 C5 1_555 1_555
C6 C1 1_555 1_555
C7 C6 1_555 1_555
C8 O3 1_555 1_555
C9 C8 1_555 1_555
H5 C9 1_555 1_555
H6 C9 1_555 1_555
C10 C9 1_555 1_555
H7 C10 1_555 1_555
H8 C10 1_555 1_555
C11 C8 1_555 1_555
H9 C11 1_555 1_555
H10 C11 1_555 1_555
C12 C8 1_555 1_555
C13 C12 1_555 1_555
H11 C13 1_555 1_555
C14 C13 1_555 1_555
H12 C14 1_555 1_555
C15 C14 1_555 1_555
C16 C15 1_555 1_555
H13 C16 1_555 1_555
C17 C12 1_555 1_555
H14 C17 1_555 1_555
C18 O4 1_555 1_555
H15 C18 1_555 1_555
H16 C18 1_555 1_555
H17 C18 1_555 1_555
C5 C6 1_555 1_555
C10 C11 1_555 1_555
C16 C17 1_555 1_555

#END
