
#######################################################################
#
#                 Cambridge Crystallographic Data Centre
#                                CCDC 
#
#######################################################################
#
# If this CIF has been generated from an entry in the Cambridge 
# Structural Database, then it will include bibliographic, chemical, 
# crystal, experimental, refinement or atomic coordinate data resulting 
# from the CCDC's data processing and validation procedures.
#
#######################################################################

data_WALWUC
_chemical_formula_moiety         'C24 H29 N3 O4 S2'
_chemical_name_systematic        
(+-)-S-((2SR)-2-(1-((Dimethylamino)sulfonyl)-5-((RS)-methoxy(phenyl)methyl)-1H-imidazol-2-yl)-3-phenylpropyl)ethanthioate
_symmetry_cell_setting           triclinic
_symmetry_space_group_name_H-M   'P -1'
_symmetry_Int_Tables_number      2
_space_group_name_Hall           '-P 1'
loop_
_symmetry_equiv_pos_site_id
_symmetry_equiv_pos_as_xyz
1 x,y,z
2 -x,-y,-z
_cell_length_a                   9.3213(2)
_cell_length_b                   11.5643(2)
_cell_length_c                   12.1363(2)
_cell_angle_alpha                83.9220(8)
_cell_angle_beta                 74.6721(8)
_cell_angle_gamma                76.0488(7)
_cell_volume                     1223.23
_exptl_crystal_colour            colorless
_exptl_crystal_description       cube
_chemical_melting_point          119-120deg.C
_cell_formula_units_Z            2
loop_
_atom_site_label
_atom_site_type_symbol
_atom_site_fract_x
_atom_site_fract_y
_atom_site_fract_z
S1 S 0.86561(5) 0.19378(4) 0.16439(4)
S2 S 0.51215(5) 0.59763(4) 0.14314(4)
O1 O 0.89321(14) 0.06761(10) 0.17932(11)
O2 O 0.94768(14) 0.25921(11) 0.20791(11)
O3 O 0.59587(16) 0.05142(11) 0.12287(10)
O4 O 0.78147(15) 0.64966(12) 0.07403(11)
N1 N 0.67957(15) 0.24349(11) 0.23955(11)
N2 N 0.47312(15) 0.36151(12) 0.34338(11)
N3 N 0.88159(17) 0.22953(13) 0.03207(12)
C1 C 0.61471(18) 0.35594(13) 0.28710(13)
C2 C 0.44121(19) 0.25297(14) 0.33380(14)
C3 C 0.56353(18) 0.17816(14) 0.27182(13)
C4 C 0.8465(3) 0.1553(2) -0.04397(18)
C5 C 0.8678(3) 0.35564(18) -0.00691(18)
C6 C 0.5781(2) 0.05180(15) 0.24338(15)
C7 C 0.6468(4) -0.0668(2) 0.0822(3)
C8 C 0.4421(2) 0.00326(14) 0.31024(15)
C9 C 0.3024(2) 0.03742(18) 0.28139(18)
C10 C 0.1792(3) -0.0079(2) 0.34389(19)
C11 C 0.1934(3) -0.08783(19) 0.43523(18)
C12 C 0.3308(3) -0.12311(19) 0.46395(18)
C13 C 0.4545(3) -0.07801(16) 0.40159(17)
C14 C 0.69195(18) 0.45695(14) 0.28243(13)
C15 C 0.5793(2) 0.57584(15) 0.27234(14)
C16 C 0.6700(2) 0.64226(14) 0.04556(15)
C17 C 0.6499(4) 0.6704(2) -0.07287(19)
C18 C 0.7510(2) 0.45292(16) 0.39137(14)
C19 C 0.8654(2) 0.52913(15) 0.37757(13)
C20 C 0.8202(2) 0.64930(17) 0.40115(16)
C21 C 0.9269(3) 0.71923(19) 0.38417(18)
C22 C 1.0802(2) 0.66923(19) 0.34534(17)
C23 C 1.1266(2) 0.54953(19) 0.32379(17)
C24 C 1.0199(2) 0.48035(17) 0.33959(15)
H1 H 0.897(2) 0.7990(19) 0.4038(17)
H2 H 1.151(3) 0.7136(19) 0.3350(18)
H3 H 1.232(3) 0.5147(18) 0.3006(17)
H4 H 1.057(2) 0.3961(19) 0.3245(17)
H5 H 0.712(3) 0.6827(18) 0.4310(17)
H6 H 0.662(2) 0.4779(16) 0.4585(16)
H7 H 0.800(2) 0.3706(17) 0.4100(15)
H8 H 0.628(2) 0.6438(16) 0.2746(15)
H9 H 0.488(2) 0.5840(16) 0.3328(16)
H10 H 0.737(4) 0.674(3) -0.124(3)
H11 H 0.583(3) 0.750(2) -0.074(2)
H12 H 0.606(3) 0.618(3) -0.095(2)
H13 H 0.782(2) 0.4497(14) 0.2165(14)
H14 H 0.339(2) 0.2393(15) 0.3703(15)
H15 H 0.923(3) 0.3606(18) -0.086(2)
H16 H 0.917(2) 0.3928(17) 0.0401(17)
H17 H 0.755(3) 0.400(2) 0.0019(19)
H18 H 0.914(3) 0.166(2) -0.117(2)
H19 H 0.728(3) 0.186(2) -0.054(2)
H20 H 0.861(2) 0.070(2) -0.0164(18)
H21 H 0.668(2) 0.0004(16) 0.2625(16)
H22 H 0.659(3) -0.056(2) -0.005(2)
H23 H 0.568(3) -0.110(2) 0.113(2)
H24 H 0.737(3) -0.104(2) 0.098(2)
H25 H 0.550(2) -0.0996(17) 0.4187(16)
H26 H 0.342(2) -0.1810(19) 0.5241(18)
H27 H 0.110(3) -0.123(2) 0.4768(19)
H28 H 0.086(3) 0.0164(19) 0.3261(18)
H29 H 0.293(2) 0.0961(19) 0.2218(19)
loop_
_geom_bond_atom_site_label_1
_geom_bond_atom_site_label_2
_geom_bond_site_symmetry_1
_geom_bond_site_symmetry_2
S1 O1 1_555 1_555
S2 C15 1_555 1_555
O2 S1 1_555 1_555
O3 C6 1_555 1_555
O4 C16 1_555 1_555
N1 S1 1_555 1_555
N2 C1 1_555 1_555
N3 S1 1_555 1_555
C1 N1 1_555 1_555
C2 N2 1_555 1_555
C3 N1 1_555 1_555
C4 N3 1_555 1_555
C5 N3 1_555 1_555
C6 C3 1_555 1_555
C7 O3 1_555 1_555
C8 C6 1_555 1_555
C9 C8 1_555 1_555
C10 C9 1_555 1_555
C11 C10 1_555 1_555
C12 C11 1_555 1_555
C13 C8 1_555 1_555
C14 C1 1_555 1_555
C15 C14 1_555 1_555
C16 S2 1_555 1_555
C17 C16 1_555 1_555
C18 C14 1_555 1_555
C19 C18 1_555 1_555
C20 C19 1_555 1_555
C21 C20 1_555 1_555
C22 C21 1_555 1_555
C23 C22 1_555 1_555
C24 C19 1_555 1_555
H1 C21 1_555 1_555
H2 C22 1_555 1_555
H3 C23 1_555 1_555
H4 C24 1_555 1_555
H5 C20 1_555 1_555
H6 C18 1_555 1_555
H7 C18 1_555 1_555
H8 C15 1_555 1_555
H9 C15 1_555 1_555
H10 C17 1_555 1_555
H11 C17 1_555 1_555
H12 C17 1_555 1_555
H13 C14 1_555 1_555
H14 C2 1_555 1_555
H15 C5 1_555 1_555
H16 C5 1_555 1_555
H17 C5 1_555 1_555
H18 C4 1_555 1_555
H19 C4 1_555 1_555
H20 C4 1_555 1_555
H21 C6 1_555 1_555
H22 C7 1_555 1_555
H23 C7 1_555 1_555
H24 C7 1_555 1_555
H25 C13 1_555 1_555
H26 C12 1_555 1_555
H27 C11 1_555 1_555
H28 C10 1_555 1_555
H29 C9 1_555 1_555
C2 C3 1_555 1_555
C12 C13 1_555 1_555
C23 C24 1_555 1_555

#END
