
#######################################################################
#
#                 Cambridge Crystallographic Data Centre
#                                CCDC 
#
#######################################################################
#
# If this CIF has been generated from an entry in the Cambridge 
# Structural Database, then it will include bibliographic, chemical, 
# crystal, experimental, refinement or atomic coordinate data resulting 
# from the CCDC's data processing and validation procedures.
#
#######################################################################

data_WALWAK
_chemical_name_common            'L-histidine norcantharimide'
_chemical_formula_moiety         'C14 H15 N3 O5'
_chemical_name_systematic        
2-(3,5-dioxo-10-oxa-4-azatricyclo[5.2.1.0^2,6^]dec-4-yl)-3-(1H-imidazol-3-ium-5-yl)propanoate
_chemical_properties_biological  'PP2A inhibitor'
_symmetry_cell_setting           orthorhombic
_symmetry_space_group_name_H-M   'P 21 21 21'
_symmetry_Int_Tables_number      19
_space_group_name_Hall           'P 2ac 2ab'
loop_
_symmetry_equiv_pos_site_id
_symmetry_equiv_pos_as_xyz
1 x,y,z
2 1/2-x,-y,1/2+z
3 -x,1/2+y,1/2-z
4 1/2+x,1/2-y,-z
_cell_length_a                   10.1553(4)
_cell_length_b                   10.4840(5)
_cell_length_c                   12.8749(6)
_cell_angle_alpha                90
_cell_angle_beta                 90
_cell_angle_gamma                90
_cell_volume                     1370.77
_exptl_crystal_colour            colorless
_exptl_crystal_description       block
_cell_formula_units_Z            4
loop_
_atom_site_label
_atom_site_type_symbol
_atom_site_fract_x
_atom_site_fract_y
_atom_site_fract_z
C1 C 0.96615(19) 0.77746(18) 0.47728(15)
C2 C 1.02880(19) 0.78814(19) 0.37080(15)
H1 H 1.0694 0.7059 0.3479
C3 C 0.9365(2) 0.8449(2) 0.28722(15)
H2 H 0.8452 0.8093 0.2879
C4 C 1.0078(2) 0.8321(2) 0.18240(15)
H3 H 0.9475 0.8485 0.1235
H4 H 1.0479 0.7466 0.1742
C5 C 1.1145(2) 0.9377(2) 0.19163(16)
H5 H 1.2044 0.9015 0.1877
H6 H 1.1038 1.0035 0.1372
C6 C 1.0852(2) 0.9911(2) 0.29948(16)
H7 H 1.1191 1.0796 0.3105
C7 C 1.13185(19) 0.89555(18) 0.38171(15)
H8 H 1.2239 0.8652 0.3694
C8 C 1.11110(19) 0.94609(18) 0.49063(15)
C9 C 1.0249(2) 0.77654(19) 0.71888(15)
C10 C 0.98354(19) 0.89013(18) 0.64947(14)
H9 H 1.0339 0.9662 0.6742
C11 C 0.8361(2) 0.92350(18) 0.65860(15)
H10 H 0.7835 0.8445 0.6515
H11 H 0.8189 0.9593 0.7284
C12 C 0.7927(2) 1.01699(19) 0.57856(15)
C13 C 0.7078(2) 1.00518(19) 0.49731(16)
H12 H 0.6631 0.9297 0.4767
C14 C 0.7770(2) 1.2035(2) 0.50039(16)
H13 H 0.7889 1.2910 0.4837
N1 N 1.02104(15) 0.86908(16) 0.54144(12)
N2 N 0.69868(17) 1.12337(18) 0.45051(13)
H14 H 0.6491 1.1422 0.3966
N3 N 0.83595(17) 1.14200(16) 0.57731(13)
H15 H 0.8934 1.1754 0.6206
O1 O 0.94384(15) 0.98043(15) 0.30865(12)
O2 O 0.88100(16) 0.70356(14) 0.50306(13)
O3 O 1.16101(16) 1.03918(15) 0.52859(12)
O4 O 1.09956(17) 0.69473(17) 0.68377(13)
O5 O 0.98277(16) 0.78086(16) 0.81176(12)
loop_
_geom_bond_atom_site_label_1
_geom_bond_atom_site_label_2
_geom_bond_site_symmetry_1
_geom_bond_site_symmetry_2
C1 C2 1_555 1_555
C2 H1 1_555 1_555
C3 C2 1_555 1_555
H2 C3 1_555 1_555
C4 C3 1_555 1_555
H3 C4 1_555 1_555
H4 C4 1_555 1_555
C5 C4 1_555 1_555
H5 C5 1_555 1_555
H6 C5 1_555 1_555
C6 C5 1_555 1_555
H7 C6 1_555 1_555
C7 C2 1_555 1_555
H8 C7 1_555 1_555
C8 C7 1_555 1_555
C9 C10 1_555 1_555
C10 H9 1_555 1_555
C11 C10 1_555 1_555
H10 C11 1_555 1_555
H11 C11 1_555 1_555
C12 C11 1_555 1_555
C13 C12 1_555 1_555
H12 C13 1_555 1_555
C14 H13 1_555 1_555
N1 C1 1_555 1_555
N2 C13 1_555 1_555
H14 N2 1_555 1_555
N3 C12 1_555 1_555
H15 N3 1_555 1_555
O1 C3 1_555 1_555
O2 C1 1_555 1_555
O3 C8 1_555 1_555
O4 C9 1_555 1_555
O5 C9 1_555 1_555
C6 C7 1_555 1_555
C6 O1 1_555 1_555
C8 N1 1_555 1_555
C10 N1 1_555 1_555
C14 N2 1_555 1_555
C14 N3 1_555 1_555

#END
