
#######################################################################
#
#                 Cambridge Crystallographic Data Centre
#                                CCDC 
#
#######################################################################
#
# If this CIF has been generated from an entry in the Cambridge 
# Structural Database, then it will include bibliographic, chemical, 
# crystal, experimental, refinement or atomic coordinate data resulting 
# from the CCDC's data processing and validation procedures.
#
#######################################################################

data_WALWOW
_chemical_formula_moiety         'C21 H25 N3 O4 S1'
_chemical_name_systematic        
(+-)-2-((1SR)-1-Hydroxy-2-phenylethyl)-5-((SR)-methoxy(phenyl)methyl)-N,N-dimethyl-1H-imidazole-1-sulfonamide
_symmetry_cell_setting           monoclinic
_symmetry_space_group_name_H-M   'P 21/c'
_symmetry_Int_Tables_number      14
_space_group_name_Hall           '-P 2ybc'
loop_
_symmetry_equiv_pos_site_id
_symmetry_equiv_pos_as_xyz
1 x,y,z
2 -x,1/2+y,1/2-z
3 -x,-y,-z
4 x,1/2-y,1/2+z
_cell_length_a                   9.787(2)
_cell_length_b                   19.841(3)
_cell_length_c                   11.365(3)
_cell_angle_alpha                90
_cell_angle_beta                 99.56(2)
_cell_angle_gamma                90
_cell_volume                     2176.25
_exptl_crystal_colour            colorless
_exptl_crystal_description       prism
_chemical_melting_point          '395 K'
_cell_formula_units_Z            4
_exptl_crystal_recrystallization_method 'diethyl ether'
loop_
_atom_site_label
_atom_site_type_symbol
_atom_site_fract_x
_atom_site_fract_y
_atom_site_fract_z
S1 S 0.34749(4) 0.18554(2) 0.47565(4)
O1 O 0.22519(15) 0.00339(7) 0.58726(12)
O2 O 0.33571(14) 0.25684(8) 0.47868(13)
O3 O 0.41227(15) 0.15076(8) 0.57899(13)
O4 O 0.08012(17) 0.28164(7) 0.28392(12)
N1 N 0.18254(14) 0.15715(7) 0.44360(12)
N2 N 0.00870(17) 0.08441(8) 0.42511(16)
N3 N 0.41102(17) 0.15843(9) 0.36380(15)
C1 C 0.14310(19) 0.08979(9) 0.44596(15)
C2 C -0.0432(2) 0.14898(10) 0.4094(2)
H1 H -0.1371 0.1594 0.3935
C3 C 0.05942(18) 0.19541(9) 0.41984(16)
C4 C 0.2367(2) 0.02974(9) 0.47328(17)
H2 H 0.3325 0.0446 0.4750
C5 C 0.2028(3) -0.02330(10) 0.3752(2)
H3 H 0.2538 -0.0642 0.3999
H4 H 0.1047 -0.0338 0.3649
C6 C 0.2380(3) -0.00047(11) 0.2579(2)
C7 C 0.3728(4) -0.00301(15) 0.2348(3)
H5 H 0.4430 -0.0199 0.2925
C8 C 0.4042(5) 0.01949(18) 0.1263(3)
H6 H 0.4956 0.0183 0.1135
C9 C 0.3057(5) 0.04269(19) 0.0402(3)
H7 H 0.3279 0.0565 -0.0325
C10 C 0.1692(5) 0.04591(18) 0.0605(3)
H8 H 0.1001 0.0624 0.0013
C11 C 0.1360(4) 0.02448(15) 0.1694(2)
H9 H 0.0449 0.0270 0.1825
C12 C 0.3602(3) 0.19026(13) 0.2484(2)
H10 H 0.4094 0.2316 0.2422
H11 H 0.2630 0.1996 0.2422
H12 H 0.3748 0.1604 0.1852
C13 C 0.5572(3) 0.13849(17) 0.3834(3)
H13 H 0.5742 0.1097 0.3196
H14 H 0.5789 0.1148 0.4578
H15 H 0.6143 0.1780 0.3857
C14 C 0.0480(2) 0.27007(9) 0.40010(16)
H16 H 0.1172 0.2928 0.4591
C15 C -0.0948(2) 0.29454(10) 0.41403(19)
C16 C -0.1989(3) 0.30256(13) 0.3168(3)
H17 H -0.1821 0.2933 0.2402
C17 C -0.3302(3) 0.32480(15) 0.3344(4)
H18 H -0.4001 0.3312 0.2692
C18 C -0.3555(3) 0.33714(17) 0.4471(5)
H19 H -0.4430 0.3511 0.4585
C19 C -0.2526(4) 0.32897(19) 0.5427(4)
H20 H -0.2699 0.3375 0.6194
C20 C -0.1240(3) 0.30829(15) 0.5260(3)
H21 H -0.0544 0.3034 0.5919
C21 C 0.1198(3) 0.34944(12) 0.2661(2)
H22 H 0.0480 0.3794 0.2820
H23 H 0.1339 0.3551 0.1851
H24 H 0.2042 0.3595 0.3193
H25 H 0.1331 -0.0198 0.5741
loop_
_geom_bond_atom_site_label_1
_geom_bond_atom_site_label_2
_geom_bond_site_symmetry_1
_geom_bond_site_symmetry_2
S1 O2 1_555 1_555
O1 C4 1_555 1_555
O3 S1 1_555 1_555
O4 C14 1_555 1_555
N1 S1 1_555 1_555
N2 C1 1_555 1_555
N3 S1 1_555 1_555
C1 N1 1_555 1_555
C2 N2 1_555 1_555
H1 C2 1_555 1_555
C3 N1 1_555 1_555
C4 C1 1_555 1_555
H2 C4 1_555 1_555
C5 C4 1_555 1_555
H3 C5 1_555 1_555
H4 C5 1_555 1_555
C6 C5 1_555 1_555
C7 C6 1_555 1_555
H5 C7 1_555 1_555
C8 C7 1_555 1_555
H6 C8 1_555 1_555
C9 C8 1_555 1_555
H7 C9 1_555 1_555
C10 C9 1_555 1_555
H8 C10 1_555 1_555
C11 C6 1_555 1_555
H9 C11 1_555 1_555
C12 N3 1_555 1_555
H10 C12 1_555 1_555
H11 C12 1_555 1_555
H12 C12 1_555 1_555
C13 N3 1_555 1_555
H13 C13 1_555 1_555
H14 C13 1_555 1_555
H15 C13 1_555 1_555
C14 C3 1_555 1_555
H16 C14 1_555 1_555
C15 C14 1_555 1_555
C16 C15 1_555 1_555
H17 C16 1_555 1_555
C17 C16 1_555 1_555
H18 C17 1_555 1_555
C18 C17 1_555 1_555
H19 C18 1_555 1_555
C19 C18 1_555 1_555
H20 C19 1_555 1_555
C20 C15 1_555 1_555
H21 C20 1_555 1_555
C21 O4 1_555 1_555
H22 C21 1_555 1_555
H23 C21 1_555 1_555
H24 C21 1_555 1_555
H25 O1 1_555 1_555
C2 C3 1_555 1_555
C10 C11 1_555 1_555
C19 C20 1_555 1_555

#END
