
#######################################################################
#
#                 Cambridge Crystallographic Data Centre
#                                CCDC 
#
#######################################################################
#
# If this CIF has been generated from an entry in the Cambridge 
# Structural Database, then it will include bibliographic, chemical, 
# crystal, experimental, refinement or atomic coordinate data resulting 
# from the CCDC's data processing and validation procedures.
#
#######################################################################

data_WALXIT
_chemical_formula_moiety         'C12 H18 Cl2 O8'
_chemical_name_systematic        
5-chloro-2-((3-(chloromethyl)-7-hydroxy-2,5-dioxabicyclo[2.2.1]hept-3-yl)oxy)-6-(hydroxymethyl)tetrahydro-2H-pyran-3,4-diol
_symmetry_cell_setting           monoclinic
_symmetry_space_group_name_H-M   'P 21'
_symmetry_Int_Tables_number      4
_space_group_name_Hall           'P 2yb'
loop_
_symmetry_equiv_pos_site_id
_symmetry_equiv_pos_as_xyz
1 x,y,z
2 -x,1/2+y,-z
_cell_length_a                   5.40373(15)
_cell_length_b                   18.3877(5)
_cell_length_c                   7.68465(19)
_cell_angle_alpha                90
_cell_angle_beta                 103.299(3)
_cell_angle_gamma                90
_cell_volume                     743.087
_cell_formula_units_Z            2
_chemical_properties_physical    Heat-sensitive
loop_
_atom_site_label
_atom_site_type_symbol
_atom_site_fract_x
_atom_site_fract_y
_atom_site_fract_z
Cl1 Cl 0.44251(14) 0.64010(4) 0.09987(9)
Cl2 Cl -0.29251(12) 0.37444(5) 0.00494(8)
O1 O 0.1115(3) 0.42646(9) 0.33852(19)
O2 O 0.5045(4) 0.49347(12) 0.5817(2)
H1 H 0.4835 0.4495 0.5896
O3 O 0.3896(4) 0.63715(11) 0.4827(3)
H2 H 0.283(6) 0.654(2) 0.534(4)
O4 O 0.2569(3) 0.47473(9) 0.0976(2)
O5 O -0.1752(4) 0.59690(11) -0.1909(2)
H3 H -0.306(6) 0.576(2) -0.252(5)
O6 O 0.3764(3) 0.34089(10) 0.59211(19)
O7 O -0.1442(3) 0.34000(9) 0.40704(19)
O8 O -0.0282(4) 0.19706(10) 0.3639(2)
H4 H 0.071(7) 0.171(2) 0.321(6)
C1 C 0.3241(4) 0.45156(13) 0.2767(3)
H5 H 0.4483 0.4120 0.2872
C2 C 0.4435(4) 0.51419(13) 0.3991(3)
H6 H 0.6009 0.5288 0.3658
C3 C 0.2653(4) 0.57955(13) 0.3750(3)
H7 H 0.1138 0.5661 0.4175
C4 C 0.1810(5) 0.60006(14) 0.1764(3)
H8 H 0.0445 0.6362 0.1629
C5 C 0.0778(4) 0.53358(13) 0.0663(3)
H9 H -0.0768 0.5177 0.1015
C6 C 0.0152(5) 0.54316(15) -0.1362(3)
H10 H 0.1677 0.5573 -0.1740
H11 H -0.0435 0.4973 -0.1932
C7 C 0.1705(5) 0.34166(17) 0.6869(3)
H12 H 0.1139 0.3909 0.7011
H13 H 0.2234 0.3192 0.8037
C8 C -0.0366(4) 0.29768(14) 0.5657(3)
H14 H -0.1623 0.2769 0.6252
C9 C 0.1234(4) 0.24180(13) 0.4953(3)
H15 H 0.2303 0.2134 0.5919
C10 C 0.2739(4) 0.30283(13) 0.4288(3)
H16 H 0.3996 0.2863 0.3636
C11 C 0.0569(4) 0.35127(12) 0.3194(2)
C12 C -0.0164(5) 0.32777(14) 0.1242(3)
H17 H -0.0483 0.2758 0.1180
H18 H 0.1239 0.3375 0.0683
loop_
_geom_bond_atom_site_label_1
_geom_bond_atom_site_label_2
_geom_bond_site_symmetry_1
_geom_bond_site_symmetry_2
Cl1 C4 1_555 1_555
Cl2 C12 1_555 1_555
O1 C1 1_555 1_555
O2 H1 1_555 1_555
O3 H2 1_555 1_555
O4 C1 1_555 1_555
O5 H3 1_555 1_555
O6 C7 1_555 1_555
O7 C8 1_555 1_555
O8 H4 1_555 1_555
C1 H5 1_555 1_555
C2 O2 1_555 1_555
H6 C2 1_555 1_555
C3 O3 1_555 1_555
H7 C3 1_555 1_555
C4 C3 1_555 1_555
H8 C4 1_555 1_555
C5 O4 1_555 1_555
H9 C5 1_555 1_555
C6 O5 1_555 1_555
H10 C6 1_555 1_555
H11 C6 1_555 1_555
C7 H12 1_555 1_555
H13 C7 1_555 1_555
C8 C7 1_555 1_555
H14 C8 1_555 1_555
C9 O8 1_555 1_555
H15 C9 1_555 1_555
C10 O6 1_555 1_555
H16 C10 1_555 1_555
C11 O1 1_555 1_555
C12 C11 1_555 1_555
H17 C12 1_555 1_555
H18 C12 1_555 1_555
O7 C11 1_555 1_555
C1 C2 1_555 1_555
C2 C3 1_555 1_555
C4 C5 1_555 1_555
C5 C6 1_555 1_555
C8 C9 1_555 1_555
C9 C10 1_555 1_555
C10 C11 1_555 1_555

#END
