
#######################################################################
#
#                 Cambridge Crystallographic Data Centre
#                                CCDC 
#
#######################################################################
#
# If this CIF has been generated from an entry in the Cambridge 
# Structural Database, then it will include bibliographic, chemical, 
# crystal, experimental, refinement or atomic coordinate data resulting 
# from the CCDC's data processing and validation procedures.
#
#######################################################################

data_WALXAJ
_chemical_formula_moiety         'C28 H27 N3 O2'
_chemical_name_systematic        
(2R)-N-(3-Aminopyridin-4-yl)-3-(benzyloxy)-2-((1,1'-biphenyl-4-yl)methyl)propanamide
_symmetry_cell_setting           monoclinic
_symmetry_space_group_name_H-M   'P 21'
_symmetry_Int_Tables_number      4
_space_group_name_Hall           'P 2yb'
loop_
_symmetry_equiv_pos_site_id
_symmetry_equiv_pos_as_xyz
1 x,y,z
2 -x,1/2+y,-z
_cell_length_a                   4.79580(10)
_cell_length_b                   9.8396(2)
_cell_length_c                   24.2769(6)
_cell_angle_alpha                90
_cell_angle_beta                 91.5860(11)
_cell_angle_gamma                90
_cell_volume                     1145.16
_exptl_crystal_colour            colorless
_exptl_crystal_description       plate
_chemical_melting_point          '421 K'
_cell_formula_units_Z            2
_exptl_crystal_recrystallization_method 'ethyl acetate'
loop_
_atom_site_label
_atom_site_type_symbol
_atom_site_fract_x
_atom_site_fract_y
_atom_site_fract_z
O1 O 0.1805(4) 0.50488(18) 0.26865(8)
O2 O 0.4141(3) 0.22676(19) 0.31032(6)
N1 N -0.0014(4) 0.2497(2) 0.35048(7)
N2 N 0.4191(6) 0.4089(2) 0.40937(9)
C1 C 0.1056(7) 0.0635(3) 0.48167(12)
C2 C 0.1637(5) 0.2491(2) 0.30610(8)
C3 C 0.0173(5) 0.2814(2) 0.25105(8)
C4 C -0.0600(5) 0.4315(2) 0.24985(11)
C5 C 0.2055(5) 0.2408(3) 0.20381(9)
C6 C 0.1736(7) 0.6448(3) 0.25458(13)
N3 N 0.3059(6) 0.1338(3) 0.50765(9)
C7 C 0.3992(7) 0.2443(3) 0.48317(10)
C8 C 0.3058(5) 0.2922(2) 0.43142(9)
C9 C 0.1048(5) 0.2134(2) 0.40421(8)
C10 C 0.0021(6) 0.0998(3) 0.42993(11)
C11 C 0.0673(5) 0.2481(3) 0.14739(8)
C12 C -0.1321(7) 0.1549(3) 0.13070(10)
C13 C -0.2540(7) 0.1577(3) 0.07839(10)
C14 C -0.1757(5) 0.2526(3) 0.03935(9)
C15 C 0.0209(7) 0.3463(4) 0.05637(11)
C16 C 0.1425(7) 0.3435(4) 0.10935(11)
C17 C -0.3004(6) 0.2530(3) -0.01762(9)
C18 C -0.4988(8) 0.1584(4) -0.03421(12)
C19 C -0.6101(9) 0.1587(5) -0.08752(13)
C20 C -0.5256(9) 0.2506(5) -0.12535(12)
C21 C -0.3338(9) 0.3460(5) -0.10974(13)
C22 C -0.2206(8) 0.3476(4) -0.05669(11)
C23 C -0.0384(6) 0.7274(2) 0.28435(10)
C24 C -0.1412(7) 0.6904(3) 0.33486(11)
C25 C -0.3362(8) 0.7697(4) 0.36055(12)
C26 C -0.4296(8) 0.8882(3) 0.33612(14)
C27 C -0.3261(7) 0.9272(3) 0.28683(13)
C28 C -0.1327(6) 0.8477(3) 0.26071(11)
H1 H -0.1943 0.2747 0.3462
H2 H 0.3512 0.4413 0.3737
H3 H 0.4944 0.4763 0.4325
H4 H -0.1492 0.2276 0.2473
H5 H -0.2122 0.4495 0.2737
H6 H -0.1097 0.4599 0.2130
H7 H 0.3624 0.3014 0.2036
H8 H 0.2701 0.1493 0.2092
H9 H 0.3526 0.6849 0.2627
H10 H 0.1302 0.6535 0.2159
H11 H 0.5436 0.2985 0.5003
H12 H -0.1405 0.0455 0.4122
H13 H -0.1953 0.0874 0.1560
H14 H -0.3926 0.0914 0.0681
H15 H 0.0778 0.4164 0.0316
H16 H 0.2835 0.4092 0.1190
H17 H -0.5613 0.0918 -0.0085
H18 H -0.7489 0.0928 -0.0982
H19 H -0.6008 0.2490 -0.1624
H20 H -0.2802 0.4142 -0.1356
H21 H -0.0756 0.4117 -0.0476
H22 H -0.0758 0.6085 0.3524
H23 H -0.4080 0.7426 0.3954
H24 H -0.5638 0.9434 0.3544
H25 H -0.3900 1.0097 0.2695
H26 H -0.0613 0.8765 0.2261
H27 H 0.0017 -0.0258 0.5001
loop_
_geom_bond_atom_site_label_1
_geom_bond_atom_site_label_2
_geom_bond_site_symmetry_1
_geom_bond_site_symmetry_2
O1 C4 1_555 1_555
O2 C2 1_555 1_555
N1 C2 1_555 1_555
N2 C8 1_555 1_555
C1 N3 1_555 1_555
C2 C3 1_555 1_555
C3 C4 1_555 1_555
C4 H5 1_555 1_555
C5 C3 1_555 1_555
C6 O1 1_555 1_555
N3 C7 1_555 1_555
C7 C8 1_555 1_555
C8 C9 1_555 1_555
C9 N1 1_555 1_555
C10 C1 1_555 1_555
C11 C5 1_555 1_555
C12 C11 1_555 1_555
C13 C12 1_555 1_555
C14 C13 1_555 1_555
C15 C14 1_555 1_555
C16 C11 1_555 1_555
C17 C14 1_555 1_555
C18 C17 1_555 1_555
C19 C18 1_555 1_555
C20 C19 1_555 1_555
C21 C20 1_555 1_555
C22 C17 1_555 1_555
C23 C6 1_555 1_555
C24 C23 1_555 1_555
C25 C24 1_555 1_555
C26 C25 1_555 1_555
C27 C26 1_555 1_555
C28 C23 1_555 1_555
H1 N1 1_555 1_555
H2 N2 1_555 1_555
H3 N2 1_555 1_555
H4 C3 1_555 1_555
H6 C4 1_555 1_555
H7 C5 1_555 1_555
H8 C5 1_555 1_555
H9 C6 1_555 1_555
H10 C6 1_555 1_555
H11 C7 1_555 1_555
H12 C10 1_555 1_555
H13 C12 1_555 1_555
H14 C13 1_555 1_555
H15 C15 1_555 1_555
H16 C16 1_555 1_555
H17 C18 1_555 1_555
H18 C19 1_555 1_555
H19 C20 1_555 1_555
H20 C21 1_555 1_555
H21 C22 1_555 1_555
H22 C24 1_555 1_555
H23 C25 1_555 1_555
H24 C26 1_555 1_555
H25 C27 1_555 1_555
H26 C28 1_555 1_555
H27 C1 1_555 1_555
C9 C10 1_555 1_555
C15 C16 1_555 1_555
C21 C22 1_555 1_555
C27 C28 1_555 1_555

#END
