
#######################################################################
#
#                 Cambridge Crystallographic Data Centre
#                                CCDC 
#
#######################################################################
#
# If this CIF has been generated from an entry in the Cambridge 
# Structural Database, then it will include bibliographic, chemical, 
# crystal, experimental, refinement or atomic coordinate data resulting 
# from the CCDC's data processing and validation procedures.
#
#######################################################################

data_WALYAM
_chemical_formula_moiety         'C21 H22 N2 O5'
_chemical_name_systematic        
5-(2-amino-3-(4-methoxyphenyl)-1,4,5,6-tetrahydro-7H-indol-7-ylidene)-2,2-dimethyl-1,3-dioxane-4,6-dione
_symmetry_cell_setting           triclinic
_symmetry_space_group_name_H-M   'P -1'
_symmetry_Int_Tables_number      2
_space_group_name_Hall           '-P 1'
loop_
_symmetry_equiv_pos_site_id
_symmetry_equiv_pos_as_xyz
1 x,y,z
2 -x,-y,-z
_cell_length_a                   7.4801(15)
_cell_length_b                   8.996(2)
_cell_length_c                   14.562(3)
_cell_angle_alpha                79.602(7)
_cell_angle_beta                 76.185(6)
_cell_angle_gamma                80.794(7)
_cell_volume                     928.883
_exptl_crystal_colour            yellow
_exptl_crystal_description       block
_cell_formula_units_Z            2
loop_
_atom_site_label
_atom_site_type_symbol
_atom_site_fract_x
_atom_site_fract_y
_atom_site_fract_z
C1 C 0.9974(3) 0.6196(2) 1.29338(14)
C2 C 0.6118(3) 0.7932(2) 0.73145(15)
H1 H 0.4836 0.8002 0.7404
C3 C 0.7270(4) 0.8634(3) 0.47271(17)
H2 H 0.8010 0.9454 0.4616
H3 H 0.6435 0.8847 0.4298
H4 H 0.8064 0.7704 0.4618
C4 C 0.7191(3) 0.8153(2) 0.64028(15)
C5 C 0.9096(3) 0.8046(2) 0.62729(15)
H5 H 0.9838 0.8169 0.5660
C6 C 0.9891(3) 0.7756(2) 0.70625(15)
H6 H 1.1172 0.7707 0.6970
C7 C 0.8838(3) 0.7535(2) 0.79874(14)
C8 C 0.6921(3) 0.7612(2) 0.80895(15)
H7 H 0.6174 0.7441 0.8699
C9 C 0.9656(2) 0.7251(2) 0.88356(14)
C10 C 1.1384(2) 0.6322(2) 0.89311(14)
C11 C 0.8958(2) 0.7788(2) 0.96896(14)
C12 C 1.0175(2) 0.7193(2) 1.03238(14)
C13 C 0.7229(3) 0.8823(2) 1.00061(14)
H8 H 0.6165 0.8260 1.0172
H9 H 0.7051 0.9640 0.9490
C14 C 0.7389(3) 0.9478(2) 1.08642(15)
H10 H 0.8288 1.0204 1.0662
H11 H 0.6201 1.0020 1.1128
C15 C 0.7979(3) 0.8258(2) 1.16308(15)
H12 H 0.7015 0.7595 1.1877
H13 H 0.8103 0.8736 1.2155
C16 C 1.0921(2) 0.6621(2) 1.19621(13)
C17 C 1.2880(3) 0.6265(2) 1.17469(14)
C18 C 1.2623(3) 0.8152(2) 1.33057(17)
H14 H 1.1950 0.8623 1.2822
H15 H 1.3846 0.8458 1.3135
H16 H 1.1984 0.8462 1.3908
C19 C 1.3779(3) 0.5619(3) 1.41301(16)
H17 H 1.3101 0.5838 1.4749
H18 H 1.4988 0.5943 1.4001
H19 H 1.3903 0.4543 1.4119
C20 C 1.2762(3) 0.6446(2) 1.33857(14)
C21 C 0.9809(2) 0.7296(2) 1.12751(14)
N1 N 1.2582(2) 0.55908(18) 0.82854(12)
H20 H 1.3585 0.5084 0.8422
H21 H 1.2356 0.5622 0.7730
N2 N 1.16571(19) 0.63152(17) 0.98016(11)
H22 H 1.2605 0.5841 1.0013
O1 O 0.6239(2) 0.84808(19) 0.56835(11)
O2 O 0.83581(18) 0.59434(17) 1.31966(10)
O3 O 1.39494(17) 0.61487(17) 1.09647(10)
O4 O 1.09680(17) 0.59419(16) 1.36282(9)
O5 O 1.37401(16) 0.59651(15) 1.24980(9)
loop_
_geom_bond_atom_site_label_1
_geom_bond_atom_site_label_2
_geom_bond_site_symmetry_1
_geom_bond_site_symmetry_2
C1 C16 1_555 1_555
C2 H1 1_555 1_555
C3 H2 1_555 1_555
H3 C3 1_555 1_555
H4 C3 1_555 1_555
C4 C2 1_555 1_555
C5 C4 1_555 1_555
H5 C5 1_555 1_555
C6 C5 1_555 1_555
H6 C6 1_555 1_555
C7 C6 1_555 1_555
C8 C2 1_555 1_555
H7 C8 1_555 1_555
C9 C7 1_555 1_555
C10 C9 1_555 1_555
C11 C9 1_555 1_555
C12 C11 1_555 1_555
C13 C11 1_555 1_555
H8 C13 1_555 1_555
H9 C13 1_555 1_555
C14 C13 1_555 1_555
H10 C14 1_555 1_555
H11 C14 1_555 1_555
C15 C14 1_555 1_555
H12 C15 1_555 1_555
H13 C15 1_555 1_555
C16 C17 1_555 1_555
C17 O3 1_555 1_555
C18 H14 1_555 1_555
H15 C18 1_555 1_555
H16 C18 1_555 1_555
C19 H17 1_555 1_555
H18 C19 1_555 1_555
H19 C19 1_555 1_555
C20 C18 1_555 1_555
C21 C12 1_555 1_555
N1 C10 1_555 1_555
H20 N1 1_555 1_555
H21 N1 1_555 1_555
N2 C10 1_555 1_555
H22 N2 1_555 1_555
O1 C3 1_555 1_555
O2 C1 1_555 1_555
O4 C1 1_555 1_555
O5 C17 1_555 1_555
C4 O1 1_555 1_555
C7 C8 1_555 1_555
C12 N2 1_555 1_555
C15 C21 1_555 1_555
C16 C21 1_555 1_555
C19 C20 1_555 1_555
C20 O4 1_555 1_555
C20 O5 1_555 1_555

#END
