
#######################################################################
#
#                 Cambridge Crystallographic Data Centre
#                                CCDC 
#
#######################################################################
#
# If this CIF has been generated from an entry in the Cambridge 
# Structural Database, then it will include bibliographic, chemical, 
# crystal, experimental, refinement or atomic coordinate data resulting 
# from the CCDC's data processing and validation procedures.
#
#######################################################################

data_WAMBAN
_chemical_compound_source        'Caribbean tunicate Ecteinascidia turbinata'
_chemical_formula_moiety         
'C40 H44 N3 O12 S1 1+,C1 H1 O2 1-,4(C1 H4 O1),2(H2 O1)'
_chemical_name_systematic        
'N^12^-Formyl O^21^-methoxy ecteinascidin 729 formic acid methanol solvate dihydrate'
_symmetry_cell_setting           orthorhombic
_symmetry_space_group_name_H-M   'P 21 21 21'
_symmetry_Int_Tables_number      19
_space_group_name_Hall           'P 2ac 2ab'
loop_
_symmetry_equiv_pos_site_id
_symmetry_equiv_pos_as_xyz
1 x,y,z
2 1/2+x,1/2-y,-z
3 -x,1/2+y,1/2-z
4 1/2-x,-y,1/2+z
_cell_length_a                   23.214(9)
_cell_length_b                   28.541(10)
_cell_length_c                   13.303(9)
_cell_angle_alpha                90
_cell_angle_beta                 90
_cell_angle_gamma                90
_cell_volume                     8813.91
_cell_formula_units_Z            8
loop_
_atom_site_label
_atom_site_type_symbol
_atom_site_fract_x
_atom_site_fract_y
_atom_site_fract_z
C1 C 0.2815 0.8934 -0.1354
N1 N 0.2790 0.8808 -0.2423
C2 C 0.2532 0.8339 -0.2625
C3 C 0.1912 0.8319 -0.2222
C4 C 0.1512 0.8210 -0.0480
C5 C 0.1526 0.8248 0.0553
C6 C 0.1974 0.8504 0.0892
C7 C 0.2379 0.8725 0.0302
C8 C 0.2367 0.8681 -0.0719
C9 C 0.1926 0.8409 -0.1118
C10 C 0.2595 0.8184 -0.3731
N2 N 0.3186 0.8265 -0.4042
C11 C 0.3353 0.8757 -0.3984
C12 C 0.2974 0.9074 -0.4653
C13 C 0.2030 0.9103 -0.5560
C14 C 0.1512 0.8909 -0.5887
C15 C 0.1362 0.8478 -0.5521
C16 C 0.1711 0.8229 -0.4839
C17 C 0.2220 0.8436 -0.4505
C18 C 0.2394 0.8860 -0.4902
C19 C 0.3339 0.8901 -0.2871
C20 C 0.1324 0.9656 -0.2468
N3 N 0.1142 0.9680 -0.3521
C21 C 0.1170 1.0157 -0.3976
C22 C 0.0740 1.0469 -0.3434
C23 C 0.0507 1.0765 -0.1682
C24 C 0.0504 1.0717 -0.0694
C25 C 0.0767 1.0337 -0.0206
C26 C 0.1030 0.9993 -0.0799
C27 C 0.0771 1.0424 -0.2299
C28 C 0.1036 1.0041 -0.1844
O1 O 0.2783 0.8956 0.0882
C29 C 0.2557 0.8930 0.1896
O2 O 0.2104 0.8592 0.1919
C30 C 0.1083 0.8014 0.1234
O3 O 0.1077 0.7951 -0.0944
C31 C 0.0551 0.8158 -0.1044
C32 C 0.0148 0.7885 -0.1656
O4 O 0.0441 0.8525 -0.0604
O5 O 0.1560 0.7798 -0.4471
O6 O 0.0861 0.8245 -0.5857
C33 C 0.0373 0.8317 -0.5205
C34 C 0.1114 0.9173 -0.6604
S1 S 0.1363 0.8690 -0.2881
C35 C 0.1145 0.9167 -0.2037
C36 C 0.1982 0.9700 -0.2373
O7 O 0.2306 0.9831 -0.3028
O8 O 0.2142 0.9579 -0.1439
C37 C 0.2737 0.9466 -0.1244
O9 O 0.0251 1.1051 -0.0058
O10 O 0.0732 1.0309 0.0824
C38 C 0.0950 0.9901 0.1328
O11 O 0.3783 0.8643 -0.2355
C39 C 0.4312 0.8908 -0.2230
C40 C 0.3558 0.7929 -0.4360
O12 O 0.3438 0.7512 -0.4394
C41 C 0.6966 0.8187 -0.0979
N4 N 0.6869 0.8367 0.0064
C42 C 0.7016 0.8036 0.0857
C43 C 0.7667 0.7931 0.0819
C44 C 0.8242 0.7385 -0.0250
C45 C 0.8390 0.7164 -0.1175
C46 C 0.8043 0.7282 -0.1957
C47 C 0.7588 0.7595 -0.1893
C48 C 0.7448 0.7824 -0.1006
C49 C 0.7793 0.7707 -0.0144
C50 C 0.6820 0.8192 0.1918
N5 N 0.6226 0.8359 0.1850
C51 C 0.6163 0.8759 0.1140
C52 C 0.6552 0.9170 0.1431
C53 C 0.7369 0.9402 0.2579
C54 C 0.7811 0.9307 0.3222
C55 C 0.7905 0.8836 0.3515
C56 C 0.7577 0.8480 0.3087
C57 C 0.7160 0.8586 0.2408
C58 C 0.7032 0.9048 0.2158
C59 C 0.6286 0.8560 0.0113
C60 C 0.8458 0.9051 -0.0528
N6 N 0.8548 0.9396 0.0295
C61 C 0.8627 0.9881 -0.0093
C62 C 0.9178 0.9910 -0.0710
C63 C 0.9599 0.9571 -0.2268
C64 C 0.9649 0.9231 -0.3007
C65 C 0.9280 0.8841 -0.2968
C66 C 0.8905 0.8792 -0.2177
C67 C 0.9212 0.9534 -0.1485
C68 C 0.8867 0.9132 -0.1411
O13 O 0.7326 0.7646 -0.2815
C69 C 0.7587 0.7294 -0.3462
O14 O 0.8087 0.7121 -0.2922
C70 C 0.8894 0.6819 -0.1234
O15 O 0.8534 0.7268 0.0638
C71 C 0.9048 0.7472 0.0865
C72 C 0.9205 0.7441 0.1943
O16 O 0.9320 0.7670 0.0221
O17 O 0.7683 0.8015 0.3316
O18 O 0.8318 0.8709 0.4248
C73 C 0.8902 0.8659 0.3831
C74 C 0.8209 0.9688 0.3665
S2 S 0.8165 0.8444 0.1051
C75 C 0.8583 0.8560 -0.0082
C76 C 0.7820 0.9081 -0.0848
O19 O 0.7470 0.9353 -0.0556
O20 O 0.7711 0.8727 -0.1487
C77 C 0.7110 0.8582 -0.1689
O21 O 1.0026 0.9264 -0.3790
O22 O 0.9352 0.8507 -0.3699
C78 C 0.8978 0.8093 -0.3652
O23 O 0.5890 0.8195 -0.0102
C79 C 0.5351 0.8342 -0.0485
C80 C 0.5806 0.8175 0.2409
O24 O 0.5303 0.8311 0.2392
O25 O 0.9436 0.9315 0.1737
C81 C 0.9803 0.8925 0.1607
O26 O 0.9135 0.2153 0.0483
C82 C 0.9343 0.2162 0.1536
O27 O 0.8426 0.1376 0.0477
C83 C 0.8640 0.1175 -0.0341
O28 O 0.7350 0.1085 0.0962
C84 C 0.7239 0.0578 0.1377
O29 O 0.5109 0.3081 0.0762
O30 O 0.9357 0.0735 0.1845
O31 O 0.0464 0.5125 0.0229
O32 O 0.0324 0.5070 0.2259
C85 C 0.0070 0.5135 0.1104
loop_
_geom_bond_atom_site_label_1
_geom_bond_atom_site_label_2
_geom_bond_site_symmetry_1
_geom_bond_site_symmetry_2
C1 N1 1_555 1_555
N1 C2 1_555 1_555
C2 C3 1_555 1_555
C3 C9 1_555 1_555
C4 C5 1_555 1_555
C5 C6 1_555 1_555
C6 C7 1_555 1_555
C7 C8 1_555 1_555
C8 C1 1_555 1_555
C9 C4 1_555 1_555
C10 C2 1_555 1_555
N2 C10 1_555 1_555
C11 N2 1_555 1_555
C12 C11 1_555 1_555
C13 C14 1_555 1_555
C14 C15 1_555 1_555
C15 C16 1_555 1_555
C16 C17 1_555 1_555
C17 C10 1_555 1_555
C18 C12 1_555 1_555
C19 N1 1_555 1_555
C20 N3 1_555 1_555
N3 C21 1_555 1_555
C21 C22 1_555 1_555
C22 C27 1_555 1_555
C23 C24 1_555 1_555
C24 C25 1_555 1_555
C25 C26 1_555 1_555
C26 C28 1_555 1_555
C27 C23 1_555 1_555
C28 C20 1_555 1_555
O1 C7 1_555 1_555
C29 O1 1_555 1_555
O2 C6 1_555 1_555
C30 C5 1_555 1_555
O3 C4 1_555 1_555
C31 O3 1_555 1_555
C32 C31 1_555 1_555
O4 C31 1_555 1_555
O5 C16 1_555 1_555
O6 C15 1_555 1_555
C33 O6 1_555 1_555
C34 C14 1_555 1_555
S1 C3 1_555 1_555
C35 C20 1_555 1_555
C36 C20 1_555 1_555
O7 C36 1_555 1_555
O8 C36 1_555 1_555
C37 C1 1_555 1_555
O9 C24 1_555 1_555
O10 C25 1_555 1_555
C38 O10 1_555 1_555
O11 C19 1_555 1_555
C39 O11 1_555 1_555
C40 N2 1_555 1_555
O12 C40 1_555 1_555
C41 N4 1_555 1_555
N4 C42 1_555 1_555
C42 C43 1_555 1_555
C43 C49 1_555 1_555
C44 C45 1_555 1_555
C45 C46 1_555 1_555
C46 C47 1_555 1_555
C47 C48 1_555 1_555
C48 C41 1_555 1_555
C49 C44 1_555 1_555
C50 C42 1_555 1_555
N5 C50 1_555 1_555
C51 N5 1_555 1_555
C52 C51 1_555 1_555
C53 C54 1_555 1_555
C54 C55 1_555 1_555
C55 C56 1_555 1_555
C56 C57 1_555 1_555
C57 C50 1_555 1_555
C58 C52 1_555 1_555
C59 N4 1_555 1_555
C60 N6 1_555 1_555
N6 C61 1_555 1_555
C61 C62 1_555 1_555
C62 C67 1_555 1_555
C63 C64 1_555 1_555
C64 C65 1_555 1_555
C65 C66 1_555 1_555
C66 C68 1_555 1_555
C67 C63 1_555 1_555
C68 C60 1_555 1_555
O13 C47 1_555 1_555
C69 O13 1_555 1_555
O14 C46 1_555 1_555
C70 C45 1_555 1_555
O15 C44 1_555 1_555
C71 O15 1_555 1_555
C72 C71 1_555 1_555
O16 C71 1_555 1_555
O17 C56 1_555 1_555
O18 C55 1_555 1_555
C73 O18 1_555 1_555
C74 C54 1_555 1_555
S2 C43 1_555 1_555
C75 C60 1_555 1_555
C76 C60 1_555 1_555
O19 C76 1_555 1_555
O20 C76 1_555 1_555
C77 C41 1_555 1_555
O21 C64 1_555 1_555
O22 C65 1_555 1_555
C78 O22 1_555 1_555
O23 C59 1_555 1_555
C79 O23 1_555 1_555
C80 N5 1_555 1_555
O24 C80 1_555 1_555
O25 C81 1_555 1_555
O26 C82 1_555 1_555
O27 C83 1_555 1_555
O28 C84 1_555 1_555
O31 C85 1_555 1_555
O32 C85 1_555 1_555
C8 C9 1_555 1_555
C11 C19 1_555 1_555
C13 C18 1_555 1_555
C17 C18 1_555 1_555
C27 C28 1_555 1_555
C29 O2 1_555 1_555
S1 C35 1_555 1_555
O8 C37 1_555 1_555
C48 C49 1_555 1_555
C51 C59 1_555 1_555
C53 C58 1_555 1_555
C57 C58 1_555 1_555
C67 C68 1_555 1_555
C69 O14 1_555 1_555
S2 C75 1_555 1_555
O20 C77 1_555 1_555

#END
