
#######################################################################
#
#                 Cambridge Crystallographic Data Centre
#                                CCDC 
#
#######################################################################
#
# If this CIF has been generated from an entry in the Cambridge 
# Structural Database, then it will include bibliographic, chemical, 
# crystal, experimental, refinement or atomic coordinate data resulting 
# from the CCDC's data processing and validation procedures.
#
#######################################################################

data_WAMBAO
_chemical_formula_moiety         'C18 H18 O2 Se1'
_chemical_name_systematic        
2,6-Diformyl-4-t-butylphenyl-(phenyl)-selenium
_symmetry_cell_setting           monoclinic
_symmetry_space_group_name_H-M   'P 21/c'
_symmetry_Int_Tables_number      14
_space_group_name_Hall           '-P 2ybc'
loop_
_symmetry_equiv_pos_site_id
_symmetry_equiv_pos_as_xyz
1 x,y,z
2 -x,1/2+y,1/2-z
3 -x,-y,-z
4 x,1/2-y,1/2+z
_cell_length_a                   9.624(3)
_cell_length_b                   13.494(4)
_cell_length_c                   12.323(4)
_cell_angle_alpha                90
_cell_angle_beta                 106.284(5)
_cell_angle_gamma                90
_cell_volume                     1536.14
_exptl_crystal_colour            'pale yellow'
_exptl_crystal_description       block
_chemical_melting_point          120-122deg.C
_cell_formula_units_Z            4
loop_
_atom_site_label
_atom_site_type_symbol
_atom_site_fract_x
_atom_site_fract_y
_atom_site_fract_z
Se1 Se 0.447950(19) 0.105408(14) 0.635314(14)
O1 O 0.54196(15) 0.30891(11) 0.92790(12)
O2 O 0.85793(15) -0.00074(10) 0.59226(11)
C1 C 0.63710(18) 0.13875(13) 0.73208(14)
C2 C 0.65370(19) 0.20637(13) 0.82107(14)
C3 C 0.5306(2) 0.25928(15) 0.84426(16)
H1 H 0.4381 0.2540 0.7908
C4 C 0.79091(18) 0.22761(13) 0.89054(14)
H2 H 0.8001 0.2739 0.9502
C5 C 0.91513(18) 0.18411(12) 0.87647(14)
C6 C 1.06516(19) 0.20473(13) 0.95574(15)
C7 C 1.0612(2) 0.28472(14) 1.04242(15)
H3 H 1.0000 0.2625 1.0893
H4 H 1.0214 0.3460 1.0031
H5 H 1.1595 0.2970 1.0905
C8 C 1.1673(2) 0.23757(15) 0.88733(17)
H6 H 1.1300 0.2982 0.8456
H7 H 1.1739 0.1852 0.8339
H8 H 1.2637 0.2504 0.9387
C9 C 1.1246(2) 0.10932(15) 1.02027(18)
H9 H 1.0596 0.0877 1.0643
H10 H 1.2211 0.1221 1.0713
H11 H 1.1309 0.0573 0.9663
C10 C 0.89653(19) 0.11979(12) 0.78521(15)
H12 H 0.9797 0.0907 0.7712
C11 C 0.76108(19) 0.09641(13) 0.71390(15)
C12 C 0.7540(2) 0.02583(14) 0.61968(16)
H13 H 0.6620 0.0005 0.5791
C13 C 0.38567(19) 0.01770(13) 0.73499(14)
C14 C 0.24033(19) -0.00837(13) 0.70338(15)
H14 H 0.1760 0.0197 0.6376
C15 C 0.1896(2) -0.07539(14) 0.76810(16)
H15 H 0.0901 -0.0931 0.7469
C16 C 0.2835(2) -0.11680(14) 0.86386(16)
H16 H 0.2485 -0.1631 0.9080
C17 C 0.4265(2) -0.09091(14) 0.89458(16)
H17 H 0.4905 -0.1194 0.9602
C18 C 0.4793(2) -0.02344(14) 0.83093(15)
H18 H 0.5788 -0.0056 0.8529
loop_
_geom_bond_atom_site_label_1
_geom_bond_atom_site_label_2
_geom_bond_site_symmetry_1
_geom_bond_site_symmetry_2
Se1 C1 1_555 1_555
O1 C3 1_555 1_555
O2 C12 1_555 1_555
C1 C2 1_555 1_555
C2 C3 1_555 1_555
C3 H1 1_555 1_555
C4 C2 1_555 1_555
H2 C4 1_555 1_555
C5 C4 1_555 1_555
C6 C5 1_555 1_555
C7 C6 1_555 1_555
H3 C7 1_555 1_555
H4 C7 1_555 1_555
H5 C7 1_555 1_555
C8 C6 1_555 1_555
H6 C8 1_555 1_555
H7 C8 1_555 1_555
H8 C8 1_555 1_555
C9 C6 1_555 1_555
H9 C9 1_555 1_555
H10 C9 1_555 1_555
H11 C9 1_555 1_555
C10 C5 1_555 1_555
H12 C10 1_555 1_555
C11 C1 1_555 1_555
C12 C11 1_555 1_555
H13 C12 1_555 1_555
C13 Se1 1_555 1_555
C14 C13 1_555 1_555
H14 C14 1_555 1_555
C15 C14 1_555 1_555
H15 C15 1_555 1_555
C16 C15 1_555 1_555
H16 C16 1_555 1_555
C17 C16 1_555 1_555
H17 C17 1_555 1_555
C18 C13 1_555 1_555
H18 C18 1_555 1_555
C10 C11 1_555 1_555
C17 C18 1_555 1_555

#END
