
#######################################################################
#
#                 Cambridge Crystallographic Data Centre
#                                CCDC 
#
#######################################################################
#
# If this CIF has been generated from an entry in the Cambridge 
# Structural Database, then it will include bibliographic, chemical, 
# crystal, experimental, refinement or atomic coordinate data resulting 
# from the CCDC's data processing and validation procedures.
#
#######################################################################

data_WAMCET
_chemical_formula_moiety         'C46 H82 P2 Si2'
_chemical_name_systematic        
1,2-bis(Trimethylsilyl)-1,2-bis((2,4,6-tri-t-butylphenyl)-(methyl)phosphino)ethene
_symmetry_cell_setting           monoclinic
_symmetry_space_group_name_H-M   'P 21/c'
_symmetry_Int_Tables_number      14
_space_group_name_Hall           '-P 2ybc'
loop_
_symmetry_equiv_pos_site_id
_symmetry_equiv_pos_as_xyz
1 x,y,z
2 -x,1/2+y,1/2-z
3 -x,-y,-z
4 x,1/2-y,1/2+z
_cell_length_a                   10.650(1)
_cell_length_b                   16.920(2)
_cell_length_c                   27.253(1)
_cell_angle_alpha                90
_cell_angle_beta                 100.309(3)
_cell_angle_gamma                90
_cell_volume                     4831.66
_exptl_crystal_description       prism
_chemical_melting_point          166-168deg.C
_cell_formula_units_Z            4
_exptl_crystal_recrystallization_method hexane
loop_
_atom_site_label
_atom_site_type_symbol
_atom_site_fract_x
_atom_site_fract_y
_atom_site_fract_z
P1 P 0.82281(7) 0.09759(4) 0.25274(2)
P2 P 0.44498(7) 0.11379(4) 0.16203(2)
Si1 Si 0.52791(7) 0.10868(4) 0.27721(2)
Si2 Si 0.73881(7) 0.11741(4) 0.13664(2)
C1 C 0.6511(2) 0.1256(1) 0.23352(8)
C2 C 0.6196(2) 0.1317(1) 0.18250(8)
C3 C 0.7833(3) -0.0065(2) 0.26686(10)
C4 C 0.4686(3) 0.0113(2) 0.1400(1)
C5 C 0.6089(3) 0.1040(2) 0.34379(9)
C6 C 0.3979(3) 0.1837(2) 0.27820(10)
C7 C 0.4486(3) 0.0094(2) 0.2643(1)
C8 C 0.8036(3) 0.0138(2) 0.13954(10)
C9 C 0.8768(3) 0.1875(2) 0.14249(10)
C10 C 0.6589(3) 0.1297(2) 0.06996(9)
C11 C 0.8901(2) 0.1349(1) 0.31665(8)
C12 C 0.9638(2) 0.0815(1) 0.35139(8)
C13 C 0.9636(3) 0.0930(1) 0.40224(9)
C14 C 0.9089(2) 0.1583(2) 0.42087(8)
C15 C 0.8702(2) 0.2187(1) 0.38723(9)
C16 C 0.8633(2) 0.2099(1) 0.33554(8)
C17 C 1.0644(3) 0.0204(2) 0.33951(9)
C18 C 1.0376(3) -0.0645(2) 0.3536(1)
C19 C 1.1944(3) 0.0449(2) 0.3726(1)
C20 C 1.0930(3) 0.0244(2) 0.28670(10)
C21 C 0.9002(3) 0.1629(2) 0.47642(9)
C22 C 0.8222(3) 0.0920(2) 0.4893(1)
C23 C 1.0335(3) 0.1611(2) 0.50829(10)
C24 C 0.8323(3) 0.2384(2) 0.4889(1)
C25 C 0.8322(3) 0.2862(1) 0.30420(9)
C26 C 0.9192(3) 0.3532(2) 0.3302(1)
C27 C 0.8637(3) 0.2799(2) 0.25188(9)
C28 C 0.6929(3) 0.3108(2) 0.3001(1)
C29 C 0.3817(3) 0.1660(2) 0.10151(9)
C30 C 0.3033(3) 0.1214(2) 0.06324(9)
C31 C 0.3046(3) 0.1419(2) 0.01399(9)
C32 C 0.3624(3) 0.2096(2) -0.00057(9)
C33 C 0.4081(3) 0.2619(2) 0.03807(10)
C34 C 0.4160(3) 0.2427(2) 0.08869(9)
C35 C 0.1948(3) 0.0616(2) 0.0714(1)
C36 C 0.2099(3) -0.0204(2) 0.0506(1)
C37 C 0.1690(3) 0.0600(2) 0.1245(1)
C38 C 0.0685(3) 0.0972(2) 0.0404(1)
C39 C 0.3696(3) 0.2248(2) -0.05540(10)
C40 C 0.2375(3) 0.2201(2) -0.08788(10)
C41 C 0.4552(3) 0.1605(2) -0.0719(1)
C42 C 0.4269(3) 0.3057(2) -0.0622(1)
C43 C 0.4550(3) 0.3110(2) 0.12611(9)
C44 C 0.3775(4) 0.3844(2) 0.1063(1)
C45 C 0.5978(3) 0.3305(2) 0.1326(1)
C46 C 0.4214(3) 0.2945(2) 0.1782(1)
H1 H 0.7566 -0.0117 0.2998
H2 H 0.7152 -0.0220 0.2421
H3 H 0.8517 -0.0493 0.2681
H4 H 0.5325 -0.0153 0.1696
H5 H 0.5075 0.0095 0.1087
H6 H 0.3814 0.0049 0.1119
H7 H 0.6782 0.0697 0.3523
H8 H 0.5522 0.0786 0.3627
H9 H 0.6528 0.1492 0.3633
H10 H 0.3543 0.1701 0.3025
H11 H 0.4278 0.2390 0.2964
H12 H 0.3345 0.1800 0.2530
H13 H 0.4069 0.0051 0.2993
H14 H 0.3755 0.0196 0.2432
H15 H 0.5025 -0.0324 0.2564
H16 H 0.7348 -0.0317 0.1433
H17 H 0.8367 0.0052 0.1104
H18 H 0.8718 0.0078 0.1674
H19 H 0.9113 0.1819 0.1120
H20 H 0.9388 0.1808 0.1688
H21 H 0.8511 0.2420 0.1430
H22 H 0.7181 0.1154 0.0450
H23 H 0.5906 0.0952 0.0635
H24 H 0.6303 0.1880 0.0642
H25 H 1.0104 0.0558 0.4302
H26 H 0.8428 0.2731 0.3996
H27 H 0.9392 -0.0737 0.3327
H28 H 1.1163 -0.0941 0.3519
H29 H 1.0126 -0.0668 0.3887
H30 H 1.2747 0.0199 0.3593
H31 H 1.1942 0.0391 0.4112
H32 H 1.2023 0.1012 0.3659
H33 H 1.1086 0.0825 0.2761
H34 H 1.0318 0.0138 0.2587
H35 H 1.1638 -0.0180 0.2874
H36 H 0.7290 0.0954 0.4657
H37 H 0.8734 0.0376 0.4872
H38 H 0.8042 0.0909 0.5248
H39 H 1.0840 0.1243 0.5094
H40 H 1.0326 0.1627 0.5479
H41 H 1.0906 0.2164 0.5030
H42 H 0.8171 0.2404 0.5296
H43 H 0.8950 0.2829 0.4803
H44 H 0.7449 0.2408 0.4703
H45 H 0.8832 0.3697 0.3565
H46 H 1.0227 0.3358 0.3407
H47 H 0.9008 0.4029 0.3095
H48 H 0.9668 0.2629 0.2538
H49 H 0.8518 0.3310 0.2345
H50 H 0.8104 0.2450 0.2250
H51 H 0.6792 0.3622 0.2783
H52 H 0.6263 0.2720 0.2883
H53 H 0.6568 0.3178 0.3342
H54 H 0.2488 0.1106 -0.0104
H55 H 0.4342 0.3160 0.0283
H56 H 0.2359 -0.0169 0.0203
H57 H 0.1244 -0.0604 0.0523
H58 H 0.3048 -0.0412 0.0688
H59 H 0.0935 0.0366 0.1289
H60 H 0.1287 0.1160 0.1337
H61 H 0.2340 0.0232 0.1448
H62 H -0.0085 0.0609 0.0454
H63 H 0.0616 0.0942 0.0007
H64 H 0.0573 0.1548 0.0549
H65 H 0.1788 0.2672 -0.0780
H66 H 0.1856 0.1665 -0.0878
H67 H 0.2486 0.2237 -0.1247
H68 H 0.4368 0.1094 -0.0692
H69 H 0.4701 0.1693 -0.1089
H70 H 0.5603 0.1678 -0.0479
H71 H 0.4419 0.3078 -0.0989
H72 H 0.5174 0.3139 -0.0420
H73 H 0.3857 0.3560 -0.0451
H74 H 0.3120 0.4073 0.0672
H75 H 0.3955 0.4380 0.1333
H76 H 0.3634 0.3689 0.1425
H77 H 0.6332 0.3395 0.1006
H78 H 0.6263 0.3804 0.1562
H79 H 0.6465 0.2822 0.1522
H80 H 0.3098 0.2908 0.1670
H81 H 0.4586 0.3515 0.1936
H82 H 0.4753 0.2518 0.1961
P3? P 0.4438(7) 0.1735(5) 0.1628(2)
loop_
_geom_bond_atom_site_label_1
_geom_bond_atom_site_label_2
_geom_bond_site_symmetry_1
_geom_bond_site_symmetry_2
P1 C1 1_555 1_555
P2 C2 1_555 1_555
Si1 C1 1_555 1_555
Si2 C2 1_555 1_555
C1 C2 1_555 1_555
C3 P1 1_555 1_555
C4 P2 1_555 1_555
C5 Si1 1_555 1_555
C6 Si1 1_555 1_555
C7 Si1 1_555 1_555
C8 Si2 1_555 1_555
C9 Si2 1_555 1_555
C10 Si2 1_555 1_555
C11 P1 1_555 1_555
C12 C11 1_555 1_555
C13 C12 1_555 1_555
C14 C13 1_555 1_555
C15 C14 1_555 1_555
C16 C11 1_555 1_555
C17 C12 1_555 1_555
C18 C17 1_555 1_555
C19 C17 1_555 1_555
C20 C17 1_555 1_555
C21 C14 1_555 1_555
C22 C21 1_555 1_555
C23 C21 1_555 1_555
C24 C21 1_555 1_555
C25 C16 1_555 1_555
C26 C25 1_555 1_555
C27 C25 1_555 1_555
C28 C25 1_555 1_555
C29 P2 1_555 1_555
C30 C29 1_555 1_555
C31 C30 1_555 1_555
C32 C31 1_555 1_555
C33 C32 1_555 1_555
C34 C29 1_555 1_555
C35 C30 1_555 1_555
C36 C35 1_555 1_555
C37 C35 1_555 1_555
C38 C35 1_555 1_555
C39 C32 1_555 1_555
C40 C39 1_555 1_555
C41 C39 1_555 1_555
C42 C39 1_555 1_555
C43 C34 1_555 1_555
C44 C43 1_555 1_555
C45 C43 1_555 1_555
C46 C43 1_555 1_555
H1 C3 1_555 1_555
H2 C3 1_555 1_555
H3 C3 1_555 1_555
H4 C4 1_555 1_555
H5 C4 1_555 1_555
H6 C4 1_555 1_555
H7 C5 1_555 1_555
H8 C5 1_555 1_555
H9 C5 1_555 1_555
H10 C6 1_555 1_555
H11 C6 1_555 1_555
H12 C6 1_555 1_555
H13 C7 1_555 1_555
H14 C7 1_555 1_555
H15 C7 1_555 1_555
H16 C8 1_555 1_555
H17 C8 1_555 1_555
H18 C8 1_555 1_555
H19 C9 1_555 1_555
H20 C9 1_555 1_555
H21 C9 1_555 1_555
H22 C10 1_555 1_555
H23 C10 1_555 1_555
H24 C10 1_555 1_555
H25 C13 1_555 1_555
H26 C15 1_555 1_555
H27 C18 1_555 1_555
H28 C18 1_555 1_555
H29 C18 1_555 1_555
H30 C19 1_555 1_555
H31 C19 1_555 1_555
H32 C19 1_555 1_555
H33 C20 1_555 1_555
H34 C20 1_555 1_555
H35 C20 1_555 1_555
H36 C22 1_555 1_555
H37 C22 1_555 1_555
H38 C22 1_555 1_555
H39 C23 1_555 1_555
H40 C23 1_555 1_555
H41 C23 1_555 1_555
H42 C24 1_555 1_555
H43 C24 1_555 1_555
H44 C24 1_555 1_555
H45 C26 1_555 1_555
H46 C26 1_555 1_555
H47 C26 1_555 1_555
H48 C27 1_555 1_555
H49 C27 1_555 1_555
H50 C27 1_555 1_555
H51 C28 1_555 1_555
H52 C28 1_555 1_555
H53 C28 1_555 1_555
H54 C31 1_555 1_555
H55 C33 1_555 1_555
H56 C36 1_555 1_555
H57 C36 1_555 1_555
H58 C36 1_555 1_555
H59 C37 1_555 1_555
H60 C37 1_555 1_555
H61 C37 1_555 1_555
H62 C38 1_555 1_555
H63 C38 1_555 1_555
H64 C38 1_555 1_555
H65 C40 1_555 1_555
H66 C40 1_555 1_555
H67 C40 1_555 1_555
H68 C41 1_555 1_555
H69 C41 1_555 1_555
H70 C41 1_555 1_555
H71 C42 1_555 1_555
H72 C42 1_555 1_555
H73 C42 1_555 1_555
H74 C44 1_555 1_555
H75 C44 1_555 1_555
H76 C44 1_555 1_555
H77 C45 1_555 1_555
H78 C45 1_555 1_555
H79 C45 1_555 1_555
H80 C46 1_555 1_555
H81 C46 1_555 1_555
H82 C46 1_555 1_555
C15 C16 1_555 1_555
C33 C34 1_555 1_555

#END
