
#######################################################################
#
#                 Cambridge Crystallographic Data Centre
#                                CCDC 
#
#######################################################################
#
# If this CIF has been generated from an entry in the Cambridge 
# Structural Database, then it will include bibliographic, chemical, 
# crystal, experimental, refinement or atomic coordinate data resulting 
# from the CCDC's data processing and validation procedures.
#
#######################################################################

data_WAMCOE
_chemical_formula_moiety         'C14 H22 As2 Cl6 Se4'
_chemical_name_systematic        
(\m~2~-1,2,4,5-tetrakis[(methylseleno)methyl]benzene)-hexachloro-di-arsenic(iii)
_symmetry_cell_setting           monoclinic
_symmetry_space_group_name_H-M   'P 21/n'
_symmetry_Int_Tables_number      14
_space_group_name_Hall           '-P 2yn'
loop_
_symmetry_equiv_pos_site_id
_symmetry_equiv_pos_as_xyz
1 x,y,z
2 1/2-x,1/2+y,1/2-z
3 -x,-y,-z
4 1/2+x,1/2-y,1/2+z
_cell_length_a                   9.4033(10)
_cell_length_b                   8.8433(10)
_cell_length_c                   15.4653(15)
_cell_angle_alpha                90
_cell_angle_beta                 101.011(7)
_cell_angle_gamma                90
_cell_volume                     1262.36
_exptl_crystal_colour            colorless
_cell_formula_units_Z            2
loop_
_atom_site_label
_atom_site_type_symbol
_atom_site_fract_x
_atom_site_fract_y
_atom_site_fract_z
As1 As 0.41214(11) 0.54264(12) 0.12923(6)
Cl1 Cl 0.5094(3) 0.6365(3) 0.25772(16)
Cl2 Cl 0.2204(3) 0.4420(3) 0.17113(18)
Cl3 Cl 0.5326(3) 0.3274(3) 0.14053(18)
Se1 Se 0.16023(11) 0.82672(12) 0.09780(7)
Se2 Se 0.72554(12) 0.63548(11) 0.07952(6)
C1 C 0.1258(13) 0.7453(14) -0.0216(7)
H1 H 0.0598 0.8123 -0.0608
H2 H 0.0824 0.6445 -0.0218
H3 H 0.2180 0.7381 -0.0421
C2 C 0.2345(11) 1.0249(12) 0.0700(7)
H4 H 0.1585 1.0779 0.0277
H5 H 0.2557 1.0863 0.1245
C3 C 0.3680(10) 1.0136(11) 0.0318(6)
C4 C 0.4924(10) 0.9455(10) 0.0832(6)
H6 H 0.4870 0.9063 0.1397
C5 C 0.3779(10) 1.0653(11) -0.0530(7)
C6 C 0.7468(11) 0.8504(11) 0.1109(7)
H7 H 0.7428 0.8647 0.1739
H8 H 0.8409 0.8890 0.1005
C7 C 0.8560(11) 0.5581(11) 0.1842(7)
H9 H 0.9518 0.6043 0.1885
H10 H 0.8645 0.4480 0.1795
H11 H 0.8171 0.5831 0.2368
As1B As 0.58786(11) 1.45736(12) -0.12923(6)
Cl1B Cl 0.4906(3) 1.3635(3) -0.25772(16)
Cl2B Cl 0.7796(3) 1.5580(3) -0.17113(18)
Cl3B Cl 0.4674(3) 1.6726(3) -0.14053(18)
Se1B Se 0.83977(11) 1.17328(12) -0.09780(7)
Se2B Se 0.27446(12) 1.36452(11) -0.07952(6)
C1B C 0.8742(13) 1.2547(14) 0.0216(7)
H1B H 0.9402 1.1877 0.0608
H2B H 0.9176 1.3555 0.0218
H3B H 0.7820 1.2619 0.0421
C2B C 0.7655(11) 0.9751(12) -0.0700(7)
H4B H 0.8415 0.9221 -0.0277
H5B H 0.7443 0.9137 -0.1245
C3B C 0.6320(10) 0.9864(11) -0.0318(6)
C4B C 0.5076(10) 1.0545(10) -0.0832(6)
H6B H 0.5130 1.0937 -0.1397
C5B C 0.6221(10) 0.9347(11) 0.0530(7)
C6B C 0.2532(11) 1.1496(11) -0.1109(7)
H7B H 0.2572 1.1353 -0.1739
H8B H 0.1591 1.1110 -0.1005
C7B C 0.1440(11) 1.4419(11) -0.1842(7)
H9B H 0.0482 1.3957 -0.1885
H10B H 0.1355 1.5520 -0.1795
H11B H 0.1829 1.4169 -0.2368
loop_
_geom_bond_atom_site_label_1
_geom_bond_atom_site_label_2
_geom_bond_site_symmetry_1
_geom_bond_site_symmetry_2
As1 Cl1 1_555 1_555
Cl2 As1 1_555 1_555
Cl3 As1 1_555 1_555
Se1 As1 1_555 1_555
Se2 As1 1_555 1_555
C1 Se1 1_555 1_555
H1 C1 1_555 1_555
H2 C1 1_555 1_555
H3 C1 1_555 1_555
C2 Se1 1_555 1_555
H4 C2 1_555 1_555
H5 C2 1_555 1_555
C3 C2 1_555 1_555
C4 C3 1_555 1_555
H6 C4 1_555 1_555
C5 C3 1_555 1_555
C6 Se2 1_555 1_555
H7 C6 1_555 1_555
H8 C6 1_555 1_555
C7 Se2 1_555 1_555
H9 C7 1_555 1_555
H10 C7 1_555 1_555
H11 C7 1_555 1_555
As1B Cl1B 1_555 1_555
Cl2B As1B 1_555 1_555
Cl3B As1B 1_555 1_555
Se1B As1B 1_555 1_555
Se2B As1B 1_555 1_555
C1B Se1B 1_555 1_555
H1B C1B 1_555 1_555
H2B C1B 1_555 1_555
H3B C1B 1_555 1_555
C2B Se1B 1_555 1_555
H4B C2B 1_555 1_555
H5B C2B 1_555 1_555
C3B C2B 1_555 1_555
C4B C5 1_555 1_555
H6B C4B 1_555 1_555
C5B C4 1_555 1_555
C6B C5 1_555 1_555
H7B C6B 1_555 1_555
H8B C6B 1_555 1_555
C7B Se2B 1_555 1_555
H9B C7B 1_555 1_555
H10B C7B 1_555 1_555
H11B C7B 1_555 1_555
C6 C5B 1_555 1_555
Se2B C6B 1_555 1_555
C3B C4B 1_555 1_555
C3B C5B 1_555 1_555

#END
