
#######################################################################
#
#                 Cambridge Crystallographic Data Centre
#                                CCDC 
#
#######################################################################
#
# If this CIF has been generated from an entry in the Cambridge 
# Structural Database, then it will include bibliographic, chemical, 
# crystal, experimental, refinement or atomic coordinate data resulting 
# from the CCDC's data processing and validation procedures.
#
#######################################################################

data_WAMCIX
_chemical_formula_moiety         'C50 H88 P2 Si2'
_chemical_name_systematic        
1,2-bis(t-Butyl(dimethyl)silyl)-3,4-bis(2,4,6-tri-t-butylphenyl)-3,4-diphosphacyclobutene
_symmetry_cell_setting           triclinic
_symmetry_space_group_name_H-M   'P -1'
_symmetry_Int_Tables_number      2
_space_group_name_Hall           '-P 1'
loop_
_symmetry_equiv_pos_site_id
_symmetry_equiv_pos_as_xyz
1 x,y,z
2 -x,-y,-z
_cell_length_a                   15.2131(8)
_cell_length_b                   16.864(2)
_cell_length_c                   10.598(1)
_cell_angle_alpha                95.069(1)
_cell_angle_beta                 107.446(4)
_cell_angle_gamma                81.572(4)
_cell_volume                     2563.03
_exptl_crystal_colour            yellow
_exptl_crystal_description       platelet
_chemical_melting_point          186-188deg.C
_cell_formula_units_Z            2
_exptl_crystal_recrystallization_method hexane
loop_
_atom_site_label
_atom_site_type_symbol
_atom_site_fract_x
_atom_site_fract_y
_atom_site_fract_z
P1 P 0.22421(7) 0.28743(7) 1.0337(1)
P2 P 0.11564(7) 0.25205(7) 0.8515(1)
Si1 Si 0.35721(8) 0.12230(9) 1.1384(1)
Si2 Si 0.11995(8) 0.05929(8) 0.8595(1)
C1 C 0.2509(3) 0.1773(3) 1.0173(4)
C2 C 0.1682(3) 0.1565(3) 0.9315(5)
C3 C 0.3195(3) 0.3438(3) 1.0246(4)
C4 C 0.3839(3) 0.3245(3) 0.9477(5)
C5 C 0.4733(3) 0.3441(3) 1.0045(5)
C6 C 0.5026(3) 0.3841(3) 1.1270(5)
C7 C 0.4345(3) 0.4158(3) 1.1854(5)
C8 C 0.3423(3) 0.3999(3) 1.1349(5)
C9 C 0.3582(3) 0.2926(3) 0.8015(5)
C10 C 0.3421(3) 0.2045(3) 0.7853(5)
C11 C 0.2722(3) 0.3452(3) 0.7217(5)
C12 C 0.4352(3) 0.2986(3) 0.7379(5)
C13 C 0.6063(3) 0.3932(3) 1.1913(5)
C14 C 0.6430(3) 0.4324(4) 1.0950(6)
C15 C 0.6233(3) 0.4430(3) 1.3207(6)
C16 C 0.6595(3) 0.3084(3) 1.2176(5)
C17 C 0.2689(3) 0.4524(3) 1.1939(5)
C18 C 0.3061(3) 0.5312(3) 1.2583(6)
C19 C 0.1816(3) 0.4786(3) 1.0816(5)
C20 C 0.2471(3) 0.4114(3) 1.3030(5)
C21 C -0.0114(3) 0.2790(3) 0.8337(5)
C22 C -0.0632(3) 0.2644(3) 0.9204(5)
C23 C -0.1543(3) 0.2461(3) 0.8617(5)
C24 C -0.1977(3) 0.2451(3) 0.7260(5)
C25 C -0.1527(3) 0.2766(3) 0.6497(5)
C26 C -0.0628(3) 0.2981(3) 0.6991(5)
C27 C -0.0306(3) 0.2734(3) 1.0730(5)
C28 C 0.0430(3) 0.2051(3) 1.1374(5)
C29 C 0.0072(3) 0.3541(3) 1.1137(5)
C30 C -0.1112(3) 0.2754(3) 1.1339(5)
C31 C -0.2913(3) 0.2128(3) 0.6632(5)
C32 C -0.2791(3) 0.1472(3) 0.5580(6)
C33 C -0.3245(3) 0.1762(3) 0.7639(5)
C34 C -0.3655(3) 0.2802(3) 0.5957(5)
C35 C -0.0261(3) 0.3453(3) 0.6091(5)
C36 C 0.0253(3) 0.4122(3) 0.6925(5)
C37 C 0.0327(3) 0.2910(3) 0.5319(5)
C38 C -0.1086(3) 0.3882(3) 0.5031(5)
C39 C 0.4597(3) 0.1781(4) 1.1674(6)
C40 C 0.3952(3) 0.0178(4) 1.0826(6)
C41 C 0.3352(3) 0.1183(3) 1.3055(5)
C42 C 0.3096(4) 0.2021(4) 1.3622(6)
C43 C 0.4248(4) 0.0802(4) 1.4055(6)
C44 C 0.2586(4) 0.0671(3) 1.2978(6)
C45 C 0.1469(4) -0.0206(3) 0.9826(6)
C46 C -0.0087(3) 0.0786(3) 0.7974(6)
C47 C 0.1617(3) 0.0177(3) 0.7106(6)
C48 C 0.1309(4) 0.0788(4) 0.6024(6)
C49 C 0.1166(4) -0.0592(4) 0.6563(6)
C50 C 0.2676(3) -0.0036(4) 0.7458(6)
H1 H -0.1851 0.2848 0.5587
H3 H 0.5179 0.3275 0.9572
H4 H 0.4509 0.4499 1.2634
H5 H 0.3243 0.1883 0.6934
H6 H 0.3985 0.1720 0.8283
H7 H 0.2951 0.1968 0.8227
H8 H 0.2222 0.3445 0.7589
H9 H 0.2860 0.3998 0.7294
H10 H 0.2552 0.3276 0.6330
H11 H 0.4152 0.2821 0.6460
H12 H 0.4899 0.2653 0.7805
H13 H 0.4477 0.3528 0.7449
H14 H 0.6336 0.4017 1.0151
H15 H 0.7085 0.4345 1.1348
H16 H 0.6126 0.4852 1.0811
H17 H 0.6883 0.4451 1.3578
H18 H 0.5926 0.4962 1.3042
H19 H 0.6003 0.4198 1.3804
H20 H 0.7236 0.3122 1.2571
H21 H 0.6513 0.2779 1.1356
H22 H 0.6361 0.2830 1.2746
H23 H 0.3197 0.5592 1.1919
H24 H 0.3604 0.5204 1.3281
H25 H 0.2598 0.5646 1.2886
H26 H 0.1544 0.4326 1.0375
H27 H 0.1972 0.5075 1.0204
H28 H 0.1376 0.5121 1.1173
H29 H 0.3020 0.4002 1.3733
H30 H 0.2016 0.4445 1.3336
H31 H 0.2240 0.3616 1.2664
H32 H 0.0168 0.1556 1.1185
H33 H 0.0945 0.2009 1.1037
H34 H 0.0628 0.2149 1.2309
H35 H 0.0578 0.3555 1.0796
H36 H 0.0283 0.3596 1.2082
H37 H -0.0403 0.3963 1.0809
H38 H -0.0889 0.2821 1.2278
H39 H -0.1581 0.3183 1.1005
H40 H -0.1373 0.2260 1.1118
H41 H -0.2345 0.1053 0.5983
H42 H -0.2594 0.1697 0.4931
H43 H -0.3371 0.1279 0.5165
H44 H -0.2791 0.1331 0.8039
H45 H -0.3317 0.2157 0.8312
H46 H -0.3817 0.1563 0.7223
H47 H -0.4233 0.2593 0.5552
H48 H -0.3472 0.3017 0.5286
H49 H -0.3742 0.3217 0.6589
H50 H 0.0783 0.3896 0.7592
H51 H -0.0139 0.4473 0.7324
H52 H 0.0467 0.4422 0.6367
H53 H -0.1471 0.4236 0.5461
H54 H -0.0860 0.4182 0.4511
H55 H -0.1444 0.3497 0.4486
H56 H -0.0029 0.2534 0.4756
H57 H 0.0548 0.3229 0.4814
H58 H 0.0851 0.2627 0.5937
H59 H 0.4764 0.1771 1.0847
H60 H 0.4462 0.2320 1.1936
H61 H 0.5121 0.1529 1.2310
H62 H 0.4128 0.0200 1.0027
H63 H 0.3471 -0.0139 1.0656
H64 H 0.4485 -0.0049 1.1486
H65 H 0.2550 0.2279 1.3039
H66 H 0.3592 0.2335 1.3753
H67 H 0.2993 0.1980 1.4461
H68 H 0.4729 0.1110 1.4119
H69 H 0.4134 0.0800 1.4885
H70 H 0.4394 0.0272 1.3744
H71 H 0.2501 0.0666 1.3835
H72 H 0.2755 0.0138 1.2688
H73 H 0.2021 0.0892 1.2379
H74 H -0.0332 0.0963 0.8684
H75 H -0.0257 0.1191 0.7337
H76 H -0.0325 0.0308 0.7562
H77 H 0.1204 -0.0027 1.0529
H78 H 0.2124 -0.0331 1.0190
H79 H 0.1217 -0.0682 0.9407
H80 H 0.1613 0.1263 0.6331
H81 H 0.0658 0.0942 0.5786
H82 H 0.1480 0.0570 0.5253
H83 H 0.0508 -0.0473 0.6339
H84 H 0.1340 -0.0802 0.5802
H85 H 0.1369 -0.0980 0.7226
H86 H 0.2838 -0.0246 0.6686
H87 H 0.2866 -0.0429 0.8108
H88 H 0.2963 0.0430 0.7794
H2? H -0.1851 0.2848 0.5587
loop_
_geom_bond_atom_site_label_1
_geom_bond_atom_site_label_2
_geom_bond_site_symmetry_1
_geom_bond_site_symmetry_2
P1 P2 1_555 1_555
P2 C2 1_555 1_555
Si1 C1 1_555 1_555
Si2 C2 1_555 1_555
C1 P1 1_555 1_555
C2 C1 1_555 1_555
C3 P1 1_555 1_555
C4 C3 1_555 1_555
C5 C4 1_555 1_555
C6 C5 1_555 1_555
C7 C6 1_555 1_555
C8 C3 1_555 1_555
C9 C4 1_555 1_555
C10 C9 1_555 1_555
C11 C9 1_555 1_555
C12 C9 1_555 1_555
C13 C6 1_555 1_555
C14 C13 1_555 1_555
C15 C13 1_555 1_555
C16 C13 1_555 1_555
C17 C8 1_555 1_555
C18 C17 1_555 1_555
C19 C17 1_555 1_555
C20 C17 1_555 1_555
C21 P2 1_555 1_555
C22 C21 1_555 1_555
C23 C22 1_555 1_555
C24 C23 1_555 1_555
C25 C24 1_555 1_555
C26 C21 1_555 1_555
C27 C22 1_555 1_555
C28 C27 1_555 1_555
C29 C27 1_555 1_555
C30 C27 1_555 1_555
C31 C24 1_555 1_555
C32 C31 1_555 1_555
C33 C31 1_555 1_555
C34 C31 1_555 1_555
C35 C26 1_555 1_555
C36 C35 1_555 1_555
C37 C35 1_555 1_555
C38 C35 1_555 1_555
C39 Si1 1_555 1_555
C40 Si1 1_555 1_555
C41 Si1 1_555 1_555
C42 C41 1_555 1_555
C43 C41 1_555 1_555
C44 C41 1_555 1_555
C45 Si2 1_555 1_555
C46 Si2 1_555 1_555
C47 Si2 1_555 1_555
C48 C47 1_555 1_555
C49 C47 1_555 1_555
C50 C47 1_555 1_555
H1 C25 1_555 1_555
H3 C5 1_555 1_555
H4 C7 1_555 1_555
H5 C10 1_555 1_555
H6 C10 1_555 1_555
H7 C10 1_555 1_555
H8 C11 1_555 1_555
H9 C11 1_555 1_555
H10 C11 1_555 1_555
H11 C12 1_555 1_555
H12 C12 1_555 1_555
H13 C12 1_555 1_555
H14 C14 1_555 1_555
H15 C14 1_555 1_555
H16 C14 1_555 1_555
H17 C15 1_555 1_555
H18 C15 1_555 1_555
H19 C15 1_555 1_555
H20 C16 1_555 1_555
H21 C16 1_555 1_555
H22 C16 1_555 1_555
H23 C18 1_555 1_555
H24 C18 1_555 1_555
H25 C18 1_555 1_555
H26 C19 1_555 1_555
H27 C19 1_555 1_555
H28 C19 1_555 1_555
H29 C20 1_555 1_555
H30 C20 1_555 1_555
H31 C20 1_555 1_555
H32 C28 1_555 1_555
H33 C28 1_555 1_555
H34 C28 1_555 1_555
H35 C29 1_555 1_555
H36 C29 1_555 1_555
H37 C29 1_555 1_555
H38 C30 1_555 1_555
H39 C30 1_555 1_555
H40 C30 1_555 1_555
H41 C32 1_555 1_555
H42 C32 1_555 1_555
H43 C32 1_555 1_555
H44 C33 1_555 1_555
H45 C33 1_555 1_555
H46 C33 1_555 1_555
H47 C34 1_555 1_555
H48 C34 1_555 1_555
H49 C34 1_555 1_555
H50 C36 1_555 1_555
H51 C36 1_555 1_555
H52 C36 1_555 1_555
H53 C38 1_555 1_555
H54 C38 1_555 1_555
H55 C38 1_555 1_555
H56 C37 1_555 1_555
H57 C37 1_555 1_555
H58 C37 1_555 1_555
H59 C39 1_555 1_555
H60 C39 1_555 1_555
H61 C39 1_555 1_555
H62 C40 1_555 1_555
H63 C40 1_555 1_555
H64 C40 1_555 1_555
H65 C42 1_555 1_555
H66 C42 1_555 1_555
H67 C42 1_555 1_555
H68 C43 1_555 1_555
H69 C43 1_555 1_555
H70 C43 1_555 1_555
H71 C44 1_555 1_555
H72 C44 1_555 1_555
H73 C44 1_555 1_555
H74 C46 1_555 1_555
H75 C46 1_555 1_555
H76 C46 1_555 1_555
H77 C45 1_555 1_555
H78 C45 1_555 1_555
H79 C45 1_555 1_555
H80 C48 1_555 1_555
H81 C48 1_555 1_555
H82 C48 1_555 1_555
H83 C49 1_555 1_555
H84 C49 1_555 1_555
H85 C49 1_555 1_555
H86 C50 1_555 1_555
H87 C50 1_555 1_555
H88 C50 1_555 1_555
C7 C8 1_555 1_555
C25 C26 1_555 1_555

#END
