
#######################################################################
#
#                 Cambridge Crystallographic Data Centre
#                                CCDC 
#
#######################################################################
#
# If this CIF has been generated from an entry in the Cambridge 
# Structural Database, then it will include bibliographic, chemical, 
# crystal, experimental, refinement or atomic coordinate data resulting 
# from the CCDC's data processing and validation procedures.
#
#######################################################################

data_WAMFEX
_chemical_formula_moiety         'C15 H22 O4,H2 O1'
_chemical_name_systematic        
'4a,8-Dihydroxy-5,8a-dimethyl-3-methylenedecahydronaphtho[2,3-b]furan-2(3H)-one monohydrate'
_symmetry_cell_setting           tetragonal
_symmetry_space_group_name_H-M   'P 41 21 2'
_symmetry_Int_Tables_number      92
_space_group_name_Hall           'P 4abw 2nw'
loop_
_symmetry_equiv_pos_site_id
_symmetry_equiv_pos_as_xyz
1 x,y,z
2 -x,-y,1/2+z
3 1/2-y,1/2+x,1/4+z
4 1/2+y,1/2-x,3/4+z
5 1/2-x,1/2+y,1/4-z
6 1/2+x,1/2-y,3/4-z
7 y,x,-z
8 -y,-x,1/2-z
_cell_length_a                   8.8042(7)
_cell_length_b                   8.8042(7)
_cell_length_c                   39.739(4)
_cell_angle_alpha                90
_cell_angle_beta                 90
_cell_angle_gamma                90
_cell_volume                     3080.33
_exptl_crystal_colour            colorless
_exptl_crystal_description       prismatic
_cell_formula_units_Z            8
loop_
_atom_site_label
_atom_site_type_symbol
_atom_site_fract_x
_atom_site_fract_y
_atom_site_fract_z
O1 O 0.8092(3) -0.0495(2) 0.10393(5)
O2 O 0.8694(2) 0.4155(2) 0.09131(4)
O3 O 0.7375(4) 0.2395(3) -0.05554(5)
O4 O 0.6878(2) 0.1981(2) -0.00143(5)
C1 C 0.8814(4) 0.0973(3) 0.10455(6)
H1 H 0.8238 0.1628 0.1199
C2 C 1.0418(4) 0.0882(4) 0.11717(6)
H2 H 1.0986 0.0181 0.1031
H3 H 1.0414 0.0481 0.1399
C3 C 1.1209(4) 0.2406(4) 0.11708(6)
H4 H 1.2256 0.2274 0.1241
H5 H 1.0716 0.3074 0.1331
C4 C 1.1176(3) 0.3152(3) 0.08188(5)
H6 H 1.1440 0.4218 0.0859
C5 C 0.9552(3) 0.3198(3) 0.06870(5)
C6 C 0.9439(3) 0.3916(3) 0.03387(5)
H7 H 1.0004 0.4861 0.0338
H8 H 0.9904 0.3242 0.0176
C7 C 0.7806(3) 0.4234(3) 0.02323(6)
H9 H 0.7420 0.5148 0.0344
C8 C 0.6742(3) 0.2890(3) 0.02934(6)
H10 H 0.5700 0.3278 0.0307
C9 C 0.7041(3) 0.1933(3) 0.06023(6)
H11 H 0.6550 0.0957 0.0571
H12 H 0.6560 0.2422 0.0793
C10 C 0.8705(3) 0.1651(3) 0.06901(5)
C11 C 0.7700(3) 0.4391(3) -0.01423(6)
C12 C 0.7310(4) 0.2861(4) -0.02729(7)
C13 C 0.7909(4) 0.5562(4) -0.03383(7)
H13 H 0.7814 0.5457 -0.0570
H14 H 0.8152 0.6502 -0.0246
C14 C 0.9386(3) 0.0508(3) 0.04373(5)
H15 H 0.9396 0.0951 0.0217
H16 H 0.8779 -0.0398 0.0435
H17 H 1.0405 0.0260 0.0503
C15 C 1.2423(4) 0.2564(6) 0.05956(8)
H18 H 1.2340 0.1480 0.0577
H19 H 1.3390 0.2821 0.0691
H20 H 1.2334 0.3015 0.0377
H21 H 0.896(4) 0.506(2) 0.0887(8)
H22 H 0.752(4) -0.057(4) 0.1217(6)
O5 O 0.9631(5) 0.6969(3) 0.08714(12)
H23 H 0.923(6) 0.774(4) 0.0935(11)
H24 H 1.048(3) 0.711(4) 0.0796(8)
loop_
_geom_bond_atom_site_label_1
_geom_bond_atom_site_label_2
_geom_bond_site_symmetry_1
_geom_bond_site_symmetry_2
O1 C1 1_555 1_555
O2 C5 1_555 1_555
O3 C12 1_555 1_555
O4 C8 1_555 1_555
O5 H23 1_555 1_555
C1 H1 1_555 1_555
C2 C1 1_555 1_555
H2 C2 1_555 1_555
H3 C2 1_555 1_555
C3 C2 1_555 1_555
H4 C3 1_555 1_555
H5 C3 1_555 1_555
C4 C3 1_555 1_555
H6 C4 1_555 1_555
C5 C4 1_555 1_555
C6 C5 1_555 1_555
H7 C6 1_555 1_555
H8 C6 1_555 1_555
C7 C6 1_555 1_555
H9 C7 1_555 1_555
C8 C7 1_555 1_555
H10 C8 1_555 1_555
C9 C8 1_555 1_555
H11 C9 1_555 1_555
H12 C9 1_555 1_555
C10 C1 1_555 1_555
C11 C7 1_555 1_555
C12 O4 1_555 1_555
C13 C11 1_555 1_555
H13 C13 1_555 1_555
H14 C13 1_555 1_555
C14 C10 1_555 1_555
H15 C14 1_555 1_555
H16 C14 1_555 1_555
H17 C14 1_555 1_555
C15 C4 1_555 1_555
H18 C15 1_555 1_555
H19 C15 1_555 1_555
H20 C15 1_555 1_555
H21 O2 1_555 1_555
H22 O1 1_555 1_555
H24 O5 1_555 1_555
C5 C10 1_555 1_555
C9 C10 1_555 1_555
C11 C12 1_555 1_555

#END
