
#######################################################################
#
#                 Cambridge Crystallographic Data Centre
#                                CCDC 
#
#######################################################################
#
# If this CIF has been generated from an entry in the Cambridge 
# Structural Database, then it will include bibliographic, chemical, 
# crystal, experimental, refinement or atomic coordinate data resulting 
# from the CCDC's data processing and validation procedures.
#
#######################################################################

data_WAMHAT
_chemical_formula_moiety         'C18 H13 Cl9 O1'
_chemical_name_systematic        
endo,endo,exo-1,5,6,7,8,12,13,15,15-Nonachloro-14-ethoxypentacyclo(10.2.1.1^3,10^.0^2,11^.0^4,9^)hexadeca-5,7,13-triene
_symmetry_cell_setting           monoclinic
_symmetry_space_group_name_H-M   'P 21/c'
_symmetry_Int_Tables_number      14
_space_group_name_Hall           '-P 2ybc'
loop_
_symmetry_equiv_pos_site_id
_symmetry_equiv_pos_as_xyz
1 x,y,z
2 -x,1/2+y,1/2-z
3 -x,-y,-z
4 x,1/2-y,1/2+z
_cell_length_a                   13.669(4)
_cell_length_b                   9.348(3)
_cell_length_c                   17.089(5)
_cell_angle_alpha                90
_cell_angle_beta                 91.790
_cell_angle_gamma                90
_cell_volume                     2182.53
_exptl_crystal_colour            colorless
_chemical_melting_point          184-185deg.C
_cell_formula_units_Z            4
loop_
_atom_site_label
_atom_site_type_symbol
_atom_site_fract_x
_atom_site_fract_y
_atom_site_fract_z
Cl1 Cl 0.8645(1) 0.2724(2) 0.2962(1)
Cl2 Cl 0.5673(1) -0.1002(3) 0.2473(1)
Cl3 Cl 0.4635(1) -0.2896(2) 0.1203(1)
Cl4 Cl 0.5071(1) -0.2507(2) -0.0545(1)
Cl5 Cl 0.6779(1) -0.0503(2) -0.1051(1)
Cl6 Cl 0.9689(1) 0.2600(2) -0.0144(1)
Cl7 Cl 0.6796(1) 0.3843(2) 0.1870(1)
Cl8 Cl 1.0626(1) 0.2012(2) 0.1764(1)
Cl9 Cl 0.9676(1) 0.4685(2) 0.1497(1)
O1 O 0.7602(3) 0.3510(3) 0.0055(2)
C1 C 0.8600(3) 0.2297(5) 0.1958(3)
C2 C 0.8631(3) 0.0670(5) 0.1776(3)
C3 C 0.7772(3) -0.0405(5) 0.1792(3)
C4 C 0.6818(3) 0.0108(6) 0.1354(3)
C5 C 0.5995(4) -0.0912(7) 0.1507(3)
C6 C 0.5534(4) -0.1711(6) 0.0957(3)
C7 C 0.5784(4) -0.1581(6) 0.0135(3)
C8 C 0.6504(3) -0.0735(6) -0.0083(3)
C9 C 0.7135(3) 0.0144(5) 0.0481(3)
C10 C 0.8195(3) -0.0436(5) 0.0524(3)
C11 C 0.8936(3) 0.0634(5) 0.0908(3)
C12 C 0.9021(3) 0.2232(5) 0.0701(3)
C13 C 0.8060(3) 0.3022(5) 0.0735(3)
C14 C 0.7798(3) 0.3069(5) 0.1476(3)
C15 C 0.9489(3) 0.2811(5) 0.1482(3)
C16 C 0.8148(4) -0.1499(5) 0.1202(3)
C17 C 0.7322(6) 0.4925(7) 0.0011(4)
C18 C 0.7484(6) 0.5494(8) -0.0763(5)
H1 H 0.9021 0.0336 0.2216
H2 H 0.7625 -0.0648 0.2321
H3 H 0.6572 0.1019 0.1517
H4 H 0.7070 0.1095 0.0274
H5 H 0.8382 -0.0722 0.0010
H6 H 0.9546 0.0263 0.0732
H7 H 0.7694 -0.2264 0.1100
H8 H 0.8775 -0.1889 0.1354
H9 H 0.6643 0.5020 0.0130
H10 H 0.7712 0.5481 0.0375
H11 H 0.7295 0.6482 -0.0800
H12 H 0.7094 0.4940 -0.1128
H13 H 0.8163 0.5401 -0.0883
loop_
_geom_bond_atom_site_label_1
_geom_bond_atom_site_label_2
_geom_bond_site_symmetry_1
_geom_bond_site_symmetry_2
Cl1 C1 1_555 1_555
Cl2 C5 1_555 1_555
Cl3 C6 1_555 1_555
Cl4 C7 1_555 1_555
Cl5 C8 1_555 1_555
Cl6 C12 1_555 1_555
Cl7 C14 1_555 1_555
Cl8 C15 1_555 1_555
Cl9 C15 1_555 1_555
O1 C13 1_555 1_555
C1 C2 1_555 1_555
C2 C3 1_555 1_555
C3 C4 1_555 1_555
C4 C5 1_555 1_555
C5 C6 1_555 1_555
C6 C7 1_555 1_555
C7 C8 1_555 1_555
C8 C9 1_555 1_555
C9 C4 1_555 1_555
C10 C9 1_555 1_555
C11 C2 1_555 1_555
C12 C11 1_555 1_555
C13 C12 1_555 1_555
C14 C1 1_555 1_555
C15 C1 1_555 1_555
C16 C3 1_555 1_555
C17 O1 1_555 1_555
C18 C17 1_555 1_555
H1 C2 1_555 1_555
H2 C3 1_555 1_555
H3 C4 1_555 1_555
H4 C9 1_555 1_555
H5 C10 1_555 1_555
H6 C11 1_555 1_555
H7 C16 1_555 1_555
H8 C16 1_555 1_555
H9 C17 1_555 1_555
H10 C17 1_555 1_555
H11 C18 1_555 1_555
H12 C18 1_555 1_555
H13 C18 1_555 1_555
C10 C11 1_555 1_555
C10 C16 1_555 1_555
C12 C15 1_555 1_555
C13 C14 1_555 1_555

#END
