
#######################################################################
#
#                 Cambridge Crystallographic Data Centre
#                                CCDC 
#
#######################################################################
#
# If this CIF has been generated from an entry in the Cambridge 
# Structural Database, then it will include bibliographic, chemical, 
# crystal, experimental, refinement or atomic coordinate data resulting 
# from the CCDC's data processing and validation procedures.
#
#######################################################################

data_WAMHEX
_chemical_formula_moiety         'C16 H14 Cl4'
_chemical_name_systematic        
endo,endo-5,6,7,8-Tetrachloropentacyclo(10.2.1.1^3,10^.0^2,11^.0^4,9^)hexadeca-4(9),5,7-triene
_symmetry_cell_setting           monoclinic
_symmetry_space_group_name_H-M   'P 21/c'
_symmetry_Int_Tables_number      14
_space_group_name_Hall           '-P 2ybc'
loop_
_symmetry_equiv_pos_site_id
_symmetry_equiv_pos_as_xyz
1 x,y,z
2 -x,1/2+y,1/2-z
3 -x,-y,-z
4 x,1/2-y,1/2+z
_cell_length_a                   14.731(6)
_cell_length_b                   12.492(5)
_cell_length_c                   16.436(6)
_cell_angle_alpha                90
_cell_angle_beta                 100.280
_cell_angle_gamma                90
_cell_volume                     2976
_exptl_crystal_colour            colorless
_chemical_melting_point          139-140deg.C
_cell_formula_units_Z            8
loop_
_atom_site_label
_atom_site_type_symbol
_atom_site_fract_x
_atom_site_fract_y
_atom_site_fract_z
Cl1 Cl -0.0432(1) 0.1988(2) 0.9032(1)
Cl2 Cl 0.1256(1) 0.0521(2) 0.9746(1)
Cl3 Cl 0.2452(1) -0.0483(2) 0.8556(1)
Cl4 Cl 0.1941(1) -0.0051(2) 0.6646(1)
C1 C -0.1960(4) 0.0804(6) 0.6607(3)
C2 C -0.1358(3) 0.1732(6) 0.6410(3)
C3 C -0.0647(4) 0.2375(6) 0.7040(3)
C4 C 0.0062(3) 0.1669(6) 0.7554(3)
C5 C 0.0253(3) 0.1446(5) 0.8392(3)
C6 C 0.0991(3) 0.0782(6) 0.8703(3)
C7 C 0.1522(3) 0.0319(5) 0.8171(3)
C8 C 0.1311(3) 0.0541(5) 0.7320(3)
C9 C 0.0598(3) 0.1221(5) 0.7027(3)
C10 C 0.0234(4) 0.1656(6) 0.6175(3)
C11 C -0.0751(4) 0.1225(6) 0.5833(3)
C12 C -0.1063(4) 0.0054(7) 0.5779(3)
C13 C -0.0823(4) -0.0594(6) 0.6586(4)
C14 C -0.1442(4) -0.0071(6) 0.7154(3)
C15 C -0.2109(4) 0.0217(6) 0.5766(3)
C16 C -0.0031(4) 0.2787(6) 0.6426(3)
H1 H -0.2158 0.1073 0.6853
H2 H -0.1823 0.2267 0.6246
H3 H -0.0949 0.2832 0.7378
H4 H 0.0652 0.1532 0.5799
H5 H -0.0790 0.1391 0.5258
H6 H -0.0817 -0.0299 0.5348
H7 H -0.0972 -0.1337 0.6493
H8 H -0.0181 -0.0524 0.6822
H9 H -0.1073 0.0230 0.7640
H10 H -0.1863 -0.0585 0.7312
H11 H -0.2442 -0.0443 0.5768
H12 H -0.2402 0.0655 0.5315
H13 H 0.0489 0.3198 0.6690
H14 H -0.0370 0.3188 0.5974
Cl5 Cl 0.3056(1) 0.2490(2) 0.8328(1)
Cl6 Cl 0.2620(1) 0.2868(2) 0.6411(1)
Cl7 Cl 0.3894(1) 0.1873(2) 0.5291(1)
Cl8 Cl 0.5516(1) 0.0356(2) 0.6058(1)
C17 C 0.6118(4) 0.2375(6) 0.9290(3)
C18 C 0.5768(4) 0.1221(6) 0.9242(3)
C19 C 0.4764(3) 0.0799(6) 0.8888(3)
C20 C 0.4429(3) 0.1230(5) 0.8018(3)
C21 C 0.3723(3) 0.1882(6) 0.7694(3)
C22 C 0.3542(3) 0.2081(6) 0.6842(3)
C23 C 0.4104(3) 0.1616(6) 0.6340(3)
C24 C 0.4820(3) 0.0940(5) 0.6673(3)
C25 C 0.4982(3) 0.0739(6) 0.7509(3)
C26 C 0.5656(4) 0.0015(6) 0.8053(3)
C27 C 0.6374(3) 0.0664(6) 0.8681(3)
C28 C 0.7000(3) 0.1571(6) 0.8475(3)
C29 C 0.6495(4) 0.2442(6) 0.7918(3)
C30 C 0.5900(4) 0.2979(6) 0.8469(4)
C31 C 0.7155(4) 0.2165(6) 0.9312(3)
C32 C 0.5018(4) -0.0347(6) 0.8652(3)
H15 H 0.5887 0.2758 0.9717
H16 H 0.5786 0.1085 0.9818
H17 H 0.4338 0.0940 0.9253
H18 H 0.5953 -0.0475 0.7735
H19 H 0.6824 0.0118 0.8860
H20 H 0.7497 0.1288 0.8233
H21 H 0.6120 0.2137 0.7437
H22 H 0.6922 0.2942 0.7753
H23 H 0.6058 0.3722 0.8546
H24 H 0.5258 0.2914 0.8233
H25 H 0.7509 0.2810 0.9309
H26 H 0.7430 0.1723 0.9766
H27 H 0.4495 -0.0750 0.8383
H28 H 0.5338 -0.0747 0.9113
loop_
_geom_bond_atom_site_label_1
_geom_bond_atom_site_label_2
_geom_bond_site_symmetry_1
_geom_bond_site_symmetry_2
Cl1 C5 1_555 1_555
Cl2 C6 1_555 1_555
Cl3 C7 1_555 1_555
Cl4 C8 1_555 1_555
C1 C2 1_555 1_555
C2 C3 1_555 1_555
C3 C4 1_555 1_555
C4 C5 1_555 1_555
C5 C6 1_555 1_555
C6 C7 1_555 1_555
C7 C8 1_555 1_555
C8 C9 1_555 1_555
C9 C4 1_555 1_555
C10 C9 1_555 1_555
C11 C2 1_555 1_555
C12 C11 1_555 1_555
C13 C12 1_555 1_555
C14 C1 1_555 1_555
C15 C1 1_555 1_555
C16 C3 1_555 1_555
Cl5 C21 1_555 1_555
Cl6 C22 1_555 1_555
Cl7 C23 1_555 1_555
Cl8 C24 1_555 1_555
C17 C18 1_555 1_555
C18 C19 1_555 1_555
C19 C20 1_555 1_555
C20 C21 1_555 1_555
C21 C22 1_555 1_555
C22 C23 1_555 1_555
C23 C24 1_555 1_555
C24 C25 1_555 1_555
C25 C20 1_555 1_555
C26 C25 1_555 1_555
C27 C18 1_555 1_555
C28 C27 1_555 1_555
C29 C28 1_555 1_555
C30 C17 1_555 1_555
C31 C17 1_555 1_555
C32 C19 1_555 1_555
H1 C1 1_555 1_555
H2 C2 1_555 1_555
H3 C3 1_555 1_555
H4 C10 1_555 1_555
H5 C11 1_555 1_555
H6 C12 1_555 1_555
H7 C13 1_555 1_555
H8 C13 1_555 1_555
H9 C14 1_555 1_555
H10 C14 1_555 1_555
H11 C15 1_555 1_555
H12 C15 1_555 1_555
H13 C16 1_555 1_555
H14 C16 1_555 1_555
H15 C17 1_555 1_555
H16 C18 1_555 1_555
H17 C19 1_555 1_555
H18 C26 1_555 1_555
H19 C27 1_555 1_555
H20 C28 1_555 1_555
H21 C29 1_555 1_555
H22 C29 1_555 1_555
H23 C30 1_555 1_555
H24 C30 1_555 1_555
H25 C31 1_555 1_555
H26 C31 1_555 1_555
H27 C32 1_555 1_555
H28 C32 1_555 1_555
C10 C11 1_555 1_555
C10 C16 1_555 1_555
C12 C15 1_555 1_555
C13 C14 1_555 1_555
C26 C27 1_555 1_555
C26 C32 1_555 1_555
C28 C31 1_555 1_555
C29 C30 1_555 1_555

#END
