
#######################################################################
#
#                 Cambridge Crystallographic Data Centre
#                                CCDC 
#
#######################################################################
#
# If this CIF has been generated from an entry in the Cambridge 
# Structural Database, then it will include bibliographic, chemical, 
# crystal, experimental, refinement or atomic coordinate data resulting 
# from the CCDC's data processing and validation procedures.
#
#######################################################################

data_WAMJID
_chemical_formula_moiety         'C26 H19 Cl7 N2'
_chemical_name_systematic        
endo,endo,exo-5,6-Diaza-1,11,12,13,14,14-hexachloro-5-p-tolyl-7-(p-chlorophenyl)pentacyclo(9.2.1.1^3,9^.0^2,10^.0^4,8^)pentadeca-6,12-diene
_symmetry_cell_setting           orthorhombic
_symmetry_space_group_name_H-M   'P b c a'
_symmetry_Int_Tables_number      61
_space_group_name_Hall           '-P 2ac 2ab'
loop_
_symmetry_equiv_pos_site_id
_symmetry_equiv_pos_as_xyz
1 x,y,z
2 1/2-x,1/2+y,z
3 x,1/2-y,1/2+z
4 1/2-x,-y,1/2+z
5 -x,-y,-z
6 1/2+x,1/2-y,-z
7 -x,1/2+y,1/2-z
8 1/2+x,y,1/2-z
_cell_length_a                   14.164(4)
_cell_length_b                   17.763
_cell_length_c                   21.287
_cell_angle_alpha                90
_cell_angle_beta                 90
_cell_angle_gamma                90
_cell_volume                     5355.71
_exptl_crystal_colour            'pale yellow'
_chemical_melting_point          228-229.5deg.C
_cell_formula_units_Z            8
loop_
_atom_site_label
_atom_site_type_symbol
_atom_site_fract_x
_atom_site_fract_y
_atom_site_fract_z
Cl1 Cl 0.2222(1) 0.5529(1) 0.2304(1)
Cl2 Cl 0.3662(1) 0.5085(1) 0.4697(1)
Cl3 Cl 0.5302(1) 0.5802(1) 0.3812(1)
Cl4 Cl 0.4452(1) 0.6061(1) 0.2337(1)
Cl5 Cl 0.8499(2) 0.2187(1) 0.4886(1)
Cl6 Cl 0.2551(1) 0.6381(1) 0.3733(1)
Cl7 Cl 0.1575(1) 0.4991(1) 0.3824(1)
N1 N 0.5194(3) 0.3544(2) 0.2063(2)
N2 N 0.5887(3) 0.3199(2) 0.2391(2)
C1 C 0.2964(3) 0.5209(2) 0.2902(2)
C2 C 0.3019(3) 0.4334(2) 0.2958(2)
C3 C 0.3606(3) 0.3809(2) 0.2539(2)
C4 C 0.4633(3) 0.4070(2) 0.2455(2)
C5 C 0.5824(3) 0.3392(2) 0.2985(2)
C6 C 0.5071(3) 0.3963(2) 0.3115(2)
C7 C 0.4238(3) 0.3640(2) 0.3501(2)
C8 C 0.3436(3) 0.4212(2) 0.3618(2)
C9 C 0.3546(3) 0.5028(2) 0.3877(2)
C10 C 0.4276(3) 0.5469(2) 0.3505(2)
C11 C 0.3934(3) 0.5573(2) 0.2932(2)
C12 C 0.2642(3) 0.5404(2) 0.3587(2)
C13 C 0.3742(3) 0.3160(3) 0.3003(2)
C14 C 0.5198(3) 0.3547(2) 0.1396(2)
C15 C 0.4621(3) 0.4026(3) 0.1057(2)
C16 C 0.4668(3) 0.4050(3) 0.0407(2)
C17 C 0.5286(4) 0.3592(3) 0.0083(2)
C18 C 0.5850(4) 0.3104(3) 0.0425(3)
C19 C 0.5805(4) 0.3072(3) 0.1067(2)
C20 C 0.5301(3) 0.3580(2) -0.0709(1)
C21 C 0.6503(3) 0.3127(2) 0.3431(2)
C22 C 0.7085(3) 0.2520(2) 0.3289(2)
C23 C 0.7715(3) 0.2248(3) 0.3728(2)
C24 C 0.7785(3) 0.2568(3) 0.4321(2)
C25 C 0.7234(3) 0.3188(3) 0.4458(2)
C26 C 0.6593(3) 0.3462(3) 0.4013(2)
H1 H 0.2391 0.4192 0.2837
H2 H 0.3317 0.3742 0.2135
H3 H 0.4639 0.4565 0.2274
H4 H 0.5332 0.4390 0.3331
H5 H 0.4475 0.3434 0.3887
H6 H 0.3112 0.3976 0.3962
H7 H 0.3156 0.2950 0.3147
H8 H 0.4135 0.2765 0.2840
H9 H 0.4183 0.4345 0.1275
H10 H 0.4267 0.4390 0.0180
H11 H 0.6283 0.2781 0.0206
H12 H 0.6195 0.2721 0.1291
H13 H 0.7048 0.2288 0.2883
H14 H 0.8112 0.1830 0.3621
H15 H 0.7291 0.3432 0.4858
H16 H 0.6208 0.3890 0.4115
loop_
_geom_bond_atom_site_label_1
_geom_bond_atom_site_label_2
_geom_bond_site_symmetry_1
_geom_bond_site_symmetry_2
Cl1 C1 1_555 1_555
Cl2 C9 1_555 1_555
Cl3 C10 1_555 1_555
Cl4 C11 1_555 1_555
Cl5 C24 1_555 1_555
Cl6 C12 1_555 1_555
Cl7 C12 1_555 1_555
N1 N2 1_555 1_555
N2 C5 1_555 1_555
C1 C2 1_555 1_555
C2 C3 1_555 1_555
C3 C4 1_555 1_555
C4 N1 1_555 1_555
C5 C6 1_555 1_555
C6 C4 1_555 1_555
C7 C6 1_555 1_555
C8 C2 1_555 1_555
C9 C8 1_555 1_555
C10 C9 1_555 1_555
C11 C1 1_555 1_555
C12 C1 1_555 1_555
C13 C3 1_555 1_555
C14 N1 1_555 1_555
C15 C14 1_555 1_555
C16 C15 1_555 1_555
C17 C16 1_555 1_555
C18 C17 1_555 1_555
C19 C14 1_555 1_555
C20 C17 1_555 1_555
C21 C5 1_555 1_555
C22 C21 1_555 1_555
C23 C22 1_555 1_555
C24 C23 1_555 1_555
C25 C24 1_555 1_555
C26 C21 1_555 1_555
H1 C2 1_555 1_555
H2 C3 1_555 1_555
H3 C4 1_555 1_555
H4 C6 1_555 1_555
H5 C7 1_555 1_555
H6 C8 1_555 1_555
H7 C13 1_555 1_555
H8 C13 1_555 1_555
H9 C15 1_555 1_555
H10 C16 1_555 1_555
H11 C18 1_555 1_555
H12 C19 1_555 1_555
H13 C22 1_555 1_555
H14 C23 1_555 1_555
H15 C25 1_555 1_555
H16 C26 1_555 1_555
C7 C8 1_555 1_555
C7 C13 1_555 1_555
C9 C12 1_555 1_555
C10 C11 1_555 1_555
C18 C19 1_555 1_555
C25 C26 1_555 1_555

#END
