
#######################################################################
#
#                 Cambridge Crystallographic Data Centre
#                                CCDC 
#
#######################################################################
#
# If this CIF has been generated from an entry in the Cambridge 
# Structural Database, then it will include bibliographic, chemical, 
# crystal, experimental, refinement or atomic coordinate data resulting 
# from the CCDC's data processing and validation procedures.
#
#######################################################################

data_WAMJAV
_chemical_formula_moiety         'C17 H16 Cl4'
_chemical_name_systematic        
2,11-endo-5,6,7,8-Tetrachloropentacyclo(10.2.2.1^3,10^.0^2,11^.0^4,9^)heptadeca-4(9),5,7-triene
_symmetry_cell_setting           monoclinic
_symmetry_space_group_name_H-M   'P 21/c'
_symmetry_Int_Tables_number      14
_space_group_name_Hall           '-P 2ybc'
loop_
_symmetry_equiv_pos_site_id
_symmetry_equiv_pos_as_xyz
1 x,y,z
2 -x,1/2+y,1/2-z
3 -x,-y,-z
4 x,1/2-y,1/2+z
_cell_length_a                   10.2991(6)
_cell_length_b                   8.0275(5)
_cell_length_c                   18.5714(11)
_cell_angle_alpha                90
_cell_angle_beta                 97.569(3)
_cell_angle_gamma                90
_cell_volume                     1522.03
_exptl_crystal_colour            colorless
_chemical_melting_point          190-191deg.C
_cell_formula_units_Z            4
loop_
_atom_site_label
_atom_site_type_symbol
_atom_site_fract_x
_atom_site_fract_y
_atom_site_fract_z
Cl1 Cl 0.1888(1) 0.1528(1) 0.9101(1)
Cl2 Cl 0.4672(1) 0.2985(1) 0.8968(1)
Cl3 Cl 0.6793(1) 0.3142(1) 1.0345(1)
Cl4 Cl 0.6065(1) 0.2006(1) 1.1866(1)
C1 C 0.0416(2) 0.3257(2) 1.0987(1)
C2 C 0.0888(2) 0.1510(2) 1.1242(1)
C3 C 0.1563(2) 0.0293(2) 1.0748(1)
C4 C 0.2776(1) 0.1073(2) 1.0517(1)
C5 C 0.3068(1) 0.1619(2) 0.9850(1)
C6 C 0.4313(1) 0.2280(2) 0.9795(1)
C7 C 0.5254(1) 0.2370(2) 1.0413(1)
C8 C 0.4943(1) 0.1831(2) 1.1092(1)
C9 C 0.3707(1) 0.1193(2) 1.1139(1)
C10 C 0.3068(2) 0.0503(2) 1.1766(1)
C11 C 0.1919(1) 0.1649(2) 1.1943(1)
C12 C 0.2120(1) 0.3491(2) 1.2154(1)
C13 C 0.2551(2) 0.4570(2) 1.1546(1)
C14 C 0.1526(2) 0.4459(2) 1.0853(1)
C15 C -0.0249(2) 0.4004(2) 1.1612(1)
C16 C 0.0774(2) 0.4142(2) 1.2308(1)
C17 C 0.2234(2) -0.0897(2) 1.1347(1)
H1 H -0.0303(3) 0.3153(4) 1.0495(2)
H2 H 0.0016(3) 0.0840(4) 1.1370(2)
H3 H 0.0897(3) -0.0273(4) 1.0308(2)
H4 H 0.3746(3) 0.0130(4) 1.2240(2)
H5 H 0.1531(3) 0.1034(4) 1.2402(2)
H6 H 0.2841(3) 0.3599(4) 1.2649(2)
H7 H 0.3529(3) 0.4227(5) 1.1427(2)
H8 H 0.2643(3) 0.5860(4) 1.1741(2)
H9 H 0.1088(3) 0.5691(4) 1.0722(2)
H10 H 0.1984(3) 0.4088(4) 1.0380(2)
H11 H -0.0657(3) 0.5233(5) 1.1449(2)
H12 H -0.1080(3) 0.3214(5) 1.1712(2)
H13 H 0.0440(3) 0.3420(5) 1.2757(2)
H14 H 0.0873(3) 0.5445(5) 1.2496(2)
H15 H 0.2826(3) -0.1857(4) 1.1126(2)
H16 H 0.1530(3) -0.1470(4) 1.1669(2)
loop_
_geom_bond_atom_site_label_1
_geom_bond_atom_site_label_2
_geom_bond_site_symmetry_1
_geom_bond_site_symmetry_2
Cl1 C5 1_555 1_555
Cl2 C6 1_555 1_555
Cl3 C7 1_555 1_555
Cl4 C8 1_555 1_555
C1 C2 1_555 1_555
C2 C3 1_555 1_555
C3 C4 1_555 1_555
C4 C5 1_555 1_555
C5 C6 1_555 1_555
C6 C7 1_555 1_555
C7 C8 1_555 1_555
C8 C9 1_555 1_555
C9 C4 1_555 1_555
C10 C9 1_555 1_555
C11 C2 1_555 1_555
C12 C11 1_555 1_555
C13 C12 1_555 1_555
C14 C1 1_555 1_555
C15 C1 1_555 1_555
C16 C12 1_555 1_555
C17 C3 1_555 1_555
H1 C1 1_555 1_555
H2 C2 1_555 1_555
H3 C3 1_555 1_555
H4 C10 1_555 1_555
H5 C11 1_555 1_555
H6 C12 1_555 1_555
H7 C13 1_555 1_555
H8 C13 1_555 1_555
H9 C14 1_555 1_555
H10 C14 1_555 1_555
H11 C15 1_555 1_555
H12 C15 1_555 1_555
H13 C16 1_555 1_555
H14 C16 1_555 1_555
H15 C17 1_555 1_555
H16 C17 1_555 1_555
C10 C11 1_555 1_555
C10 C17 1_555 1_555
C13 C14 1_555 1_555
C15 C16 1_555 1_555

#END
