
#######################################################################
#
#                 Cambridge Crystallographic Data Centre
#                                CCDC 
#
#######################################################################
#
# If this CIF has been generated from an entry in the Cambridge 
# Structural Database, then it will include bibliographic, chemical, 
# crystal, experimental, refinement or atomic coordinate data resulting 
# from the CCDC's data processing and validation procedures.
#
#######################################################################

data_WAMJUP
_chemical_formula_moiety         'C26 H20 Cl6 N2'
_chemical_name_systematic        
endo,endo,exo-5,6-Diaza-1,11,12,13,14,14-hexachloro-5,7-diphenylpentacyclo(6.5.2.1^1,11^.0^2,10^.0^4,8^)hexadeca-6,12-diene
_symmetry_cell_setting           monoclinic
_symmetry_space_group_name_H-M   'P 21/n'
_symmetry_Int_Tables_number      14
_space_group_name_Hall           '-P 2yn'
loop_
_symmetry_equiv_pos_site_id
_symmetry_equiv_pos_as_xyz
1 x,y,z
2 1/2-x,1/2+y,1/2-z
3 -x,-y,-z
4 1/2+x,1/2-y,1/2+z
_cell_length_a                   10.408(3)
_cell_length_b                   19.990(4)
_cell_length_c                   12.443(3)
_cell_angle_alpha                90
_cell_angle_beta                 100.81(2)
_cell_angle_gamma                90
_cell_volume                     2542.9
_exptl_crystal_colour            'pale yellow'
_chemical_melting_point          332-333deg.C(dec.)
_cell_formula_units_Z            4
loop_
_atom_site_label
_atom_site_type_symbol
_atom_site_fract_x
_atom_site_fract_y
_atom_site_fract_z
Cl1 Cl 0.6571(2) 0.3059(1) 0.5531(2)
Cl2 Cl 0.6036(2) 0.0457(1) 0.3981(2)
Cl3 Cl 0.5107(2) 0.1498(1) 0.1954(1)
Cl4 Cl 0.5424(2) 0.3086(1) 0.2916(1)
Cl5 Cl 0.7164(2) 0.1393(1) 0.6362(1)
Cl6 Cl 0.8166(2) 0.1788(1) 0.4487(1)
C1 C 0.5829(6) 0.2330(3) 0.4890(5)
C2 C 0.4653(6) 0.2075(3) 0.5355(5)
C3 C 0.3298(6) 0.2416(4) 0.5097(5)
C4 C 0.2662(6) 0.2370(3) 0.3878(5)
C5 C 0.1263(5) 0.2599(3) 0.3659(4)
N2 N 0.0441(5) 0.2126(3) 0.3213(4)
N3 N 0.1080(5) 0.1555(3) 0.3148(4)
C7 C 0.2533(5) 0.1625(3) 0.3516(5)
C8 C 0.3091(6) 0.1171(3) 0.4492(5)
C9 C 0.4511(6) 0.1333(3) 0.4959(5)
C10 C 0.5617(6) 0.1279(3) 0.4272(5)
C11 C 0.5389(5) 0.1752(3) 0.3285(4)
C12 C 0.5535(5) 0.2361(3) 0.3658(5)
C13 C 0.6718(5) 0.1705(3) 0.5001(5)
C14 C 0.2454(8) 0.2034(4) 0.5761(6)
C15 C 0.2340(8) 0.1301(4) 0.5412(6)
C16 C 0.0814(6) 0.3271(3) 0.3723(5)
C17 C 0.1677(7) 0.3803(3) 0.3916(5)
C18 C 0.1218(9) 0.4454(4) 0.3915(6)
C19 C -0.0072(9) 0.4579(4) 0.3740(6)
C20 C -0.0935(9) 0.4060(4) 0.3570(7)
C21 C -0.0516(7) 0.3408(4) 0.3576(6)
C22 C 0.0449(6) 0.1021(3) 0.2528(5)
C23 C -0.0891(7) 0.1027(4) 0.2160(6)
C24 C -0.1502(8) 0.0497(4) 0.1563(6)
C25 C -0.0813(8) -0.0052(4) 0.1326(6)
C26 C 0.0491(8) -0.0067(4) 0.1691(6)
C27 C 0.1128(7) 0.0456(4) 0.2291(6)
H1 H 0.4895(45) 0.2089(24) 0.6184(42)
H2 H 0.3461(44) 0.2830(24) 0.5288(35)
H3 H 0.3098(45) 0.2584(24) 0.3442(38)
H4 H 0.3018(43) 0.1549(22) 0.2809(37)
H5 H 0.2934(53) 0.0687(29) 0.4352(44)
H6 H 0.4842(49) 0.1042(26) 0.5586(42)
H7 H 0.1681(52) 0.2234(25) 0.5745(38)
H8 H 0.2837(59) 0.2085(30) 0.6554(54)
H9 H 0.2680(47) 0.0992(26) 0.6041(41)
H10 H 0.1408(57) 0.1215(27) 0.5219(41)
H11 H 0.2578(44) 0.3718(20) 0.4001(31)
H12 H 0.1863(49) 0.4802(26) 0.4057(39)
H13 H -0.0410(61) 0.4985(35) 0.3810(51)
H14 H -0.1805(64) 0.4105(35) 0.3418(53)
H15 H -0.1065(54) 0.3048(28) 0.3382(43)
H16 H -0.1393(60) 0.1402(32) 0.2297(49)
H17 H -0.2407(56) 0.0525(26) 0.1382(39)
H18 H -0.1218(57) -0.0433(32) 0.0771(49)
H19 H 0.1020(57) -0.0430(31) 0.1452(47)
H20 H 0.1973(44) 0.0465(22) 0.2597(33)
N1? N 0.1263(5) 0.2599(3) 0.3659(4)
C6? C 0.1080(5) 0.1555(3) 0.3148(4)
loop_
_geom_bond_atom_site_label_1
_geom_bond_atom_site_label_2
_geom_bond_site_symmetry_1
_geom_bond_site_symmetry_2
Cl1 C1 1_555 1_555
Cl2 C10 1_555 1_555
Cl3 C11 1_555 1_555
Cl4 C12 1_555 1_555
Cl5 C13 1_555 1_555
Cl6 C13 1_555 1_555
C1 C2 1_555 1_555
C2 C3 1_555 1_555
C3 C4 1_555 1_555
C4 C5 1_555 1_555
C5 N2 1_555 1_555
N2 N3 1_555 1_555
N3 C7 1_555 1_555
C7 C4 1_555 1_555
C8 C7 1_555 1_555
C9 C2 1_555 1_555
C10 C9 1_555 1_555
C11 C10 1_555 1_555
C12 C1 1_555 1_555
C13 C1 1_555 1_555
C14 C3 1_555 1_555
C15 C8 1_555 1_555
C16 C5 1_555 1_555
C17 C16 1_555 1_555
C18 C17 1_555 1_555
C19 C18 1_555 1_555
C20 C19 1_555 1_555
C21 C16 1_555 1_555
C22 N3 1_555 1_555
C23 C22 1_555 1_555
C24 C23 1_555 1_555
C25 C24 1_555 1_555
C26 C25 1_555 1_555
C27 C22 1_555 1_555
H1 C2 1_555 1_555
H2 C3 1_555 1_555
H3 C4 1_555 1_555
H4 C7 1_555 1_555
H5 C8 1_555 1_555
H6 C9 1_555 1_555
H7 C14 1_555 1_555
H8 C14 1_555 1_555
H9 C15 1_555 1_555
H10 C15 1_555 1_555
H11 C17 1_555 1_555
H12 C18 1_555 1_555
H13 C19 1_555 1_555
H14 C20 1_555 1_555
H15 C21 1_555 1_555
H16 C23 1_555 1_555
H17 C24 1_555 1_555
H18 C25 1_555 1_555
H19 C26 1_555 1_555
H20 C27 1_555 1_555
C8 C9 1_555 1_555
C10 C13 1_555 1_555
C11 C12 1_555 1_555
C14 C15 1_555 1_555
C20 C21 1_555 1_555
C26 C27 1_555 1_555

#END
