
#######################################################################
#
#                 Cambridge Crystallographic Data Centre
#                                CCDC 
#
#######################################################################
#
# If this CIF has been generated from an entry in the Cambridge 
# Structural Database, then it will include bibliographic, chemical, 
# crystal, experimental, refinement or atomic coordinate data resulting 
# from the CCDC's data processing and validation procedures.
#
#######################################################################

data_WAMKAW
_chemical_formula_moiety         'C26 H20 Cl6 N2'
_chemical_name_systematic        
2,10-endo-5,6-Diaza-1,11,12,13,14,14-hexachloro-5,7-diphenylpentacyclo(6.5.2.1^1,11^.0^4.8^.0^2,10^)hexadeca-4(8),6-diene
_symmetry_cell_setting           orthorhombic
_symmetry_space_group_name_H-M   'A m a 2'
_symmetry_Int_Tables_number      40
_space_group_name_Hall           'A 2 -2a'
loop_
_symmetry_equiv_pos_site_id
_symmetry_equiv_pos_as_xyz
1 x,y,z
2 x,1/2+y,1/2+z
3 1/2-x,y,z
4 1/2-x,1/2+y,1/2+z
5 1/2+x,-y,z
6 1/2+x,1/2-y,1/2+z
7 -x,-y,z
8 -x,1/2-y,1/2+z
_cell_length_a                   17.889(4)
_cell_length_b                   17.713(4)
_cell_length_c                   7.715(2)
_cell_angle_alpha                90
_cell_angle_beta                 90
_cell_angle_gamma                90
_cell_volume                     2444.64
_exptl_crystal_colour            colorless
_chemical_melting_point          331-333deg.C(dec.)
_cell_formula_units_Z            4
loop_
_atom_site_label
_atom_site_type_symbol
_atom_site_fract_x
_atom_site_fract_y
_atom_site_fract_z
Cl1 Cl 0.0955(1) 0.5155(1) 0.5387
Cl2 Cl 0.1632(1) 0.5919(1) 0.1995(3)
Cl3 Cl 0.2500 0.5130(1) 0.8048(3)
Cl4 Cl 0.2500 0.6325(1) 0.5617(4)
C1 C 0.1875(2) 0.4925(2) 0.4790(7)
C2 C 0.2065(2) 0.4082(2) 0.5175(6)
C3 C 0.1752(3) 0.3434(2) 0.4031(6)
C4 C 0.2122(2) 0.3436(2) 0.2288(6)
C5 C 0.1896(2) 0.3313(2) 0.0581(6)
N1 N 0.2500 0.3232(2) -0.0466(7)
C6 C 0.2066(2) 0.5109(2) 0.2903(7)
C7 C 0.2500 0.5335(3) 0.5807(8)
C8 C 0.2070(3) 0.2710(2) 0.4904(7)
C9 C 0.1157(2) 0.3285(2) -0.0164(6)
C10 C 0.0669(2) 0.3886(2) -0.0016(7)
C11 C -0.0020(3) 0.3868(3) -0.0823(8)
C12 C -0.0230(3) 0.3252(3) -0.1784(8)
C13 C 0.0243(3) 0.2646(3) -0.1891(8)
C14 C 0.0931(2) 0.2658(2) -0.1082(7)
H1 H 0.1906 0.3983 0.6342
H2 H 0.1217 0.3433 0.3944
H3 H 0.1897(19) 0.4697(18) 0.2148(57)
H4 H 0.1891 0.2274 0.4294
H5 H 0.1891 0.2682 0.6075
H6 H 0.0810 0.4320 0.0654
H7 H -0.0356 0.4288 -0.0725
H8 H -0.0698 0.3243 -0.2393
H9 H 0.0088 0.2203 -0.2511
H10 H 0.1258 0.2230 -0.1178
C2B C 0.2935(2) 0.4082(2) 0.5175(6)
C1B C 0.3125(2) 0.4925(2) 0.4790(7)
Cl1B Cl 0.4045(1) 0.5155(1) 0.5387
C6B C 0.2934(2) 0.5109(2) 0.2903(7)
Cl2B Cl 0.3368(1) 0.5919(1) 0.1995(3)
H3B H 0.3103(19) 0.4697(18) 0.2148(57)
C3B C 0.3248(3) 0.3434(2) 0.4031(6)
C4B C 0.2878(2) 0.3436(2) 0.2288(6)
C8B C 0.2930(3) 0.2710(2) 0.4904(7)
H2B H 0.3783 0.3433 0.3944
H4B H 0.3109 0.2274 0.4294
H5B H 0.3109 0.2682 0.6075
C5B C 0.3104(2) 0.3313(2) 0.0581(6)
C9B C 0.3843(2) 0.3285(2) -0.0164(6)
C10B C 0.4331(2) 0.3886(2) -0.0016(7)
C11B C 0.5020(3) 0.3868(3) -0.0823(8)
C12B C 0.5230(3) 0.3252(3) -0.1784(8)
C13B C 0.4757(3) 0.2646(3) -0.1891(8)
C14B C 0.4069(2) 0.2658(2) -0.1082(7)
H10B H 0.3742 0.2230 -0.1178
H9B H 0.4912 0.2203 -0.2511
H8B H 0.5698 0.3243 -0.2393
H7B H 0.5356 0.4288 -0.0725
H6B H 0.4190 0.4320 0.0654
H1B H 0.3094 0.3983 0.6342
loop_
_geom_bond_atom_site_label_1
_geom_bond_atom_site_label_2
_geom_bond_site_symmetry_1
_geom_bond_site_symmetry_2
Cl1 C1 1_555 1_555
Cl2 C6 1_555 1_555
Cl3 C7 1_555 1_555
Cl4 C7 1_555 1_555
C1 C2 1_555 1_555
C2 C3 1_555 1_555
C3 C4 1_555 1_555
C4 C5 1_555 1_555
C5 N1 1_555 1_555
N1 C5B 1_555 1_555
C6 C1 1_555 1_555
C7 C1 1_555 1_555
C8 C3 1_555 1_555
C9 C5 1_555 1_555
C10 C9 1_555 1_555
C11 C10 1_555 1_555
C12 C11 1_555 1_555
C13 C12 1_555 1_555
C14 C9 1_555 1_555
H1 C2 1_555 1_555
H2 C3 1_555 1_555
H3 C6 1_555 1_555
H4 C8 1_555 1_555
H5 C8 1_555 1_555
H6 C10 1_555 1_555
H7 C11 1_555 1_555
H8 C12 1_555 1_555
H9 C13 1_555 1_555
H10 C14 1_555 1_555
C2B C2 1_555 1_555
C1B C7 1_555 1_555
Cl1B C1B 1_555 1_555
C6B C6 1_555 1_555
Cl2B C6B 1_555 1_555
H3B C6B 1_555 1_555
C3B C2B 1_555 1_555
C4B C4 1_555 1_555
C8B C8 1_555 1_555
H2B C3B 1_555 1_555
H4B C8B 1_555 1_555
H5B C8B 1_555 1_555
C5B C4B 1_555 1_555
C9B C5B 1_555 1_555
C10B C9B 1_555 1_555
C11B C10B 1_555 1_555
C12B C11B 1_555 1_555
C13B C12B 1_555 1_555
C14B C9B 1_555 1_555
H10B C14B 1_555 1_555
H9B C13B 1_555 1_555
H8B C12B 1_555 1_555
H7B C11B 1_555 1_555
H6B C10B 1_555 1_555
H1B C2B 1_555 1_555
C13 C14 1_555 1_555
C2B C1B 1_555 1_555
C1B C6B 1_555 1_555
C3B C4B 1_555 1_555
C3B C8B 1_555 1_555
C13B C14B 1_555 1_555

#END
