
#######################################################################
#
#                 Cambridge Crystallographic Data Centre
#                                CCDC 
#
#######################################################################
#
# If this CIF has been generated from an entry in the Cambridge 
# Structural Database, then it will include bibliographic, chemical, 
# crystal, experimental, refinement or atomic coordinate data resulting 
# from the CCDC's data processing and validation procedures.
#
#######################################################################

data_WAMNAA
_chemical_compound_source        
'leaves and stems of Gaultheria leucocarpa B1 var. crenulata (Kutz, T.Z.Hsu)'
_chemical_name_common            '3-Hydroxykojic acid'
_chemical_formula_moiety         'C6 H6 O5'
_chemical_name_systematic        3,5-Dihydroxy-2-hydroxymethyl-4H-pyran-4-one
_chemical_properties_biological  
'source plant used for treatment of rheumatoid arthritis, swelling pain, trauma, chronic tracheitis, cold and vertigo'
_symmetry_cell_setting           triclinic
_symmetry_space_group_name_H-M   'P -1'
_symmetry_Int_Tables_number      2
_space_group_name_Hall           '-P 1'
loop_
_symmetry_equiv_pos_site_id
_symmetry_equiv_pos_as_xyz
1 x,y,z
2 -x,-y,-z
_cell_length_a                   8.2045(9)
_cell_length_b                   8.9704(10)
_cell_length_c                   9.6826(10)
_cell_angle_alpha                93.026(2)
_cell_angle_beta                 109.337(2)
_cell_angle_gamma                109.787(2)
_cell_volume                     621.709
_exptl_crystal_colour            colorless
_exptl_crystal_description       block
_chemical_melting_point          '460 K'
_cell_formula_units_Z            4
loop_
_atom_site_label
_atom_site_type_symbol
_atom_site_fract_x
_atom_site_fract_y
_atom_site_fract_z
O1 O 1.0093(2) 0.58572(19) 0.80116(18)
O2 O 1.4542(2) 0.5796(2) 0.83150(19)
H1 H 1.4774 0.5107 0.7914
O3 O 1.2114(2) 0.33178(19) 0.59512(18)
O4 O 0.8319(2) 0.25457(19) 0.49931(17)
H2 H 0.8893 0.2114 0.4676
O5 O 0.6403(2) 0.41613(19) 0.77607(18)
H3 H 0.6083 0.3199 0.7800
C1 C 1.1945(3) 0.6202(3) 0.8477(3)
H7 H 1.2744 0.7040 0.9278
C2 C 1.2670(3) 0.5386(2) 0.7830(2)
C3 C 1.1486(3) 0.4085(2) 0.6583(2)
C4 C 0.9531(3) 0.3751(2) 0.6146(2)
C5 C 0.8897(3) 0.4626(3) 0.6857(2)
C6 C 0.6914(3) 0.4430(3) 0.6508(2)
H8 H 0.6743 0.5393 0.6192
H9 H 0.6107 0.3527 0.5693
O6 O 0.8723(2) 0.15192(19) 0.90459(18)
O7 O 1.3335(2) 0.1999(2) 0.9222(2)
H4 H 1.3832 0.2659 1.0002
O8 O 1.1186(2) -0.0459(2) 0.68921(19)
O9 O 0.7316(2) -0.1598(2) 0.5973(2)
H5 H 0.7939 -0.1873 0.5579
O10 O 0.5079(3) 0.0972(3) 0.7481(5)
H6 H 0.4037 0.0655 0.7523
C7 C 1.0597(3) 0.2074(3) 0.9482(2)
H10 H 1.1312 0.2923 1.0288
C8 C 1.1469(3) 0.1460(3) 0.8812(2)
C9 C 1.0438(3) 0.0151(2) 0.7552(2)
C10 C 0.8451(3) -0.0382(2) 0.7131(2)
C11 C 0.7673(3) 0.0297(3) 0.7863(3)
C12 C 0.5636(3) -0.0203(3) 0.7497(4)
H11 H 0.4979 -0.0904 0.6527
H12 H 0.5305 -0.0825 0.8221
loop_
_geom_bond_atom_site_label_1
_geom_bond_atom_site_label_2
_geom_bond_site_symmetry_1
_geom_bond_site_symmetry_2
O1 C1 1_555 1_555
O2 H1 1_555 1_555
O3 C3 1_555 1_555
O4 H2 1_555 1_555
O5 H3 1_555 1_555
O6 C7 1_555 1_555
O7 H4 1_555 1_555
O8 C9 1_555 1_555
O9 H5 1_555 1_555
O10 H6 1_555 1_555
C1 H7 1_555 1_555
C2 O2 1_555 1_555
C3 C2 1_555 1_555
C4 O4 1_555 1_555
C5 O1 1_555 1_555
C6 O5 1_555 1_555
H8 C6 1_555 1_555
H9 C6 1_555 1_555
C7 H10 1_555 1_555
C8 O7 1_555 1_555
C9 C8 1_555 1_555
C10 O9 1_555 1_555
C11 O6 1_555 1_555
C12 O10 1_555 1_555
H11 C12 1_555 1_555
H12 C12 1_555 1_555
C1 C2 1_555 1_555
C3 C4 1_555 1_555
C4 C5 1_555 1_555
C5 C6 1_555 1_555
C7 C8 1_555 1_555
C9 C10 1_555 1_555
C10 C11 1_555 1_555
C11 C12 1_555 1_555

#END
