
#######################################################################
#
#                 Cambridge Crystallographic Data Centre
#                                CCDC 
#
#######################################################################
#
# If this CIF has been generated from an entry in the Cambridge 
# Structural Database, then it will include bibliographic, chemical, 
# crystal, experimental, refinement or atomic coordinate data resulting 
# from the CCDC's data processing and validation procedures.
#
#######################################################################

data_WAMROS
_chemical_formula_moiety         'C25 H39 N3 O6'
_chemical_name_systematic        
't-Butoxycarbonyl-phenylalanyl-\a-aminoisobutyryl-isoleucyl methyl ester'
_symmetry_cell_setting           monoclinic
_symmetry_space_group_name_H-M   'P 21'
_symmetry_Int_Tables_number      4
_space_group_name_Hall           'P 2yb'
loop_
_symmetry_equiv_pos_site_id
_symmetry_equiv_pos_as_xyz
1 x,y,z
2 -x,1/2+y,-z
_cell_length_a                   10.224(11)
_cell_length_b                   11.378(12)
_cell_length_c                   12.578(14)
_cell_angle_alpha                90
_cell_angle_beta                 105.280(10)
_cell_angle_gamma                90
_cell_volume                     1411.46
_exptl_crystal_colour            white
_exptl_crystal_description       needle
_chemical_melting_point          '104-106 deg.C'
_cell_formula_units_Z            2
_exptl_crystal_recrystallization_method methanol/water
loop_
_atom_site_label
_atom_site_type_symbol
_atom_site_fract_x
_atom_site_fract_y
_atom_site_fract_z
O1 O 0.2047(5) 0.6806(5) 0.0968(4)
C1 C 0.1230(9) 0.7670(8) 0.0170(7)
C2 C 0.0178(20) 0.7050(14) -0.0724(10)
H1 H -0.0411(88) 0.6602(98) -0.0398(13)
H2 H 0.0621(21) 0.6533(89) -0.1122(73)
H3 H -0.0344(92) 0.7621(15) -0.1221(64)
C3 C 0.0594(12) 0.8491(10) 0.0804(11)
H4 H -0.0100(52) 0.8086(21) 0.1045(53)
H5 H 0.0202(67) 0.9141(35) 0.0343(21)
H6 H 0.1271(18) 0.8775(51) 0.1433(35)
C4 C 0.2297(14) 0.8342(16) -0.0216(13)
H7 H 0.1880(25) 0.8989(67) -0.0670(85)
H8 H 0.2717(85) 0.7829(34) -0.0634(83)
H9 H 0.2971(68) 0.8634(89) 0.0412(14)
C5 C 0.1431(7) 0.6038(6) 0.1542(5)
O2 O 0.0218(5) 0.5903(5) 0.1394(4)
N1 N 0.2404(5) 0.5474(5) 0.2293(4)
H10 H 0.3237(5) 0.5514(5) 0.2272(4)
C6 C 0.2025(5) 0.4794(5) 0.3148(4)
H11 H 0.1395(5) 0.4171(5) 0.2800(4)
C7 C 0.3319(6) 0.4227(5) 0.3904(5)
H12 H 0.3979(6) 0.4839(5) 0.4186(5)
H13 H 0.3089(6) 0.3862(5) 0.4528(5)
C8 C 0.3959(7) 0.3307(6) 0.3316(5)
C9 C 0.5230(8) 0.3522(8) 0.3134(7)
H14 H 0.5673(8) 0.4224(8) 0.3379(7)
C10 C 0.5839(12) 0.2723(12) 0.2603(10)
H15 H 0.6677(12) 0.2885(12) 0.2476(10)
C11 C 0.5199(16) 0.1697(13) 0.2267(9)
H16 H 0.5613(16) 0.1149(13) 0.1913(9)
C12 C 0.3948(15) 0.1436(8) 0.2434(10)
H17 H 0.3533(15) 0.0720(8) 0.2199(10)
C13 C 0.3303(10) 0.2263(7) 0.2962(7)
H18 H 0.2454(10) 0.2106(7) 0.3070(7)
C14 C 0.1338(5) 0.5575(5) 0.3831(4)
O3 O 0.1501(4) 0.6651(4) 0.3906(4)
N2 N 0.0473(4) 0.5003(4) 0.4318(4)
H19 H 0.0272(4) 0.4282(4) 0.4143(4)
C15 C -0.0124(6) 0.5563(5) 0.5125(4)
C16 C 0.0984(8) 0.5999(7) 0.6151(5)
H20 H 0.1553(29) 0.5351(11) 0.6474(22)
H21 H 0.0558(8) 0.6320(37) 0.6681(17)
H22 H 0.1525(30) 0.6594(29) 0.5930(8)
C17 C -0.1094(8) 0.4655(6) 0.5461(7)
H23 H -0.1782(27) 0.4419(29) 0.4818(9)
H24 H -0.1511(35) 0.5011(14) 0.5981(28)
H25 H -0.0582(11) 0.3979(18) 0.5789(33)
C18 C -0.1032(5) 0.6611(5) 0.4610(5)
O4 O -0.1217(5) 0.7451(4) 0.5185(4)
N3 N -0.1671(5) 0.6556(4) 0.3536(4)
H26 H -0.1517(5) 0.5970(4) 0.3155(4)
C19 C -0.2625(6) 0.7468(5) 0.2993(5)
H27 H -0.2235(6) 0.8234(5) 0.3262(5)
C20 C -0.3958(6) 0.7333(6) 0.3314(5)
O5 O -0.4445(6) 0.6421(5) 0.3475(6)
O6 O -0.4538(4) 0.8376(4) 0.3366(4)
C21 C -0.5839(7) 0.8333(9) 0.3657(7)
H28 H -0.6546(11) 0.8112(44) 0.3021(13)
H29 H -0.6035(26) 0.9094(14) 0.3907(40)
H30 H -0.5785(18) 0.7767(33) 0.4232(30)
C22 C -0.2849(7) 0.7443(8) 0.1737(6)
H31 H -0.1947(7) 0.7382(8) 0.1609(6)
C23 C -0.3458(10) 0.8633(8) 0.1211(8)
H32 H -0.4394(10) 0.8666(8) 0.1243(8)
H33 H -0.2979(10) 0.9262(8) 0.1673(8)
C24 C -0.3627(12) 0.6389(10) 0.1194(7)
H34 H -0.3242(44) 0.5691(11) 0.1580(35)
H35 H -0.3580(59) 0.6343(35) 0.0442(18)
H36 H -0.4557(19) 0.6459(30) 0.1211(49)
C25 C -0.3435(14) 0.8879(13) 0.0116(10)
H37 H -0.2529(21) 0.8782(74) 0.0044(20)
H38 H -0.3727(84) 0.9673(26) -0.0065(25)
H39 H -0.4032(66) 0.8348(49) -0.0376(12)
loop_
_geom_bond_atom_site_label_1
_geom_bond_atom_site_label_2
_geom_bond_site_symmetry_1
_geom_bond_site_symmetry_2
O1 C1 1_555 1_555
C1 C2 1_555 1_555
C2 H1 1_555 1_555
H2 C2 1_555 1_555
H3 C2 1_555 1_555
C3 C1 1_555 1_555
H4 C3 1_555 1_555
H5 C3 1_555 1_555
H6 C3 1_555 1_555
C4 C1 1_555 1_555
H7 C4 1_555 1_555
H8 C4 1_555 1_555
H9 C4 1_555 1_555
C5 O1 1_555 1_555
O2 C5 1_555 1_555
N1 C5 1_555 1_555
H10 N1 1_555 1_555
C6 N1 1_555 1_555
H11 C6 1_555 1_555
C7 C6 1_555 1_555
H12 C7 1_555 1_555
H13 C7 1_555 1_555
C8 C7 1_555 1_555
C9 C8 1_555 1_555
H14 C9 1_555 1_555
C10 C9 1_555 1_555
H15 C10 1_555 1_555
C11 C10 1_555 1_555
H16 C11 1_555 1_555
C12 C11 1_555 1_555
H17 C12 1_555 1_555
C13 C8 1_555 1_555
H18 C13 1_555 1_555
C14 C6 1_555 1_555
O3 C14 1_555 1_555
N2 C14 1_555 1_555
H19 N2 1_555 1_555
C15 N2 1_555 1_555
C16 C15 1_555 1_555
H20 C16 1_555 1_555
H21 C16 1_555 1_555
H22 C16 1_555 1_555
C17 C15 1_555 1_555
H23 C17 1_555 1_555
H24 C17 1_555 1_555
H25 C17 1_555 1_555
C18 C15 1_555 1_555
O4 C18 1_555 1_555
N3 C18 1_555 1_555
H26 N3 1_555 1_555
C19 N3 1_555 1_555
H27 C19 1_555 1_555
C20 C19 1_555 1_555
O5 C20 1_555 1_555
O6 C20 1_555 1_555
C21 O6 1_555 1_555
H28 C21 1_555 1_555
H29 C21 1_555 1_555
H30 C21 1_555 1_555
C22 C19 1_555 1_555
H31 C22 1_555 1_555
C23 C22 1_555 1_555
H32 C23 1_555 1_555
H33 C23 1_555 1_555
C24 C22 1_555 1_555
H34 C24 1_555 1_555
H35 C24 1_555 1_555
H36 C24 1_555 1_555
C25 C23 1_555 1_555
H37 C25 1_555 1_555
H38 C25 1_555 1_555
H39 C25 1_555 1_555
C12 C13 1_555 1_555

#END
