
#######################################################################
#
#                 Cambridge Crystallographic Data Centre
#                                CCDC 
#
#######################################################################
#
# If this CIF has been generated from an entry in the Cambridge 
# Structural Database, then it will include bibliographic, chemical, 
# crystal, experimental, refinement or atomic coordinate data resulting 
# from the CCDC's data processing and validation procedures.
#
#######################################################################

data_WAMSEJ
_chemical_formula_moiety         'C22 H40 N4 O7'
_chemical_name_systematic        
't-Butoxycarbonyl-leucyl-\a-aminoisobutyryl-glycyl-\a-aminoisobutyryl methyl ester'
_symmetry_cell_setting           orthorhombic
_symmetry_space_group_name_H-M   'P 21 21 21'
_symmetry_Int_Tables_number      19
_space_group_name_Hall           'P 2ac 2ab'
loop_
_symmetry_equiv_pos_site_id
_symmetry_equiv_pos_as_xyz
1 x,y,z
2 -x,1/2+y,1/2-z
3 1/2+x,1/2-y,-z
4 1/2-x,-y,1/2+z
_cell_length_a                   10.421(17)
_cell_length_b                   13.361(21)
_cell_length_c                   20.171(30)
_cell_angle_alpha                90
_cell_angle_beta                 90
_cell_angle_gamma                90
_cell_volume                     2808.51
_exptl_crystal_colour            white
_exptl_crystal_description       needle
_chemical_melting_point          '145-147 deg.C'
_cell_formula_units_Z            4
_exptl_crystal_recrystallization_method methanol/water
loop_
_atom_site_label
_atom_site_type_symbol
_atom_site_fract_x
_atom_site_fract_y
_atom_site_fract_z
C1 C 1.1497(7) 0.2164(6) 0.0948(4)
C2 C 1.0563(9) 0.2793(8) 0.0558(4)
H1 H 0.9775(22) 0.2855(38) 0.0801(15)
H2 H 1.0398(47) 0.2480(25) 0.0138(14)
H3 H 1.0923(26) 0.3446(17) 0.0486(26)
C3 C 1.0882(9) 0.1199(6) 0.1146(5)
H4 H 1.1527(11) 0.0747(15) 0.1307(25)
H5 H 1.0461(45) 0.0909(21) 0.0769(8)
H6 H 1.0264(38) 0.1322(8) 0.1490(19)
C4 C 1.2723(9) 0.2005(9) 0.0569(4)
H7 H 1.3092(27) 0.2642(9) 0.0458(23)
H8 H 1.2545(12) 0.1639(36) 0.0170(14)
H9 H 1.3316(21) 0.1633(36) 0.0838(11)
O1 O 1.1723(5) 0.2794(3) 0.1526(2)
C5 C 1.2505(7) 0.2505(5) 0.2006(3)
O2 O 1.3057(5) 0.1692(3) 0.2040(2)
N1 N 1.2666(5) 0.3231(3) 0.2449(2)
H10 H 1.2226(5) 0.3772(3) 0.2409(2)
C6 C 1.3567(6) 0.3141(4) 0.3001(3)
H11 H 1.4435(6) 0.3022(4) 0.2831(3)
C7 C 1.3166(6) 0.2280(4) 0.3452(3)
N2 N 1.4006(4) 0.1513(3) 0.3498(3)
H12 H 1.4718(4) 0.1552(3) 0.3283(3)
O3 O 1.2129(4) 0.2270(3) 0.3722(2)
C8 C 1.3760(6) 0.0626(5) 0.3892(3)
C9 C 1.3787(10) 0.0886(7) 0.4622(5)
H13 H 1.4623(19) 0.1132(41) 0.4738(8)
H14 H 1.3597(57) 0.0300(13) 0.4878(5)
H15 H 1.3157(40) 0.1393(33) 0.4711(7)
C10 C 1.4821(7) -0.0124(5) 0.3719(6)
H16 H 1.4773(35) -0.0287(34) 0.3256(9)
H17 H 1.4711(35) -0.0721(19) 0.3978(22)
H18 H 1.5643(8) 0.0167(18) 0.3814(28)
C11 C 1.3541(7) 0.4112(4) 0.3404(4)
H19 H 1.3686(7) 0.4670(4) 0.3106(4)
H20 H 1.2690(7) 0.4192(4) 0.3592(4)
C12 C 1.4515(9) 0.4168(5) 0.3960(4)
H21 H 1.4425(9) 0.3568(5) 0.4236(4)
C13 C 1.4219(11) 0.5073(6) 0.4382(5)
H22 H 1.4780(42) 0.5084(26) 0.4759(17)
H23 H 1.3344(21) 0.5042(24) 0.4529(25)
H24 H 1.4344(58) 0.5670(6) 0.4124(11)
C14 C 1.5861(8) 0.4211(9) 0.3705(7)
H25 H 1.6060(29) 0.3598(28) 0.3479(38)
H26 H 1.6443(10) 0.4300(64) 0.4069(8)
H27 H 1.5944(23) 0.4762(40) 0.3403(32)
C15 C 1.2499(6) 0.0130(4) 0.3705(3)
O4 O 1.1930(5) -0.0384(4) 0.4102(3)
N3 N 1.2123(5) 0.0233(3) 0.3078(3)
H28 H 1.2600(5) 0.0567(3) 0.2810(3)
C16 C 1.0936(7) -0.0199(4) 0.2828(4)
H29 H 1.0830(7) -0.0853(4) 0.3030(4)
H30 H 1.1031(7) -0.0301(4) 0.2355(4)
C17 C 0.9718(7) 0.0390(5) 0.2943(4)
O5 O 0.8682(5) 0.0068(3) 0.2775(3)
N4 N 0.9852(4) 0.1286(3) 0.3245(3)
H31 H 1.0611(4) 0.1518(3) 0.3312(3)
C18 C 0.9209(7) 0.2928(5) 0.3598(4)
H32 H 0.9882(30) 0.2908(6) 0.3923(17)
H33 H 0.8513(12) 0.3329(10) 0.3761(21)
H34 H 0.9533(38) 0.3215(13) 0.3195(6)
C19 C 0.8736(6) 0.1877(5) 0.3464(4)
C20 C 0.7746(6) 0.1915(5) 0.2900(4)
O6 O 0.8240(4) 0.2181(3) 0.2329(3)
C21 C 0.7353(8) 0.2263(7) 0.1788(5)
H35 H 0.7018(36) 0.1613(8) 0.1682(17)
H36 H 0.7785(14) 0.2533(35) 0.1408(8)
H37 H 0.6660(25) 0.2699(30) 0.1912(10)
O7 O 0.6611(4) 0.1819(4) 0.2993(3)
C22 C 0.8159(8) 0.1418(8) 0.4072(5)
H38 H 0.7888(52) 0.0747(18) 0.3975(9)
H39 H 0.7432(38) 0.1807(27) 0.4210(18)
H40 H 0.8786(21) 0.1405(42) 0.4420(10)
loop_
_geom_bond_atom_site_label_1
_geom_bond_atom_site_label_2
_geom_bond_site_symmetry_1
_geom_bond_site_symmetry_2
C1 C2 1_555 1_555
C2 H1 1_555 1_555
H2 C2 1_555 1_555
H3 C2 1_555 1_555
C3 C1 1_555 1_555
H4 C3 1_555 1_555
H5 C3 1_555 1_555
H6 C3 1_555 1_555
C4 C1 1_555 1_555
H7 C4 1_555 1_555
H8 C4 1_555 1_555
H9 C4 1_555 1_555
O1 C1 1_555 1_555
C5 O1 1_555 1_555
O2 C5 1_555 1_555
N1 C5 1_555 1_555
H10 N1 1_555 1_555
C6 N1 1_555 1_555
H11 C6 1_555 1_555
C7 C6 1_555 1_555
N2 C7 1_555 1_555
H12 N2 1_555 1_555
O3 C7 1_555 1_555
C8 N2 1_555 1_555
C9 C8 1_555 1_555
H13 C9 1_555 1_555
H14 C9 1_555 1_555
H15 C9 1_555 1_555
C10 C8 1_555 1_555
H16 C10 1_555 1_555
H17 C10 1_555 1_555
H18 C10 1_555 1_555
C11 C6 1_555 1_555
H19 C11 1_555 1_555
H20 C11 1_555 1_555
C12 C11 1_555 1_555
H21 C12 1_555 1_555
C13 C12 1_555 1_555
H22 C13 1_555 1_555
H23 C13 1_555 1_555
H24 C13 1_555 1_555
C14 C12 1_555 1_555
H25 C14 1_555 1_555
H26 C14 1_555 1_555
H27 C14 1_555 1_555
C15 C8 1_555 1_555
O4 C15 1_555 1_555
N3 C15 1_555 1_555
H28 N3 1_555 1_555
C16 N3 1_555 1_555
H29 C16 1_555 1_555
H30 C16 1_555 1_555
C17 C16 1_555 1_555
O5 C17 1_555 1_555
N4 C17 1_555 1_555
H31 N4 1_555 1_555
C18 H32 1_555 1_555
H33 C18 1_555 1_555
H34 C18 1_555 1_555
C19 N4 1_555 1_555
C20 C19 1_555 1_555
O6 C20 1_555 1_555
C21 O6 1_555 1_555
H35 C21 1_555 1_555
H36 C21 1_555 1_555
H37 C21 1_555 1_555
O7 C20 1_555 1_555
C22 C19 1_555 1_555
H38 C22 1_555 1_555
H39 C22 1_555 1_555
H40 C22 1_555 1_555
C18 C19 1_555 1_555

#END
