
#######################################################################
#
#                 Cambridge Crystallographic Data Centre
#                                CCDC 
#
#######################################################################
#
# If this CIF has been generated from an entry in the Cambridge 
# Structural Database, then it will include bibliographic, chemical, 
# crystal, experimental, refinement or atomic coordinate data resulting 
# from the CCDC's data processing and validation procedures.
#
#######################################################################

data_WAMTOW
_chemical_formula_moiety         'C17 H18 N4 O5'
_chemical_name_systematic        
'ethyl 3-(2-cyanoethyl)-6-methyl-4-(3-nitrophenyl)-2-oxo-1,2,3,4-tetrahydropyrimidine-5-carboxylate'
_symmetry_cell_setting           triclinic
_symmetry_space_group_name_H-M   'P -1'
_symmetry_Int_Tables_number      2
_space_group_name_Hall           '-P 1'
loop_
_symmetry_equiv_pos_site_id
_symmetry_equiv_pos_as_xyz
1 x,y,z
2 -x,-y,-z
_cell_length_a                   9.3597(4)
_cell_length_b                   9.4936(4)
_cell_length_c                   11.3078(5)
_cell_angle_alpha                79.076(2)
_cell_angle_beta                 68.906(2)
_cell_angle_gamma                72.169(2)
_cell_volume                     888.855
_exptl_crystal_colour            colorless
_exptl_crystal_description       needle
_chemical_melting_point          '450-452 K'
_cell_formula_units_Z            2
_exptl_crystal_recrystallization_method ethanol
loop_
_atom_site_label
_atom_site_type_symbol
_atom_site_fract_x
_atom_site_fract_y
_atom_site_fract_z
O1 O 0.39706(8) 1.01840(7) 0.89422(7)
O2 O 0.64547(8) 0.37255(7) 0.77749(6)
O3 O 0.75988(9) 0.33888(8) 0.92822(7)
O4 O 0.70322(9) 0.43331(9) 0.34477(7)
O5 O 0.92914(9) 0.47379(9) 0.22681(7)
N1 N 0.59258(9) 0.81793(8) 0.92624(7)
H1 H 0.6011(16) 0.8699(15) 0.9773(13)
N2 N 0.45884(9) 0.81427(8) 0.79025(7)
N3 N 0.81263(9) 0.49078(9) 0.32274(7)
N4 N -0.01743(13) 0.91494(11) 0.68965(13)
C1 C 0.47768(10) 0.89024(10) 0.87087(8)
C2 C 0.55364(9) 0.66337(9) 0.75815(8)
H2 H 0.4805 0.6060 0.7575
C3 C 0.63277(10) 0.58498(9) 0.85664(8)
C4 C 0.65658(10) 0.66553(9) 0.93146(8)
C5 C 0.33540(11) 0.88186(10) 0.73254(9)
H3 H 0.3659 0.8411 0.6500
H4 H 0.3233 0.9904 0.7162
C6 C 0.17724(11) 0.85152(12) 0.82007(10)
H5 H 0.1946 0.7455 0.8532
H6 H 0.1334 0.9123 0.8934
C7 C 0.06464(13) 0.88782(11) 0.74981(12)
C8 C 0.74665(11) 0.60810(11) 1.02413(9)
H7 H 0.6759 0.5775 1.1064
H8 H 0.7878 0.6866 1.0347
H9 H 0.8352 0.5227 0.9919
C9 C 0.68746(10) 0.42212(10) 0.86128(8)
C10 C 0.69825(12) 0.21399(10) 0.76507(9)
H10 H 0.6481 0.1594 0.8455
H11 H 0.8148 0.1788 0.7448
C11 C 0.65024(14) 0.18862(11) 0.65897(11)
H12 H 0.5348 0.2248 0.6798
H13 H 0.6830 0.0822 0.6482
H14 H 0.7016 0.2424 0.5798
C12 C 0.67673(10) 0.66664(9) 0.62580(8)
C13 C 0.68209(10) 0.58525(9) 0.53348(8)
H15 H 0.6049 0.5321 0.5496
C14 C 0.80267(10) 0.58319(10) 0.41713(8)
C15 C 0.91511(11) 0.66220(11) 0.38740(9)
H16 H 0.9953 0.6598 0.3066
C16 C 0.90653(11) 0.74537(11) 0.48007(9)
H17 H 0.9809 0.8021 0.4622
C17 C 0.78983(10) 0.74583(10) 0.59844(8)
H18 H 0.7871 0.8008 0.6616
loop_
_geom_bond_atom_site_label_1
_geom_bond_atom_site_label_2
_geom_bond_site_symmetry_1
_geom_bond_site_symmetry_2
O1 C1 1_555 1_555
O2 C9 1_555 1_555
O3 C9 1_555 1_555
O4 N3 1_555 1_555
O5 N3 1_555 1_555
N1 H1 1_555 1_555
N2 C1 1_555 1_555
N3 C14 1_555 1_555
N4 C7 1_555 1_555
C1 N1 1_555 1_555
C2 N2 1_555 1_555
H2 C2 1_555 1_555
C3 C2 1_555 1_555
C4 N1 1_555 1_555
C5 N2 1_555 1_555
H3 C5 1_555 1_555
H4 C5 1_555 1_555
C6 C5 1_555 1_555
H5 C6 1_555 1_555
H6 C6 1_555 1_555
C7 C6 1_555 1_555
C8 C4 1_555 1_555
H7 C8 1_555 1_555
H8 C8 1_555 1_555
H9 C8 1_555 1_555
C9 C3 1_555 1_555
C10 O2 1_555 1_555
H10 C10 1_555 1_555
H11 C10 1_555 1_555
C11 C10 1_555 1_555
H12 C11 1_555 1_555
H13 C11 1_555 1_555
H14 C11 1_555 1_555
C12 C2 1_555 1_555
C13 C12 1_555 1_555
H15 C13 1_555 1_555
C14 C13 1_555 1_555
C15 C14 1_555 1_555
H16 C15 1_555 1_555
C16 C15 1_555 1_555
H17 C16 1_555 1_555
C17 C12 1_555 1_555
H18 C17 1_555 1_555
C3 C4 1_555 1_555
C16 C17 1_555 1_555

#END
