
#######################################################################
#
#                 Cambridge Crystallographic Data Centre
#                                CCDC 
#
#######################################################################
#
# If this CIF has been generated from an entry in the Cambridge 
# Structural Database, then it will include bibliographic, chemical, 
# crystal, experimental, refinement or atomic coordinate data resulting 
# from the CCDC's data processing and validation procedures.
#
#######################################################################

data_WAMVUC
_chemical_formula_moiety         'C32 H24 O4'
_chemical_name_systematic        
trans-anti-3,3'-Di-m-tolyl-3,3'-dihydroxy-[2,2'-bi-1H-indene]-1,1'-dione
_symmetry_cell_setting           monoclinic
_symmetry_space_group_name_H-M   'P 21/n'
_symmetry_Int_Tables_number      14
_space_group_name_Hall           '-P 2yn'
loop_
_symmetry_equiv_pos_site_id
_symmetry_equiv_pos_as_xyz
1 x,y,z
2 1/2-x,1/2+y,1/2-z
3 -x,-y,-z
4 1/2+x,1/2-y,1/2+z
_cell_length_a                   11.58(3)
_cell_length_b                   7.082(16)
_cell_length_c                   15.80(3)
_cell_angle_alpha                90
_cell_angle_beta                 106.97(4)
_cell_angle_gamma                90
_cell_volume                     1239.33
_exptl_crystal_colour            yellow
_exptl_crystal_description       prism
_chemical_melting_point          '317-319 deg.C'
_cell_formula_units_Z            2
loop_
_atom_site_label
_atom_site_type_symbol
_atom_site_fract_x
_atom_site_fract_y
_atom_site_fract_z
O1 O 0.5086(6) 0.8464(9) 0.4440(4)
O2 O 0.6024(5) 0.2234(8) 0.4223(4)
H1 H 0.6548 0.1741 0.3968
C1 C 0.5677(8) 0.7024(12) 0.4427(6)
C2 C 0.5469(7) 0.5176(12) 0.4839(5)
C3 C 0.6507(7) 0.3808(12) 0.4783(5)
C4 C 0.7205(8) 0.4963(13) 0.4318(6)
C5 C 0.8214(9) 0.4445(14) 0.4048(7)
H2 H 0.8553 0.3253 0.4186
C6 C 0.8695(11) 0.5682(17) 0.3587(8)
H3 H 0.9358 0.5322 0.3406
C7 C 0.8210(11) 0.7475(16) 0.3382(8)
H4 H 0.8562 0.8304 0.3073
C8 C 0.7239(11) 0.8037(14) 0.3621(6)
H5 H 0.6908 0.9230 0.3468
C9 C 0.6735(8) 0.6787(12) 0.4107(6)
C10 C 0.7354(7) 0.3157(12) 0.5690(6)
C11 C 0.7904(8) 0.1418(13) 0.5770(6)
H6 H 0.7719 0.0604 0.5286
C12 C 0.8742(9) 0.0841(14) 0.6569(7)
C13 C 0.8989(9) 0.2036(16) 0.7271(6)
H7 H 0.9562 0.1690 0.7795
C14 C 0.8418(10) 0.3727(19) 0.7226(7)
H8 H 0.8596 0.4495 0.7725
C15 C 0.7562(8) 0.4349(14) 0.6442(6)
H9 H 0.7154 0.5487 0.6419
C16 C 0.9296(12) -0.1063(18) 0.6649(10)
H10 H 0.9828 -0.1230 0.7236
H11 H 0.9745 -0.1187 0.6228
H12 H 0.8674 -0.2005 0.6533
O1B O 0.4914(6) 0.1536(9) 0.5560(4)
O2B O 0.3976(5) 0.7766(8) 0.5777(4)
H1B H 0.3452 0.8259 0.6032
C1B C 0.4323(8) 0.2976(12) 0.5573(6)
C2B C 0.4531(7) 0.4824(12) 0.5161(5)
C3B C 0.3493(7) 0.6192(12) 0.5217(5)
C4B C 0.2795(8) 0.5037(13) 0.5682(6)
C5B C 0.1786(9) 0.5555(14) 0.5952(7)
H2B H 0.1447 0.6747 0.5814
C6B C 0.1305(11) 0.4318(17) 0.6413(8)
H3B H 0.0642 0.4678 0.6594
C7B C 0.1790(11) 0.2525(16) 0.6618(8)
H4B H 0.1438 0.1696 0.6927
C8B C 0.2761(11) 0.1963(14) 0.6379(6)
H5B H 0.3092 0.0770 0.6532
C9B C 0.3265(8) 0.3213(12) 0.5893(6)
C10B C 0.2646(7) 0.6843(12) 0.4310(6)
C11B C 0.2096(8) 0.8582(13) 0.4230(6)
H6B H 0.2281 0.9396 0.4714
C12B C 0.1258(9) 0.9159(14) 0.3431(7)
C13B C 0.1011(9) 0.7964(16) 0.2729(6)
H7B H 0.0438 0.8310 0.2205
C14B C 0.1582(10) 0.6273(19) 0.2774(7)
H8B H 0.1404 0.5505 0.2275
C15B C 0.2438(8) 0.5651(14) 0.3558(6)
H9B H 0.2846 0.4513 0.3581
C16B C 0.0704(12) 1.1063(18) 0.3351(10)
H10B H 0.0172 1.1230 0.2764
H11B H 0.0255 1.1187 0.3772
H12B H 0.1326 1.2005 0.3467
loop_
_geom_bond_atom_site_label_1
_geom_bond_atom_site_label_2
_geom_bond_site_symmetry_1
_geom_bond_site_symmetry_2
O1 C1 1_555 1_555
O2 H1 1_555 1_555
C1 C2 1_555 1_555
C2 C3 1_555 1_555
C3 O2 1_555 1_555
C4 C3 1_555 1_555
C5 C4 1_555 1_555
H2 C5 1_555 1_555
C6 C5 1_555 1_555
H3 C6 1_555 1_555
C7 C6 1_555 1_555
H4 C7 1_555 1_555
C8 C7 1_555 1_555
H5 C8 1_555 1_555
C9 C1 1_555 1_555
C10 C3 1_555 1_555
C11 C10 1_555 1_555
H6 C11 1_555 1_555
C12 C11 1_555 1_555
C13 C12 1_555 1_555
H7 C13 1_555 1_555
C14 C13 1_555 1_555
H8 C14 1_555 1_555
C15 C10 1_555 1_555
H9 C15 1_555 1_555
C16 C12 1_555 1_555
H10 C16 1_555 1_555
H11 C16 1_555 1_555
H12 C16 1_555 1_555
O1B C1B 1_555 1_555
O2B H1B 1_555 1_555
C1B C2B 1_555 1_555
C2B C2 1_555 1_555
C3B O2B 1_555 1_555
C4B C3B 1_555 1_555
C5B C4B 1_555 1_555
H2B C5B 1_555 1_555
C6B C5B 1_555 1_555
H3B C6B 1_555 1_555
C7B C6B 1_555 1_555
H4B C7B 1_555 1_555
C8B C7B 1_555 1_555
H5B C8B 1_555 1_555
C9B C1B 1_555 1_555
C10B C3B 1_555 1_555
C11B C10B 1_555 1_555
H6B C11B 1_555 1_555
C12B C11B 1_555 1_555
C13B C12B 1_555 1_555
H7B C13B 1_555 1_555
C14B C13B 1_555 1_555
H8B C14B 1_555 1_555
C15B C10B 1_555 1_555
H9B C15B 1_555 1_555
C16B C12B 1_555 1_555
H10B C16B 1_555 1_555
H11B C16B 1_555 1_555
H12B C16B 1_555 1_555
C4 C9 1_555 1_555
C8 C9 1_555 1_555
C14 C15 1_555 1_555
C2B C3B 1_555 1_555
C4B C9B 1_555 1_555
C8B C9B 1_555 1_555
C14B C15B 1_555 1_555

#END
