
#######################################################################
#
#                 Cambridge Crystallographic Data Centre
#                                CCDC 
#
#######################################################################
#
# If this CIF has been generated from an entry in the Cambridge 
# Structural Database, then it will include bibliographic, chemical, 
# crystal, experimental, refinement or atomic coordinate data resulting 
# from the CCDC's data processing and validation procedures.
#
#######################################################################

data_WAMVOW
_chemical_formula_moiety         'C38 H24 O4,0.5(C2 H6 O1)'
_chemical_name_systematic        
"cis-syn-3,3'-Dinaphthyl-3,3'-dihydroxy-[2,2'-bi-1H-indene]-1,1'-dione ethanol"
_symmetry_cell_setting           monoclinic
_symmetry_space_group_name_H-M   'P 21/c'
_symmetry_Int_Tables_number      14
_space_group_name_Hall           '-P 2ybc'
loop_
_symmetry_equiv_pos_site_id
_symmetry_equiv_pos_as_xyz
1 x,y,z
2 -x,1/2+y,1/2-z
3 -x,-y,-z
4 x,1/2-y,1/2+z
_cell_length_a                   21.466(8)
_cell_length_b                   13.802(5)
_cell_length_c                   21.305(8)
_cell_angle_alpha                90
_cell_angle_beta                 114.848(7)
_cell_angle_gamma                90
_cell_volume                     5727.77
_exptl_crystal_colour            yellow
_chemical_melting_point          '311-312 deg.C'
_cell_formula_units_Z            8
loop_
_atom_site_label
_atom_site_type_symbol
_atom_site_fract_x
_atom_site_fract_y
_atom_site_fract_z
O1 O 0.31686(16) 0.9512(2) 0.13339(17)
O2 O 0.23296(18) 0.7311(3) -0.0430(2)
O3 O 0.11608(16) 0.8306(2) -0.06537(19)
O4 O 0.19885(16) 0.9416(2) 0.14909(18)
C1 C 0.3202(2) 0.8485(3) 0.1259(3)
C2 C 0.3455(2) 0.7972(4) 0.1958(3)
C3 C 0.3701(3) 0.8527(4) 0.2540(3)
H1 H 0.3668 0.9198 0.2494
C4 C 0.4004(3) 0.8123(5) 0.3211(3)
H2 H 0.4152 0.8525 0.3597
C5 C 0.4079(3) 0.7148(5) 0.3292(3)
H3 H 0.4283 0.6884 0.3734
C6 C 0.3846(2) 0.6524(4) 0.2700(3)
C7 C 0.3942(3) 0.5521(5) 0.2795(3)
H4 H 0.4162 0.5268 0.3239
C8 C 0.3714(3) 0.4917(4) 0.2238(4)
H5 H 0.3781 0.4252 0.2299
C9 C 0.3375(2) 0.5313(4) 0.1568(3)
H6 H 0.3206 0.4903 0.1187
C10 C 0.3294(2) 0.6287(4) 0.1476(3)
H7 H 0.3077 0.6527 0.1027
C11 C 0.3525(2) 0.6950(4) 0.2032(3)
C12 C 0.3729(3) 0.8345(3) 0.0964(3)
C13 C 0.4425(3) 0.8559(3) 0.1280(3)
H8 H 0.4624 0.8833 0.1718
C14 C 0.4812(3) 0.8347(4) 0.0915(3)
H9 H 0.5277 0.8498 0.1108
C15 C 0.4522(3) 0.7917(4) 0.0273(4)
H10 H 0.4800 0.7765 0.0050
C16 C 0.3841(3) 0.7708(4) -0.0046(3)
H11 H 0.3648 0.7420 -0.0481
C17 C 0.3441(2) 0.7945(4) 0.0312(3)
C18 C 0.2699(3) 0.7772(4) 0.0079(3)
C19 C 0.2520(2) 0.8165(3) 0.0653(2)
C20 C 0.1878(2) 0.8286(3) 0.0601(3)
C21 C 0.1224(3) 0.8358(3) -0.0061(3)
C22 C 0.0663(3) 0.8545(3) 0.0147(3)
C23 C -0.0040(3) 0.8651(3) -0.0282(3)
H12 H -0.0201 0.8638 -0.0761
C24 C -0.0484(3) 0.8775(4) 0.0030(3)
H13 H -0.0952 0.8849 -0.0239
C25 C -0.0231(3) 0.8790(4) 0.0741(4)
H14 H -0.0537 0.8855 0.0943
C26 C 0.0463(3) 0.8712(3) 0.1166(3)
H15 H 0.0624 0.8740 0.1644
C27 C 0.0910(3) 0.8589(3) 0.0855(3)
C28 C 0.1685(2) 0.8500(4) 0.1209(3)
C29 C 0.1895(2) 0.7700(4) 0.1761(3)
C30 C 0.2143(3) 0.7992(5) 0.2427(4)
H16 H 0.2189 0.8651 0.2529
C31 C 0.2336(3) 0.7300(6) 0.2977(4)
H17 H 0.2500 0.7508 0.3434
C32 C 0.2278(3) 0.6346(6) 0.2829(4)
H18 H 0.2418 0.5894 0.3186
C33 C 0.2009(3) 0.6034(5) 0.2146(4)
C34 C 0.1936(3) 0.5029(6) 0.2004(4)
H19 H 0.2088 0.4590 0.2369
C35 C 0.1651(3) 0.4694(5) 0.1347(5)
H20 H 0.1620 0.4030 0.1266
C36 C 0.1400(3) 0.5341(4) 0.0789(3)
H21 H 0.1184 0.5110 0.0338
C37 C 0.1477(2) 0.6326(4) 0.0915(3)
H22 H 0.1318 0.6752 0.0542
C38 C 0.1788(2) 0.6703(4) 0.1588(3)
H50 H 0.1740 0.9808 0.1649
H52 H 0.2818 0.9558 0.1473
O5 O 0.32291(16) 0.5125(3) 0.89712(18)
O6 O 0.2377(2) 0.3225(3) 0.7058(2)
O7 O 0.12620(16) 0.4302(2) 0.69562(19)
O8 O 0.20207(16) 0.4935(2) 0.91203(17)
C39 C 0.3291(3) 0.4125(4) 0.8838(3)
C40 C 0.3556(3) 0.3531(6) 0.9491(4)
C41 C 0.3856(3) 0.4045(5) 1.0147(5)
H23 H 0.3842 0.4719 1.0141
C42 C 0.4169(4) 0.3572(6) 1.0794(5)
H24 H 0.4369 0.3953 1.1189
C43 C 0.4196(4) 0.2604(8) 1.0874(6)
H25 H 0.4373 0.2298 1.1303
C44 C 0.3918(3) 0.2078(7) 1.0214(5)
C45 C 0.3951(4) 0.1117(8) 1.0236(6)
H26 H 0.4145 0.0819 1.0667
C46 C 0.3716(5) 0.0551(7) 0.9668(6)
H27 H 0.3754 -0.0119 0.9711
C47 C 0.3417(3) 0.0981(5) 0.9014(4)
H28 H 0.3259 0.0583 0.8626
C48 C 0.3348(2) 0.1947(4) 0.8922(3)
H29 H 0.3142 0.2218 0.8482
C49 C 0.3609(3) 0.2547(4) 0.9540(5)
C50 C 0.3801(3) 0.4045(4) 0.8501(4)
C51 C 0.4509(3) 0.4215(4) 0.8843(3)
H30 H 0.4716 0.4402 0.9305
C52 C 0.4887(3) 0.4089(4) 0.8451(4)
H31 H 0.5359 0.4196 0.8657
C53 C 0.4582(4) 0.3813(5) 0.7775(4)
H32 H 0.4851 0.3739 0.7531
C54 C 0.3895(3) 0.3644(4) 0.7446(3)
H33 H 0.3694 0.3455 0.6984
C55 C 0.3504(3) 0.3760(4) 0.7822(3)
C56 C 0.2760(3) 0.3594(4) 0.7597(3)
C57 C 0.2603(3) 0.3855(3) 0.8211(3)
C58 C 0.1972(2) 0.3923(3) 0.8184(2)
C59 C 0.1320(2) 0.4079(3) 0.7536(3)
C60 C 0.0737(2) 0.4011(3) 0.7733(3)
C61 C 0.0044(2) 0.3979(3) 0.7315(3)
H34 H -0.0121 0.4028 0.6837
C62 C -0.0397(3) 0.3871(3) 0.7629(3)
H35 H -0.0867 0.3832 0.7360
C63 C -0.0144(3) 0.3820(3) 0.8339(3)
H36 H -0.0452 0.3754 0.8539
C64 C 0.0553(2) 0.3863(3) 0.8766(3)
H37 H 0.0718 0.3828 0.9245
C65 C 0.0992(2) 0.3963(3) 0.8441(3)
C66 C 0.1777(2) 0.4016(3) 0.8799(3)
C67 C 0.2028(2) 0.3225(4) 0.9356(3)
C68 C 0.2298(2) 0.3494(3) 1.0035(3)
H38 H 0.2368 0.4148 1.0145
C69 C 0.2475(2) 0.2811(4) 1.0577(3)
H39 H 0.2646 0.3017 1.1034
C70 C 0.2392(2) 0.1851(4) 1.0425(3)
H40 H 0.2520 0.1399 1.0781
C71 C 0.2113(2) 0.1533(4) 0.9733(3)
C72 C 0.2016(2) 0.0537(4) 0.9582(3)
H41 H 0.2159 0.0092 0.9943
C73 C 0.1716(3) 0.0213(4) 0.8920(3)
H42 H 0.1655 -0.0448 0.8831
C74 C 0.1499(2) 0.0872(4) 0.8374(3)
H43 H 0.1283 0.0654 0.7919
C75 C 0.1605(2) 0.1845(3) 0.8511(3)
H44 H 0.1465 0.2276 0.8142
C76 C 0.1917(2) 0.2216(4) 0.9188(3)
H51 H 0.1670 0.5381 0.8942
H53 H 0.3662 0.5211 0.9414
O9 O 0.1119(3) 0.6371(3) 0.8716(4)
C77 C 0.0429(4) 0.6454(5) 0.8262(5)
H45 H 0.0302 0.5904 0.7950
H46 H 0.0369 0.7035 0.7985
C78 C -0.0017(4) 0.6499(5) 0.8593(5)
H47 H -0.0480 0.6586 0.8253
H48 H 0.0111 0.7034 0.8911
H49 H 0.0015 0.5907 0.8842
H54 H 0.1072 0.6131 0.9107(6)
loop_
_geom_bond_atom_site_label_1
_geom_bond_atom_site_label_2
_geom_bond_site_symmetry_1
_geom_bond_site_symmetry_2
O1 C1 1_555 1_555
O2 C18 1_555 1_555
O3 C21 1_555 1_555
O4 C28 1_555 1_555
O5 C39 1_555 1_555
O6 C56 1_555 1_555
O7 C59 1_555 1_555
O8 C66 1_555 1_555
C1 C2 1_555 1_555
C2 C3 1_555 1_555
C3 H1 1_555 1_555
C4 C3 1_555 1_555
H2 C4 1_555 1_555
C5 C4 1_555 1_555
H3 C5 1_555 1_555
C6 C5 1_555 1_555
C7 C6 1_555 1_555
H4 C7 1_555 1_555
C8 C7 1_555 1_555
H5 C8 1_555 1_555
C9 C8 1_555 1_555
H6 C9 1_555 1_555
C10 C9 1_555 1_555
H7 C10 1_555 1_555
C11 C2 1_555 1_555
C12 C1 1_555 1_555
C13 C12 1_555 1_555
H8 C13 1_555 1_555
C14 C13 1_555 1_555
H9 C14 1_555 1_555
C15 C14 1_555 1_555
H10 C15 1_555 1_555
C16 C15 1_555 1_555
H11 C16 1_555 1_555
C17 C12 1_555 1_555
C18 C17 1_555 1_555
C19 C1 1_555 1_555
C20 C19 1_555 1_555
C21 C20 1_555 1_555
C22 C21 1_555 1_555
C23 C22 1_555 1_555
H12 C23 1_555 1_555
C24 C23 1_555 1_555
H13 C24 1_555 1_555
C25 C24 1_555 1_555
H14 C25 1_555 1_555
C26 C25 1_555 1_555
H15 C26 1_555 1_555
C27 C22 1_555 1_555
C28 C20 1_555 1_555
C29 C28 1_555 1_555
C30 C29 1_555 1_555
H16 C30 1_555 1_555
C31 C30 1_555 1_555
H17 C31 1_555 1_555
C32 C31 1_555 1_555
H18 C32 1_555 1_555
C33 C32 1_555 1_555
C34 C33 1_555 1_555
H19 C34 1_555 1_555
C35 C34 1_555 1_555
H20 C35 1_555 1_555
C36 C35 1_555 1_555
H21 C36 1_555 1_555
C37 C36 1_555 1_555
H22 C37 1_555 1_555
C38 C29 1_555 1_555
C39 C40 1_555 1_555
C40 C41 1_555 1_555
C41 H23 1_555 1_555
C42 C41 1_555 1_555
H24 C42 1_555 1_555
C43 C42 1_555 1_555
H25 C43 1_555 1_555
C44 C43 1_555 1_555
C45 C44 1_555 1_555
H26 C45 1_555 1_555
C46 C45 1_555 1_555
H27 C46 1_555 1_555
C47 C46 1_555 1_555
H28 C47 1_555 1_555
C48 C47 1_555 1_555
H29 C48 1_555 1_555
C49 C40 1_555 1_555
C50 C39 1_555 1_555
C51 C50 1_555 1_555
H30 C51 1_555 1_555
C52 C51 1_555 1_555
H31 C52 1_555 1_555
C53 C52 1_555 1_555
H32 C53 1_555 1_555
C54 C53 1_555 1_555
H33 C54 1_555 1_555
C55 C50 1_555 1_555
C56 C55 1_555 1_555
C57 C39 1_555 1_555
C58 C57 1_555 1_555
C59 C58 1_555 1_555
C60 C59 1_555 1_555
C61 C60 1_555 1_555
H34 C61 1_555 1_555
C62 C61 1_555 1_555
H35 C62 1_555 1_555
C63 C62 1_555 1_555
H36 C63 1_555 1_555
C64 C63 1_555 1_555
H37 C64 1_555 1_555
C65 C60 1_555 1_555
C66 C58 1_555 1_555
C67 C66 1_555 1_555
C68 C67 1_555 1_555
H38 C68 1_555 1_555
C69 C68 1_555 1_555
H39 C69 1_555 1_555
C70 C69 1_555 1_555
H40 C70 1_555 1_555
C71 C70 1_555 1_555
C72 C71 1_555 1_555
H41 C72 1_555 1_555
C73 C72 1_555 1_555
H42 C73 1_555 1_555
C74 C73 1_555 1_555
H43 C74 1_555 1_555
C75 C74 1_555 1_555
H44 C75 1_555 1_555
C76 C67 1_555 1_555
O9 C77 1_555 1_555
C77 H45 1_555 1_555
H46 C77 1_555 1_555
C78 C77 1_555 1_555
H47 C78 1_555 1_555
H48 C78 1_555 1_555
H49 C78 1_555 1_555
H50 O4 1_555 1_555
H51 O8 1_555 1_555
H52 O1 1_555 1_555
H53 O5 1_555 1_555
H54 O9 1_555 1_555
C6 C11 1_555 1_555
C10 C11 1_555 1_555
C16 C17 1_555 1_555
C18 C19 1_555 1_555
C26 C27 1_555 1_555
C27 C28 1_555 1_555
C33 C38 1_555 1_555
C37 C38 1_555 1_555
C44 C49 1_555 1_555
C48 C49 1_555 1_555
C54 C55 1_555 1_555
C56 C57 1_555 1_555
C64 C65 1_555 1_555
C65 C66 1_555 1_555
C71 C76 1_555 1_555
C75 C76 1_555 1_555

#END
