
#######################################################################
#
#                 Cambridge Crystallographic Data Centre
#                                CCDC 
#
#######################################################################
#
# If this CIF has been generated from an entry in the Cambridge 
# Structural Database, then it will include bibliographic, chemical, 
# crystal, experimental, refinement or atomic coordinate data resulting 
# from the CCDC's data processing and validation procedures.
#
#######################################################################

data_WAMYOA
_chemical_formula_moiety         'C4 H5 N2 O3 P1'
_chemical_name_systematic        'Pyrazin-2-ylphosphonic acid'
_symmetry_cell_setting           monoclinic
_symmetry_space_group_name_H-M   'P 21/c'
_symmetry_Int_Tables_number      14
_space_group_name_Hall           '-P 2ybc'
loop_
_symmetry_equiv_pos_site_id
_symmetry_equiv_pos_as_xyz
1 x,y,z
2 -x,1/2+y,1/2-z
3 -x,-y,-z
4 x,1/2-y,1/2+z
_cell_length_a                   7.7997(16)
_cell_length_b                   11.293(2)
_cell_length_c                   7.4265(15)
_cell_angle_alpha                90
_cell_angle_beta                 91.64(3)
_cell_angle_gamma                90
_cell_volume                     653.873
_cell_formula_units_Z            4
loop_
_atom_site_label
_atom_site_type_symbol
_atom_site_fract_x
_atom_site_fract_y
_atom_site_fract_z
P1 P 0.23550(14) 0.15357(10) 0.21438(16)
N1 N 0.6625(5) 0.3431(3) 0.3448(5)
O1 O 0.1402(4) 0.2599(3) 0.1497(4)
O2 O 0.1633(4) 0.0990(3) 0.3881(4)
H1 H 0.167(7) 0.146(4) 0.477(5)
O3 O 0.2431(4) 0.0543(3) 0.0753(4)
H2 H 0.274(7) -0.012(3) 0.120(7)
C1 C 0.4554(5) 0.1964(4) 0.2733(6)
N2 N 0.5659(5) 0.1078(3) 0.3029(6)
C2 C 0.7737(6) 0.2560(4) 0.3737(7)
H3 H 0.8857 0.2741 0.4100
C3 C 0.7268(6) 0.1391(4) 0.3510(7)
H4 H 0.8089 0.0803 0.3695
C4 C 0.5019(5) 0.3133(4) 0.2929(6)
H5 H 0.4212 0.3724 0.2698
loop_
_geom_bond_atom_site_label_1
_geom_bond_atom_site_label_2
_geom_bond_site_symmetry_1
_geom_bond_site_symmetry_2
P1 O1 1_555 1_555
N1 C2 1_555 1_555
O2 P1 1_555 1_555
H1 O2 1_555 1_555
O3 P1 1_555 1_555
H2 O3 1_555 1_555
C1 P1 1_555 1_555
N2 C1 1_555 1_555
C2 H3 1_555 1_555
C3 N2 1_555 1_555
H4 C3 1_555 1_555
C4 N1 1_555 1_555
H5 C4 1_555 1_555
C1 C4 1_555 1_555
C2 C3 1_555 1_555

#END
