
#######################################################################
#
#                 Cambridge Crystallographic Data Centre
#                                CCDC 
#
#######################################################################
#
# If this CIF has been generated from an entry in the Cambridge 
# Structural Database, then it will include bibliographic, chemical, 
# crystal, experimental, refinement or atomic coordinate data resulting 
# from the CCDC's data processing and validation procedures.
#
#######################################################################

data_WAMZUI
_chemical_name_common            'N,N-Dihexyl diphenylthienoisoindigo'
_chemical_formula_moiety         'C36 H38 N2 O2 S2'
_chemical_name_systematic        
4-hexyl-6-(4-hexyl-5-oxo-2-phenyl-4,5-dihydro-6H-thieno[3,2-b]pyrrol-6-ylidene)-2-phenyl-4,6-dihydro-5H-thieno[3,2-b]pyrrol-5-one
_symmetry_cell_setting           triclinic
_symmetry_space_group_name_H-M   'P -1'
_symmetry_Int_Tables_number      2
_space_group_name_Hall           '-P 1'
loop_
_symmetry_equiv_pos_site_id
_symmetry_equiv_pos_as_xyz
1 x,y,z
2 -x,-y,-z
_cell_length_a                   4.99713(13)
_cell_length_b                   10.7672(3)
_cell_length_c                   14.6977(4)
_cell_angle_alpha                102.0088(17)
_cell_angle_beta                 92.7147(16)
_cell_angle_gamma                101.1171(16)
_cell_volume                     755.831
_exptl_crystal_colour            black
_exptl_crystal_description       plate
_cell_formula_units_Z            1
_exptl_crystal_recrystallization_method Sublimation
loop_
_atom_site_label
_atom_site_type_symbol
_atom_site_fract_x
_atom_site_fract_y
_atom_site_fract_z
S1 S 0.33251(18) 0.26423(9) 0.44926(7)
O1 O 0.0014(5) 0.6804(3) 0.40082(18)
N1 N 0.2783(6) 0.5451(3) 0.3320(3)
C1 C 0.1075(8) 0.5867(4) 0.3975(3)
C2 C 0.0774(7) 0.4931(4) 0.4633(3)
C3 C 0.2389(7) 0.4004(4) 0.4275(3)
C4 C 0.3552(7) 0.4341(4) 0.3499(3)
C5 C 0.5195(8) 0.3504(4) 0.3065(3)
C6 C 0.5237(7) 0.2511(4) 0.3538(3)
C7 C 0.6666(7) 0.1434(4) 0.3302(3)
C8 C 0.6534(9) 0.0503(4) 0.3862(4)
C9 C 0.7914(9) -0.0510(4) 0.3657(4)
C10 C 0.9421(8) -0.0620(4) 0.2904(3)
C11 C 0.9561(9) 0.0270(4) 0.2336(3)
C12 C 0.8198(8) 0.1286(4) 0.2540(3)
C13 C 0.3744(8) 0.6138(4) 0.2607(3)
C14 C 0.2216(10) 0.5501(5) 0.1652(3)
C15 C 0.3349(11) 0.6114(6) 0.0861(4)
C16 C 0.2780(12) 0.7426(6) 0.0887(4)
C17 C 0.3231(15) 0.7916(8) -0.0022(5)
C18 C 0.5966(15) 0.8138(8) -0.0259(5)
H1 H 0.6134 0.3603 0.2529
H2 H 0.5484 0.0572 0.4385
H3 H 0.7811 -0.1124 0.4040
H4 H 1.0378 -0.1308 0.2768
H5 H 1.0591 0.0181 0.1807
H6 H 0.8317 0.1893 0.2150
H7 H 0.5725 0.6159 0.2569
H8 H 0.3500 0.7045 0.2788
H9 H 0.0265 0.5556 0.1680
H10 H 0.2301 0.4570 0.1506
H11 H 0.5356 0.6177 0.0893
H12 H 0.2549 0.5534 0.0256
H13 H 0.3969 0.8052 0.1407
H14 H 0.0856 0.7413 0.1026
H15 H 0.2088 0.7273 -0.0544
H16 H 0.2570 0.8737 0.0038
H17 H 0.6042 0.8447 -0.0841
H18 H 0.6632 0.7326 -0.0344
H19 H 0.7118 0.8793 0.0243
S1A S -0.33251(18) 0.73577(9) 0.55074(7)
O1A O -0.0014(5) 0.3196(3) 0.59918(18)
N1A N -0.2783(6) 0.4549(3) 0.6680(3)
C1A C -0.1075(8) 0.4133(4) 0.6025(3)
C2A C -0.0774(7) 0.5069(4) 0.5367(3)
C3A C -0.2389(7) 0.5996(4) 0.5725(3)
C4A C -0.3552(7) 0.5659(4) 0.6501(3)
C5A C -0.5195(8) 0.6496(4) 0.6935(3)
C6A C -0.5237(7) 0.7489(4) 0.6462(3)
C7A C -0.6666(7) 0.8566(4) 0.6698(3)
C8A C -0.6534(9) 0.9497(4) 0.6138(4)
C9A C -0.7914(9) 1.0510(4) 0.6343(4)
C10A C -0.9421(8) 1.0620(4) 0.7096(3)
C11A C -0.9561(9) 0.9730(4) 0.7664(3)
C12A C -0.8198(8) 0.8714(4) 0.7460(3)
C13A C -0.3744(8) 0.3862(4) 0.7393(3)
C14A C -0.2216(10) 0.4499(5) 0.8348(3)
C15A C -0.3349(11) 0.3886(6) 0.9139(4)
C16A C -0.2780(12) 0.2574(6) 0.9113(4)
C17A C -0.3231(15) 0.2084(8) 1.0022(5)
C18A C -0.5966(15) 0.1862(8) 1.0259(5)
H1A H -0.6134 0.6397 0.7471
H2A H -0.5484 0.9428 0.5615
H3A H -0.7811 1.1124 0.5960
H4A H -1.0378 1.1308 0.7232
H5A H -1.0591 0.9819 0.8193
H6A H -0.8317 0.8107 0.7850
H7A H -0.5725 0.3841 0.7431
H8A H -0.3500 0.2955 0.7212
H9A H -0.0265 0.4444 0.8320
H10A H -0.2301 0.5430 0.8494
H11A H -0.5356 0.3823 0.9107
H12A H -0.2549 0.4466 0.9744
H13A H -0.3969 0.1948 0.8593
H14A H -0.0856 0.2587 0.8974
H15A H -0.2088 0.2727 1.0544
H16A H -0.2570 0.1263 0.9962
H17A H -0.6042 0.1553 1.0841
H18A H -0.6632 0.2674 1.0344
H19A H -0.7118 0.1207 0.9757
loop_
_geom_bond_atom_site_label_1
_geom_bond_atom_site_label_2
_geom_bond_site_symmetry_1
_geom_bond_site_symmetry_2
S1 C3 1_555 1_555
O1 C1 1_555 1_555
N1 C1 1_555 1_555
C1 C2 1_555 1_555
C2 C3 1_555 1_555
C3 C4 1_555 1_555
C4 N1 1_555 1_555
C5 C4 1_555 1_555
C6 S1 1_555 1_555
C7 C6 1_555 1_555
C8 C7 1_555 1_555
C9 C8 1_555 1_555
C10 C9 1_555 1_555
C11 C10 1_555 1_555
C12 C7 1_555 1_555
C13 N1 1_555 1_555
C14 C13 1_555 1_555
C15 C14 1_555 1_555
C16 C15 1_555 1_555
C17 C16 1_555 1_555
C18 C17 1_555 1_555
H1 C5 1_555 1_555
H2 C8 1_555 1_555
H3 C9 1_555 1_555
H4 C10 1_555 1_555
H5 C11 1_555 1_555
H6 C12 1_555 1_555
H7 C13 1_555 1_555
H8 C13 1_555 1_555
H9 C14 1_555 1_555
H10 C14 1_555 1_555
H11 C15 1_555 1_555
H12 C15 1_555 1_555
H13 C16 1_555 1_555
H14 C16 1_555 1_555
H15 C17 1_555 1_555
H16 C17 1_555 1_555
H17 C18 1_555 1_555
H18 C18 1_555 1_555
H19 C18 1_555 1_555
S1A C3A 1_555 1_555
O1A C1A 1_555 1_555
N1A C1A 1_555 1_555
C1A C2A 1_555 1_555
C2A C2 1_555 1_555
C3A C2A 1_555 1_555
C4A N1A 1_555 1_555
C5A C4A 1_555 1_555
C6A S1A 1_555 1_555
C7A C6A 1_555 1_555
C8A C7A 1_555 1_555
C9A C8A 1_555 1_555
C10A C9A 1_555 1_555
C11A C10A 1_555 1_555
C12A C7A 1_555 1_555
C13A N1A 1_555 1_555
C14A C13A 1_555 1_555
C15A C14A 1_555 1_555
C16A C15A 1_555 1_555
C17A C16A 1_555 1_555
C18A C17A 1_555 1_555
H1A C5A 1_555 1_555
H2A C8A 1_555 1_555
H3A C9A 1_555 1_555
H4A C10A 1_555 1_555
H5A C11A 1_555 1_555
H6A C12A 1_555 1_555
H7A C13A 1_555 1_555
H8A C13A 1_555 1_555
H9A C14A 1_555 1_555
H10A C14A 1_555 1_555
H11A C15A 1_555 1_555
H12A C15A 1_555 1_555
H13A C16A 1_555 1_555
H14A C16A 1_555 1_555
H15A C17A 1_555 1_555
H16A C17A 1_555 1_555
H17A C18A 1_555 1_555
H18A C18A 1_555 1_555
H19A C18A 1_555 1_555
C5 C6 1_555 1_555
C11 C12 1_555 1_555
C3A C4A 1_555 1_555
C5A C6A 1_555 1_555
C11A C12A 1_555 1_555

#END
