
#######################################################################
#
#                 Cambridge Crystallographic Data Centre
#                                CCDC 
#
#######################################################################
#
# If this CIF has been generated from an entry in the Cambridge 
# Structural Database, then it will include bibliographic, chemical, 
# crystal, experimental, refinement or atomic coordinate data resulting 
# from the CCDC's data processing and validation procedures.
#
#######################################################################

data_WANBOF
_chemical_formula_moiety         'C36 H46 N4 O1'
_chemical_name_systematic        
'3,3,7,8,12,13,17,18-octaethyl-2-oxochlorin unknown solvate'
_symmetry_cell_setting           triclinic
_symmetry_space_group_name_H-M   'P 1'
_symmetry_Int_Tables_number      1
_space_group_name_Hall           'P 1'
loop_
_symmetry_equiv_pos_site_id
_symmetry_equiv_pos_as_xyz
1 x,y,z
_cell_length_a                   10.2836(11)
_cell_length_b                   12.0997(13)
_cell_length_c                   13.7737(16)
_cell_angle_alpha                73.089(6)
_cell_angle_beta                 84.419(5)
_cell_angle_gamma                76.142(5)
_cell_volume                     1591.3
_exptl_crystal_colour            black
_exptl_crystal_description       plate
_cell_formula_units_Z            2
loop_
_atom_site_label
_atom_site_type_symbol
_atom_site_fract_x
_atom_site_fract_y
_atom_site_fract_z
O1 O 0.9325(3) 0.3724(3) 0.0612(2)
N1 N 0.7437(3) 0.3698(2) 0.2884(2)
N2 N 0.5168(3) 0.4061(2) 0.4293(2)
H1 H 0.6002 0.3652 0.4348
N3 N 0.6937(3) 0.2635(2) 0.5964(2)
N4 N 0.9240(3) 0.2274(2) 0.4603(2)
H2 H 0.8403 0.2678 0.4545
C1 C 0.8617(4) 0.3402(3) 0.2380(3)
C2 C 0.8447(4) 0.3861(4) 0.1271(3)
C3 C 0.7002(4) 0.4478(4) 0.1104(3)
C4 C 0.6483(4) 0.4332(3) 0.2198(3)
C5 C 0.5174(3) 0.4808(3) 0.2435(3)
H3 H 0.4623 0.5263 0.1878
C6 C 0.4568(3) 0.4700(3) 0.3393(2)
C7 C 0.3210(3) 0.5228(3) 0.3636(2)
C8 C 0.3040(3) 0.4896(3) 0.4677(3)
C9 C 0.4288(3) 0.4147(3) 0.5099(2)
C10 C 0.4576(3) 0.3624(3) 0.6108(3)
H4 H 0.3860 0.3751 0.6582
C11 C 0.5802(3) 0.2923(3) 0.6520(2)
C12 C 0.6018(4) 0.2439(3) 0.7610(3)
C13 C 0.7338(4) 0.1844(3) 0.7707(3)
C14 C 0.7880(4) 0.1975(3) 0.6673(3)
C15 C 0.9208(4) 0.1485(3) 0.6441(3)
H5 H 0.9744 0.1012 0.7002
C16 C 0.9825(3) 0.1606(3) 0.5506(3)
C17 C 1.1191(4) 0.1106(3) 0.5256(3)
C18 C 1.1382(3) 0.1491(3) 0.4230(3)
C19 C 1.0129(3) 0.2226(3) 0.3810(3)
C20 C 0.9831(4) 0.2751(3) 0.2795(3)
H6 H 1.0557 0.2650 0.2323
C21 C 0.6350(4) 0.3779(4) 0.0572(3)
H7 H 0.5376 0.4128 0.0527
H8 H 0.6728 0.3878 -0.0130
C22 C 0.6562(5) 0.2457(4) 0.1114(3)
H9 H 0.6216 0.2350 0.1815
H10 H 0.7521 0.2090 0.1112
H11 H 0.6085 0.2084 0.0761
C23 C 0.6873(4) 0.5763(4) 0.0483(3)
H12 H 0.5911 0.6138 0.0378
H13 H 0.7309 0.5781 -0.0193
C24 C 0.7491(5) 0.6495(4) 0.0971(4)
H14 H 0.8438 0.6117 0.1099
H15 H 0.7014 0.6542 0.1615
H16 H 0.7419 0.7295 0.0513
C25 C 0.2198(3) 0.6020(3) 0.2869(3)
H17 H 0.2668 0.6504 0.2304
H18 H 0.1556 0.6568 0.3193
C26 C 0.1417(4) 0.5358(3) 0.2435(3)
H19 H 0.0943 0.4879 0.2988
H20 H 0.2039 0.4840 0.2084
H21 H 0.0768 0.5929 0.1955
C27 C 0.1811(3) 0.5204(3) 0.5299(3)
H22 H 0.1234 0.5951 0.4908
H23 H 0.2071 0.5340 0.5921
C28 C 0.1016(4) 0.4237(4) 0.5598(4)
H24 H 0.0236 0.4466 0.6024
H25 H 0.1586 0.3493 0.5978
H26 H 0.0714 0.4129 0.4985
C29 C 0.5016(5) 0.2592(4) 0.8432(3)
H27 H 0.4470 0.3413 0.8241
H28 H 0.5488 0.2483 0.9057
C30 C 0.4079(6) 0.1728(5) 0.8659(3)
H29 H 0.3447 0.1869 0.9213
H30 H 0.4610 0.0912 0.8859
H31 H 0.3582 0.1849 0.8051
C31 C 0.8141(5) 0.1246(4) 0.8642(3)
H32 H 0.8705 0.0482 0.8576
H33 H 0.7523 0.1072 0.9236
C32 C 0.9037(5) 0.2001(4) 0.8826(3)
H34 H 0.9506 0.1593 0.9462
H35 H 0.8486 0.2768 0.8871
H36 H 0.9694 0.2127 0.8262
C33 C 1.2185(4) 0.0291(3) 0.6017(4)
H37 H 1.2918 -0.0149 0.5661
H38 H 1.1739 -0.0294 0.6504
C34 C 1.2793(5) 0.0933(4) 0.6611(4)
H39 H 1.3392 0.0349 0.7122
H40 H 1.2073 0.1393 0.6949
H41 H 1.3301 0.1467 0.6142
C35 C 1.2651(4) 0.1259(4) 0.3619(4)
H42 H 1.2433 0.1287 0.2927
H43 H 1.3185 0.0457 0.3937
C36 C 1.3476(4) 0.2170(4) 0.3551(5)
H44 H 1.3771 0.2089 0.4229
H45 H 1.2928 0.2969 0.3280
H46 H 1.4261 0.2040 0.3101
O2 O 0.3691(4) 0.5863(4) 0.9475(3)
N5 N 0.2177(10) 0.7189(13) 0.7105(8)
N6 N 0.0097(13) 0.8551(15) 0.5653(9)
H47 H 0.0940 0.8174 0.5631
N7 N 0.2183(18) 0.833(2) 0.4094(10)
N8 N 0.4314(13) 0.6949(15) 0.5478(9)
H48 H 0.3481 0.7353 0.5490
C37 C 0.3303(9) 0.6565(7) 0.7669(6)
C38 C 0.2923(7) 0.6329(5) 0.8766(5)
C39 C 0.1445(9) 0.6774(7) 0.8865(6)
C40 C 0.1111(9) 0.7348(8) 0.7741(7)
C41 C -0.0192(12) 0.7966(11) 0.7481(8)
H49 H -0.0824 0.7985 0.8030
C42 C -0.0681(11) 0.8554(11) 0.6522(8)
C43 C -0.2013(9) 0.9271(9) 0.6216(6)
C44 C -0.1989(9) 0.9691(9) 0.5172(7)
C45 C -0.0658(11) 0.9237(11) 0.4816(7)
C46 C -0.0169(11) 0.9454(11) 0.3841(8)
H50 H -0.0774 0.9960 0.3334
C47 C 0.1132(12) 0.9013(12) 0.3501(8)
C48 C 0.1542(9) 0.9299(11) 0.2424(8)
C49 C 0.2858(10) 0.8754(12) 0.2386(9)
C50 C 0.3241(14) 0.813(2) 0.3433(13)
C51 C 0.4575(18) 0.7498(17) 0.3651(11)
H51 H 0.5196 0.7492 0.3094
C52 C 0.5054(15) 0.6885(14) 0.4622(9)
C53 C 0.6356(10) 0.6153(10) 0.4932(7)
C54 C 0.6339(8) 0.5812(8) 0.5973(7)
C55 C 0.5040(10) 0.6294(9) 0.6333(7)
C56 C 0.4564(8) 0.6160(7) 0.7321(7)
H52 H 0.5200 0.5726 0.7829
C57 C 0.0774(6) 0.5696(5) 0.9293(5)
H53 H 0.0989 0.5339 1.0019
H54 H -0.0210 0.5986 0.9254
C58 C 0.1200(12) 0.4747(9) 0.8748(12)
H55 H 0.0689 0.4131 0.9028
H56 H 0.2158 0.4396 0.8840
H57 H 0.1029 0.5096 0.8023
C59 C 0.1085(6) 0.7650(5) 0.9493(5)
H58 H 0.0097 0.7907 0.9539
H59 H 0.1406 0.7247 1.0190
C60 C 0.1672(7) 0.8733(5) 0.9066(5)
H60 H 0.2652 0.8489 0.9041
H61 H 0.1395 0.9266 0.9501
H62 H 0.1350 0.9144 0.8379
C61 C -0.3173(9) 0.9534(8) 0.6939(7)
H63 H -0.3802 1.0272 0.6591
H64 H -0.2826 0.9675 0.7528
C62 C -0.3950(9) 0.8538(7) 0.7331(11)
H65 H -0.4682 0.8770 0.7795
H66 H -0.3342 0.7807 0.7693
H67 H -0.4321 0.8406 0.6756
C63 C -0.3095(12) 1.0453(11) 0.4498(8)
H68 H -0.2735 1.1034 0.3937
H69 H -0.3772 1.0898 0.4889
C64 C -0.3766(16) 0.9698(14) 0.4053(14)
H70 H -0.4518 1.0213 0.3639
H71 H -0.4095 0.9105 0.4608
H72 H -0.3109 0.9298 0.3630
C65 C 0.0622(9) 1.0002(11) 0.1564(7)
H73 H 0.1165 1.0243 0.0938
H74 H 0.0090 1.0730 0.1722
C66 C -0.0339(10) 0.9287(12) 0.1376(10)
H75 H -0.0906 0.9076 0.1985
H76 H 0.0183 0.8564 0.1221
H77 H -0.0904 0.9768 0.0802
C67 C 0.3793(9) 0.8733(11) 0.1490(10)
H78 H 0.3259 0.8937 0.0877
H79 H 0.4336 0.7916 0.1583
C68 C 0.4736(11) 0.9578(14) 0.1312(10)
H80 H 0.5282 0.9375 0.1910
H81 H 0.4209 1.0393 0.1195
H82 H 0.5322 0.9509 0.0718
C69 C 0.7486(10) 0.5834(9) 0.4225(6)
H83 H 0.7117 0.5680 0.3651
H84 H 0.8092 0.5090 0.4588
C70 C 0.8295(9) 0.6766(8) 0.3803(8)
H85 H 0.9020 0.6486 0.3357
H86 H 0.8676 0.6920 0.4363
H87 H 0.7713 0.7499 0.3415
C71 C 0.7440(7) 0.5030(7) 0.6659(6)
H88 H 0.8011 0.4472 0.6308
H89 H 0.7038 0.4556 0.7274
C72 C 0.8331(8) 0.5716(8) 0.6987(9)
H90 H 0.9014 0.5155 0.7445
H91 H 0.7775 0.6270 0.7337
H92 H 0.8770 0.6157 0.6385
O3? O 0.0090(11) 0.7062(10) 0.9513(8)
N9? N 0.1831(18) 0.716(2) 0.7162(13)
N10? N 0.407(2) 0.688(2) 0.5690(14)
H93? H 0.3228 0.7280 0.5652
N11? N 0.239(3) 0.837(3) 0.3972(16)
N12? N 0.009(2) 0.864(2) 0.5417(16)
H94? H 0.0928 0.8245 0.5464
C73? C 0.0636(17) 0.7452(18) 0.7713(14)
C74? C 0.0891(14) 0.6917(16) 0.8805(12)
C75? C 0.2295(14) 0.6266(12) 0.8918(8)
C76? C 0.2790(13) 0.6485(13) 0.7803(9)
C77? C 0.4094(15) 0.6061(15) 0.7538(10)
H95? H 0.4663 0.5596 0.8082
C78? C 0.4680(13) 0.6225(14) 0.6578(12)
C79? C 0.6028(13) 0.5732(12) 0.6294(9)
C80? C 0.6177(15) 0.6085(14) 0.5267(11)
C81? C 0.492(2) 0.685(2) 0.4871(13)
C82? C 0.464(2) 0.737(3) 0.3861(17)
H96? H 0.5328 0.7139 0.3401
C83? C 0.351(2) 0.819(3) 0.3394(19)
C84? C 0.3281(16) 0.8708(19) 0.2290(14)
C85? C 0.1969(17) 0.9273(19) 0.2251(13)
C86? C 0.1435(17) 0.909(2) 0.3269(14)
C87? C 0.014(2) 0.950(2) 0.3558(15)
H97? H -0.0432 0.9981 0.3018
C88? C -0.047(2) 0.933(2) 0.4513(16)
C89? C -0.1832(18) 0.9804(19) 0.4796(14)
C90? C -0.2012(17) 0.9360(19) 0.5826(15)
C91? C -0.077(2) 0.863(2) 0.6243(16)
C92? C -0.051(2) 0.811(2) 0.7278(18)
H98? H -0.1241 0.8253 0.7734
C93? C 0.2345(11) 0.4914(10) 0.9436(8)
H99? H 0.3292 0.4475 0.9489
H100? H 0.1953 0.4818 1.0133
C94? C 0.1605(19) 0.4381(17) 0.8866(17)
H101? H 0.0654 0.4779 0.8846
H102? H 0.1698 0.3535 0.9209
H103? H 0.1979 0.4481 0.8172
C95? C 0.3106(17) 0.6770(16) 0.9508(8)
H104? H 0.2747 0.6646 1.0215
H105? H 0.4050 0.6324 0.9529
C96? C 0.3063(19) 0.8073(14) 0.9044(10)
H106? H 0.3766 0.8295 0.9331
H107? H 0.2186 0.8538 0.9194
H108? H 0.3210 0.8233 0.8307
C97? C 0.7064(12) 0.4942(10) 0.7055(9)
H109? H 0.6617 0.4429 0.7615
H110? H 0.7730 0.4422 0.6720
C98? C 0.7784(12) 0.5629(10) 0.7495(9)
H111? H 0.8504 0.5079 0.7924
H112? H 0.7149 0.6067 0.7904
H113? H 0.8166 0.6188 0.6942
C99? C 0.7372(16) 0.5768(14) 0.4621(9)
H114? H 0.7070 0.5687 0.3990
H115? H 0.7916 0.4989 0.4985
C100? C 0.8255(13) 0.6672(12) 0.4342(10)
H116? H 0.8550 0.6767 0.4962
H117? H 0.7742 0.7435 0.3943
H118? H 0.9039 0.6395 0.3940
C101? C 0.4309(17) 0.865(2) 0.1449(16)
H119? H 0.3846 0.8844 0.0803
H120? H 0.4847 0.7825 0.1577
C102? C 0.526(2) 0.949(3) 0.133(2)
H121? H 0.5728 0.9577 0.0668
H122? H 0.5914 0.9159 0.1869
H123? H 0.4740 1.0264 0.1380
C103? C 0.1128(18) 0.9925(17) 0.1321(13)
H124? H 0.1725 1.0127 0.0718
H125? H 0.0560 1.0672 0.1419
C104? C 0.022(2) 0.9135(19) 0.1139(18)
H126? H -0.0338 0.8902 0.1750
H127? H 0.0784 0.8425 0.0989
H128? H -0.0359 0.9586 0.0565
C105? C -0.288(2) 1.0600(19) 0.4066(16)
H129? H -0.3611 1.1005 0.4448
H130? H -0.2477 1.1217 0.3579
C106? C -0.346(3) 0.997(2) 0.3483(17)
H131? H -0.3884 0.9375 0.3957
H132? H -0.2751 0.9591 0.3085
H133? H -0.4138 1.0550 0.3025
C107? C -0.3236(19) 0.954(2) 0.6487(17)
H134? H -0.3690 1.0392 0.6293
H135? H -0.2970 0.9326 0.7201
C108? C -0.4208(10) 0.8814(10) 0.6404(12)
H136? H -0.4967 0.8923 0.6881
H137? H -0.3752 0.7975 0.6567
H138? H -0.4533 0.9072 0.5711
loop_
_geom_bond_atom_site_label_1
_geom_bond_atom_site_label_2
_geom_bond_site_symmetry_1
_geom_bond_site_symmetry_2
O1 C2 1_555 1_555
N1 C1 1_555 1_555
N2 H1 1_555 1_555
N3 C11 1_555 1_555
N4 H2 1_555 1_555
C1 C2 1_555 1_555
C2 C3 1_555 1_555
C3 C4 1_555 1_555
C4 N1 1_555 1_555
C5 C4 1_555 1_555
H3 C5 1_555 1_555
C6 N2 1_555 1_555
C7 C6 1_555 1_555
C8 C7 1_555 1_555
C9 N2 1_555 1_555
C10 C9 1_555 1_555
H4 C10 1_555 1_555
C11 C10 1_555 1_555
C12 C11 1_555 1_555
C13 C12 1_555 1_555
C14 N3 1_555 1_555
C15 C14 1_555 1_555
H5 C15 1_555 1_555
C16 N4 1_555 1_555
C17 C16 1_555 1_555
C18 C17 1_555 1_555
C19 N4 1_555 1_555
C20 C1 1_555 1_555
H6 C20 1_555 1_555
C21 C3 1_555 1_555
H7 C21 1_555 1_555
H8 C21 1_555 1_555
C22 C21 1_555 1_555
H9 C22 1_555 1_555
H10 C22 1_555 1_555
H11 C22 1_555 1_555
C23 C3 1_555 1_555
H12 C23 1_555 1_555
H13 C23 1_555 1_555
C24 C23 1_555 1_555
H14 C24 1_555 1_555
H15 C24 1_555 1_555
H16 C24 1_555 1_555
C25 C7 1_555 1_555
H17 C25 1_555 1_555
H18 C25 1_555 1_555
C26 C25 1_555 1_555
H19 C26 1_555 1_555
H20 C26 1_555 1_555
H21 C26 1_555 1_555
C27 C8 1_555 1_555
H22 C27 1_555 1_555
H23 C27 1_555 1_555
C28 C27 1_555 1_555
H24 C28 1_555 1_555
H25 C28 1_555 1_555
H26 C28 1_555 1_555
C29 C12 1_555 1_555
H27 C29 1_555 1_555
H28 C29 1_555 1_555
C30 C29 1_555 1_555
H29 C30 1_555 1_555
H30 C30 1_555 1_555
H31 C30 1_555 1_555
C31 C13 1_555 1_555
H32 C31 1_555 1_555
H33 C31 1_555 1_555
C32 C31 1_555 1_555
H34 C32 1_555 1_555
H35 C32 1_555 1_555
H36 C32 1_555 1_555
C33 C17 1_555 1_555
H37 C33 1_555 1_555
H38 C33 1_555 1_555
C34 C33 1_555 1_555
H39 C34 1_555 1_555
H40 C34 1_555 1_555
H41 C34 1_555 1_555
C35 C18 1_555 1_555
H42 C35 1_555 1_555
H43 C35 1_555 1_555
C36 C35 1_555 1_555
H44 C36 1_555 1_555
H45 C36 1_555 1_555
H46 C36 1_555 1_555
O2 C38 1_555 1_555
N5 C37 1_555 1_555
N6 H47 1_555 1_555
N7 C47 1_555 1_555
N8 H48 1_555 1_555
C37 C38 1_555 1_555
C38 C39 1_555 1_555
C39 C40 1_555 1_555
C40 N5 1_555 1_555
C41 C40 1_555 1_555
H49 C41 1_555 1_555
C42 N6 1_555 1_555
C43 C42 1_555 1_555
C44 C43 1_555 1_555
C45 N6 1_555 1_555
C46 C45 1_555 1_555
H50 C46 1_555 1_555
C47 C46 1_555 1_555
C48 C47 1_555 1_555
C49 C48 1_555 1_555
C50 N7 1_555 1_555
C51 C50 1_555 1_555
H51 C51 1_555 1_555
C52 N8 1_555 1_555
C53 C52 1_555 1_555
C54 C53 1_555 1_555
C55 N8 1_555 1_555
C56 C37 1_555 1_555
H52 C56 1_555 1_555
C57 C39 1_555 1_555
H53 C57 1_555 1_555
H54 C57 1_555 1_555
C58 C57 1_555 1_555
H55 C58 1_555 1_555
H56 C58 1_555 1_555
H57 C58 1_555 1_555
C59 C39 1_555 1_555
H58 C59 1_555 1_555
H59 C59 1_555 1_555
C60 C59 1_555 1_555
H60 C60 1_555 1_555
H61 C60 1_555 1_555
H62 C60 1_555 1_555
C61 C43 1_555 1_555
H63 C61 1_555 1_555
H64 C61 1_555 1_555
C62 C61 1_555 1_555
H65 C62 1_555 1_555
H66 C62 1_555 1_555
H67 C62 1_555 1_555
C63 C44 1_555 1_555
H68 C63 1_555 1_555
H69 C63 1_555 1_555
C64 C63 1_555 1_555
H70 C64 1_555 1_555
H71 C64 1_555 1_555
H72 C64 1_555 1_555
C65 C48 1_555 1_555
H73 C65 1_555 1_555
H74 C65 1_555 1_555
C66 C65 1_555 1_555
H75 C66 1_555 1_555
H76 C66 1_555 1_555
H77 C66 1_555 1_555
C67 C49 1_555 1_555
H78 C67 1_555 1_555
H79 C67 1_555 1_555
C68 C67 1_555 1_555
H80 C68 1_555 1_555
H81 C68 1_555 1_555
H82 C68 1_555 1_555
C69 C53 1_555 1_555
H83 C69 1_555 1_555
H84 C69 1_555 1_555
C70 C69 1_555 1_555
H85 C70 1_555 1_555
H86 C70 1_555 1_555
H87 C70 1_555 1_555
C71 C54 1_555 1_555
H88 C71 1_555 1_555
H89 C71 1_555 1_555
C72 C71 1_555 1_555
H90 C72 1_555 1_555
H91 C72 1_555 1_555
H92 C72 1_555 1_555
C5 C6 1_555 1_555
C8 C9 1_555 1_555
C13 C14 1_555 1_555
C15 C16 1_555 1_555
C18 C19 1_555 1_555
C19 C20 1_555 1_555
C41 C42 1_555 1_555
C44 C45 1_555 1_555
C49 C50 1_555 1_555
C51 C52 1_555 1_555
C54 C55 1_555 1_555
C55 C56 1_555 1_555

#END
