
#######################################################################
#
#                 Cambridge Crystallographic Data Centre
#                                CCDC 
#
#######################################################################
#
# If this CIF has been generated from an entry in the Cambridge 
# Structural Database, then it will include bibliographic, chemical, 
# crystal, experimental, refinement or atomic coordinate data resulting 
# from the CCDC's data processing and validation procedures.
#
#######################################################################

data_WANBUL
_chemical_formula_moiety         'C36 H46 N4 O2'
_chemical_name_systematic        
'3,3,7,8,12,13,17,18-Octaethyl-2-oxochlorin 22-N-oxide unknown solvate'
_symmetry_cell_setting           monoclinic
_symmetry_space_group_name_H-M   'P 21/n'
_symmetry_Int_Tables_number      14
_space_group_name_Hall           '-P 2yn'
loop_
_symmetry_equiv_pos_site_id
_symmetry_equiv_pos_as_xyz
1 x,y,z
2 1/2-x,1/2+y,1/2-z
3 -x,-y,-z
4 1/2+x,1/2-y,1/2+z
_cell_length_a                   17.597(2)
_cell_length_b                   8.2343(12)
_cell_length_c                   23.977(3)
_cell_angle_alpha                90
_cell_angle_beta                 99.660(7)
_cell_angle_gamma                90
_cell_volume                     3424.98
_exptl_crystal_colour            black
_exptl_crystal_description       rod
_cell_formula_units_Z            4
loop_
_atom_site_label
_atom_site_type_symbol
_atom_site_fract_x
_atom_site_fract_y
_atom_site_fract_z
C1 C 0.51101(9) 0.7346(2) -0.00860(6)
C2 C 0.54672(9) 0.8065(2) -0.05327(7)
C3 C 0.61885(10) 0.8560(2) -0.02997(7)
C4 C 0.63026(9) 0.8184(2) 0.02996(7)
C5 C 0.69352(9) 0.8586(2) 0.07072(7)
H1 H 0.7399 0.8793 0.0566
C6 C 0.69889(9) 0.8731(2) 0.12913(7)
C7 C 0.76440(10) 0.9247(2) 0.16947(7)
C8 C 0.74041(10) 0.9424(2) 0.22063(7)
C9 C 0.66013(10) 0.8986(2) 0.21306(7)
C10 C 0.61135(10) 0.8957(2) 0.25336(7)
H2 H 0.6338 0.9292 0.2904
C11 C 0.53498(10) 0.8508(2) 0.24655(7)
C12 C 0.49003(11) 0.8618(2) 0.29351(8)
C13 C 0.40869(10) 0.8059(2) 0.27003(7)
C14 C 0.41822(10) 0.7611(2) 0.20980(7)
C15 C 0.35748(10) 0.7008(2) 0.17108(7)
H3 H 0.3116 0.6785 0.1856
C16 C 0.35459(9) 0.6681(2) 0.11324(7)
C17 C 0.28932(9) 0.6145(2) 0.07334(7)
C18 C 0.31157(9) 0.6024(2) 0.02126(7)
C19 C 0.39131(9) 0.6519(2) 0.02827(7)
C20 C 0.43601(9) 0.6750(2) -0.01347(7)
H4 H 0.4122 0.6461 -0.0507
C21 C 0.50686(10) 0.8265(2) -0.11354(7)
H5 H 0.5275 0.9241 -0.1299
H6 H 0.4511 0.8440 -0.1140
C22 C 0.51744(11) 0.6796(2) -0.15027(7)
H7 H 0.4916 0.6996 -0.1891
H8 H 0.4950 0.5834 -0.1353
H9 H 0.5725 0.6614 -0.1500
C23 C 0.67687(10) 0.9419(2) -0.05869(7)
H10 H 0.7030 1.0263 -0.0329
H11 H 0.6496 0.9971 -0.0930
C24 C 0.73738(11) 0.8282(3) -0.07555(9)
H12 H 0.7119 0.7426 -0.1003
H13 H 0.7672 0.7791 -0.0415
H14 H 0.7720 0.8898 -0.0957
C25 C 0.84419(10) 0.9440(2) 0.15645(8)
H15 H 0.8734 1.0210 0.1837
H16 H 0.8413 0.9901 0.1180
C26 C 0.88651(11) 0.7818(3) 0.15972(9)
H17 H 0.8571 0.7049 0.1333
H18 H 0.8918 0.7388 0.1983
H19 H 0.9377 0.7975 0.1497
C27 C 0.78729(10) 0.9935(2) 0.27601(7)
H20 H 0.7562 1.0686 0.2953
H21 H 0.8332 1.0536 0.2685
C28 C 0.81350(11) 0.8518(2) 0.31529(7)
H22 H 0.8442 0.7766 0.2965
H23 H 0.7683 0.7949 0.3245
H24 H 0.8449 0.8926 0.3501
C29 C 0.38525(11) 0.6617(3) 0.30382(8)
H25 H 0.3815 0.6990 0.3425
H26 H 0.3334 0.6244 0.2859
C30 C 0.43983(13) 0.5208(3) 0.30789(10)
H27 H 0.4191 0.4304 0.3273
H28 H 0.4899 0.5533 0.3293
H29 H 0.4462 0.4867 0.2698
C31 C 0.35180(12) 0.9487(3) 0.27129(9)
H30 H 0.2992 0.9104 0.2556
H31 H 0.3520 0.9796 0.3112
C32 C 0.36852(13) 1.0979(3) 0.23912(10)
H32 H 0.3664 1.0702 0.1991
H33 H 0.4200 1.1389 0.2547
H34 H 0.3300 1.1816 0.2426
C33 C 0.21090(10) 0.5833(2) 0.08790(8)
H35 H 0.2164 0.5129 0.1218
H36 H 0.1794 0.5240 0.0563
C34 C 0.16866(11) 0.7383(3) 0.09944(9)
H37 H 0.1609 0.8066 0.0655
H38 H 0.1994 0.7977 0.1308
H39 H 0.1185 0.7103 0.1094
C35 C 0.26283(10) 0.5581(2) -0.03388(7)
H40 H 0.2265 0.4710 -0.0274
H41 H 0.2964 0.5149 -0.0597
C36 C 0.21699(11) 0.7024(3) -0.06221(8)
H42 H 0.2527 0.7856 -0.0715
H43 H 0.1850 0.7482 -0.0363
H44 H 0.1839 0.6660 -0.0970
N1 N 0.56397(7) 0.74438(17) 0.04023(5)
N2 N 0.63808(8) 0.85827(18) 0.15763(6)
H45 H 0.5952(9) 0.810(2) 0.1440(8)
N3 N 0.48949(8) 0.79274(18) 0.19866(6)
N4 N 0.41366(8) 0.69031(18) 0.08441(6)
H46 H 0.4592(11) 0.704(2) 0.0982(8)
O1 O 0.55959(6) 0.66001(14) 0.08798(5)
O2 O 0.51296(8) 0.9090(2) 0.34156(5)
loop_
_geom_bond_atom_site_label_1
_geom_bond_atom_site_label_2
_geom_bond_site_symmetry_1
_geom_bond_site_symmetry_2
C1 C2 1_555 1_555
C2 C3 1_555 1_555
C3 C4 1_555 1_555
C4 C5 1_555 1_555
C5 H1 1_555 1_555
C6 C5 1_555 1_555
C7 C6 1_555 1_555
C8 C7 1_555 1_555
C9 C8 1_555 1_555
C10 C9 1_555 1_555
H2 C10 1_555 1_555
C11 C10 1_555 1_555
C12 C11 1_555 1_555
C13 C12 1_555 1_555
C14 C13 1_555 1_555
C15 C14 1_555 1_555
H3 C15 1_555 1_555
C16 C15 1_555 1_555
C17 C16 1_555 1_555
C18 C17 1_555 1_555
C19 C18 1_555 1_555
C20 C1 1_555 1_555
H4 C20 1_555 1_555
C21 C2 1_555 1_555
H5 C21 1_555 1_555
H6 C21 1_555 1_555
C22 C21 1_555 1_555
H7 C22 1_555 1_555
H8 C22 1_555 1_555
H9 C22 1_555 1_555
C23 C3 1_555 1_555
H10 C23 1_555 1_555
H11 C23 1_555 1_555
C24 C23 1_555 1_555
H12 C24 1_555 1_555
H13 C24 1_555 1_555
H14 C24 1_555 1_555
C25 C7 1_555 1_555
H15 C25 1_555 1_555
H16 C25 1_555 1_555
C26 C25 1_555 1_555
H17 C26 1_555 1_555
H18 C26 1_555 1_555
H19 C26 1_555 1_555
C27 C8 1_555 1_555
H20 C27 1_555 1_555
H21 C27 1_555 1_555
C28 C27 1_555 1_555
H22 C28 1_555 1_555
H23 C28 1_555 1_555
H24 C28 1_555 1_555
C29 C13 1_555 1_555
H25 C29 1_555 1_555
H26 C29 1_555 1_555
C30 C29 1_555 1_555
H27 C30 1_555 1_555
H28 C30 1_555 1_555
H29 C30 1_555 1_555
C31 C13 1_555 1_555
H30 C31 1_555 1_555
H31 C31 1_555 1_555
C32 C31 1_555 1_555
H32 C32 1_555 1_555
H33 C32 1_555 1_555
H34 C32 1_555 1_555
C33 C17 1_555 1_555
H35 C33 1_555 1_555
H36 C33 1_555 1_555
C34 C33 1_555 1_555
H37 C34 1_555 1_555
H38 C34 1_555 1_555
H39 C34 1_555 1_555
C35 C18 1_555 1_555
H40 C35 1_555 1_555
H41 C35 1_555 1_555
C36 C35 1_555 1_555
H42 C36 1_555 1_555
H43 C36 1_555 1_555
H44 C36 1_555 1_555
N1 C1 1_555 1_555
N2 C6 1_555 1_555
H45 N2 1_555 1_555
N3 C11 1_555 1_555
N4 C16 1_555 1_555
H46 N4 1_555 1_555
O1 N1 1_555 1_555
O2 C12 1_555 1_555
C4 N1 1_555 1_555
C9 N2 1_555 1_555
C14 N3 1_555 1_555
C19 C20 1_555 1_555
C19 N4 1_555 1_555

#END
