
#######################################################################
#
#                 Cambridge Crystallographic Data Centre
#                                CCDC 
#
#######################################################################
#
# If this CIF has been generated from an entry in the Cambridge 
# Structural Database, then it will include bibliographic, chemical, 
# crystal, experimental, refinement or atomic coordinate data resulting 
# from the CCDC's data processing and validation procedures.
#
#######################################################################

data_WANCUM
_chemical_name_common            
5,20-dichloro-3,3,7,8,12,13,17,18-octaethylporphyrin-2(3H)-one
_chemical_formula_moiety         'C36 H44 Cl2 N4 O1'
_chemical_name_systematic        
5,20-Dichloro-3,3,7,8,12,13,17,18-octaethyl-2-oxochlorin
_symmetry_cell_setting           monoclinic
_symmetry_space_group_name_H-M   'P 21/n'
_symmetry_Int_Tables_number      14
_space_group_name_Hall           '-P 2yn'
loop_
_symmetry_equiv_pos_site_id
_symmetry_equiv_pos_as_xyz
1 x,y,z
2 1/2-x,1/2+y,1/2-z
3 -x,-y,-z
4 1/2+x,1/2-y,1/2+z
_cell_length_a                   9.9662(9)
_cell_length_b                   13.9914(12)
_cell_length_c                   23.226(2)
_cell_angle_alpha                90
_cell_angle_beta                 97.5240(16)
_cell_angle_gamma                90
_cell_volume                     3210.77
_exptl_crystal_colour            black
_exptl_crystal_description       block
_cell_formula_units_Z            4
loop_
_atom_site_label
_atom_site_type_symbol
_atom_site_fract_x
_atom_site_fract_y
_atom_site_fract_z
Cl1 Cl 0.54759(6) 0.65125(4) 0.30647(3)
Cl2 Cl -0.11318(6) 0.45277(4) 0.21332(2)
O1 O 0.01507(16) 0.63199(13) 0.22424(8)
C1 C 0.4477(2) 0.56768(15) 0.33729(9)
C2 C 0.3141(2) 0.55976(14) 0.30941(8)
N1 N 0.22875(18) 0.48842(13) 0.31984(8)
C3 C 0.2509(2) 0.63101(15) 0.26403(9)
C4 C 0.1087(2) 0.59066(15) 0.25193(9)
C5 C 0.1095(2) 0.49792(15) 0.28347(8)
C6 C 0.0020(2) 0.43313(15) 0.27558(8)
C7 C -0.0257(2) 0.35368(15) 0.30869(8)
N2 N 0.06067(18) 0.32584(14) 0.35728(8)
H1 H 0.1375 0.3543 0.3703
C8 C -0.1401(2) 0.28957(15) 0.30350(9)
C9 C -0.1171(2) 0.22484(15) 0.34858(9)
C10 C 0.0092(2) 0.24751(16) 0.38225(9)
C11 C 0.0722(3) 0.19822(18) 0.43025(11)
H2 H 0.0218 0.1475 0.4441
C12 C 0.2004(4) 0.2140(3) 0.46047(19)
N3 N 0.2871(3) 0.2839(3) 0.44723(18)
C13 C 0.2581(4) 0.1571(3) 0.51034(16)
C14 C 0.3833(4) 0.1929(3) 0.52671(19)
C15 C 0.3992(6) 0.2719(6) 0.4866(4)
C16 C 0.5144(3) 0.3296(2) 0.49050(13)
H3 H 0.5845 0.3140 0.5208
C17 C 0.5396(2) 0.40631(17) 0.45602(10)
N4 N 0.45466(19) 0.44114(14) 0.40915(8)
H4 H 0.3739 0.4181 0.3966
C18 C 0.6586(2) 0.46463(16) 0.46255(9)
C19 C 0.6454(2) 0.53183(15) 0.41876(9)
C20 C 0.5140(2) 0.51689(15) 0.38478(9)
C21 C 0.3076(2) 0.62835(16) 0.20469(9)
H5 H 0.2407 0.6585 0.1749
H6 H 0.3912 0.6672 0.2079
C22 C 0.3392(4) 0.5290(3) 0.1842(2)
H7 H 0.2578 0.4892 0.1819
H8 H 0.4110 0.5004 0.2117
H9 H 0.3694 0.5331 0.1458
C23 C 0.2416(2) 0.73483(15) 0.28518(10)
H10 H 0.3339 0.7621 0.2920
H11 H 0.1890 0.7727 0.2540
C24 C 0.1760(3) 0.7454(2) 0.34059(13)
H12 H 0.1729 0.8132 0.3510
H13 H 0.2291 0.7101 0.3722
H14 H 0.0837 0.7197 0.3342
C25 C -0.2672(2) 0.28925(16) 0.26092(10)
H15 H -0.3084 0.2248 0.2603
H16 H -0.2436 0.3025 0.2216
C26 C -0.3718(2) 0.3630(2) 0.27523(13)
H17 H -0.3353 0.4275 0.2720
H18 H -0.3920 0.3526 0.3149
H19 H -0.4550 0.3560 0.2479
C27 C -0.2067(2) 0.14264(16) 0.36040(11)
H20 H -0.1495 0.0911 0.3798
H21 H -0.2508 0.1172 0.3229
C28 C -0.3152(3) 0.1679(2) 0.39777(15)
H22 H -0.3696 0.2212 0.3800
H23 H -0.2727 0.1865 0.4366
H24 H -0.3737 0.1123 0.4009
C29 C 0.1864(4) 0.0799(2) 0.53904(12)
H25 H 0.2539 0.0396 0.5629
H26 H 0.1361 0.0388 0.5089
C30 C 0.0874(8) 0.1217(5) 0.5778(3)
H27 H 0.0216 0.1628 0.5545
H28 H 0.1376 0.1595 0.6090
H29 H 0.0396 0.0696 0.5947
C31 C 0.4889(3) 0.1610(3) 0.57510(14)
H30 H 0.4440 0.1255 0.6041
H31 H 0.5323 0.2181 0.5946
C32 C 0.5989(4) 0.0973(3) 0.55466(19)
H32 H 0.5576 0.0385 0.5375
H33 H 0.6661 0.0810 0.5879
H34 H 0.6432 0.1315 0.5255
C33 C 0.7744(2) 0.45278(17) 0.51023(10)
H35 H 0.7383 0.4334 0.5462
H36 H 0.8202 0.5152 0.5177
C34 C 0.8783(3) 0.3789(2) 0.49630(13)
H37 H 0.9188 0.3997 0.4622
H38 H 0.8335 0.3171 0.4883
H39 H 0.9492 0.3725 0.5295
C35 C 0.7517(2) 0.60586(16) 0.41226(10)
H40 H 0.8033 0.6189 0.4508
H41 H 0.7067 0.6660 0.3980
C36 C 0.8503(2) 0.5752(2) 0.37034(11)
H42 H 0.8005 0.5656 0.3315
H43 H 0.8947 0.5154 0.3840
H44 H 0.9188 0.6251 0.3687
Cl3? Cl -0.0509(8) 0.5073(6) 0.2159(3)
Cl4? Cl 0.6390(8) 0.6348(7) 0.3255(4)
O2? O 0.404(2) 0.7162(13) 0.2741(9)
C37? C 0.0614(19) 0.4667(14) 0.2757(9)
C38? C 0.1805(17) 0.5206(13) 0.2842(8)
N5? N 0.2847(17) 0.4996(14) 0.3236(8)
C39? C 0.2045(18) 0.6136(12) 0.2523(8)
C40? C 0.3457(18) 0.6415(13) 0.2808(9)
C41? C 0.3895(18) 0.5622(14) 0.3217(9)
C42? C 0.5194(17) 0.5585(15) 0.3519(9)
C43? C 0.568(2) 0.5090(15) 0.4016(8)
N6? N 0.494(2) 0.4346(16) 0.4233(10)
H45? H 0.4123 0.4157 0.4085
C44? C 0.6932(19) 0.5135(16) 0.4392(9)
C45? C 0.6960(19) 0.4471(16) 0.4828(9)
C46? C 0.569(2) 0.3968(19) 0.4708(12)
C47? C 0.533(3) 0.317(3) 0.5006(17)
H46? H 0.5979 0.2923 0.5305
C48? C 0.408(7) 0.268(7) 0.491(5)
N7? N 0.308(4) 0.285(4) 0.446(2)
C49? C 0.377(4) 0.183(4) 0.522(3)
C50? C 0.248(4) 0.159(4) 0.501(2)
C51? C 0.204(4) 0.227(4) 0.455(2)
C52? C 0.078(3) 0.218(2) 0.4196(12)
H47? H 0.0209 0.1683 0.4292
C53? C 0.030(2) 0.2735(17) 0.3726(9)
N8? N 0.095(2) 0.3480(16) 0.3509(9)
H48? H 0.1757 0.3693 0.3656
C54? C -0.0957(19) 0.2582(15) 0.3346(8)
C55? C -0.1024(18) 0.3274(14) 0.2930(8)
C56? C 0.0167(19) 0.3856(14) 0.3018(8)
C57? C 0.223(3) 0.6002(17) 0.1869(8)
H49? H 0.1334 0.5877 0.1643
H50? H 0.2585 0.6603 0.1722
C58? C 0.318(7) 0.519(4) 0.177(3)
H51? H 0.3050 0.5011 0.1359
H52? H 0.2986 0.4638 0.2006
H53? H 0.4118 0.5395 0.1883
C59? C 0.112(2) 0.6985(15) 0.2604(9)
H54? H 0.0174 0.6799 0.2469
H55? H 0.1357 0.7519 0.2356
C60? C 0.122(4) 0.733(2) 0.3232(11)
H56? H 0.2099 0.7640 0.3343
H57? H 0.1122 0.6790 0.3489
H58? H 0.0495 0.7798 0.3266
C61? C 0.815(2) 0.5775(17) 0.4352(11)
H59? H 0.8647 0.5875 0.4745
H60? H 0.7837 0.6406 0.4194
C62? C 0.912(3) 0.532(2) 0.3953(12)
H61? H 0.8602 0.5156 0.3578
H62? H 0.9532 0.4746 0.4137
H63? H 0.9826 0.5784 0.3892
C63? C 0.806(2) 0.4242(18) 0.5311(11)
H64? H 0.7639 0.4142 0.5669
H65? H 0.8659 0.4806 0.5376
C64? C 0.893(3) 0.337(2) 0.5222(14)
H66? H 0.8349 0.2838 0.5075
H67? H 0.9456 0.3193 0.5592
H68? H 0.9550 0.3528 0.4940
C65? C 0.458(4) 0.145(3) 0.5768(16)
H69? H 0.3957 0.1188 0.6026
H70? H 0.5084 0.1987 0.5975
C66? C 0.558(4) 0.067(3) 0.5640(18)
H71? H 0.5148 0.0046 0.5643
H72? H 0.6378 0.0690 0.5937
H73? H 0.5867 0.0786 0.5257
C67? C 0.169(4) 0.077(3) 0.5231(16)
H74? H 0.2319 0.0244 0.5354
H75? H 0.1022 0.0539 0.4909
C68? C 0.094(9) 0.106(6) 0.574(3)
H76? H 0.1599 0.1262 0.6071
H77? H 0.0426 0.0511 0.5859
H78? H 0.0319 0.1588 0.5625
C69? C -0.185(2) 0.1768(16) 0.3445(11)
H79? H -0.1276 0.1228 0.3601
H80? H -0.2328 0.1565 0.3063
C70? C -0.291(3) 0.193(3) 0.3847(15)
H81? H -0.3810 0.1789 0.3642
H82? H -0.2879 0.2601 0.3974
H83? H -0.2725 0.1514 0.4187
C71? C -0.218(2) 0.3310(18) 0.2434(9)
H84? H -0.2554 0.2659 0.2362
H85? H -0.1831 0.3529 0.2077
C72? C -0.332(2) 0.399(2) 0.2568(14)
H86? H -0.3087 0.4647 0.2481
H87? H -0.3439 0.3934 0.2979
H88? H -0.4170 0.3810 0.2328
loop_
_geom_bond_atom_site_label_1
_geom_bond_atom_site_label_2
_geom_bond_site_symmetry_1
_geom_bond_site_symmetry_2
Cl1 C1 1_555 1_555
Cl2 C6 1_555 1_555
O1 C4 1_555 1_555
C1 C2 1_555 1_555
C2 N1 1_555 1_555
N1 C5 1_555 1_555
C3 C2 1_555 1_555
C4 C3 1_555 1_555
C5 C4 1_555 1_555
C6 C5 1_555 1_555
C7 C6 1_555 1_555
N2 C7 1_555 1_555
H1 N2 1_555 1_555
C8 C7 1_555 1_555
C9 C8 1_555 1_555
C10 N2 1_555 1_555
C11 C10 1_555 1_555
H2 C11 1_555 1_555
C12 C11 1_555 1_555
N3 C12 1_555 1_555
C13 C12 1_555 1_555
C14 C13 1_555 1_555
C15 N3 1_555 1_555
C16 C15 1_555 1_555
H3 C16 1_555 1_555
C17 C16 1_555 1_555
N4 C17 1_555 1_555
H4 N4 1_555 1_555
C18 C17 1_555 1_555
C19 C18 1_555 1_555
C20 C1 1_555 1_555
C21 C3 1_555 1_555
H5 C21 1_555 1_555
H6 C21 1_555 1_555
C22 C21 1_555 1_555
H7 C22 1_555 1_555
H8 C22 1_555 1_555
H9 C22 1_555 1_555
C23 C3 1_555 1_555
H10 C23 1_555 1_555
H11 C23 1_555 1_555
C24 C23 1_555 1_555
H12 C24 1_555 1_555
H13 C24 1_555 1_555
H14 C24 1_555 1_555
C25 C8 1_555 1_555
H15 C25 1_555 1_555
H16 C25 1_555 1_555
C26 C25 1_555 1_555
H17 C26 1_555 1_555
H18 C26 1_555 1_555
H19 C26 1_555 1_555
C27 C9 1_555 1_555
H20 C27 1_555 1_555
H21 C27 1_555 1_555
C28 C27 1_555 1_555
H22 C28 1_555 1_555
H23 C28 1_555 1_555
H24 C28 1_555 1_555
C29 C13 1_555 1_555
H25 C29 1_555 1_555
H26 C29 1_555 1_555
C30 C29 1_555 1_555
H27 C30 1_555 1_555
H28 C30 1_555 1_555
H29 C30 1_555 1_555
C31 C14 1_555 1_555
H30 C31 1_555 1_555
H31 C31 1_555 1_555
C32 C31 1_555 1_555
H32 C32 1_555 1_555
H33 C32 1_555 1_555
H34 C32 1_555 1_555
C33 C18 1_555 1_555
H35 C33 1_555 1_555
H36 C33 1_555 1_555
C34 C33 1_555 1_555
H37 C34 1_555 1_555
H38 C34 1_555 1_555
H39 C34 1_555 1_555
C35 C19 1_555 1_555
H40 C35 1_555 1_555
H41 C35 1_555 1_555
C36 C35 1_555 1_555
H42 C36 1_555 1_555
H43 C36 1_555 1_555
H44 C36 1_555 1_555
C9 C10 1_555 1_555
C14 C15 1_555 1_555
N4 C20 1_555 1_555
C19 C20 1_555 1_555

#END
