
#######################################################################
#
#                 Cambridge Crystallographic Data Centre
#                                CCDC 
#
#######################################################################
#
# If this CIF has been generated from an entry in the Cambridge 
# Structural Database, then it will include bibliographic, chemical, 
# crystal, experimental, refinement or atomic coordinate data resulting 
# from the CCDC's data processing and validation procedures.
#
#######################################################################

data_WANDAT
_chemical_formula_moiety         'C36 H45 Cl1 N4 O1'
_chemical_name_systematic        
20-Chloro-3,3,7,8,12,13,17,18-octaethyl-2-oxochlorin
_symmetry_cell_setting           triclinic
_symmetry_space_group_name_H-M   'P -1'
_symmetry_Int_Tables_number      2
_space_group_name_Hall           '-P 1'
loop_
_symmetry_equiv_pos_site_id
_symmetry_equiv_pos_as_xyz
1 x,y,z
2 -x,-y,-z
_cell_length_a                   10.2405(5)
_cell_length_b                   12.2064(8)
_cell_length_c                   13.6984(7)
_cell_angle_alpha                72.406(5)
_cell_angle_beta                 83.731(4)
_cell_angle_gamma                77.191(4)
_cell_volume                     1589.94
_exptl_crystal_colour            brown
_exptl_crystal_description       plate
_cell_formula_units_Z            2
loop_
_atom_site_label
_atom_site_type_symbol
_atom_site_fract_x
_atom_site_fract_y
_atom_site_fract_z
Cl1 Cl 0.33776(9) 0.28464(8) 0.31730(8)
O1 O 0.5474(3) 0.1621(3) 0.4542(2)
N1 N 0.7061(3) 0.1768(3) 0.2094(3)
N2 N 0.5380(5) 0.3173(12) 0.0468(4)
H1 H 0.6204 0.2766 0.0561
N3 N 0.7819(5) 0.2886(6) -0.1027(4)
N4 N 0.9467(4) 0.1440(7) 0.0565(3)
H2 H 0.8645 0.1855 0.0495
C1 C 0.8051(4) 0.1100(4) 0.2721(3)
C2 C 0.7628(4) 0.0856(4) 0.3848(3)
C3 C 0.6198(4) 0.1524(4) 0.3790(3)
C4 C 0.5919(4) 0.2033(4) 0.2675(3)
C5 C 0.4693(4) 0.2698(4) 0.2281(3)
C6 C 0.4408(4) 0.3235(5) 0.1242(4)
C7 C 0.3212(4) 0.3996(4) 0.0750(3)
C8 C 0.3526(5) 0.4361(6) -0.0286(3)
C9 C 0.4883(6) 0.3834(9) -0.0472(4)
C10 C 0.5556(5) 0.3994(6) -0.1433(4)
H3 H 0.5031 0.4490 -0.1989
C11 C 0.6853(5) 0.3552(11) -0.1707(4)
C12 C 0.7384(4) 0.3730(8) -0.2767(4)
C13 C 0.8689(5) 0.3184(7) -0.2722(4)
C14 C 0.8937(6) 0.2643(14) -0.1632(4)
C15 C 1.0150(6) 0.1933(6) -0.1249(4)
H4 H 1.0871 0.1836 -0.1735
C16 C 1.0398(5) 0.1361(5) -0.0233(4)
C17 C 1.1601(4) 0.0597(4) 0.0218(3)
C18 C 1.1373(3) 0.0253(3) 0.1254(3)
C19 C 1.0006(3) 0.0778(4) 0.1482(3)
C20 C 0.9356(4) 0.0643(3) 0.2438(3)
H5 H 0.9889 0.0157 0.2993
C21 C 0.8438(4) 0.1381(4) 0.4414(3)
H6 H 0.8073 0.1263 0.5130
H7 H 0.9379 0.0947 0.4437
C22 C 0.8422(6) 0.2673(4) 0.3928(4)
H8 H 0.8735 0.2806 0.3208
H9 H 0.9014 0.2931 0.4292
H10 H 0.7506 0.3120 0.3970
C23 C 0.7665(4) -0.0449(4) 0.4397(3)
H11 H 0.8612 -0.0864 0.4465
H12 H 0.7254 -0.0525 0.5096
C24 C 0.6948(5) -0.1047(4) 0.3859(4)
H13 H 0.6008 -0.0644 0.3787
H14 H 0.6994 -0.1867 0.4264
H15 H 0.7379 -0.1017 0.3179
C25 C 0.1825(4) 0.4288(4) 0.1219(4)
H16 H 0.1324 0.5024 0.0768
H17 H 0.1891 0.4415 0.1891
C26 C 0.1065(6) 0.3297(6) 0.1364(4)
H18 H 0.0164 0.3510 0.1660
H19 H 0.1549 0.2575 0.1825
H20 H 0.0998 0.3174 0.0698
C27 C 0.2630(4) 0.5170(4) -0.1112(4)
H21 H 0.3160 0.5689 -0.1618
H22 H 0.1913 0.5671 -0.0805
C28 C 0.1992(5) 0.4528(4) -0.1667(4)
H23 H 0.1411 0.5100 -0.2189
H24 H 0.1458 0.4018 -0.1173
H25 H 0.2696 0.4052 -0.1995
C29 C 0.6561(4) 0.4328(5) -0.3705(4)
H26 H 0.7165 0.4569 -0.4311
H27 H 0.5948 0.5042 -0.3609
C30 C 0.5739(5) 0.3511(5) -0.3897(4)
H28 H 0.5149 0.3262 -0.3294
H29 H 0.6346 0.2821 -0.4026
H30 H 0.5196 0.3928 -0.4495
C31 C 0.9684(5) 0.3097(5) -0.3592(4)
H31 H 0.9193 0.3287 -0.4225
H32 H 1.0183 0.2277 -0.3456
C32 C 1.0689(6) 0.3900(6) -0.3780(6)
H33 H 1.1291 0.3805 -0.4369
H34 H 1.1215 0.3694 -0.3171
H35 H 1.0209 0.4717 -0.3921
C33 C 1.2858(4) 0.0275(4) -0.0399(3)
H36 H 1.2608 0.0143 -0.1026
H37 H 1.3397 -0.0470 0.0007
C34 C 1.3720(4) 0.1213(4) -0.0708(4)
H38 H 1.4502 0.0968 -0.1129
H39 H 1.4020 0.1314 -0.0091
H40 H 1.3190 0.1957 -0.1102
C35 C 1.2337(4) -0.0534(3) 0.2051(3)
H41 H 1.2996 -0.1069 0.1736
H42 H 1.1833 -0.1021 0.2609
C36 C 1.3091(4) 0.0117(3) 0.2513(3)
H43 H 1.3606 0.0594 0.1969
H44 H 1.3704 -0.0450 0.3016
H45 H 1.2450 0.0627 0.2852
Cl2? Cl 1.1077(8) 0.0102(8) 0.3277(7)
O2? O 0.875(2) 0.044(3) 0.4554(16)
N5? N 0.755(2) 0.171(3) 0.2055(19)
N6? N 0.969(4) 0.148(7) 0.050(2)
H46? H 0.8845 0.1840 0.0525
N7? N 0.768(4) 0.276(6) -0.104(3)
N8? N 0.555(5) 0.317(10) 0.045(3)
H47? H 0.6381 0.2787 0.0431
C37? C 0.640(2) 0.189(3) 0.2632(19)
C38? C 0.659(2) 0.131(2) 0.3775(18)
C39? C 0.809(2) 0.089(3) 0.3789(16)
C40? C 0.858(2) 0.107(3) 0.2687(17)
C41? C 0.9893(19) 0.073(3) 0.2345(15)
C42? C 1.041(2) 0.079(4) 0.1340(16)
C43? C 1.172(2) 0.038(3) 0.0946(18)
C44? C 1.171(3) 0.072(4) -0.0109(18)
C45? C 1.048(4) 0.154(5) -0.039(2)
C46? C 1.008(4) 0.213(6) -0.139(3)
H48? H 1.0755 0.2131 -0.1925
C47? C 0.880(5) 0.272(12) -0.169(3)
C48? C 0.843(3) 0.330(6) -0.275(3)
C49? C 0.713(3) 0.379(7) -0.273(3)
C50? C 0.669(5) 0.352(10) -0.165(3)
C51? C 0.535(4) 0.387(6) -0.136(3)
H49? H 0.4715 0.4097 -0.1880
C52? C 0.487(4) 0.393(8) -0.040(3)
C53? C 0.351(3) 0.428(5) -0.005(2)
C54? C 0.342(3) 0.379(4) 0.099(2)
C55? C 0.473(3) 0.312(5) 0.131(2)
C56? C 0.513(3) 0.245(3) 0.228(2)
H50? H 0.4420 0.2368 0.2793
C57? C 0.618(3) 0.221(2) 0.438(2)
H51? H 0.5194 0.2498 0.4366
H52? H 0.6405 0.1829 0.5107
C58? C 0.687(4) 0.326(3) 0.395(3)
H53? H 0.6968 0.3438 0.3206
H54? H 0.7757 0.3064 0.4240
H55? H 0.6329 0.3939 0.4142
C59? C 0.594(3) 0.023(2) 0.418(2)
H56? H 0.6081 -0.0101 0.4925
H57? H 0.4959 0.0490 0.4100
C60? C 0.643(4) -0.076(3) 0.368(4)
H58? H 0.5886 -0.1361 0.3951
H59? H 0.7370 -0.1104 0.3834
H60? H 0.6349 -0.0441 0.2938
C61? C 1.291(3) -0.039(2) 0.155(3)
H61? H 1.3386 -0.0953 0.1175
H62? H 1.2583 -0.0844 0.2220
C62? C 1.391(3) 0.029(3) 0.172(3)
H63? H 1.3484 0.0787 0.2158
H64? H 1.4208 0.0780 0.1063
H65? H 1.4692 -0.0266 0.2062
C63? C 1.285(3) 0.045(3) -0.084(2)
H66? H 1.2490 0.0297 -0.1414
H67? H 1.3461 -0.0277 -0.0478
C64? C 1.366(4) 0.141(3) -0.127(3)
H68? H 1.3283 0.1935 -0.1916
H69? H 1.4592 0.1053 -0.1401
H70? H 1.3619 0.1855 -0.0780
C65? C 0.937(4) 0.331(5) -0.369(3)
H71? H 0.8830 0.3529 -0.4300
H72? H 0.9903 0.2506 -0.3610
C66? C 1.031(5) 0.416(5) -0.383(6)
H73? H 0.9780 0.4940 -0.3841
H74? H 1.0823 0.4213 -0.4487
H75? H 1.0922 0.3884 -0.3271
C67? C 0.620(4) 0.440(4) -0.360(3)
H76? H 0.6745 0.4566 -0.4251
H77? H 0.5714 0.5159 -0.3504
C68? C 0.519(4) 0.367(4) -0.367(4)
H78? H 0.4791 0.3993 -0.4343
H79? H 0.4476 0.3712 -0.3132
H80? H 0.5640 0.2857 -0.3580
C69? C 0.238(3) 0.500(3) -0.071(3)
H81? H 0.2725 0.5615 -0.1265
H82? H 0.1693 0.5388 -0.0296
C70? C 0.172(4) 0.429(4) -0.120(3)
H83? H 0.2393 0.3912 -0.1628
H84? H 0.0995 0.4812 -0.1621
H85? H 0.1362 0.3683 -0.0657
C71? C 0.217(3) 0.398(3) 0.164(3)
H86? H 0.1710 0.4812 0.1369
H87? H 0.2433 0.3883 0.2341
C72? C 0.115(5) 0.322(5) 0.173(4)
H88? H 0.1170 0.3019 0.1086
H89? H 0.0255 0.3645 0.1866
H90? H 0.1378 0.2498 0.2292
loop_
_geom_bond_atom_site_label_1
_geom_bond_atom_site_label_2
_geom_bond_site_symmetry_1
_geom_bond_site_symmetry_2
Cl1 C5 1_555 1_555
O1 C3 1_555 1_555
N1 C1 1_555 1_555
N2 H1 1_555 1_555
N3 C11 1_555 1_555
N4 H2 1_555 1_555
C1 C2 1_555 1_555
C2 C3 1_555 1_555
C3 C4 1_555 1_555
C4 N1 1_555 1_555
C5 C4 1_555 1_555
C6 N2 1_555 1_555
C7 C6 1_555 1_555
C8 C7 1_555 1_555
C9 N2 1_555 1_555
C10 C9 1_555 1_555
H3 C10 1_555 1_555
C11 C10 1_555 1_555
C12 C11 1_555 1_555
C13 C12 1_555 1_555
C14 N3 1_555 1_555
C15 C14 1_555 1_555
H4 C15 1_555 1_555
C16 N4 1_555 1_555
C17 C16 1_555 1_555
C18 C17 1_555 1_555
C19 N4 1_555 1_555
C20 C1 1_555 1_555
H5 C20 1_555 1_555
C21 C2 1_555 1_555
H6 C21 1_555 1_555
H7 C21 1_555 1_555
C22 C21 1_555 1_555
H8 C22 1_555 1_555
H9 C22 1_555 1_555
H10 C22 1_555 1_555
C23 C2 1_555 1_555
H11 C23 1_555 1_555
H12 C23 1_555 1_555
C24 C23 1_555 1_555
H13 C24 1_555 1_555
H14 C24 1_555 1_555
H15 C24 1_555 1_555
C25 C7 1_555 1_555
H16 C25 1_555 1_555
H17 C25 1_555 1_555
C26 C25 1_555 1_555
H18 C26 1_555 1_555
H19 C26 1_555 1_555
H20 C26 1_555 1_555
C27 C8 1_555 1_555
H21 C27 1_555 1_555
H22 C27 1_555 1_555
C28 C27 1_555 1_555
H23 C28 1_555 1_555
H24 C28 1_555 1_555
H25 C28 1_555 1_555
C29 C12 1_555 1_555
H26 C29 1_555 1_555
H27 C29 1_555 1_555
C30 C29 1_555 1_555
H28 C30 1_555 1_555
H29 C30 1_555 1_555
H30 C30 1_555 1_555
C31 C13 1_555 1_555
H31 C31 1_555 1_555
H32 C31 1_555 1_555
C32 C31 1_555 1_555
H33 C32 1_555 1_555
H34 C32 1_555 1_555
H35 C32 1_555 1_555
C33 C17 1_555 1_555
H36 C33 1_555 1_555
H37 C33 1_555 1_555
C34 C33 1_555 1_555
H38 C34 1_555 1_555
H39 C34 1_555 1_555
H40 C34 1_555 1_555
C35 C18 1_555 1_555
H41 C35 1_555 1_555
H42 C35 1_555 1_555
C36 C35 1_555 1_555
H43 C36 1_555 1_555
H44 C36 1_555 1_555
H45 C36 1_555 1_555
C5 C6 1_555 1_555
C8 C9 1_555 1_555
C13 C14 1_555 1_555
C15 C16 1_555 1_555
C18 C19 1_555 1_555
C19 C20 1_555 1_555

#END
