
#######################################################################
#
#                 Cambridge Crystallographic Data Centre
#                                CCDC 
#
#######################################################################
#
# If this CIF has been generated from an entry in the Cambridge 
# Structural Database, then it will include bibliographic, chemical, 
# crystal, experimental, refinement or atomic coordinate data resulting 
# from the CCDC's data processing and validation procedures.
#
#######################################################################

data_WANDEV
_chemical_formula_moiety         'C9 H6 O6,C12 H8 N4 O1'
_chemical_name_systematic        
'Benzene-1,3,5-tricarboxylic acid 2,5-bis(4-pyridyl)-1,3,4-oxadiazole'
_symmetry_cell_setting           monoclinic
_symmetry_space_group_name_H-M   'P 21/n'
_symmetry_Int_Tables_number      14
_space_group_name_Hall           '-P 2yn'
loop_
_symmetry_equiv_pos_site_id
_symmetry_equiv_pos_as_xyz
1 x,y,z
2 1/2-x,1/2+y,1/2-z
3 -x,-y,-z
4 1/2+x,1/2-y,1/2+z
_cell_length_a                   10.306(3)
_cell_length_b                   12.894(4)
_cell_length_c                   15.321(4)
_cell_angle_alpha                90
_cell_angle_beta                 100.207(5)
_cell_angle_gamma                90
_cell_volume                     2003.72
_exptl_crystal_colour            colorless
_exptl_crystal_description       rhombic
_chemical_melting_point          'above 300deg.C'
_cell_formula_units_Z            4
loop_
_atom_site_label
_atom_site_type_symbol
_atom_site_fract_x
_atom_site_fract_y
_atom_site_fract_z
O1 O 0.41456(14) 0.73869(10) 0.84335(9)
N1 N 0.31156(18) 1.10684(12) 0.92240(12)
N2 N 0.41852(19) 0.72667(13) 0.98754(12)
N3 N 0.44486(19) 0.62834(13) 0.95552(13)
N4 N 0.4836(2) 0.40442(14) 0.68694(14)
C1 C 0.3477(2) 1.06454(16) 0.85137(15)
H4 H 0.3533 1.1067 0.8029
C2 C 0.3773(2) 0.96063(16) 0.84650(15)
H5 H 0.4017 0.9332 0.7957
C3 C 0.3699(2) 0.89800(15) 0.91895(14)
C4 C 0.3329(2) 0.94200(16) 0.99258(15)
H6 H 0.3273 0.9019 1.0422
C5 C 0.3044(2) 1.04556(16) 0.99171(15)
H7 H 0.2789 1.0747 1.0416
C6 C 0.4022(2) 0.78726(15) 0.92027(14)
C7 C 0.4411(2) 0.63939(14) 0.87153(15)
C8 C 0.4584(2) 0.55945(15) 0.80731(14)
C9 C 0.4565(2) 0.45609(16) 0.83164(16)
H8 H 0.4474 0.4372 0.8888
C10 C 0.4684(3) 0.38224(17) 0.76899(18)
H9 H 0.4656 0.3128 0.7850
C11 C 0.4891(2) 0.50407(17) 0.66501(16)
H10 H 0.5016 0.5205 0.6080
C12 C 0.4771(2) 0.58393(17) 0.72285(16)
H11 H 0.4815 0.6527 0.7053
O2 O 0.19743(19) 0.53173(12) 0.30113(10)
O3 O 0.17396(19) 0.69353(12) 0.25019(10)
H1 H 0.1885 0.7119 0.3092
O4 O 0.04888(17) 0.76262(11) -0.06029(10)
H2 H 0.0169 0.8095 -0.1091
O5 O 0.11697(19) 0.65842(12) -0.15853(11)
O6 O 0.23344(16) 0.29777(11) -0.06135(9)
H3 H 0.2606 0.2298 -0.0718
O7 O 0.28464(16) 0.26035(10) 0.08195(10)
C13 C 0.1818(2) 0.59158(17) 0.24011(15)
C14 C 0.1731(2) 0.56060(15) 0.14600(13)
C15 C 0.20286(19) 0.45928(15) 0.12666(13)
H12 H 0.2229 0.4113 0.1723
C16 C 0.2031(2) 0.42878(15) 0.03990(13)
C17 C 0.2431(2) 0.32098(15) 0.02220(14)
C18 C 0.1692(2) 0.50021(15) -0.02823(13)
H13 H 0.1696 0.4804 -0.0865
C19 C 0.1348(2) 0.60087(15) -0.00991(13)
C20 C 0.0992(2) 0.67546(16) -0.08439(15)
C21 C 0.1380(2) 0.63084(15) 0.07732(14)
H14 H 0.1165 0.6986 0.0899
loop_
_geom_bond_atom_site_label_1
_geom_bond_atom_site_label_2
_geom_bond_site_symmetry_1
_geom_bond_site_symmetry_2
O1 C6 1_555 1_555
O2 C13 1_555 1_555
O3 H1 1_555 1_555
O4 H2 1_555 1_555
O5 C20 1_555 1_555
O6 H3 1_555 1_555
O7 C17 1_555 1_555
N1 C1 1_555 1_555
N2 N3 1_555 1_555
N3 C7 1_555 1_555
N4 C10 1_555 1_555
C1 H4 1_555 1_555
C2 C1 1_555 1_555
H5 C2 1_555 1_555
C3 C2 1_555 1_555
C4 C3 1_555 1_555
H6 C4 1_555 1_555
C5 N1 1_555 1_555
H7 C5 1_555 1_555
C6 N2 1_555 1_555
C7 O1 1_555 1_555
C8 C7 1_555 1_555
C9 C8 1_555 1_555
H8 C9 1_555 1_555
C10 C9 1_555 1_555
H9 C10 1_555 1_555
C11 N4 1_555 1_555
H10 C11 1_555 1_555
C12 C8 1_555 1_555
H11 C12 1_555 1_555
C13 O3 1_555 1_555
C14 C13 1_555 1_555
C15 C14 1_555 1_555
H12 C15 1_555 1_555
C16 C15 1_555 1_555
C17 O6 1_555 1_555
C18 C16 1_555 1_555
H13 C18 1_555 1_555
C19 C18 1_555 1_555
C20 O4 1_555 1_555
C21 C14 1_555 1_555
H14 C21 1_555 1_555
C3 C6 1_555 1_555
C4 C5 1_555 1_555
C11 C12 1_555 1_555
C16 C17 1_555 1_555
C19 C20 1_555 1_555
C19 C21 1_555 1_555

#END
