
#######################################################################
#
#                 Cambridge Crystallographic Data Centre
#                                CCDC 
#
#######################################################################
#
# If this CIF has been generated from an entry in the Cambridge 
# Structural Database, then it will include bibliographic, chemical, 
# crystal, experimental, refinement or atomic coordinate data resulting 
# from the CCDC's data processing and validation procedures.
#
#######################################################################

data_WANLON01
_chemical_formula_moiety         'C28 H32 B2 O4'
_chemical_name_systematic        
Pyrene-2,7-bis(4,4,5,5-tetramethyl-[1,3,2]dioxaborolane)
_symmetry_cell_setting           monoclinic
_symmetry_space_group_name_H-M   'P 21/n'
_symmetry_Int_Tables_number      14
_space_group_name_Hall           '-P 2yn'
loop_
_symmetry_equiv_pos_site_id
_symmetry_equiv_pos_as_xyz
1 x,y,z
2 1/2-x,1/2+y,1/2-z
3 -x,-y,-z
4 1/2+x,1/2-y,1/2+z
_cell_length_a                   10.6980(4)
_cell_length_b                   11.0555(6)
_cell_length_c                   11.2465(6)
_cell_angle_alpha                90
_cell_angle_beta                 109.137(4)
_cell_angle_gamma                90
_cell_volume                     1256.64
_exptl_crystal_colour            colorless
_exptl_crystal_description       'oblong block'
_chemical_melting_point          '605 K'
_cell_formula_units_Z            2
loop_
_atom_site_label
_atom_site_type_symbol
_atom_site_fract_x
_atom_site_fract_y
_atom_site_fract_z
O1 O 0.43689(7) -0.00089(6) 0.66166(6)
O2 O 0.21925(6) 0.05571(6) 0.57590(6)
C1 C 0.52447(9) 0.24934(9) 0.62218(9)
H1 H 0.5862(12) 0.1961(11) 0.6796(12)
C2 C 0.39453(9) 0.21081(8) 0.56261(9)
C3 C 0.30677(9) 0.28852(8) 0.47681(8)
H2 H 0.2166(13) 0.2605(11) 0.4343(12)
C4 C 0.25749(9) 0.48488(9) 0.36233(9)
H3 H 0.1651(13) 0.4590(11) 0.3210(12)
C5 C 0.29837(9) 0.59544(9) 0.33806(9)
H4 H 0.2403(11) 0.6499(11) 0.2770(11)
C6 C 0.56850(9) 0.36353(8) 0.59998(8)
C7 C 0.47855(8) 0.44170(8) 0.51223(8)
C8 C 0.34619(9) 0.40349(8) 0.45001(8)
C9 C 0.36027(9) -0.09033(9) 0.70502(9)
C10 C 0.21808(9) -0.07193(9) 0.60988(9)
C11 C 0.41907(11) -0.21451(10) 0.70250(12)
H5 H 0.4284(16) -0.2352(14) 0.6152(16)
H6 H 0.3638(16) -0.2747(14) 0.7252(14)
H7 H 0.5094(16) -0.2181(15) 0.7644(15)
C12 C 0.37272(13) -0.05431(13) 0.83911(10)
H8 H 0.3343(14) 0.0290(14) 0.8423(14)
H9 H 0.3286(15) -0.1108(13) 0.8780(15)
H10 H 0.4683(16) -0.0533(14) 0.8913(14)
C13 C 0.19392(13) -0.14351(11) 0.48882(11)
H11 H 0.1080(16) -0.1160(14) 0.4281(15)
H12 H 0.2708(16) -0.1275(13) 0.4521(15)
H13 H 0.1857(15) -0.2302(15) 0.5038(15)
C14 C 0.10736(12) -0.09314(12) 0.66407(13)
H14 H 0.0234(16) -0.0810(13) 0.6022(15)
H15 H 0.1161(15) -0.1783(15) 0.6943(15)
H16 H 0.1150(14) -0.0367(14) 0.7362(14)
B1 B 0.34910(10) 0.08606(10) 0.59853(10)
O1B O 0.56311(7) 1.00089(6) 0.33834(6)
O2B O 0.78075(6) 0.94429(6) 0.42410(6)
C1B C 0.47553(9) 0.75066(9) 0.37782(9)
H1B H 0.4138(12) 0.8039(11) 0.3204(12)
C2B C 0.60547(9) 0.78919(8) 0.43739(9)
C3B C 0.69323(9) 0.71148(8) 0.52319(8)
H2B H 0.7834(13) 0.7395(11) 0.5657(12)
C4B C 0.74251(9) 0.51512(9) 0.63767(9)
H3B H 0.8349(13) 0.5410(11) 0.6790(12)
C5B C 0.70163(9) 0.40456(9) 0.66194(9)
H4B H 0.7597(11) 0.3501(11) 0.7230(11)
C6B C 0.43150(9) 0.63647(8) 0.40002(8)
C7B C 0.52145(8) 0.55830(8) 0.48777(8)
C8B C 0.65381(9) 0.59651(8) 0.54999(8)
C9B C 0.63973(9) 1.09033(9) 0.29498(9)
C10B C 0.78192(9) 1.07193(9) 0.39012(9)
C11B C 0.58093(11) 1.21451(10) 0.29750(12)
H5B H 0.5716(16) 1.2352(14) 0.3848(16)
H6B H 0.6362(16) 1.2747(14) 0.2748(14)
H7B H 0.4906(16) 1.2181(15) 0.2356(15)
C12B C 0.62728(13) 1.05431(13) 0.16089(10)
H8B H 0.6657(14) 0.9710(14) 0.1577(14)
H9B H 0.6714(15) 1.1108(13) 0.1220(15)
H10B H 0.5317(16) 1.0533(14) 0.1087(14)
C13B C 0.80608(13) 1.14351(11) 0.51118(11)
H11B H 0.8920(16) 1.1160(14) 0.5719(15)
H12B H 0.7292(16) 1.1275(13) 0.5479(15)
H13B H 0.8143(15) 1.2302(15) 0.4962(15)
C14B C 0.89264(12) 1.09314(12) 0.33593(13)
H14B H 0.9766(16) 1.0810(13) 0.3978(15)
H15B H 0.8839(15) 1.1783(15) 0.3057(15)
H16B H 0.8850(14) 1.0367(14) 0.2638(14)
B1B B 0.65090(10) 0.91394(10) 0.40147(10)
loop_
_geom_bond_atom_site_label_1
_geom_bond_atom_site_label_2
_geom_bond_site_symmetry_1
_geom_bond_site_symmetry_2
O1 C9 1_555 1_555
O2 C10 1_555 1_555
C1 H1 1_555 1_555
C2 C1 1_555 1_555
C3 C2 1_555 1_555
H2 C3 1_555 1_555
C4 H3 1_555 1_555
C5 C4 1_555 1_555
H4 C5 1_555 1_555
C6 C1 1_555 1_555
C7 C6 1_555 1_555
C8 C3 1_555 1_555
C9 C10 1_555 1_555
C10 C13 1_555 1_555
C11 C9 1_555 1_555
H5 C11 1_555 1_555
H6 C11 1_555 1_555
H7 C11 1_555 1_555
C12 C9 1_555 1_555
H8 C12 1_555 1_555
H9 C12 1_555 1_555
H10 C12 1_555 1_555
C13 H11 1_555 1_555
H12 C13 1_555 1_555
H13 C13 1_555 1_555
C14 C10 1_555 1_555
H14 C14 1_555 1_555
H15 C14 1_555 1_555
H16 C14 1_555 1_555
B1 O1 1_555 1_555
O1B C9B 1_555 1_555
O2B C10B 1_555 1_555
C1B H1B 1_555 1_555
C2B C1B 1_555 1_555
C3B C2B 1_555 1_555
H2B C3B 1_555 1_555
C4B H3B 1_555 1_555
C5B C6 1_555 1_555
H4B C5B 1_555 1_555
C6B C5 1_555 1_555
C7B C7 1_555 1_555
C8B C3B 1_555 1_555
C9B C10B 1_555 1_555
C10B C13B 1_555 1_555
C11B C9B 1_555 1_555
H5B C11B 1_555 1_555
H6B C11B 1_555 1_555
H7B C11B 1_555 1_555
C12B C9B 1_555 1_555
H8B C12B 1_555 1_555
H9B C12B 1_555 1_555
H10B C12B 1_555 1_555
C13B H11B 1_555 1_555
H12B C13B 1_555 1_555
H13B C13B 1_555 1_555
C14B C10B 1_555 1_555
H14B C14B 1_555 1_555
H15B C14B 1_555 1_555
H16B C14B 1_555 1_555
B1B O1B 1_555 1_555
O2 B1 1_555 1_555
C2 B1 1_555 1_555
C4 C8 1_555 1_555
C7 C8 1_555 1_555
O2B B1B 1_555 1_555
C1B C6B 1_555 1_555
C2B B1B 1_555 1_555
C4B C5B 1_555 1_555
C4B C8B 1_555 1_555
C6B C7B 1_555 1_555
C7B C8B 1_555 1_555

#END
