
#######################################################################
#
#                 Cambridge Crystallographic Data Centre
#                                CCDC 
#
#######################################################################
#
# If this CIF has been generated from an entry in the Cambridge 
# Structural Database, then it will include bibliographic, chemical, 
# crystal, experimental, refinement or atomic coordinate data resulting 
# from the CCDC's data processing and validation procedures.
#
#######################################################################

data_WANLON
_chemical_formula_moiety         'C28 H32 B2 O4'
_chemical_name_systematic        
2,7-bis(4,4,5,5-Tetramethyl-1,3,2-dioxaborolan-2-yl)pyrene
_symmetry_cell_setting           orthorhombic
_symmetry_space_group_name_H-M   'P 21 21 21'
_symmetry_Int_Tables_number      19
_space_group_name_Hall           'P 2ac 2ab'
loop_
_symmetry_equiv_pos_site_id
_symmetry_equiv_pos_as_xyz
1 x,y,z
2 1/2-x,-y,1/2+z
3 -x,1/2+y,1/2-z
4 1/2+x,1/2-y,-z
_cell_length_a                   6.7931(5)
_cell_length_b                   17.790(2)
_cell_length_c                   20.368(2)
_cell_angle_alpha                90
_cell_angle_beta                 90
_cell_angle_gamma                90
_cell_volume                     2461.46
_exptl_crystal_colour            colorless
_exptl_crystal_description       'thin needle'
_cell_formula_units_Z            4
loop_
_atom_site_label
_atom_site_type_symbol
_atom_site_fract_x
_atom_site_fract_y
_atom_site_fract_z
B1 B 0.1754(4) 0.02797(16) 0.59846(14)
B2 B 0.7445(4) 0.30599(15) 0.20604(13)
O1 O 0.2791(10) -0.0349(3) 0.6201(3)
O2 O -0.0073(9) 0.0339(3) 0.6225(3)
O5 O 0.6653(3) 0.36996(9) 0.17993(8)
O6 O 0.9007(3) 0.27847(9) 0.17169(8)
C1 C 0.1761(10) -0.1538(3) 0.6636(3)
H1 H 0.3123 -0.1682 0.6732
H2 H 0.1428 -0.1687 0.6186
H3 H 0.0873 -0.1791 0.6944
C3 C 0.1544(4) -0.06996(13) 0.67061(12)
C4 C 0.2531(11) -0.0467(4) 0.7368(3)
H7 H 0.2425 0.0079 0.7425
H8 H 0.3922 -0.0612 0.7362
H9 H 0.1865 -0.0721 0.7733
C6 C -0.1967(5) -0.09132(19) 0.62462(18)
H13 H -0.3224 -0.0661 0.6162
H14 H -0.1405 -0.1087 0.5830
H15 H -0.2184 -0.1344 0.6537
C7 C -0.0561(4) -0.03707(13) 0.65675(13)
C8 C -0.1558(6) -0.0025(2) 0.71590(17)
H16 H -0.2795 0.0211 0.7022
H17 H -0.1835 -0.0417 0.7484
H18 H -0.0691 0.0355 0.7354
C9 C 0.6218(5) 0.34855(19) 0.06500(13)
H19 H 0.4922 0.3724 0.0690
H20 H 0.6749 0.3578 0.0210
H21 H 0.6088 0.2943 0.0721
C10 C 0.7600(4) 0.38127(14) 0.11603(11)
C11 C 0.7866(5) 0.46483(15) 0.10511(14)
H22 H 0.6574 0.4893 0.1037
H23 H 0.8645 0.4861 0.1411
H24 H 0.8552 0.4732 0.0634
C12 C 1.0280(5) 0.29890(16) 0.06203(13)
H25 H 1.1531 0.2734 0.0710
H26 H 0.9305 0.2620 0.0473
H27 H 1.0474 0.3368 0.0277
C13 C 0.9557(4) 0.33679(14) 0.12409(12)
C14 C 1.1186(4) 0.38194(18) 0.15583(14)
H28 H 1.2277 0.3484 0.1674
H29 H 1.1653 0.4203 0.1250
H30 H 1.0685 0.4064 0.1956
C15 C 0.6628(4) 0.26769(13) 0.26918(12)
C16 C 0.7679(4) 0.20973(12) 0.29981(11)
H31 H 0.8913 0.1948 0.2822
C17 C 0.6953(4) 0.17334(12) 0.35586(11)
C18 C 0.8017(4) 0.11462(13) 0.38816(12)
H32 H 0.9254 0.0992 0.3711
C19 C 0.7299(4) 0.08047(13) 0.44246(12)
H33 H 0.8058 0.0425 0.4633
C20 C 0.5413(4) 0.10035(13) 0.46920(11)
C21 C 0.4591(4) 0.06363(13) 0.52326(12)
H34 H 0.5334 0.0258 0.5449
C22 C 0.2706(4) 0.08077(14) 0.54632(11)
C23 C 0.1657(4) 0.13916(12) 0.51625(11)
H35 H 0.0387 0.1520 0.5323
C24 C 0.2440(4) 0.17899(13) 0.46286(11)
C25 C 0.1395(4) 0.23944(13) 0.43130(11)
H36 H 0.0148 0.2543 0.4479
C26 C 0.2145(4) 0.27524(13) 0.37846(12)
H37 H 0.1421 0.3151 0.3590
C27 C 0.4018(4) 0.25445(12) 0.35130(11)
C28 C 0.4815(4) 0.28924(13) 0.29574(11)
H38 H 0.4104 0.3289 0.2754
C29 C 0.5101(4) 0.19549(12) 0.38164(11)
C30 C 0.4319(4) 0.15853(12) 0.43804(11)
O3? O 0.2769(10) -0.0117(3) 0.6431(2)
O4? O -0.0239(9) 0.0123(3) 0.5989(3)
C2? C 0.1949(10) -0.1429(3) 0.6335(3)
H4? H 0.1715 -0.1351 0.5865
H5? H 0.1073 -0.1825 0.6497
H6? H 0.3322 -0.1580 0.6403
C5? C 0.1906(10) -0.0791(3) 0.7418(2)
H10? H 0.1656 -0.0313 0.7642
H11? H 0.3276 -0.0942 0.7489
H12? H 0.1025 -0.1178 0.7594
loop_
_geom_bond_atom_site_label_1
_geom_bond_atom_site_label_2
_geom_bond_site_symmetry_1
_geom_bond_site_symmetry_2
B1 O1 1_555 1_555
B2 O5 1_555 1_555
O1 C3 1_555 1_555
O2 B1 1_555 1_555
O5 C10 1_555 1_555
O6 B2 1_555 1_555
C1 H1 1_555 1_555
H2 C1 1_555 1_555
H3 C1 1_555 1_555
C3 C1 1_555 1_555
C4 C3 1_555 1_555
H7 C4 1_555 1_555
H8 C4 1_555 1_555
H9 C4 1_555 1_555
C6 H13 1_555 1_555
H14 C6 1_555 1_555
H15 C6 1_555 1_555
C7 O2 1_555 1_555
C8 C7 1_555 1_555
H16 C8 1_555 1_555
H17 C8 1_555 1_555
H18 C8 1_555 1_555
C9 H19 1_555 1_555
H20 C9 1_555 1_555
H21 C9 1_555 1_555
C10 C9 1_555 1_555
C11 C10 1_555 1_555
H22 C11 1_555 1_555
H23 C11 1_555 1_555
H24 C11 1_555 1_555
C12 H25 1_555 1_555
H26 C12 1_555 1_555
H27 C12 1_555 1_555
C13 O6 1_555 1_555
C14 C13 1_555 1_555
H28 C14 1_555 1_555
H29 C14 1_555 1_555
H30 C14 1_555 1_555
C15 B2 1_555 1_555
C16 C15 1_555 1_555
H31 C16 1_555 1_555
C17 C16 1_555 1_555
C18 C17 1_555 1_555
H32 C18 1_555 1_555
C19 C18 1_555 1_555
H33 C19 1_555 1_555
C20 C19 1_555 1_555
C21 C20 1_555 1_555
H34 C21 1_555 1_555
C22 B1 1_555 1_555
C23 C22 1_555 1_555
H35 C23 1_555 1_555
C24 C23 1_555 1_555
C25 C24 1_555 1_555
H36 C25 1_555 1_555
C26 C25 1_555 1_555
H37 C26 1_555 1_555
C27 C26 1_555 1_555
C28 C15 1_555 1_555
H38 C28 1_555 1_555
C29 C17 1_555 1_555
C30 C20 1_555 1_555
C3 C7 1_555 1_555
C6 C7 1_555 1_555
C10 C13 1_555 1_555
C12 C13 1_555 1_555
C21 C22 1_555 1_555
C24 C30 1_555 1_555
C27 C28 1_555 1_555
C27 C29 1_555 1_555
C29 C30 1_555 1_555

#END
