
#######################################################################
#
#                 Cambridge Crystallographic Data Centre
#                                CCDC 
#
#######################################################################
#
# If this CIF has been generated from an entry in the Cambridge 
# Structural Database, then it will include bibliographic, chemical, 
# crystal, experimental, refinement or atomic coordinate data resulting 
# from the CCDC's data processing and validation procedures.
#
#######################################################################

data_WANMUT
_chemical_formula_moiety         'C8 H10 O4'
_chemical_name_systematic        'cis-4-Cyclohexene-1,2-dicarboxylic acid'
_symmetry_cell_setting           triclinic
_symmetry_space_group_name_H-M   'P -1'
_symmetry_Int_Tables_number      2
_space_group_name_Hall           '-P 1'
loop_
_symmetry_equiv_pos_site_id
_symmetry_equiv_pos_as_xyz
1 x,y,z
2 -x,-y,-z
_cell_length_a                   10.897(1)
_cell_length_b                   6.941(1)
_cell_length_c                   6.345(1)
_cell_angle_alpha                64.28(1)
_cell_angle_beta                 74.32(1)
_cell_angle_gamma                74.81(1)
_cell_volume                     410.438
_exptl_crystal_colour            colorless
_cell_formula_units_Z            2
loop_
_atom_site_label
_atom_site_type_symbol
_atom_site_fract_x
_atom_site_fract_y
_atom_site_fract_z
C1 C 0.6579(2) 0.4326(3) 0.2869(3)
C2 C 0.7409(2) 0.4127(3) 0.4579(3)
C3 C 0.7855(2) 0.6290(3) 0.3837(3)
C4 C 0.8301(2) 0.7293(3) 0.1250(4)
C5 C 0.8070(2) 0.6714(4) -0.0298(4)
C6 C 0.7298(2) 0.4991(3) 0.0311(3)
C7 C 0.5939(1) 0.2367(3) 0.3765(3)
C8 C 0.8535(1) 0.2304(3) 0.4748(3)
O1 O 0.5668(1) 0.1955(2) 0.2152(2)
O2 O 0.5649(1) 0.1315(2) 0.5910(2)
O3 O 0.8682(1) 0.1019(2) 0.3810(2)
O4 O 0.9330(1) 0.2148(2) 0.6058(2)
H1 H 0.5867(16) 0.5495(27) 0.2899(27)
H2 H 0.6904(15) 0.3757(25) 0.6136(27)
H3 H 0.7084(18) 0.7257(29) 0.4375(30)
H4 H 0.8562(19) 0.6045(29) 0.4688(31)
H5 H 0.8803(20) 0.8517(35) 0.0672(34)
H6 H 0.8360(23) 0.7459(40) -0.1892(44)
H7 H 0.7876(16) 0.3706(29) 0.0061(28)
H8 H 0.6632(17) 0.5576(29) -0.0736(32)
H9 H 0.5136(28) 0.0587(50) 0.2998(49)
H10 H 1.0052(23) 0.0900(38) 0.6109(38)
loop_
_geom_bond_atom_site_label_1
_geom_bond_atom_site_label_2
_geom_bond_site_symmetry_1
_geom_bond_site_symmetry_2
C1 C2 1_555 1_555
C2 C3 1_555 1_555
C3 C4 1_555 1_555
C4 C5 1_555 1_555
C5 C6 1_555 1_555
C6 C1 1_555 1_555
C7 C1 1_555 1_555
C8 C2 1_555 1_555
O1 C7 1_555 1_555
O2 C7 1_555 1_555
O3 C8 1_555 1_555
O4 C8 1_555 1_555
H1 C1 1_555 1_555
H2 C2 1_555 1_555
H3 C3 1_555 1_555
H4 C3 1_555 1_555
H5 C4 1_555 1_555
H6 C5 1_555 1_555
H7 C6 1_555 1_555
H8 C6 1_555 1_555
H9 O1 1_555 1_555
H10 O4 1_555 1_555

#END
