
#######################################################################
#
#                 Cambridge Crystallographic Data Centre
#                                CCDC 
#
#######################################################################
#
# If this CIF has been generated from an entry in the Cambridge 
# Structural Database, then it will include bibliographic, chemical, 
# crystal, experimental, refinement or atomic coordinate data resulting 
# from the CCDC's data processing and validation procedures.
#
#######################################################################

data_WANNAC
_chemical_formula_moiety         
'C30 H37 N6 1+,C16 H36 N1 1+,C4 H10 O1,H1 O4 P1 2-,H2 O1'
_chemical_name_systematic        
'N-(1H-Pyrrol-2-ylmethylene)(2,4,6-triethyl-3,5-bis(((1H-pyrrol-2-ylmethylene)amino)methyl)phenyl)methanaminium tetrabutylammonium hydrogen phosphate diethyl ether solvate monohydrate'
_symmetry_cell_setting           monoclinic
_symmetry_space_group_name_H-M   'P 21/c'
_symmetry_Int_Tables_number      14
_space_group_name_Hall           '-P 2ybc'
loop_
_symmetry_equiv_pos_site_id
_symmetry_equiv_pos_as_xyz
1 x,y,z
2 -x,1/2+y,1/2-z
3 -x,-y,-z
4 x,1/2-y,1/2+z
_cell_length_a                   23.760(7)
_cell_length_b                   26.593(8)
_cell_length_c                   17.278(5)
_cell_angle_alpha                90
_cell_angle_beta                 90.718(4)
_cell_angle_gamma                90
_cell_volume                     10916.2
_exptl_crystal_colour            colorless
_exptl_crystal_description       prisms
_cell_formula_units_Z            8
loop_
_atom_site_label
_atom_site_type_symbol
_atom_site_fract_x
_atom_site_fract_y
_atom_site_fract_z
P1 P 0.02771(5) 0.47904(5) 0.11135(8)
O1 O 0.04724(14) 0.52364(13) 0.06711(19)
O2 O -0.01110(15) 0.48976(15) 0.1767(2)
O3 O 0.07869(15) 0.44767(15) 0.1424(2)
O4 O -0.00271(19) 0.44087(16) 0.0553(2)
N1 N 0.14472(18) 0.50211(19) -0.0134(2)
H1 H 0.1164 0.5031 0.0190
N2 N -0.05678(18) 0.57160(18) 0.2462(3)
H2 H -0.0426 0.5458 0.2212
N3 N -0.06252(17) 0.42014(17) 0.2647(2)
H3 H -0.0452 0.4422 0.2354
N4 N 0.18672(18) 0.48206(19) 0.1433(2)
H4 H 0.1498 0.4803 0.1389
N5 N 0.05212(19) 0.60742(17) 0.3781(3)
N6 N 0.04188(19) 0.38683(17) 0.4046(3)
C1 C 0.10744(19) 0.49641(19) 0.4121(3)
C2 C 0.12273(19) 0.44747(19) 0.3865(3)
C3 C 0.15500(19) 0.4418(2) 0.3203(3)
C4 C 0.1759(2) 0.4852(3) 0.2842(3)
C5 C 0.1599(2) 0.5332(2) 0.3094(3)
C6 C 0.1267(2) 0.5390(2) 0.3731(3)
C7 C 0.0740(2) 0.5019(2) 0.4854(3)
H5 H 0.0472 0.4735 0.4887
H6 H 0.0518 0.5333 0.4822
C8 C 0.1096(2) 0.5031(2) 0.5595(3)
H7 H 0.1363 0.4750 0.5593
H8 H 0.0851 0.5001 0.6044
H9 H 0.1303 0.5349 0.5624
C9 C 0.1675(3) 0.3891(2) 0.2929(4)
H10 H 0.1705 0.3898 0.2358
H11 H 0.1350 0.3675 0.3057
C10 C 0.2207(3) 0.3648(3) 0.3263(4)
H12 H 0.2507 0.3900 0.3301
H13 H 0.2327 0.3374 0.2924
H14 H 0.2130 0.3514 0.3779
C11 C 0.1766(2) 0.5792(3) 0.2617(3)
C12 C 0.1374(4) 0.5954(3) 0.2060(4)
H15 H 0.1056 0.6115 0.2317
H16 H 0.1239 0.5665 0.1758
H17 H 0.1554 0.6196 0.1714
C13 C 0.2150(2) 0.4777(3) 0.2162(3)
H18 H 0.2455 0.5029 0.2191
H19 H 0.2324 0.4439 0.2201
C14 C 0.2173(2) 0.4885(2) 0.0862(3)
H20 H 0.2567 0.4893 0.0960
C15 C 0.1997(2) 0.4949(2) 0.0074(3)
C16 C 0.2311(2) 0.4963(2) -0.0572(3)
H21 H 0.2709 0.4936 -0.0598
C17 C 0.1940(2) 0.5026(3) -0.1184(3)
H22 H 0.2045 0.5033 -0.1713
C18 C 0.1399(2) 0.5076(2) -0.0928(3)
H23 H 0.1067 0.5136 -0.1227
C19 C 0.1083(2) 0.5898(2) 0.4009(3)
H24 H 0.1105 0.5897 0.4582
H25 H 0.1360 0.6148 0.3826
C20 C 0.0233(2) 0.5825(2) 0.3299(3)
H26 H 0.0394 0.5527 0.3095
C21 C -0.0315(2) 0.5961(2) 0.3040(3)
C22 C -0.0685(3) 0.6332(2) 0.3275(4)
H27 H -0.0617 0.6564 0.3684
C23 C -0.1165(3) 0.6312(3) 0.2824(4)
H28 H -0.1488 0.6520 0.2855
C24 C -0.1073(3) 0.5924(3) 0.2321(4)
H29 H -0.1330 0.5818 0.1929
C25 C 0.1002(2) 0.4020(2) 0.4263(3)
H30 H 0.1256 0.3734 0.4157
H31 H 0.1015 0.4082 0.4828
C26 C 0.0182(2) 0.4071(2) 0.3467(3)
H32 H 0.0387 0.4304 0.3164
C27 C -0.0399(2) 0.3955(2) 0.3253(3)
C28 C -0.0796(2) 0.3632(2) 0.3558(3)
H33 H -0.0746 0.3414 0.3988
C29 C -0.1275(2) 0.3691(2) 0.3118(3)
H34 H -0.1618 0.3513 0.3184
C30 C -0.1174(2) 0.4050(2) 0.2565(3)
H35 H -0.1438 0.4171 0.2192
N7 N 0.0791(2) 0.69428(18) -0.0580(3)
C31 C 0.1195(3) 0.6518(3) -0.0483(4)
H36 H 0.1010 0.6240 -0.0204
H37 H 0.1306 0.6393 -0.0998
C32 C 0.1697(3) 0.6679(3) -0.0050(4)
H38 H 0.1587 0.6815 0.0460
H39 H 0.1892 0.6949 -0.0337
C33 C 0.2088(4) 0.6234(3) 0.0063(5)
H40 H 0.1886 0.5976 0.0364
H41 H 0.2164 0.6089 -0.0453
C34 C 0.2644(4) 0.6328(3) 0.0459(5)
H42 H 0.2776 0.6667 0.0333
H43 H 0.2919 0.6080 0.0283
H44 H 0.2600 0.6298 0.1020
C35 C 0.1051(3) 0.7396(2) -0.0914(3)
H45 H 0.1334 0.7529 -0.0542
H46 H 0.0757 0.7657 -0.0985
C36 C 0.1335(3) 0.7306(3) -0.1687(4)
H47 H 0.1051 0.7196 -0.2075
H48 H 0.1620 0.7037 -0.1630
C37 C 0.1618(3) 0.7790(3) -0.1961(4)
H49 H 0.1889 0.7909 -0.1563
H50 H 0.1330 0.8055 -0.2042
C38 C 0.1929(4) 0.7689(3) -0.2732(5)
H51 H 0.2172 0.7394 -0.2672
H52 H 0.2158 0.7982 -0.2864
H53 H 0.1652 0.7628 -0.3147
C39 C 0.0354(3) 0.6749(2) -0.1079(4)
H54 H 0.0216 0.6430 -0.0855
H55 H 0.0521 0.6668 -0.1586
C40 C -0.0147(3) 0.7089(3) -0.1219(4)
H56 H -0.0009 0.7408 -0.1444
H57 H -0.0314 0.7170 -0.0713
C41 C -0.0615(4) 0.6880(3) -0.1754(5)
H58 H -0.0740 0.6554 -0.1537
H59 H -0.0447 0.6808 -0.2263
C42 C -0.1160(3) 0.7218(3) -0.1897(5)
H60 H -0.1440 0.7141 -0.1503
H61 H -0.1318 0.7146 -0.2412
H62 H -0.1056 0.7574 -0.1864
C43 C 0.0587(3) 0.7116(2) 0.0190(3)
C44 C 0.0272(3) 0.6703(3) 0.0618(4)
H63 H -0.0041 0.6581 0.0284
H64 H 0.0531 0.6417 0.0710
C45 C 0.0037(4) 0.6869(4) 0.1382(5)
H65 H -0.0094 0.6573 0.1643
H66 H -0.0288 0.7073 0.1274
C46 C 0.0362(7) 0.7114(7) 0.1925(7)
H67 H 0.0210 0.7452 0.2008
H68 H 0.0744 0.7140 0.1722
H69 H 0.0371 0.6931 0.2417
P2 P 0.52934(5) 0.51919(5) 0.38999(8)
O5 O 0.54210(13) 0.47104(13) 0.43139(19)
O6 O 0.49158(17) 0.51452(15) 0.3225(2)
O7 O 0.58571(15) 0.54475(15) 0.3652(2)
O8 O 0.50423(16) 0.55848(14) 0.4466(2)
N8 N 0.68407(18) 0.49537(18) 0.3593(2)
H70 H 0.6474 0.4989 0.3629
N9 N 0.55016(17) 0.61243(17) 0.0982(2)
N10 N 0.54192(18) 0.39128(17) 0.1165(3)
N11 N 0.64091(17) 0.4773(2) 0.5134(3)
H71 H 0.6123 0.4776 0.4806
N12 N 0.44091(17) 0.43489(18) 0.2536(3)
H72 H 0.4594 0.4587 0.2786
N13 N 0.44277(18) 0.58723(19) 0.2337(3)
H73 H 0.4573 0.5637 0.2637
C47 C 0.6222(2) 0.4532(2) 0.1216(3)
C48 C 0.60654(19) 0.4981(2) 0.0839(3)
C49 C 0.62578(19) 0.54352(19) 0.1160(3)
C50 C 0.6571(2) 0.5449(2) 0.1845(3)
C51 C 0.6737(2) 0.4990(2) 0.2176(3)
C52 C 0.6544(2) 0.4541(2) 0.1890(3)
C53 C 0.6678(2) 0.4043(2) 0.2293(4)
H74 H 0.6711 0.4105 0.2856
H75 H 0.6357 0.3811 0.2208
C54 C 0.7211(3) 0.3783(2) 0.2027(4)
H76 H 0.7167 0.3683 0.1484
H77 H 0.7280 0.3484 0.2345
H78 H 0.7530 0.4014 0.2081
C55 C 0.5732(2) 0.4973(2) 0.0112(3)
H79 H 0.5503 0.5283 0.0076
H80 H 0.5471 0.4682 0.0120
C56 C 0.6108(3) 0.4935(3) -0.0601(3)
H81 H 0.6345 0.5236 -0.0635
H82 H 0.5872 0.4908 -0.1069
H83 H 0.6348 0.4636 -0.0556
C57 C 0.6748(2) 0.5945(2) 0.2229(3)
H84 H 0.6789 0.5889 0.2794
H85 H 0.6445 0.6195 0.2147
C58 C 0.7308(2) 0.6164(2) 0.1919(4)
H86 H 0.7618 0.5935 0.2048
H87 H 0.7379 0.6493 0.2159
H88 H 0.7280 0.6204 0.1356
C59 C 0.7130(2) 0.4995(2) 0.2851(3)
H89 H 0.7398 0.4711 0.2802
H90 H 0.7350 0.5311 0.2845
C60 C 0.7145(2) 0.4865(2) 0.4174(3)
H91 H 0.7537 0.4830 0.4082
C61 C 0.6976(2) 0.4813(3) 0.4942(3)
C62 C 0.7268(2) 0.4809(3) 0.5607(4)
H92 H 0.7667 0.4816 0.5644
C63 C 0.6911(3) 0.4792(3) 0.6239(3)
H93 H 0.7011 0.4816 0.6772
C64 C 0.6377(3) 0.4731(3) 0.5917(3)
H94 H 0.6042 0.4669 0.6198
C65 C 0.5984(2) 0.4045(2) 0.0890(3)
H95 H 0.5969 0.4072 0.0318
H96 H 0.6245 0.3768 0.1024
C66 C 0.5198(2) 0.4165(2) 0.1692(3)
H97 H 0.5411 0.4427 0.1928
C67 C 0.4613(2) 0.4072(2) 0.1966(3)
C68 C 0.4211(3) 0.3752(2) 0.1706(4)
H98 H 0.4246 0.3517 0.1295
C69 C 0.3741(3) 0.3832(3) 0.2151(4)
H99 H 0.3393 0.3659 0.2104
C70 C 0.3867(3) 0.4208(3) 0.2677(4)
H100 H 0.3626 0.4342 0.3060
C71 C 0.6073(2) 0.5915(2) 0.0781(3)
H101 H 0.6080 0.5862 0.0214
H102 H 0.6358 0.6175 0.0906
C72 C 0.5250(2) 0.5921(2) 0.1527(3)
H103 H 0.5427 0.5663 0.1822
C73 C 0.4675(2) 0.6088(2) 0.1709(3)
C74 C 0.4320(2) 0.6436(2) 0.1401(3)
H104 H 0.4385 0.6642 0.0962
C75 C 0.3843(3) 0.6431(3) 0.1857(4)
H105 H 0.3520 0.6637 0.1785
C76 C 0.3916(2) 0.6091(3) 0.2408(4)
H106 H 0.3650 0.6013 0.2796
N14 N 0.4243(2) 0.31351(19) 0.4780(3)
C77 C 0.3972(3) 0.2694(2) 0.4319(3)
H107 H 0.4262 0.2433 0.4245
H108 H 0.3673 0.2545 0.4641
C78 C 0.3718(3) 0.2823(2) 0.3535(3)
H109 H 0.3421 0.3080 0.3594
H110 H 0.4012 0.2961 0.3195
C79 C 0.3473(3) 0.2359(3) 0.3184(4)
H111 H 0.3177 0.2226 0.3526
H112 H 0.3771 0.2100 0.3143
C80 C 0.3221(3) 0.2457(3) 0.2384(4)
H113 H 0.2868 0.2645 0.2435
H114 H 0.3145 0.2136 0.2125
H115 H 0.3486 0.2654 0.2077
C81 C 0.4762(3) 0.3371(2) 0.4344(4)
H116 H 0.4625 0.3523 0.3854
H117 H 0.4922 0.3644 0.4668
C82 C 0.5229(3) 0.2998(3) 0.4160(4)
H118 H 0.5383 0.2845 0.4640
H119 H 0.5086 0.2726 0.3818
C83 C 0.5662(3) 0.3294(3) 0.3767(5)
H120 H 0.5792 0.3574 0.4101
H121 H 0.5512 0.3434 0.3276
C84 C 0.6134(4) 0.2941(4) 0.3614(5)
H122 H 0.6275 0.2802 0.4105
H123 H 0.6438 0.3121 0.3356
H124 H 0.6000 0.2667 0.3280
C85 C 0.4417(3) 0.2908(2) 0.5572(3)
H125 H 0.4075 0.2785 0.5833
H126 H 0.4664 0.2615 0.5481
C86 C 0.4728(4) 0.3278(3) 0.6122(4)
H127 H 0.4527 0.3603 0.6149
H128 H 0.5117 0.3339 0.5947
C87 C 0.4728(5) 0.2989(4) 0.6973(6)
H129 H 0.4820 0.3225 0.7398
H130 H 0.4358 0.2832 0.7074
C88 C 0.5125(5) 0.2645(5) 0.6897(7)
H131 H 0.4997 0.2386 0.6531
H132 H 0.5204 0.2489 0.7401
H133 H 0.5468 0.2803 0.6704
C89 C 0.3813(3) 0.3582(2) 0.4903(4)
H134 H 0.3992 0.3839 0.5240
H135 H 0.3728 0.3741 0.4397
C90 C 0.3244(3) 0.3409(3) 0.5279(5)
H136 H 0.3044 0.3163 0.4945
H137 H 0.3312 0.3256 0.5795
C91 C 0.2936(3) 0.3860(3) 0.5340(5)
H138 H 0.2872 0.4012 0.4823
H139 H 0.3139 0.4105 0.5672
C92 C 0.2377(3) 0.3709(4) 0.5705(6)
H140 H 0.2242 0.3395 0.5471
H141 H 0.2098 0.3975 0.5615
H142 H 0.2432 0.3661 0.6263
O9 O 0.7176(3) 0.2953(3) 0.5468(4)
C93 C 0.6736(5) 0.2951(4) 0.6031(7)
H143 H 0.6384 0.3099 0.5819
H144 H 0.6850 0.3135 0.6506
C94 C 0.6670(5) 0.2406(6) 0.6185(8)
H145 H 0.6652 0.2222 0.5693
H146 H 0.6322 0.2349 0.6471
H147 H 0.6991 0.2285 0.6493
C95 C 0.7284(5) 0.3403(4) 0.5191(7)
H148 H 0.7396 0.3632 0.5618
H149 H 0.6944 0.3542 0.4934
C96 C 0.7773(4) 0.3358(4) 0.4596(7)
H150 H 0.8108 0.3531 0.4800
H151 H 0.7656 0.3513 0.4105
H152 H 0.7861 0.3003 0.4510
O10 O -0.2129(3) 0.6982(3) 0.0161(5)
C97 C -0.2678(5) 0.6490(5) -0.0649(7)
C98 C -0.2206(4) 0.6554(3) -0.0202(7)
C99 C -0.1660(3) 0.7035(4) 0.0489(8)
C100 C -0.1717(5) 0.7430(6) 0.1064(7)
O11 O 0.50874(18) 0.67967(15) -0.0140(2)
O12 O -0.00917(19) 0.32113(15) 0.5162(2)
C101? C 0.2196(9) 0.6099(7) 0.2858(14)
C102? C -0.1865(4) 0.7120(4) 0.0616(5)
C103? C -0.0286(9) 0.7286(6) 0.1471(10)
C104? C -0.1539(7) 0.7650(5) 0.0732(9)
H153? H 0.2192 0.6410 0.2553
H154? H 0.2548 0.5918 0.2770
H155? H 0.2167 0.6182 0.3409
H156? H -0.0192 0.6598 0.1567
H157? H 0.0349 0.6901 0.1737
H158? H -0.0454 0.7295 0.1985
H159? H -0.0584 0.7263 0.1076
H160? H -0.0066 0.7593 0.1390
loop_
_geom_bond_atom_site_label_1
_geom_bond_atom_site_label_2
_geom_bond_site_symmetry_1
_geom_bond_site_symmetry_2
P1 O1 1_555 1_555
O2 P1 1_555 1_555
O3 P1 1_555 1_555
O4 P1 1_555 1_555
N1 H1 1_555 1_555
N2 H2 1_555 1_555
N3 H3 1_555 1_555
N4 H4 1_555 1_555
N5 C19 1_555 1_555
N6 C25 1_555 1_555
C1 C2 1_555 1_555
C2 C3 1_555 1_555
C3 C4 1_555 1_555
C4 C5 1_555 1_555
C5 C6 1_555 1_555
C6 C1 1_555 1_555
C7 C1 1_555 1_555
H5 C7 1_555 1_555
H6 C7 1_555 1_555
C8 C7 1_555 1_555
H7 C8 1_555 1_555
H8 C8 1_555 1_555
H9 C8 1_555 1_555
C9 C3 1_555 1_555
H10 C9 1_555 1_555
H11 C9 1_555 1_555
C10 C9 1_555 1_555
H12 C10 1_555 1_555
H13 C10 1_555 1_555
H14 C10 1_555 1_555
C11 C5 1_555 1_555
C12 C11 1_555 1_555
H15 C12 1_555 1_555
H16 C12 1_555 1_555
H17 C12 1_555 1_555
C13 N4 1_555 1_555
H18 C13 1_555 1_555
H19 C13 1_555 1_555
C14 N4 1_555 1_555
H20 C14 1_555 1_555
C15 N1 1_555 1_555
C16 C15 1_555 1_555
H21 C16 1_555 1_555
C17 C16 1_555 1_555
H22 C17 1_555 1_555
C18 N1 1_555 1_555
H23 C18 1_555 1_555
C19 C6 1_555 1_555
H24 C19 1_555 1_555
H25 C19 1_555 1_555
C20 N5 1_555 1_555
H26 C20 1_555 1_555
C21 N2 1_555 1_555
C22 C21 1_555 1_555
H27 C22 1_555 1_555
C23 C22 1_555 1_555
H28 C23 1_555 1_555
C24 N2 1_555 1_555
H29 C24 1_555 1_555
C25 C2 1_555 1_555
H30 C25 1_555 1_555
H31 C25 1_555 1_555
C26 N6 1_555 1_555
H32 C26 1_555 1_555
C27 N3 1_555 1_555
C28 C27 1_555 1_555
H33 C28 1_555 1_555
C29 C28 1_555 1_555
H34 C29 1_555 1_555
C30 N3 1_555 1_555
H35 C30 1_555 1_555
N7 C31 1_555 1_555
C31 H36 1_555 1_555
H37 C31 1_555 1_555
C32 C31 1_555 1_555
H38 C32 1_555 1_555
H39 C32 1_555 1_555
C33 C32 1_555 1_555
H40 C33 1_555 1_555
H41 C33 1_555 1_555
C34 C33 1_555 1_555
H42 C34 1_555 1_555
H43 C34 1_555 1_555
H44 C34 1_555 1_555
C35 N7 1_555 1_555
H45 C35 1_555 1_555
H46 C35 1_555 1_555
C36 C35 1_555 1_555
H47 C36 1_555 1_555
H48 C36 1_555 1_555
C37 C36 1_555 1_555
H49 C37 1_555 1_555
H50 C37 1_555 1_555
C38 C37 1_555 1_555
H51 C38 1_555 1_555
H52 C38 1_555 1_555
H53 C38 1_555 1_555
C39 N7 1_555 1_555
H54 C39 1_555 1_555
H55 C39 1_555 1_555
C40 C39 1_555 1_555
H56 C40 1_555 1_555
H57 C40 1_555 1_555
C41 C40 1_555 1_555
H58 C41 1_555 1_555
H59 C41 1_555 1_555
C42 C41 1_555 1_555
H60 C42 1_555 1_555
H61 C42 1_555 1_555
H62 C42 1_555 1_555
C43 N7 1_555 1_555
C44 C43 1_555 1_555
H63 C44 1_555 1_555
H64 C44 1_555 1_555
C45 C44 1_555 1_555
H65 C45 1_555 1_555
H66 C45 1_555 1_555
C46 C45 1_555 1_555
H67 C46 1_555 1_555
H68 C46 1_555 1_555
H69 C46 1_555 1_555
P2 O5 1_555 1_555
O6 P2 1_555 1_555
O7 P2 1_555 1_555
O8 P2 1_555 1_555
N8 H70 1_555 1_555
N9 C71 1_555 1_555
N10 C65 1_555 1_555
N11 H71 1_555 1_555
N12 H72 1_555 1_555
N13 H73 1_555 1_555
C47 C48 1_555 1_555
C48 C49 1_555 1_555
C49 C50 1_555 1_555
C50 C51 1_555 1_555
C51 C52 1_555 1_555
C52 C47 1_555 1_555
C53 C52 1_555 1_555
H74 C53 1_555 1_555
H75 C53 1_555 1_555
C54 C53 1_555 1_555
H76 C54 1_555 1_555
H77 C54 1_555 1_555
H78 C54 1_555 1_555
C55 C48 1_555 1_555
H79 C55 1_555 1_555
H80 C55 1_555 1_555
C56 C55 1_555 1_555
H81 C56 1_555 1_555
H82 C56 1_555 1_555
H83 C56 1_555 1_555
C57 C50 1_555 1_555
H84 C57 1_555 1_555
H85 C57 1_555 1_555
C58 C57 1_555 1_555
H86 C58 1_555 1_555
H87 C58 1_555 1_555
H88 C58 1_555 1_555
C59 N8 1_555 1_555
H89 C59 1_555 1_555
H90 C59 1_555 1_555
C60 N8 1_555 1_555
H91 C60 1_555 1_555
C61 N11 1_555 1_555
C62 C61 1_555 1_555
H92 C62 1_555 1_555
C63 C62 1_555 1_555
H93 C63 1_555 1_555
C64 N11 1_555 1_555
H94 C64 1_555 1_555
C65 C47 1_555 1_555
H95 C65 1_555 1_555
H96 C65 1_555 1_555
C66 N10 1_555 1_555
H97 C66 1_555 1_555
C67 N12 1_555 1_555
C68 C67 1_555 1_555
H98 C68 1_555 1_555
C69 C68 1_555 1_555
H99 C69 1_555 1_555
C70 N12 1_555 1_555
H100 C70 1_555 1_555
C71 C49 1_555 1_555
H101 C71 1_555 1_555
H102 C71 1_555 1_555
C72 N9 1_555 1_555
H103 C72 1_555 1_555
C73 N13 1_555 1_555
C74 C73 1_555 1_555
H104 C74 1_555 1_555
C75 C74 1_555 1_555
H105 C75 1_555 1_555
C76 N13 1_555 1_555
H106 C76 1_555 1_555
N14 C77 1_555 1_555
C77 H107 1_555 1_555
H108 C77 1_555 1_555
C78 C77 1_555 1_555
H109 C78 1_555 1_555
H110 C78 1_555 1_555
C79 C78 1_555 1_555
H111 C79 1_555 1_555
H112 C79 1_555 1_555
C80 C79 1_555 1_555
H113 C80 1_555 1_555
H114 C80 1_555 1_555
H115 C80 1_555 1_555
C81 N14 1_555 1_555
H116 C81 1_555 1_555
H117 C81 1_555 1_555
C82 C81 1_555 1_555
H118 C82 1_555 1_555
H119 C82 1_555 1_555
C83 C82 1_555 1_555
H120 C83 1_555 1_555
H121 C83 1_555 1_555
C84 C83 1_555 1_555
H122 C84 1_555 1_555
H123 C84 1_555 1_555
H124 C84 1_555 1_555
C85 N14 1_555 1_555
H125 C85 1_555 1_555
H126 C85 1_555 1_555
C86 C85 1_555 1_555
H127 C86 1_555 1_555
H128 C86 1_555 1_555
C87 C86 1_555 1_555
H129 C87 1_555 1_555
H130 C87 1_555 1_555
C88 C87 1_555 1_555
H131 C88 1_555 1_555
H132 C88 1_555 1_555
H133 C88 1_555 1_555
C89 N14 1_555 1_555
H134 C89 1_555 1_555
H135 C89 1_555 1_555
C90 C89 1_555 1_555
H136 C90 1_555 1_555
H137 C90 1_555 1_555
C91 C90 1_555 1_555
H138 C91 1_555 1_555
H139 C91 1_555 1_555
C92 C91 1_555 1_555
H140 C92 1_555 1_555
H141 C92 1_555 1_555
H142 C92 1_555 1_555
O9 C93 1_555 1_555
C93 H143 1_555 1_555
H144 C93 1_555 1_555
C94 C93 1_555 1_555
H145 C94 1_555 1_555
H146 C94 1_555 1_555
H147 C94 1_555 1_555
C95 O9 1_555 1_555
H148 C95 1_555 1_555
H149 C95 1_555 1_555
C96 C95 1_555 1_555
H150 C96 1_555 1_555
H151 C96 1_555 1_555
H152 C96 1_555 1_555
O10 C98 1_555 1_555
C97 C98 1_555 1_555
C99 O10 1_555 1_555
C100 C99 1_555 1_555
C4 C13 1_555 1_555
C14 C15 1_555 1_555
C17 C18 1_555 1_555
C20 C21 1_555 1_555
C23 C24 1_555 1_555
C26 C27 1_555 1_555
C29 C30 1_555 1_555
C51 C59 1_555 1_555
C60 C61 1_555 1_555
C63 C64 1_555 1_555
C66 C67 1_555 1_555
C69 C70 1_555 1_555
C72 C73 1_555 1_555
C75 C76 1_555 1_555

#END
