
#######################################################################
#
#                 Cambridge Crystallographic Data Centre
#                                CCDC 
#
#######################################################################
#
# If this CIF has been generated from an entry in the Cambridge 
# Structural Database, then it will include bibliographic, chemical, 
# crystal, experimental, refinement or atomic coordinate data resulting 
# from the CCDC's data processing and validation procedures.
#
#######################################################################

data_WANNII03
_chemical_formula_moiety         'C20 H14 O2'
_chemical_name_systematic        (R)-(+)-1,1'-binaphthalene-2,2'-diol
_symmetry_cell_setting           trigonal
_symmetry_space_group_name_H-M   'P 31'
_symmetry_Int_Tables_number      144
_space_group_name_Hall           'P 31'
loop_
_symmetry_equiv_pos_site_id
_symmetry_equiv_pos_as_xyz
1 x,y,z
2 -y,x-y,1/3+z
3 -x+y,-x,2/3+z
_cell_length_a                   10.784(3)
_cell_length_b                   10.784(3)
_cell_length_c                   10.863(3)
_cell_angle_alpha                90
_cell_angle_beta                 90
_cell_angle_gamma                120
_cell_volume                     1094.06
_exptl_crystal_colour            colorless
_exptl_crystal_description       block
_cell_formula_units_Z            3
loop_
_atom_site_label
_atom_site_type_symbol
_atom_site_fract_x
_atom_site_fract_y
_atom_site_fract_z
O1 O 0.2231(3) -0.0411(3) 0.4509(2)
H1 H 0.1917 0.0138 0.4429
O2 O 0.0432(2) -0.0745(3) 0.1836(3)
H2 H 0.1021 -0.1013 0.1812
C1 C 0.3173(3) -0.0185(3) 0.3580(3)
C2 C 0.3948(4) -0.0903(4) 0.3685(4)
H3 H 0.3789 -0.1507 0.4351
C3 C 0.4926(4) -0.0719(4) 0.2819(4)
H4 H 0.5428 -0.1210 0.2895
C4 C 0.5203(3) 0.0194(3) 0.1808(3)
C5 C 0.6238(3) 0.0416(4) 0.0908(4)
H5 H 0.6739 -0.0076 0.0970
C6 C 0.6517(4) 0.1327(4) -0.0042(4)
H6 H 0.7211 0.1466 -0.0620
C7 C 0.5762(3) 0.2057(3) -0.0154(3)
H7 H 0.5952 0.2682 -0.0810
C8 C 0.4742(3) 0.1861(3) 0.0694(3)
H8 H 0.4250 0.2360 0.0607
C9 C 0.4422(3) 0.0924(3) 0.1693(3)
C10 C 0.3370(3) 0.0701(3) 0.2593(3)
C11 C 0.2504(3) 0.1428(3) 0.2508(3)
C12 C 0.3088(4) 0.2874(3) 0.2881(3)
C13 C 0.4518(4) 0.3714(3) 0.3292(3)
H9 H 0.5110 0.3316 0.3292
C14 C 0.5052(4) 0.5079(4) 0.3683(4)
H10 H 0.6006 0.5612 0.3924
C15 C 0.4183(6) 0.5687(4) 0.3728(4)
H11 H 0.4545 0.6611 0.4031
C16 C 0.2812(6) 0.4944(4) 0.3332(4)
H12 H 0.2243 0.5367 0.3357
C17 C 0.2231(4) 0.3527(4) 0.2880(3)
C18 C 0.0809(4) 0.2708(5) 0.2462(4)
H13 H 0.0236 0.3126 0.2437
C19 C 0.0249(4) 0.1331(5) 0.2097(4)
H14 H -0.0689 0.0819 0.1815
C20 C 0.1103(3) 0.0677(4) 0.2148(3)
loop_
_geom_bond_atom_site_label_1
_geom_bond_atom_site_label_2
_geom_bond_site_symmetry_1
_geom_bond_site_symmetry_2
O1 H1 1_555 1_555
O2 H2 1_555 1_555
C1 O1 1_555 1_555
C2 C1 1_555 1_555
H3 C2 1_555 1_555
C3 C2 1_555 1_555
H4 C3 1_555 1_555
C4 C3 1_555 1_555
C5 C4 1_555 1_555
H5 C5 1_555 1_555
C6 C5 1_555 1_555
H6 C6 1_555 1_555
C7 C6 1_555 1_555
H7 C7 1_555 1_555
C8 C7 1_555 1_555
H8 C8 1_555 1_555
C9 C4 1_555 1_555
C10 C1 1_555 1_555
C11 C10 1_555 1_555
C12 C11 1_555 1_555
C13 C12 1_555 1_555
H9 C13 1_555 1_555
C14 C13 1_555 1_555
H10 C14 1_555 1_555
C15 C14 1_555 1_555
H11 C15 1_555 1_555
C16 C15 1_555 1_555
H12 C16 1_555 1_555
C17 C12 1_555 1_555
C18 C17 1_555 1_555
H13 C18 1_555 1_555
C19 C18 1_555 1_555
H14 C19 1_555 1_555
C20 O2 1_555 1_555
C8 C9 1_555 1_555
C9 C10 1_555 1_555
C11 C20 1_555 1_555
C16 C17 1_555 1_555
C19 C20 1_555 1_555

#END
