
#######################################################################
#
#                 Cambridge Crystallographic Data Centre
#                                CCDC 
#
#######################################################################
#
# If this CIF has been generated from an entry in the Cambridge 
# Structural Database, then it will include bibliographic, chemical, 
# crystal, experimental, refinement or atomic coordinate data resulting 
# from the CCDC's data processing and validation procedures.
#
#######################################################################

data_WANNEE01
_chemical_formula_moiety         'C4 H5 Br1 O4'
_chemical_name_systematic        '2-bromosuccinic acid'
_symmetry_cell_setting           orthorhombic
_symmetry_space_group_name_H-M   'P 21 21 21'
_symmetry_Int_Tables_number      19
_space_group_name_Hall           'P 2ac 2ab'
loop_
_symmetry_equiv_pos_site_id
_symmetry_equiv_pos_as_xyz
1 x,y,z
2 1/2-x,-y,1/2+z
3 1/2+x,1/2-y,-z
4 -x,1/2+y,1/2-z
_cell_length_a                   7.5647(5)
_cell_length_b                   8.6337(7)
_cell_length_c                   9.2380(7)
_cell_angle_alpha                90
_cell_angle_beta                 90
_cell_angle_gamma                90
_cell_volume                     603.346
_exptl_crystal_colour            colorless
_exptl_crystal_description       plate
_chemical_melting_point          '434-436 K'
_cell_formula_units_Z            4
loop_
_atom_site_label
_atom_site_type_symbol
_atom_site_fract_x
_atom_site_fract_y
_atom_site_fract_z
Br1 Br 0.90282(7) 0.27799(7) 0.94891(7)
O1 O 1.2290(5) 0.5249(5) 0.8573(5)
H1 H 1.336(4) 0.511(8) 0.836(7)
O2 O 1.1955(5) 0.3535(5) 0.6765(4)
O3 O 0.5367(5) 0.3403(5) 0.6113(5)
H2 H 0.426(4) 0.351(7) 0.626(7)
O4 O 0.5712(5) 0.4908(5) 0.8071(4)
C1 C 1.1357(7) 0.4363(7) 0.7710(6)
C2 C 0.9397(7) 0.4443(7) 0.8029(6)
H3 H 0.9083 0.5476 0.8447
C3 C 0.8265(7) 0.4101(7) 0.6726(6)
H4 H 0.8540 0.4858 0.5954
H5 H 0.8558 0.3056 0.6357
C4 C 0.6324(7) 0.4172(7) 0.7061(6)
loop_
_geom_bond_atom_site_label_1
_geom_bond_atom_site_label_2
_geom_bond_site_symmetry_1
_geom_bond_site_symmetry_2
Br1 C2 1_555 1_555
O1 H1 1_555 1_555
O2 C1 1_555 1_555
O3 H2 1_555 1_555
O4 C4 1_555 1_555
C1 O1 1_555 1_555
C2 C1 1_555 1_555
H3 C2 1_555 1_555
C3 C2 1_555 1_555
H4 C3 1_555 1_555
H5 C3 1_555 1_555
C4 O3 1_555 1_555
C3 C4 1_555 1_555

#END
