
#######################################################################
#
#                 Cambridge Crystallographic Data Centre
#                                CCDC 
#
#######################################################################
#
# If this CIF has been generated from an entry in the Cambridge 
# Structural Database, then it will include bibliographic, chemical, 
# crystal, experimental, refinement or atomic coordinate data resulting 
# from the CCDC's data processing and validation procedures.
#
#######################################################################

data_WANPUX
_chemical_formula_moiety         'C19 H30 O5 Si1'
_chemical_name_systematic        
5-((t-Butyl(dimethyl)silyl)oxy)-2,2-dimethyl-3a,4a,5,8,8a,9a-hexahydronaphtho(2,3-d)(1,3)dioxole-4,9-dione
_symmetry_cell_setting           monoclinic
_symmetry_space_group_name_H-M   'P 21'
_symmetry_Int_Tables_number      4
_space_group_name_Hall           'P 2yb'
loop_
_symmetry_equiv_pos_site_id
_symmetry_equiv_pos_as_xyz
1 x,y,z
2 -x,1/2+y,-z
_cell_length_a                   7.841(6)
_cell_length_b                   10.781(9)
_cell_length_c                   11.906(10)
_cell_angle_alpha                90
_cell_angle_beta                 101.378(16)
_cell_angle_gamma                90
_cell_volume                     986.68
_exptl_crystal_colour            colorless
_exptl_crystal_description       plate
_cell_formula_units_Z            2
loop_
_atom_site_label
_atom_site_type_symbol
_atom_site_fract_x
_atom_site_fract_y
_atom_site_fract_z
Si1 Si 0.73467(12) 0.64581(9) 0.11743(8)
O1 O 0.8279(3) 0.7480(2) 0.2147(2)
O2 O 1.2421(4) 0.9444(3) 0.2434(2)
O3 O 1.3952(3) 0.7906(2) 0.4322(2)
O4 O 1.2066(3) 0.6702(2) 0.5145(2)
O5 O 0.8636(3) 0.7523(3) 0.5178(2)
C1 C 0.7375(5) 0.8431(4) 0.2640(3)
H1 H 0.6381 0.8042 0.2923
C2 C 0.6669(6) 0.9404(4) 0.1774(4)
H2 H 0.5560 0.9277 0.1296
C3 C 0.7523(6) 1.0424(4) 0.1650(4)
H3 H 0.7008 1.0978 0.1059
C4 C 0.9226(6) 1.0784(4) 0.2355(4)
H4 H 0.9104 1.1617 0.2680
H5 H 1.0076 1.0856 0.1844
C5 C 0.9981(5) 0.9910(3) 0.3338(3)
H6 H 1.0295 1.0469 0.4018
C6 C 1.1685(5) 0.9319(3) 0.3225(3)
C7 C 1.2371(5) 0.8535(4) 0.4267(3)
H7 H 1.2438 0.9050 0.4973
C8 C 1.1115(5) 0.7484(3) 0.4289(3)
H8 H 1.0931 0.7042 0.3537
C9 C 0.9395(5) 0.7952(3) 0.4483(3)
C10 C 0.8635(5) 0.8999(3) 0.3672(3)
H9 H 0.7899 0.9504 0.4096
C11 C 1.3899(5) 0.6861(4) 0.5085(3)
C12 C 1.4520(6) 0.5746(4) 0.4516(4)
H10 H 1.3664 0.5536 0.3825
H11 H 1.4662 0.5042 0.5047
H12 H 1.5639 0.5936 0.4305
C13 C 1.4902(5) 0.7145(5) 0.6277(4)
H13 H 1.6137 0.7253 0.6256
H14 H 1.4769 0.6457 0.6791
H15 H 1.4451 0.7908 0.6558
C14 C 0.7286(6) 0.7055(4) -0.0292(4)
H16 H 0.6501 0.7770 -0.0433
H17 H 0.6866 0.6402 -0.0851
H18 H 0.8458 0.7309 -0.0368
C15 C 0.5099(5) 0.6140(5) 0.1367(4)
H19 H 0.5132 0.5809 0.2137
H20 H 0.4554 0.5532 0.0795
H21 H 0.4424 0.6911 0.1269
C16 C 0.8759(5) 0.5038(3) 0.1475(3)
C17 C 1.0586(6) 0.5345(5) 0.1295(4)
H22 H 1.1340 0.4620 0.1491
H23 H 1.1054 0.6043 0.1787
H24 H 1.0537 0.5567 0.0491
C18 C 0.8843(7) 0.4591(4) 0.2699(4)
H25 H 0.9596 0.3859 0.2844
H26 H 0.7671 0.4373 0.2804
H27 H 0.9315 0.5251 0.3237
C19 C 0.8000(6) 0.3990(4) 0.0650(4)
H28 H 0.7971 0.4254 -0.0141
H29 H 0.6816 0.3800 0.0749
H30 H 0.8729 0.3248 0.0816
loop_
_geom_bond_atom_site_label_1
_geom_bond_atom_site_label_2
_geom_bond_site_symmetry_1
_geom_bond_site_symmetry_2
Si1 O1 1_555 1_555
O1 C1 1_555 1_555
O2 C6 1_555 1_555
O3 C7 1_555 1_555
O4 C8 1_555 1_555
O5 C9 1_555 1_555
C1 H1 1_555 1_555
C2 C1 1_555 1_555
H2 C2 1_555 1_555
C3 C2 1_555 1_555
H3 C3 1_555 1_555
C4 C3 1_555 1_555
H4 C4 1_555 1_555
H5 C4 1_555 1_555
C5 C4 1_555 1_555
H6 C5 1_555 1_555
C6 C5 1_555 1_555
C7 C6 1_555 1_555
H7 C7 1_555 1_555
C8 C7 1_555 1_555
H8 C8 1_555 1_555
C9 C8 1_555 1_555
C10 C1 1_555 1_555
H9 C10 1_555 1_555
C11 O3 1_555 1_555
C12 C11 1_555 1_555
H10 C12 1_555 1_555
H11 C12 1_555 1_555
H12 C12 1_555 1_555
C13 C11 1_555 1_555
H13 C13 1_555 1_555
H14 C13 1_555 1_555
H15 C13 1_555 1_555
C14 Si1 1_555 1_555
H16 C14 1_555 1_555
H17 C14 1_555 1_555
H18 C14 1_555 1_555
C15 Si1 1_555 1_555
H19 C15 1_555 1_555
H20 C15 1_555 1_555
H21 C15 1_555 1_555
C16 Si1 1_555 1_555
C17 C16 1_555 1_555
H22 C17 1_555 1_555
H23 C17 1_555 1_555
H24 C17 1_555 1_555
C18 C16 1_555 1_555
H25 C18 1_555 1_555
H26 C18 1_555 1_555
H27 C18 1_555 1_555
C19 C16 1_555 1_555
H28 C19 1_555 1_555
H29 C19 1_555 1_555
H30 C19 1_555 1_555
O4 C11 1_555 1_555
C5 C10 1_555 1_555
C9 C10 1_555 1_555

#END
