
#######################################################################
#
#                 Cambridge Crystallographic Data Centre
#                                CCDC 
#
#######################################################################
#
# If this CIF has been generated from an entry in the Cambridge 
# Structural Database, then it will include bibliographic, chemical, 
# crystal, experimental, refinement or atomic coordinate data resulting 
# from the CCDC's data processing and validation procedures.
#
#######################################################################

data_WANRAE
_chemical_formula_moiety         'C10 H11 N1 O2'
_chemical_name_systematic        
(4S,5S)-4-Methyl-5-phenyl-1,3-oxazolidin-2-one
_symmetry_cell_setting           monoclinic
_symmetry_space_group_name_H-M   'P 21'
_symmetry_Int_Tables_number      4
_space_group_name_Hall           'P 2yb'
loop_
_symmetry_equiv_pos_site_id
_symmetry_equiv_pos_as_xyz
1 x,y,z
2 -x,1/2+y,-z
_cell_length_a                   5.950(2)
_cell_length_b                   8.238(1)
_cell_length_c                   9.952(2)
_cell_angle_alpha                90
_cell_angle_beta                 102.82(2)
_cell_angle_gamma                90
_cell_volume                     475.648
_exptl_crystal_colour            colorless
_chemical_melting_point          388-392K
_cell_formula_units_Z            2
loop_
_atom_site_label
_atom_site_type_symbol
_atom_site_fract_x
_atom_site_fract_y
_atom_site_fract_z
O1 O 0.7028(3) 0.1345 0.2978(2)
C1 C 0.8586(4) 0.0572(4) 0.3971(3)
N1 N 0.7758(3) -0.0860(3) 0.4239(2)
C2 C 0.5611(4) -0.1265(4) 0.3273(2)
C3 C 0.4877(4) 0.0418(4) 0.2706(2)
C4 C 0.3890(4) -0.2107(5) 0.3927(3)
C5 C 0.3696(4) 0.0488(4) 0.1208(2)
C6 C 0.4690(5) -0.0169(4) 0.0202(3)
C7 C 0.3508(6) -0.0141(5) -0.1163(3)
C8 C 0.1370(7) 0.0537(6) -0.1525(3)
C9 C 0.0393(5) 0.1204(6) -0.0538(4)
C10 C 0.1537(4) 0.1188(5) 0.0825(3)
O2 O 1.0419(3) 0.1189(3) 0.4493(2)
H1 H 0.8484 -0.1543 0.4978
H2 H 0.5934 -0.1926 0.2557
H3 H 0.3880 0.0874 0.3230
H4 H 0.3649 -0.1485 0.4686
H5 H 0.2473 -0.2220 0.3269
H6 H 0.4457 -0.3150 0.4239
H7 H 0.6183 -0.0640 0.0447
H8 H 0.4192 -0.0597 -0.1852
H9 H 0.0562 0.0544 -0.2462
H10 H -0.1091 0.1685 -0.0794
H11 H 0.0842 0.1660 0.1503
loop_
_geom_bond_atom_site_label_1
_geom_bond_atom_site_label_2
_geom_bond_site_symmetry_1
_geom_bond_site_symmetry_2
O1 C1 1_555 1_555
C1 N1 1_555 1_555
N1 C2 1_555 1_555
C2 C3 1_555 1_555
C3 O1 1_555 1_555
C4 C2 1_555 1_555
C5 C3 1_555 1_555
C6 C5 1_555 1_555
C7 C6 1_555 1_555
C8 C7 1_555 1_555
C9 C8 1_555 1_555
C10 C5 1_555 1_555
O2 C1 1_555 1_555
H1 N1 1_555 1_555
H2 C2 1_555 1_555
H3 C3 1_555 1_555
H4 C4 1_555 1_555
H5 C4 1_555 1_555
H6 C4 1_555 1_555
H7 C6 1_555 1_555
H8 C7 1_555 1_555
H9 C8 1_555 1_555
H10 C9 1_555 1_555
H11 C10 1_555 1_555
C9 C10 1_555 1_555

#END
