
#######################################################################
#
#                 Cambridge Crystallographic Data Centre
#                                CCDC 
#
#######################################################################
#
# If this CIF has been generated from an entry in the Cambridge 
# Structural Database, then it will include bibliographic, chemical, 
# crystal, experimental, refinement or atomic coordinate data resulting 
# from the CCDC's data processing and validation procedures.
#
#######################################################################

data_WANRIP
_chemical_formula_moiety         'C68 H50'
_chemical_name_systematic        
12,12'-bis(3,5-dimethylphenyl)-5,5',7,7'-tetramethyl-8,8'-bidibenzo[f,pqr]tetraphene
_symmetry_cell_setting           triclinic
_symmetry_space_group_name_H-M   'P -1'
_symmetry_Int_Tables_number      2
_space_group_name_Hall           '-P 1'
loop_
_symmetry_equiv_pos_site_id
_symmetry_equiv_pos_as_xyz
1 x,y,z
2 -x,-y,-z
_cell_length_a                   8.4472(3)
_cell_length_b                   16.7753(6)
_cell_length_c                   18.3596(6)
_cell_angle_alpha                111.767(3)
_cell_angle_beta                 100.366(3)
_cell_angle_gamma                93.700(3)
_cell_volume                     2352.04
_exptl_crystal_colour            yellow
_exptl_crystal_description       block
_cell_formula_units_Z            2
loop_
_atom_site_label
_atom_site_type_symbol
_atom_site_fract_x
_atom_site_fract_y
_atom_site_fract_z
C1 C 0.7832(2) 0.17570(13) 0.77016(12)
C2 C 0.7189(3) 0.25677(14) 0.78352(13)
C3 C 0.7614(3) 0.32836(14) 0.85914(13)
H1 H 0.8269 0.3216 0.9037
C4 C 0.7103(3) 0.40656(15) 0.86906(14)
H2 H 0.7341 0.4523 0.9208
C5 C 0.6222(3) 0.41917(15) 0.80230(15)
H3 H 0.5959 0.4752 0.8083
C6 C 0.5740(3) 0.35166(15) 0.72884(14)
C7 C 0.6061(3) 0.26584(14) 0.72008(13)
C8 C 0.5179(2) 0.18711(14) 0.65592(12)
C9 C 0.3673(3) 0.18700(14) 0.60483(13)
H4 H 0.3345 0.2408 0.6069
C10 C 0.2712(3) 0.11244(15) 0.55387(13)
H5 H 0.1738 0.1148 0.5201
C11 C 0.3134(3) 0.03088(14) 0.55010(12)
C12 C 0.2057(3) -0.04643(15) 0.50347(13)
H6 H 0.1062 -0.0449 0.4707
C13 C 0.2440(3) -0.12351(15) 0.50533(14)
H7 H 0.1691 -0.1750 0.4753
C14 C 0.3926(3) -0.12734(14) 0.55092(14)
H8 H 0.4172 -0.1817 0.5512
C15 C 0.5056(3) -0.05303(13) 0.59616(12)
C16 C 0.4644(2) 0.02815(13) 0.59752(12)
C17 C 0.5686(2) 0.10723(13) 0.64941(11)
C18 C 0.7198(2) 0.10369(13) 0.69933(12)
C19 C 0.7847(2) 0.02011(13) 0.67482(11)
C20 C 0.6725(3) -0.05727(13) 0.63288(12)
C21 C 0.7267(3) -0.13741(14) 0.61884(13)
H9 H 0.6492 -0.1885 0.5954
C22 C 0.8893(3) -0.14486(15) 0.63790(14)
C23 C 1.0002(3) -0.06891(15) 0.66759(13)
H10 H 1.1130 -0.0733 0.6756
C24 C 0.9531(3) 0.01243(14) 0.68586(12)
C25 C 0.5037(3) 0.37208(14) 0.65789(15)
C26 C 0.3603(3) 0.40752(15) 0.65295(16)
H11 H 0.3045 0.4194 0.6955
C27 C 0.2968(3) 0.42598(15) 0.58601(17)
C28 C 0.3838(4) 0.41104(16) 0.52598(16)
H12 H 0.3423 0.4240 0.4806
C29 C 0.5299(4) 0.37765(15) 0.53045(16)
C30 C 0.5872(3) 0.35753(15) 0.59618(15)
H13 H 0.6855 0.3333 0.5993
C31 C 0.1353(4) 0.4593(2) 0.5792(2)
H14 H 0.1537 0.5227 0.5983
H15 H 0.0712 0.4422 0.6119
H16 H 0.0761 0.4347 0.5228
C32 C 0.6219(5) 0.3623(2) 0.46431(18)
H17 H 0.5640 0.3124 0.4164
H18 H 0.7312 0.3506 0.4822
H19 H 0.6302 0.4139 0.4514
C33 C 1.0858(3) 0.08685(15) 0.70793(14)
H20 H 1.1389 0.1059 0.7648
H21 H 1.0389 0.1350 0.6985
H22 H 1.1660 0.0681 0.6749
C34 C 0.9439(3) -0.23259(17) 0.6212(2)
H23 H 0.9665 -0.2426 0.6711
H24 H 1.0428 -0.2344 0.6000
H25 H 0.8579 -0.2777 0.5815
C35 C 0.9118(2) 0.17122(12) 0.83603(12)
C36 C 1.0573(2) 0.23515(13) 0.86796(12)
C37 C 1.0885(3) 0.29421(14) 0.83171(14)
H26 H 1.0175 0.2888 0.7832
C38 C 1.2189(3) 0.35879(16) 0.86530(16)
H27 H 1.2427 0.3951 0.8382
C39 C 1.3168(3) 0.37101(15) 0.93974(16)
H28 H 1.3998 0.4197 0.9655
C40 C 1.2961(3) 0.31422(14) 0.97656(14)
C41 C 1.1738(2) 0.23879(13) 0.93626(12)
C42 C 1.1746(2) 0.16115(13) 0.95294(12)
C43 C 1.3132(2) 0.14529(14) 1.00106(12)
H29 H 1.3990 0.1916 1.0318
C44 C 1.3253(2) 0.06642(14) 1.00395(12)
H30 H 1.4184 0.0588 1.0371
C45 C 1.2014(2) -0.00501(14) 0.95836(12)
C46 C 1.2198(3) -0.08860(15) 0.95568(13)
H31 H 1.3146 -0.0975 0.9867
C47 C 1.1015(3) -0.15728(15) 0.90861(15)
H32 H 1.1159 -0.2140 0.9057
C48 C 0.9594(3) -0.14396(14) 0.86486(14)
H33 H 0.8787 -0.1923 0.8323
C49 C 0.9329(2) -0.06237(13) 0.86753(12)
C50 C 1.0578(2) 0.00873(13) 0.91376(12)
C51 C 1.0437(2) 0.09329(12) 0.91234(11)
C52 C 0.8991(2) 0.10550(12) 0.86427(11)
C53 C 0.7523(2) 0.04093(13) 0.84256(11)
C54 C 0.7739(2) -0.04435(13) 0.83396(12)
C55 C 0.6396(3) -0.10958(14) 0.80381(13)
H34 H 0.6565 -0.1677 0.7945
C56 C 0.4826(3) -0.09175(15) 0.78724(13)
C57 C 0.4610(2) -0.00581(15) 0.80671(13)
H35 H 0.3534 0.0080 0.8006
C58 C 0.5907(2) 0.06114(14) 0.83493(12)
C59 C 1.3955(3) 0.33691(15) 1.05915(16)
C60 C 1.5643(3) 0.35866(16) 1.07524(19)
H36 H 1.6158 0.3582 1.0332
C61 C 1.6578(4) 0.38120(17) 1.1531(2)
C62 C 1.5799(4) 0.38236(17) 1.2139(2)
H37 H 1.6434 0.3959 1.2664
C63 C 1.4121(4) 0.36425(16) 1.20019(16)
C64 C 1.3219(3) 0.34133(14) 1.12203(14)
H38 H 1.2069 0.3284 1.1116
C65 C 1.8403(4) 0.4042(2) 1.1694(3)
H39 H 1.8708 0.4668 1.1998
H40 H 1.8752 0.3874 1.1183
H41 H 1.8932 0.3732 1.2008
C66 C 1.3308(5) 0.3734(2) 1.26847(18)
H42 H 1.3623 0.3306 1.2909
H43 H 1.2125 0.3637 1.2489
H44 H 1.3644 0.4319 1.3103
C67 C 0.5497(3) 0.15215(15) 0.86381(14)
H45 H 0.5108 0.1670 0.8175
H46 H 0.6470 0.1927 0.8984
H47 H 0.4646 0.1560 0.8944
C68 C 0.3406(3) -0.16349(17) 0.75460(17)
H48 H 0.3192 -0.1883 0.6957
H49 H 0.2442 -0.1401 0.7720
H50 H 0.3659 -0.2087 0.7748
loop_
_geom_bond_atom_site_label_1
_geom_bond_atom_site_label_2
_geom_bond_site_symmetry_1
_geom_bond_site_symmetry_2
C1 C2 1_555 1_555
C2 C3 1_555 1_555
C3 H1 1_555 1_555
C4 C3 1_555 1_555
H2 C4 1_555 1_555
C5 C4 1_555 1_555
H3 C5 1_555 1_555
C6 C5 1_555 1_555
C7 C2 1_555 1_555
C8 C7 1_555 1_555
C9 C8 1_555 1_555
H4 C9 1_555 1_555
C10 C9 1_555 1_555
H5 C10 1_555 1_555
C11 C10 1_555 1_555
C12 C11 1_555 1_555
H6 C12 1_555 1_555
C13 C12 1_555 1_555
H7 C13 1_555 1_555
C14 C13 1_555 1_555
H8 C14 1_555 1_555
C15 C14 1_555 1_555
C16 C11 1_555 1_555
C17 C8 1_555 1_555
C18 C1 1_555 1_555
C19 C18 1_555 1_555
C20 C15 1_555 1_555
C21 C20 1_555 1_555
H9 C21 1_555 1_555
C22 C21 1_555 1_555
C23 C22 1_555 1_555
H10 C23 1_555 1_555
C24 C19 1_555 1_555
C25 C6 1_555 1_555
C26 C25 1_555 1_555
H11 C26 1_555 1_555
C27 C26 1_555 1_555
C28 C27 1_555 1_555
H12 C28 1_555 1_555
C29 C28 1_555 1_555
C30 C25 1_555 1_555
H13 C30 1_555 1_555
C31 C27 1_555 1_555
H14 C31 1_555 1_555
H15 C31 1_555 1_555
H16 C31 1_555 1_555
C32 C29 1_555 1_555
H17 C32 1_555 1_555
H18 C32 1_555 1_555
H19 C32 1_555 1_555
C33 C24 1_555 1_555
H20 C33 1_555 1_555
H21 C33 1_555 1_555
H22 C33 1_555 1_555
C34 C22 1_555 1_555
H23 C34 1_555 1_555
H24 C34 1_555 1_555
H25 C34 1_555 1_555
C35 C1 1_555 1_555
C36 C35 1_555 1_555
C37 C36 1_555 1_555
H26 C37 1_555 1_555
C38 C37 1_555 1_555
H27 C38 1_555 1_555
C39 C38 1_555 1_555
H28 C39 1_555 1_555
C40 C39 1_555 1_555
C41 C36 1_555 1_555
C42 C41 1_555 1_555
C43 C42 1_555 1_555
H29 C43 1_555 1_555
C44 C43 1_555 1_555
H30 C44 1_555 1_555
C45 C44 1_555 1_555
C46 C45 1_555 1_555
H31 C46 1_555 1_555
C47 C46 1_555 1_555
H32 C47 1_555 1_555
C48 C47 1_555 1_555
H33 C48 1_555 1_555
C49 C48 1_555 1_555
C50 C45 1_555 1_555
C51 C42 1_555 1_555
C52 C35 1_555 1_555
C53 C52 1_555 1_555
C54 C49 1_555 1_555
C55 C54 1_555 1_555
H34 C55 1_555 1_555
C56 C55 1_555 1_555
C57 C56 1_555 1_555
H35 C57 1_555 1_555
C58 C53 1_555 1_555
C59 C40 1_555 1_555
C60 C59 1_555 1_555
H36 C60 1_555 1_555
C61 C60 1_555 1_555
C62 C61 1_555 1_555
H37 C62 1_555 1_555
C63 C62 1_555 1_555
C64 C59 1_555 1_555
H38 C64 1_555 1_555
C65 C61 1_555 1_555
H39 C65 1_555 1_555
H40 C65 1_555 1_555
H41 C65 1_555 1_555
C66 C63 1_555 1_555
H42 C66 1_555 1_555
H43 C66 1_555 1_555
H44 C66 1_555 1_555
C67 C58 1_555 1_555
H45 C67 1_555 1_555
H46 C67 1_555 1_555
H47 C67 1_555 1_555
C68 C56 1_555 1_555
H48 C68 1_555 1_555
H49 C68 1_555 1_555
H50 C68 1_555 1_555
C6 C7 1_555 1_555
C15 C16 1_555 1_555
C16 C17 1_555 1_555
C17 C18 1_555 1_555
C19 C20 1_555 1_555
C23 C24 1_555 1_555
C29 C30 1_555 1_555
C40 C41 1_555 1_555
C49 C50 1_555 1_555
C50 C51 1_555 1_555
C51 C52 1_555 1_555
C53 C54 1_555 1_555
C57 C58 1_555 1_555
C63 C64 1_555 1_555

#END
