
#######################################################################
#
#                 Cambridge Crystallographic Data Centre
#                                CCDC 
#
#######################################################################
#
# If this CIF has been generated from an entry in the Cambridge 
# Structural Database, then it will include bibliographic, chemical, 
# crystal, experimental, refinement or atomic coordinate data resulting 
# from the CCDC's data processing and validation procedures.
#
#######################################################################

data_WANREL
_chemical_formula_moiety         'C64 H36 F6 O4'
_chemical_name_systematic        
"4,4',10,10'-tetraphenyl-6,6'-bichrysene-12,12'-diyl bis(trifluoroacetate)"
_symmetry_cell_setting           triclinic
_symmetry_space_group_name_H-M   'P -1'
_symmetry_Int_Tables_number      2
_space_group_name_Hall           '-P 1'
loop_
_symmetry_equiv_pos_site_id
_symmetry_equiv_pos_as_xyz
1 x,y,z
2 -x,-y,-z
_cell_length_a                   11.4218(2)
_cell_length_b                   14.7310(3)
_cell_length_c                   16.3373(3)
_cell_angle_alpha                114.9460(10)
_cell_angle_beta                 94.7490(10)
_cell_angle_gamma                104.6730(10)
_cell_volume                     2354.07
_exptl_crystal_colour            yellow
_exptl_crystal_description       block
_cell_formula_units_Z            2
loop_
_atom_site_label
_atom_site_type_symbol
_atom_site_fract_x
_atom_site_fract_y
_atom_site_fract_z
C1 C 0.53535(19) 0.13350(16) 0.24233(14)
C2 C 0.6035(2) 0.23589(17) 0.25376(14)
C3 C 0.7342(2) 0.27573(18) 0.28534(16)
H1 H 0.7765 0.2346 0.2995
C4 C 0.7998(2) 0.3729(2) 0.29558(18)
H2 H 0.8869 0.4003 0.3192
C5 C 0.7384(2) 0.43183(18) 0.27123(17)
H3 H 0.7851 0.4986 0.2775
C6 C 0.6115(2) 0.39547(17) 0.23828(15)
C7 C 0.5390(2) 0.29693(17) 0.23231(14)
C8 C 0.4042(2) 0.25596(17) 0.20696(14)
C9 C 0.3310(2) 0.32274(17) 0.21030(16)
H4 H 0.3706 0.3951 0.2273
C10 C 0.2070(2) 0.28382(18) 0.18954(16)
C11 C 0.1380(2) 0.17707(18) 0.16225(15)
C12 C 0.0077(2) 0.14389(19) 0.14722(18)
H5 H -0.0358 0.1929 0.1544
C13 C -0.0559(2) 0.0409(2) 0.12220(19)
H6 H -0.1432 0.0191 0.1166
C14 C 0.0080(2) -0.03241(18) 0.10492(17)
H7 H -0.0378 -0.1045 0.0840
C15 C 0.1364(2) -0.00333(17) 0.11727(15)
C16 C 0.20616(19) 0.10606(17) 0.15370(14)
C17 C 0.34124(19) 0.14977(16) 0.18480(14)
C18 C 0.4113(2) 0.09166(16) 0.20549(14)
H8 H 0.3699 0.0211 0.1931
C19 C 0.5593(2) 0.45960(18) 0.20437(17)
C20 C 0.5659(2) 0.56250(19) 0.26382(18)
H9 H 0.6076 0.5942 0.3267
C21 C 0.5115(2) 0.6194(2) 0.2316(2)
H10 H 0.5161 0.6894 0.2729
C22 C 0.4515(3) 0.5750(2) 0.1408(2)
H11 H 0.4136 0.6137 0.1195
C23 C 0.4467(3) 0.4741(2) 0.0809(2)
H12 H 0.4055 0.4432 0.0179
C24 C 0.5017(2) 0.4172(2) 0.11186(18)
H13 H 0.5001 0.3484 0.0694
C25 C 0.1227(2) 0.3720(2) 0.12304(18)
C26 C 0.0739(2) 0.4662(2) 0.14858(19)
C27 C 0.18749(19) -0.09316(17) 0.08188(15)
C28 C 0.1546(2) -0.17319(18) 0.10825(17)
H14 H 0.1058 -0.1672 0.1534
C29 C 0.1930(3) -0.2618(2) 0.06872(19)
H15 H 0.1707 -0.3156 0.0876
C30 C 0.2629(2) -0.27214(19) 0.00247(19)
H16 H 0.2887 -0.3329 -0.0244
C31 C 0.2958(2) -0.1931(2) -0.02502(17)
H17 H 0.3434 -0.2002 -0.0710
C32 C 0.2587(2) -0.10439(18) 0.01487(15)
H18 H 0.2821 -0.0504 -0.0036
C33 C 0.59885(18) 0.07400(16) 0.27512(15)
C34 C 0.62758(19) -0.01571(16) 0.21164(15)
C35 C 0.5998(2) -0.04963(17) 0.11537(15)
H19 H 0.5588 -0.0140 0.0921
C36 C 0.6312(2) -0.13302(18) 0.05537(15)
H20 H 0.6072 -0.1583 -0.0094
C37 C 0.6991(2) -0.18129(17) 0.09000(16)
H21 H 0.7246 -0.2367 0.0480
C38 C 0.72990(19) -0.15022(17) 0.18356(15)
C39 C 0.68608(19) -0.07120(16) 0.24677(15)
C40 C 0.69304(19) -0.04578(17) 0.34372(15)
C41 C 0.7052(2) -0.12027(18) 0.37653(16)
H22 H 0.7240 -0.1817 0.3378
C42 C 0.6900(2) -0.10263(18) 0.46213(16)
C43 C 0.6744(2) -0.00799(18) 0.52867(15)
C44 C 0.6565(2) 0.00616(19) 0.61694(16)
H23 H 0.6506 -0.0495 0.6330
C45 C 0.6474(2) 0.1006(2) 0.67969(16)
H24 H 0.6284 0.1087 0.7374
C46 C 0.6663(2) 0.18465(19) 0.65819(16)
H25 H 0.6662 0.2512 0.7039
C47 C 0.6852(2) 0.17410(18) 0.57236(15)
C48 C 0.67905(19) 0.07297(17) 0.50210(15)
C49 C 0.67269(19) 0.04711(17) 0.40491(14)
C50 C 0.62767(19) 0.10668(16) 0.36783(15)
H26 H 0.6174 0.1713 0.4091
C51 C 0.8186(2) -0.19448(18) 0.21431(15)
C52 C 0.7995(2) -0.30278(19) 0.17256(17)
H27 H 0.7281 -0.3493 0.1249
C53 C 0.8836(2) -0.3436(2) 0.19981(18)
H28 H 0.8698 -0.4176 0.1704
C54 C 0.9868(2) -0.2772(2) 0.26930(19)
H29 H 1.0436 -0.3053 0.2883
C55 C 1.0078(2) -0.1687(2) 0.31164(18)
H30 H 1.0787 -0.1228 0.3600
C56 C 0.9249(2) -0.12755(19) 0.28318(16)
H31 H 0.9409 -0.0533 0.3109
C57 C 0.8011(4) -0.1752(3) 0.5315(2)
C58 C 0.7865(5) -0.2678(3) 0.5541(3)
C59 C 0.7265(2) 0.27236(18) 0.56177(15)
C60 C 0.6566(4) 0.3412(2) 0.58015(19)
H32 H 0.5786 0.3240 0.5958
C61 C 0.7027(5) 0.4362(3) 0.5752(2)
H33 H 0.6553 0.4831 0.5872
C62 C 0.8163(5) 0.4619(2) 0.5531(2)
H34 H 0.8469 0.5267 0.5506
C63 C 0.8858(3) 0.3941(2) 0.5347(2)
H35 H 0.9642 0.4123 0.5198
C64 C 0.8405(3) 0.2992(2) 0.53819(18)
H36 H 0.8877 0.2520 0.5244
F1 F 0.16082(18) 0.55360(13) 0.20672(14)
F2 F -0.02096(19) 0.45642(17) 0.18826(16)
F3 F 0.03937(19) 0.47681(15) 0.07527(13)
F4 F 0.6987(5) -0.2764(3) 0.5990(3)
F5 F 0.8892(4) -0.2561(2) 0.6062(2)
F6 F 0.7651(4) -0.35512(19) 0.47947(17)
O1 O 0.14054(16) 0.35544(13) 0.19760(12)
O2 O 0.1429(2) 0.32608(17) 0.04886(14)
O3 O 0.68967(19) -0.18315(14) 0.48880(13)
O4 O 0.8992(3) -0.1095(2) 0.5498(2)
loop_
_geom_bond_atom_site_label_1
_geom_bond_atom_site_label_2
_geom_bond_site_symmetry_1
_geom_bond_site_symmetry_2
C1 C2 1_555 1_555
C2 C3 1_555 1_555
C3 H1 1_555 1_555
C4 C3 1_555 1_555
H2 C4 1_555 1_555
C5 C4 1_555 1_555
H3 C5 1_555 1_555
C6 C5 1_555 1_555
C7 C2 1_555 1_555
C8 C7 1_555 1_555
C9 C8 1_555 1_555
H4 C9 1_555 1_555
C10 C9 1_555 1_555
C11 C10 1_555 1_555
C12 C11 1_555 1_555
H5 C12 1_555 1_555
C13 C12 1_555 1_555
H6 C13 1_555 1_555
C14 C13 1_555 1_555
H7 C14 1_555 1_555
C15 C14 1_555 1_555
C16 C11 1_555 1_555
C17 C8 1_555 1_555
C18 C1 1_555 1_555
H8 C18 1_555 1_555
C19 C6 1_555 1_555
C20 C19 1_555 1_555
H9 C20 1_555 1_555
C21 C20 1_555 1_555
H10 C21 1_555 1_555
C22 C21 1_555 1_555
H11 C22 1_555 1_555
C23 C22 1_555 1_555
H12 C23 1_555 1_555
C24 C19 1_555 1_555
H13 C24 1_555 1_555
C25 C26 1_555 1_555
C26 F1 1_555 1_555
C27 C15 1_555 1_555
C28 C27 1_555 1_555
H14 C28 1_555 1_555
C29 C28 1_555 1_555
H15 C29 1_555 1_555
C30 C29 1_555 1_555
H16 C30 1_555 1_555
C31 C30 1_555 1_555
H17 C31 1_555 1_555
C32 C27 1_555 1_555
H18 C32 1_555 1_555
C33 C1 1_555 1_555
C34 C33 1_555 1_555
C35 C34 1_555 1_555
H19 C35 1_555 1_555
C36 C35 1_555 1_555
H20 C36 1_555 1_555
C37 C36 1_555 1_555
H21 C37 1_555 1_555
C38 C37 1_555 1_555
C39 C34 1_555 1_555
C40 C39 1_555 1_555
C41 C40 1_555 1_555
H22 C41 1_555 1_555
C42 C41 1_555 1_555
C43 C42 1_555 1_555
C44 C43 1_555 1_555
H23 C44 1_555 1_555
C45 C44 1_555 1_555
H24 C45 1_555 1_555
C46 C45 1_555 1_555
H25 C46 1_555 1_555
C47 C46 1_555 1_555
C48 C43 1_555 1_555
C49 C40 1_555 1_555
C50 C33 1_555 1_555
H26 C50 1_555 1_555
C51 C38 1_555 1_555
C52 C51 1_555 1_555
H27 C52 1_555 1_555
C53 C52 1_555 1_555
H28 C53 1_555 1_555
C54 C53 1_555 1_555
H29 C54 1_555 1_555
C55 C54 1_555 1_555
H30 C55 1_555 1_555
C56 C51 1_555 1_555
H31 C56 1_555 1_555
C57 C58 1_555 1_555
C58 F4 1_555 1_555
C59 C47 1_555 1_555
C60 C59 1_555 1_555
H32 C60 1_555 1_555
C61 C60 1_555 1_555
H33 C61 1_555 1_555
C62 C61 1_555 1_555
H34 C62 1_555 1_555
C63 C62 1_555 1_555
H35 C63 1_555 1_555
C64 C59 1_555 1_555
H36 C64 1_555 1_555
F2 C26 1_555 1_555
F3 C26 1_555 1_555
F5 C58 1_555 1_555
F6 C58 1_555 1_555
O1 C10 1_555 1_555
O2 C25 1_555 1_555
O3 C42 1_555 1_555
O4 C57 1_555 1_555
C6 C7 1_555 1_555
C15 C16 1_555 1_555
C16 C17 1_555 1_555
C17 C18 1_555 1_555
C23 C24 1_555 1_555
C25 O1 1_555 1_555
C31 C32 1_555 1_555
C38 C39 1_555 1_555
C47 C48 1_555 1_555
C48 C49 1_555 1_555
C49 C50 1_555 1_555
C55 C56 1_555 1_555
C57 O3 1_555 1_555
C63 C64 1_555 1_555

#END
