
#######################################################################
#
#                 Cambridge Crystallographic Data Centre
#                                CCDC 
#
#######################################################################
#
# If this CIF has been generated from an entry in the Cambridge 
# Structural Database, then it will include bibliographic, chemical, 
# crystal, experimental, refinement or atomic coordinate data resulting 
# from the CCDC's data processing and validation procedures.
#
#######################################################################

data_WANROV
_chemical_formula_moiety         'C34 H28'
_chemical_name_systematic        4,10-bis(3,5-dimethylphenyl)chrysene
_symmetry_cell_setting           monoclinic
_symmetry_space_group_name_H-M   'P 21/c'
_symmetry_Int_Tables_number      14
_space_group_name_Hall           '-P 2ybc'
loop_
_symmetry_equiv_pos_site_id
_symmetry_equiv_pos_as_xyz
1 x,y,z
2 -x,1/2+y,1/2-z
3 -x,-y,-z
4 x,1/2-y,1/2+z
_cell_length_a                   16.2619(7)
_cell_length_b                   9.7281(4)
_cell_length_c                   15.1953(6)
_cell_angle_alpha                90
_cell_angle_beta                 93.071(2)
_cell_angle_gamma                90
_cell_volume                     2400.4
_exptl_crystal_colour            white
_exptl_crystal_description       block
_cell_formula_units_Z            4
loop_
_atom_site_label
_atom_site_type_symbol
_atom_site_fract_x
_atom_site_fract_y
_atom_site_fract_z
C1 C 0.37556(7) 0.99099(13) 0.13002(8)
C2 C 0.39209(8) 1.09045(13) 0.06813(8)
H1 H 0.4433 1.0878 0.0409
C3 C 0.33580(8) 1.19495(13) 0.04432(8)
H2 H 0.3494 1.2632 0.0028
C4 C 0.26123(8) 1.19743(12) 0.08159(8)
H3 H 0.2218 1.2655 0.0640
C5 C 0.24221(7) 1.09950(12) 0.14618(7)
C6 C 0.16435(7) 1.10620(12) 0.18438(8)
H4 H 0.1268 1.1768 0.1663
C7 C 0.14255(7) 1.01452(12) 0.24568(8)
H5 H 0.0890 1.0196 0.2676
C8 C 0.19805(7) 0.90991(12) 0.27851(7)
C9 C 0.17486(7) 0.81385(12) 0.34676(7)
C10 C 0.09215(8) 0.78982(12) 0.37145(8)
C11 C 0.07834(8) 0.70391(13) 0.44191(8)
H6 H 0.0234 0.6904 0.4586
C12 C 0.14263(8) 0.63624(13) 0.48952(8)
H7 H 0.1315 0.5808 0.5389
C13 C 0.22133(8) 0.65105(12) 0.46399(8)
H8 H 0.2649 0.6025 0.4943
C14 C 0.23854(8) 0.73797(12) 0.39279(8)
C15 C 0.32108(8) 0.75126(13) 0.36673(8)
H9 H 0.3639 0.7043 0.3994
C16 C 0.34028(7) 0.82898(13) 0.29667(8)
H10 H 0.3955 0.8307 0.2793
C17 C 0.27900(7) 0.90869(12) 0.24808(7)
C18 C 0.30017(7) 0.99734(12) 0.17501(7)
C19 C 0.43624(7) 0.87615(13) 0.13851(8)
C20 C 0.41215(8) 0.74183(13) 0.11764(8)
H11 H 0.3562 0.7233 0.1005
C21 C 0.46898(8) 0.63470(13) 0.12155(8)
C22 C 0.55112(8) 0.66440(14) 0.14639(8)
H12 H 0.5902 0.5918 0.1498
C23 C 0.57691(8) 0.79751(14) 0.16624(8)
C24 C 0.51869(8) 0.90314(13) 0.16204(8)
H13 H 0.5355 0.9946 0.1754
C25 C 0.44168(9) 0.49022(14) 0.09934(10)
H14 H 0.4182 0.4481 0.1510
H15 H 0.4891 0.4362 0.0822
H16 H 0.3999 0.4924 0.0504
C26 C 0.66584(8) 0.82916(16) 0.19091(9)
H17 H 0.6719 0.8516 0.2538
H18 H 0.6837 0.9076 0.1563
H19 H 0.6998 0.7489 0.1787
C27 C 0.01638(7) 0.84246(12) 0.32241(8)
C28 C -0.03882(8) 0.92775(12) 0.36386(8)
H20 H -0.0274 0.9538 0.4235
C29 C -0.11057(8) 0.97536(12) 0.31913(8)
C30 C -0.12622(8) 0.93476(13) 0.23206(8)
H21 H -0.1735 0.9696 0.2001
C31 C -0.07421(8) 0.84419(13) 0.19052(8)
C32 C -0.00274(7) 0.80001(12) 0.23603(8)
H22 H 0.0337 0.7399 0.2079
C33 C -0.17026(9) 1.06744(14) 0.36392(10)
H23 H -0.1742 1.1559 0.3331
H24 H -0.1507 1.0824 0.4253
H25 H -0.2246 1.0238 0.3624
C34 C -0.09724(9) 0.79023(16) 0.09950(9)
H26 H -0.0547 0.7264 0.0814
H27 H -0.1018 0.8671 0.0578
H28 H -0.1502 0.7422 0.1001
loop_
_geom_bond_atom_site_label_1
_geom_bond_atom_site_label_2
_geom_bond_site_symmetry_1
_geom_bond_site_symmetry_2
C1 C2 1_555 1_555
C2 H1 1_555 1_555
C3 C2 1_555 1_555
H2 C3 1_555 1_555
C4 C3 1_555 1_555
H3 C4 1_555 1_555
C5 C4 1_555 1_555
C6 C5 1_555 1_555
H4 C6 1_555 1_555
C7 C6 1_555 1_555
H5 C7 1_555 1_555
C8 C7 1_555 1_555
C9 C8 1_555 1_555
C10 C9 1_555 1_555
C11 C10 1_555 1_555
H6 C11 1_555 1_555
C12 C11 1_555 1_555
H7 C12 1_555 1_555
C13 C12 1_555 1_555
H8 C13 1_555 1_555
C14 C9 1_555 1_555
C15 C14 1_555 1_555
H9 C15 1_555 1_555
C16 C15 1_555 1_555
H10 C16 1_555 1_555
C17 C8 1_555 1_555
C18 C1 1_555 1_555
C19 C1 1_555 1_555
C20 C19 1_555 1_555
H11 C20 1_555 1_555
C21 C20 1_555 1_555
C22 C21 1_555 1_555
H12 C22 1_555 1_555
C23 C22 1_555 1_555
C24 C19 1_555 1_555
H13 C24 1_555 1_555
C25 C21 1_555 1_555
H14 C25 1_555 1_555
H15 C25 1_555 1_555
H16 C25 1_555 1_555
C26 C23 1_555 1_555
H17 C26 1_555 1_555
H18 C26 1_555 1_555
H19 C26 1_555 1_555
C27 C10 1_555 1_555
C28 C27 1_555 1_555
H20 C28 1_555 1_555
C29 C28 1_555 1_555
C30 C29 1_555 1_555
H21 C30 1_555 1_555
C31 C30 1_555 1_555
C32 C27 1_555 1_555
H22 C32 1_555 1_555
C33 C29 1_555 1_555
H23 C33 1_555 1_555
H24 C33 1_555 1_555
H25 C33 1_555 1_555
C34 C31 1_555 1_555
H26 C34 1_555 1_555
H27 C34 1_555 1_555
H28 C34 1_555 1_555
C5 C18 1_555 1_555
C13 C14 1_555 1_555
C16 C17 1_555 1_555
C17 C18 1_555 1_555
C23 C24 1_555 1_555
C31 C32 1_555 1_555

#END
