
#######################################################################
#
#                 Cambridge Crystallographic Data Centre
#                                CCDC 
#
#######################################################################
#
# If this CIF has been generated from an entry in the Cambridge 
# Structural Database, then it will include bibliographic, chemical, 
# crystal, experimental, refinement or atomic coordinate data resulting 
# from the CCDC's data processing and validation procedures.
#
#######################################################################

data_WANSOV
_chemical_formula_moiety         'C17 H17 O5 P1 S1'
_chemical_name_systematic        
'Diethyl (4-oxo-2-(2-thienyl)-4H-chromen-3-yl)phosphonate'
_symmetry_cell_setting           monoclinic
_symmetry_space_group_name_H-M   'P 21/n'
_symmetry_Int_Tables_number      14
_space_group_name_Hall           '-P 2yn'
loop_
_symmetry_equiv_pos_site_id
_symmetry_equiv_pos_as_xyz
1 x,y,z
2 1/2-x,1/2+y,1/2-z
3 -x,-y,-z
4 1/2+x,1/2-y,1/2+z
_cell_length_a                   15.785(4)
_cell_length_b                   7.6500(15)
_cell_length_c                   16.440(4)
_cell_angle_alpha                90
_cell_angle_beta                 116.969(6)
_cell_angle_gamma                90
_cell_volume                     1769.33
_exptl_crystal_colour            colorless
_exptl_crystal_description       block
_cell_formula_units_Z            4
loop_
_atom_site_label
_atom_site_type_symbol
_atom_site_fract_x
_atom_site_fract_y
_atom_site_fract_z
S1 S 0.27927(11) 0.8027(2) 0.57008(10)
P1 P 0.12152(10) 0.44360(18) 0.29851(9)
O1 O 0.1114(3) 0.5172(5) 0.2129(2)
O2 O 0.0810(3) 0.2534(5) 0.2912(2)
O3 O 0.2248(2) 0.4198(5) 0.3768(2)
O4 O -0.0823(3) 0.4680(6) 0.2487(3)
O5 O 0.0737(2) 0.7550(5) 0.4743(2)
C1 C 0.0203(5) 0.1720(9) 0.2051(5)
H1 H 0.0553 0.1525 0.1702
H2 H -0.0335 0.2470 0.1698
C2 C -0.0124(6) 0.0062(11) 0.2239(6)
H3 H 0.0414 -0.0627 0.2635
H4 H -0.0479 -0.0556 0.1677
H5 H -0.0522 0.0276 0.2530
C3 C 0.2977(4) 0.3410(10) 0.3613(4)
H6 H 0.3041 0.4022 0.3127
H7 H 0.2813 0.2203 0.3427
C4 C 0.3876(4) 0.3482(10) 0.4451(5)
H8 H 0.4036 0.4679 0.4631
H9 H 0.4369 0.2957 0.4344
H10 H 0.3812 0.2857 0.4926
C5 C 0.0680(3) 0.5684(6) 0.3553(3)
C6 C -0.0346(4) 0.5476(8) 0.3198(4)
C7 C -0.0768(4) 0.6287(7) 0.3737(4)
C8 C -0.0212(4) 0.7235(7) 0.4499(4)
C9 C 0.1153(4) 0.6819(7) 0.4251(3)
C10 C -0.1734(4) 0.6098(10) 0.3497(5)
H11 H -0.2132 0.5464 0.2981
C11 C -0.2086(5) 0.6868(11) 0.4039(6)
H12 H -0.2728 0.6759 0.3882
C12 C -0.1499(5) 0.7804(9) 0.4813(6)
H13 H -0.1753 0.8312 0.5169
C13 C -0.0555(5) 0.7990(8) 0.5060(4)
H14 H -0.0155 0.8599 0.5584
C14 C 0.2109(3) 0.7520(6) 0.4577(3)
C15 C 0.2552(3) 0.8031(6) 0.4011(4)
H15 H 0.2290 0.7921 0.3380
C16 C 0.3453(4) 0.8727(8) 0.4592(5)
H16 H 0.3870 0.9118 0.4375
C17 C 0.3666(4) 0.8786(7) 0.5477(4)
H17 H 0.4241 0.9207 0.5926
loop_
_geom_bond_atom_site_label_1
_geom_bond_atom_site_label_2
_geom_bond_site_symmetry_1
_geom_bond_site_symmetry_2
S1 C14 1_555 1_555
P1 O1 1_555 1_555
O2 P1 1_555 1_555
O3 P1 1_555 1_555
O4 C6 1_555 1_555
O5 C8 1_555 1_555
C1 O2 1_555 1_555
H1 C1 1_555 1_555
H2 C1 1_555 1_555
C2 C1 1_555 1_555
H3 C2 1_555 1_555
H4 C2 1_555 1_555
H5 C2 1_555 1_555
C3 O3 1_555 1_555
H6 C3 1_555 1_555
H7 C3 1_555 1_555
C4 C3 1_555 1_555
H8 C4 1_555 1_555
H9 C4 1_555 1_555
H10 C4 1_555 1_555
C5 P1 1_555 1_555
C6 C5 1_555 1_555
C7 C6 1_555 1_555
C8 C7 1_555 1_555
C9 O5 1_555 1_555
C10 C7 1_555 1_555
H11 C10 1_555 1_555
C11 C10 1_555 1_555
H12 C11 1_555 1_555
C12 C11 1_555 1_555
H13 C12 1_555 1_555
C13 C8 1_555 1_555
H14 C13 1_555 1_555
C14 C9 1_555 1_555
C15 C14 1_555 1_555
H15 C15 1_555 1_555
C16 C15 1_555 1_555
H16 C16 1_555 1_555
C17 S1 1_555 1_555
H17 C17 1_555 1_555
C5 C9 1_555 1_555
C12 C13 1_555 1_555
C16 C17 1_555 1_555

#END
