
#######################################################################
#
#                 Cambridge Crystallographic Data Centre
#                                CCDC 
#
#######################################################################
#
# If this CIF has been generated from an entry in the Cambridge 
# Structural Database, then it will include bibliographic, chemical, 
# crystal, experimental, refinement or atomic coordinate data resulting 
# from the CCDC's data processing and validation procedures.
#
#######################################################################

data_WANSAI
_chemical_formula_moiety         'C17 H21 N1 O3'
_chemical_name_systematic        
(5S,8R,10S)-7-benzyl-8-hydroxy-10-methyl-7-azaspiro[4.5]decane-1,6-dione
_symmetry_cell_setting           orthorhombic
_symmetry_space_group_name_H-M   'P 21 21 21'
_symmetry_Int_Tables_number      19
_space_group_name_Hall           'P 2ac 2ab'
loop_
_symmetry_equiv_pos_site_id
_symmetry_equiv_pos_as_xyz
1 x,y,z
2 1/2-x,-y,1/2+z
3 -x,1/2+y,1/2-z
4 1/2+x,1/2-y,-z
_cell_length_a                   8.66509(6)
_cell_length_b                   11.40985(8)
_cell_length_c                   14.37363(10)
_cell_angle_alpha                90
_cell_angle_beta                 90
_cell_angle_gamma                90
_cell_volume                     1421.08
_exptl_crystal_colour            colorless
_exptl_crystal_description       rod
_chemical_melting_point          '152-163 deg.C'
_cell_formula_units_Z            4
loop_
_atom_site_label
_atom_site_type_symbol
_atom_site_fract_x
_atom_site_fract_y
_atom_site_fract_z
O1 O 0.05492(13) 0.57804(9) 0.70596(7)
O2 O 0.43162(12) 0.60142(9) 0.75067(7)
O3 O 0.63101(12) 0.27287(10) 0.61327(8)
N1 N 0.52446(14) 0.45461(11) 0.66070(8)
C1 C 0.13960(17) 0.52577(12) 0.75805(10)
C2 C 0.13516(18) 0.52975(13) 0.86343(10)
H1 H 0.0323 0.5059 0.8866
H2 H 0.1578 0.6099 0.8861
C3 C 0.25914(17) 0.44367(14) 0.89648(10)
H3 H 0.2245 0.4009 0.9527
H4 H 0.3566 0.4852 0.9109
C4 C 0.28094(17) 0.35906(13) 0.81406(10)
H5 H 0.2018 0.2965 0.8151
H6 H 0.3845 0.3224 0.8160
C5 C 0.26294(16) 0.43672(12) 0.72605(9)
C6 C 0.41285(17) 0.50507(12) 0.71243(10)
C7 C 0.50632(17) 0.35058(12) 0.60006(10)
H7 H 0.5124 0.3790 0.5343
C8 C 0.35122(17) 0.29038(13) 0.61096(10)
H8 H 0.3598 0.2301 0.6603
H9 H 0.3256 0.2497 0.5521
C9 C 0.21960(17) 0.37352(13) 0.63554(10)
H10 H 0.2109 0.4334 0.5850
C10 C 0.06751(18) 0.30658(14) 0.64082(11)
H11 H 0.0781 0.2410 0.6844
H12 H 0.0410 0.2765 0.5790
H13 H -0.0143 0.3593 0.6625
C11 C 0.67208(17) 0.51747(13) 0.64685(10)
H14 H 0.7587 0.4617 0.6546
H15 H 0.6826 0.5790 0.6950
C12 C 0.68210(16) 0.57342(13) 0.55146(10)
C13 C 0.58182(18) 0.66353(13) 0.52656(10)
H16 H 0.5050 0.6888 0.5692
C14 C 0.59323(19) 0.71678(14) 0.43989(11)
H17 H 0.5261 0.7795 0.4242
C15 C 0.70261(19) 0.67836(15) 0.37630(11)
H18 H 0.7105 0.7148 0.3171
C16 C 0.80060(18) 0.58640(15) 0.39952(11)
H19 H 0.8737 0.5585 0.3555
C17 C 0.79156(17) 0.53529(14) 0.48734(11)
H20 H 0.8606 0.4739 0.5036
H21 H 0.607(3) 0.223(2) 0.6597(16)
loop_
_geom_bond_atom_site_label_1
_geom_bond_atom_site_label_2
_geom_bond_site_symmetry_1
_geom_bond_site_symmetry_2
O1 C1 1_555 1_555
O2 C6 1_555 1_555
O3 C7 1_555 1_555
N1 C6 1_555 1_555
C1 C2 1_555 1_555
C2 H1 1_555 1_555
H2 C2 1_555 1_555
C3 C2 1_555 1_555
H3 C3 1_555 1_555
H4 C3 1_555 1_555
C4 C3 1_555 1_555
H5 C4 1_555 1_555
H6 C4 1_555 1_555
C5 C1 1_555 1_555
C6 C5 1_555 1_555
C7 N1 1_555 1_555
H7 C7 1_555 1_555
C8 C7 1_555 1_555
H8 C8 1_555 1_555
H9 C8 1_555 1_555
C9 C5 1_555 1_555
H10 C9 1_555 1_555
C10 C9 1_555 1_555
H11 C10 1_555 1_555
H12 C10 1_555 1_555
H13 C10 1_555 1_555
C11 N1 1_555 1_555
H14 C11 1_555 1_555
H15 C11 1_555 1_555
C12 C11 1_555 1_555
C13 C12 1_555 1_555
H16 C13 1_555 1_555
C14 C13 1_555 1_555
H17 C14 1_555 1_555
C15 C14 1_555 1_555
H18 C15 1_555 1_555
C16 C15 1_555 1_555
H19 C16 1_555 1_555
C17 C12 1_555 1_555
H20 C17 1_555 1_555
H21 O3 1_555 1_555
C4 C5 1_555 1_555
C8 C9 1_555 1_555
C16 C17 1_555 1_555

#END
