
#######################################################################
#
#                 Cambridge Crystallographic Data Centre
#                                CCDC 
#
#######################################################################
#
# If this CIF has been generated from an entry in the Cambridge 
# Structural Database, then it will include bibliographic, chemical, 
# crystal, experimental, refinement or atomic coordinate data resulting 
# from the CCDC's data processing and validation procedures.
#
#######################################################################

data_WANWEN
_chemical_formula_moiety         'C11 H15 N5 S1'
_chemical_name_systematic        
N-Cyano-N'-methyl-N''-(2-((2-pyridyl)methylthio)ethyl)guanidine
_chemical_properties_biological  'histamine H!2$-antagonist activity'
_symmetry_cell_setting           triclinic
_symmetry_space_group_name_H-M   'P -1'
_symmetry_Int_Tables_number      2
_space_group_name_Hall           '-P 1'
loop_
_symmetry_equiv_pos_site_id
_symmetry_equiv_pos_as_xyz
1 x,y,z
2 -x,-y,-z
_cell_length_a                   7.482(2)
_cell_length_b                   9.775(2)
_cell_length_c                   10.019(1)
_cell_angle_alpha                116.00(1)
_cell_angle_beta                 102.00(2)
_cell_angle_gamma                96.78(2)
_cell_volume                     625.7
_exptl_crystal_colour            colorless
_cell_formula_units_Z            2
loop_
_atom_site_label
_atom_site_type_symbol
_atom_site_fract_x
_atom_site_fract_y
_atom_site_fract_z
C1 C 0.5542(3) 0.2887(2) 0.6785(3)
C2 C 0.4662(3) 0.3395(2) 0.7936(3)
C3 C 0.4727(3) 0.2716(2) 0.8881(3)
C4 C 0.5680(3) 0.1548(2) 0.8652(2)
N1 N 0.6570(2) 0.1049(2) 0.7558(2)
C5 C 0.6504(2) 0.1724(2) 0.6644(2)
C6 C 0.7541(3) 0.1179(2) 0.5450(2)
S1 S 1.00091(6) 0.21906(5) 0.61716(6)
C7 C 0.9929(3) 0.4064(2) 0.6240(2)
C8 C 1.0086(3) 0.5360(2) 0.7842(2)
N2 N 1.0179(2) 0.6872(2) 0.7875(2)
C9 C 0.8656(2) 0.7451(2) 0.7675(2)
N3 N 0.8911(2) 0.8870(2) 0.7798(2)
C10 C 1.0739(3) 0.9889(2) 0.8223(3)
N4 N 0.6999(2) 0.6560(2) 0.7416(2)
C11 C 0.5495(2) 0.7121(2) 0.7413(2)
N5 N 0.4076(2) 0.7468(2) 0.7409(2)
H1 H 0.555(4) 0.334(3) 0.605(3)
H2 H 0.408(4) 0.423(3) 0.806(3)
H3 H 0.412(4) 0.305(3) 0.971(3)
H4 H 0.570(4) 0.103(3) 0.929(3)
H5 H 0.753(3) 0.013(2) 0.513(2)
H6 H 0.692(4) 0.136(3) 0.452(3)
H7 H 1.093(4) 0.428(3) 0.589(3)
H8 H 0.871(4) 0.397(3) 0.552(3)
H9 H 1.126(3) 0.542(3) 0.858(3)
H10 H 0.902(3) 0.512(3) 0.822(3)
H11 H 1.123(4) 0.733(3) 0.788(3)
H12 H 0.797(4) 0.921(3) 0.760(3)
H13 H 1.066(4) 1.096(3) 0.844(3)
H14 H 1.165(4) 1.002(3) 0.919(3)
H15 H 1.135(4) 0.945(3) 0.743(3)
loop_
_geom_bond_atom_site_label_1
_geom_bond_atom_site_label_2
_geom_bond_site_symmetry_1
_geom_bond_site_symmetry_2
C1 C2 1_555 1_555
C2 C3 1_555 1_555
C3 C4 1_555 1_555
C4 N1 1_555 1_555
N1 C5 1_555 1_555
C5 C1 1_555 1_555
C6 C5 1_555 1_555
S1 C6 1_555 1_555
C7 S1 1_555 1_555
C8 C7 1_555 1_555
N2 C8 1_555 1_555
C9 N2 1_555 1_555
N3 C9 1_555 1_555
C10 N3 1_555 1_555
N4 C9 1_555 1_555
C11 N4 1_555 1_555
N5 C11 1_555 1_555
H1 C1 1_555 1_555
H2 C2 1_555 1_555
H3 C3 1_555 1_555
H4 C4 1_555 1_555
H5 C6 1_555 1_555
H6 C6 1_555 1_555
H7 C7 1_555 1_555
H8 C7 1_555 1_555
H9 C8 1_555 1_555
H10 C8 1_555 1_555
H11 N2 1_555 1_555
H12 N3 1_555 1_555
H13 C10 1_555 1_555
H14 C10 1_555 1_555
H15 C10 1_555 1_555

#END
