
#######################################################################
#
#                 Cambridge Crystallographic Data Centre
#                                CCDC 
#
#######################################################################
#
# If this CIF has been generated from an entry in the Cambridge 
# Structural Database, then it will include bibliographic, chemical, 
# crystal, experimental, refinement or atomic coordinate data resulting 
# from the CCDC's data processing and validation procedures.
#
#######################################################################

data_WANWOA
_chemical_formula_moiety         'C22 H16 O1 S1'
_chemical_name_systematic        phenyl(2-phenyl-2H-thiochromen-3-yl)methanone
_symmetry_cell_setting           triclinic
_symmetry_space_group_name_H-M   'P -1'
_symmetry_Int_Tables_number      2
_space_group_name_Hall           '-P 1'
loop_
_symmetry_equiv_pos_site_id
_symmetry_equiv_pos_as_xyz
1 x,y,z
2 -x,-y,-z
_cell_length_a                   8.5128(2)
_cell_length_b                   9.5968(3)
_cell_length_c                   11.2892(3)
_cell_angle_alpha                87.5281(11)
_cell_angle_beta                 78.3064(12)
_cell_angle_gamma                67.9774(12)
_cell_volume                     836.691
_exptl_crystal_colour            yellow
_exptl_crystal_description       Block
_cell_formula_units_Z            2
loop_
_atom_site_label
_atom_site_type_symbol
_atom_site_fract_x
_atom_site_fract_y
_atom_site_fract_z
C1 C 0.7579(2) 1.02138(17) 0.51109(13)
H1 H 0.6798 1.1150 0.4957
C2 C 0.7889(2) 0.9924(2) 0.62655(14)
H2 H 0.7324 1.0658 0.6882
C3 C 0.9042(2) 0.8538(2) 0.64998(15)
H3 H 0.9260 0.8341 0.7277
C4 C 0.9876(2) 0.74415(19) 0.55910(15)
H4 H 1.0643 0.6506 0.5760
C5 C 0.95756(18) 0.77287(16) 0.44220(13)
C6 C 0.93771(18) 0.68284(15) 0.21673(13)
H5 H 1.0117 0.6421 0.1379
C7 C 0.85202(17) 0.85063(15) 0.20356(12)
C8 C 0.80956(17) 0.94984(15) 0.29566(12)
H6 H 0.7552 1.0509 0.2806
C9 C 0.84095(18) 0.91357(15) 0.41691(12)
C10 C 0.81112(18) 0.60384(14) 0.24356(12)
C11 C 0.8477(2) 0.46988(15) 0.18190(13)
H7 H 0.9487 0.4306 0.1235
C12 C 0.7359(2) 0.39408(16) 0.20617(15)
H8 H 0.7617 0.3048 0.1636
C13 C 0.5869(2) 0.44986(18) 0.29274(16)
H9 H 0.5122 0.3983 0.3094
C14 C 0.5488(2) 0.58313(18) 0.35490(16)
H10 H 0.4482 0.6213 0.4138
C15 C 0.6593(2) 0.65985(17) 0.32991(15)
H11 H 0.6317 0.7502 0.3714
C16 C 0.82368(19) 0.89884(17) 0.07966(13)
C17 C 0.68791(19) 1.04618(16) 0.06208(12)
C18 C 0.7184(2) 1.1259(2) -0.04059(13)
H12 H 0.8227 1.0873 -0.0960
C19 C 0.5943(3) 1.2617(2) -0.06005(17)
H13 H 0.6163 1.3150 -0.1280
C20 C 0.4392(3) 1.3190(2) 0.01963(18)
H14 H 0.3566 1.4111 0.0061
C21 C 0.4058(2) 1.2402(2) 0.11930(17)
H15 H 0.2995 1.2782 0.1726
C22 C 0.52922(19) 1.10472(17) 0.14114(14)
H16 H 0.5057 1.0524 0.2094
O1 O 0.91489(16) 0.81812(14) -0.00803(10)
S1 S 1.08088(5) 0.63846(4) 0.32512(4)
loop_
_geom_bond_atom_site_label_1
_geom_bond_atom_site_label_2
_geom_bond_site_symmetry_1
_geom_bond_site_symmetry_2
C1 H1 1_555 1_555
C2 C1 1_555 1_555
H2 C2 1_555 1_555
C3 C2 1_555 1_555
H3 C3 1_555 1_555
C4 C3 1_555 1_555
H4 C4 1_555 1_555
C5 C4 1_555 1_555
C6 H5 1_555 1_555
C7 C6 1_555 1_555
C8 C7 1_555 1_555
H6 C8 1_555 1_555
C9 C1 1_555 1_555
C10 C6 1_555 1_555
C11 C10 1_555 1_555
H7 C11 1_555 1_555
C12 C11 1_555 1_555
H8 C12 1_555 1_555
C13 C12 1_555 1_555
H9 C13 1_555 1_555
C14 C13 1_555 1_555
H10 C14 1_555 1_555
C15 C10 1_555 1_555
H11 C15 1_555 1_555
C16 C7 1_555 1_555
C17 C16 1_555 1_555
C18 C17 1_555 1_555
H12 C18 1_555 1_555
C19 C18 1_555 1_555
H13 C19 1_555 1_555
C20 C19 1_555 1_555
H14 C20 1_555 1_555
C21 C20 1_555 1_555
H15 C21 1_555 1_555
C22 C17 1_555 1_555
H16 C22 1_555 1_555
O1 C16 1_555 1_555
S1 C5 1_555 1_555
C5 C9 1_555 1_555
C6 S1 1_555 1_555
C8 C9 1_555 1_555
C14 C15 1_555 1_555
C21 C22 1_555 1_555

#END
