
#######################################################################
#
#                 Cambridge Crystallographic Data Centre
#                                CCDC 
#
#######################################################################
#
# If this CIF has been generated from an entry in the Cambridge 
# Structural Database, then it will include bibliographic, chemical, 
# crystal, experimental, refinement or atomic coordinate data resulting 
# from the CCDC's data processing and validation procedures.
#
#######################################################################

data_WANXOZ
_chemical_formula_moiety         'C17 H30 O5 Si1'
_chemical_name_systematic        
1a-Allyl-4-(((t-butyl)dimethylsiloxy)methyl)-3-(hydroxymethyl)-1a,2,5,5a-tetrahydro-1-benzoxirene-2,5-diol
_symmetry_cell_setting           monoclinic
_symmetry_space_group_name_H-M   'C 2/c'
_symmetry_Int_Tables_number      15
_space_group_name_Hall           '-C 2yn'
loop_
_symmetry_equiv_pos_site_id
_symmetry_equiv_pos_as_xyz
1 x,y,z
2 1/2+x,1/2+y,z
3 -x,y,1/2-z
4 1/2-x,1/2+y,1/2-z
5 -x,-y,-z
6 1/2-x,1/2-y,-z
7 x,-y,1/2+z
8 1/2+x,1/2-y,1/2+z
_cell_length_a                   27.666(16)
_cell_length_b                   9.137(5)
_cell_length_c                   15.098(9)
_cell_angle_alpha                90.0
_cell_angle_beta                 99.497(10)
_cell_angle_gamma                90.0
_cell_volume                     3764.23
_cell_formula_units_Z            8
loop_
_atom_site_label
_atom_site_type_symbol
_atom_site_fract_x
_atom_site_fract_y
_atom_site_fract_z
C1 C 0.0180(4) 0.901(3) 0.8976(11)
H1 H 0.0058 0.8216 0.8628
H2 H -0.0006 0.944 0.9368
Si1 Si 0.38178(3) 1.07407(10) 0.92226(6)
O1 O 0.14591(8) 1.1300(2) 0.88203(15)
O2 O 0.32918(8) 1.0106(2) 0.94412(15)
O3 O 0.17634(8) 0.7517(2) 0.94495(15)
O4 O 0.23913(10) 0.8134(2) 1.13465(15)
O5 O 0.24603(9) 1.1918(2) 0.82524(14)
C2 C 0.14330(11) 0.9725(3) 0.8816(2)
C3 C 0.21727(11) 0.9736(3) 1.00535(19)
C4 C 0.16922(11) 0.9027(3) 0.96768(19)
H3 H 0.1476 0.9067 1.0129
C5 C 0.22852(11) 1.0553(3) 0.85304(19)
H4 H 0.2431 0.9763 0.8224
C6 C 0.23123(12) 0.9612(3) 1.10582(19)
H5 H 0.2609 1.0172 1.1252
H6 H 0.2054 1.0032 1.1341
C7 C 0.24531(11) 1.0394(3) 0.95310(19)
C8 C 0.17427(12) 1.0479(3) 0.8272(2)
H7 H 0.1619 1.0497 0.7625
C9 C 0.29552(11) 1.0965(3) 0.9857(2)
H8 H 0.2976 1.1988 0.9695
H9 H 0.3033 1.0882 1.0505
C10 C 0.39687(12) 0.9540(4) 0.8297(2)
C11 C 0.09396(13) 0.9106(4) 0.8406(3)
H10 H 0.0851 0.9494 0.7803
H11 H 0.0969 0.8053 0.8357
C12 C 0.42806(16) 1.0605(6) 1.0249(3)
H12 H 0.4215 1.1332 1.0673
H13 H 0.4601 1.0764 1.01
H14 H 0.4266 0.9649 1.0507
C13 C 0.35604(16) 0.9662(5) 0.7480(3)
H15 H 0.354 1.0653 0.7267
H16 H 0.3254 0.9382 0.7649
H17 H 0.3632 0.9025 0.7013
C14 C 0.44495(14) 1.0007(6) 0.8025(3)
H18 H 0.4709 0.9896 0.8527
H19 H 0.4428 1.1013 0.784
H20 H 0.4515 0.9407 0.7537
C15 C 0.37575(16) 1.2687(4) 0.8874(3)
H21 H 0.351 1.2776 0.835
H22 H 0.4065 1.3031 0.874
H23 H 0.3666 1.3261 0.9353
C16 C 0.40047(19) 0.7939(5) 0.8593(3)
H24 H 0.409 0.7347 0.8117
H25 H 0.3695 0.7625 0.8732
H26 H 0.4252 0.7841 0.9116
C17 C 0.05327(18) 0.9441(6) 0.8927(3)
H27 H 0.0611 1.0235 0.931
H28 H 0.2424 1.1924 0.7631
H29 H 0.1761 0.6962 0.9971
H30 H 0.2696 0.786 1.1154
loop_
_geom_bond_atom_site_label_1
_geom_bond_atom_site_label_2
_geom_bond_site_symmetry_1
_geom_bond_site_symmetry_2
C1 H1 1_555 1_555
H2 C1 1_555 1_555
Si1 O2 1_555 1_555
O1 C2 1_555 1_555
O2 C9 1_555 1_555
O3 C4 1_555 1_555
O4 C6 1_555 1_555
O5 C5 1_555 1_555
C2 C4 1_555 1_555
C3 C4 1_555 1_555
C4 H3 1_555 1_555
C5 H4 1_555 1_555
C6 C3 1_555 1_555
H5 C6 1_555 1_555
H6 C6 1_555 1_555
C7 C3 1_555 1_555
C8 O1 1_555 1_555
H7 C8 1_555 1_555
C9 C7 1_555 1_555
H8 C9 1_555 1_555
H9 C9 1_555 1_555
C10 Si1 1_555 1_555
C11 C2 1_555 1_555
H10 C11 1_555 1_555
H11 C11 1_555 1_555
C12 Si1 1_555 1_555
H12 C12 1_555 1_555
H13 C12 1_555 1_555
H14 C12 1_555 1_555
C13 C10 1_555 1_555
H15 C13 1_555 1_555
H16 C13 1_555 1_555
H17 C13 1_555 1_555
C14 C10 1_555 1_555
H18 C14 1_555 1_555
H19 C14 1_555 1_555
H20 C14 1_555 1_555
C15 Si1 1_555 1_555
H21 C15 1_555 1_555
H22 C15 1_555 1_555
H23 C15 1_555 1_555
C16 C10 1_555 1_555
H24 C16 1_555 1_555
H25 C16 1_555 1_555
H26 C16 1_555 1_555
C17 C1 1_555 1_555
H27 C17 1_555 1_555
H28 O5 1_555 1_555
H29 O3 1_555 1_555
H30 O4 1_555 1_555
C2 C8 1_555 1_555
C5 C7 1_555 1_555
C5 C8 1_555 1_555
C11 C17 1_555 1_555

#END
