
#######################################################################
#
#                 Cambridge Crystallographic Data Centre
#                                CCDC 
#
#######################################################################
#
# If this CIF has been generated from an entry in the Cambridge 
# Structural Database, then it will include bibliographic, chemical, 
# crystal, experimental, refinement or atomic coordinate data resulting 
# from the CCDC's data processing and validation procedures.
#
#######################################################################

data_WANXAK
_chemical_formula_moiety         'C13 H19 N5,H2 O1'
_chemical_name_systematic        
"N-Cyano-N'-methyl-N''-(4-(3-methyl-2-pyridyl)butyl)guanidine monohydrate"
_chemical_properties_biological  'histamine H!2$-antagonist activity'
_symmetry_cell_setting           triclinic
_symmetry_space_group_name_H-M   'P -1'
_symmetry_Int_Tables_number      2
_space_group_name_Hall           '-P 1'
loop_
_symmetry_equiv_pos_site_id
_symmetry_equiv_pos_as_xyz
1 x,y,z
2 -x,-y,-z
_cell_length_a                   7.860(2)
_cell_length_b                   9.388(1)
_cell_length_c                   9.706(1)
_cell_angle_alpha                92.96(1)
_cell_angle_beta                 95.89(1)
_cell_angle_gamma                91.49(1)
_cell_volume                     711.118
_exptl_crystal_colour            colorless
_cell_formula_units_Z            2
loop_
_atom_site_label
_atom_site_type_symbol
_atom_site_fract_x
_atom_site_fract_y
_atom_site_fract_z
C1 C -0.0652(2) 0.2669(1) 0.0355(1)
C2 C -0.2299(2) 0.2243(2) -0.0174(2)
C3 C -0.3682(2) 0.2926(2) 0.0284(2)
C4 C -0.3373(2) 0.4030(2) 0.1270(2)
N1 N -0.1796(1) 0.4468(1) 0.1815(1)
C5 C -0.0453(2) 0.3809(1) 0.1366(1)
C6 C 0.1307(2) 0.4317(1) 0.1974(2)
C7 C 0.1402(2) 0.5483(2) 0.3121(1)
C8 C 0.3245(2) 0.5885(1) 0.3657(2)
C9 C 0.3437(2) 0.7072(2) 0.4806(1)
N2 N 0.2770(1) 0.8429(1) 0.4364(1)
C10 C 0.3555(2) 0.9338(1) 0.3608(1)
N3 N 0.5066(1) 0.9017(1) 0.3174(1)
C11 C 0.5988(2) 0.9952(2) 0.2353(2)
N4 N 0.2904(2) 1.0576(1) 0.3219(1)
C12 C 0.1507(2) 1.0992(2) 0.3721(2)
N5 N 0.0303(2) 1.1484(2) 0.4121(2)
C13 C 0.0865(2) 0.1959(2) -0.0162(2)
H1 H 0.157(3) 0.268(2) -0.056(2)
H2 H 0.046(3) 0.118(3) -0.085(3)
H3 H 0.155(3) 0.153(3) 0.058(3)
H4 H -0.248(3) 0.142(2) -0.092(2)
H5 H -0.485(3) 0.258(2) -0.008(2)
H6 H -0.432(3) 0.457(2) 0.160(2)
H7 H 0.185(2) 0.472(2) 0.122(2)
H8 H 0.185(2) 0.346(2) 0.227(2)
H9 H 0.086(2) 0.637(2) 0.280(2)
H10 H 0.080(2) 0.515(2) 0.390(2)
H11 H 0.376(2) 0.503(2) 0.405(2)
H12 H 0.390(2) 0.622(2) 0.283(2)
H13 H 0.283(2) 0.679(2) 0.557(2)
H14 H 0.472(2) 0.732(2) 0.519(2)
H15 H 0.170(3) 0.870(2) 0.463(2)
H16 H 0.548(2) 0.816(2) 0.338(2)
H17 H 0.594(3) 1.092(3) 0.269(2)
H18 H 0.550(4) 0.994(3) 0.141(3)
H19 H 0.701(4) 0.964(3) 0.226(3)
O1 O 0.2595(2) 0.3247(2) 0.6338(2)
H20 H 0.218(4) 0.393(3) 0.684(3)
H21 H 0.171(4) 0.292(3) 0.580(3)
loop_
_geom_bond_atom_site_label_1
_geom_bond_atom_site_label_2
_geom_bond_site_symmetry_1
_geom_bond_site_symmetry_2
C1 C2 1_555 1_555
C2 C3 1_555 1_555
C3 C4 1_555 1_555
C4 N1 1_555 1_555
N1 C5 1_555 1_555
C5 C1 1_555 1_555
C6 C5 1_555 1_555
C7 C6 1_555 1_555
C8 C7 1_555 1_555
C9 C8 1_555 1_555
N2 C9 1_555 1_555
C10 N2 1_555 1_555
N3 C10 1_555 1_555
C11 N3 1_555 1_555
N4 C10 1_555 1_555
C12 N4 1_555 1_555
N5 C12 1_555 1_555
C13 C1 1_555 1_555
O1 H20 1_555 1_555
H1 C13 1_555 1_555
H2 C13 1_555 1_555
H3 C13 1_555 1_555
H4 C2 1_555 1_555
H5 C3 1_555 1_555
H6 C4 1_555 1_555
H7 C6 1_555 1_555
H8 C6 1_555 1_555
H9 C7 1_555 1_555
H10 C7 1_555 1_555
H11 C8 1_555 1_555
H12 C8 1_555 1_555
H13 C9 1_555 1_555
H14 C9 1_555 1_555
H15 N2 1_555 1_555
H16 N3 1_555 1_555
H17 C11 1_555 1_555
H18 C11 1_555 1_555
H19 C11 1_555 1_555
H21 O1 1_555 1_555

#END
