
#######################################################################
#
#                 Cambridge Crystallographic Data Centre
#                                CCDC 
#
#######################################################################
#
# If this CIF has been generated from an entry in the Cambridge 
# Structural Database, then it will include bibliographic, chemical, 
# crystal, experimental, refinement or atomic coordinate data resulting 
# from the CCDC's data processing and validation procedures.
#
#######################################################################

data_WANXEO
_chemical_formula_moiety         'C13 H19 N5 O1'
_chemical_name_systematic        
N-Cyano-N'-methyl-N''-(4-(3-methoxy-2-pyridyl)butyl)guanidine
_chemical_properties_biological  'histamine H!2$-antagonist activity'
_symmetry_cell_setting           monoclinic
_symmetry_space_group_name_H-M   'I 2/c'
_symmetry_Int_Tables_number      15
_space_group_name_Hall           '-I 2yc'
loop_
_symmetry_equiv_pos_site_id
_symmetry_equiv_pos_as_xyz
1 x,y,z
2 1/2+x,1/2+y,1/2+z
3 -x,y,1/2-z
4 1/2-x,1/2+y,-z
5 -x,-y,-z
6 1/2-x,1/2-y,1/2-z
7 x,-y,1/2+z
8 1/2+x,1/2-y,z
_cell_length_a                   23.780(4)
_cell_length_b                   9.162(2)
_cell_length_c                   28.144(5)
_cell_angle_alpha                90
_cell_angle_beta                 111.47(1)
_cell_angle_gamma                90
_cell_volume                     5706.31
_exptl_crystal_colour            colorless
_cell_formula_units_Z            16
loop_
_atom_site_label
_atom_site_type_symbol
_atom_site_fract_x
_atom_site_fract_y
_atom_site_fract_z
C1 C 0.4386(1) 0.8698(2) 1.0904(1)
C2 C 0.4800(1) 0.9340(3) 1.1330(1)
C3 C 0.4626(1) 0.9648(3) 1.1732(1)
C4 C 0.4053(1) 0.9322(3) 1.1699(1)
N1 N 0.3639(1) 0.8704(2) 1.1284(1)
C5 C 0.3803(1) 0.8389(2) 1.0891(1)
C6 C 0.3344(1) 0.7690(2) 1.0430(1)
C7 C 0.3048(1) 0.8758(2) 0.9996(1)
C8 C 0.2607(1) 0.8023(2) 0.9521(1)
C9 C 0.2348(1) 0.9092(2) 0.9086(1)
N2 N 0.1873(1) 0.8503(2) 0.8636(1)
C10 C 0.1994(1) 0.7633(2) 0.8302(1)
N3 N 0.1541(1) 0.7214(2) 0.7881(1)
C11 C 0.0931(1) 0.7771(3) 0.7722(1)
N4 N 0.2567(1) 0.7236(2) 0.8416(1)
C12 C 0.2700(1) 0.6395(3) 0.8097(1)
N5 N 0.2874(1) 0.5643(3) 0.7851(1)
O1 O 0.4497(1) 0.8319(2) 1.0480(1)
C13 C 0.5106(1) 0.8413(4) 1.0507(1)
H1 H 0.512(1) 0.811(3) 1.0172(9)
H2 H 0.537(1) 0.775(3) 1.0783(9)
H3 H 0.525(1) 0.944(3) 1.0583(9)
H4 H 0.522(1) 0.958(3) 1.1345(9)
H5 H 0.492(1) 1.011(3) 1.2048(9)
H6 H 0.393(1) 0.955(3) 1.1997(9)
H7 H 0.302(1) 0.724(3) 1.0532(9)
H8 H 0.355(1) 0.691(3) 1.0303(9)
H9 H 0.282(1) 0.951(3) 1.0116(9)
H10 H 0.337(1) 0.925(3) 0.9906(9)
H11 H 0.227(1) 0.759(3) 0.9605(9)
H12 H 0.282(1) 0.723(3) 0.9413(9)
H13 H 0.218(1) 0.994(3) 0.9213(9)
H14 H 0.268(1) 0.944(3) 0.8981(9)
H15 H 0.146(1) 0.874(3) 0.8577(9)
H16 H 0.162(1) 0.650(3) 0.7673(9)
H17 H 0.067(1) 0.729(3) 0.7396(9)
H18 H 0.076(1) 0.757(3) 0.7992(9)
H19 H 0.094(1) 0.885(3) 0.7667(9)
C14 C -0.0149(1) 0.1373(2) 0.3944(1)
C15 C -0.0518(1) 0.0424(3) 0.3581(1)
C16 C -0.0257(1) -0.0482(3) 0.3327(1)
C17 C 0.0348(1) -0.0376(3) 0.3430(1)
N6 N 0.0712(1) 0.0546(2) 0.3778(1)
C18 C 0.0472(1) 0.1402(2) 0.4038(1)
C19 C 0.0897(1) 0.2328(2) 0.4456(1)
C20 C 0.1177(1) 0.1456(2) 0.4949(1)
C21 C 0.1608(1) 0.2338(2) 0.5391(1)
C22 C 0.1880(1) 0.1424(2) 0.5871(1)
N7 N 0.2336(1) 0.2180(2) 0.6293(1)
C23 C 0.2194(1) 0.3095(2) 0.6601(1)
N8 N 0.2633(1) 0.3663(2) 0.7001(1)
C24 C 0.3260(1) 0.3264(3) 0.7158(1)
N9 N 0.1608(1) 0.3412(2) 0.6485(1)
C25 C 0.1465(1) 0.4293(3) 0.6791(1)
N10 N 0.1292(1) 0.5055(3) 0.7034(1)
O2 O -0.0338(1) 0.2313(2) 0.4229(1)
C26 C -0.0972(1) 0.2438(3) 0.4111(1)
H20 H -0.105(1) 0.316(3) 0.4346(9)
H21 H -0.117(1) 0.278(3) 0.375(1)
H22 H -0.114(1) 0.147(3) 0.4153(9)
H23 H -0.096(1) 0.039(3) 0.3503(9)
H24 H -0.051(1) -0.120(3) 0.3071(9)
H25 H 0.053(1) -0.102(3) 0.3238(9)
H26 H 0.067(1) 0.317(3) 0.4520(9)
H27 H 0.123(1) 0.270(3) 0.4347(9)
H28 H 0.084(1) 0.108(3) 0.5052(9)
H29 H 0.141(1) 0.062(3) 0.4881(9)
H30 H 0.138(1) 0.317(3) 0.5465(9)
H31 H 0.194(1) 0.272(3) 0.5291(9)
H32 H 0.155(1) 0.111(3) 0.5985(9)
H33 H 0.207(1) 0.054(3) 0.5784(9)
H34 H 0.275(1) 0.202(3) 0.6352(9)
H35 H 0.252(1) 0.438(3) 0.7197(9)
H36 H 0.350(1) 0.384(3) 0.7468(9)
H37 H 0.331(1) 0.220(3) 0.7239(9)
H38 H 0.341(1) 0.348(3) 0.6875(9)
loop_
_geom_bond_atom_site_label_1
_geom_bond_atom_site_label_2
_geom_bond_site_symmetry_1
_geom_bond_site_symmetry_2
C1 C2 1_555 1_555
C2 C3 1_555 1_555
C3 C4 1_555 1_555
C4 N1 1_555 1_555
N1 C5 1_555 1_555
C5 C1 1_555 1_555
C6 C5 1_555 1_555
C7 C6 1_555 1_555
C8 C7 1_555 1_555
C9 C8 1_555 1_555
N2 C9 1_555 1_555
C10 N2 1_555 1_555
N3 C10 1_555 1_555
C11 N3 1_555 1_555
N4 C10 1_555 1_555
C12 N4 1_555 1_555
N5 C12 1_555 1_555
O1 C1 1_555 1_555
C13 O1 1_555 1_555
C14 C15 1_555 1_555
C15 C16 1_555 1_555
C16 C17 1_555 1_555
C17 N6 1_555 1_555
N6 C18 1_555 1_555
C18 C14 1_555 1_555
C19 C18 1_555 1_555
C20 C19 1_555 1_555
C21 C20 1_555 1_555
C22 C21 1_555 1_555
N7 C22 1_555 1_555
C23 N7 1_555 1_555
N8 C23 1_555 1_555
C24 N8 1_555 1_555
N9 C23 1_555 1_555
C25 N9 1_555 1_555
N10 C25 1_555 1_555
O2 C14 1_555 1_555
C26 O2 1_555 1_555
H1 C13 1_555 1_555
H2 C13 1_555 1_555
H3 C13 1_555 1_555
H4 C2 1_555 1_555
H5 C3 1_555 1_555
H6 C4 1_555 1_555
H7 C6 1_555 1_555
H8 C6 1_555 1_555
H9 C7 1_555 1_555
H10 C7 1_555 1_555
H11 C8 1_555 1_555
H12 C8 1_555 1_555
H13 C9 1_555 1_555
H14 C9 1_555 1_555
H15 N2 1_555 1_555
H16 N3 1_555 1_555
H17 C11 1_555 1_555
H18 C11 1_555 1_555
H19 C11 1_555 1_555
H20 C26 1_555 1_555
H21 C26 1_555 1_555
H22 C26 1_555 1_555
H23 C15 1_555 1_555
H24 C16 1_555 1_555
H25 C17 1_555 1_555
H26 C19 1_555 1_555
H27 C19 1_555 1_555
H28 C20 1_555 1_555
H29 C20 1_555 1_555
H30 C21 1_555 1_555
H31 C21 1_555 1_555
H32 C22 1_555 1_555
H33 C22 1_555 1_555
H34 N7 1_555 1_555
H35 N8 1_555 1_555
H36 C24 1_555 1_555
H37 C24 1_555 1_555
H38 C24 1_555 1_555

#END
