
#######################################################################
#
#                 Cambridge Crystallographic Data Centre
#                                CCDC 
#
#######################################################################
#
# If this CIF has been generated from an entry in the Cambridge 
# Structural Database, then it will include bibliographic, chemical, 
# crystal, experimental, refinement or atomic coordinate data resulting 
# from the CCDC's data processing and validation procedures.
#
#######################################################################

data_WANXUF
_chemical_formula_moiety         'C24 H28 F2 O2 Si1'
_chemical_name_systematic        
1,8-bis(4-Fluorophenyl)-4-(trimethylsilylmethyl)-2,3-dioxabicyclo[4.4.0]dec-7-ene
_chemical_properties_biological  'poor antimalarial activity'
_symmetry_cell_setting           monoclinic
_symmetry_space_group_name_H-M   'P 21/n'
_symmetry_Int_Tables_number      14
_space_group_name_Hall           '-P 2yn'
loop_
_symmetry_equiv_pos_site_id
_symmetry_equiv_pos_as_xyz
1 x,y,z
2 1/2-x,1/2+y,1/2-z
3 -x,-y,-z
4 1/2+x,1/2-y,1/2+z
_cell_length_a                   12.4944(9)
_cell_length_b                   10.5879(8)
_cell_length_c                   17.2697(13)
_cell_angle_alpha                90
_cell_angle_beta                 100.6050(10)
_cell_angle_gamma                90
_cell_volume                     2245.58
_cell_formula_units_Z            4
loop_
_atom_site_label
_atom_site_type_symbol
_atom_site_fract_x
_atom_site_fract_y
_atom_site_fract_z
C1 C 0.64075(11) 0.87872(12) 0.29732(7)
H1 H 0.6678 0.9460 0.2700
C2 C 0.52951(11) 0.87334(13) 0.30009(8)
H2 H 0.4809 0.9362 0.2750
C3 C 0.49211(11) 0.77485(14) 0.34007(8)
C4 C 0.55966(12) 0.68005(14) 0.37663(8)
H3 H 0.5313 0.6126 0.4030
C5 C 0.67051(11) 0.68651(13) 0.37361(8)
H4 H 0.7182 0.6226 0.3985
C6 C 0.71264(10) 0.78620(12) 0.33430(7)
C7 C 0.83585(10) 0.79198(11) 0.33735(7)
C8 C 0.89543(10) 0.80805(12) 0.42308(7)
H5 H 0.9751 0.8088 0.4250
H6 H 0.8779 0.7363 0.4553
C9 C 0.85984(10) 0.93282(12) 0.45652(7)
H7 H 0.7853 0.9228 0.4675
H8 H 0.9090 0.9516 0.5070
C10 C 0.86141(10) 1.04357(12) 0.40044(7)
C11 C 0.85308(10) 1.17315(12) 0.43317(7)
C12 C 0.79521(11) 1.19375(12) 0.49517(8)
H9 H 0.7605 1.1246 0.5154
C13 C 0.78817(11) 1.31399(13) 0.52712(8)
H10 H 0.7486 1.3274 0.5684
C14 C 0.84029(11) 1.41309(12) 0.49715(8)
C15 C 0.89683(11) 1.39873(12) 0.43567(8)
H11 H 0.9302 1.4689 0.4154
C16 C 0.90314(11) 1.27766(12) 0.40450(8)
H12 H 0.9423 1.2657 0.3628
C17 C 0.86626(10) 1.02547(12) 0.32393(7)
H13 H 0.8663 1.0981 0.2917
C18 C 0.87165(10) 0.89703(12) 0.28571(7)
H14 H 0.8201 0.8974 0.2340
C19 C 0.98786(11) 0.87177(12) 0.26952(8)
H15 H 1.0018 0.9285 0.2269
H16 H 1.0418 0.8918 0.3175
C20 C 1.00312(11) 0.73451(12) 0.24574(8)
H17 H 0.9536 0.7154 0.1947
C21 C 1.12114(11) 0.70324(13) 0.23949(8)
H18 H 1.1355 0.6139 0.2548
H19 H 1.1703 0.7560 0.2779
C22 C 1.11139(14) 0.88925(14) 0.09856(9)
H20 H 1.1404 0.9538 0.1375
H21 H 1.0317 0.8933 0.0879
H22 H 1.1387 0.9044 0.0497
C23 C 1.30689(13) 0.71128(16) 0.14638(9)
H23 H 1.3299 0.6287 0.1691
H24 H 1.3439 0.7781 0.1804
H25 H 1.3258 0.7181 0.0939
C24 C 1.08363(13) 0.60637(15) 0.06891(9)
H26 H 1.0999 0.6199 0.0161
H27 H 1.0050 0.6136 0.0669
H28 H 1.1081 0.5219 0.0875
F1 F 0.38346(7) 0.77045(9) 0.34428(6)
F2 F 0.83599(7) 1.53060(7) 0.52992(5)
O1 O 0.97634(7) 0.65357(9) 0.30787(5)
O2 O 0.85753(7) 0.66789(8) 0.30554(5)
Si1 Si 1.15640(3) 0.72834(4) 0.13819(2)
loop_
_geom_bond_atom_site_label_1
_geom_bond_atom_site_label_2
_geom_bond_site_symmetry_1
_geom_bond_site_symmetry_2
C1 H1 1_555 1_555
C2 C1 1_555 1_555
H2 C2 1_555 1_555
C3 C2 1_555 1_555
C4 C3 1_555 1_555
H3 C4 1_555 1_555
C5 C4 1_555 1_555
H4 C5 1_555 1_555
C6 C1 1_555 1_555
C7 C6 1_555 1_555
C8 C7 1_555 1_555
H5 C8 1_555 1_555
H6 C8 1_555 1_555
C9 C8 1_555 1_555
H7 C9 1_555 1_555
H8 C9 1_555 1_555
C10 C9 1_555 1_555
C11 C10 1_555 1_555
C12 C11 1_555 1_555
H9 C12 1_555 1_555
C13 C12 1_555 1_555
H10 C13 1_555 1_555
C14 C13 1_555 1_555
C15 C14 1_555 1_555
H11 C15 1_555 1_555
C16 C11 1_555 1_555
H12 C16 1_555 1_555
C17 C10 1_555 1_555
H13 C17 1_555 1_555
C18 C7 1_555 1_555
H14 C18 1_555 1_555
C19 C18 1_555 1_555
H15 C19 1_555 1_555
H16 C19 1_555 1_555
C20 C19 1_555 1_555
H17 C20 1_555 1_555
C21 C20 1_555 1_555
H18 C21 1_555 1_555
H19 C21 1_555 1_555
C22 H20 1_555 1_555
H21 C22 1_555 1_555
H22 C22 1_555 1_555
C23 H23 1_555 1_555
H24 C23 1_555 1_555
H25 C23 1_555 1_555
C24 H26 1_555 1_555
H27 C24 1_555 1_555
H28 C24 1_555 1_555
F1 C3 1_555 1_555
F2 C14 1_555 1_555
O1 C20 1_555 1_555
O2 C7 1_555 1_555
Si1 C21 1_555 1_555
C5 C6 1_555 1_555
C15 C16 1_555 1_555
C17 C18 1_555 1_555
C22 Si1 1_555 1_555
C23 Si1 1_555 1_555
C24 Si1 1_555 1_555
O1 O2 1_555 1_555

#END
