
#######################################################################
#
#                 Cambridge Crystallographic Data Centre
#                                CCDC 
#
#######################################################################
#
# If this CIF has been generated from an entry in the Cambridge 
# Structural Database, then it will include bibliographic, chemical, 
# crystal, experimental, refinement or atomic coordinate data resulting 
# from the CCDC's data processing and validation procedures.
#
#######################################################################

data_WAPBIB
_chemical_formula_moiety         'C29 H34 O4 S1'
_chemical_name_systematic        
2,6-di-t-butyl-4-(2-(4-methoxyphenyl)-1-(phenylsulfonyl)vinyl)phenol
_symmetry_cell_setting           monoclinic
_symmetry_space_group_name_H-M   'P 21'
_symmetry_Int_Tables_number      4
_space_group_name_Hall           'P 2yb'
loop_
_symmetry_equiv_pos_site_id
_symmetry_equiv_pos_as_xyz
1 x,y,z
2 -x,1/2+y,-z
_cell_length_a                   9.3489(5)
_cell_length_b                   15.6494(9)
_cell_length_c                   18.4534(10)
_cell_angle_alpha                90
_cell_angle_beta                 102.884(2)
_cell_angle_gamma                90
_cell_volume                     2631.85
_exptl_crystal_colour            colorless
_exptl_crystal_description       block
_cell_formula_units_Z            4
loop_
_atom_site_label
_atom_site_type_symbol
_atom_site_fract_x
_atom_site_fract_y
_atom_site_fract_z
S1 S 0.29719(10) 0.29794(5) 0.60512(5)
O1 O 0.4456(3) 0.27069(16) 0.60727(14)
O2 O 0.2029(3) 0.24063(17) 0.63404(15)
O3 O 0.5912(3) 0.63153(18) 0.50053(16)
H1 H 0.556(3) 0.659(3) 0.473(2)
O4 O 0.1748(3) 0.66284(18) 0.90865(15)
C1 C 0.2129(4) 0.3214(2) 0.5113(2)
C2 C 0.0612(4) 0.3236(3) 0.4913(2)
H2 H 0.0040 0.3116 0.5267
C3 C -0.0050(5) 0.3434(3) 0.4190(3)
H3 H -0.1090 0.3446 0.4039
C4 C 0.0793(5) 0.3617(3) 0.3679(2)
H4 H 0.0327 0.3758 0.3181
C5 C 0.2296(5) 0.3595(3) 0.3888(2)
H5 H 0.2865 0.3716 0.3534
C6 C 0.2988(4) 0.3398(2) 0.4612(2)
H6 H 0.4028 0.3389 0.4762
C7 C 0.3029(4) 0.3985(2) 0.65103(19)
C8 C 0.3778(4) 0.4655(2) 0.61564(19)
C9 C 0.2960(4) 0.5185(2) 0.56158(19)
H7 H 0.1920 0.5155 0.5520
C10 C 0.3604(4) 0.5758(2) 0.5210(2)
C11 C 0.5146(4) 0.5783(2) 0.5371(2)
C12 C 0.6022(4) 0.5259(2) 0.5920(2)
C13 C 0.5298(4) 0.4698(2) 0.62974(19)
H8 H 0.5860 0.4332 0.6664
C14 C 0.2634(4) 0.6301(2) 0.4589(2)
C15 C 0.0992(4) 0.6117(3) 0.4523(2)
H9 H 0.0408 0.6475 0.4131
H10 H 0.0731 0.6245 0.4997
H11 H 0.0793 0.5513 0.4399
C16 C 0.2949(5) 0.6070(3) 0.3829(2)
H12 H 0.2241 0.6361 0.3434
H13 H 0.2862 0.5451 0.3754
H14 H 0.3945 0.6253 0.3814
C17 C 0.2849(4) 0.7260(2) 0.4752(2)
H15 H 0.2216 0.7588 0.4353
H16 H 0.3877 0.7413 0.4781
H17 H 0.2592 0.7392 0.5227
C18 C 0.7710(4) 0.5271(3) 0.6085(2)
C19 C 0.8250(4) 0.5035(3) 0.5384(2)
H18 H 0.9324 0.5008 0.5504
H19 H 0.7921 0.5468 0.5000
H20 H 0.7850 0.4477 0.5201
C20 C 0.8296(5) 0.6156(3) 0.6368(3)
H21 H 0.9371 0.6146 0.6492
H22 H 0.7936 0.6304 0.6811
H23 H 0.7954 0.6583 0.5979
C21 C 0.8376(4) 0.4611(3) 0.6682(3)
H24 H 0.9447 0.4617 0.6758
H25 H 0.8005 0.4040 0.6519
H26 H 0.8099 0.4753 0.7149
C22 C 0.2416(4) 0.4014(2) 0.7100(2)
H27 H 0.1982 0.3497 0.7213
C23 C 0.2323(4) 0.4731(2) 0.7591(2)
C24 C 0.1656(4) 0.4579(3) 0.8191(2)
H28 H 0.1311 0.4021 0.8263
C25 C 0.1492(4) 0.5215(3) 0.8674(2)
H29 H 0.1058 0.5092 0.9081
C26 C 0.1958(4) 0.6042(3) 0.8572(2)
C27 C 0.2602(5) 0.6211(3) 0.7983(2)
H30 H 0.2914 0.6775 0.7906
C28 C 0.2795(4) 0.5561(3) 0.7505(2)
H31 H 0.3259 0.5684 0.7108
C29 C 0.2307(6) 0.7484(3) 0.9035(3)
H32 H 0.2239 0.7810 0.9480
H33 H 0.1725 0.7769 0.8593
H34 H 0.3334 0.7454 0.8996
S2 S 0.99300(10) 0.70523(6) 0.16621(5)
O5 O 0.9072(3) 0.73281(18) 0.09502(16)
O6 O 0.9972(3) 0.75961(17) 0.22982(16)
O7 O 0.9427(3) 0.36570(18) -0.04351(15)
H35 H 0.995(3) 0.335(3) -0.045(2)
O8 O 0.5461(3) 0.33573(18) 0.34799(17)
C30 C 1.1750(4) 0.6890(2) 0.1560(2)
C31 C 1.1996(4) 0.6555(2) 0.0901(2)
H36 H 1.1195 0.6425 0.0500
C32 C 1.3417(5) 0.6412(3) 0.0837(2)
H37 H 1.3597 0.6182 0.0389
C33 C 1.4582(5) 0.6603(3) 0.1419(3)
H38 H 1.5556 0.6486 0.1377
C34 C 1.4334(5) 0.6965(3) 0.2067(2)
H39 H 1.5140 0.7113 0.2459
C35 C 1.2919(4) 0.7109(3) 0.2143(2)
H40 H 1.2743 0.7355 0.2586
C36 C 0.9239(4) 0.6027(2) 0.1831(2)
C37 C 0.9310(4) 0.5378(2) 0.12436(19)
C38 C 1.0474(4) 0.4818(2) 0.13254(19)
H41 H 1.1219 0.4836 0.1770
C39 C 1.0593(4) 0.4227(2) 0.0778(2)
C40 C 0.9452(4) 0.4209(2) 0.0137(2)
C41 C 0.8238(4) 0.4763(2) 0.0040(2)
C42 C 0.8201(4) 0.5346(2) 0.0602(2)
H42 H 0.7400 0.5732 0.0546
C43 C 1.1954(4) 0.3630(3) 0.0893(2)
C44 C 1.1494(5) 0.2687(3) 0.0912(2)
H43 H 1.2365 0.2322 0.0980
H44 H 1.0813 0.2541 0.0443
H45 H 1.1010 0.2599 0.1326
C45 C 1.2803(5) 0.3779(3) 0.0274(2)
H46 H 1.3671 0.3409 0.0360
H47 H 1.3110 0.4378 0.0280
H48 H 1.2166 0.3645 -0.0210
C46 C 1.3040(5) 0.3817(3) 0.1627(2)
H49 H 1.3928 0.3472 0.1659
H50 H 1.2590 0.3673 0.2043
H51 H 1.3300 0.4424 0.1651
C47 C 0.6974(4) 0.4739(3) -0.0655(2)
C48 C 0.7535(5) 0.4950(3) -0.1361(2)
H52 H 0.6713 0.4933 -0.1796
H53 H 0.8275 0.4529 -0.1422
H54 H 0.7972 0.5522 -0.1314
C49 C 0.6230(5) 0.3860(3) -0.0743(2)
H55 H 0.5422 0.3861 -0.1185
H56 H 0.5845 0.3735 -0.0302
H57 H 0.6947 0.3422 -0.0798
C50 C 0.5783(4) 0.5401(3) -0.0612(2)
H58 H 0.4987 0.5358 -0.1057
H59 H 0.6207 0.5976 -0.0581
H60 H 0.5393 0.5291 -0.0170
C51 C 0.8620(4) 0.5963(2) 0.2414(2)
H61 H 0.8724 0.6450 0.2729
C52 C 0.7806(4) 0.5248(2) 0.26393(19)
C53 C 0.7636(4) 0.4437(2) 0.2318(2)
H62 H 0.8060 0.4323 0.1905
C54 C 0.6876(4) 0.3795(3) 0.2578(2)
H63 H 0.6799 0.3246 0.2352
C55 C 0.6219(4) 0.3950(2) 0.3173(2)
C56 C 0.6339(4) 0.4758(3) 0.3493(2)
H64 H 0.5874 0.4874 0.3890
C57 C 0.7123(4) 0.5389(2) 0.3240(2)
H65 H 0.7209 0.5933 0.3474
C58 C 0.5435(5) 0.2491(3) 0.3226(3)
H66 H 0.4886 0.2137 0.3508
H67 H 0.6442 0.2276 0.3299
H68 H 0.4959 0.2467 0.2696
loop_
_geom_bond_atom_site_label_1
_geom_bond_atom_site_label_2
_geom_bond_site_symmetry_1
_geom_bond_site_symmetry_2
S1 O1 1_555 1_555
O2 S1 1_555 1_555
O3 H1 1_555 1_555
O4 C26 1_555 1_555
C1 S1 1_555 1_555
C2 C1 1_555 1_555
H2 C2 1_555 1_555
C3 C2 1_555 1_555
H3 C3 1_555 1_555
C4 C3 1_555 1_555
H4 C4 1_555 1_555
C5 C4 1_555 1_555
H5 C5 1_555 1_555
C6 C1 1_555 1_555
H6 C6 1_555 1_555
C7 S1 1_555 1_555
C8 C7 1_555 1_555
C9 C8 1_555 1_555
H7 C9 1_555 1_555
C10 C9 1_555 1_555
C11 O3 1_555 1_555
C12 C11 1_555 1_555
C13 C8 1_555 1_555
H8 C13 1_555 1_555
C14 C10 1_555 1_555
C15 C14 1_555 1_555
H9 C15 1_555 1_555
H10 C15 1_555 1_555
H11 C15 1_555 1_555
C16 C14 1_555 1_555
H12 C16 1_555 1_555
H13 C16 1_555 1_555
H14 C16 1_555 1_555
C17 C14 1_555 1_555
H15 C17 1_555 1_555
H16 C17 1_555 1_555
H17 C17 1_555 1_555
C18 C12 1_555 1_555
C19 C18 1_555 1_555
H18 C19 1_555 1_555
H19 C19 1_555 1_555
H20 C19 1_555 1_555
C20 C18 1_555 1_555
H21 C20 1_555 1_555
H22 C20 1_555 1_555
H23 C20 1_555 1_555
C21 C18 1_555 1_555
H24 C21 1_555 1_555
H25 C21 1_555 1_555
H26 C21 1_555 1_555
C22 C7 1_555 1_555
H27 C22 1_555 1_555
C23 C22 1_555 1_555
C24 C23 1_555 1_555
H28 C24 1_555 1_555
C25 C24 1_555 1_555
H29 C25 1_555 1_555
C26 C25 1_555 1_555
C27 C26 1_555 1_555
H30 C27 1_555 1_555
C28 C23 1_555 1_555
H31 C28 1_555 1_555
C29 O4 1_555 1_555
H32 C29 1_555 1_555
H33 C29 1_555 1_555
H34 C29 1_555 1_555
S2 O5 1_555 1_555
O6 S2 1_555 1_555
O7 H35 1_555 1_555
O8 C55 1_555 1_555
C30 S2 1_555 1_555
C31 C30 1_555 1_555
H36 C31 1_555 1_555
C32 C31 1_555 1_555
H37 C32 1_555 1_555
C33 C32 1_555 1_555
H38 C33 1_555 1_555
C34 C33 1_555 1_555
H39 C34 1_555 1_555
C35 C30 1_555 1_555
H40 C35 1_555 1_555
C36 S2 1_555 1_555
C37 C36 1_555 1_555
C38 C37 1_555 1_555
H41 C38 1_555 1_555
C39 C38 1_555 1_555
C40 O7 1_555 1_555
C41 C40 1_555 1_555
C42 C37 1_555 1_555
H42 C42 1_555 1_555
C43 C39 1_555 1_555
C44 C43 1_555 1_555
H43 C44 1_555 1_555
H44 C44 1_555 1_555
H45 C44 1_555 1_555
C45 C43 1_555 1_555
H46 C45 1_555 1_555
H47 C45 1_555 1_555
H48 C45 1_555 1_555
C46 C43 1_555 1_555
H49 C46 1_555 1_555
H50 C46 1_555 1_555
H51 C46 1_555 1_555
C47 C41 1_555 1_555
C48 C47 1_555 1_555
H52 C48 1_555 1_555
H53 C48 1_555 1_555
H54 C48 1_555 1_555
C49 C47 1_555 1_555
H55 C49 1_555 1_555
H56 C49 1_555 1_555
H57 C49 1_555 1_555
C50 C47 1_555 1_555
H58 C50 1_555 1_555
H59 C50 1_555 1_555
H60 C50 1_555 1_555
C51 C36 1_555 1_555
H61 C51 1_555 1_555
C52 C51 1_555 1_555
C53 C52 1_555 1_555
H62 C53 1_555 1_555
C54 C53 1_555 1_555
H63 C54 1_555 1_555
C55 C54 1_555 1_555
C56 C55 1_555 1_555
H64 C56 1_555 1_555
C57 C52 1_555 1_555
H65 C57 1_555 1_555
C58 O8 1_555 1_555
H66 C58 1_555 1_555
H67 C58 1_555 1_555
H68 C58 1_555 1_555
C5 C6 1_555 1_555
C10 C11 1_555 1_555
C12 C13 1_555 1_555
C27 C28 1_555 1_555
C34 C35 1_555 1_555
C39 C40 1_555 1_555
C41 C42 1_555 1_555
C56 C57 1_555 1_555

#END
