
#######################################################################
#
#                 Cambridge Crystallographic Data Centre
#                                CCDC 
#
#######################################################################
#
# If this CIF has been generated from an entry in the Cambridge 
# Structural Database, then it will include bibliographic, chemical, 
# crystal, experimental, refinement or atomic coordinate data resulting 
# from the CCDC's data processing and validation procedures.
#
#######################################################################

data_WAPBEX
_chemical_formula_moiety         'C19 H16 O3'
_chemical_name_systematic        
3,3-dimethyl-3,4-dihydro-1H-naphtho[2,3-c]chromene-1,6(2H)-dione
_symmetry_cell_setting           monoclinic
_symmetry_space_group_name_H-M   'C 2/c'
_symmetry_Int_Tables_number      15
_space_group_name_Hall           '-C 2yn'
loop_
_symmetry_equiv_pos_site_id
_symmetry_equiv_pos_as_xyz
1 x,y,z
2 -x,y,1/2-z
3 1/2+x,1/2+y,z
4 1/2-x,1/2+y,1/2-z
5 -x,-y,-z
6 x,-y,1/2+z
7 1/2-x,1/2-y,-z
8 1/2+x,1/2-y,1/2+z
_cell_length_a                   24.000(3)
_cell_length_b                   7.0480(10)
_cell_length_c                   19.277(3)
_cell_angle_alpha                90
_cell_angle_beta                 117.566(2)
_cell_angle_gamma                90
_cell_volume                     2890.58
_exptl_crystal_colour            colorless
_exptl_crystal_description       block
_cell_formula_units_Z            8
loop_
_atom_site_label
_atom_site_type_symbol
_atom_site_fract_x
_atom_site_fract_y
_atom_site_fract_z
C1 C 0.09254(8) 0.6073(3) 0.15369(10)
C2 C 0.07292(8) 0.6405(3) 0.21798(11)
H1 H 0.0599 0.7716 0.2158
H2 H 0.0370 0.5608 0.2077
C3 C 0.12343(8) 0.5998(3) 0.29778(10)
C4 C 0.13357(9) 0.5374(3) 0.42601(11)
C5 C 0.20179(9) 0.5231(2) 0.45519(10)
C6 C 0.23804(10) 0.4828(3) 0.53290(11)
H3 H 0.2189 0.4665 0.5648
C7 C 0.30348(10) 0.4657(3) 0.56527(11)
C8 C 0.34175(12) 0.4178(3) 0.64501(12)
H4 H 0.3236 0.3980 0.6778
C9 C 0.40474(13) 0.4010(3) 0.67337(14)
H5 H 0.4296 0.3674 0.7254
C10 C 0.43285(12) 0.4341(3) 0.62469(15)
H6 H 0.4762 0.4232 0.6452
C11 C 0.39786(10) 0.4816(3) 0.54844(13)
H7 H 0.4174 0.5050 0.5175
C12 C 0.33136(9) 0.4959(3) 0.51549(11)
C13 C 0.29364(9) 0.5375(3) 0.43582(11)
H8 H 0.3127 0.5573 0.4040
C14 C 0.22891(8) 0.5497(2) 0.40358(10)
C15 C 0.18592(8) 0.5910(2) 0.32164(10)
C16 C 0.20663(8) 0.6262(3) 0.26083(11)
C17 C 0.15763(9) 0.6965(3) 0.18273(11)
H9 H 0.1722 0.6726 0.1442
H10 H 0.1537 0.8328 0.1859
C18 C 0.09481(11) 0.3964(3) 0.13886(12)
H11 H 0.0538 0.3422 0.1218
H12 H 0.1242 0.3354 0.1863
H13 H 0.1078 0.3783 0.0991
C19 C 0.04562(10) 0.7054(4) 0.07858(12)
H14 H 0.0576 0.6842 0.0381
H15 H 0.0454 0.8392 0.0878
H16 H 0.0044 0.6545 0.0626
O1 O 0.10608(7) 0.5187(2) 0.46383(9)
O2 O 0.09778(6) 0.57474(19) 0.34763(8)
O3 O 0.26079(6) 0.6065(2) 0.27381(8)
loop_
_geom_bond_atom_site_label_1
_geom_bond_atom_site_label_2
_geom_bond_site_symmetry_1
_geom_bond_site_symmetry_2
C1 C2 1_555 1_555
C2 H1 1_555 1_555
H2 C2 1_555 1_555
C3 C2 1_555 1_555
C4 C5 1_555 1_555
C5 C6 1_555 1_555
C6 H3 1_555 1_555
C7 C6 1_555 1_555
C8 C7 1_555 1_555
H4 C8 1_555 1_555
C9 C8 1_555 1_555
H5 C9 1_555 1_555
C10 C9 1_555 1_555
H6 C10 1_555 1_555
C11 C10 1_555 1_555
H7 C11 1_555 1_555
C12 C7 1_555 1_555
C13 C12 1_555 1_555
H8 C13 1_555 1_555
C14 C5 1_555 1_555
C15 C3 1_555 1_555
C16 C15 1_555 1_555
C17 C1 1_555 1_555
H9 C17 1_555 1_555
H10 C17 1_555 1_555
C18 C1 1_555 1_555
H11 C18 1_555 1_555
H12 C18 1_555 1_555
H13 C18 1_555 1_555
C19 C1 1_555 1_555
H14 C19 1_555 1_555
H15 C19 1_555 1_555
H16 C19 1_555 1_555
O1 C4 1_555 1_555
O2 C3 1_555 1_555
O3 C16 1_555 1_555
C4 O2 1_555 1_555
C11 C12 1_555 1_555
C13 C14 1_555 1_555
C14 C15 1_555 1_555
C16 C17 1_555 1_555

#END
