
#######################################################################
#
#                 Cambridge Crystallographic Data Centre
#                                CCDC 
#
#######################################################################
#
# If this CIF has been generated from an entry in the Cambridge 
# Structural Database, then it will include bibliographic, chemical, 
# crystal, experimental, refinement or atomic coordinate data resulting 
# from the CCDC's data processing and validation procedures.
#
#######################################################################

data_WAPKAB
_chemical_formula_moiety         'C38 H42 N2,C4 H8 O1'
_chemical_name_systematic        
'9,10-bis(2,6-diisopropylphenylimino)phenanthrene tetrahydrofuran solvate'
_symmetry_cell_setting           monoclinic
_symmetry_space_group_name_H-M   'P 21/n'
_symmetry_Int_Tables_number      14
_space_group_name_Hall           '-P 2yn'
loop_
_symmetry_equiv_pos_site_id
_symmetry_equiv_pos_as_xyz
1 x,y,z
2 1/2-x,1/2+y,1/2-z
3 -x,-y,-z
4 1/2+x,1/2-y,1/2+z
_cell_length_a                   14.962(5)
_cell_length_b                   15.711(5)
_cell_length_c                   16.132(5)
_cell_angle_alpha                90
_cell_angle_beta                 106.670(5)
_cell_angle_gamma                90
_cell_volume                     3632.74
_exptl_crystal_colour            orange
_exptl_crystal_description       block
_cell_formula_units_Z            4
loop_
_atom_site_label
_atom_site_type_symbol
_atom_site_fract_x
_atom_site_fract_y
_atom_site_fract_z
C1 C 0.8707(2) 0.18623(19) 0.16594(19)
C2 C 0.8265(2) 0.1987(2) 0.2363(2)
C3 C 0.7613(3) 0.2638(3) 0.2333(2)
H1 H 0.7455 0.3020 0.1857
C4 C 0.7201(3) 0.2724(3) 0.2991(3)
H2 H 0.6754 0.3161 0.2961
C5 C 0.7431(3) 0.2188(4) 0.3684(3)
H3 H 0.7146 0.2256 0.4136
C6 C 0.8079(3) 0.1545(3) 0.3733(2)
H4 H 0.8233 0.1176 0.4220
C7 C 0.8510(2) 0.1432(2) 0.3081(2)
C8 C 0.9222(3) 0.0769(2) 0.31213(19)
C9 C 0.9353(3) 0.0076(3) 0.3702(2)
H5 H 0.8949 0.0013 0.4057
C10 C 1.0048(4) -0.0503(3) 0.3764(3)
H6 H 1.0120 -0.0965 0.4157
C11 C 1.0646(3) -0.0422(3) 0.3259(3)
H7 H 1.1135 -0.0823 0.3312
C12 C 1.0536(3) 0.0237(2) 0.2680(2)
H8 H 1.0951 0.0292 0.2334
C13 C 0.9820(2) 0.0822(2) 0.25968(18)
C14 C 0.9683(2) 0.15156(18) 0.19444(17)
C15 C 0.7373(2) 0.2116(2) 0.04800(19)
C16 C 0.7130(2) 0.2884(2) 0.0030(2)
C17 C 0.6195(3) 0.3047(3) -0.0356(3)
H9 H 0.6017 0.3574 -0.0644
C18 C 0.5519(3) 0.2468(3) -0.0333(3)
H10 H 0.4880 0.2594 -0.0596
C19 C 0.5776(3) 0.1703(3) 0.0075(3)
H11 H 0.5305 0.1296 0.0072
C20 C 0.6701(2) 0.1501(2) 0.0492(2)
C21 C 0.7873(3) 0.3522(2) -0.0032(3)
H12 H 0.8496 0.3283 0.0287
C22 C 0.7763(4) 0.4380(3) 0.0376(4)
H13 H 0.7169 0.4639 0.0056
H14 H 0.8278 0.4756 0.0352
H15 H 0.7773 0.4294 0.0980
C23 C 0.7854(4) 0.3648(3) -0.0976(3)
H16 H 0.7233 0.3839 -0.1312
H17 H 0.8000 0.3107 -0.1212
H18 H 0.8319 0.4076 -0.1010
C24 C 0.6942(2) 0.0627(2) 0.0894(2)
H19 H 0.7627 0.0621 0.1191
C25 C 0.6750(4) -0.0062(3) 0.0196(3)
H20 H 0.6080 -0.0079 -0.0104
H21 H 0.6950 -0.0615 0.0465
H22 H 0.7096 0.0068 -0.0220
C26 C 0.6445(3) 0.0420(3) 0.1575(3)
H23 H 0.6572 0.0870 0.2014
H24 H 0.6672 -0.0125 0.1849
H25 H 0.5771 0.0384 0.1297
C27 C 1.0322(2) 0.23934(19) 0.10520(19)
C28 C 1.0207(2) 0.2194(2) 0.0179(2)
C29 C 1.0273(2) 0.2853(2) -0.0376(2)
H26 H 1.0181 0.2733 -0.0972
C30 C 1.0467(3) 0.3668(3) -0.0089(3)
H27 H 1.0520 0.4106 -0.0478
C31 C 1.0584(3) 0.3849(2) 0.0767(3)
H28 H 1.0706 0.4420 0.0960
C32 C 1.0530(2) 0.3225(2) 0.1363(2)
C33 C 1.0021(3) 0.1296(2) -0.0156(2)
H29 H 0.9991 0.0927 0.0340
C34 C 0.9086(3) 0.1219(3) -0.0852(3)
H30 H 0.8585 0.1414 -0.0618
H31 H 0.8977 0.0624 -0.1034
H32 H 0.9095 0.1571 -0.1351
C35 C 1.0798(3) 0.0956(3) -0.0497(3)
H33 H 1.0858 0.1316 -0.0975
H34 H 1.0652 0.0372 -0.0705
H35 H 1.1387 0.0961 -0.0032
C36 C 1.0710(3) 0.3433(3) 0.2326(3)
H36 H 1.0671 0.2885 0.2630
C37 C 0.9999(4) 0.4007(4) 0.2486(3)
H37 H 1.0073 0.4037 0.3109
H38 H 0.9376 0.3790 0.2187
H39 H 1.0074 0.4577 0.2268
C38 C 1.1673(4) 0.3790(5) 0.2724(4)
H40 H 1.1783 0.4264 0.2371
H41 H 1.2139 0.3344 0.2751
H42 H 1.1725 0.3993 0.3310
N1 N 0.83396(17) 0.19358(15) 0.08485(16)
N2 N 1.03609(17) 0.17230(16) 0.16544(15)
C39 C 0.2840(6) 0.2319(5) 0.1124(5)
H43 H 0.2444 0.2129 0.0551
H44 H 0.2518 0.2794 0.1322
C40 C 0.2980(6) 0.1620(5) 0.1737(5)
H45 H 0.2667 0.1099 0.1450
H46 H 0.2724 0.1765 0.2221
C41 C 0.4001(6) 0.1488(5) 0.2058(5)
H47 H 0.4205 0.1470 0.2699
H48 H 0.4176 0.0945 0.1836
C42 C 0.4424(6) 0.2178(5) 0.1757(5)
H49 H 0.4941 0.1973 0.1540
H50 H 0.4682 0.2587 0.2233
O1 O 0.3704(4) 0.2594(3) 0.1055(4)
loop_
_geom_bond_atom_site_label_1
_geom_bond_atom_site_label_2
_geom_bond_site_symmetry_1
_geom_bond_site_symmetry_2
C1 C2 1_555 1_555
C2 C3 1_555 1_555
C3 H1 1_555 1_555
C4 C3 1_555 1_555
H2 C4 1_555 1_555
C5 C4 1_555 1_555
H3 C5 1_555 1_555
C6 C5 1_555 1_555
H4 C6 1_555 1_555
C7 C2 1_555 1_555
C8 C7 1_555 1_555
C9 C8 1_555 1_555
H5 C9 1_555 1_555
C10 C9 1_555 1_555
H6 C10 1_555 1_555
C11 C10 1_555 1_555
H7 C11 1_555 1_555
C12 C11 1_555 1_555
H8 C12 1_555 1_555
C13 C8 1_555 1_555
C14 C1 1_555 1_555
C15 C16 1_555 1_555
C16 C17 1_555 1_555
C17 H9 1_555 1_555
C18 C17 1_555 1_555
H10 C18 1_555 1_555
C19 C18 1_555 1_555
H11 C19 1_555 1_555
C20 C15 1_555 1_555
C21 C16 1_555 1_555
H12 C21 1_555 1_555
C22 C21 1_555 1_555
H13 C22 1_555 1_555
H14 C22 1_555 1_555
H15 C22 1_555 1_555
C23 C21 1_555 1_555
H16 C23 1_555 1_555
H17 C23 1_555 1_555
H18 C23 1_555 1_555
C24 C20 1_555 1_555
H19 C24 1_555 1_555
C25 C24 1_555 1_555
H20 C25 1_555 1_555
H21 C25 1_555 1_555
H22 C25 1_555 1_555
C26 C24 1_555 1_555
H23 C26 1_555 1_555
H24 C26 1_555 1_555
H25 C26 1_555 1_555
C27 C28 1_555 1_555
C28 C29 1_555 1_555
C29 H26 1_555 1_555
C30 C29 1_555 1_555
H27 C30 1_555 1_555
C31 C30 1_555 1_555
H28 C31 1_555 1_555
C32 C27 1_555 1_555
C33 C28 1_555 1_555
H29 C33 1_555 1_555
C34 C33 1_555 1_555
H30 C34 1_555 1_555
H31 C34 1_555 1_555
H32 C34 1_555 1_555
C35 C33 1_555 1_555
H33 C35 1_555 1_555
H34 C35 1_555 1_555
H35 C35 1_555 1_555
C36 C32 1_555 1_555
H36 C36 1_555 1_555
C37 C36 1_555 1_555
H37 C37 1_555 1_555
H38 C37 1_555 1_555
H39 C37 1_555 1_555
C38 C36 1_555 1_555
H40 C38 1_555 1_555
H41 C38 1_555 1_555
H42 C38 1_555 1_555
C39 H43 1_555 1_555
H44 C39 1_555 1_555
C40 C39 1_555 1_555
H45 C40 1_555 1_555
H46 C40 1_555 1_555
C41 C40 1_555 1_555
H47 C41 1_555 1_555
H48 C41 1_555 1_555
C42 C41 1_555 1_555
H49 C42 1_555 1_555
H50 C42 1_555 1_555
N1 C1 1_555 1_555
N2 C14 1_555 1_555
O1 C39 1_555 1_555
C6 C7 1_555 1_555
C12 C13 1_555 1_555
C13 C14 1_555 1_555
C15 N1 1_555 1_555
C19 C20 1_555 1_555
C27 N2 1_555 1_555
C31 C32 1_555 1_555
C42 O1 1_555 1_555

#END
