
#######################################################################
#
#                 Cambridge Crystallographic Data Centre
#                                CCDC 
#
#######################################################################
#
# If this CIF has been generated from an entry in the Cambridge 
# Structural Database, then it will include bibliographic, chemical, 
# crystal, experimental, refinement or atomic coordinate data resulting 
# from the CCDC's data processing and validation procedures.
#
#######################################################################

data_WAPRAI
_chemical_name_common            
'1,1-Dimethyl-2,5-bis(4-benzylidenemalononitrile)-3,4-diphenylsilole acetone solvate'
_chemical_formula_moiety         'C38 H26 N4 Si1,C3 H5 O1'
_chemical_name_systematic        
"2,2'-((1,1-Dimethyl-3,4-diphenyl-1H-silole-2,5-diyl)bis(4,1-phenylenemethylylidene))dimalononitrile acetone solvate"
_symmetry_cell_setting           monoclinic
_symmetry_space_group_name_H-M   'P 2/c'
_symmetry_Int_Tables_number      13
_space_group_name_Hall           '-P 2yc'
loop_
_symmetry_equiv_pos_site_id
_symmetry_equiv_pos_as_xyz
1 x,y,z
2 -x,y,1/2-z
3 -x,-y,-z
4 x,-y,1/2+z
_cell_length_a                   13.268(3)
_cell_length_b                   10.287(2)
_cell_length_c                   13.771(4)
_cell_angle_alpha                90
_cell_angle_beta                 113.39(3)
_cell_angle_gamma                90
_cell_volume                     1725.12
_exptl_crystal_colour            red
_exptl_crystal_description       plate
_cell_formula_units_Z            2
_exptl_crystal_recrystallization_method dichloromethane/methanol
loop_
_atom_site_label
_atom_site_type_symbol
_atom_site_fract_x
_atom_site_fract_y
_atom_site_fract_z
O1 O 0.5000 0.8412(5) 0.2500
C21 C 0.4870(6) 0.9558(8) 0.1986(6)
C22 C 0.4829(9) 0.9783(11) 0.0992(9)
H17 H 0.4735 0.9003 0.0582
H18 H 0.4226 1.0361 0.0641
H19 H 0.5504 1.0198 0.1067
C21A C 0.5130(6) 0.9558(8) 0.3014(6)
C22A C 0.5171(9) 0.9783(11) 0.4008(9)
H17A H 0.5265 0.9003 0.4418
H18A H 0.5774 1.0361 0.4359
H19A H 0.4496 1.0198 0.3933
Si1 Si 0.0000 0.54209(11) 0.2500
N1 N 0.6881(2) 0.2603(3) 0.4500(2)
N2 N 0.8301(2) 0.6527(3) 0.4748(2)
C1 C 0.1077(2) 0.4145(3) 0.2659(2)
C2 C 0.05860(19) 0.2964(3) 0.2551(2)
C3 C 0.0302(2) 0.6436(3) 0.3700(2)
H1 H 0.0405 0.5873 0.4306
H2 H -0.0312 0.7030 0.3584
H3 H 0.0973 0.6940 0.3843
C4 C 0.22447(19) 0.4433(3) 0.2918(2)
C5 C 0.3100(2) 0.3512(3) 0.3203(2)
H4 H 0.2924 0.2614 0.3175
C6 C 0.4175(2) 0.3873(3) 0.3519(2)
H5 H 0.4725 0.3219 0.3703
C7 C 0.4484(2) 0.5172(3) 0.3577(2)
C8 C 0.3648(2) 0.6109(3) 0.3277(2)
H6 H 0.3828 0.7005 0.3289
C9 C 0.2560(2) 0.5732(3) 0.2962(2)
H7 H 0.2008 0.6385 0.2769
C10 C 0.5595(2) 0.5683(3) 0.3912(2)
H8 H 0.5636 0.6603 0.3879
C11 C 0.6576(2) 0.5071(3) 0.4261(2)
C12 C 0.6740(2) 0.3702(4) 0.4392(2)
C13 C 0.7545(2) 0.5863(3) 0.4535(2)
C14 C 0.1083(2) 0.1690(2) 0.2464(2)
C15 C 0.1175(3) 0.1398(3) 0.1518(3)
H9 H 0.0927 0.2007 0.0953
C16 C 0.1623(3) 0.0231(4) 0.1390(3)
H10 H 0.1668 0.0036 0.0734
C17 C 0.2003(3) -0.0646(3) 0.2204(4)
H11 H 0.2320 -0.1442 0.2118
C18 C 0.1921(3) -0.0362(3) 0.3157(3)
H12 H 0.2188 -0.0964 0.3726
C19 C 0.1451(2) 0.0802(3) 0.3278(3)
H13 H 0.1382 0.0985 0.3925
N1A N -0.6881(2) 0.2603(3) 0.0500(2)
N2A N -0.8301(2) 0.6527(3) 0.0252(2)
C1A C -0.1077(2) 0.4145(3) 0.2341(2)
C2A C -0.05860(19) 0.2964(3) 0.2449(2)
C3A C -0.0302(2) 0.6436(3) 0.1300(2)
H1A H -0.0405 0.5873 0.0694
H2A H 0.0312 0.7030 0.1416
H3A H -0.0973 0.6940 0.1157
C4A C -0.22447(19) 0.4433(3) 0.2082(2)
C5A C -0.3100(2) 0.3512(3) 0.1797(2)
H4A H -0.2924 0.2614 0.1825
C6A C -0.4175(2) 0.3873(3) 0.1481(2)
H5A H -0.4725 0.3219 0.1297
C7A C -0.4484(2) 0.5172(3) 0.1423(2)
C8A C -0.3648(2) 0.6109(3) 0.1723(2)
H6A H -0.3828 0.7005 0.1711
C9A C -0.2560(2) 0.5732(3) 0.2038(2)
H7A H -0.2008 0.6385 0.2231
C10A C -0.5595(2) 0.5683(3) 0.1088(2)
H8A H -0.5636 0.6603 0.1121
C11A C -0.6576(2) 0.5071(3) 0.0739(2)
C12A C -0.6740(2) 0.3702(4) 0.0608(2)
C13A C -0.7545(2) 0.5863(3) 0.0465(2)
C14A C -0.1083(2) 0.1690(2) 0.2536(2)
C15A C -0.1175(3) 0.1398(3) 0.3482(3)
H9A H -0.0927 0.2007 0.4047
C16A C -0.1623(3) 0.0231(4) 0.3610(3)
H10A H -0.1668 0.0036 0.4266
C17A C -0.2003(3) -0.0646(3) 0.2796(4)
H11A H -0.2320 -0.1442 0.2882
C18A C -0.1921(3) -0.0362(3) 0.1843(3)
H12A H -0.2188 -0.0964 0.1274
C19A C -0.1451(2) 0.0802(3) 0.1722(3)
H13A H -0.1382 0.0985 0.1075
C20? C 0.5000 0.8412(5) 0.2500
H14? H 0.4978 0.8464 0.3180
H15? H 0.4425 0.7727 0.2100
H16? H 0.5698 0.7953 0.2592
C23? C 0.5000 1.0664(10) 0.2500
H20? H 0.5032 1.0542 0.3203
H21? H 0.5671 1.1055 0.2537
H22? H 0.4393 1.1221 0.2110
O2? O 0.5000 1.0664(10) 0.2500
loop_
_geom_bond_atom_site_label_1
_geom_bond_atom_site_label_2
_geom_bond_site_symmetry_1
_geom_bond_site_symmetry_2
Si1 C1 1_555 1_555
N1 C12 1_555 1_555
N2 C13 1_555 1_555
C1 C2 1_555 1_555
C2 C14 1_555 1_555
C3 Si1 1_555 1_555
H1 C3 1_555 1_555
H2 C3 1_555 1_555
H3 C3 1_555 1_555
C4 C1 1_555 1_555
C5 C4 1_555 1_555
H4 C5 1_555 1_555
C6 C5 1_555 1_555
H5 C6 1_555 1_555
C7 C6 1_555 1_555
C8 C7 1_555 1_555
H6 C8 1_555 1_555
C9 C4 1_555 1_555
H7 C9 1_555 1_555
C10 C7 1_555 1_555
H8 C10 1_555 1_555
C11 C10 1_555 1_555
C12 C11 1_555 1_555
C13 C11 1_555 1_555
C14 C15 1_555 1_555
C15 H9 1_555 1_555
C16 C15 1_555 1_555
H10 C16 1_555 1_555
C17 C16 1_555 1_555
H11 C17 1_555 1_555
C18 C17 1_555 1_555
H12 C18 1_555 1_555
C19 C14 1_555 1_555
H13 C19 1_555 1_555
O1 C21 1_555 1_555
C21 C22 1_555 1_555
C22 H17 1_555 1_555
H18 C22 1_555 1_555
H19 C22 1_555 1_555
N1A C12A 1_555 1_555
N2A C13A 1_555 1_555
C1A Si1 1_555 1_555
C2A C2 1_555 1_555
C3A Si1 1_555 1_555
H1A C3A 1_555 1_555
H2A C3A 1_555 1_555
H3A C3A 1_555 1_555
C4A C1A 1_555 1_555
C5A C4A 1_555 1_555
H4A C5A 1_555 1_555
C6A C5A 1_555 1_555
H5A C6A 1_555 1_555
C7A C6A 1_555 1_555
C8A C7A 1_555 1_555
H6A C8A 1_555 1_555
C9A C4A 1_555 1_555
H7A C9A 1_555 1_555
C10A C7A 1_555 1_555
H8A C10A 1_555 1_555
C11A C10A 1_555 1_555
C12A C11A 1_555 1_555
C13A C11A 1_555 1_555
C14A C2A 1_555 1_555
C15A C14A 1_555 1_555
H9A C15A 1_555 1_555
C16A C15A 1_555 1_555
H10A C16A 1_555 1_555
C17A C16A 1_555 1_555
H11A C17A 1_555 1_555
C18A C17A 1_555 1_555
H12A C18A 1_555 1_555
C19A C14A 1_555 1_555
H13A C19A 1_555 1_555
C21A O1 1_555 1_555
C22A C21A 1_555 1_555
H17A C22A 1_555 1_555
H18A C22A 1_555 1_555
H19A C22A 1_555 1_555
C8 C9 1_555 1_555
C18 C19 1_555 1_555
C21 C21A 1_555 1_555
C1A C2A 1_555 1_555
C8A C9A 1_555 1_555
C18A C19A 1_555 1_555

#END
