
#######################################################################
#
#                 Cambridge Crystallographic Data Centre
#                                CCDC 
#
#######################################################################
#
# If this CIF has been generated from an entry in the Cambridge 
# Structural Database, then it will include bibliographic, chemical, 
# crystal, experimental, refinement or atomic coordinate data resulting 
# from the CCDC's data processing and validation procedures.
#
#######################################################################

data_WAPVIT
_chemical_formula_moiety         'C28 H19 Br1 N2 O6'
_chemical_name_systematic        
"[(2'S,3'S,4'R)-1,1''-Diacetyl-4',5'-dihydro-4'-(4-bromophenyl)dispiro[3H-indole-3,2'(3'H)-furan-3',3''-[3H]indole]-2,2'',5'-(1H,1'H)-trione]"
_symmetry_cell_setting           monoclinic
_symmetry_space_group_name_H-M   'P 21/c'
_symmetry_Int_Tables_number      14
_space_group_name_Hall           '-P 2ybc'
loop_
_symmetry_equiv_pos_site_id
_symmetry_equiv_pos_as_xyz
1 x,y,z
2 -x,1/2+y,1/2-z
3 -x,-y,-z
4 x,1/2-y,1/2+z
_cell_length_a                   9.0982(1)
_cell_length_b                   23.0174(1)
_cell_length_c                   11.7352(2)
_cell_angle_alpha                90
_cell_angle_beta                 96.273(1)
_cell_angle_gamma                90
_cell_volume                     2442.83
_exptl_crystal_colour            colorless
_chemical_melting_point          '247-249 deg.C'
_cell_formula_units_Z            4
_exptl_crystal_recrystallization_method 'petroleum ether/acetone'
loop_
_atom_site_label
_atom_site_type_symbol
_atom_site_fract_x
_atom_site_fract_y
_atom_site_fract_z
Br1 Br 0.29544(6) 0.45121(2) -0.09817(4)
O1 O 0.6977(2) 0.26524(8) 0.44133(18)
O2 O 0.4786(3) 0.24450(9) 0.34391(19)
O3 O 0.5922(3) 0.32420(11) 0.62753(19)
O4 O 0.9573(3) 0.36196(17) 0.8606(2)
O5 O 0.6686(2) 0.44303(9) 0.5321(2)
O6 O 0.9668(3) 0.53993(10) 0.3699(2)
N1 N 0.8435(3) 0.33849(11) 0.6861(2)
N2 N 0.8225(3) 0.46082(10) 0.3890(2)
C1 C 0.7742(3) 0.31669(13) 0.4895(3)
C2 C 0.7191(4) 0.32761(13) 0.6082(3)
C3 C 0.9740(4) 0.32125(13) 0.6352(3)
C4 C 1.1181(4) 0.31600(16) 0.6868(3)
H1 H 1.1433 0.3263 0.7631
C5 C 1.2230(4) 0.29485(17) 0.6203(4)
H2 H 1.3205 0.2911 0.6526
C6 C 1.1863(4) 0.27918(16) 0.5070(4)
H3 H 1.2589 0.2644 0.4651
C7 C 1.0429(4) 0.28522(14) 0.4551(3)
H4 H 1.0184 0.2751 0.3787
C8 C 0.9368(3) 0.30683(12) 0.5202(3)
C9 C 0.7228(3) 0.36538(12) 0.3999(2)
C10 C 0.7310(3) 0.42725(13) 0.4523(3)
C11 C 0.8758(3) 0.42613(13) 0.2999(2)
C12 C 0.9645(4) 0.44237(14) 0.2172(3)
H5 H 1.0048 0.4795 0.2163
C13 C 0.9916(4) 0.40102(16) 0.1346(3)
H6 H 1.0507 0.4110 0.0778
C14 C 0.9328(4) 0.34595(15) 0.1357(3)
H7 H 0.9526 0.3192 0.0800
C15 C 0.8440(4) 0.33024(14) 0.2196(3)
H8 H 0.8040 0.2931 0.2202
C16 C 0.8153(3) 0.37037(12) 0.3029(2)
C17 C 0.5587(3) 0.34646(13) 0.3664(3)
H9 H 0.5003 0.3613 0.4255
C18 C 0.5673(3) 0.28099(13) 0.3790(3)
C19 C 0.4893(3) 0.36938(13) 0.2515(3)
C20 C 0.4377(4) 0.42634(15) 0.2455(3)
H10 H 0.4407 0.4483 0.3122
C21 C 0.3814(4) 0.45094(15) 0.1410(4)
H11 H 0.3488 0.4893 0.1379
C22 C 0.3746(4) 0.41785(16) 0.0422(3)
C23 C 0.4222(4) 0.36133(15) 0.0469(3)
H12 H 0.4160 0.3391 -0.0196
C24 C 0.4797(4) 0.33729(15) 0.1505(3)
H13 H 0.5124 0.2990 0.1526
C25 C 0.8427(5) 0.36127(17) 0.7983(3)
C26 C 0.6998(5) 0.38363(16) 0.8315(3)
H14 H 0.7179 0.4063 0.9003
H15 H 0.6364 0.3515 0.8447
H16 H 0.6530 0.4075 0.7710
C27 C 0.8633(4) 0.51984(14) 0.4131(3)
C28 C 0.7756(5) 0.55347(14) 0.4894(3)
H17 H 0.8094 0.5930 0.4934
H18 H 0.7874 0.5367 0.5648
H19 H 0.6731 0.5525 0.4596
loop_
_geom_bond_atom_site_label_1
_geom_bond_atom_site_label_2
_geom_bond_site_symmetry_1
_geom_bond_site_symmetry_2
Br1 C22 1_555 1_555
O1 C1 1_555 1_555
O2 C18 1_555 1_555
O3 C2 1_555 1_555
O4 C25 1_555 1_555
O5 C10 1_555 1_555
O6 C27 1_555 1_555
N1 C2 1_555 1_555
N2 C10 1_555 1_555
C1 C2 1_555 1_555
C3 N1 1_555 1_555
C4 C3 1_555 1_555
H1 C4 1_555 1_555
C5 C4 1_555 1_555
H2 C5 1_555 1_555
C6 C5 1_555 1_555
H3 C6 1_555 1_555
C7 C6 1_555 1_555
H4 C7 1_555 1_555
C8 C1 1_555 1_555
C9 C1 1_555 1_555
C10 C9 1_555 1_555
C11 N2 1_555 1_555
C12 C11 1_555 1_555
H5 C12 1_555 1_555
C13 C12 1_555 1_555
H6 C13 1_555 1_555
C14 C13 1_555 1_555
H7 C14 1_555 1_555
C15 C14 1_555 1_555
H8 C15 1_555 1_555
C16 C9 1_555 1_555
C17 C9 1_555 1_555
H9 C17 1_555 1_555
C18 O1 1_555 1_555
C19 C17 1_555 1_555
C20 C19 1_555 1_555
H10 C20 1_555 1_555
C21 C20 1_555 1_555
H11 C21 1_555 1_555
C22 C21 1_555 1_555
C23 C22 1_555 1_555
H12 C23 1_555 1_555
C24 C19 1_555 1_555
H13 C24 1_555 1_555
C25 N1 1_555 1_555
C26 C25 1_555 1_555
H14 C26 1_555 1_555
H15 C26 1_555 1_555
H16 C26 1_555 1_555
C27 N2 1_555 1_555
C28 C27 1_555 1_555
H17 C28 1_555 1_555
H18 C28 1_555 1_555
H19 C28 1_555 1_555
C3 C8 1_555 1_555
C7 C8 1_555 1_555
C11 C16 1_555 1_555
C15 C16 1_555 1_555
C17 C18 1_555 1_555
C23 C24 1_555 1_555

#END
