
#######################################################################
#
#                 Cambridge Crystallographic Data Centre
#                                CCDC 
#
#######################################################################
#
# If this CIF has been generated from an entry in the Cambridge 
# Structural Database, then it will include bibliographic, chemical, 
# crystal, experimental, refinement or atomic coordinate data resulting 
# from the CCDC's data processing and validation procedures.
#
#######################################################################

data_WAPVAK
_chemical_formula_moiety         'C12 H20 N2'
_chemical_name_systematic        
2,7-Diazatetracyclo(6.3.2.1^3,6^.0^2,7^)tetradecane
_symmetry_cell_setting           monoclinic
_symmetry_space_group_name_H-M   'P 21/c'
_symmetry_Int_Tables_number      14
_space_group_name_Hall           '-P 2ybc'
loop_
_symmetry_equiv_pos_site_id
_symmetry_equiv_pos_as_xyz
1 x,y,z
2 -x,1/2+y,1/2-z
3 -x,-y,-z
4 x,1/2-y,1/2+z
_cell_length_a                   12.234(6)
_cell_length_b                   8.085(4)
_cell_length_c                   11.400(5)
_cell_angle_alpha                90
_cell_angle_beta                 112.37(4)
_cell_angle_gamma                90
_cell_volume                     1042.74
_cell_formula_units_Z            4
loop_
_atom_site_label
_atom_site_type_symbol
_atom_site_fract_x
_atom_site_fract_y
_atom_site_fract_z
N1 N 0.29240(14) 0.03782(20) 0.94970(14)
C1 C 0.38529(17) 0.08387(25) 1.07270(18)
C2 C 0.44180(18) 0.24889(26) 1.05988(20)
C3 C 0.38229(18) 0.40259(28) 1.08556(20)
C4 C 0.24932(19) 0.40906(27) 1.01150(19)
C5 C 0.18335(18) 0.25190(23) 1.02133(17)
N2 N 0.17968(13) 0.13566(21) 0.91951(14)
C6 C 0.08834(16) 0.00556(24) 0.88901(17)
C7 C 0.07640(19) -0.06773(26) 0.76049(19)
C8 C 0.19163(19) -0.17072(26) 0.79570(19)
C9 C 0.25211(18) -0.13712(25) 0.93786(18)
C10 C 0.34608(18) 0.08421(27) 1.18557(18)
C11 C 0.23021(17) 0.18110(26) 1.15623(17)
C12 C 0.14591(18) -0.13887(25) 0.97771(18)
H1 H 0.4458 0.0011 1.0910
H2 H 0.4400 0.2572 0.9752
H3 H 0.5230 0.2496 1.1174
H4 H 0.3966 0.4015 1.1744
H5 H 0.4190 0.5005 1.0699
H6 H 0.2200 0.4992 1.0459
H7 H 0.2338 0.4337 0.9242
H8 H 0.1027 0.2829 1.0028
H9 H 0.0151 0.0415 0.8933
H10 H 0.0725 0.0190 0.7015
H11 H 0.0083 -0.1376 0.7244
H12 H 0.2402 -0.1292 0.7530
H13 H 0.1759 -0.2860 0.7766
H14 H 0.3108 -0.2176 0.9827
H15 H 0.4086 0.1282 1.2588
H16 H 0.3317 -0.0275 1.2043
H17 H 0.2475 0.2720 1.2146
H18 H 0.1709 0.1139 1.1688
H19 H 0.1012 -0.2397 0.9581
H20 H 0.1681 -0.1119 1.0658
loop_
_geom_bond_atom_site_label_1
_geom_bond_atom_site_label_2
_geom_bond_site_symmetry_1
_geom_bond_site_symmetry_2
N1 C1 1_555 1_555
C1 C2 1_555 1_555
C2 C3 1_555 1_555
C3 C4 1_555 1_555
C4 C5 1_555 1_555
C5 N2 1_555 1_555
N2 N1 1_555 1_555
C6 N2 1_555 1_555
C7 C6 1_555 1_555
C8 C7 1_555 1_555
C9 N1 1_555 1_555
C10 C1 1_555 1_555
C11 C5 1_555 1_555
C12 C6 1_555 1_555
H1 C1 1_555 1_555
H2 C2 1_555 1_555
H3 C2 1_555 1_555
H4 C3 1_555 1_555
H5 C3 1_555 1_555
H6 C4 1_555 1_555
H7 C4 1_555 1_555
H8 C5 1_555 1_555
H9 C6 1_555 1_555
H10 C7 1_555 1_555
H11 C7 1_555 1_555
H12 C8 1_555 1_555
H13 C8 1_555 1_555
H14 C9 1_555 1_555
H15 C10 1_555 1_555
H16 C10 1_555 1_555
H17 C11 1_555 1_555
H18 C11 1_555 1_555
H19 C12 1_555 1_555
H20 C12 1_555 1_555
C8 C9 1_555 1_555
C9 C12 1_555 1_555
C10 C11 1_555 1_555

#END
