
#######################################################################
#
#                 Cambridge Crystallographic Data Centre
#                                CCDC 
#
#######################################################################
#
# If this CIF has been generated from an entry in the Cambridge 
# Structural Database, then it will include bibliographic, chemical, 
# crystal, experimental, refinement or atomic coordinate data resulting 
# from the CCDC's data processing and validation procedures.
#
#######################################################################

data_WAPVOY
_chemical_formula_moiety         'C14 H24 N2'
_chemical_name_systematic        
2,7-Diazatetracyclo(6.4.2.2^3,6^.0^2,7^)hexadecane
_symmetry_cell_setting           monoclinic
_symmetry_space_group_name_H-M   'P 21/c'
_symmetry_Int_Tables_number      14
_space_group_name_Hall           '-P 2ybc'
loop_
_symmetry_equiv_pos_site_id
_symmetry_equiv_pos_as_xyz
1 x,y,z
2 -x,1/2+y,1/2-z
3 -x,-y,-z
4 x,1/2-y,1/2+z
_cell_length_a                   10.909(5)
_cell_length_b                   7.169(3)
_cell_length_c                   15.669(6)
_cell_angle_alpha                90
_cell_angle_beta                 99.46(3)
_cell_angle_gamma                90
_cell_volume                     1208.75
_cell_formula_units_Z            4
loop_
_atom_site_label
_atom_site_type_symbol
_atom_site_fract_x
_atom_site_fract_y
_atom_site_fract_z
N1 N 0.34668(12) 0.04095(19) 0.28286(8)
C1 C 0.38445(15) -0.07981(23) 0.21627(10)
C2 C 0.32168(15) -0.27275(23) 0.19805(11)
C3 C 0.18070(16) -0.29443(24) 0.17007(11)
C4 C 0.11403(16) -0.16412(24) 0.09953(11)
C5 C 0.06944(16) 0.02379(24) 0.12966(10)
C6 C 0.16696(15) 0.14712(24) 0.18361(10)
N2 N 0.20984(12) 0.04699(19) 0.26606(8)
C7 C 0.16864(15) 0.12653(24) 0.34350(10)
C8 C 0.16885(16) -0.03610(25) 0.40637(11)
C9 C 0.29434(16) -0.13838(26) 0.40998(11)
C10 C 0.38393(16) -0.00535(25) 0.37509(11)
C11 C 0.37198(15) 0.04525(24) 0.13464(10)
C12 C 0.27529(15) 0.20030(23) 0.13795(11)
C13 C 0.25758(16) 0.27779(24) 0.38476(11)
C14 C 0.38202(16) 0.18255(25) 0.42184(11)
H1 H 0.4717 -0.1028 0.2337
H2 H 0.3596 -0.3301 0.1535
H3 H 0.3447 -0.3466 0.2494
H4 H 0.1428 -0.2759 0.2206
H5 H 0.1642 -0.4209 0.1515
H6 H 0.0439 -0.2294 0.0682
H7 H 0.1702 -0.1390 0.0597
H8 H 0.0321 0.0935 0.0797
H9 H 0.0054 -0.0016 0.1634
H10 H 0.1270 0.2601 0.1972
H11 H 0.0864 0.1767 0.3284
H12 H 0.1013 -0.1195 0.3866
H13 H 0.1600 0.0091 0.4628
H14 H 0.3268 -0.1726 0.4687
H15 H 0.2832 -0.2499 0.3756
H16 H 0.4664 -0.0564 0.3847
H17 H 0.4512 0.0993 0.1302
H18 H 0.3466 -0.0298 0.0840
H19 H 0.3172 0.3060 0.1670
H20 H 0.2428 0.2378 0.0797
H21 H 0.2704 0.3694 0.3424
H22 H 0.2238 0.3392 0.4302
H23 H 0.4506 0.2591 0.4120
H24 H 0.3876 0.1633 0.4831
loop_
_geom_bond_atom_site_label_1
_geom_bond_atom_site_label_2
_geom_bond_site_symmetry_1
_geom_bond_site_symmetry_2
N1 C1 1_555 1_555
C1 C2 1_555 1_555
C2 C3 1_555 1_555
C3 C4 1_555 1_555
C4 C5 1_555 1_555
C5 C6 1_555 1_555
C6 N2 1_555 1_555
N2 N1 1_555 1_555
C7 N2 1_555 1_555
C8 C7 1_555 1_555
C9 C8 1_555 1_555
C10 N1 1_555 1_555
C11 C1 1_555 1_555
C12 C6 1_555 1_555
C13 C7 1_555 1_555
C14 C10 1_555 1_555
H1 C1 1_555 1_555
H2 C2 1_555 1_555
H3 C2 1_555 1_555
H4 C3 1_555 1_555
H5 C3 1_555 1_555
H6 C4 1_555 1_555
H7 C4 1_555 1_555
H8 C5 1_555 1_555
H9 C5 1_555 1_555
H10 C6 1_555 1_555
H11 C7 1_555 1_555
H12 C8 1_555 1_555
H13 C8 1_555 1_555
H14 C9 1_555 1_555
H15 C9 1_555 1_555
H16 C10 1_555 1_555
H17 C11 1_555 1_555
H18 C11 1_555 1_555
H19 C12 1_555 1_555
H20 C12 1_555 1_555
H21 C13 1_555 1_555
H22 C13 1_555 1_555
H23 C14 1_555 1_555
H24 C14 1_555 1_555
C9 C10 1_555 1_555
C11 C12 1_555 1_555
C13 C14 1_555 1_555

#END
