
#######################################################################
#
#                 Cambridge Crystallographic Data Centre
#                                CCDC 
#
#######################################################################
#
# If this CIF has been generated from an entry in the Cambridge 
# Structural Database, then it will include bibliographic, chemical, 
# crystal, experimental, refinement or atomic coordinate data resulting 
# from the CCDC's data processing and validation procedures.
#
#######################################################################

data_WAPVEO
_chemical_formula_moiety         'C18 H24 N2'
_chemical_name_systematic        
1-Phenyl-2,7-diazatetracyclo(6.2.2.2^3,6^.0^2,7^)tetradecane
_symmetry_cell_setting           monoclinic
_symmetry_space_group_name_H-M   'P 21/c'
_symmetry_Int_Tables_number      14
_space_group_name_Hall           '-P 2ybc'
loop_
_symmetry_equiv_pos_site_id
_symmetry_equiv_pos_as_xyz
1 x,y,z
2 -x,1/2+y,1/2-z
3 -x,-y,-z
4 x,1/2-y,1/2+z
_cell_length_a                   6.1733(12)
_cell_length_b                   19.794(5)
_cell_length_c                   11.697(3)
_cell_angle_alpha                90
_cell_angle_beta                 99.76(2)
_cell_angle_gamma                90
_cell_volume                     1408.62
_exptl_crystal_colour            white
_chemical_melting_point          115-116deg.C
_cell_formula_units_Z            4
loop_
_atom_site_label
_atom_site_type_symbol
_atom_site_fract_x
_atom_site_fract_y
_atom_site_fract_z
N1 N 0.24435(25) 0.41614(7) 0.79445(13)
N2 N 0.23057(26) 0.34153(7) 0.77611(14)
C1 C 0.29542(30) 0.44949(9) 0.68829(16)
C2 C 0.52517(33) 0.43135(10) 0.66297(18)
C3 C 0.55586(34) 0.35433(10) 0.66853(19)
C4 C 0.33369(34) 0.32134(10) 0.67641(18)
C5 C 0.30303(32) 0.30822(9) 0.88833(17)
C6 C 0.16716(35) 0.33872(9) 0.97268(18)
C7 C 0.23811(33) 0.41311(10) 0.99701(17)
C8 C 0.38120(30) 0.43248(9) 0.90769(16)
C9 C 0.12584(33) 0.42056(10) 0.58799(18)
C10 C 0.17084(37) 0.34491(10) 0.57088(19)
C11 C 0.25818(30) 0.52507(9) 0.70045(15)
C12 C 0.07209(31) 0.54839(9) 0.74065(17)
C13 C 0.03117(35) 0.61683(9) 0.74956(18)
C14 C 0.17542(35) 0.66378(10) 0.71877(18)
C15 C 0.36081(36) 0.64171(10) 0.67866(20)
C16 C 0.40254(34) 0.57325(10) 0.66972(18)
C17 C 0.54649(32) 0.31782(9) 0.93891(18)
C18 C 0.59821(32) 0.39408(9) 0.93811(18)
H1 H 0.6353 0.4528 0.7190
H2 H 0.5398 0.4476 0.5872
H3 H 0.6617 0.3424 0.7355
H4 H 0.6084 0.3387 0.6005
H5 H 0.3475 0.2731 0.6752
H6 H 0.2717 0.2608 0.8801
H7 H 0.1894 0.3136 1.0440
H8 H 0.0140 0.3368 0.9397
H9 H 0.3186 0.4176 1.0745
H10 H 0.1113 0.4418 0.9894
H11 H 0.4088 0.4802 0.9119
H12 H 0.1349 0.4449 0.5180
H13 H -0.0194 0.4263 0.6054
H14 H 0.0368 0.3196 0.5646
H15 H 0.2313 0.3384 0.5013
H16 H -0.0294 0.5162 0.7627
H17 H -0.0981 0.6316 0.7779
H18 H 0.1456 0.7111 0.7245
H19 H 0.4626 0.6741 0.6574
H20 H 0.5321 0.5583 0.6419
H21 H 0.6357 0.2938 0.8928
H22 H 0.5772 0.3006 1.0168
H23 H 0.6742 0.4077 1.0131
H24 H 0.6906 0.4036 0.8818
loop_
_geom_bond_atom_site_label_1
_geom_bond_atom_site_label_2
_geom_bond_site_symmetry_1
_geom_bond_site_symmetry_2
N1 N2 1_555 1_555
N2 C4 1_555 1_555
C1 N1 1_555 1_555
C2 C1 1_555 1_555
C3 C2 1_555 1_555
C4 C3 1_555 1_555
C5 N2 1_555 1_555
C6 C5 1_555 1_555
C7 C6 1_555 1_555
C8 N1 1_555 1_555
C9 C1 1_555 1_555
C10 C4 1_555 1_555
C11 C1 1_555 1_555
C12 C11 1_555 1_555
C13 C12 1_555 1_555
C14 C13 1_555 1_555
C15 C14 1_555 1_555
C16 C11 1_555 1_555
C17 C5 1_555 1_555
C18 C8 1_555 1_555
H1 C2 1_555 1_555
H2 C2 1_555 1_555
H3 C3 1_555 1_555
H4 C3 1_555 1_555
H5 C4 1_555 1_555
H6 C5 1_555 1_555
H7 C6 1_555 1_555
H8 C6 1_555 1_555
H9 C7 1_555 1_555
H10 C7 1_555 1_555
H11 C8 1_555 1_555
H12 C9 1_555 1_555
H13 C9 1_555 1_555
H14 C10 1_555 1_555
H15 C10 1_555 1_555
H16 C12 1_555 1_555
H17 C13 1_555 1_555
H18 C14 1_555 1_555
H19 C15 1_555 1_555
H20 C16 1_555 1_555
H21 C17 1_555 1_555
H22 C17 1_555 1_555
H23 C18 1_555 1_555
H24 C18 1_555 1_555
C7 C8 1_555 1_555
C9 C10 1_555 1_555
C15 C16 1_555 1_555
C17 C18 1_555 1_555

#END
