
#######################################################################
#
#                 Cambridge Crystallographic Data Centre
#                                CCDC 
#
#######################################################################
#
# If this CIF has been generated from an entry in the Cambridge 
# Structural Database, then it will include bibliographic, chemical, 
# crystal, experimental, refinement or atomic coordinate data resulting 
# from the CCDC's data processing and validation procedures.
#
#######################################################################

data_WAPWIT
_chemical_formula_moiety         'C20 H26'
_chemical_name_systematic        (2.2)(1.3)Adamantanoparacyclophane
_symmetry_cell_setting           tetragonal
_symmetry_space_group_name_H-M   'P 42/n'
_symmetry_Int_Tables_number      86
_space_group_name_Hall           '-P 4bc'
loop_
_symmetry_equiv_pos_site_id
_symmetry_equiv_pos_as_xyz
1 x,y,z
2 -y,1/2+x,1/2+z
3 1/2-x,1/2-y,z
4 1/2+y,-x,1/2+z
5 -x,-y,-z
6 y,1/2-x,1/2-z
7 1/2+x,1/2+y,-z
8 1/2-y,x,1/2-z
_cell_length_a                   18.979(1)
_cell_length_b                   18.979(1)
_cell_length_c                   8.508(1)
_cell_angle_alpha                90
_cell_angle_beta                 90
_cell_angle_gamma                90
_cell_volume                     3064.6
_exptl_crystal_colour            colorless
_chemical_melting_point          95deg.C
_cell_formula_units_Z            8
loop_
_atom_site_label
_atom_site_type_symbol
_atom_site_fract_x
_atom_site_fract_y
_atom_site_fract_z
C1 C 0.0557(2) 0.4111(2) 0.3567(3)
C2 C -0.0211(2) 0.4134(1) 0.2913(3)
C3 C -0.0479(1) 0.3565(1) 0.1738(2)
C4 C -0.1247(1) 0.3679(1) 0.1217(3)
C5 C -0.1444(1) 0.3145(1) -0.0083(3)
C6 C -0.1380(1) 0.2406(1) 0.0593(3)
C7 C -0.0621(1) 0.2279(1) 0.1091(3)
C8 C -0.0130(1) 0.2352(1) -0.0319(3)
C9 C -0.0187(1) 0.3091(1) -0.1021(2)
C10 C -0.0046(1) 0.3630(1) 0.0253(2)
C11 C -0.0956(1) 0.3208(1) -0.1522(3)
C12 C -0.0414(1) 0.2815(1) 0.2370(2)
C13 C 0.0334(1) 0.3224(1) -0.2390(2)
C14 C 0.1143(1) 0.3143(1) -0.2154(3)
C15 C 0.1424(1) 0.3461(1) -0.0644(3)
C16 C 0.1530(1) 0.3032(1) 0.0659(3)
C17 C 0.1374(1) 0.3283(1) 0.2143(3)
C18 C 0.1117(1) 0.3964(1) 0.2337(3)
C19 C 0.1258(1) 0.4436(1) 0.1121(3)
C20 C 0.1411(1) 0.4184(1) -0.0361(3)
H1 H 0.0576 0.3738 0.4328
H2 H 0.0667 0.4543 0.4098
H3 H -0.0255 0.4581 0.2394
H4 H -0.0531 0.4139 0.3787
H5 H -0.1294 0.4147 0.0802
H6 H -0.1556 0.3634 0.2104
H7 H -0.1922 0.3223 -0.0406
H8 H -0.1513 0.2067 -0.0190
H9 H -0.1688 0.2351 0.1480
H10 H -0.0580 0.1811 0.1509
H11 H -0.0258 0.2009 -0.1098
H12 H 0.0347 0.2262 -0.0002
H13 H 0.0443 0.3607 0.0541
H14 H -0.0129 0.4088 -0.0190
H15 H -0.1000 0.3669 -0.1977
H16 H -0.1086 0.2866 -0.2302
H17 H -0.0707 0.2757 0.3281
H18 H 0.0066 0.2737 0.2676
H19 H 0.0257 0.3702 -0.2717
H20 H 0.0197 0.2927 -0.3250
H21 H 0.1387 0.3351 -0.3028
H22 H 0.1248 0.2648 -0.2155
H23 H 0.1716 0.2566 0.0526
H24 H 0.1431 0.2983 0.3042
H25 H 0.1243 0.4934 0.1317
H26 H 0.1515 0.4504 -0.1204
loop_
_geom_bond_atom_site_label_1
_geom_bond_atom_site_label_2
_geom_bond_site_symmetry_1
_geom_bond_site_symmetry_2
C1 C2 1_555 1_555
C2 C3 1_555 1_555
C3 C4 1_555 1_555
C4 C5 1_555 1_555
C5 C6 1_555 1_555
C6 C7 1_555 1_555
C7 C8 1_555 1_555
C8 C9 1_555 1_555
C9 C10 1_555 1_555
C10 C3 1_555 1_555
C11 C5 1_555 1_555
C12 C3 1_555 1_555
C13 C9 1_555 1_555
C14 C13 1_555 1_555
C15 C14 1_555 1_555
C16 C15 1_555 1_555
C17 C16 1_555 1_555
C18 C1 1_555 1_555
C19 C18 1_555 1_555
C20 C15 1_555 1_555
H1 C1 1_555 1_555
H2 C1 1_555 1_555
H3 C2 1_555 1_555
H4 C2 1_555 1_555
H5 C4 1_555 1_555
H6 C4 1_555 1_555
H7 C5 1_555 1_555
H8 C6 1_555 1_555
H9 C6 1_555 1_555
H10 C7 1_555 1_555
H11 C8 1_555 1_555
H12 C8 1_555 1_555
H13 C10 1_555 1_555
H14 C10 1_555 1_555
H15 C11 1_555 1_555
H16 C11 1_555 1_555
H17 C12 1_555 1_555
H18 C12 1_555 1_555
H19 C13 1_555 1_555
H20 C13 1_555 1_555
H21 C14 1_555 1_555
H22 C14 1_555 1_555
H23 C16 1_555 1_555
H24 C17 1_555 1_555
H25 C19 1_555 1_555
H26 C20 1_555 1_555
C7 C12 1_555 1_555
C9 C11 1_555 1_555
C17 C18 1_555 1_555
C19 C20 1_555 1_555

#END
