
#######################################################################
#
#                 Cambridge Crystallographic Data Centre
#                                CCDC 
#
#######################################################################
#
# If this CIF has been generated from an entry in the Cambridge 
# Structural Database, then it will include bibliographic, chemical, 
# crystal, experimental, refinement or atomic coordinate data resulting 
# from the CCDC's data processing and validation procedures.
#
#######################################################################

data_WAQCEZ
_chemical_formula_moiety         'C28 H28 Br1 N3 O3 S1'
_chemical_name_systematic        
(4-bromophenyl)(1-[(4-methylphenyl)sulfonyl]-3-(prop-1-en-2-yl)-1,2,3,6,7,11b-hexahydro-4H-[1,2,4]triazino[3,2-a]isoquinolin-4-yl)methanone
_symmetry_cell_setting           monoclinic
_symmetry_space_group_name_H-M   'P 21'
_symmetry_Int_Tables_number      4
_space_group_name_Hall           'P 2yb'
loop_
_symmetry_equiv_pos_site_id
_symmetry_equiv_pos_as_xyz
1 x,y,z
2 -x,1/2+y,-z
_cell_length_a                   9.2518(12)
_cell_length_b                   18.883(3)
_cell_length_c                   15.178(2)
_cell_angle_alpha                90
_cell_angle_beta                 94.143(5)
_cell_angle_gamma                90
_cell_volume                     2644.69
_exptl_crystal_colour            colorless
_exptl_crystal_description       block
_cell_formula_units_Z            4
loop_
_atom_site_label
_atom_site_type_symbol
_atom_site_fract_x
_atom_site_fract_y
_atom_site_fract_z
Br1 Br 0.64368(11) 0.21472(5) 0.28948(7)
S1 S 0.4650(2) 0.66229(12) 0.33657(15)
O1 O 0.3989(6) 0.6523(4) 0.2493(4)
O2 O 0.4321(7) 0.7229(3) 0.3884(4)
O3 O 0.7424(6) 0.5125(3) 0.5318(4)
N1 N 0.6402(6) 0.6679(4) 0.3252(4)
N2 N 0.7935(7) 0.5722(3) 0.4108(4)
N3 N 0.8242(7) 0.5762(3) 0.3221(4)
C1 C 0.7157(10) 0.3837(5) 0.4581(6)
H1 H 0.7220 0.3905 0.5203
C2 C 0.6881(11) 0.3181(5) 0.4254(7)
H2 H 0.6756 0.2796 0.4644
C3 C 0.6780(9) 0.3069(4) 0.3341(6)
C4 C 0.6978(10) 0.3625(5) 0.2804(6)
H3 H 0.6914 0.3552 0.2183
C5 C 0.7267(8) 0.4288(5) 0.3127(6)
H4 H 0.7412 0.4668 0.2732
C6 C 0.7351(8) 0.4412(4) 0.4040(6)
C7 C 0.4243(9) 0.5872(5) 0.3965(6)
C8 C 0.4198(9) 0.5909(5) 0.4890(7)
H5 H 0.4393 0.6344 0.5191
C9 C 0.3864(10) 0.5299(5) 0.5361(7)
H6 H 0.3815 0.5323 0.5983
C10 C 0.3606(11) 0.4666(5) 0.4927(8)
C11 C 0.3660(11) 0.4628(6) 0.4015(8)
H7 H 0.3485 0.4193 0.3713
C12 C 0.3973(10) 0.5232(5) 0.3556(7)
H8 H 0.4003 0.5204 0.2933
C13 C 0.3302(16) 0.3999(7) 0.5462(10)
H9 H 0.3135 0.3596 0.5060
H10 H 0.2440 0.4075 0.5789
H11 H 0.4136 0.3898 0.5878
C14 C 0.7583(9) 0.5107(4) 0.4509(6)
C15 C 0.9766(9) 0.5930(5) 0.3130(6)
H12 H 1.0394 0.5577 0.3452
H13 H 0.9996 0.6404 0.3382
C16 C 1.0034(11) 0.5921(5) 0.2159(6)
H14 H 1.1064 0.6034 0.2087
H15 H 0.9837 0.5440 0.1918
C17 C 0.9092(9) 0.6444(4) 0.1656(5)
C18 C 0.9557(11) 0.6836(5) 0.0952(7)
H16 H 1.0523 0.6774 0.0792
C19 C 0.8675(12) 0.7308(5) 0.0481(7)
H17 H 0.9018 0.7564 -0.0001
C20 C 0.7260(11) 0.7403(4) 0.0728(6)
H18 H 0.6624 0.7722 0.0409
C21 C 0.6785(9) 0.7032(4) 0.1439(5)
H19 H 0.5828 0.7103 0.1609
C22 C 0.7702(9) 0.6551(4) 0.1910(5)
C23 C 0.7098(9) 0.6169(4) 0.2697(5)
H20 H 0.6342 0.5826 0.2460
C24 C 0.7898(8) 0.6388(4) 0.4619(5)
H21 H 0.7121 0.6334 0.5039
C25 C 0.7394(9) 0.6974(4) 0.3955(6)
H22 H 0.6898 0.7354 0.4267
H23 H 0.8246 0.7183 0.3694
C26 C 0.9263(9) 0.6587(4) 0.5159(5)
C27 C 0.9256(11) 0.7329(5) 0.5557(7)
H24 H 1.0182 0.7416 0.5895
H25 H 0.8464 0.7367 0.5950
H26 H 0.9119 0.7680 0.5083
C28 C 1.0343(10) 0.6154(5) 0.5316(6)
H27 H 1.0291 0.5686 0.5084
H28 H 1.1184 0.6305 0.5661
Br2 Br 0.85404(11) 0.29515(5) 0.66137(7)
S2 S 1.6004(2) 0.46901(11) 1.04233(14)
O4 O 1.6775(6) 0.5031(3) 1.1168(3)
O5 O 1.6059(6) 0.3936(3) 1.0350(4)
O6 O 1.3394(6) 0.5647(3) 0.7663(4)
N4 N 1.2807(7) 0.5271(3) 0.9003(5)
N5 N 1.4283(7) 0.4884(3) 1.0478(5)
N6 N 1.2111(7) 0.4765(3) 0.9491(4)
C29 C 1.6610(9) 0.5069(4) 0.9466(5)
C30 C 1.6372(9) 0.4736(5) 0.8645(6)
H29 H 1.5975 0.4272 0.8611
C31 C 1.6713(10) 0.5080(5) 0.7886(6)
H30 H 1.6585 0.4845 0.7332
C32 C 1.7244(9) 0.5772(5) 0.7928(6)
C33 C 1.7491(9) 0.6086(5) 0.8736(6)
H31 H 1.7898 0.6548 0.8766
C34 C 1.7169(9) 0.5754(4) 0.9516(6)
H32 H 1.7325 0.5989 1.0069
C35 C 1.1880(8) 0.4635(4) 0.7695(5)
C36 C 1.2068(10) 0.3928(5) 0.7893(6)
H33 H 1.2872 0.3788 0.8278
C37 C 1.1117(10) 0.3414(5) 0.7546(6)
H34 H 1.1265 0.2928 0.7683
C38 C 0.9954(10) 0.3633(5) 0.6996(6)
C39 C 0.9750(9) 0.4329(5) 0.6742(6)
H35 H 0.8971 0.4461 0.6333
C40 C 1.0713(10) 0.4833(5) 0.7101(6)
H36 H 1.0583 0.5317 0.6944
C41 C 1.7558(11) 0.6165(5) 0.7083(6)
H37 H 1.7930 0.6639 0.7234
H38 H 1.6664 0.6207 0.6700
H39 H 1.8283 0.5903 0.6775
C42 C 1.3144(8) 0.4391(4) 1.0085(5)
H40 H 1.3635 0.4027 0.9733
C43 C 1.2391(8) 0.4004(4) 1.0818(5)
C44 C 1.3264(10) 0.3644(5) 1.1467(6)
H41 H 1.4289 0.3666 1.1458
C45 C 1.2658(12) 0.3261(5) 1.2116(7)
H42 H 1.3254 0.3020 1.2555
C46 C 1.1156(12) 0.3233(6) 1.2118(6)
H43 H 1.0715 0.2974 1.2563
C47 C 1.0323(10) 0.3577(5) 1.1480(7)
H44 H 0.9298 0.3550 1.1484
C48 C 1.0918(9) 0.3962(5) 1.0832(6)
C49 C 0.9962(10) 0.4338(5) 1.0125(7)
H45 H 0.9739 0.4012 0.9623
H46 H 0.9036 0.4472 1.0368
C50 C 1.0690(9) 0.4990(5) 0.9802(7)
H47 H 1.0083 0.5210 0.9312
H48 H 1.0838 0.5340 1.0286
C51 C 1.3871(9) 0.5650(4) 1.0434(5)
H49 H 1.4687 0.5941 1.0690
H50 H 1.3028 0.5731 1.0788
C52 C 1.3488(8) 0.5879(4) 0.9474(6)
H51 H 1.4422 0.5975 0.9203
C53 C 1.2616(10) 0.6554(5) 0.9409(6)
C54 C 1.1358(10) 0.6626(5) 0.8941(6)
H52 H 1.0883 0.7072 0.8913
H53 H 1.0932 0.6231 0.8634
C55 C 1.3318(11) 0.7171(5) 0.9903(7)
H54 H 1.2687 0.7587 0.9832
H55 H 1.4253 0.7276 0.9667
H56 H 1.3470 0.7052 1.0531
C56 C 1.2764(9) 0.5209(4) 0.8111(6)
loop_
_geom_bond_atom_site_label_1
_geom_bond_atom_site_label_2
_geom_bond_site_symmetry_1
_geom_bond_site_symmetry_2
Br1 C3 1_555 1_555
S1 O1 1_555 1_555
O2 S1 1_555 1_555
O3 C14 1_555 1_555
N1 S1 1_555 1_555
N2 N3 1_555 1_555
N3 C15 1_555 1_555
C1 H1 1_555 1_555
C2 C1 1_555 1_555
H2 C2 1_555 1_555
C3 C2 1_555 1_555
C4 C3 1_555 1_555
H3 C4 1_555 1_555
C5 C4 1_555 1_555
H4 C5 1_555 1_555
C6 C1 1_555 1_555
C7 S1 1_555 1_555
C8 C7 1_555 1_555
H5 C8 1_555 1_555
C9 C8 1_555 1_555
H6 C9 1_555 1_555
C10 C9 1_555 1_555
C11 C10 1_555 1_555
H7 C11 1_555 1_555
C12 C7 1_555 1_555
H8 C12 1_555 1_555
C13 C10 1_555 1_555
H9 C13 1_555 1_555
H10 C13 1_555 1_555
H11 C13 1_555 1_555
C14 N2 1_555 1_555
C15 H12 1_555 1_555
H13 C15 1_555 1_555
C16 C15 1_555 1_555
H14 C16 1_555 1_555
H15 C16 1_555 1_555
C17 C16 1_555 1_555
C18 C17 1_555 1_555
H16 C18 1_555 1_555
C19 C18 1_555 1_555
H17 C19 1_555 1_555
C20 C19 1_555 1_555
H18 C20 1_555 1_555
C21 C20 1_555 1_555
H19 C21 1_555 1_555
C22 C17 1_555 1_555
C23 N1 1_555 1_555
H20 C23 1_555 1_555
C24 N2 1_555 1_555
H21 C24 1_555 1_555
C25 N1 1_555 1_555
H22 C25 1_555 1_555
H23 C25 1_555 1_555
C26 C24 1_555 1_555
C27 C26 1_555 1_555
H24 C27 1_555 1_555
H25 C27 1_555 1_555
H26 C27 1_555 1_555
C28 C26 1_555 1_555
H27 C28 1_555 1_555
H28 C28 1_555 1_555
Br2 C38 1_555 1_555
S2 O4 1_555 1_555
O5 S2 1_555 1_555
O6 C56 1_555 1_555
N4 N6 1_555 1_555
N5 S2 1_555 1_555
N6 C42 1_555 1_555
C29 S2 1_555 1_555
C30 C29 1_555 1_555
H29 C30 1_555 1_555
C31 C30 1_555 1_555
H30 C31 1_555 1_555
C32 C31 1_555 1_555
C33 C32 1_555 1_555
H31 C33 1_555 1_555
C34 C29 1_555 1_555
H32 C34 1_555 1_555
C35 C36 1_555 1_555
C36 H33 1_555 1_555
C37 C36 1_555 1_555
H34 C37 1_555 1_555
C38 C37 1_555 1_555
C39 C38 1_555 1_555
H35 C39 1_555 1_555
C40 C35 1_555 1_555
H36 C40 1_555 1_555
C41 C32 1_555 1_555
H37 C41 1_555 1_555
H38 C41 1_555 1_555
H39 C41 1_555 1_555
C42 N5 1_555 1_555
H40 C42 1_555 1_555
C43 C42 1_555 1_555
C44 C43 1_555 1_555
H41 C44 1_555 1_555
C45 C44 1_555 1_555
H42 C45 1_555 1_555
C46 C45 1_555 1_555
H43 C46 1_555 1_555
C47 C46 1_555 1_555
H44 C47 1_555 1_555
C48 C43 1_555 1_555
C49 C48 1_555 1_555
H45 C49 1_555 1_555
H46 C49 1_555 1_555
C50 N6 1_555 1_555
H47 C50 1_555 1_555
H48 C50 1_555 1_555
C51 N5 1_555 1_555
H49 C51 1_555 1_555
H50 C51 1_555 1_555
C52 N4 1_555 1_555
H51 C52 1_555 1_555
C53 C52 1_555 1_555
C54 C53 1_555 1_555
H52 C54 1_555 1_555
H53 C54 1_555 1_555
C55 C53 1_555 1_555
H54 C55 1_555 1_555
H55 C55 1_555 1_555
H56 C55 1_555 1_555
C56 N4 1_555 1_555
N3 C23 1_555 1_555
C5 C6 1_555 1_555
C6 C14 1_555 1_555
C11 C12 1_555 1_555
C21 C22 1_555 1_555
C22 C23 1_555 1_555
C24 C25 1_555 1_555
C33 C34 1_555 1_555
C35 C56 1_555 1_555
C39 C40 1_555 1_555
C47 C48 1_555 1_555
C49 C50 1_555 1_555
C51 C52 1_555 1_555

#END
