
#######################################################################
#
#                 Cambridge Crystallographic Data Centre
#                                CCDC 
#
#######################################################################
#
# If this CIF has been generated from an entry in the Cambridge 
# Structural Database, then it will include bibliographic, chemical, 
# crystal, experimental, refinement or atomic coordinate data resulting 
# from the CCDC's data processing and validation procedures.
#
#######################################################################

data_WAQMAD
_chemical_formula_moiety         '2(C10 H9 N2 1+),C10 H4 O8 2-,C10 H6 O8'
_chemical_name_systematic        
"bis(2,4'-Bipyridin-1'-ium) 2,5-dicarboxybenzene-1,4-carboxylate benzene-1,2,4,5-tetracarboxylic acid"
_symmetry_cell_setting           triclinic
_symmetry_space_group_name_H-M   'P -1'
_symmetry_Int_Tables_number      2
_space_group_name_Hall           '-P 1'
loop_
_symmetry_equiv_pos_site_id
_symmetry_equiv_pos_as_xyz
1 x,y,z
2 -x,-y,-z
_cell_length_a                   8.090(2)
_cell_length_b                   9.576(2)
_cell_length_c                   11.456(3)
_cell_angle_alpha                85.739(4)
_cell_angle_beta                 81.378(4)
_cell_angle_gamma                79.820(5)
_cell_volume                     862.609
_exptl_crystal_colour            brown
_exptl_crystal_description       plate
_cell_formula_units_Z            1
loop_
_atom_site_label
_atom_site_type_symbol
_atom_site_fract_x
_atom_site_fract_y
_atom_site_fract_z
N1 N 0.0444(3) 0.2285(2) 0.84236(19)
N2 N -0.3301(3) 0.6861(2) 0.95212(17)
C1 C -0.4404(4) 0.7904(3) 1.0056(2)
H1 H -0.4686 0.8748 0.9619
C2 C -0.5146(4) 0.7808(3) 1.1210(2)
H2 H -0.5915 0.8564 1.1541
C3 C -0.4731(4) 0.6577(3) 1.1861(2)
H3 H -0.5204 0.6477 1.2648
C4 C -0.3594(3) 0.5484(3) 1.1325(2)
H4 H -0.3282 0.4641 1.1756
C5 C -0.2917(3) 0.5638(3) 1.01515(19)
C6 C -0.1751(3) 0.4463(2) 0.95408(19)
C7 C -0.1139(3) 0.3215(2) 1.0157(2)
H5 H -0.1471 0.3108 1.0967
C8 C -0.0058(3) 0.2150(3) 0.9578(2)
H6 H 0.0333 0.1318 0.9997
C9 C -0.0098(4) 0.3451(3) 0.7797(2)
H7 H 0.0276 0.3524 0.6991
C10 C -0.1201(3) 0.4546(3) 0.8326(2)
H8 H -0.1589 0.5352 0.7875
H11 H 0.129(4) 0.141(3) 0.805(2)
O1 O -1.1695(3) 0.37405(19) 1.52091(15)
O2 O -1.1196(3) 0.33555(18) 1.32990(15)
O3 O -0.8679(3) 0.03762(18) 1.18062(14)
O4 O -0.7838(3) 0.20769(19) 1.26587(16)
C11 C -0.8649(3) 0.1005(2) 1.2662(2)
C12 C -0.9405(3) 0.0543(2) 1.38828(18)
C13 C -1.0490(3) 0.1439(2) 1.46658(18)
C14 C -1.1160(3) 0.2951(2) 1.4313(2)
C15 C -1.1070(3) 0.0882(2) 1.57823(18)
H9 H -1.1791 0.1477 1.6315
H12 H -0.758(4) 0.241(3) 1.192(3)
H14 H -1.215(4) 0.468(4) 1.494(3)
O1A O -0.8305(3) -0.37405(19) 1.47909(15)
O2A O -0.8804(3) -0.33555(18) 1.67010(15)
O3A O -1.1321(3) -0.03762(18) 1.81938(14)
O4A O -1.2162(3) -0.20769(19) 1.73413(16)
C11A C -1.1351(3) -0.1005(2) 1.7338(2)
C12A C -1.0595(3) -0.0543(2) 1.61172(18)
C13A C -0.9510(3) -0.1439(2) 1.53342(18)
C14A C -0.8840(3) -0.2951(2) 1.5687(2)
C15A C -0.8930(3) -0.0882(2) 1.42177(18)
H9A H -0.8209 -0.1477 1.3685
H12A H -1.242(4) -0.241(3) 1.808(3)
H14A H -0.785(4) -0.468(4) 1.506(3)
O5 O -1.4420(3) 0.62257(18) 1.63437(17)
O6 O -1.2829(3) 0.63929(17) 1.46631(15)
O7 O -1.6072(2) 0.77755(18) 1.77845(16)
O8 O -1.7250(3) 0.99622(18) 1.79815(15)
C16 C -1.3883(3) 0.6946(2) 1.5446(2)
C17 C -1.4543(3) 0.8528(2) 1.53092(19)
C18 C -1.3992(3) 0.9146(2) 1.42150(19)
H10 H -1.3299 0.8554 1.3667
C19 C -1.5611(3) 0.9427(2) 1.61275(19)
C20 C -1.6383(3) 0.9040(3) 1.7379(2)
H13 H -1.519(4) 0.688(3) 1.699(3)
O5A O -1.5580(3) 1.37743(18) 1.36563(17)
O6A O -1.7171(3) 1.36071(17) 1.53369(15)
O7A O -1.3928(2) 1.22245(18) 1.22155(16)
O8A O -1.2750(3) 1.00378(18) 1.20185(15)
C16A C -1.6117(3) 1.3054(2) 1.4554(2)
C17A C -1.5457(3) 1.1472(2) 1.46908(19)
C18A C -1.6008(3) 1.0854(2) 1.57850(19)
H10A H -1.6701 1.1446 1.6333
C19A C -1.4389(3) 1.0573(2) 1.38725(19)
C20A C -1.3617(3) 1.0960(3) 1.2621(2)
H13A H -1.481(4) 1.312(3) 1.301(3)
loop_
_geom_bond_atom_site_label_1
_geom_bond_atom_site_label_2
_geom_bond_site_symmetry_1
_geom_bond_site_symmetry_2
N1 C8 1_555 1_555
N2 C1 1_555 1_555
O1 C14 1_555 1_555
O2 C14 1_555 1_555
O3 C11 1_555 1_555
O4 C11 1_555 1_555
O5 C16 1_555 1_555
O6 C16 1_555 1_555
O7 C20 1_555 1_555
O8 C20 1_555 1_555
C1 H1 1_555 1_555
C2 C1 1_555 1_555
H2 C2 1_555 1_555
C3 C2 1_555 1_555
H3 C3 1_555 1_555
C4 C3 1_555 1_555
H4 C4 1_555 1_555
C5 N2 1_555 1_555
C6 C5 1_555 1_555
C7 C6 1_555 1_555
H5 C7 1_555 1_555
C8 C7 1_555 1_555
H6 C8 1_555 1_555
C9 N1 1_555 1_555
H7 C9 1_555 1_555
C10 C6 1_555 1_555
H8 C10 1_555 1_555
C11 C12 1_555 1_555
C12 C13 1_555 1_555
C13 C14 1_555 1_555
C15 C13 1_555 1_555
H9 C15 1_555 1_555
C16 C17 1_555 1_555
C17 C18 1_555 1_555
C18 H10 1_555 1_555
C19 C17 1_555 1_555
C20 C19 1_555 1_555
H11 N1 1_555 1_555
H12 O4 1_555 1_555
H13 O5 1_555 1_555
H14 O1 1_555 1_555
O1A C14A 1_555 1_555
O2A C14A 1_555 1_555
O3A C11A 1_555 1_555
O4A C11A 1_555 1_555
O5A C16A 1_555 1_555
O6A C16A 1_555 1_555
O7A C20A 1_555 1_555
O8A C20A 1_555 1_555
C11A C12A 1_555 1_555
C12A C15 1_555 1_555
C13A C12A 1_555 1_555
C14A C13A 1_555 1_555
C15A C12 1_555 1_555
H9A C15A 1_555 1_555
C16A C17A 1_555 1_555
C17A C18A 1_555 1_555
C18A C19 1_555 1_555
H10A C18A 1_555 1_555
C19A C18 1_555 1_555
C20A C19A 1_555 1_555
H12A O4A 1_555 1_555
H13A O5A 1_555 1_555
H14A O1A 1_555 1_555
C4 C5 1_555 1_555
C9 C10 1_555 1_555
C13A C15A 1_555 1_555
C17A C19A 1_555 1_555

#END
