
#######################################################################
#
#                 Cambridge Crystallographic Data Centre
#                                CCDC 
#
#######################################################################
#
# If this CIF has been generated from an entry in the Cambridge 
# Structural Database, then it will include bibliographic, chemical, 
# crystal, experimental, refinement or atomic coordinate data resulting 
# from the CCDC's data processing and validation procedures.
#
#######################################################################

data_WAQQIO
_chemical_formula_moiety         'C30 H24 N6'
_chemical_name_systematic        
3,3'-bis(3-(2-Pyridyl)pyrazol-1-ylmethyl)biphenyl
_symmetry_cell_setting           monoclinic
_symmetry_space_group_name_H-M   'P 21/c'
_symmetry_Int_Tables_number      14
_space_group_name_Hall           '-P 2ybc'
loop_
_symmetry_equiv_pos_site_id
_symmetry_equiv_pos_as_xyz
1 x,y,z
2 x,1/2-y,1/2+z
3 -x,-y,-z
4 -x,1/2+y,1/2-z
_cell_length_a                   6.0948(8)
_cell_length_b                   10.967(2)
_cell_length_c                   17.606(3)
_cell_angle_alpha                90
_cell_angle_beta                 94.066(15)
_cell_angle_gamma                90
_cell_volume                     1173.85
_exptl_crystal_colour            white
_exptl_crystal_description       block
_cell_formula_units_Z            2
_exptl_crystal_recrystallization_method 'diethyl ether/dichloromethane'
loop_
_atom_site_label
_atom_site_type_symbol
_atom_site_fract_x
_atom_site_fract_y
_atom_site_fract_z
N1 N 0.5362(2) 1.03965(9) 0.36498(6)
N2 N 0.3714(2) 0.97414(9) 0.39248(6)
N3 N 0.0981(2) 0.72131(9) 0.29460(6)
C1 C 0.4568(2) 1.45023(10) 0.47409(6)
C2 C 0.5786(2) 1.34413(10) 0.46370(7)
H1 H 0.7208(2) 1.33672(10) 0.48909(7)
C3 C 0.4980(2) 1.24910(11) 0.41732(7)
C4 C 0.2919(2) 1.26004(11) 0.37916(7)
H2 H 0.2345(2) 1.19571(11) 0.34754(7)
C5 C 0.1702(2) 1.36544(12) 0.38744(8)
H3 H 0.0301(2) 1.37353(12) 0.36065(8)
C6 C 0.2503(2) 1.45881(11) 0.43420(7)
H4 H 0.1639(2) 1.53003(11) 0.43938(7)
C7 C 0.6403(2) 1.13583(11) 0.41181(8)
H5 H 0.7801(2) 1.15916(11) 0.39033(8)
H6 H 0.6764(2) 1.10357(11) 0.46371(8)
C8 C 0.3099(2) 0.89675(10) 0.33604(7)
C9 C 0.4359(2) 0.91295(11) 0.27338(7)
H7 H 0.4256(2) 0.86884(11) 0.22683(7)
C10 C 0.5774(2) 1.00614(11) 0.29376(7)
H8 H 0.6843(2) 1.04066(11) 0.26344(7)
C11 C 0.1245(2) 0.81351(10) 0.34509(7)
C12 C -0.0744(2) 0.64659(11) 0.30206(8)
H9 H -0.0950(2) 0.58085(11) 0.26714(8)
C13 C -0.2224(2) 0.65909(12) 0.35673(8)
H10 H -0.3419(2) 0.60394(12) 0.35917(8)
C14 C -0.1933(2) 0.75414(12) 0.40830(8)
H11 H -0.2919(2) 0.76523(12) 0.44714(8)
C15 C -0.0184(2) 0.83224(11) 0.40215(7)
H12 H 0.0044(2) 0.89840(11) 0.43664(7)
C1B C 0.5432(2) 1.54977(10) 0.52591(6)
C2B C 0.4214(2) 1.65587(10) 0.53630(7)
H1B H 0.2792(2) 1.66328(10) 0.51091(7)
C3B C 0.5020(2) 1.75090(11) 0.58268(7)
C4B C 0.7081(2) 1.73996(11) 0.62084(7)
H2B H 0.7655(2) 1.80429(11) 0.65246(7)
C5B C 0.8298(2) 1.63456(12) 0.61256(8)
H3B H 0.9699(2) 1.62647(12) 0.63935(8)
C6B C 0.7497(2) 1.54119(11) 0.56580(7)
H4B H 0.8361(2) 1.46997(11) 0.56062(7)
C7B C 0.3597(2) 1.86417(11) 0.58819(8)
N1B N 0.4638(2) 1.96035(9) 0.63502(6)
N2B N 0.6286(2) 2.02586(9) 0.60752(6)
C8B C 0.6901(2) 2.10325(10) 0.66396(7)
C9B C 0.5641(2) 2.08705(11) 0.72662(7)
H7B H 0.5744(2) 2.13116(11) 0.77317(7)
C10B C 0.4226(2) 1.99386(11) 0.70624(7)
H8B H 0.3157(2) 1.95934(11) 0.73656(7)
C11B C 0.8755(2) 2.18649(10) 0.65491(7)
N3B N 0.9019(2) 2.27869(9) 0.70540(6)
C12B C 1.0744(2) 2.35341(11) 0.69794(8)
H9B H 1.0950(2) 2.41915(11) 0.73286(8)
C13B C 1.2224(2) 2.34091(12) 0.64327(8)
H10B H 1.3419(2) 2.39606(12) 0.64083(8)
C14B C 1.1933(2) 2.24586(12) 0.59170(8)
H11B H 1.2919(2) 2.23477(12) 0.55286(8)
C15B C 1.0184(2) 2.16776(11) 0.59785(7)
H12B H 0.9956(2) 2.10160(11) 0.56336(7)
H5B H 0.2199(2) 1.84084(11) 0.60967(8)
H6B H 0.3236(2) 1.89643(11) 0.53629(8)
loop_
_geom_bond_atom_site_label_1
_geom_bond_atom_site_label_2
_geom_bond_site_symmetry_1
_geom_bond_site_symmetry_2
N1 N2 1_555 1_555
N2 C8 1_555 1_555
N3 C11 1_555 1_555
C1 C2 1_555 1_555
C2 H1 1_555 1_555
C3 C2 1_555 1_555
C4 C3 1_555 1_555
H2 C4 1_555 1_555
C5 C4 1_555 1_555
H3 C5 1_555 1_555
C6 C1 1_555 1_555
H4 C6 1_555 1_555
C7 N1 1_555 1_555
H5 C7 1_555 1_555
H6 C7 1_555 1_555
C8 C9 1_555 1_555
C9 H7 1_555 1_555
C10 N1 1_555 1_555
H8 C10 1_555 1_555
C11 C8 1_555 1_555
C12 N3 1_555 1_555
H9 C12 1_555 1_555
C13 C12 1_555 1_555
H10 C13 1_555 1_555
C14 C13 1_555 1_555
H11 C14 1_555 1_555
C15 C11 1_555 1_555
H12 C15 1_555 1_555
C1B C1 1_555 1_555
C2B C1B 1_555 1_555
H1B C2B 1_555 1_555
C3B C2B 1_555 1_555
C4B C3B 1_555 1_555
H2B C4B 1_555 1_555
C5B C4B 1_555 1_555
H3B C5B 1_555 1_555
C6B C1B 1_555 1_555
H4B C6B 1_555 1_555
C7B C3B 1_555 1_555
N1B C7B 1_555 1_555
N2B N1B 1_555 1_555
C8B N2B 1_555 1_555
C9B C8B 1_555 1_555
H7B C9B 1_555 1_555
C10B N1B 1_555 1_555
H8B C10B 1_555 1_555
C11B C8B 1_555 1_555
N3B C11B 1_555 1_555
C12B N3B 1_555 1_555
H9B C12B 1_555 1_555
C13B C12B 1_555 1_555
H10B C13B 1_555 1_555
C14B C13B 1_555 1_555
H11B C14B 1_555 1_555
C15B C11B 1_555 1_555
H12B C15B 1_555 1_555
H5B C7B 1_555 1_555
H6B C7B 1_555 1_555
C3 C7 1_555 1_555
C5 C6 1_555 1_555
C9 C10 1_555 1_555
C14 C15 1_555 1_555
C5B C6B 1_555 1_555
C9B C10B 1_555 1_555
C14B C15B 1_555 1_555

#END
