
#######################################################################
#
#                 Cambridge Crystallographic Data Centre
#                                CCDC 
#
#######################################################################
#
# If this CIF has been generated from an entry in the Cambridge 
# Structural Database, then it will include bibliographic, chemical, 
# crystal, experimental, refinement or atomic coordinate data resulting 
# from the CCDC's data processing and validation procedures.
#
#######################################################################

data_WAQQEL
_chemical_formula_moiety         'C16 H16 N4 O2'
_chemical_name_systematic        N,N'-bis(4-Pyridylformyl)piperazine
_symmetry_cell_setting           monoclinic
_symmetry_space_group_name_H-M   'P 21/c'
_symmetry_Int_Tables_number      14
_space_group_name_Hall           '-P 2ybc'
loop_
_symmetry_equiv_pos_site_id
_symmetry_equiv_pos_as_xyz
1 x,y,z
2 -x,1/2+y,1/2-z
3 -x,-y,-z
4 x,1/2-y,1/2+z
_cell_length_a                   9.206(3)
_cell_length_b                   8.282(3)
_cell_length_c                   11.347(3)
_cell_angle_alpha                90
_cell_angle_beta                 123.255(17)
_cell_angle_gamma                90
_cell_volume                     723.465
_exptl_crystal_colour            yellow
_exptl_crystal_description       column
_cell_formula_units_Z            2
_exptl_crystal_recrystallization_method ethanol
loop_
_atom_site_label
_atom_site_type_symbol
_atom_site_fract_x
_atom_site_fract_y
_atom_site_fract_z
O1 O -0.63127(13) -0.36622(17) -0.78747(11)
N1 N -0.03615(18) -0.37458(19) -0.35911(14)
N2 N -0.48331(13) -0.39803(14) -0.89267(11)
C1 C -0.18930(19) -0.2790(2) -0.59742(16)
C2 C -0.0482(2) -0.2802(2) -0.45952(17)
C3 C -0.1706(2) -0.4721(2) -0.39759(17)
C4 C -0.3170(2) -0.47896(18) -0.53186(15)
C5 C -0.32754(16) -0.38132(16) -0.63562(13)
C6 C -0.49361(17) -0.38275(16) -0.77910(14)
C7 C -0.32910(16) -0.44696(19) -0.89050(14)
C8 C -0.64038(17) -0.39218(18) -1.03547(13)
H1 H -0.302(2) -0.360(2) -0.9409(18)
H2 H -0.230(2) -0.4583(18) -0.7943(16)
H3 H -0.739(2) -0.3680(18) -1.0300(17)
H4 H -0.414(2) -0.553(2) -0.5538(18)
H5 H 0.049(2) -0.208(2) -0.4289(19)
H6 H -0.159(3) -0.539(3) -0.324(2)
H7 H -0.621(2) -0.308(2) -1.0900(18)
H8 H -0.194(2) -0.207(2) -0.6660(19)
O1B O -0.36873(13) -0.63378(17) -1.21253(11)
N1B N -0.96385(18) -0.62542(19) -1.64089(14)
N2B N -0.51669(13) -0.60197(14) -1.10733(11)
C1B C -0.81070(19) -0.7210(2) -1.40258(16)
C2B C -0.9518(2) -0.7198(2) -1.54048(17)
C3B C -0.8294(2) -0.5279(2) -1.60241(17)
C4B C -0.6830(2) -0.52104(18) -1.46814(15)
C5B C -0.67246(16) -0.61868(16) -1.36438(13)
C6B C -0.50639(17) -0.61725(16) -1.22090(14)
C7B C -0.67090(16) -0.55304(19) -1.10950(14)
C8B C -0.35962(17) -0.60782(18) -0.96453(13)
H1B H -0.698(2) -0.640(2) -1.0591(18)
H2B H -0.770(2) -0.5417(18) -1.2057(16)
H3B H -0.261(2) -0.6320(18) -0.9700(17)
H4B H -0.586(2) -0.447(2) -1.4462(18)
H5B H -1.049(2) -0.792(2) -1.5711(19)
H6B H -0.841(3) -0.461(3) -1.676(2)
H7B H -0.379(2) -0.692(2) -0.9100(18)
H8B H -0.806(2) -0.793(2) -1.3340(19)
loop_
_geom_bond_atom_site_label_1
_geom_bond_atom_site_label_2
_geom_bond_site_symmetry_1
_geom_bond_site_symmetry_2
O1 C6 1_555 1_555
N1 C2 1_555 1_555
N2 C6 1_555 1_555
C1 C2 1_555 1_555
C2 H5 1_555 1_555
C3 N1 1_555 1_555
C4 C3 1_555 1_555
C5 C1 1_555 1_555
C6 C5 1_555 1_555
C7 N2 1_555 1_555
C8 N2 1_555 1_555
H1 C7 1_555 1_555
H2 C7 1_555 1_555
H3 C8 1_555 1_555
H4 C4 1_555 1_555
H6 C3 1_555 1_555
H7 C8 1_555 1_555
H8 C1 1_555 1_555
O1B C6B 1_555 1_555
N1B C2B 1_555 1_555
N2B C6B 1_555 1_555
C1B C2B 1_555 1_555
C2B H5B 1_555 1_555
C3B N1B 1_555 1_555
C4B C3B 1_555 1_555
C5B C1B 1_555 1_555
C6B C5B 1_555 1_555
C7B C8 1_555 1_555
C8B C7 1_555 1_555
H1B C7B 1_555 1_555
H2B C7B 1_555 1_555
H3B C8B 1_555 1_555
H4B C4B 1_555 1_555
H6B C3B 1_555 1_555
H7B C8B 1_555 1_555
H8B C1B 1_555 1_555
C4 C5 1_555 1_555
N2B C7B 1_555 1_555
N2B C8B 1_555 1_555
C4B C5B 1_555 1_555

#END
