
#######################################################################
#
#                 Cambridge Crystallographic Data Centre
#                                CCDC 
#
#######################################################################
#
# If this CIF has been generated from an entry in the Cambridge 
# Structural Database, then it will include bibliographic, chemical, 
# crystal, experimental, refinement or atomic coordinate data resulting 
# from the CCDC's data processing and validation procedures.
#
#######################################################################

data_WAQSUF
_chemical_formula_moiety         'C26 H20 F3 N1 O1'
_chemical_name_systematic        
5,6a-dimethyl-12-phenyl-2-(trifluoromethyl)-6a,7-dihydrobenzo[j]phenanthridin-6(5H)-one
_symmetry_cell_setting           triclinic
_symmetry_space_group_name_H-M   'P -1'
_symmetry_Int_Tables_number      2
_space_group_name_Hall           '-P 1'
loop_
_symmetry_equiv_pos_site_id
_symmetry_equiv_pos_as_xyz
1 x,y,z
2 -x,-y,-z
_cell_length_a                   9.3089(19)
_cell_length_b                   10.692(2)
_cell_length_c                   10.826(2)
_cell_angle_alpha                98.780(4)
_cell_angle_beta                 90.325(4)
_cell_angle_gamma                108.111(4)
_cell_volume                     1010.51
_exptl_crystal_colour            white
_exptl_crystal_description       block
_cell_formula_units_Z            2
loop_
_atom_site_label
_atom_site_type_symbol
_atom_site_fract_x
_atom_site_fract_y
_atom_site_fract_z
F1 F 1.0644(4) 0.9071(2) 0.2114(3)
F2 F 1.0916(4) 0.9411(3) 0.4067(3)
F3 F 1.2724(3) 0.9268(3) 0.2984(3)
N1 N 0.9387(3) 0.3149(3) 0.3021(3)
O1 O 0.8106(3) 0.1117(3) 0.1959(3)
C1 C 0.8266(4) 0.2301(3) 0.2184(3)
C2 C 0.7172(4) 0.2867(3) 0.1561(3)
C3 C 0.5585(4) 0.1882(3) 0.1661(3)
H1 H 0.5498 0.1037 0.1138
H2 H 0.5465 0.1727 0.2519
C4 C 0.4347(4) 0.2379(3) 0.1271(3)
C5 C 0.3006(4) 0.1516(4) 0.0665(3)
H3 H 0.2891 0.0613 0.0456
C6 C 0.1833(4) 0.1987(4) 0.0368(3)
H4 H 0.0941 0.1406 -0.0044
C7 C 0.2011(4) 0.3321(4) 0.0692(3)
H5 H 0.1230 0.3643 0.0502
C8 C 0.3331(4) 0.4189(4) 0.1295(3)
H6 H 0.3427 0.5088 0.1513
C9 C 0.4523(3) 0.3736(3) 0.1582(3)
C10 C 0.5993(3) 0.4659(3) 0.2208(3)
C11 C 0.7245(3) 0.4257(3) 0.2182(3)
C12 C 0.8788(3) 0.5128(3) 0.2642(3)
C13 C 0.9310(3) 0.6483(3) 0.2616(3)
H7 H 0.8666 0.6879 0.2289
C14 C 1.0760(4) 0.7273(3) 0.3061(3)
C15 C 1.1724(4) 0.6697(4) 0.3571(3)
H8 H 1.2678 0.7222 0.3915
C16 C 1.1252(4) 0.5342(4) 0.3562(3)
H9 H 1.1909 0.4953 0.3881
C17 C 0.9811(4) 0.4540(3) 0.3085(3)
C18 C 1.0369(5) 0.2542(4) 0.3619(4)
H10 H 0.9854 0.1606 0.3584
H11 H 1.0606 0.2961 0.4477
H12 H 1.1287 0.2662 0.3186
C19 C 0.7578(4) 0.2889(4) 0.0190(3)
H13 H 0.6780 0.3034 -0.0277
H14 H 0.7703 0.2051 -0.0161
H15 H 0.8504 0.3595 0.0150
C20 C 0.5993(3) 0.5991(3) 0.2847(3)
C21 C 0.5900(4) 0.6977(3) 0.2166(3)
H16 H 0.5812 0.6796 0.1296
C22 C 0.5937(4) 0.8217(4) 0.2780(4)
H17 H 0.5865 0.8862 0.2317
C23 C 0.6077(5) 0.8510(4) 0.4034(5)
H18 H 0.6125 0.9358 0.4431
C24 C 0.6149(4) 0.7548(4) 0.4736(4)
H19 H 0.6222 0.7746 0.5605
C25 C 0.6114(4) 0.6295(4) 0.4149(3)
H20 H 0.6172 0.5655 0.4623
C26 C 1.1241(4) 0.8732(4) 0.3065(3)
loop_
_geom_bond_atom_site_label_1
_geom_bond_atom_site_label_2
_geom_bond_site_symmetry_1
_geom_bond_site_symmetry_2
F1 C26 1_555 1_555
F2 C26 1_555 1_555
F3 C26 1_555 1_555
N1 C1 1_555 1_555
O1 C1 1_555 1_555
C1 C2 1_555 1_555
C2 C3 1_555 1_555
C3 H1 1_555 1_555
H2 C3 1_555 1_555
C4 C3 1_555 1_555
C5 C4 1_555 1_555
H3 C5 1_555 1_555
C6 C5 1_555 1_555
H4 C6 1_555 1_555
C7 C6 1_555 1_555
H5 C7 1_555 1_555
C8 C7 1_555 1_555
H6 C8 1_555 1_555
C9 C4 1_555 1_555
C10 C9 1_555 1_555
C11 C2 1_555 1_555
C12 C11 1_555 1_555
C13 C12 1_555 1_555
H7 C13 1_555 1_555
C14 C13 1_555 1_555
C15 C14 1_555 1_555
H8 C15 1_555 1_555
C16 C15 1_555 1_555
H9 C16 1_555 1_555
C17 N1 1_555 1_555
C18 N1 1_555 1_555
H10 C18 1_555 1_555
H11 C18 1_555 1_555
H12 C18 1_555 1_555
C19 C2 1_555 1_555
H13 C19 1_555 1_555
H14 C19 1_555 1_555
H15 C19 1_555 1_555
C20 C10 1_555 1_555
C21 C20 1_555 1_555
H16 C21 1_555 1_555
C22 C21 1_555 1_555
H17 C22 1_555 1_555
C23 C22 1_555 1_555
H18 C23 1_555 1_555
C24 C23 1_555 1_555
H19 C24 1_555 1_555
C25 C20 1_555 1_555
H20 C25 1_555 1_555
C26 C14 1_555 1_555
C8 C9 1_555 1_555
C10 C11 1_555 1_555
C12 C17 1_555 1_555
C16 C17 1_555 1_555
C24 C25 1_555 1_555

#END
