
#######################################################################
#
#                 Cambridge Crystallographic Data Centre
#                                CCDC 
#
#######################################################################
#
# If this CIF has been generated from an entry in the Cambridge 
# Structural Database, then it will include bibliographic, chemical, 
# crystal, experimental, refinement or atomic coordinate data resulting 
# from the CCDC's data processing and validation procedures.
#
#######################################################################

data_WAQYEV
_chemical_formula_moiety         'C12 H10 N2 O4'
_chemical_name_systematic        'ethyl 2-cyano-3-(2-nitrophenyl)acrylate'
_symmetry_cell_setting           orthorhombic
_symmetry_space_group_name_H-M   'P b c a'
_symmetry_Int_Tables_number      61
_space_group_name_Hall           '-P 2ac 2ab'
loop_
_symmetry_equiv_pos_site_id
_symmetry_equiv_pos_as_xyz
1 x,y,z
2 1/2-x,-y,1/2+z
3 1/2+x,1/2-y,-z
4 -x,1/2+y,1/2-z
5 -x,-y,-z
6 1/2+x,y,1/2-z
7 1/2-x,1/2+y,z
8 x,1/2-y,1/2+z
_cell_length_a                   7.9719(3)
_cell_length_b                   7.8194(3)
_cell_length_c                   38.2632(16)
_cell_angle_alpha                90
_cell_angle_beta                 90
_cell_angle_gamma                90
_cell_volume                     2385.15
_exptl_crystal_colour            yellow
_exptl_crystal_description       Block
_cell_formula_units_Z            8
loop_
_atom_site_label
_atom_site_type_symbol
_atom_site_fract_x
_atom_site_fract_y
_atom_site_fract_z
C1 C 0.6411(4) 0.4468(4) 0.05893(10)
C2 C 0.6518(4) 0.5219(4) 0.09166(11)
C3 C 0.7810(4) 0.4056(5) 0.03943(12)
H1 H 0.7689 0.3555 0.0175
C4 C 0.9371(5) 0.4385(5) 0.05235(14)
H2 H 1.0319 0.4110 0.0394
C5 C 0.8136(5) 0.5540(5) 0.10436(12)
H3 H 0.8275 0.6037 0.1262
C6 C 0.4785(5) 0.5372(4) 0.14630(11)
C7 C 0.9531(5) 0.5120(5) 0.08444(15)
H4 H 1.0597 0.5346 0.0932
C8 C 0.5048(5) 0.5731(4) 0.11260(10)
H5 H 0.4225 0.6366 0.1013
C9 C 0.3193(7) 0.5957(5) 0.16274(14)
C10 C 0.5919(7) 0.4357(5) 0.16639(12)
C11 C 0.1458(12) 0.5804(10) 0.2119(2)
H6 H 0.1633 0.6788 0.2269
H7 H 0.0670 0.6148 0.1939
C12 C 0.0816(16) 0.4731(14) 0.2288(3)
H8 H 0.0847 0.3668 0.2162
H9 H -0.0329 0.5041 0.2333
H10 H 0.1404 0.4609 0.2505
N1 N 0.4786(4) 0.3979(5) 0.04412(11)
N2 N 0.6829(7) 0.3517(6) 0.18192(12)
O1 O 0.2190(5) 0.6824(5) 0.14771(9)
O2 O 0.3037(5) 0.5422(4) 0.19500(10)
O3 O 0.3549(4) 0.4208(8) 0.06052(11)
O4 O 0.4751(4) 0.3267(4) 0.01633(10)
loop_
_geom_bond_atom_site_label_1
_geom_bond_atom_site_label_2
_geom_bond_site_symmetry_1
_geom_bond_site_symmetry_2
C1 C2 1_555 1_555
C2 C5 1_555 1_555
C3 C1 1_555 1_555
H1 C3 1_555 1_555
C4 C3 1_555 1_555
H2 C4 1_555 1_555
C5 H3 1_555 1_555
C6 C8 1_555 1_555
C7 C4 1_555 1_555
H4 C7 1_555 1_555
C8 C2 1_555 1_555
H5 C8 1_555 1_555
C9 C6 1_555 1_555
C10 C6 1_555 1_555
C11 H6 1_555 1_555
H7 C11 1_555 1_555
C12 C11 1_555 1_555
H8 C12 1_555 1_555
H9 C12 1_555 1_555
H10 C12 1_555 1_555
N1 C1 1_555 1_555
N2 C10 1_555 1_555
O1 C9 1_555 1_555
O2 C9 1_555 1_555
O3 N1 1_555 1_555
O4 N1 1_555 1_555
C5 C7 1_555 1_555
C11 O2 1_555 1_555

#END
