
#######################################################################
#
#                 Cambridge Crystallographic Data Centre
#                                CCDC 
#
#######################################################################
#
# If this CIF has been generated from an entry in the Cambridge 
# Structural Database, then it will include bibliographic, chemical, 
# crystal, experimental, refinement or atomic coordinate data resulting 
# from the CCDC's data processing and validation procedures.
#
#######################################################################

data_WAQZAS
_chemical_formula_moiety         'C12 H10 Br1 N1 O2'
_chemical_name_systematic        'ethyl 3-(4-bromophenyl)-2-cyanoacrylate'
_symmetry_cell_setting           monoclinic
_symmetry_space_group_name_H-M   'P 21/c'
_symmetry_Int_Tables_number      14
_space_group_name_Hall           '-P 2ybc'
loop_
_symmetry_equiv_pos_site_id
_symmetry_equiv_pos_as_xyz
1 x,y,z
2 -x,1/2+y,1/2-z
3 -x,-y,-z
4 x,1/2-y,1/2+z
_cell_length_a                   15.601(14)
_cell_length_b                   5.347(6)
_cell_length_c                   17.88(2)
_cell_angle_alpha                90
_cell_angle_beta                 124.97(7)
_cell_angle_gamma                90
_cell_volume                     1222.23
_exptl_crystal_colour            yellow
_exptl_crystal_description       Block
_cell_formula_units_Z            4
loop_
_atom_site_label
_atom_site_type_symbol
_atom_site_fract_x
_atom_site_fract_y
_atom_site_fract_z
Br1 Br 0.05659(10) 1.48276(18) 0.18186(11)
C1 C 0.8588(12) 0.523(2) 0.4717(13)
H1 H 0.8128 0.4910 0.4073
H2 H 0.9119 0.3960 0.5000
H3 H 0.8909 0.6836 0.4817
C2 C 0.7995(9) 0.5188(17) 0.5110(9)
H4 H 0.7699 0.3542 0.5047
H5 H 0.8440 0.5612 0.5754
C3 C 0.5748(8) 1.0431(14) 0.3552(7)
C4 C 0.5523(7) 0.8678(13) 0.4041(6)
C5 C 0.6317(7) 0.6735(15) 0.4595(6)
C6 C 0.4621(7) 0.8662(14) 0.3964(6)
H6 H 0.4585 0.7414 0.4307
C7 C 0.3669(8) 1.0218(13) 0.3447(7)
C8 C 0.3573(7) 1.2318(15) 0.2942(6)
H7 H 0.4133 1.2789 0.2922
C9 C 0.2655(8) 1.3728(16) 0.2466(7)
H8 H 0.2609 1.5159 0.2149
C10 C 0.1820(7) 1.2960(16) 0.2473(7)
C11 C 0.1891(9) 1.0913(17) 0.2979(8)
H9 H 0.1329 1.0438 0.2997
C12 C 0.2833(8) 0.9576(15) 0.3465(7)
H10 H 0.2892 0.8204 0.3811
N1 N 0.5970(6) 1.1836(13) 0.3217(6)
O1 O 0.6210(6) 0.5097(10) 0.5010(5)
O2 O 0.7178(5) 0.7017(10) 0.4615(4)
loop_
_geom_bond_atom_site_label_1
_geom_bond_atom_site_label_2
_geom_bond_site_symmetry_1
_geom_bond_site_symmetry_2
Br1 C10 1_555 1_555
C1 H1 1_555 1_555
H2 C1 1_555 1_555
H3 C1 1_555 1_555
C2 C1 1_555 1_555
H4 C2 1_555 1_555
H5 C2 1_555 1_555
C3 C4 1_555 1_555
C4 C5 1_555 1_555
C5 O1 1_555 1_555
C6 C4 1_555 1_555
H6 C6 1_555 1_555
C7 C6 1_555 1_555
C8 C7 1_555 1_555
H7 C8 1_555 1_555
C9 C8 1_555 1_555
H8 C9 1_555 1_555
C10 C9 1_555 1_555
C11 C10 1_555 1_555
H9 C11 1_555 1_555
C12 C7 1_555 1_555
H10 C12 1_555 1_555
N1 C3 1_555 1_555
O2 C2 1_555 1_555
C5 O2 1_555 1_555
C11 C12 1_555 1_555

#END
