
#######################################################################
#
#                 Cambridge Crystallographic Data Centre
#                                CCDC 
#
#######################################################################
#
# If this CIF has been generated from an entry in the Cambridge 
# Structural Database, then it will include bibliographic, chemical, 
# crystal, experimental, refinement or atomic coordinate data resulting 
# from the CCDC's data processing and validation procedures.
#
#######################################################################

data_WARJUX
_chemical_formula_moiety         'C45 H36 O3'
_chemical_name_systematic        1,3,5-tribenzoyl-2,4,6-triphenylcyclohexane
_symmetry_cell_setting           triclinic
_symmetry_space_group_name_H-M   'P -1'
_symmetry_Int_Tables_number      2
_space_group_name_Hall           '-P 1'
loop_
_symmetry_equiv_pos_site_id
_symmetry_equiv_pos_as_xyz
1 x,y,z
2 -x,-y,-z
_cell_length_a                   12.087(2)
_cell_length_b                   13.285(2)
_cell_length_c                   21.495(3)
_cell_angle_alpha                82.441(4)
_cell_angle_beta                 77.551(5)
_cell_angle_gamma                88.702(5)
_cell_volume                     3341.08
_exptl_crystal_colour            colorless
_exptl_crystal_description       plate
_cell_formula_units_Z            4
loop_
_atom_site_label
_atom_site_type_symbol
_atom_site_fract_x
_atom_site_fract_y
_atom_site_fract_z
C1 C 0.7594(3) 0.4675(2) 0.23822(14)
H1 H 0.8279 0.51 0.2355
C2 C 0.7350(3) 0.4068(2) 0.30732(14)
H2 H 0.8093 0.3834 0.3172
C3 C 0.6586(3) 0.3124(2) 0.31549(14)
H3 H 0.5836 0.3349 0.3062
C4 C 0.7142(3) 0.2413(2) 0.26617(14)
H4 H 0.7902 0.2201 0.2745
C5 C 0.7291(3) 0.2927(2) 0.19677(14)
H5 H 0.6521 0.3091 0.1883
C6 C 0.7962(3) 0.3924(2) 0.18644(15)
H6 H 0.8769 0.3737 0.1864
C7 C 0.7944(3) 0.4505(2) 0.12027(15)
C8 C 0.8799(3) 0.5318(2) 0.09090(14)
C9 C 0.9952(3) 0.5170(2) 0.08765(15)
H7 H 1.0207 0.457 0.1095
C10 C 1.0730(3) 0.5895(2) 0.05262(15)
H8 H 1.1518 0.5782 0.0495
C11 C 1.0358(3) 0.6788(3) 0.02209(15)
H9 H 1.089 0.7284 -0.0021
C12 C 0.9205(3) 0.6950(3) 0.02717(15)
H10 H 0.8947 0.7568 0.0075
C13 C 0.8427(3) 0.6214(2) 0.06077(15)
H11 H 0.764 0.6322 0.0632
C14 C 0.6673(3) 0.5420(2) 0.22475(14)
C15 C 0.6885(3) 0.6455(2) 0.22337(15)
H12 H 0.756 0.6661 0.2342
C16 C 0.6125(3) 0.7186(3) 0.20640(16)
H13 H 0.6284 0.7885 0.206
C17 C 0.5143(3) 0.6908(3) 0.19019(15)
H14 H 0.4636 0.7409 0.1772
C18 C 0.4905(3) 0.5877(3) 0.19315(15)
H15 H 0.4222 0.5675 0.1831
C19 C 0.5656(3) 0.5144(3) 0.21053(15)
H16 H 0.5477 0.4446 0.2128
C20 C 0.6806(3) 0.4760(2) 0.35699(15)
C21 C 0.7506(3) 0.5278(2) 0.39316(15)
C22 C 0.8676(3) 0.5195(3) 0.38298(16)
H17 H 0.9067 0.482 0.3503
C23 C 0.9288(3) 0.5652(3) 0.41973(17)
H18 H 1.0089 0.5592 0.4121
C24 C 0.8719(3) 0.6195(3) 0.46753(17)
H19 H 0.913 0.6506 0.493
C25 C 0.7558(3) 0.6286(2) 0.47822(16)
H20 H 0.7171 0.6658 0.5111
C26 C 0.6954(3) 0.5840(2) 0.44143(15)
H21 H 0.6154 0.5916 0.4489
C27 C 0.6392(3) 0.2571(2) 0.38339(15)
C28 C 0.5314(3) 0.2483(2) 0.42284(16)
H22 H 0.4693 0.2799 0.4077
C29 C 0.5130(3) 0.1941(3) 0.48383(16)
H23 H 0.439 0.1903 0.5104
C30 C 0.6019(3) 0.1457(3) 0.50621(16)
H24 H 0.5889 0.1067 0.5475
C31 C 0.7098(3) 0.1546(2) 0.46802(15)
H25 H 0.7713 0.1222 0.4834
C32 C 0.7291(3) 0.2106(2) 0.40725(15)
H26 H 0.8039 0.2173 0.3818
C33 C 0.6387(3) 0.1474(2) 0.27634(14)
C34 C 0.6802(3) 0.0455(2) 0.30033(14)
C35 C 0.7922(3) 0.0269(2) 0.30391(15)
H27 H 0.8466 0.0801 0.2896
C36 C 0.8261(3) -0.0680(2) 0.32806(15)
H28 H 0.903 -0.0795 0.3304
C37 C 0.7480(3) -0.1455(3) 0.34853(16)
H29 H 0.7712 -0.2109 0.3645
C38 C 0.6357(3) -0.1283(3) 0.34595(17)
H30 H 0.5816 -0.1815 0.3609
C39 C 0.6020(3) -0.0335(3) 0.32157(16)
H31 H 0.525 -0.0224 0.3193
C40 C 0.7847(3) 0.2185(2) 0.15121(14)
C41 C 0.8978(3) 0.1894(2) 0.14761(14)
H32 H 0.9417 0.2191 0.1723
C42 C 0.9468(3) 0.1176(2) 0.10837(15)
H33 H 1.0241 0.0999 0.1057
C43 C 0.8830(3) 0.0719(2) 0.07319(15)
H34 H 0.9157 0.0216 0.0474
C44 C 0.7711(3) 0.1006(2) 0.07605(15)
H35 H 0.7273 0.0703 0.0516
C45 C 0.7226(3) 0.1733(2) 0.11441(15)
H36 H 0.6461 0.1926 0.1156
O1 O 0.72095(18) 0.43328(16) 0.09164(10)
O2 O 0.57756(18) 0.48739(16) 0.36854(10)
O3 O 0.54222(18) 0.15623(16) 0.26654(10)
C46 C 0.2316(3) 0.1266(2) 0.19106(14)
H37 H 0.1556 0.1172 0.1813
C47 C 0.2134(3) 0.1428(2) 0.26286(14)
H38 H 0.2878 0.1602 0.2721
C48 C 0.1626(2) 0.0503(2) 0.30981(14)
H39 H 0.0854 0.0375 0.3025
C49 C 0.2339(3) -0.0448(2) 0.29762(14)
H40 H 0.3092 -0.0338 0.308
C50 C 0.2558(3) -0.0682(2) 0.22643(14)
H41 H 0.3208 -0.1166 0.222
C51 C 0.3006(3) 0.0298(2) 0.17917(14)
H42 H 0.3798 0.0429 0.1831
C52 C 0.3056(3) 0.0043(2) 0.11103(15)
C53 C 0.3959(3) -0.0670(2) 0.08476(14)
C54 C 0.3649(3) -0.1455(3) 0.05376(15)
H43 H 0.2878 -0.1543 0.0523
C55 C 0.4461(3) -0.2096(3) 0.02552(16)
H44 H 0.4248 -0.2631 0.0052
C56 C 0.5583(3) -0.1963(3) 0.02679(16)
H45 H 0.6143 -0.2397 0.0065
C57 C 0.5896(3) -0.1195(3) 0.05768(16)
H46 H 0.667 -0.1107 0.0586
C58 C 0.5082(3) -0.0556(2) 0.08726(15)
H47 H 0.5297 -0.004 0.1092
C59 C 0.2861(3) 0.2211(2) 0.14899(14)
C60 C 0.3951(3) 0.2514(2) 0.15003(15)
H48 H 0.4384 0.2098 0.1752
C61 C 0.4418(3) 0.3416(2) 0.11476(15)
H49 H 0.5164 0.3611 0.1158
C62 C 0.3791(3) 0.4028(2) 0.07816(15)
H50 H 0.4105 0.4645 0.0541
C63 C 0.2710(3) 0.3738(2) 0.07665(15)
H51 H 0.2279 0.4159 0.0516
C64 C 0.2248(3) 0.2836(2) 0.11149(14)
H52 H 0.1504 0.2642 0.1098
C65 C 0.1337(3) 0.2331(2) 0.27219(14)
C66 C 0.1744(3) 0.3312(2) 0.28551(14)
C67 C 0.2719(3) 0.3396(2) 0.30956(15)
H53 H 0.3161 0.2811 0.3174
C68 C 0.3043(3) 0.4330(2) 0.32193(16)
H54 H 0.3702 0.4385 0.3387
C69 C 0.2406(3) 0.5187(2) 0.30988(15)
H55 H 0.2631 0.5828 0.3182
C70 C 0.1448(3) 0.5109(2) 0.28584(16)
H56 H 0.1015 0.5698 0.2775
C71 C 0.1111(3) 0.4181(2) 0.27385(15)
H57 H 0.0445 0.4133 0.2576
C72 C 0.1489(3) 0.0736(2) 0.37842(15)
C73 C 0.2412(3) 0.0773(2) 0.40664(15)
H58 H 0.3146 0.0633 0.3831
C74 C 0.2282(3) 0.1012(2) 0.46897(16)
H59 H 0.2922 0.1022 0.4879
C75 C 0.1223(3) 0.1234(2) 0.50306(16)
H60 H 0.1129 0.1398 0.5456
C76 C 0.0299(3) 0.1215(3) 0.47507(16)
H61 H -0.0431 0.1379 0.4981
C77 C 0.0432(3) 0.0957(2) 0.41333(15)
H62 H -0.0212 0.0933 0.3949
C78 C 0.1769(3) -0.1359(2) 0.34349(14)
C79 C 0.2455(3) -0.2203(2) 0.36907(14)
C80 C 0.1914(3) -0.2863(2) 0.42276(14)
H63 H 0.1136 -0.2769 0.441
C81 C 0.2499(3) -0.3644(2) 0.44927(15)
H64 H 0.2132 -0.4069 0.4867
C82 C 0.3619(3) -0.3814(2) 0.42165(15)
H65 H 0.4016 -0.436 0.4399
C83 C 0.4167(3) -0.3187(2) 0.36710(15)
H66 H 0.4927 -0.3321 0.3472
C84 C 0.3599(3) -0.2364(2) 0.34198(15)
H67 H 0.3985 -0.191 0.3065
C85 C 0.1602(3) -0.1233(2) 0.20952(14)
C86 C 0.0555(3) -0.0799(2) 0.20433(15)
H68 H 0.0402 -0.0122 0.2134
C87 C -0.0268(3) -0.1342(3) 0.18603(15)
H69 H -0.0975 -0.1037 0.1829
C88 C -0.0055(3) -0.2330(3) 0.17231(16)
H70 H -0.0609 -0.2698 0.1591
C89 C 0.0963(3) -0.2772(3) 0.17804(16)
H71 H 0.1109 -0.345 0.1691
C90 C 0.1779(3) -0.2235(2) 0.19683(15)
H72 H 0.2474 -0.2556 0.2012
O4 O 0.07369(17) -0.13892(15) 0.36064(10)
O5 O 0.23378(18) 0.03559(16) 0.08129(10)
O6 O 0.03456(18) 0.22420(16) 0.26671(10)
loop_
_geom_bond_atom_site_label_1
_geom_bond_atom_site_label_2
_geom_bond_site_symmetry_1
_geom_bond_site_symmetry_2
C1 H1 1_555 1_555
C2 C1 1_555 1_555
H2 C2 1_555 1_555
C3 C2 1_555 1_555
H3 C3 1_555 1_555
C4 C3 1_555 1_555
H4 C4 1_555 1_555
C5 C4 1_555 1_555
H5 C5 1_555 1_555
C6 C1 1_555 1_555
H6 C6 1_555 1_555
C7 C6 1_555 1_555
C8 C7 1_555 1_555
C9 C8 1_555 1_555
H7 C9 1_555 1_555
C10 C9 1_555 1_555
H8 C10 1_555 1_555
C11 C10 1_555 1_555
H9 C11 1_555 1_555
C12 C11 1_555 1_555
H10 C12 1_555 1_555
C13 C8 1_555 1_555
H11 C13 1_555 1_555
C14 C1 1_555 1_555
C15 C14 1_555 1_555
H12 C15 1_555 1_555
C16 C15 1_555 1_555
H13 C16 1_555 1_555
C17 C16 1_555 1_555
H14 C17 1_555 1_555
C18 C17 1_555 1_555
H15 C18 1_555 1_555
C19 C14 1_555 1_555
H16 C19 1_555 1_555
C20 C2 1_555 1_555
C21 C20 1_555 1_555
C22 C21 1_555 1_555
H17 C22 1_555 1_555
C23 C22 1_555 1_555
H18 C23 1_555 1_555
C24 C23 1_555 1_555
H19 C24 1_555 1_555
C25 C24 1_555 1_555
H20 C25 1_555 1_555
C26 C21 1_555 1_555
H21 C26 1_555 1_555
C27 C3 1_555 1_555
C28 C27 1_555 1_555
H22 C28 1_555 1_555
C29 C28 1_555 1_555
H23 C29 1_555 1_555
C30 C29 1_555 1_555
H24 C30 1_555 1_555
C31 C30 1_555 1_555
H25 C31 1_555 1_555
C32 C27 1_555 1_555
H26 C32 1_555 1_555
C33 C4 1_555 1_555
C34 C33 1_555 1_555
C35 C34 1_555 1_555
H27 C35 1_555 1_555
C36 C35 1_555 1_555
H28 C36 1_555 1_555
C37 C36 1_555 1_555
H29 C37 1_555 1_555
C38 C37 1_555 1_555
H30 C38 1_555 1_555
C39 C34 1_555 1_555
H31 C39 1_555 1_555
C40 C5 1_555 1_555
C41 C40 1_555 1_555
H32 C41 1_555 1_555
C42 C41 1_555 1_555
H33 C42 1_555 1_555
C43 C42 1_555 1_555
H34 C43 1_555 1_555
C44 C43 1_555 1_555
H35 C44 1_555 1_555
C45 C40 1_555 1_555
H36 C45 1_555 1_555
O1 C7 1_555 1_555
O2 C20 1_555 1_555
O3 C33 1_555 1_555
C46 H37 1_555 1_555
C47 C46 1_555 1_555
H38 C47 1_555 1_555
C48 C47 1_555 1_555
H39 C48 1_555 1_555
C49 C48 1_555 1_555
H40 C49 1_555 1_555
C50 C49 1_555 1_555
H41 C50 1_555 1_555
C51 C46 1_555 1_555
H42 C51 1_555 1_555
C52 C51 1_555 1_555
C53 C52 1_555 1_555
C54 C53 1_555 1_555
H43 C54 1_555 1_555
C55 C54 1_555 1_555
H44 C55 1_555 1_555
C56 C55 1_555 1_555
H45 C56 1_555 1_555
C57 C56 1_555 1_555
H46 C57 1_555 1_555
C58 C53 1_555 1_555
H47 C58 1_555 1_555
C59 C46 1_555 1_555
C60 C59 1_555 1_555
H48 C60 1_555 1_555
C61 C60 1_555 1_555
H49 C61 1_555 1_555
C62 C61 1_555 1_555
H50 C62 1_555 1_555
C63 C62 1_555 1_555
H51 C63 1_555 1_555
C64 C59 1_555 1_555
H52 C64 1_555 1_555
C65 C47 1_555 1_555
C66 C65 1_555 1_555
C67 C66 1_555 1_555
H53 C67 1_555 1_555
C68 C67 1_555 1_555
H54 C68 1_555 1_555
C69 C68 1_555 1_555
H55 C69 1_555 1_555
C70 C69 1_555 1_555
H56 C70 1_555 1_555
C71 C66 1_555 1_555
H57 C71 1_555 1_555
C72 C48 1_555 1_555
C73 C72 1_555 1_555
H58 C73 1_555 1_555
C74 C73 1_555 1_555
H59 C74 1_555 1_555
C75 C74 1_555 1_555
H60 C75 1_555 1_555
C76 C75 1_555 1_555
H61 C76 1_555 1_555
C77 C72 1_555 1_555
H62 C77 1_555 1_555
C78 C49 1_555 1_555
C79 C78 1_555 1_555
C80 C79 1_555 1_555
H63 C80 1_555 1_555
C81 C80 1_555 1_555
H64 C81 1_555 1_555
C82 C81 1_555 1_555
H65 C82 1_555 1_555
C83 C82 1_555 1_555
H66 C83 1_555 1_555
C84 C79 1_555 1_555
H67 C84 1_555 1_555
C85 C50 1_555 1_555
C86 C85 1_555 1_555
H68 C86 1_555 1_555
C87 C86 1_555 1_555
H69 C87 1_555 1_555
C88 C87 1_555 1_555
H70 C88 1_555 1_555
C89 C88 1_555 1_555
H71 C89 1_555 1_555
C90 C85 1_555 1_555
H72 C90 1_555 1_555
O4 C78 1_555 1_555
O5 C52 1_555 1_555
O6 C65 1_555 1_555
C5 C6 1_555 1_555
C12 C13 1_555 1_555
C18 C19 1_555 1_555
C25 C26 1_555 1_555
C31 C32 1_555 1_555
C38 C39 1_555 1_555
C44 C45 1_555 1_555
C50 C51 1_555 1_555
C57 C58 1_555 1_555
C63 C64 1_555 1_555
C70 C71 1_555 1_555
C76 C77 1_555 1_555
C83 C84 1_555 1_555
C89 C90 1_555 1_555

#END
