
#######################################################################
#
#                 Cambridge Crystallographic Data Centre
#                                CCDC 
#
#######################################################################
#
# If this CIF has been generated from an entry in the Cambridge 
# Structural Database, then it will include bibliographic, chemical, 
# crystal, experimental, refinement or atomic coordinate data resulting 
# from the CCDC's data processing and validation procedures.
#
#######################################################################

data_WARKOQ
_chemical_compound_source        'Excoecaria agallocha'
_chemical_formula_moiety         'C20 H30 O3'
_chemical_name_systematic        
3\a,11\b-Dihydroxy-ent-isopimara-8(14),15-dien-2-one
_symmetry_cell_setting           monoclinic
_symmetry_space_group_name_H-M   'P 21'
_symmetry_Int_Tables_number      4
_space_group_name_Hall           'P 2yb'
loop_
_symmetry_equiv_pos_site_id
_symmetry_equiv_pos_as_xyz
1 x,y,z
2 -x,1/2+y,-z
_cell_length_a                   11.216(2)
_cell_length_b                   6.2200(12)
_cell_length_c                   13.028(3)
_cell_angle_alpha                90
_cell_angle_beta                 95.46(3)
_cell_angle_gamma                90
_cell_volume                     904.755
_exptl_crystal_colour            colorless
_exptl_crystal_description       needles
_chemical_melting_point          174-175deg.C
_cell_formula_units_Z            2
loop_
_atom_site_label
_atom_site_type_symbol
_atom_site_fract_x
_atom_site_fract_y
_atom_site_fract_z
O1 O -0.7156(5) -0.2071(14) -0.5533(5)
O2 O -0.5524(5) -0.4670(15) -0.4808(5)
H1 H -0.5627 -0.5028 -0.5416
O3 O -1.1428(4) -0.3256(11) -0.4385(4)
H2 H -1.1837 -0.4348 -0.4382
C1 C -0.8821(6) -0.3357(15) -0.4421(5)
H3 H -0.9331 -0.2375 -0.4843
H4 H -0.9135 -0.4791 -0.4563
C2 C -0.7534(6) -0.3269(16) -0.4836(6)
C3 C -0.6719(6) -0.4778(17) -0.4329(6)
H5 H -0.7053 -0.6223 -0.4446
C4 C -0.6766(6) -0.4198(16) -0.3155(6)
C5 C -0.8117(6) -0.4244(14) -0.2705(5)
H6 H -0.8415 -0.5706 -0.2845
C6 C -0.8286(7) -0.3851(18) -0.1536(6)
H7 H -0.8111 -0.2348 -0.1390
H8 H -0.7679 -0.4685 -0.1132
C7 C -0.9550(7) -0.4382(19) -0.1108(6)
H9 H -0.9693 -0.5919 -0.1147
H10 H -0.9526 -0.3955 -0.0391
C8 C -1.0492(6) -0.3295(16) -0.1685(5)
C9 C -1.0313(5) -0.3520(14) -0.2848(5)
H11 H -1.0444 -0.5039 -0.3023
C10 C -0.9004(6) -0.2845(12) -0.3267(5)
C11 C -1.1299(6) -0.2348(15) -0.3379(5)
H12 H -1.1047 -0.0849 -0.3441
C12 C -1.2508(6) -0.2370(18) -0.2743(6)
H13 H -1.3146 -0.1670 -0.3174
H14 H -1.2743 -0.3859 -0.2670
C13 C -1.2453(7) -0.1330(17) -0.1670(6)
C14 C -1.1415(7) -0.2319(16) -0.1180(5)
H15 H -1.1332 -0.2328 -0.0463
C15 C -1.3610(9) -0.182(2) -0.1038(7)
H16 H -1.4268 -0.1019 -0.1301
C16 C -1.3873(14) -0.298(3) -0.0299(12)
H17 H -1.3297 -0.3868 0.0040
H18 H -1.4643 -0.2936 -0.0090
C17 C -1.2308(10) 0.1129(19) -0.1751(9)
H19 H -1.1627 0.1448 -0.2119
H20 H -1.2192 0.1736 -0.1072
H21 H -1.3016 0.1731 -0.2114
C18 C -0.6107(7) -0.2095(18) -0.3007(8)
H22 H -0.5343 -0.2209 -0.3278
H23 H -0.5991 -0.1759 -0.2286
H24 H -0.6568 -0.0976 -0.3364
C19 C -0.6064(8) -0.6004(17) -0.2652(8)
H25 H -0.5278 -0.6025 -0.2887
H26 H -0.6462 -0.7339 -0.2826
H27 H -0.5997 -0.5813 -0.1917
C20 C -0.8848(7) -0.0423(14) -0.3107(6)
H28 H -0.8096 0.0019 -0.3333
H29 H -0.8861 -0.0091 -0.2388
H30 H -0.9489 0.0322 -0.3498
loop_
_geom_bond_atom_site_label_1
_geom_bond_atom_site_label_2
_geom_bond_site_symmetry_1
_geom_bond_site_symmetry_2
O1 C2 1_555 1_555
O2 H1 1_555 1_555
O3 H2 1_555 1_555
C1 H3 1_555 1_555
H4 C1 1_555 1_555
C2 C1 1_555 1_555
C3 O2 1_555 1_555
H5 C3 1_555 1_555
C4 C3 1_555 1_555
C5 C4 1_555 1_555
H6 C5 1_555 1_555
C6 C5 1_555 1_555
H7 C6 1_555 1_555
H8 C6 1_555 1_555
C7 C6 1_555 1_555
H9 C7 1_555 1_555
H10 C7 1_555 1_555
C8 C7 1_555 1_555
C9 C8 1_555 1_555
H11 C9 1_555 1_555
C10 C1 1_555 1_555
C11 O3 1_555 1_555
H12 C11 1_555 1_555
C12 C11 1_555 1_555
H13 C12 1_555 1_555
H14 C12 1_555 1_555
C13 C12 1_555 1_555
C14 C8 1_555 1_555
H15 C14 1_555 1_555
C15 C13 1_555 1_555
H16 C15 1_555 1_555
C16 C15 1_555 1_555
H17 C16 1_555 1_555
H18 C16 1_555 1_555
C17 C13 1_555 1_555
H19 C17 1_555 1_555
H20 C17 1_555 1_555
H21 C17 1_555 1_555
C18 C4 1_555 1_555
H22 C18 1_555 1_555
H23 C18 1_555 1_555
H24 C18 1_555 1_555
C19 C4 1_555 1_555
H25 C19 1_555 1_555
H26 C19 1_555 1_555
H27 C19 1_555 1_555
C20 C10 1_555 1_555
H28 C20 1_555 1_555
H29 C20 1_555 1_555
H30 C20 1_555 1_555
C2 C3 1_555 1_555
C5 C10 1_555 1_555
C9 C10 1_555 1_555
C9 C11 1_555 1_555
C13 C14 1_555 1_555

#END
