
#######################################################################
#
#                 Cambridge Crystallographic Data Centre
#                                CCDC 
#
#######################################################################
#
# If this CIF has been generated from an entry in the Cambridge 
# Structural Database, then it will include bibliographic, chemical, 
# crystal, experimental, refinement or atomic coordinate data resulting 
# from the CCDC's data processing and validation procedures.
#
#######################################################################

data_WARPIP
_chemical_formula_moiety         '2(C12 H8 N6),C9 H6 O6'
_chemical_name_systematic        
"bis(3,6-bis(3'-Pyridyl)-1,2,4,5-tetrazine) trimesic acid"
_symmetry_cell_setting           monoclinic
_symmetry_space_group_name_H-M   'C 2/c'
_symmetry_Int_Tables_number      15
_space_group_name_Hall           '-C 2yn'
loop_
_symmetry_equiv_pos_site_id
_symmetry_equiv_pos_as_xyz
1 x,y,z
2 1/2+x,1/2+y,z
3 -x,y,1/2-z
4 1/2-x,1/2+y,1/2-z
5 -x,-y,-z
6 1/2-x,1/2-y,-z
7 x,-y,1/2+z
8 1/2+x,1/2-y,1/2+z
_cell_length_a                   28.445(3)
_cell_length_b                   6.7088(10)
_cell_length_c                   33.846(4)
_cell_angle_alpha                90
_cell_angle_beta                 108.112(7)
_cell_angle_gamma                90
_cell_volume                     6138.86
_exptl_crystal_colour            brown
_cell_formula_units_Z            8
_exptl_crystal_recrystallization_method methanol
loop_
_atom_site_label
_atom_site_type_symbol
_atom_site_fract_x
_atom_site_fract_y
_atom_site_fract_z
O1 O 0.2320(2) -0.8847(11) 0.04384(19)
O2 O 0.1866(2) -0.6087(10) 0.02444(18)
O3 O 0.1921(3) -0.1144(10) 0.1320(2)
H1 H 0.183(2) 0.012(9) 0.1396(18)
O4 O 0.2485(2) -0.1224(9) 0.19448(19)
O5 O 0.3582(2) -0.7238(9) 0.22899(16)
O6 O 0.3533(2) -0.9461(11) 0.17791(19)
H2 H 0.373(2) -0.989(10) 0.1938(18)
C1 C 0.2402(3) -0.6354(14) 0.0938(3)
C2 C 0.2258(3) -0.4560(13) 0.1061(3)
H3 H 0.2017 -0.3813 0.0870
C3 C 0.2462(3) -0.3840(14) 0.1458(3)
C4 C 0.2833(3) -0.4923(14) 0.1746(2)
H4 H 0.2973 -0.4442 0.2015
C5 C 0.2988(3) -0.6702(13) 0.1630(2)
C6 C 0.2767(3) -0.7452(13) 0.1224(2)
H5 H 0.2866 -0.8678 0.1149
C7 C 0.2153(4) -0.7069(18) 0.0505(3)
C8 C 0.2297(4) -0.1950(16) 0.1599(3)
C9 C 0.3400(4) -0.7830(15) 0.1938(3)
H6 H 0.214(3) -0.945(12) 0.019(2)
C10 C 0.1509(3) -0.8934(14) -0.0570(3)
H7 H 0.1466 -0.7675 -0.0471
N1 N 0.1840(3) -1.0170(13) -0.0317(2)
C11 C 0.1890(3) -1.1974(15) -0.0466(3)
H8 H 0.2112 -1.2857 -0.0292
C12 C 0.1637(3) -1.2601(14) -0.0855(2)
H9 H 0.1684 -1.3873 -0.0945
C13 C 0.1304(3) -1.1285(14) -0.1117(2)
H10 H 0.1134 -1.1653 -0.1389
C14 C 0.1226(3) -0.9449(15) -0.0973(3)
C15 C 0.0866(3) -0.8002(15) -0.1221(2)
N2 N 0.0633(3) -0.8616(11) -0.1624(2)
N3 N 0.0293(3) -0.7388(12) -0.1853(2)
C16 C 0.0221(3) -0.5673(15) -0.1684(3)
N4 N 0.0451(3) -0.5093(11) -0.1288(2)
N5 N 0.0786(3) -0.6315(13) -0.1055(2)
C17 C -0.0155(3) -0.4337(13) -0.1947(3)
C18 C -0.0467(3) -0.4932(13) -0.2335(2)
H11 H -0.0435 -0.6228 -0.2421
N6 N -0.0804(3) -0.3770(13) -0.2589(2)
C19 C -0.0846(3) -0.1884(15) -0.2473(3)
H12 H -0.1065 -0.1031 -0.2658
C20 C -0.0570(3) -0.1177(14) -0.2087(3)
H13 H -0.0619 0.0115 -0.2009
C21 C -0.0220(3) -0.2387(15) -0.1816(2)
H14 H -0.0033 -0.1928 -0.1555
C22 C -0.0616(4) 0.8528(17) -0.0070(3)
H15 H -0.0537 0.7242 -0.0129
N7 N -0.0956(4) 0.9530(17) -0.0363(3)
C23 C -0.1064(4) 1.132(2) -0.0273(4)
H16 H -0.1312 1.1999 -0.0473
C24 C -0.0839(4) 1.2304(18) 0.0097(3)
H17 H -0.0927 1.3603 0.0140
C25 C -0.0476(3) 1.1280(16) 0.0403(3)
H18 H -0.0307 1.1888 0.0654
C26 C -0.0373(3) 0.9318(16) 0.0322(3)
C27 C 0.0012(4) 0.8142(16) 0.0629(3)
N8 N 0.0202(3) 0.8908(13) 0.1011(2)
N9 N 0.0567(3) 0.7903(13) 0.1282(2)
C28 C 0.0693(3) 0.6168(16) 0.1144(3)
N10 N 0.0472(3) 0.5313(12) 0.0776(2)
N11 N 0.0111(3) 0.6323(14) 0.0511(2)
C29 C 0.1106(3) 0.5036(15) 0.1429(3)
C30 C 0.1350(3) 0.5758(14) 0.1832(3)
H19 H 0.1263 0.6982 0.1918
C31 C 0.1724(3) 0.4609(15) 0.2098(3)
H20 H 0.1885 0.5041 0.2368
C32 C 0.1851(4) 0.2811(16) 0.1956(3)
H21 H 0.2103 0.2051 0.2132
N12 N 0.1622(3) 0.2145(12) 0.1574(2)
C33 C 0.1260(3) 0.3211(15) 0.1325(3)
H22 H 0.1099 0.2702 0.1062
loop_
_geom_bond_atom_site_label_1
_geom_bond_atom_site_label_2
_geom_bond_site_symmetry_1
_geom_bond_site_symmetry_2
O1 C7 1_555 1_555
O2 C7 1_555 1_555
O3 H1 1_555 1_555
O4 C8 1_555 1_555
O5 C9 1_555 1_555
O6 H2 1_555 1_555
C1 C2 1_555 1_555
C2 H3 1_555 1_555
C3 C2 1_555 1_555
C4 C3 1_555 1_555
H4 C4 1_555 1_555
C5 C4 1_555 1_555
C6 C1 1_555 1_555
H5 C6 1_555 1_555
C7 C1 1_555 1_555
C8 O3 1_555 1_555
C9 O6 1_555 1_555
H6 O1 1_555 1_555
C10 H7 1_555 1_555
N1 C10 1_555 1_555
C11 N1 1_555 1_555
H8 C11 1_555 1_555
C12 C11 1_555 1_555
H9 C12 1_555 1_555
C13 C12 1_555 1_555
H10 C13 1_555 1_555
C14 C10 1_555 1_555
C15 C14 1_555 1_555
N2 C15 1_555 1_555
N3 N2 1_555 1_555
C16 N3 1_555 1_555
N4 C16 1_555 1_555
N5 C15 1_555 1_555
C17 C16 1_555 1_555
C18 C17 1_555 1_555
H11 C18 1_555 1_555
N6 C18 1_555 1_555
C19 N6 1_555 1_555
H12 C19 1_555 1_555
C20 C19 1_555 1_555
H13 C20 1_555 1_555
C21 C17 1_555 1_555
H14 C21 1_555 1_555
C22 H15 1_555 1_555
N7 C22 1_555 1_555
C23 N7 1_555 1_555
H16 C23 1_555 1_555
C24 C23 1_555 1_555
H17 C24 1_555 1_555
C25 C24 1_555 1_555
H18 C25 1_555 1_555
C26 C22 1_555 1_555
C27 C26 1_555 1_555
N8 C27 1_555 1_555
N9 N8 1_555 1_555
C28 N9 1_555 1_555
N10 C28 1_555 1_555
N11 C27 1_555 1_555
C29 C28 1_555 1_555
C30 C29 1_555 1_555
H19 C30 1_555 1_555
C31 C30 1_555 1_555
H20 C31 1_555 1_555
C32 C31 1_555 1_555
H21 C32 1_555 1_555
N12 C32 1_555 1_555
C33 C29 1_555 1_555
H22 C33 1_555 1_555
C3 C8 1_555 1_555
C5 C6 1_555 1_555
C5 C9 1_555 1_555
C13 C14 1_555 1_555
N4 N5 1_555 1_555
C20 C21 1_555 1_555
C25 C26 1_555 1_555
N10 N11 1_555 1_555
N12 C33 1_555 1_555

#END
