
#######################################################################
#
#                 Cambridge Crystallographic Data Centre
#                                CCDC 
#
#######################################################################
#
# If this CIF has been generated from an entry in the Cambridge 
# Structural Database, then it will include bibliographic, chemical, 
# crystal, experimental, refinement or atomic coordinate data resulting 
# from the CCDC's data processing and validation procedures.
#
#######################################################################

data_WARRIT
_chemical_formula_moiety         'C26 H29 N1'
_chemical_name_systematic        9-benzyl-1-butyl-2,3,4-trimethyl-9H-carbazole
_symmetry_cell_setting           triclinic
_symmetry_space_group_name_H-M   'P -1'
_symmetry_Int_Tables_number      2
_space_group_name_Hall           '-P 1'
loop_
_symmetry_equiv_pos_site_id
_symmetry_equiv_pos_as_xyz
1 x,y,z
2 -x,-y,-z
_cell_length_a                   8.9286(13)
_cell_length_b                   12.8700(11)
_cell_length_c                   17.6090(15)
_cell_angle_alpha                87.421(7)
_cell_angle_beta                 81.658(9)
_cell_angle_gamma                86.987(9)
_cell_volume                     1997.86
_exptl_crystal_colour            yellow
_exptl_crystal_description       block
_cell_formula_units_Z            4
loop_
_atom_site_label
_atom_site_type_symbol
_atom_site_fract_x
_atom_site_fract_y
_atom_site_fract_z
N1 N 0.5882(5) 0.7203(3) 0.2722(2)
C1 C 0.5128(6) 0.8143(4) 0.2913(3)
C2 C 0.4590(6) 0.8897(4) 0.2412(4)
H1 H 0.4733 0.8816 0.1872
C3 C 0.3828(7) 0.9778(5) 0.2746(4)
H2 H 0.3448 1.0314 0.2426
C4 C 0.3616(7) 0.9885(5) 0.3538(4)
H3 H 0.3075 1.0485 0.3749
C5 C 0.4181(7) 0.9129(4) 0.4029(4)
H4 H 0.4038 0.9214 0.4568
C6 C 0.4963(6) 0.8243(4) 0.3713(3)
C7 C 0.5661(6) 0.7299(4) 0.4023(3)
C8 C 0.6171(6) 0.6657(4) 0.3397(3)
C9 C 0.6797(6) 0.5644(4) 0.3508(3)
C10 C 0.7010(6) 0.5342(4) 0.4262(3)
C11 C 0.6575(6) 0.5992(5) 0.4888(3)
C12 C 0.5872(6) 0.6969(5) 0.4770(3)
C13 C 0.6267(6) 0.6922(5) 0.1926(3)
H5 H 0.7170 0.6436 0.1881
H6 H 0.6541 0.7556 0.1608
C14 C 0.5002(6) 0.6416(4) 0.1607(3)
C15 C 0.5033(7) 0.6392(5) 0.0814(3)
H7 H 0.5818 0.6716 0.0478
C16 C 0.3914(8) 0.5894(5) 0.0515(4)
H8 H 0.3927 0.5888 -0.0025
C17 C 0.2789(7) 0.5411(5) 0.0998(4)
H9 H 0.2040 0.5061 0.0790
C18 C 0.2742(7) 0.5432(5) 0.1783(4)
H10 H 0.1959 0.5100 0.2114
C19 C 0.3836(6) 0.5937(5) 0.2092(3)
H11 H 0.3792 0.5958 0.2633
C20 C 0.7136(6) 0.4884(4) 0.2867(3)
H12 H 0.6506 0.5100 0.2464
H13 H 0.6818 0.4189 0.3074
C21 C 0.8792(6) 0.4777(5) 0.2491(3)
H14 H 0.9126 0.5472 0.2292
H15 H 0.9426 0.4535 0.2887
C22 C 0.9055(7) 0.4023(5) 0.1833(3)
H16 H 0.8586 0.3359 0.2012
H17 H 1.0158 0.3874 0.1697
C23 C 0.8407(9) 0.4435(6) 0.1113(4)
H18 H 0.8625 0.3921 0.0713
H19 H 0.8874 0.5089 0.0928
H20 H 0.7309 0.4559 0.1238
C24 C 0.7749(8) 0.4284(5) 0.4425(4)
H21 H 0.7889 0.3883 0.3958
H22 H 0.7099 0.3912 0.4833
H23 H 0.8736 0.4375 0.4588
C25 C 0.6842(8) 0.5594(6) 0.5679(4)
H24 H 0.6494 0.6128 0.6052
H25 H 0.7926 0.5431 0.5680
H26 H 0.6278 0.4963 0.5819
C26 C 0.5318(8) 0.7698(6) 0.5419(4)
H27 H 0.4208 0.7736 0.5507
H28 H 0.5690 0.8394 0.5279
H29 H 0.5700 0.7433 0.5888
N2 N 0.7724(5) 0.0533(3) 0.2151(2)
C27 C 0.6710(6) 0.1304(4) 0.1938(3)
C28 C 0.5967(7) 0.2087(4) 0.2385(3)
H30 H 0.6144 0.2157 0.2899
C29 C 0.4958(7) 0.2764(5) 0.2059(4)
H31 H 0.4433 0.3305 0.2354
C30 C 0.4706(7) 0.2664(5) 0.1308(4)
H32 H 0.4005 0.3136 0.1099
C31 C 0.5455(7) 0.1887(4) 0.0855(4)
H33 H 0.5278 0.1832 0.0339
C32 C 0.6473(6) 0.1187(4) 0.1169(3)
C33 C 0.7405(6) 0.0268(4) 0.0905(3)
C34 C 0.8154(6) -0.0111(4) 0.1527(3)
C35 C 0.9220(6) -0.0952(4) 0.1456(3)
C36 C 0.9391(7) -0.1467(4) 0.0763(3)
C37 C 0.8590(6) -0.1124(4) 0.0145(3)
C38 C 0.7648(6) -0.0236(4) 0.0201(3)
C39 C 0.7760(7) 0.0263(4) 0.2967(3)
H34 H 0.8069 -0.0484 0.3019
H35 H 0.6720 0.0359 0.3247
C40 C 0.8807(6) 0.0886(4) 0.3345(3)
C41 C 0.9816(7) 0.1572(5) 0.2955(3)
H36 H 0.9906 0.1653 0.2412
C42 C 1.0702(7) 0.2147(5) 0.3360(4)
H37 H 1.1382 0.2624 0.3089
C43 C 1.0604(8) 0.2032(5) 0.4144(4)
H38 H 1.1207 0.2428 0.4415
C44 C 0.9627(8) 0.1342(6) 0.4528(4)
H39 H 0.9563 0.1252 0.5070
C45 C 0.8727(8) 0.0770(5) 0.4141(3)
H40 H 0.8051 0.0296 0.4419
C46 C 1.0228(6) -0.1213(4) 0.2067(3)
H41 H 1.0246 -0.0587 0.2373
H42 H 1.1273 -0.1355 0.1806
C47 C 0.9802(7) -0.2133(4) 0.2624(3)
H43 H 0.8726 -0.2039 0.2854
H44 H 0.9918 -0.2784 0.2338
C48 C 1.0788(7) -0.2225(5) 0.3259(3)
H45 H 1.0645 -0.1578 0.3550
H46 H 1.1865 -0.2288 0.3024
C49 C 1.0444(9) -0.3154(5) 0.3816(4)
H47 H 1.0674 -0.3801 0.3541
H48 H 0.9370 -0.3114 0.4035
H49 H 1.1067 -0.3143 0.4230
C50 C 1.0473(7) -0.2409(5) 0.0653(4)
H50 H 1.1051 -0.2493 0.1086
H51 H 1.1171 -0.2314 0.0174
H52 H 0.9898 -0.3032 0.0627
C51 C 0.8897(8) -0.1727(5) -0.0583(4)
H53 H 0.8199 -0.1469 -0.0937
H54 H 0.8749 -0.2468 -0.0458
H55 H 0.9944 -0.1636 -0.0826
C52 C 0.6959(7) 0.0231(5) -0.0474(3)
H56 H 0.7578 0.0016 -0.0952
H57 H 0.6918 0.0992 -0.0455
H58 H 0.5930 -0.0010 -0.0454
loop_
_geom_bond_atom_site_label_1
_geom_bond_atom_site_label_2
_geom_bond_site_symmetry_1
_geom_bond_site_symmetry_2
N1 C1 1_555 1_555
C1 C2 1_555 1_555
C2 H1 1_555 1_555
C3 C2 1_555 1_555
H2 C3 1_555 1_555
C4 C3 1_555 1_555
H3 C4 1_555 1_555
C5 C4 1_555 1_555
H4 C5 1_555 1_555
C6 C1 1_555 1_555
C7 C6 1_555 1_555
C8 N1 1_555 1_555
C9 C8 1_555 1_555
C10 C9 1_555 1_555
C11 C10 1_555 1_555
C12 C7 1_555 1_555
C13 N1 1_555 1_555
H5 C13 1_555 1_555
H6 C13 1_555 1_555
C14 C13 1_555 1_555
C15 C14 1_555 1_555
H7 C15 1_555 1_555
C16 C15 1_555 1_555
H8 C16 1_555 1_555
C17 C16 1_555 1_555
H9 C17 1_555 1_555
C18 C17 1_555 1_555
H10 C18 1_555 1_555
C19 C14 1_555 1_555
H11 C19 1_555 1_555
C20 C9 1_555 1_555
H12 C20 1_555 1_555
H13 C20 1_555 1_555
C21 C20 1_555 1_555
H14 C21 1_555 1_555
H15 C21 1_555 1_555
C22 C21 1_555 1_555
H16 C22 1_555 1_555
H17 C22 1_555 1_555
C23 C22 1_555 1_555
H18 C23 1_555 1_555
H19 C23 1_555 1_555
H20 C23 1_555 1_555
C24 C10 1_555 1_555
H21 C24 1_555 1_555
H22 C24 1_555 1_555
H23 C24 1_555 1_555
C25 C11 1_555 1_555
H24 C25 1_555 1_555
H25 C25 1_555 1_555
H26 C25 1_555 1_555
C26 C12 1_555 1_555
H27 C26 1_555 1_555
H28 C26 1_555 1_555
H29 C26 1_555 1_555
N2 C27 1_555 1_555
C27 C28 1_555 1_555
C28 H30 1_555 1_555
C29 C28 1_555 1_555
H31 C29 1_555 1_555
C30 C29 1_555 1_555
H32 C30 1_555 1_555
C31 C30 1_555 1_555
H33 C31 1_555 1_555
C32 C27 1_555 1_555
C33 C32 1_555 1_555
C34 N2 1_555 1_555
C35 C34 1_555 1_555
C36 C35 1_555 1_555
C37 C36 1_555 1_555
C38 C33 1_555 1_555
C39 N2 1_555 1_555
H34 C39 1_555 1_555
H35 C39 1_555 1_555
C40 C39 1_555 1_555
C41 C40 1_555 1_555
H36 C41 1_555 1_555
C42 C41 1_555 1_555
H37 C42 1_555 1_555
C43 C42 1_555 1_555
H38 C43 1_555 1_555
C44 C43 1_555 1_555
H39 C44 1_555 1_555
C45 C40 1_555 1_555
H40 C45 1_555 1_555
C46 C35 1_555 1_555
H41 C46 1_555 1_555
H42 C46 1_555 1_555
C47 C46 1_555 1_555
H43 C47 1_555 1_555
H44 C47 1_555 1_555
C48 C47 1_555 1_555
H45 C48 1_555 1_555
H46 C48 1_555 1_555
C49 C48 1_555 1_555
H47 C49 1_555 1_555
H48 C49 1_555 1_555
H49 C49 1_555 1_555
C50 C36 1_555 1_555
H50 C50 1_555 1_555
H51 C50 1_555 1_555
H52 C50 1_555 1_555
C51 C37 1_555 1_555
H53 C51 1_555 1_555
H54 C51 1_555 1_555
H55 C51 1_555 1_555
C52 C38 1_555 1_555
H56 C52 1_555 1_555
H57 C52 1_555 1_555
H58 C52 1_555 1_555
C5 C6 1_555 1_555
C7 C8 1_555 1_555
C11 C12 1_555 1_555
C18 C19 1_555 1_555
C31 C32 1_555 1_555
C33 C34 1_555 1_555
C37 C38 1_555 1_555
C44 C45 1_555 1_555

#END
