
#######################################################################
#
#                 Cambridge Crystallographic Data Centre
#                                CCDC 
#
#######################################################################
#
# If this CIF has been generated from an entry in the Cambridge 
# Structural Database, then it will include bibliographic, chemical, 
# crystal, experimental, refinement or atomic coordinate data resulting 
# from the CCDC's data processing and validation procedures.
#
#######################################################################

data_WARTUF
_chemical_formula_moiety         'C18 H10 Cl2 O2,C8 H17 N1'
_chemical_name_systematic        
'1,5-dichloro-trans-9,10-diethynyl-9,10-dihydroxy-9,10-dihydroanthracene cyclo-octylamine solvate'
_symmetry_cell_setting           triclinic
_symmetry_space_group_name_H-M   'P -1'
_symmetry_Int_Tables_number      2
_space_group_name_Hall           '-P 1'
loop_
_symmetry_equiv_pos_site_id
_symmetry_equiv_pos_as_xyz
1 x,y,z
2 -x,-y,-z
_cell_length_a                   10.2504(3)
_cell_length_b                   10.3633(3)
_cell_length_c                   12.7980(4)
_cell_angle_alpha                67.2560(10)
_cell_angle_beta                 71.8000(10)
_cell_angle_gamma                68.2570(10)
_cell_volume                     1141.67
_exptl_crystal_colour            colorless
_exptl_crystal_description       Prism
_cell_formula_units_Z            2
_exptl_crystal_recrystallization_method acetone/cyclooctylamine
loop_
_atom_site_label
_atom_site_type_symbol
_atom_site_fract_x
_atom_site_fract_y
_atom_site_fract_z
Cl1 Cl 0.13941(6) 0.40146(7) 0.72399(6)
O1 O 0.23814(17) 0.66576(18) 0.55285(15)
C1 C 0.5569(2) 0.3810(2) 0.59610(19)
C2 C 0.4088(2) 0.4262(2) 0.6030(2)
C3 C 0.2598(2) 0.4964(2) 0.4611(2)
C4 C 0.3382(2) 0.5515(2) 0.5072(2)
C5 C 0.6183(3) 0.2672(3) 0.6858(2)
C6 C 0.3258(2) 0.3536(2) 0.7038(2)
C7 C 0.3873(3) 0.2416(3) 0.7930(2)
C10 C 0.5354(3) 0.1979(3) 0.7832(2)
C12 C 0.2047(3) 0.4512(3) 0.4198(2)
H2 H 0.717(3) 0.238(3) 0.680(2)
H5 H 0.328(3) 0.197(3) 0.859(2)
H6 H 0.575(3) 0.123(3) 0.848(3)
H7 H 0.278(3) 0.693(3) 0.578(3)
H8 H 0.160(3) 0.414(3) 0.396(3)
Cl1A Cl 0.86059(6) 0.59854(7) 0.27601(6)
O1A O 0.76186(17) 0.33424(18) 0.44715(15)
C1A C 0.4431(2) 0.6190(2) 0.40390(19)
C2A C 0.5912(2) 0.5738(2) 0.3970(2)
C3A C 0.7402(2) 0.5036(2) 0.5389(2)
C4A C 0.6618(2) 0.4485(2) 0.4928(2)
C5A C 0.3817(3) 0.7328(3) 0.3142(2)
C6A C 0.6742(2) 0.6464(2) 0.2962(2)
C7A C 0.6127(3) 0.7584(3) 0.2070(2)
C10A C 0.4646(3) 0.8021(3) 0.2168(2)
C12A C 0.7953(3) 0.5488(3) 0.5802(2)
H2A H 0.283(3) 0.762(3) 0.320(2)
H5A H 0.672(3) 0.803(3) 0.141(2)
H6A H 0.425(3) 0.877(3) 0.152(3)
H7A H 0.722(3) 0.307(3) 0.422(3)
H8A H 0.840(3) 0.586(3) 0.604(3)
N1 N 0.6234(3) 0.2531(3) 0.34623(18)
C8 C 0.6108(3) 0.3515(3) 0.2268(2)
C9 C 0.5961(3) 0.1665(3) 0.1405(3)
C11 C 0.7605(3) 0.3599(3) 0.1588(2)
C13 C 0.5262(3) 0.3098(3) 0.1706(2)
C14 C 0.7210(3) 0.1595(3) 0.0389(3)
C15 C 0.7222(4) 0.2994(3) -0.0618(3)
C16 C 0.7643(4) 0.4641(3) 0.0344(3)
C17 C 0.8093(4) 0.3913(4) -0.0630(3)
H11 H 0.825(3) 0.255(3) 0.158(2)
H12 H 0.555(3) 0.460(3) 0.230(2)
H13 H 0.641(4) 0.094(4) 0.208(3)
H14 H 0.819(3) 0.125(3) 0.064(3)
H15 H 0.425(3) 0.304(3) 0.228(3)
H16 H 0.500(3) 0.401(3) 0.095(3)
H17 H 0.534(4) 0.253(3) 0.385(3)
H18 H 0.671(3) 0.167(4) 0.347(3)
H19 H 0.720(3) 0.085(3) 0.006(3)
H20 H 0.829(4) 0.510(4) 0.021(3)
H21 H 0.808(3) 0.393(3) 0.200(3)
H22 H 0.618(4) 0.361(4) -0.066(3)
H23 H 0.524(4) 0.131(4) 0.123(3)
H24 H 0.767(4) 0.274(4) -0.139(3)
H25 H 0.663(5) 0.542(5) 0.031(3)
H26 H 0.813(4) 0.469(4) -0.136(3)
H27 H 0.911(5) 0.337(5) -0.044(4)
Cl2 Cl 1.19174(6) 0.18962(7) 0.16911(5)
O2 O 1.05016(19) 0.26070(17) 0.39199(15)
C18 C 1.0471(2) 0.0371(2) 0.37323(19)
C19 C 0.9638(2) -0.0600(2) 0.4310(2)
C20 C 1.0515(3) 0.0069(3) 0.1920(2)
C21 C 1.0930(2) 0.1046(2) 0.4379(2)
C22 C 0.9270(3) -0.1240(3) 0.3696(2)
C23 C 1.0891(2) 0.0688(2) 0.2524(2)
C24 C 1.3786(3) 0.0109(3) 0.4091(2)
C25 C 1.2525(2) 0.0567(2) 0.4198(2)
C26 C 0.9704(3) -0.0910(3) 0.2513(2)
H1 H 0.869(3) -0.190(3) 0.411(2)
H3 H 1.076(3) 0.036(3) 0.113(3)
H4 H 0.943(3) -0.132(3) 0.210(2)
H9 H 0.968(3) 0.285(3) 0.404(3)
H10 H 1.473(4) -0.025(4) 0.399(3)
Cl2A Cl 0.80826(6) -0.18962(7) 0.83089(5)
O2A O 0.94984(19) -0.26070(17) 0.60801(15)
C18A C 0.9529(2) -0.0371(2) 0.62677(19)
C19A C 1.0362(2) 0.0600(2) 0.5690(2)
C20A C 0.9485(3) -0.0069(3) 0.8080(2)
C21A C 0.9070(2) -0.1046(2) 0.5621(2)
C22A C 1.0730(3) 0.1240(3) 0.6304(2)
C23A C 0.9109(2) -0.0688(2) 0.7476(2)
C24A C 0.6214(3) -0.0109(3) 0.5909(2)
C25A C 0.7475(2) -0.0567(2) 0.5802(2)
C26A C 1.0296(3) 0.0910(3) 0.7487(2)
H1A H 1.131(3) 0.190(3) 0.589(2)
H3A H 0.924(3) -0.036(3) 0.887(3)
H4A H 1.057(3) 0.132(3) 0.790(2)
H9A H 1.032(3) -0.285(3) 0.596(3)
H10A H 0.527(4) 0.025(4) 0.601(3)
loop_
_geom_bond_atom_site_label_1
_geom_bond_atom_site_label_2
_geom_bond_site_symmetry_1
_geom_bond_site_symmetry_2
Cl1 C6 1_555 1_555
O1 C4 1_555 1_555
C1 C2 1_555 1_555
C2 C4 1_555 1_555
C3 C4 1_555 1_555
C4 C1A 1_555 1_555
C5 C1 1_555 1_555
N1 C8 1_555 1_555
C6 C2 1_555 1_555
C7 C6 1_555 1_555
C8 C11 1_555 1_555
C9 C13 1_555 1_555
C10 C5 1_555 1_555
C11 C16 1_555 1_555
C12 C3 1_555 1_555
C13 C8 1_555 1_555
C14 C9 1_555 1_555
C15 C14 1_555 1_555
C16 C17 1_555 1_555
C17 C15 1_555 1_555
Cl2 C23 1_555 1_555
O2 C21 1_555 1_555
C18 C19 1_555 1_555
C19 C22 1_555 1_555
C20 C23 1_555 1_555
C21 C18 1_555 1_555
C22 C26 1_555 1_555
C23 C18 1_555 1_555
C24 C25 1_555 1_555
C25 C21 1_555 1_555
C26 C20 1_555 1_555
H1 C22 1_555 1_555
H2 C5 1_555 1_555
H3 C20 1_555 1_555
H4 C26 1_555 1_555
H5 C7 1_555 1_555
H6 C10 1_555 1_555
H7 O1 1_555 1_555
H8 C12 1_555 1_555
H9 O2 1_555 1_555
H10 C24 1_555 1_555
H11 C11 1_555 1_555
H12 C8 1_555 1_555
H13 C9 1_555 1_555
H14 C14 1_555 1_555
H15 C13 1_555 1_555
H16 C13 1_555 1_555
H17 N1 1_555 1_555
H18 N1 1_555 1_555
H19 C14 1_555 1_555
H20 C16 1_555 1_555
H21 C11 1_555 1_555
H22 C15 1_555 1_555
H23 C9 1_555 1_555
H24 C15 1_555 1_555
H25 C16 1_555 1_555
H26 C17 1_555 1_555
H27 C17 1_555 1_555
Cl1A C6A 1_555 1_555
O1A C4A 1_555 1_555
C1A C2A 1_555 1_555
C2A C4A 1_555 1_555
C3A C4A 1_555 1_555
C4A C1 1_555 1_555
C5A C1A 1_555 1_555
C6A C2A 1_555 1_555
C7A C6A 1_555 1_555
C10A C5A 1_555 1_555
C12A C3A 1_555 1_555
Cl2A C23A 1_555 1_555
O2A C21A 1_555 1_555
C18A C19A 1_555 1_555
C19A C21 1_555 1_555
C20A C23A 1_555 1_555
C21A C19 1_555 1_555
C22A C19A 1_555 1_555
C23A C18A 1_555 1_555
C24A C25A 1_555 1_555
C25A C21A 1_555 1_555
C26A C20A 1_555 1_555
H1A C22A 1_555 1_555
H2A C5A 1_555 1_555
H3A C20A 1_555 1_555
H4A C26A 1_555 1_555
H5A C7A 1_555 1_555
H6A C10A 1_555 1_555
H7A O1A 1_555 1_555
H8A C12A 1_555 1_555
H9A O2A 1_555 1_555
H10A C24A 1_555 1_555
C7 C10 1_555 1_555
C7A C10A 1_555 1_555
C18A C21A 1_555 1_555
C22A C26A 1_555 1_555

#END
