
#######################################################################
#
#                 Cambridge Crystallographic Data Centre
#                                CCDC 
#
#######################################################################
#
# If this CIF has been generated from an entry in the Cambridge 
# Structural Database, then it will include bibliographic, chemical, 
# crystal, experimental, refinement or atomic coordinate data resulting 
# from the CCDC's data processing and validation procedures.
#
#######################################################################

data_WARVAN
_chemical_formula_moiety         'C18 H10 Cl2 O2,2(C8 H17 N1)'
_chemical_name_systematic        
'1,5-dichloro-trans-9,10-diethynyl-9,10-dihydroxy-9,10-dihydroanthracene cyclo-octylamine solvate'
_symmetry_cell_setting           monoclinic
_symmetry_space_group_name_H-M   'P 21/c'
_symmetry_Int_Tables_number      14
_space_group_name_Hall           '-P 2ybc'
loop_
_symmetry_equiv_pos_site_id
_symmetry_equiv_pos_as_xyz
1 x,y,z
2 -x,1/2+y,1/2-z
3 -x,-y,-z
4 x,1/2-y,1/2+z
_cell_length_a                   14.1447(10)
_cell_length_b                   11.4170(9)
_cell_length_c                   9.5945(7)
_cell_angle_alpha                90
_cell_angle_beta                 91.844(3)
_cell_angle_gamma                90
_cell_volume                     1548.61
_exptl_crystal_colour            colorless
_exptl_crystal_description       Plate
_cell_formula_units_Z            2
_exptl_crystal_recrystallization_method ethanol/cyclooctylamine
loop_
_atom_site_label
_atom_site_type_symbol
_atom_site_fract_x
_atom_site_fract_y
_atom_site_fract_z
Cl1 Cl 0.24259(6) 0.49949(10) 0.68499(10)
O1 O 0.38287(17) 0.3282(2) 0.5504(3)
C1 C 0.4557(2) 0.6076(3) 0.4508(4)
C2 C 0.4439(2) 0.4210(3) 0.5958(3)
C3 C 0.4057(2) 0.5382(3) 0.5414(3)
C4 C 0.4465(2) 0.4211(3) 0.7503(4)
C5 C 0.3140(2) 0.5789(3) 0.5751(4)
C6 C 0.4175(3) 0.7112(4) 0.3951(4)
C7 C 0.2783(3) 0.6821(4) 0.5216(4)
C8 C 0.4528(3) 0.4140(4) 0.8723(5)
C9 C 0.3292(3) 0.7481(4) 0.4317(5)
H1 H 0.441(2) 0.768(3) 0.328(4)
H2 H 0.215(2) 0.703(3) 0.545(4)
H3 H 0.317(3) 0.820(5) 0.397(5)
H4 H 0.455(3) 0.405(4) 0.971(4)
H5 H 0.373(3) 0.333(3) 0.463(4)
Cl1B Cl 0.75741(6) 0.50051(10) 0.31501(10)
O1B O 0.61713(17) 0.6718(2) 0.4496(3)
C1B C 0.5443(2) 0.3924(3) 0.5492(4)
C2B C 0.5561(2) 0.5790(3) 0.4042(3)
C3B C 0.5943(2) 0.4618(3) 0.4586(3)
C4B C 0.5535(2) 0.5789(3) 0.2497(4)
C5B C 0.6860(2) 0.4211(3) 0.4249(4)
C6B C 0.5825(3) 0.2888(4) 0.6049(4)
C7B C 0.7217(3) 0.3179(4) 0.4784(4)
C8B C 0.5472(3) 0.5860(4) 0.1277(5)
C9B C 0.6708(3) 0.2519(4) 0.5683(5)
H1B H 0.559(2) 0.232(3) 0.672(4)
H2B H 0.785(2) 0.297(3) 0.455(4)
H3B H 0.683(3) 0.180(5) 0.603(5)
H4B H 0.545(3) 0.595(4) 0.029(4)
H5B H 0.627(3) 0.667(3) 0.537(4)
N1 N 0.6445(2) 0.6333(3) 0.7243(4)
C10 C 0.7428(3) 0.5913(3) 0.7468(4)
C11 C 0.7564(3) 0.5332(5) 0.8897(5)
C12 C 0.8102(3) 0.6939(4) 0.7209(5)
C13 C 0.8554(3) 0.4953(6) 0.9343(5)
C14 C 0.9450(3) 0.4557(4) 0.7085(5)
H6 H 0.9001 0.4311 0.6328
H7 H 1.0043 0.4115 0.6951
C15 C 0.9055(4) 0.4138(6) 0.8420(7)
C16 C 0.9671(3) 0.5818(5) 0.6833(6)
H8 H 1.0000 0.6106 0.7693
H9 H 1.0143 0.5831 0.6094
C17 C 0.8981(4) 0.6684(5) 0.6457(7)
H10 H 0.8775 0.6504 0.5485
H11 H 0.9329 0.7436 0.6422
H12 H 0.599(2) 0.576(3) 0.755(4)
H13 H 0.750(2) 0.535(3) 0.677(3)
H14 H 0.824(3) 0.726(4) 0.806(4)
H15 H 0.779(3) 0.744(4) 0.660(4)
H16 H 0.857(3) 0.466(4) 1.024(5)
H17 H 0.638(2) 0.684(3) 0.773(4)
H18 H 0.957(3) 0.388(4) 0.887(5)
H19 H 0.873(3) 0.350(4) 0.816(5)
H20 H 0.716(3) 0.468(3) 0.879(4)
H21 H 0.896(3) 0.571(4) 0.947(4)
H22 H 0.725(3) 0.583(5) 0.956(5)
loop_
_geom_bond_atom_site_label_1
_geom_bond_atom_site_label_2
_geom_bond_site_symmetry_1
_geom_bond_site_symmetry_2
Cl1 C5 1_555 1_555
O1 C2 1_555 1_555
C1 C3 1_555 1_555
C2 C3 1_555 1_555
C3 C5 1_555 1_555
C4 C2 1_555 1_555
C5 C7 1_555 1_555
C6 C1 1_555 1_555
C7 C9 1_555 1_555
C8 C4 1_555 1_555
C9 C6 1_555 1_555
H1 C6 1_555 1_555
H2 C7 1_555 1_555
H3 C9 1_555 1_555
H4 C8 1_555 1_555
H5 O1 1_555 1_555
N1 C10 1_555 1_555
C10 C11 1_555 1_555
C11 C13 1_555 1_555
C12 C10 1_555 1_555
C13 C15 1_555 1_555
C14 H6 1_555 1_555
H7 C14 1_555 1_555
C15 C14 1_555 1_555
C16 C14 1_555 1_555
H8 C16 1_555 1_555
H9 C16 1_555 1_555
C17 C12 1_555 1_555
H10 C17 1_555 1_555
H11 C17 1_555 1_555
H12 N1 1_555 1_555
H13 C10 1_555 1_555
H14 C12 1_555 1_555
H15 C12 1_555 1_555
H16 C13 1_555 1_555
H17 N1 1_555 1_555
H18 C15 1_555 1_555
H19 C15 1_555 1_555
H20 C11 1_555 1_555
H21 C13 1_555 1_555
H22 C11 1_555 1_555
Cl1B C5B 1_555 1_555
O1B C2B 1_555 1_555
C1B C2 1_555 1_555
C2B C1 1_555 1_555
C3B C1B 1_555 1_555
C4B C2B 1_555 1_555
C5B C3B 1_555 1_555
C6B C1B 1_555 1_555
C7B C5B 1_555 1_555
C8B C4B 1_555 1_555
C9B C6B 1_555 1_555
H1B C6B 1_555 1_555
H2B C7B 1_555 1_555
H3B C9B 1_555 1_555
H4B C8B 1_555 1_555
H5B O1B 1_555 1_555
C16 C17 1_555 1_555
C2B C3B 1_555 1_555
C7B C9B 1_555 1_555

#END
