
#######################################################################
#
#                 Cambridge Crystallographic Data Centre
#                                CCDC 
#
#######################################################################
#
# If this CIF has been generated from an entry in the Cambridge 
# Structural Database, then it will include bibliographic, chemical, 
# crystal, experimental, refinement or atomic coordinate data resulting 
# from the CCDC's data processing and validation procedures.
#
#######################################################################

data_WARWOB
_chemical_formula_moiety         'C5 H10 N4 O3'
_chemical_name_systematic        N,N-bis(3-Carbamoyl)urea
_symmetry_cell_setting           monoclinic
_symmetry_space_group_name_H-M   'C 2/c'
_symmetry_Int_Tables_number      15
_space_group_name_Hall           '-C 2yn'
loop_
_symmetry_equiv_pos_site_id
_symmetry_equiv_pos_as_xyz
1 x,y,z
2 1/2+x,1/2+y,z
3 -x,y,1/2-z
4 1/2-x,1/2+y,1/2-z
5 -x,-y,-z
6 1/2-x,1/2-y,-z
7 x,-y,1/2+z
8 1/2+x,1/2-y,1/2+z
_cell_length_a                   19.297(4)
_cell_length_b                   4.616(1)
_cell_length_c                   8.705(3)
_cell_angle_alpha                90
_cell_angle_beta                 91.35(2)
_cell_angle_gamma                90
_cell_volume                     775.182
_exptl_crystal_colour            colorless
_chemical_melting_point          228-230deg.C
_cell_formula_units_Z            4
loop_
_atom_site_label
_atom_site_type_symbol
_atom_site_fract_x
_atom_site_fract_y
_atom_site_fract_z
O1 O 1.0000 0.4896(3) 0.2500
O2 O 1.16846(5) 0.2314(3) 0.2957(1)
N1 N 1.04303(6) 0.0661(2) 0.1622(1)
N2 N 1.19528(7) 0.5045(3) 0.0929(2)
C1 C 1.0000 0.2217(3) 0.2500
C2 C 1.09365(6) 0.2074(3) 0.0711(1)
C3 C 1.15577(6) 0.3168(3) 0.1643(1)
H1 H 1.0400 -0.1393 0.1654
H2 H 1.2358 0.5797 0.1431
H3 H 1.1834 0.5641 -0.0088
H4 H 1.1095 0.0737 -0.0032
H5 H 1.0723 0.3676 0.0206
N1B N 0.95697(6) 0.0661(2) 0.3378(1)
C2B C 0.90635(6) 0.2074(3) 0.4289(1)
H1B H 0.9600 -0.1393 0.3346
C3B C 0.84423(6) 0.3168(3) 0.3357(1)
H4B H 0.8905 0.0737 0.5032
H5B H 0.9277 0.3676 0.4794
O2B O 0.83154(5) 0.2314(3) 0.2043(1)
N2B N 0.80472(7) 0.5045(3) 0.4071(2)
H2B H 0.7642 0.5797 0.3569
H3B H 0.8166 0.5641 0.5088
loop_
_geom_bond_atom_site_label_1
_geom_bond_atom_site_label_2
_geom_bond_site_symmetry_1
_geom_bond_site_symmetry_2
O1 C1 1_555 1_555
O2 C3 1_555 1_555
N1 C1 1_555 1_555
N2 C3 1_555 1_555
C1 N1B 1_555 1_555
C2 N1 1_555 1_555
C3 C2 1_555 1_555
H1 N1 1_555 1_555
H2 N2 1_555 1_555
H3 N2 1_555 1_555
H4 C2 1_555 1_555
H5 C2 1_555 1_555
N1B C2B 1_555 1_555
C2B C3B 1_555 1_555
H1B N1B 1_555 1_555
C3B O2B 1_555 1_555
H4B C2B 1_555 1_555
H5B C2B 1_555 1_555
N2B C3B 1_555 1_555
H2B N2B 1_555 1_555
H3B N2B 1_555 1_555

#END
