
#######################################################################
#
#                 Cambridge Crystallographic Data Centre
#                                CCDC 
#
#######################################################################
#
# If this CIF has been generated from an entry in the Cambridge 
# Structural Database, then it will include bibliographic, chemical, 
# crystal, experimental, refinement or atomic coordinate data resulting 
# from the CCDC's data processing and validation procedures.
#
#######################################################################

data_WARWIV
_chemical_formula_moiety         'C9 H18 N4 O3'
_chemical_name_systematic        N,N-bis(3-Carbamoylpropyl)urea
_symmetry_cell_setting           monoclinic
_symmetry_space_group_name_H-M   'C 2/c'
_symmetry_Int_Tables_number      15
_space_group_name_Hall           '-C 2yn'
loop_
_symmetry_equiv_pos_site_id
_symmetry_equiv_pos_as_xyz
1 x,y,z
2 1/2+x,1/2+y,z
3 -x,y,1/2-z
4 1/2-x,1/2+y,1/2-z
5 -x,-y,-z
6 1/2-x,1/2-y,-z
7 x,-y,1/2+z
8 1/2+x,1/2-y,1/2+z
_cell_length_a                   23.908(8)
_cell_length_b                   4.704(3)
_cell_length_c                   9.958(2)
_cell_angle_alpha                90
_cell_angle_beta                 90.30(3)
_cell_angle_gamma                90
_cell_volume                     1119.89
_exptl_crystal_colour            colorless
_chemical_melting_point          196-198deg.C
_cell_formula_units_Z            4
loop_
_atom_site_label
_atom_site_type_symbol
_atom_site_fract_x
_atom_site_fract_y
_atom_site_fract_z
O1 O 0.5000 -0.099(2) 0.7500
O2 O 0.6985(2) 0.012(1) 0.5647(5)
N1 N 0.5336(2) 0.318(1) 0.6693(6)
N2 N 0.7130(3) -0.106(2) 0.3512(8)
C1 C 0.5000 0.162(3) 0.7500
C2 C 0.6429(4) 0.242(2) 0.3963(8)
C3 C 0.5684(3) 0.181(2) 0.5703(8)
C4 C 0.6085(4) 0.382(2) 0.5062(9)
C5 C 0.6866(3) 0.039(2) 0.4437(8)
H1 H 0.528(3) 0.50(2) 0.672(6)
H2 H 0.594(2) 0.01(1) 0.613(5)
H3 H 0.551(3) 0.08(2) 0.498(8)
H4 H 0.617(2) 0.17(1) 0.339(6)
H5 H 0.656(4) 0.41(2) 0.34(1)
H6 H 0.586(2) 0.52(1) 0.454(5)
H7 H 0.624(3) 0.45(2) 0.575(8)
H8 H 0.741(3) -0.24(2) 0.372(7)
H9 H 0.708(2) -0.12(1) 0.269(8)
N1B N 0.4664(2) 0.318(1) 0.8307(6)
C3B C 0.4316(3) 0.181(2) 0.9297(8)
H1B H 0.472(3) 0.50(2) 0.828(6)
C4B C 0.3915(4) 0.382(2) 0.9938(9)
H2B H 0.406(2) 0.01(1) 0.887(5)
H3B H 0.449(3) 0.08(2) 1.002(8)
C2B C 0.3571(4) 0.242(2) 1.1037(8)
H6B H 0.414(2) 0.52(1) 1.046(5)
H7B H 0.376(3) 0.45(2) 0.925(8)
C5B C 0.3134(3) 0.039(2) 1.0563(8)
H4B H 0.383(2) 0.17(1) 1.161(6)
H5B H 0.344(4) 0.41(2) 1.16(1)
O2B O 0.3015(2) 0.012(1) 0.9353(5)
N2B N 0.2870(3) -0.106(2) 1.1488(8)
H8B H 0.259(3) -0.24(2) 1.128(7)
H9B H 0.292(2) -0.12(1) 1.231(8)
loop_
_geom_bond_atom_site_label_1
_geom_bond_atom_site_label_2
_geom_bond_site_symmetry_1
_geom_bond_site_symmetry_2
O1 C1 1_555 1_555
O2 C5 1_555 1_555
N1 C1 1_555 1_555
N2 C5 1_555 1_555
C1 N1B 1_555 1_555
C2 C4 1_555 1_555
C3 N1 1_555 1_555
C4 C3 1_555 1_555
C5 C2 1_555 1_555
H1 N1 1_555 1_555
H2 C3 1_555 1_555
H3 C3 1_555 1_555
H4 C2 1_555 1_555
H5 C2 1_555 1_555
H6 C4 1_555 1_555
H7 C4 1_555 1_555
H8 N2 1_555 1_555
H9 N2 1_555 1_555
N1B C3B 1_555 1_555
C3B C4B 1_555 1_555
H1B N1B 1_555 1_555
C4B C2B 1_555 1_555
H2B C3B 1_555 1_555
H3B C3B 1_555 1_555
C2B C5B 1_555 1_555
H6B C4B 1_555 1_555
H7B C4B 1_555 1_555
C5B O2B 1_555 1_555
H4B C2B 1_555 1_555
H5B C2B 1_555 1_555
N2B C5B 1_555 1_555
H8B N2B 1_555 1_555
H9B N2B 1_555 1_555

#END
