
#######################################################################
#
#                 Cambridge Crystallographic Data Centre
#                                CCDC 
#
#######################################################################
#
# If this CIF has been generated from an entry in the Cambridge 
# Structural Database, then it will include bibliographic, chemical, 
# crystal, experimental, refinement or atomic coordinate data resulting 
# from the CCDC's data processing and validation procedures.
#
#######################################################################

data_WARXAO
_chemical_formula_moiety         'C9 H17 N3 O4'
_chemical_name_systematic        
N-(3-Carboxypropyl)-N'-(3-carbamoylpropyl)urea
_symmetry_cell_setting           monoclinic
_symmetry_space_group_name_H-M   'C 2/c'
_symmetry_Int_Tables_number      15
_space_group_name_Hall           '-C 2yn'
loop_
_symmetry_equiv_pos_site_id
_symmetry_equiv_pos_as_xyz
1 x,y,z
2 1/2+x,1/2+y,z
3 -x,y,1/2-z
4 1/2-x,1/2+y,1/2-z
5 -x,-y,-z
6 1/2-x,1/2-y,-z
7 x,-y,1/2+z
8 1/2+x,1/2-y,1/2+z
_cell_length_a                   9.326
_cell_length_b                   4.625
_cell_length_c                   26.312
_cell_angle_alpha                90
_cell_angle_beta                 97.87
_cell_angle_gamma                90
_cell_volume                     1124.22
_exptl_crystal_colour            colorless
_chemical_melting_point          209-214deg.C
_cell_formula_units_Z            4
loop_
_atom_site_label
_atom_site_type_symbol
_atom_site_fract_x
_atom_site_fract_y
_atom_site_fract_z
C1 C 0.5000 0.471(2) 0.7500
N1 N 0.4092(7) 0.625(1) 0.7161(3)
C2 C 0.3016(8) 0.479(2) 0.6790(3)
O1 O 0.5000 0.201(2) 0.7500
C3 C 0.2104(8) 0.692(2) 0.6445(3)
C4 C 0.1058(8) 0.540(2) 0.6058(3)
C5 C 0.173(1) 0.414(2) 0.5623(4)
O2 O 0.0982(8) 0.213(2) 0.5341(4)
O3 O 0.2941(7) 0.478(2) 0.5537(2)
H1 H 0.4124 0.8315 0.7171
H2 H 0.3530 0.3588 0.6578
H3 H 0.2416 0.3628 0.6965
H4 H 0.1593 0.8104 0.6661
H5 H 0.2725 0.8119 0.6280
H6 H 0.0614 0.3820 0.6221
H7 H 0.0308 0.6688 0.5920
H8 H 0.0047 0.1586 0.5409
H9 H 0.1358 0.1316 0.5052
N1B N 0.5908(7) 0.625(1) 0.7839(3)
C2B C 0.6984(8) 0.479(2) 0.8210(3)
C3B C 0.7896(8) 0.692(2) 0.8555(3)
C4B C 0.8942(8) 0.540(2) 0.8942(3)
C5B C 0.827(1) 0.414(2) 0.9377(4)
O2B O 0.9018(8) 0.213(2) 0.9659(4)
H8B H 0.9953 0.1586 0.9591
H9B H 0.8642 0.1316 0.9948
O3B O 0.7059(7) 0.478(2) 0.9463(2)
H6B H 0.9386 0.3820 0.8779
H7B H 0.9692 0.6688 0.9080
H4B H 0.8407 0.8104 0.8339
H5B H 0.7275 0.8119 0.8720
H2B H 0.6470 0.3588 0.8422
H3B H 0.7584 0.3628 0.8035
H1B H 0.5876 0.8315 0.7829
loop_
_geom_bond_atom_site_label_1
_geom_bond_atom_site_label_2
_geom_bond_site_symmetry_1
_geom_bond_site_symmetry_2
C1 N1 1_555 1_555
N1 C2 1_555 1_555
C2 C3 1_555 1_555
O1 C1 1_555 1_555
C3 C4 1_555 1_555
C4 C5 1_555 1_555
C5 O2 1_555 1_555
O2 H8 1_555 1_555
O3 C5 1_555 1_555
H1 N1 1_555 1_555
H2 C2 1_555 1_555
H3 C2 1_555 1_555
H4 C3 1_555 1_555
H5 C3 1_555 1_555
H6 C4 1_555 1_555
H7 C4 1_555 1_555
H9 O2 1_555 1_555
N1B C1 1_555 1_555
C2B N1B 1_555 1_555
C3B C2B 1_555 1_555
C4B C3B 1_555 1_555
C5B C4B 1_555 1_555
O2B C5B 1_555 1_555
H8B O2B 1_555 1_555
H9B O2B 1_555 1_555
O3B C5B 1_555 1_555
H6B C4B 1_555 1_555
H7B C4B 1_555 1_555
H4B C3B 1_555 1_555
H5B C3B 1_555 1_555
H2B C2B 1_555 1_555
H3B C2B 1_555 1_555
H1B N1B 1_555 1_555

#END
