
#######################################################################
#
#                 Cambridge Crystallographic Data Centre
#                                CCDC 
#
#######################################################################
#
# If this CIF has been generated from an entry in the Cambridge 
# Structural Database, then it will include bibliographic, chemical, 
# crystal, experimental, refinement or atomic coordinate data resulting 
# from the CCDC's data processing and validation procedures.
#
#######################################################################

data_WARXIW
_chemical_formula_moiety         'C6 H11 N3 O4'
_chemical_name_systematic        N-(Carbamoylmethyl)-N'-(2-carboxyethyl)urea
_symmetry_cell_setting           triclinic
_symmetry_space_group_name_H-M   'P -1'
_symmetry_Int_Tables_number      2
_space_group_name_Hall           '-P 1'
loop_
_symmetry_equiv_pos_site_id
_symmetry_equiv_pos_as_xyz
1 x,y,z
2 -x,-y,-z
_cell_length_a                   5.218
_cell_length_b                   8.194
_cell_length_c                   20.323
_cell_angle_alpha                95.48
_cell_angle_beta                 92.28
_cell_angle_gamma                96.32
_cell_volume                     858.596
_exptl_crystal_colour            colorless
_chemical_melting_point          187-188deg.C
_cell_formula_units_Z            4
loop_
_atom_site_label
_atom_site_type_symbol
_atom_site_fract_x
_atom_site_fract_y
_atom_site_fract_z
O1 O -0.1309(8) 0.2153(5) 0.7700(2)
O2 O -0.4451(8) 0.3229(6) 0.9353(2)
O3 O 0.313(1) 0.0334(6) 0.5624(2)
O4 O 0.687(1) 0.1788(6) 0.5462(2)
N1 N 0.0060(9) 0.4711(6) 0.8192(2)
N2 N 0.209(1) 0.3614(6) 0.7293(3)
N3 N -0.013(1) 0.3250(6) 0.9399(3)
C1 C 0.022(1) 0.3436(9) 0.7724(3)
C2 C -0.219(1) 0.4721(7) 0.8585(3)
C3 C -0.233(2) 0.3655(8) 0.9140(3)
C4 C 0.236(1) 0.2327(8) 0.6765(3)
C5 C 0.457(1) 0.2757(8) 0.6366(3)
C6 C 0.476(2) 0.149(1) 0.5780(4)
H1 H 0.1430 0.5582 0.8260
H2 H 0.3285 0.4593 0.7339
H5 H -0.2262 0.5832 0.8767
H6 H -0.3675 0.4384 0.8294
H7 H 0.2588 0.1332 0.6958
H8 H 0.0824 0.2160 0.6489
H9 H 0.4411 0.3792 0.6207
H10 H 0.6116 0.2828 0.6638
H17 H -0.0161 0.2600 0.9764
H18 H 0.1462 0.3610 0.9221
H21 H 0.7207 0.1065 0.5090
O5 O 1.6027(8) 0.2949(6) 0.2312(2)
O6 O 0.930(1) 0.4241(8) 0.4210(3)
O7 O 1.9515(9) 0.1666(6) 0.0627(2)
O8 O 1.232(1) 0.3672(9) 0.4857(4)
N4 N 1.273(1) 0.1309(6) 0.2686(3)
N5 N 1.5030(9) 0.0323(6) 0.1830(2)
N6 N 1.521(1) 0.1669(6) 0.0596(3)
C7 C 1.467(1) 0.160(1) 0.2279(3)
C8 C 1.733(1) 0.0360(8) 0.1460(4)
C9 C 1.739(2) 0.1292(8) 0.0862(4)
C10 C 1.188(2) 0.257(1) 0.3156(4)
C11 C 1.211(2) 0.227(1) 0.3814(5)
C12 C 1.111(2) 0.356(1) 0.4312(4)
H3 H 1.1868 0.0214 0.2666
H4 H 1.3756 -0.0606 0.1757
H11 H 1.8740 0.0829 0.1753
H12 H 1.7582 -0.0755 0.1317
H13 H 1.2915 0.3586 0.3109
H14 H 1.0136 0.2671 0.3050
H15 H 1.1165 0.1229 0.3856
H16 H 1.3894 0.2214 0.3924
H19 H 1.3627 0.1358 0.0793
H20 H 1.5228 0.2246 0.0216
H22 H 1.1755 0.4354 0.5223
loop_
_geom_bond_atom_site_label_1
_geom_bond_atom_site_label_2
_geom_bond_site_symmetry_1
_geom_bond_site_symmetry_2
O1 C1 1_555 1_555
O2 C3 1_555 1_555
O3 C6 1_555 1_555
O4 C6 1_555 1_555
O5 C7 1_555 1_555
O6 C12 1_555 1_555
O7 C9 1_555 1_555
O8 C12 1_555 1_555
N1 C1 1_555 1_555
N2 C1 1_555 1_555
N3 C3 1_555 1_555
N4 C7 1_555 1_555
N5 C7 1_555 1_555
N6 C9 1_555 1_555
C2 N1 1_555 1_555
C3 C2 1_555 1_555
C4 N2 1_555 1_555
C5 C4 1_555 1_555
C6 C5 1_555 1_555
C8 N5 1_555 1_555
C9 C8 1_555 1_555
C10 N4 1_555 1_555
C11 C10 1_555 1_555
C12 C11 1_555 1_555
H1 N1 1_555 1_555
H2 N2 1_555 1_555
H3 N4 1_555 1_555
H4 N5 1_555 1_555
H5 C2 1_555 1_555
H6 C2 1_555 1_555
H7 C4 1_555 1_555
H8 C4 1_555 1_555
H9 C5 1_555 1_555
H10 C5 1_555 1_555
H11 C8 1_555 1_555
H12 C8 1_555 1_555
H13 C10 1_555 1_555
H14 C10 1_555 1_555
H15 C11 1_555 1_555
H16 C11 1_555 1_555
H17 N3 1_555 1_555
H18 N3 1_555 1_555
H19 N6 1_555 1_555
H20 N6 1_555 1_555
H21 O4 1_555 1_555
H22 O8 1_555 1_555

#END
