
#######################################################################
#
#                 Cambridge Crystallographic Data Centre
#                                CCDC 
#
#######################################################################
#
# If this CIF has been generated from an entry in the Cambridge 
# Structural Database, then it will include bibliographic, chemical, 
# crystal, experimental, refinement or atomic coordinate data resulting 
# from the CCDC's data processing and validation procedures.
#
#######################################################################

data_WARYOF
_chemical_formula_moiety         'C10 H10 F1 N1 O3'
_chemical_name_systematic        
4-((4-Fluorophenyl)(hydroxy)methyl)-1,3-oxazolidin-2-one
_symmetry_cell_setting           monoclinic
_symmetry_space_group_name_H-M   'P 21/c'
_symmetry_Int_Tables_number      14
_space_group_name_Hall           '-P 2ybc'
loop_
_symmetry_equiv_pos_site_id
_symmetry_equiv_pos_as_xyz
1 x,y,z
2 -x,1/2+y,1/2-z
3 -x,-y,-z
4 x,1/2-y,1/2+z
_cell_length_a                   16.975(3)
_cell_length_b                   8.9603(13)
_cell_length_c                   6.5590(10)
_cell_angle_alpha                90
_cell_angle_beta                 96.350(3)
_cell_angle_gamma                90
_cell_volume                     991.51
_exptl_crystal_colour            colorless
_exptl_crystal_description       prismatic
_cell_formula_units_Z            4
loop_
_atom_site_label
_atom_site_type_symbol
_atom_site_fract_x
_atom_site_fract_y
_atom_site_fract_z
F1 F 0.50134(9) 0.9439(2) 0.2210(3)
N1 N 0.05348(9) 1.04116(16) 0.2432(3)
O1 O -0.05184(7) 0.88144(14) 0.2632(2)
O2 O 0.06353(7) 0.80382(11) 0.1725(2)
O3 O 0.17395(8) 0.97496(16) 0.5666(2)
H1 H 0.1353 1.0099 0.6145
C1 C 0.01560(11) 0.91117(18) 0.2308(3)
C2 C 0.13783(10) 0.86835(19) 0.1338(3)
H2 H 0.1439 0.8647 -0.0114
H3 H 0.1816 0.8150 0.2086
C3 C 0.13558(10) 1.03038(17) 0.2076(3)
H4 H 0.1462 1.0982 0.0967
C4 C 0.19222(11) 1.06402(19) 0.4002(3)
H5 H 0.1867 1.1693 0.4364
C5 C 0.27680(11) 1.0355(2) 0.3618(3)
C6 C 0.31465(13) 1.1314(3) 0.2414(4)
H6 H 0.2890 1.2179 0.1918
C7 C 0.39050(15) 1.1016(3) 0.1925(5)
H7 H 0.4157 1.1665 0.1101
C8 C 0.42712(14) 0.9751(4) 0.2679(5)
C9 C 0.39306(14) 0.8812(3) 0.3893(5)
H8 H 0.4198 0.7964 0.4410
C10 C 0.31759(12) 0.9116(3) 0.4370(4)
H9 H 0.2938 0.8465 0.5221
H10 H 0.0287(11) 1.123(3) 0.281(4)
loop_
_geom_bond_atom_site_label_1
_geom_bond_atom_site_label_2
_geom_bond_site_symmetry_1
_geom_bond_site_symmetry_2
F1 C8 1_555 1_555
N1 C1 1_555 1_555
O1 C1 1_555 1_555
O2 C1 1_555 1_555
O3 H1 1_555 1_555
C2 O2 1_555 1_555
H2 C2 1_555 1_555
H3 C2 1_555 1_555
C3 N1 1_555 1_555
H4 C3 1_555 1_555
C4 O3 1_555 1_555
H5 C4 1_555 1_555
C5 C4 1_555 1_555
C6 C5 1_555 1_555
H6 C6 1_555 1_555
C7 C6 1_555 1_555
H7 C7 1_555 1_555
C8 C7 1_555 1_555
C9 C8 1_555 1_555
H8 C9 1_555 1_555
C10 C5 1_555 1_555
H9 C10 1_555 1_555
H10 N1 1_555 1_555
C2 C3 1_555 1_555
C3 C4 1_555 1_555
C9 C10 1_555 1_555

#END
