
#######################################################################
#
#                 Cambridge Crystallographic Data Centre
#                                CCDC 
#
#######################################################################
#
# If this CIF has been generated from an entry in the Cambridge 
# Structural Database, then it will include bibliographic, chemical, 
# crystal, experimental, refinement or atomic coordinate data resulting 
# from the CCDC's data processing and validation procedures.
#
#######################################################################

data_WARYET
_chemical_formula_moiety         'C12 H15 N3 O4'
_chemical_name_systematic        
(R,S)-N-(Carbamoylmethyl)-N'-(carboxy(benzyl)methyl)urea
_symmetry_cell_setting           monoclinic
_symmetry_space_group_name_H-M   'C 2/c'
_symmetry_Int_Tables_number      15
_space_group_name_Hall           '-C 2yn'
loop_
_symmetry_equiv_pos_site_id
_symmetry_equiv_pos_as_xyz
1 x,y,z
2 1/2+x,1/2+y,z
3 -x,y,1/2-z
4 1/2-x,1/2+y,1/2-z
5 -x,-y,-z
6 1/2-x,1/2-y,-z
7 x,-y,1/2+z
8 1/2+x,1/2-y,1/2+z
_cell_length_a                   23.228
_cell_length_b                   5.202
_cell_length_c                   21.460
_cell_angle_alpha                90
_cell_angle_beta                 101.72
_cell_angle_gamma                90
_cell_volume                     2539
_exptl_crystal_colour            colorless
_chemical_melting_point          169-170deg.C
_cell_formula_units_Z            8
loop_
_atom_site_label
_atom_site_type_symbol
_atom_site_fract_x
_atom_site_fract_y
_atom_site_fract_z
O1 O 0.57754(8) -0.0035(4) 0.46927(8)
O2 O 0.61032(9) -0.1058(4) 0.6265(1)
O3 O 0.65045(9) 0.2653(4) 0.6074(1)
O4 O 0.45859(9) -0.1538(4) 0.31362(9)
N1 N 0.5554(1) -0.4220(6) 0.4511(1)
N2 N 0.6413(1) -0.3030(5) 0.5189(1)
N3 N 0.5486(1) -0.3161(6) 0.3229(1)
C1 C 0.5901(1) -0.2308(6) 0.4798(1)
C2 C 0.4992(1) -0.3632(7) 0.4114(1)
C3 C 0.5015(1) -0.2686(6) 0.3453(1)
C4 C 0.6774(1) -0.1104(6) 0.5565(1)
C5 C 0.6450(1) 0.0368(6) 0.5992(1)
C6 C 0.7331(1) -0.2414(6) 0.5941(2)
C7 C 0.7763(1) -0.0619(6) 0.6339(1)
C8 C 0.8046(1) 0.1285(6) 0.6063(1)
C9 C 0.8449(1) 0.2870(7) 0.6431(2)
C10 C 0.8582(1) 0.2613(7) 0.7084(2)
C11 C 0.8316(1) 0.0710(7) 0.7361(2)
C12 C 0.7906(1) -0.0882(7) 0.6992(1)
H1 H 0.563(1) -0.570(7) 0.458(1)
H2 H 0.641(1) -0.439(5) 0.534(1)
H3 H 0.480(1) -0.224(6) 0.430(1)
H4 H 0.471(1) -0.497(7) 0.406(1)
H5 H 0.549(1) -0.266(6) 0.282(2)
H6 H 0.578(1) -0.383(6) 0.343(1)
H7 H 0.689(1) 0.012(6) 0.527(1)
H8 H 0.590(1) 0.000(8) 0.651(2)
H9 H 0.750(1) -0.318(6) 0.561(2)
H10 H 0.720(1) -0.373(6) 0.621(1)
H11 H 0.772(1) -0.220(7) 0.717(2)
H12 H 0.842(1) 0.052(7) 0.781(2)
H13 H 0.887(1) 0.368(7) 0.736(2)
H14 H 0.861(1) 0.409(7) 0.623(1)
H15 H 0.795(1) 0.145(6) 0.560(1)
loop_
_geom_bond_atom_site_label_1
_geom_bond_atom_site_label_2
_geom_bond_site_symmetry_1
_geom_bond_site_symmetry_2
O1 C1 1_555 1_555
O2 C5 1_555 1_555
O3 C5 1_555 1_555
O4 C3 1_555 1_555
N1 C1 1_555 1_555
N2 C1 1_555 1_555
N3 C3 1_555 1_555
C2 N1 1_555 1_555
C3 C2 1_555 1_555
C4 N2 1_555 1_555
C5 C4 1_555 1_555
C6 C4 1_555 1_555
C7 C6 1_555 1_555
C8 C7 1_555 1_555
C9 C8 1_555 1_555
C10 C9 1_555 1_555
C11 C10 1_555 1_555
C12 C7 1_555 1_555
H1 N1 1_555 1_555
H2 N2 1_555 1_555
H3 C2 1_555 1_555
H4 C2 1_555 1_555
H5 N3 1_555 1_555
H6 N3 1_555 1_555
H7 C4 1_555 1_555
H8 O2 1_555 1_555
H9 C6 1_555 1_555
H10 C6 1_555 1_555
H11 C12 1_555 1_555
H12 C11 1_555 1_555
H13 C10 1_555 1_555
H14 C9 1_555 1_555
H15 C8 1_555 1_555
C11 C12 1_555 1_555

#END
