
#######################################################################
#
#                 Cambridge Crystallographic Data Centre
#                                CCDC 
#
#######################################################################
#
# If this CIF has been generated from an entry in the Cambridge 
# Structural Database, then it will include bibliographic, chemical, 
# crystal, experimental, refinement or atomic coordinate data resulting 
# from the CCDC's data processing and validation procedures.
#
#######################################################################

data_WARYIX
_chemical_formula_moiety         'C12 H15 N3 O4'
_chemical_name_systematic        
(S)-N-(Carbamoylmethyl)-N'-(carboxy(benzyl)methyl)urea
_symmetry_cell_setting           monoclinic
_symmetry_space_group_name_H-M   'C 2'
_symmetry_Int_Tables_number      5
_space_group_name_Hall           'C 2y'
loop_
_symmetry_equiv_pos_site_id
_symmetry_equiv_pos_as_xyz
1 x,y,z
2 1/2+x,1/2+y,z
3 -x,y,-z
4 1/2-x,1/2+y,-z
_cell_length_a                   29.010
_cell_length_b                   5.104
_cell_length_c                   8.730
_cell_angle_alpha                90
_cell_angle_beta                 94.39
_cell_angle_gamma                90
_cell_volume                     1288.83
_exptl_crystal_colour            colorless
_chemical_melting_point          183-185deg.C
_cell_formula_units_Z            4
loop_
_atom_site_label
_atom_site_type_symbol
_atom_site_fract_x
_atom_site_fract_y
_atom_site_fract_z
O1 O 0.9245(2) 0.3041 0.4771(7)
O2 O 0.9581(2) -0.026(1) 0.0948(7)
O3 O 0.9379(2) 0.807(2) 0.8099(7)
O4 O 0.8746(2) 1.046(2) 0.8094(8)
N1 N 0.9664(2) 0.561(1) 0.3303(7)
N2 N 0.9201(2) 0.753(1) 0.4988(7)
N3 N 0.9173(3) 0.349(2) 0.0717(9)
C1 C 0.9370(2) 0.531(2) 0.4346(8)
C2 C 0.9850(2) 0.334(2) 0.2544(9)
C3 C 0.9521(3) 0.212(2) 0.1349(8)
C4 C 0.8836(2) 0.752(2) 0.5982(8)
C5 C 0.8980(3) 0.885(2) 0.750(1)
C6 C 0.8391(3) 0.877(2) 0.523(1)
C7 C 0.8215(3) 0.745(2) 0.376(1)
C8 C 0.8353(3) 0.828(2) 0.237(1)
C9 C 0.8198(4) 0.706(3) 0.101(1)
C10 C 0.7898(3) 0.495(3) 0.103(1)
C11 C 0.7757(3) 0.416(2) 0.241(1)
C12 C 0.7913(3) 0.534(2) 0.375(1)
H1 H 0.9505 0.8825 0.9051
H2 H 1.0120 0.3861 0.2079
H3 H 0.9930 0.2053 0.3314
H4 H 0.8770 0.5764 0.6205
H5 H 0.8155 0.8673 0.5941
H6 H 0.8447 1.0575 0.5023
H7 H 0.8554 0.9752 0.2335
H8 H 0.8298 0.7674 0.0064
H9 H 0.7797 0.4085 0.0106
H10 H 0.7544 0.2759 0.2445
H11 H 0.7814 0.4702 0.4694
H12 H 0.9755 0.7334 0.3023
H13 H 0.9335 0.9179 0.4761
H14 H 0.9119 0.5259 0.1014
H15 H 0.8954 0.2694 -0.0029
loop_
_geom_bond_atom_site_label_1
_geom_bond_atom_site_label_2
_geom_bond_site_symmetry_1
_geom_bond_site_symmetry_2
O1 C1 1_555 1_555
O2 C3 1_555 1_555
O3 C5 1_555 1_555
O4 C5 1_555 1_555
N1 C1 1_555 1_555
N2 C1 1_555 1_555
N3 C3 1_555 1_555
C2 N1 1_555 1_555
C3 C2 1_555 1_555
C4 N2 1_555 1_555
C5 C4 1_555 1_555
C6 C4 1_555 1_555
C7 C6 1_555 1_555
C8 C7 1_555 1_555
C9 C8 1_555 1_555
C10 C9 1_555 1_555
C11 C10 1_555 1_555
C12 C7 1_555 1_555
H1 O3 1_555 1_555
H2 C2 1_555 1_555
H3 C2 1_555 1_555
H4 C4 1_555 1_555
H5 C6 1_555 1_555
H6 C6 1_555 1_555
H7 C8 1_555 1_555
H8 C9 1_555 1_555
H9 C10 1_555 1_555
H10 C11 1_555 1_555
H11 C12 1_555 1_555
H12 N1 1_555 1_555
H13 N2 1_555 1_555
H14 N3 1_555 1_555
H15 N3 1_555 1_555
C11 C12 1_555 1_555

#END
