
#######################################################################
#
#                 Cambridge Crystallographic Data Centre
#                                CCDC 
#
#######################################################################
#
# If this CIF has been generated from an entry in the Cambridge 
# Structural Database, then it will include bibliographic, chemical, 
# crystal, experimental, refinement or atomic coordinate data resulting 
# from the CCDC's data processing and validation procedures.
#
#######################################################################

data_WASCIE
_chemical_formula_moiety         'C52 H58 N4 P2'
_chemical_name_systematic        
5,22-Diphenyl-5,10,11,11a,12,13,14,15,15a,16,17,22,27,28,28a,29,30,31,32,32a,33,34-docosahydrohexabenzo[b,f,i,m,q,t][1,4,12,15,8,19]tetra-azadiphosphacyclodocosine
_symmetry_cell_setting           monoclinic
_symmetry_space_group_name_H-M   'P 21'
_symmetry_Int_Tables_number      4
_space_group_name_Hall           'P 2yb'
loop_
_symmetry_equiv_pos_site_id
_symmetry_equiv_pos_as_xyz
1 x,y,z
2 -x,1/2+y,-z
_cell_length_a                   16.483(3)
_cell_length_b                   8.8430(17)
_cell_length_c                   16.578(3)
_cell_angle_alpha                90
_cell_angle_beta                 115.978(3)
_cell_angle_gamma                90
_cell_volume                     2172.25
_exptl_crystal_colour            colorless
_exptl_crystal_description       block
_cell_formula_units_Z            2
loop_
_atom_site_label
_atom_site_type_symbol
_atom_site_fract_x
_atom_site_fract_y
_atom_site_fract_z
P1 P 3.04660(5) 1.58397(9) 1.80736(5)
P2 P 3.44316(5) 1.76730(10) 1.70987(6)
N1 N 3.23822(18) 1.4876(3) 1.68944(18)
H1 H 3.2883 1.5404 1.7155
N2 N 3.28481(17) 1.5670(3) 1.55336(17)
H2 H 3.2450 1.6271 1.5588
N3 N 3.16780(17) 1.8096(3) 1.92952(17)
H3 H 3.1704 1.7475 1.8892
N4 N 3.32621(17) 1.8382(3) 1.90908(17)
H4 H 3.3399 1.7772 1.9551
C1 C 3.2245(2) 1.3790(4) 1.6179(2)
H5 H 3.1626 1.3959 1.5688
C2 C 3.2305(2) 1.2155(4) 1.6466(2)
H6 H 3.1861 1.1966 1.6707
H7 H 3.2915 1.1954 1.6951
C3 C 3.2122(3) 1.1086(5) 1.5690(3)
H8 H 3.2206 1.0030 1.5909
H9 H 3.1489 1.1203 1.5235
C4 C 3.2746(3) 1.1398(5) 1.5263(3)
H10 H 3.2570 1.0757 1.4723
H11 H 3.3371 1.1128 1.5690
C5 C 3.2716(2) 1.3044(4) 1.5001(2)
H12 H 3.2111 1.3280 1.4518
H13 H 3.3164 1.3221 1.4764
C6 C 3.2915(2) 1.4090(4) 1.5793(2)
H14 H 3.3540 1.3885 1.6266
C7 C 3.1657(2) 1.5040(4) 1.7151(2)
H15 H 3.1920 1.5101 1.7814
H16 H 3.1278 1.4118 1.6966
C8 C 3.1054(2) 1.6403(4) 1.6761(2)
C9 C 3.1037(2) 1.7164(4) 1.6024(2)
H17 H 3.1398 1.6803 1.5748
C10 C 3.0516(2) 1.8422(4) 1.5683(2)
H18 H 3.0499 1.8908 1.5165
C11 C 3.0015(2) 1.8978(4) 1.6099(2)
H19 H 2.9676 1.9881 1.5886
C12 C 3.0007(2) 1.8232(4) 1.6815(2)
H20 H 2.9657 1.8621 1.7096
C13 C 3.0500(2) 1.6918(4) 1.7141(2)
C14 C 2.9689(2) 1.4302(4) 1.7476(2)
C15 C 2.9598(2) 1.3145(4) 1.7985(2)
H21 H 2.9913 1.3201 1.8620
C16 C 2.9065(3) 1.1921(5) 1.7599(3)
H22 H 2.9001 1.1148 1.7965
C17 C 2.8620(3) 1.1809(4) 1.6677(3)
H23 H 2.8258 1.0950 1.6401
C18 C 2.8707(2) 1.2939(5) 1.6169(2)
H24 H 2.8393 1.2876 1.5534
C19 C 2.9241(2) 1.4179(4) 1.6558(2)
H25 H 2.9300 1.4953 1.6191
C20 C 2.9747(2) 1.7021(4) 1.8407(2)
C21 C 3.0157(2) 1.7837(4) 1.9207(2)
C22 C 2.9616(2) 1.8733(4) 1.9454(2)
H26 H 2.9883 1.9307 1.9992
C23 C 2.8706(3) 1.8813(4) 1.8943(3)
H27 H 2.8349 1.9436 1.9129
C24 C 2.8303(2) 1.8004(5) 1.8165(3)
H28 H 2.7669 1.8065 1.7811
C25 C 2.8826(2) 1.7093(4) 1.7897(3)
H29 H 2.8548 1.6517 1.7360
C26 C 3.1158(2) 1.7724(4) 1.9788(2)
H30 H 3.1329 1.8422 2.0303
H31 H 3.1308 1.6683 2.0026
C27 C 3.3447(2) 1.6222(5) 1.5187(2)
H32 H 3.3360 1.7330 1.5114
H33 H 3.3247 1.5791 1.4578
C28 C 3.4444(2) 1.5940(4) 1.5690(2)
C29 C 3.4874(3) 1.5057(5) 1.5310(3)
H34 H 3.4522 1.4584 1.4750
C30 C 3.5784(3) 1.4834(5) 1.5706(3)
H35 H 3.6058 1.4232 1.5418
C31 C 3.6302(3) 1.5485(5) 1.6521(3)
H36 H 3.6937 1.5334 1.6801
C32 C 3.5904(2) 1.6356(4) 1.6934(3)
H37 H 3.6265 1.6805 1.7500
C33 C 3.4977(2) 1.6584(4) 1.6530(2)
C34 C 3.5297(2) 1.9103(4) 1.7667(2)
C35 C 3.5345(2) 2.0286(4) 1.7139(2)
H38 H 3.4932 2.0316 1.6521
C36 C 3.5974(3) 2.1410(4) 1.7487(3)
H39 H 3.6000 2.2201 1.7111
C37 C 3.6571(2) 2.1392(4) 1.8384(3)
H40 H 3.7007 2.2172 1.8631
C38 C 3.6529(2) 2.0245(4) 1.8915(2)
H41 H 3.6938 2.0235 1.9534
C39 C 3.5905(2) 1.9103(4) 1.8566(2)
H42 H 3.5891 1.8309 1.8946
C40 C 3.45364(19) 1.6354(4) 1.8000(2)
C41 C 3.4130(2) 1.6731(4) 1.8565(2)
C42 C 3.4170(2) 1.5704(4) 1.9205(2)
H43 H 3.3923 1.5969 1.9606
C43 C 3.4560(2) 1.4301(4) 1.9279(2)
H44 H 3.4573 1.3607 1.9721
C44 C 3.4928(2) 1.3912(4) 1.8710(2)
H45 H 3.5187 1.2939 1.8748
C45 C 3.4921(2) 1.4945(4) 1.8082(2)
H46 H 3.5188 1.4678 1.7698
C46 C 3.3625(2) 1.8186(4) 1.8441(2)
H47 H 3.4034 1.9039 1.8496
H48 H 3.3122 1.8213 1.7829
C47 C 3.2149(2) 1.9522(4) 1.9496(2)
H49 H 3.2595 1.9529 2.0142
C48 C 3.1506(2) 2.0844(4) 1.9323(2)
H50 H 3.1041 2.0813 1.8693
H51 H 3.1197 2.0754 1.9716
C49 C 3.1997(2) 2.2332(4) 1.9499(2)
H52 H 3.2427 2.2403 2.0143
H53 H 3.1558 2.3171 1.9359
C50 C 3.2504(2) 2.2483(4) 1.8935(3)
H54 H 3.2068 2.2514 1.8293
H55 H 3.2846 2.3445 1.9083
C51 C 3.3143(2) 2.1194(4) 1.9091(2)
H56 H 3.3619 2.1231 1.9717
H57 H 3.3438 2.1297 1.8687
C52 C 3.2655(2) 1.9664(4) 1.8923(2)
H58 H 3.2203 1.9628 1.8279
loop_
_geom_bond_atom_site_label_1
_geom_bond_atom_site_label_2
_geom_bond_site_symmetry_1
_geom_bond_site_symmetry_2
P1 C13 1_555 1_555
P2 C33 1_555 1_555
N1 H1 1_555 1_555
N2 H2 1_555 1_555
N3 H3 1_555 1_555
N4 H4 1_555 1_555
C1 N1 1_555 1_555
H5 C1 1_555 1_555
C2 C1 1_555 1_555
H6 C2 1_555 1_555
H7 C2 1_555 1_555
C3 C2 1_555 1_555
H8 C3 1_555 1_555
H9 C3 1_555 1_555
C4 C3 1_555 1_555
H10 C4 1_555 1_555
H11 C4 1_555 1_555
C5 C4 1_555 1_555
H12 C5 1_555 1_555
H13 C5 1_555 1_555
C6 N2 1_555 1_555
H14 C6 1_555 1_555
C7 N1 1_555 1_555
H15 C7 1_555 1_555
H16 C7 1_555 1_555
C8 C7 1_555 1_555
C9 C8 1_555 1_555
H17 C9 1_555 1_555
C10 C9 1_555 1_555
H18 C10 1_555 1_555
C11 C10 1_555 1_555
H19 C11 1_555 1_555
C12 C11 1_555 1_555
H20 C12 1_555 1_555
C13 C8 1_555 1_555
C14 P1 1_555 1_555
C15 C14 1_555 1_555
H21 C15 1_555 1_555
C16 C15 1_555 1_555
H22 C16 1_555 1_555
C17 C16 1_555 1_555
H23 C17 1_555 1_555
C18 C17 1_555 1_555
H24 C18 1_555 1_555
C19 C14 1_555 1_555
H25 C19 1_555 1_555
C20 P1 1_555 1_555
C21 C20 1_555 1_555
C22 C21 1_555 1_555
H26 C22 1_555 1_555
C23 C22 1_555 1_555
H27 C23 1_555 1_555
C24 C23 1_555 1_555
H28 C24 1_555 1_555
C25 C20 1_555 1_555
H29 C25 1_555 1_555
C26 N3 1_555 1_555
H30 C26 1_555 1_555
H31 C26 1_555 1_555
C27 N2 1_555 1_555
H32 C27 1_555 1_555
H33 C27 1_555 1_555
C28 C27 1_555 1_555
C29 C28 1_555 1_555
H34 C29 1_555 1_555
C30 C29 1_555 1_555
H35 C30 1_555 1_555
C31 C30 1_555 1_555
H36 C31 1_555 1_555
C32 C31 1_555 1_555
H37 C32 1_555 1_555
C33 C28 1_555 1_555
C34 P2 1_555 1_555
C35 C34 1_555 1_555
H38 C35 1_555 1_555
C36 C35 1_555 1_555
H39 C36 1_555 1_555
C37 C36 1_555 1_555
H40 C37 1_555 1_555
C38 C37 1_555 1_555
H41 C38 1_555 1_555
C39 C34 1_555 1_555
H42 C39 1_555 1_555
C40 P2 1_555 1_555
C41 C40 1_555 1_555
C42 C41 1_555 1_555
H43 C42 1_555 1_555
C43 C42 1_555 1_555
H44 C43 1_555 1_555
C44 C43 1_555 1_555
H45 C44 1_555 1_555
C45 C40 1_555 1_555
H46 C45 1_555 1_555
C46 N4 1_555 1_555
H47 C46 1_555 1_555
H48 C46 1_555 1_555
C47 N3 1_555 1_555
H49 C47 1_555 1_555
C48 C47 1_555 1_555
H50 C48 1_555 1_555
H51 C48 1_555 1_555
C49 C48 1_555 1_555
H52 C49 1_555 1_555
H53 C49 1_555 1_555
C50 C49 1_555 1_555
H54 C50 1_555 1_555
H55 C50 1_555 1_555
C51 C50 1_555 1_555
H56 C51 1_555 1_555
H57 C51 1_555 1_555
C52 N4 1_555 1_555
H58 C52 1_555 1_555
C1 C6 1_555 1_555
C5 C6 1_555 1_555
C12 C13 1_555 1_555
C18 C19 1_555 1_555
C21 C26 1_555 1_555
C24 C25 1_555 1_555
C32 C33 1_555 1_555
C38 C39 1_555 1_555
C41 C46 1_555 1_555
C44 C45 1_555 1_555
C47 C52 1_555 1_555
C51 C52 1_555 1_555

#END
