
#######################################################################
#
#                 Cambridge Crystallographic Data Centre
#                                CCDC 
#
#######################################################################
#
# If this CIF has been generated from an entry in the Cambridge 
# Structural Database, then it will include bibliographic, chemical, 
# crystal, experimental, refinement or atomic coordinate data resulting 
# from the CCDC's data processing and validation procedures.
#
#######################################################################

data_WASDAX
_chemical_formula_moiety         'C24 H18 N2 O2'
_chemical_name_systematic        
11-(1-Methyl-2-oxo-1,2-dihydro-3H-indol-3-ylidene)-6,11-dihydro-5H-dibenzo[b,e]azepine-5-carbaldehyde
_symmetry_cell_setting           monoclinic
_symmetry_space_group_name_H-M   'C 2/c'
_symmetry_Int_Tables_number      15
_space_group_name_Hall           '-C 2yn'
loop_
_symmetry_equiv_pos_site_id
_symmetry_equiv_pos_as_xyz
1 x,y,z
2 -x,y,1/2-z
3 1/2+x,1/2+y,z
4 1/2-x,1/2+y,1/2-z
5 -x,-y,-z
6 x,-y,1/2+z
7 1/2-x,1/2-y,-z
8 1/2+x,1/2-y,1/2+z
_cell_length_a                   14.8100(16)
_cell_length_b                   15.7956(17)
_cell_length_c                   16.8559(18)
_cell_angle_alpha                90
_cell_angle_beta                 105.864(2)
_cell_angle_gamma                90
_cell_volume                     3792.97
_exptl_crystal_colour            yellow
_exptl_crystal_description       prismatic
_cell_formula_units_Z            8
loop_
_atom_site_label
_atom_site_type_symbol
_atom_site_fract_x
_atom_site_fract_y
_atom_site_fract_z
N1 N 0.61472(17) 0.21062(13) 0.39592(15)
N2 N 0.8377(8) 0.4417(6) 0.2827(8)
O1 O 0.62629(17) 0.21835(13) 0.26358(14)
O2 O 0.9881(3) 0.4179(4) 0.3582(4)
C1 C 0.63035(18) 0.25193(17) 0.32962(17)
C2 C 0.64832(17) 0.34264(15) 0.35450(16)
C3 C 0.64379(18) 0.34650(16) 0.44066(16)
C4 C 0.62480(18) 0.26496(16) 0.46279(17)
C5 C 0.6208(2) 0.2451(2) 0.54118(19)
H1 H 0.6082 0.1902 0.5550
C6 C 0.6362(2) 0.3095(2) 0.5986(2)
H2 H 0.6341 0.2976 0.6521
C7 C 0.6544(3) 0.3901(2) 0.57858(19)
H3 H 0.6644 0.4324 0.6185
C8 C 0.6581(2) 0.40993(18) 0.49914(17)
H4 H 0.6702 0.4651 0.4856
C9 C 0.66797(17) 0.40419(16) 0.30635(16)
C10 C 0.68157(19) 0.38995(16) 0.22265(16)
C11 C 0.6101(2) 0.36457(18) 0.15596(18)
H5 H 0.5514 0.3523 0.1631
C12 C 0.6241(2) 0.3569(2) 0.07868(19)
H6 H 0.5751 0.3403 0.0340
C13 C 0.7112(3) 0.3742(2) 0.06811(19)
H7 H 0.7215 0.3677 0.0165
C14 C 0.7827(2) 0.40088(18) 0.13358(19)
H8 H 0.8410 0.4136 0.1259
C15 C 0.76850(19) 0.40912(17) 0.21102(17)
C16 C 0.8346(4) 0.5277(4) 0.3148(5)
H9 H 0.8841 0.5340 0.3658
H10 H 0.8460 0.5682 0.2754
C17 C 0.7496(3) 0.5453(2) 0.3294(2)
C18 C 0.6720(2) 0.49562(17) 0.32817(16)
C19 C 0.5917(2) 0.53478(19) 0.33783(18)
H11 H 0.5398 0.5014 0.3370
C20 C 0.5856(4) 0.6200(2) 0.3484(2)
H12 H 0.5305 0.6436 0.3549
C21 C 0.6580(6) 0.6687(3) 0.3494(3)
H13 H 0.6536 0.7267 0.3574
C22 C 0.7391(5) 0.6363(3) 0.3392(2)
H14 H 0.7883 0.6725 0.3384
C23 C 0.5875(3) 0.12240(19) 0.3944(3)
H15 H 0.5801 0.0998 0.3401
H16 H 0.5292 0.1178 0.4085
H17 H 0.6352 0.0911 0.4334
C24 C 0.9196(4) 0.3978(4) 0.3069(4)
H18 H 0.9221 0.3466 0.2804
C25? C 0.8597(13) 0.4231(15) 0.2764(14)
C26? C 0.9255(8) 0.4795(6) 0.4084(6)
H19? H 0.8832 0.3693 0.3015
H20? H 0.9059 0.4463 0.2512
H21? H 0.9234 0.5109 0.4545
N3? N 0.8467(5) 0.4819(6) 0.3409(5)
O3? O 0.9976(5) 0.4397(5) 0.4123(6)
loop_
_geom_bond_atom_site_label_1
_geom_bond_atom_site_label_2
_geom_bond_site_symmetry_1
_geom_bond_site_symmetry_2
N1 C1 1_555 1_555
N2 C15 1_555 1_555
O1 C1 1_555 1_555
O2 C24 1_555 1_555
C1 C2 1_555 1_555
C2 C3 1_555 1_555
C3 C4 1_555 1_555
C4 N1 1_555 1_555
C5 C4 1_555 1_555
H1 C5 1_555 1_555
C6 C5 1_555 1_555
H2 C6 1_555 1_555
C7 C6 1_555 1_555
H3 C7 1_555 1_555
C8 C3 1_555 1_555
H4 C8 1_555 1_555
C9 C2 1_555 1_555
C10 C9 1_555 1_555
C11 C10 1_555 1_555
H5 C11 1_555 1_555
C12 C11 1_555 1_555
H6 C12 1_555 1_555
C13 C12 1_555 1_555
H7 C13 1_555 1_555
C14 C13 1_555 1_555
H8 C14 1_555 1_555
C15 C10 1_555 1_555
C16 N2 1_555 1_555
H9 C16 1_555 1_555
H10 C16 1_555 1_555
C17 C16 1_555 1_555
C18 C9 1_555 1_555
C19 C18 1_555 1_555
H11 C19 1_555 1_555
C20 C19 1_555 1_555
H12 C20 1_555 1_555
C21 C20 1_555 1_555
H13 C21 1_555 1_555
C22 C17 1_555 1_555
H14 C22 1_555 1_555
C23 N1 1_555 1_555
H15 C23 1_555 1_555
H16 C23 1_555 1_555
H17 C23 1_555 1_555
C24 N2 1_555 1_555
H18 C24 1_555 1_555
C7 C8 1_555 1_555
C14 C15 1_555 1_555
C17 C18 1_555 1_555
C21 C22 1_555 1_555

#END
