
#######################################################################
#
#                 Cambridge Crystallographic Data Centre
#                                CCDC 
#
#######################################################################
#
# If this CIF has been generated from an entry in the Cambridge 
# Structural Database, then it will include bibliographic, chemical, 
# crystal, experimental, refinement or atomic coordinate data resulting 
# from the CCDC's data processing and validation procedures.
#
#######################################################################

data_WASDOL
_chemical_formula_moiety         'C13 H13 N1 O2'
_chemical_name_systematic        
1-(8b-Methyl-3a,8b-dihydro-4H-furo[3,2-b]indol-4-yl)ethanone
_symmetry_cell_setting           monoclinic
_symmetry_space_group_name_H-M   'P 21/c'
_symmetry_Int_Tables_number      14
_space_group_name_Hall           '-P 2ybc'
loop_
_symmetry_equiv_pos_site_id
_symmetry_equiv_pos_as_xyz
1 x,y,z
2 -x,1/2+y,1/2-z
3 -x,-y,-z
4 x,1/2-y,1/2+z
_cell_length_a                   10.4424(6)
_cell_length_b                   8.2086(5)
_cell_length_c                   13.0498(11)
_cell_angle_alpha                90
_cell_angle_beta                 100.589(7)
_cell_angle_gamma                90
_cell_volume                     1099.55
_exptl_crystal_colour            colorless
_cell_formula_units_Z            4
loop_
_atom_site_label
_atom_site_type_symbol
_atom_site_fract_x
_atom_site_fract_y
_atom_site_fract_z
N1 N 0.66232(11) 0.14711(15) 0.60484(10)
O1 O 0.59287(12) -0.07972(15) 0.67649(11)
C1 C 0.79726(14) 0.11108(18) 0.61941(11)
C2 C 0.56843(15) 0.0533(2) 0.63556(13)
C3 C 0.85991(15) 0.22470(19) 0.56760(12)
O2 O 0.80036(14) 0.51047(14) 0.55238(12)
C4 C 0.86599(16) -0.0133(2) 0.67718(13)
H1 H 0.8240 -0.0899 0.7118
C5 C 0.76509(17) 0.34687(19) 0.51163(14)
C6 C 0.99279(17) 0.2162(3) 0.57219(16)
H2 H 1.0350 0.2916 0.5369
C7 C 0.63632(15) 0.30402(18) 0.54836(12)
H3 H 0.5638 0.2942 0.4893
C8 C 0.99887(18) -0.0192(3) 0.68138(15)
H4 H 1.0471 -0.1013 0.7197
C9 C 0.43258(17) 0.1220(3) 0.61780(17)
H5 H 0.4275 0.2062 0.6679
H6 H 0.3719 0.0369 0.6254
H7 H 0.4116 0.1666 0.5487
C10 C 0.61876(18) 0.4467(2) 0.61523(15)
H8 H 0.5522 0.4588 0.6532
C11 C 0.7118(2) 0.5522(2) 0.61191(16)
H9 H 0.7169 0.6501 0.6483
C12 C 1.06181(18) 0.0937(3) 0.63012(17)
H10 H 1.1516 0.0872 0.6346
C13 C 0.7585(2) 0.3522(3) 0.39532(16)
H11 H 0.7274 0.2495 0.3654
H12 H 0.8438 0.3732 0.3807
H13 H 0.7001 0.4373 0.3658
loop_
_geom_bond_atom_site_label_1
_geom_bond_atom_site_label_2
_geom_bond_site_symmetry_1
_geom_bond_site_symmetry_2
N1 C1 1_555 1_555
O1 C2 1_555 1_555
C1 C3 1_555 1_555
C2 N1 1_555 1_555
C3 C5 1_555 1_555
O2 C5 1_555 1_555
C4 C1 1_555 1_555
H1 C4 1_555 1_555
C5 C7 1_555 1_555
C6 C3 1_555 1_555
H2 C6 1_555 1_555
C7 N1 1_555 1_555
H3 C7 1_555 1_555
C8 C4 1_555 1_555
H4 C8 1_555 1_555
C9 C2 1_555 1_555
H5 C9 1_555 1_555
H6 C9 1_555 1_555
H7 C9 1_555 1_555
C10 C7 1_555 1_555
H8 C10 1_555 1_555
C11 O2 1_555 1_555
H9 C11 1_555 1_555
C12 C6 1_555 1_555
H10 C12 1_555 1_555
C13 C5 1_555 1_555
H11 C13 1_555 1_555
H12 C13 1_555 1_555
H13 C13 1_555 1_555
C8 C12 1_555 1_555
C10 C11 1_555 1_555

#END
