
#######################################################################
#
#                 Cambridge Crystallographic Data Centre
#                                CCDC 
#
#######################################################################
#
# If this CIF has been generated from an entry in the Cambridge 
# Structural Database, then it will include bibliographic, chemical, 
# crystal, experimental, refinement or atomic coordinate data resulting 
# from the CCDC's data processing and validation procedures.
#
#######################################################################

data_WASGUU
_chemical_formula_moiety         'C17 H17 N1 O3 S1'
_chemical_name_systematic        
5-Nitro-4-phenyl-3-(phenylsulfanyl)pentan-2-one
_symmetry_cell_setting           orthorhombic
_symmetry_space_group_name_H-M   'P 21 21 21'
_symmetry_Int_Tables_number      19
_space_group_name_Hall           'P 2ac 2ab'
loop_
_symmetry_equiv_pos_site_id
_symmetry_equiv_pos_as_xyz
1 x,y,z
2 1/2-x,-y,1/2+z
3 -x,1/2+y,1/2-z
4 1/2+x,1/2-y,-z
_cell_length_a                   5.9810(15)
_cell_length_b                   11.860(3)
_cell_length_c                   22.836(5)
_cell_angle_alpha                90
_cell_angle_beta                 90
_cell_angle_gamma                90
_cell_volume                     1619.86
_cell_formula_units_Z            4
loop_
_atom_site_label
_atom_site_type_symbol
_atom_site_fract_x
_atom_site_fract_y
_atom_site_fract_z
C1 C 0.8096(5) 0.39113(18) 0.95780(10)
H1 H 0.6796 0.3711 0.9380
C2 C 0.8410(6) 0.35431(19) 1.01478(11)
H2 H 0.7332 0.3102 1.0331
C3 C 0.9672(5) 0.45692(19) 0.92979(10)
C4 C 1.1583(5) 0.48611(18) 0.95966(10)
H3 H 1.2660 0.5306 0.9415
C5 C 1.1915(5) 0.4493(2) 1.01695(11)
H4 H 1.3213 0.4694 1.0368
C6 C 1.0346(6) 0.3839(2) 1.04406(11)
H5 H 1.0580 0.3593 1.0822
C7 C 0.8512(5) 0.77827(19) 0.89071(11)
C8 C 0.7972(5) 0.8601(2) 0.84944(10)
H6 H 0.6630 0.8557 0.8290
C9 C 1.1383(6) 0.9550(2) 0.86999(12)
H7 H 1.2368 1.0141 0.8628
C10 C 1.0447(5) 0.7870(2) 0.92207(12)
H8 H 1.0787 0.7332 0.9503
C11 C 0.9442(6) 0.9481(2) 0.83894(11)
H9 H 0.9105 1.0023 0.8108
C12 C 1.1907(6) 0.8757(2) 0.91202(13)
H10 H 1.3226 0.8817 0.9334
C13 C 0.7194(4) 0.55833(17) 0.85467(9)
H11 H 0.5974 0.5033 0.8565
C14 C 0.7139(6) 0.6112(2) 0.79295(11)
C15 C 0.9384(4) 0.49382(19) 0.86634(9)
H12 H 1.0638 0.5433 0.8561
C16 C 0.9440(5) 0.3913(2) 0.82534(10)
H13 H 0.8170 0.3429 0.8335
H14 H 0.9331 0.4163 0.7850
C17 C 0.4860(5) 0.6341(2) 0.76710(12)
H15 H 0.5007 0.6849 0.7346
H16 H 0.3916 0.6675 0.7963
H17 H 0.4210 0.5646 0.7539
N1 N 1.1557(6) 0.3263(2) 0.83357(10)
O1 O 0.8844(4) 0.63387(16) 0.76789(8)
O2 O 1.1436(5) 0.23681(16) 0.85806(8)
O3 O 1.3251(4) 0.36950(18) 0.81652(11)
S1 S 0.65439(13) 0.66952(5) 0.90724(3)
loop_
_geom_bond_atom_site_label_1
_geom_bond_atom_site_label_2
_geom_bond_site_symmetry_1
_geom_bond_site_symmetry_2
C1 H1 1_555 1_555
C2 C1 1_555 1_555
H2 C2 1_555 1_555
C3 C1 1_555 1_555
C4 C3 1_555 1_555
H3 C4 1_555 1_555
C5 C4 1_555 1_555
H4 C5 1_555 1_555
C6 C2 1_555 1_555
H5 C6 1_555 1_555
C7 C8 1_555 1_555
C8 H6 1_555 1_555
C9 H7 1_555 1_555
C10 C7 1_555 1_555
H8 C10 1_555 1_555
C11 C8 1_555 1_555
H9 C11 1_555 1_555
C12 C9 1_555 1_555
H10 C12 1_555 1_555
C13 H11 1_555 1_555
C14 C13 1_555 1_555
C15 C3 1_555 1_555
H12 C15 1_555 1_555
C16 C15 1_555 1_555
H13 C16 1_555 1_555
H14 C16 1_555 1_555
C17 C14 1_555 1_555
H15 C17 1_555 1_555
H16 C17 1_555 1_555
H17 C17 1_555 1_555
N1 C16 1_555 1_555
O1 C14 1_555 1_555
O2 N1 1_555 1_555
O3 N1 1_555 1_555
S1 C7 1_555 1_555
C5 C6 1_555 1_555
C9 C11 1_555 1_555
C10 C12 1_555 1_555
C13 C15 1_555 1_555
C13 S1 1_555 1_555

#END
