
#######################################################################
#
#                 Cambridge Crystallographic Data Centre
#                                CCDC 
#
#######################################################################
#
# If this CIF has been generated from an entry in the Cambridge 
# Structural Database, then it will include bibliographic, chemical, 
# crystal, experimental, refinement or atomic coordinate data resulting 
# from the CCDC's data processing and validation procedures.
#
#######################################################################

data_WASJAE
_chemical_formula_moiety         'C16 H13 N3 O1'
_chemical_name_systematic        1-(pyridin-2-ylcarbonohydrazonoyl)-2-naphthol
_symmetry_cell_setting           monoclinic
_symmetry_space_group_name_H-M   'P 21/n'
_symmetry_Int_Tables_number      14
_space_group_name_Hall           '-P 2yn'
loop_
_symmetry_equiv_pos_site_id
_symmetry_equiv_pos_as_xyz
1 x,y,z
2 1/2-x,1/2+y,1/2-z
3 -x,-y,-z
4 1/2+x,1/2-y,1/2+z
_cell_length_a                   14.9584(13)
_cell_length_b                   5.1168(3)
_cell_length_c                   16.4879(16)
_cell_angle_alpha                90
_cell_angle_beta                 98.462(7)
_cell_angle_gamma                90
_cell_volume                     1248.23
_exptl_crystal_colour            orange
_exptl_crystal_description       rod
_cell_formula_units_Z            4
loop_
_atom_site_label
_atom_site_type_symbol
_atom_site_fract_x
_atom_site_fract_y
_atom_site_fract_z
O1 O 0.22961(8) 0.0475(2) 0.65138(7)
N1 N 0.34910(8) -0.1198(2) 0.56653(7)
N2 N 0.41780(8) -0.2868(3) 0.55696(8)
N3 N 0.50920(8) -0.6328(3) 0.60337(7)
C1 C 0.25014(9) 0.2326(3) 0.52046(9)
C2 C 0.20640(10) 0.2203(3) 0.58993(9)
C3 C 0.13430(10) 0.3900(3) 0.59931(10)
C4 C 0.10571(10) 0.5717(3) 0.54179(10)
C5 C 0.14688(10) 0.5963(3) 0.46952(9)
C6 C 0.11736(10) 0.7874(3) 0.40969(10)
C7 C 0.15714(10) 0.8139(3) 0.34097(10)
C8 C 0.22941(11) 0.6482(3) 0.32962(9)
C9 C 0.25981(10) 0.4606(3) 0.38657(9)
C10 C 0.21987(9) 0.4259(3) 0.45891(9)
C11 C 0.32341(9) 0.0523(3) 0.51123(9)
C12 C 0.44331(9) -0.4687(3) 0.61782(9)
C13 C 0.40357(10) -0.4793(3) 0.68973(9)
C14 C 0.43393(10) -0.6643(3) 0.74758(9)
C15 C 0.50285(10) -0.8334(3) 0.73444(9)
C16 C 0.53720(10) -0.8093(3) 0.66177(9)
H1 H 0.2747(15) -0.051(5) 0.6364(13)
H2 H 0.4388(12) -0.304(4) 0.5083(12)
H3 H 0.10540 0.37630 0.64670
H4 H 0.05740 0.68490 0.54970
H5 H 0.06880 0.89970 0.41760
H6 H 0.13640 0.94270 0.30110
H7 H 0.25750 0.66660 0.28190
H8 H 0.30870 0.35130 0.37740
H9 H 0.35250 0.06210 0.46380
H10 H 0.35680 -0.36130 0.69820
H11 H 0.40780 -0.67650 0.79660
H12 H 0.52550 -0.96090 0.77410
H13 H 0.58400 -0.92590 0.65230
loop_
_geom_bond_atom_site_label_1
_geom_bond_atom_site_label_2
_geom_bond_site_symmetry_1
_geom_bond_site_symmetry_2
O1 C2 1_555 1_555
N1 N2 1_555 1_555
N2 C12 1_555 1_555
N3 C12 1_555 1_555
C1 C2 1_555 1_555
C2 C3 1_555 1_555
C3 C4 1_555 1_555
C4 C5 1_555 1_555
C5 C6 1_555 1_555
C6 C7 1_555 1_555
C7 C8 1_555 1_555
C8 C9 1_555 1_555
C9 C10 1_555 1_555
C10 C1 1_555 1_555
C11 N1 1_555 1_555
C12 C13 1_555 1_555
C13 C14 1_555 1_555
C14 C15 1_555 1_555
C15 C16 1_555 1_555
C16 N3 1_555 1_555
H1 O1 1_555 1_555
H2 N2 1_555 1_555
H3 C3 1_555 1_555
H4 C4 1_555 1_555
H5 C6 1_555 1_555
H6 C7 1_555 1_555
H7 C8 1_555 1_555
H8 C9 1_555 1_555
H9 C11 1_555 1_555
H10 C13 1_555 1_555
H11 C14 1_555 1_555
H12 C15 1_555 1_555
H13 C16 1_555 1_555
C1 C11 1_555 1_555
C5 C10 1_555 1_555

#END
