
#######################################################################
#
#                 Cambridge Crystallographic Data Centre
#                                CCDC 
#
#######################################################################
#
# If this CIF has been generated from an entry in the Cambridge 
# Structural Database, then it will include bibliographic, chemical, 
# crystal, experimental, refinement or atomic coordinate data resulting 
# from the CCDC's data processing and validation procedures.
#
#######################################################################

data_WATDIF
_chemical_formula_moiety         'C27 H24 N6 O3,2(C1 H4 O1)'
_chemical_name_systematic        
"N,N',N''-tris(2-Pyridylmethyl)-benzene-1,3,5-tris(carboxamide) methanol solvate"
_symmetry_cell_setting           triclinic
_symmetry_space_group_name_H-M   'P -1'
_symmetry_Int_Tables_number      2
_space_group_name_Hall           '-P 1'
loop_
_symmetry_equiv_pos_site_id
_symmetry_equiv_pos_as_xyz
1 x,y,z
2 -x,-y,-z
_cell_length_a                   7.8044(7)
_cell_length_b                   11.1993(10)
_cell_length_c                   15.6103(14)
_cell_angle_alpha                82.505(9)
_cell_angle_beta                 88.802(8)
_cell_angle_gamma                88.366(7)
_cell_volume                     1351.99
_exptl_crystal_colour            colorless
_exptl_crystal_description       needle
_chemical_melting_point          '29-32 deg.C'
_cell_formula_units_Z            2
loop_
_atom_site_label
_atom_site_type_symbol
_atom_site_fract_x
_atom_site_fract_y
_atom_site_fract_z
O1 O 0.12379(18) 0.42111(12) -0.14485(9)
O2 O 0.40716(16) 0.78480(11) 0.09902(8)
O3 O 0.39303(17) 0.22306(11) 0.21577(9)
N1 N 0.1146(2) 0.62330(15) -0.15015(10)
H1 H 0.143(3) 0.6838(19) -0.1282(13)
N2 N 0.0802(2) 0.61745(15) -0.37801(10)
N3 N 0.3274(2) 0.68603(14) 0.22846(10)
H2 H 0.285(3) 0.6217(19) 0.2590(13)
N4 N 0.5530(2) 0.87907(15) 0.35967(11)
N5 N 0.49219(19) 0.17577(13) 0.08676(11)
H3 H 0.514(2) 0.2018(18) 0.0327(14)
N6 N 0.84627(19) 0.12299(13) 0.10807(10)
C1 C 0.2889(2) 0.38758(15) 0.01265(11)
H4 H 0.2799 0.3221 -0.0179
C2 C 0.3580(2) 0.37083(15) 0.09453(12)
C3 C 0.3722(2) 0.46901(15) 0.13995(11)
H5 H 0.4146 0.4577 0.1958
C4 C 0.3237(2) 0.58289(15) 0.10240(11)
C5 C 0.2527(2) 0.59876(16) 0.02063(11)
H6 H 0.2181 0.6755 -0.0041
C6 C 0.2329(2) 0.50150(15) -0.02433(11)
C7 C 0.1532(2) 0.51151(16) -0.11188(11)
C8 C 0.0197(2) 0.64205(18) -0.22973(12)
H7 H -0.0623 0.7081 -0.2266
H8 H -0.0446 0.5704 -0.2342
C9 C 0.1276(2) 0.66935(17) -0.31023(12)
C10 C 0.1681(3) 0.6437(2) -0.45237(14)
H9 H 0.1363 0.6076 -0.4998
C11 C 0.3020(3) 0.7207(2) -0.46220(16)
H10 H 0.3593 0.7367 -0.5151
C12 C 0.3497(3) 0.7736(2) -0.39259(16)
H11 H 0.4403 0.8264 -0.3974
C13 C 0.2623(3) 0.74790(19) -0.31531(14)
H12 H 0.2931 0.7828 -0.2672
C14 C 0.3559(2) 0.69289(16) 0.14370(12)
C15 C 0.3554(2) 0.78584(17) 0.27618(12)
H13 H 0.2733 0.7821 0.3239
H14 H 0.3326 0.8603 0.2386
C16 C 0.5334(2) 0.78981(16) 0.31172(12)
C17 C 0.7073(3) 0.8889(2) 0.39368(16)
H15 H 0.7223 0.9502 0.4274
C18 C 0.8449(3) 0.8131(2) 0.38136(16)
H16 H 0.9502 0.8233 0.4059
C19 C 0.8231(3) 0.7223(2) 0.33212(15)
H17 H 0.9136 0.6696 0.3226
C20 C 0.6648(3) 0.70989(18) 0.29676(13)
H18 H 0.6471 0.6485 0.2634
C21 C 0.4159(2) 0.25017(16) 0.13799(12)
C22 C 0.5495(2) 0.05581(16) 0.12127(14)
H19 H 0.4911 -0.0014 0.0913
H20 H 0.5148 0.0414 0.1817
C23 C 0.7396(2) 0.03094(16) 0.11465(11)
C24 C 1.0145(2) 0.09561(18) 0.10437(13)
H21 H 1.0906 0.1587 0.0987
C25 C 1.0815(2) -0.01935(18) 0.10839(13)
H22 H 1.1994 -0.0335 0.1061
C26 C 0.9701(2) -0.11348(18) 0.11584(13)
H23 H 1.0111 -0.1927 0.1191
C27 C 0.7969(2) -0.08769(17) 0.11832(12)
H24 H 0.7189 -0.1495 0.1224
O4 O 0.2344(2) -0.02251(17) 0.42676(12)
H25 H 0.3367 -0.0218 0.4136
C28 C 0.1494(3) 0.0727(2) 0.37785(18)
H26 H 0.0458 0.0930 0.4076
H27 H 0.1217 0.0497 0.3228
H28 H 0.2218 0.1413 0.3694
O5 O 0.20476(18) 0.52025(12) 0.36288(9)
H29 H 0.1141 0.4845 0.3669
C29 C 0.3391(3) 0.4407(2) 0.39582(17)
H30 H 0.4464 0.4807 0.3871
H31 H 0.3422 0.3707 0.3662
H32 H 0.3197 0.4168 0.4565
loop_
_geom_bond_atom_site_label_1
_geom_bond_atom_site_label_2
_geom_bond_site_symmetry_1
_geom_bond_site_symmetry_2
O1 C7 1_555 1_555
O2 C14 1_555 1_555
O3 C21 1_555 1_555
N1 H1 1_555 1_555
N2 C9 1_555 1_555
N3 H2 1_555 1_555
N4 C16 1_555 1_555
N5 H3 1_555 1_555
N6 C23 1_555 1_555
C1 H4 1_555 1_555
C2 C1 1_555 1_555
C3 C2 1_555 1_555
H5 C3 1_555 1_555
C4 C3 1_555 1_555
C5 C4 1_555 1_555
H6 C5 1_555 1_555
C6 C1 1_555 1_555
C7 N1 1_555 1_555
C8 N1 1_555 1_555
H7 C8 1_555 1_555
H8 C8 1_555 1_555
C9 C8 1_555 1_555
C10 N2 1_555 1_555
H9 C10 1_555 1_555
C11 C10 1_555 1_555
H10 C11 1_555 1_555
C12 C11 1_555 1_555
H11 C12 1_555 1_555
C13 C9 1_555 1_555
H12 C13 1_555 1_555
C14 N3 1_555 1_555
C15 N3 1_555 1_555
H13 C15 1_555 1_555
H14 C15 1_555 1_555
C16 C15 1_555 1_555
C17 N4 1_555 1_555
H15 C17 1_555 1_555
C18 C17 1_555 1_555
H16 C18 1_555 1_555
C19 C18 1_555 1_555
H17 C19 1_555 1_555
C20 C16 1_555 1_555
H18 C20 1_555 1_555
C21 N5 1_555 1_555
C22 N5 1_555 1_555
H19 C22 1_555 1_555
H20 C22 1_555 1_555
C23 C22 1_555 1_555
C24 N6 1_555 1_555
H21 C24 1_555 1_555
C25 C24 1_555 1_555
H22 C25 1_555 1_555
C26 C25 1_555 1_555
H23 C26 1_555 1_555
C27 C23 1_555 1_555
H24 C27 1_555 1_555
O4 H25 1_555 1_555
C28 O4 1_555 1_555
H26 C28 1_555 1_555
H27 C28 1_555 1_555
H28 C28 1_555 1_555
O5 H29 1_555 1_555
C29 O5 1_555 1_555
H30 C29 1_555 1_555
H31 C29 1_555 1_555
H32 C29 1_555 1_555
C2 C21 1_555 1_555
C4 C14 1_555 1_555
C5 C6 1_555 1_555
C6 C7 1_555 1_555
C12 C13 1_555 1_555
C19 C20 1_555 1_555
C26 C27 1_555 1_555

#END
