
#######################################################################
#
#                 Cambridge Crystallographic Data Centre
#                                CCDC 
#
#######################################################################
#
# If this CIF has been generated from an entry in the Cambridge 
# Structural Database, then it will include bibliographic, chemical, 
# crystal, experimental, refinement or atomic coordinate data resulting 
# from the CCDC's data processing and validation procedures.
#
#######################################################################

data_WATFOP
_chemical_name_common            
'4S,5R,10S-17-methyl-8, 13-labdadien-15, 16-olid-19-oic acid methyl ester'
_chemical_formula_moiety         'C21 H30 O4'
_chemical_name_systematic        
'methyl 1,4a,6-trimethyl-5-[2-(2-oxo-2,5-dihydrofuran-3-yl)ethyl]-1,2,3,4,4a,7,8,8a-octahydronaphthalene-1-carboxylate'
_symmetry_cell_setting           orthorhombic
_symmetry_space_group_name_H-M   'P 21 21 21'
_symmetry_Int_Tables_number      19
_space_group_name_Hall           'P 2ac 2ab'
loop_
_symmetry_equiv_pos_site_id
_symmetry_equiv_pos_as_xyz
1 x,y,z
2 1/2-x,-y,1/2+z
3 1/2+x,1/2-y,-z
4 -x,1/2+y,1/2-z
_cell_length_a                   7.4989(3)
_cell_length_b                   9.2683(3)
_cell_length_c                   27.2610(10)
_cell_angle_alpha                90
_cell_angle_beta                 90
_cell_angle_gamma                90
_cell_volume                     1894.7
_exptl_crystal_colour            colorless
_cell_formula_units_Z            4
loop_
_atom_site_label
_atom_site_type_symbol
_atom_site_fract_x
_atom_site_fract_y
_atom_site_fract_z
O1 O 1.0067(4) 0.7550(3) 0.56689(10)
O2 O 1.1847(3) 0.5876(3) 0.59920(10)
O3 O 0.0754(4) 0.0839(4) 0.73737(10)
O4 O 0.3012(5) -0.0522(3) 0.71066(13)
C1 C 0.9826(4) 0.5098(4) 0.53707(12)
C2 C 0.8222(5) 0.5637(4) 0.50716(13)
H1 H 0.8528 0.6554 0.4922
H2 H 0.7987 0.4956 0.4809
C3 C 0.6526(5) 0.5830(4) 0.53728(15)
H3 H 0.5552 0.6094 0.5157
H4 H 0.6696 0.6608 0.5606
C4 C 0.6042(4) 0.4452(4) 0.56488(14)
H5 H 0.5733 0.3708 0.5413
H6 H 0.4998 0.4634 0.5850
C5 C 0.7562(4) 0.3893(3) 0.59794(11)
C6 C 0.7040(4) 0.2410(4) 0.62014(11)
C7 C 0.8121(5) 0.1270(4) 0.61947(11)
C8 C 0.9998(4) 0.1323(4) 0.59961(13)
H7 H 1.0037 0.0809 0.5686
H8 H 1.0787 0.0830 0.6223
C9 C 1.0677(4) 0.2847(4) 0.59173(12)
H9 H 1.1762 0.2830 0.5723
H10 H 1.0941 0.3296 0.6230
C10 C 0.9227(4) 0.3705(4) 0.56487(11)
H11 H 0.8826 0.3054 0.5388
C11 C 1.1345(5) 0.4759(4) 0.50080(13)
H12 H 1.1647 0.5615 0.4828
H13 H 1.0963 0.4022 0.4784
H14 H 1.2370 0.4427 0.5186
C12 C 1.0534(4) 0.6313(4) 0.56945(13)
C13 C 1.2653(6) 0.6973(5) 0.62890(18)
H15 H 1.3404 0.6531 0.6531
H16 H 1.1739 0.7524 0.6449
H17 H 1.3356 0.7598 0.6085
C14 C 0.7851(5) 0.4954(4) 0.64067(13)
H18 H 0.6805 0.4974 0.6610
H19 H 0.8072 0.5902 0.6278
H20 H 0.8856 0.4648 0.6598
C15 C 0.5203(4) 0.2307(4) 0.64360(12)
H21 H 0.4600 0.1466 0.6304
H22 H 0.4517 0.3149 0.6341
C16 C 0.5198(5) 0.2201(5) 0.69990(13)
H23 H 0.5894 0.1371 0.7101
H24 H 0.5744 0.3058 0.7137
C17 C 0.3328(5) 0.2057(4) 0.71879(11)
C18 C 0.2450(6) 0.0659(5) 0.72127(13)
C19 C 0.0450(6) 0.2338(6) 0.74587(17)
H25 H 0.0130 0.2513 0.7798
H26 H -0.0492 0.2700 0.7249
C20 C 0.2173(6) 0.3021(5) 0.73380(15)
H27 H 0.2407 0.4003 0.7365
C21 C 0.7574(6) -0.0208(4) 0.63674(15)
H28 H 0.8167 -0.0424 0.6671
H29 H 0.7899 -0.0911 0.6125
H30 H 0.6307 -0.0230 0.6417
loop_
_geom_bond_atom_site_label_1
_geom_bond_atom_site_label_2
_geom_bond_site_symmetry_1
_geom_bond_site_symmetry_2
O1 C12 1_555 1_555
O2 C12 1_555 1_555
O3 C18 1_555 1_555
O4 C18 1_555 1_555
C1 C2 1_555 1_555
C2 H1 1_555 1_555
H2 C2 1_555 1_555
C3 C2 1_555 1_555
H3 C3 1_555 1_555
H4 C3 1_555 1_555
C4 C3 1_555 1_555
H5 C4 1_555 1_555
H6 C4 1_555 1_555
C5 C4 1_555 1_555
C6 C5 1_555 1_555
C7 C6 1_555 1_555
C8 C7 1_555 1_555
H7 C8 1_555 1_555
H8 C8 1_555 1_555
C9 C8 1_555 1_555
H9 C9 1_555 1_555
H10 C9 1_555 1_555
C10 C1 1_555 1_555
H11 C10 1_555 1_555
C11 C1 1_555 1_555
H12 C11 1_555 1_555
H13 C11 1_555 1_555
H14 C11 1_555 1_555
C12 C1 1_555 1_555
C13 O2 1_555 1_555
H15 C13 1_555 1_555
H16 C13 1_555 1_555
H17 C13 1_555 1_555
C14 C5 1_555 1_555
H18 C14 1_555 1_555
H19 C14 1_555 1_555
H20 C14 1_555 1_555
C15 C6 1_555 1_555
H21 C15 1_555 1_555
H22 C15 1_555 1_555
C16 C15 1_555 1_555
H23 C16 1_555 1_555
H24 C16 1_555 1_555
C17 C16 1_555 1_555
C18 C17 1_555 1_555
C19 O3 1_555 1_555
H25 C19 1_555 1_555
H26 C19 1_555 1_555
C20 C17 1_555 1_555
H27 C20 1_555 1_555
C21 C7 1_555 1_555
H28 C21 1_555 1_555
H29 C21 1_555 1_555
H30 C21 1_555 1_555
C5 C10 1_555 1_555
C9 C10 1_555 1_555
C19 C20 1_555 1_555

#END
