
#######################################################################
#
#                 Cambridge Crystallographic Data Centre
#                                CCDC 
#
#######################################################################
#
# If this CIF has been generated from an entry in the Cambridge 
# Structural Database, then it will include bibliographic, chemical, 
# crystal, experimental, refinement or atomic coordinate data resulting 
# from the CCDC's data processing and validation procedures.
#
#######################################################################

data_WATGEG01
_chemical_formula_moiety         'C24 H19 N1 O2 S1'
_chemical_name_systematic        
2-((4-methylphenyl)sulfonyl)-1-phenyl-9H-pyrrolo[1,2-a]indole
_symmetry_cell_setting           monoclinic
_symmetry_space_group_name_H-M   'C 2/c'
_symmetry_Int_Tables_number      15
_space_group_name_Hall           '-C 2yn'
loop_
_symmetry_equiv_pos_site_id
_symmetry_equiv_pos_as_xyz
1 x,y,z
2 -x,y,1/2-z
3 1/2+x,1/2+y,z
4 1/2-x,1/2+y,1/2-z
5 -x,-y,-z
6 x,-y,1/2+z
7 1/2-x,1/2-y,-z
8 1/2+x,1/2-y,1/2+z
_cell_length_a                   16.483(3)
_cell_length_b                   18.487(4)
_cell_length_c                   14.680(3)
_cell_angle_alpha                90
_cell_angle_beta                 120.42(3)
_cell_angle_gamma                90
_cell_volume                     3857.5
_exptl_crystal_colour            colorless
_exptl_crystal_description       block
_cell_formula_units_Z            8
loop_
_atom_site_label
_atom_site_type_symbol
_atom_site_fract_x
_atom_site_fract_y
_atom_site_fract_z
S1 S 0.04815(5) 0.20811(5) 0.06383(7)
O1 O 0.07456(16) 0.13874(13) 0.11547(18)
O2 O 0.12035(13) 0.25940(14) 0.08644(17)
N1 N -0.08800(15) 0.12952(14) -0.2155(2)
C1 C 0.0098(2) 0.3656(2) -0.1073(3)
H1 H 0.0701 0.3447 -0.0717
C2 C 0.0014(3) 0.4385(2) -0.1087(3)
H2 H 0.0557 0.4673 -0.0728
C3 C -0.0840(4) 0.4702(2) -0.1612(4)
H3 H -0.0894 0.5209 -0.1630
C4 C -0.1631(3) 0.4276(2) -0.2121(3)
H4 H -0.2230 0.4491 -0.2482
C5 C -0.1546(2) 0.35377(18) -0.2102(2)
H5 H -0.2088 0.3249 -0.2459
C6 C -0.0674(2) 0.32154(16) -0.1566(2)
C7 C -0.06106(17) 0.24285(17) -0.1562(2)
C8 C -0.01530(18) 0.19260(18) -0.0705(2)
C9 C -0.0341(2) 0.12393(19) -0.1104(3)
H6 H -0.0132 0.0808 -0.0713
C10 C -0.10525(17) 0.20082(16) -0.2442(2)
C11 C -0.16556(19) 0.20508(14) -0.3611(2)
H7 H -0.2259 0.2284 -0.3819
H8 H -0.1340 0.2316 -0.3922
C12 C -0.17861(19) 0.12789(17) -0.3927(3)
C13 C -0.13305(19) 0.08424(18) -0.3047(3)
C14 C -0.1349(2) 0.0104(2) -0.3091(3)
H9 H -0.1033 -0.0185 -0.2482
C15 C -0.1863(3) -0.0189(2) -0.4090(5)
H10 H -0.1915 -0.0694 -0.4161
C16 C -0.2301(3) 0.0231(2) -0.4987(4)
H11 H -0.2625 0.0011 -0.5655
C17 C -0.2264(2) 0.09604(19) -0.4904(3)
H12 H -0.2566 0.1248 -0.5516
C18 C -0.2278(2) 0.34319(18) 0.1658(3)
H13 H -0.2247 0.3955 0.1633
H14 H -0.2910 0.3271 0.1154
H15 H -0.2116 0.3282 0.2363
C19 C -0.1603(2) 0.31078(19) 0.1386(2)
C20 C -0.1511(2) 0.2378(2) 0.1365(3)
H16 H -0.1891 0.2078 0.1512
C21 C -0.0873(2) 0.20641(18) 0.1134(3)
H17 H -0.0825 0.1558 0.1122
C22 C -0.03198(18) 0.2492(2) 0.0923(2)
C23 C -0.0398(2) 0.3209(2) 0.0937(3)
H18 H -0.0013 0.3506 0.0793
C24 C -0.1033(2) 0.35174(18) 0.1161(3)
H19 H -0.1079 0.4024 0.1160
loop_
_geom_bond_atom_site_label_1
_geom_bond_atom_site_label_2
_geom_bond_site_symmetry_1
_geom_bond_site_symmetry_2
S1 O1 1_555 1_555
O2 S1 1_555 1_555
N1 C9 1_555 1_555
C1 H1 1_555 1_555
C2 C1 1_555 1_555
H2 C2 1_555 1_555
C3 C2 1_555 1_555
H3 C3 1_555 1_555
C4 C3 1_555 1_555
H4 C4 1_555 1_555
C5 C4 1_555 1_555
H5 C5 1_555 1_555
C6 C1 1_555 1_555
C7 C6 1_555 1_555
C8 S1 1_555 1_555
C9 C8 1_555 1_555
H6 C9 1_555 1_555
C10 N1 1_555 1_555
C11 C10 1_555 1_555
H7 C11 1_555 1_555
H8 C11 1_555 1_555
C12 C11 1_555 1_555
C13 N1 1_555 1_555
C14 C13 1_555 1_555
H9 C14 1_555 1_555
C15 C14 1_555 1_555
H10 C15 1_555 1_555
C16 C15 1_555 1_555
H11 C16 1_555 1_555
C17 C12 1_555 1_555
H12 C17 1_555 1_555
C18 H13 1_555 1_555
H14 C18 1_555 1_555
H15 C18 1_555 1_555
C19 C18 1_555 1_555
C20 C19 1_555 1_555
H16 C20 1_555 1_555
C21 C20 1_555 1_555
H17 C21 1_555 1_555
C22 S1 1_555 1_555
C23 C22 1_555 1_555
H18 C23 1_555 1_555
C24 C19 1_555 1_555
H19 C24 1_555 1_555
C5 C6 1_555 1_555
C7 C8 1_555 1_555
C7 C10 1_555 1_555
C12 C13 1_555 1_555
C16 C17 1_555 1_555
C21 C22 1_555 1_555
C23 C24 1_555 1_555

#END
