
#######################################################################
#
#                 Cambridge Crystallographic Data Centre
#                                CCDC 
#
#######################################################################
#
# If this CIF has been generated from an entry in the Cambridge 
# Structural Database, then it will include bibliographic, chemical, 
# crystal, experimental, refinement or atomic coordinate data resulting 
# from the CCDC's data processing and validation procedures.
#
#######################################################################

data_WATJAF
_chemical_formula_moiety         'C13 H18 B10 S2'
_chemical_name_systematic        
2-methyl-4-(benzo[1,2-b:4,5-b']bisthien-2-yl)-1,2-dicarba-closo-dodecaborane(10)
_symmetry_cell_setting           triclinic
_symmetry_space_group_name_H-M   'P 1'
_symmetry_Int_Tables_number      1
_space_group_name_Hall           'P 1'
loop_
_symmetry_equiv_pos_site_id
_symmetry_equiv_pos_as_xyz
1 x,y,z
_cell_length_a                   7.8010(2)
_cell_length_b                   11.7472(3)
_cell_length_c                   20.3556(5)
_cell_angle_alpha                75.440(2)
_cell_angle_beta                 81.373(2)
_cell_angle_gamma                89.986(2)
_cell_volume                     1783.68
_exptl_crystal_colour            colorless
_exptl_crystal_description       block
_cell_formula_units_Z            4
loop_
_atom_site_label
_atom_site_type_symbol
_atom_site_fract_x
_atom_site_fract_y
_atom_site_fract_z
S1 S -0.0200(2) -0.08887(15) 0.71350(9)
S2 S -0.0002(2) -0.00004(17) 1.00022(9)
C1 C 0.3725(8) 0.1758(6) 0.4808(3)
C2 C 0.2991(8) 0.0620(6) 0.5447(3)
H1 H 0.3887 -0.0037 0.5671
C3 C 0.5664(9) 0.1881(10) 0.4550(4)
H2 H 0.5912 0.2577 0.4179
H3 H 0.6273 0.1940 0.4917
H4 H 0.6032 0.1204 0.4390
C4 C 0.0961(8) 0.0440(6) 0.6772(3)
C5 C 0.1366(8) 0.0948(6) 0.7268(3)
H5 H 0.2009 0.1654 0.7166
C6 C 0.0723(8) 0.0304(6) 0.7953(3)
C7 C -0.0164(8) -0.0760(5) 0.7965(3)
C8 C -0.0927(8) -0.1533(6) 0.8565(4)
H6 H -0.1519 -0.2217 0.8559
C9 C -0.0778(8) -0.1251(5) 0.9189(3)
C10 C -0.1482(9) -0.1899(7) 0.9879(4)
H7 H -0.2095 -0.2618 0.9989
C11 C -0.1135(10) -0.1324(7) 1.0345(4)
H8 H -0.1482 -0.1621 1.0815
C12 C 0.0068(8) -0.0185(6) 0.9174(3)
C13 C 0.0833(8) 0.0591(6) 0.8572(3)
H9 H 0.1403 0.1283 0.8578
B1 B 0.3026(10) 0.1974(7) 0.5599(4)
H10 H 0.3897 0.2234 0.5919
B2 B 0.2542(12) 0.2963(8) 0.4854(4)
H11 H 0.3076 0.3874 0.4681
B3 B 0.2249(10) 0.2135(8) 0.4259(4)
H12 H 0.2587 0.2507 0.3701
B4 B 0.2559(11) 0.0642(7) 0.4645(4)
H13 H 0.3107 0.0037 0.4342
B5 B 0.1259(9) 0.0988(7) 0.5991(4)
B6 B 0.0950(11) 0.2492(8) 0.5583(4)
H14 H 0.0427 0.3104 0.5886
B7 B 0.0438(11) 0.2583(8) 0.4756(4)
H15 H -0.0432 0.3248 0.4520
B8 B 0.0458(10) 0.1135(8) 0.4623(4)
H16 H -0.0389 0.0853 0.4303
B9 B 0.0963(10) 0.0167(7) 0.5386(4)
H17 H 0.0457 -0.0751 0.5566
B10 B -0.0359(10) 0.1370(8) 0.5450(4)
H18 H -0.1746 0.1246 0.5665
S3 S 0.4774(2) 0.81934(16) 0.69559(10)
S4 S 0.5029(2) 0.57007(18) 1.00132(10)
C14 C 0.8704(8) 0.6406(6) 0.4970(4)
C15 C 0.8334(9) 0.7215(6) 0.5535(4)
H19 H 0.9362 0.7407 0.5811
C16 C 1.0512(10) 0.5935(8) 0.4865(5)
H20 H 1.0574 0.5484 0.4529
H21 H 1.1350 0.6581 0.4706
H22 H 1.0754 0.5443 0.5292
C17 C 0.5881(8) 0.7014(6) 0.6735(4)
C18 C 0.6269(8) 0.6232(6) 0.7303(4)
H23 H 0.6872 0.5556 0.7281
C19 C 0.5687(8) 0.6524(6) 0.7932(4)
C20 C 0.4820(8) 0.7603(6) 0.7830(3)
C21 C 0.4137(8) 0.8071(6) 0.8363(4)
H24 H 0.3602 0.8790 0.8280
C22 C 0.4265(8) 0.7441(6) 0.9029(4)
C23 C 0.3635(9) 0.7720(7) 0.9670(4)
H25 H 0.3071 0.8407 0.9701
C24 C 0.3952(10) 0.6880(7) 1.0220(4)
H26 H 0.3621 0.6929 1.0670
C25 C 0.5084(8) 0.6348(6) 0.9139(3)
C26 C 0.5817(8) 0.5887(6) 0.8601(4)
H27 H 0.6376 0.5177 0.8684
B11 B 0.7419(9) 0.5838(7) 0.5734(4)
H28 H 0.7799 0.5111 0.6136
B12 B 0.6919(10) 0.5589(8) 0.4976(4)
H29 H 0.6960 0.4710 0.4877
B13 B 0.7556(11) 0.6874(8) 0.4310(4)
H30 H 0.7997 0.6835 0.3777
B14 B 0.8499(11) 0.7903(7) 0.4672(4)
H31 H 0.9559 0.8528 0.4381
B15 B 0.6233(10) 0.6973(7) 0.5973(4)
B16 B 0.5280(10) 0.5955(7) 0.5591(4)
H32 H 0.4229 0.5325 0.5887
B17 B 0.5368(10) 0.6612(9) 0.4699(4)
H33 H 0.4364 0.6404 0.4416
B18 B 0.6354(12) 0.8046(8) 0.4512(5)
H34 H 0.5994 0.8777 0.4106
B19 B 0.6880(10) 0.8265(7) 0.5288(4)
H35 H 0.6878 0.9139 0.5392
B20 B 0.4942(11) 0.7490(8) 0.5304(4)
H36 H 0.3667 0.7861 0.5412
S5 S 0.8436(2) 0.31807(16) 0.03370(10)
S6 S 1.1339(2) 0.56766(18) -0.26976(10)
C27 C 0.6452(8) 0.4985(6) 0.2336(3)
C28 C 0.6893(8) 0.4175(6) 0.1778(3)
H37 H 0.5874 0.3956 0.1505
C29 C 0.4617(9) 0.5393(8) 0.2451(5)
H38 H 0.4526 0.5852 0.2783
H39 H 0.4335 0.5865 0.2025
H40 H 0.3826 0.4721 0.2617
C30 C 0.9289(8) 0.4378(6) 0.0569(4)
C31 C 1.0123(9) 0.5174(6) 0.0015(4)
H41 H 1.0682 0.5852 0.0050
C32 C 1.0085(8) 0.4901(6) -0.0628(3)
C33 C 0.9184(8) 0.3791(6) -0.0533(4)
C34 C 0.8976(8) 0.3325(6) -0.1079(4)
H42 H 0.8379 0.2609 -0.1008
C35 C 0.9687(8) 0.3962(6) -0.1734(4)
C36 C 0.9679(8) 0.3661(7) -0.2383(4)
H43 H 0.9145 0.2982 -0.2427
C37 C 1.0534(10) 0.4479(7) -0.2911(4)
H44 H 1.0682 0.4405 -0.3360
C38 C 1.0566(7) 0.5055(6) -0.1830(3)
C39 C 1.0770(8) 0.5533(6) -0.1293(4)
H45 H 1.1348 0.6258 -0.1371
B21 B 0.7682(10) 0.5563(7) 0.1556(4)
H46 H 0.7235 0.6258 0.1153
B22 B 0.8227(10) 0.5857(8) 0.2307(4)
H47 H 0.8167 0.6743 0.2396
B23 B 0.7636(11) 0.4562(8) 0.2985(4)
H48 H 0.7184 0.4602 0.3517
B24 B 0.6753(12) 0.3494(8) 0.2633(4)
H49 H 0.5727 0.2844 0.2928
B25 B 0.8970(9) 0.4429(7) 0.1338(4)
B26 B 0.9853(10) 0.5503(8) 0.1691(4)
H50 H 1.0858 0.6157 0.1381
B27 B 0.9827(11) 0.4872(9) 0.2590(5)
H51 H 1.0817 0.5108 0.2870
B28 B 0.8932(11) 0.3418(8) 0.2783(4)
H52 H 0.9353 0.2708 0.3185
B29 B 0.8387(11) 0.3157(8) 0.2023(4)
H53 H 0.8425 0.2274 0.1929
B30 B 1.0287(10) 0.4012(9) 0.1985(5)
H54 H 1.1595 0.3693 0.1868
S7 S 0.3433(2) 0.23111(16) 0.00529(10)
S8 S 0.6504(2) 0.14470(18) -0.27700(10)
C40 C 0.1481(8) -0.0355(7) 0.2416(4)
C41 C 0.2164(9) 0.0787(7) 0.1756(4)
H55 H 0.1262 0.1423 0.1517
C42 C -0.0454(9) -0.0493(10) 0.2677(5)
H56 H -0.0686 -0.1179 0.3055
H57 H -0.0838 0.0190 0.2826
H58 H -0.1062 -0.0578 0.2314
C43 C 0.4190(8) 0.0941(6) 0.0437(3)
C44 C 0.5033(8) 0.0417(6) -0.0040(4)
H59 H 0.5547 -0.0306 0.0075
C45 C 0.5050(8) 0.1092(6) -0.0737(4)
C46 C 0.5798(9) 0.0805(6) -0.1339(4)
H60 H 0.6355 0.0101 -0.1325
C47 C 0.5682(8) 0.1595(6) -0.1952(4)
C48 C 0.5795(9) 0.2808(7) -0.3148(4)
H61 H 0.5984 0.3135 -0.3620
C49 C 0.4932(9) 0.3361(7) -0.2693(4)
H62 H 0.4455 0.4094 -0.2819
C50 C 0.4841(8) 0.2680(6) -0.1992(4)
C51 C 0.4105(8) 0.2961(6) -0.1393(4)
H63 H 0.3541 0.3662 -0.1407
C52 C 0.4233(8) 0.2164(6) -0.0769(3)
B31 B 0.2177(10) -0.0589(7) 0.1635(4)
H64 H 0.1308 -0.0886 0.1328
B32 B 0.2690(11) -0.1538(8) 0.2378(5)
H65 H 0.2184 -0.2455 0.2557
B33 B 0.2955(10) -0.0688(8) 0.2963(4)
H66 H 0.2628 -0.1049 0.3522
B34 B 0.2573(11) 0.0783(8) 0.2574(4)
H67 H 0.1988 0.1381 0.2875
B35 B 0.3922(9) 0.0422(7) 0.1236(4)
B36 B 0.4293(11) -0.1053(8) 0.1638(5)
H68 H 0.4853 -0.1654 0.1335
B37 B 0.4788(10) -0.1120(8) 0.2475(5)
H69 H 0.5675 -0.1766 0.2716
B38 B 0.4711(10) 0.0320(8) 0.2589(4)
H70 H 0.5554 0.0621 0.2904
B39 B 0.4177(10) 0.1272(8) 0.1828(4)
H71 H 0.4649 0.2197 0.1648
B40 B 0.5545(10) 0.0097(8) 0.1769(4)
H72 H 0.6930 0.0248 0.1553
loop_
_geom_bond_atom_site_label_1
_geom_bond_atom_site_label_2
_geom_bond_site_symmetry_1
_geom_bond_site_symmetry_2
S1 C4 1_555 1_555
S2 C11 1_555 1_555
C1 C2 1_555 1_555
C2 H1 1_555 1_555
C3 C1 1_555 1_555
H2 C3 1_555 1_555
H3 C3 1_555 1_555
H4 C3 1_555 1_555
C4 C5 1_555 1_555
C5 H5 1_555 1_555
C6 C5 1_555 1_555
C7 S1 1_555 1_555
C8 C7 1_555 1_555
H6 C8 1_555 1_555
C9 C8 1_555 1_555
C10 C9 1_555 1_555
H7 C10 1_555 1_555
C11 C10 1_555 1_555
H8 C11 1_555 1_555
C12 S2 1_555 1_555
C13 C6 1_555 1_555
H9 C13 1_555 1_555
B1 C1 1_555 1_555
H10 B1 1_555 1_555
B2 C1 1_555 1_555
H11 B2 1_555 1_555
B3 C1 1_555 1_555
H12 B3 1_555 1_555
B4 C1 1_555 1_555
H13 B4 1_555 1_555
B5 C2 1_555 1_555
B6 B1 1_555 1_555
H14 B6 1_555 1_555
B7 B2 1_555 1_555
H15 B7 1_555 1_555
B8 B3 1_555 1_555
H16 B8 1_555 1_555
B9 C2 1_555 1_555
H17 B9 1_555 1_555
B10 B5 1_555 1_555
H18 B10 1_555 1_555
S3 C17 1_555 1_555
S4 C24 1_555 1_555
C14 C15 1_555 1_555
C15 H19 1_555 1_555
C16 C14 1_555 1_555
H20 C16 1_555 1_555
H21 C16 1_555 1_555
H22 C16 1_555 1_555
C17 C18 1_555 1_555
C18 H23 1_555 1_555
C19 C18 1_555 1_555
C20 S3 1_555 1_555
C21 C20 1_555 1_555
H24 C21 1_555 1_555
C22 C21 1_555 1_555
C23 C22 1_555 1_555
H25 C23 1_555 1_555
C24 C23 1_555 1_555
H26 C24 1_555 1_555
C25 S4 1_555 1_555
C26 C19 1_555 1_555
H27 C26 1_555 1_555
B11 C14 1_555 1_555
H28 B11 1_555 1_555
B12 C14 1_555 1_555
H29 B12 1_555 1_555
B13 C14 1_555 1_555
H30 B13 1_555 1_555
B14 C14 1_555 1_555
H31 B14 1_555 1_555
B15 C15 1_555 1_555
B16 B11 1_555 1_555
H32 B16 1_555 1_555
B17 B12 1_555 1_555
H33 B17 1_555 1_555
B18 B13 1_555 1_555
H34 B18 1_555 1_555
B19 C15 1_555 1_555
H35 B19 1_555 1_555
B20 B15 1_555 1_555
H36 B20 1_555 1_555
S5 C30 1_555 1_555
S6 C37 1_555 1_555
C27 C28 1_555 1_555
C28 H37 1_555 1_555
C29 C27 1_555 1_555
H38 C29 1_555 1_555
H39 C29 1_555 1_555
H40 C29 1_555 1_555
C30 C31 1_555 1_555
C31 H41 1_555 1_555
C32 C31 1_555 1_555
C33 S5 1_555 1_555
C34 C33 1_555 1_555
H42 C34 1_555 1_555
C35 C34 1_555 1_555
C36 C35 1_555 1_555
H43 C36 1_555 1_555
C37 C36 1_555 1_555
H44 C37 1_555 1_555
C38 S6 1_555 1_555
C39 C32 1_555 1_555
H45 C39 1_555 1_555
B21 C27 1_555 1_555
H46 B21 1_555 1_555
B22 C27 1_555 1_555
H47 B22 1_555 1_555
B23 C27 1_555 1_555
H48 B23 1_555 1_555
B24 C27 1_555 1_555
H49 B24 1_555 1_555
B25 C28 1_555 1_555
B26 B21 1_555 1_555
H50 B26 1_555 1_555
B27 B22 1_555 1_555
H51 B27 1_555 1_555
B28 B23 1_555 1_555
H52 B28 1_555 1_555
B29 C28 1_555 1_555
H53 B29 1_555 1_555
B30 B25 1_555 1_555
H54 B30 1_555 1_555
S7 C43 1_555 1_555
S8 C47 1_555 1_555
C40 C41 1_555 1_555
C41 H55 1_555 1_555
C42 C40 1_555 1_555
H56 C42 1_555 1_555
H57 C42 1_555 1_555
H58 C42 1_555 1_555
C43 C44 1_555 1_555
C44 H59 1_555 1_555
C45 C44 1_555 1_555
C46 C45 1_555 1_555
H60 C46 1_555 1_555
C47 C46 1_555 1_555
C48 S8 1_555 1_555
H61 C48 1_555 1_555
C49 C48 1_555 1_555
H62 C49 1_555 1_555
C50 C47 1_555 1_555
C51 C50 1_555 1_555
H63 C51 1_555 1_555
C52 S7 1_555 1_555
B31 C40 1_555 1_555
H64 B31 1_555 1_555
B32 C40 1_555 1_555
H65 B32 1_555 1_555
B33 C40 1_555 1_555
H66 B33 1_555 1_555
B34 C40 1_555 1_555
H67 B34 1_555 1_555
B35 C41 1_555 1_555
B36 B31 1_555 1_555
H68 B36 1_555 1_555
B37 B32 1_555 1_555
H69 B37 1_555 1_555
B38 B33 1_555 1_555
H70 B38 1_555 1_555
B39 C41 1_555 1_555
H71 B39 1_555 1_555
B40 B35 1_555 1_555
H72 B40 1_555 1_555
C2 B1 1_555 1_555
C2 B4 1_555 1_555
C4 B5 1_555 1_555
C6 C7 1_555 1_555
C9 C12 1_555 1_555
C12 C13 1_555 1_555
B1 B2 1_555 1_555
B1 B5 1_555 1_555
B2 B3 1_555 1_555
B2 B6 1_555 1_555
B3 B4 1_555 1_555
B3 B7 1_555 1_555
B4 B8 1_555 1_555
B4 B9 1_555 1_555
B5 B6 1_555 1_555
B5 B9 1_555 1_555
B6 B7 1_555 1_555
B6 B10 1_555 1_555
B7 B8 1_555 1_555
B7 B10 1_555 1_555
B8 B9 1_555 1_555
B8 B10 1_555 1_555
B9 B10 1_555 1_555
C15 B11 1_555 1_555
C15 B14 1_555 1_555
C17 B15 1_555 1_555
C19 C20 1_555 1_555
C22 C25 1_555 1_555
C25 C26 1_555 1_555
B11 B12 1_555 1_555
B11 B15 1_555 1_555
B12 B13 1_555 1_555
B12 B16 1_555 1_555
B13 B14 1_555 1_555
B13 B17 1_555 1_555
B14 B18 1_555 1_555
B14 B19 1_555 1_555
B15 B16 1_555 1_555
B15 B19 1_555 1_555
B16 B17 1_555 1_555
B16 B20 1_555 1_555
B17 B18 1_555 1_555
B17 B20 1_555 1_555
B18 B19 1_555 1_555
B18 B20 1_555 1_555
B19 B20 1_555 1_555
C28 B21 1_555 1_555
C28 B24 1_555 1_555
C30 B25 1_555 1_555
C32 C33 1_555 1_555
C35 C38 1_555 1_555
C38 C39 1_555 1_555
B21 B22 1_555 1_555
B21 B25 1_555 1_555
B22 B23 1_555 1_555
B22 B26 1_555 1_555
B23 B24 1_555 1_555
B23 B27 1_555 1_555
B24 B28 1_555 1_555
B24 B29 1_555 1_555
B25 B26 1_555 1_555
B25 B29 1_555 1_555
B26 B27 1_555 1_555
B26 B30 1_555 1_555
B27 B28 1_555 1_555
B27 B30 1_555 1_555
B28 B29 1_555 1_555
B28 B30 1_555 1_555
B29 B30 1_555 1_555
C41 B31 1_555 1_555
C41 B34 1_555 1_555
C43 B35 1_555 1_555
C45 C52 1_555 1_555
C49 C50 1_555 1_555
C51 C52 1_555 1_555
B31 B32 1_555 1_555
B31 B35 1_555 1_555
B32 B33 1_555 1_555
B32 B36 1_555 1_555
B33 B34 1_555 1_555
B33 B37 1_555 1_555
B34 B38 1_555 1_555
B34 B39 1_555 1_555
B35 B36 1_555 1_555
B35 B39 1_555 1_555
B36 B37 1_555 1_555
B36 B40 1_555 1_555
B37 B38 1_555 1_555
B37 B40 1_555 1_555
B38 B39 1_555 1_555
B38 B40 1_555 1_555
B39 B40 1_555 1_555

#END
