
#######################################################################
#
#                 Cambridge Crystallographic Data Centre
#                                CCDC 
#
#######################################################################
#
# If this CIF has been generated from an entry in the Cambridge 
# Structural Database, then it will include bibliographic, chemical, 
# crystal, experimental, refinement or atomic coordinate data resulting 
# from the CCDC's data processing and validation procedures.
#
#######################################################################

data_WATVAR
_chemical_name_common            (E)-Phenyl(1-phenyl-2-tosylvinyl)selane
_chemical_formula_moiety         'C21 H18 O2 S1 Se1'
_chemical_name_systematic        
'4-methylphenyl 2-phenyl-2-(phenylselanyl)vinyl sulfone'
_symmetry_cell_setting           monoclinic
_symmetry_space_group_name_H-M   'P 21/n'
_symmetry_Int_Tables_number      14
_space_group_name_Hall           '-P 2yn'
loop_
_symmetry_equiv_pos_site_id
_symmetry_equiv_pos_as_xyz
1 x,y,z
2 1/2-x,1/2+y,1/2-z
3 -x,-y,-z
4 1/2+x,1/2-y,1/2+z
_cell_length_a                   7.109
_cell_length_b                   18.078
_cell_length_c                   14.867
_cell_angle_alpha                90
_cell_angle_beta                 95.10
_cell_angle_gamma                90
_cell_volume                     1903.09
_exptl_crystal_colour            colorless
_exptl_crystal_description       block
_cell_formula_units_Z            4
loop_
_atom_site_label
_atom_site_type_symbol
_atom_site_fract_x
_atom_site_fract_y
_atom_site_fract_z
C1 C 0.2435(4) -0.05416(15) 0.16327(18)
C2 C 0.4153(4) 0.09262(15) 0.14380(19)
C3 C 0.1031(4) -0.11013(15) 0.12669(18)
C4 C 0.3694(4) -0.05808(17) 0.23441(19)
H1 H 0.4401 -0.0157 0.2486
C5 C 0.6962(5) 0.1823(2) 0.2238(3)
H2 H 0.7913 0.2121 0.2514
C6 C 0.5995(4) 0.0825(2) 0.1241(2)
H3 H 0.6296 0.0452 0.0848
C7 C 0.3729(4) 0.14760(17) 0.2034(2)
H4 H 0.2487 0.1547 0.2166
C8 C 0.1501(5) -0.16168(19) 0.0633(2)
H5 H 0.2735 -0.1645 0.0474
C9 C 0.0140(6) -0.2086(2) 0.0240(3)
H6 H 0.0463 -0.2431 -0.0184
C10 C 0.2834(4) -0.12007(18) 0.3977(2)
C11 C -0.2158(5) -0.1554(2) 0.1096(2)
H7 H -0.3390 -0.1537 0.1260
C12 C -0.1676(5) -0.2052(2) 0.0466(2)
H8 H -0.2586 -0.2368 0.0191
C13 C 0.0950(4) -0.1395(2) 0.3922(2)
H9 H 0.0375 -0.1615 0.3403
C14 C 0.7391(5) 0.1286(2) 0.1634(3)
H10 H 0.8628 0.1232 0.1488
C15 C 0.3691(5) -0.0880(2) 0.4750(2)
H11 H 0.4961 -0.0750 0.4785
C16 C 0.5140(5) 0.19173(19) 0.2433(3)
H12 H 0.4849 0.2283 0.2838
C17 C -0.0815(4) -0.10735(18) 0.1492(2)
H13 H -0.1156 -0.0729 0.1912
C18 C -0.0071(5) -0.1255(2) 0.4661(3)
H14 H -0.1341 -0.1386 0.4629
C19 C 0.0742(6) -0.0931(2) 0.5435(3)
C20 C -0.0423(7) -0.0782(3) 0.6218(3)
H15 H -0.1697 -0.0944 0.6065
H16 H -0.0417 -0.0261 0.6345
H17 H 0.0106 -0.1046 0.6741
C21 C 0.2633(6) -0.0756(2) 0.5472(3)
H18 H 0.3214 -0.0548 0.5997
O1 O 0.6119(3) -0.12888(14) 0.33561(16)
O2 O 0.3503(3) -0.20101(12) 0.25872(16)
S1 S 0.41584(10) -0.13473(4) 0.30422(5)
Se1 Se 0.21819(4) 0.031941(16) 0.087680(19)
loop_
_geom_bond_atom_site_label_1
_geom_bond_atom_site_label_2
_geom_bond_site_symmetry_1
_geom_bond_site_symmetry_2
C1 C3 1_555 1_555
C2 C6 1_555 1_555
C3 C8 1_555 1_555
C4 C1 1_555 1_555
H1 C4 1_555 1_555
C5 H2 1_555 1_555
C6 H3 1_555 1_555
C7 C2 1_555 1_555
H4 C7 1_555 1_555
C8 H5 1_555 1_555
C9 C8 1_555 1_555
H6 C9 1_555 1_555
C10 C13 1_555 1_555
C11 H7 1_555 1_555
C12 C9 1_555 1_555
H8 C12 1_555 1_555
C13 H9 1_555 1_555
C14 C5 1_555 1_555
H10 C14 1_555 1_555
C15 C10 1_555 1_555
H11 C15 1_555 1_555
C16 C5 1_555 1_555
H12 C16 1_555 1_555
C17 C3 1_555 1_555
H13 C17 1_555 1_555
C18 C13 1_555 1_555
H14 C18 1_555 1_555
C19 C18 1_555 1_555
C20 C19 1_555 1_555
H15 C20 1_555 1_555
H16 C20 1_555 1_555
H17 C20 1_555 1_555
C21 C15 1_555 1_555
H18 C21 1_555 1_555
O1 S1 1_555 1_555
O2 S1 1_555 1_555
S1 C4 1_555 1_555
Se1 C1 1_555 1_555
C2 Se1 1_555 1_555
C6 C14 1_555 1_555
C7 C16 1_555 1_555
C10 S1 1_555 1_555
C11 C12 1_555 1_555
C11 C17 1_555 1_555
C19 C21 1_555 1_555

#END
