
#######################################################################
#
#                 Cambridge Crystallographic Data Centre
#                                CCDC 
#
#######################################################################
#
# If this CIF has been generated from an entry in the Cambridge 
# Structural Database, then it will include bibliographic, chemical, 
# crystal, experimental, refinement or atomic coordinate data resulting 
# from the CCDC's data processing and validation procedures.
#
#######################################################################

data_WATZUP
_chemical_formula_moiety         'C21 H22 Cl1 F3 N2 O3 S1'
_chemical_name_systematic        
N-(2-((4-chloro-2-(trifluoromethyl)phenyl)sulfamoyl)cyclohexyl)-2-methylbenzamide
_symmetry_cell_setting           monoclinic
_symmetry_space_group_name_H-M   'P 21/n'
_symmetry_Int_Tables_number      14
_space_group_name_Hall           '-P 2yn'
loop_
_symmetry_equiv_pos_site_id
_symmetry_equiv_pos_as_xyz
1 x,y,z
2 1/2-x,1/2+y,1/2-z
3 -x,-y,-z
4 1/2+x,1/2-y,1/2+z
_cell_length_a                   9.6923(9)
_cell_length_b                   23.8041(16)
_cell_length_c                   10.0511(8)
_cell_angle_alpha                90
_cell_angle_beta                 109.123(9)
_cell_angle_gamma                90
_cell_volume                     2190.99
_exptl_crystal_colour            colorless
_exptl_crystal_description       block
_cell_formula_units_Z            4
loop_
_atom_site_label
_atom_site_type_symbol
_atom_site_fract_x
_atom_site_fract_y
_atom_site_fract_z
Cl1 Cl 0.35916(11) 0.02380(4) 1.11293(9)
S1 S 0.02418(7) 0.21128(2) 0.57188(6)
F1 F -0.1128(2) -0.00089(8) 0.7048(2)
F2 F -0.2212(2) 0.07802(9) 0.6594(3)
F3 F -0.0795(2) 0.05250(8) 0.54895(19)
O1 O 0.2228(2) 0.27911(10) 0.2388(3)
O2 O -0.0721(2) 0.25836(7) 0.53684(19)
O3 O 0.1785(2) 0.22020(8) 0.6309(2)
N1 N 0.0141(2) 0.24966(9) 0.2687(2)
H1 H -0.0681 0.2444 0.1953
N2 N -0.0315(2) 0.17333(8) 0.6792(2)
H2 H -0.1044 0.1517 0.6247
C1 C -0.0883(4) 0.42721(15) 0.2017(5)
H3 H -0.1118 0.4525 0.2616
C2 C -0.1221(5) 0.43886(18) 0.0639(6)
H4 H -0.1669 0.4728 0.0291
C3 C -0.0914(4) 0.4013(2) -0.0262(4)
H5 H -0.1168 0.4102 -0.1213
C4 C -0.0227(3) 0.34998(14) 0.0217(3)
C5 C 0.0053(4) 0.3075(2) -0.0751(4)
H6 H 0.1060 0.2962 -0.0405
H7 H -0.0161 0.3235 -0.1674
H8 H -0.0558 0.2753 -0.0800
C6 C 0.0154(3) 0.33990(11) 0.1657(3)
C7 C -0.0188(3) 0.37768(13) 0.2533(3)
H9 H 0.0055 0.3696 0.3488
C8 C 0.0941(3) 0.28736(12) 0.2266(3)
C9 C 0.0701(3) 0.19358(12) 0.3185(3)
H10 H 0.1749 0.1966 0.3700
C10 C 0.0482(4) 0.15284(14) 0.1955(4)
H11 H 0.0912 0.1688 0.1294
H12 H 0.0987 0.1180 0.2307
C11 C -0.1113(5) 0.14045(16) 0.1194(3)
H13 H -0.1193 0.1132 0.0454
H14 H -0.1599 0.1746 0.0756
C12 C -0.1869(4) 0.11772(14) 0.2184(3)
H15 H -0.1466 0.0812 0.2532
H16 H -0.2902 0.1130 0.1676
C13 C -0.1672(3) 0.15751(11) 0.3428(3)
H17 H -0.2175 0.1926 0.3093
H18 H -0.2098 0.1408 0.4084
C14 C -0.0056(3) 0.16904(10) 0.4177(2)
H19 H 0.0404 0.1326 0.4497
C15 C 0.0624(3) 0.13650(10) 0.7825(2)
C16 C 0.0316(3) 0.07923(10) 0.7847(3)
C17 C -0.0963(3) 0.05307(12) 0.6757(3)
C18 C 0.1225(3) 0.04538(11) 0.8891(3)
H20 H 0.1010 0.0074 0.8928
C19 C 0.2442(3) 0.06782(12) 0.9872(3)
C20 C 0.2756(3) 0.12404(12) 0.9872(3)
H21 H 0.3577 0.1390 1.0546
C21 C 0.1833(3) 0.15791(11) 0.8853(2)
H22 H 0.2029 0.1962 0.8858
loop_
_geom_bond_atom_site_label_1
_geom_bond_atom_site_label_2
_geom_bond_site_symmetry_1
_geom_bond_site_symmetry_2
Cl1 C19 1_555 1_555
S1 O2 1_555 1_555
F1 C17 1_555 1_555
F2 C17 1_555 1_555
F3 C17 1_555 1_555
O1 C8 1_555 1_555
O3 S1 1_555 1_555
N1 H1 1_555 1_555
N2 S1 1_555 1_555
H2 N2 1_555 1_555
C1 H3 1_555 1_555
C2 C1 1_555 1_555
H4 C2 1_555 1_555
C3 C2 1_555 1_555
H5 C3 1_555 1_555
C4 C3 1_555 1_555
C5 C4 1_555 1_555
H6 C5 1_555 1_555
H7 C5 1_555 1_555
H8 C5 1_555 1_555
C6 C4 1_555 1_555
C7 C1 1_555 1_555
H9 C7 1_555 1_555
C8 N1 1_555 1_555
C9 N1 1_555 1_555
H10 C9 1_555 1_555
C10 C9 1_555 1_555
H11 C10 1_555 1_555
H12 C10 1_555 1_555
C11 C10 1_555 1_555
H13 C11 1_555 1_555
H14 C11 1_555 1_555
C12 C11 1_555 1_555
H15 C12 1_555 1_555
H16 C12 1_555 1_555
C13 C12 1_555 1_555
H17 C13 1_555 1_555
H18 C13 1_555 1_555
C14 S1 1_555 1_555
H19 C14 1_555 1_555
C15 N2 1_555 1_555
C16 C15 1_555 1_555
C17 C16 1_555 1_555
C18 C16 1_555 1_555
H20 C18 1_555 1_555
C19 C18 1_555 1_555
C20 C19 1_555 1_555
H21 C20 1_555 1_555
C21 C15 1_555 1_555
H22 C21 1_555 1_555
C6 C7 1_555 1_555
C6 C8 1_555 1_555
C9 C14 1_555 1_555
C13 C14 1_555 1_555
C20 C21 1_555 1_555

#END
