
#######################################################################
#
#                 Cambridge Crystallographic Data Centre
#                                CCDC 
#
#######################################################################
#
# If this CIF has been generated from an entry in the Cambridge 
# Structural Database, then it will include bibliographic, chemical, 
# crystal, experimental, refinement or atomic coordinate data resulting 
# from the CCDC's data processing and validation procedures.
#
#######################################################################

data_WAVCON
_chemical_formula_moiety         'C29 H25 B1 F6 N2 O1,C2 H6 O1'
_chemical_name_systematic        
'diphenyl-[((R*,S*)-2,8-bis(trifluoromethyl)quinolin-4-yl)-(piperidin-2-yl)methanolato]-boron ethanol solvate'
_symmetry_cell_setting           orthorhombic
_symmetry_space_group_name_H-M   'P n a 21'
_symmetry_Int_Tables_number      33
_space_group_name_Hall           'P 2c -2n'
loop_
_symmetry_equiv_pos_site_id
_symmetry_equiv_pos_as_xyz
1 x,y,z
2 -x,-y,1/2+z
3 1/2-x,1/2+y,1/2+z
4 1/2+x,1/2-y,z
_cell_length_a                   19.8427(6)
_cell_length_b                   10.0224(2)
_cell_length_c                   14.0899(4)
_cell_angle_alpha                90
_cell_angle_beta                 90
_cell_angle_gamma                90
_cell_volume                     2802.08
_exptl_crystal_colour            colorless
_exptl_crystal_description       block
_cell_formula_units_Z            4
loop_
_atom_site_label
_atom_site_type_symbol
_atom_site_fract_x
_atom_site_fract_y
_atom_site_fract_z
B1 B 0.91756(17) 0.1624(3) 0.3207(2)
N1 N 1.14799(12) -0.2891(2) 0.34788(17)
N2 N 0.87037(12) 0.0373(3) 0.27553(19)
H1 H 0.8428(18) 0.013(3) 0.322(2)
O1 O 0.98129(10) 0.08937(19) 0.33789(15)
F1 F 1.24825(10) -0.0680(2) 0.39282(15)
F2 F 1.25875(9) -0.1838(2) 0.26826(15)
F3 F 1.21392(10) 0.0086(2) 0.2597(2)
F4 F 1.13043(10) -0.70138(18) 0.38301(17)
F5 F 1.18776(10) -0.5419(2) 0.44448(17)
F6 F 1.17804(11) -0.5579(2) 0.29284(16)
C1 C 1.14821(15) -0.1599(3) 0.3309(2)
C2 C 1.09146(15) -0.0766(3) 0.3298(2)
H2 H 1.0958 0.0157 0.3158
C3 C 1.02991(14) -0.1306(3) 0.3494(2)
C4 C 1.02566(14) -0.2694(3) 0.3688(2)
C5 C 0.96400(15) -0.3353(3) 0.3922(2)
H3 H 0.9237 -0.2848 0.3982
C6 C 0.96243(15) -0.4700(3) 0.4059(2)
H4 H 0.9210 -0.5127 0.4208
C7 C 1.02137(16) -0.5457(3) 0.3981(2)
H5 H 1.0192 -0.6397 0.4060
C8 C 1.08212(15) -0.4870(3) 0.3793(2)
C9 C 1.08643(15) -0.3456(3) 0.3661(2)
C10 C 0.96652(15) -0.0474(3) 0.3487(2)
H6 H 0.9419 -0.0609 0.4099
C11 C 0.91841(15) -0.0777(3) 0.2657(2)
H7 H 0.8945 -0.1642 0.2765
C12 C 0.95378(16) -0.0784(3) 0.1695(2)
H8 H 0.9806 -0.1613 0.1633
H9 H 0.9852 -0.0018 0.1660
C13 C 0.90335(18) -0.0700(3) 0.0877(2)
H10 H 0.9277 -0.0682 0.0264
H11 H 0.8736 -0.1493 0.0883
C14 C 0.86151(17) 0.0554(3) 0.0982(2)
H12 H 0.8283 0.0602 0.0459
H13 H 0.8912 0.1345 0.0937
C15 C 0.82468(15) 0.0575(3) 0.1925(2)
H14 H 0.8013 0.1443 0.1995
H15 H 0.7900 -0.0134 0.1925
C16 C 1.21739(16) -0.1006(3) 0.3126(2)
C17 C 1.14378(17) -0.5707(3) 0.3750(3)
C18 C 0.88164(15) 0.2085(3) 0.4185(2)
C19 C 0.91883(15) 0.2169(3) 0.5027(2)
H16 H 0.9643 0.1875 0.5030
C20 C 0.89113(16) 0.2671(3) 0.5860(2)
H17 H 0.9180 0.2725 0.6417
C21 C 0.82483(17) 0.3092(3) 0.5885(2)
H18 H 0.8062 0.3452 0.6451
C22 C 0.78586(16) 0.2979(3) 0.5067(2)
H19 H 0.7400 0.3249 0.5075
C23 C 0.81387(15) 0.2477(3) 0.4243(2)
H20 H 0.7862 0.2393 0.3696
C24 C 0.92944(15) 0.2832(3) 0.2461(2)
C25 C 0.99243(17) 0.3033(3) 0.2042(2)
H21 H 1.0269 0.2389 0.2136
C26 C 1.00591(19) 0.4148(4) 0.1492(2)
H22 H 1.0496 0.4273 0.1232
C27 C 0.95553(19) 0.5085(3) 0.1321(2)
H23 H 0.9647 0.5852 0.0946
C28 C 0.89294(18) 0.4894(3) 0.1696(2)
H24 H 0.8580 0.5514 0.1563
C29 C 0.87981(17) 0.3788(3) 0.2275(2)
H25 H 0.8363 0.3686 0.2547
O2 O 0.30689(13) 0.6240(2) 0.42431(16)
H26 H 0.2715 0.6658 0.4106
C30 C 0.3105(3) 0.6054(4) 0.5257(3)
H27 H 0.2655 0.5781 0.5487
H28 H 0.3420 0.5310 0.5388
C31 C 0.3314(16) 0.7167(17) 0.5782(8)
H29 H 0.327(6) 0.706(10) 0.655(8)
H30 H 0.301(6) 0.800(11) 0.551(8)
H31 H 0.386(6) 0.665(10) 0.551(8)
C32? C 0.2892(14) 0.7171(14) 0.5764(10)
H32? H 0.2930 0.6992 0.6446
H33? H 0.2422 0.7368 0.5605
H34? H 0.3175 0.7938 0.5599
loop_
_geom_bond_atom_site_label_1
_geom_bond_atom_site_label_2
_geom_bond_site_symmetry_1
_geom_bond_site_symmetry_2
B1 N2 1_555 1_555
N1 C1 1_555 1_555
N2 H1 1_555 1_555
O1 B1 1_555 1_555
F1 C16 1_555 1_555
F2 C16 1_555 1_555
F3 C16 1_555 1_555
F4 C17 1_555 1_555
F5 C17 1_555 1_555
F6 C17 1_555 1_555
C1 C2 1_555 1_555
C2 H2 1_555 1_555
C3 C2 1_555 1_555
C4 C3 1_555 1_555
C5 C4 1_555 1_555
H3 C5 1_555 1_555
C6 C5 1_555 1_555
H4 C6 1_555 1_555
C7 C6 1_555 1_555
H5 C7 1_555 1_555
C8 C7 1_555 1_555
C9 N1 1_555 1_555
C10 O1 1_555 1_555
H6 C10 1_555 1_555
C11 N2 1_555 1_555
H7 C11 1_555 1_555
C12 C11 1_555 1_555
H8 C12 1_555 1_555
H9 C12 1_555 1_555
C13 C12 1_555 1_555
H10 C13 1_555 1_555
H11 C13 1_555 1_555
C14 C13 1_555 1_555
H12 C14 1_555 1_555
H13 C14 1_555 1_555
C15 N2 1_555 1_555
H14 C15 1_555 1_555
H15 C15 1_555 1_555
C16 C1 1_555 1_555
C17 C8 1_555 1_555
C18 B1 1_555 1_555
C19 C18 1_555 1_555
H16 C19 1_555 1_555
C20 C19 1_555 1_555
H17 C20 1_555 1_555
C21 C20 1_555 1_555
H18 C21 1_555 1_555
C22 C21 1_555 1_555
H19 C22 1_555 1_555
C23 C18 1_555 1_555
H20 C23 1_555 1_555
C24 B1 1_555 1_555
C25 C24 1_555 1_555
H21 C25 1_555 1_555
C26 C25 1_555 1_555
H22 C26 1_555 1_555
C27 C26 1_555 1_555
H23 C27 1_555 1_555
C28 C27 1_555 1_555
H24 C28 1_555 1_555
C29 C24 1_555 1_555
H25 C29 1_555 1_555
O2 H26 1_555 1_555
C30 O2 1_555 1_555
H27 C30 1_555 1_555
H28 C30 1_555 1_555
C31 C30 1_555 1_555
H29 C31 1_555 1_555
H30 C31 1_555 1_555
H31 C31 1_555 1_555
C3 C10 1_555 1_555
C4 C9 1_555 1_555
C8 C9 1_555 1_555
C10 C11 1_555 1_555
C14 C15 1_555 1_555
C22 C23 1_555 1_555
C28 C29 1_555 1_555

#END
