
#######################################################################
#
#                 Cambridge Crystallographic Data Centre
#                                CCDC 
#
#######################################################################
#
# If this CIF has been generated from an entry in the Cambridge 
# Structural Database, then it will include bibliographic, chemical, 
# crystal, experimental, refinement or atomic coordinate data resulting 
# from the CCDC's data processing and validation procedures.
#
#######################################################################

data_WAVHUX
_chemical_formula_moiety         'C33 H36 N4'
_chemical_name_systematic        
4,4'-Methylene-N,N'-bis(2-pyridylmethylene)-bis(2-isopropyl-6-methylaniline)
_symmetry_cell_setting           monoclinic
_symmetry_space_group_name_H-M   'C 2/c'
_symmetry_Int_Tables_number      15
_space_group_name_Hall           '-C 2yn'
loop_
_symmetry_equiv_pos_site_id
_symmetry_equiv_pos_as_xyz
1 x,y,z
2 1/2+x,1/2+y,z
3 -x,y,1/2-z
4 1/2-x,1/2+y,1/2-z
5 -x,-y,-z
6 1/2-x,1/2-y,-z
7 x,-y,1/2+z
8 1/2+x,1/2-y,1/2+z
_cell_length_a                   14.4681(7)
_cell_length_b                   9.5641(4)
_cell_length_c                   21.7672(6)
_cell_angle_alpha                90
_cell_angle_beta                 99.846(2)
_cell_angle_gamma                90
_cell_volume                     2967.66
_exptl_crystal_colour            yellow
_chemical_melting_point          152-154deg.C
_cell_formula_units_Z            4
_exptl_crystal_recrystallization_method hexane
loop_
_atom_site_label
_atom_site_type_symbol
_atom_site_fract_x
_atom_site_fract_y
_atom_site_fract_z
N1 N 0.2604(2) 0.0535(3) 0.37895(14)
N2 N 0.1797(4) 0.0739(5) 0.5231(2)
C1 C 0.4166(3) 0.1192(4) 0.36098(16)
C2 C 0.3190(3) 0.1381(4) 0.34689(15)
C3 C 0.2785(3) 0.2308(4) 0.30012(15)
C4 C 0.3388(3) 0.3090(4) 0.26904(16)
H1 H 0.312(3) 0.374(4) 0.2340(18)
C5 C 0.4354(3) 0.2954(4) 0.28307(16)
C6 C 0.4730(3) 0.1983(4) 0.32918(17)
H2 H 0.542(3) 0.184(4) 0.3387(16)
C7 C 0.5000 0.3814(6) 0.2500
H3 H 0.538(3) 0.442(4) 0.2797(17)
C8 C 0.4606(5) 0.0167(6) 0.4102(2)
H4 H 0.458(3) 0.048(5) 0.455(2)
H5 H 0.431(4) -0.060(6) 0.412(2)
H6 H 0.536(6) 0.014(7) 0.416(3)
C9 C 0.1727(3) 0.2519(5) 0.28363(19)
H7 H 0.142(3) 0.178(4) 0.3063(18)
C10 C 0.1374(4) 0.2308(7) 0.2147(2)
H8 H 0.169(3) 0.303(5) 0.187(2)
H9 H 0.074(4) 0.235(5) 0.205(2)
H10 H 0.162(4) 0.142(6) 0.199(2)
C11 C 0.1445(4) 0.3956(7) 0.3051(4)
H11 H 0.163(3) 0.397(5) 0.354(3)
H12 H 0.078(4) 0.399(5) 0.298(2)
H13 H 0.177(5) 0.468(7) 0.281(3)
C12 C 0.2452(4) 0.0943(5) 0.4308(2)
H14 H 0.267(4) 0.178(6) 0.451(2)
C13 C 0.1889(3) 0.0146(5) 0.46942(19)
C14 C 0.1519(5) -0.1129(6) 0.4525(3)
H15 H 0.167(4) -0.149(5) 0.412(3)
C15 C 0.1013(6) -0.1805(7) 0.4918(3)
H16 H 0.071(5) -0.288(9) 0.478(3)
C16 C 0.0904(5) -0.1204(7) 0.5468(3)
H17 H 0.049(3) -0.163(5) 0.576(2)
C17 C 0.1299(5) 0.0054(7) 0.5599(3)
H18 H 0.124(3) 0.059(5) 0.596(2)
N1B N 0.7396(2) 0.0535(3) 0.12105(14)
N2B N 0.8203(4) 0.0739(5) -0.0231(2)
C1B C 0.5834(3) 0.1192(4) 0.13902(16)
C2B C 0.6810(3) 0.1381(4) 0.15311(15)
C3B C 0.7215(3) 0.2308(4) 0.19988(15)
C4B C 0.6612(3) 0.3090(4) 0.23096(16)
H1B H 0.688(3) 0.374(4) 0.2660(18)
C5B C 0.5646(3) 0.2954(4) 0.21693(16)
C6B C 0.5270(3) 0.1983(4) 0.17082(17)
H2B H 0.458(3) 0.184(4) 0.1613(16)
H3B H 0.462(3) 0.442(4) 0.2203(17)
C8B C 0.5394(5) 0.0167(6) 0.0898(2)
H4B H 0.542(3) 0.048(5) 0.045(2)
H5B H 0.569(4) -0.060(6) 0.088(2)
H6B H 0.464(6) 0.014(7) 0.084(3)
C9B C 0.8273(3) 0.2519(5) 0.21637(19)
H7B H 0.858(3) 0.178(4) 0.1937(18)
C10B C 0.8626(4) 0.2308(7) 0.2853(2)
H8B H 0.831(3) 0.303(5) 0.313(2)
H9B H 0.926(4) 0.235(5) 0.295(2)
H10B H 0.838(4) 0.142(6) 0.301(2)
C11B C 0.8555(4) 0.3956(7) 0.1949(4)
H11B H 0.837(3) 0.397(5) 0.146(3)
H12B H 0.922(4) 0.399(5) 0.202(2)
H13B H 0.823(5) 0.468(7) 0.219(3)
C12B C 0.7548(4) 0.0943(5) 0.0692(2)
H14B H 0.733(4) 0.178(6) 0.049(2)
C13B C 0.8111(3) 0.0146(5) 0.03058(19)
C14B C 0.8481(5) -0.1129(6) 0.0475(3)
H15B H 0.833(4) -0.149(5) 0.088(3)
C15B C 0.8987(6) -0.1805(7) 0.0082(3)
H16B H 0.929(5) -0.288(9) 0.022(3)
C16B C 0.9096(5) -0.1204(7) -0.0468(3)
H17B H 0.951(3) -0.163(5) -0.076(2)
C17B C 0.8701(5) 0.0054(7) -0.0599(3)
H18B H 0.876(3) 0.059(5) -0.096(2)
loop_
_geom_bond_atom_site_label_1
_geom_bond_atom_site_label_2
_geom_bond_site_symmetry_1
_geom_bond_site_symmetry_2
N1 C2 1_555 1_555
N2 C13 1_555 1_555
C1 C2 1_555 1_555
C2 C3 1_555 1_555
C3 C4 1_555 1_555
C4 H1 1_555 1_555
C5 C4 1_555 1_555
C6 C1 1_555 1_555
H2 C6 1_555 1_555
C7 C5 1_555 1_555
H3 C7 1_555 1_555
C8 C1 1_555 1_555
H4 C8 1_555 1_555
H5 C8 1_555 1_555
H6 C8 1_555 1_555
C9 C3 1_555 1_555
H7 C9 1_555 1_555
C10 C9 1_555 1_555
H8 C10 1_555 1_555
H9 C10 1_555 1_555
H10 C10 1_555 1_555
C11 C9 1_555 1_555
H11 C11 1_555 1_555
H12 C11 1_555 1_555
H13 C11 1_555 1_555
C12 N1 1_555 1_555
H14 C12 1_555 1_555
C13 C12 1_555 1_555
C14 C13 1_555 1_555
H15 C14 1_555 1_555
C15 C14 1_555 1_555
H16 C15 1_555 1_555
C16 C15 1_555 1_555
H17 C16 1_555 1_555
C17 N2 1_555 1_555
H18 C17 1_555 1_555
N1B C2B 1_555 1_555
N2B C13B 1_555 1_555
C1B C2B 1_555 1_555
C2B C3B 1_555 1_555
C3B C4B 1_555 1_555
C4B H1B 1_555 1_555
C5B C7 1_555 1_555
C6B C1B 1_555 1_555
H2B C6B 1_555 1_555
H3B C7 1_555 1_555
C8B C1B 1_555 1_555
H4B C8B 1_555 1_555
H5B C8B 1_555 1_555
H6B C8B 1_555 1_555
C9B C3B 1_555 1_555
H7B C9B 1_555 1_555
C10B C9B 1_555 1_555
H8B C10B 1_555 1_555
H9B C10B 1_555 1_555
H10B C10B 1_555 1_555
C11B C9B 1_555 1_555
H11B C11B 1_555 1_555
H12B C11B 1_555 1_555
H13B C11B 1_555 1_555
C12B N1B 1_555 1_555
H14B C12B 1_555 1_555
C13B C12B 1_555 1_555
C14B C13B 1_555 1_555
H15B C14B 1_555 1_555
C15B C14B 1_555 1_555
H16B C15B 1_555 1_555
C16B C15B 1_555 1_555
H17B C16B 1_555 1_555
C17B N2B 1_555 1_555
H18B C17B 1_555 1_555
C5 C6 1_555 1_555
C16 C17 1_555 1_555
C4B C5B 1_555 1_555
C5B C6B 1_555 1_555
C16B C17B 1_555 1_555

#END
