
#######################################################################
#
#                 Cambridge Crystallographic Data Centre
#                                CCDC 
#
#######################################################################
#
# If this CIF has been generated from an entry in the Cambridge 
# Structural Database, then it will include bibliographic, chemical, 
# crystal, experimental, refinement or atomic coordinate data resulting 
# from the CCDC's data processing and validation procedures.
#
#######################################################################

data_WAVHAE
_chemical_formula_moiety         'C34 H39 N3 O2 S1'
_chemical_name_systematic        
N-(3-(Biphenyl-4-yl)-1-cyclohexyl-4-(cyclohexylimino)azetidin-2-ylidene)-4-methylbenzenesulfonamide
_symmetry_cell_setting           triclinic
_symmetry_space_group_name_H-M   'P -1'
_symmetry_Int_Tables_number      2
_space_group_name_Hall           '-P 1'
loop_
_symmetry_equiv_pos_site_id
_symmetry_equiv_pos_as_xyz
1 x,y,z
2 -x,-y,-z
_cell_length_a                   11.069(2)
_cell_length_b                   11.566(2)
_cell_length_c                   12.627(3)
_cell_angle_alpha                86.47(3)
_cell_angle_beta                 85.08(3)
_cell_angle_gamma                72.08(3)
_cell_volume                     1531.41
_cell_formula_units_Z            2
loop_
_atom_site_label
_atom_site_type_symbol
_atom_site_fract_x
_atom_site_fract_y
_atom_site_fract_z
C1 C 1.0088(3) 0.8265(2) 0.08745(18)
C2 C 0.9519(2) 0.8983(2) 0.18913(17)
H1 H 0.9556 0.9820 0.1823
C3 C 0.8253(2) 0.8880(2) 0.15364(18)
C4 C 0.8337(2) 0.7802(2) -0.02099(18)
H2 H 0.7408 0.8046 -0.0083
C5 C 0.8636(3) 0.8331(2) -0.12786(17)
H3 H 0.9551 0.8155 -0.1403
H4 H 0.8260 0.9208 -0.1285
C6 C 0.8130(3) 0.7815(3) -0.21710(19)
H5 H 0.7207 0.8091 -0.2104
H6 H 0.8405 0.8121 -0.2852
C7 C 0.8593(3) 0.6439(3) -0.2140(2)
H7 H 0.8197 0.6145 -0.2678
H8 H 0.9506 0.6163 -0.2304
C8 C 0.8283(3) 0.5917(3) -0.1064(2)
H9 H 0.8645 0.5039 -0.1054
H10 H 0.7367 0.6110 -0.0936
C9 C 0.8810(3) 0.6429(2) -0.0189(2)
H11 H 0.8557 0.6116 0.0497
H12 H 0.9732 0.6161 -0.0275
C10 C 1.2274(2) 0.7871(2) 0.08572(18)
H13 H 1.2004 0.8439 0.1438
C11 C 1.3083(2) 0.8344(3) 0.0033(2)
H14 H 1.2595 0.9145 -0.0226
H15 H 1.3311 0.7811 -0.0564
C12 C 1.4288(3) 0.8425(3) 0.0474(2)
H16 H 1.4064 0.9035 0.1010
H17 H 1.4812 0.8676 -0.0094
C13 C 1.5046(3) 0.7204(3) 0.0964(3)
H18 H 1.5379 0.6626 0.0407
H19 H 1.5761 0.7304 0.1301
C14 C 1.4232(3) 0.6714(3) 0.1776(2)
H20 H 1.3988 0.7239 0.2378
H21 H 1.4719 0.5911 0.2030
C15 C 1.3035(2) 0.6636(3) 0.1301(2)
H22 H 1.3275 0.6057 0.0737
H23 H 1.2512 0.6348 0.1846
C16 C 0.9993(2) 0.8364(2) 0.29256(18)
C17 C 1.0520(2) 0.8933(2) 0.36223(18)
H24 H 1.0548 0.9720 0.3462
C18 C 1.1004(2) 0.8331(2) 0.45565(18)
H25 H 1.1358 0.8725 0.5007
C19 C 1.0971(2) 0.7163(2) 0.48320(18)
C20 C 1.0437(2) 0.6594(2) 0.41310(19)
H26 H 1.0399 0.5810 0.4293
C21 C 0.9963(2) 0.7195(3) 0.31964(19)
H27 H 0.9617 0.6800 0.2740
C22 C 1.1494(2) 0.6531(2) 0.58314(18)
C23 C 1.1532(2) 0.7178(2) 0.67076(19)
H28 H 1.1225 0.8023 0.6669
C24 C 1.2012(3) 0.6601(3) 0.7635(2)
H29 H 1.2021 0.7056 0.8215
C25 C 1.2479(3) 0.5358(3) 0.7706(2)
H30 H 1.2803 0.4969 0.8334
C26 C 1.2469(3) 0.4680(3) 0.6841(2)
H31 H 1.2785 0.3836 0.6884
C27 C 1.1983(3) 0.5272(3) 0.5915(2)
H32 H 1.1984 0.4817 0.5333
C28 C 0.6085(2) 0.9049(2) 0.38040(18)
C29 C 0.6914(3) 0.8505(3) 0.4568(2)
H33 H 0.7674 0.8686 0.4586
C30 C 0.6617(3) 0.7695(3) 0.5305(2)
H34 H 0.7178 0.7344 0.5825
C31 C 0.5505(3) 0.7384(3) 0.5297(2)
C32 C 0.4687(3) 0.7941(3) 0.4534(2)
H35 H 0.3928 0.7757 0.4519
C33 C 0.4955(3) 0.8768(3) 0.3788(2)
H36 H 0.4383 0.9134 0.3279
C34 C 0.5208(3) 0.6465(3) 0.6102(2)
H37 H 0.4702 0.6882 0.6699
H38 H 0.5988 0.5915 0.6337
H39 H 0.4746 0.6017 0.5779
N1 N 0.88403(18) 0.82794(18) 0.06505(15)
N2 N 0.7056(2) 0.91551(19) 0.18098(14)
N3 N 1.11333(19) 0.77704(19) 0.03925(15)
O1 O 0.53182(17) 1.09053(17) 0.24793(14)
O2 O 0.74270(17) 1.05054(16) 0.32068(13)
S1 S 0.64764(7) 1.00449(7) 0.28236(5)
loop_
_geom_bond_atom_site_label_1
_geom_bond_atom_site_label_2
_geom_bond_site_symmetry_1
_geom_bond_site_symmetry_2
C1 C2 1_555 1_555
C2 H1 1_555 1_555
C3 C2 1_555 1_555
C4 H2 1_555 1_555
C5 C4 1_555 1_555
H3 C5 1_555 1_555
H4 C5 1_555 1_555
C6 C5 1_555 1_555
H5 C6 1_555 1_555
H6 C6 1_555 1_555
C7 C6 1_555 1_555
H7 C7 1_555 1_555
H8 C7 1_555 1_555
C8 C7 1_555 1_555
H9 C8 1_555 1_555
H10 C8 1_555 1_555
C9 C4 1_555 1_555
H11 C9 1_555 1_555
H12 C9 1_555 1_555
C10 H13 1_555 1_555
C11 C10 1_555 1_555
H14 C11 1_555 1_555
H15 C11 1_555 1_555
C12 C11 1_555 1_555
H16 C12 1_555 1_555
H17 C12 1_555 1_555
C13 C12 1_555 1_555
H18 C13 1_555 1_555
H19 C13 1_555 1_555
C14 C13 1_555 1_555
H20 C14 1_555 1_555
H21 C14 1_555 1_555
C15 C10 1_555 1_555
H22 C15 1_555 1_555
H23 C15 1_555 1_555
C16 C2 1_555 1_555
C17 C16 1_555 1_555
H24 C17 1_555 1_555
C18 C17 1_555 1_555
H25 C18 1_555 1_555
C19 C18 1_555 1_555
C20 C19 1_555 1_555
H26 C20 1_555 1_555
C21 C16 1_555 1_555
H27 C21 1_555 1_555
C22 C19 1_555 1_555
C23 C22 1_555 1_555
H28 C23 1_555 1_555
C24 C23 1_555 1_555
H29 C24 1_555 1_555
C25 C24 1_555 1_555
H30 C25 1_555 1_555
C26 C25 1_555 1_555
H31 C26 1_555 1_555
C27 C22 1_555 1_555
H32 C27 1_555 1_555
C28 C29 1_555 1_555
C29 H33 1_555 1_555
C30 C29 1_555 1_555
H34 C30 1_555 1_555
C31 C30 1_555 1_555
C32 C31 1_555 1_555
H35 C32 1_555 1_555
C33 C28 1_555 1_555
H36 C33 1_555 1_555
C34 C31 1_555 1_555
H37 C34 1_555 1_555
H38 C34 1_555 1_555
H39 C34 1_555 1_555
N1 C1 1_555 1_555
N2 C3 1_555 1_555
N3 C1 1_555 1_555
O1 S1 1_555 1_555
O2 S1 1_555 1_555
S1 C28 1_555 1_555
C3 N1 1_555 1_555
C4 N1 1_555 1_555
C8 C9 1_555 1_555
C10 N3 1_555 1_555
C14 C15 1_555 1_555
C20 C21 1_555 1_555
C26 C27 1_555 1_555
C32 C33 1_555 1_555
N2 S1 1_555 1_555

#END
