
#######################################################################
#
#                 Cambridge Crystallographic Data Centre
#                                CCDC 
#
#######################################################################
#
# If this CIF has been generated from an entry in the Cambridge 
# Structural Database, then it will include bibliographic, chemical, 
# crystal, experimental, refinement or atomic coordinate data resulting 
# from the CCDC's data processing and validation procedures.
#
#######################################################################

data_WAVNIT
_chemical_compound_source        
'locust-associated actinobacteria Amycolatopsis sp. Hca4'
_chemical_name_common            'rifamorpholine B dihydrate'
_chemical_formula_moiety         'C35 H43 N1 O12,2(H2 O1)'
_chemical_name_systematic        
'2,13,15,17,28-pentahydroxy-11-methoxy-3,7,12,14,16,23-hexamethyl-8,31,32-trioxa-25-azahexacyclo[21.6.2.1^4,7^.0^5,29^.0^18,20^.0^26,30^]dotriaconta-1(29),2,4,9,26(30),27-hexaene-6,21,24-trione dihydrate'
_chemical_properties_biological  'tested for anti-bacterial activity'
_symmetry_cell_setting           monoclinic
_symmetry_space_group_name_H-M   'P 21'
_symmetry_Int_Tables_number      4
_space_group_name_Hall           'P 2yb'
loop_
_symmetry_equiv_pos_site_id
_symmetry_equiv_pos_as_xyz
1 x,y,z
2 -x,1/2+y,-z
_cell_length_a                   8.9022(5)
_cell_length_b                   14.9494(8)
_cell_length_c                   27.9430(16)
_cell_angle_alpha                90
_cell_angle_beta                 93.499(5)
_cell_angle_gamma                90
_cell_volume                     3711.79
_exptl_crystal_colour            yellow
_exptl_crystal_description       needle
_cell_formula_units_Z            4
loop_
_atom_site_label
_atom_site_type_symbol
_atom_site_fract_x
_atom_site_fract_y
_atom_site_fract_z
O1 O 0.4754(7) 0.8165(5) 0.5709(3)
O2 O 0.7260(8) 0.8614(5) 0.5683(2)
O3 O 0.7871(7) 1.0420(4) 0.4378(3)
O4 O 0.5246(8) 1.0682(5) 0.3861(3)
H1 H 0.608315 1.082681 0.397339
O5 O 0.1849(7) 0.9973(5) 0.4056(2)
H2 H 0.169453 0.944945 0.412680
O6 O 0.0068(8) 0.8576(5) 0.3710(2)
H3 H 0.041614 0.893120 0.391167
O7 O 0.1449(9) 0.6900(5) 0.2843(3)
O8 O 0.1416(7) 0.6478(5) 0.3851(2)
O9 O 0.1364(8) 0.4821(5) 0.2919(2)
O10 O 0.7122(7) 0.5789(5) 0.4656(3)
H4 H 0.724072 0.592856 0.493924
O11 O 0.0900(7) 0.7553(5) 0.4546(2)
H5 H 0.079971 0.736361 0.427034
O12 O 0.7678(7) 0.6643(5) 0.5477(2)
N1 N 0.3270(9) 0.5272(6) 0.3444(3)
H6 H 0.392898 0.501005 0.328029
C1 C 0.6364(10) 0.7895(6) 0.5802(3)
C2 C 0.7572(10) 0.8712(7) 0.5210(3)
H7 H 0.826701 0.830772 0.508231
C3 C 0.6966(11) 0.9337(7) 0.4919(3)
H8 H 0.616891 0.969480 0.502480
C4 C 0.7521(10) 0.9491(7) 0.4422(3)
H9 H 0.847721 0.914692 0.440002
C5 C 0.9130(11) 1.0699(7) 0.4696(4)
H10 H 0.941214 1.131372 0.461820
H11 H 0.998721 1.030043 0.465542
H12 H 0.884306 1.067196 0.502829
C6 C 0.6443(11) 0.9203(6) 0.4002(4)
H13 H 0.697618 0.932269 0.370366
C7 C 0.4991(10) 0.9752(7) 0.3960(4)
H14 H 0.452238 0.971630 0.427575
C8 C 0.3809(11) 0.9426(7) 0.3571(3)
H15 H 0.351967 0.880102 0.365493
C9 C 0.2387(10) 1.0010(7) 0.3576(3)
H16 H 0.268881 1.064180 0.351379
C10 C 0.1087(11) 0.9774(7) 0.3218(4)
H17 H 0.146642 0.985483 0.289120
C11 C 0.0603(11) 0.8797(7) 0.3253(3)
H18 H 0.148383 0.840568 0.319352
C12 C -0.0688(11) 0.8552(6) 0.2899(3)
H19 H -0.162715 0.890610 0.293592
C13 C -0.0958(13) 0.7595(7) 0.2731(4)
H20 H -0.203225 0.740469 0.267838
C14 C 0.0106(12) 0.6912(7) 0.2929(4)
C15 C -0.0521(11) 0.6214(6) 0.3252(4)
H21 H -0.106049 0.575640 0.305170
H22 H -0.126171 0.650180 0.345297
C16 C 0.0688(10) 0.5746(6) 0.3583(3)
C17 C 0.2811(10) 0.6279(6) 0.4082(3)
C18 C 0.3737(11) 0.5691(7) 0.3868(3)
C19 C 0.1805(11) 0.5261(7) 0.3279(3)
C20 C 0.5175(11) 0.5538(7) 0.4080(3)
H23 H 0.582415 0.512770 0.393547
C21 C 0.5669(10) 0.5968(7) 0.4493(3)
C22 C 0.4735(10) 0.6566(7) 0.4723(4)
C23 C 0.5174(10) 0.7061(6) 0.5145(3)
C24 C 0.4213(10) 0.7705(6) 0.5327(3)
C25 C 0.2756(10) 0.7883(7) 0.5123(3)
C26 C 0.2324(10) 0.7407(6) 0.4724(3)
C27 C 0.3253(10) 0.6738(6) 0.4506(3)
C28 C 0.1773(12) 0.8576(7) 0.5333(4)
H24 H 0.166583 0.908816 0.511396
H25 H 0.223043 0.877504 0.564234
H26 H 0.077934 0.831919 0.537831
C29 C 0.6501(10) 0.7106(6) 0.5460(3)
C30 C 0.0001(12) 0.5102(7) 0.3923(4)
H27 H 0.079236 0.485506 0.414379
H28 H -0.049773 0.461529 0.374021
H29 H -0.073912 0.541824 0.410644
C31 C -0.0422(14) 0.8302(8) 0.2396(4)
H30 H 0.063415 0.826708 0.230530
H31 H -0.114665 0.852208 0.214045
C32 C -0.0186(11) 1.0454(7) 0.3263(4)
H32 H -0.099259 1.033273 0.301705
H33 H 0.020378 1.105985 0.321904
H34 H -0.058270 1.040469 0.358137
C33 C 0.4431(12) 0.9404(8) 0.3075(3)
H35 H 0.538466 0.907492 0.308959
H36 H 0.459995 1.001686 0.296579
H37 H 0.370706 0.910585 0.284926
C34 C 0.6184(12) 0.8213(7) 0.4017(4)
H38 H 0.715455 0.790308 0.405017
H39 H 0.563481 0.802237 0.371998
H40 H 0.559281 0.806710 0.429122
C35 C 0.6628(12) 0.7686(7) 0.6326(4)
H41 H 0.766630 0.748124 0.639021
H42 H 0.593152 0.721525 0.641516
H43 H 0.645790 0.822535 0.651458
O13 O -0.0509(7) 0.1816(5) -0.0647(2)
O14 O 0.2055(7) 0.1486(5) -0.0699(2)
O15 O 0.3272(8) -0.0376(5) 0.0593(3)
O16 O 0.0760(8) -0.0584(5) 0.1042(3)
H44 H 0.129542 -0.075224 0.083053
O17 O -0.2640(7) 0.0171(5) 0.0949(2)
H45 H -0.265634 0.070104 0.087384
O18 O -0.4308(8) 0.1461(5) 0.1381(2)
H46 H -0.391390 0.125069 0.114858
O19 O -0.2429(8) 0.3142(5) 0.2148(3)
O20 O -0.3206(7) 0.3601(5) 0.1169(2)
O21 O -0.2793(8) 0.5177(5) 0.2143(2)
O22 O 0.2190(8) 0.4261(6) 0.0354(3)
H47 H 0.212904 0.423388 0.006025
O23 O -0.3967(7) 0.2473(5) 0.0503(2)
H48 H -0.394634 0.266636 0.077882
O24 O 0.2360(7) 0.3449(5) -0.0472(2)
N2 N -0.1199(9) 0.4832(6) 0.1570(3)
H49 H -0.049409 0.514147 0.171345
C36 C 0.0952(10) 0.2174(7) -0.0783(4)
C37 C 0.2597(12) 0.1376(7) -0.0228(4)
H50 H 0.333190 0.178855 -0.010264
C38 C 0.2162(11) 0.0736(7) 0.0062(4)
H51 H 0.133707 0.036749 -0.004212
C39 C 0.2923(12) 0.0574(7) 0.0546(3)
H52 H 0.389592 0.090983 0.056329
C40 C 0.4360(11) -0.0679(8) 0.0273(4)
H53 H 0.390793 -0.068658 -0.005569
H54 H 0.469088 -0.128428 0.036421
H55 H 0.522785 -0.027443 0.029124
C41 C 0.2060(11) 0.0844(7) 0.0977(3)
H56 H 0.270207 0.068419 0.127068
C42 C 0.0547(11) 0.0341(8) 0.1006(4)
H57 H -0.006251 0.045850 0.070005
C43 C -0.0398(10) 0.0639(7) 0.1419(3)
H58 H -0.070311 0.127685 0.136431
C44 C -0.1823(11) 0.0061(7) 0.1409(3)
H59 H -0.149682 -0.057768 0.143590
C45 C -0.2920(11) 0.0232(7) 0.1800(4)
H60 H -0.235677 0.011938 0.211476
C46 C -0.3458(11) 0.1222(7) 0.1805(3)
H61 H -0.255177 0.161748 0.183787
C47 C -0.4432(12) 0.1418(7) 0.2208(3)
H62 H -0.535927 0.104107 0.221299
C48 C -0.4629(13) 0.2387(8) 0.2373(3)
H63 H -0.565777 0.255125 0.246794
C49 C -0.3827(12) 0.3079(7) 0.2124(4)
C50 C -0.4719(11) 0.3743(7) 0.1821(3)
H64 H -0.522076 0.416023 0.203535
H65 H -0.551666 0.341843 0.162899
C51 C -0.3806(11) 0.4281(7) 0.1485(3)
C52 C -0.1901(10) 0.3802(7) 0.0938(3)
C53 C -0.0897(11) 0.4409(7) 0.1143(4)
C54 C -0.2540(11) 0.4788(7) 0.1766(4)
C55 C 0.0462(11) 0.4570(7) 0.0929(4)
H66 H 0.114564 0.500685 0.105885
C56 C 0.0800(10) 0.4086(7) 0.0526(4)
C57 C -0.0199(10) 0.3474(7) 0.0298(4)
C58 C 0.0060(11) 0.2982(7) -0.0110(3)
C59 C -0.0918(10) 0.2298(7) -0.0269(3)
C60 C -0.2280(11) 0.2122(7) -0.0068(4)
C61 C -0.2609(10) 0.2633(7) 0.0314(3)
C62 C -0.1614(10) 0.3313(6) 0.0526(3)
C63 C -0.3313(12) 0.1394(8) -0.0274(4)
H67 H -0.401812 0.165035 -0.051973
H68 H -0.387581 0.113329 -0.001753
H69 H -0.271163 0.092753 -0.041778
C64 C 0.1244(11) 0.2959(7) -0.0440(3)
C65 C -0.4734(12) 0.4962(8) 0.1183(4)
H70 H -0.406944 0.529807 0.098144
H71 H -0.522689 0.537676 0.139570
H72 H -0.549847 0.464834 0.097971
C66 C -0.3796(13) 0.1702(8) 0.2687(4)
H73 H -0.268897 0.176063 0.273248
H74 H -0.429489 0.148129 0.297125
C67 C -0.4212(12) -0.0435(8) 0.1759(4)
H75 H -0.492642 -0.030134 0.200295
H76 H -0.381680 -0.104234 0.180926
H77 H -0.472548 -0.039277 0.143983
C68 C 0.0510(13) 0.0576(8) 0.1898(4)
H78 H 0.079675 -0.004819 0.196058
H79 H -0.010048 0.079154 0.215473
H80 H 0.141909 0.094378 0.188783
C69 C 0.1882(13) 0.1851(8) 0.0975(4)
H81 H 0.104632 0.201931 0.074853
H82 H 0.281252 0.212941 0.087825
H83 H 0.167157 0.205542 0.129743
C70 C 0.0876(13) 0.2399(8) -0.1295(4)
H84 H 0.186830 0.259711 -0.138623
H85 H 0.014182 0.287931 -0.135815
H86 H 0.056683 0.186945 -0.148346
O25 O 0.9897(16) 0.3113(8) 0.2905(5)
H87 H 0.987317 0.255052 0.298477
H88 H 0.963945 0.316869 0.260123
O26 O 0.5690(11) 0.4566(7) 0.2965(3)
H89 H 0.570596 0.502651 0.278682
H90 H 0.588286 0.471631 0.325482
O27 O 0.1578(9) 0.5497(8) 0.1991(3)
H91 H 0.197016 0.601357 0.201986
H92 H 0.161606 0.523817 0.226186
O28 O 0.7518(15) 0.3407(9) 0.3457(4)
H93 H 0.717416 0.287603 0.345056
H94 H 0.793306 0.351323 0.319636
loop_
_geom_bond_atom_site_label_1
_geom_bond_atom_site_label_2
_geom_bond_site_symmetry_1
_geom_bond_site_symmetry_2
O1 C1 1_555 1_555
O2 C1 1_555 1_555
O3 C4 1_555 1_555
O4 H1 1_555 1_555
O5 H2 1_555 1_555
O6 H3 1_555 1_555
O7 C14 1_555 1_555
O8 C16 1_555 1_555
O9 C19 1_555 1_555
O10 H4 1_555 1_555
O11 H5 1_555 1_555
O12 C29 1_555 1_555
N1 H6 1_555 1_555
C1 C29 1_555 1_555
C2 O2 1_555 1_555
H7 C2 1_555 1_555
C3 C2 1_555 1_555
H8 C3 1_555 1_555
C4 C3 1_555 1_555
H9 C4 1_555 1_555
C5 O3 1_555 1_555
H10 C5 1_555 1_555
H11 C5 1_555 1_555
H12 C5 1_555 1_555
C6 C4 1_555 1_555
H13 C6 1_555 1_555
C7 O4 1_555 1_555
H14 C7 1_555 1_555
C8 C7 1_555 1_555
H15 C8 1_555 1_555
C9 O5 1_555 1_555
H16 C9 1_555 1_555
C10 C9 1_555 1_555
H17 C10 1_555 1_555
C11 O6 1_555 1_555
H18 C11 1_555 1_555
C12 C11 1_555 1_555
H19 C12 1_555 1_555
C13 C12 1_555 1_555
H20 C13 1_555 1_555
C14 C13 1_555 1_555
C15 C14 1_555 1_555
H21 C15 1_555 1_555
H22 C15 1_555 1_555
C16 C15 1_555 1_555
C17 O8 1_555 1_555
C18 N1 1_555 1_555
C19 N1 1_555 1_555
C20 C18 1_555 1_555
H23 C20 1_555 1_555
C21 O10 1_555 1_555
C22 C21 1_555 1_555
C23 C22 1_555 1_555
C24 O1 1_555 1_555
C25 C24 1_555 1_555
C26 O11 1_555 1_555
C27 C17 1_555 1_555
C28 C25 1_555 1_555
H24 C28 1_555 1_555
H25 C28 1_555 1_555
H26 C28 1_555 1_555
C29 C23 1_555 1_555
C30 C16 1_555 1_555
H27 C30 1_555 1_555
H28 C30 1_555 1_555
H29 C30 1_555 1_555
C31 C12 1_555 1_555
H30 C31 1_555 1_555
H31 C31 1_555 1_555
C32 C10 1_555 1_555
H32 C32 1_555 1_555
H33 C32 1_555 1_555
H34 C32 1_555 1_555
C33 C8 1_555 1_555
H35 C33 1_555 1_555
H36 C33 1_555 1_555
H37 C33 1_555 1_555
C34 C6 1_555 1_555
H38 C34 1_555 1_555
H39 C34 1_555 1_555
H40 C34 1_555 1_555
C35 C1 1_555 1_555
H41 C35 1_555 1_555
H42 C35 1_555 1_555
H43 C35 1_555 1_555
O13 C36 1_555 1_555
O14 C36 1_555 1_555
O15 C39 1_555 1_555
O16 H44 1_555 1_555
O17 H45 1_555 1_555
O18 H46 1_555 1_555
O19 C49 1_555 1_555
O20 C51 1_555 1_555
O21 C54 1_555 1_555
O22 H47 1_555 1_555
O23 H48 1_555 1_555
O24 C64 1_555 1_555
N2 H49 1_555 1_555
C36 C64 1_555 1_555
C37 O14 1_555 1_555
H50 C37 1_555 1_555
C38 C37 1_555 1_555
H51 C38 1_555 1_555
C39 C38 1_555 1_555
H52 C39 1_555 1_555
C40 O15 1_555 1_555
H53 C40 1_555 1_555
H54 C40 1_555 1_555
H55 C40 1_555 1_555
C41 C39 1_555 1_555
H56 C41 1_555 1_555
C42 O16 1_555 1_555
H57 C42 1_555 1_555
C43 C42 1_555 1_555
H58 C43 1_555 1_555
C44 O17 1_555 1_555
H59 C44 1_555 1_555
C45 C44 1_555 1_555
H60 C45 1_555 1_555
C46 O18 1_555 1_555
H61 C46 1_555 1_555
C47 C46 1_555 1_555
H62 C47 1_555 1_555
C48 C47 1_555 1_555
H63 C48 1_555 1_555
C49 C48 1_555 1_555
C50 C49 1_555 1_555
H64 C50 1_555 1_555
H65 C50 1_555 1_555
C51 C50 1_555 1_555
C52 O20 1_555 1_555
C53 N2 1_555 1_555
C54 N2 1_555 1_555
C55 C53 1_555 1_555
H66 C55 1_555 1_555
C56 O22 1_555 1_555
C57 C56 1_555 1_555
C58 C57 1_555 1_555
C59 O13 1_555 1_555
C60 C59 1_555 1_555
C61 O23 1_555 1_555
C62 C52 1_555 1_555
C63 C60 1_555 1_555
H67 C63 1_555 1_555
H68 C63 1_555 1_555
H69 C63 1_555 1_555
C64 C58 1_555 1_555
C65 C51 1_555 1_555
H70 C65 1_555 1_555
H71 C65 1_555 1_555
H72 C65 1_555 1_555
C66 C47 1_555 1_555
H73 C66 1_555 1_555
H74 C66 1_555 1_555
C67 C45 1_555 1_555
H75 C67 1_555 1_555
H76 C67 1_555 1_555
H77 C67 1_555 1_555
C68 C43 1_555 1_555
H78 C68 1_555 1_555
H79 C68 1_555 1_555
H80 C68 1_555 1_555
C69 C41 1_555 1_555
H81 C69 1_555 1_555
H82 C69 1_555 1_555
H83 C69 1_555 1_555
C70 C36 1_555 1_555
H84 C70 1_555 1_555
H85 C70 1_555 1_555
H86 C70 1_555 1_555
O25 H87 1_555 1_555
H88 O25 1_555 1_555
O26 H89 1_555 1_555
H90 O26 1_555 1_555
O27 H91 1_555 1_555
H92 O27 1_555 1_555
O28 H93 1_555 1_555
H94 O28 1_555 1_555
C6 C7 1_555 1_555
C8 C9 1_555 1_555
C10 C11 1_555 1_555
C13 C31 1_555 1_555
C16 C19 1_555 1_555
C17 C18 1_555 1_555
C20 C21 1_555 1_555
C22 C27 1_555 1_555
C23 C24 1_555 1_555
C25 C26 1_555 1_555
C26 C27 1_555 1_555
C41 C42 1_555 1_555
C43 C44 1_555 1_555
C45 C46 1_555 1_555
C48 C66 1_555 1_555
C51 C54 1_555 1_555
C52 C53 1_555 1_555
C55 C56 1_555 1_555
C57 C62 1_555 1_555
C58 C59 1_555 1_555
C60 C61 1_555 1_555
C61 C62 1_555 1_555

#END
