
#######################################################################
#
#                 Cambridge Crystallographic Data Centre
#                                CCDC 
#
#######################################################################
#
# If this CIF has been generated from an entry in the Cambridge 
# Structural Database, then it will include bibliographic, chemical, 
# crystal, experimental, refinement or atomic coordinate data resulting 
# from the CCDC's data processing and validation procedures.
#
#######################################################################

data_WAVWIA
_chemical_formula_moiety         'C10 H14 O1,C11 H14 O2'
_chemical_name_systematic        '2-t-Butylphenol 3-t-butylsalicylaldehyde'
_symmetry_cell_setting           monoclinic
_symmetry_space_group_name_H-M   'P 21/c'
_symmetry_Int_Tables_number      14
_space_group_name_Hall           '-P 2ybc'
loop_
_symmetry_equiv_pos_site_id
_symmetry_equiv_pos_as_xyz
1 x,y,z
2 -x,1/2+y,1/2-z
3 -x,-y,-z
4 x,1/2-y,1/2+z
_cell_length_a                   12.351(3)
_cell_length_b                   15.253(3)
_cell_length_c                   10.377(2)
_cell_angle_alpha                90
_cell_angle_beta                 97.58(3)
_cell_angle_gamma                90
_cell_volume                     1937.84
_exptl_crystal_colour            cyan
_exptl_crystal_description       platelet
_cell_formula_units_Z            4
loop_
_atom_site_label
_atom_site_type_symbol
_atom_site_fract_x
_atom_site_fract_y
_atom_site_fract_z
O1 O 0.1988(2) -0.13222(14) 0.1649(2)
H1 H 0.1509 -0.1238 0.2112
O2 O 0.0437(2) -0.05109(18) 0.2593(3)
C1 C 0.0543(3) 0.0088(3) 0.1824(4)
H3 H 0.0077 0.0568 0.1815
C2 C 0.1356(3) 0.0088(2) 0.0928(3)
C3 C 0.1426(3) 0.0813(2) 0.0127(3)
H4 H 0.0972 0.1294 0.0182
C4 C 0.2165(3) 0.0811(2) -0.0735(3)
H5 H 0.2227 0.1294 -0.1268
C5 C 0.2822(3) 0.0087(2) -0.0814(3)
H6 H 0.3311 0.0097 -0.1423
C6 C 0.2800(2) -0.0652(2) -0.0044(3)
C7 C 0.2039(3) -0.0628(2) 0.0846(3)
C8 C 0.3555(3) -0.1431(2) -0.0132(4)
C9 C 0.4300(3) -0.1531(3) 0.1172(4)
H7 H 0.4698 -0.0997 0.1369
H8 H 0.4803 -0.2004 0.1110
H9 H 0.3861 -0.1655 0.1848
C10 C 0.2914(3) -0.2274(3) -0.0457(4)
H10 H 0.2456 -0.2207 -0.1274
H11 H 0.2469 -0.2396 0.0213
H12 H 0.3413 -0.2751 -0.0516
C11 C 0.4291(3) -0.1299(3) -0.1193(4)
H13 H 0.3847 -0.1240 -0.2020
H14 H 0.4766 -0.1796 -0.1212
H15 H 0.4720 -0.0778 -0.1011
O3 O -0.13406(18) -0.06171(15) 0.4004(2)
H2 H -0.0821 -0.0589 0.3588
C12 C -0.1071(3) -0.1136(2) 0.5072(3)
C13 C -0.0011(3) -0.1432(2) 0.5401(4)
H16 H 0.0530 -0.1259 0.4911
C14 C 0.0244(4) -0.1977(3) 0.6443(4)
H17 H 0.0957 -0.2177 0.6657
C15 C -0.0542(4) -0.2224(2) 0.7163(4)
H18 H -0.0375 -0.2604 0.7863
C16 C -0.1592(3) -0.1911(2) 0.6853(3)
H19 H -0.2120 -0.2081 0.7364
C17 C -0.1895(3) -0.1352(2) 0.5809(3)
C18 C -0.3067(3) -0.1024(3) 0.5486(3)
C19 C -0.3577(3) -0.1421(3) 0.4174(3)
H20 H -0.3155 -0.1247 0.3503
H21 H -0.4313 -0.1213 0.3964
H22 H -0.3579 -0.2049 0.4239
C20 C -0.3096(3) -0.0022(3) 0.5407(4)
H23 H -0.2788 0.0220 0.6228
H24 H -0.3838 0.0171 0.5203
H25 H -0.2679 0.0170 0.4742
C21 C -0.3772(3) -0.1299(3) 0.6519(4)
H26 H -0.3480 -0.1051 0.7342
H27 H -0.3776 -0.1926 0.6587
H28 H -0.4506 -0.1092 0.6279
loop_
_geom_bond_atom_site_label_1
_geom_bond_atom_site_label_2
_geom_bond_site_symmetry_1
_geom_bond_site_symmetry_2
O1 H1 1_555 1_555
O2 C1 1_555 1_555
O3 H2 1_555 1_555
C1 H3 1_555 1_555
C2 C1 1_555 1_555
C3 C2 1_555 1_555
H4 C3 1_555 1_555
C4 C3 1_555 1_555
H5 C4 1_555 1_555
C5 C4 1_555 1_555
H6 C5 1_555 1_555
C6 C5 1_555 1_555
C7 O1 1_555 1_555
C8 C6 1_555 1_555
C9 C8 1_555 1_555
H7 C9 1_555 1_555
H8 C9 1_555 1_555
H9 C9 1_555 1_555
C10 C8 1_555 1_555
H10 C10 1_555 1_555
H11 C10 1_555 1_555
H12 C10 1_555 1_555
C11 C8 1_555 1_555
H13 C11 1_555 1_555
H14 C11 1_555 1_555
H15 C11 1_555 1_555
C12 O3 1_555 1_555
C13 C12 1_555 1_555
H16 C13 1_555 1_555
C14 C13 1_555 1_555
H17 C14 1_555 1_555
C15 C14 1_555 1_555
H18 C15 1_555 1_555
C16 C15 1_555 1_555
H19 C16 1_555 1_555
C17 C12 1_555 1_555
C18 C17 1_555 1_555
C19 C18 1_555 1_555
H20 C19 1_555 1_555
H21 C19 1_555 1_555
H22 C19 1_555 1_555
C20 C18 1_555 1_555
H23 C20 1_555 1_555
H24 C20 1_555 1_555
H25 C20 1_555 1_555
C21 C18 1_555 1_555
H26 C21 1_555 1_555
H27 C21 1_555 1_555
H28 C21 1_555 1_555
C2 C7 1_555 1_555
C6 C7 1_555 1_555
C16 C17 1_555 1_555

#END
