
#######################################################################
#
#                 Cambridge Crystallographic Data Centre
#                                CCDC 
#
#######################################################################
#
# If this CIF has been generated from an entry in the Cambridge 
# Structural Database, then it will include bibliographic, chemical, 
# crystal, experimental, refinement or atomic coordinate data resulting 
# from the CCDC's data processing and validation procedures.
#
#######################################################################

data_WAWFIK
_chemical_formula_moiety         'C9 H10 N2 O3'
_chemical_name_systematic        2-Acetamido-4-nitrotoluene
_symmetry_cell_setting           monoclinic
_symmetry_space_group_name_H-M   'P 21/c'
_symmetry_Int_Tables_number      14
_space_group_name_Hall           '-P 2ybc'
loop_
_symmetry_equiv_pos_site_id
_symmetry_equiv_pos_as_xyz
1 x,y,z
2 -x,1/2+y,1/2-z
3 -x,-y,-z
4 x,1/2-y,1/2+z
_cell_length_a                   8.2167(2)
_cell_length_b                   13.6406(3)
_cell_length_c                   8.7203(2)
_cell_angle_alpha                90
_cell_angle_beta                 107.2307(9)
_cell_angle_gamma                90
_cell_volume                     933.513
_exptl_crystal_colour            'pale yellow'
_exptl_crystal_description       lath
_cell_formula_units_Z            4
loop_
_atom_site_label
_atom_site_type_symbol
_atom_site_fract_x
_atom_site_fract_y
_atom_site_fract_z
C1 C 0.66060(14) 0.65335(8) 0.13949(12)
C2 C 0.69944(14) 0.55296(8) 0.14755(13)
C3 C 0.60557(15) 0.49005(9) 0.21537(14)
C4 C 0.47870(15) 0.52447(9) 0.27626(14)
C5 C 0.44408(15) 0.62402(9) 0.26521(14)
C6 C 0.53092(14) 0.68921(8) 0.19623(13)
N1 N 0.30928(13) 0.66177(8) 0.32777(13)
O1 O 0.23776(16) 0.60433(8) 0.39389(17)
O2 O 0.27408(14) 0.74913(7) 0.31277(15)
C7 C 0.84177(16) 0.51420(9) 0.08932(15)
N2 N 0.75561(12) 0.71876(7) 0.07257(11)
C8 C 0.82179(14) 0.80492(8) 0.13955(13)
O3 O 0.80172(11) 0.83621(6) 0.26552(10)
C9 C 0.92198(16) 0.86113(9) 0.05038(14)
H1 H 0.6311 0.4211 0.2200
H2 H 0.4149 0.4821 0.3221
H3 H 0.5018 0.7567 0.1887
H4 H 0.8475 0.4431 0.0964
H5 H 0.9500 0.5403 0.1533
H6 H 0.8276 0.5340 -0.0221
H7 H 0.7748 0.7013 -0.0149
H8 H 1.0336 0.8715 0.1182
H9 H 0.9273 0.8294 -0.0462
H10 H 0.8710 0.9239 0.0250
loop_
_geom_bond_atom_site_label_1
_geom_bond_atom_site_label_2
_geom_bond_site_symmetry_1
_geom_bond_site_symmetry_2
C1 C2 1_555 1_555
C2 C3 1_555 1_555
C3 C4 1_555 1_555
C4 C5 1_555 1_555
C5 C6 1_555 1_555
C6 C1 1_555 1_555
N1 C5 1_555 1_555
O1 N1 1_555 1_555
O2 N1 1_555 1_555
C7 C2 1_555 1_555
N2 C1 1_555 1_555
C8 N2 1_555 1_555
O3 C8 1_555 1_555
C9 C8 1_555 1_555
H1 C3 1_555 1_555
H2 C4 1_555 1_555
H3 C6 1_555 1_555
H4 C7 1_555 1_555
H5 C7 1_555 1_555
H6 C7 1_555 1_555
H7 N2 1_555 1_555
H8 C9 1_555 1_555
H9 C9 1_555 1_555
H10 C9 1_555 1_555

#END
