
#######################################################################
#
#                 Cambridge Crystallographic Data Centre
#                                CCDC 
#
#######################################################################
#
# If this CIF has been generated from an entry in the Cambridge 
# Structural Database, then it will include bibliographic, chemical, 
# crystal, experimental, refinement or atomic coordinate data resulting 
# from the CCDC's data processing and validation procedures.
#
#######################################################################

data_WAWLOX
_chemical_formula_moiety         'C38 H48 N6 O4'
_chemical_name_systematic        
1,1'-(4,6-Diisobutoxy-1,3-phenylene)bis(4-(2-isobutoxyphenyl)-1H-1,2,3-triazole)
_symmetry_cell_setting           orthorhombic
_symmetry_space_group_name_H-M   'P c a 21'
_symmetry_Int_Tables_number      29
_space_group_name_Hall           'P 2c -2ac'
loop_
_symmetry_equiv_pos_site_id
_symmetry_equiv_pos_as_xyz
1 x,y,z
2 -x,-y,1/2+z
3 1/2+x,-y,z
4 1/2-x,y,1/2+z
_cell_length_a                   20.4608(15)
_cell_length_b                   9.7729(7)
_cell_length_c                   36.582(3)
_cell_angle_alpha                90
_cell_angle_beta                 90
_cell_angle_gamma                90
_cell_volume                     7314.99
_exptl_crystal_colour            colorless
_exptl_crystal_description       prismatic
_cell_formula_units_Z            8
loop_
_atom_site_label
_atom_site_type_symbol
_atom_site_fract_x
_atom_site_fract_y
_atom_site_fract_z
O1 O 0.6153(3) 0.7929(7) 0.0865(2)
O2 O 0.4480(4) 0.9797(8) 0.1641(2)
O3 O 0.8482(5) 0.7952(8) 0.0759(3)
O4 O 0.4240(3) 1.1987(6) 0.26994(17)
N1 N 0.6842(3) 1.0349(7) 0.0912(2)
N2 N 0.6961(4) 1.1632(9) 0.0786(3)
N3 N 0.7542(5) 1.1608(8) 0.0638(3)
N4 N 0.5156(3) 1.2155(7) 0.17112(18)
N5 N 0.5227(4) 1.3486(8) 0.1588(2)
N6 N 0.4936(5) 1.4249(8) 0.1828(3)
C1 C 0.6230(4) 1.0124(9) 0.1106(2)
C2 C 0.5891(5) 0.8947(10) 0.1076(3)
C3 C 0.5288(5) 0.8834(11) 0.1251(3)
H1 H 0.5042 0.8040 0.1223
C4 C 0.5052(4) 0.9875(10) 0.1464(2)
C5 C 0.5408(4) 1.1047(8) 0.1494(2)
C6 C 0.5995(4) 1.1201(9) 0.1316(2)
H2 H 0.6231 1.2010 0.1337
C7 C 0.7359(4) 0.9602(9) 0.0858(2)
H3 H 0.7410 0.8690 0.0924
C8 C 0.7812(4) 1.0398(9) 0.0687(2)
C9 C 0.8482(4) 1.0178(9) 0.0569(2)
C10 C 0.8830(5) 1.1201(12) 0.0410(3)
H4 H 0.8624 1.2037 0.0371
C11 C 0.9474(7) 1.1068(17) 0.0302(3)
H5 H 0.9681 1.1807 0.0191
C12 C 0.9794(7) 0.996(2) 0.0351(4)
H6 H 1.0227 0.9886 0.0275
C13 C 0.9475(7) 0.8812(16) 0.0524(4)
H7 H 0.9696 0.7998 0.0570
C14 C 0.8839(6) 0.8976(12) 0.0616(3)
C15 C 0.4830(4) 1.2170(9) 0.2025(2)
H8 H 0.4715 1.1412 0.2164
C16 C 0.4696(4) 1.3478(8) 0.2103(2)
C17 C 0.4299(4) 1.4096(8) 0.2396(2)
C18 C 0.4129(5) 1.5468(10) 0.2385(3)
H9 H 0.4287 1.6000 0.2194
C19 C 0.3736(6) 1.6086(11) 0.2644(3)
H10 H 0.3616 1.6999 0.2620
C20 C 0.3532(5) 1.5350(10) 0.2929(3)
H11 H 0.3283 1.5771 0.3109
C21 C 0.3684(4) 1.3950(10) 0.2963(3)
H12 H 0.3537 1.3448 0.3163
C22 C 0.4062(4) 1.3332(9) 0.2689(2)
C23 C 0.5778(5) 0.6657(10) 0.0816(3)
H13 H 0.5708 0.6230 0.1052
H14 H 0.5354 0.6871 0.0712
C24 C 0.6111(6) 0.5724(12) 0.0582(4)
H15 H 0.6192 0.6168 0.0346
C25 C 0.6763(9) 0.536(2) 0.0758(6)
H16 H 0.7046 0.6146 0.0750
H17 H 0.6960 0.4620 0.0627
H18 H 0.6692 0.5099 0.1007
C26 C 0.5704(7) 0.4428(12) 0.0520(5)
H19 H 0.5960 0.3764 0.0390
H20 H 0.5322 0.4652 0.0379
H21 H 0.5573 0.4057 0.0752
C27 C 0.4028(5) 0.8768(11) 0.1566(3)
H22 H 0.4219 0.7885 0.1623
H23 H 0.3922 0.8780 0.1308
C28 C 0.3441(7) 0.8944(16) 0.1775(5)
H24 H 0.3634 0.8429 0.1978
C29 C 0.2916(7) 0.7756(16) 0.1714(6)
H25 H 0.2630 0.8001 0.1517
H26 H 0.2665 0.7634 0.1933
H27 H 0.3138 0.6919 0.1656
C30 C 0.3260(12) 1.011(2) 0.2039(7)
H28 H 0.2795 1.0126 0.2074
H29 H 0.3399 1.0969 0.1937
H30 H 0.3472 0.9968 0.2269
C31 C 0.8920(10) 0.6768(17) 0.0802(5)
H31 H 0.9303 0.7024 0.0942
H32 H 0.9061 0.6440 0.0564
C32 C 0.8546(10) 0.5678(14) 0.0997(4)
H33 H 0.8164 0.5440 0.0848
C33 C 0.8971(8) 0.4415(14) 0.1032(5)
H34 H 0.9102 0.4300 0.1282
H35 H 0.9353 0.4518 0.0881
H36 H 0.8729 0.3625 0.0954
C34 C 0.8313(9) 0.6146(16) 0.1352(4)
H37 H 0.8596 0.5804 0.1541
H38 H 0.7877 0.5815 0.1392
H39 H 0.8313 0.7129 0.1358
C35 C 0.4039(4) 1.1157(9) 0.2996(3)
H40 H 0.3566 1.1103 0.3000
H41 H 0.4182 1.1569 0.3224
C36 C 0.4309(6) 0.9797(10) 0.2966(3)
H42 H 0.4127 0.9397 0.2742
C37 C 0.5037(7) 0.9790(18) 0.2921(5)
H43 H 0.5163 1.0488 0.2751
H44 H 0.5175 0.8913 0.2831
H45 H 0.5240 0.9963 0.3153
C38 C 0.4082(6) 0.8894(10) 0.3282(3)
H46 H 0.4046 0.9436 0.3500
H47 H 0.4393 0.8174 0.3320
H48 H 0.3663 0.8506 0.3224
O5 O 0.8389(3) 0.3123(6) 0.4321(2)
O6 O 0.6744(3) 0.5513(6) 0.3610(2)
O7 O 1.0609(5) 0.2554(9) 0.4443(5)
O8 O 0.6625(4) 0.8429(9) 0.2597(2)
N7 N 0.9134(3) 0.5420(7) 0.4331(2)
N8 N 0.9313(4) 0.6590(7) 0.4495(3)
N9 N 0.9902(4) 0.6416(7) 0.4616(3)
N10 N 0.7518(3) 0.7785(6) 0.36110(18)
N11 N 0.7681(4) 0.8985(7) 0.3764(2)
N12 N 0.7494(4) 0.9941(8) 0.3538(2)
C39 C 0.8530(4) 0.5361(8) 0.4137(2)
C40 C 0.8144(4) 0.4195(9) 0.4136(3)
C41 C 0.7559(5) 0.4230(9) 0.3954(3)
H49 H 0.7305 0.3441 0.3946
C42 C 0.7333(4) 0.5395(9) 0.3782(2)
C43 C 0.7729(4) 0.6572(8) 0.3782(2)
C44 C 0.8319(4) 0.6536(8) 0.3961(2)
H50 H 0.8581 0.7313 0.3964
C45 C 0.9635(4) 0.4476(9) 0.4361(3)
H51 H 0.9644 0.3581 0.4275
C46 C 1.0105(4) 0.5146(8) 0.4544(2)
C47 C 1.0794(4) 0.4701(10) 0.4640(2)
C48 C 1.1202(5) 0.5677(12) 0.4795(3)
H52 H 1.1048 0.6557 0.4838
C49 C 1.1855(6) 0.5329(17) 0.4887(4)
H53 H 1.2137 0.5981 0.4985
C50 C 1.2065(7) 0.4000(19) 0.4829(5)
H54 H 1.2486 0.3735 0.4892
C51 C 1.1646(8) 0.3099(16) 0.4678(5)
H55 H 1.1788 0.2205 0.4641
C52 C 1.1034(6) 0.3422(13) 0.4579(4)
C53 C 0.7234(4) 0.8011(8) 0.3285(2)
H56 H 0.7080 0.7349 0.3124
C54 C 0.7213(4) 0.9371(9) 0.3237(2)
C55 C 0.6974(4) 1.0290(9) 0.2941(3)
C56 C 0.7065(5) 1.1680(11) 0.2978(3)
H57 H 0.7273 1.2030 0.3184
C57 C 0.6840(6) 1.2571(14) 0.2700(5)
H58 H 0.6903 1.3510 0.2722
C58 C 0.6533(6) 1.2057(17) 0.2403(4)
H59 H 0.6382 1.2650 0.2222
C59 C 0.6442(5) 1.0698(14) 0.2363(3)
H60 H 0.6232 1.0356 0.2157
C60 C 0.6670(5) 0.9796(11) 0.2639(3)
C61 C 0.7981(5) 0.1931(8) 0.4386(3)
H61 H 0.7866 0.1512 0.4154
H62 H 0.7581 0.2208 0.4507
C62 C 0.8333(5) 0.0928(9) 0.4616(3)
H63 H 0.8707 0.0551 0.4482
C63 C 0.8578(14) 0.171(2) 0.4974(6)
H64 H 0.8839 0.2480 0.4904
H65 H 0.8835 0.1094 0.5120
H66 H 0.8207 0.2012 0.5112
C64 C 0.7870(7) -0.0206(11) 0.4725(4)
H67 H 0.8108 -0.1049 0.4746
H68 H 0.7537 -0.0302 0.4542
H69 H 0.7671 0.0013 0.4955
C65 C 0.6269(4) 0.4427(9) 0.3641(3)
H70 H 0.6225 0.4154 0.3895
H71 H 0.6410 0.3638 0.3501
C66 C 0.5637(5) 0.4921(13) 0.3502(3)
H72 H 0.5493 0.5648 0.3668
C67 C 0.5136(5) 0.3716(13) 0.3544(4)
H73 H 0.4714 0.4009 0.3461
H74 H 0.5110 0.3450 0.3796
H75 H 0.5279 0.2950 0.3400
C68 C 0.5642(7) 0.5517(17) 0.3131(5)
H76 H 0.5979 0.6199 0.3115
H77 H 0.5226 0.5931 0.3081
H78 H 0.5725 0.4809 0.2955
C69 C 1.0709(11) 0.1084(17) 0.4534(6)
H79 H 1.0307 0.0669 0.4620
H80 H 1.1044 0.0975 0.4720
C70 C 1.0930(13) 0.044(3) 0.4162(6)
H81 H 1.1340 0.0939 0.4122
C71 C 1.1169(8) -0.0952(15) 0.4161(5)
H82 H 1.1353 -0.1165 0.4395
H83 H 1.1498 -0.1050 0.3976
H84 H 1.0814 -0.1566 0.4110
C72 C 1.0593(12) 0.077(3) 0.3833(7)
H85 H 1.0319 0.0010 0.3765
H86 H 1.0903 0.0939 0.3642
H87 H 1.0328 0.1564 0.3871
C73 C 0.6406(8) 0.7959(15) 0.2244(4)
H88 H 0.6545 0.8590 0.2055
H89 H 0.5933 0.7897 0.2239
C74 C 0.6708(8) 0.6561(18) 0.2182(5)
H90 H 0.6490 0.5975 0.2362
C75 C 0.7372(9) 0.6403(17) 0.2260(4)
H91 H 0.7626 0.6868 0.2077
H92 H 0.7481 0.5448 0.2259
H93 H 0.7465 0.6785 0.2496
C76 C 0.6413(9) 0.611(2) 0.1816(4)
H94 H 0.6604 0.6634 0.1621
H95 H 0.5949 0.6255 0.1819
H96 H 0.6501 0.5155 0.1777
loop_
_geom_bond_atom_site_label_1
_geom_bond_atom_site_label_2
_geom_bond_site_symmetry_1
_geom_bond_site_symmetry_2
O1 C2 1_555 1_555
O2 C4 1_555 1_555
O3 C14 1_555 1_555
O4 C22 1_555 1_555
O5 C40 1_555 1_555
O6 C42 1_555 1_555
O7 C52 1_555 1_555
O8 C60 1_555 1_555
N1 N2 1_555 1_555
N2 N3 1_555 1_555
N3 C8 1_555 1_555
N4 N5 1_555 1_555
N5 N6 1_555 1_555
N6 C16 1_555 1_555
N7 N8 1_555 1_555
N8 N9 1_555 1_555
N9 C46 1_555 1_555
N10 N11 1_555 1_555
N11 N12 1_555 1_555
N12 C54 1_555 1_555
C1 N1 1_555 1_555
C2 C1 1_555 1_555
C3 C2 1_555 1_555
H1 C3 1_555 1_555
C4 C3 1_555 1_555
C5 N4 1_555 1_555
C6 C1 1_555 1_555
H2 C6 1_555 1_555
C7 N1 1_555 1_555
H3 C7 1_555 1_555
C8 C7 1_555 1_555
C9 C8 1_555 1_555
C10 C9 1_555 1_555
H4 C10 1_555 1_555
C11 C10 1_555 1_555
H5 C11 1_555 1_555
C12 C11 1_555 1_555
H6 C12 1_555 1_555
C13 C12 1_555 1_555
H7 C13 1_555 1_555
C14 C9 1_555 1_555
C15 N4 1_555 1_555
H8 C15 1_555 1_555
C16 C15 1_555 1_555
C17 C16 1_555 1_555
C18 C17 1_555 1_555
H9 C18 1_555 1_555
C19 C18 1_555 1_555
H10 C19 1_555 1_555
C20 C19 1_555 1_555
H11 C20 1_555 1_555
C21 C20 1_555 1_555
H12 C21 1_555 1_555
C22 C17 1_555 1_555
C23 O1 1_555 1_555
H13 C23 1_555 1_555
H14 C23 1_555 1_555
C24 C23 1_555 1_555
H15 C24 1_555 1_555
C25 C24 1_555 1_555
H16 C25 1_555 1_555
H17 C25 1_555 1_555
H18 C25 1_555 1_555
C26 C24 1_555 1_555
H19 C26 1_555 1_555
H20 C26 1_555 1_555
H21 C26 1_555 1_555
C27 O2 1_555 1_555
H22 C27 1_555 1_555
H23 C27 1_555 1_555
C28 C27 1_555 1_555
H24 C28 1_555 1_555
C29 C28 1_555 1_555
H25 C29 1_555 1_555
H26 C29 1_555 1_555
H27 C29 1_555 1_555
C30 C28 1_555 1_555
H28 C30 1_555 1_555
H29 C30 1_555 1_555
H30 C30 1_555 1_555
C31 O3 1_555 1_555
H31 C31 1_555 1_555
H32 C31 1_555 1_555
C32 C31 1_555 1_555
H33 C32 1_555 1_555
C33 C32 1_555 1_555
H34 C33 1_555 1_555
H35 C33 1_555 1_555
H36 C33 1_555 1_555
C34 C32 1_555 1_555
H37 C34 1_555 1_555
H38 C34 1_555 1_555
H39 C34 1_555 1_555
C35 O4 1_555 1_555
H40 C35 1_555 1_555
H41 C35 1_555 1_555
C36 C35 1_555 1_555
H42 C36 1_555 1_555
C37 C36 1_555 1_555
H43 C37 1_555 1_555
H44 C37 1_555 1_555
H45 C37 1_555 1_555
C38 C36 1_555 1_555
H46 C38 1_555 1_555
H47 C38 1_555 1_555
H48 C38 1_555 1_555
C39 N7 1_555 1_555
C40 C39 1_555 1_555
C41 C40 1_555 1_555
H49 C41 1_555 1_555
C42 C41 1_555 1_555
C43 N10 1_555 1_555
C44 C39 1_555 1_555
H50 C44 1_555 1_555
C45 N7 1_555 1_555
H51 C45 1_555 1_555
C46 C45 1_555 1_555
C47 C46 1_555 1_555
C48 C47 1_555 1_555
H52 C48 1_555 1_555
C49 C48 1_555 1_555
H53 C49 1_555 1_555
C50 C49 1_555 1_555
H54 C50 1_555 1_555
C51 C50 1_555 1_555
H55 C51 1_555 1_555
C52 C47 1_555 1_555
C53 N10 1_555 1_555
H56 C53 1_555 1_555
C54 C53 1_555 1_555
C55 C54 1_555 1_555
C56 C55 1_555 1_555
H57 C56 1_555 1_555
C57 C56 1_555 1_555
H58 C57 1_555 1_555
C58 C57 1_555 1_555
H59 C58 1_555 1_555
C59 C58 1_555 1_555
H60 C59 1_555 1_555
C60 C55 1_555 1_555
C61 O5 1_555 1_555
H61 C61 1_555 1_555
H62 C61 1_555 1_555
C62 C61 1_555 1_555
H63 C62 1_555 1_555
C63 C62 1_555 1_555
H64 C63 1_555 1_555
H65 C63 1_555 1_555
H66 C63 1_555 1_555
C64 C62 1_555 1_555
H67 C64 1_555 1_555
H68 C64 1_555 1_555
H69 C64 1_555 1_555
C65 O6 1_555 1_555
H70 C65 1_555 1_555
H71 C65 1_555 1_555
C66 C65 1_555 1_555
H72 C66 1_555 1_555
C67 C66 1_555 1_555
H73 C67 1_555 1_555
H74 C67 1_555 1_555
H75 C67 1_555 1_555
C68 C66 1_555 1_555
H76 C68 1_555 1_555
H77 C68 1_555 1_555
H78 C68 1_555 1_555
C69 O7 1_555 1_555
H79 C69 1_555 1_555
H80 C69 1_555 1_555
C70 C69 1_555 1_555
H81 C70 1_555 1_555
C71 C70 1_555 1_555
H82 C71 1_555 1_555
H83 C71 1_555 1_555
H84 C71 1_555 1_555
C72 C70 1_555 1_555
H85 C72 1_555 1_555
H86 C72 1_555 1_555
H87 C72 1_555 1_555
C73 O8 1_555 1_555
H88 C73 1_555 1_555
H89 C73 1_555 1_555
C74 C73 1_555 1_555
H90 C74 1_555 1_555
C75 C74 1_555 1_555
H91 C75 1_555 1_555
H92 C75 1_555 1_555
H93 C75 1_555 1_555
C76 C74 1_555 1_555
H94 C76 1_555 1_555
H95 C76 1_555 1_555
H96 C76 1_555 1_555
C4 C5 1_555 1_555
C5 C6 1_555 1_555
C13 C14 1_555 1_555
C21 C22 1_555 1_555
C42 C43 1_555 1_555
C43 C44 1_555 1_555
C51 C52 1_555 1_555
C59 C60 1_555 1_555

#END
