
#######################################################################
#
#                 Cambridge Crystallographic Data Centre
#                                CCDC 
#
#######################################################################
#
# If this CIF has been generated from an entry in the Cambridge 
# Structural Database, then it will include bibliographic, chemical, 
# crystal, experimental, refinement or atomic coordinate data resulting 
# from the CCDC's data processing and validation procedures.
#
#######################################################################

data_WAWLUD
_chemical_formula_moiety         'C38 H40 N6 O6,C1 H1 Cl3'
_chemical_name_systematic        
"1,1'-(4,6-Di-isobutoxy-1,3-phenylene)bis(4-(5-ethynyl-2,4-dimethoxyphenyl)-1H-1,2,3-triazole) chloroform solvate"
_symmetry_cell_setting           triclinic
_symmetry_space_group_name_H-M   'P -1'
_symmetry_Int_Tables_number      2
_space_group_name_Hall           '-P 1'
loop_
_symmetry_equiv_pos_site_id
_symmetry_equiv_pos_as_xyz
1 x,y,z
2 -x,-y,-z
_cell_length_a                   8.7881(16)
_cell_length_b                   11.567(2)
_cell_length_c                   19.691(4)
_cell_angle_alpha                97.158(4)
_cell_angle_beta                 98.295(4)
_cell_angle_gamma                94.964(4)
_cell_volume                     1954.09
_exptl_crystal_colour            colorless
_exptl_crystal_description       prismatic
_cell_formula_units_Z            2
loop_
_atom_site_label
_atom_site_type_symbol
_atom_site_fract_x
_atom_site_fract_y
_atom_site_fract_z
N1 N 0.2754(4) 0.5386(3) 0.93949(18)
N2 N 0.2351(5) 0.6388(3) 0.9145(2)
N3 N 0.1720(5) 0.6979(3) 0.9616(2)
N4 N 0.5060(4) 0.4792(3) 0.73376(19)
N5 N 0.5237(5) 0.5976(3) 0.7395(2)
N6 N 0.5760(5) 0.6255(3) 0.6841(2)
O1 O -0.0990(4) 0.8577(2) 1.23589(15)
O2 O 0.1344(4) 0.5291(2) 1.13311(15)
O3 O 0.3552(4) 0.3185(2) 0.97326(15)
O4 O 0.5558(4) 0.2515(2) 0.75718(16)
O5 O 0.6717(5) 0.3366(3) 0.55671(18)
O6 O 0.8611(5) 0.5950(3) 0.40531(17)
C1 C 0.4534(5) 0.2800(4) 0.8655(2)
H1 H 0.4737 0.2055 0.8749
C2 C 0.3870(5) 0.3503(4) 0.9121(2)
C3 C 0.3509(5) 0.4601(4) 0.8966(2)
C4 C 0.3868(5) 0.4958(4) 0.8357(2)
H2 H 0.3603 0.5682 0.8250
C5 C 0.4591(5) 0.4293(4) 0.7908(2)
C6 C 0.4912(5) 0.3167(4) 0.8047(2)
C7 C 0.2337(5) 0.5379(4) 1.0022(2)
H3 H 0.2466 0.4794 1.0303
C8 C 0.1689(5) 0.6390(4) 1.0170(2)
C9 C 0.1037(5) 0.6919(3) 1.0761(2)
C10 C 0.0829(5) 0.6357(4) 1.1338(2)
C11 C 0.0179(5) 0.6890(4) 1.1877(2)
H4 H 0.0078 0.6507 1.2259
C12 C -0.0325(5) 0.7992(4) 1.1856(2)
C13 C -0.0159(5) 0.8567(4) 1.1277(2)
C14 C 0.0534(5) 0.8024(4) 1.0755(2)
H5 H 0.0671 0.8418 1.0381
C15 C 0.5507(6) 0.4343(4) 0.6741(2)
H6 H 0.5519 0.3554 0.6578
C16 C 0.5937(5) 0.5272(4) 0.6422(2)
C17 C 0.6587(5) 0.5374(4) 0.5789(2)
C18 C 0.7004(6) 0.4442(4) 0.5366(2)
C19 C 0.7698(6) 0.4602(4) 0.4786(2)
H7 H 0.7995 0.3963 0.4520
C20 C 0.7944(6) 0.5716(4) 0.4607(2)
C21 C 0.7541(6) 0.6672(4) 0.5022(2)
C22 C 0.6866(6) 0.6493(4) 0.5602(2)
H8 H 0.6592 0.7135 0.5874
C23 C -0.0688(6) 0.9706(4) 1.1226(2)
C24 C -0.1095(7) 1.0624(5) 1.1134(3)
H9 H -0.1416 1.1350 1.1061
C25 C -0.1218(7) 0.8004(4) 1.2946(2)
H10 H -0.1791 0.7250 1.2791
H11 H -0.1783 0.8471 1.3239
H12 H -0.0232 0.7908 1.3202
C26 C 0.1065(6) 0.4634(4) 1.1883(2)
H13 H 0.1518 0.5082 1.2320
H14 H 0.1519 0.3910 1.1825
H15 H -0.0029 0.4472 1.1872
C27 C 0.4017(6) 0.2078(4) 0.9913(2)
H16 H 0.5096 0.2029 0.9870
H17 H 0.3400 0.1433 0.9605
C28 C 0.3772(8) 0.2014(6) 1.0670(4)
H18 H 0.4456 0.2627 1.0986
C29 C 0.4224(11) 0.0779(7) 1.0802(4)
H19 H 0.4174 0.0684 1.1276
H20 H 0.5258 0.0705 1.0711
H21 H 0.3520 0.0188 1.0502
C30 C 0.2324(9) 0.2054(7) 1.0777(4)
H22 H 0.1945 0.2748 1.0626
H23 H 0.2282 0.2069 1.1263
H24 H 0.1696 0.1375 1.0522
C31 C 0.7811(7) 0.7846(5) 0.4852(2)
C32 C 0.8023(8) 0.8814(5) 0.4745(3)
H25 H 0.8191 0.9584 0.4660
C33 C 0.9062(7) 0.4995(5) 0.3626(3)
H26 H 0.9777 0.4593 0.3902
H27 H 0.9546 0.5285 0.3265
H28 H 0.8165 0.4464 0.3424
C34 C 0.7162(9) 0.2377(5) 0.5157(3)
H29 H 0.6535 0.2253 0.4708
H30 H 0.7020 0.1693 0.5381
H31 H 0.8230 0.2523 0.5108
C35 C 0.5900(6) 0.1350(4) 0.7689(2)
H32 H 0.4975 0.0890 0.7760
H33 H 0.6675 0.1389 0.8097
C36 C 0.6494(6) 0.0793(4) 0.7058(3)
H34 H 0.7363 0.1313 0.6970
C37 C 0.7075(7) -0.0361(5) 0.7206(3)
H35 H 0.7886 -0.0221 0.7599
H36 H 0.7467 -0.0718 0.6810
H37 H 0.6241 -0.0874 0.7305
C38 C 0.5248(8) 0.0603(5) 0.6415(3)
H38 H 0.4357 0.0142 0.6506
H39 H 0.5643 0.0201 0.6032
H40 H 0.4962 0.1348 0.6304
C39 C 0.8902(6) 0.1490(4) 0.2872(3)
H41 H 0.8942 0.0755 0.2570
Cl1 Cl 0.7132(2) 0.19773(18) 0.26664(13)
Cl2 Cl 1.0374(2) 0.25115(12) 0.27486(9)
Cl3 Cl 0.9228(2) 0.12368(15) 0.37311(8)
loop_
_geom_bond_atom_site_label_1
_geom_bond_atom_site_label_2
_geom_bond_site_symmetry_1
_geom_bond_site_symmetry_2
N1 N2 1_555 1_555
N2 N3 1_555 1_555
N3 C8 1_555 1_555
N4 N5 1_555 1_555
N5 N6 1_555 1_555
N6 C16 1_555 1_555
O1 C12 1_555 1_555
O2 C10 1_555 1_555
O3 C2 1_555 1_555
O4 C6 1_555 1_555
O5 C18 1_555 1_555
O6 C20 1_555 1_555
C1 H1 1_555 1_555
C2 C1 1_555 1_555
C3 N1 1_555 1_555
C4 C3 1_555 1_555
H2 C4 1_555 1_555
C5 N4 1_555 1_555
C6 C1 1_555 1_555
C7 N1 1_555 1_555
H3 C7 1_555 1_555
C8 C7 1_555 1_555
C9 C8 1_555 1_555
C10 C9 1_555 1_555
C11 C10 1_555 1_555
H4 C11 1_555 1_555
C12 C11 1_555 1_555
C13 C12 1_555 1_555
C14 C9 1_555 1_555
H5 C14 1_555 1_555
C15 N4 1_555 1_555
H6 C15 1_555 1_555
C16 C15 1_555 1_555
C17 C16 1_555 1_555
C18 C17 1_555 1_555
C19 C18 1_555 1_555
H7 C19 1_555 1_555
C20 C19 1_555 1_555
C21 C20 1_555 1_555
C22 C17 1_555 1_555
H8 C22 1_555 1_555
C23 C13 1_555 1_555
C24 C23 1_555 1_555
H9 C24 1_555 1_555
C25 O1 1_555 1_555
H10 C25 1_555 1_555
H11 C25 1_555 1_555
H12 C25 1_555 1_555
C26 O2 1_555 1_555
H13 C26 1_555 1_555
H14 C26 1_555 1_555
H15 C26 1_555 1_555
C27 O3 1_555 1_555
H16 C27 1_555 1_555
H17 C27 1_555 1_555
C28 C27 1_555 1_555
H18 C28 1_555 1_555
C29 C28 1_555 1_555
H19 C29 1_555 1_555
H20 C29 1_555 1_555
H21 C29 1_555 1_555
C30 C28 1_555 1_555
H22 C30 1_555 1_555
H23 C30 1_555 1_555
H24 C30 1_555 1_555
C31 C21 1_555 1_555
C32 C31 1_555 1_555
H25 C32 1_555 1_555
C33 O6 1_555 1_555
H26 C33 1_555 1_555
H27 C33 1_555 1_555
H28 C33 1_555 1_555
C34 O5 1_555 1_555
H29 C34 1_555 1_555
H30 C34 1_555 1_555
H31 C34 1_555 1_555
C35 O4 1_555 1_555
H32 C35 1_555 1_555
H33 C35 1_555 1_555
C36 C35 1_555 1_555
H34 C36 1_555 1_555
C37 C36 1_555 1_555
H35 C37 1_555 1_555
H36 C37 1_555 1_555
H37 C37 1_555 1_555
C38 C36 1_555 1_555
H38 C38 1_555 1_555
H39 C38 1_555 1_555
H40 C38 1_555 1_555
C39 H41 1_555 1_555
Cl1 C39 1_555 1_555
Cl2 C39 1_555 1_555
Cl3 C39 1_555 1_555
C2 C3 1_555 1_555
C4 C5 1_555 1_555
C5 C6 1_555 1_555
C13 C14 1_555 1_555
C21 C22 1_555 1_555

#END
