
#######################################################################
#
#                 Cambridge Crystallographic Data Centre
#                                CCDC 
#
#######################################################################
#
# If this CIF has been generated from an entry in the Cambridge 
# Structural Database, then it will include bibliographic, chemical, 
# crystal, experimental, refinement or atomic coordinate data resulting 
# from the CCDC's data processing and validation procedures.
#
#######################################################################

data_WAWNOY
_chemical_formula_moiety         'C15 H13 N2 1+,C24 H20 B1 1-'
_chemical_name_systematic        
'4-(2-(4-Cyanophenyl)ethenyl)-N-methylpyridinium tetraphenylborate'
_symmetry_cell_setting           monoclinic
_symmetry_space_group_name_H-M   'C c'
_symmetry_Int_Tables_number      9
_space_group_name_Hall           'C -2yc'
loop_
_symmetry_equiv_pos_site_id
_symmetry_equiv_pos_as_xyz
1 x,y,z
2 x,-y,1/2+z
3 1/2+x,1/2+y,z
4 1/2+x,1/2-y,1/2+z
_cell_length_a                   16.930(3)
_cell_length_b                   10.7694(18)
_cell_length_c                   17.665(3)
_cell_angle_alpha                90
_cell_angle_beta                 111.543(5)
_cell_angle_gamma                90
_cell_volume                     2995.79
_exptl_crystal_colour            yellow
_exptl_crystal_description       block
_chemical_melting_point          '489-490 K'
_cell_formula_units_Z            4
_exptl_crystal_recrystallization_method dimethylformamide
loop_
_atom_site_label
_atom_site_type_symbol
_atom_site_fract_x
_atom_site_fract_y
_atom_site_fract_z
N1 N 0.4647(2) 0.4662(3) 0.2605(2)
N2 N 0.9400(3) -0.0179(4) -0.0027(3)
C1 C 0.4553(3) 0.3487(4) 0.2330(3)
H1 H 0.4088 0.3006 0.2344
C2 C 0.5111(3) 0.2977(4) 0.2032(3)
H2 H 0.5031 0.2148 0.1835
C3 C 0.5811(3) 0.3668(4) 0.2012(3)
C4 C 0.5896(3) 0.4865(4) 0.2316(3)
H3 H 0.6364 0.5359 0.2327
C5 C 0.5309(3) 0.5341(4) 0.2602(3)
H4 H 0.5372 0.6168 0.2801
C6 C 0.6439(3) 0.3179(4) 0.1711(3)
H5 H 0.6907 0.3703 0.1758
C7 C 0.6425(3) 0.2070(4) 0.1377(3)
H6 H 0.5955 0.1547 0.1322
C8 C 0.7070(3) 0.1584(4) 0.1085(3)
C9 C 0.7002(3) 0.0375(4) 0.0794(3)
H7 H 0.6536 -0.0124 0.0787
C10 C 0.7594(3) -0.0112(4) 0.0516(3)
H8 H 0.7551 -0.0950 0.0336
C11 C 0.8256(3) 0.0629(4) 0.0501(3)
C12 C 0.8327(3) 0.1849(4) 0.0770(3)
H9 H 0.8779 0.2357 0.0752
C13 C 0.7734(3) 0.2319(4) 0.1063(3)
H10 H 0.7782 0.3152 0.1251
C14 C 0.4017(3) 0.5208(5) 0.2908(3)
H11 H 0.4139 0.4935 0.3469
H12 H 0.3446 0.4934 0.2562
H13 H 0.4048 0.6116 0.2892
C15 C 0.8883(3) 0.0161(4) 0.0200(3)
C16 C 0.8483(2) 0.5763(3) 0.3257(2)
C17 C 0.8391(3) 0.5383(4) 0.2467(2)
H14 H 0.8663 0.4638 0.2408
C18 C 0.7929(3) 0.6035(4) 0.1777(2)
H15 H 0.7892 0.5739 0.1259
C19 C 0.7517(3) 0.7123(4) 0.1835(3)
H16 H 0.7186 0.7567 0.1360
C20 C 0.7598(3) 0.7549(4) 0.2598(3)
H17 H 0.7328 0.8301 0.2649
C21 C 0.8071(3) 0.6886(3) 0.3289(3)
H18 H 0.8118 0.7203 0.3806
C22 C 0.9388(2) 0.5649(3) 0.4899(2)
C23 C 0.9838(3) 0.6748(3) 0.4932(2)
H19 H 0.9800 0.7127 0.4435
C24 C 1.0337(2) 0.7315(4) 0.5657(3)
H20 H 1.0639 0.8055 0.5649
C25 C 1.0391(3) 0.6794(4) 0.6393(3)
H21 H 1.0728 0.7176 0.6891
C26 C 0.9949(3) 0.5709(4) 0.6395(3)
H22 H 0.9978 0.5348 0.6895
C27 C 0.9463(2) 0.5154(3) 0.5659(2)
H23 H 0.9170 0.4407 0.5671
C28 C 0.8121(3) 0.4040(3) 0.4092(2)
C29 C 0.7566(3) 0.4509(4) 0.4453(3)
H24 H 0.7679 0.5305 0.4701
C30 C 0.6864(3) 0.3864(4) 0.4463(3)
H25 H 0.6509 0.4210 0.4718
C31 C 0.6685(3) 0.2712(5) 0.4098(3)
H26 H 0.6208 0.2256 0.4108
C32 C 0.7191(3) 0.2225(4) 0.3721(3)
H27 H 0.7064 0.1434 0.3465
C33 C 0.7899(3) 0.2894(4) 0.3713(3)
H28 H 0.8237 0.2552 0.3438
C34 C 0.9709(3) 0.4051(3) 0.3984(2)
C35 C 0.9939(3) 0.2889(3) 0.4353(2)
H29 H 0.9591 0.2524 0.4610
C36 C 1.0645(3) 0.2251(4) 0.4361(3)
H30 H 1.0771 0.1461 0.4617
C37 C 1.1176(3) 0.2748(4) 0.4002(3)
H31 H 1.1663 0.2306 0.4004
C38 C 1.0981(3) 0.3900(4) 0.3640(3)
H32 H 1.1339 0.4262 0.3393
C39 C 1.0262(2) 0.4535(4) 0.3634(2)
H33 H 1.0142 0.5328 0.3383
B1 B 0.8930(4) 0.4878(3) 0.4058(3)
loop_
_geom_bond_atom_site_label_1
_geom_bond_atom_site_label_2
_geom_bond_site_symmetry_1
_geom_bond_site_symmetry_2
N1 C1 1_555 1_555
N2 C15 1_555 1_555
C1 H1 1_555 1_555
C2 C1 1_555 1_555
H2 C2 1_555 1_555
C3 C2 1_555 1_555
C4 C3 1_555 1_555
H3 C4 1_555 1_555
C5 N1 1_555 1_555
H4 C5 1_555 1_555
C6 C3 1_555 1_555
H5 C6 1_555 1_555
C7 C6 1_555 1_555
H6 C7 1_555 1_555
C8 C7 1_555 1_555
C9 C8 1_555 1_555
H7 C9 1_555 1_555
C10 C9 1_555 1_555
H8 C10 1_555 1_555
C11 C10 1_555 1_555
C12 C11 1_555 1_555
H9 C12 1_555 1_555
C13 C8 1_555 1_555
H10 C13 1_555 1_555
C14 N1 1_555 1_555
H11 C14 1_555 1_555
H12 C14 1_555 1_555
H13 C14 1_555 1_555
C15 C11 1_555 1_555
C16 C17 1_555 1_555
C17 H14 1_555 1_555
C18 C17 1_555 1_555
H15 C18 1_555 1_555
C19 C18 1_555 1_555
H16 C19 1_555 1_555
C20 C19 1_555 1_555
H17 C20 1_555 1_555
C21 C16 1_555 1_555
H18 C21 1_555 1_555
C22 C23 1_555 1_555
C23 H19 1_555 1_555
C24 C23 1_555 1_555
H20 C24 1_555 1_555
C25 C24 1_555 1_555
H21 C25 1_555 1_555
C26 C25 1_555 1_555
H22 C26 1_555 1_555
C27 C22 1_555 1_555
H23 C27 1_555 1_555
C28 C29 1_555 1_555
C29 H24 1_555 1_555
C30 C29 1_555 1_555
H25 C30 1_555 1_555
C31 C30 1_555 1_555
H26 C31 1_555 1_555
C32 C31 1_555 1_555
H27 C32 1_555 1_555
C33 C28 1_555 1_555
H28 C33 1_555 1_555
C34 C35 1_555 1_555
C35 H29 1_555 1_555
C36 C35 1_555 1_555
H30 C36 1_555 1_555
C37 C36 1_555 1_555
H31 C37 1_555 1_555
C38 C37 1_555 1_555
H32 C38 1_555 1_555
C39 C34 1_555 1_555
H33 C39 1_555 1_555
B1 C16 1_555 1_555
C4 C5 1_555 1_555
C12 C13 1_555 1_555
C20 C21 1_555 1_555
C22 B1 1_555 1_555
C26 C27 1_555 1_555
C28 B1 1_555 1_555
C32 C33 1_555 1_555
C34 B1 1_555 1_555
C38 C39 1_555 1_555

#END
