
#######################################################################
#
#                 Cambridge Crystallographic Data Centre
#                                CCDC 
#
#######################################################################
#
# If this CIF has been generated from an entry in the Cambridge 
# Structural Database, then it will include bibliographic, chemical, 
# crystal, experimental, refinement or atomic coordinate data resulting 
# from the CCDC's data processing and validation procedures.
#
#######################################################################

data_WAWYIF
_chemical_formula_moiety         'C24 H26 N2 O2'
_chemical_name_systematic        
3-oxo-6-[(1-phenylpropyl)amino]-4-[(1-phenylpropyl)iminio]cyclohexa-1,5-dien-1-olate
_symmetry_cell_setting           monoclinic
_symmetry_space_group_name_H-M   'P 21'
_symmetry_Int_Tables_number      4
_space_group_name_Hall           'P 2yb'
loop_
_symmetry_equiv_pos_site_id
_symmetry_equiv_pos_as_xyz
1 x,y,z
2 -x,1/2+y,-z
_cell_length_a                   6.0492(4)
_cell_length_b                   13.9149(9)
_cell_length_c                   12.3077(8)
_cell_angle_alpha                90
_cell_angle_beta                 97.355(4)
_cell_angle_gamma                90
_cell_volume                     1027.46
_exptl_crystal_colour            red
_exptl_crystal_description       plate
_cell_formula_units_Z            2
loop_
_atom_site_label
_atom_site_type_symbol
_atom_site_fract_x
_atom_site_fract_y
_atom_site_fract_z
C1 C 0.2360(3) 0.88035(12) 0.87876(14)
H1 H 0.3612 0.8784 0.8394
C2 C 0.0992(3) 0.80031(13) 0.88171(13)
C3 C -0.1042(3) 0.80129(13) 0.94421(14)
C4 C -0.1367(3) 0.88291(13) 1.00548(14)
H2 H -0.2551 0.8830 1.0493
C5 C -0.0030(3) 0.96476(13) 1.00545(13)
C6 C 0.1875(3) 0.96298(13) 0.93392(13)
C7 C 0.2930(3) 0.69862(13) 0.75822(15)
H3 H 0.4391 0.7252 0.7924
C8 C 0.2274(5) 0.74949(15) 0.64814(18)
H4 H 0.0818 0.7243 0.6140
H5 H 0.2093 0.8190 0.6615
C9 C 0.3980(7) 0.73601(19) 0.5692(3)
H6 H 0.5445 0.7573 0.6041
H7 H 0.3543 0.7741 0.5030
H8 H 0.4053 0.6679 0.5497
C10 C 0.3185(3) 0.59099(13) 0.74463(14)
C11 C 0.5219(3) 0.54709(15) 0.77809(14)
H9 H 0.6435 0.5843 0.8118
C12 C 0.5487(4) 0.44945(15) 0.76268(17)
H10 H 0.6886 0.4201 0.7857
C13 C 0.3733(4) 0.39449(14) 0.71397(16)
H11 H 0.3927 0.3276 0.7027
C14 C 0.1691(4) 0.43741(15) 0.68162(16)
H12 H 0.0476 0.3998 0.6487
C15 C 0.1413(3) 0.53506(14) 0.69714(15)
H13 H 0.0004 0.5640 0.6752
C16 C 0.4837(3) 1.06479(12) 0.87227(14)
H14 H 0.6103 1.0228 0.9035
C17 C 0.5534(3) 1.17000(13) 0.89242(15)
H15 H 0.4281 1.2123 0.8633
H16 H 0.5850 1.1813 0.9723
C18 C 0.7583(3) 1.19673(14) 0.83895(17)
H17 H 0.8803 1.1525 0.8639
H18 H 0.8034 1.2626 0.8594
H19 H 0.7230 1.1923 0.7591
C19 C 0.4320(3) 1.04323(13) 0.75080(14)
C20 C 0.5903(3) 0.99753(14) 0.69641(17)
H20 H 0.7274 0.9776 0.7364
C21 C 0.5506(4) 0.98082(15) 0.58510(18)
H21 H 0.6611 0.9502 0.5490
C22 C 0.3530(4) 1.00812(18) 0.52631(18)
H22 H 0.3260 0.9965 0.4497
C23 C 0.1931(4) 1.0527(2) 0.57941(17)
H23 H 0.0548 1.0707 0.5392
C24 C 0.2327(3) 1.07123(16) 0.69043(16)
H24 H 0.1230 1.1033 0.7257
N1 N 0.1252(3) 0.71824(11) 0.83186(12)
N2 N 0.2926(2) 1.04569(11) 0.93190(12)
O1 O -0.2232(2) 0.72780(9) 0.93548(11)
O2 O -0.0262(2) 1.04050(9) 1.05599(11)
H25 H 0.044(4) 0.6713(18) 0.8505(18)
H26 H 0.256(3) 1.0895(16) 0.9733(16)
loop_
_geom_bond_atom_site_label_1
_geom_bond_atom_site_label_2
_geom_bond_site_symmetry_1
_geom_bond_site_symmetry_2
C1 H1 1_555 1_555
C2 C1 1_555 1_555
C3 C2 1_555 1_555
C4 C3 1_555 1_555
H2 C4 1_555 1_555
C5 C4 1_555 1_555
C6 C1 1_555 1_555
C7 H3 1_555 1_555
C8 C7 1_555 1_555
H4 C8 1_555 1_555
H5 C8 1_555 1_555
C9 C8 1_555 1_555
H6 C9 1_555 1_555
H7 C9 1_555 1_555
H8 C9 1_555 1_555
C10 C7 1_555 1_555
C11 C10 1_555 1_555
H9 C11 1_555 1_555
C12 C11 1_555 1_555
H10 C12 1_555 1_555
C13 C12 1_555 1_555
H11 C13 1_555 1_555
C14 C13 1_555 1_555
H12 C14 1_555 1_555
C15 C10 1_555 1_555
H13 C15 1_555 1_555
C16 H14 1_555 1_555
C17 C16 1_555 1_555
H15 C17 1_555 1_555
H16 C17 1_555 1_555
C18 C17 1_555 1_555
H17 C18 1_555 1_555
H18 C18 1_555 1_555
H19 C18 1_555 1_555
C19 C16 1_555 1_555
C20 C19 1_555 1_555
H20 C20 1_555 1_555
C21 C20 1_555 1_555
H21 C21 1_555 1_555
C22 C21 1_555 1_555
H22 C22 1_555 1_555
C23 C22 1_555 1_555
H23 C23 1_555 1_555
C24 C19 1_555 1_555
H24 C24 1_555 1_555
N1 C2 1_555 1_555
N2 C6 1_555 1_555
O1 C3 1_555 1_555
O2 C5 1_555 1_555
H25 N1 1_555 1_555
H26 N2 1_555 1_555
C5 C6 1_555 1_555
C7 N1 1_555 1_555
C14 C15 1_555 1_555
C16 N2 1_555 1_555
C23 C24 1_555 1_555

#END
