
#######################################################################
#
#                 Cambridge Crystallographic Data Centre
#                                CCDC 
#
#######################################################################
#
# If this CIF has been generated from an entry in the Cambridge 
# Structural Database, then it will include bibliographic, chemical, 
# crystal, experimental, refinement or atomic coordinate data resulting 
# from the CCDC's data processing and validation procedures.
#
#######################################################################

data_WAWZEC
_chemical_formula_moiety         'C26 H30 N2 O2,H2 O1'
_chemical_name_systematic        
'3-oxo-6-[(4-phenylbutyl)amino]-4-[(4-phenylbutyl)iminio]cyclohexa-1,5-dien-1-olate monohydrate'
_symmetry_cell_setting           triclinic
_symmetry_space_group_name_H-M   'P -1'
_symmetry_Int_Tables_number      2
_space_group_name_Hall           '-P 1'
loop_
_symmetry_equiv_pos_site_id
_symmetry_equiv_pos_as_xyz
1 x,y,z
2 -x,-y,-z
_cell_length_a                   9.1007(11)
_cell_length_b                   9.4113(11)
_cell_length_c                   15.0880(18)
_cell_angle_alpha                97.591(3)
_cell_angle_beta                 90.128(3)
_cell_angle_gamma                116.126(2)
_cell_volume                     1147.42
_exptl_crystal_colour            orange
_exptl_crystal_description       plate
_cell_formula_units_Z            2
loop_
_atom_site_label
_atom_site_type_symbol
_atom_site_fract_x
_atom_site_fract_y
_atom_site_fract_z
C1 C 1.0688(3) 0.4867(3) 0.38146(15)
H1 H 0.9963 0.3959 0.3410
C2 C 1.2161(3) 0.4964(3) 0.41410(15)
C3 C 1.3378(3) 0.6450(3) 0.47538(16)
C4 C 1.2955(3) 0.7680(3) 0.50026(17)
H2 H 1.3711 0.8611 0.5381
C5 C 1.1455(3) 0.7604(3) 0.47175(16)
C6 C 1.0284(3) 0.6114(3) 0.40869(15)
C7 C 1.1685(3) 0.2332(3) 0.33695(18)
H3 H 1.1445 0.2573 0.2782
H4 H 1.0626 0.1741 0.3630
C8 C 1.2552(3) 0.1278(3) 0.32256(17)
H5 H 1.2631 0.0881 0.3791
H6 H 1.3679 0.1908 0.3050
C9 C 1.1618(3) -0.0131(3) 0.24970(18)
H7 H 1.1622 0.0279 0.1925
H8 H 1.0462 -0.0683 0.2650
C10 C 1.2318(3) -0.1344(3) 0.23619(19)
H9 H 1.2206 -0.1836 0.2914
H10 H 1.1656 -0.2205 0.1870
C11 C 1.4092(3) -0.0644(3) 0.21444(17)
C12 C 1.4590(4) 0.0027(4) 0.13741(19)
H11 H 1.3797 0.0023 0.0962
C13 C 1.6228(4) 0.0705(5) 0.1191(2)
H12 H 1.6545 0.1161 0.0656
C14 C 1.7396(4) 0.0725(4) 0.1774(2)
H13 H 1.8521 0.1204 0.1650
C15 C 1.6926(3) 0.0050(4) 0.2537(2)
H14 H 1.7724 0.0045 0.2942
C16 C 1.5295(3) -0.0626(3) 0.27183(19)
H15 H 1.4986 -0.1091 0.3251
C17 C 0.7564(3) 0.4990(3) 0.32540(18)
H16 H 0.6523 0.4984 0.3449
H17 H 0.7485 0.3909 0.3264
C18 C 0.7841(8) 0.5419(10) 0.2281(5)
H18 H 0.8185 0.6579 0.2303
H19 H 0.8743 0.5194 0.2044
C19 C 0.6306(7) 0.4482(7) 0.1640(4)
H20 H 0.5850 0.3332 0.1697
H21 H 0.6618 0.4601 0.1016
C20 C 0.4947(7) 0.5061(7) 0.1830(4)
H22 H 0.4669 0.4967 0.2460
H23 H 0.5416 0.6210 0.1768
C21 C 0.3397(8) 0.4191(9) 0.1243(5)
C22 C 0.2181(9) 0.4676(11) 0.1279(6)
H24 H 0.2287 0.5530 0.1729
C23 C 0.1649(9) 0.2049(10) 0.0068(5)
H25 H 0.1446 0.1095 -0.0323
C24 C 0.3083(8) 0.2819(8) 0.0619(5)
H26 H 0.3872 0.2412 0.0575
C25 C 0.0831(4) 0.3985(4) 0.0700(2)
H27 H 0.0088 0.4448 0.0728
C26 C 0.0477(4) 0.2671(4) 0.0083(2)
H28 H -0.0485 0.2200 -0.0311
N1 N 1.2644(2) 0.3833(2) 0.39601(14)
N2 N 0.8922(2) 0.6161(2) 0.38608(14)
O1 O 1.47037(19) 0.6442(2) 0.49810(13)
O2 O 1.0979(2) 0.8650(2) 0.49218(13)
H29 H 1.360(3) 0.399(3) 0.4230(17)
H30 H 0.883(3) 0.701(3) 0.4095(18)
O3 O 0.7523(3) 0.8271(3) 0.41791(14)
H40 H 0.657(5) 0.780(4) 0.443(2)
H41 H 0.794(4) 0.922(4) 0.448(2)
C27? C 0.7406(8) 0.5596(9) 0.2427(5)
H31? H 0.8182 0.5480 0.1999
H32? H 0.7681 0.6747 0.2566
C28? C 0.5619(7) 0.4644(7) 0.1998(4)
H33? H 0.5333 0.3489 0.1896
H34? H 0.4856 0.4802 0.2423
C29? C 0.5396(6) 0.5141(7) 0.1144(4)
H35? H 0.6088 0.4905 0.0700
H36? H 0.5750 0.6310 0.1234
C30? C 0.3638(8) 0.4281(9) 0.0794(5)
C31? C 0.2497(9) 0.4828(11) 0.1061(6)
H37? H 0.2823 0.5768 0.1488
C32? C 0.1549(10) 0.2188(10) -0.0220(5)
H38? H 0.1218 0.1297 -0.0682
C33? C 0.3152(8) 0.2957(8) 0.0124(5)
H39? H 0.3923 0.2592 -0.0093
loop_
_geom_bond_atom_site_label_1
_geom_bond_atom_site_label_2
_geom_bond_site_symmetry_1
_geom_bond_site_symmetry_2
C1 H1 1_555 1_555
C2 C1 1_555 1_555
C3 C2 1_555 1_555
C4 C3 1_555 1_555
H2 C4 1_555 1_555
C5 C4 1_555 1_555
C6 C1 1_555 1_555
C7 H3 1_555 1_555
H4 C7 1_555 1_555
C8 C7 1_555 1_555
H5 C8 1_555 1_555
H6 C8 1_555 1_555
C9 C8 1_555 1_555
H7 C9 1_555 1_555
H8 C9 1_555 1_555
C10 C9 1_555 1_555
H9 C10 1_555 1_555
H10 C10 1_555 1_555
C11 C10 1_555 1_555
C12 C11 1_555 1_555
H11 C12 1_555 1_555
C13 C12 1_555 1_555
H12 C13 1_555 1_555
C14 C13 1_555 1_555
H13 C14 1_555 1_555
C15 C14 1_555 1_555
H14 C15 1_555 1_555
C16 C11 1_555 1_555
H15 C16 1_555 1_555
C17 H16 1_555 1_555
H17 C17 1_555 1_555
C18 C17 1_555 1_555
H18 C18 1_555 1_555
H19 C18 1_555 1_555
C19 C18 1_555 1_555
H20 C19 1_555 1_555
H21 C19 1_555 1_555
C20 C19 1_555 1_555
H22 C20 1_555 1_555
H23 C20 1_555 1_555
C21 C20 1_555 1_555
C22 C21 1_555 1_555
H24 C22 1_555 1_555
C23 H25 1_555 1_555
C24 C21 1_555 1_555
H26 C24 1_555 1_555
C25 C22 1_555 1_555
H27 C25 1_555 1_555
C26 C23 1_555 1_555
H28 C26 1_555 1_555
N1 C2 1_555 1_555
N2 C6 1_555 1_555
O1 C3 1_555 1_555
O2 C5 1_555 1_555
H29 N1 1_555 1_555
H30 N2 1_555 1_555
O3 H40 1_555 1_555
H41 O3 1_555 1_555
C5 C6 1_555 1_555
C7 N1 1_555 1_555
C15 C16 1_555 1_555
C17 N2 1_555 1_555
C23 C24 1_555 1_555
C25 C26 1_555 1_555

#END
