
#######################################################################
#
#                 Cambridge Crystallographic Data Centre
#                                CCDC 
#
#######################################################################
#
# If this CIF has been generated from an entry in the Cambridge 
# Structural Database, then it will include bibliographic, chemical, 
# crystal, experimental, refinement or atomic coordinate data resulting 
# from the CCDC's data processing and validation procedures.
#
#######################################################################

data_WAWZOM
_chemical_formula_moiety         'C24 H26 N2 O2'
_chemical_name_systematic        
3-oxo-4-[(3-phenylpropyl)amino]-6-[(3-phenylpropyl)iminio]cyclohexa-1,4-dien-1-olate
_symmetry_cell_setting           triclinic
_symmetry_space_group_name_H-M   'P -1'
_symmetry_Int_Tables_number      2
_space_group_name_Hall           '-P 1'
loop_
_symmetry_equiv_pos_site_id
_symmetry_equiv_pos_as_xyz
1 x,y,z
2 -x,-y,-z
_cell_length_a                   7.9425(3)
_cell_length_b                   11.2305(5)
_cell_length_c                   12.3864(5)
_cell_angle_alpha                69.7420(10)
_cell_angle_beta                 88.5510(10)
_cell_angle_gamma                74.2780(10)
_cell_volume                     994.847
_exptl_crystal_colour            red
_exptl_crystal_description       block
_cell_formula_units_Z            2
loop_
_atom_site_label
_atom_site_type_symbol
_atom_site_fract_x
_atom_site_fract_y
_atom_site_fract_z
C1 C -0.04172(14) 0.88815(12) 0.22138(9)
H1 H 0.0632 0.8311 0.2088
C2 C -0.19033(14) 0.93196(11) 0.14620(9)
C3 C -0.35951(14) 1.02384(11) 0.16516(9)
C4 C -0.35735(14) 1.07037(12) 0.25587(10)
H2 H -0.4599 1.1320 0.2653
C5 C -0.21110(14) 1.03022(12) 0.33320(10)
C6 C -0.04950(14) 0.92946(11) 0.31583(9)
C7 C -0.05380(15) 0.81273(12) 0.01918(10)
H3 H -0.0053 0.7294 0.0849
H4 H 0.0402 0.8572 -0.0038
C8 C -0.11203(16) 0.78163(13) -0.08120(10)
H5 H -0.1674 0.8653 -0.1450
H6 H -0.2011 0.7326 -0.0566
C9 C 0.04095(15) 0.69961(13) -0.12471(10)
H7 H 0.1282 0.7501 -0.1507
H8 H 0.0983 0.6176 -0.0598
C10 C -0.01083(14) 0.66257(12) -0.22278(10)
C11 C 0.05624(16) 0.53497(13) -0.22257(11)
H9 H 0.1337 0.4704 -0.1597
C12 C 0.01192(17) 0.50018(14) -0.31277(12)
H10 H 0.0594 0.4123 -0.3112
C13 C -0.10047(17) 0.59220(15) -0.40462(12)
H11 H -0.1311 0.5679 -0.4661
C14 C -0.16815(17) 0.71975(14) -0.40667(11)
H12 H -0.2456 0.7838 -0.4698
C15 C -0.12323(17) 0.75483(13) -0.31649(11)
H13 H -0.1700 0.8431 -0.3189
C16 C 0.23911(14) 0.78284(12) 0.40927(10)
H14 H 0.2186 0.7190 0.3761
H15 H 0.2783 0.7343 0.4919
C17 C 0.38208(15) 0.84023(12) 0.34782(11)
H16 H 0.4151 0.8937 0.3882
H17 H 0.3370 0.8992 0.2680
C18 C 0.54469(15) 0.73077(12) 0.34433(11)
H18 H 0.6398 0.7710 0.3118
H19 H 0.5855 0.6695 0.4241
C19 C 0.51035(15) 0.65331(12) 0.27334(11)
C20 C 0.5196(2) 0.52091(14) 0.32390(13)
H20 H 0.5493 0.4780 0.4045
C21 C 0.4863(2) 0.44942(17) 0.25957(16)
H21 H 0.4946 0.3582 0.2957
C22 C 0.4411(2) 0.51181(19) 0.14225(16)
H22 H 0.4154 0.4641 0.0978
C23 C 0.43351(19) 0.64377(17) 0.09017(14)
H23 H 0.4048 0.6864 0.0094
C24 C 0.46742(17) 0.71401(14) 0.15499(11)
H24 H 0.4614 0.8048 0.1184
N1 N -0.20023(13) 0.89807(10) 0.05527(8)
N2 N 0.07553(12) 0.88519(10) 0.39895(8)
O1 O -0.48890(11) 1.05140(9) 0.09671(7)
O2 O -0.20046(11) 1.06615(9) 0.41676(8)
H25 H -0.305(2) 0.9282(16) 0.0153(14)
H26 H 0.061(2) 0.9222(16) 0.4558(14)
loop_
_geom_bond_atom_site_label_1
_geom_bond_atom_site_label_2
_geom_bond_site_symmetry_1
_geom_bond_site_symmetry_2
C1 H1 1_555 1_555
C2 C1 1_555 1_555
C3 C2 1_555 1_555
C4 C3 1_555 1_555
H2 C4 1_555 1_555
C5 C4 1_555 1_555
C6 C1 1_555 1_555
C7 H3 1_555 1_555
H4 C7 1_555 1_555
C8 C7 1_555 1_555
H5 C8 1_555 1_555
H6 C8 1_555 1_555
C9 C8 1_555 1_555
H7 C9 1_555 1_555
H8 C9 1_555 1_555
C10 C9 1_555 1_555
C11 C10 1_555 1_555
H9 C11 1_555 1_555
C12 C11 1_555 1_555
H10 C12 1_555 1_555
C13 C12 1_555 1_555
H11 C13 1_555 1_555
C14 C13 1_555 1_555
H12 C14 1_555 1_555
C15 C10 1_555 1_555
H13 C15 1_555 1_555
C16 H14 1_555 1_555
H15 C16 1_555 1_555
C17 C16 1_555 1_555
H16 C17 1_555 1_555
H17 C17 1_555 1_555
C18 C17 1_555 1_555
H18 C18 1_555 1_555
H19 C18 1_555 1_555
C19 C18 1_555 1_555
C20 C19 1_555 1_555
H20 C20 1_555 1_555
C21 C20 1_555 1_555
H21 C21 1_555 1_555
C22 C21 1_555 1_555
H22 C22 1_555 1_555
C23 C22 1_555 1_555
H23 C23 1_555 1_555
C24 C19 1_555 1_555
H24 C24 1_555 1_555
N1 C2 1_555 1_555
N2 C6 1_555 1_555
O1 C3 1_555 1_555
O2 C5 1_555 1_555
H25 N1 1_555 1_555
H26 N2 1_555 1_555
C5 C6 1_555 1_555
C7 N1 1_555 1_555
C14 C15 1_555 1_555
C16 N2 1_555 1_555
C23 C24 1_555 1_555

#END
