
#######################################################################
#
#                 Cambridge Crystallographic Data Centre
#                                CCDC 
#
#######################################################################
#
# If this CIF has been generated from an entry in the Cambridge 
# Structural Database, then it will include bibliographic, chemical, 
# crystal, experimental, refinement or atomic coordinate data resulting 
# from the CCDC's data processing and validation procedures.
#
#######################################################################

data_WAXBAB
_chemical_formula_moiety         'C22 H22 N2 O2'
_chemical_name_systematic        
3-oxo-4-[(2-phenylethyl)amino]-6-[(2-phenylethyl)iminio]cyclohexa-1,4-dien-1-olate
_symmetry_cell_setting           triclinic
_symmetry_space_group_name_H-M   'P -1'
_symmetry_Int_Tables_number      2
_space_group_name_Hall           '-P 1'
loop_
_symmetry_equiv_pos_site_id
_symmetry_equiv_pos_as_xyz
1 x,y,z
2 -x,-y,-z
_cell_length_a                   5.0542(5)
_cell_length_b                   9.8327(9)
_cell_length_c                   18.1540(17)
_cell_angle_alpha                97.826(2)
_cell_angle_beta                 91.725(2)
_cell_angle_gamma                96.982(2)
_cell_volume                     886.159
_exptl_crystal_colour            red
_exptl_crystal_description       plate
_cell_formula_units_Z            2
loop_
_atom_site_label
_atom_site_type_symbol
_atom_site_fract_x
_atom_site_fract_y
_atom_site_fract_z
C1 C 0.6113(4) 0.8165(2) 0.59169(12)
H1 H 0.6796 0.8553 0.6403
C2 C 0.7148(4) 0.7040(2) 0.55396(11)
C3 C 0.6209(4) 0.6450(2) 0.47443(12)
C4 C 0.4109(4) 0.7019(2) 0.44355(11)
H2 H 0.3423 0.6632 0.3949
C5 C 0.2964(4) 0.8127(2) 0.48051(11)
C6 C 0.4077(4) 0.8722(2) 0.55808(11)
C7 C 1.0076(4) 0.6769(2) 0.65962(12)
H3 H 1.0511 0.7787 0.6707
H4 H 1.1757 0.6358 0.6642
C8 C 0.8179(5) 0.6273(3) 0.71681(14)
H5 H 0.6361 0.6479 0.7045
H6 H 0.8110 0.5258 0.7146
C9 C 0.9049(5) 0.6962(3) 0.79458(13)
C10 C 0.9364(12) 0.6230(7) 0.8505(3)
H7 H 0.8999 0.5250 0.8408
C11 C 1.0205(12) 0.6848(7) 0.9224(3)
H8 H 1.0400 0.6295 0.9608
C12 C 1.0746(7) 0.8254(4) 0.93710(16)
H9 H 1.1403 0.8672 0.9855
C13 C 1.0370(13) 0.9066(7) 0.8842(3)
H10 H 1.0705 1.0045 0.8959
C14 C 0.9492(13) 0.8462(6) 0.8131(3)
H11 H 0.9178 0.9028 0.7761
C15 C 0.3853(4) 1.0494(2) 0.66433(12)
H12 H 0.5621 1.1032 0.6608
H13 H 0.4071 0.9804 0.6983
C16 C 0.1948(5) 1.1461(3) 0.69698(13)
H14 H 0.1849 1.2203 0.6656
H15 H 0.0141 1.0942 0.6967
C17 C 0.2814(5) 1.2105(3) 0.77563(13)
C18 C 0.3538(11) 1.3452(6) 0.7896(3)
H16 H 0.3444 1.4004 0.7508
C19 C 0.4440(11) 1.4068(6) 0.8609(3)
H17 H 0.5096 1.5026 0.8695
C20 C 0.4393(7) 1.3282(3) 0.92115(16)
H18 H 0.4805 1.3713 0.9709
C21 C 0.3738(11) 1.1894(6) 0.9047(3)
H19 H 0.3886 1.1333 0.9429
C22 C 0.2856(12) 1.1264(6) 0.8334(3)
H20 H 0.2295 1.0297 0.8236
N1 N 0.8976(4) 0.64059(19) 0.58352(10)
N2 N 0.2944(4) 0.97705(18) 0.59074(10)
O1 O 0.7359(3) 0.54909(16) 0.44303(9)
O2 O 0.1117(3) 0.86834(16) 0.45453(9)
H21 H 0.953(6) 0.574(3) 0.5557(15)
H22 H 0.175(6) 1.012(3) 0.5626(17)
C23? C 1.1587(13) 0.6751(7) 0.8260(3)
H23? H 1.2686 0.6157 0.7993
C24? C 1.2389(13) 0.7439(6) 0.8967(3)
H24? H 1.4094 0.7347 0.9175
C25? C 0.8280(13) 0.8383(6) 0.9047(3)
H25? H 0.7117 0.8937 0.9316
C26? C 0.7489(14) 0.7713(6) 0.8336(3)
H26? H 0.5781 0.7805 0.8130
C27? C 0.1031(12) 1.2719(6) 0.8214(3)
H27? H -0.0715 1.2761 0.8017
C28? C 0.1692(12) 1.3276(6) 0.8948(3)
H28? H 0.0405 1.3638 0.9264
C29? C 0.6114(12) 1.2721(6) 0.8801(3)
H29? H 0.7853 1.2683 0.9005
C30? C 0.5448(12) 1.2171(6) 0.8065(3)
H30? H 0.6786 1.1832 0.7760
loop_
_geom_bond_atom_site_label_1
_geom_bond_atom_site_label_2
_geom_bond_site_symmetry_1
_geom_bond_site_symmetry_2
C1 H1 1_555 1_555
C2 C1 1_555 1_555
C3 C2 1_555 1_555
C4 C3 1_555 1_555
H2 C4 1_555 1_555
C5 C4 1_555 1_555
C6 C1 1_555 1_555
C7 H3 1_555 1_555
H4 C7 1_555 1_555
C8 C7 1_555 1_555
H5 C8 1_555 1_555
H6 C8 1_555 1_555
C9 C8 1_555 1_555
C10 C9 1_555 1_555
H7 C10 1_555 1_555
C11 C10 1_555 1_555
H8 C11 1_555 1_555
C12 C11 1_555 1_555
H9 C12 1_555 1_555
C13 C12 1_555 1_555
H10 C13 1_555 1_555
C14 C9 1_555 1_555
H11 C14 1_555 1_555
C15 H12 1_555 1_555
H13 C15 1_555 1_555
C16 C15 1_555 1_555
H14 C16 1_555 1_555
H15 C16 1_555 1_555
C17 C16 1_555 1_555
C18 C17 1_555 1_555
H16 C18 1_555 1_555
C19 C18 1_555 1_555
H17 C19 1_555 1_555
C20 C19 1_555 1_555
H18 C20 1_555 1_555
C21 C20 1_555 1_555
H19 C21 1_555 1_555
C22 C17 1_555 1_555
H20 C22 1_555 1_555
N1 C2 1_555 1_555
N2 C6 1_555 1_555
O1 C3 1_555 1_555
O2 C5 1_555 1_555
H21 N1 1_555 1_555
H22 N2 1_555 1_555
C5 C6 1_555 1_555
C7 N1 1_555 1_555
C13 C14 1_555 1_555
C15 N2 1_555 1_555
C21 C22 1_555 1_555

#END
