
#######################################################################
#
#                 Cambridge Crystallographic Data Centre
#                                CCDC 
#
#######################################################################
#
# If this CIF has been generated from an entry in the Cambridge 
# Structural Database, then it will include bibliographic, chemical, 
# crystal, experimental, refinement or atomic coordinate data resulting 
# from the CCDC's data processing and validation procedures.
#
#######################################################################

data_WAXCOQ
_chemical_formula_moiety         'C22 H25 N3 O6 S1'
_chemical_name_systematic        
't-butyl 1-({2-[(4-methylphenyl)sulfonyl]hydrazinylidene}methyl)-2-(3-nitrophenyl)cyclopropane-1-carboxylate'
_symmetry_cell_setting           monoclinic
_symmetry_space_group_name_H-M   'P 21'
_symmetry_Int_Tables_number      4
_space_group_name_Hall           'P 2yb'
loop_
_symmetry_equiv_pos_site_id
_symmetry_equiv_pos_as_xyz
1 x,y,z
2 -x,1/2+y,-z
_cell_length_a                   13.2053(5)
_cell_length_b                   5.3447(2)
_cell_length_c                   15.9599(7)
_cell_angle_alpha                90
_cell_angle_beta                 93.6740(10)
_cell_angle_gamma                90
_cell_volume                     1124.11
_exptl_crystal_colour            colorless
_exptl_crystal_description       block
_cell_formula_units_Z            2
loop_
_atom_site_label
_atom_site_type_symbol
_atom_site_fract_x
_atom_site_fract_y
_atom_site_fract_z
S1 S 0.45624(4) 0.18149(10) 0.79539(3)
O1 O -0.08414(13) 1.1328(4) 0.91561(9)
O2 O 0.43804(12) -0.0575(3) 0.75733(10)
O3 O -0.10766(12) 1.2040(4) 0.78255(9)
O4 O 0.11170(11) 0.5626(3) 0.45537(9)
O5 O 0.26682(11) 0.7195(3) 0.49665(9)
C1 C 0.30336(15) 0.2005(5) 1.04239(13)
C2 C 0.39058(15) 0.1934(5) 0.88816(12)
O6 O 0.55747(11) 0.2664(3) 0.81624(9)
N1 N 0.41098(14) 0.3931(4) 0.72958(12)
C3 C 0.27880(17) 0.0129(5) 0.98392(14)
H1 H 0.2321 -0.1142 0.9971
C4 C 0.41422(17) 0.3855(5) 0.94493(13)
H2 H 0.4606 0.5132 0.9316
N2 N 0.31701(13) 0.3458(4) 0.68718(11)
N3 N -0.06930(14) 1.0843(4) 0.84180(11)
C5 C 0.18107(17) 0.4996(5) 0.59575(13)
C6 C 0.27715(16) 0.5335(5) 0.64824(13)
H3 H 0.3039(17) 0.697(6) 0.6514(13)
C7 C -0.00306(16) 0.8733(5) 0.82438(13)
C8 C 0.18061(16) 0.5966(4) 0.50751(13)
C9 C 0.04456(17) 0.7465(5) 0.89190(13)
H4 H 0.0356 0.7965 0.9481
C10 C 0.26198(18) 0.1942(6) 1.12836(14)
H5 H 0.1920 0.1321 1.1237
H6 H 0.2632 0.3633 1.1521
H7 H 0.3039 0.0830 1.1651
C11 C 0.06928(16) 0.6021(5) 0.72494(13)
C12 C 0.32159(17) 0.0089(5) 0.90652(14)
H8 H 0.3038 -0.1185 0.8668
C13 C 0.11769(17) 0.4722(5) 0.79230(14)
H9 H 0.1594 0.3325 0.7816
C14 C 0.11427(17) 0.2771(5) 0.60923(14)
H10 H 0.0799 0.1987 0.5589
H11 H 0.1366 0.1580 0.6542
C15 C 0.10543(17) 0.5450(5) 0.87462(14)
H12 H 0.1393 0.4553 0.9195
C16 C 0.07670(17) 0.5266(5) 0.63534(13)
H13 H 0.0219 0.5977 0.5962
C17 C 0.00842(17) 0.8056(5) 0.74150(13)
H14 H -0.0249 0.8972 0.6968
C18 C 0.20686(19) 1.0036(5) 0.38203(15)
H15 H 0.1453 0.9064 0.3676
H16 H 0.2277 1.0908 0.3319
H17 H 0.1932 1.1263 0.4255
C19 C 0.36965(17) 0.3889(5) 1.02085(14)
H18 H 0.3845 0.5222 1.0591
C20 C 0.38835(19) 0.9699(6) 0.43783(18)
H19 H 0.3756 1.0977 0.4799
H20 H 0.4126 1.0504 0.3877
H21 H 0.4398 0.8526 0.4610
C21 C 0.29090(18) 0.8294(5) 0.41443(13)
C22 C 0.3076(2) 0.6197(5) 0.35308(16)
H22 H 0.3591 0.5045 0.3776
H23 H 0.3307 0.6898 0.3009
H24 H 0.2438 0.5290 0.3411
H25 H 0.4236(19) 0.549(6) 0.7400(16)
loop_
_geom_bond_atom_site_label_1
_geom_bond_atom_site_label_2
_geom_bond_site_symmetry_1
_geom_bond_site_symmetry_2
S1 O2 1_555 1_555
O1 N3 1_555 1_555
O3 N3 1_555 1_555
O4 C8 1_555 1_555
O5 C8 1_555 1_555
C1 C3 1_555 1_555
C2 S1 1_555 1_555
O6 S1 1_555 1_555
N1 S1 1_555 1_555
C3 H1 1_555 1_555
C4 C2 1_555 1_555
H2 C4 1_555 1_555
N2 N1 1_555 1_555
N3 C7 1_555 1_555
C5 C6 1_555 1_555
C6 N2 1_555 1_555
H3 C6 1_555 1_555
C7 C9 1_555 1_555
C8 C5 1_555 1_555
C9 H4 1_555 1_555
C10 C1 1_555 1_555
H5 C10 1_555 1_555
H6 C10 1_555 1_555
H7 C10 1_555 1_555
C11 C13 1_555 1_555
C12 C2 1_555 1_555
H8 C12 1_555 1_555
C13 H9 1_555 1_555
C14 C5 1_555 1_555
H10 C14 1_555 1_555
H11 C14 1_555 1_555
C15 C9 1_555 1_555
H12 C15 1_555 1_555
C16 C5 1_555 1_555
H13 C16 1_555 1_555
C17 C7 1_555 1_555
H14 C17 1_555 1_555
C18 H15 1_555 1_555
H16 C18 1_555 1_555
H17 C18 1_555 1_555
C19 C1 1_555 1_555
H18 C19 1_555 1_555
C20 H19 1_555 1_555
H20 C20 1_555 1_555
H21 C20 1_555 1_555
C21 O5 1_555 1_555
C22 C21 1_555 1_555
H22 C22 1_555 1_555
H23 C22 1_555 1_555
H24 C22 1_555 1_555
H25 N1 1_555 1_555
C3 C12 1_555 1_555
C4 C19 1_555 1_555
C11 C16 1_555 1_555
C11 C17 1_555 1_555
C13 C15 1_555 1_555
C14 C16 1_555 1_555
C18 C21 1_555 1_555
C20 C21 1_555 1_555

#END
