
#######################################################################
#
#                 Cambridge Crystallographic Data Centre
#                                CCDC 
#
#######################################################################
#
# If this CIF has been generated from an entry in the Cambridge 
# Structural Database, then it will include bibliographic, chemical, 
# crystal, experimental, refinement or atomic coordinate data resulting 
# from the CCDC's data processing and validation procedures.
#
#######################################################################

data_WAXJUC
_chemical_formula_moiety         'C14 H14 N4 O4'
_chemical_name_systematic        
(1R,2R)-1,2-bis(3-nitrophenyl)ethane-1,2-diamine
_symmetry_cell_setting           monoclinic
_symmetry_space_group_name_H-M   'P 21'
_symmetry_Int_Tables_number      4
_space_group_name_Hall           'P 2yb'
loop_
_symmetry_equiv_pos_site_id
_symmetry_equiv_pos_as_xyz
1 x,y,z
2 -x,1/2+y,-z
_cell_length_a                   7.245(4)
_cell_length_b                   8.519(4)
_cell_length_c                   11.478(4)
_cell_angle_alpha                90
_cell_angle_beta                 95.64(4)
_cell_angle_gamma                90
_cell_volume                     704.994
_exptl_crystal_colour            orange
_exptl_crystal_description       block
_cell_formula_units_Z            2
loop_
_atom_site_label
_atom_site_type_symbol
_atom_site_fract_x
_atom_site_fract_y
_atom_site_fract_z
O1 O 0.7705(5) 1.1055(4) 0.7410(3)
O2 O 0.8706(6) 1.0430(5) 0.9167(3)
O3 O 0.6381(6) 0.0119(5) 0.1338(3)
O4 O 0.7234(6) 0.0140(4) 0.3166(3)
N1 N 0.8173(5) 1.0082(5) 0.8159(3)
N2 N 0.5386(4) 0.6990(5) 0.4612(3)
H1 H 0.5052 0.7793 0.4994
H2 H 0.4902 0.6826 0.3908
N3 N 0.9297(6) 0.7214(6) 0.4297(3)
H3 H 0.999(7) 0.723(7) 0.380(4)
H4 H 0.877(9) 0.808(8) 0.407(5)
N4 N 0.6857(5) 0.0809(4) 0.2234(3)
C1 C 0.8094(5) 0.8410(5) 0.7841(3)
C2 C 0.8620(6) 0.7314(7) 0.8695(3)
H5 H 0.9010 0.7613 0.9459
C3 C 0.8545(7) 0.5763(6) 0.8369(4)
H6 H 0.8907 0.4993 0.8919
C4 C 0.7944(6) 0.5333(6) 0.7245(4)
H7 H 0.7885 0.4274 0.7050
C5 C 0.7423(5) 0.6437(5) 0.6395(3)
C6 C 0.7492(5) 0.8011(5) 0.6700(3)
H8 H 0.7141 0.8782 0.6149
C7 C 0.6774(5) 0.5907(5) 0.5158(3)
H9 H 0.6181 0.4879 0.5211
C8 C 0.8376(5) 0.5718(4) 0.4405(3)
H10 H 0.9278 0.5015 0.4830
C9 C 0.7717(4) 0.4910(4) 0.3268(3)
C10 C 0.7621(5) 0.3283(4) 0.3237(3)
H11 H 0.8007 0.2706 0.3905
C11 C 0.6958(5) 0.2515(5) 0.2224(3)
C12 C 0.6396(5) 0.3318(5) 0.1205(3)
H12 H 0.5960 0.2784 0.0526
C13 C 0.6499(6) 0.4920(5) 0.1226(3)
H13 H 0.6132 0.5488 0.0551
C14 C 0.7145(6) 0.5705(5) 0.2238(3)
H14 H 0.7198 0.6795 0.2230
loop_
_geom_bond_atom_site_label_1
_geom_bond_atom_site_label_2
_geom_bond_site_symmetry_1
_geom_bond_site_symmetry_2
O1 N1 1_555 1_555
O2 N1 1_555 1_555
O3 N4 1_555 1_555
O4 N4 1_555 1_555
N1 C1 1_555 1_555
N2 H1 1_555 1_555
H2 N2 1_555 1_555
N3 H3 1_555 1_555
H4 N3 1_555 1_555
N4 C11 1_555 1_555
C1 C2 1_555 1_555
C2 H5 1_555 1_555
C3 C2 1_555 1_555
H6 C3 1_555 1_555
C4 C3 1_555 1_555
H7 C4 1_555 1_555
C5 C4 1_555 1_555
C6 C1 1_555 1_555
H8 C6 1_555 1_555
C7 N2 1_555 1_555
H9 C7 1_555 1_555
C8 N3 1_555 1_555
H10 C8 1_555 1_555
C9 C8 1_555 1_555
C10 C9 1_555 1_555
H11 C10 1_555 1_555
C11 C10 1_555 1_555
C12 C11 1_555 1_555
H12 C12 1_555 1_555
C13 C12 1_555 1_555
H13 C13 1_555 1_555
C14 C9 1_555 1_555
H14 C14 1_555 1_555
C5 C6 1_555 1_555
C5 C7 1_555 1_555
C7 C8 1_555 1_555
C13 C14 1_555 1_555

#END
