
#######################################################################
#
#                 Cambridge Crystallographic Data Centre
#                                CCDC 
#
#######################################################################
#
# If this CIF has been generated from an entry in the Cambridge 
# Structural Database, then it will include bibliographic, chemical, 
# crystal, experimental, refinement or atomic coordinate data resulting 
# from the CCDC's data processing and validation procedures.
#
#######################################################################

data_WAXKOY
_chemical_formula_moiety         'C29 H21 N5 O3'
_chemical_name_systematic        
'ethyl 9,9-dicyano-4-oxo-3,6,8-triphenyl-2,3,7-triazaspiro[4.4]nona-1,6-diene-1-carboxylate'
_symmetry_cell_setting           monoclinic
_symmetry_space_group_name_H-M   'P 21/c'
_symmetry_Int_Tables_number      14
_space_group_name_Hall           '-P 2ybc'
loop_
_symmetry_equiv_pos_site_id
_symmetry_equiv_pos_as_xyz
1 x,y,z
2 -x,1/2+y,1/2-z
3 -x,-y,-z
4 x,1/2-y,1/2+z
_cell_length_a                   12.843(12)
_cell_length_b                   11.009(10)
_cell_length_c                   18.175(17)
_cell_angle_alpha                90
_cell_angle_beta                 103.298(12)
_cell_angle_gamma                90
_cell_volume                     2500.83
_exptl_crystal_colour            colorless
_exptl_crystal_description       needle
_cell_formula_units_Z            4
loop_
_atom_site_label
_atom_site_type_symbol
_atom_site_fract_x
_atom_site_fract_y
_atom_site_fract_z
O1 O 0.62157(15) 0.46544(18) 1.06855(12)
O2 O 0.92213(16) 0.23755(18) 0.96929(13)
O3 O 1.05250(16) 0.3613(2) 1.02781(13)
N1 N 0.80315(17) 0.4903(2) 1.11845(13)
N2 N 0.89717(17) 0.4507(2) 1.10079(13)
N3 N 0.62421(18) 0.2610(2) 0.92792(13)
N4 N 0.8495(2) 0.4211(3) 0.84228(16)
N5 N 0.6778(3) 0.6794(3) 0.93978(18)
C1 C 0.8254(3) 0.7246(3) 1.3009(2)
H1 H 0.8309 0.7766 1.3419
C2 C 0.7316(3) 0.6685(4) 1.2700(2)
H2 H 0.6719 0.6839 1.2893
C3 C 0.7234(3) 0.5890(4) 1.2106(2)
H3 H 0.6591 0.5494 1.1907
C4 C 0.8101(2) 0.5688(2) 1.18109(16)
C5 C 0.7134(2) 0.4509(2) 1.06696(16)
C6 C 0.75599(19) 0.3824(2) 1.00637(15)
C7 C 0.7168(2) 0.4503(2) 0.92888(16)
C8 C 0.6096(2) 0.3798(2) 0.89317(15)
H4 H 0.5508 0.4202 0.9096
C9 C 0.5831(2) 0.3780(2) 0.80834(16)
C10 C 0.5960(2) 0.2764(3) 0.76876(17)
H5 H 0.6215 0.2055 0.7944
C11 C 0.5714(3) 0.2779(3) 0.6910(2)
H6 H 0.5787 0.2075 0.6644
C12 C 0.5362(2) 0.3829(3) 0.65250(19)
H7 H 0.5196 0.3836 0.5999
C13 C 0.9054(2) 0.6249(3) 1.21152(17)
H8 H 0.9652 0.6099 1.1922
C14 C 0.9116(3) 0.7033(3) 1.2706(2)
H9 H 0.9758 0.7430 1.2906
C15 C 0.8739(2) 0.3890(2) 1.04024(15)
C16 C 0.7000(2) 0.2599(2) 0.98660(15)
C17 C 0.7272(2) 0.1516(2) 1.03358(16)
C18 C 0.7846(2) 0.1571(3) 1.10793(17)
H10 H 0.8097 0.2315 1.1291
C19 C 0.8044(3) 0.0537(3) 1.1503(2)
H11 H 0.8427 0.0581 1.2003
C20 C 0.7684(3) -0.0564(3) 1.1200(2)
H12 H 0.7819 -0.1263 1.1494
C21 C 0.7130(4) -0.0636(3) 1.0471(2)
H13 H 0.6890 -0.1386 1.0264
C22 C 0.6925(3) 0.0388(3) 1.0042(2)
H14 H 0.6544 0.0329 0.9542
C23 C 0.5257(3) 0.4857(3) 0.6914(2)
H15 H 0.5031 0.5574 0.6657
C24 C 0.5486(2) 0.4831(3) 0.76875(18)
H16 H 0.5407 0.5535 0.7952
C25 C 0.7931(2) 0.4348(3) 0.88094(17)
C26 C 0.6972(2) 0.5801(3) 0.93595(17)
C27 C 0.9614(2) 0.3301(3) 1.01224(16)
C28 C 0.9945(3) 0.1710(4) 0.9336(2)
H17 H 1.0440 0.1228 0.9706
H18 H 1.0352 0.2263 0.9095
C29 C 0.9257(5) 0.0915(6) 0.8766(4)
H19 H 0.9092 0.0187 0.9006
H20 H 0.9628 0.0708 0.8381
H21 H 0.8607 0.1335 0.8541
loop_
_geom_bond_atom_site_label_1
_geom_bond_atom_site_label_2
_geom_bond_site_symmetry_1
_geom_bond_site_symmetry_2
O1 C5 1_555 1_555
O2 C27 1_555 1_555
O3 C27 1_555 1_555
N1 N2 1_555 1_555
N2 C15 1_555 1_555
N3 C8 1_555 1_555
N4 C25 1_555 1_555
N5 C26 1_555 1_555
C1 H1 1_555 1_555
C2 C1 1_555 1_555
H2 C2 1_555 1_555
C3 C2 1_555 1_555
H3 C3 1_555 1_555
C4 N1 1_555 1_555
C5 N1 1_555 1_555
C6 C5 1_555 1_555
C7 C6 1_555 1_555
C8 C7 1_555 1_555
H4 C8 1_555 1_555
C9 C8 1_555 1_555
C10 C9 1_555 1_555
H5 C10 1_555 1_555
C11 C10 1_555 1_555
H6 C11 1_555 1_555
C12 C11 1_555 1_555
H7 C12 1_555 1_555
C13 C4 1_555 1_555
H8 C13 1_555 1_555
C14 C1 1_555 1_555
H9 C14 1_555 1_555
C15 C6 1_555 1_555
C16 N3 1_555 1_555
C17 C16 1_555 1_555
C18 C17 1_555 1_555
H10 C18 1_555 1_555
C19 C18 1_555 1_555
H11 C19 1_555 1_555
C20 C19 1_555 1_555
H12 C20 1_555 1_555
C21 C20 1_555 1_555
H13 C21 1_555 1_555
C22 C17 1_555 1_555
H14 C22 1_555 1_555
C23 C12 1_555 1_555
H15 C23 1_555 1_555
C24 C9 1_555 1_555
H16 C24 1_555 1_555
C25 C7 1_555 1_555
C26 C7 1_555 1_555
C27 C15 1_555 1_555
C28 O2 1_555 1_555
H17 C28 1_555 1_555
H18 C28 1_555 1_555
C29 C28 1_555 1_555
H19 C29 1_555 1_555
H20 C29 1_555 1_555
H21 C29 1_555 1_555
C3 C4 1_555 1_555
C6 C16 1_555 1_555
C13 C14 1_555 1_555
C21 C22 1_555 1_555
C23 C24 1_555 1_555

#END
