
#######################################################################
#
#                 Cambridge Crystallographic Data Centre
#                                CCDC 
#
#######################################################################
#
# If this CIF has been generated from an entry in the Cambridge 
# Structural Database, then it will include bibliographic, chemical, 
# crystal, experimental, refinement or atomic coordinate data resulting 
# from the CCDC's data processing and validation procedures.
#
#######################################################################

data_WAXKEO
_chemical_formula_moiety         'C22 H16 N4 O3'
_chemical_name_systematic        
'ethyl 1,1-dicyano-7-oxo-2,6-diphenyl-5,6-diazaspiro[2.4]hept-4-ene-4-carboxylate'
_symmetry_cell_setting           triclinic
_symmetry_space_group_name_H-M   'P -1'
_symmetry_Int_Tables_number      2
_space_group_name_Hall           '-P 1'
loop_
_symmetry_equiv_pos_site_id
_symmetry_equiv_pos_as_xyz
1 x,y,z
2 -x,-y,-z
_cell_length_a                   9.9417(4)
_cell_length_b                   10.1104(4)
_cell_length_c                   10.6132(5)
_cell_angle_alpha                87.141(2)
_cell_angle_beta                 69.537(2)
_cell_angle_gamma                75.045(2)
_cell_volume                     964.653
_exptl_crystal_colour            'light yellow'
_exptl_crystal_description       needle
_cell_formula_units_Z            2
loop_
_atom_site_label
_atom_site_type_symbol
_atom_site_fract_x
_atom_site_fract_y
_atom_site_fract_z
O1 O 0.87795(13) -0.23427(11) 0.85377(11)
O2 O 0.72157(12) -0.26679(10) 1.05656(11)
N1 N 0.56384(12) 0.14771(11) 1.09267(11)
N2 N 0.60349(13) 0.00685(11) 1.09641(11)
O3 O 0.63968(13) 0.31301(10) 0.94267(11)
C1 C 0.2349(2) 0.3666(2) 1.4356(2)
H1 H 0.1601 0.4143 1.5111
C2 C 0.2866(2) 0.4338(2) 1.3207(2)
H2 H 0.2473 0.5277 1.3192
C3 C 0.39679(19) 0.36429(17) 1.20641(17)
H3 H 0.4318 0.4109 1.1289
C4 C 0.45376(15) 0.22447(14) 1.20948(13)
C5 C 0.64897(15) 0.19577(13) 0.97466(13)
C6 C 0.75586(14) 0.06736(13) 0.89821(12)
C7 C 0.82385(15) 0.04849(14) 0.74643(12)
H4 H 0.8499 -0.0471 0.7141
C8 C 0.77635(16) 0.14878(14) 0.65246(13)
C9 C 0.88298(19) 0.18583(16) 0.54199(14)
H5 H 0.9828 0.1569 0.5326
C10 C 0.8405(3) 0.26599(19) 0.44574(16)
H6 H 0.9117 0.2912 0.3720
C11 C 0.6923(3) 0.3084(2) 0.45940(18)
H7 H 0.6640 0.3607 0.3939
C12 C 0.71384(14) -0.04212(13) 0.98837(12)
C13 C 0.5868(2) 0.2736(2) 0.56952(19)
H8 H 0.4870 0.3033 0.5788
C14 C 0.62767(18) 0.19474(17) 0.66667(15)
H9 H 0.5554 0.1725 0.7416
C15 C 0.91961(15) 0.07431(14) 0.82242(13)
C16 C 0.95154(17) 0.20767(17) 0.81558(15)
N3 N 0.9880(2) 0.30628(18) 0.80538(19)
C17 C 1.03958(16) -0.03381(16) 0.83931(14)
N4 N 1.13621(17) -0.11232(16) 0.85604(16)
C18 C 0.78006(15) -0.19137(14) 0.95844(14)
C19 C 0.7918(2) -0.41458(16) 1.03359(19)
H10 H 0.7666 -0.4509 0.9644
H11 H 0.8990 -0.4308 1.0033
C20 C 0.7401(3) -0.4829(2) 1.1581(2)
H12 H 0.7662 -0.4472 1.2260
H13 H 0.7857 -0.5796 1.1435
H14 H 0.6341 -0.4672 1.1871
C21 C 0.40462(19) 0.15635(18) 1.32607(15)
H15 H 0.4453 0.0630 1.3290
C22 C 0.2941(2) 0.2286(2) 1.43856(18)
H16 H 0.2597 0.1829 1.5168
loop_
_geom_bond_atom_site_label_1
_geom_bond_atom_site_label_2
_geom_bond_site_symmetry_1
_geom_bond_site_symmetry_2
O1 C18 1_555 1_555
O2 C18 1_555 1_555
N1 N2 1_555 1_555
N2 C12 1_555 1_555
O3 C5 1_555 1_555
C1 H1 1_555 1_555
C2 C1 1_555 1_555
H2 C2 1_555 1_555
C3 C2 1_555 1_555
H3 C3 1_555 1_555
C4 N1 1_555 1_555
C5 N1 1_555 1_555
C6 C5 1_555 1_555
C7 C6 1_555 1_555
H4 C7 1_555 1_555
C8 C7 1_555 1_555
C9 C8 1_555 1_555
H5 C9 1_555 1_555
C10 C9 1_555 1_555
H6 C10 1_555 1_555
C11 C10 1_555 1_555
H7 C11 1_555 1_555
C12 C6 1_555 1_555
C13 C11 1_555 1_555
H8 C13 1_555 1_555
C14 C8 1_555 1_555
H9 C14 1_555 1_555
C15 C6 1_555 1_555
C16 C15 1_555 1_555
N3 C16 1_555 1_555
C17 C15 1_555 1_555
N4 C17 1_555 1_555
C18 C12 1_555 1_555
C19 O2 1_555 1_555
H10 C19 1_555 1_555
H11 C19 1_555 1_555
C20 C19 1_555 1_555
H12 C20 1_555 1_555
H13 C20 1_555 1_555
H14 C20 1_555 1_555
C21 C4 1_555 1_555
H15 C21 1_555 1_555
C22 C1 1_555 1_555
H16 C22 1_555 1_555
C3 C4 1_555 1_555
C7 C15 1_555 1_555
C13 C14 1_555 1_555
C21 C22 1_555 1_555

#END
