
#######################################################################
#
#                 Cambridge Crystallographic Data Centre
#                                CCDC 
#
#######################################################################
#
# If this CIF has been generated from an entry in the Cambridge 
# Structural Database, then it will include bibliographic, chemical, 
# crystal, experimental, refinement or atomic coordinate data resulting 
# from the CCDC's data processing and validation procedures.
#
#######################################################################

data_WAXKIS
_chemical_formula_moiety         'C27 H19 N5 O1 S1'
_chemical_name_systematic        
1-methyl-4-oxo-3,8-diphenyl-6-(phenylimino)-7-thia-2,3-diazaspiro[4.4]non-1-ene-9,9-dicarbonitrile
_symmetry_cell_setting           monoclinic
_symmetry_space_group_name_H-M   'P 21/c'
_symmetry_Int_Tables_number      14
_space_group_name_Hall           '-P 2ybc'
loop_
_symmetry_equiv_pos_site_id
_symmetry_equiv_pos_as_xyz
1 x,y,z
2 -x,1/2+y,1/2-z
3 -x,-y,-z
4 x,1/2-y,1/2+z
_cell_length_a                   13.565(11)
_cell_length_b                   11.634(9)
_cell_length_c                   14.456(11)
_cell_angle_alpha                90
_cell_angle_beta                 93.247(12)
_cell_angle_gamma                90
_cell_volume                     2277.71
_exptl_crystal_colour            colorless
_exptl_crystal_description       needle
_cell_formula_units_Z            4
loop_
_atom_site_label
_atom_site_type_symbol
_atom_site_fract_x
_atom_site_fract_y
_atom_site_fract_z
S1 S 0.37974(5) 0.30590(6) 0.05365(5)
O1 O 0.29524(13) 0.06537(16) -0.07847(12)
N1 N 0.12579(14) 0.07830(17) -0.08120(14)
N2 N 0.20356(14) 0.37702(17) -0.02525(13)
N3 N 0.21959(18) 0.2441(2) 0.26805(18)
N4 N 0.24765(19) -0.0839(2) 0.13979(19)
N5 N 0.05495(14) 0.13463(18) -0.02990(15)
C1 C 0.0251(3) -0.1057(3) -0.3150(2)
H1 H 0.0019 -0.1471 -0.3668
C2 C -0.0324(3) -0.0233(3) -0.2786(2)
H2 H -0.0947 -0.0083 -0.3063
C3 C 0.0001(2) 0.0383(2) -0.20169(19)
H3 H -0.0396 0.0945 -0.1772
C4 C 0.09268(19) 0.0153(2) -0.16128(17)
C5 C 0.21950(19) 0.1015(2) -0.04950(17)
C6 C 0.20933(15) 0.1836(2) 0.03332(16)
C7 C 0.26991(17) 0.1370(2) 0.12026(16)
C8 C 0.38004(16) 0.1623(2) 0.10176(17)
H4 H 0.3994 0.1093 0.0533
C9 C 0.45410(17) 0.1491(2) 0.18344(17)
C10 C 0.46216(19) 0.2272(2) 0.25543(18)
H5 H 0.4202 0.2904 0.2553
C11 C 0.5318(2) 0.2122(3) 0.3271(2)
H6 H 0.5360 0.2645 0.3759
C12 C 0.5947(2) 0.1211(3) 0.3271(2)
H7 H 0.6415 0.1110 0.3760
C13 C 0.3182(2) 0.6984(3) -0.0877(2)
H8 H 0.3433 0.7704 -0.1016
C14 C 0.2374(2) 0.6898(2) -0.0362(2)
H9 H 0.2078 0.7559 -0.0144
C15 C 0.1994(2) 0.5827(2) -0.01635(19)
H10 H 0.1429 0.5767 0.0169
C16 C 0.24547(18) 0.4852(2) -0.04596(17)
C17 C 0.25509(16) 0.2992(2) 0.01314(16)
C18 C 0.5894(2) 0.0447(3) 0.2557(2)
H11 H 0.6335 -0.0165 0.2552
C19 C 0.51897(19) 0.0578(2) 0.1844(2)
H12 H 0.5150 0.0045 0.1364
C20 C 0.24125(18) 0.1970(2) 0.20415(19)
C21 C 0.25622(18) 0.0125(3) 0.13273(18)
C22 C 0.09895(16) 0.1911(2) 0.03601(17)
C23 C 0.04260(18) 0.2620(2) 0.09929(19)
H13 H -0.0257 0.2632 0.0779
H14 H 0.0682 0.3389 0.1005
H15 H 0.0487 0.2299 0.1605
C24 C 0.1166(3) -0.1275(3) -0.2753(2)
H16 H 0.1561 -0.1834 -0.3005
C25 C 0.1515(2) -0.0670(2) -0.19755(19)
H17 H 0.2139 -0.0821 -0.1704
C26 C 0.3268(2) 0.4956(3) -0.09853(19)
H18 H 0.3575 0.4301 -0.1200
C27 C 0.3622(2) 0.6015(3) -0.1190(2)
H19 H 0.4169 0.6080 -0.1546
loop_
_geom_bond_atom_site_label_1
_geom_bond_atom_site_label_2
_geom_bond_site_symmetry_1
_geom_bond_site_symmetry_2
S1 C8 1_555 1_555
O1 C5 1_555 1_555
N1 N5 1_555 1_555
N2 C16 1_555 1_555
N3 C20 1_555 1_555
N4 C21 1_555 1_555
N5 C22 1_555 1_555
C1 H1 1_555 1_555
C2 C1 1_555 1_555
H2 C2 1_555 1_555
C3 C2 1_555 1_555
H3 C3 1_555 1_555
C4 N1 1_555 1_555
C5 N1 1_555 1_555
C6 C5 1_555 1_555
C7 C6 1_555 1_555
C8 C7 1_555 1_555
H4 C8 1_555 1_555
C9 C8 1_555 1_555
C10 C9 1_555 1_555
H5 C10 1_555 1_555
C11 C10 1_555 1_555
H6 C11 1_555 1_555
C12 C11 1_555 1_555
H7 C12 1_555 1_555
C13 H8 1_555 1_555
C14 C13 1_555 1_555
H9 C14 1_555 1_555
C15 C14 1_555 1_555
H10 C15 1_555 1_555
C16 C15 1_555 1_555
C17 S1 1_555 1_555
C18 C12 1_555 1_555
H11 C18 1_555 1_555
C19 C9 1_555 1_555
H12 C19 1_555 1_555
C20 C7 1_555 1_555
C21 C7 1_555 1_555
C22 C6 1_555 1_555
C23 C22 1_555 1_555
H13 C23 1_555 1_555
H14 C23 1_555 1_555
H15 C23 1_555 1_555
C24 C1 1_555 1_555
H16 C24 1_555 1_555
C25 C4 1_555 1_555
H17 C25 1_555 1_555
C26 C16 1_555 1_555
H18 C26 1_555 1_555
C27 C13 1_555 1_555
H19 C27 1_555 1_555
N2 C17 1_555 1_555
C3 C4 1_555 1_555
C6 C17 1_555 1_555
C18 C19 1_555 1_555
C24 C25 1_555 1_555
C26 C27 1_555 1_555

#END
