
#######################################################################
#
#                 Cambridge Crystallographic Data Centre
#                                CCDC 
#
#######################################################################
#
# If this CIF has been generated from an entry in the Cambridge 
# Structural Database, then it will include bibliographic, chemical, 
# crystal, experimental, refinement or atomic coordinate data resulting 
# from the CCDC's data processing and validation procedures.
#
#######################################################################

data_WAXLOY
_chemical_formula_moiety         'C32 H32 N2 O6,C1 H2 Cl2'
_chemical_name_systematic        
"Dimethyl 1,13-diisobutoxypyrido[2',3':7,8]naphtho[2,3-f]quinoline-3,11-dicarboxylate dichloromethane solvate"
_symmetry_cell_setting           triclinic
_symmetry_space_group_name_H-M   'P -1'
_symmetry_Int_Tables_number      2
_space_group_name_Hall           '-P 1'
loop_
_symmetry_equiv_pos_site_id
_symmetry_equiv_pos_as_xyz
1 x,y,z
2 -x,-y,-z
_cell_length_a                   8.1397(16)
_cell_length_b                   13.709(3)
_cell_length_c                   15.045(3)
_cell_angle_alpha                112.36(3)
_cell_angle_beta                 92.42(3)
_cell_angle_gamma                93.39(3)
_cell_volume                     1546.07
_exptl_crystal_colour            'light yellow'
_exptl_crystal_description       platelet
_cell_formula_units_Z            2
loop_
_atom_site_label
_atom_site_type_symbol
_atom_site_fract_x
_atom_site_fract_y
_atom_site_fract_z
O1 O 0.1608(5) 0.4923(2) 0.6641(2)
O2 O 0.1437(3) 0.38587(19) 0.51136(18)
O3 O 0.3892(3) 0.58968(16) 0.33274(14)
O4 O 0.3591(3) 0.7776(2) 0.21595(16)
O5 O 0.5492(3) 0.8800(2) -0.05579(17)
O6 O 0.7876(3) 0.9741(2) 0.00687(16)
N1 N 0.3598(3) 0.6358(2) 0.61979(18)
N2 N 0.7347(3) 0.9753(2) 0.18076(19)
C1 C 0.0530(5) 0.3057(3) 0.5330(3)
H1 H 0.0255 0.2448 0.4746
H2 H -0.0465 0.3325 0.5618
H3 H 0.1191 0.2861 0.5770
C2 C 0.1915(4) 0.4748(3) 0.5834(2)
C3 C 0.2863(4) 0.5510(2) 0.5503(2)
C4 C 0.4411(4) 0.7086(2) 0.5938(2)
C5 C 0.5275(4) 0.7956(3) 0.6701(2)
H4 H 0.5228 0.7999 0.7331
C6 C 0.6153(4) 0.8712(3) 0.6527(2)
H5 H 0.6754 0.9251 0.7035
C7 C 0.6189(4) 0.8710(2) 0.5575(2)
C8 C 0.7083(4) 0.9505(2) 0.5406(2)
H6 H 0.7705 1.0024 0.5919
C9 C 0.7092(4) 0.9560(2) 0.4503(2)
C10 C 0.8136(4) 1.0339(3) 0.4335(2)
H7 H 0.8778 1.0842 0.4849
C11 C 0.8213(4) 1.0365(3) 0.3459(2)
H8 H 0.8956 1.0854 0.3366
C12 C 0.7162(4) 0.9646(2) 0.2657(2)
C13 C 0.6019(4) 0.8914(2) 0.2800(2)
C14 C 0.6062(3) 0.8806(2) 0.3732(2)
C15 C 0.5218(3) 0.7974(2) 0.3892(2)
H9 H 0.4587 0.7459 0.3380
C16 C 0.5284(3) 0.7884(2) 0.4792(2)
C17 C 0.4464(3) 0.7008(2) 0.49675(19)
C18 C 0.3746(4) 0.6053(2) 0.4256(2)
C19 C 0.2942(4) 0.5307(2) 0.4535(2)
H10 H 0.2460 0.4675 0.4073
C20 C 0.3505(5) 0.4847(2) 0.2608(2)
H11 H 0.2333 0.4649 0.2574
H12 H 0.4101 0.4343 0.2777
C21 C 0.3989(6) 0.4831(3) 0.1649(3)
H13 H 0.3295 0.5294 0.1466
C22 C 0.5706(8) 0.5179(6) 0.1636(4)
H14 H 0.5912 0.5157 0.1005
H15 H 0.6405 0.4719 0.1793
H16 H 0.5935 0.5889 0.2100
C23 C 0.3662(9) 0.3743(4) 0.0919(4)
H17 H 0.3961 0.3727 0.0303
H18 H 0.2510 0.3523 0.0880
H19 H 0.4302 0.3273 0.1099
C24 C 0.2251(4) 0.7366(3) 0.1436(3)
H20 H 0.2578 0.6774 0.0891
H21 H 0.1935 0.7909 0.1212
C25 C 0.0825(5) 0.7013(4) 0.1876(3)
H22 H 0.1160 0.6453 0.2083
C26 C 0.0298(8) 0.7858(6) 0.2688(6)
H23 H 0.1187 0.8126 0.3180
H24 H -0.0626 0.7601 0.2937
H25 H -0.0021 0.8414 0.2494
C27 C -0.0578(9) 0.6564(10) 0.1107(5)
H26 H -0.1500 0.6323 0.1370
H27 H -0.0227 0.5980 0.0575
H28 H -0.0899 0.7102 0.0889
C28 C 0.4859(4) 0.8363(2) 0.2011(2)
C29 C 0.5043(4) 0.8466(2) 0.1147(2)
H29 H 0.4321 0.8083 0.0615
C30 C 0.6314(4) 0.9146(2) 0.1074(2)
C31 C 0.6499(4) 0.9208(3) 0.0107(2)
C32 C 0.8155(5) 0.9807(4) -0.0851(3)
H30 H 0.9186 1.0208 -0.0803
H31 H 0.7277 1.0150 -0.1027
H32 H 0.8186 0.9108 -0.1333
C33 C -0.1482(5) 0.2421(3) 0.1929(3)
H33 H -0.1958 0.1698 0.1724
H34 H -0.2304 0.2887 0.2262
Cl1 Cl 0.02522(17) 0.26077(10) 0.27226(9)
Cl2 Cl -0.0981(2) 0.26784(14) 0.09243(9)
loop_
_geom_bond_atom_site_label_1
_geom_bond_atom_site_label_2
_geom_bond_site_symmetry_1
_geom_bond_site_symmetry_2
O1 C2 1_555 1_555
O2 C1 1_555 1_555
O3 C18 1_555 1_555
O4 C24 1_555 1_555
O5 C31 1_555 1_555
O6 C31 1_555 1_555
N1 C3 1_555 1_555
N2 C12 1_555 1_555
C1 H1 1_555 1_555
H2 C1 1_555 1_555
H3 C1 1_555 1_555
C2 O2 1_555 1_555
C3 C2 1_555 1_555
C4 N1 1_555 1_555
C5 C4 1_555 1_555
H4 C5 1_555 1_555
C6 C5 1_555 1_555
H5 C6 1_555 1_555
C7 C6 1_555 1_555
C8 C7 1_555 1_555
H6 C8 1_555 1_555
C9 C8 1_555 1_555
C10 C9 1_555 1_555
H7 C10 1_555 1_555
C11 C10 1_555 1_555
H8 C11 1_555 1_555
C12 C11 1_555 1_555
C13 C12 1_555 1_555
C14 C9 1_555 1_555
C15 C14 1_555 1_555
H9 C15 1_555 1_555
C16 C7 1_555 1_555
C17 C4 1_555 1_555
C18 C17 1_555 1_555
C19 C3 1_555 1_555
H10 C19 1_555 1_555
C20 O3 1_555 1_555
H11 C20 1_555 1_555
H12 C20 1_555 1_555
C21 C20 1_555 1_555
H13 C21 1_555 1_555
C22 C21 1_555 1_555
H14 C22 1_555 1_555
H15 C22 1_555 1_555
H16 C22 1_555 1_555
C23 C21 1_555 1_555
H17 C23 1_555 1_555
H18 C23 1_555 1_555
H19 C23 1_555 1_555
C24 H20 1_555 1_555
H21 C24 1_555 1_555
C25 C24 1_555 1_555
H22 C25 1_555 1_555
C26 C25 1_555 1_555
H23 C26 1_555 1_555
H24 C26 1_555 1_555
H25 C26 1_555 1_555
C27 C25 1_555 1_555
H26 C27 1_555 1_555
H27 C27 1_555 1_555
H28 C27 1_555 1_555
C28 O4 1_555 1_555
C29 C28 1_555 1_555
H29 C29 1_555 1_555
C30 N2 1_555 1_555
C31 C30 1_555 1_555
C32 O6 1_555 1_555
H30 C32 1_555 1_555
H31 C32 1_555 1_555
H32 C32 1_555 1_555
C33 H33 1_555 1_555
H34 C33 1_555 1_555
Cl1 C33 1_555 1_555
Cl2 C33 1_555 1_555
C13 C14 1_555 1_555
C13 C28 1_555 1_555
C15 C16 1_555 1_555
C16 C17 1_555 1_555
C18 C19 1_555 1_555
C29 C30 1_555 1_555

#END
