
#######################################################################
#
#                 Cambridge Crystallographic Data Centre
#                                CCDC 
#
#######################################################################
#
# If this CIF has been generated from an entry in the Cambridge 
# Structural Database, then it will include bibliographic, chemical, 
# crystal, experimental, refinement or atomic coordinate data resulting 
# from the CCDC's data processing and validation procedures.
#
#######################################################################

data_WAXLEO
_chemical_formula_moiety         'C16 H13 F2 N1 O2'
_chemical_name_systematic        
(Z)-N,3-bis(4-fluorophenyl)-2-methoxyacrylamide
_chemical_properties_biological  'tested for immunosuppresive activity'
_symmetry_cell_setting           monoclinic
_symmetry_space_group_name_H-M   'P 21/c'
_symmetry_Int_Tables_number      14
_space_group_name_Hall           '-P 2ybc'
loop_
_symmetry_equiv_pos_site_id
_symmetry_equiv_pos_as_xyz
1 x,y,z
2 -x,1/2+y,1/2-z
3 -x,-y,-z
4 x,1/2-y,1/2+z
_cell_length_a                   11.328(2)
_cell_length_b                   5.4930(11)
_cell_length_c                   22.269(5)
_cell_angle_alpha                90
_cell_angle_beta                 98.63(3)
_cell_angle_gamma                90
_cell_volume                     1369.99
_exptl_crystal_colour            colorless
_exptl_crystal_description       block
_cell_formula_units_Z            4
loop_
_atom_site_label
_atom_site_type_symbol
_atom_site_fract_x
_atom_site_fract_y
_atom_site_fract_z
C1 C 0.9607(5) -0.1564(9) 1.1668(2)
C2 C 0.9853(4) -0.3526(9) 1.1329(2)
H1 H 1.0311 -0.4816 1.1506
C3 C 0.9402(4) -0.3538(9) 1.0713(2)
H2 H 0.9576 -0.4850 1.0477
C4 C 0.8700(4) -0.1659(8) 1.04390(19)
C5 C 0.8475(4) 0.0277(9) 1.0814(2)
H3 H 0.8018 0.1578 1.0644
C6 C 0.8903(5) 0.0328(9) 1.1423(2)
H4 H 0.8721 0.1616 1.1664
C7 C 0.8306(4) -0.1767(9) 0.9792(2)
H5 H 0.8438 -0.3265 0.9619
C8 C 0.7791(4) -0.0135(8) 0.9397(2)
C9 C 0.6356(5) 0.2714(12) 0.9596(3)
H6 H 0.6264 0.4373 0.9716
H7 H 0.6090 0.1645 0.9890
H8 H 0.5889 0.2438 0.9206
C10 C 0.7503(4) -0.0723(9) 0.8732(2)
C11 C 0.6898(4) 0.1309(8) 0.7741(2)
C12 C 0.7166(4) -0.0470(9) 0.7348(2)
H9 H 0.7636 -0.1788 0.7497
C13 C 0.6745(5) -0.0318(10) 0.6733(2)
H10 H 0.6935 -0.1514 0.6468
C14 C 0.6044(4) 0.1619(9) 0.65215(19)
C15 C 0.5767(4) 0.3422(10) 0.6896(2)
H11 H 0.5299 0.4734 0.6741
C16 C 0.6189(4) 0.3278(9) 0.7509(2)
H12 H 0.6001 0.4495 0.7769
F1 F 1.0035(3) -0.1537(6) 1.22595(13)
F2 F 0.5636(3) 0.1742(7) 0.59208(12)
N1 N 0.7276(4) 0.1248(7) 0.83708(16)
H13 H 0.7374 0.2639 0.8549
O1 O 0.7581(3) 0.2246(6) 0.95631(14)
O2 O 0.7496(4) -0.2812(6) 0.85491(15)
loop_
_geom_bond_atom_site_label_1
_geom_bond_atom_site_label_2
_geom_bond_site_symmetry_1
_geom_bond_site_symmetry_2
C1 C2 1_555 1_555
C2 H1 1_555 1_555
C3 C2 1_555 1_555
H2 C3 1_555 1_555
C4 C3 1_555 1_555
C5 C4 1_555 1_555
H3 C5 1_555 1_555
C6 C1 1_555 1_555
H4 C6 1_555 1_555
C7 C4 1_555 1_555
H5 C7 1_555 1_555
C8 C7 1_555 1_555
C9 H6 1_555 1_555
H7 C9 1_555 1_555
H8 C9 1_555 1_555
C10 C8 1_555 1_555
C11 C12 1_555 1_555
C12 H9 1_555 1_555
C13 C12 1_555 1_555
H10 C13 1_555 1_555
C14 C13 1_555 1_555
C15 C14 1_555 1_555
H11 C15 1_555 1_555
C16 C11 1_555 1_555
H12 C16 1_555 1_555
F1 C1 1_555 1_555
F2 C14 1_555 1_555
N1 C10 1_555 1_555
H13 N1 1_555 1_555
O1 C8 1_555 1_555
O2 C10 1_555 1_555
C5 C6 1_555 1_555
C9 O1 1_555 1_555
C11 N1 1_555 1_555
C15 C16 1_555 1_555

#END
