
#######################################################################
#
#                 Cambridge Crystallographic Data Centre
#                                CCDC 
#
#######################################################################
#
# If this CIF has been generated from an entry in the Cambridge 
# Structural Database, then it will include bibliographic, chemical, 
# crystal, experimental, refinement or atomic coordinate data resulting 
# from the CCDC's data processing and validation procedures.
#
#######################################################################

data_WAXLAK
_chemical_formula_moiety         'C17 H17 N1 O2'
_chemical_name_systematic        
(Z)-2-Methoxy-N-(4-methylphenyl)-3-phenylacrylamide
_chemical_properties_biological  'immunosuppresive activity'
_symmetry_cell_setting           monoclinic
_symmetry_space_group_name_H-M   'P 21/c'
_symmetry_Int_Tables_number      14
_space_group_name_Hall           '-P 2ybc'
loop_
_symmetry_equiv_pos_site_id
_symmetry_equiv_pos_as_xyz
1 x,y,z
2 -x,1/2+y,1/2-z
3 -x,-y,-z
4 x,1/2-y,1/2+z
_cell_length_a                   6.2470(12)
_cell_length_b                   31.964(6)
_cell_length_c                   8.935(3)
_cell_angle_alpha                90
_cell_angle_beta                 126.24(2)
_cell_angle_gamma                90
_cell_volume                     1438.99
_exptl_crystal_colour            colorless
_exptl_crystal_description       block
_cell_formula_units_Z            4
loop_
_atom_site_label
_atom_site_type_symbol
_atom_site_fract_x
_atom_site_fract_y
_atom_site_fract_z
C1 C 0.7724(16) 0.0198(2) 0.2522(10)
H1 H 0.7583 -0.0092 0.2420
C2 C 1.0150(15) 0.0391(2) 0.3354(10)
H2 H 1.1658 0.0230 0.3803
C3 C 1.0356(12) 0.0818(2) 0.3524(9)
H3 H 1.2015 0.0943 0.4113
C4 C 0.8135(10) 0.10689(18) 0.2833(7)
C5 C 0.5703(12) 0.0871(2) 0.1977(9)
H4 H 0.4175 0.1029 0.1484
C6 C 0.5531(15) 0.0440(2) 0.1850(10)
H5 H 0.3888 0.0312 0.1296
C7 C 0.8543(10) 0.15209(17) 0.3073(7)
H6 H 1.0312 0.1602 0.3869
C8 C 0.6835(9) 0.18338(17) 0.2355(6)
C9 C 0.2718(10) 0.18019(19) 0.1917(8)
H7 H 0.0857 0.1763 0.0964
H8 H 0.2998 0.2070 0.2487
H9 H 0.3347 0.1586 0.2836
C10 C 0.7791(9) 0.22722(17) 0.2821(7)
C11 C 0.6422(8) 0.30054(17) 0.2154(6)
C12 C 0.8136(10) 0.31990(19) 0.1889(7)
H10 H 0.9017 0.3045 0.1523
C13 C 0.8540(11) 0.3627(2) 0.2174(8)
H11 H 0.9709 0.3756 0.1998
C14 C 0.7272(11) 0.38652(19) 0.2705(8)
C15 C 0.5608(11) 0.3665(2) 0.2997(8)
H12 H 0.4772 0.3819 0.3399
C16 C 0.5140(10) 0.32386(19) 0.2710(7)
H13 H 0.3972 0.3110 0.2889
C17 C 0.7734(15) 0.4332(2) 0.2977(12)
H14 H 0.8946 0.4414 0.2702
H15 H 0.8472 0.4403 0.4240
H16 H 0.6078 0.4476 0.2161
N1 N 0.5913(7) 0.25701(13) 0.1846(6)
H17 H 0.4320 0.2491 0.0991
O1 O 0.4135(6) 0.17816(11) 0.1117(4)
O2 O 1.0145(6) 0.23604(11) 0.3998(5)
loop_
_geom_bond_atom_site_label_1
_geom_bond_atom_site_label_2
_geom_bond_site_symmetry_1
_geom_bond_site_symmetry_2
C1 H1 1_555 1_555
C2 C1 1_555 1_555
H2 C2 1_555 1_555
C3 C2 1_555 1_555
H3 C3 1_555 1_555
C4 C3 1_555 1_555
C5 C4 1_555 1_555
H4 C5 1_555 1_555
C6 C1 1_555 1_555
H5 C6 1_555 1_555
C7 C4 1_555 1_555
H6 C7 1_555 1_555
C8 C7 1_555 1_555
C9 H7 1_555 1_555
H8 C9 1_555 1_555
H9 C9 1_555 1_555
C10 C8 1_555 1_555
C11 C12 1_555 1_555
C12 H10 1_555 1_555
C13 C12 1_555 1_555
H11 C13 1_555 1_555
C14 C13 1_555 1_555
C15 C14 1_555 1_555
H12 C15 1_555 1_555
C16 C11 1_555 1_555
H13 C16 1_555 1_555
C17 C14 1_555 1_555
H14 C17 1_555 1_555
H15 C17 1_555 1_555
H16 C17 1_555 1_555
N1 C10 1_555 1_555
H17 N1 1_555 1_555
O1 C8 1_555 1_555
O2 C10 1_555 1_555
C5 C6 1_555 1_555
C9 O1 1_555 1_555
C11 N1 1_555 1_555
C15 C16 1_555 1_555

#END
