
#######################################################################
#
#                 Cambridge Crystallographic Data Centre
#                                CCDC 
#
#######################################################################
#
# If this CIF has been generated from an entry in the Cambridge 
# Structural Database, then it will include bibliographic, chemical, 
# crystal, experimental, refinement or atomic coordinate data resulting 
# from the CCDC's data processing and validation procedures.
#
#######################################################################

data_WAXMIT
_chemical_name_common            
11-Methyl-6-phenyl-7,8,9,14-tetrahydroquinolino[2',3':7,6]cyclohept[1,2-b]indole
_chemical_formula_moiety         'C27 H22 N2'
_chemical_name_systematic        
3-Methyl-8-phenyl-5,6,7,14-tetrahydroindolo[3',2':6,7]cyclohepta[1,2-b]quinoline
_symmetry_cell_setting           triclinic
_symmetry_space_group_name_H-M   'P -1'
_symmetry_Int_Tables_number      2
_space_group_name_Hall           '-P 1'
loop_
_symmetry_equiv_pos_site_id
_symmetry_equiv_pos_as_xyz
1 x,y,z
2 -x,-y,-z
_cell_length_a                   8.6250(13)
_cell_length_b                   10.1823(15)
_cell_length_c                   12.219(3)
_cell_angle_alpha                103.721(3)
_cell_angle_beta                 97.035(3)
_cell_angle_gamma                110.125(2)
_cell_volume                     954.013
_exptl_crystal_colour            colorless
_exptl_crystal_description       block
_cell_formula_units_Z            2
loop_
_atom_site_label
_atom_site_type_symbol
_atom_site_fract_x
_atom_site_fract_y
_atom_site_fract_z
C1 C 0.77011(14) 0.48618(12) -0.05898(10)
C2 C 0.76626(15) 0.60830(13) -0.09079(10)
H1 H 0.7357 0.6797 -0.0434
C3 C 0.80893(15) 0.62058(13) -0.19446(10)
H2 H 0.8086 0.7032 -0.2177
C4 C 0.85292(14) 0.51538(13) -0.26712(10)
C5 C 0.85186(14) 0.39317(13) -0.23532(10)
H3 H 0.8784 0.3203 -0.2844
C6 C 0.81127(14) 0.37797(12) -0.13007(10)
C7 C 0.79645(14) 0.26589(12) -0.07494(9)
C8 C 0.81522(15) 0.12573(13) -0.12840(10)
H4 H 0.9370 0.1462 -0.1239
H5 H 0.7576 0.0887 -0.2112
C9 C 0.74373(15) 0.00656(12) -0.07233(10)
H6 H 0.7569 -0.0833 -0.1147
H7 H 0.6211 -0.0166 -0.0788
C10 C 0.83120(14) 0.05102(12) 0.05557(10)
H8 H 0.8293 -0.0384 0.0751
H9 H 0.9514 0.1154 0.0661
C11 C 0.75435(13) 0.12910(12) 0.13969(9)
C12 C 0.71458(13) 0.25013(12) 0.12323(9)
C13 C 0.74999(13) 0.31084(12) 0.02757(9)
C14 C 0.90385(16) 0.53828(15) -0.37687(11)
H10 H 1.0232 0.6047 -0.3590
H11 H 0.8334 0.5812 -0.4127
H12 H 0.8881 0.4438 -0.4303
C15 C 0.72145(13) 0.08721(11) 0.23667(9)
C16 C 0.64778(14) 0.16194(12) 0.31517(9)
C17 C 0.61240(16) 0.12769(13) 0.41749(10)
H13 H 0.6427 0.0542 0.4385
C18 C 0.53475(17) 0.19979(13) 0.48664(11)
H14 H 0.5122 0.1762 0.5553
C19 C 0.48829(16) 0.30866(13) 0.45651(11)
H15 H 0.4308 0.3554 0.5033
C20 C 0.52565(15) 0.34728(12) 0.36015(10)
H16 H 0.4964 0.4223 0.3413
C21 C 0.60780(14) 0.27591(12) 0.28832(10)
C22 C 0.75591(14) -0.03791(12) 0.26190(9)
C23 C 0.90958(15) -0.01601(13) 0.33044(10)
H17 H 0.9974 0.0791 0.3579
C24 C 0.93501(16) -0.13259(14) 0.35886(11)
H18 H 1.0402 -0.1167 0.4054
C25 C 0.80753(16) -0.27205(13) 0.31958(10)
H19 H 0.8249 -0.3514 0.3396
C26 C 0.65469(16) -0.29470(13) 0.25081(11)
H20 H 0.5672 -0.3899 0.2232
C27 C 0.62938(15) -0.17833(13) 0.22222(10)
H21 H 0.5244 -0.1948 0.1750
N1 N 0.73271(13) 0.44309(10) 0.03546(8)
H22 H 0.7022 0.4918 0.0927
N2 N 0.64427(12) 0.31985(10) 0.19457(8)
loop_
_geom_bond_atom_site_label_1
_geom_bond_atom_site_label_2
_geom_bond_site_symmetry_1
_geom_bond_site_symmetry_2
C1 C2 1_555 1_555
C2 H1 1_555 1_555
C3 C2 1_555 1_555
H2 C3 1_555 1_555
C4 C3 1_555 1_555
C5 C4 1_555 1_555
H3 C5 1_555 1_555
C6 C1 1_555 1_555
C7 C6 1_555 1_555
C8 C7 1_555 1_555
H4 C8 1_555 1_555
H5 C8 1_555 1_555
C9 C8 1_555 1_555
H6 C9 1_555 1_555
H7 C9 1_555 1_555
C10 C9 1_555 1_555
H8 C10 1_555 1_555
H9 C10 1_555 1_555
C11 C10 1_555 1_555
C12 C11 1_555 1_555
C13 C7 1_555 1_555
C14 C4 1_555 1_555
H10 C14 1_555 1_555
H11 C14 1_555 1_555
H12 C14 1_555 1_555
C15 C11 1_555 1_555
C16 C15 1_555 1_555
C17 C16 1_555 1_555
H13 C17 1_555 1_555
C18 C17 1_555 1_555
H14 C18 1_555 1_555
C19 C18 1_555 1_555
H15 C19 1_555 1_555
C20 C19 1_555 1_555
H16 C20 1_555 1_555
C21 C16 1_555 1_555
C22 C15 1_555 1_555
C23 C22 1_555 1_555
H17 C23 1_555 1_555
C24 C23 1_555 1_555
H18 C24 1_555 1_555
C25 C24 1_555 1_555
H19 C25 1_555 1_555
C26 C25 1_555 1_555
H20 C26 1_555 1_555
C27 C22 1_555 1_555
H21 C27 1_555 1_555
N1 C1 1_555 1_555
H22 N1 1_555 1_555
N2 C12 1_555 1_555
C5 C6 1_555 1_555
C12 C13 1_555 1_555
C13 N1 1_555 1_555
C20 C21 1_555 1_555
C21 N2 1_555 1_555
C26 C27 1_555 1_555

#END
