
#######################################################################
#
#                 Cambridge Crystallographic Data Centre
#                                CCDC 
#
#######################################################################
#
# If this CIF has been generated from an entry in the Cambridge 
# Structural Database, then it will include bibliographic, chemical, 
# crystal, experimental, refinement or atomic coordinate data resulting 
# from the CCDC's data processing and validation procedures.
#
#######################################################################

data_WAXMOZ
_chemical_name_common            
12-Methyl-6-phenyl-7,8,9,14-tetrahydroquinolino[2',3':7,6]cyclohept[1,2-b]indole
_chemical_formula_moiety         'C27 H22 N2'
_chemical_name_systematic        
2-Methyl-8-phenyl-5,6,7,14-tetrahydroindolo[3',2':6,7]cyclohepta[1,2-b]quinoline
_symmetry_cell_setting           triclinic
_symmetry_space_group_name_H-M   'P -1'
_symmetry_Int_Tables_number      2
_space_group_name_Hall           '-P 1'
loop_
_symmetry_equiv_pos_site_id
_symmetry_equiv_pos_as_xyz
1 x,y,z
2 -x,-y,-z
_cell_length_a                   9.9858(11)
_cell_length_b                   10.2496(11)
_cell_length_c                   10.5327(11)
_cell_angle_alpha                92.297(2)
_cell_angle_beta                 101.448(2)
_cell_angle_gamma                114.8230(10)
_cell_volume                     949.689
_exptl_crystal_colour            colorless
_exptl_crystal_description       block
_cell_formula_units_Z            2
loop_
_atom_site_label
_atom_site_type_symbol
_atom_site_fract_x
_atom_site_fract_y
_atom_site_fract_z
C1 C 0.23350(13) 0.58212(13) 0.69755(12)
C2 C 0.20686(13) 0.44334(13) 0.72868(12)
H1 H 0.1506 0.3600 0.6645
C3 C 0.26524(14) 0.43116(13) 0.85655(13)
C4 C 0.34766(15) 0.55606(14) 0.95026(13)
H2 H 0.3860 0.5455 1.0373
C5 C 0.37470(15) 0.69340(14) 0.91983(12)
H3 H 0.4312 0.7762 0.9845
C6 C 0.31655(13) 0.70782(13) 0.79066(12)
C7 C 0.32721(13) 0.83082(13) 0.72525(11)
C8 C 0.41583(14) 0.98481(13) 0.79069(12)
H4 H 0.5157 0.9966 0.8419
H5 H 0.3614 1.0031 0.8531
C9 C 0.44243(14) 1.09915(13) 0.69877(12)
H6 H 0.5094 1.0905 0.6444
H7 H 0.4955 1.1967 0.7512
C10 C 0.29396(13) 1.08495(12) 0.60850(12)
H8 H 0.2111 1.0451 0.6547
H9 H 0.3060 1.1828 0.5906
C11 C 0.24857(12) 0.98907(12) 0.48007(11)
C12 C 0.22569(12) 0.84101(12) 0.47706(11)
C13 C 0.24982(13) 0.77595(12) 0.59602(11)
C14 C 0.24111(16) 0.28423(14) 0.89542(14)
H10 H 0.1448 0.2098 0.8418
H11 H 0.2382 0.2844 0.9879
H12 H 0.3247 0.2631 0.8819
C15 C 0.22838(12) 1.04033(12) 0.36193(11)
C16 C 0.18610(12) 0.94583(12) 0.24233(11)
C17 C 0.16731(14) 0.99095(13) 0.11712(12)
H13 H 0.1844 1.0885 0.1101
C18 C 0.12464(14) 0.89448(14) 0.00602(12)
H14 H 0.1124 0.9259 -0.0774
C19 C 0.09881(15) 0.74898(14) 0.01452(12)
H15 H 0.0692 0.6832 -0.0631
C20 C 0.11632(14) 0.70228(13) 0.13435(12)
H16 H 0.0985 0.6042 0.1394
C21 C 0.16084(13) 0.79980(12) 0.25050(11)
C22 C 0.24970(13) 1.19247(12) 0.35335(11)
C23 C 0.39111(14) 1.30052(13) 0.34876(13)
H17 H 0.4752 1.2781 0.3557
C24 C 0.41006(15) 1.44105(13) 0.33406(14)
H18 H 0.5068 1.5140 0.3308
C25 C 0.28821(15) 1.47499(13) 0.32410(13)
H19 H 0.3013 1.5710 0.3141
C26 C 0.14705(14) 1.36826(13) 0.32876(12)
H20 H 0.0633 1.3912 0.3218
C27 C 0.12783(13) 1.22746(13) 0.34359(12)
H21 H 0.0310 1.1549 0.3471
N1 N 0.19180(11) 0.62544(10) 0.58064(10)
H22 H 0.1369 0.5671 0.5073
N2 N 0.18029(11) 0.74945(10) 0.36738(9)
loop_
_geom_bond_atom_site_label_1
_geom_bond_atom_site_label_2
_geom_bond_site_symmetry_1
_geom_bond_site_symmetry_2
C1 C2 1_555 1_555
C2 H1 1_555 1_555
C3 C2 1_555 1_555
C4 C3 1_555 1_555
H2 C4 1_555 1_555
C5 C4 1_555 1_555
H3 C5 1_555 1_555
C6 C1 1_555 1_555
C7 C6 1_555 1_555
C8 C7 1_555 1_555
H4 C8 1_555 1_555
H5 C8 1_555 1_555
C9 C8 1_555 1_555
H6 C9 1_555 1_555
H7 C9 1_555 1_555
C10 C9 1_555 1_555
H8 C10 1_555 1_555
H9 C10 1_555 1_555
C11 C10 1_555 1_555
C12 C11 1_555 1_555
C13 C7 1_555 1_555
C14 C3 1_555 1_555
H10 C14 1_555 1_555
H11 C14 1_555 1_555
H12 C14 1_555 1_555
C15 C11 1_555 1_555
C16 C15 1_555 1_555
C17 C16 1_555 1_555
H13 C17 1_555 1_555
C18 C17 1_555 1_555
H14 C18 1_555 1_555
C19 C18 1_555 1_555
H15 C19 1_555 1_555
C20 C19 1_555 1_555
H16 C20 1_555 1_555
C21 C16 1_555 1_555
C22 C15 1_555 1_555
C23 C22 1_555 1_555
H17 C23 1_555 1_555
C24 C23 1_555 1_555
H18 C24 1_555 1_555
C25 C24 1_555 1_555
H19 C25 1_555 1_555
C26 C25 1_555 1_555
H20 C26 1_555 1_555
C27 C22 1_555 1_555
H21 C27 1_555 1_555
N1 C1 1_555 1_555
H22 N1 1_555 1_555
N2 C12 1_555 1_555
C5 C6 1_555 1_555
C12 C13 1_555 1_555
C13 N1 1_555 1_555
C20 C21 1_555 1_555
C21 N2 1_555 1_555
C26 C27 1_555 1_555

#END
