
#######################################################################
#
#                 Cambridge Crystallographic Data Centre
#                                CCDC 
#
#######################################################################
#
# If this CIF has been generated from an entry in the Cambridge 
# Structural Database, then it will include bibliographic, chemical, 
# crystal, experimental, refinement or atomic coordinate data resulting 
# from the CCDC's data processing and validation procedures.
#
#######################################################################

data_WAXMUF
_chemical_name_common            
13-Methyl-6-phenyl-7,8,9,14-tetrahydroquinolino[2',3':7,6]cyclohept[1,2-b]indole
_chemical_formula_moiety         'C27 H22 N2'
_chemical_name_systematic        
1-Methyl-8-phenyl-5,6,7,14-tetrahydroindolo[3',2':6,7]cyclohepta[1,2-b]quinoline
_symmetry_cell_setting           triclinic
_symmetry_space_group_name_H-M   'P -1'
_symmetry_Int_Tables_number      2
_space_group_name_Hall           '-P 1'
loop_
_symmetry_equiv_pos_site_id
_symmetry_equiv_pos_as_xyz
1 x,y,z
2 -x,-y,-z
_cell_length_a                   9.3291(10)
_cell_length_b                   10.1948(11)
_cell_length_c                   10.3151(11)
_cell_angle_alpha                95.819(2)
_cell_angle_beta                 95.955(2)
_cell_angle_gamma                103.441(2)
_cell_volume                     941.011
_exptl_crystal_colour            colorless
_exptl_crystal_description       block
_cell_formula_units_Z            2
loop_
_atom_site_label
_atom_site_type_symbol
_atom_site_fract_x
_atom_site_fract_y
_atom_site_fract_z
C1 C 0.16711(14) 1.12416(13) 0.93105(12)
C2 C 0.12797(15) 1.22739(14) 0.86302(13)
H1 H 0.1109 1.2144 0.7697
C3 C 0.11451(16) 1.34557(14) 0.93070(15)
H2 H 0.0891 1.4145 0.8841
C4 C 0.13814(17) 1.36562(15) 1.06932(15)
H3 H 0.1257 1.4468 1.1156
C5 C 0.17902(16) 1.26865(14) 1.13763(13)
H4 H 0.1963 1.2838 1.2309
C6 C 0.19576(14) 1.14577(13) 1.07015(12)
C7 C 0.24268(14) 1.04294(13) 1.13556(12)
C8 C 0.25618(14) 0.92613(13) 1.06253(12)
C9 C 0.30042(16) 0.81224(14) 1.12632(13)
H5 H 0.2176 0.7295 1.1051
H6 H 0.3161 0.8373 1.2229
C10 C 0.44223(16) 0.77907(15) 1.08270(15)
H7 H 0.5076 0.8630 1.0608
H8 H 0.4963 0.7483 1.1569
C11 C 0.41059(16) 0.67005(14) 0.96470(15)
H9 H 0.5065 0.6609 0.9366
H10 H 0.3617 0.5822 0.9923
C12 C 0.31486(15) 0.69560(13) 0.84885(14)
C13 C 0.23914(15) 0.79624(13) 0.83544(13)
C14 C 0.22449(14) 0.91464(13) 0.92235(12)
C15 C 0.27754(15) 1.06726(13) 1.28167(12)
C16 C 0.16350(16) 1.05048(15) 1.36006(13)
H11 H 0.0629 1.0221 1.3204
C17 C 0.19628(17) 1.07504(16) 1.49619(14)
H12 H 0.1179 1.0620 1.5491
C18 C 0.34212(17) 1.11823(16) 1.55506(14)
H13 H 0.3641 1.1340 1.6482
C19 C 0.45606(17) 1.13841(17) 1.47776(15)
H14 H 0.5563 1.1701 1.5179
C20 C 0.42418(16) 1.11249(16) 1.34171(14)
H15 H 0.5029 1.1257 1.2892
C21 C 0.20670(17) 0.67404(15) 0.63568(14)
C22 C 0.29469(16) 0.61732(15) 0.72192(15)
C23 C 0.35104(19) 0.50758(16) 0.67251(18)
H16 H 0.4103 0.4672 0.7290
C24 C 0.3176(2) 0.46122(18) 0.5408(2)
H17 H 0.3556 0.3885 0.5055
C25 C 0.2288(2) 0.51897(18) 0.45761(18)
H18 H 0.2082 0.4837 0.3670
C26 C 0.16932(19) 0.62577(16) 0.50149(15)
C27 C 0.0785(2) 0.6848(2) 0.41539(18)
H19 H 0.0605 0.6335 0.3272
H20 H 0.1295 0.7796 0.4113
H21 H -0.0166 0.6817 0.4489
N1 N 0.18070(12) 1.00881(11) 0.85938(11)
N2 N 0.17309(14) 0.78180(12) 0.70665(11)
H22 H 0.1181 0.8336 0.6751
loop_
_geom_bond_atom_site_label_1
_geom_bond_atom_site_label_2
_geom_bond_site_symmetry_1
_geom_bond_site_symmetry_2
C1 C2 1_555 1_555
C2 H1 1_555 1_555
C3 C2 1_555 1_555
H2 C3 1_555 1_555
C4 C3 1_555 1_555
H3 C4 1_555 1_555
C5 C4 1_555 1_555
H4 C5 1_555 1_555
C6 C1 1_555 1_555
C7 C6 1_555 1_555
C8 C7 1_555 1_555
C9 C8 1_555 1_555
H5 C9 1_555 1_555
H6 C9 1_555 1_555
C10 C9 1_555 1_555
H7 C10 1_555 1_555
H8 C10 1_555 1_555
C11 C10 1_555 1_555
H9 C11 1_555 1_555
H10 C11 1_555 1_555
C12 C11 1_555 1_555
C13 C12 1_555 1_555
C14 C8 1_555 1_555
C15 C7 1_555 1_555
C16 C15 1_555 1_555
H11 C16 1_555 1_555
C17 C16 1_555 1_555
H12 C17 1_555 1_555
C18 C17 1_555 1_555
H13 C18 1_555 1_555
C19 C18 1_555 1_555
H14 C19 1_555 1_555
C20 C15 1_555 1_555
H15 C20 1_555 1_555
C21 C22 1_555 1_555
C22 C12 1_555 1_555
C23 C22 1_555 1_555
H16 C23 1_555 1_555
C24 C23 1_555 1_555
H17 C24 1_555 1_555
C25 C24 1_555 1_555
H18 C25 1_555 1_555
C26 C21 1_555 1_555
C27 C26 1_555 1_555
H19 C27 1_555 1_555
H20 C27 1_555 1_555
H21 C27 1_555 1_555
N1 C1 1_555 1_555
N2 C13 1_555 1_555
H22 N2 1_555 1_555
C5 C6 1_555 1_555
C13 C14 1_555 1_555
C14 N1 1_555 1_555
C19 C20 1_555 1_555
C21 N2 1_555 1_555
C25 C26 1_555 1_555

#END
