
#######################################################################
#
#                 Cambridge Crystallographic Data Centre
#                                CCDC 
#
#######################################################################
#
# If this CIF has been generated from an entry in the Cambridge 
# Structural Database, then it will include bibliographic, chemical, 
# crystal, experimental, refinement or atomic coordinate data resulting 
# from the CCDC's data processing and validation procedures.
#
#######################################################################

data_WAXNOA
_chemical_formula_moiety         'C21 H19 N3'
_chemical_name_systematic        
8-Methyl-1-phenyl-4,5,6,11-tetrahydro-1H-pyrazolo[4',3':6,7]cyclohepta[1,2-b]indole
_chemical_properties_biological  'biological activity'
_symmetry_cell_setting           monoclinic
_symmetry_space_group_name_H-M   'P 21/c'
_symmetry_Int_Tables_number      14
_space_group_name_Hall           '-P 2ybc'
loop_
_symmetry_equiv_pos_site_id
_symmetry_equiv_pos_as_xyz
1 x,y,z
2 -x,1/2+y,1/2-z
3 -x,-y,-z
4 x,1/2-y,1/2+z
_cell_length_a                   23.022(6)
_cell_length_b                   7.910(2)
_cell_length_c                   18.101(5)
_cell_angle_alpha                90
_cell_angle_beta                 96.801(5)
_cell_angle_gamma                90
_cell_volume                     3273.07
_exptl_crystal_colour            colorless
_exptl_crystal_description       block
_cell_formula_units_Z            8
loop_
_atom_site_label
_atom_site_type_symbol
_atom_site_fract_x
_atom_site_fract_y
_atom_site_fract_z
C1 C 0.33541(7) 0.5538(2) 0.16752(10)
C2 C 0.31939(7) 0.4620(2) 0.10243(10)
H1 H 0.3478 0.4202 0.0731
C3 C 0.25997(8) 0.4344(2) 0.08237(10)
H2 H 0.2478 0.3718 0.0385
C4 C 0.21706(7) 0.4966(2) 0.12525(10)
C5 C 0.23393(7) 0.5848(2) 0.18992(10)
H3 H 0.2053 0.6265 0.2190
C6 C 0.29388(7) 0.6125(2) 0.21256(10)
C7 C 0.32480(7) 0.6992(2) 0.27473(10)
C8 C 0.29393(7) 0.7698(2) 0.33700(10)
H4 H 0.2752 0.6741 0.3603
H5 H 0.2621 0.8443 0.3144
C9 C 0.32948(7) 0.8692(2) 0.39904(10)
H6 H 0.3044 0.8927 0.4387
H7 H 0.3407 0.9792 0.3788
C10 C 0.38521(8) 0.7776(3) 0.43371(10)
H8 H 0.3972 0.8235 0.4841
H9 H 0.3766 0.6558 0.4389
C11 C 0.43467(7) 0.7977(2) 0.38734(10)
C12 C 0.43267(7) 0.7642(2) 0.31203(10)
C13 C 0.38336(7) 0.6940(2) 0.26404(9)
C14 C 0.15276(7) 0.4665(3) 0.10036(11)
H10 H 0.1425 0.3504 0.1126
H11 H 0.1449 0.4836 0.0465
H12 H 0.1293 0.5460 0.1259
C15 C 0.49125(8) 0.8583(2) 0.40833(10)
H13 H 0.5053 0.8918 0.4576
C16 C 0.50868(7) 0.8113(2) 0.22147(10)
C17 C 0.56646(8) 0.7627(2) 0.21781(11)
H14 H 0.5896 0.7194 0.2605
C18 C 0.58957(8) 0.7788(3) 0.15072(11)
H15 H 0.6293 0.7500 0.1480
C19 C 0.55533(9) 0.8364(3) 0.08775(11)
H16 H 0.5712 0.8435 0.0417
C20 C 0.49783(9) 0.8838(3) 0.09206(11)
H17 H 0.4743 0.9229 0.0488
C21 C 0.47439(8) 0.8744(2) 0.15918(10)
H18 H 0.4354 0.9107 0.1625
N1 N 0.38966(6) 0.60768(19) 0.19848(8)
H37 H 0.4223(7) 0.567(3) 0.1841(11)
N2 N 0.52333(6) 0.8639(2) 0.35199(8)
N3 N 0.48674(6) 0.80539(19) 0.29244(8)
C22 C 0.85600(7) 0.5206(2) 0.34814(10)
C23 C 0.85586(8) 0.4346(2) 0.41539(10)
H19 H 0.8911 0.3946 0.4423
C24 C 0.80228(8) 0.4099(2) 0.44148(11)
H20 H 0.8011 0.3511 0.4870
C25 C 0.74955(8) 0.4691(2) 0.40261(11)
C26 C 0.75030(7) 0.5514(2) 0.33534(10)
H21 H 0.7148 0.5899 0.3085
C27 C 0.80373(7) 0.5778(2) 0.30689(10)
C28 C 0.81923(7) 0.6642(2) 0.24252(10)
C29 C 0.77340(7) 0.7377(2) 0.18491(10)
H22 H 0.7478 0.8118 0.2111
H23 H 0.7488 0.6432 0.1631
C30 C 0.79350(8) 0.8390(2) 0.12078(11)
H24 H 0.8097 0.9482 0.1403
H25 H 0.7591 0.8639 0.0842
C31 C 0.83974(8) 0.7486(2) 0.08067(10)
H26 H 0.8301 0.6268 0.0762
H27 H 0.8390 0.7953 0.0298
C32 C 0.90001(7) 0.7688(2) 0.12130(10)
C33 C 0.91654(7) 0.7329(2) 0.19539(10)
C34 C 0.87981(7) 0.6606(2) 0.24759(10)
C35 C 0.69252(8) 0.4427(3) 0.43537(12)
H28 H 0.6986 0.4650 0.4890
H29 H 0.6793 0.3258 0.4267
H30 H 0.6628 0.5202 0.4115
C36 C 0.95010(8) 0.8330(3) 0.09488(11)
H31 H 0.9515 0.8687 0.0450
C37 C 1.01313(7) 0.7827(2) 0.27769(10)
C38 C 1.07096(7) 0.7313(2) 0.27685(11)
H32 H 1.0836 0.6859 0.2329
C39 C 1.10981(8) 0.7476(2) 0.34111(11)
H33 H 1.1496 0.7165 0.3407
C40 C 1.09101(8) 0.8086(3) 0.40560(11)
H34 H 1.1177 0.8163 0.4497
C41 C 1.03323(9) 0.8587(3) 0.40643(11)
H35 H 1.0204 0.9000 0.4511
C42 C 0.99419(8) 0.8483(2) 0.34169(11)
H36 H 0.9550 0.8857 0.3414
N4 N 0.90193(6) 0.57426(19) 0.31152(8)
H38 H 0.9378(7) 0.536(3) 0.3217(11)
N5 N 0.99577(7) 0.8387(2) 0.14741(9)
N6 N 0.97463(6) 0.7765(2) 0.20971(8)
loop_
_geom_bond_atom_site_label_1
_geom_bond_atom_site_label_2
_geom_bond_site_symmetry_1
_geom_bond_site_symmetry_2
C1 C2 1_555 1_555
C2 H1 1_555 1_555
C3 C2 1_555 1_555
H2 C3 1_555 1_555
C4 C3 1_555 1_555
C5 C4 1_555 1_555
H3 C5 1_555 1_555
C6 C1 1_555 1_555
C7 C6 1_555 1_555
C8 C7 1_555 1_555
H4 C8 1_555 1_555
H5 C8 1_555 1_555
C9 C8 1_555 1_555
H6 C9 1_555 1_555
H7 C9 1_555 1_555
C10 C9 1_555 1_555
H8 C10 1_555 1_555
H9 C10 1_555 1_555
C11 C10 1_555 1_555
C12 C11 1_555 1_555
C13 C7 1_555 1_555
C14 C4 1_555 1_555
H10 C14 1_555 1_555
H11 C14 1_555 1_555
H12 C14 1_555 1_555
C15 C11 1_555 1_555
H13 C15 1_555 1_555
C16 C17 1_555 1_555
C17 H14 1_555 1_555
C18 C17 1_555 1_555
H15 C18 1_555 1_555
C19 C18 1_555 1_555
H16 C19 1_555 1_555
C20 C19 1_555 1_555
H17 C20 1_555 1_555
C21 C16 1_555 1_555
H18 C21 1_555 1_555
C22 C23 1_555 1_555
C23 H19 1_555 1_555
C24 C23 1_555 1_555
H20 C24 1_555 1_555
C25 C24 1_555 1_555
C26 C25 1_555 1_555
H21 C26 1_555 1_555
C27 C22 1_555 1_555
C28 C27 1_555 1_555
C29 C28 1_555 1_555
H22 C29 1_555 1_555
H23 C29 1_555 1_555
C30 C29 1_555 1_555
H24 C30 1_555 1_555
H25 C30 1_555 1_555
C31 C30 1_555 1_555
H26 C31 1_555 1_555
H27 C31 1_555 1_555
C32 C31 1_555 1_555
C33 C32 1_555 1_555
C34 C28 1_555 1_555
C35 C25 1_555 1_555
H28 C35 1_555 1_555
H29 C35 1_555 1_555
H30 C35 1_555 1_555
C36 C32 1_555 1_555
H31 C36 1_555 1_555
C37 C38 1_555 1_555
C38 H32 1_555 1_555
C39 C38 1_555 1_555
H33 C39 1_555 1_555
C40 C39 1_555 1_555
H34 C40 1_555 1_555
C41 C40 1_555 1_555
H35 C41 1_555 1_555
C42 C37 1_555 1_555
H36 C42 1_555 1_555
N1 C1 1_555 1_555
H37 N1 1_555 1_555
N2 C15 1_555 1_555
N3 C12 1_555 1_555
N4 C22 1_555 1_555
H38 N4 1_555 1_555
N5 C36 1_555 1_555
N6 C33 1_555 1_555
C5 C6 1_555 1_555
C12 C13 1_555 1_555
C13 N1 1_555 1_555
C16 N3 1_555 1_555
C20 C21 1_555 1_555
C26 C27 1_555 1_555
C33 C34 1_555 1_555
C34 N4 1_555 1_555
C37 N6 1_555 1_555
C41 C42 1_555 1_555
N2 N3 1_555 1_555
N5 N6 1_555 1_555

#END
