
#######################################################################
#
#                 Cambridge Crystallographic Data Centre
#                                CCDC 
#
#######################################################################
#
# If this CIF has been generated from an entry in the Cambridge 
# Structural Database, then it will include bibliographic, chemical, 
# crystal, experimental, refinement or atomic coordinate data resulting 
# from the CCDC's data processing and validation procedures.
#
#######################################################################

data_WAXNIU
_chemical_formula_moiety         'C20 H16 Cl1 N3'
_chemical_name_systematic        
8-Chloro-1-phenyl-4,5,6,11-tetrahydro-1H-pyrazolo[4',3':6,7]cyclohepta[1,2-b]indole
_chemical_properties_biological  'biological activity'
_symmetry_cell_setting           monoclinic
_symmetry_space_group_name_H-M   'P 21/c'
_symmetry_Int_Tables_number      14
_space_group_name_Hall           '-P 2ybc'
loop_
_symmetry_equiv_pos_site_id
_symmetry_equiv_pos_as_xyz
1 x,y,z
2 -x,1/2+y,1/2-z
3 -x,-y,-z
4 x,1/2-y,1/2+z
_cell_length_a                   22.810(3)
_cell_length_b                   7.8221(10)
_cell_length_c                   18.219(2)
_cell_angle_alpha                90
_cell_angle_beta                 96.814(2)
_cell_angle_gamma                90
_cell_volume                     3227.71
_exptl_crystal_colour            yellow
_exptl_crystal_description       plate
_cell_formula_units_Z            8
loop_
_atom_site_label
_atom_site_type_symbol
_atom_site_fract_x
_atom_site_fract_y
_atom_site_fract_z
C1 C 0.14688(9) 0.5262(3) 0.15216(12)
C2 C 0.14774(10) 0.4382(3) 0.08631(13)
H1 H 0.1124 0.3945 0.0601
C3 C 0.20184(11) 0.4159(3) 0.05976(13)
H2 H 0.2041 0.3564 0.0147
C4 C 0.25289(10) 0.4817(3) 0.09989(14)
C5 C 0.25359(10) 0.5651(3) 0.16647(13)
H3 H 0.2894 0.6053 0.1928
C6 C 0.19880(9) 0.5883(3) 0.19383(13)
C7 C 0.18246(9) 0.6727(3) 0.25799(13)
C8 C 0.22784(10) 0.7465(3) 0.31636(13)
H4 H 0.2531 0.8253 0.2914
H5 H 0.2534 0.6513 0.3368
C9 C 0.20710(10) 0.8421(3) 0.38109(14)
H6 H 0.1907 0.9539 0.3633
H7 H 0.2416 0.8649 0.4180
C10 C 0.16022(10) 0.7470(3) 0.41924(13)
H8 H 0.1704 0.6241 0.4228
H9 H 0.1602 0.7917 0.4701
C11 C 0.09967(10) 0.7670(3) 0.37809(13)
C12 C 0.08343(9) 0.7326(3) 0.30401(12)
C13 C 0.12129(9) 0.6632(3) 0.25235(12)
C14 C 0.04855(10) 0.8299(3) 0.40446(14)
H10 H 0.0466 0.8648 0.4541
C15 C -0.01378(9) 0.7821(3) 0.22183(13)
C16 C 0.00579(10) 0.8514(3) 0.15891(14)
H11 H 0.0454 0.8893 0.1599
C17 C -0.03332(12) 0.8647(3) 0.09432(15)
H12 H -0.0200 0.9084 0.0506
C18 C -0.09150(11) 0.8143(3) 0.09375(15)
H13 H -0.1181 0.8248 0.0498
C19 C -0.11100(11) 0.7486(3) 0.15717(15)
H14 H -0.1512 0.7162 0.1568
C20 C -0.07201(10) 0.7297(3) 0.22143(14)
H15 H -0.0851 0.6816 0.2645
Cl1 Cl 0.31975(3) 0.45798(10) 0.06224(4)
N1 N 0.10006(8) 0.5753(2) 0.18854(10)
H31 H 0.0626 0.5544 0.1737
N2 N 0.00287(9) 0.8348(3) 0.35140(12)
N3 N 0.02472(8) 0.7751(2) 0.28949(11)
C21 C 0.33337(9) 0.0587(3) 0.16527(12)
C22 C 0.31744(10) -0.0322(3) 0.10042(13)
H16 H 0.3465 -0.0737 0.0716
C23 C 0.25792(10) -0.0602(3) 0.07914(13)
H17 H 0.2455 -0.1218 0.0351
C24 C 0.21620(9) 0.0026(3) 0.12277(13)
C25 C 0.23081(9) 0.0894(3) 0.18778(13)
H18 H 0.2014 0.1287 0.2165
C26 C 0.29137(9) 0.1178(3) 0.21029(12)
C27 C 0.32234(9) 0.2025(3) 0.27278(13)
C28 C 0.29137(10) 0.2699(3) 0.33531(13)
H19 H 0.2721 0.1718 0.3570
H20 H 0.2595 0.3472 0.3137
C29 C 0.32711(10) 0.3657(3) 0.39863(14)
H21 H 0.3018 0.3844 0.4384
H22 H 0.3379 0.4794 0.3805
C30 C 0.38363(10) 0.2739(3) 0.43140(13)
H23 H 0.3957 0.3178 0.4819
H24 H 0.3754 0.1502 0.4353
C31 C 0.43306(10) 0.2986(3) 0.38559(13)
C32 C 0.43126(9) 0.2671(3) 0.31064(13)
C33 C 0.38166(9) 0.1969(3) 0.26212(12)
C34 C 0.49016(10) 0.3610(3) 0.40684(14)
H25 H 0.5044 0.3933 0.4560
C35 C 0.50788(10) 0.3165(3) 0.22099(13)
C36 C 0.56596(10) 0.2644(3) 0.21760(14)
H26 H 0.5891 0.2199 0.2601
C37 C 0.58948(11) 0.2786(3) 0.15089(15)
H27 H 0.6295 0.2486 0.1484
C38 C 0.55498(12) 0.3363(3) 0.08809(15)
H28 H 0.5709 0.3411 0.0423
C39 C 0.49714(12) 0.3871(3) 0.09210(14)
H29 H 0.4736 0.4268 0.0490
C40 C 0.47364(10) 0.3800(3) 0.15896(13)
H30 H 0.4345 0.4182 0.1622
Cl2 Cl 0.14134(2) -0.03110(8) 0.09202(3)
N4 N 0.38794(8) 0.1111(2) 0.19721(10)
H32 H 0.4215 0.0928 0.1792
N5 N 0.52225(9) 0.3699(3) 0.35057(11)
N6 N 0.48558(8) 0.3115(3) 0.29125(11)
loop_
_geom_bond_atom_site_label_1
_geom_bond_atom_site_label_2
_geom_bond_site_symmetry_1
_geom_bond_site_symmetry_2
C1 C2 1_555 1_555
C2 H1 1_555 1_555
C3 C2 1_555 1_555
H2 C3 1_555 1_555
C4 C3 1_555 1_555
C5 C4 1_555 1_555
H3 C5 1_555 1_555
C6 C1 1_555 1_555
C7 C6 1_555 1_555
C8 C7 1_555 1_555
H4 C8 1_555 1_555
H5 C8 1_555 1_555
C9 C8 1_555 1_555
H6 C9 1_555 1_555
H7 C9 1_555 1_555
C10 C9 1_555 1_555
H8 C10 1_555 1_555
H9 C10 1_555 1_555
C11 C10 1_555 1_555
C12 C11 1_555 1_555
C13 C7 1_555 1_555
C14 C11 1_555 1_555
H10 C14 1_555 1_555
C15 C16 1_555 1_555
C16 H11 1_555 1_555
C17 C16 1_555 1_555
H12 C17 1_555 1_555
C18 C17 1_555 1_555
H13 C18 1_555 1_555
C19 C18 1_555 1_555
H14 C19 1_555 1_555
C20 C15 1_555 1_555
H15 C20 1_555 1_555
C21 C22 1_555 1_555
C22 H16 1_555 1_555
C23 C22 1_555 1_555
H17 C23 1_555 1_555
C24 C23 1_555 1_555
C25 C24 1_555 1_555
H18 C25 1_555 1_555
C26 C21 1_555 1_555
C27 C26 1_555 1_555
C28 C27 1_555 1_555
H19 C28 1_555 1_555
H20 C28 1_555 1_555
C29 C28 1_555 1_555
H21 C29 1_555 1_555
H22 C29 1_555 1_555
C30 C29 1_555 1_555
H23 C30 1_555 1_555
H24 C30 1_555 1_555
C31 C30 1_555 1_555
C32 C31 1_555 1_555
C33 C27 1_555 1_555
C34 C31 1_555 1_555
H25 C34 1_555 1_555
C35 C36 1_555 1_555
C36 H26 1_555 1_555
C37 C36 1_555 1_555
H27 C37 1_555 1_555
C38 C37 1_555 1_555
H28 C38 1_555 1_555
C39 C38 1_555 1_555
H29 C39 1_555 1_555
C40 C35 1_555 1_555
H30 C40 1_555 1_555
Cl1 C4 1_555 1_555
Cl2 C24 1_555 1_555
N1 C1 1_555 1_555
H31 N1 1_555 1_555
N2 C14 1_555 1_555
N3 C12 1_555 1_555
N4 C21 1_555 1_555
H32 N4 1_555 1_555
N5 C34 1_555 1_555
N6 C32 1_555 1_555
C5 C6 1_555 1_555
C12 C13 1_555 1_555
C13 N1 1_555 1_555
C15 N3 1_555 1_555
C19 C20 1_555 1_555
C25 C26 1_555 1_555
C32 C33 1_555 1_555
C33 N4 1_555 1_555
C35 N6 1_555 1_555
C39 C40 1_555 1_555
N2 N3 1_555 1_555
N5 N6 1_555 1_555

#END
