
#######################################################################
#
#                 Cambridge Crystallographic Data Centre
#                                CCDC 
#
#######################################################################
#
# If this CIF has been generated from an entry in the Cambridge 
# Structural Database, then it will include bibliographic, chemical, 
# crystal, experimental, refinement or atomic coordinate data resulting 
# from the CCDC's data processing and validation procedures.
#
#######################################################################

data_WAXNUG
_chemical_formula_moiety         'C15 H15 N1 O2'
_chemical_name_systematic        
7-(Hydroxymethylene)-2-methyl-7,8,9,10-tetrahydrocyclohepta[b]indol-6(5H)-one
_chemical_properties_biological  'biological activity'
_symmetry_cell_setting           monoclinic
_symmetry_space_group_name_H-M   'P 21/c'
_symmetry_Int_Tables_number      14
_space_group_name_Hall           '-P 2ybc'
loop_
_symmetry_equiv_pos_site_id
_symmetry_equiv_pos_as_xyz
1 x,y,z
2 -x,1/2+y,1/2-z
3 -x,-y,-z
4 x,1/2-y,1/2+z
_cell_length_a                   6.1585(6)
_cell_length_b                   16.2351(15)
_cell_length_c                   11.9224(11)
_cell_angle_alpha                90
_cell_angle_beta                 101.0840(10)
_cell_angle_gamma                90
_cell_volume                     1169.81
_exptl_crystal_colour            orange
_exptl_crystal_description       rod
_cell_formula_units_Z            4
loop_
_atom_site_label
_atom_site_type_symbol
_atom_site_fract_x
_atom_site_fract_y
_atom_site_fract_z
C1 C 0.38789(17) 0.51860(6) 0.83419(9)
C2 C 0.39083(18) 0.44959(6) 0.76373(9)
H1 H 0.2930 0.4046 0.7654
C3 C 0.54185(18) 0.44980(7) 0.69184(9)
H2 H 0.5441 0.4042 0.6422
C4 C 0.69376(17) 0.51501(6) 0.68863(9)
C5 C 0.69206(17) 0.58180(6) 0.75995(9)
H3 H 0.7949 0.6254 0.7601
C6 C 0.53657(17) 0.58483(6) 0.83264(9)
C7 C 0.49104(17) 0.64532(6) 0.91184(9)
C8 C 0.61650(18) 0.72469(6) 0.93125(9)
H4 H 0.5702 0.7600 0.8631
H5 H 0.7757 0.7124 0.9370
C9 C 0.58927(18) 0.77384(6) 1.03637(9)
H6 H 0.6721 0.8262 1.0376
H7 H 0.6549 0.7423 1.1057
C10 C 0.34689(18) 0.79321(6) 1.04012(9)
H8 H 0.3414 0.8447 1.0840
H9 H 0.2659 0.8032 0.9612
C11 C 0.23010(17) 0.72626(6) 1.09279(9)
C12 C 0.19867(17) 0.64324(6) 1.04525(8)
C13 C 0.31604(16) 0.61397(6) 0.95819(8)
C14 C 0.8518(2) 0.50959(7) 0.60708(10)
H10 H 0.7693 0.5143 0.5284
H11 H 0.9291 0.4565 0.6169
H12 H 0.9599 0.5544 0.6228
C15 C 0.14788(19) 0.74352(7) 1.18756(10)
H13 H 0.1713 0.7975 1.2183
N1 N 0.25719(15) 0.53711(5) 0.91110(8)
H14 H 0.1523 0.5054 0.9281
O1 O 0.06729(14) 0.59414(5) 1.07996(7)
O2 O 0.03684(15) 0.69099(6) 1.24117(8)
H15 H 0.034(3) 0.6453(10) 1.1907(15)
loop_
_geom_bond_atom_site_label_1
_geom_bond_atom_site_label_2
_geom_bond_site_symmetry_1
_geom_bond_site_symmetry_2
C1 C2 1_555 1_555
C2 H1 1_555 1_555
C3 C2 1_555 1_555
H2 C3 1_555 1_555
C4 C3 1_555 1_555
C5 C4 1_555 1_555
H3 C5 1_555 1_555
C6 C1 1_555 1_555
C7 C6 1_555 1_555
C8 C7 1_555 1_555
H4 C8 1_555 1_555
H5 C8 1_555 1_555
C9 C8 1_555 1_555
H6 C9 1_555 1_555
H7 C9 1_555 1_555
C10 C9 1_555 1_555
H8 C10 1_555 1_555
H9 C10 1_555 1_555
C11 C10 1_555 1_555
C12 C11 1_555 1_555
C13 C7 1_555 1_555
C14 C4 1_555 1_555
H10 C14 1_555 1_555
H11 C14 1_555 1_555
H12 C14 1_555 1_555
C15 C11 1_555 1_555
H13 C15 1_555 1_555
N1 C1 1_555 1_555
H14 N1 1_555 1_555
O1 C12 1_555 1_555
O2 C15 1_555 1_555
H15 O2 1_555 1_555
C5 C6 1_555 1_555
C12 C13 1_555 1_555
C13 N1 1_555 1_555

#END
