
#######################################################################
#
#                 Cambridge Crystallographic Data Centre
#                                CCDC 
#
#######################################################################
#
# If this CIF has been generated from an entry in the Cambridge 
# Structural Database, then it will include bibliographic, chemical, 
# crystal, experimental, refinement or atomic coordinate data resulting 
# from the CCDC's data processing and validation procedures.
#
#######################################################################

data_WAXQAQ
_chemical_formula_moiety         'C23 H19 N3 O1'
_chemical_name_systematic        
4-methyl-N-phenyl-N-(2-(1H-pyrazol-1-yl)phenyl)benzamide
_symmetry_cell_setting           triclinic
_symmetry_space_group_name_H-M   'P -1'
_symmetry_Int_Tables_number      2
_space_group_name_Hall           '-P 1'
loop_
_symmetry_equiv_pos_site_id
_symmetry_equiv_pos_as_xyz
1 x,y,z
2 -x,-y,-z
_cell_length_a                   9.3524(3)
_cell_length_b                   9.4185(3)
_cell_length_c                   12.0991(4)
_cell_angle_alpha                109.8723(17)
_cell_angle_beta                 106.5283(17)
_cell_angle_gamma                92.9933(16)
_cell_volume                     947.679
_exptl_crystal_description       block
_cell_formula_units_Z            2
loop_
_atom_site_label
_atom_site_type_symbol
_atom_site_fract_x
_atom_site_fract_y
_atom_site_fract_z
C1 C 0.1230(2) 0.4697(3) 0.8463(2)
H1 H 0.1535 0.4376 0.9128
C2 C -0.0014(2) 0.3962(2) 0.7425(2)
H2 H -0.0676 0.3089 0.7262
C3 C -0.00658(19) 0.4786(2) 0.66934(18)
H3 H -0.0783 0.4594 0.5925
C4 C 0.15199(16) 0.71419(17) 0.69251(13)
C5 C 0.04506(18) 0.80251(19) 0.66178(15)
H4 H -0.0531 0.7789 0.6610
C6 C 0.0831(2) 0.9252(2) 0.63233(16)
H5 H 0.0104 0.9832 0.6107
C7 C 0.2288(2) 0.96200(19) 0.63494(15)
H6 H 0.2557 1.0477 0.6190
C8 C 0.33480(18) 0.87132(17) 0.66126(14)
H7 H 0.4324 0.8950 0.6609
C9 C 0.29740(15) 0.74552(16) 0.68822(12)
C10 C 0.54955(15) 0.72003(15) 0.80910(13)
C11 C 0.54910(17) 0.81325(18) 0.92500(14)
H8 H 0.4581 0.8317 0.9395
C12 C 0.6846(2) 0.8789(2) 1.01933(16)
H9 H 0.6847 0.9421 1.0975
C13 C 0.81903(19) 0.8514(2) 0.99847(17)
H10 H 0.9098 0.8954 1.0626
C14 C 0.81990(17) 0.75913(19) 0.88332(17)
H11 H 0.9112 0.7399 0.8698
C15 C 0.68508(16) 0.69445(17) 0.78705(15)
H12 H 0.6856 0.6344 0.7083
C16 C 0.37699(16) 0.49749(17) 0.63540(13)
C17 C 0.46903(16) 0.39195(16) 0.68016(14)
C18 C 0.50285(19) 0.39779(18) 0.80092(15)
H13 H 0.4674 0.4694 0.8570
C19 C 0.58899(19) 0.2976(2) 0.83837(17)
H14 H 0.6101 0.3022 0.9195
C20 C 0.64437(18) 0.19089(19) 0.75807(18)
C21 C 0.60618(19) 0.18275(19) 0.63704(18)
H15 H 0.6401 0.1098 0.5807
C22 C 0.51819(18) 0.28121(18) 0.59763(15)
H16 H 0.4922 0.2725 0.5152
C23 C 0.7460(2) 0.0888(3) 0.8022(2)
H17 H 0.8451 0.1468 0.8508
H18 H 0.7525 0.0057 0.7319
H19 H 0.7052 0.0488 0.8521
N1 N 0.11192(13) 0.59362(14) 0.72910(12)
N2 N 0.19380(16) 0.59057(19) 0.84046(14)
N3 N 0.40783(12) 0.64998(13) 0.71195(10)
O1 O 0.27609(13) 0.45131(13) 0.53564(10)
loop_
_geom_bond_atom_site_label_1
_geom_bond_atom_site_label_2
_geom_bond_site_symmetry_1
_geom_bond_site_symmetry_2
C1 H1 1_555 1_555
C2 C1 1_555 1_555
H2 C2 1_555 1_555
C3 C2 1_555 1_555
H3 C3 1_555 1_555
C4 C5 1_555 1_555
C5 H4 1_555 1_555
C6 C5 1_555 1_555
H5 C6 1_555 1_555
C7 C6 1_555 1_555
H6 C7 1_555 1_555
C8 C7 1_555 1_555
H7 C8 1_555 1_555
C9 C4 1_555 1_555
C10 C11 1_555 1_555
C11 H8 1_555 1_555
C12 C11 1_555 1_555
H9 C12 1_555 1_555
C13 C12 1_555 1_555
H10 C13 1_555 1_555
C14 C13 1_555 1_555
H11 C14 1_555 1_555
C15 C10 1_555 1_555
H12 C15 1_555 1_555
C16 C17 1_555 1_555
C17 C18 1_555 1_555
C18 H13 1_555 1_555
C19 C18 1_555 1_555
H14 C19 1_555 1_555
C20 C19 1_555 1_555
C21 C20 1_555 1_555
H15 C21 1_555 1_555
C22 C17 1_555 1_555
H16 C22 1_555 1_555
C23 C20 1_555 1_555
H17 C23 1_555 1_555
H18 C23 1_555 1_555
H19 C23 1_555 1_555
N1 C3 1_555 1_555
N2 C1 1_555 1_555
N3 C9 1_555 1_555
O1 C16 1_555 1_555
C4 N1 1_555 1_555
C8 C9 1_555 1_555
C10 N3 1_555 1_555
C14 C15 1_555 1_555
C16 N3 1_555 1_555
C21 C22 1_555 1_555
N1 N2 1_555 1_555

#END
