
#######################################################################
#
#                 Cambridge Crystallographic Data Centre
#                                CCDC 
#
#######################################################################
#
# If this CIF has been generated from an entry in the Cambridge 
# Structural Database, then it will include bibliographic, chemical, 
# crystal, experimental, refinement or atomic coordinate data resulting 
# from the CCDC's data processing and validation procedures.
#
#######################################################################

data_WAXTAT
_chemical_formula_moiety         'C26 H30 Cl1 N1 O2'
_chemical_name_systematic        
7-chloro-9a-(2-(4-isopropoxy-3-(prop-1-en-1-yl)phenyl)vinyl)-9,9-dimethyl-2,3,9,9a-tetrahydro[1,3]oxazolo[3,2-a]indole
_symmetry_cell_setting           monoclinic
_symmetry_space_group_name_H-M   'P 21/c'
_symmetry_Int_Tables_number      14
_space_group_name_Hall           '-P 2ybc'
loop_
_symmetry_equiv_pos_site_id
_symmetry_equiv_pos_as_xyz
1 x,y,z
2 -x,1/2+y,1/2-z
3 -x,-y,-z
4 x,1/2-y,1/2+z
_cell_length_a                   17.3687(19)
_cell_length_b                   17.0036(16)
_cell_length_c                   8.0980(9)
_cell_angle_alpha                90
_cell_angle_beta                 100.326(6)
_cell_angle_gamma                90
_cell_volume                     2352.85
_exptl_crystal_colour            colorless
_exptl_crystal_description       block
_cell_formula_units_Z            4
loop_
_atom_site_label
_atom_site_type_symbol
_atom_site_fract_x
_atom_site_fract_y
_atom_site_fract_z
C1 C 0.15170(11) 0.61930(15) 0.2157(3)
C2 C 0.21298(11) 0.56580(13) 0.2468(3)
H1 H 0.2062 0.5165 0.2917
C3 C 0.28446(10) 0.58807(10) 0.2089(2)
C4 C 0.29454(10) 0.66266(10) 0.1449(2)
C5 C 0.23262(11) 0.71580(12) 0.1136(3)
H2 H 0.2393 0.7654 0.0697
C6 C 0.16055(12) 0.69291(14) 0.1497(3)
H3 H 0.1182 0.7273 0.1292
C7 C 0.38744(12) 0.70970(13) -0.0292(2)
H4 H 0.4343 0.7419 -0.0114
H5 H 0.3433 0.7417 -0.0805
C8 C 0.39708(17) 0.63886(16) -0.1379(3)
H6 H 0.3547 0.6368 -0.2339
H7 H 0.4462 0.6421 -0.1785
C9 C 0.41030(10) 0.59710(10) 0.1369(2)
C10 C 0.36242(10) 0.54540(10) 0.2417(2)
C11 C 0.39528(11) 0.55292(13) 0.4310(2)
H8 H 0.4018 0.6075 0.4605
H9 H 0.4450 0.5267 0.4565
H10 H 0.3595 0.5292 0.4939
C12 C 0.35940(13) 0.45892(12) 0.1893(3)
H11 H 0.3313 0.4294 0.2604
H12 H 0.4117 0.4388 0.2000
H13 H 0.3333 0.4543 0.0748
C13 C 0.49762(10) 0.59850(10) 0.2007(2)
H14 H 0.5265 0.5550 0.1781
C14 C 0.53584(10) 0.65713(11) 0.2863(2)
H15 H 0.5066 0.7019 0.2983
C15 C 0.61938(9) 0.66008(10) 0.3653(2)
C16 C 0.67529(10) 0.60747(10) 0.3259(2)
H16 H 0.6602 0.5707 0.2413
C17 C 0.75301(10) 0.60824(10) 0.4093(2)
C18 C 0.77479(10) 0.66361(11) 0.5387(2)
C19 C 0.72055(11) 0.71678(12) 0.5779(3)
H17 H 0.7353 0.7535 0.6626
C20 C 0.64406(11) 0.71533(11) 0.4909(2)
H18 H 0.6084 0.7521 0.5169
C21 C 0.81182(11) 0.55233(13) 0.3688(3)
H19 H 0.8628 0.5604 0.4251
C22 C 0.80222(15) 0.49454(17) 0.2673(4)
H20 H 0.7518 0.4855 0.2089
C23 C 0.86593(19) 0.4392(2) 0.2334(4)
H21 H 0.8725 0.4446 0.1187
H22 H 0.8515 0.3860 0.2535
H23 H 0.9142 0.4520 0.3065
C24 C 0.87694(12) 0.69490(13) 0.7807(3)
H24 H 0.8543 0.7475 0.7848
C25 C 0.85168(17) 0.64471(18) 0.9109(4)
H25 H 0.7956 0.6410 0.8901
H26 H 0.8693 0.6675 1.0196
H27 H 0.8738 0.5931 0.9072
C26 C 0.96497(14) 0.7017(2) 0.8012(4)
H28 H 0.9873 0.6503 0.7976
H29 H 0.9853 0.7260 0.9070
H30 H 0.9782 0.7332 0.7119
Cl1 Cl 0.06007(4) 0.59117(6) 0.25731(13)
N1 N 0.37374(8) 0.67540(8) 0.12936(17)
O1 O 0.39595(8) 0.57061(8) -0.03616(16)
O2 O 0.85224(8) 0.66203(10) 0.61484(19)
loop_
_geom_bond_atom_site_label_1
_geom_bond_atom_site_label_2
_geom_bond_site_symmetry_1
_geom_bond_site_symmetry_2
C1 C2 1_555 1_555
C2 H1 1_555 1_555
C3 C2 1_555 1_555
C4 C3 1_555 1_555
C5 C4 1_555 1_555
H2 C5 1_555 1_555
C6 C1 1_555 1_555
H3 C6 1_555 1_555
C7 H4 1_555 1_555
H5 C7 1_555 1_555
C8 C7 1_555 1_555
H6 C8 1_555 1_555
H7 C8 1_555 1_555
C9 C10 1_555 1_555
C10 C3 1_555 1_555
C11 C10 1_555 1_555
H8 C11 1_555 1_555
H9 C11 1_555 1_555
H10 C11 1_555 1_555
C12 C10 1_555 1_555
H11 C12 1_555 1_555
H12 C12 1_555 1_555
H13 C12 1_555 1_555
C13 C9 1_555 1_555
H14 C13 1_555 1_555
C14 C13 1_555 1_555
H15 C14 1_555 1_555
C15 C14 1_555 1_555
C16 C15 1_555 1_555
H16 C16 1_555 1_555
C17 C16 1_555 1_555
C18 C17 1_555 1_555
C19 C18 1_555 1_555
H17 C19 1_555 1_555
C20 C15 1_555 1_555
H18 C20 1_555 1_555
C21 C17 1_555 1_555
H19 C21 1_555 1_555
C22 C21 1_555 1_555
H20 C22 1_555 1_555
C23 C22 1_555 1_555
H21 C23 1_555 1_555
H22 C23 1_555 1_555
H23 C23 1_555 1_555
C24 H24 1_555 1_555
C25 C24 1_555 1_555
H25 C25 1_555 1_555
H26 C25 1_555 1_555
H27 C25 1_555 1_555
C26 C24 1_555 1_555
H28 C26 1_555 1_555
H29 C26 1_555 1_555
H30 C26 1_555 1_555
Cl1 C1 1_555 1_555
N1 C4 1_555 1_555
O1 C8 1_555 1_555
O2 C18 1_555 1_555
C5 C6 1_555 1_555
C7 N1 1_555 1_555
C9 N1 1_555 1_555
C9 O1 1_555 1_555
C19 C20 1_555 1_555
C24 O2 1_555 1_555

#END
