
#######################################################################
#
#                 Cambridge Crystallographic Data Centre
#                                CCDC 
#
#######################################################################
#
# If this CIF has been generated from an entry in the Cambridge 
# Structural Database, then it will include bibliographic, chemical, 
# crystal, experimental, refinement or atomic coordinate data resulting 
# from the CCDC's data processing and validation procedures.
#
#######################################################################

data_WAXVOG01
_chemical_formula_moiety         'C4 H12 N1 1+,H4 B5 O10 1-,0.25(H2 O1)'
_chemical_name_systematic        
"Tetramethylammonium 4,4',6,6'-tetrahydroxy-2,2'-spirobi(cyclotriboroxane) hydrate"
_symmetry_cell_setting           monoclinic
_symmetry_space_group_name_H-M   'P 21/c'
_symmetry_Int_Tables_number      14
_space_group_name_Hall           '-P 2ybc'
loop_
_symmetry_equiv_pos_site_id
_symmetry_equiv_pos_as_xyz
1 x,y,z
2 -x,1/2+y,1/2-z
3 -x,-y,-z
4 x,1/2-y,1/2+z
_cell_length_a                   9.2623(4)
_cell_length_b                   16.8814(7)
_cell_length_c                   9.2119(5)
_cell_angle_alpha                90
_cell_angle_beta                 96.281(3)
_cell_angle_gamma                90
_cell_volume                     1431.73
_exptl_crystal_colour            colorless
_exptl_crystal_description       block
_cell_formula_units_Z            4
loop_
_atom_site_label
_atom_site_type_symbol
_atom_site_fract_x
_atom_site_fract_y
_atom_site_fract_z
O1 O 0.8486(2) 0.57705(13) 0.1955(2)
O2 O 1.0888(3) 0.53732(16) 0.2093(3)
O3 O 1.0043(2) 0.63342(14) 0.0344(3)
O4 O 0.9200(3) 0.72546(18) -0.1411(3)
O5 O 0.7570(2) 0.67133(13) 0.0127(2)
O6 O 0.6910(2) 0.68090(13) 0.2551(2)
O7 O 0.5300(3) 0.7418(2) 0.4023(4)
O8 O 0.4480(2) 0.63774(16) 0.2525(3)
O9 O 0.3570(2) 0.53304(17) 0.1089(3)
O10 O 0.5992(2) 0.57430(12) 0.0974(2)
B1 B 0.9795(4) 0.5822(2) 0.1457(4)
B2 B 0.8906(4) 0.6768(2) -0.0314(4)
B3 B 0.7253(4) 0.6256(2) 0.1413(4)
B4 B 0.5600(4) 0.6874(3) 0.3036(5)
B5 B 0.4718(4) 0.5813(2) 0.1516(4)
H1 H 1.172(4) 0.539(2) 0.174(4)
H2 H 0.853(5) 0.750(3) -0.178(5)
H3 H 0.602(6) 0.765(3) 0.429(6)
H4 H 0.371(5) 0.503(3) 0.046(5)
O11 O 0.649(2) 0.8871(12) 0.143(2)
N1 N 0.2069(4) 0.87837(19) 0.1203(3)
C1 C 0.2401(6) 0.8739(3) 0.2795(5)
H5 H 0.3415 0.8627 0.3035
H6 H 0.1835 0.8324 0.3169
H7 H 0.2170 0.9235 0.3223
C2 C 0.2907(7) 0.9435(3) 0.0630(6)
H8 H 0.3927 0.9328 0.0838
H9 H 0.2679 0.9923 0.1087
H10 H 0.2661 0.9476 -0.0406
C3 C 0.0482(5) 0.8967(3) 0.0870(6)
H11 H 0.0264 0.9453 0.1340
H12 H -0.0080 0.8545 0.1224
H13 H 0.0246 0.9019 -0.0166
C4 C 0.2369(6) 0.8033(3) 0.0465(7)
H14 H 0.3382 0.7906 0.0660
H15 H 0.2119 0.8090 -0.0569
H16 H 0.1801 0.7615 0.0824
loop_
_geom_bond_atom_site_label_1
_geom_bond_atom_site_label_2
_geom_bond_site_symmetry_1
_geom_bond_site_symmetry_2
O1 B1 1_555 1_555
O2 B1 1_555 1_555
O3 B1 1_555 1_555
O4 B2 1_555 1_555
O5 B2 1_555 1_555
O6 B3 1_555 1_555
O7 B4 1_555 1_555
O8 B4 1_555 1_555
O9 B5 1_555 1_555
O10 B3 1_555 1_555
B2 O3 1_555 1_555
B3 O1 1_555 1_555
B4 O6 1_555 1_555
B5 O8 1_555 1_555
H1 O2 1_555 1_555
H2 O4 1_555 1_555
H3 O7 1_555 1_555
H4 O9 1_555 1_555
N1 C1 1_555 1_555
C1 H5 1_555 1_555
H6 C1 1_555 1_555
H7 C1 1_555 1_555
C2 N1 1_555 1_555
H8 C2 1_555 1_555
H9 C2 1_555 1_555
H10 C2 1_555 1_555
C3 N1 1_555 1_555
H11 C3 1_555 1_555
H12 C3 1_555 1_555
H13 C3 1_555 1_555
C4 N1 1_555 1_555
H14 C4 1_555 1_555
H15 C4 1_555 1_555
H16 C4 1_555 1_555
O5 B3 1_555 1_555
O10 B5 1_555 1_555

#END
