
#######################################################################
#
#                 Cambridge Crystallographic Data Centre
#                                CCDC 
#
#######################################################################
#
# If this CIF has been generated from an entry in the Cambridge 
# Structural Database, then it will include bibliographic, chemical, 
# crystal, experimental, refinement or atomic coordinate data resulting 
# from the CCDC's data processing and validation procedures.
#
#######################################################################

data_WAXVOJ
_chemical_formula_moiety         'C22 H25 N2 O5 P1'
_chemical_name_systematic        
'diethyl [(4-{[(6-methoxy-2-oxo-1,2-dihydroquinolin-3-yl)methylidene]amino}phenyl)methyl]phosphonate'
_chemical_properties_biological  'antitumour activity'
_symmetry_cell_setting           monoclinic
_symmetry_space_group_name_H-M   'P 21/n'
_symmetry_Int_Tables_number      14
_space_group_name_Hall           '-P 2yn'
loop_
_symmetry_equiv_pos_site_id
_symmetry_equiv_pos_as_xyz
1 x,y,z
2 1/2-x,1/2+y,1/2-z
3 -x,-y,-z
4 1/2+x,1/2-y,1/2+z
_cell_length_a                   8.405(2)
_cell_length_b                   16.660(3)
_cell_length_c                   16.156(3)
_cell_angle_alpha                90
_cell_angle_beta                 99.29(2)
_cell_angle_gamma                90
_cell_volume                     2232.61
_cell_formula_units_Z            4
loop_
_atom_site_label
_atom_site_type_symbol
_atom_site_fract_x
_atom_site_fract_y
_atom_site_fract_z
P1 P 0.9076(2) 0.74629(11) 1.10281(14)
O1 O 1.1308(4) 0.6037(2) 0.2654(3)
O2 O 0.6026(4) 0.5314(2) 0.5992(3)
O3 O 0.8381(5) 0.8116(2) 1.0481(3)
O4 O 0.7945(6) 0.6707(3) 1.1042(4)
O5 O 0.9592(7) 0.7685(3) 1.1985(3)
N1 N 1.0006(5) 0.6476(2) 0.7216(3)
C1 C 1.2810(7) 0.6432(4) 0.2964(4)
H1 H 1.3427 0.6489 0.2516
H2 H 1.3408 0.6118 0.3407
H3 H 1.2597 0.6953 0.3175
C2 C 1.0271(6) 0.5937(3) 0.3217(4)
C3 C 0.8787(6) 0.5592(3) 0.2867(4)
H4 H 0.8580 0.5476 0.2297
C4 C 0.7647(6) 0.5428(3) 0.3358(4)
H5 H 0.6655 0.5217 0.3119
C5 C 0.7975(6) 0.5578(3) 0.4222(4)
N2 N 0.6865(4) 0.5387(2) 0.4741(3)
H6 H 0.5969 0.5171 0.4516
C6 C 0.7104(6) 0.5519(3) 0.5570(4)
C7 C 0.8576(6) 0.5916(3) 0.5943(4)
C8 C 0.9688(6) 0.6096(3) 0.5452(4)
H7 H 1.0654 0.6331 0.5696
C9 C 0.9427(5) 0.5937(2) 0.4578(4)
C10 C 1.0580(6) 0.6108(3) 0.4054(4)
H8 H 1.1560 0.6339 0.4282
C11 C 0.8840(6) 0.6073(3) 0.6841(4)
H9 H 0.8106 0.5862 0.7156
C12 C 1.0214(6) 0.6556(3) 0.8095(4)
C13 C 0.9812(7) 0.5984(3) 0.8647(4)
H10 H 0.9386 0.5495 0.8441
C14 C 1.0036(7) 0.6130(3) 0.9491(4)
H11 H 0.9745 0.5739 0.9848
C15 C 1.0683(7) 0.6846(4) 0.9828(4)
C16 C 1.1132(7) 0.7395(3) 0.9277(4)
H12 H 1.1592 0.7876 0.9486
C17 C 1.0928(6) 0.7263(3) 0.8432(4)
H13 H 1.1267 0.7646 0.8080
C18 C 1.0841(7) 0.7020(3) 1.0768(4)
H14 H 1.1746 0.7378 1.0934
H15 H 1.1059 0.6523 1.1078
C19 C 0.6229(16) 0.6745(6) 1.0819(8)
H16 H 0.5810 0.7068 1.1234
H17 H 0.5974 0.7021 1.0285
C20 C 0.5462(12) 0.6047(8) 1.0756(9)
H18 H 0.4415 0.6113 1.0424
H19 H 0.5347 0.5861 1.1305
H20 H 0.6069 0.5663 1.0492
C21 C 0.9254(9) 0.8384(5) 1.2335(6)
H21 H 0.8096 0.8418 1.2316
H22 H 0.9569 0.8820 1.1999
C22 C 1.0013(10) 0.8497(5) 1.3178(6)
H23 H 1.1123 0.8338 1.3233
H24 H 0.9479 0.8175 1.3543
H25 H 0.9950 0.9052 1.3326
H26? H 0.6452 0.5141 0.6449
loop_
_geom_bond_atom_site_label_1
_geom_bond_atom_site_label_2
_geom_bond_site_symmetry_1
_geom_bond_site_symmetry_2
P1 O3 1_555 1_555
O1 C1 1_555 1_555
O2 C6 1_555 1_555
O4 P1 1_555 1_555
O5 P1 1_555 1_555
N1 C11 1_555 1_555
C1 H1 1_555 1_555
H2 C1 1_555 1_555
H3 C1 1_555 1_555
C2 O1 1_555 1_555
C3 C2 1_555 1_555
H4 C3 1_555 1_555
C4 C3 1_555 1_555
H5 C4 1_555 1_555
C5 C4 1_555 1_555
N2 C5 1_555 1_555
H6 N2 1_555 1_555
C6 N2 1_555 1_555
C7 C6 1_555 1_555
C8 C7 1_555 1_555
H7 C8 1_555 1_555
C9 C5 1_555 1_555
C10 C2 1_555 1_555
H8 C10 1_555 1_555
C11 C7 1_555 1_555
H9 C11 1_555 1_555
C12 N1 1_555 1_555
C13 C12 1_555 1_555
H10 C13 1_555 1_555
C14 C13 1_555 1_555
H11 C14 1_555 1_555
C15 C14 1_555 1_555
C16 C15 1_555 1_555
H12 C16 1_555 1_555
C17 C12 1_555 1_555
H13 C17 1_555 1_555
C18 P1 1_555 1_555
H14 C18 1_555 1_555
H15 C18 1_555 1_555
C19 O4 1_555 1_555
H16 C19 1_555 1_555
H17 C19 1_555 1_555
C20 C19 1_555 1_555
H18 C20 1_555 1_555
H19 C20 1_555 1_555
H20 C20 1_555 1_555
C21 O5 1_555 1_555
H21 C21 1_555 1_555
H22 C21 1_555 1_555
C22 C21 1_555 1_555
H23 C22 1_555 1_555
H24 C22 1_555 1_555
H25 C22 1_555 1_555
C8 C9 1_555 1_555
C9 C10 1_555 1_555
C15 C18 1_555 1_555
C16 C17 1_555 1_555

#END
