
#######################################################################
#
#                 Cambridge Crystallographic Data Centre
#                                CCDC 
#
#######################################################################
#
# If this CIF has been generated from an entry in the Cambridge 
# Structural Database, then it will include bibliographic, chemical, 
# crystal, experimental, refinement or atomic coordinate data resulting 
# from the CCDC's data processing and validation procedures.
#
#######################################################################

data_WAXVIC
_chemical_formula_moiety         'C76 H90 N10 O14 4+,4(C2 F3 O2 1-),4(C2 H3 N1)'
_chemical_name_systematic        
"[1]-4^3^,9^3^-(4,4'-(Naphthalene-1,5-diylbis(oxy-2,5,8,11,14,17-hexaoxanonadecane-19,1-diyl))bis(1,2,3-triazol-1-yl))-1,6(1,4),2,7(4,1)-tetrapyridina-4,9(1,4)-dibenzenacyclodecaphane-rotaxane tetrakis(trifluoroacetate) acetonitrile solvate"
_symmetry_cell_setting           triclinic
_symmetry_space_group_name_H-M   'P -1'
_symmetry_Int_Tables_number      2
_space_group_name_Hall           '-P 1'
loop_
_symmetry_equiv_pos_site_id
_symmetry_equiv_pos_as_xyz
1 x,y,z
2 -x,-y,-z
_cell_length_a                   11.0829(8)
_cell_length_b                   14.6829(10)
_cell_length_c                   16.8532(17)
_cell_angle_alpha                105.728(6)
_cell_angle_beta                 100.310(6)
_cell_angle_gamma                110.620(4)
_cell_volume                     2353.28
_exptl_crystal_colour            violet
_exptl_crystal_description       plate
_cell_formula_units_Z            1
loop_
_atom_site_label
_atom_site_type_symbol
_atom_site_fract_x
_atom_site_fract_y
_atom_site_fract_z
C1 C -0.3373(4) -0.2086(3) -0.2547(3)
H1 H -0.3820 -0.2827 -0.2795
C2 C -0.1956(4) -0.0511(3) -0.2602(3)
H2 H -0.1401 -0.0147 -0.2886
C3 C -0.3583(4) -0.1574(3) -0.1814(3)
H3 H -0.4168 -0.1960 -0.1558
C4 C -0.2146(4) 0.0039(3) -0.1873(3)
H4 H -0.1736 0.0780 -0.1660
C5 C -0.2943(4) -0.0488(3) -0.1440(3)
C6 C -0.3053(4) 0.0091(3) -0.0600(3)
C7 C -0.3538(4) -0.0444(3) -0.0071(3)
H5 H -0.3850 -0.1181 -0.0264
C8 C -0.2620(4) 0.1168(3) -0.0291(3)
H6 H -0.2304 0.1553 -0.0640
C9 C -0.3563(4) 0.0094(3) 0.0725(3)
H7 H -0.3904 -0.0276 0.1077
C10 C -0.2648(4) 0.1679(3) 0.0515(3)
H8 H -0.2340 0.2416 0.0724
C11 C 0.3024(4) -0.1707(4) -0.1919(3)
H9 H 0.3772 -0.1277 -0.2088
H10 H 0.3094 -0.2371 -0.1964
C12 C 0.1670(4) -0.1920(3) -0.2509(2)
C13 C 0.1547(5) -0.1179(4) -0.2849(3)
H11 H 0.2328 -0.0589 -0.2788
C14 C 0.0541(4) -0.2821(3) -0.2667(2)
H12 H 0.0631 -0.3352 -0.2475
C15 C 0.0272(5) -0.1313(4) -0.3277(3)
H13 H 0.0192 -0.0806 -0.3506
C16 C -0.0731(4) -0.2946(3) -0.3110(2)
C17 C -0.0890(4) -0.2163(3) -0.3381(2)
C18 C -0.2252(5) -0.2149(4) -0.3687(3)
H14 H -0.2965 -0.2872 -0.3968
H15 H -0.2237 -0.1802 -0.4116
C19 C -0.2862(4) -0.4582(4) -0.3974(3)
H16 H -0.3032 -0.4532 -0.4530
C20 C -0.3577(5) -0.5371(4) -0.3739(3)
C21 C -0.4805(5) -0.6358(4) -0.4267(3)
H17 H -0.4882 -0.6869 -0.3975
H18 H -0.4699 -0.6656 -0.4837
C22 C -0.6303(6) -0.5857(4) -0.3599(3)
H19 H -0.6523 -0.6416 -0.3355
H20 H -0.5494 -0.5242 -0.3176
C23 C -0.7460(6) -0.5575(5) -0.3762(4)
H21 H -0.7730 -0.5406 -0.3231
H22 H -0.8246 -0.6169 -0.4226
C24 C -0.7952(6) -0.4206(5) -0.3967(4)
H23 H -0.8893 -0.4743 -0.4264
H24 H -0.7870 -0.3874 -0.3353
C25 C -0.7663(11) -0.3428(7) -0.4361(4)
H25 H -0.8372 -0.3165 -0.4378
H26 H -0.7691 -0.3754 -0.4965
C26 C -0.6441(8) -0.1838(7) -0.4342(5)
H27 H -0.7153 -0.1600 -0.4249
H28 H -0.6577 -0.2137 -0.4970
C27 C -0.5204(10) -0.1080(8) -0.3921(7)
H29 H -0.5220 -0.0408 -0.3913
H30 H -0.4964 -0.1039 -0.3313
C28 C -0.3730(9) -0.0886(7) -0.4988(5)
H31 H -0.4284 -0.0506 -0.5097
H32 H -0.4078 -0.1526 -0.5510
C29 C -0.2559(11) -0.033(2) -0.4964(8)
H33 H -0.2452 -0.0690 -0.5518
H34 H -0.2589 0.0322 -0.5000
C30 C -0.0569(12) 0.1026(9) -0.4169(5)
H35 H -0.0442 0.1134 -0.4708
H36 H -0.1035 0.1448 -0.3928
C31 C 0.0702(10) 0.1360(6) -0.3569(6)
H37 H 0.1307 0.2064 -0.3530
H38 H 0.1113 0.0878 -0.3776
C32 C 0.1964(9) 0.1774(5) -0.2168(5)
H39 H 0.2564 0.2441 -0.2195
H40 H 0.2342 0.1258 -0.2343
C33 C 0.1881(7) 0.1926(5) -0.1297(4)
H41 H 0.2803 0.2327 -0.0880
H42 H 0.1354 0.2340 -0.1169
C34 C 0.0909(4) 0.0989(4) -0.0440(3)
C35 C 0.1178(5) 0.1907(4) 0.0206(3)
H43 H 0.1660 0.2560 0.0162
C36 C 0.0214(4) 0.0005(3) -0.0371(3)
C37 C -0.0055(4) -0.0950(3) -0.1019(3)
H44 H 0.0240 -0.0948 -0.1515
C38 C 0.0734(4) 0.1868(4) 0.0931(3)
H45 H 0.0914 0.2503 0.1372
N1 N -0.2553(3) -0.1567(3) -0.2921(2)
N2 N -0.3112(3) 0.1137(3) 0.1013(2)
N3 N -0.1854(4) -0.3880(3) -0.3242(2)
N4 N -0.1947(4) -0.4236(3) -0.2574(2)
N5 N -0.2991(4) -0.5136(3) -0.2881(3)
O1 O -0.6028(3) -0.6210(3) -0.4395(2)
O2 O -0.7045(4) -0.4689(3) -0.4018(2)
O3 O -0.6381(7) -0.2580(4) -0.3907(4)
O4 O -0.4041(4) -0.1218(3) -0.4321(2)
O5 O -0.1363(5) -0.0023(6) -0.4355(3)
O6 O 0.0597(6) 0.1394(4) -0.2749(3)
O7 O 0.1244(3) 0.0939(3) -0.1185(2)
C1A C 0.3373(4) 0.2086(3) 0.2547(3)
H1A H 0.3820 0.2827 0.2795
C2A C 0.1956(4) 0.0511(3) 0.2602(3)
H2A H 0.1401 0.0147 0.2886
C3A C 0.3583(4) 0.1574(3) 0.1814(3)
H3A H 0.4168 0.1960 0.1558
C4A C 0.2146(4) -0.0039(3) 0.1873(3)
H4A H 0.1736 -0.0780 0.1660
C5A C 0.2943(4) 0.0488(3) 0.1440(3)
C6A C 0.3053(4) -0.0091(3) 0.0600(3)
C7A C 0.3538(4) 0.0444(3) 0.0071(3)
H5A H 0.3850 0.1181 0.0264
C8A C 0.2620(4) -0.1168(3) 0.0291(3)
H6A H 0.2304 -0.1553 0.0640
C9A C 0.3563(4) -0.0094(3) -0.0725(3)
H7A H 0.3904 0.0276 -0.1077
C10A C 0.2648(4) -0.1679(3) -0.0515(3)
H8A H 0.2340 -0.2416 -0.0724
C11A C -0.3024(4) 0.1707(4) 0.1919(3)
H9A H -0.3772 0.1277 0.2088
H10A H -0.3094 0.2371 0.1964
C12A C -0.1670(4) 0.1920(3) 0.2509(2)
C13A C -0.1547(5) 0.1179(4) 0.2849(3)
H11A H -0.2328 0.0589 0.2788
C14A C -0.0541(4) 0.2821(3) 0.2667(2)
H12A H -0.0631 0.3352 0.2475
C15A C -0.0272(5) 0.1313(4) 0.3277(3)
H13A H -0.0192 0.0806 0.3506
C16A C 0.0731(4) 0.2946(3) 0.3110(2)
C17A C 0.0890(4) 0.2163(3) 0.3381(2)
C18A C 0.2252(5) 0.2149(4) 0.3687(3)
H14A H 0.2965 0.2872 0.3968
H15A H 0.2237 0.1802 0.4116
C19A C 0.2862(4) 0.4582(4) 0.3974(3)
H16A H 0.3032 0.4532 0.4530
C20A C 0.3577(5) 0.5371(4) 0.3739(3)
C21A C 0.4805(5) 0.6358(4) 0.4267(3)
H17A H 0.4882 0.6869 0.3975
H18A H 0.4699 0.6656 0.4837
C22A C 0.6303(6) 0.5857(4) 0.3599(3)
H19A H 0.6523 0.6416 0.3355
H20A H 0.5494 0.5242 0.3176
C23A C 0.7460(6) 0.5575(5) 0.3762(4)
H21A H 0.7730 0.5406 0.3231
H22A H 0.8246 0.6169 0.4226
C24A C 0.7952(6) 0.4206(5) 0.3967(4)
H23A H 0.8893 0.4743 0.4264
H24A H 0.7870 0.3874 0.3353
C25A C 0.7663(11) 0.3428(7) 0.4361(4)
H25A H 0.8372 0.3165 0.4378
H26A H 0.7691 0.3754 0.4965
C26A C 0.6441(8) 0.1838(7) 0.4342(5)
H27A H 0.7153 0.1600 0.4249
H28A H 0.6577 0.2137 0.4970
C27A C 0.5204(10) 0.1080(8) 0.3921(7)
H29A H 0.5220 0.0408 0.3913
H30A H 0.4964 0.1039 0.3313
C28A C 0.3730(9) 0.0886(7) 0.4988(5)
H31A H 0.4284 0.0506 0.5097
H32A H 0.4078 0.1526 0.5510
C29A C 0.2559(11) 0.033(2) 0.4964(8)
H33A H 0.2452 0.0690 0.5518
H34A H 0.2589 -0.0322 0.5000
C30A C 0.0569(12) -0.1026(9) 0.4169(5)
H35A H 0.0442 -0.1134 0.4708
H36A H 0.1035 -0.1448 0.3928
C31A C -0.0702(10) -0.1360(6) 0.3569(6)
H37A H -0.1307 -0.2064 0.3530
H38A H -0.1113 -0.0878 0.3776
C32A C -0.1964(9) -0.1774(5) 0.2168(5)
H39A H -0.2564 -0.2441 0.2195
H40A H -0.2342 -0.1258 0.2343
C33A C -0.1881(7) -0.1926(5) 0.1297(4)
H41A H -0.2803 -0.2327 0.0880
H42A H -0.1354 -0.2340 0.1169
C34A C -0.0909(4) -0.0989(4) 0.0440(3)
C35A C -0.1178(5) -0.1907(4) -0.0206(3)
H43A H -0.1660 -0.2560 -0.0162
C36A C -0.0214(4) -0.0005(3) 0.0371(3)
C37A C 0.0055(4) 0.0950(3) 0.1019(3)
H44A H -0.0240 0.0948 0.1515
C38A C -0.0734(4) -0.1868(4) -0.0931(3)
H45A H -0.0914 -0.2503 -0.1372
N1A N 0.2553(3) 0.1567(3) 0.2921(2)
N2A N 0.3112(3) -0.1137(3) -0.1013(2)
N3A N 0.1854(4) 0.3880(3) 0.3242(2)
N4A N 0.1947(4) 0.4236(3) 0.2574(2)
N5A N 0.2991(4) 0.5136(3) 0.2881(3)
O1A O 0.6028(3) 0.6210(3) 0.4395(2)
O2A O 0.7045(4) 0.4689(3) 0.4018(2)
O3A O 0.6381(7) 0.2580(4) 0.3907(4)
O4A O 0.4041(4) 0.1218(3) 0.4321(2)
O5A O 0.1363(5) 0.0023(6) 0.4355(3)
O6A O -0.0597(6) -0.1394(4) 0.2749(3)
O7A O -0.1244(3) -0.0939(3) 0.1185(2)
C39 C 0.6294(5) 0.3676(4) 0.1211(3)
C40 C 0.5798(8) 0.4458(5) 0.1022(5)
O8 O 0.5421(4) 0.2774(3) 0.0882(3)
O9 O 0.7472(4) 0.4014(3) 0.1666(3)
F1 F 0.4877(8) 0.4530(7) 0.1408(4)
F2 F 0.5188(6) 0.4177(4) 0.0191(3)
F3 F 0.6733(8) 0.5407(3) 0.1298(5)
C41 C 0.5077(5) 0.8961(4) 0.2466(3)
C42 C 0.3819(8) 0.8078(6) 0.2433(5)
O10 O 0.4882(4) 0.9389(3) 0.1955(2)
O11 O 0.6107(4) 0.9176(3) 0.3029(3)
F4 F 0.2811(5) 0.7655(4) 0.1734(3)
F5 F 0.3328(8) 0.8406(9) 0.3070(4)
F6 F 0.4002(9) 0.7351(6) 0.2617(7)
C43 C 0.0707(7) 0.4215(5) 0.0313(4)
C44 C 0.2104(7) 0.4969(6) 0.0645(5)
H46 H 0.2627 0.4718 0.0303
H47 H 0.2471 0.5066 0.1251
H48 H 0.2161 0.5637 0.0606
N6 N -0.0392(7) 0.3613(5) 0.0045(4)
C45 C 0.0569(7) 0.6249(7) 0.2999(5)
C46 C 0.0316(8) 0.5978(7) 0.2128(5)
H49 H 0.0994 0.5753 0.1954
H50 H 0.0360 0.6581 0.1969
H51 H -0.0588 0.5404 0.1833
N7 N 0.0774(10) 0.6479(13) 0.3716(6)
loop_
_geom_bond_atom_site_label_1
_geom_bond_atom_site_label_2
_geom_bond_site_symmetry_1
_geom_bond_site_symmetry_2
C1 H1 1_555 1_555
C2 H2 1_555 1_555
C3 C1 1_555 1_555
H3 C3 1_555 1_555
C4 C2 1_555 1_555
H4 C4 1_555 1_555
C5 C3 1_555 1_555
C6 C5 1_555 1_555
C7 C6 1_555 1_555
H5 C7 1_555 1_555
C8 C6 1_555 1_555
H6 C8 1_555 1_555
C9 C7 1_555 1_555
H7 C9 1_555 1_555
C10 C8 1_555 1_555
H8 C10 1_555 1_555
C11 H9 1_555 1_555
H10 C11 1_555 1_555
C12 C11 1_555 1_555
C13 C12 1_555 1_555
H11 C13 1_555 1_555
C14 C12 1_555 1_555
H12 C14 1_555 1_555
C15 C13 1_555 1_555
H13 C15 1_555 1_555
C16 C14 1_555 1_555
C17 C15 1_555 1_555
C18 C17 1_555 1_555
H14 C18 1_555 1_555
H15 C18 1_555 1_555
C19 H16 1_555 1_555
C20 C19 1_555 1_555
C21 C20 1_555 1_555
H17 C21 1_555 1_555
H18 C21 1_555 1_555
C22 H19 1_555 1_555
H20 C22 1_555 1_555
C23 C22 1_555 1_555
H21 C23 1_555 1_555
H22 C23 1_555 1_555
C24 H23 1_555 1_555
H24 C24 1_555 1_555
C25 C24 1_555 1_555
H25 C25 1_555 1_555
H26 C25 1_555 1_555
C26 H27 1_555 1_555
H28 C26 1_555 1_555
C27 C26 1_555 1_555
H29 C27 1_555 1_555
H30 C27 1_555 1_555
C28 H31 1_555 1_555
H32 C28 1_555 1_555
C29 C28 1_555 1_555
H33 C29 1_555 1_555
H34 C29 1_555 1_555
C30 H35 1_555 1_555
H36 C30 1_555 1_555
C31 C30 1_555 1_555
H37 C31 1_555 1_555
H38 C31 1_555 1_555
C32 H39 1_555 1_555
H40 C32 1_555 1_555
C33 C32 1_555 1_555
H41 C33 1_555 1_555
H42 C33 1_555 1_555
C34 C35 1_555 1_555
C35 H43 1_555 1_555
C36 C34 1_555 1_555
C37 C36 1_555 1_555
H44 C37 1_555 1_555
C38 C35 1_555 1_555
H45 C38 1_555 1_555
N1 C1 1_555 1_555
N2 C9 1_555 1_555
N3 C16 1_555 1_555
N4 N3 1_555 1_555
N5 C20 1_555 1_555
O1 C21 1_555 1_555
O2 C23 1_555 1_555
O3 C25 1_555 1_555
O4 C27 1_555 1_555
O5 C29 1_555 1_555
O6 C31 1_555 1_555
O7 C33 1_555 1_555
C39 C40 1_555 1_555
C40 F1 1_555 1_555
C41 C42 1_555 1_555
C42 F4 1_555 1_555
C43 C44 1_555 1_555
C44 H46 1_555 1_555
H47 C44 1_555 1_555
H48 C44 1_555 1_555
C45 C46 1_555 1_555
C46 H49 1_555 1_555
H50 C46 1_555 1_555
H51 C46 1_555 1_555
O8 C39 1_555 1_555
O9 C39 1_555 1_555
O10 C41 1_555 1_555
O11 C41 1_555 1_555
F2 C40 1_555 1_555
F3 C40 1_555 1_555
F5 C42 1_555 1_555
F6 C42 1_555 1_555
N6 C43 1_555 1_555
N7 C45 1_555 1_555
C1A H1A 1_555 1_555
C2A H2A 1_555 1_555
C3A C1A 1_555 1_555
H3A C3A 1_555 1_555
C4A C2A 1_555 1_555
H4A C4A 1_555 1_555
C5A C3A 1_555 1_555
C6A C5A 1_555 1_555
C7A C6A 1_555 1_555
H5A C7A 1_555 1_555
C8A C6A 1_555 1_555
H6A C8A 1_555 1_555
C9A C7A 1_555 1_555
H7A C9A 1_555 1_555
C10A C8A 1_555 1_555
H8A C10A 1_555 1_555
C11A N2 1_555 1_555
H9A C11A 1_555 1_555
H10A C11A 1_555 1_555
C12A C11A 1_555 1_555
C13A C12A 1_555 1_555
H11A C13A 1_555 1_555
C14A C12A 1_555 1_555
H12A C14A 1_555 1_555
C15A C13A 1_555 1_555
H13A C15A 1_555 1_555
C16A C14A 1_555 1_555
C17A C15A 1_555 1_555
C18A C17A 1_555 1_555
H14A C18A 1_555 1_555
H15A C18A 1_555 1_555
C19A H16A 1_555 1_555
C20A C19A 1_555 1_555
C21A C20A 1_555 1_555
H17A C21A 1_555 1_555
H18A C21A 1_555 1_555
C22A H19A 1_555 1_555
H20A C22A 1_555 1_555
C23A C22A 1_555 1_555
H21A C23A 1_555 1_555
H22A C23A 1_555 1_555
C24A H23A 1_555 1_555
H24A C24A 1_555 1_555
C25A C24A 1_555 1_555
H25A C25A 1_555 1_555
H26A C25A 1_555 1_555
C26A H27A 1_555 1_555
H28A C26A 1_555 1_555
C27A C26A 1_555 1_555
H29A C27A 1_555 1_555
H30A C27A 1_555 1_555
C28A H31A 1_555 1_555
H32A C28A 1_555 1_555
C29A C28A 1_555 1_555
H33A C29A 1_555 1_555
H34A C29A 1_555 1_555
C30A H35A 1_555 1_555
H36A C30A 1_555 1_555
C31A C30A 1_555 1_555
H37A C31A 1_555 1_555
H38A C31A 1_555 1_555
C32A H39A 1_555 1_555
H40A C32A 1_555 1_555
C33A C32A 1_555 1_555
H41A C33A 1_555 1_555
H42A C33A 1_555 1_555
C34A C35A 1_555 1_555
C35A H43A 1_555 1_555
C36A C36 1_555 1_555
C37A C38 1_555 1_555
H44A C37A 1_555 1_555
C38A C37 1_555 1_555
H45A C38A 1_555 1_555
N1A C1A 1_555 1_555
N2A C11 1_555 1_555
N3A C16A 1_555 1_555
N4A N3A 1_555 1_555
N5A C20A 1_555 1_555
O1A C21A 1_555 1_555
O2A C23A 1_555 1_555
O3A C25A 1_555 1_555
O4A C27A 1_555 1_555
O5A C29A 1_555 1_555
O6A C31A 1_555 1_555
O7A C33A 1_555 1_555
C2 N1 1_555 1_555
C4 C5 1_555 1_555
C10 N2 1_555 1_555
C16 C17 1_555 1_555
C18 N1 1_555 1_555
C19 N3 1_555 1_555
C22 O1 1_555 1_555
C24 O2 1_555 1_555
C26 O3 1_555 1_555
C28 O4 1_555 1_555
C30 O5 1_555 1_555
C32 O6 1_555 1_555
C34 O7 1_555 1_555
N4 N5 1_555 1_555
C2A N1A 1_555 1_555
C4A C5A 1_555 1_555
C9A N2A 1_555 1_555
C10A N2A 1_555 1_555
C16A C17A 1_555 1_555
C18A N1A 1_555 1_555
C19A N3A 1_555 1_555
C22A O1A 1_555 1_555
C24A O2A 1_555 1_555
C26A O3A 1_555 1_555
C28A O4A 1_555 1_555
C30A O5A 1_555 1_555
C32A O6A 1_555 1_555
C34A C36A 1_555 1_555
C34A O7A 1_555 1_555
C35A C38A 1_555 1_555
C36A C37A 1_555 1_555
N4A N5A 1_555 1_555

#END
