
#######################################################################
#
#                 Cambridge Crystallographic Data Centre
#                                CCDC 
#
#######################################################################
#
# If this CIF has been generated from an entry in the Cambridge 
# Structural Database, then it will include bibliographic, chemical, 
# crystal, experimental, refinement or atomic coordinate data resulting 
# from the CCDC's data processing and validation procedures.
#
#######################################################################

data_WAXZON
_chemical_name_common            
(2-(t-butyl)penta-1,4-diene-1,1-diyl)bis((4-chlorophenyl)sulfane)
_chemical_formula_moiety         'C21 H22 Cl2 S2'
_chemical_name_systematic        
1,1'-[(2-t-butylpenta-1,4-diene-1,1-diyl)disulfanediyl]bis(4-chlorobenzene)
_symmetry_cell_setting           monoclinic
_symmetry_space_group_name_H-M   'P 21/c'
_symmetry_Int_Tables_number      14
_space_group_name_Hall           '-P 2ybc'
loop_
_symmetry_equiv_pos_site_id
_symmetry_equiv_pos_as_xyz
1 x,y,z
2 -x,1/2+y,1/2-z
3 -x,-y,-z
4 x,1/2-y,1/2+z
_cell_length_a                   6.3457(2)
_cell_length_b                   22.0777(6)
_cell_length_c                   14.2069(4)
_cell_angle_alpha                90
_cell_angle_beta                 95.9762(16)
_cell_angle_gamma                90
_cell_volume                     1979.55
_exptl_crystal_colour            colorless
_exptl_crystal_description       rod
_cell_formula_units_Z            4
loop_
_atom_site_label
_atom_site_type_symbol
_atom_site_fract_x
_atom_site_fract_y
_atom_site_fract_z
S1 S 0.70767(10) 0.65692(3) 0.78863(4)
S2 S 0.52666(11) 0.63411(3) 0.58564(4)
Cl1 Cl 0.06833(11) 0.87278(3) 0.81163(5)
Cl2 Cl 1.13895(12) 0.84823(3) 0.51055(5)
C1 C 0.7094(4) 0.69430(12) 0.57330(18)
C2 C 0.9086(4) 0.68234(13) 0.54514(18)
H1 H 0.9538 0.6416 0.5391
C3 C 0.5174(4) 0.71530(12) 0.79292(18)
C4 C 1.0417(4) 0.72957(13) 0.52584(19)
H2 H 1.1785 0.7216 0.5072
C5 C 0.3026(4) 0.70859(12) 0.76238(19)
H3 H 0.2504 0.6707 0.7383
C6 C 0.5914(4) 0.77031(12) 0.83190(18)
H4 H 0.7371 0.7748 0.8540
C7 C 0.5889(4) 0.60561(12) 0.70377(18)
C8 C 0.6418(4) 0.75409(12) 0.58117(19)
H5 H 0.5053 0.7622 0.6000
C9 C 0.5495(4) 0.54657(12) 0.72115(19)
C10 C 0.2410(4) 0.81158(12) 0.80489(18)
C11 C 0.4532(5) 0.81857(12) 0.83849(19)
H6 H 0.5032 0.8559 0.8656
C12 C 0.1650(4) 0.75703(12) 0.76700(19)
H7 H 0.0195 0.7528 0.7443
C13 C 0.9715(5) 0.78898(12) 0.53420(19)
C14 C 0.5611(4) 0.51874(12) 0.82190(19)
C15 C 0.7737(4) 0.80180(12) 0.56154(19)
H8 H 0.7284 0.8426 0.5669
C16 C 0.4913(4) 0.50401(13) 0.63788(19)
H9 H 0.5586 0.5192 0.5827
H10 H 0.5526 0.4637 0.6542
C17 C 0.4222(5) 0.55534(13) 0.88452(19)
H11 H 0.4754 0.5970 0.8911
H12 H 0.4275 0.5365 0.9472
H13 H 0.2755 0.5558 0.8551
C18 C 0.2584(5) 0.49645(14) 0.6090(2)
H14 H 0.2185 0.4650 0.5650
C19 C 0.4775(5) 0.45317(13) 0.8203(2)
H15 H 0.3345 0.4519 0.7868
H16 H 0.4733 0.4388 0.8853
H17 H 0.5716 0.4271 0.7877
C20 C 0.7933(5) 0.51635(13) 0.8665(2)
H18 H 0.8794 0.4946 0.8241
H19 H 0.8004 0.4953 0.9275
H20 H 0.8477 0.5577 0.8763
C21 C 0.1030(5) 0.52899(15) 0.6385(2)
H21 H 0.1343 0.5610 0.6825
H22 H -0.0399 0.5204 0.6157
loop_
_geom_bond_atom_site_label_1
_geom_bond_atom_site_label_2
_geom_bond_site_symmetry_1
_geom_bond_site_symmetry_2
S1 C3 1_555 1_555
S2 C1 1_555 1_555
Cl1 C10 1_555 1_555
Cl2 C13 1_555 1_555
C1 C2 1_555 1_555
C2 H1 1_555 1_555
C3 C5 1_555 1_555
C4 C2 1_555 1_555
H2 C4 1_555 1_555
C5 H3 1_555 1_555
C6 C3 1_555 1_555
H4 C6 1_555 1_555
C7 S1 1_555 1_555
C8 C1 1_555 1_555
H5 C8 1_555 1_555
C9 C7 1_555 1_555
C10 C11 1_555 1_555
C11 C6 1_555 1_555
H6 C11 1_555 1_555
C12 C5 1_555 1_555
H7 C12 1_555 1_555
C13 C4 1_555 1_555
C14 C9 1_555 1_555
C15 C8 1_555 1_555
H8 C15 1_555 1_555
C16 C9 1_555 1_555
H9 C16 1_555 1_555
H10 C16 1_555 1_555
C17 C14 1_555 1_555
H11 C17 1_555 1_555
H12 C17 1_555 1_555
H13 C17 1_555 1_555
C18 C16 1_555 1_555
H14 C18 1_555 1_555
C19 C14 1_555 1_555
H15 C19 1_555 1_555
H16 C19 1_555 1_555
H17 C19 1_555 1_555
C20 C14 1_555 1_555
H18 C20 1_555 1_555
H19 C20 1_555 1_555
H20 C20 1_555 1_555
C21 C18 1_555 1_555
H21 C21 1_555 1_555
H22 C21 1_555 1_555
S2 C7 1_555 1_555
C10 C12 1_555 1_555
C13 C15 1_555 1_555

#END
