
#######################################################################
#
#                 Cambridge Crystallographic Data Centre
#                                CCDC 
#
#######################################################################
#
# If this CIF has been generated from an entry in the Cambridge 
# Structural Database, then it will include bibliographic, chemical, 
# crystal, experimental, refinement or atomic coordinate data resulting 
# from the CCDC's data processing and validation procedures.
#
#######################################################################

data_WAYGEK
_chemical_formula_moiety         'C26 H30 O7'
_chemical_name_systematic        
'(5-Butyl-4-oxo-1,4-dihydro-2H-3-benzoxocin-1-yl)methyl 3,4,5-trimethoxybenzoate'
_symmetry_cell_setting           triclinic
_symmetry_space_group_name_H-M   'P -1'
_symmetry_Int_Tables_number      2
_space_group_name_Hall           '-P 1'
loop_
_symmetry_equiv_pos_site_id
_symmetry_equiv_pos_as_xyz
1 x,y,z
2 -x,-y,-z
_cell_length_a                   9.7670(19)
_cell_length_b                   10.192(2)
_cell_length_c                   14.337(3)
_cell_angle_alpha                70.491(2)
_cell_angle_beta                 84.857(2)
_cell_angle_gamma                63.164(2)
_cell_volume                     1197.19
_exptl_crystal_colour            colorless
_exptl_crystal_description       needle
_cell_formula_units_Z            2
loop_
_atom_site_label
_atom_site_type_symbol
_atom_site_fract_x
_atom_site_fract_y
_atom_site_fract_z
O1 O 0.3773(4) 0.5367(4) 0.0768(2)
O3 O 0.1705(5) 0.6717(5) -0.0273(3)
O5 O 0.70004(16) 0.1866(2) 0.31535(13)
O6 O 0.7352(2) 0.3043(3) 0.41153(17)
O7 O 1.32621(16) 0.04812(19) 0.45407(13)
O8 O 1.41962(17) -0.0827(2) 0.31566(15)
O9 O 1.2201(2) -0.0845(2) 0.19767(14)
C1 C 0.2455(5) 0.5531(6) 0.0396(3)
C3 C 0.1993(5) 0.4298(5) 0.0803(3)
C5 C 0.1599(5) 0.3933(5) 0.1756(3)
H1 H 0.1284 0.3150 0.1958
C7 C 0.1610(4) 0.4638(4) 0.2522(3)
C9 C 0.0166(4) 0.5162(5) 0.2929(3)
H3 H -0.0628 0.5032 0.2724
C11 C -0.0046(6) 0.5862(5) 0.3628(3)
H5 H -0.0999 0.6225 0.3891
C13 C 0.1142(6) 0.6042(6) 0.3957(4)
H7 H 0.0987 0.6536 0.4425
C15 C 0.2510(6) 0.5484(6) 0.3579(4)
H9 H 0.3305 0.5573 0.3821
C17 C 0.2829(5) 0.4787(5) 0.2858(3)
C19 C 0.4478(6) 0.3985(7) 0.2541(4)
H11 H 0.4948 0.4638 0.2579
C21 C 0.4742(5) 0.3900(6) 0.1522(3)
H13 H 0.5813 0.3629 0.1401
H14 H 0.4531 0.3082 0.1471
C23 C 0.5373(2) 0.2490(3) 0.3309(2)
H17 H 0.5218 0.2628 0.3954
H18 H 0.5006 0.1751 0.3306
C24 C 0.1906(6) 0.3636(6) 0.0049(4)
H21 H 0.1380 0.4476 -0.0558
H22 H 0.1312 0.3056 0.0284
C26 C 0.3527(6) 0.2545(7) -0.0170(4)
H25 H 0.4181 0.3060 -0.0265
H26 H 0.3965 0.1608 0.0403
C28 C 0.3538(8) 0.2082(8) -0.1084(5)
H29 H 0.3156 0.3012 -0.1666
H30 H 0.4589 0.1414 -0.1178
C30 C 0.2571(10) 0.1246(11) -0.0994(7)
H33 H 0.2508 0.1097 -0.1612
H34 H 0.1557 0.1856 -0.0832
H35 H 0.3032 0.0252 -0.0480
C32 C 0.7868(3) 0.2193(3) 0.36265(19)
C33 C 0.9527(2) 0.1372(3) 0.34787(17)
C34 C 1.0570(2) 0.1361(3) 0.40802(17)
H39 H 1.0223 0.1869 0.4548
C35 C 1.2131(2) 0.0589(2) 0.39805(17)
C36 C 1.2645(2) -0.0151(3) 0.32687(18)
C37 C 1.1587(3) -0.0122(3) 0.26610(18)
C38 C 1.0022(2) 0.0636(3) 0.27725(18)
H40 H 0.9311 0.0648 0.2375
C39 C 1.2796(3) 0.1381(3) 0.5184(2)
H41 H 1.2247 0.2465 0.4801
H42 H 1.3686 0.1211 0.5533
H43 H 1.2138 0.1077 0.5651
C40 C 1.4918(3) -0.2471(4) 0.3508(3)
H44 H 1.4614 -0.2846 0.3072
H45 H 1.4617 -0.2836 0.4163
H46 H 1.6014 -0.2849 0.3529
C41 C 1.1177(3) -0.0916(4) 0.1372(2)
H47 H 1.1751 -0.1468 0.0931
H48 H 1.0457 0.0122 0.0992
H49 H 1.0629 -0.1448 0.1785
O2? O 0.3838(5) 0.5790(6) 0.0880(3)
O4? O 0.1928(6) 0.6985(6) -0.0186(4)
C2? C 0.2723(8) 0.5802(7) 0.0434(4)
C4? C 0.2562(10) 0.4369(9) 0.0638(6)
C6? C 0.2146(10) 0.3718(10) 0.1529(7)
H2? H 0.2134 0.2772 0.1633
C8? C 0.1727(7) 0.4327(8) 0.2319(6)
C10? C 0.0304(9) 0.4736(10) 0.2691(6)
H4? H -0.0386 0.4506 0.2452
C12? C -0.0172(10) 0.5469(10) 0.3400(7)
H6? H -0.1164 0.5720 0.3602
C14? C 0.0768(10) 0.5847(9) 0.3823(6)
H8? H 0.0442 0.6384 0.4276
C16? C 0.2296(11) 0.5319(12) 0.3487(8)
H10? H 0.3023 0.5465 0.3762
C18? C 0.2734(10) 0.4584(10) 0.2752(6)
C20? C 0.4468(8) 0.4266(9) 0.2617(5)
H12? H 0.4701 0.4954 0.2844
C22? C 0.4922(7) 0.4353(8) 0.1561(4)
H15? H 0.5945 0.4290 0.1493
H16? H 0.4937 0.3484 0.1414
H19? H 0.5231 0.2421 0.3999
H20? H 0.4954 0.1873 0.3163
C25? C 0.2879(12) 0.3718(11) -0.0218(7)
H23? H 0.2219 0.4544 -0.0790
H24? H 0.3932 0.3489 -0.0379
C27? C 0.2677(10) 0.2291(8) -0.0098(5)
H27? H 0.1606 0.2526 -0.0001
H28? H 0.3286 0.1463 0.0491
C29? C 0.3162(16) 0.1710(14) -0.1007(9)
H31? H 0.2561 0.2567 -0.1588
H32? H 0.4229 0.1499 -0.1095
C31? C 0.3026(17) 0.0366(16) -0.1008(11)
H36? H 0.3443 0.0111 -0.1591
H37? H 0.1961 0.0586 -0.1005
H38? H 0.3582 -0.0497 -0.0428
loop_
_geom_bond_atom_site_label_1
_geom_bond_atom_site_label_2
_geom_bond_site_symmetry_1
_geom_bond_site_symmetry_2
O1 C1 1_555 1_555
O3 C1 1_555 1_555
O5 C23 1_555 1_555
O6 C32 1_555 1_555
O7 C35 1_555 1_555
O8 C36 1_555 1_555
O9 C37 1_555 1_555
C1 C3 1_555 1_555
C3 C5 1_555 1_555
C5 H1 1_555 1_555
C7 C5 1_555 1_555
C9 C7 1_555 1_555
H3 C9 1_555 1_555
C11 C9 1_555 1_555
H5 C11 1_555 1_555
C13 C11 1_555 1_555
H7 C13 1_555 1_555
C15 C13 1_555 1_555
H9 C15 1_555 1_555
C17 C7 1_555 1_555
C19 C17 1_555 1_555
H11 C19 1_555 1_555
C21 O1 1_555 1_555
H13 C21 1_555 1_555
H14 C21 1_555 1_555
C23 C19 1_555 1_555
H17 C23 1_555 1_555
H18 C23 1_555 1_555
C24 C3 1_555 1_555
H21 C24 1_555 1_555
H22 C24 1_555 1_555
C26 C24 1_555 1_555
H25 C26 1_555 1_555
H26 C26 1_555 1_555
C28 C26 1_555 1_555
H29 C28 1_555 1_555
H30 C28 1_555 1_555
C30 C28 1_555 1_555
H33 C30 1_555 1_555
H34 C30 1_555 1_555
H35 C30 1_555 1_555
C32 O5 1_555 1_555
C33 C32 1_555 1_555
C34 C33 1_555 1_555
H39 C34 1_555 1_555
C35 C34 1_555 1_555
C36 C35 1_555 1_555
C37 C36 1_555 1_555
C38 C33 1_555 1_555
H40 C38 1_555 1_555
C39 O7 1_555 1_555
H41 C39 1_555 1_555
H42 C39 1_555 1_555
H43 C39 1_555 1_555
C40 O8 1_555 1_555
H44 C40 1_555 1_555
H45 C40 1_555 1_555
H46 C40 1_555 1_555
C41 O9 1_555 1_555
H47 C41 1_555 1_555
H48 C41 1_555 1_555
H49 C41 1_555 1_555
C15 C17 1_555 1_555
C19 C21 1_555 1_555
C37 C38 1_555 1_555

#END
