
#######################################################################
#
#                 Cambridge Crystallographic Data Centre
#                                CCDC 
#
#######################################################################
#
# If this CIF has been generated from an entry in the Cambridge 
# Structural Database, then it will include bibliographic, chemical, 
# crystal, experimental, refinement or atomic coordinate data resulting 
# from the CCDC's data processing and validation procedures.
#
#######################################################################

data_WAYKIS
_chemical_formula_moiety         'C21 H26 N2'
_chemical_name_systematic        
(1-Benzyl-8a-ethynyl-7-methyldecahydroquinolin-5-yl)acetonitrile
_symmetry_cell_setting           orthorhombic
_symmetry_space_group_name_H-M   'P 21 21 21'
_symmetry_Int_Tables_number      19
_space_group_name_Hall           'P 2ac 2ab'
loop_
_symmetry_equiv_pos_site_id
_symmetry_equiv_pos_as_xyz
1 x,y,z
2 1/2-x,-y,1/2+z
3 -x,1/2+y,1/2-z
4 1/2+x,1/2-y,-z
_cell_length_a                   10.7126(11)
_cell_length_b                   12.2124(12)
_cell_length_c                   13.2930(13)
_cell_angle_alpha                90
_cell_angle_beta                 90
_cell_angle_gamma                90
_cell_volume                     1739.08
_cell_formula_units_Z            4
loop_
_atom_site_label
_atom_site_type_symbol
_atom_site_fract_x
_atom_site_fract_y
_atom_site_fract_z
N1 N 0.32973(15) 0.53690(12) 0.50153(10)
N2 N 0.21660(18) 1.05630(13) 0.73277(13)
C1 C 0.25652(19) 0.55356(15) 0.40859(13)
H1 H 0.1664 0.5519 0.4251
H2 H 0.2739 0.4929 0.3612
C2 C 0.28744(19) 0.66113(15) 0.35861(13)
H3 H 0.2352 0.6706 0.2978
H4 H 0.3761 0.6614 0.3377
C3 C 0.26358(18) 0.75471(15) 0.43143(13)
H5 H 0.1736 0.7581 0.4482
H6 H 0.2877 0.8250 0.3999
C4 C 0.33938(18) 0.73671(14) 0.52662(13)
H7 H 0.4277 0.7287 0.5035
C5 C 0.33977(18) 0.83586(15) 0.59807(13)
H8 H 0.3806 0.8973 0.5607
C6 C 0.42149(19) 0.81277(15) 0.69033(14)
H9 H 0.5100 0.8102 0.6691
H10 H 0.4123 0.8738 0.7388
C7 C 0.38845(19) 0.70529(15) 0.74303(13)
H11 H 0.3015 0.7109 0.7698
C8 C 0.39408(19) 0.60992(15) 0.66860(13)
H12 H 0.3711 0.5415 0.7040
H13 H 0.4809 0.6018 0.6441
C9 C 0.30620(18) 0.62549(14) 0.57721(13)
C10 C 0.3024(2) 0.42654(14) 0.54058(14)
H14 H 0.2109 0.4175 0.5459
H15 H 0.3379 0.4198 0.6091
C11 C 0.35444(18) 0.33582(15) 0.47538(13)
C12 C 0.46267(19) 0.34978(15) 0.41892(13)
H16 H 0.5030 0.4190 0.4178
C13 C 0.5121(2) 0.26331(15) 0.36421(14)
H17 H 0.5850 0.2740 0.3248
C14 C 0.4555(2) 0.16148(16) 0.36680(14)
H18 H 0.4905 0.1019 0.3306
C15 C 0.3478(2) 0.14714(16) 0.42249(14)
H19 H 0.3080 0.0777 0.4238
C16 C 0.2976(2) 0.23375(15) 0.47659(14)
H20 H 0.2237 0.2231 0.5148
C17 C 0.1745(2) 0.62215(14) 0.61181(13)
C18 C 0.0692(2) 0.61412(14) 0.63885(14)
H21 H -0.0162 0.6105 0.6623
C19 C 0.2085(2) 0.87625(15) 0.62751(15)
H22 H 0.1589 0.8887 0.5657
H23 H 0.1661 0.8189 0.6675
C20 C 0.21309(19) 0.97761(16) 0.68596(14)
C21 C 0.4772(2) 0.68515(17) 0.83081(15)
H24 H 0.4722 0.7465 0.8781
H25 H 0.5628 0.6787 0.8055
H26 H 0.4537 0.6173 0.8653
loop_
_geom_bond_atom_site_label_1
_geom_bond_atom_site_label_2
_geom_bond_site_symmetry_1
_geom_bond_site_symmetry_2
N1 C1 1_555 1_555
N2 C20 1_555 1_555
C1 H1 1_555 1_555
H2 C1 1_555 1_555
C2 C1 1_555 1_555
H3 C2 1_555 1_555
H4 C2 1_555 1_555
C3 C2 1_555 1_555
H5 C3 1_555 1_555
H6 C3 1_555 1_555
C4 C3 1_555 1_555
H7 C4 1_555 1_555
C5 C4 1_555 1_555
H8 C5 1_555 1_555
C6 C5 1_555 1_555
H9 C6 1_555 1_555
H10 C6 1_555 1_555
C7 C6 1_555 1_555
H11 C7 1_555 1_555
C8 C7 1_555 1_555
H12 C8 1_555 1_555
H13 C8 1_555 1_555
C9 N1 1_555 1_555
C10 N1 1_555 1_555
H14 C10 1_555 1_555
H15 C10 1_555 1_555
C11 C10 1_555 1_555
C12 C11 1_555 1_555
H16 C12 1_555 1_555
C13 C12 1_555 1_555
H17 C13 1_555 1_555
C14 C13 1_555 1_555
H18 C14 1_555 1_555
C15 C14 1_555 1_555
H19 C15 1_555 1_555
C16 C11 1_555 1_555
H20 C16 1_555 1_555
C17 C9 1_555 1_555
C18 C17 1_555 1_555
H21 C18 1_555 1_555
C19 C5 1_555 1_555
H22 C19 1_555 1_555
H23 C19 1_555 1_555
C20 C19 1_555 1_555
C21 C7 1_555 1_555
H24 C21 1_555 1_555
H25 C21 1_555 1_555
H26 C21 1_555 1_555
C4 C9 1_555 1_555
C8 C9 1_555 1_555
C15 C16 1_555 1_555

#END
