
#######################################################################
#
#                 Cambridge Crystallographic Data Centre
#                                CCDC 
#
#######################################################################
#
# If this CIF has been generated from an entry in the Cambridge 
# Structural Database, then it will include bibliographic, chemical, 
# crystal, experimental, refinement or atomic coordinate data resulting 
# from the CCDC's data processing and validation procedures.
#
#######################################################################

data_WAYWEA
_chemical_formula_moiety         'C26 H36 N4 O2,H2 O1'
_chemical_name_systematic        
"3,3'-Piperazine-1,4-diylbis(N-(4-methoxybenzylidene)propan-1-amine) monohydrate"
_symmetry_cell_setting           monoclinic
_symmetry_space_group_name_H-M   'C 2/c'
_symmetry_Int_Tables_number      15
_space_group_name_Hall           '-C 2yn'
loop_
_symmetry_equiv_pos_site_id
_symmetry_equiv_pos_as_xyz
1 x,y,z
2 -x,y,1/2-z
3 1/2+x,1/2+y,z
4 1/2-x,1/2+y,1/2-z
5 -x,-y,-z
6 x,-y,1/2+z
7 1/2-x,1/2-y,-z
8 1/2+x,1/2-y,1/2+z
_cell_length_a                   24.071(5)
_cell_length_b                   9.4035(19)
_cell_length_c                   11.263(2)
_cell_angle_alpha                90
_cell_angle_beta                 96.787(2)
_cell_angle_gamma                90
_cell_volume                     2531.53
_exptl_crystal_colour            colorless
_exptl_crystal_description       block
_cell_formula_units_Z            4
loop_
_atom_site_label
_atom_site_type_symbol
_atom_site_fract_x
_atom_site_fract_y
_atom_site_fract_z
H1 H 0.3434(13) 0.763(4) 0.637(3)
H2 H 0.2811(13) 0.835(3) 0.469(3)
H3 H 0.1335(13) 1.029(3) 0.009(3)
H4 H 0.1395(13) 0.924(4) 0.211(3)
H5 H 0.1164(13) 1.179(4) 0.076(3)
H6 H 0.3394(15) 1.240(4) 0.530(3)
H7 H 0.4029(14) 1.160(4) 0.696(3)
H8 H 0.2247(18) 1.035(5) 0.148(4)
H9 H 0.1225(13) 1.072(3) 0.269(3)
H10 H 0.2741(15) 1.194(4) 0.356(3)
H11 H 0.413(2) 1.061(5) 0.884(4)
H12 H 0.4669(17) 1.043(4) 0.824(4)
H13 H 0.4556(17) 0.926(5) 0.925(4)
H14 H 0.2028(15) 1.182(5) 0.213(3)
H15 H 0.0544(13) 0.856(3) 0.000(3)
H16 H 0.0327(13) 1.228(4) -0.034(3)
H17 H 0.0410(15) 1.082(4) -0.118(4)
H18 H 0.0524(14) 0.854(4) 0.131(3)
N1 N 0.23367(11) 1.0118(3) 0.3207(3)
N2 N 0.05074(9) 1.0525(2) 0.06709(19)
O1 O 0.41002(11) 0.8945(2) 0.7778(2)
C1 C 0.34216(14) 0.8555(3) 0.6158(3)
C2 C 0.30749(12) 0.9008(3) 0.5179(3)
C3 C 0.30551(11) 1.0441(3) 0.4845(3)
C4 C 0.34026(13) 1.1375(3) 0.5522(3)
C5 C 0.37619(14) 1.0934(3) 0.6505(3)
C6 C 0.37674(12) 0.9510(3) 0.6825(3)
C7 C 0.44040(19) 0.9893(5) 0.8595(4)
C8 C 0.26836(12) 1.0924(4) 0.3800(3)
C9 C 0.20147(13) 1.0719(5) 0.2141(3)
C10 C 0.14095(12) 1.0249(4) 0.2019(3)
C11 C 0.11136(11) 1.0761(4) 0.0822(3)
C12 C 0.03692(12) 0.9005(3) 0.0617(3)
C13 C 0.02594(12) 1.1202(3) -0.0435(3)
H1D H -0.3434(13) 1.237(4) -0.637(3)
H2D H -0.2811(13) 1.165(3) -0.469(3)
H3D H -0.1335(13) 0.971(3) -0.009(3)
H4D H -0.1395(13) 1.076(4) -0.211(3)
H5D H -0.1164(13) 0.821(4) -0.076(3)
H6D H -0.3394(15) 0.760(4) -0.530(3)
H7D H -0.4029(14) 0.840(4) -0.696(3)
H8D H -0.2247(18) 0.965(5) -0.148(4)
H9D H -0.1225(13) 0.928(3) -0.269(3)
H10D H -0.2741(15) 0.806(4) -0.356(3)
H11D H -0.413(2) 0.939(5) -0.884(4)
H12D H -0.4669(17) 0.957(4) -0.824(4)
H13D H -0.4556(17) 1.074(5) -0.925(4)
H14D H -0.2028(15) 0.818(5) -0.213(3)
H15D H -0.0544(13) 1.144(3) 0.000(3)
H16D H -0.0327(13) 0.772(4) 0.034(3)
H17D H -0.0410(15) 0.918(4) 0.118(4)
H18D H -0.0524(14) 1.146(4) -0.131(3)
N1D N -0.23367(11) 0.9882(3) -0.3207(3)
N2D N -0.05074(9) 0.9475(2) -0.06709(19)
O1D O -0.41002(11) 1.1055(2) -0.7778(2)
C1D C -0.34216(14) 1.1445(3) -0.6158(3)
C2D C -0.30749(12) 1.0992(3) -0.5179(3)
C3D C -0.30551(11) 0.9559(3) -0.4845(3)
C4D C -0.34026(13) 0.8625(3) -0.5522(3)
C5D C -0.37619(14) 0.9066(3) -0.6505(3)
C6D C -0.37674(12) 1.0490(3) -0.6825(3)
C7D C -0.44040(19) 1.0107(5) -0.8595(4)
C8D C -0.26836(12) 0.9076(4) -0.3800(3)
C9D C -0.20147(13) 0.9281(5) -0.2141(3)
C10D C -0.14095(12) 0.9751(4) -0.2019(3)
C11D C -0.11136(11) 0.9239(4) -0.0822(3)
C12D C -0.03692(12) 1.0995(3) -0.0617(3)
C13D C -0.02594(12) 0.8798(3) 0.0435(3)
H19 H 0.013(2) 1.154(5) 0.203(4)
O2 O 0.0000 1.2099(4) 0.2500
H19A H -0.013(2) 1.154(5) 0.297(4)
loop_
_geom_bond_atom_site_label_1
_geom_bond_atom_site_label_2
_geom_bond_site_symmetry_1
_geom_bond_site_symmetry_2
H1 C1 1_555 1_555
H2 C2 1_555 1_555
H3 C11 1_555 1_555
H4 C10 1_555 1_555
H5 C11 1_555 1_555
H6 C4 1_555 1_555
H7 C5 1_555 1_555
H8 C9 1_555 1_555
H9 C10 1_555 1_555
H10 C8 1_555 1_555
H11 C7 1_555 1_555
H12 C7 1_555 1_555
H13 C7 1_555 1_555
H14 C9 1_555 1_555
H15 C12 1_555 1_555
H16 C13 1_555 1_555
H17 C13 1_555 1_555
H18 C12 1_555 1_555
H19 O2 1_555 1_555
N1 C8 1_555 1_555
N2 C11 1_555 1_555
O1 C6 1_555 1_555
C1 C2 1_555 1_555
C2 C3 1_555 1_555
C3 C4 1_555 1_555
C4 C5 1_555 1_555
C5 C6 1_555 1_555
C6 C1 1_555 1_555
C7 O1 1_555 1_555
C8 C3 1_555 1_555
C9 N1 1_555 1_555
C10 C9 1_555 1_555
C11 C10 1_555 1_555
C12 N2 1_555 1_555
C13 N2 1_555 1_555
O2 H19A 1_555 1_555
H1D C1D 1_555 1_555
H2D C2D 1_555 1_555
H3D C11D 1_555 1_555
H4D C10D 1_555 1_555
H5D C11D 1_555 1_555
H6D C4D 1_555 1_555
H7D C5D 1_555 1_555
H8D C9D 1_555 1_555
H9D C10D 1_555 1_555
H10D C8D 1_555 1_555
H11D C7D 1_555 1_555
H12D C7D 1_555 1_555
H13D C7D 1_555 1_555
H14D C9D 1_555 1_555
H15D C12D 1_555 1_555
H16D C13D 1_555 1_555
H17D C13D 1_555 1_555
H18D C12D 1_555 1_555
N1D C8D 1_555 1_555
N2D C11D 1_555 1_555
O1D C6D 1_555 1_555
C1D C2D 1_555 1_555
C2D C3D 1_555 1_555
C3D C4D 1_555 1_555
C4D C5D 1_555 1_555
C5D C6D 1_555 1_555
C6D C1D 1_555 1_555
C7D O1D 1_555 1_555
C8D C3D 1_555 1_555
C9D N1D 1_555 1_555
C10D C9D 1_555 1_555
C11D C10D 1_555 1_555
C12D C13 1_555 1_555
C13D C12 1_555 1_555
N2D C12D 1_555 1_555
N2D C13D 1_555 1_555

#END
