
#######################################################################
#
#                 Cambridge Crystallographic Data Centre
#                                CCDC 
#
#######################################################################
#
# If this CIF has been generated from an entry in the Cambridge 
# Structural Database, then it will include bibliographic, chemical, 
# crystal, experimental, refinement or atomic coordinate data resulting 
# from the CCDC's data processing and validation procedures.
#
#######################################################################

data_WAYXAX
_chemical_formula_moiety         'C24 H22 O3'
_chemical_name_systematic        
(5-t-Butyl-2-hydroxy-1,3-phenylene)bis(phenylmethanone)
_symmetry_cell_setting           orthorhombic
_symmetry_space_group_name_H-M   'P 21 21 21'
_symmetry_Int_Tables_number      19
_space_group_name_Hall           'P 2ac 2ab'
loop_
_symmetry_equiv_pos_site_id
_symmetry_equiv_pos_as_xyz
1 x,y,z
2 1/2-x,-y,1/2+z
3 -x,1/2+y,1/2-z
4 1/2+x,1/2-y,-z
_cell_length_a                   7.7633(3)
_cell_length_b                   11.4457(6)
_cell_length_c                   21.5319(8)
_cell_angle_alpha                90
_cell_angle_beta                 90
_cell_angle_gamma                90
_cell_volume                     1913.25
_exptl_crystal_colour            yellow
_exptl_crystal_description       block
_cell_formula_units_Z            4
loop_
_atom_site_label
_atom_site_type_symbol
_atom_site_fract_x
_atom_site_fract_y
_atom_site_fract_z
O1 O 0.3811(2) 0.39307(13) 0.61502(7)
H1 H 0.356(4) 0.357(2) 0.6475(9)
O2 O 0.4019(2) 0.32111(13) 0.72718(7)
O3 O 0.4668(3) 0.62653(13) 0.49707(7)
C1 C 0.5213(2) 0.45725(15) 0.62804(8)
C2 C 0.5926(2) 0.52536(15) 0.58065(8)
C3 C 0.7392(2) 0.59114(16) 0.59233(8)
H2 H 0.7825 0.6403 0.5604
C4 C 0.8260(2) 0.58790(16) 0.64953(8)
C5 C 0.7491(2) 0.52382(15) 0.69663(8)
H3 H 0.8028 0.5217 0.7363
C6 C 0.5947(2) 0.46194(15) 0.68797(8)
C7 C 0.5068(3) 0.39965(15) 0.73894(8)
C8 C 0.5372(2) 0.43123(15) 0.80532(8)
C9 C 0.5720(3) 0.54534(16) 0.82403(9)
H4 H 0.5835 0.6055 0.7939
C10 C 0.5900(3) 0.57112(19) 0.88640(9)
H5 H 0.6125 0.6491 0.8991
C11 C 0.5751(3) 0.4835(2) 0.93027(9)
H6 H 0.5904 0.5012 0.9730
C12 C 0.5382(3) 0.37047(19) 0.91227(9)
H7 H 0.5270 0.3107 0.9426
C13 C 0.5175(3) 0.34426(16) 0.84997(9)
H8 H 0.4898 0.2668 0.8377
C14 C 0.5086(3) 0.53196(16) 0.51747(8)
C15 C 0.4878(2) 0.42366(16) 0.47983(8)
C16 C 0.3833(3) 0.42737(19) 0.42720(9)
H9 H 0.3222 0.4967 0.4171
C17 C 0.3690(3) 0.3295(2) 0.38976(9)
H10 H 0.2968 0.3314 0.3542
C18 C 0.4597(3) 0.2290(2) 0.40408(10)
H11 H 0.4509 0.1626 0.3778
C19 C 0.5622(3) 0.22447(19) 0.45595(10)
H12 H 0.6238 0.1551 0.4656
C20 C 0.5755(3) 0.32178(17) 0.49431(9)
H13 H 0.6450 0.3184 0.5306
C21 C 0.9957(3) 0.65336(18) 0.65835(9)
C22 C 1.1125(3) 0.6348(2) 0.60167(12)
H14 H 1.1265 0.5509 0.5941
H15 H 1.2253 0.6701 0.6095
H16 H 1.0600 0.6714 0.5651
C23 C 0.9571(4) 0.7849(2) 0.66369(18)
H17 H 0.8894 0.7995 0.7013
H18 H 0.8917 0.8105 0.6272
H19 H 1.0656 0.8284 0.6659
C24 C 1.0922(4) 0.6119(4) 0.71519(13)
H20 H 1.1079 0.5270 0.7130
H21 H 1.0263 0.6316 0.7526
H22 H 1.2051 0.6501 0.7169
loop_
_geom_bond_atom_site_label_1
_geom_bond_atom_site_label_2
_geom_bond_site_symmetry_1
_geom_bond_site_symmetry_2
O1 H1 1_555 1_555
O2 C7 1_555 1_555
O3 C14 1_555 1_555
C1 O1 1_555 1_555
C2 C1 1_555 1_555
C3 C2 1_555 1_555
H2 C3 1_555 1_555
C4 C3 1_555 1_555
C5 C4 1_555 1_555
H3 C5 1_555 1_555
C6 C1 1_555 1_555
C7 C6 1_555 1_555
C8 C7 1_555 1_555
C9 C8 1_555 1_555
H4 C9 1_555 1_555
C10 C9 1_555 1_555
H5 C10 1_555 1_555
C11 C10 1_555 1_555
H6 C11 1_555 1_555
C12 C11 1_555 1_555
H7 C12 1_555 1_555
C13 C8 1_555 1_555
H8 C13 1_555 1_555
C14 C2 1_555 1_555
C15 C14 1_555 1_555
C16 C15 1_555 1_555
H9 C16 1_555 1_555
C17 C16 1_555 1_555
H10 C17 1_555 1_555
C18 C17 1_555 1_555
H11 C18 1_555 1_555
C19 C18 1_555 1_555
H12 C19 1_555 1_555
C20 C15 1_555 1_555
H13 C20 1_555 1_555
C21 C4 1_555 1_555
C22 C21 1_555 1_555
H14 C22 1_555 1_555
H15 C22 1_555 1_555
H16 C22 1_555 1_555
C23 C21 1_555 1_555
H17 C23 1_555 1_555
H18 C23 1_555 1_555
H19 C23 1_555 1_555
C24 C21 1_555 1_555
H20 C24 1_555 1_555
H21 C24 1_555 1_555
H22 C24 1_555 1_555
C5 C6 1_555 1_555
C12 C13 1_555 1_555
C19 C20 1_555 1_555

#END
