
#######################################################################
#
#                 Cambridge Crystallographic Data Centre
#                                CCDC 
#
#######################################################################
#
# If this CIF has been generated from an entry in the Cambridge 
# Structural Database, then it will include bibliographic, chemical, 
# crystal, experimental, refinement or atomic coordinate data resulting 
# from the CCDC's data processing and validation procedures.
#
#######################################################################

data_WAYYUT
_chemical_formula_moiety         'C6 H2 N3 O8 1-,C5 H9 N2 1+'
_chemical_name_systematic        
'3,5-dimethyl-1H-pyrazol-2-ium 3-hydroxy-2,4,6-trinitrophenolate'
_symmetry_cell_setting           triclinic
_symmetry_space_group_name_H-M   'P -1'
_symmetry_Int_Tables_number      2
_space_group_name_Hall           '-P 1'
loop_
_symmetry_equiv_pos_site_id
_symmetry_equiv_pos_as_xyz
1 x,y,z
2 -x,-y,-z
_cell_length_a                   7.6368(6)
_cell_length_b                   8.5320(7)
_cell_length_c                   12.0147(5)
_cell_angle_alpha                100.141(5)
_cell_angle_beta                 95.207(5)
_cell_angle_gamma                111.496(8)
_cell_volume                     706.634
_exptl_crystal_colour            yellow
_exptl_crystal_description       block
_cell_formula_units_Z            2
loop_
_atom_site_label
_atom_site_type_symbol
_atom_site_fract_x
_atom_site_fract_y
_atom_site_fract_z
O1 O 0.3958(2) 0.12259(19) 0.58472(14)
H1 H 0.3239 0.1559 0.6195
O2 O 0.9140(3) 0.64719(19) 0.71393(14)
C1 C 0.5265(3) 0.2565(2) 0.55561(17)
C2 C 0.8058(3) 0.5498(2) 0.50948(17)
C3 C 0.6802(3) 0.4206(3) 0.42073(16)
H2 H 0.6888 0.4309 0.3454
N1 N 0.9391(2) 0.6993(2) 0.47832(16)
C4 C 0.6565(3) 0.3856(2) 0.64150(16)
C5 C 0.8043(3) 0.5394(2) 0.62787(17)
O3 O 0.2706(2) 0.0333(2) 0.36714(16)
C6 C 0.5419(3) 0.2759(2) 0.44186(16)
N2 N 0.4097(3) 0.1508(2) 0.34624(15)
O4 O 1.0439(3) 0.8235(2) 0.55314(17)
O5 O 0.9447(3) 0.6960(2) 0.37700(16)
N3 N 0.6403(3) 0.3712(2) 0.75955(15)
O6 O 0.4331(3) 0.1622(3) 0.24909(15)
O7 O 0.5536(4) 0.4481(3) 0.80992(18)
O8 O 0.7153(5) 0.2899(4) 0.80201(18)
N4 N 0.0844(3) 0.1256(2) 0.80409(15)
H3 H 0.0249 0.1390 0.7445
N5 N 0.0990(3) -0.0221(2) 0.81628(15)
H4 H 0.0508 -0.1183 0.7658
C7 C 0.1994(3) 0.0032(3) 0.91830(17)
C8 C 0.1760(3) 0.2487(2) 0.89803(17)
C9 C 0.2506(3) 0.1747(3) 0.97280(18)
H5 H 0.3217 0.2294 1.0458
C10 C 0.2388(4) -0.1387(3) 0.9564(3)
H6 H 0.1283 -0.2448 0.9304
H7 H 0.2683 -0.1120 1.0386
H8 H 0.3452 -0.1511 0.9247
C11 C 0.1847(4) 0.4281(3) 0.9096(2)
H9 H 0.1551 0.4471 0.8350
H10 H 0.3108 0.5090 0.9454
H11 H 0.0939 0.4440 0.9559
loop_
_geom_bond_atom_site_label_1
_geom_bond_atom_site_label_2
_geom_bond_site_symmetry_1
_geom_bond_site_symmetry_2
O1 H1 1_555 1_555
O2 C5 1_555 1_555
C1 O1 1_555 1_555
C2 C3 1_555 1_555
C3 H2 1_555 1_555
N1 C2 1_555 1_555
C4 C1 1_555 1_555
C5 C2 1_555 1_555
O3 N2 1_555 1_555
C6 C1 1_555 1_555
N2 C6 1_555 1_555
O4 N1 1_555 1_555
O5 N1 1_555 1_555
N3 C4 1_555 1_555
O6 N2 1_555 1_555
O7 N3 1_555 1_555
O8 N3 1_555 1_555
N4 H3 1_555 1_555
N5 N4 1_555 1_555
H4 N5 1_555 1_555
C7 N5 1_555 1_555
C8 N4 1_555 1_555
C9 C7 1_555 1_555
H5 C9 1_555 1_555
C10 C7 1_555 1_555
H6 C10 1_555 1_555
H7 C10 1_555 1_555
H8 C10 1_555 1_555
C11 C8 1_555 1_555
H9 C11 1_555 1_555
H10 C11 1_555 1_555
H11 C11 1_555 1_555
C3 C6 1_555 1_555
C4 C5 1_555 1_555
C8 C9 1_555 1_555

#END
