
#######################################################################
#
#                 Cambridge Crystallographic Data Centre
#                                CCDC 
#
#######################################################################
#
# If this CIF has been generated from an entry in the Cambridge 
# Structural Database, then it will include bibliographic, chemical, 
# crystal, experimental, refinement or atomic coordinate data resulting 
# from the CCDC's data processing and validation procedures.
#
#######################################################################

data_WAZJEP
_chemical_formula_moiety         'C19 H20 O4'
_chemical_name_systematic        
'2-(2-(4-methoxyphenyl)ethyl)-5-methyl-2,3-dihydro-1-benzofuran-4-carboxylic acid'
_symmetry_cell_setting           triclinic
_symmetry_space_group_name_H-M   'P -1'
_symmetry_Int_Tables_number      2
_space_group_name_Hall           '-P 1'
loop_
_symmetry_equiv_pos_site_id
_symmetry_equiv_pos_as_xyz
1 x,y,z
2 -x,-y,-z
_cell_length_a                   7.2499(17)
_cell_length_b                   14.162(3)
_cell_length_c                   15.540(3)
_cell_angle_alpha                92.521(4)
_cell_angle_beta                 92.121(5)
_cell_angle_gamma                98.975(4)
_cell_volume                     1572.92
_exptl_crystal_colour            colorless
_exptl_crystal_description       block
_cell_formula_units_Z            4
loop_
_atom_site_label
_atom_site_type_symbol
_atom_site_fract_x
_atom_site_fract_y
_atom_site_fract_z
O1 O 0.43017(19) 0.90971(10) 0.57700(10)
H1 H 0.3939 0.9508 0.5480
O2 O 0.69895(19) 0.95815(10) 0.51399(9)
O3 O 0.53552(19) 0.57488(9) 0.62872(10)
O4 O -0.4013(2) 0.13543(11) 0.64207(11)
C1 C 0.6824(3) 0.82711(13) 0.60555(12)
C2 C 0.8644(3) 0.84299(14) 0.64342(12)
C3 C 0.9337(3) 0.76561(14) 0.67728(13)
H2 H 1.0529 0.7758 0.7036
C4 C 0.8319(3) 0.67350(14) 0.67340(13)
H3 H 0.8825 0.6225 0.6951
C5 C 0.6541(3) 0.66072(13) 0.63640(13)
C6 C 0.5756(3) 0.73617(13) 0.60392(12)
C7 C 0.3768(3) 0.69755(14) 0.57454(14)
H4 H 0.3466 0.7193 0.5181
H5 H 0.2891 0.7160 0.6153
C8 C 0.3772(3) 0.58976(15) 0.57154(14)
H6 H 0.4023 0.5693 0.5126
C9 C 0.2030(3) 0.52717(14) 0.59823(14)
H7 H 0.0966 0.5399 0.5635
H8 H 0.1817 0.5431 0.6580
C10 C 0.2178(3) 0.42221(16) 0.58788(19)
H9 H 0.3185 0.4100 0.6266
H10 H 0.2539 0.4094 0.5296
C11 C 0.0456(3) 0.35114(14) 0.60433(14)
C12 C -0.1030(3) 0.37267(15) 0.65032(16)
H11 H -0.1011 0.4350 0.6722
C13 C -0.2568(3) 0.30278(16) 0.66491(14)
H12 H -0.3557 0.3187 0.6960
C14 C -0.2599(3) 0.21001(15) 0.63261(13)
C15 C -0.1118(3) 0.18730(14) 0.58574(13)
H13 H -0.1135 0.1251 0.5636
C16 C 0.0375(3) 0.25728(14) 0.57229(13)
H14 H 0.1358 0.2413 0.5408
C17 C 0.6050(3) 0.90520(13) 0.56172(13)
C18 C 0.9849(3) 0.94039(15) 0.64941(16)
H15 H 1.0280 0.9563 0.5934
H16 H 1.0903 0.9394 0.6884
H17 H 0.9129 0.9874 0.6702
C19 C -0.5570(3) 0.1553(2) 0.68846(17)
H18 H -0.6114 0.2046 0.6613
H19 H -0.5166 0.1763 0.7467
H20 H -0.6482 0.0984 0.6888
O5 O 0.9244(2) 0.90120(12) 0.92027(11)
H21 H 0.8889 0.9443 0.9490
O6 O 1.2002(2) 0.96254(11) 0.98501(10)
O7 O 1.0608(3) 0.57162(11) 0.84796(12)
O8 O 0.0973(3) 0.13657(14) 0.87239(13)
C20 C 1.1846(3) 0.82623(14) 0.88858(12)
C21 C 1.3610(3) 0.84621(15) 0.85284(13)
C22 C 1.4357(3) 0.77049(16) 0.81527(14)
H22 H 1.5514 0.7832 0.7907
C23 C 1.3439(3) 0.67670(16) 0.81311(15)
H23 H 1.3976 0.6268 0.7890
C24 C 1.1721(3) 0.66020(15) 0.84769(14)
C25 C 1.0880(3) 0.73304(15) 0.88406(13)
C26 C 0.8973(3) 0.68917(18) 0.90982(16)
H24 H 0.8004 0.7031 0.8698
H25 H 0.8724 0.7113 0.9676
C27 C 0.9122(4) 0.5832(2) 0.90566(18)
H26 H 0.9536 0.5672 0.9632
C28 C 0.7173(9) 0.5246(4) 0.8855(5)
H27 H 0.6280 0.5456 0.9241
H28 H 0.6761 0.5335 0.8267
C29 C 0.7295(7) 0.4204(3) 0.8970(4)
H29 H 0.7857 0.4151 0.9538
H30 H 0.8141 0.4008 0.8553
C30 C 0.5486(6) 0.3496(3) 0.8878(3)
C31 C 0.5452(9) 0.2658(5) 0.9300(5)
H31 H 0.6507 0.2522 0.9598
C32 C 0.3924(3) 0.20788(19) 0.92654(14)
H32 H 0.3885 0.1544 0.9595
C33 C 0.2305(3) 0.21587(16) 0.87877(13)
C34 C 0.2137(4) 0.30030(17) 0.84196(17)
H33 H 0.1012 0.3149 0.8197
C35 C 0.3908(8) 0.3648(4) 0.8414(4)
H34 H 0.3979 0.4184 0.8084
C36 C 1.1041(3) 0.90357(14) 0.93553(13)
C37 C 1.4674(3) 0.94634(16) 0.85059(16)
H35 H 1.3828 0.9893 0.8352
H36 H 1.5618 0.9476 0.8087
H37 H 1.5253 0.9659 0.9064
C38 C -0.0725(4) 0.1429(3) 0.8262(2)
H38 H -0.0466 0.1592 0.7681
H39 H -0.1323 0.1914 0.8537
H40 H -0.1536 0.0824 0.8256
H41? H 0.9556 0.5681 0.9632
H42? H 0.4189 0.1499 0.9456
H43? H 0.1241 0.2996 0.7974
C39? C 0.6221(7) 0.4821(4) 0.9373(4)
H44? H 0.5525 0.5354 0.9383
H45? H 0.6812 0.4802 0.9941
C40? C 0.4873(7) 0.3889(4) 0.9169(3)
C41? C 0.5180(9) 0.2989(4) 0.9443(5)
H46? H 0.6279 0.2971 0.9765
C42? C 0.3241(9) 0.3877(4) 0.8679(4)
H47? H 0.2877 0.4449 0.8521
C43? C 0.7705(11) 0.4979(5) 0.8717(5)
H48? H 0.7157 0.5108 0.8164
H49? H 0.8302 0.4415 0.8644
loop_
_geom_bond_atom_site_label_1
_geom_bond_atom_site_label_2
_geom_bond_site_symmetry_1
_geom_bond_site_symmetry_2
O1 H1 1_555 1_555
O2 C17 1_555 1_555
O3 C5 1_555 1_555
O4 C14 1_555 1_555
C1 C2 1_555 1_555
C2 C3 1_555 1_555
C3 H2 1_555 1_555
C4 C3 1_555 1_555
H3 C4 1_555 1_555
C5 C4 1_555 1_555
C6 C1 1_555 1_555
C7 C6 1_555 1_555
H4 C7 1_555 1_555
H5 C7 1_555 1_555
C8 O3 1_555 1_555
H6 C8 1_555 1_555
C9 C8 1_555 1_555
H7 C9 1_555 1_555
H8 C9 1_555 1_555
C10 C9 1_555 1_555
H9 C10 1_555 1_555
H10 C10 1_555 1_555
C11 C10 1_555 1_555
C12 C11 1_555 1_555
H11 C12 1_555 1_555
C13 C12 1_555 1_555
H12 C13 1_555 1_555
C14 C13 1_555 1_555
C15 C14 1_555 1_555
H13 C15 1_555 1_555
C16 C11 1_555 1_555
H14 C16 1_555 1_555
C17 O1 1_555 1_555
C18 C2 1_555 1_555
H15 C18 1_555 1_555
H16 C18 1_555 1_555
H17 C18 1_555 1_555
C19 O4 1_555 1_555
H18 C19 1_555 1_555
H19 C19 1_555 1_555
H20 C19 1_555 1_555
O5 H21 1_555 1_555
O6 C36 1_555 1_555
O7 C24 1_555 1_555
O8 C33 1_555 1_555
C20 C21 1_555 1_555
C21 C22 1_555 1_555
C22 H22 1_555 1_555
C23 C22 1_555 1_555
H23 C23 1_555 1_555
C24 C23 1_555 1_555
C25 C20 1_555 1_555
C26 C25 1_555 1_555
H24 C26 1_555 1_555
H25 C26 1_555 1_555
C27 O7 1_555 1_555
H26 C27 1_555 1_555
C28 C27 1_555 1_555
H27 C28 1_555 1_555
H28 C28 1_555 1_555
C29 C28 1_555 1_555
H29 C29 1_555 1_555
H30 C29 1_555 1_555
C30 C29 1_555 1_555
C31 C30 1_555 1_555
H31 C31 1_555 1_555
C32 C31 1_555 1_555
H32 C32 1_555 1_555
C33 C32 1_555 1_555
C34 C33 1_555 1_555
H33 C34 1_555 1_555
C35 C30 1_555 1_555
H34 C35 1_555 1_555
C36 O5 1_555 1_555
C37 C21 1_555 1_555
H35 C37 1_555 1_555
H36 C37 1_555 1_555
H37 C37 1_555 1_555
C38 O8 1_555 1_555
H38 C38 1_555 1_555
H39 C38 1_555 1_555
H40 C38 1_555 1_555
C1 C17 1_555 1_555
C5 C6 1_555 1_555
C7 C8 1_555 1_555
C15 C16 1_555 1_555
C20 C36 1_555 1_555
C24 C25 1_555 1_555
C26 C27 1_555 1_555
C34 C35 1_555 1_555

#END
