
#######################################################################
#
#                 Cambridge Crystallographic Data Centre
#                                CCDC 
#
#######################################################################
#
# If this CIF has been generated from an entry in the Cambridge 
# Structural Database, then it will include bibliographic, chemical, 
# crystal, experimental, refinement or atomic coordinate data resulting 
# from the CCDC's data processing and validation procedures.
#
#######################################################################

data_WAZLEO
_chemical_formula_moiety         'C19 H22 O2'
_chemical_name_systematic        
'2-Hydroxy-hexacyclo(11.2.2.1^2,6^.1^8,11^.0^7,12^.0^13,18^) nonadeca-5,9-dien-15-one'
_symmetry_cell_setting           triclinic
_symmetry_space_group_name_H-M   'P -1'
_symmetry_Int_Tables_number      2
_space_group_name_Hall           '-P 1'
loop_
_symmetry_equiv_pos_site_id
_symmetry_equiv_pos_as_xyz
1 x,y,z
2 -x,-y,-z
_cell_length_a                   11.079(2)
_cell_length_b                   11.750(2)
_cell_length_c                   13.115(2)
_cell_angle_alpha                75.78(1)
_cell_angle_beta                 74.68(1)
_cell_angle_gamma                65.55(1)
_cell_volume                     1480.79
_cell_formula_units_Z            4
loop_
_atom_site_label
_atom_site_type_symbol
_atom_site_fract_x
_atom_site_fract_y
_atom_site_fract_z
O1 O 0.2895(2) 0.5178(2) 0.0513(2)
O2 O 0.5407(3) 0.4554(2) -0.1705(2)
C1 C 0.0173(4) 0.2056(3) -0.0236(3)
C2 C 0.0675(3) 0.3158(3) -0.0441(2)
C3 C 0.1949(3) 0.2778(3) -0.1358(2)
C4 C 0.2005(3) 0.1484(3) -0.1508(3)
C5 C 0.0783(4) 0.1831(4) -0.2006(3)
C6 C -0.0293(4) 0.2166(4) -0.1247(3)
C7 C 0.1511(4) 0.0921(3) -0.0376(3)
C8 C 0.4775(3) 0.3871(3) -0.1243(2)
C9 C 0.4006(3) 0.3500(3) -0.1814(2)
C10 C 0.3116(3) 0.2882(3) -0.0979(2)
C11 C 0.4064(3) 0.1635(3) -0.0431(3)
C12 C 0.5165(3) 0.1873(3) -0.0090(3)
C13 C 0.4717(3) 0.3293(3) -0.0077(2)
C14 C 0.3235(3) 0.3860(3) 0.0516(2)
C15 C 0.2347(3) 0.3786(3) -0.0151(2)
C16 C 0.1173(3) 0.3396(3) 0.0415(2)
C17 C 0.0773(3) 0.3299(3) 0.1465(2)
C18 C 0.1484(3) 0.3581(3) 0.2142(2)
C19 C 0.2994(3) 0.3213(3) 0.1670(2)
H1 H 0.3387 0.5248 0.0953
H3 H -0.0395 0.1938 0.0455
H4 H -0.0072 0.3966 -0.0652
H5 H 0.1795 0.3406 -0.2029
H6 H 0.2802 0.1067 -0.1904
H7 H 0.0852 0.1899 -0.2733
H8 H -0.1201 0.2492 -0.1338
H9 H 0.1965 0.0818 0.0264
H10 H 0.1375 0.0190 -0.0415
H11 H 0.4609 0.2964 -0.2301
H12 H 0.3415 0.4262 -0.2223
H13 H 0.3502 0.1274 0.0225
H14 H 0.4416 0.1021 -0.0929
H15 H 0.5953 0.1633 -0.0610
H16 H 0.5312 0.1388 0.0616
H17 H 0.5282 0.3512 0.0214
H18 H 0.1944 0.4658 -0.0584
H19 H -0.0079 0.3031 0.1810
H20 H 0.1324 0.3084 0.2900
H21 H 0.1002 0.4518 0.2189
H22 H 0.3476 0.3437 0.2139
H23 H 0.3316 0.2345 0.1690
O3 O 0.4712(2) 0.9251(2) 0.3877(2)
O4 O 0.5065(3) 0.8386(2) 0.6494(2)
C20 C 0.1812(3) 0.5884(3) 0.4089(3)
C21 C 0.2974(3) 0.6274(3) 0.4133(2)
C22 C 0.2972(3) 0.6063(3) 0.5364(2)
C23 C 0.1758(3) 0.5628(3) 0.5852(2)
C24 C 0.2250(3) 0.4329(3) 0.5539(3)
C25 C 0.2281(3) 0.4473(3) 0.4510(3)
C26 C 0.0786(3) 0.6384(3) 0.5071(3)
C27 C 0.4158(4) 0.8333(3) 0.6175(3)
C28 C 0.3918(4) 0.7113(3) 0.6336(3)
C29 C 0.2965(3) 0.7296(3) 0.5608(2)
C30 C 0.1584(3) 0.8282(3) 0.6003(3)
C31 C 0.1760(4) 0.9433(3) 0.6206(3)
C32 C 0.3158(4) 0.9446(3) 0.5596(3)
C33 C 0.3414(3) 0.9224(3) 0.4429(3)
C34 C 0.3530(3) 0.7878(3) 0.4487(2)
C35 C 0.2882(3) 0.7616(3) 0.3754(2)
C36 C 0.2343(3) 0.8490(3) 0.2970(3)
C37 C 0.2385(4) 0.9795(3) 0.2766(3)
C38 C 0.2336(3) 1.0188(3) 0.3812(3)
H2 H 0.4641 0.9970 0.3922
H24 H 0.1494 0.6183 0.3415
H25 H 0.3787 0.5682 0.3740
H26 H 0.3792 0.5338 0.5552
H27 H 0.1484 0.5695 0.6614
H28 H 0.2619 0.3559 0.6000
H29 H 0.2639 0.3848 0.4064
H30 H 0.0490 0.7292 0.5080
H31 H -0.0103 0.6136 0.5219
H32 H 0.3500 0.7004 0.7091
H33 H 0.4907 0.6381 0.6125
H34 H 0.1013 0.8572 0.5390
H35 H 0.1125 0.7905 0.6635
H36 H 0.1021 1.0261 0.5991
H37 H 0.1706 0.9419 0.6965
H38 H 0.3281 1.0219 0.5614
H39 H 0.4502 0.7387 0.4354
H40 H 0.1871 0.8331 0.2465
H41 H 0.3254 0.9790 0.2239
H42 H 0.1551 1.0416 0.2415
H43 H 0.1443 1.0329 0.4281
H44 H 0.2425 1.0989 0.3681
loop_
_geom_bond_atom_site_label_1
_geom_bond_atom_site_label_2
_geom_bond_site_symmetry_1
_geom_bond_site_symmetry_2
O1 C14 1_555 1_555
O2 C8 1_555 1_555
O3 C33 1_555 1_555
O4 C27 1_555 1_555
C1 C2 1_555 1_555
C2 C3 1_555 1_555
C3 C4 1_555 1_555
C4 C5 1_555 1_555
C5 C6 1_555 1_555
C6 C1 1_555 1_555
C7 C1 1_555 1_555
C8 C9 1_555 1_555
C9 C10 1_555 1_555
C10 C3 1_555 1_555
C11 C10 1_555 1_555
C12 C11 1_555 1_555
C13 C8 1_555 1_555
C14 C13 1_555 1_555
C15 C10 1_555 1_555
C16 C2 1_555 1_555
C17 C16 1_555 1_555
C18 C17 1_555 1_555
C19 C14 1_555 1_555
C20 C21 1_555 1_555
C21 C22 1_555 1_555
C22 C23 1_555 1_555
C23 C24 1_555 1_555
C24 C25 1_555 1_555
C25 C20 1_555 1_555
C26 C20 1_555 1_555
C27 C28 1_555 1_555
C28 C29 1_555 1_555
C29 C22 1_555 1_555
C30 C29 1_555 1_555
C31 C30 1_555 1_555
C32 C27 1_555 1_555
C33 C32 1_555 1_555
C34 C29 1_555 1_555
C35 C21 1_555 1_555
C36 C35 1_555 1_555
C37 C36 1_555 1_555
C38 C33 1_555 1_555
H1 O1 1_555 1_555
H2 O3 1_555 1_555
H3 C1 1_555 1_555
H4 C2 1_555 1_555
H5 C3 1_555 1_555
H6 C4 1_555 1_555
H7 C5 1_555 1_555
H8 C6 1_555 1_555
H9 C7 1_555 1_555
H10 C7 1_555 1_555
H11 C9 1_555 1_555
H12 C9 1_555 1_555
H13 C11 1_555 1_555
H14 C11 1_555 1_555
H15 C12 1_555 1_555
H16 C12 1_555 1_555
H17 C13 1_555 1_555
H18 C15 1_555 1_555
H19 C17 1_555 1_555
H20 C18 1_555 1_555
H21 C18 1_555 1_555
H22 C19 1_555 1_555
H23 C19 1_555 1_555
H24 C20 1_555 1_555
H25 C21 1_555 1_555
H26 C22 1_555 1_555
H27 C23 1_555 1_555
H28 C24 1_555 1_555
H29 C25 1_555 1_555
H30 C26 1_555 1_555
H31 C26 1_555 1_555
H32 C28 1_555 1_555
H33 C28 1_555 1_555
H34 C30 1_555 1_555
H35 C30 1_555 1_555
H36 C31 1_555 1_555
H37 C31 1_555 1_555
H38 C32 1_555 1_555
H39 C34 1_555 1_555
H40 C36 1_555 1_555
H41 C37 1_555 1_555
H42 C37 1_555 1_555
H43 C38 1_555 1_555
H44 C38 1_555 1_555
C4 C7 1_555 1_555
C12 C13 1_555 1_555
C14 C15 1_555 1_555
C15 C16 1_555 1_555
C18 C19 1_555 1_555
C23 C26 1_555 1_555
C31 C32 1_555 1_555
C33 C34 1_555 1_555
C34 C35 1_555 1_555
C37 C38 1_555 1_555

#END
