
#######################################################################
#
#                 Cambridge Crystallographic Data Centre
#                                CCDC 
#
#######################################################################
#
# If this CIF has been generated from an entry in the Cambridge 
# Structural Database, then it will include bibliographic, chemical, 
# crystal, experimental, refinement or atomic coordinate data resulting 
# from the CCDC's data processing and validation procedures.
#
#######################################################################

data_WAZMUI
_chemical_formula_moiety         'C24 H21 N3 O1'
_chemical_name_systematic        
2-((2-methyl-5-phenyl-3,4-dihydro-2H-pyrrol-2-yl)methyl)-5-(2-naphthyl)-1,3,4-oxadiazole
_symmetry_cell_setting           monoclinic
_symmetry_space_group_name_H-M   'P 21'
_symmetry_Int_Tables_number      4
_space_group_name_Hall           'P 2yb'
loop_
_symmetry_equiv_pos_site_id
_symmetry_equiv_pos_as_xyz
1 x,y,z
2 -x,1/2+y,-z
_cell_length_a                   6.0096(3)
_cell_length_b                   21.1575(10)
_cell_length_c                   7.3467(3)
_cell_angle_alpha                90
_cell_angle_beta                 93.026(4)
_cell_angle_gamma                90
_cell_volume                     932.817
_exptl_crystal_colour            'pale colorless'
_exptl_crystal_description       irregular
_cell_formula_units_Z            2
loop_
_atom_site_label
_atom_site_type_symbol
_atom_site_fract_x
_atom_site_fract_y
_atom_site_fract_z
O1 O 1.0258(3) 0.55622(8) 0.7033(2)
N1 N 0.7045(3) 0.54550(10) 0.9913(3)
N2 N 1.1757(4) 0.65131(10) 0.6873(3)
N3 N 1.3201(4) 0.60701(11) 0.6094(3)
C1 C 0.6662(4) 0.41040(13) 0.9642(3)
H1 H 0.538(6) 0.4353(16) 0.917(4)
C2 C 0.6546(5) 0.34470(13) 0.9601(3)
H2 H 0.513(6) 0.3228(16) 0.906(4)
C3 C 0.8326(5) 0.30858(13) 1.0302(3)
H3 H 0.826(5) 0.2592(19) 1.030(4)
C4 C 1.0232(5) 0.33804(12) 1.1012(4)
H4 H 1.150(5) 0.3132(16) 1.156(4)
C5 C 1.0373(4) 0.40405(12) 1.1054(3)
H5 H 1.177(5) 0.4237(14) 1.160(4)
C6 C 0.8568(4) 0.44067(12) 1.0386(3)
C7 C 0.8662(4) 0.51023(12) 1.0514(3)
C8 C 1.0674(4) 0.54504(13) 1.1341(4)
H6 H 1.198(5) 0.5431(15) 1.055(4)
H7 H 1.120(5) 0.5281(15) 1.249(5)
C9 C 0.9752(4) 0.61212(13) 1.1520(4)
H8 H 0.922(5) 0.6180(15) 1.277(5)
H9 H 1.089(7) 0.645(2) 1.126(5)
C10 C 0.7661(4) 0.61287(11) 1.0187(4)
C11 C 0.5707(5) 0.64824(14) 1.0954(4)
H10 H 0.441(6) 0.6505(16) 1.008(5)
H11 H 0.525(5) 0.6290(17) 1.217(5)
H12 H 0.613(6) 0.6936(19) 1.121(5)
C12 C 0.8090(4) 0.64235(12) 0.8313(4)
H13 H 0.676(5) 0.6340(14) 0.749(4)
H14 H 0.832(6) 0.6878(17) 0.844(4)
C13 C 1.0082(4) 0.61939(11) 0.7407(3)
C14 C 1.2260(4) 0.55234(12) 0.6251(3)
C15 C 1.3057(4) 0.48979(12) 0.5773(3)
C16 C 1.5138(4) 0.48296(14) 0.4960(3)
H15 H 1.601(5) 0.5190(16) 0.471(4)
C17 C 1.5898(4) 0.42421(14) 0.4542(3)
H16 H 1.732(5) 0.4188(15) 0.397(4)
C18 C 1.4647(4) 0.36929(13) 0.4907(3)
C19 C 1.5414(5) 0.30752(13) 0.4517(3)
H17 H 1.693(6) 0.3036(15) 0.393(4)
C20 C 1.4164(5) 0.25552(13) 0.4900(4)
H18 H 1.487(7) 0.2118(18) 0.463(5)
C21 C 1.2070(5) 0.26248(12) 0.5661(4)
H19 H 1.115(6) 0.2265(17) 0.585(5)
C22 C 1.1287(4) 0.32151(12) 0.6074(3)
H20 H 0.984(6) 0.3252(16) 0.666(4)
C23 C 1.2563(4) 0.37609(12) 0.5714(3)
C24 C 1.1806(4) 0.43738(12) 0.6139(3)
H21 H 1.042(4) 0.4430(13) 0.672(4)
loop_
_geom_bond_atom_site_label_1
_geom_bond_atom_site_label_2
_geom_bond_site_symmetry_1
_geom_bond_site_symmetry_2
O1 C13 1_555 1_555
N1 C7 1_555 1_555
N2 N3 1_555 1_555
N3 C14 1_555 1_555
C1 H1 1_555 1_555
C2 C1 1_555 1_555
H2 C2 1_555 1_555
C3 C2 1_555 1_555
H3 C3 1_555 1_555
C4 C3 1_555 1_555
H4 C4 1_555 1_555
C5 C4 1_555 1_555
H5 C5 1_555 1_555
C6 C1 1_555 1_555
C7 C6 1_555 1_555
C8 C7 1_555 1_555
H6 C8 1_555 1_555
H7 C8 1_555 1_555
C9 C8 1_555 1_555
H8 C9 1_555 1_555
H9 C9 1_555 1_555
C10 N1 1_555 1_555
C11 C10 1_555 1_555
H10 C11 1_555 1_555
H11 C11 1_555 1_555
H12 C11 1_555 1_555
C12 C10 1_555 1_555
H13 C12 1_555 1_555
H14 C12 1_555 1_555
C13 N2 1_555 1_555
C14 O1 1_555 1_555
C15 C14 1_555 1_555
C16 C15 1_555 1_555
H15 C16 1_555 1_555
C17 C16 1_555 1_555
H16 C17 1_555 1_555
C18 C17 1_555 1_555
C19 C18 1_555 1_555
H17 C19 1_555 1_555
C20 C19 1_555 1_555
H18 C20 1_555 1_555
C21 C20 1_555 1_555
H19 C21 1_555 1_555
C22 C21 1_555 1_555
H20 C22 1_555 1_555
C23 C18 1_555 1_555
C24 C15 1_555 1_555
H21 C24 1_555 1_555
C5 C6 1_555 1_555
C9 C10 1_555 1_555
C12 C13 1_555 1_555
C22 C23 1_555 1_555
C23 C24 1_555 1_555

#END
