
#######################################################################
#
#                 Cambridge Crystallographic Data Centre
#                                CCDC 
#
#######################################################################
#
# If this CIF has been generated from an entry in the Cambridge 
# Structural Database, then it will include bibliographic, chemical, 
# crystal, experimental, refinement or atomic coordinate data resulting 
# from the CCDC's data processing and validation procedures.
#
#######################################################################

data_WAZTID
_chemical_formula_moiety         'C38 H14 F10 S2'
_chemical_name_systematic        
2,2'-(6,12-bis(pentafluorophenyl)tetracene-5,11-diyl)dithiophene
_symmetry_cell_setting           orthorhombic
_symmetry_space_group_name_H-M   'P b c n'
_symmetry_Int_Tables_number      60
_space_group_name_Hall           '-P 2n 2ab'
loop_
_symmetry_equiv_pos_site_id
_symmetry_equiv_pos_as_xyz
1 x,y,z
2 1/2-x,1/2-y,1/2+z
3 -x,y,1/2-z
4 1/2+x,1/2-y,-z
5 -x,-y,-z
6 1/2+x,1/2+y,1/2-z
7 x,-y,1/2+z
8 1/2-x,1/2+y,z
_cell_length_a                   13.862(3)
_cell_length_b                   7.7560(16)
_cell_length_c                   27.693(6)
_cell_angle_alpha                90
_cell_angle_beta                 90
_cell_angle_gamma                90
_cell_volume                     2977.38
_exptl_crystal_colour            red
_exptl_crystal_description       block
_cell_formula_units_Z            4
loop_
_atom_site_label
_atom_site_type_symbol
_atom_site_fract_x
_atom_site_fract_y
_atom_site_fract_z
S1 S 0.5718(3) -0.0200(5) 0.36926(11)
C1 C 0.6546(12) 0.2589(16) 0.3875(3)
H1 H 0.6823 0.3702 0.3840
F1 F 0.6526(3) 0.0561(4) 0.11842(12)
F2 F 0.6755(3) 0.1659(5) 0.02820(12)
F3 F 0.6137(3) 0.4845(6) 0.00176(12)
F4 F 0.5246(3) 0.6887(5) 0.06817(14)
F5 F 0.4987(3) 0.5765(4) 0.15883(12)
C2 C 0.6197(4) 0.2129(7) 0.10706(19)
C3 C 0.6322(4) 0.2686(8) 0.06076(19)
C4 C 0.6009(5) 0.4285(9) 0.0473(2)
C5 C 0.5570(5) 0.5311(8) 0.0810(2)
C6 C 0.5445(4) 0.4732(8) 0.1272(2)
C7 C 0.5771(3) 0.3126(7) 0.14288(18)
C8 C 0.5794(4) 0.2667(6) 0.19557(18)
C9 C 0.6710(4) 0.2673(6) 0.21713(19)
C10 C 0.7566(4) 0.3106(7) 0.19114(19)
H2 H 0.7511 0.3500 0.1588
C11 C 0.8445(4) 0.2973(7) 0.2110(2)
H3 H 0.9000 0.3316 0.1933
C12 C 0.8546(4) 0.2317(8) 0.2586(2)
H4 H 0.9172 0.2117 0.2714
C13 C 0.7765(4) 0.1977(7) 0.2858(2)
H5 H 0.7847 0.1556 0.3177
C14 C 0.6807(4) 0.2240(7) 0.26732(19)
C15 C 0.5984(4) 0.2156(6) 0.29650(18)
C16 C 0.5048(4) 0.2390(6) 0.27615(17)
C17 C 0.6114(4) 0.1757(6) 0.34783(18)
C18 C 0.6558(5) 0.1741(8) 0.4325(2)
H6 H 0.6814 0.2163 0.4620
C19 C 0.6139(5) 0.0236(9) 0.4249(2)
H7 H 0.6077 -0.0581 0.4503
S1B S 0.4282(3) -0.0200(5) 0.13074(11)
C1B C 0.3454(12) 0.2589(16) 0.1125(3)
H1B H 0.3177 0.3702 0.1160
F1B F 0.3474(3) 0.0561(4) 0.38158(12)
F2B F 0.3245(3) 0.1659(5) 0.47180(12)
F3B F 0.3863(3) 0.4845(6) 0.49824(12)
F4B F 0.4754(3) 0.6887(5) 0.43183(14)
F5B F 0.5013(3) 0.5765(4) 0.34117(12)
C2B C 0.3803(4) 0.2129(7) 0.39294(19)
C3B C 0.3678(4) 0.2686(8) 0.43924(19)
C4B C 0.3991(5) 0.4285(9) 0.4527(2)
C5B C 0.4430(5) 0.5311(8) 0.4190(2)
C6B C 0.4555(4) 0.4732(8) 0.3728(2)
C7B C 0.4229(3) 0.3126(7) 0.35712(18)
C8B C 0.4206(4) 0.2667(6) 0.30443(18)
C9B C 0.3290(4) 0.2673(6) 0.28287(19)
C10B C 0.2434(4) 0.3106(7) 0.30886(19)
H2B H 0.2489 0.3500 0.3412
C11B C 0.1555(4) 0.2973(7) 0.2890(2)
H3B H 0.1000 0.3316 0.3067
C12B C 0.1454(4) 0.2317(8) 0.2414(2)
H4B H 0.0828 0.2117 0.2286
C13B C 0.2235(4) 0.1977(7) 0.2142(2)
H5B H 0.2153 0.1556 0.1823
C14B C 0.3193(4) 0.2240(7) 0.23268(19)
C15B C 0.4016(4) 0.2156(6) 0.20350(18)
C16B C 0.4952(4) 0.2390(6) 0.22385(17)
C17B C 0.3886(4) 0.1757(6) 0.15217(18)
C18B C 0.3442(5) 0.1741(8) 0.0675(2)
H6B H 0.3186 0.2163 0.0380
C19B C 0.3861(5) 0.0236(9) 0.0751(2)
H7B H 0.3923 -0.0581 0.0497
S2? S 0.6690(4) 0.3144(7) 0.38661(15)
C20? C 0.5946(15) 0.0271(18) 0.3750(4)
H8? H 0.5698 -0.0730 0.3596
loop_
_geom_bond_atom_site_label_1
_geom_bond_atom_site_label_2
_geom_bond_site_symmetry_1
_geom_bond_site_symmetry_2
S1 C17 1_555 1_555
C1 H1 1_555 1_555
F1 C2 1_555 1_555
F2 C3 1_555 1_555
F3 C4 1_555 1_555
F4 C5 1_555 1_555
F5 C6 1_555 1_555
C2 C3 1_555 1_555
C3 C4 1_555 1_555
C4 C5 1_555 1_555
C5 C6 1_555 1_555
C6 C7 1_555 1_555
C7 C2 1_555 1_555
C8 C7 1_555 1_555
C9 C8 1_555 1_555
C10 C9 1_555 1_555
H2 C10 1_555 1_555
C11 C10 1_555 1_555
H3 C11 1_555 1_555
C12 C11 1_555 1_555
H4 C12 1_555 1_555
C13 C12 1_555 1_555
H5 C13 1_555 1_555
C14 C9 1_555 1_555
C15 C14 1_555 1_555
C16 C15 1_555 1_555
C17 C1 1_555 1_555
C18 C1 1_555 1_555
H6 C18 1_555 1_555
C19 S1 1_555 1_555
H7 C19 1_555 1_555
S1B C17B 1_555 1_555
C1B H1B 1_555 1_555
F1B C2B 1_555 1_555
F2B C3B 1_555 1_555
F3B C4B 1_555 1_555
F4B C5B 1_555 1_555
F5B C6B 1_555 1_555
C2B C3B 1_555 1_555
C3B C4B 1_555 1_555
C4B C5B 1_555 1_555
C5B C6B 1_555 1_555
C6B C7B 1_555 1_555
C7B C2B 1_555 1_555
C8B C16 1_555 1_555
C9B C8B 1_555 1_555
C10B C9B 1_555 1_555
H2B C10B 1_555 1_555
C11B C10B 1_555 1_555
H3B C11B 1_555 1_555
C12B C11B 1_555 1_555
H4B C12B 1_555 1_555
C13B C12B 1_555 1_555
H5B C13B 1_555 1_555
C14B C9B 1_555 1_555
C15B C14B 1_555 1_555
C16B C8 1_555 1_555
C17B C1B 1_555 1_555
C18B C1B 1_555 1_555
H6B C18B 1_555 1_555
C19B S1B 1_555 1_555
H7B C19B 1_555 1_555
C13 C14 1_555 1_555
C15 C17 1_555 1_555
C16 C16B 1_555 1_555
C18 C19 1_555 1_555
C7B C8B 1_555 1_555
C13B C14B 1_555 1_555
C15B C16B 1_555 1_555
C15B C17B 1_555 1_555
C18B C19B 1_555 1_555

#END
