
#######################################################################
#
#                 Cambridge Crystallographic Data Centre
#                                CCDC 
#
#######################################################################
#
# If this CIF has been generated from an entry in the Cambridge 
# Structural Database, then it will include bibliographic, chemical, 
# crystal, experimental, refinement or atomic coordinate data resulting 
# from the CCDC's data processing and validation procedures.
#
#######################################################################

data_WAZZUU
_chemical_name_common            
"2,2'-((25,26,27,28-Tetrakis(decyloxy)pentacyclo[19.3.1.1$3,7!.1$9,13!.1$15,19!]octacosa-1(25),3(28),4,6,9(27),10,12,15(26),16,18,21,23-dodecaene-5,17-diyl)di-4,1-phenylene)bis(5-(4-methoxyphenyl)-1,3,4-oxadiazole) acetamide solvate"
_chemical_formula_moiety         'C98 H124 N4 O8,0.25(C2 H5 N1 O1)'
_chemical_name_systematic        
'5,17-bis(5-(4-methoxyphenyl)-1,3,4-oxadiazole)-25,26,27,28-tetradecyloxycalix(4)arene acetamide solvate'
_symmetry_cell_setting           triclinic
_symmetry_space_group_name_H-M   'P -1'
_symmetry_Int_Tables_number      2
_space_group_name_Hall           '-P 1'
loop_
_symmetry_equiv_pos_site_id
_symmetry_equiv_pos_as_xyz
1 x,y,z
2 -x,-y,-z
_cell_length_a                   11.261(4)
_cell_length_b                   15.859(5)
_cell_length_c                   26.623(11)
_cell_angle_alpha                104.32(2)
_cell_angle_beta                 95.30(3)
_cell_angle_gamma                106.83(2)
_cell_volume                     4340.03
_exptl_crystal_colour            colorless
_exptl_crystal_description       prism
_cell_formula_units_Z            2
loop_
_atom_site_label
_atom_site_type_symbol
_atom_site_fract_x
_atom_site_fract_y
_atom_site_fract_z
O9 O 0.0000 1.0000 0.0000
N5 N 0.0228(16) 1.0368(11) 0.0902(6)
C99 C -0.028(2) 0.9806(15) 0.0529(8)
C100 C -0.120(2) 0.8941(13) 0.0163(8)
N5A N -0.0228(16) 0.9632(11) -0.0902(6)
C99A C 0.028(2) 1.0194(15) -0.0529(8)
C100A C 0.120(2) 1.1059(13) -0.0163(8)
O1 O -0.1569(3) 0.6813(2) 0.13629(11)
O2 O -0.1506(3) 0.55827(18) 0.26363(10)
O3 O 0.1854(3) 0.63325(19) 0.22313(10)
O4 O 0.0712(3) 0.80592(18) 0.27957(10)
O5 O -0.4283(3) 0.86285(18) 0.51046(11)
O6 O -0.5547(4) 0.7372(2) 0.71453(13)
O7 O 0.1748(3) 0.78870(18) 0.64054(10)
O8 O 0.2805(4) 1.0297(3) 0.88342(13)
N1 N -0.3515(4) 1.0098(2) 0.51322(15)
N2 N -0.3751(4) 1.0051(2) 0.56437(15)
N3 N 0.0574(4) 0.6413(2) 0.62067(13)
N4 N 0.0740(4) 0.6809(2) 0.67529(13)
C1 C -0.1846(4) 0.7155(3) 0.18593(16)
C2 C -0.2753(4) 0.6558(3) 0.20494(16)
C3 C -0.3198(4) 0.6921(3) 0.24961(16)
H1 H -0.3817 0.6515 0.2622
C4 C -0.2764(4) 0.7870(3) 0.27703(16)
C5 C -0.1835(4) 0.8441(3) 0.25726(17)
H2 H -0.1534 0.9084 0.2743
C6 C -0.1340(4) 0.8091(3) 0.21322(17)
C7 C -0.3168(4) 0.8237(3) 0.32726(17)
C8 C -0.3930(4) 0.7653(3) 0.35193(17)
H3 H -0.4278 0.7015 0.3340
C9 C -0.4192(4) 0.7976(3) 0.40171(17)
H4 H -0.4707 0.7558 0.4172
C10 C -0.3702(4) 0.8915(3) 0.42928(17)
C11 C -0.3000(5) 0.9513(3) 0.40426(19)
H5 H -0.2695 1.0155 0.4214
C12 C -0.2741(5) 0.9183(3) 0.35475(18)
H6 H -0.2259 0.9608 0.3387
C13 C -0.3838(4) 0.9257(3) 0.48404(18)
C14 C -0.4194(4) 0.9174(3) 0.56050(17)
C15 C -0.4540(4) 0.8723(3) 0.60103(17)
C16 C -0.4333(5) 0.9228(3) 0.65388(18)
H7 H -0.3971 0.9878 0.6632
C17 C -0.4633(5) 0.8818(3) 0.69290(19)
H8 H -0.4459 0.9178 0.7287
C18 C -0.5199(5) 0.7863(3) 0.67927(18)
C19 C -0.5425(5) 0.7348(3) 0.62673(17)
H9 H -0.5811 0.6700 0.6174
C20 C -0.5100(4) 0.7761(3) 0.58808(17)
H10 H -0.5254 0.7398 0.5525
C21 C -0.5238(6) 0.7857(4) 0.76919(18)
H11 H -0.4334 0.8200 0.7785
H12 H -0.5450 0.7418 0.7898
H13 H -0.5718 0.8286 0.7768
C22 C -0.0405(5) 0.6577(4) 0.13222(17)
H14 H -0.0354 0.6139 0.1525
H15 H 0.0345 0.7136 0.1459
C23 C -0.0478(6) 0.6139(4) 0.07341(19)
H16 H 0.0109 0.5777 0.0693
H17 H -0.1341 0.5707 0.0585
C24 C -0.0161(6) 0.6826(5) 0.0419(2)
H18 H -0.0455 0.7349 0.0570
H19 H -0.0612 0.6529 0.0052
C25 C 0.1243(6) 0.7183(4) 0.0421(2)
H20 H 0.1538 0.6660 0.0268
H21 H 0.1695 0.7478 0.0788
C26 C 0.1563(7) 0.7890(5) 0.0098(2)
H22 H 0.1402 0.8461 0.0279
H23 H 0.1034 0.7632 -0.0257
C27 C 0.2987(7) 0.8100(5) 0.0055(3)
H24 H 0.3504 0.8483 0.0402
H25 H 0.3176 0.7514 -0.0034
C28 C 0.3372(7) 0.8599(5) -0.0360(3)
H26 H 0.3254 0.9209 -0.0252
H27 H 0.2795 0.8245 -0.0699
C29 C 0.4743(8) 0.8740(5) -0.0452(3)
H28 H 0.5318 0.9094 -0.0113
H29 H 0.4860 0.8129 -0.0558
C30 C 0.5124(7) 0.9214(5) -0.0848(3)
H30 H 0.5014 0.9827 -0.0746
H31 H 0.4570 0.8858 -0.1191
C31 C 0.6472(8) 0.9327(5) -0.0905(3)
H32 H 0.7031 0.9751 -0.0581
H33 H 0.6659 0.9577 -0.1202
H34 H 0.6605 0.8729 -0.0971
C32 C -0.3286(4) 0.5523(3) 0.17746(17)
H35 H -0.3750 0.5430 0.1420
H36 H -0.3904 0.5239 0.1976
C33 C -0.2319(4) 0.5010(3) 0.17122(16)
C34 C -0.2284(5) 0.4483(4) 0.12115(17)
H37 H -0.2891 0.4414 0.0919
C35 C -0.1368(5) 0.4058(4) 0.11384(18)
H38 H -0.1360 0.3692 0.0798
C36 C -0.0466(5) 0.4165(3) 0.15607(16)
H39 H 0.0176 0.3892 0.1504
C37 C -0.0487(4) 0.4672(3) 0.20725(16)
C38 C -0.1444(4) 0.5069(3) 0.21406(14)
C39 C -0.2144(4) 0.5021(3) 0.29454(15)
H40 H -0.1709 0.4576 0.2989
H41 H -0.3023 0.4672 0.2766
C40 C -0.2131(4) 0.5651(3) 0.34813(14)
H42 H -0.2625 0.6060 0.3437
H43 H -0.1254 0.6040 0.3644
C41 C -0.2699(4) 0.5078(3) 0.38432(15)
H44 H -0.3585 0.4711 0.3681
H45 H -0.2234 0.4642 0.3862
C42 C -0.2673(4) 0.5636(3) 0.44005(15)
H46 H -0.3210 0.6029 0.4387
H47 H -0.1800 0.6045 0.4555
C43 C -0.3141(4) 0.5021(3) 0.47573(15)
H48 H -0.4032 0.4644 0.4612
H49 H -0.2645 0.4596 0.4745
C44 C -0.3051(4) 0.5538(3) 0.53256(15)
H50 H -0.3519 0.5981 0.5339
H51 H -0.2156 0.5895 0.5477
C45 C -0.3566(4) 0.4919(3) 0.56667(15)
H52 H -0.4462 0.4563 0.5516
H53 H -0.3100 0.4474 0.5652
C46 C -0.3472(4) 0.5436(3) 0.62396(15)
H54 H -0.3882 0.5913 0.6253
H55 H -0.2571 0.5752 0.6398
C47 C -0.4078(4) 0.4823(3) 0.65714(15)
H56 H -0.4966 0.4477 0.6403
H57 H -0.3632 0.4371 0.6580
C48 C -0.4041(5) 0.5369(3) 0.71336(17)
H58 H -0.3164 0.5716 0.7302
H59 H -0.4419 0.4947 0.7332
H60 H -0.4516 0.5798 0.7129
C49 C 0.0494(4) 0.4731(3) 0.25200(16)
H61 H 0.1147 0.4502 0.2364
H62 H 0.0083 0.4303 0.2715
C50 C 0.1159(4) 0.5666(3) 0.29185(15)
C51 C 0.1869(4) 0.6420(3) 0.27670(16)
C52 C 0.2524(4) 0.7270(3) 0.31400(16)
C53 C 0.2465(4) 0.7347(3) 0.36683(16)
H63 H 0.2919 0.7916 0.3923
C54 C 0.1760(4) 0.6617(3) 0.38396(15)
C55 C 0.1130(4) 0.5778(3) 0.34556(15)
H64 H 0.0668 0.5270 0.3563
C56 C 0.1629(4) 0.6746(3) 0.44047(15)
C57 C 0.0769(4) 0.6055(3) 0.45607(15)
H65 H 0.0287 0.5494 0.4305
C58 C 0.0622(4) 0.6187(3) 0.50824(15)
H66 H 0.0037 0.5714 0.5179
C59 C 0.1318(4) 0.7003(3) 0.54705(16)
C60 C 0.2157(4) 0.7696(3) 0.53199(16)
H67 H 0.2632 0.8256 0.5578
C61 C 0.2307(4) 0.7575(3) 0.47977(16)
H68 H 0.2875 0.8058 0.4703
C62 C 0.1169(4) 0.7065(3) 0.60173(15)
C63 C 0.1428(4) 0.7662(3) 0.68544(16)
C64 C 0.1840(5) 0.8362(3) 0.73593(16)
C65 C 0.1483(5) 0.8128(3) 0.78074(17)
H69 H 0.0997 0.7514 0.7781
C66 C 0.1842(6) 0.8794(4) 0.82914(19)
H70 H 0.1600 0.8631 0.8596
C67 C 0.2550(5) 0.9697(3) 0.83371(18)
C68 C 0.2921(5) 0.9926(3) 0.78931(17)
H71 H 0.3411 1.0539 0.7920
C69 C 0.2572(4) 0.9256(3) 0.74080(16)
H72 H 0.2840 0.9414 0.7106
C70 C 0.3471(6) 1.1232(4) 0.8898(2)
H73 H 0.4335 1.1295 0.8839
H74 H 0.3493 1.1597 0.9257
H75 H 0.3049 1.1453 0.8644
C71 C 0.2929(5) 0.6157(3) 0.20392(17)
H76 H 0.2922 0.5533 0.2042
H77 H 0.3712 0.6608 0.2268
C72 C 0.2885(4) 0.6237(3) 0.14836(16)
H78 H 0.2802 0.6841 0.1481
H79 H 0.2132 0.5752 0.1253
C73 C 0.4055(5) 0.6144(3) 0.12643(17)
H80 H 0.4095 0.5520 0.1241
H81 H 0.4810 0.6593 0.1514
C74 C 0.4100(5) 0.6303(3) 0.07184(17)
H82 H 0.3368 0.5834 0.0466
H83 H 0.4014 0.6914 0.0738
C75 C 0.5296(5) 0.6259(3) 0.05079(17)
H84 H 0.5363 0.5639 0.0471
H85 H 0.6032 0.6710 0.0766
C76 C 0.5339(5) 0.6461(3) -0.00212(17)
H86 H 0.4626 0.5987 -0.0282
H87 H 0.5208 0.7062 0.0013
C77 C 0.6541(5) 0.6485(4) -0.02357(18)
H88 H 0.6656 0.5876 -0.0287
H89 H 0.7261 0.6943 0.0028
C78 C 0.6559(5) 0.6728(4) -0.07558(17)
H90 H 0.5836 0.6267 -0.1017
H91 H 0.6426 0.7332 -0.0702
C79 C 0.7747(6) 0.6772(4) -0.0988(2)
H92 H 0.7862 0.6161 -0.1062
H93 H 0.8480 0.7216 -0.0725
C80 C 0.7727(7) 0.7058(5) -0.1492(2)
H94 H 0.6986 0.6637 -0.1751
H95 H 0.8493 0.7037 -0.1634
H96 H 0.7688 0.7686 -0.1416
C81 C 0.3329(4) 0.8097(3) 0.29963(16)
H97 H 0.4092 0.7961 0.2895
H98 H 0.3611 0.8622 0.3321
C82 C 0.2779(4) 0.8425(3) 0.25612(15)
C83 C 0.3566(5) 0.8766(3) 0.22374(17)
H99 H 0.4415 0.8770 0.2284
C84 C 0.3145(5) 0.9103(3) 0.18459(17)
H100 H 0.3704 0.9342 0.1631
C85 C 0.1910(5) 0.9090(3) 0.17708(18)
H101 H 0.1625 0.9316 0.1500
C86 C 0.1063(5) 0.8747(3) 0.20868(16)
C87 C 0.1536(4) 0.8432(3) 0.24892(15)
C88 C 0.0800(4) 0.8667(3) 0.33136(15)
H102 H 0.0514 0.9188 0.3281
H103 H 0.1685 0.8917 0.3500
C89 C -0.0021(4) 0.8125(3) 0.36189(15)
H104 H 0.0237 0.7582 0.3628
H105 H -0.0908 0.7900 0.3436
C90 C 0.0067(4) 0.8701(3) 0.41847(15)
H106 H 0.0961 0.8955 0.4360
H107 H -0.0235 0.9225 0.4174
C91 C -0.0701(4) 0.8151(3) 0.45092(15)
H108 H -0.1595 0.7900 0.4334
H109 H -0.0402 0.7625 0.4517
C92 C -0.0614(4) 0.8718(3) 0.50734(15)
H110 H -0.1012 0.9196 0.5065
H111 H 0.0287 0.9035 0.5232
C93 C -0.1241(4) 0.8155(3) 0.54262(16)
H112 H -0.2159 0.7891 0.5289
H113 H -0.0907 0.7636 0.5406
C94 C -0.1032(5) 0.8712(3) 0.60042(15)
H114 H -0.1450 0.9187 0.6027
H115 H -0.0117 0.9035 0.6128
C95 C -0.1524(5) 0.8143(3) 0.63747(15)
H116 H -0.2448 0.7849 0.6264
H117 H -0.1142 0.7647 0.6338
C96 C -0.1248(5) 0.8695(3) 0.69479(16)
H118 H -0.1651 0.9180 0.6988
H119 H -0.0327 0.9001 0.7058
C97 C -0.1724(5) 0.8100(4) 0.73114(18)
H120 H -0.2642 0.7817 0.7215
H121 H -0.1504 0.8486 0.7678
H122 H -0.1330 0.7617 0.7273
C98 C -0.0276(5) 0.8752(3) 0.19573(19)
H123 H -0.0489 0.8617 0.1570
H124 H -0.0283 0.9385 0.2115
loop_
_geom_bond_atom_site_label_1
_geom_bond_atom_site_label_2
_geom_bond_site_symmetry_1
_geom_bond_site_symmetry_2
O1 C1 1_555 1_555
O2 C38 1_555 1_555
O3 C51 1_555 1_555
O4 C87 1_555 1_555
O5 C13 1_555 1_555
O6 C18 1_555 1_555
O7 C62 1_555 1_555
O8 C67 1_555 1_555
N1 N2 1_555 1_555
N2 C14 1_555 1_555
N3 N4 1_555 1_555
N4 C63 1_555 1_555
C1 C2 1_555 1_555
C2 C3 1_555 1_555
C3 H1 1_555 1_555
C4 C3 1_555 1_555
C5 C4 1_555 1_555
H2 C5 1_555 1_555
C6 C1 1_555 1_555
C7 C4 1_555 1_555
C8 C7 1_555 1_555
H3 C8 1_555 1_555
C9 C8 1_555 1_555
H4 C9 1_555 1_555
C10 C9 1_555 1_555
C11 C10 1_555 1_555
H5 C11 1_555 1_555
C12 C7 1_555 1_555
H6 C12 1_555 1_555
C13 N1 1_555 1_555
C14 O5 1_555 1_555
C15 C14 1_555 1_555
C16 C15 1_555 1_555
H7 C16 1_555 1_555
C17 C16 1_555 1_555
H8 C17 1_555 1_555
C18 C17 1_555 1_555
C19 C18 1_555 1_555
H9 C19 1_555 1_555
C20 C15 1_555 1_555
H10 C20 1_555 1_555
C21 O6 1_555 1_555
H11 C21 1_555 1_555
H12 C21 1_555 1_555
H13 C21 1_555 1_555
C22 O1 1_555 1_555
H14 C22 1_555 1_555
H15 C22 1_555 1_555
C23 C22 1_555 1_555
H16 C23 1_555 1_555
H17 C23 1_555 1_555
C24 C23 1_555 1_555
H18 C24 1_555 1_555
H19 C24 1_555 1_555
C25 C24 1_555 1_555
H20 C25 1_555 1_555
H21 C25 1_555 1_555
C26 C25 1_555 1_555
H22 C26 1_555 1_555
H23 C26 1_555 1_555
C27 C26 1_555 1_555
H24 C27 1_555 1_555
H25 C27 1_555 1_555
C28 C27 1_555 1_555
H26 C28 1_555 1_555
H27 C28 1_555 1_555
C29 C28 1_555 1_555
H28 C29 1_555 1_555
H29 C29 1_555 1_555
C30 C29 1_555 1_555
H30 C30 1_555 1_555
H31 C30 1_555 1_555
C31 C30 1_555 1_555
H32 C31 1_555 1_555
H33 C31 1_555 1_555
H34 C31 1_555 1_555
C32 C2 1_555 1_555
H35 C32 1_555 1_555
H36 C32 1_555 1_555
C33 C32 1_555 1_555
C34 C33 1_555 1_555
H37 C34 1_555 1_555
C35 C34 1_555 1_555
H38 C35 1_555 1_555
C36 C35 1_555 1_555
H39 C36 1_555 1_555
C37 C36 1_555 1_555
C38 C33 1_555 1_555
C39 O2 1_555 1_555
H40 C39 1_555 1_555
H41 C39 1_555 1_555
C40 C39 1_555 1_555
H42 C40 1_555 1_555
H43 C40 1_555 1_555
C41 C40 1_555 1_555
H44 C41 1_555 1_555
H45 C41 1_555 1_555
C42 C41 1_555 1_555
H46 C42 1_555 1_555
H47 C42 1_555 1_555
C43 C42 1_555 1_555
H48 C43 1_555 1_555
H49 C43 1_555 1_555
C44 C43 1_555 1_555
H50 C44 1_555 1_555
H51 C44 1_555 1_555
C45 C44 1_555 1_555
H52 C45 1_555 1_555
H53 C45 1_555 1_555
C46 C45 1_555 1_555
H54 C46 1_555 1_555
H55 C46 1_555 1_555
C47 C46 1_555 1_555
H56 C47 1_555 1_555
H57 C47 1_555 1_555
C48 C47 1_555 1_555
H58 C48 1_555 1_555
H59 C48 1_555 1_555
H60 C48 1_555 1_555
C49 C37 1_555 1_555
H61 C49 1_555 1_555
H62 C49 1_555 1_555
C50 C49 1_555 1_555
C51 C50 1_555 1_555
C52 C51 1_555 1_555
C53 C52 1_555 1_555
H63 C53 1_555 1_555
C54 C53 1_555 1_555
C55 C50 1_555 1_555
H64 C55 1_555 1_555
C56 C54 1_555 1_555
C57 C56 1_555 1_555
H65 C57 1_555 1_555
C58 C57 1_555 1_555
H66 C58 1_555 1_555
C59 C58 1_555 1_555
C60 C59 1_555 1_555
H67 C60 1_555 1_555
C61 C56 1_555 1_555
H68 C61 1_555 1_555
C62 N3 1_555 1_555
C63 O7 1_555 1_555
C64 C63 1_555 1_555
C65 C64 1_555 1_555
H69 C65 1_555 1_555
C66 C65 1_555 1_555
H70 C66 1_555 1_555
C67 C66 1_555 1_555
C68 C67 1_555 1_555
H71 C68 1_555 1_555
C69 C64 1_555 1_555
H72 C69 1_555 1_555
C70 O8 1_555 1_555
H73 C70 1_555 1_555
H74 C70 1_555 1_555
H75 C70 1_555 1_555
C71 O3 1_555 1_555
H76 C71 1_555 1_555
H77 C71 1_555 1_555
C72 C71 1_555 1_555
H78 C72 1_555 1_555
H79 C72 1_555 1_555
C73 C72 1_555 1_555
H80 C73 1_555 1_555
H81 C73 1_555 1_555
C74 C73 1_555 1_555
H82 C74 1_555 1_555
H83 C74 1_555 1_555
C75 C74 1_555 1_555
H84 C75 1_555 1_555
H85 C75 1_555 1_555
C76 C75 1_555 1_555
H86 C76 1_555 1_555
H87 C76 1_555 1_555
C77 C76 1_555 1_555
H88 C77 1_555 1_555
H89 C77 1_555 1_555
C78 C77 1_555 1_555
H90 C78 1_555 1_555
H91 C78 1_555 1_555
C79 C78 1_555 1_555
H92 C79 1_555 1_555
H93 C79 1_555 1_555
C80 C79 1_555 1_555
H94 C80 1_555 1_555
H95 C80 1_555 1_555
H96 C80 1_555 1_555
C81 C52 1_555 1_555
H97 C81 1_555 1_555
H98 C81 1_555 1_555
C82 C81 1_555 1_555
C83 C82 1_555 1_555
H99 C83 1_555 1_555
C84 C83 1_555 1_555
H100 C84 1_555 1_555
C85 C84 1_555 1_555
H101 C85 1_555 1_555
C86 C85 1_555 1_555
C87 C82 1_555 1_555
C88 O4 1_555 1_555
H102 C88 1_555 1_555
H103 C88 1_555 1_555
C89 C88 1_555 1_555
H104 C89 1_555 1_555
H105 C89 1_555 1_555
C90 C89 1_555 1_555
H106 C90 1_555 1_555
H107 C90 1_555 1_555
C91 C90 1_555 1_555
H108 C91 1_555 1_555
H109 C91 1_555 1_555
C92 C91 1_555 1_555
H110 C92 1_555 1_555
H111 C92 1_555 1_555
C93 C92 1_555 1_555
H112 C93 1_555 1_555
H113 C93 1_555 1_555
C94 C93 1_555 1_555
H114 C94 1_555 1_555
H115 C94 1_555 1_555
C95 C94 1_555 1_555
H116 C95 1_555 1_555
H117 C95 1_555 1_555
C96 C95 1_555 1_555
H118 C96 1_555 1_555
H119 C96 1_555 1_555
C97 C96 1_555 1_555
H120 C97 1_555 1_555
H121 C97 1_555 1_555
H122 C97 1_555 1_555
C98 C6 1_555 1_555
H123 C98 1_555 1_555
H124 C98 1_555 1_555
O9 C99 1_555 1_555
N5 C99 1_555 1_555
C99 C100 1_555 1_555
N5A C99A 1_555 1_555
C99A O9 1_555 1_555
C100A C99A 1_555 1_555
C5 C6 1_555 1_555
C10 C13 1_555 1_555
C11 C12 1_555 1_555
C19 C20 1_555 1_555
C37 C38 1_555 1_555
C54 C55 1_555 1_555
C59 C62 1_555 1_555
C60 C61 1_555 1_555
C68 C69 1_555 1_555
C86 C87 1_555 1_555
C86 C98 1_555 1_555

#END
