
#######################################################################
#
#                 Cambridge Crystallographic Data Centre
#                                CCDC 
#
#######################################################################
#
# If this CIF has been generated from an entry in the Cambridge 
# Structural Database, then it will include bibliographic, chemical, 
# crystal, experimental, refinement or atomic coordinate data resulting 
# from the CCDC's data processing and validation procedures.
#
#######################################################################

data_WAZZOO
_chemical_name_common            
5,17-Dibromo-25,26,27,28-tetrakis(decyloxy)pentacyclo[19.3.1.1$3,7!.1$9,13!.1$15,19!]octacosa-1(25),3(28),4,6,9(27),10,12,15(26),16,18,21,23-dodecaene
_chemical_formula_moiety         'C68 H102 Br2 O4'
_chemical_name_systematic        
5,17-dibromo-25,26,27,28-tetradecyloxycalix(4)arene
_symmetry_cell_setting           triclinic
_symmetry_space_group_name_H-M   'P -1'
_symmetry_Int_Tables_number      2
_space_group_name_Hall           '-P 1'
loop_
_symmetry_equiv_pos_site_id
_symmetry_equiv_pos_as_xyz
1 x,y,z
2 -x,-y,-z
_cell_length_a                   18.020(4)
_cell_length_b                   20.293(4)
_cell_length_c                   21.020(4)
_cell_angle_alpha                112.85(3)
_cell_angle_beta                 91.41(3)
_cell_angle_gamma                113.61(3)
_cell_volume                     6341.05
_cell_formula_units_Z            4
loop_
_atom_site_label
_atom_site_type_symbol
_atom_site_fract_x
_atom_site_fract_y
_atom_site_fract_z
Br1 Br 0.14591(6) 0.77767(6) 0.66764(5)
Br2 Br 0.28885(7) 0.66508(7) 0.62306(6)
O1 O 0.1022(4) 0.7767(3) 0.3810(3)
O2 O 0.1100(4) 0.6025(4) 0.3329(3)
O3 O 0.2978(4) 0.6121(4) 0.3201(3)
O4 O 0.2807(4) 0.7788(3) 0.4007(3)
C1 C 0.1113(5) 0.7761(5) 0.4466(4)
C2 C 0.1804(5) 0.8393(5) 0.5000(5)
C3 C 0.1894(5) 0.8382(5) 0.5653(5)
H1 H 0.2336 0.8800 0.6017
C4 C 0.1337(5) 0.7759(5) 0.5771(4)
C5 C 0.0669(5) 0.7137(5) 0.5233(5)
H2 H 0.0281 0.6730 0.5320
C6 C 0.0572(5) 0.7114(5) 0.4563(5)
C7 C -0.0130(5) 0.6386(5) 0.3965(5)
H3 H -0.0100 0.6446 0.3529
H4 H -0.0662 0.6342 0.4077
C8 C -0.0044(5) 0.5634(5) 0.3874(5)
C9 C -0.0557(5) 0.5104(5) 0.4105(5)
H5 H -0.1009 0.5163 0.4274
C10 C -0.0405(6) 0.4474(5) 0.4089(5)
H6 H -0.0772 0.4101 0.4224
C11 C 0.0280(6) 0.4404(5) 0.3877(5)
H7 H 0.0390 0.3999 0.3892
C12 C 0.0824(5) 0.4933(5) 0.3634(4)
C13 C 0.0612(5) 0.5531(5) 0.3609(4)
C14 C 0.1626(5) 0.4935(5) 0.3475(5)
H8 H 0.1680 0.4950 0.3022
H9 H 0.1634 0.4449 0.3444
C15 C 0.2373(5) 0.5675(5) 0.4063(4)
C16 C 0.2357(5) 0.5803(5) 0.4737(5)
H10 H 0.1941 0.5424 0.4836
C17 C 0.2934(5) 0.6473(6) 0.5275(5)
C18 C 0.3569(6) 0.7060(6) 0.5149(5)
H11 H 0.3968 0.7516 0.5523
C19 C 0.3591(5) 0.6944(5) 0.4443(5)
C20 C 0.2978(5) 0.6234(5) 0.3902(5)
C21 C 0.4204(5) 0.7594(5) 0.4293(5)
H12 H 0.4089 0.7449 0.3792
H13 H 0.4758 0.7660 0.4423
C22 C 0.4160(5) 0.8383(5) 0.4711(5)
C23 C 0.4798(6) 0.9032(6) 0.5259(5)
H14 H 0.5295 0.9018 0.5360
C24 C 0.4688(6) 0.9711(6) 0.5661(5)
H15 H 0.5121 1.0153 0.6019
C25 C 0.3948(6) 0.9730(5) 0.5529(5)
H16 H 0.3877 1.0176 0.5812
C26 C 0.3300(6) 0.9089(5) 0.4977(5)
C27 C 0.3436(6) 0.8446(5) 0.4550(4)
C28 C 0.2459(5) 0.9063(5) 0.4879(5)
H17 H 0.2302 0.8991 0.4403
H18 H 0.2485 0.9569 0.5206
C29 C 0.0510(6) 0.8128(5) 0.3713(5)
H19 H 0.0605 0.8589 0.4148
H20 H -0.0070 0.7749 0.3595
C30 C 0.0713(6) 0.8375(5) 0.3138(5)
H21 H 0.1291 0.8764 0.3274
H22 H 0.0383 0.8640 0.3097
C31 C 0.0576(6) 0.7722(5) 0.2428(5)
H23 H -0.0005 0.7339 0.2279
H24 H 0.0896 0.7447 0.2464
C32 C 0.0824(6) 0.8030(5) 0.1859(5)
H25 H 0.0490 0.8292 0.1816
H26 H 0.1398 0.8429 0.2020
C33 C 0.0724(6) 0.7401(5) 0.1142(5)
H27 H 0.0152 0.6998 0.0982
H28 H 0.1065 0.7145 0.1182
C34 C 0.0963(6) 0.7715(6) 0.0569(5)
H29 H 0.0622 0.7972 0.0530
H30 H 0.1535 0.8118 0.0730
C35 C 0.0867(7) 0.7094(6) -0.0148(5)
H31 H 0.0291 0.6698 -0.0315
H32 H 0.1196 0.6828 -0.0108
C36 C 0.1118(6) 0.7406(6) -0.0693(5)
H33 H 0.1702 0.7779 -0.0539
H34 H 0.0812 0.7700 -0.0712
C37 C 0.0975(8) 0.6770(7) -0.1433(6)
H35 H 0.1288 0.6484 -0.1412
H36 H 0.0393 0.6391 -0.1580
C38 C 0.1202(8) 0.7057(8) -0.1985(6)
H37 H 0.0912 0.7358 -0.2003
H38 H 0.1053 0.6607 -0.2436
H39 H 0.1789 0.7391 -0.1873
C39 C 0.0714(7) 0.5850(7) 0.2646(6)
H40 H 0.0703 0.6326 0.2652
H41 H 0.0147 0.5443 0.2525
C40 C 0.1175(6) 0.5559(7) 0.2089(6)
H42 H 0.1754 0.5948 0.2244
H43 H 0.1150 0.5064 0.2070
C41 C 0.0871(7) 0.5416(7) 0.1360(6)
H44 H 0.0313 0.4985 0.1186
H45 H 0.0840 0.5892 0.1386
C42 C 0.1369(8) 0.5217(8) 0.0845(6)
H46 H 0.1402 0.4746 0.0829
H47 H 0.1926 0.5650 0.1028
C43 C 0.1109(7) 0.5064(7) 0.0104(6)
H48 H 0.0568 0.4606 -0.0092
H49 H 0.1040 0.5519 0.0119
C44 C 0.1644(8) 0.4918(9) -0.0386(7)
H50 H 0.1711 0.4461 -0.0401
H51 H 0.2186 0.5374 -0.0186
C45 C 0.1394(7) 0.4766(7) -0.1138(6)
H52 H 0.0840 0.4330 -0.1338
H53 H 0.1373 0.5237 -0.1135
C46 C 0.1952(8) 0.4569(8) -0.1599(7)
H54 H 0.1965 0.4093 -0.1605
H55 H 0.2508 0.5001 -0.1390
C47 C 0.1727(8) 0.4423(7) -0.2372(6)
H56 H 0.2049 0.4178 -0.2646
H57 H 0.1147 0.4044 -0.2561
C48 C 0.1865(8) 0.5129(7) -0.2472(7)
H58 H 0.1653 0.5442 -0.2129
H59 H 0.1584 0.4971 -0.2939
H60 H 0.2448 0.5441 -0.2414
C49 C 0.3531(7) 0.5800(6) 0.2887(6)
H61 H 0.3480 0.5368 0.3005
H62 H 0.4099 0.6212 0.3072
C50 C 0.3316(7) 0.5487(6) 0.2081(6)
H63 H 0.2733 0.5112 0.1904
H64 H 0.3411 0.5929 0.1965
C51 C 0.3825(7) 0.5085(6) 0.1728(6)
H65 H 0.3750 0.4665 0.1871
H66 H 0.4405 0.5471 0.1899
C52 C 0.3633(8) 0.4723(6) 0.0929(6)
H67 H 0.3899 0.4376 0.0754
H68 H 0.3039 0.4393 0.0760
C53 C 0.3901(6) 0.5315(5) 0.0613(5)
H69 H 0.4464 0.5717 0.0850
H70 H 0.3547 0.5582 0.0694
C54 C 0.3859(6) 0.4915(6) -0.0184(5)
H71 H 0.4202 0.4636 -0.0259
H72 H 0.3293 0.4517 -0.0415
C55 C 0.4133(6) 0.5472(6) -0.0539(5)
H73 H 0.3772 0.5730 -0.0487
H74 H 0.4691 0.5885 -0.0295
C56 C 0.4123(6) 0.5062(6) -0.1317(6)
H75 H 0.4509 0.4830 -0.1366
H76 H 0.3574 0.4629 -0.1556
C57 C 0.4348(7) 0.5605(6) -0.1673(5)
H77 H 0.4905 0.6026 -0.1444
H78 H 0.3977 0.5853 -0.1604
C58 C 0.4309(8) 0.5196(8) -0.2472(6)
H79 H 0.4709 0.4987 -0.2546
H80 H 0.4431 0.5578 -0.2663
H81 H 0.3764 0.4767 -0.2704
C59 C 0.2666(6) 0.7875(5) 0.3375(5)
H82 H 0.2709 0.8405 0.3508
H83 H 0.2104 0.7493 0.3114
C60 C 0.3251(6) 0.7756(6) 0.2895(5)
H84 H 0.3279 0.7263 0.2812
H85 H 0.3802 0.8193 0.3113
C61 C 0.2939(6) 0.7723(6) 0.2192(5)
H86 H 0.2863 0.8197 0.2292
H87 H 0.2401 0.7265 0.1971
C62 C 0.3509(6) 0.7666(6) 0.1664(5)
H88 H 0.4031 0.8147 0.1863
H89 H 0.3625 0.7218 0.1592
C63 C 0.3136(6) 0.7560(6) 0.0953(5)
H90 H 0.2972 0.7981 0.1031
H91 H 0.2640 0.7055 0.0736
C64 C 0.3721(6) 0.7577(6) 0.0442(5)
H92 H 0.3886 0.7156 0.0363
H93 H 0.4217 0.8083 0.0659
C65 C 0.3347(6) 0.7472(6) -0.0273(5)
H94 H 0.2880 0.6947 -0.0511
H95 H 0.3141 0.7865 -0.0195
C66 C 0.3959(6) 0.7561(6) -0.0740(6)
H96 H 0.4167 0.7169 -0.0815
H97 H 0.4424 0.8087 -0.0502
C67 C 0.3590(6) 0.7452(6) -0.1462(5)
H98 H 0.3395 0.7853 -0.1388
H99 H 0.3116 0.6932 -0.1696
C68 C 0.4221(7) 0.7523(7) -0.1951(5)
H100 H 0.4709 0.8021 -0.1710
H101 H 0.3976 0.7501 -0.2374
H102 H 0.4367 0.7090 -0.2071
Br3 Br 0.24884(7) 0.43110(7) 0.57963(6)
Br4 Br 0.40150(7) 0.33159(7) 0.61317(6)
O5 O 0.1389(3) 0.2424(3) 0.2622(3)
O6 O 0.1562(4) 0.1066(3) 0.3129(3)
O7 O 0.3353(4) 0.0983(3) 0.3077(3)
O8 O 0.3316(4) 0.2546(3) 0.2792(3)
C69 C 0.1645(6) 0.2848(5) 0.3348(5)
C70 C 0.2343(5) 0.3546(5) 0.3650(5)
C71 C 0.2596(5) 0.3991(5) 0.4365(5)
H103 H 0.3070 0.4477 0.4559
C72 C 0.2143(5) 0.3712(5) 0.4786(5)
C73 C 0.1422(5) 0.2987(5) 0.4519(5)
H104 H 0.1119 0.2806 0.4819
C74 C 0.1172(5) 0.2542(5) 0.3782(5)
C75 C 0.0421(6) 0.1715(5) 0.3495(5)
H105 H -0.0075 0.1775 0.3606
H106 H 0.0338 0.1445 0.2986
C76 C 0.0569(5) 0.1233(5) 0.3823(5)
C77 C 0.0180(6) 0.1124(5) 0.4367(5)
H107 H -0.0241 0.1276 0.4470
C78 C 0.0413(6) 0.0791(5) 0.4759(5)
H108 H 0.0150 0.0719 0.5119
C79 C 0.1053(6) 0.0570(5) 0.4598(5)
H109 H 0.1226 0.0365 0.4866
C80 C 0.1434(5) 0.0646(5) 0.4051(5)
C81 C 0.1159(5) 0.0955(5) 0.3664(5)
C82 C 0.2200(5) 0.0517(5) 0.3936(5)
H110 H 0.2244 0.0203 0.4171
H111 H 0.2153 0.0222 0.3434
C83 C 0.2969(5) 0.1302(5) 0.4219(5)
C84 C 0.3131(5) 0.1848(5) 0.4925(5)
H112 H 0.2786 0.1724 0.5224
C85 C 0.3836(6) 0.2592(5) 0.5167(5)
C86 C 0.4302(6) 0.2822(5) 0.4732(5)
H113 H 0.4718 0.3343 0.4908
C87 C 0.4179(5) 0.2306(5) 0.4035(5)
C88 C 0.3505(5) 0.1533(5) 0.3783(5)
C89 C 0.4683(5) 0.2580(5) 0.3545(5)
H114 H 0.4465 0.2162 0.3065
H115 H 0.5255 0.2694 0.3684
C90 C 0.4641(5) 0.3343(5) 0.3581(4)
C91 C 0.5272(6) 0.4095(5) 0.4006(5)
H116 H 0.5768 0.4138 0.4200
C92 C 0.5186(6) 0.4764(5) 0.4145(5)
H117 H 0.5620 0.5262 0.4428
C93 C 0.4439(5) 0.4700(5) 0.3860(5)
H118 H 0.4373 0.5161 0.3973
C94 C 0.3783(5) 0.3954(5) 0.3404(5)
C95 C 0.3933(5) 0.3280(5) 0.3255(4)
C96 C 0.2940(5) 0.3857(5) 0.3183(5)
H119 H 0.2717 0.3480 0.2689
H120 H 0.2974 0.4365 0.3235
C97 C 0.0714(6) 0.2514(6) 0.2336(5)
H121 H 0.0864 0.3075 0.2483
H122 H 0.0222 0.2286 0.2505
C98 C 0.0549(6) 0.2081(5) 0.1537(5)
H123 H -0.0030 0.1902 0.1350
H124 H 0.0638 0.1610 0.1413
C99 C 0.1080(6) 0.2570(6) 0.1167(5)
H125 H 0.0957 0.3016 0.1251
H126 H 0.1661 0.2784 0.1374
C100 C 0.0928(6) 0.2074(5) 0.0372(5)
H127 H 0.0335 0.1769 0.0184
H128 H 0.1157 0.1697 0.0292
C101 C 0.1302(6) 0.2564(6) -0.0040(5)
H129 H 0.1886 0.2909 0.0174
H130 H 0.1032 0.2902 -0.0003
C102 C 0.1211(6) 0.2037(6) -0.0831(5)
H131 H 0.1532 0.1743 -0.0865
H132 H 0.0634 0.1651 -0.1028
C103 C 0.1489(6) 0.2497(6) -0.1271(6)
H133 H 0.1147 0.2765 -0.1265
H134 H 0.2058 0.2902 -0.1064
C104 C 0.1431(6) 0.1960(7) -0.2024(6)
H135 H 0.0864 0.1549 -0.2225
H136 H 0.1780 0.1698 -0.2028
C105 C 0.1697(7) 0.2412(7) -0.2494(6)
H137 H 0.2262 0.2826 -0.2289
H138 H 0.1345 0.2671 -0.2491
C106 C 0.1645(10) 0.1862(10) -0.3275(7)
H139 H 0.2036 0.1649 -0.3287
H140 H 0.1771 0.2167 -0.3544
H141 H 0.1095 0.1431 -0.3474
C107 C 0.1106(6) 0.0417(5) 0.2424(5)
H142 H 0.0556 0.0371 0.2321
H143 H 0.1054 -0.0088 0.2398
C108 C 0.1596(6) 0.0627(6) 0.1910(5)
H144 H 0.2116 0.0602 0.1986
H145 H 0.1726 0.1172 0.2004
C109 C 0.1153(6) 0.0084(5) 0.1141(5)
H146 H 0.1044 -0.0460 0.1037
H147 H 0.0624 0.0092 0.1065
C110 C 0.1657(6) 0.0339(6) 0.0645(5)
H148 H 0.2159 0.0278 0.0697
H149 H 0.1821 0.0903 0.0796
C111 C 0.1233(6) -0.0112(6) -0.0153(5)
H150 H 0.1081 -0.0676 -0.0316
H151 H 0.0728 -0.0058 -0.0214
C112 C 0.1789(6) 0.0203(6) -0.0590(5)
H152 H 0.2267 0.0101 -0.0556
H153 H 0.1988 0.0777 -0.0384
C113 C 0.1410(6) -0.0136(6) -0.1370(5)
H154 H 0.1216 -0.0710 -0.1582
H155 H 0.0932 -0.0036 -0.1409
C114 C 0.1991(5) 0.0202(5) -0.1784(5)
H156 H 0.2441 0.0054 -0.1786
H157 H 0.2230 0.0780 -0.1544
C115 C 0.1588(6) -0.0076(6) -0.2560(5)
H158 H 0.1345 -0.0654 -0.2806
H159 H 0.1148 0.0083 -0.2566
C116 C 0.2214(6) 0.0279(6) -0.2931(5)
H160 H 0.2437 0.0850 -0.2699
H161 H 0.1954 0.0087 -0.3413
H162 H 0.2653 0.0127 -0.2920
C117 C 0.3749(6) 0.0480(5) 0.3000(5)
H163 H 0.3557 0.0190 0.3283
H164 H 0.4344 0.0800 0.3159
C118 C 0.3540(6) -0.0094(5) 0.2236(5)
H165 H 0.2944 -0.0410 0.2086
H166 H 0.3784 -0.0455 0.2183
C119 C 0.3846(6) 0.0317(5) 0.1759(5)
H167 H 0.3615 0.0691 0.1824
H168 H 0.4445 0.0622 0.1903
C120 C 0.3622(6) -0.0250(5) 0.0980(5)
H169 H 0.3023 -0.0550 0.0831
H170 H 0.3848 -0.0628 0.0912
C121 C 0.3951(6) 0.0186(6) 0.0512(5)
H171 H 0.3733 0.0572 0.0591
H172 H 0.4550 0.0480 0.0660
C122 C 0.3724(7) -0.0364(6) -0.0279(5)
H173 H 0.3943 -0.0749 -0.0359
H174 H 0.3126 -0.0658 -0.0427
C123 C 0.4048(6) 0.0070(6) -0.0735(5)
H175 H 0.3814 0.0441 -0.0668
H176 H 0.4645 0.0379 -0.0577
C124 C 0.3848(6) -0.0479(6) -0.1513(5)
H177 H 0.3251 -0.0785 -0.1673
H178 H 0.4079 -0.0852 -0.1580
C125 C 0.4183(7) -0.0038(7) -0.1970(6)
H179 H 0.4780 0.0269 -0.1813
H180 H 0.3949 0.0333 -0.1910
C126 C 0.3969(7) -0.0620(8) -0.2759(6)
H181 H 0.4097 -0.1051 -0.2810
H182 H 0.4287 -0.0342 -0.3013
H183 H 0.3389 -0.0828 -0.2945
C127 C 0.3515(6) 0.2238(5) 0.2116(5)
H184 H 0.3190 0.1662 0.1888
H185 H 0.4095 0.2352 0.2187
C128 C 0.3354(6) 0.2583(5) 0.1609(5)
H186 H 0.2767 0.2433 0.1499
H187 H 0.3651 0.3161 0.1839
C129 C 0.3645(6) 0.2258(5) 0.0927(5)
H188 H 0.4235 0.2425 0.1043
H189 H 0.3367 0.1680 0.0717
C130 C 0.3483(6) 0.2529(5) 0.0398(5)
H190 H 0.3699 0.3105 0.0627
H191 H 0.2889 0.2304 0.0238
C131 C 0.3865(6) 0.2296(6) -0.0243(5)
H192 H 0.3652 0.1720 -0.0468
H193 H 0.4460 0.2523 -0.0081
C132 C 0.3702(6) 0.2564(6) -0.0797(5)
H194 H 0.3110 0.2299 -0.0992
H195 H 0.3871 0.3134 -0.0566
C133 C 0.4151(6) 0.2388(6) -0.1398(5)
H196 H 0.4741 0.2642 -0.1199
H197 H 0.3971 0.1817 -0.1634
C134 C 0.4016(6) 0.2664(6) -0.1934(5)
H198 H 0.4122 0.3218 -0.1687
H199 H 0.3437 0.2358 -0.2173
C135 C 0.4542(8) 0.2598(7) -0.2492(6)
H200 H 0.4484 0.2887 -0.2749
H201 H 0.5120 0.2852 -0.2256
C136 C 0.4319(8) 0.1763(7) -0.3004(8)
H202 H 0.4262 0.1444 -0.2754
H203 H 0.4746 0.1756 -0.3267
H204 H 0.3803 0.1550 -0.3323
loop_
_geom_bond_atom_site_label_1
_geom_bond_atom_site_label_2
_geom_bond_site_symmetry_1
_geom_bond_site_symmetry_2
Br1 C4 1_555 1_555
Br2 C17 1_555 1_555
Br3 C72 1_555 1_555
Br4 C85 1_555 1_555
O1 C1 1_555 1_555
O2 C13 1_555 1_555
O3 C20 1_555 1_555
O4 C27 1_555 1_555
O5 C69 1_555 1_555
O6 C81 1_555 1_555
O7 C88 1_555 1_555
O8 C95 1_555 1_555
C1 C2 1_555 1_555
C2 C3 1_555 1_555
C3 H1 1_555 1_555
C4 C3 1_555 1_555
C5 C4 1_555 1_555
H2 C5 1_555 1_555
C6 C1 1_555 1_555
C7 C6 1_555 1_555
H3 C7 1_555 1_555
H4 C7 1_555 1_555
C8 C7 1_555 1_555
C9 C8 1_555 1_555
H5 C9 1_555 1_555
C10 C9 1_555 1_555
H6 C10 1_555 1_555
C11 C10 1_555 1_555
H7 C11 1_555 1_555
C12 C11 1_555 1_555
C13 C8 1_555 1_555
C14 C12 1_555 1_555
H8 C14 1_555 1_555
H9 C14 1_555 1_555
C15 C14 1_555 1_555
C16 C15 1_555 1_555
H10 C16 1_555 1_555
C17 C16 1_555 1_555
C18 C17 1_555 1_555
H11 C18 1_555 1_555
C19 C18 1_555 1_555
C20 C15 1_555 1_555
C21 C19 1_555 1_555
H12 C21 1_555 1_555
H13 C21 1_555 1_555
C22 C21 1_555 1_555
C23 C22 1_555 1_555
H14 C23 1_555 1_555
C24 C23 1_555 1_555
H15 C24 1_555 1_555
C25 C24 1_555 1_555
H16 C25 1_555 1_555
C26 C25 1_555 1_555
C27 C22 1_555 1_555
C28 C2 1_555 1_555
H17 C28 1_555 1_555
H18 C28 1_555 1_555
C29 O1 1_555 1_555
H19 C29 1_555 1_555
H20 C29 1_555 1_555
C30 C29 1_555 1_555
H21 C30 1_555 1_555
H22 C30 1_555 1_555
C31 C30 1_555 1_555
H23 C31 1_555 1_555
H24 C31 1_555 1_555
C32 C31 1_555 1_555
H25 C32 1_555 1_555
H26 C32 1_555 1_555
C33 C32 1_555 1_555
H27 C33 1_555 1_555
H28 C33 1_555 1_555
C34 C33 1_555 1_555
H29 C34 1_555 1_555
H30 C34 1_555 1_555
C35 C34 1_555 1_555
H31 C35 1_555 1_555
H32 C35 1_555 1_555
C36 C35 1_555 1_555
H33 C36 1_555 1_555
H34 C36 1_555 1_555
C37 C36 1_555 1_555
H35 C37 1_555 1_555
H36 C37 1_555 1_555
C38 C37 1_555 1_555
H37 C38 1_555 1_555
H38 C38 1_555 1_555
H39 C38 1_555 1_555
C39 O2 1_555 1_555
H40 C39 1_555 1_555
H41 C39 1_555 1_555
C40 C39 1_555 1_555
H42 C40 1_555 1_555
H43 C40 1_555 1_555
C41 C40 1_555 1_555
H44 C41 1_555 1_555
H45 C41 1_555 1_555
C42 C41 1_555 1_555
H46 C42 1_555 1_555
H47 C42 1_555 1_555
C43 C42 1_555 1_555
H48 C43 1_555 1_555
H49 C43 1_555 1_555
C44 C43 1_555 1_555
H50 C44 1_555 1_555
H51 C44 1_555 1_555
C45 C44 1_555 1_555
H52 C45 1_555 1_555
H53 C45 1_555 1_555
C46 C45 1_555 1_555
H54 C46 1_555 1_555
H55 C46 1_555 1_555
C47 C46 1_555 1_555
H56 C47 1_555 1_555
H57 C47 1_555 1_555
C48 C47 1_555 1_555
H58 C48 1_555 1_555
H59 C48 1_555 1_555
H60 C48 1_555 1_555
C49 O3 1_555 1_555
H61 C49 1_555 1_555
H62 C49 1_555 1_555
C50 C49 1_555 1_555
H63 C50 1_555 1_555
H64 C50 1_555 1_555
C51 C50 1_555 1_555
H65 C51 1_555 1_555
H66 C51 1_555 1_555
C52 C51 1_555 1_555
H67 C52 1_555 1_555
H68 C52 1_555 1_555
C53 C52 1_555 1_555
H69 C53 1_555 1_555
H70 C53 1_555 1_555
C54 C53 1_555 1_555
H71 C54 1_555 1_555
H72 C54 1_555 1_555
C55 C54 1_555 1_555
H73 C55 1_555 1_555
H74 C55 1_555 1_555
C56 C55 1_555 1_555
H75 C56 1_555 1_555
H76 C56 1_555 1_555
C57 C56 1_555 1_555
H77 C57 1_555 1_555
H78 C57 1_555 1_555
C58 C57 1_555 1_555
H79 C58 1_555 1_555
H80 C58 1_555 1_555
H81 C58 1_555 1_555
C59 O4 1_555 1_555
H82 C59 1_555 1_555
H83 C59 1_555 1_555
C60 C59 1_555 1_555
H84 C60 1_555 1_555
H85 C60 1_555 1_555
C61 C60 1_555 1_555
H86 C61 1_555 1_555
H87 C61 1_555 1_555
C62 C61 1_555 1_555
H88 C62 1_555 1_555
H89 C62 1_555 1_555
C63 C62 1_555 1_555
H90 C63 1_555 1_555
H91 C63 1_555 1_555
C64 C63 1_555 1_555
H92 C64 1_555 1_555
H93 C64 1_555 1_555
C65 C64 1_555 1_555
H94 C65 1_555 1_555
H95 C65 1_555 1_555
C66 C65 1_555 1_555
H96 C66 1_555 1_555
H97 C66 1_555 1_555
C67 C66 1_555 1_555
H98 C67 1_555 1_555
H99 C67 1_555 1_555
C68 C67 1_555 1_555
H100 C68 1_555 1_555
H101 C68 1_555 1_555
H102 C68 1_555 1_555
C69 C70 1_555 1_555
C70 C71 1_555 1_555
C71 H103 1_555 1_555
C72 C71 1_555 1_555
C73 C72 1_555 1_555
H104 C73 1_555 1_555
C74 C69 1_555 1_555
C75 C74 1_555 1_555
H105 C75 1_555 1_555
H106 C75 1_555 1_555
C76 C75 1_555 1_555
C77 C76 1_555 1_555
H107 C77 1_555 1_555
C78 C77 1_555 1_555
H108 C78 1_555 1_555
C79 C78 1_555 1_555
H109 C79 1_555 1_555
C80 C79 1_555 1_555
C81 C76 1_555 1_555
C82 C80 1_555 1_555
H110 C82 1_555 1_555
H111 C82 1_555 1_555
C83 C82 1_555 1_555
C84 C83 1_555 1_555
H112 C84 1_555 1_555
C85 C84 1_555 1_555
C86 C85 1_555 1_555
H113 C86 1_555 1_555
C87 C86 1_555 1_555
C88 C83 1_555 1_555
C89 C87 1_555 1_555
H114 C89 1_555 1_555
H115 C89 1_555 1_555
C90 C89 1_555 1_555
C91 C90 1_555 1_555
H116 C91 1_555 1_555
C92 C91 1_555 1_555
H117 C92 1_555 1_555
C93 C92 1_555 1_555
H118 C93 1_555 1_555
C94 C93 1_555 1_555
C95 C90 1_555 1_555
C96 C70 1_555 1_555
H119 C96 1_555 1_555
H120 C96 1_555 1_555
C97 O5 1_555 1_555
H121 C97 1_555 1_555
H122 C97 1_555 1_555
C98 C97 1_555 1_555
H123 C98 1_555 1_555
H124 C98 1_555 1_555
C99 C98 1_555 1_555
H125 C99 1_555 1_555
H126 C99 1_555 1_555
C100 C99 1_555 1_555
H127 C100 1_555 1_555
H128 C100 1_555 1_555
C101 C100 1_555 1_555
H129 C101 1_555 1_555
H130 C101 1_555 1_555
C102 C101 1_555 1_555
H131 C102 1_555 1_555
H132 C102 1_555 1_555
C103 C102 1_555 1_555
H133 C103 1_555 1_555
H134 C103 1_555 1_555
C104 C103 1_555 1_555
H135 C104 1_555 1_555
H136 C104 1_555 1_555
C105 C104 1_555 1_555
H137 C105 1_555 1_555
H138 C105 1_555 1_555
C106 C105 1_555 1_555
H139 C106 1_555 1_555
H140 C106 1_555 1_555
H141 C106 1_555 1_555
C107 O6 1_555 1_555
H142 C107 1_555 1_555
H143 C107 1_555 1_555
C108 C107 1_555 1_555
H144 C108 1_555 1_555
H145 C108 1_555 1_555
C109 C108 1_555 1_555
H146 C109 1_555 1_555
H147 C109 1_555 1_555
C110 C109 1_555 1_555
H148 C110 1_555 1_555
H149 C110 1_555 1_555
C111 C110 1_555 1_555
H150 C111 1_555 1_555
H151 C111 1_555 1_555
C112 C111 1_555 1_555
H152 C112 1_555 1_555
H153 C112 1_555 1_555
C113 C112 1_555 1_555
H154 C113 1_555 1_555
H155 C113 1_555 1_555
C114 C113 1_555 1_555
H156 C114 1_555 1_555
H157 C114 1_555 1_555
C115 C114 1_555 1_555
H158 C115 1_555 1_555
H159 C115 1_555 1_555
C116 C115 1_555 1_555
H160 C116 1_555 1_555
H161 C116 1_555 1_555
H162 C116 1_555 1_555
C117 O7 1_555 1_555
H163 C117 1_555 1_555
H164 C117 1_555 1_555
C118 C117 1_555 1_555
H165 C118 1_555 1_555
H166 C118 1_555 1_555
C119 C118 1_555 1_555
H167 C119 1_555 1_555
H168 C119 1_555 1_555
C120 C119 1_555 1_555
H169 C120 1_555 1_555
H170 C120 1_555 1_555
C121 C120 1_555 1_555
H171 C121 1_555 1_555
H172 C121 1_555 1_555
C122 C121 1_555 1_555
H173 C122 1_555 1_555
H174 C122 1_555 1_555
C123 C122 1_555 1_555
H175 C123 1_555 1_555
H176 C123 1_555 1_555
C124 C123 1_555 1_555
H177 C124 1_555 1_555
H178 C124 1_555 1_555
C125 C124 1_555 1_555
H179 C125 1_555 1_555
H180 C125 1_555 1_555
C126 C125 1_555 1_555
H181 C126 1_555 1_555
H182 C126 1_555 1_555
H183 C126 1_555 1_555
C127 O8 1_555 1_555
H184 C127 1_555 1_555
H185 C127 1_555 1_555
C128 C127 1_555 1_555
H186 C128 1_555 1_555
H187 C128 1_555 1_555
C129 C128 1_555 1_555
H188 C129 1_555 1_555
H189 C129 1_555 1_555
C130 C129 1_555 1_555
H190 C130 1_555 1_555
H191 C130 1_555 1_555
C131 C130 1_555 1_555
H192 C131 1_555 1_555
H193 C131 1_555 1_555
C132 C131 1_555 1_555
H194 C132 1_555 1_555
H195 C132 1_555 1_555
C133 C132 1_555 1_555
H196 C133 1_555 1_555
H197 C133 1_555 1_555
C134 C133 1_555 1_555
H198 C134 1_555 1_555
H199 C134 1_555 1_555
C135 C134 1_555 1_555
H200 C135 1_555 1_555
H201 C135 1_555 1_555
C136 C135 1_555 1_555
H202 C136 1_555 1_555
H203 C136 1_555 1_555
H204 C136 1_555 1_555
C5 C6 1_555 1_555
C12 C13 1_555 1_555
C19 C20 1_555 1_555
C26 C27 1_555 1_555
C26 C28 1_555 1_555
C73 C74 1_555 1_555
C80 C81 1_555 1_555
C87 C88 1_555 1_555
C94 C95 1_555 1_555
C94 C96 1_555 1_555

#END
