
#######################################################################
#
#                 Cambridge Crystallographic Data Centre
#                                CCDC 
#
#######################################################################
#
# If this CIF has been generated from an entry in the Cambridge 
# Structural Database, then it will include bibliographic, chemical, 
# crystal, experimental, refinement or atomic coordinate data resulting 
# from the CCDC's data processing and validation procedures.
#
#######################################################################

data_WEBBIO
_chemical_formula_moiety         'C28 H24 N2 O4 S2'
_chemical_name_systematic        
N,N'-(1,2-Ethynylenedi-2,2'-phenylene)-bis(4-methylbenzenesulfonamide)
_symmetry_cell_setting           triclinic
_symmetry_space_group_name_H-M   'P -1'
_symmetry_Int_Tables_number      2
_space_group_name_Hall           '-P 1'
loop_
_symmetry_equiv_pos_site_id
_symmetry_equiv_pos_as_xyz
1 x,y,z
2 -x,-y,-z
_cell_length_a                   8.1358(6)
_cell_length_b                   8.6407(4)
_cell_length_c                   9.6854(5)
_cell_angle_alpha                81.098(4)
_cell_angle_beta                 87.352(5)
_cell_angle_gamma                72.702(5)
_cell_volume                     642.248
_exptl_crystal_colour            tan
_cell_formula_units_Z            1
loop_
_atom_site_label
_atom_site_type_symbol
_atom_site_fract_x
_atom_site_fract_y
_atom_site_fract_z
S1 S 0.08659(4) 0.33167(5) 0.71043(4)
O1 O 0.0951(2) 0.1814(2) 0.7978(1)
O2 O -0.0705(1) 0.4233(2) 0.6391(1)
N1 N 0.2298(2) 0.2928(2) 0.5868(1)
C1 C 0.4032(2) 0.1948(2) 0.6157(2)
C2 C 0.4375(3) 0.0322(2) 0.6728(2)
C3 C 0.6049(3) -0.0648(3) 0.6956(2)
C4 C 0.7389(3) -0.0026(3) 0.6582(2)
C5 C 0.7075(2) 0.1574(2) 0.5998(2)
C6 C 0.5394(2) 0.2613(2) 0.5796(2)
C7 C 0.5100(2) 0.4299(2) 0.5229(2)
C8 C 0.1478(2) 0.4602(2) 0.8091(2)
C9 C 0.1188(2) 0.6232(2) 0.7534(2)
C10 C 0.1650(2) 0.7267(2) 0.8282(2)
C11 C 0.2409(2) 0.6710(2) 0.9579(2)
C12 C 0.2691(3) 0.5085(3) 1.0112(2)
C13 C 0.2222(2) 0.4012(2) 0.9385(2)
C14 C 0.2897(3) 0.7873(3) 1.0375(2)
H1 H 0.213(2) 0.362(2) 0.527(2)
H2 H 0.355(2) -0.010(3) 0.696(2)
H3 H 0.623(2) -0.177(3) 0.729(2)
H4 H 0.856(3) -0.068(3) 0.680(3)
H5 H 0.790(3) 0.198(3) 0.573(2)
H6 H 0.059(2) 0.671(3) 0.657(2)
H7 H 0.140(2) 0.841(3) 0.794(2)
H8 H 0.316(2) 0.463(3) 1.104(2)
H9 H 0.239(2) 0.293(2) 0.972(2)
H10 H 0.361(3) 0.846(3) 0.981(3)
H11 H 0.343(3) 0.722(3) 1.114(2)
H12 H 0.193(4) 0.862(4) 1.081(3)
C7A C 0.4900(2) 0.5701(2) 0.4771(2)
C6A C 0.4606(2) 0.7387(2) 0.4204(2)
C1A C 0.5968(2) 0.8052(2) 0.3843(2)
C5A C 0.2925(2) 0.8426(2) 0.4002(2)
N1A N 0.7702(2) 0.7072(2) 0.4132(1)
C2A C 0.5625(3) 0.9678(2) 0.3272(2)
C4A C 0.2611(3) 1.0026(3) 0.3418(2)
H5A H 0.210(3) 0.802(3) 0.427(2)
S1A S 0.91341(4) 0.66833(5) 0.28957(4)
H1A H 0.787(2) 0.638(2) 0.473(2)
C3A C 0.3951(3) 1.0648(3) 0.3044(2)
H2A H 0.645(2) 1.010(3) 0.304(2)
H4A H 0.144(3) 1.068(3) 0.320(3)
O1A O 0.9049(2) 0.8186(2) 0.2022(1)
O2A O 1.0705(1) 0.5767(2) 0.3609(1)
C8A C 0.8522(2) 0.5398(2) 0.1909(2)
H3A H 0.377(2) 1.177(3) 0.271(2)
C9A C 0.8812(2) 0.3768(2) 0.2466(2)
C13A C 0.7778(2) 0.5988(2) 0.0615(2)
C10A C 0.8350(2) 0.2733(2) 0.1718(2)
H6A H 0.941(2) 0.329(3) 0.343(2)
C12A C 0.7309(3) 0.4915(3) -0.0112(2)
H9A H 0.761(2) 0.707(2) 0.028(2)
C11A C 0.7591(2) 0.3290(2) 0.0421(2)
H7A H 0.860(2) 0.159(3) 0.206(2)
H8A H 0.684(2) 0.537(3) -0.104(2)
C14A C 0.7103(3) 0.2127(3) -0.0375(2)
H10A H 0.639(3) 0.154(3) 0.019(3)
H11A H 0.657(3) 0.278(3) -0.114(2)
H12A H 0.807(4) 0.138(4) -0.081(3)
loop_
_geom_bond_atom_site_label_1
_geom_bond_atom_site_label_2
_geom_bond_site_symmetry_1
_geom_bond_site_symmetry_2
S1 O1 1_555 1_555
O2 S1 1_555 1_555
N1 S1 1_555 1_555
C1 N1 1_555 1_555
C2 C1 1_555 1_555
C3 C2 1_555 1_555
C4 C3 1_555 1_555
C5 C4 1_555 1_555
C6 C1 1_555 1_555
C7 C6 1_555 1_555
C8 S1 1_555 1_555
C9 C8 1_555 1_555
C10 C9 1_555 1_555
C11 C10 1_555 1_555
C12 C11 1_555 1_555
C13 C8 1_555 1_555
C14 C11 1_555 1_555
H1 N1 1_555 1_555
H2 C2 1_555 1_555
H3 C3 1_555 1_555
H4 C4 1_555 1_555
H5 C5 1_555 1_555
H6 C9 1_555 1_555
H7 C10 1_555 1_555
H8 C12 1_555 1_555
H9 C13 1_555 1_555
H10 C14 1_555 1_555
H11 C14 1_555 1_555
H12 C14 1_555 1_555
C7A C7 1_555 1_555
C6A C7A 1_555 1_555
C1A C6A 1_555 1_555
C5A C6A 1_555 1_555
N1A C1A 1_555 1_555
C2A C1A 1_555 1_555
C4A C5A 1_555 1_555
H5A C5A 1_555 1_555
S1A N1A 1_555 1_555
H1A N1A 1_555 1_555
C3A C2A 1_555 1_555
H2A C2A 1_555 1_555
H4A C4A 1_555 1_555
O1A S1A 1_555 1_555
O2A S1A 1_555 1_555
C8A S1A 1_555 1_555
H3A C3A 1_555 1_555
C9A C8A 1_555 1_555
C13A C8A 1_555 1_555
C10A C9A 1_555 1_555
H6A C9A 1_555 1_555
C12A C13A 1_555 1_555
H9A C13A 1_555 1_555
C11A C10A 1_555 1_555
H7A C10A 1_555 1_555
H8A C12A 1_555 1_555
C14A C11A 1_555 1_555
H10A C14A 1_555 1_555
H11A C14A 1_555 1_555
H12A C14A 1_555 1_555
C5 C6 1_555 1_555
C12 C13 1_555 1_555
C4A C3A 1_555 1_555
C12A C11A 1_555 1_555

#END
