
#######################################################################
#
#                 Cambridge Crystallographic Data Centre
#                                CCDC 
#
#######################################################################
#
# If this CIF has been generated from an entry in the Cambridge 
# Structural Database, then it will include bibliographic, chemical, 
# crystal, experimental, refinement or atomic coordinate data resulting 
# from the CCDC's data processing and validation procedures.
#
#######################################################################

data_WEBLAS
_chemical_formula_moiety         'C26 H30 N2'
_chemical_name_systematic        2,6-Di-t-butyl-4,8-diphenyl-1,5-diazocine
_symmetry_cell_setting           monoclinic
_symmetry_space_group_name_H-M   'C c'
_symmetry_Int_Tables_number      9
_space_group_name_Hall           'C -2yc'
loop_
_symmetry_equiv_pos_site_id
_symmetry_equiv_pos_as_xyz
1 x,y,z
2 x,-y,1/2+z
3 1/2+x,1/2+y,z
4 1/2+x,1/2-y,1/2+z
_cell_length_a                   19.009(4)
_cell_length_b                   15.288(3)
_cell_length_c                   7.6842(15)
_cell_angle_alpha                90
_cell_angle_beta                 95.16(3)
_cell_angle_gamma                90
_cell_volume                     2224.05
_cell_formula_units_Z            4
loop_
_atom_site_label
_atom_site_type_symbol
_atom_site_fract_x
_atom_site_fract_y
_atom_site_fract_z
C1 C 0.9450(4) 0.7817(5) 0.2784(9)
C2 C 1.0140(4) 0.7730(5) 0.3264(9)
H1 H 1.0342 0.8078 0.4204
C3 C 1.0605(3) 0.7120(5) 0.2411(9)
C4 C 1.0388(3) 0.7872(5) -0.0329(8)
C5 C 0.9676(3) 0.7890(5) -0.0757(9)
H2 H 0.9489 0.8321 -0.1561
C6 C 0.9174(3) 0.7262(4) -0.0018(10)
C7 C 0.8741(3) 0.6628(5) -0.1327(9)
C8 C 0.8056(4) 0.7163(6) -0.1938(12)
H3 H 0.7713 0.6777 -0.2586
H4 H 0.8178 0.7645 -0.2696
H5 H 0.7849 0.7399 -0.0914
C9 C 0.8544(4) 0.5796(5) -0.0378(10)
H6 H 0.8209 0.5452 -0.1143
H7 H 0.8327 0.5954 0.0688
H8 H 0.8971 0.5449 -0.0070
C10 C 0.9117(4) 0.6404(6) -0.2933(10)
H9 H 0.9513 0.6011 -0.2600
H10 H 0.9295 0.6941 -0.3434
H11 H 0.8786 0.6115 -0.3800
C11 C 1.0934(4) 0.6352(5) 0.3450(8)
C12 C 1.1209(3) 0.6649(5) 0.5238(8)
H12 H 1.1682 0.6899 0.5195
H13 H 1.1233 0.6149 0.6039
H14 H 1.0891 0.7093 0.5651
C13 C 1.1533(3) 0.5937(5) 0.2548(10)
H15 H 1.1908 0.6369 0.2450
H16 H 1.1354 0.5739 0.1378
H17 H 1.1722 0.5436 0.3235
C14 C 1.0328(3) 0.5677(5) 0.3555(10)
H18 H 1.0494 0.5194 0.4324
H19 H 1.0186 0.5449 0.2384
H20 H 0.9924 0.5962 0.4024
C15 C 1.0881(4) 0.8467(6) -0.1084(9)
C16 C 1.0655(4) 0.9248(6) -0.1797(9)
H21 H 1.0174 0.9408 -0.1765
C17 C 1.1125(5) 0.9839(6) -0.2596(10)
H22 H 1.0962 1.0376 -0.3108
C18 C 1.1831(4) 0.9582(6) -0.2577(11)
H23 H 1.2156 0.9942 -0.3117
C19 C 1.2068(4) 0.8791(7) -0.1763(11)
H24 H 1.2551 0.8625 -0.1701
C20 C 1.1592(4) 0.8293(6) -0.1093(9)
H25 H 1.1756 0.7761 -0.0565
C21 C 0.8970(3) 0.8434(5) 0.3623(9)
C22 C 0.8225(4) 0.8320(6) 0.3355(10)
H26 H 0.8032 0.7851 0.2655
C23 C 0.7777(4) 0.8907(6) 0.4135(11)
H27 H 0.7279 0.8837 0.3959
C24 C 0.8069(4) 0.9599(6) 0.5178(10)
H28 H 0.7769 0.9980 0.5750
C25 C 0.8815(4) 0.9728(6) 0.5372(12)
H29 H 0.9007 1.0219 0.6007
C26 C 0.9263(4) 0.9141(5) 0.4641(9)
H30 H 0.9760 0.9213 0.4821
N1 N 0.9074(3) 0.7211(4) 0.1551(7)
N2 N 1.0710(3) 0.7188(4) 0.0776(9)
loop_
_geom_bond_atom_site_label_1
_geom_bond_atom_site_label_2
_geom_bond_site_symmetry_1
_geom_bond_site_symmetry_2
C1 C2 1_555 1_555
C2 H1 1_555 1_555
C3 C2 1_555 1_555
C4 C5 1_555 1_555
C5 H2 1_555 1_555
C6 C5 1_555 1_555
C7 C6 1_555 1_555
C8 C7 1_555 1_555
H3 C8 1_555 1_555
H4 C8 1_555 1_555
H5 C8 1_555 1_555
C9 C7 1_555 1_555
H6 C9 1_555 1_555
H7 C9 1_555 1_555
H8 C9 1_555 1_555
C10 C7 1_555 1_555
H9 C10 1_555 1_555
H10 C10 1_555 1_555
H11 C10 1_555 1_555
C11 C3 1_555 1_555
C12 C11 1_555 1_555
H12 C12 1_555 1_555
H13 C12 1_555 1_555
H14 C12 1_555 1_555
C13 C11 1_555 1_555
H15 C13 1_555 1_555
H16 C13 1_555 1_555
H17 C13 1_555 1_555
C14 C11 1_555 1_555
H18 C14 1_555 1_555
H19 C14 1_555 1_555
H20 C14 1_555 1_555
C15 C4 1_555 1_555
C16 C15 1_555 1_555
H21 C16 1_555 1_555
C17 C16 1_555 1_555
H22 C17 1_555 1_555
C18 C17 1_555 1_555
H23 C18 1_555 1_555
C19 C18 1_555 1_555
H24 C19 1_555 1_555
C20 C15 1_555 1_555
H25 C20 1_555 1_555
C21 C1 1_555 1_555
C22 C21 1_555 1_555
H26 C22 1_555 1_555
C23 C22 1_555 1_555
H27 C23 1_555 1_555
C24 C23 1_555 1_555
H28 C24 1_555 1_555
C25 C24 1_555 1_555
H29 C25 1_555 1_555
C26 C21 1_555 1_555
H30 C26 1_555 1_555
N1 C1 1_555 1_555
N2 C3 1_555 1_555
C4 N2 1_555 1_555
C6 N1 1_555 1_555
C19 C20 1_555 1_555
C25 C26 1_555 1_555

#END
