
#######################################################################
#
#                 Cambridge Crystallographic Data Centre
#                                CCDC 
#
#######################################################################
#
# If this CIF has been generated from an entry in the Cambridge 
# Structural Database, then it will include bibliographic, chemical, 
# crystal, experimental, refinement or atomic coordinate data resulting 
# from the CCDC's data processing and validation procedures.
#
#######################################################################

data_WEBSED
_chemical_formula_moiety         'C23 H20 Br1 N1 O4 S2'
_chemical_name_systematic        
'Ethyl 10-(4-bromophenyl)-4,8-dioxo-3-phenyl-2-thioxo-1-thia-3-azaspiro[4.5]decane-6-carboxylate'
_symmetry_cell_setting           monoclinic
_symmetry_space_group_name_H-M   'P 21'
_symmetry_Int_Tables_number      4
_space_group_name_Hall           'P 2yb'
loop_
_symmetry_equiv_pos_site_id
_symmetry_equiv_pos_as_xyz
1 x,y,z
2 -x,1/2+y,-z
_cell_length_a                   9.9316(8)
_cell_length_b                   8.1197(7)
_cell_length_c                   14.0243(12)
_cell_angle_alpha                90
_cell_angle_beta                 92.344(2)
_cell_angle_gamma                90
_cell_volume                     1130
_exptl_crystal_colour            green
_exptl_crystal_description       prismatic
_cell_formula_units_Z            2
loop_
_atom_site_label
_atom_site_type_symbol
_atom_site_fract_x
_atom_site_fract_y
_atom_site_fract_z
Br1 Br 1.19315(5) -0.07912(7) 0.65428(3)
S1 S 0.61794(12) -0.07354(11) 0.82326(7)
S2 S 0.54906(7) 0.19238(8) 0.68691(5)
N1 N 0.7174(2) 0.2319(3) 0.82939(17)
O1 O 0.7807(2) 0.5005(3) 0.81901(16)
O2 O 0.6266(3) 0.8045(3) 0.5109(2)
O3 O 0.2976(3) 0.5192(4) 0.7260(2)
O4 O 0.4432(2) 0.4383(3) 0.84200(16)
C1 C 0.6369(3) 0.1147(4) 0.7867(2)
C2 C 0.7183(3) 0.3859(3) 0.78761(18)
C3 C 0.6317(3) 0.3939(3) 0.69494(18)
C4 C 0.7232(3) 0.4148(4) 0.60711(18)
H1 H 0.6687 0.3801 0.5508
C5 C 0.7554(3) 0.5979(4) 0.5927(2)
H2 H 0.7948 0.6437 0.6513
H3 H 0.8199 0.6099 0.5431
C6 C 0.6282(4) 0.6882(4) 0.5650(2)
C7 C 0.5019(3) 0.6234(4) 0.6077(2)
H4 H 0.4589 0.5446 0.5643
H5 H 0.4395 0.7136 0.6164
C8 C 0.5339(3) 0.5411(3) 0.7031(2)
H6 H 0.5824 0.6235 0.7422
C9 C 0.4098(3) 0.4997(4) 0.7556(3)
C10 C 0.3355(4) 0.3862(6) 0.9028(3)
H7 H 0.3409 0.4486 0.9618
H8 H 0.2491 0.4093 0.8710
C11 C 0.3444(6) 0.2135(6) 0.9243(5)
H9 H 0.3309 0.1511 0.8666
H10 H 0.2764 0.1847 0.9681
H11 H 0.4318 0.1893 0.9526
C12 C 0.7895(3) 0.2095(3) 0.9204(2)
C13 C 0.7407(3) 0.2882(4) 0.9980(2)
H12 H 0.6611 0.3483 0.9927
C14 C 0.8118(4) 0.2768(5) 1.0846(3)
H13 H 0.7805 0.3309 1.1378
C15 C 0.9277(4) 0.1866(5) 1.0924(3)
H14 H 0.9754 0.1796 1.1508
C16 C 0.9739(4) 0.1063(5) 1.0141(3)
H15 H 1.0521 0.0435 1.0197
C17 C 0.9050(3) 0.1184(5) 0.9274(3)
H16 H 0.9367 0.0652 0.8740
C18 C 0.8449(3) 0.3011(4) 0.6133(2)
C19 C 0.9654(3) 0.3458(4) 0.6585(2)
H17 H 0.9762 0.4521 0.6822
C20 C 1.0704(3) 0.2346(6) 0.6690(3)
H18 H 1.1517 0.2661 0.6988
C21 C 1.0534(3) 0.0781(5) 0.6350(2)
C22 C 0.9377(3) 0.0318(4) 0.5859(3)
H19 H 0.9293 -0.0733 0.5600
C23 C 0.8341(3) 0.1439(4) 0.5755(2)
H20 H 0.7550 0.1133 0.5424
loop_
_geom_bond_atom_site_label_1
_geom_bond_atom_site_label_2
_geom_bond_site_symmetry_1
_geom_bond_site_symmetry_2
Br1 C21 1_555 1_555
S1 C1 1_555 1_555
S2 C1 1_555 1_555
N1 C1 1_555 1_555
O1 C2 1_555 1_555
O2 C6 1_555 1_555
O3 C9 1_555 1_555
O4 C9 1_555 1_555
C2 N1 1_555 1_555
C3 S2 1_555 1_555
C4 C3 1_555 1_555
H1 C4 1_555 1_555
C5 C4 1_555 1_555
H2 C5 1_555 1_555
H3 C5 1_555 1_555
C6 C5 1_555 1_555
C7 C6 1_555 1_555
H4 C7 1_555 1_555
H5 C7 1_555 1_555
C8 C3 1_555 1_555
H6 C8 1_555 1_555
C9 C8 1_555 1_555
C10 O4 1_555 1_555
H7 C10 1_555 1_555
H8 C10 1_555 1_555
C11 C10 1_555 1_555
H9 C11 1_555 1_555
H10 C11 1_555 1_555
H11 C11 1_555 1_555
C12 N1 1_555 1_555
C13 C12 1_555 1_555
H12 C13 1_555 1_555
C14 C13 1_555 1_555
H13 C14 1_555 1_555
C15 C14 1_555 1_555
H14 C15 1_555 1_555
C16 C15 1_555 1_555
H15 C16 1_555 1_555
C17 C12 1_555 1_555
H16 C17 1_555 1_555
C18 C4 1_555 1_555
C19 C18 1_555 1_555
H17 C19 1_555 1_555
C20 C19 1_555 1_555
H18 C20 1_555 1_555
C21 C20 1_555 1_555
C22 C21 1_555 1_555
H19 C22 1_555 1_555
C23 C18 1_555 1_555
H20 C23 1_555 1_555
C2 C3 1_555 1_555
C7 C8 1_555 1_555
C16 C17 1_555 1_555
C22 C23 1_555 1_555

#END
