
#######################################################################
#
#                 Cambridge Crystallographic Data Centre
#                                CCDC 
#
#######################################################################
#
# If this CIF has been generated from an entry in the Cambridge 
# Structural Database, then it will include bibliographic, chemical, 
# crystal, experimental, refinement or atomic coordinate data resulting 
# from the CCDC's data processing and validation procedures.
#
#######################################################################

data_WEBSIH
_chemical_formula_moiety         'C28 H33 N2 1+,C1 F3 O3 S1 1-'
_chemical_name_systematic        
'1,3-Dimesityl-5-methyl-4-phenyl-4,5-dihydro-1H-imidazol-3-ium trifluoromethanesulfonate'
_symmetry_cell_setting           orthorhombic
_symmetry_space_group_name_H-M   'P 21 21 21'
_symmetry_Int_Tables_number      19
_space_group_name_Hall           'P 2ac 2ab'
loop_
_symmetry_equiv_pos_site_id
_symmetry_equiv_pos_as_xyz
1 x,y,z
2 1/2-x,-y,1/2+z
3 -x,1/2+y,1/2-z
4 1/2+x,1/2-y,-z
_cell_length_a                   11.6191(11)
_cell_length_b                   14.5312(14)
_cell_length_c                   17.0220(16)
_cell_angle_alpha                90
_cell_angle_beta                 90
_cell_angle_gamma                90
_cell_volume                     2873.99
_exptl_crystal_colour            colorless
_exptl_crystal_description       block
_cell_formula_units_Z            4
loop_
_atom_site_label
_atom_site_type_symbol
_atom_site_fract_x
_atom_site_fract_y
_atom_site_fract_z
S1 S 0.3994(2) 0.54720(17) 0.03983(17)
O1 O 0.3307(8) 0.6137(6) 0.0079(9)
O2 O 0.3677(15) 0.5155(8) 0.1151(5)
O3 O 0.5204(6) 0.5683(6) 0.0351(4)
F1 F 0.4122(10) 0.4597(8) -0.0869(5)
F2 F 0.4326(8) 0.3757(5) 0.0110(7)
F3 F 0.2697(6) 0.4211(5) -0.0178(5)
C1 C 0.3785(11) 0.4466(11) -0.0144(6)
N1 N 0.0611(4) 0.7054(4) 0.1378(3)
N2 N -0.0088(5) 0.6251(4) 0.0395(3)
C2 C 0.1410(6) 0.7348(4) 0.1967(4)
C3 C 0.1835(7) 0.6723(5) 0.2493(5)
C4 C 0.2546(8) 0.7046(7) 0.3102(5)
H1 H 0.2874 0.6627 0.3449
C5 C 0.2767(8) 0.7973(7) 0.3195(6)
C6 C 0.2331(8) 0.8570(6) 0.2662(5)
H2 H 0.2485 0.9194 0.2722
C7 C 0.1669(7) 0.8293(5) 0.2033(5)
C8 C 0.3476(12) 0.8288(8) 0.3892(7)
H3 H 0.3693 0.7764 0.4202
H4 H 0.3030 0.8704 0.4207
H5 H 0.4156 0.8596 0.3708
C9 C 0.1321(9) 0.8982(5) 0.1455(6)
H6 H 0.1588 0.9577 0.1618
H7 H 0.0497 0.8989 0.1413
H8 H 0.1650 0.8832 0.0953
C10 C 0.1703(9) 0.5693(5) 0.2407(5)
H9 H 0.2063 0.5391 0.2844
H10 H 0.2062 0.5496 0.1928
H11 H 0.0900 0.5538 0.2395
C11 C -0.0102(6) 0.5661(4) -0.0284(4)
C12 C -0.0095(6) 0.6046(5) -0.1014(4)
C13 C -0.0149(7) 0.5463(6) -0.1663(5)
H12 H -0.0119 0.5717 -0.2164
C14 C -0.0245(6) 0.4520(6) -0.1584(5)
C15 C -0.0249(7) 0.4151(5) -0.0831(5)
H13 H -0.0310 0.3516 -0.0772
C16 C -0.0166(6) 0.4693(4) -0.0167(4)
C17 C 0.0065(12) 0.7058(5) -0.1124(5)
H14 H 0.0089 0.7355 -0.0620
H15 H -0.0565 0.7301 -0.1425
H16 H 0.0774 0.7169 -0.1398
C18 C -0.0383(8) 0.3931(7) -0.2306(5)
H17 H -0.0364 0.4313 -0.2766
H18 H -0.1106 0.3612 -0.2283
H19 H 0.0233 0.3491 -0.2330
C19 C -0.0114(10) 0.4258(6) 0.0629(5)
H20 H -0.0170 0.3602 0.0577
H21 H -0.0740 0.4480 0.0944
H22 H 0.0603 0.4414 0.0877
C20 C -0.0620(6) 0.7392(4) 0.1320(4)
H23 H -0.0600 0.8016 0.1103
C21 C -0.1132(7) 0.6748(5) 0.0679(4)
H24 H -0.1429 0.7129 0.0249
C22 C 0.0806(7) 0.6459(4) 0.0831(4)
H25 H 0.1527 0.6197 0.0752
C23 C -0.2069(7) 0.6095(7) 0.0937(6)
H26 H -0.2329 0.5743 0.0493
H27 H -0.2701 0.6439 0.1150
H28 H -0.1773 0.5686 0.1331
C24 C -0.1227(6) 0.7440(5) 0.2105(4)
C25 C -0.1104(8) 0.6774(6) 0.2691(5)
H29 H -0.0645 0.6261 0.2599
C26 C -0.1650(10) 0.6869(8) 0.3396(6)
H30 H -0.1546 0.6434 0.3790
C27 C -0.2346(11) 0.7603(10) 0.3515(7)
H31 H -0.2727 0.7658 0.3993
C28 C -0.2501(10) 0.8247(7) 0.2970(8)
H32 H -0.2995 0.8738 0.3068
C29 C -0.1920(8) 0.8188(5) 0.2245(6)
H33 H -0.2005 0.8647 0.1868
loop_
_geom_bond_atom_site_label_1
_geom_bond_atom_site_label_2
_geom_bond_site_symmetry_1
_geom_bond_site_symmetry_2
S1 O1 1_555 1_555
O2 S1 1_555 1_555
O3 S1 1_555 1_555
F1 C1 1_555 1_555
F2 C1 1_555 1_555
F3 C1 1_555 1_555
C1 S1 1_555 1_555
N1 C2 1_555 1_555
N2 C11 1_555 1_555
C2 C3 1_555 1_555
C3 C4 1_555 1_555
C4 H1 1_555 1_555
C5 C4 1_555 1_555
C6 C5 1_555 1_555
H2 C6 1_555 1_555
C7 C2 1_555 1_555
C8 C5 1_555 1_555
H3 C8 1_555 1_555
H4 C8 1_555 1_555
H5 C8 1_555 1_555
C9 C7 1_555 1_555
H6 C9 1_555 1_555
H7 C9 1_555 1_555
H8 C9 1_555 1_555
C10 C3 1_555 1_555
H9 C10 1_555 1_555
H10 C10 1_555 1_555
H11 C10 1_555 1_555
C11 C12 1_555 1_555
C12 C13 1_555 1_555
C13 H12 1_555 1_555
C14 C13 1_555 1_555
C15 C14 1_555 1_555
H13 C15 1_555 1_555
C16 C11 1_555 1_555
C17 C12 1_555 1_555
H14 C17 1_555 1_555
H15 C17 1_555 1_555
H16 C17 1_555 1_555
C18 C14 1_555 1_555
H17 C18 1_555 1_555
H18 C18 1_555 1_555
H19 C18 1_555 1_555
C19 C16 1_555 1_555
H20 C19 1_555 1_555
H21 C19 1_555 1_555
H22 C19 1_555 1_555
C20 N1 1_555 1_555
H23 C20 1_555 1_555
C21 N2 1_555 1_555
H24 C21 1_555 1_555
C22 N1 1_555 1_555
H25 C22 1_555 1_555
C23 C21 1_555 1_555
H26 C23 1_555 1_555
H27 C23 1_555 1_555
H28 C23 1_555 1_555
C24 C20 1_555 1_555
C25 C24 1_555 1_555
H29 C25 1_555 1_555
C26 C25 1_555 1_555
H30 C26 1_555 1_555
C27 C26 1_555 1_555
H31 C27 1_555 1_555
C28 C27 1_555 1_555
H32 C28 1_555 1_555
C29 C24 1_555 1_555
H33 C29 1_555 1_555
N2 C22 1_555 1_555
C6 C7 1_555 1_555
C15 C16 1_555 1_555
C20 C21 1_555 1_555
C28 C29 1_555 1_555

#END
