
#######################################################################
#
#                 Cambridge Crystallographic Data Centre
#                                CCDC 
#
#######################################################################
#
# If this CIF has been generated from an entry in the Cambridge 
# Structural Database, then it will include bibliographic, chemical, 
# crystal, experimental, refinement or atomic coordinate data resulting 
# from the CCDC's data processing and validation procedures.
#
#######################################################################

data_WEBTII
_chemical_formula_moiety         'C33 H35 N2 1+,C1 F3 O3 S1 1-'
_chemical_name_systematic        
'1,3-Dimesityl-4,5-diphenyl-4,5-dihydro-1H-imidazol-3-ium trifluoromethanesulfonate'
_symmetry_cell_setting           monoclinic
_symmetry_space_group_name_H-M   'P 21/c'
_symmetry_Int_Tables_number      14
_space_group_name_Hall           '-P 2ybc'
loop_
_symmetry_equiv_pos_site_id
_symmetry_equiv_pos_as_xyz
1 x,y,z
2 -x,1/2+y,1/2-z
3 -x,-y,-z
4 x,1/2-y,1/2+z
_cell_length_a                   9.301(4)
_cell_length_b                   16.385(8)
_cell_length_c                   20.954(10)
_cell_angle_alpha                90
_cell_angle_beta                 101.758(7)
_cell_angle_gamma                90
_cell_volume                     3126.32
_exptl_crystal_colour            colorless
_exptl_crystal_description       rod
_cell_formula_units_Z            4
loop_
_atom_site_label
_atom_site_type_symbol
_atom_site_fract_x
_atom_site_fract_y
_atom_site_fract_z
S1 S 0.87461(10) 0.73313(6) 0.44565(4)
F1 F 0.8368(3) 0.68720(19) 0.55932(13)
F2 F 0.7401(5) 0.6109(2) 0.48393(16)
F3 F 0.9702(4) 0.6106(2) 0.51984(18)
O1 O 1.0042(3) 0.77405(18) 0.47478(13)
O2 O 0.8889(3) 0.6875(2) 0.38965(13)
O3 O 0.7434(3) 0.77804(19) 0.43921(14)
C34 C 0.8549(5) 0.6547(3) 0.5036(2)
N1 N 0.6560(2) 0.22666(15) 0.14031(11)
N2 N 0.6800(3) 0.35802(14) 0.12382(11)
C1 C 0.5930(3) 0.29462(19) 0.11769(14)
H1 H 0.497(2) 0.2975(15) 0.0973(12)
C2 C 0.8162(3) 0.24033(18) 0.16757(14)
H2 H 0.8715 0.2084 0.1412
C3 C 0.8348(3) 0.33196(18) 0.15179(15)
H3 H 0.8900 0.3347 0.1167
C4 C 0.5882(3) 0.14730(17) 0.13656(14)
C5 C 0.6262(3) 0.09083(18) 0.09294(14)
C6 C 0.5678(3) 0.01297(19) 0.09239(15)
H4 H 0.5912 -0.0253 0.0634
C7 C 0.4766(4) -0.00961(19) 0.13332(16)
C8 C 0.4385(4) 0.0489(2) 0.17443(16)
H5 H 0.3747 0.0345 0.2015
C9 C 0.4913(3) 0.12765(19) 0.17695(15)
C10 C 0.7248(4) 0.1118(2) 0.04693(16)
H6 H 0.7049 0.1665 0.0312
H7 H 0.7072 0.0745 0.0108
H8 H 0.8254 0.1077 0.0693
C11 C 0.4196(4) -0.0960(2) 0.13273(19)
H9 H 0.4563 -0.1274 0.1008
H10 H 0.3142 -0.0955 0.1221
H11 H 0.4521 -0.1201 0.1750
C12 C 0.4361(4) 0.1881(2) 0.22056(17)
H12 H 0.4935 0.2372 0.2233
H13 H 0.4447 0.1651 0.2633
H14 H 0.3350 0.2006 0.2028
C13 C 0.8627(3) 0.21192(18) 0.23714(15)
C14 C 0.9768(4) 0.1582(2) 0.25160(18)
H15 H 1.0218 0.1398 0.2185
C15 C 1.0266(6) 0.1306(3) 0.3145(2)
H16 H 1.1034 0.0933 0.3234
C16 C 0.9631(6) 0.1583(3) 0.3635(2)
H17 H 0.9963 0.1397 0.4059
C17 C 0.8509(5) 0.2133(3) 0.35033(18)
H18 H 0.8089 0.2331 0.3839
C18 C 0.7998(4) 0.2394(2) 0.28725(17)
H19 H 0.7218 0.2760 0.2784
C19 C 0.9150(3) 0.38228(19) 0.20711(15)
C20 C 1.0665(4) 0.3750(3) 0.22159(19)
H20 H 1.1144 0.3451 0.1945
C21 C 1.1453(5) 0.4124(3) 0.2763(2)
H21 H 1.2470 0.4076 0.2858
C22 C 1.0779(5) 0.4562(3) 0.3169(2)
H22 H 1.1329 0.4801 0.3543
C23 C 0.9300(4) 0.4646(2) 0.30246(17)
H23 H 0.8831 0.4953 0.3295
C24 C 0.8492(4) 0.4277(2) 0.24778(16)
H24 H 0.7477 0.4338 0.2383
C25 C 0.6328(3) 0.44064(17) 0.10608(13)
C26 C 0.5177(3) 0.47424(18) 0.13158(14)
C27 C 0.4796(4) 0.5541(2) 0.11657(16)
H25 H 0.4035 0.5770 0.1333
C28 C 0.5489(4) 0.60137(19) 0.07805(17)
C29 C 0.6595(4) 0.5657(2) 0.05228(15)
H26 H 0.7066 0.5967 0.0255
C30 C 0.7021(3) 0.48584(19) 0.06511(14)
C31 C 0.4331(4) 0.4275(2) 0.17396(16)
H27 H 0.3870 0.4652 0.1986
H28 H 0.4991 0.3929 0.2032
H29 H 0.3593 0.3947 0.1470
C32 C 0.5084(5) 0.6896(2) 0.0646(2)
H30 H 0.4072 0.6934 0.0430
H31 H 0.5691 0.7126 0.0372
H32 H 0.5231 0.7192 0.1049
C33 C 0.8226(4) 0.4517(2) 0.03341(17)
H33 H 0.8308 0.4845 -0.0036
H34 H 0.7987 0.3966 0.0195
H35 H 0.9142 0.4523 0.0643
loop_
_geom_bond_atom_site_label_1
_geom_bond_atom_site_label_2
_geom_bond_site_symmetry_1
_geom_bond_site_symmetry_2
S1 O1 1_555 1_555
N1 C1 1_555 1_555
N2 C1 1_555 1_555
F1 C34 1_555 1_555
F2 C34 1_555 1_555
F3 C34 1_555 1_555
O2 S1 1_555 1_555
O3 S1 1_555 1_555
C1 H1 1_555 1_555
C2 N1 1_555 1_555
H2 C2 1_555 1_555
C3 N2 1_555 1_555
H3 C3 1_555 1_555
C4 N1 1_555 1_555
C5 C4 1_555 1_555
C6 C5 1_555 1_555
H4 C6 1_555 1_555
C7 C6 1_555 1_555
C8 C7 1_555 1_555
H5 C8 1_555 1_555
C9 C4 1_555 1_555
C10 C5 1_555 1_555
H6 C10 1_555 1_555
H7 C10 1_555 1_555
H8 C10 1_555 1_555
C11 C7 1_555 1_555
H9 C11 1_555 1_555
H10 C11 1_555 1_555
H11 C11 1_555 1_555
C12 C9 1_555 1_555
H12 C12 1_555 1_555
H13 C12 1_555 1_555
H14 C12 1_555 1_555
C13 C2 1_555 1_555
C14 C13 1_555 1_555
H15 C14 1_555 1_555
C15 C14 1_555 1_555
H16 C15 1_555 1_555
C16 C15 1_555 1_555
H17 C16 1_555 1_555
C17 C16 1_555 1_555
H18 C17 1_555 1_555
C18 C13 1_555 1_555
H19 C18 1_555 1_555
C19 C3 1_555 1_555
C20 C19 1_555 1_555
H20 C20 1_555 1_555
C21 C20 1_555 1_555
H21 C21 1_555 1_555
C22 C21 1_555 1_555
H22 C22 1_555 1_555
C23 C22 1_555 1_555
H23 C23 1_555 1_555
C24 C19 1_555 1_555
H24 C24 1_555 1_555
C25 N2 1_555 1_555
C26 C25 1_555 1_555
C27 C26 1_555 1_555
H25 C27 1_555 1_555
C28 C27 1_555 1_555
C29 C28 1_555 1_555
H26 C29 1_555 1_555
C30 C25 1_555 1_555
C31 C26 1_555 1_555
H27 C31 1_555 1_555
H28 C31 1_555 1_555
H29 C31 1_555 1_555
C32 C28 1_555 1_555
H30 C32 1_555 1_555
H31 C32 1_555 1_555
H32 C32 1_555 1_555
C33 C30 1_555 1_555
H33 C33 1_555 1_555
H34 C33 1_555 1_555
H35 C33 1_555 1_555
C34 S1 1_555 1_555
C2 C3 1_555 1_555
C8 C9 1_555 1_555
C17 C18 1_555 1_555
C23 C24 1_555 1_555
C29 C30 1_555 1_555

#END
