
#######################################################################
#
#                 Cambridge Crystallographic Data Centre
#                                CCDC 
#
#######################################################################
#
# If this CIF has been generated from an entry in the Cambridge 
# Structural Database, then it will include bibliographic, chemical, 
# crystal, experimental, refinement or atomic coordinate data resulting 
# from the CCDC's data processing and validation procedures.
#
#######################################################################

data_WEBTAA
_chemical_formula_moiety         'C27 H28 N2 S2'
_chemical_name_systematic        
3-Mesityl-4-phenyl-1-(1-phenylethyl)-4,5-dihydro-1H-imidazol-3-ium-2-carbodithioate
_symmetry_cell_setting           orthorhombic
_symmetry_space_group_name_H-M   'P 21 21 21'
_symmetry_Int_Tables_number      19
_space_group_name_Hall           'P 2ac 2ab'
loop_
_symmetry_equiv_pos_site_id
_symmetry_equiv_pos_as_xyz
1 x,y,z
2 1/2+x,1/2-y,-z
3 -x,1/2+y,1/2-z
4 1/2-x,-y,1/2+z
_cell_length_a                   10.0291(10)
_cell_length_b                   15.1285(15)
_cell_length_c                   15.5536(15)
_cell_angle_alpha                90
_cell_angle_beta                 90
_cell_angle_gamma                90
_cell_volume                     2359.87
_exptl_crystal_colour            orange
_exptl_crystal_description       block
_cell_formula_units_Z            4
loop_
_atom_site_label
_atom_site_type_symbol
_atom_site_fract_x
_atom_site_fract_y
_atom_site_fract_z
S1 S 0.71774(4) 0.60901(2) 0.23853(2)
S2 S 0.67652(5) 0.41136(3) 0.22051(2)
N1 N 0.74231(10) 0.47564(7) 0.42592(6)
N2 N 0.53349(10) 0.51259(7) 0.39977(6)
C1 C 0.68398(12) 0.50765(8) 0.27302(7)
C2 C 0.65356(12) 0.49932(8) 0.36657(7)
C3 C 0.68121(13) 0.47698(9) 0.51207(8)
H1 H 0.7170 0.5263 0.5470
H2 H 0.6972 0.4206 0.5427
C4 C 0.53156(12) 0.49013(8) 0.49346(7)
H3 H 0.4850 0.4322 0.5010
C5 C 0.45769(13) 0.55967(9) 0.54471(8)
C6 C 0.52209(15) 0.62977(10) 0.58488(10)
H4 H 0.6166 0.6334 0.5839
C7 C 0.4477(2) 0.69458(11) 0.62658(10)
H5 H 0.4922 0.7417 0.6549
C8 C 0.31107(19) 0.69121(11) 0.62726(10)
H6 H 0.2613 0.7367 0.6545
C9 C 0.24624(16) 0.62149(12) 0.58823(10)
H7 H 0.1516 0.6186 0.5892
C10 C 0.31918(14) 0.55532(10) 0.54741(9)
H8 H 0.2742 0.5070 0.5213
C11 C 0.93899(16) 0.57150(10) 0.44128(11)
H9 H 0.8891 0.6179 0.4113
H10 H 1.0340 0.5767 0.4273
H11 H 0.9266 0.5781 0.5035
C12 C 0.88803(12) 0.48092(9) 0.41292(8)
H12 H 0.9050 0.4756 0.3498
C13 C 0.96030(12) 0.40495(9) 0.45672(8)
C14 C 1.00501(15) 0.33419(10) 0.40739(9)
H13 H 0.9847 0.3322 0.3478
C15 C 1.07920(18) 0.26615(11) 0.44433(11)
H14 H 1.1101 0.2185 0.4098
C16 C 1.10766(16) 0.26811(11) 0.53113(11)
H15 H 1.1591 0.2222 0.5563
C17 C 1.06114(17) 0.33712(12) 0.58147(10)
H16 H 1.0786 0.3376 0.6415
C18 C 0.98899(15) 0.40561(11) 0.54432(9)
H17 H 0.9590 0.4533 0.5790
C19 C 0.41594(12) 0.53712(9) 0.35230(7)
C20 C 0.38695(12) 0.62695(9) 0.34087(8)
C21 C 0.27257(14) 0.64828(9) 0.29373(8)
H18 H 0.2515 0.7087 0.2843
C22 C 0.18946(13) 0.58396(10) 0.26055(8)
C23 C 0.21818(13) 0.49568(10) 0.27647(9)
H19 H 0.1590 0.4515 0.2557
C24 C 0.33126(13) 0.47009(9) 0.32207(8)
C25 C 0.36044(16) 0.37379(10) 0.33839(11)
H20 H 0.3430 0.3600 0.3989
H21 H 0.4541 0.3615 0.3251
H22 H 0.3031 0.3373 0.3018
C26 C 0.07165(17) 0.60955(14) 0.20578(11)
H23 H 0.0205 0.6559 0.2349
H24 H 0.0146 0.5578 0.1967
H25 H 0.1032 0.6316 0.1501
C27 C 0.47077(15) 0.70060(9) 0.37710(10)
H26 H 0.4251 0.7269 0.4266
H27 H 0.4845 0.7459 0.3329
H28 H 0.5572 0.6770 0.3954
loop_
_geom_bond_atom_site_label_1
_geom_bond_atom_site_label_2
_geom_bond_site_symmetry_1
_geom_bond_site_symmetry_2
S1 C1 1_555 1_555
S2 C1 1_555 1_555
N1 C2 1_555 1_555
N2 C2 1_555 1_555
C1 C2 1_555 1_555
C3 N1 1_555 1_555
H1 C3 1_555 1_555
H2 C3 1_555 1_555
C4 N2 1_555 1_555
H3 C4 1_555 1_555
C5 C4 1_555 1_555
C6 C5 1_555 1_555
H4 C6 1_555 1_555
C7 C6 1_555 1_555
H5 C7 1_555 1_555
C8 C7 1_555 1_555
H6 C8 1_555 1_555
C9 C8 1_555 1_555
H7 C9 1_555 1_555
C10 C5 1_555 1_555
H8 C10 1_555 1_555
C11 H9 1_555 1_555
H10 C11 1_555 1_555
H11 C11 1_555 1_555
C12 N1 1_555 1_555
H12 C12 1_555 1_555
C13 C12 1_555 1_555
C14 C13 1_555 1_555
H13 C14 1_555 1_555
C15 C14 1_555 1_555
H14 C15 1_555 1_555
C16 C15 1_555 1_555
H15 C16 1_555 1_555
C17 C16 1_555 1_555
H16 C17 1_555 1_555
C18 C13 1_555 1_555
H17 C18 1_555 1_555
C19 N2 1_555 1_555
C20 C19 1_555 1_555
C21 C20 1_555 1_555
H18 C21 1_555 1_555
C22 C21 1_555 1_555
C23 C22 1_555 1_555
H19 C23 1_555 1_555
C24 C19 1_555 1_555
C25 C24 1_555 1_555
H20 C25 1_555 1_555
H21 C25 1_555 1_555
H22 C25 1_555 1_555
C26 C22 1_555 1_555
H23 C26 1_555 1_555
H24 C26 1_555 1_555
H25 C26 1_555 1_555
C27 C20 1_555 1_555
H26 C27 1_555 1_555
H27 C27 1_555 1_555
H28 C27 1_555 1_555
C3 C4 1_555 1_555
C9 C10 1_555 1_555
C11 C12 1_555 1_555
C17 C18 1_555 1_555
C23 C24 1_555 1_555

#END
