
#######################################################################
#
#                 Cambridge Crystallographic Data Centre
#                                CCDC 
#
#######################################################################
#
# If this CIF has been generated from an entry in the Cambridge 
# Structural Database, then it will include bibliographic, chemical, 
# crystal, experimental, refinement or atomic coordinate data resulting 
# from the CCDC's data processing and validation procedures.
#
#######################################################################

data_WEBTEE
_chemical_formula_moiety         'C33 H35 N2 1+,C1 F3 O3 S1 1-'
_chemical_name_systematic        
'1,3-Dimesityl-5,5-diphenyl-4,5-dihydro-1H-imidazol-3-ium trifluoromethanesulfonate'
_symmetry_cell_setting           triclinic
_symmetry_space_group_name_H-M   'P -1'
_symmetry_Int_Tables_number      2
_space_group_name_Hall           '-P 1'
loop_
_symmetry_equiv_pos_site_id
_symmetry_equiv_pos_as_xyz
1 x,y,z
2 -x,-y,-z
_cell_length_a                   10.433(4)
_cell_length_b                   17.320(7)
_cell_length_c                   19.236(8)
_cell_angle_alpha                66.656(5)
_cell_angle_beta                 84.785(5)
_cell_angle_gamma                88.956(5)
_cell_volume                     3177.59
_exptl_crystal_colour            colorless
_exptl_crystal_description       prism
_cell_formula_units_Z            4
loop_
_atom_site_label
_atom_site_type_symbol
_atom_site_fract_x
_atom_site_fract_y
_atom_site_fract_z
S1 S 0.72708(9) 0.24821(5) 0.18713(5)
O1 O 0.7872(3) 0.32828(19) 0.15810(19)
O2 O 0.6474(3) 0.2285(3) 0.25556(17)
O3 O 0.8063(5) 0.1832(2) 0.1859(2)
F1 F 0.6757(5) 0.2738(3) 0.05217(18)
F2 F 0.5447(5) 0.1932(3) 0.1351(2)
F3 F 0.5340(5) 0.3193(4) 0.1134(3)
C67 C 0.6141(7) 0.2576(4) 0.1184(3)
S2 S 0.25780(9) 0.74743(6) 0.18826(5)
O4 O 0.1988(3) 0.82685(19) 0.16220(17)
O5 O 0.1860(5) 0.6832(2) 0.1789(2)
O6 O 0.3105(3) 0.72296(19) 0.25987(15)
F4 F 0.4750(4) 0.8246(3) 0.1273(2)
F5 F 0.4703(5) 0.7019(3) 0.1362(3)
F6 F 0.3717(4) 0.7912(3) 0.05268(18)
C68 C 0.4000(6) 0.7649(4) 0.1222(3)
N1 N 0.9320(2) 0.87692(13) 0.27069(12)
N2 N 1.0205(2) 0.98899(14) 0.17722(13)
C1 C 0.9750(3) 0.91286(17) 0.19881(16)
H1 H 0.966(3) 0.8859(16) 0.1674(13)
C2 C 0.9596(3) 0.93527(16) 0.30999(15)
C3 C 0.9914(3) 1.01851(17) 0.23903(16)
H2 H 0.9184 1.0556 0.2294
H3 H 1.0651 1.0477 0.2454
C4 C 0.8434(3) 0.80457(16) 0.29820(15)
C5 C 0.8872(3) 0.72413(17) 0.33909(15)
C6 C 0.8007(3) 0.65684(18) 0.35699(17)
H4 H 0.8285 0.6025 0.3834
C7 C 0.6760(3) 0.66769(19) 0.33717(18)
C8 C 0.6355(3) 0.7488(2) 0.29950(17)
H5 H 0.5507 0.7571 0.2874
C9 C 0.7161(3) 0.81816(18) 0.27910(16)
C10 C 1.0174(3) 0.70632(19) 0.36722(19)
H6 H 1.0819 0.7290 0.3251
H7 H 1.0274 0.6466 0.3920
H8 H 1.0268 0.7318 0.4026
C11 C 0.5869(4) 0.5936(2) 0.3561(3)
H9 H 0.6365 0.5440 0.3644
H10 H 0.5351 0.6035 0.3148
H11 H 0.5321 0.5859 0.4014
C12 C 0.6632(3) 0.9038(2) 0.2370(2)
H12 H 0.6574 0.9124 0.1849
H13 H 0.7193 0.9460 0.2390
H14 H 0.5791 0.9077 0.2600
C13 C 0.8447(3) 0.93753(18) 0.36332(16)
C14 C 0.7727(3) 1.0092(2) 0.35113(19)
H15 H 0.7937 1.0581 0.3084
C15 C 0.6700(4) 1.0083(3) 0.4020(2)
H16 H 0.6223 1.0566 0.3933
C16 C 0.6378(4) 0.9365(3) 0.4655(2)
H17 H 0.5680 0.9361 0.4994
C17 C 0.7094(4) 0.8650(2) 0.4788(2)
H18 H 0.6884 0.8164 0.5219
C18 C 0.8117(3) 0.8661(2) 0.42828(18)
H19 H 0.8598 0.8178 0.4378
C19 C 1.0826(3) 0.90895(17) 0.35181(16)
C20 C 1.1863(3) 0.87705(19) 0.32187(19)
H20 H 1.1791 0.8674 0.2781
C21 C 1.3001(4) 0.8594(2) 0.3563(2)
H21 H 1.3685 0.8375 0.3359
C22 C 1.3126(5) 0.8740(3) 0.4204(3)
H22 H 1.3888 0.8614 0.4439
C23 C 1.2126(5) 0.9072(3) 0.4495(2)
H23 H 1.2218 0.9184 0.4922
C24 C 1.0971(4) 0.9244(2) 0.41617(18)
H24 H 1.0293 0.9463 0.4370
C25 C 1.0631(3) 1.04648(17) 0.10019(16)
C26 C 1.1942(3) 1.06826(19) 0.08173(18)
C27 C 1.2292(4) 1.1292(2) 0.00973(19)
H25 H 1.3157 1.1443 -0.0045
C28 C 1.1397(4) 1.16830(19) -0.04172(17)
C29 C 1.0136(4) 1.1433(2) -0.02132(18)
H26 H 0.9533 1.1682 -0.0560
C30 C 0.9723(3) 1.08223(19) 0.04916(17)
C31 C 1.2930(4) 1.0293(3) 0.1359(2)
H27 H 1.2707 1.0375 0.1820
H28 H 1.3755 1.0551 0.1135
H29 H 1.2964 0.9702 0.1471
C32 C 1.1818(5) 1.2374(2) -0.11765(19)
H30 H 1.2176 1.2837 -0.1098
H31 H 1.1089 1.2560 -0.1468
H32 H 1.2456 1.2165 -0.1446
C33 C 0.8311(4) 1.0578(3) 0.0677(2)
H33 H 0.8204 0.9995 0.0769
H34 H 0.7842 1.0916 0.0257
H35 H 0.7990 1.0668 0.1122
N3 N 1.0127(2) 0.37978(13) 0.26736(12)
N4 N 0.9227(2) 0.48817(14) 0.18206(13)
C34 C 0.9771(3) 0.41546(18) 0.19834(17)
H36 H 0.986(3) 0.3921(17) 0.1625(14)
C35 C 0.9700(3) 0.43379(16) 0.31180(16)
C36 C 0.9354(3) 0.51555(18) 0.24472(17)
H37 H 0.8553 0.5381 0.2576
H38 H 1.0031 0.5580 0.2312
C37 C 1.1028(3) 0.31118(17) 0.28751(15)
C38 C 1.0583(3) 0.22818(18) 0.32591(16)
C39 C 1.1477(4) 0.16509(19) 0.33692(18)
H39 H 1.1192 0.1095 0.3617
C40 C 1.2760(4) 0.1807(2) 0.31300(19)
C41 C 1.3175(3) 0.2635(2) 0.27912(18)
H40 H 1.4050 0.2752 0.2653
C42 C 1.2335(3) 0.33014(19) 0.26491(16)
C43 C 0.9208(3) 0.2057(2) 0.3563(2)
H41 H 0.9016 0.2204 0.3992
H42 H 0.9069 0.1463 0.3717
H43 H 0.8656 0.2359 0.3174
C44 C 1.3678(5) 0.1100(3) 0.3217(3)
H44 H 1.3351 0.0598 0.3633
H45 H 1.4504 0.1248 0.3317
H46 H 1.3765 0.1002 0.2758
C45 C 1.2881(4) 0.4180(2) 0.2252(2)
H47 H 1.3500 0.4275 0.2551
H48 H 1.2199 0.4575 0.2189
H49 H 1.3291 0.4251 0.1763
C46 C 0.8460(3) 0.39647(17) 0.36405(17)
C47 C 0.7445(3) 0.3679(2) 0.33681(19)
H50 H 0.7542 0.3682 0.2881
C48 C 0.6315(3) 0.3395(2) 0.3812(2)
H51 H 0.5652 0.3206 0.3623
C49 C 0.6140(4) 0.3385(2) 0.4530(2)
H52 H 0.5371 0.3183 0.4829
C50 C 0.7112(4) 0.3674(2) 0.4802(2)
H53 H 0.7000 0.3671 0.5288
C51 C 0.8267(3) 0.3973(2) 0.43548(18)
H54 H 0.8913 0.4180 0.4541
C52 C 1.0785(3) 0.44212(17) 0.35544(15)
C53 C 1.1212(3) 0.37098(18) 0.41349(16)
H55 H 1.0801 0.3194 0.4261
C54 C 1.2232(3) 0.3758(2) 0.45253(19)
H56 H 1.2522 0.3273 0.4899
C55 C 1.2819(4) 0.4521(2) 0.4362(2)
H57 H 1.3499 0.4556 0.4630
C56 C 1.2398(4) 0.5232(2) 0.3801(2)
H58 H 1.2796 0.5749 0.3688
C57 C 1.1386(3) 0.51835(19) 0.34024(19)
H59 H 1.1106 0.5670 0.3027
C58 C 0.8903(3) 0.54510(18) 0.10770(17)
C59 C 0.7612(4) 0.5614(2) 0.0954(2)
C60 C 0.7363(4) 0.6216(2) 0.0236(2)
H60 H 0.6511 0.6334 0.0133
C61 C 0.8314(5) 0.6636(2) -0.0319(2)
C62 C 0.9565(4) 0.6446(2) -0.01698(19)
H61 H 1.0216 0.6725 -0.0546
C63 C 0.9905(4) 0.5853(2) 0.05207(18)
C64 C 0.6536(4) 0.5177(3) 0.1542(2)
H62 H 0.6533 0.4588 0.1641
H63 H 0.5732 0.5413 0.1360
H64 H 0.6654 0.5249 0.2002
C65 C 0.7998(6) 0.7304(3) -0.1069(2)
H65 H 0.7355 0.7089 -0.1276
H66 H 0.8761 0.7457 -0.1417
H67 H 0.7677 0.7789 -0.0992
C66 C 1.1291(4) 0.5665(3) 0.0639(2)
H68 H 1.1529 0.5829 0.1032
H69 H 1.1812 0.5973 0.0175
H70 H 1.1422 0.5073 0.0785
loop_
_geom_bond_atom_site_label_1
_geom_bond_atom_site_label_2
_geom_bond_site_symmetry_1
_geom_bond_site_symmetry_2
S1 O1 1_555 1_555
S2 O4 1_555 1_555
O2 S1 1_555 1_555
O3 S1 1_555 1_555
O5 S2 1_555 1_555
O6 S2 1_555 1_555
N1 C1 1_555 1_555
N2 C1 1_555 1_555
N3 C34 1_555 1_555
N4 C34 1_555 1_555
F1 C67 1_555 1_555
F2 C67 1_555 1_555
F3 C67 1_555 1_555
F4 C68 1_555 1_555
F5 C68 1_555 1_555
F6 C68 1_555 1_555
C1 H1 1_555 1_555
C2 N1 1_555 1_555
C3 N2 1_555 1_555
H2 C3 1_555 1_555
H3 C3 1_555 1_555
C4 N1 1_555 1_555
C5 C4 1_555 1_555
C6 C5 1_555 1_555
H4 C6 1_555 1_555
C7 C6 1_555 1_555
C8 C7 1_555 1_555
H5 C8 1_555 1_555
C9 C4 1_555 1_555
C10 C5 1_555 1_555
H6 C10 1_555 1_555
H7 C10 1_555 1_555
H8 C10 1_555 1_555
C11 C7 1_555 1_555
H9 C11 1_555 1_555
H10 C11 1_555 1_555
H11 C11 1_555 1_555
C12 C9 1_555 1_555
H12 C12 1_555 1_555
H13 C12 1_555 1_555
H14 C12 1_555 1_555
C13 C2 1_555 1_555
C14 C13 1_555 1_555
H15 C14 1_555 1_555
C15 C14 1_555 1_555
H16 C15 1_555 1_555
C16 C15 1_555 1_555
H17 C16 1_555 1_555
C17 C16 1_555 1_555
H18 C17 1_555 1_555
C18 C13 1_555 1_555
H19 C18 1_555 1_555
C19 C2 1_555 1_555
C20 C19 1_555 1_555
H20 C20 1_555 1_555
C21 C20 1_555 1_555
H21 C21 1_555 1_555
C22 C21 1_555 1_555
H22 C22 1_555 1_555
C23 C22 1_555 1_555
H23 C23 1_555 1_555
C24 C19 1_555 1_555
H24 C24 1_555 1_555
C25 N2 1_555 1_555
C26 C25 1_555 1_555
C27 C26 1_555 1_555
H25 C27 1_555 1_555
C28 C27 1_555 1_555
C29 C28 1_555 1_555
H26 C29 1_555 1_555
C30 C25 1_555 1_555
C31 C26 1_555 1_555
H27 C31 1_555 1_555
H28 C31 1_555 1_555
H29 C31 1_555 1_555
C32 C28 1_555 1_555
H30 C32 1_555 1_555
H31 C32 1_555 1_555
H32 C32 1_555 1_555
C33 C30 1_555 1_555
H33 C33 1_555 1_555
H34 C33 1_555 1_555
H35 C33 1_555 1_555
C34 H36 1_555 1_555
C35 N3 1_555 1_555
C36 N4 1_555 1_555
H37 C36 1_555 1_555
H38 C36 1_555 1_555
C37 N3 1_555 1_555
C38 C37 1_555 1_555
C39 C38 1_555 1_555
H39 C39 1_555 1_555
C40 C39 1_555 1_555
C41 C40 1_555 1_555
H40 C41 1_555 1_555
C42 C37 1_555 1_555
C43 C38 1_555 1_555
H41 C43 1_555 1_555
H42 C43 1_555 1_555
H43 C43 1_555 1_555
C44 C40 1_555 1_555
H44 C44 1_555 1_555
H45 C44 1_555 1_555
H46 C44 1_555 1_555
C45 C42 1_555 1_555
H47 C45 1_555 1_555
H48 C45 1_555 1_555
H49 C45 1_555 1_555
C46 C35 1_555 1_555
C47 C46 1_555 1_555
H50 C47 1_555 1_555
C48 C47 1_555 1_555
H51 C48 1_555 1_555
C49 C48 1_555 1_555
H52 C49 1_555 1_555
C50 C49 1_555 1_555
H53 C50 1_555 1_555
C51 C46 1_555 1_555
H54 C51 1_555 1_555
C52 C35 1_555 1_555
C53 C52 1_555 1_555
H55 C53 1_555 1_555
C54 C53 1_555 1_555
H56 C54 1_555 1_555
C55 C54 1_555 1_555
H57 C55 1_555 1_555
C56 C55 1_555 1_555
H58 C56 1_555 1_555
C57 C52 1_555 1_555
H59 C57 1_555 1_555
C58 N4 1_555 1_555
C59 C58 1_555 1_555
C60 C59 1_555 1_555
H60 C60 1_555 1_555
C61 C60 1_555 1_555
C62 C61 1_555 1_555
H61 C62 1_555 1_555
C63 C58 1_555 1_555
C64 C59 1_555 1_555
H62 C64 1_555 1_555
H63 C64 1_555 1_555
H64 C64 1_555 1_555
C65 C61 1_555 1_555
H65 C65 1_555 1_555
H66 C65 1_555 1_555
H67 C65 1_555 1_555
C66 C63 1_555 1_555
H68 C66 1_555 1_555
H69 C66 1_555 1_555
H70 C66 1_555 1_555
C67 S1 1_555 1_555
C68 S2 1_555 1_555
C2 C3 1_555 1_555
C8 C9 1_555 1_555
C17 C18 1_555 1_555
C23 C24 1_555 1_555
C29 C30 1_555 1_555
C35 C36 1_555 1_555
C41 C42 1_555 1_555
C50 C51 1_555 1_555
C56 C57 1_555 1_555
C62 C63 1_555 1_555

#END
