
#######################################################################
#
#                 Cambridge Crystallographic Data Centre
#                                CCDC 
#
#######################################################################
#
# If this CIF has been generated from an entry in the Cambridge 
# Structural Database, then it will include bibliographic, chemical, 
# crystal, experimental, refinement or atomic coordinate data resulting 
# from the CCDC's data processing and validation procedures.
#
#######################################################################

data_WECGIW02
_chemical_name_common            Etoricoxib
_chemical_formula_moiety         'C18 H15 Cl1 N2 O2 S1'
_chemical_name_systematic        
5-chloro-6'-methyl-3-[4-(methylsulfonyl)phenyl]-2,3'-bipyridine
_symmetry_cell_setting           triclinic
_symmetry_space_group_name_H-M   'P -1'
_symmetry_Int_Tables_number      2
_space_group_name_Hall           '-P 1'
loop_
_symmetry_equiv_pos_site_id
_symmetry_equiv_pos_as_xyz
1 x,y,z
2 -x,-y,-z
_cell_length_a                   10.068(2)
_cell_length_b                   12.499(3)
_cell_length_c                   15.262(3)
_cell_angle_alpha                67.19(3)
_cell_angle_beta                 74.96(3)
_cell_angle_gamma                83.64(3)
_cell_volume                     1709.62
_exptl_crystal_colour            colorless
_exptl_crystal_description       polygonal
_cell_formula_units_Z            4
loop_
_atom_site_label
_atom_site_type_symbol
_atom_site_fract_x
_atom_site_fract_y
_atom_site_fract_z
S1 S 0.25682(6) 1.79332(4) 0.10067(4)
Cl1 Cl -0.44242(7) 1.37967(5) 0.60521(5)
C1 C -0.0215(2) 1.54160(16) 0.19875(15)
H1 H -0.0745 1.5113 0.1723
C2 C 0.0695(2) 1.62930(16) 0.13791(15)
H2 H 0.0777 1.6583 0.0707
C3 C 0.1484(2) 1.67400(16) 0.17682(15)
C4 C 0.4195(3) 1.7337(3) 0.0680(2)
H3 H 0.4829 1.7951 0.0261
H4 H 0.4131 1.6846 0.0340
H5 H 0.4513 1.6888 0.1259
C5 C 0.1383(3) 1.63081(17) 0.27683(16)
H6 H 0.1926 1.6604 0.3028
C6 C 0.0463(2) 1.54315(17) 0.33715(16)
H7 H 0.0388 1.5141 0.4043
C7 C -0.0349(2) 1.49772(15) 0.29971(14)
C8 C -0.1420(2) 1.41064(15) 0.36759(14)
C9 C -0.2298(2) 1.43337(17) 0.44522(16)
H8 H -0.2199 1.5006 0.4552
C10 C -0.3314(2) 1.35586(17) 0.50718(15)
C11 C -0.3482(2) 1.25871(17) 0.48946(15)
H9 H -0.4200 1.2086 0.5301
C12 C -0.1628(2) 1.30801(15) 0.35562(14)
C13 C -0.0770(2) 1.27084(14) 0.27763(14)
C14 C -0.1376(2) 1.23362(16) 0.22271(15)
H10 H -0.2327 1.2349 0.2327
C15 C -0.0555(3) 1.19475(17) 0.15326(15)
H11 H -0.0947 1.1719 0.1145
C16 C 0.0856(3) 1.18997(17) 0.14154(15)
C17 C 0.1786(4) 1.1437(2) 0.06943(19)
H12 H 0.2724 1.1472 0.0714
H13 H 0.1671 1.1896 0.0048
H14 H 0.1555 1.0646 0.0860
C18 C 0.0651(2) 1.26556(17) 0.25873(15)
H15 H 0.1071 1.2923 0.2938
N1 N -0.26477(19) 1.23435(14) 0.41588(13)
N2 N 0.1460(2) 1.22514(15) 0.19412(13)
O1 O 0.2668(2) 1.85813(14) 0.15814(14)
O2 O 0.2052(2) 1.85162(14) 0.01481(13)
S2 S 0.72920(6) 0.81665(4) 0.23342(4)
Cl2 Cl -0.00793(7) 1.07830(7) 0.60969(5)
C19 C 0.3888(2) 1.00368(16) 0.29125(15)
H16 H 0.3005 1.0140 0.2808
C20 C 0.4819(2) 0.93200(16) 0.25442(15)
H17 H 0.4573 0.8960 0.2179
C21 C 0.6108(2) 0.91478(15) 0.27248(13)
C22 C 0.8682(2) 0.90366(19) 0.15164(17)
H18 H 0.9376 0.8564 0.1271
H19 H 0.9060 0.9397 0.1849
H20 H 0.8371 0.9625 0.0982
C23 C 0.6507(2) 0.97109(17) 0.32376(15)
H21 H 0.7389 0.9599 0.3344
C24 C 0.5587(2) 1.04382(16) 0.35892(15)
H22 H 0.5856 1.0821 0.3929
C25 C 0.4265(2) 1.06040(14) 0.34395(13)
C26 C 0.3265(2) 1.13232(15) 0.38898(14)
C27 C 0.2153(2) 1.07834(17) 0.46488(14)
H23 H 0.1984 1.0002 0.4826
C28 C 0.1307(2) 1.14254(19) 0.51338(15)
C29 C 0.1604(2) 1.25642(19) 0.48888(16)
H24 H 0.1059 1.2972 0.5251
C30 C 0.3448(2) 1.25143(15) 0.36398(14)
C31 C 0.4494(2) 1.32286(15) 0.27896(14)
C32 C 0.5141(2) 1.41196(16) 0.28392(17)
H25 H 0.4950 1.4253 0.3418
C33 C 0.6066(3) 1.48057(18) 0.20270(18)
H26 H 0.6513 1.5399 0.2056
C34 C 0.6327(3) 1.46066(18) 0.11667(18)
C35 C 0.7316(4) 1.5324(2) 0.0256(2)
H27 H 0.7356 1.5047 -0.0255
H28 H 0.8213 1.5266 0.0382
H29 H 0.7013 1.6120 0.0059
C36 C 0.4803(2) 1.31045(17) 0.18911(15)
H30 H 0.4360 1.2524 0.1841
N3 N 0.2637(2) 1.31060(14) 0.41564(13)
N4 N 0.5696(2) 1.37641(15) 0.10947(13)
O3 O 0.66690(18) 0.77079(13) 0.18085(12)
O4 O 0.77657(19) 0.73712(13) 0.31625(12)
loop_
_geom_bond_atom_site_label_1
_geom_bond_atom_site_label_2
_geom_bond_site_symmetry_1
_geom_bond_site_symmetry_2
S1 C3 1_555 1_555
Cl1 C10 1_555 1_555
C1 H1 1_555 1_555
C2 C1 1_555 1_555
H2 C2 1_555 1_555
C3 C2 1_555 1_555
C4 S1 1_555 1_555
H3 C4 1_555 1_555
H4 C4 1_555 1_555
H5 C4 1_555 1_555
C5 C3 1_555 1_555
H6 C5 1_555 1_555
C6 C5 1_555 1_555
H7 C6 1_555 1_555
C7 C1 1_555 1_555
C8 C7 1_555 1_555
C9 C8 1_555 1_555
H8 C9 1_555 1_555
C10 C9 1_555 1_555
C11 C10 1_555 1_555
H9 C11 1_555 1_555
C12 C8 1_555 1_555
C13 C12 1_555 1_555
C14 C13 1_555 1_555
H10 C14 1_555 1_555
C15 C14 1_555 1_555
H11 C15 1_555 1_555
C16 C15 1_555 1_555
C17 C16 1_555 1_555
H12 C17 1_555 1_555
H13 C17 1_555 1_555
H14 C17 1_555 1_555
C18 C13 1_555 1_555
H15 C18 1_555 1_555
N1 C11 1_555 1_555
N2 C16 1_555 1_555
O1 S1 1_555 1_555
O2 S1 1_555 1_555
S2 C21 1_555 1_555
Cl2 C28 1_555 1_555
C19 H16 1_555 1_555
C20 C19 1_555 1_555
H17 C20 1_555 1_555
C21 C20 1_555 1_555
C22 S2 1_555 1_555
H18 C22 1_555 1_555
H19 C22 1_555 1_555
H20 C22 1_555 1_555
C23 C21 1_555 1_555
H21 C23 1_555 1_555
C24 C23 1_555 1_555
H22 C24 1_555 1_555
C25 C19 1_555 1_555
C26 C25 1_555 1_555
C27 C26 1_555 1_555
H23 C27 1_555 1_555
C28 C27 1_555 1_555
C29 C28 1_555 1_555
H24 C29 1_555 1_555
C30 C26 1_555 1_555
C31 C30 1_555 1_555
C32 C31 1_555 1_555
H25 C32 1_555 1_555
C33 C32 1_555 1_555
H26 C33 1_555 1_555
C34 C33 1_555 1_555
C35 C34 1_555 1_555
H27 C35 1_555 1_555
H28 C35 1_555 1_555
H29 C35 1_555 1_555
C36 C31 1_555 1_555
H30 C36 1_555 1_555
N3 C29 1_555 1_555
N4 C34 1_555 1_555
O3 S2 1_555 1_555
O4 S2 1_555 1_555
C6 C7 1_555 1_555
C12 N1 1_555 1_555
C18 N2 1_555 1_555
C24 C25 1_555 1_555
C30 N3 1_555 1_555
C36 N4 1_555 1_555

#END
