
#######################################################################
#
#                 Cambridge Crystallographic Data Centre
#                                CCDC 
#
#######################################################################
#
# If this CIF has been generated from an entry in the Cambridge 
# Structural Database, then it will include bibliographic, chemical, 
# crystal, experimental, refinement or atomic coordinate data resulting 
# from the CCDC's data processing and validation procedures.
#
#######################################################################

data_WECGIW01
_chemical_name_common            Etoricoxib
_chemical_formula_moiety         'C18 H15 Cl1 N2 O2 S1'
_chemical_name_systematic        
5-Chloro-6'-methyl-3-(4-(methylsulfonyl)phenyl)-2,3'-bipyridine
_chemical_properties_biological  'selective COX-2 inhibitor'
_symmetry_cell_setting           triclinic
_symmetry_space_group_name_H-M   'P -1'
_symmetry_Int_Tables_number      2
_space_group_name_Hall           '-P 1'
loop_
_symmetry_equiv_pos_site_id
_symmetry_equiv_pos_as_xyz
1 x,y,z
2 -x,-y,-z
_cell_length_a                   8.0520(16)
_cell_length_b                   10.412(2)
_cell_length_c                   10.455(2)
_cell_angle_alpha                85.62(3)
_cell_angle_beta                 83.17(3)
_cell_angle_gamma                80.56(3)
_cell_volume                     857.066
_exptl_crystal_colour            colorless
_exptl_crystal_description       block
_cell_formula_units_Z            2
loop_
_atom_site_label
_atom_site_type_symbol
_atom_site_fract_x
_atom_site_fract_y
_atom_site_fract_z
C1 C 1.2606(2) 0.67205(19) 1.23771(18)
H1 H 1.3506 0.6456 1.2868
C2 C 1.1170(2) 0.75112(18) 1.29128(18)
C3 C 0.9854(2) 0.79605(17) 1.21790(17)
H2 H 0.8891 0.8492 1.2529
C4 C 0.9989(2) 0.76068(16) 1.09063(17)
C5 C 1.1441(2) 0.67387(17) 1.04470(17)
C6 C 0.8612(2) 0.81420(16) 1.00942(17)
C7 C 0.8976(2) 0.88955(17) 0.89592(17)
H3 H 1.0058 0.9105 0.8745
C8 C 0.7725(2) 0.93296(17) 0.81545(17)
H4 H 0.7962 0.9828 0.7398
C9 C 0.6110(2) 0.90123(17) 0.84890(16)
C10 C 0.5708(2) 0.83120(17) 0.96389(16)
H5 H 0.4612 0.8137 0.9865
C11 C 0.6957(2) 0.78774(17) 1.04432(16)
H6 H 0.6700 0.7410 1.1215
C12 C 0.5195(3) 0.8299(2) 0.62088(19)
H7 H 0.5204 0.7436 0.6607
H8 H 0.6308 0.8386 0.5804
H9 H 0.4408 0.8446 0.5571
C13 C 1.1679(2) 0.61695(16) 0.91613(17)
C14 C 1.3315(2) 0.57976(18) 0.85502(18)
H10 H 1.4222 0.5948 0.8961
C15 C 1.2356(2) 0.50060(17) 0.68239(18)
C16 C 1.0688(2) 0.53422(18) 0.73559(18)
H11 H 0.9806 0.5185 0.6921
C17 C 1.0342(2) 0.59090(17) 0.85297(18)
H12 H 0.9229 0.6116 0.8898
C18 C 1.2799(3) 0.4316(2) 0.5593(2)
H13 H 1.3465 0.4814 0.4984
H14 H 1.1779 0.4222 0.5243
H15 H 1.3437 0.3469 0.5764
N1 N 1.36644(19) 0.52419(16) 0.74184(16)
N2 N 1.27288(19) 0.63300(16) 1.11776(15)
O1 O 0.29521(16) 0.92509(15) 0.80358(13)
O2 O 0.47548(17) 1.07274(13) 0.67995(13)
S1 S 0.45778(5) 0.94535(4) 0.73919(4)
Cl1 Cl 1.10406(7) 0.79245(5) 1.45087(4)
loop_
_geom_bond_atom_site_label_1
_geom_bond_atom_site_label_2
_geom_bond_site_symmetry_1
_geom_bond_site_symmetry_2
C1 H1 1_555 1_555
C2 C1 1_555 1_555
C3 C2 1_555 1_555
H2 C3 1_555 1_555
C4 C3 1_555 1_555
C5 C4 1_555 1_555
C6 C4 1_555 1_555
C7 C6 1_555 1_555
H3 C7 1_555 1_555
C8 C7 1_555 1_555
H4 C8 1_555 1_555
C9 C8 1_555 1_555
C10 C9 1_555 1_555
H5 C10 1_555 1_555
C11 C6 1_555 1_555
H6 C11 1_555 1_555
C12 H7 1_555 1_555
H8 C12 1_555 1_555
H9 C12 1_555 1_555
C13 C5 1_555 1_555
C14 C13 1_555 1_555
H10 C14 1_555 1_555
C15 C16 1_555 1_555
C16 H11 1_555 1_555
C17 C13 1_555 1_555
H12 C17 1_555 1_555
C18 C15 1_555 1_555
H13 C18 1_555 1_555
H14 C18 1_555 1_555
H15 C18 1_555 1_555
N1 C14 1_555 1_555
N2 C1 1_555 1_555
O1 S1 1_555 1_555
O2 S1 1_555 1_555
S1 C9 1_555 1_555
Cl1 C2 1_555 1_555
C5 N2 1_555 1_555
C10 C11 1_555 1_555
C12 S1 1_555 1_555
C15 N1 1_555 1_555
C16 C17 1_555 1_555

#END
