
#######################################################################
#
#                 Cambridge Crystallographic Data Centre
#                                CCDC 
#
#######################################################################
#
# If this CIF has been generated from an entry in the Cambridge 
# Structural Database, then it will include bibliographic, chemical, 
# crystal, experimental, refinement or atomic coordinate data resulting 
# from the CCDC's data processing and validation procedures.
#
#######################################################################

data_WECKOG
_chemical_formula_moiety         'C32 H33 N1 O5 S1'
_chemical_name_systematic        
11-Methoxy-9-(4-methoxyphenyl)-11-methyl-5-((4-methylphenyl)sulfonyl)-4-phenyl-5-azatricyclo[6.2.1.0^2,6^]undeca-2(6),3-dien-7-ol
_symmetry_cell_setting           monoclinic
_symmetry_space_group_name_H-M   'P 21/c'
_symmetry_Int_Tables_number      14
_space_group_name_Hall           '-P 2ybc'
loop_
_symmetry_equiv_pos_site_id
_symmetry_equiv_pos_as_xyz
1 x,y,z
2 -x,1/2+y,1/2-z
3 -x,-y,-z
4 x,1/2-y,1/2+z
_cell_length_a                   12.735(5)
_cell_length_b                   14.681(5)
_cell_length_c                   15.443(6)
_cell_angle_alpha                90
_cell_angle_beta                 103.359(5)
_cell_angle_gamma                90
_cell_volume                     2809.14
_exptl_crystal_colour            colorless
_exptl_crystal_description       rod
_cell_formula_units_Z            4
loop_
_atom_site_label
_atom_site_type_symbol
_atom_site_fract_x
_atom_site_fract_y
_atom_site_fract_z
S1 S 0.87998(6) 0.64762(5) 0.21800(5)
N1 N 0.74797(16) 0.64252(14) 0.21291(14)
O1 O 0.89330(14) 0.72312(11) 0.16279(12)
O2 O 0.93549(15) 0.64833(13) 0.30929(12)
O3 O 0.72711(16) 0.72166(12) 0.00995(12)
O4 O 0.38230(16) 0.74280(14) -0.04679(14)
O5 O 0.77883(18) 1.08549(17) 0.31985(14)
C1 C 1.0130(3) 0.3107(2) 0.0466(2)
H1 H 0.9774 0.3094 -0.0153
H2 H 0.9953 0.2565 0.0751
H3 H 1.0896 0.3137 0.0527
C2 C 0.9760(3) 0.39350(18) 0.0901(2)
C3 C 1.0150(3) 0.4104(2) 0.1784(2)
H4 H 1.0631 0.3692 0.2123
C4 C 0.9853(2) 0.4869(2) 0.2193(2)
H5 H 1.0144 0.4978 0.2793
C5 C 0.9119(2) 0.54690(17) 0.16956(18)
C6 C 0.8690(2) 0.52998(18) 0.08101(19)
H6 H 0.8186 0.5696 0.0475
C7 C 0.9018(2) 0.4536(2) 0.04241(19)
H7 H 0.8728 0.4423 -0.0176
C8 C 0.7006(2) 0.57989(17) 0.26296(18)
C9 C 0.7600(2) 0.5313(2) 0.3438(2)
C10 C 0.7939(3) 0.4440(2) 0.3415(2)
H8 H 0.7817 0.4135 0.2873
C11 C 0.8459(4) 0.3999(2) 0.4177(3)
H9 H 0.8698 0.3404 0.4144
C12 C 0.8627(3) 0.4423(3) 0.4977(3)
H10 H 0.8968 0.4119 0.5494
C13 C 0.8296(4) 0.5288(3) 0.5014(2)
H11 H 0.8419 0.5589 0.5557
C14 C 0.7776(3) 0.5729(3) 0.4249(2)
H12 H 0.7539 0.6324 0.4285
C15 C 0.5934(2) 0.57941(18) 0.22607(19)
H13 H 0.5424 0.5447 0.2459
C16 C 0.5707(2) 0.63979(18) 0.15271(17)
C17 C 0.6646(2) 0.67709(16) 0.14357(17)
C18 C 0.6721(2) 0.74990(18) 0.07708(18)
H14 H 0.7107 0.8022 0.1090
C19 C 0.5572(2) 0.77979(17) 0.03237(18)
H15 H 0.5587 0.8163 -0.0205
C20 C 0.4794(2) 0.6999(2) 0.00586(19)
C21 C 0.5134(3) 0.6238(2) -0.0483(2)
H16 H 0.5203 0.6472 -0.1047
H17 H 0.4600 0.5765 -0.0577
H18 H 0.5815 0.5994 -0.0167
C22 C 0.2882(3) 0.6903(3) -0.0648(3)
H19 H 0.2296 0.7256 -0.0991
H20 H 0.2713 0.6722 -0.0099
H21 H 0.2989 0.6371 -0.0979
C23 C 0.4643(2) 0.6721(2) 0.09876(19)
H22 H 0.4071 0.6267 0.0954
C24 C 0.4372(2) 0.7632(2) 0.1374(2)
H23 H 0.4608 0.7634 0.2018
H24 H 0.3602 0.7750 0.1209
C25 C 0.5006(2) 0.83540(19) 0.09537(19)
H25 H 0.4458 0.8730 0.0563
C26 C 0.5736(2) 0.90091(19) 0.15715(19)
C27 C 0.6273(2) 0.8807(2) 0.2434(2)
H26 H 0.6181 0.8237 0.2669
C28 C 0.6944(3) 0.9434(3) 0.2954(2)
H27 H 0.7290 0.9283 0.3534
C29 C 0.7107(2) 1.0283(2) 0.2624(2)
C30 C 0.6593(3) 1.0501(2) 0.1775(2)
H28 H 0.6697 1.1068 0.1539
C31 C 0.5913(2) 0.9869(2) 0.1272(2)
H29 H 0.5554 1.0031 0.0697
C32 C 0.8073(3) 1.1688(3) 0.2825(2)
H30 H 0.8543 1.2038 0.3280
H31 H 0.7431 1.2033 0.2584
H32 H 0.8435 1.1552 0.2360
loop_
_geom_bond_atom_site_label_1
_geom_bond_atom_site_label_2
_geom_bond_site_symmetry_1
_geom_bond_site_symmetry_2
S1 N1 1_555 1_555
N1 C8 1_555 1_555
O1 S1 1_555 1_555
O2 S1 1_555 1_555
O3 C18 1_555 1_555
O4 C20 1_555 1_555
O5 C29 1_555 1_555
C1 H1 1_555 1_555
H2 C1 1_555 1_555
H3 C1 1_555 1_555
C2 C1 1_555 1_555
C3 C2 1_555 1_555
H4 C3 1_555 1_555
C4 C3 1_555 1_555
H5 C4 1_555 1_555
C5 S1 1_555 1_555
C6 C5 1_555 1_555
H6 C6 1_555 1_555
C7 C2 1_555 1_555
H7 C7 1_555 1_555
C8 C9 1_555 1_555
C9 C10 1_555 1_555
C10 H8 1_555 1_555
C11 C10 1_555 1_555
H9 C11 1_555 1_555
C12 C11 1_555 1_555
H10 C12 1_555 1_555
C13 C12 1_555 1_555
H11 C13 1_555 1_555
C14 C9 1_555 1_555
H12 C14 1_555 1_555
C15 C8 1_555 1_555
H13 C15 1_555 1_555
C16 C15 1_555 1_555
C17 N1 1_555 1_555
C18 C17 1_555 1_555
H14 C18 1_555 1_555
C19 C18 1_555 1_555
H15 C19 1_555 1_555
C20 C19 1_555 1_555
C21 C20 1_555 1_555
H16 C21 1_555 1_555
H17 C21 1_555 1_555
H18 C21 1_555 1_555
C22 O4 1_555 1_555
H19 C22 1_555 1_555
H20 C22 1_555 1_555
H21 C22 1_555 1_555
C23 C16 1_555 1_555
H22 C23 1_555 1_555
C24 C23 1_555 1_555
H23 C24 1_555 1_555
H24 C24 1_555 1_555
C25 C19 1_555 1_555
H25 C25 1_555 1_555
C26 C25 1_555 1_555
C27 C26 1_555 1_555
H26 C27 1_555 1_555
C28 C27 1_555 1_555
H27 C28 1_555 1_555
C29 C28 1_555 1_555
C30 C29 1_555 1_555
H28 C30 1_555 1_555
C31 C26 1_555 1_555
H29 C31 1_555 1_555
C32 O5 1_555 1_555
H30 C32 1_555 1_555
H31 C32 1_555 1_555
H32 C32 1_555 1_555
C4 C5 1_555 1_555
C6 C7 1_555 1_555
C13 C14 1_555 1_555
C16 C17 1_555 1_555
C20 C23 1_555 1_555
C24 C25 1_555 1_555
C30 C31 1_555 1_555

#END
