
#######################################################################
#
#                 Cambridge Crystallographic Data Centre
#                                CCDC 
#
#######################################################################
#
# If this CIF has been generated from an entry in the Cambridge 
# Structural Database, then it will include bibliographic, chemical, 
# crystal, experimental, refinement or atomic coordinate data resulting 
# from the CCDC's data processing and validation procedures.
#
#######################################################################

data_WECLEX
_chemical_formula_moiety         'C33 H37 N3 O4'
_chemical_name_systematic        
6-(2-Azido-1-(benzyloxy)-3-(4-methoxyphenyl)propyl)-7-(benzyloxy)spiro[3.5]nonan-1-one
_symmetry_cell_setting           monoclinic
_symmetry_space_group_name_H-M   'P 21'
_symmetry_Int_Tables_number      4
_space_group_name_Hall           'P 2yb'
loop_
_symmetry_equiv_pos_site_id
_symmetry_equiv_pos_as_xyz
1 x,y,z
2 -x,1/2+y,-z
_cell_length_a                   10.608(6)
_cell_length_b                   11.553(6)
_cell_length_c                   12.532(7)
_cell_angle_alpha                90
_cell_angle_beta                 99.670(5)
_cell_angle_gamma                90
_cell_volume                     1514.03
_exptl_crystal_colour            colorless
_exptl_crystal_description       block
_cell_formula_units_Z            2
loop_
_atom_site_label
_atom_site_type_symbol
_atom_site_fract_x
_atom_site_fract_y
_atom_site_fract_z
C1 C 0.3482(3) 0.5328(3) 0.2517(2)
H1 H 0.3803 0.4620 0.2225
C2 C 0.2130(3) 0.5122(4) 0.2727(3)
H2 H 0.1852 0.5790 0.3094
H3 H 0.2129 0.4459 0.3202
C3 C 0.1191(3) 0.4907(3) 0.1688(3)
H4 H 0.1419 0.4198 0.1352
H5 H 0.0336 0.4815 0.1855
C4 C 0.1210(3) 0.5907(3) 0.0914(3)
C5 C 0.2560(3) 0.6094(3) 0.0683(3)
H6 H 0.2563 0.6751 0.0201
H7 H 0.2825 0.5417 0.0320
C6 C 0.3512(3) 0.6312(3) 0.1718(2)
H8 H 0.3219 0.7007 0.2053
C7 C 0.4869(3) 0.6573(2) 0.1509(2)
H9 H 0.5459 0.6460 0.2192
C8 C 0.5355(3) 0.5840(3) 0.0643(2)
H10 H 0.5012 0.5058 0.0692
C9 C 0.6810(3) 0.5733(3) 0.0816(3)
H11 H 0.7066 0.5486 0.0144
H12 H 0.7184 0.6488 0.0998
C10 C 0.7328(3) 0.4898(3) 0.1689(3)
C11 C 0.7216(3) 0.3720(3) 0.1510(3)
H13 H 0.6816 0.3454 0.0837
C12 C 0.7678(4) 0.2928(3) 0.2301(3)
H14 H 0.7590 0.2139 0.2160
C13 C 0.8268(4) 0.3304(3) 0.3297(3)
C14 C 0.8395(3) 0.4474(3) 0.3487(3)
H15 H 0.8802 0.4737 0.4158
C15 C 0.7932(3) 0.5249(3) 0.2702(3)
H16 H 0.8023 0.6036 0.2851
C16 C 0.4862(5) 0.4693(4) 0.4115(4)
H17 H 0.5388 0.4255 0.3696
H18 H 0.4190 0.4187 0.4278
C17 C 0.5663(4) 0.5091(4) 0.5145(3)
C18 C 0.6677(5) 0.4432(6) 0.5611(4)
H19 H 0.6868 0.3745 0.5285
C19 C 0.7446(5) 0.4804(6) 0.6606(4)
H20 H 0.8143 0.4372 0.6939
C20 C 0.7121(6) 0.5791(7) 0.7029(5)
H21 H 0.7628 0.6056 0.7660
C21 C 0.6128(6) 0.6417(6) 0.6612(4)
H22 H 0.5929 0.7086 0.6960
C22 C 0.5378(6) 0.6078(6) 0.5653(4)
H23 H 0.4678 0.6524 0.5352
C23 C 0.5195(3) 0.8564(3) 0.2060(3)
H24 H 0.4595 0.8414 0.2548
H25 H 0.5037 0.9340 0.1774
C24 C 0.6523(3) 0.8501(3) 0.2678(3)
C25 C 0.6770(4) 0.8096(3) 0.3728(3)
H26 H 0.6100 0.7860 0.4069
C26 C 0.8022(6) 0.8042(4) 0.4273(4)
H27 H 0.8189 0.7777 0.4984
C27 C 0.9023(5) 0.8383(4) 0.3763(5)
H28 H 0.9861 0.8339 0.4126
C28 C 0.8775(4) 0.8778(4) 0.2740(5)
H29 H 0.9446 0.9009 0.2397
C29 C 0.7543(4) 0.8844(3) 0.2199(3)
H30 H 0.7390 0.9126 0.1494
C30 C 0.0539(4) 0.7049(4) 0.1162(4)
H31 H -0.0001 0.6964 0.1709
H32 H 0.1121 0.7697 0.1327
C31 C -0.0209(4) 0.7065(4) -0.0006(5)
H33 H -0.1127 0.7142 -0.0050
H34 H 0.0116 0.7616 -0.0477
C32 C 0.0227(4) 0.5860(4) -0.0123(4)
C33 C 0.8709(6) 0.1397(4) 0.3999(5)
H35 H 0.7857 0.1158 0.3695
H36 H 0.8970 0.1015 0.4681
H37 H 0.9284 0.1193 0.3514
N1 N 0.4847(3) 0.6281(3) -0.0460(2)
N2 N 0.5458(3) 0.7095(3) -0.0737(2)
N3 N 0.5967(4) 0.7835(4) -0.1070(3)
O1 O 0.4313(2) 0.56443(19) 0.34999(17)
O2 O 0.8733(3) 0.2601(3) 0.4158(3)
O3 O 0.49766(19) 0.77537(17) 0.11859(17)
O4 O -0.0110(3) 0.5101(3) -0.0749(3)
loop_
_geom_bond_atom_site_label_1
_geom_bond_atom_site_label_2
_geom_bond_site_symmetry_1
_geom_bond_site_symmetry_2
C1 H1 1_555 1_555
C2 C1 1_555 1_555
H2 C2 1_555 1_555
H3 C2 1_555 1_555
C3 C2 1_555 1_555
H4 C3 1_555 1_555
H5 C3 1_555 1_555
C4 C3 1_555 1_555
C5 C4 1_555 1_555
H6 C5 1_555 1_555
H7 C5 1_555 1_555
C6 C1 1_555 1_555
H8 C6 1_555 1_555
C7 C6 1_555 1_555
H9 C7 1_555 1_555
C8 C7 1_555 1_555
H10 C8 1_555 1_555
C9 C8 1_555 1_555
H11 C9 1_555 1_555
H12 C9 1_555 1_555
C10 C9 1_555 1_555
C11 C10 1_555 1_555
H13 C11 1_555 1_555
C12 C11 1_555 1_555
H14 C12 1_555 1_555
C13 C12 1_555 1_555
C14 C13 1_555 1_555
H15 C14 1_555 1_555
C15 C10 1_555 1_555
H16 C15 1_555 1_555
C16 H17 1_555 1_555
H18 C16 1_555 1_555
C17 C16 1_555 1_555
C18 C17 1_555 1_555
H19 C18 1_555 1_555
C19 C18 1_555 1_555
H20 C19 1_555 1_555
C20 C19 1_555 1_555
H21 C20 1_555 1_555
C21 C20 1_555 1_555
H22 C21 1_555 1_555
C22 C17 1_555 1_555
H23 C22 1_555 1_555
C23 H24 1_555 1_555
H25 C23 1_555 1_555
C24 C23 1_555 1_555
C25 C24 1_555 1_555
H26 C25 1_555 1_555
C26 C25 1_555 1_555
H27 C26 1_555 1_555
C27 C26 1_555 1_555
H28 C27 1_555 1_555
C28 C27 1_555 1_555
H29 C28 1_555 1_555
C29 C24 1_555 1_555
H30 C29 1_555 1_555
C30 C4 1_555 1_555
H31 C30 1_555 1_555
H32 C30 1_555 1_555
C31 C30 1_555 1_555
H33 C31 1_555 1_555
H34 C31 1_555 1_555
C32 C4 1_555 1_555
C33 H35 1_555 1_555
H36 C33 1_555 1_555
H37 C33 1_555 1_555
N1 C8 1_555 1_555
N2 N1 1_555 1_555
N3 N2 1_555 1_555
O1 C1 1_555 1_555
O2 C13 1_555 1_555
O3 C7 1_555 1_555
O4 C32 1_555 1_555
C5 C6 1_555 1_555
C14 C15 1_555 1_555
C16 O1 1_555 1_555
C21 C22 1_555 1_555
C23 O3 1_555 1_555
C28 C29 1_555 1_555
C31 C32 1_555 1_555
C33 O2 1_555 1_555

#END
