
#######################################################################
#
#                 Cambridge Crystallographic Data Centre
#                                CCDC 
#
#######################################################################
#
# If this CIF has been generated from an entry in the Cambridge 
# Structural Database, then it will include bibliographic, chemical, 
# crystal, experimental, refinement or atomic coordinate data resulting 
# from the CCDC's data processing and validation procedures.
#
#######################################################################

data_WECLAU
_chemical_formula_moiety         'C36 H23 Cl2 N1 O2'
_chemical_name_systematic        
1,8-bis(4-chlorophenyl)-4,5-diphenyl-9H-carbazole-3,6-diol
_symmetry_cell_setting           triclinic
_symmetry_space_group_name_H-M   'P -1'
_symmetry_Int_Tables_number      2
_space_group_name_Hall           '-P 1'
loop_
_symmetry_equiv_pos_site_id
_symmetry_equiv_pos_as_xyz
1 x,y,z
2 -x,-y,-z
_cell_length_a                   9.1087(11)
_cell_length_b                   10.2092(13)
_cell_length_c                   15.486(2)
_cell_angle_alpha                74.837(4)
_cell_angle_beta                 89.450(4)
_cell_angle_gamma                84.749(4)
_cell_volume                     1383.96
_exptl_crystal_description       prism
_cell_formula_units_Z            2
loop_
_atom_site_label
_atom_site_type_symbol
_atom_site_fract_x
_atom_site_fract_y
_atom_site_fract_z
Cl1 Cl 0.67736(7) -0.08712(6) 0.84304(4)
Cl2 Cl 0.93907(7) 0.61133(6) 0.90865(4)
O1 O 0.60387(18) 0.27749(14) 0.24545(9)
H1 H 0.591(3) 0.332(3) 0.2031(18)
O2 O 0.83686(17) 1.00158(13) 0.31633(10)
H2 H 0.826(3) 1.006(3) 0.2667(18)
N1 N 0.74797(18) 0.49010(15) 0.52035(10)
H3 H 0.7558 0.4542 0.5771
C1 C 0.9031(3) 0.8459(3) 0.05233(15)
H4 H 0.9355 0.8653 -0.0064
C2 C 0.7826(3) 0.9202(2) 0.07496(15)
H5 H 0.7321 0.9890 0.0311
C3 C 0.7358(2) 0.8936(2) 0.16248(14)
H6 H 0.6538 0.9446 0.1769
C4 C 0.8099(2) 0.79144(17) 0.22916(12)
C5 C 0.77795(18) 0.77098(17) 0.32622(12)
C6 C 0.74651(19) 0.64506(17) 0.38465(11)
C7 C 0.70951(19) 0.51523(17) 0.37182(11)
C8 C 0.71807(19) 0.42238(17) 0.45727(12)
C9 C 0.69166(19) 0.28470(17) 0.47252(12)
C10 C 0.69346(19) 0.19047(17) 0.56345(12)
C11 C 0.5813(2) 0.10454(19) 0.58890(13)
H7 H 0.5070 0.1059 0.5478
C12 C 0.5777(2) 0.01771(19) 0.67348(13)
H8 H 0.5022 -0.0392 0.6892
C13 C 0.6871(2) 0.01629(18) 0.73436(12)
C14 C 0.8965(2) 0.6457(2) 0.79537(13)
C15 C 0.9850(2) 0.7229(2) 0.73427(14)
H9 H 1.0666 0.7570 0.7533
C16 C 0.9520(2) 0.7496(2) 0.64439(13)
H10 H 1.0122 0.8019 0.6029
C17 C 0.83024(19) 0.69990(18) 0.61434(12)
C18 C 0.80043(19) 0.72726(18) 0.51712(12)
C19 C 0.7633(2) 0.62507(17) 0.47778(12)
C20 C 0.8010(2) 0.0980(2) 0.71163(14)
H11 H 0.8752 0.0952 0.7531
C21 C 0.8040(2) 0.18406(19) 0.62649(13)
H12 H 0.8813 0.2388 0.6109
C22 C 0.65817(19) 0.24334(17) 0.39734(12)
H13 H 0.6442 0.1522 0.4036
C23 C 0.64476(19) 0.33354(18) 0.31269(12)
C24 C 0.66307(18) 0.47237(17) 0.29723(11)
C25 C 0.80676(19) 0.87395(17) 0.36634(13)
C26 C 0.8169(2) 0.85295(18) 0.45840(13)
H14 H 0.8354 0.9255 0.4814
C27 C 0.9756(2) 0.7423(2) 0.11721(15)
H15 H 1.0561 0.6905 0.1019
C28 C 0.9297(2) 0.7146(2) 0.20500(14)
H16 H 0.9793 0.6440 0.2482
C29 C 0.60731(19) 0.56635(17) 0.21055(12)
C30 C 0.4859(2) 0.65930(19) 0.21118(13)
H17 H 0.4503 0.6712 0.2654
C31 C 0.4175(2) 0.7342(2) 0.13201(16)
H18 H 0.3359 0.7954 0.1333
C32 C 0.4697(3) 0.7186(2) 0.05123(16)
H19 H 0.4224 0.7680 -0.0018
C33 C 0.5915(3) 0.6301(2) 0.04924(14)
H20 H 0.6282 0.6210 -0.0053
C34 C 0.6603(2) 0.5544(2) 0.12821(13)
H21 H 0.7430 0.4947 0.1261
C35 C 0.7414(2) 0.6235(2) 0.67852(13)
H22 H 0.6585 0.5906 0.6601
C36 C 0.7739(2) 0.5957(2) 0.76864(13)
H23 H 0.7141 0.5441 0.8107
loop_
_geom_bond_atom_site_label_1
_geom_bond_atom_site_label_2
_geom_bond_site_symmetry_1
_geom_bond_site_symmetry_2
Cl1 C13 1_555 1_555
Cl2 C14 1_555 1_555
O1 H1 1_555 1_555
O2 H2 1_555 1_555
N1 H3 1_555 1_555
C1 H4 1_555 1_555
C2 C1 1_555 1_555
H5 C2 1_555 1_555
C3 C2 1_555 1_555
H6 C3 1_555 1_555
C4 C3 1_555 1_555
C5 C4 1_555 1_555
C6 C5 1_555 1_555
C7 C6 1_555 1_555
C8 N1 1_555 1_555
C9 C8 1_555 1_555
C10 C9 1_555 1_555
C11 C10 1_555 1_555
H7 C11 1_555 1_555
C12 C11 1_555 1_555
H8 C12 1_555 1_555
C13 C12 1_555 1_555
C14 C15 1_555 1_555
C15 H9 1_555 1_555
C16 C15 1_555 1_555
H10 C16 1_555 1_555
C17 C16 1_555 1_555
C18 C17 1_555 1_555
C19 N1 1_555 1_555
C20 C13 1_555 1_555
H11 C20 1_555 1_555
C21 C10 1_555 1_555
H12 C21 1_555 1_555
C22 C9 1_555 1_555
H13 C22 1_555 1_555
C23 O1 1_555 1_555
C24 C7 1_555 1_555
C25 O2 1_555 1_555
C26 C18 1_555 1_555
H14 C26 1_555 1_555
C27 C1 1_555 1_555
H15 C27 1_555 1_555
C28 C4 1_555 1_555
H16 C28 1_555 1_555
C29 C24 1_555 1_555
C30 C29 1_555 1_555
H17 C30 1_555 1_555
C31 C30 1_555 1_555
H18 C31 1_555 1_555
C32 C31 1_555 1_555
H19 C32 1_555 1_555
C33 C32 1_555 1_555
H20 C33 1_555 1_555
C34 C29 1_555 1_555
H21 C34 1_555 1_555
C35 C17 1_555 1_555
H22 C35 1_555 1_555
C36 C14 1_555 1_555
H23 C36 1_555 1_555
C5 C25 1_555 1_555
C6 C19 1_555 1_555
C7 C8 1_555 1_555
C18 C19 1_555 1_555
C20 C21 1_555 1_555
C22 C23 1_555 1_555
C23 C24 1_555 1_555
C25 C26 1_555 1_555
C27 C28 1_555 1_555
C33 C34 1_555 1_555
C35 C36 1_555 1_555

#END
