
#######################################################################
#
#                 Cambridge Crystallographic Data Centre
#                                CCDC 
#
#######################################################################
#
# If this CIF has been generated from an entry in the Cambridge 
# Structural Database, then it will include bibliographic, chemical, 
# crystal, experimental, refinement or atomic coordinate data resulting 
# from the CCDC's data processing and validation procedures.
#
#######################################################################

data_WECMEW
_chemical_formula_moiety         'C44 H48 O12'
_chemical_name_systematic        
1,4,7,10(1,3)-tetrakis(5-(Methoxycarbonylmethoxy)benzena)cyclododecaphane
_symmetry_cell_setting           triclinic
_symmetry_space_group_name_H-M   'P -1'
_symmetry_Int_Tables_number      2
_space_group_name_Hall           '-P 1'
loop_
_symmetry_equiv_pos_site_id
_symmetry_equiv_pos_as_xyz
1 x,y,z
2 -x,-y,-z
_cell_length_a                   8.353(2)
_cell_length_b                   10.906(2)
_cell_length_c                   11.316(2)
_cell_angle_alpha                94.15(1)
_cell_angle_beta                 97.02(2)
_cell_angle_gamma                110.71(1)
_cell_volume                     949.576
_exptl_crystal_colour            colorless
_chemical_melting_point          134-135deg.C
_cell_formula_units_Z            1
loop_
_atom_site_label
_atom_site_type_symbol
_atom_site_fract_x
_atom_site_fract_y
_atom_site_fract_z
O1 O 0.58453(21) 0.39645(14) 0.40346(14)
O2 O 0.67441(22) 0.27215(15) 0.58222(14)
O3 O 0.90054(20) 0.45698(15) 0.65907(13)
C1 C 0.04144(29) 0.23905(21) 0.08682(20)
C2 C 0.17477(28) 0.35303(19) 0.04410(18)
C3 C 0.33134(27) 0.43341(19) 0.13591(18)
C4 C 0.39426(29) 0.38019(20) 0.22944(19)
C5 C 0.53599(29) 0.46024(20) 0.31296(18)
C6 C 0.61586(28) 0.59310(19) 0.30405(19)
C7 C 0.55389(27) 0.64754(19) 0.20883(18)
C8 C 0.41434(27) 0.56689(19) 0.12589(18)
C9 C 0.72747(29) 0.47275(21) 0.49059(19)
C10 C 0.75890(29) 0.38538(22) 0.58050(19)
C11 C 0.94893(32) 0.39038(23) 0.75468(20)
O4 O 0.21774(21) 1.05235(15) 0.28666(14)
O5 O 0.02016(22) 0.87262(16) 0.41951(15)
O6 O 0.24066(21) 0.93846(15) 0.57333(13)
C12 C 0.64205(29) 0.79359(19) 0.20347(20)
C13 C 0.57926(28) 0.84953(20) 0.09405(20)
C14 C 0.40952(28) 0.86839(19) 0.09787(19)
C15 C 0.39258(28) 0.94795(20) 0.19379(19)
C16 C 0.23907(29) 0.96868(19) 0.19659(19)
C17 C 0.10163(28) 0.91152(19) 0.10476(19)
C18 C -0.11397(29) 0.16948(19) -0.00856(19)
C19 C 0.26966(29) 0.81092(20) 0.00615(19)
C20 C 0.28838(33) 1.04958(22) 0.40620(19)
C21 C 0.16503(31) 0.94256(21) 0.46369(20)
C22 C 0.13574(37) 0.84410(26) 0.64227(24)
H1 H 0.0036 0.2724 0.1547
H2 H 0.0927 0.1774 0.1126
H3 H 0.1197 0.4106 0.0136
H4 H 0.2146 0.3179 -0.0217
H5 H 0.3411 0.2879 0.2368
H6 H 0.7128 0.6477 0.3627
H7 H 0.3730 0.6045 0.0602
H8 H 0.7037 0.5439 0.5302
H9 H 0.8284 0.5096 0.4534
H10 H 1.0516 0.4501 0.8056
H11 H 0.8563 0.3611 0.8008
H12 H 0.9710 0.3155 0.7213
H13 H 0.7643 0.8135 0.2078
H14 H 0.6256 0.8400 0.2736
H15 H 0.5659 0.7893 0.0241
H16 H 0.6665 0.9325 0.0857
H17 H 0.4872 0.9879 0.2586
H18 H -0.0034 0.9279 0.1081
H19 H 0.2804 0.7560 -0.0603
H20 H 0.3127 1.1333 0.4524
H21 H 0.3952 1.0349 0.4074
H22 H 0.2018 0.8486 0.7192
H23 H 0.0347 0.8637 0.6531
H24 H 0.1009 0.7569 0.6001
C18A C 0.11397(29) 0.83052(19) 0.00856(19)
C17A C -0.10163(28) 0.08848(19) -0.10476(19)
C19A C -0.26966(29) 0.18908(20) -0.00615(19)
C1A C -0.04144(29) 0.76095(21) -0.08682(20)
C16A C -0.23907(29) 0.03132(19) -0.19659(19)
H18A H 0.0034 0.0721 -0.1081
C14A C -0.40952(28) 0.13161(19) -0.09787(19)
H19A H -0.2804 0.2440 0.0603
C2A C -0.17477(28) 0.64697(19) -0.04410(18)
H1A H -0.0036 0.7276 -0.1547
H2A H -0.0927 0.8226 -0.1126
O4A O -0.21774(21) -0.05235(15) -0.28666(14)
C15A C -0.39258(28) 0.05205(20) -0.19379(19)
C13A C -0.57926(28) 0.15047(20) -0.09405(20)
C3A C -0.33134(27) 0.56659(19) -0.13591(18)
H3A H -0.1197 0.5894 -0.0136
H4A H -0.2146 0.6821 0.0217
C20A C -0.28838(33) -0.04958(22) -0.40620(19)
H17A H -0.4872 0.0121 -0.2586
C12A C -0.64205(29) 0.20641(19) -0.20347(20)
H15A H -0.5659 0.2107 -0.0241
H16A H -0.6665 0.0675 -0.0857
C4A C -0.39426(29) 0.61981(20) -0.22944(19)
C8A C -0.41434(27) 0.43311(19) -0.12589(18)
C21A C -0.16503(31) 0.05744(21) -0.46369(20)
H20A H -0.3127 -0.1333 -0.4524
H21A H -0.3952 -0.0349 -0.4074
C7A C -0.55389(27) 0.35246(19) -0.20883(18)
H13A H -0.7643 0.1865 -0.2078
H14A H -0.6256 0.1600 -0.2736
C5A C -0.53599(29) 0.53976(20) -0.31296(18)
H5A H -0.3411 0.7121 -0.2368
H7A H -0.3730 0.3955 -0.0602
O5A O -0.02016(22) 0.12738(16) -0.41951(15)
O6A O -0.24066(21) 0.06154(15) -0.57333(13)
C6A C -0.61586(28) 0.40690(19) -0.30405(19)
O1A O -0.58453(21) 0.60355(14) -0.40346(14)
C22A C -0.13574(37) 0.15590(26) -0.64227(24)
H6A H -0.7128 0.3523 -0.3627
C9A C -0.72747(29) 0.52725(21) -0.49059(19)
H22A H -0.2018 0.1514 -0.7192
H23A H -0.0347 0.1363 -0.6531
H24A H -0.1009 0.2431 -0.6001
C10A C -0.75890(29) 0.61462(22) -0.58050(19)
H8A H -0.7037 0.4561 -0.5302
H9A H -0.8284 0.4904 -0.4534
O2A O -0.67441(22) 0.72785(15) -0.58222(14)
O3A O -0.90054(20) 0.54302(15) -0.65907(13)
C11A C -0.94893(32) 0.60962(23) -0.75468(20)
H10A H -1.0516 0.5499 -0.8056
H11A H -0.8563 0.6389 -0.8008
H12A H -0.9710 0.6845 -0.7213
loop_
_geom_bond_atom_site_label_1
_geom_bond_atom_site_label_2
_geom_bond_site_symmetry_1
_geom_bond_site_symmetry_2
O1 C5 1_555 1_555
O2 C10 1_555 1_555
O3 C10 1_555 1_555
C1 C2 1_555 1_555
C2 C3 1_555 1_555
C3 C4 1_555 1_555
C4 C5 1_555 1_555
C5 C6 1_555 1_555
C6 C7 1_555 1_555
C7 C8 1_555 1_555
C8 C3 1_555 1_555
C9 O1 1_555 1_555
C10 C9 1_555 1_555
C11 O3 1_555 1_555
O4 C16 1_555 1_555
O5 C21 1_555 1_555
O6 C21 1_555 1_555
C12 C7 1_555 1_555
C13 C12 1_555 1_555
C14 C13 1_555 1_555
C15 C14 1_555 1_555
C16 C15 1_555 1_555
C17 C16 1_555 1_555
C18 C1 1_555 1_555
C19 C14 1_555 1_555
C20 O4 1_555 1_555
C21 C20 1_555 1_555
C22 O6 1_555 1_555
H1 C1 1_555 1_555
H2 C1 1_555 1_555
H3 C2 1_555 1_555
H4 C2 1_555 1_555
H5 C4 1_555 1_555
H6 C6 1_555 1_555
H7 C8 1_555 1_555
H8 C9 1_555 1_555
H9 C9 1_555 1_555
H10 C11 1_555 1_555
H11 C11 1_555 1_555
H12 C11 1_555 1_555
H13 C12 1_555 1_555
H14 C12 1_555 1_555
H15 C13 1_555 1_555
H16 C13 1_555 1_555
H17 C15 1_555 1_555
H18 C17 1_555 1_555
H19 C19 1_555 1_555
H20 C20 1_555 1_555
H21 C20 1_555 1_555
H22 C22 1_555 1_555
H23 C22 1_555 1_555
H24 C22 1_555 1_555
C18A C17 1_555 1_555
C17A C18 1_555 1_555
C19A C18 1_555 1_555
C1A C18A 1_555 1_555
C16A C17A 1_555 1_555
H18A C17A 1_555 1_555
C14A C19A 1_555 1_555
H19A C19A 1_555 1_555
C2A C1A 1_555 1_555
H1A C1A 1_555 1_555
H2A C1A 1_555 1_555
O4A C16A 1_555 1_555
C15A C16A 1_555 1_555
C13A C14A 1_555 1_555
C3A C2A 1_555 1_555
H3A C2A 1_555 1_555
H4A C2A 1_555 1_555
C20A O4A 1_555 1_555
H17A C15A 1_555 1_555
C12A C13A 1_555 1_555
H15A C13A 1_555 1_555
H16A C13A 1_555 1_555
C4A C3A 1_555 1_555
C8A C3A 1_555 1_555
C21A C20A 1_555 1_555
H20A C20A 1_555 1_555
H21A C20A 1_555 1_555
C7A C12A 1_555 1_555
H13A C12A 1_555 1_555
H14A C12A 1_555 1_555
C5A C4A 1_555 1_555
H5A C4A 1_555 1_555
H7A C8A 1_555 1_555
O5A C21A 1_555 1_555
O6A C21A 1_555 1_555
C6A C7A 1_555 1_555
O1A C5A 1_555 1_555
C22A O6A 1_555 1_555
H6A C6A 1_555 1_555
C9A O1A 1_555 1_555
H22A C22A 1_555 1_555
H23A C22A 1_555 1_555
H24A C22A 1_555 1_555
C10A C9A 1_555 1_555
H8A C9A 1_555 1_555
H9A C9A 1_555 1_555
O2A C10A 1_555 1_555
O3A C10A 1_555 1_555
C11A O3A 1_555 1_555
H10A C11A 1_555 1_555
H11A C11A 1_555 1_555
H12A C11A 1_555 1_555
C19 C18A 1_555 1_555
C14A C15A 1_555 1_555
C8A C7A 1_555 1_555
C5A C6A 1_555 1_555

#END
