
#######################################################################
#
#                 Cambridge Crystallographic Data Centre
#                                CCDC 
#
#######################################################################
#
# If this CIF has been generated from an entry in the Cambridge 
# Structural Database, then it will include bibliographic, chemical, 
# crystal, experimental, refinement or atomic coordinate data resulting 
# from the CCDC's data processing and validation procedures.
#
#######################################################################

data_WECMAS
_chemical_formula_moiety         'C64 H64 O8,C6 H12,C2 H6 O1'
_chemical_name_systematic        
'1,4,7,10,13,16,19,22(1,3)-octakis(2-Hydroxybenzena)cyclotetracosaphane cyclohexane ethanol solvate'
_symmetry_cell_setting           monoclinic
_symmetry_space_group_name_H-M   'P 21/n'
_symmetry_Int_Tables_number      14
_space_group_name_Hall           '-P 2yn'
loop_
_symmetry_equiv_pos_site_id
_symmetry_equiv_pos_as_xyz
1 x,y,z
2 1/2-x,1/2+y,1/2-z
3 -x,-y,-z
4 1/2+x,1/2-y,1/2+z
_cell_length_a                   17.940(3)
_cell_length_b                   7.846(1)
_cell_length_c                   22.733(4)
_cell_angle_alpha                90
_cell_angle_beta                 109.61(1)
_cell_angle_gamma                90
_cell_volume                     3014.24
_exptl_crystal_colour            colorless
_chemical_melting_point          207-209deg.C
_cell_formula_units_Z            2
loop_
_atom_site_label
_atom_site_type_symbol
_atom_site_fract_x
_atom_site_fract_y
_atom_site_fract_z
O1 O 0.3205(2) 0.2519(6) 0.4556(2)
C4 C 0.4581(3) 0.4403(8) 0.4112(3)
C5 C 0.3791(4) 0.5279(8) 0.4051(3)
C6 C 0.3078(3) 0.4295(7) 0.3677(3)
C7 C 0.2660(4) 0.4703(8) 0.3068(3)
C8 C 0.1997(4) 0.3806(8) 0.2722(3)
C9 C 0.1733(3) 0.2454(8) 0.2994(3)
C10 C 0.2123(3) 0.2012(7) 0.3605(3)
C11 C 0.2790(3) 0.2931(8) 0.3936(3)
O2 O 0.3032(2) -0.0787(5) 0.5243(2)
C12 C 0.1852(3) 0.0543(8) 0.3909(3)
C13 C 0.2316(3) -0.1085(7) 0.3941(3)
C14 C 0.2191(4) -0.2380(8) 0.4385(3)
C15 C 0.1701(4) -0.3773(8) 0.4177(3)
C16 C 0.1587(4) -0.4970(8) 0.4579(3)
C17 C 0.1987(4) -0.4795(8) 0.5207(3)
C18 C 0.2488(3) -0.3447(8) 0.5448(3)
C19 C 0.2567(3) -0.2218(8) 0.5026(3)
O3 O 0.3621(2) 0.0502(5) 0.6552(2)
C20 C 0.2911(3) -0.3244(8) 0.6136(3)
C21 C 0.2487(3) -0.2014(8) 0.6440(3)
C22 C 0.3002(3) -0.1386(7) 0.7066(3)
C23 C 0.2966(3) -0.2046(8) 0.7619(3)
C24 C 0.3448(4) -0.1476(8) 0.8186(3)
C25 C 0.3984(3) -0.0183(8) 0.8216(3)
C26 C 0.4056(3) 0.0529(7) 0.7678(3)
C27 C 0.3563(3) -0.0116(7) 0.7106(3)
O4 O 0.4534(2) 0.3254(5) 0.6369(2)
C28 C 0.4632(3) 0.1939(7) 0.7696(3)
C29 C 0.4216(3) 0.3663(7) 0.7483(3)
C30 C 0.4695(3) 0.4934(7) 0.7270(3)
C31 C 0.4997(3) 0.6385(8) 0.7615(3)
C32 C 0.5439(3) 0.7567(8) 0.7411(3)
C33 C 0.5563(3) 0.7291(8) 0.6855(3)
C34 C 0.4731(3) 0.4145(7) 0.3510(3)
C35 C 0.4849(3) 0.4691(7) 0.6714(3)
H7 H 0.3047 0.1553 0.4636
H8 H 0.4579 0.3311 0.4302
H9 H 0.5012 0.5051 0.4386
H10 H 0.3784 0.6361 0.3852
H11 H 0.3762 0.5489 0.4458
H12 H 0.2831 0.5659 0.2883
H13 H 0.1722 0.4110 0.2295
H14 H 0.1280 0.1800 0.2756
H15 H 0.3120 -0.0699 0.5633
H16 H 0.1303 0.0321 0.3686
H17 H 0.1900 0.0865 0.4328
H18 H 0.2869 -0.0804 0.4069
H19 H 0.2166 -0.1571 0.3530
H20 H 0.1424 -0.3888 0.3737
H21 H 0.1239 -0.5919 0.4424
H22 H 0.1926 -0.5649 0.5490
H23 H 0.3942 0.1336 0.6636
H24 H 0.3441 -0.2848 0.6209
H25 H 0.2938 -0.4332 0.6335
H26 H 0.2024 -0.2548 0.6479
H27 H 0.2320 -0.1059 0.6163
H28 H 0.2590 -0.2931 0.7601
H29 H 0.3415 -0.1948 0.8566
H30 H 0.4315 0.0237 0.8615
H31 H 0.4728 0.3161 0.6077
H32 H 0.4933 0.1654 0.7432
H33 H 0.4994 0.2057 0.8115
H34 H 0.4081 0.4153 0.7821
H35 H 0.3733 0.3458 0.7144
H36 H 0.4899 0.6587 0.7999
H37 H 0.5647 0.8566 0.7655
H38 H 0.5868 0.8104 0.6717
C34B C 0.5269(3) 0.5855(7) 0.6490(3)
C33B C 0.4437(3) 0.2709(8) 0.3145(3)
C35B C 0.5151(3) 0.5309(7) 0.3286(3)
C4B C 0.5419(3) 0.5597(8) 0.5888(3)
C32B C 0.4561(3) 0.2433(8) 0.2589(3)
H38B H 0.4132 0.1896 0.3283
O4B O 0.5466(2) 0.6746(5) 0.3631(2)
C30B C 0.5305(3) 0.5066(7) 0.2730(3)
C5B C 0.6209(4) 0.4721(8) 0.5949(3)
H8B H 0.5421 0.6689 0.5698
H9B H 0.4988 0.4949 0.5614
C31B C 0.5003(3) 0.3615(8) 0.2385(3)
H37B H 0.4353 0.1434 0.2345
H31B H 0.5272 0.6839 0.3923
C29B C 0.5784(3) 0.6337(7) 0.2517(3)
C6B C 0.6922(3) 0.5705(7) 0.6323(3)
H10B H 0.6216 0.3639 0.6148
H11B H 0.6238 0.4511 0.5542
H36B H 0.5101 0.3413 0.2001
C28B C 0.5368(3) 0.8061(7) 0.2304(3)
H34B H 0.5919 0.5847 0.2179
H35B H 0.6267 0.6542 0.2856
C7B C 0.7340(4) 0.5297(8) 0.6932(3)
C11B C 0.7210(3) 0.7069(8) 0.6064(3)
C26B C 0.5944(3) 0.9471(7) 0.2322(3)
H32B H 0.5067 0.8346 0.2568
H33B H 0.5006 0.7943 0.1885
C8B C 0.8003(4) 0.6194(8) 0.7278(3)
H12B H 0.7169 0.4341 0.7117
O1B O 0.6795(2) 0.7481(6) 0.5444(2)
C10B C 0.7877(3) 0.7988(7) 0.6395(3)
C25B C 0.6016(3) 1.0183(8) 0.1784(3)
C27B C 0.6437(3) 1.0116(7) 0.2894(3)
C9B C 0.8267(3) 0.7546(8) 0.7006(3)
H13B H 0.8278 0.5890 0.7705
H7B H 0.6953 0.8447 0.5364
C12B C 0.8148(3) 0.9457(8) 0.6091(3)
C24B C 0.6552(4) 1.1476(8) 0.1814(3)
H30B H 0.5685 0.9763 0.1385
O3B O 0.6379(2) 0.9498(5) 0.3448(2)
C22B C 0.6998(3) 1.1386(7) 0.2934(3)
H14B H 0.8720 0.8200 0.7244
C13B C 0.7684(3) 1.1085(7) 0.6059(3)
H16B H 0.8697 0.9679 0.6314
H17B H 0.8100 0.9135 0.5672
C23B C 0.7034(3) 1.2046(8) 0.2381(3)
H29B H 0.6585 1.1948 0.1434
H23B H 0.6058 0.8664 0.3364
C21B C 0.7513(3) 1.2014(8) 0.3560(3)
C14B C 0.7809(4) 1.2380(8) 0.5615(3)
H18B H 0.7131 1.0804 0.5931
H19B H 0.7834 1.1571 0.6470
H28B H 0.7410 1.2931 0.2399
C20B C 0.7089(3) 1.3244(8) 0.3864(3)
H26B H 0.7976 1.2548 0.3521
H27B H 0.7680 1.1059 0.3837
C15B C 0.8299(4) 1.3773(8) 0.5823(3)
C19B C 0.7433(3) 1.2218(8) 0.4974(3)
C18B C 0.7512(3) 1.3447(8) 0.4552(3)
H24B H 0.6559 1.2848 0.3791
H25B H 0.7062 1.4332 0.3665
C16B C 0.8413(4) 1.4970(8) 0.5421(3)
H20B H 0.8576 1.3888 0.6263
O2B O 0.6968(2) 1.0787(5) 0.4757(2)
C17B C 0.8013(4) 1.4795(8) 0.4793(3)
H21B H 0.8761 1.5919 0.5576
H15B H 0.6880 1.0699 0.4367
H22B H 0.8074 1.5649 0.4510
C1 C -0.0185(14) -0.1862(28) 0.4906(13)
C2 C 0.0134(14) -0.1114(34) 0.5465(11)
C3 C -0.0138(15) -0.0546(39) 0.4460(11)
H1 H -0.0714 -0.2278 0.4823
H2 H 0.0155 -0.2801 0.4901
H3 H 0.0672 -0.1461 0.5666
H4 H -0.0162 -0.1545 0.5715
H5 H -0.0574 -0.0815 0.4090
H6 H 0.0331 -0.0796 0.4362
C3B C 0.0138(15) 0.0546(39) 0.5540(11)
C2B C -0.0134(14) 0.1114(34) 0.4535(11)
C1B C 0.0185(14) 0.1862(28) 0.5094(13)
H5B H 0.0574 0.0815 0.5910
H6B H -0.0331 0.0796 0.5638
H3B H -0.0672 0.1461 0.4334
H4B H 0.0162 0.1545 0.4285
H1B H 0.0714 0.2278 0.5177
H2B H -0.0155 0.2801 0.5099
C36? C 0.4945(10) 0.0241(22) 0.5365(7)
C37? C 0.4798(9) -0.0547(20) 0.4754(7)
O5? O 0.4689(5) 0.1802(11) 0.5401(4)
H39? H 0.5499 0.0505 0.5529
H40? H 0.4826 -0.0565 0.5638
H41? H 0.5099 -0.1568 0.4769
H42? H 0.4243 -0.0808 0.4595
H43? H 0.4921 0.0268 0.4485
H44? H 0.4284 0.1757 0.5072
loop_
_geom_bond_atom_site_label_1
_geom_bond_atom_site_label_2
_geom_bond_site_symmetry_1
_geom_bond_site_symmetry_2
C1 C2 1_555 1_555
C2 H3 1_555 1_555
C3 C1 1_555 1_555
H1 C1 1_555 1_555
H2 C1 1_555 1_555
H4 C2 1_555 1_555
H5 C3 1_555 1_555
H6 C3 1_555 1_555
O1 C11 1_555 1_555
C4 C5 1_555 1_555
C5 C6 1_555 1_555
C6 C7 1_555 1_555
C7 C8 1_555 1_555
C8 C9 1_555 1_555
C9 C10 1_555 1_555
C10 C11 1_555 1_555
C11 C6 1_555 1_555
O2 C19 1_555 1_555
C12 C10 1_555 1_555
C13 C12 1_555 1_555
C14 C13 1_555 1_555
C15 C14 1_555 1_555
C16 C15 1_555 1_555
C17 C16 1_555 1_555
C18 C17 1_555 1_555
C19 C14 1_555 1_555
O3 C27 1_555 1_555
C20 C18 1_555 1_555
C21 C20 1_555 1_555
C22 C21 1_555 1_555
C23 C22 1_555 1_555
C24 C23 1_555 1_555
C25 C24 1_555 1_555
C26 C25 1_555 1_555
C27 C22 1_555 1_555
O4 C35 1_555 1_555
C28 C26 1_555 1_555
C29 C28 1_555 1_555
C30 C29 1_555 1_555
C31 C30 1_555 1_555
C32 C31 1_555 1_555
C33 C32 1_555 1_555
C34 C4 1_555 1_555
C35 C30 1_555 1_555
H7 O1 1_555 1_555
H8 C4 1_555 1_555
H9 C4 1_555 1_555
H10 C5 1_555 1_555
H11 C5 1_555 1_555
H12 C7 1_555 1_555
H13 C8 1_555 1_555
H14 C9 1_555 1_555
H15 O2 1_555 1_555
H16 C12 1_555 1_555
H17 C12 1_555 1_555
H18 C13 1_555 1_555
H19 C13 1_555 1_555
H20 C15 1_555 1_555
H21 C16 1_555 1_555
H22 C17 1_555 1_555
H23 O3 1_555 1_555
H24 C20 1_555 1_555
H25 C20 1_555 1_555
H26 C21 1_555 1_555
H27 C21 1_555 1_555
H28 C23 1_555 1_555
H29 C24 1_555 1_555
H30 C25 1_555 1_555
H31 O4 1_555 1_555
H32 C28 1_555 1_555
H33 C28 1_555 1_555
H34 C29 1_555 1_555
H35 C29 1_555 1_555
H36 C31 1_555 1_555
H37 C32 1_555 1_555
H38 C33 1_555 1_555
C3B C2 1_555 1_555
C2B C3 1_555 1_555
C1B C3B 1_555 1_555
H5B C3B 1_555 1_555
H6B C3B 1_555 1_555
H3B C2B 1_555 1_555
H4B C2B 1_555 1_555
H1B C1B 1_555 1_555
H2B C1B 1_555 1_555
C34B C33 1_555 1_555
C33B C34 1_555 1_555
C35B C34 1_555 1_555
C4B C34B 1_555 1_555
C32B C33B 1_555 1_555
H38B C33B 1_555 1_555
O4B C35B 1_555 1_555
C30B C35B 1_555 1_555
C5B C4B 1_555 1_555
H8B C4B 1_555 1_555
H9B C4B 1_555 1_555
C31B C32B 1_555 1_555
H37B C32B 1_555 1_555
H31B O4B 1_555 1_555
C29B C30B 1_555 1_555
C6B C5B 1_555 1_555
H10B C5B 1_555 1_555
H11B C5B 1_555 1_555
H36B C31B 1_555 1_555
C28B C29B 1_555 1_555
H34B C29B 1_555 1_555
H35B C29B 1_555 1_555
C7B C6B 1_555 1_555
C11B C6B 1_555 1_555
C26B C28B 1_555 1_555
H32B C28B 1_555 1_555
H33B C28B 1_555 1_555
C8B C7B 1_555 1_555
H12B C7B 1_555 1_555
O1B C11B 1_555 1_555
C10B C11B 1_555 1_555
C25B C26B 1_555 1_555
C27B C26B 1_555 1_555
C9B C8B 1_555 1_555
H13B C8B 1_555 1_555
H7B O1B 1_555 1_555
C12B C10B 1_555 1_555
C24B C25B 1_555 1_555
H30B C25B 1_555 1_555
O3B C27B 1_555 1_555
C22B C27B 1_555 1_555
H14B C9B 1_555 1_555
C13B C12B 1_555 1_555
H16B C12B 1_555 1_555
H17B C12B 1_555 1_555
C23B C24B 1_555 1_555
H29B C24B 1_555 1_555
H23B O3B 1_555 1_555
C21B C22B 1_555 1_555
C14B C13B 1_555 1_555
H18B C13B 1_555 1_555
H19B C13B 1_555 1_555
H28B C23B 1_555 1_555
C20B C21B 1_555 1_555
H26B C21B 1_555 1_555
H27B C21B 1_555 1_555
C15B C14B 1_555 1_555
C19B C14B 1_555 1_555
C18B C20B 1_555 1_555
H24B C20B 1_555 1_555
H25B C20B 1_555 1_555
C16B C15B 1_555 1_555
H20B C15B 1_555 1_555
O2B C19B 1_555 1_555
C17B C18B 1_555 1_555
H21B C16B 1_555 1_555
H15B O2B 1_555 1_555
H22B C17B 1_555 1_555
C18 C19 1_555 1_555
C26 C27 1_555 1_555
C35 C34B 1_555 1_555
C2B C1B 1_555 1_555
C30B C31B 1_555 1_555
C10B C9B 1_555 1_555
C22B C23B 1_555 1_555
C19B C18B 1_555 1_555
C16B C17B 1_555 1_555

#END
