
#######################################################################
#
#                 Cambridge Crystallographic Data Centre
#                                CCDC 
#
#######################################################################
#
# If this CIF has been generated from an entry in the Cambridge 
# Structural Database, then it will include bibliographic, chemical, 
# crystal, experimental, refinement or atomic coordinate data resulting 
# from the CCDC's data processing and validation procedures.
#
#######################################################################

data_WECNUP
_chemical_formula_moiety         'C24 H24 Br2 O7 S2'
_chemical_name_systematic        
2,6-bis((5-bromo-3-(1,3-dioxolan-2-yl)-2-thienyl)methylene)-4,4-dimethoxycyclohexanone
_symmetry_cell_setting           triclinic
_symmetry_space_group_name_H-M   'P -1'
_symmetry_Int_Tables_number      2
_space_group_name_Hall           '-P 1'
loop_
_symmetry_equiv_pos_site_id
_symmetry_equiv_pos_as_xyz
1 x,y,z
2 -x,-y,-z
_cell_length_a                   9.1549(3)
_cell_length_b                   10.2793(3)
_cell_length_c                   14.5581(4)
_cell_angle_alpha                79.6984(3)
_cell_angle_beta                 77.6664(3)
_cell_angle_gamma                69.1243(3)
_cell_volume                     1242.59
_exptl_crystal_colour            yellow
_exptl_crystal_description       plate
_cell_formula_units_Z            2
loop_
_atom_site_label
_atom_site_type_symbol
_atom_site_fract_x
_atom_site_fract_y
_atom_site_fract_z
Br1 Br 0.71693(3) 0.28488(2) 0.157558(13)
Br2 Br 0.11603(2) -0.111243(19) 1.110736(14)
S1 S 0.64475(5) 0.26540(4) 0.37567(3)
S2 S 0.32369(5) 0.00519(4) 0.94298(3)
O1 O 0.60886(16) 0.37391(13) 0.73255(9)
O2 O 0.97579(14) 0.53849(14) 0.38353(10)
O3 O 0.73629(16) 0.69685(14) 0.36899(12)
O4 O 0.67812(16) -0.12571(12) 0.63154(9)
O5 O 0.80697(14) -0.01366(13) 0.69795(9)
O6 O 0.10134(15) 0.43415(13) 1.09917(9)
O7 O 0.36275(15) 0.38963(13) 1.04892(10)
C1 C 0.7221(2) 0.34217(18) 0.27128(11)
C2 C 0.7820(2) 0.43956(18) 0.28333(12)
H1 H 0.8302 0.4913 0.2331
C3 C 0.76387(19) 0.45474(17) 0.38103(11)
C4 C 0.69472(18) 0.36483(16) 0.44083(11)
C5 C 0.65908(17) 0.35430(17) 0.54328(11)
H2 H 0.6558 0.4330 0.5704
C6 C 0.63002(18) 0.24925(16) 0.60548(11)
C7 C 0.6325(2) 0.11228(17) 0.58159(11)
H3 H 0.7149 0.0836 0.5258
H4 H 0.5288 0.1237 0.5652
C8 C 0.66678(19) -0.00139(17) 0.66490(11)
C9 C 0.53769(19) 0.03767(17) 0.75044(11)
H5 H 0.4367 0.0371 0.7365
H6 H 0.5662 -0.0334 0.8051
C10 C 0.51503(18) 0.18026(16) 0.77599(11)
C11 C 0.58867(18) 0.27527(17) 0.70757(11)
C12 C 0.42753(18) 0.23291(16) 0.85605(11)
H7 H 0.4273 0.3232 0.8629
C13 C 0.33384(18) 0.17334(16) 0.93313(11)
C14 C 0.24152(19) 0.23975(16) 1.01067(11)
C15 C 0.16357(19) 0.15713(17) 1.07710(11)
H8 H 0.0961 0.1874 1.1341
C16 C 0.1978(2) 0.02928(17) 1.04881(12)
C17 C 0.8128(2) 0.56185(18) 0.41312(12)
H9 H 0.7858 0.5600 0.4835
C18 C 0.9920(2) 0.6713(2) 0.38523(16)
H10 H 1.0862 0.6818 0.3405
H11 H 1.0009 0.6833 0.4496
C19 C 0.8416(3) 0.7746(2) 0.3551(2)
H12 H 0.7979 0.8536 0.3943
H13 H 0.8610 0.8123 0.2879
C20 C 0.7159(3) -0.24919(19) 0.69712(15)
H14 H 0.7320 -0.3310 0.6656
H15 H 0.6287 -0.2413 0.7506
H16 H 0.8131 -0.2601 0.7203
C21 C 0.9489(2) -0.0409(2) 0.63167(16)
H17 H 1.0388 -0.0612 0.6646
H18 H 0.9434 0.0414 0.5849
H19 H 0.9629 -0.1216 0.5996
C22 C 0.22405(19) 0.38600(16) 1.02347(11)
H20 H 0.2012 0.4495 0.9639
C23 C 0.1342(2) 0.5465(2) 1.12614(15)
H21 H 0.1057 0.5493 1.1955
H22 H 0.0742 0.6375 1.0942
C24 C 0.3124(2) 0.5149(2) 1.09453(14)
H23 H 0.3347 0.5929 1.0499
H24 H 0.3666 0.4993 1.1495
loop_
_geom_bond_atom_site_label_1
_geom_bond_atom_site_label_2
_geom_bond_site_symmetry_1
_geom_bond_site_symmetry_2
Br1 C1 1_555 1_555
Br2 C16 1_555 1_555
S1 C1 1_555 1_555
S2 C13 1_555 1_555
O1 C11 1_555 1_555
O2 C17 1_555 1_555
O3 C17 1_555 1_555
O4 C8 1_555 1_555
O5 C8 1_555 1_555
O6 C22 1_555 1_555
O7 C22 1_555 1_555
C1 C2 1_555 1_555
C2 H1 1_555 1_555
C3 C2 1_555 1_555
C4 S1 1_555 1_555
C5 C4 1_555 1_555
H2 C5 1_555 1_555
C6 C5 1_555 1_555
C7 C6 1_555 1_555
H3 C7 1_555 1_555
H4 C7 1_555 1_555
C8 C7 1_555 1_555
C9 C8 1_555 1_555
H5 C9 1_555 1_555
H6 C9 1_555 1_555
C10 C9 1_555 1_555
C11 C6 1_555 1_555
C12 C10 1_555 1_555
H7 C12 1_555 1_555
C13 C12 1_555 1_555
C14 C13 1_555 1_555
C15 C14 1_555 1_555
H8 C15 1_555 1_555
C16 S2 1_555 1_555
C17 C3 1_555 1_555
H9 C17 1_555 1_555
C18 O2 1_555 1_555
H10 C18 1_555 1_555
H11 C18 1_555 1_555
C19 O3 1_555 1_555
H12 C19 1_555 1_555
H13 C19 1_555 1_555
C20 O4 1_555 1_555
H14 C20 1_555 1_555
H15 C20 1_555 1_555
H16 C20 1_555 1_555
C21 O5 1_555 1_555
H17 C21 1_555 1_555
H18 C21 1_555 1_555
H19 C21 1_555 1_555
C22 C14 1_555 1_555
H20 C22 1_555 1_555
C23 O6 1_555 1_555
H21 C23 1_555 1_555
H22 C23 1_555 1_555
C24 O7 1_555 1_555
H23 C24 1_555 1_555
H24 C24 1_555 1_555
C3 C4 1_555 1_555
C10 C11 1_555 1_555
C15 C16 1_555 1_555
C18 C19 1_555 1_555
C23 C24 1_555 1_555

#END
