
#######################################################################
#
#                 Cambridge Crystallographic Data Centre
#                                CCDC 
#
#######################################################################
#
# If this CIF has been generated from an entry in the Cambridge 
# Structural Database, then it will include bibliographic, chemical, 
# crystal, experimental, refinement or atomic coordinate data resulting 
# from the CCDC's data processing and validation procedures.
#
#######################################################################

data_WECPEB
_chemical_formula_moiety         'C15 H15 Cl1 O1'
_chemical_name_systematic        3-Chloro-1,1-diphenylpropan-1-ol
_symmetry_cell_setting           monoclinic
_symmetry_space_group_name_H-M   'P 21/c'
_symmetry_Int_Tables_number      14
_space_group_name_Hall           '-P 2ybc'
loop_
_symmetry_equiv_pos_site_id
_symmetry_equiv_pos_as_xyz
1 x,y,z
2 -x,1/2+y,1/2-z
3 -x,-y,-z
4 x,1/2-y,1/2+z
_cell_length_a                   8.6724(12)
_cell_length_b                   12.418(2)
_cell_length_c                   11.9146(16)
_cell_angle_alpha                90
_cell_angle_beta                 103.379(5)
_cell_angle_gamma                90
_cell_volume                     1248.31
_exptl_crystal_colour            colorless
_exptl_crystal_description       plate
_cell_formula_units_Z            4
loop_
_atom_site_label
_atom_site_type_symbol
_atom_site_fract_x
_atom_site_fract_y
_atom_site_fract_z
Cl1 Cl 0.17102(6) 0.03278(4) 0.88906(4)
O1 O 0.48906(17) 0.21262(12) 0.69775(12)
H1 H 0.550(3) 0.162(2) 0.697(2)
C1 C 0.4960(2) 0.24624(16) 0.81452(16)
C2 C 0.4209(2) 0.15785(16) 0.87513(17)
H2 H 0.4860 0.0917 0.8810
H3 H 0.4206 0.1817 0.9544
C3 C 0.2527(3) 0.13240(18) 0.81097(18)
H4 H 0.2524 0.1053 0.7328
H5 H 0.1874 0.1986 0.8028
C4 C 0.3811(2) 0.39924(17) 0.90894(16)
H6 H 0.4303 0.3684 0.9814
C5 C 0.2926(2) 0.49254(17) 0.90571(18)
H7 H 0.2812 0.5252 0.9754
C6 C 0.2204(2) 0.53818(16) 0.79990(18)
H8 H 0.1594 0.6021 0.7971
C7 C 0.2379(2) 0.49019(17) 0.69915(18)
H9 H 0.1889 0.5214 0.6269
C8 C 0.3266(2) 0.39649(17) 0.70267(17)
H10 H 0.3377 0.3641 0.6327
C9 C 0.3992(2) 0.34982(16) 0.80771(16)
C10 C 0.6689(2) 0.26842(16) 0.87562(16)
C11 C 0.7408(2) 0.22540(16) 0.98293(16)
H11 H 0.6804 0.1827 1.0233
C12 C 0.8997(2) 0.24448(17) 1.03126(17)
H12 H 0.9477 0.2141 1.1041
C13 C 0.9893(3) 0.30747(18) 0.97430(18)
H13 H 1.0984 0.3199 1.0074
C14 C 0.9176(3) 0.35208(18) 0.86840(18)
H14 H 0.9773 0.3965 0.8293
C15 C 0.7592(2) 0.33214(17) 0.81945(17)
H15 H 0.7116 0.3625 0.7464
loop_
_geom_bond_atom_site_label_1
_geom_bond_atom_site_label_2
_geom_bond_site_symmetry_1
_geom_bond_site_symmetry_2
Cl1 C3 1_555 1_555
O1 H1 1_555 1_555
C1 O1 1_555 1_555
C2 C1 1_555 1_555
H2 C2 1_555 1_555
H3 C2 1_555 1_555
C3 C2 1_555 1_555
H4 C3 1_555 1_555
H5 C3 1_555 1_555
C4 H6 1_555 1_555
C5 C4 1_555 1_555
H7 C5 1_555 1_555
C6 C5 1_555 1_555
H8 C6 1_555 1_555
C7 C6 1_555 1_555
H9 C7 1_555 1_555
C8 C7 1_555 1_555
H10 C8 1_555 1_555
C9 C1 1_555 1_555
C10 C1 1_555 1_555
C11 C10 1_555 1_555
H11 C11 1_555 1_555
C12 C11 1_555 1_555
H12 C12 1_555 1_555
C13 C12 1_555 1_555
H13 C13 1_555 1_555
C14 C13 1_555 1_555
H14 C14 1_555 1_555
C15 C10 1_555 1_555
H15 C15 1_555 1_555
C4 C9 1_555 1_555
C8 C9 1_555 1_555
C14 C15 1_555 1_555

#END
