
#######################################################################
#
#                 Cambridge Crystallographic Data Centre
#                                CCDC 
#
#######################################################################
#
# If this CIF has been generated from an entry in the Cambridge 
# Structural Database, then it will include bibliographic, chemical, 
# crystal, experimental, refinement or atomic coordinate data resulting 
# from the CCDC's data processing and validation procedures.
#
#######################################################################

data_WECPAV
_chemical_formula_moiety         'C57 H42 O3,0.5(C4 H10 O1)'
_chemical_name_systematic        
'4,10,15-Trioxo-1(1,3,5),2(1,4),6(1,4),7(1,3,5),8(1,4),12(1,4),13(1,4),17(1,4)-Octabenzenabicyclo(5.5.5)heptadecaphane diethylether solvate'
_symmetry_cell_setting           monoclinic
_symmetry_space_group_name_H-M   'C 2/c'
_symmetry_Int_Tables_number      15
_space_group_name_Hall           '-C 2yn'
loop_
_symmetry_equiv_pos_site_id
_symmetry_equiv_pos_as_xyz
1 x,y,z
2 1/2+x,1/2+y,z
3 -x,y,1/2-z
4 1/2-x,1/2+y,1/2-z
5 -x,-y,-z
6 1/2-x,1/2-y,-z
7 x,-y,1/2+z
8 1/2+x,1/2-y,1/2+z
_cell_length_a                   20.131(7)
_cell_length_b                   17.273(2)
_cell_length_c                   25.521(12)
_cell_angle_alpha                90
_cell_angle_beta                 104.11(2)
_cell_angle_gamma                90
_cell_volume                     8606.49
_exptl_crystal_colour            colorless
_cell_formula_units_Z            8
loop_
_atom_site_label
_atom_site_type_symbol
_atom_site_fract_x
_atom_site_fract_y
_atom_site_fract_z
C1 C 0.2209(3) 0.1397(3) 0.0132(3)
C2 C 0.1912(3) 0.1802(3) 0.0486(3)
C3 C 0.2300(3) 0.2264(4) 0.0892(3)
C4 C 0.3004(3) 0.2318(3) 0.0946(3)
C5 C 0.3317(3) 0.1906(4) 0.0603(3)
C6 C 0.2915(3) 0.1458(4) 0.0198(3)
C7 C 0.2514(3) -0.0477(4) 0.1032(3)
C8 C 0.2363(3) -0.0013(4) 0.1435(3)
C9 C 0.2864(3) 0.0409(4) 0.1796(3)
C10 C 0.3532(3) 0.0367(4) 0.1735(3)
C11 C 0.3710(3) -0.0104(4) 0.1339(3)
C12 C 0.3191(3) -0.0517(4) 0.0989(3)
C13 C 0.1793(3) 0.0897(4) -0.0293(3)
C14 C 0.2068(3) 0.0237(4) -0.0470(3)
C15 C 0.1678(4) -0.0261(4) -0.0838(3)
C16 C 0.0986(4) -0.0125(4) -0.1042(3)
C17 C 0.0706(3) 0.0542(4) -0.0885(3)
C18 C 0.1096(3) 0.1044(4) -0.0524(3)
C19 C 0.0532(4) -0.0736(4) -0.1381(3)
C20 C 0.0068(4) -0.1087(4) -0.1052(3)
O1 O -0.0487(3) -0.0795(3) -0.1075(2)
C21 C 0.0331(4) -0.1751(4) -0.0681(3)
C22 C 0.0893(4) -0.1496(4) -0.0204(3)
C23 C 0.0766(4) -0.0898(4) 0.0120(3)
C24 C 0.1280(4) -0.0590(4) 0.0522(3)
C25 C 0.1954(3) -0.0869(4) 0.0632(3)
C26 C 0.2077(4) -0.1489(3) 0.0319(3)
C27 C 0.1549(4) -0.1800(4) -0.0094(3)
C28 C 0.1977(3) 0.2654(4) 0.1286(3)
C29 C 0.1434(3) 0.2287(4) 0.1443(3)
C30 C 0.1165(3) 0.2586(4) 0.1846(3)
C31 C 0.1434(4) 0.3243(4) 0.2121(3)
C32 C 0.1954(4) 0.3638(4) 0.1958(3)
C33 C 0.2219(3) 0.3349(4) 0.1542(3)
C34 C 0.1194(4) 0.3486(4) 0.2616(3)
C35 C 0.1319(4) 0.2859(4) 0.3031(3)
O2 O 0.0866(3) 0.2573(3) 0.3201(3)
C36 C 0.2056(4) 0.2578(4) 0.3264(3)
C37 C 0.22784 0.1982(4) 0.2905(3)
C38 C 0.1966(4) 0.1279(4) 0.2796(3)
C39 C 0.2167(3) 0.0758(4) 0.2446(3)
C40 C 0.2680(3) 0.0932(4) 0.2189(3)
C41 C 0.3014(3) 0.1628(4) 0.2314(3)
C42 C 0.2815(4) 0.2149(4) 0.2668(3)
C43 C 0.4070(3) 0.1928(3) 0.0678(3)
C44 C 0.4500(4) 0.1992(4) 0.1187(3)
C45 C 0.5204(4) 0.1959(4) 0.1272(3)
C46 C 0.5500(3) 0.1847(4) 0.0839(3)
C47 C 0.5084(3) 0.1802(4) 0.0323(3)
C48 C 0.4379(3) 0.1839(4) 0.0242(3)
C49 C 0.6273(3) 0.1744(4) 0.0934(3)
C50 C 0.6455(3) 0.0966(5) 0.0741(3)
O3 O 0.6561(2) 0.0899(3) 0.0299(2)
C51 C 0.6484(3) 0.0263(4) 0.1101(3)
C52 C 0.5782(3) 0.0065(4) 0.1192(3)
C53 C 0.5264(4) -0.0140(4) 0.0752(3)
C54 C 0.4592(3) -0.0216(4) 0.0799(3)
C55 C 0.4432(3) -0.0117(4) 0.1291(3)
C56 C 0.4966(4) 0.0027(4) 0.1729(3)
C57 C 0.5637(4) 0.0128(5) 0.1682(3)
H1 H 0.1426 0.1765 0.0442
H2 H 0.3276 0.2645 0.1220
H3 H 0.3125 0.1178 -0.0044
H4 H 0.1894 0.0023 0.1457
H5 H 0.3882 0.0678 0.1963
H6 H 0.3300 -0.0828 0.0710
H7 H 0.2546 0.0132 -0.0326
H8 H 0.1885 -0.0706 -0.0958
H9 H 0.0231 0.0655 -0.1037
H10 H 0.0896 0.1507 -0.0421
H11 H 0.0809 -0.1132 -0.1484
H12 H 0.0258 -0.0499 -0.1702
H13 H 0.0509 -0.2138 -0.0880
H14 H -0.0040 -0.1975 -0.0557
H15 H 0.0310 -0.0693 0.0056
H16 H 0.1186 -0.0162 0.0734
H17 H 0.2533 -0.1693 0.0384
H18 H 0.1643 -0.2235 -0.0299
H19 H 0.1242 0.1824 0.1258
H20 H 0.0793 0.2328 0.1948
H21 H 0.2126 0.4113 0.2136
H22 H 0.2572 0.3625 0.1426
H23 H 0.0712 0.3596 0.2514
H24 H 0.1433 0.3947 0.2766
H25 H 0.2084 0.2358 0.3615
H26 H 0.2363 0.3011 0.3306
H27 H 0.1612 0.1137 0.2969
H28 H 0.1940 0.0268 0.2371
H29 H 0.3385 0.1755 0.2154
H30 H 0.3051 0.2633 0.2751
H31 H 0.4298 0.2063 0.1487
H32 H 0.5497 0.2012 0.1628
H33 H 0.5286 0.1738 0.0022
H34 H 0.4090 0.1812 -0.0117
H35 H 0.6473 0.1786 0.1315
H36 H 0.6460 0.2147 0.0753
H37 H 0.6795 0.0367 0.1444
H38 H 0.6656 -0.0170 0.0939
H39 H 0.5371 -0.0229 0.0410
H40 H 0.4230 -0.0338 0.0490
H41 H 0.4866 0.0052 0.2078
H42 H 0.5944 0.0251 0.1995
O4 O 0.5000 0.2836(20) 0.2500
C58 C 0.4356(17) 0.3468(20) 0.2414(13)
C59 C 0.4161(13) 0.3952(15) 0.2838(12)
C58B C 0.5644(17) 0.3468(20) 0.2586(13)
C59B C 0.5839(13) 0.3952(15) 0.2162(12)
O5? O 0.5000 0.3958(18) 0.2500
C60? C 0.4147(13) 0.4106(16) 0.2393(11)
loop_
_geom_bond_atom_site_label_1
_geom_bond_atom_site_label_2
_geom_bond_site_symmetry_1
_geom_bond_site_symmetry_2
C1 C2 1_555 1_555
C2 C3 1_555 1_555
C3 C4 1_555 1_555
C4 C5 1_555 1_555
C5 C6 1_555 1_555
C6 C1 1_555 1_555
C7 C8 1_555 1_555
C8 C9 1_555 1_555
C9 C10 1_555 1_555
C10 C11 1_555 1_555
C11 C12 1_555 1_555
C12 C7 1_555 1_555
C13 C1 1_555 1_555
C14 C13 1_555 1_555
C15 C14 1_555 1_555
C16 C15 1_555 1_555
C17 C16 1_555 1_555
C18 C13 1_555 1_555
C19 C16 1_555 1_555
C20 C19 1_555 1_555
O1 C20 1_555 1_555
C21 C20 1_555 1_555
C22 C21 1_555 1_555
C23 C22 1_555 1_555
C24 C23 1_555 1_555
C25 C7 1_555 1_555
C26 C25 1_555 1_555
C27 C22 1_555 1_555
C28 C3 1_555 1_555
C29 C28 1_555 1_555
C30 C29 1_555 1_555
C31 C30 1_555 1_555
C32 C31 1_555 1_555
C33 C28 1_555 1_555
C34 C31 1_555 1_555
C35 C34 1_555 1_555
O2 C35 1_555 1_555
C36 C35 1_555 1_555
C37 C36 1_555 1_555
C38 C37 1_555 1_555
C39 C38 1_555 1_555
C40 C9 1_555 1_555
C41 C40 1_555 1_555
C42 C37 1_555 1_555
C43 C5 1_555 1_555
C44 C43 1_555 1_555
C45 C44 1_555 1_555
C46 C45 1_555 1_555
C47 C46 1_555 1_555
C48 C43 1_555 1_555
C49 C46 1_555 1_555
C50 C49 1_555 1_555
O3 C50 1_555 1_555
C51 C50 1_555 1_555
C52 C51 1_555 1_555
C53 C52 1_555 1_555
C54 C53 1_555 1_555
C55 C11 1_555 1_555
C56 C55 1_555 1_555
C57 C52 1_555 1_555
H1 C2 1_555 1_555
H2 C4 1_555 1_555
H3 C6 1_555 1_555
H4 C8 1_555 1_555
H5 C10 1_555 1_555
H6 C12 1_555 1_555
H7 C14 1_555 1_555
H8 C15 1_555 1_555
H9 C17 1_555 1_555
H10 C18 1_555 1_555
H11 C19 1_555 1_555
H12 C19 1_555 1_555
H13 C21 1_555 1_555
H14 C21 1_555 1_555
H15 C23 1_555 1_555
H16 C24 1_555 1_555
H17 C26 1_555 1_555
H18 C27 1_555 1_555
H19 C29 1_555 1_555
H20 C30 1_555 1_555
H21 C32 1_555 1_555
H22 C33 1_555 1_555
H23 C34 1_555 1_555
H24 C34 1_555 1_555
H25 C36 1_555 1_555
H26 C36 1_555 1_555
H27 C38 1_555 1_555
H28 C39 1_555 1_555
H29 C41 1_555 1_555
H30 C42 1_555 1_555
H31 C44 1_555 1_555
H32 C45 1_555 1_555
H33 C47 1_555 1_555
H34 C48 1_555 1_555
H35 C49 1_555 1_555
H36 C49 1_555 1_555
H37 C51 1_555 1_555
H38 C51 1_555 1_555
H39 C53 1_555 1_555
H40 C54 1_555 1_555
H41 C56 1_555 1_555
H42 C57 1_555 1_555
O4 C58 1_555 1_555
C58 C59 1_555 1_555
C58B O4 1_555 1_555
C59B C58B 1_555 1_555
C17 C18 1_555 1_555
C24 C25 1_555 1_555
C26 C27 1_555 1_555
C32 C33 1_555 1_555
C39 C40 1_555 1_555
C41 C42 1_555 1_555
C47 C48 1_555 1_555
C54 C55 1_555 1_555
C56 C57 1_555 1_555

#END
