
#######################################################################
#
#                 Cambridge Crystallographic Data Centre
#                                CCDC 
#
#######################################################################
#
# If this CIF has been generated from an entry in the Cambridge 
# Structural Database, then it will include bibliographic, chemical, 
# crystal, experimental, refinement or atomic coordinate data resulting 
# from the CCDC's data processing and validation procedures.
#
#######################################################################

data_WECPIF
_chemical_formula_moiety         'C17 H19 Cl1 O1'
_chemical_name_systematic        5-Chloro-1,1-diphenylpentan-1-ol
_symmetry_cell_setting           triclinic
_symmetry_space_group_name_H-M   'P -1'
_symmetry_Int_Tables_number      2
_space_group_name_Hall           '-P 1'
loop_
_symmetry_equiv_pos_site_id
_symmetry_equiv_pos_as_xyz
1 x,y,z
2 -x,-y,-z
_cell_length_a                   5.7947(13)
_cell_length_b                   8.725(3)
_cell_length_c                   15.227(3)
_cell_angle_alpha                102.201(15)
_cell_angle_beta                 96.988(14)
_cell_angle_gamma                105.02(2)
_cell_volume                     713.955
_exptl_crystal_colour            colorless
_cell_formula_units_Z            2
loop_
_atom_site_label
_atom_site_type_symbol
_atom_site_fract_x
_atom_site_fract_y
_atom_site_fract_z
Cl1 Cl 0.18683(3) 0.34494(2) 0.487741(11)
O1 O 0.82386(7) -0.07828(5) 0.71024(3)
H1 H 0.806(2) -0.1414(14) 0.6643(8)
C1 C 0.59471(9) -0.09482(6) 0.73997(3)
C2 C 0.41489(9) -0.06266(6) 0.66836(4)
H2 H 0.3765 -0.1519 0.6117
H3 H 0.2618 -0.0653 0.6915
C3 C 0.51206(10) 0.10162(7) 0.64560(4)
H4 H 0.5690 0.1901 0.7030
H5 H 0.6529 0.0995 0.6150
C4 C 0.31732(11) 0.13839(7) 0.58338(4)
H6 H 0.2607 0.0504 0.5258
H7 H 0.1763 0.1406 0.6139
C5 C 0.41650(12) 0.30166(8) 0.56176(4)
H8 H 0.5580 0.2996 0.5316
H9 H 0.4724 0.3897 0.6193
C6 C 0.44927(11) 0.04334(7) 0.87647(4)
H10 H 0.2918 -0.0312 0.8517
C7 C 0.48691(13) 0.16036(8) 0.95860(4)
H11 H 0.3553 0.1653 0.9896
C8 C 0.71620(14) 0.27019(8) 0.99552(4)
H12 H 0.7420 0.3503 1.0516
C9 C 0.90669(13) 0.26181(8) 0.94979(5)
H13 H 1.0638 0.3367 0.9746
C10 C 0.86962(11) 0.14426(7) 0.86752(5)
H14 H 1.0018 0.1394 0.8369
C11 C 0.64111(9) 0.03438(6) 0.83012(4)
C12 C 0.50552(9) -0.26467(6) 0.75763(4)
C13 C 0.26486(10) -0.36349(7) 0.73069(4)
H15 H 0.1479 -0.3273 0.6980
C14 C 0.19461(11) -0.51554(7) 0.75153(5)
H16 H 0.0301 -0.5818 0.7332
C15 C 0.36412(13) -0.56997(7) 0.79877(5)
H17 H 0.3162 -0.6735 0.8127
C16 C 0.60466(12) -0.47240(7) 0.82568(4)
H18 H 0.7214 -0.5094 0.8579
C17 C 0.67434(10) -0.32123(7) 0.80555(4)
H19 H 0.8388 -0.2551 0.8245
loop_
_geom_bond_atom_site_label_1
_geom_bond_atom_site_label_2
_geom_bond_site_symmetry_1
_geom_bond_site_symmetry_2
Cl1 C5 1_555 1_555
O1 H1 1_555 1_555
C1 O1 1_555 1_555
C2 C1 1_555 1_555
H2 C2 1_555 1_555
H3 C2 1_555 1_555
C3 C2 1_555 1_555
H4 C3 1_555 1_555
H5 C3 1_555 1_555
C4 C3 1_555 1_555
H6 C4 1_555 1_555
H7 C4 1_555 1_555
C5 C4 1_555 1_555
H8 C5 1_555 1_555
H9 C5 1_555 1_555
C6 H10 1_555 1_555
C7 C6 1_555 1_555
H11 C7 1_555 1_555
C8 C7 1_555 1_555
H12 C8 1_555 1_555
C9 C8 1_555 1_555
H13 C9 1_555 1_555
C10 C9 1_555 1_555
H14 C10 1_555 1_555
C11 C1 1_555 1_555
C12 C1 1_555 1_555
C13 C12 1_555 1_555
H15 C13 1_555 1_555
C14 C13 1_555 1_555
H16 C14 1_555 1_555
C15 C14 1_555 1_555
H17 C15 1_555 1_555
C16 C15 1_555 1_555
H18 C16 1_555 1_555
C17 C12 1_555 1_555
H19 C17 1_555 1_555
C6 C11 1_555 1_555
C10 C11 1_555 1_555
C16 C17 1_555 1_555

#END
