
#######################################################################
#
#                 Cambridge Crystallographic Data Centre
#                                CCDC 
#
#######################################################################
#
# If this CIF has been generated from an entry in the Cambridge 
# Structural Database, then it will include bibliographic, chemical, 
# crystal, experimental, refinement or atomic coordinate data resulting 
# from the CCDC's data processing and validation procedures.
#
#######################################################################

data_WECPEZ
_chemical_formula_moiety         'C42 H32 O2'
_chemical_name_systematic        
5,11-Dioxo-1(1,2),2(1,3),3(1,2),7(1,2),8(1,3),9(1,2)-hexabenzenacyclododecaphane
_symmetry_cell_setting           triclinic
_symmetry_space_group_name_H-M   'P -1'
_symmetry_Int_Tables_number      2
_space_group_name_Hall           '-P 1'
loop_
_symmetry_equiv_pos_site_id
_symmetry_equiv_pos_as_xyz
1 x,y,z
2 -x,-y,-z
_cell_length_a                   10.414(1)
_cell_length_b                   11.327(1)
_cell_length_c                   13.554(2)
_cell_angle_alpha                100.09(1)
_cell_angle_beta                 91.79(1)
_cell_angle_gamma                101.06(1)
_cell_volume                     1541.37
_exptl_crystal_colour            colorless
_chemical_melting_point          189-191deg.C
_cell_formula_units_Z            2
loop_
_atom_site_label
_atom_site_type_symbol
_atom_site_fract_x
_atom_site_fract_y
_atom_site_fract_z
O1 O 0.4438(2) 0.5668(2) 0.4150(1)
O2 O 0.4208(2) 0.4266(2) 0.0932(2)
C1 C 0.2854(3) 0.3937(2) 0.3422(2)
C2 C 0.3431(3) 0.4988(2) 0.4249(2)
C3 C 0.2654(3) 0.5209(3) 0.5175(2)
C4 C 0.3131(3) 0.6439(3) 0.5837(2)
C5 C 0.3841(3) 0.6532(3) 0.6741(2)
C6 C 0.4374(3) 0.7653(4) 0.7321(2)
C7 C 0.4209(3) 0.8690(3) 0.7001(2)
C8 C 0.3491(3) 0.8614(3) 0.6111(2)
C9 C 0.2935(3) 0.7494(3) 0.5521(2)
C10 C 0.2139(3) 0.7446(2) 0.4576(2)
C11 C 0.0781(3) 0.7126(3) 0.4530(2)
C12 C 0.0039(3) 0.7114(3) 0.3665(2)
C13 C 0.0649(3) 0.7396(3) 0.2821(2)
C14 C 0.2003(3) 0.7707(2) 0.2838(2)
C15 C 0.2733(3) 0.7731(2) 0.3721(2)
C16 C 0.2673(3) 0.8007(2) 0.1929(2)
C17 C 0.2589(3) 0.9084(3) 0.1609(2)
C18 C 0.3227(3) 0.9400(3) 0.0788(2)
C19 C 0.3971(3) 0.8642(3) 0.0280(2)
C20 C 0.4060(3) 0.7573(3) 0.0588(2)
C21 C 0.3407(3) 0.7228(2) 0.1401(2)
C22 C 0.3504(3) 0.6031(3) 0.1718(2)
C23 C 0.3447(3) 0.4942(3) 0.0897(2)
C24 C 0.2357(3) 0.4681(3) 0.0075(2)
C25 C 0.2231(3) 0.3456(3) -0.0605(2)
C26 C 0.2876(3) 0.3382(3) -0.1490(2)
C27 C 0.2861(3) 0.2268(3) -0.2090(2)
C28 C 0.2195(3) 0.1228(4) -0.1836(2)
C29 C 0.1531(3) 0.1283(3) -0.0971(2)
C30 C 0.1530(3) 0.2391(3) -0.0349(2)
C31 C 0.0789(3) 0.2424(3) 0.0577(2)
C32 C -0.0460(3) 0.2677(3) 0.0583(2)
C33 C -0.1145(3) 0.2672(4) 0.1432(2)
C34 C -0.0616(3) 0.2416(3) 0.2289(2)
C35 C 0.0638(3) 0.2173(3) 0.2315(2)
C36 C 0.1319(3) 0.2178(2) 0.1449(2)
C37 C 0.1270(3) 0.1908(2) 0.3233(2)
C38 C 0.0823(3) 0.0832(3) 0.3567(2)
C39 C 0.1466(3) 0.0527(3) 0.4366(2)
C40 C 0.2577(3) 0.1308(3) 0.4830(2)
C41 C 0.3024(3) 0.2387(3) 0.4521(2)
C42 C 0.2372(3) 0.2723(2) 0.3736(2)
H1 H 0.3499 0.3837 0.2940
H2 H 0.2126 0.4147 0.3088
H3 H 0.2699 0.4584 0.5560
H4 H 0.1751 0.5142 0.4960
H5 H 0.3953 0.5799 0.6962
H6 H 0.4874 0.7690 0.7937
H7 H 0.4555 0.9470 0.7416
H8 H 0.3399 0.9345 0.5877
H9 H 0.0352 0.6904 0.5106
H10 H -0.0900 0.6898 0.3641
H11 H 0.0135 0.7390 0.2220
H12 H 0.3672 0.7944 0.3738
H13 H 0.2084 0.9618 0.1972
H14 H 0.3153 1.0143 0.0567
H15 H 0.4425 0.8856 -0.0289
H16 H 0.4584 0.7050 0.0236
H17 H 0.2810 0.5840 0.2149
H18 H 0.4319 0.6155 0.2109
H19 H 0.2508 0.5309 -0.0322
H20 H 0.1542 0.4710 0.0381
H21 H 0.3329 0.4122 -0.1674
H22 H 0.3326 0.2241 -0.2691
H23 H 0.2193 0.0457 -0.2259
H24 H 0.1061 0.0546 -0.0793
H25 H -0.0847 0.2844 -0.0016
H26 H -0.1933 0.2887 0.1431
H27 H -0.1120 0.2371 0.2867
H28 H 0.2186 0.2004 0.1456
H29 H 0.0041 0.0293 0.3246
H30 H 0.1158 -0.0226 0.4591
H31 H 0.3044 0.1101 0.5376
H32 H 0.3797 0.2926 0.4858
loop_
_geom_bond_atom_site_label_1
_geom_bond_atom_site_label_2
_geom_bond_site_symmetry_1
_geom_bond_site_symmetry_2
O1 C2 1_555 1_555
O2 C23 1_555 1_555
C1 C2 1_555 1_555
C2 C3 1_555 1_555
C3 C4 1_555 1_555
C4 C5 1_555 1_555
C5 C6 1_555 1_555
C6 C7 1_555 1_555
C7 C8 1_555 1_555
C8 C9 1_555 1_555
C9 C4 1_555 1_555
C10 C9 1_555 1_555
C11 C10 1_555 1_555
C12 C11 1_555 1_555
C13 C12 1_555 1_555
C14 C13 1_555 1_555
C15 C10 1_555 1_555
C16 C14 1_555 1_555
C17 C16 1_555 1_555
C18 C17 1_555 1_555
C19 C18 1_555 1_555
C20 C19 1_555 1_555
C21 C16 1_555 1_555
C22 C21 1_555 1_555
C23 C22 1_555 1_555
C24 C23 1_555 1_555
C25 C24 1_555 1_555
C26 C25 1_555 1_555
C27 C26 1_555 1_555
C28 C27 1_555 1_555
C29 C28 1_555 1_555
C30 C25 1_555 1_555
C31 C30 1_555 1_555
C32 C31 1_555 1_555
C33 C32 1_555 1_555
C34 C33 1_555 1_555
C35 C34 1_555 1_555
C36 C31 1_555 1_555
C37 C35 1_555 1_555
C38 C37 1_555 1_555
C39 C38 1_555 1_555
C40 C39 1_555 1_555
C41 C40 1_555 1_555
C42 C1 1_555 1_555
H1 C1 1_555 1_555
H2 C1 1_555 1_555
H3 C3 1_555 1_555
H4 C3 1_555 1_555
H5 C5 1_555 1_555
H6 C6 1_555 1_555
H7 C7 1_555 1_555
H8 C8 1_555 1_555
H9 C11 1_555 1_555
H10 C12 1_555 1_555
H11 C13 1_555 1_555
H12 C15 1_555 1_555
H13 C17 1_555 1_555
H14 C18 1_555 1_555
H15 C19 1_555 1_555
H16 C20 1_555 1_555
H17 C22 1_555 1_555
H18 C22 1_555 1_555
H19 C24 1_555 1_555
H20 C24 1_555 1_555
H21 C26 1_555 1_555
H22 C27 1_555 1_555
H23 C28 1_555 1_555
H24 C29 1_555 1_555
H25 C32 1_555 1_555
H26 C33 1_555 1_555
H27 C34 1_555 1_555
H28 C36 1_555 1_555
H29 C38 1_555 1_555
H30 C39 1_555 1_555
H31 C40 1_555 1_555
H32 C41 1_555 1_555
C14 C15 1_555 1_555
C20 C21 1_555 1_555
C29 C30 1_555 1_555
C35 C36 1_555 1_555
C37 C42 1_555 1_555
C41 C42 1_555 1_555

#END
