
#######################################################################
#
#                 Cambridge Crystallographic Data Centre
#                                CCDC 
#
#######################################################################
#
# If this CIF has been generated from an entry in the Cambridge 
# Structural Database, then it will include bibliographic, chemical, 
# crystal, experimental, refinement or atomic coordinate data resulting 
# from the CCDC's data processing and validation procedures.
#
#######################################################################

data_WECWOS
_chemical_name_common            
5.11-t-butyl-17-carbonyl-26,27-25,28-bis(4-crown)calix(4)arene
_chemical_formula_moiety         'C49 H60 O9'
_chemical_name_systematic        
9,26-Di-t-butyl-13,16,19,22,36,39,42,45-octaoxaheptacyclo[32.12.1.1^11,24^.0^5,46^.0^7,12^.0^23,28^.0^30,35^]octatetraconta-1(46),2,4,7,9,11,23,25,27,30,32,34-dodecaene-3-carbaldehyde
_symmetry_cell_setting           monoclinic
_symmetry_space_group_name_H-M   'P 21/n'
_symmetry_Int_Tables_number      14
_space_group_name_Hall           '-P 2yn'
loop_
_symmetry_equiv_pos_site_id
_symmetry_equiv_pos_as_xyz
1 x,y,z
2 1/2-x,1/2+y,1/2-z
3 -x,-y,-z
4 1/2+x,1/2-y,1/2+z
_cell_length_a                   11.8666(9)
_cell_length_b                   23.3609(18)
_cell_length_c                   15.9821(12)
_cell_angle_alpha                90
_cell_angle_beta                 100.410(2)
_cell_angle_gamma                90
_cell_volume                     4357.54
_exptl_crystal_colour            colorless
_exptl_crystal_description       block
_cell_formula_units_Z            4
loop_
_atom_site_label
_atom_site_type_symbol
_atom_site_fract_x
_atom_site_fract_y
_atom_site_fract_z
C1 C 0.0739(3) 0.34780(17) 0.9081(2)
C2 C 0.1600(3) 0.32120(17) 0.9657(2)
H1 H 0.2135 0.3443 0.9997
C3 C 0.1706(3) 0.26218(17) 0.9754(2)
C4 C 0.0868(3) 0.22851(17) 0.9279(2)
C5 C -0.0033(3) 0.25260(19) 0.8697(2)
C6 C -0.0056(3) 0.31147(19) 0.8610(2)
H2 H -0.0639 0.3276 0.8212
C7 C 0.0700(4) 0.41172(18) 0.8933(2)
C8 C -0.0508(5) 0.4347(2) 0.8866(4)
H3 H -0.0794 0.4252 0.9374
H4 H -0.0993 0.4178 0.8383
H5 H -0.0502 0.4755 0.8799
C9 C 0.1461(6) 0.4444(2) 0.9621(4)
H6 H 0.1285 0.4340 1.0164
H7 H 0.1337 0.4848 0.9530
H8 H 0.2248 0.4355 0.9610
C10 C 0.1096(5) 0.4242(2) 0.8097(4)
H9 H 0.1107 0.4648 0.8008
H10 H 0.0578 0.4066 0.7637
H11 H 0.1852 0.4090 0.8118
C11 C 0.0568(5) 0.1431(2) 1.0017(4)
H12 H -0.0246 0.1496 0.9984
H13 H 0.0970 0.1596 1.0544
C12 C 0.0797(5) 0.0818(2) 1.0004(3)
H14 H 0.1598 0.0753 0.9981
H15 H 0.0335 0.0646 0.9505
C13 C 0.1374(5) 0.0179(2) 1.1163(3)
H16 H 0.1735 0.0012 1.0722
H17 H 0.1010 -0.0129 1.1422
C14 C 0.2258(4) 0.0425(2) 1.1802(3)
H18 H 0.1902 0.0590 1.2248
H19 H 0.2764 0.0121 1.2056
C15 C 0.3809(3) 0.06357(18) 1.1104(3)
H20 H 0.3494 0.0368 1.0659
H21 H 0.4360 0.0433 1.1523
C16 C 0.4383(3) 0.11165(17) 1.0737(2)
H22 H 0.4497 0.1436 1.1131
H23 H 0.5125 0.0995 1.0629
C17 C 0.2776(3) 0.23869(17) 1.0295(2)
H24 H 0.3044 0.2650 1.0757
H25 H 0.2604 0.2024 1.0540
C18 C 0.3699(3) 0.23008(17) 0.9775(2)
C19 C 0.4071(3) 0.17590(16) 0.9580(2)
C20 C 0.4780(3) 0.16841(16) 0.8986(2)
C21 C 0.5203(3) 0.21702(18) 0.8650(2)
H26 H 0.5684 0.2122 0.8256
C22 C 0.4948(3) 0.27252(17) 0.8870(2)
C23 C 0.4174(3) 0.27731(17) 0.9420(2)
H27 H 0.3958 0.3138 0.9562
C24 C 0.5064(3) 0.10890(17) 0.8705(2)
H28 H 0.5540 0.1121 0.8274
H29 H 0.5499 0.0886 0.9186
C25 C 0.4002(3) 0.07478(16) 0.8350(2)
C26 C 0.3280(3) 0.09224(16) 0.7608(2)
C27 C 0.2202(3) 0.06675(16) 0.7328(2)
C28 C 0.1921(3) 0.02086(17) 0.7786(2)
H30 H 0.1223 0.0026 0.7606
C29 C 0.2632(4) 0.00092(16) 0.8501(2)
C30 C 0.3664(3) 0.02814(16) 0.8781(2)
H31 H 0.4141 0.0149 0.9269
C31 C 0.2247(4) -0.0459(2) 0.8988(3)
H32 H 0.1577 -0.0649 0.8751
C32 C 0.4014(4) 0.12508(19) 0.6414(3)
H33 H 0.3449 0.1025 0.6039
H34 H 0.4723 0.1035 0.6537
C33 C 0.4205(4) 0.1812(2) 0.6008(3)
H35 H 0.4745 0.2043 0.6394
H36 H 0.4510 0.1750 0.5492
C34 C 0.3229(4) 0.2674(2) 0.5595(3)
H37 H 0.3346 0.2700 0.5011
H38 H 0.3887 0.2844 0.5958
C35 C 0.2180(4) 0.2991(2) 0.5689(3)
H39 H 0.2130 0.3330 0.5335
H40 H 0.1523 0.2752 0.5471
C36 C 0.2055(3) 0.27134(17) 0.7128(2)
H41 H 0.2077 0.2878 0.7687
H42 H 0.2723 0.2470 0.7153
C37 C 0.0990(3) 0.23577(17) 0.6893(2)
H43 H 0.0315 0.2589 0.6909
H44 H 0.0939 0.2203 0.6324
C38 C 0.1358(3) 0.09126(17) 0.6584(2)
H45 H 0.1678 0.1256 0.6378
H46 H 0.1231 0.0636 0.6123
C39 C 0.0225(3) 0.10558(17) 0.6846(2)
C40 C 0.0140(3) 0.15381(17) 0.7335(2)
C41 C -0.0839(3) 0.16535(18) 0.7667(2)
C42 C -0.1759(4) 0.1294(2) 0.7448(3)
H47 H -0.2427 0.1368 0.7656
C43 C -0.1722(4) 0.0829(2) 0.6931(3)
H48 H -0.2363 0.0597 0.6779
C44 C -0.0716(4) 0.0708(2) 0.6638(3)
H49 H -0.0679 0.0389 0.6296
C45 C -0.1012(3) 0.2173(2) 0.8198(3)
H50 H -0.1472 0.2045 0.8606
H51 H -0.1484 0.2437 0.7819
O1 O 0.0938(2) 0.16932(12) 0.93207(16)
O2 O 0.0516(3) 0.05619(16) 1.0776(3)
O3 O 0.2927(3) 0.08568(12) 1.14889(18)
O4 O 0.36605(19) 0.12869(10) 0.99532(14)
O5 O 0.2751(3) -0.06176(14) 0.9690(2)
O6 O 0.3612(2) 0.13813(11) 0.71840(15)
O7 O 0.3137(3) 0.20896(13) 0.58185(17)
O8 O 0.2099(2) 0.31619(11) 0.65283(18)
O9 O 0.10697(19) 0.19065(10) 0.74998(14)
C46 C 0.5458(3) 0.32517(18) 0.8527(3)
C47 C 0.6075(9) 0.3614(4) 0.9279(5)
H52 H 0.6542 0.3370 0.9684
H53 H 0.5517 0.3804 0.9548
H54 H 0.6550 0.3895 0.9073
C48 C 0.6313(8) 0.3102(4) 0.7944(7)
H55 H 0.6507 0.3443 0.7665
H56 H 0.5974 0.2828 0.7526
H57 H 0.6994 0.2942 0.8278
C49 C 0.4534(6) 0.3621(3) 0.8013(5)
H58 H 0.4872 0.3964 0.7837
H59 H 0.3977 0.3721 0.8356
H60 H 0.4166 0.3413 0.7520
C50? C 0.4813(16) 0.3794(7) 0.8696(15)
C51? C 0.6699(9) 0.3309(7) 0.8910(11)
C52? C 0.534(2) 0.3195(9) 0.7553(8)
H61? H 0.5077 0.3919 0.9270
H62? H 0.4007 0.3714 0.8615
H63? H 0.4950 0.4089 0.8309
H64? H 0.6789 0.3303 0.9519
H65? H 0.6987 0.3665 0.8732
H66? H 0.7119 0.2997 0.8724
H67? H 0.5412 0.3566 0.7310
H68? H 0.4597 0.3039 0.7322
H69? H 0.5923 0.2946 0.7421
loop_
_geom_bond_atom_site_label_1
_geom_bond_atom_site_label_2
_geom_bond_site_symmetry_1
_geom_bond_site_symmetry_2
C1 C2 1_555 1_555
C2 H1 1_555 1_555
C3 C2 1_555 1_555
C4 C3 1_555 1_555
C5 C4 1_555 1_555
C6 C1 1_555 1_555
H2 C6 1_555 1_555
C7 C1 1_555 1_555
C8 C7 1_555 1_555
H3 C8 1_555 1_555
H4 C8 1_555 1_555
H5 C8 1_555 1_555
C9 C7 1_555 1_555
H6 C9 1_555 1_555
H7 C9 1_555 1_555
H8 C9 1_555 1_555
C10 C7 1_555 1_555
H9 C10 1_555 1_555
H10 C10 1_555 1_555
H11 C10 1_555 1_555
C11 H12 1_555 1_555
H13 C11 1_555 1_555
C12 C11 1_555 1_555
H14 C12 1_555 1_555
H15 C12 1_555 1_555
C13 H16 1_555 1_555
H17 C13 1_555 1_555
C14 C13 1_555 1_555
H18 C14 1_555 1_555
H19 C14 1_555 1_555
C15 H20 1_555 1_555
H21 C15 1_555 1_555
C16 C15 1_555 1_555
H22 C16 1_555 1_555
H23 C16 1_555 1_555
C17 C3 1_555 1_555
H24 C17 1_555 1_555
H25 C17 1_555 1_555
C18 C17 1_555 1_555
C19 C18 1_555 1_555
C20 C19 1_555 1_555
C21 C20 1_555 1_555
H26 C21 1_555 1_555
C22 C21 1_555 1_555
C23 C18 1_555 1_555
H27 C23 1_555 1_555
C24 C20 1_555 1_555
H28 C24 1_555 1_555
H29 C24 1_555 1_555
C25 C24 1_555 1_555
C26 C25 1_555 1_555
C27 C26 1_555 1_555
C28 C27 1_555 1_555
H30 C28 1_555 1_555
C29 C28 1_555 1_555
C30 C25 1_555 1_555
H31 C30 1_555 1_555
C31 C29 1_555 1_555
H32 C31 1_555 1_555
C32 H33 1_555 1_555
H34 C32 1_555 1_555
C33 C32 1_555 1_555
H35 C33 1_555 1_555
H36 C33 1_555 1_555
C34 H37 1_555 1_555
H38 C34 1_555 1_555
C35 C34 1_555 1_555
H39 C35 1_555 1_555
H40 C35 1_555 1_555
C36 H41 1_555 1_555
H42 C36 1_555 1_555
C37 C36 1_555 1_555
H43 C37 1_555 1_555
H44 C37 1_555 1_555
C38 C27 1_555 1_555
H45 C38 1_555 1_555
H46 C38 1_555 1_555
C39 C38 1_555 1_555
C40 C39 1_555 1_555
C41 C40 1_555 1_555
C42 C41 1_555 1_555
H47 C42 1_555 1_555
C43 C42 1_555 1_555
H48 C43 1_555 1_555
C44 C39 1_555 1_555
H49 C44 1_555 1_555
C45 C5 1_555 1_555
H50 C45 1_555 1_555
H51 C45 1_555 1_555
O1 C4 1_555 1_555
O2 C12 1_555 1_555
O3 C14 1_555 1_555
O4 C16 1_555 1_555
O5 C31 1_555 1_555
O6 C26 1_555 1_555
O7 C33 1_555 1_555
O8 C35 1_555 1_555
O9 C37 1_555 1_555
C46 C22 1_555 1_555
C47 C46 1_555 1_555
H52 C47 1_555 1_555
H53 C47 1_555 1_555
H54 C47 1_555 1_555
C48 C46 1_555 1_555
H55 C48 1_555 1_555
H56 C48 1_555 1_555
H57 C48 1_555 1_555
C49 C46 1_555 1_555
H58 C49 1_555 1_555
H59 C49 1_555 1_555
H60 C49 1_555 1_555
C5 C6 1_555 1_555
C11 O1 1_555 1_555
C13 O2 1_555 1_555
C15 O3 1_555 1_555
C19 O4 1_555 1_555
C22 C23 1_555 1_555
C29 C30 1_555 1_555
C32 O6 1_555 1_555
C34 O7 1_555 1_555
C36 O8 1_555 1_555
C40 O9 1_555 1_555
C41 C45 1_555 1_555
C43 C44 1_555 1_555

#END
