
#######################################################################
#
#                 Cambridge Crystallographic Data Centre
#                                CCDC 
#
#######################################################################
#
# If this CIF has been generated from an entry in the Cambridge 
# Structural Database, then it will include bibliographic, chemical, 
# crystal, experimental, refinement or atomic coordinate data resulting 
# from the CCDC's data processing and validation procedures.
#
#######################################################################

data_WECWUY
_chemical_formula_moiety         'C49 H60 O10,C2 H3 N1'
_chemical_name_systematic        
'9,26-Di-t-butyl-13,16,19,22,36,39,42,45-octaoxaheptacyclo[32.12.1.1^11,24^.0^5,46^.0^7,12^.0^23,28^.0^30,35^]octatetraconta-1(46),2,4,7,9,11,23,25,27,30,32,34-dodecaene-3-carboxylic acid acetonitrile solvate'
_symmetry_cell_setting           triclinic
_symmetry_space_group_name_H-M   'P -1'
_symmetry_Int_Tables_number      2
_space_group_name_Hall           '-P 1'
loop_
_symmetry_equiv_pos_site_id
_symmetry_equiv_pos_as_xyz
1 x,y,z
2 -x,-y,-z
_cell_length_a                   14.2769(10)
_cell_length_b                   18.5647(13)
_cell_length_c                   19.1637(13)
_cell_angle_alpha                79.6950(10)
_cell_angle_beta                 83.9770(10)
_cell_angle_gamma                78.1860(10)
_cell_volume                     4879.16
_exptl_crystal_colour            colorless
_exptl_crystal_description       block
_cell_formula_units_Z            4
loop_
_atom_site_label
_atom_site_type_symbol
_atom_site_fract_x
_atom_site_fract_y
_atom_site_fract_z
C1 C 0.7667(2) 0.6769(2) 0.41679(17)
C2 C 0.8351(3) 0.6119(2) 0.40990(18)
C3 C 0.9209(3) 0.6034(2) 0.43983(19)
H1 H 0.9668 0.5605 0.4361
C4 C 0.9414(2) 0.6561(2) 0.47521(18)
C5 C 0.8741(3) 0.7223(2) 0.47786(18)
H2 H 0.8881 0.7592 0.4999
C6 C 0.7872(3) 0.7333(2) 0.44825(17)
C7 C 1.0344(3) 0.6446(2) 0.5060(2)
C8 C 0.8166(3) 0.5539(2) 0.3690(2)
H3 H 0.8202 0.5064 0.4004
H4 H 0.7524 0.5687 0.3526
C9 C 0.8885(3) 0.54490(19) 0.3060(2)
C10 C 0.8760(2) 0.59251(18) 0.2415(2)
C11 C 0.9442(3) 0.5883(2) 0.1832(2)
C12 C 1.0250(3) 0.5313(2) 0.1927(3)
H5 H 1.0720 0.5266 0.1555
C13 C 1.0373(3) 0.4824(2) 0.2549(3)
H6 H 1.0913 0.4446 0.2589
C14 C 0.9706(3) 0.4887(2) 0.3110(3)
H7 H 0.9799 0.4553 0.3531
C15 C 0.9337(3) 0.6372(2) 0.1125(2)
H8 H 0.9004 0.6130 0.0846
H9 H 0.9980 0.6359 0.0899
C16 C 0.8845(2) 0.7187(2) 0.10360(18)
C17 C 0.8887(2) 0.7670(2) 0.15077(17)
C18 C 0.8440(2) 0.84135(19) 0.13778(18)
C19 C 0.7981(3) 0.8675(2) 0.0753(2)
H10 H 0.7705 0.9178 0.0655
C20 C 0.7918(3) 0.8218(3) 0.0273(2)
C21 C 0.8344(3) 0.7476(3) 0.04305(19)
H11 H 0.8295 0.7156 0.0120
C22 C 0.7374(3) 0.8532(3) -0.0404(2)
C23 C 0.6329(4) 0.8805(4) -0.0187(3)
H12 H 0.6275 0.9210 0.0072
H13 H 0.6073 0.8405 0.0108
H14 H 0.5976 0.8973 -0.0604
C24 C 0.7856(5) 0.9129(4) -0.0844(3)
H15 H 0.7463 0.9389 -0.1222
H16 H 0.8469 0.8904 -0.1042
H17 H 0.7942 0.9474 -0.0550
C25 C 0.7377(5) 0.7941(4) -0.0865(3)
H18 H 0.6979 0.8152 -0.1253
H19 H 0.7132 0.7528 -0.0583
H20 H 0.8020 0.7770 -0.1049
C26 C 0.8424(3) 0.89115(19) 0.19146(19)
H21 H 0.8359 0.9424 0.1674
H22 H 0.9029 0.8780 0.2137
C27 C 0.7610(2) 0.88539(17) 0.24835(18)
C28 C 0.7771(2) 0.85787(18) 0.31895(19)
C29 C 0.7013(2) 0.8456(2) 0.36877(18)
C30 C 0.6086(3) 0.8676(2) 0.34751(19)
H23 H 0.5578 0.8613 0.3812
C31 C 0.5883(2) 0.89864(19) 0.27791(19)
C32 C 0.6659(2) 0.90641(18) 0.22955(19)
H24 H 0.6544 0.9265 0.1825
C33 C 0.4859(3) 0.9273(2) 0.2557(2)
C34 C 0.4116(3) 0.8954(3) 0.3062(3)
H25 H 0.4102 0.9114 0.3513
H26 H 0.4272 0.8419 0.3125
H27 H 0.3498 0.9123 0.2873
C35 C 0.4622(4) 1.0097(3) 0.2529(4)
H28 H 0.4046 1.0296 0.2288
H29 H 0.5140 1.0315 0.2276
H30 H 0.4529 1.0211 0.3003
C36 C 0.4769(4) 0.9121(5) 0.1807(3)
H31 H 0.4965 0.8596 0.1795
H32 H 0.5171 0.9390 0.1471
H33 H 0.4114 0.9280 0.1688
C37 C 0.7191(3) 0.8083(2) 0.44441(19)
H34 H 0.6584 0.8011 0.4698
H35 H 0.7457 0.8408 0.4680
C38 C 0.6080(3) 0.6579(3) 0.4370(2)
H36 H 0.5939 0.6850 0.4768
H37 H 0.6311 0.6057 0.4552
O1 O 0.5490(4) 0.6195(4) 0.3446(3)
C39 C 0.5200(6) 0.6658(6) 0.3996(5)
H38 H 0.4693 0.6485 0.4318
H39 H 0.4978 0.7174 0.3789
C40 C 0.4892(10) 0.6136(7) 0.2918(7)
H40 H 0.4277 0.6052 0.3149
H41 H 0.5180 0.5702 0.2699
C41 C 0.4725(6) 0.6790(8) 0.2355(5)
H42 H 0.4169 0.6778 0.2109
H43 H 0.4594 0.7242 0.2565
C42 C 0.6370(3) 0.6952(2) 0.2089(2)
H44 H 0.6257 0.7073 0.2566
H45 H 0.6547 0.7380 0.1772
C43 C 0.7178(3) 0.6292(2) 0.2073(2)
H46 H 0.6993 0.5847 0.2354
H47 H 0.7357 0.6202 0.1589
C44 C 0.9043(3) 0.8967(2) 0.3617(2)
H48 H 0.8656 0.9119 0.4032
H49 H 0.8997 0.9394 0.3240
C45 C 1.0074(4) 0.8695(3) 0.3793(3)
H50 H 1.0283 0.9055 0.4022
H51 H 1.0135 0.8225 0.4118
C46 C 1.1595(4) 0.8230(5) 0.3294(4)
H52 H 1.1784 0.8388 0.3706
H53 H 1.2007 0.8399 0.2888
C47 C 1.1781(4) 0.7415(5) 0.3408(4)
H54 H 1.2443 0.7238 0.3523
H55 H 1.1380 0.7245 0.3820
C48 C 1.0654(3) 0.7030(3) 0.2818(2)
H56 H 1.0254 0.7259 0.3191
H57 H 1.0600 0.6509 0.2887
C49 C 1.0319(3) 0.7415(3) 0.2103(2)
H58 H 1.0418 0.7926 0.2011
H59 H 1.0666 0.7157 0.1729
O2 O 0.67919(16) 0.68648(14) 0.38885(12)
O3 O 0.5513(2) 0.67995(18) 0.18749(14)
O4 O 0.79487(16) 0.64775(12) 0.23655(12)
O5 O 0.87036(16) 0.83868(13) 0.34001(13)
O6 O 1.0634(3) 0.8601(2) 0.3175(2)
O7 O 1.1629(2) 0.7087(2) 0.28571(19)
O8 O 0.93301(15) 0.73950(12) 0.21335(11)
O9 O 1.0440(2) 0.69538(18) 0.54222(17)
H60 H 1.0939 0.6820 0.5626
O10 O 1.0981(2) 0.59139(18) 0.49867(18)
C50 C 0.5516(2) 0.3436(2) 0.18177(18)
C51 C 0.5127(2) 0.2887(2) 0.1597(2)
C52 C 0.4981(2) 0.2963(2) 0.0887(2)
H61 H 0.4700 0.2614 0.0734
C53 C 0.5238(2) 0.3542(2) 0.03976(19)
C54 C 0.5669(3) 0.4055(2) 0.06231(19)
H62 H 0.5862 0.4436 0.0289
C55 C 0.5822(2) 0.40182(19) 0.13319(18)
C56 C 0.5116(3) 0.3611(2) -0.0369(2)
C57 C 0.6313(3) 0.45727(19) 0.1570(2)
H63 H 0.6347 0.4462 0.2082
H64 H 0.5940 0.5072 0.1453
C58 C 0.7316(3) 0.45416(18) 0.12140(18)
C59 C 0.8083(2) 0.40067(17) 0.14877(17)
C60 C 0.8998(2) 0.39346(19) 0.11482(19)
C61 C 0.9125(3) 0.4426(2) 0.0520(2)
H65 H 0.9728 0.4386 0.0278
C62 C 0.8389(4) 0.4967(2) 0.0248(2)
H66 H 0.8498 0.5293 -0.0167
C63 C 0.7494(3) 0.5026(2) 0.0589(2)
H67 H 0.6996 0.5393 0.0403
C64 C 0.9856(3) 0.3392(2) 0.1425(2)
H68 H 1.0144 0.3640 0.1728
H69 H 1.0311 0.3319 0.1020
C65 C 0.9792(2) 0.2620(2) 0.18375(19)
C66 C 0.9190(2) 0.21777(18) 0.16851(18)
C67 C 0.9179(2) 0.14705(19) 0.20679(18)
C68 C 0.9832(3) 0.1202(2) 0.2588(2)
H70 H 0.9848 0.0720 0.2833
C69 C 1.0455(3) 0.1610(3) 0.2760(2)
C70 C 1.0413(3) 0.2314(2) 0.2382(2)
H71 H 1.0818 0.2605 0.2491
C71 C 1.1150(3) 0.1274(3) 0.3349(2)
C72 C 1.1725(4) 0.0532(4) 0.3177(3)
H72 H 1.2201 0.0622 0.2795
H73 H 1.1302 0.0251 0.3036
H74 H 1.2035 0.0254 0.3589
C73 C 1.0580(5) 0.1131(4) 0.4051(3)
H75 H 1.1008 0.0892 0.4414
H76 H 1.0140 0.0814 0.4014
H77 H 1.0229 0.1596 0.4173
C74 C 1.1767(6) 0.1809(5) 0.3453(4)
H78 H 1.1365 0.2255 0.3580
H79 H 1.2143 0.1933 0.3018
H80 H 1.2185 0.1581 0.3824
C75 C 0.8461(3) 0.10208(19) 0.1941(2)
H81 H 0.8730 0.0494 0.2059
H82 H 0.8339 0.1125 0.1441
C76 C 0.7524(3) 0.11965(17) 0.23796(18)
C77 C 0.6675(3) 0.15314(19) 0.20568(18)
C78 C 0.5833(3) 0.1762(2) 0.24601(19)
C79 C 0.5840(3) 0.1596(2) 0.31957(19)
H83 H 0.5277 0.1742 0.3468
C80 C 0.6647(3) 0.1222(2) 0.35417(19)
C81 C 0.7481(3) 0.10475(18) 0.31148(19)
H84 H 0.8041 0.0818 0.3334
C82 C 0.6617(3) 0.1000(2) 0.4350(2)
C83 C 0.7549(6) 0.1028(6) 0.4633(3)
H85 H 0.7457 0.1024 0.5137
H86 H 0.7766 0.1475 0.4406
H87 H 0.8020 0.0601 0.4536
C84 C 0.6503(7) 0.0213(3) 0.4544(3)
H88 H 0.7088 -0.0108 0.4412
H89 H 0.5989 0.0135 0.4299
H90 H 0.6360 0.0101 0.5048
C85 C 0.5853(6) 0.1506(4) 0.4718(3)
H91 H 0.5236 0.1414 0.4645
H92 H 0.5888 0.2015 0.4527
H93 H 0.5943 0.1414 0.5218
C86 C 0.4944(3) 0.2204(2) 0.2114(2)
H94 H 0.4463 0.2359 0.2482
H95 H 0.4689 0.1885 0.1864
C87 C 0.4879(3) 0.3828(3) 0.2900(2)
H96 H 0.4300 0.3621 0.2949
H97 H 0.4743 0.4330 0.2636
C88 C 0.5181(3) 0.3845(3) 0.3613(2)
H98 H 0.4650 0.4097 0.3893
H99 H 0.5378 0.3341 0.3859
C89 C 0.6366(4) 0.4218(3) 0.4173(2)
H100 H 0.5852 0.4294 0.4542
H101 H 0.6694 0.4636 0.4112
C90 C 0.7038(3) 0.3542(3) 0.4418(2)
H102 H 0.7210 0.3580 0.4885
H103 H 0.6700 0.3129 0.4481
C91 C 0.7843(3) 0.3129(2) 0.33291(19)
H104 H 0.7203 0.3044 0.3293
H105 H 0.8296 0.2669 0.3288
C92 C 0.8070(3) 0.3738(2) 0.27426(18)
H106 H 0.7662 0.4212 0.2805
H107 H 0.8735 0.3786 0.2738
C93 C 0.8818(3) 0.2394(2) 0.0473(2)
H108 H 0.8956 0.1872 0.0418
H109 H 0.9389 0.2602 0.0320
C94 C 0.8001(4) 0.2810(3) 0.0047(2)
H110 H 0.7414 0.2650 0.0256
H111 H 0.7925 0.3339 0.0060
C95 C 0.7474(4) 0.2396(4) -0.0926(3)
H112 H 0.7493 0.2546 -0.1438
H113 H 0.6846 0.2614 -0.0732
C96 C 0.7585(5) 0.1562(4) -0.0764(3)
H114 H 0.7111 0.1416 -0.1010
H115 H 0.8213 0.1344 -0.0958
C97 C 0.6524(4) 0.1269(3) 0.0227(2)
H116 H 0.6257 0.0920 0.0024
H117 H 0.6155 0.1766 0.0088
C98 C 0.6478(3) 0.1068(2) 0.1024(2)
H118 H 0.5844 0.0976 0.1201
H119 H 0.6942 0.0617 0.1164
O11 O 0.56295(17) 0.33825(14) 0.25315(12)
O12 O 0.5951(2) 0.42274(18) 0.35267(16)
O13 O 0.7899(2) 0.33492(19) 0.39996(14)
O14 O 0.78972(15) 0.35215(12) 0.21003(11)
O15 O 0.85262(16) 0.24694(12) 0.11804(12)
O16 O 0.8158(3) 0.2687(3) -0.06643(16)
O17 O 0.7486(3) 0.1243(2) -0.00208(17)
O18 O 0.66795(18) 0.16627(13) 0.13178(12)
O19 O 0.4634(3) 0.31201(19) -0.05118(15)
H120 H 0.4478 0.3237 -0.0923
O20 O 0.5414(3) 0.40534(17) -0.08258(15)
C99 C 0.1996(6) 0.4867(6) 0.3827(5)
H121 H 0.2153 0.4338 0.3833
H122 H 0.1904 0.5116 0.3348
H123 H 0.1418 0.4987 0.4121
C100 C 0.2769(6) 0.5107(4) 0.4095(4)
N1 N 0.3390(6) 0.5253(5) 0.4306(4)
C101 C 0.2968(11) 0.5161(9) 0.1445(8)
H124 H 0.3349 0.5223 0.1806
H125 H 0.2350 0.5480 0.1479
H126 H 0.3283 0.5290 0.0985
C102 C 0.2835(10) 0.4364(9) 0.1549(8)
N2 N 0.2631(7) 0.3797(7) 0.1940(7)
C103? C 0.5392(10) 0.6315(6) 0.3950(8)
C104? C 0.4462(6) 0.6614(8) 0.3002(6)
C105? C 0.5028(7) 0.6290(6) 0.2387(5)
H127? H 0.5753 0.6962 0.4642
H128? H 0.6384 0.6158 0.4700
H129? H 0.5745 0.5912 0.3713
H130? H 0.4901 0.6124 0.4277
H131? H 0.3950 0.7008 0.2813
H132? H 0.4163 0.6228 0.3294
H133? H 0.5507 0.5868 0.2574
H134? H 0.4598 0.6101 0.2136
O21? O 0.4948(6) 0.6902(5) 0.3435(4)
loop_
_geom_bond_atom_site_label_1
_geom_bond_atom_site_label_2
_geom_bond_site_symmetry_1
_geom_bond_site_symmetry_2
C1 C2 1_555 1_555
C2 C3 1_555 1_555
C3 H1 1_555 1_555
C4 C3 1_555 1_555
C5 C4 1_555 1_555
H2 C5 1_555 1_555
C6 C1 1_555 1_555
C7 C4 1_555 1_555
C8 C2 1_555 1_555
H3 C8 1_555 1_555
H4 C8 1_555 1_555
C9 C8 1_555 1_555
C10 C9 1_555 1_555
C11 C10 1_555 1_555
C12 C11 1_555 1_555
H5 C12 1_555 1_555
C13 C12 1_555 1_555
H6 C13 1_555 1_555
C14 C9 1_555 1_555
H7 C14 1_555 1_555
C15 C11 1_555 1_555
H8 C15 1_555 1_555
H9 C15 1_555 1_555
C16 C15 1_555 1_555
C17 C16 1_555 1_555
C18 C17 1_555 1_555
C19 C18 1_555 1_555
H10 C19 1_555 1_555
C20 C19 1_555 1_555
C21 C16 1_555 1_555
H11 C21 1_555 1_555
C22 C20 1_555 1_555
C23 C22 1_555 1_555
H12 C23 1_555 1_555
H13 C23 1_555 1_555
H14 C23 1_555 1_555
C24 C22 1_555 1_555
H15 C24 1_555 1_555
H16 C24 1_555 1_555
H17 C24 1_555 1_555
C25 C22 1_555 1_555
H18 C25 1_555 1_555
H19 C25 1_555 1_555
H20 C25 1_555 1_555
C26 C18 1_555 1_555
H21 C26 1_555 1_555
H22 C26 1_555 1_555
C27 C26 1_555 1_555
C28 C27 1_555 1_555
C29 C28 1_555 1_555
C30 C29 1_555 1_555
H23 C30 1_555 1_555
C31 C30 1_555 1_555
C32 C27 1_555 1_555
H24 C32 1_555 1_555
C33 C31 1_555 1_555
C34 C33 1_555 1_555
H25 C34 1_555 1_555
H26 C34 1_555 1_555
H27 C34 1_555 1_555
C35 C33 1_555 1_555
H28 C35 1_555 1_555
H29 C35 1_555 1_555
H30 C35 1_555 1_555
C36 C33 1_555 1_555
H31 C36 1_555 1_555
H32 C36 1_555 1_555
H33 C36 1_555 1_555
C37 C6 1_555 1_555
H34 C37 1_555 1_555
H35 C37 1_555 1_555
C38 H36 1_555 1_555
H37 C38 1_555 1_555
O1 C39 1_555 1_555
C39 C38 1_555 1_555
H38 C39 1_555 1_555
H39 C39 1_555 1_555
C40 O1 1_555 1_555
H40 C40 1_555 1_555
H41 C40 1_555 1_555
C41 C40 1_555 1_555
H42 C41 1_555 1_555
H43 C41 1_555 1_555
C42 H44 1_555 1_555
H45 C42 1_555 1_555
C43 C42 1_555 1_555
H46 C43 1_555 1_555
H47 C43 1_555 1_555
C44 H48 1_555 1_555
H49 C44 1_555 1_555
C45 C44 1_555 1_555
H50 C45 1_555 1_555
H51 C45 1_555 1_555
C46 H52 1_555 1_555
H53 C46 1_555 1_555
C47 C46 1_555 1_555
H54 C47 1_555 1_555
H55 C47 1_555 1_555
C48 H56 1_555 1_555
H57 C48 1_555 1_555
C49 C48 1_555 1_555
H58 C49 1_555 1_555
H59 C49 1_555 1_555
O2 C1 1_555 1_555
O3 C41 1_555 1_555
O4 C10 1_555 1_555
O5 C28 1_555 1_555
O6 C45 1_555 1_555
O7 C47 1_555 1_555
O8 C17 1_555 1_555
O9 C7 1_555 1_555
H60 O9 1_555 1_555
O10 C7 1_555 1_555
C50 C51 1_555 1_555
C51 C52 1_555 1_555
C52 H61 1_555 1_555
C53 C52 1_555 1_555
C54 C53 1_555 1_555
H62 C54 1_555 1_555
C55 C50 1_555 1_555
C56 C53 1_555 1_555
C57 C55 1_555 1_555
H63 C57 1_555 1_555
H64 C57 1_555 1_555
C58 C57 1_555 1_555
C59 C58 1_555 1_555
C60 C59 1_555 1_555
C61 C60 1_555 1_555
H65 C61 1_555 1_555
C62 C61 1_555 1_555
H66 C62 1_555 1_555
C63 C58 1_555 1_555
H67 C63 1_555 1_555
C64 C60 1_555 1_555
H68 C64 1_555 1_555
H69 C64 1_555 1_555
C65 C64 1_555 1_555
C66 C65 1_555 1_555
C67 C66 1_555 1_555
C68 C67 1_555 1_555
H70 C68 1_555 1_555
C69 C68 1_555 1_555
C70 C65 1_555 1_555
H71 C70 1_555 1_555
C71 C69 1_555 1_555
C72 C71 1_555 1_555
H72 C72 1_555 1_555
H73 C72 1_555 1_555
H74 C72 1_555 1_555
C73 C71 1_555 1_555
H75 C73 1_555 1_555
H76 C73 1_555 1_555
H77 C73 1_555 1_555
C74 C71 1_555 1_555
H78 C74 1_555 1_555
H79 C74 1_555 1_555
H80 C74 1_555 1_555
C75 C67 1_555 1_555
H81 C75 1_555 1_555
H82 C75 1_555 1_555
C76 C75 1_555 1_555
C77 C76 1_555 1_555
C78 C77 1_555 1_555
C79 C78 1_555 1_555
H83 C79 1_555 1_555
C80 C79 1_555 1_555
C81 C76 1_555 1_555
H84 C81 1_555 1_555
C82 C80 1_555 1_555
C83 C82 1_555 1_555
H85 C83 1_555 1_555
H86 C83 1_555 1_555
H87 C83 1_555 1_555
C84 C82 1_555 1_555
H88 C84 1_555 1_555
H89 C84 1_555 1_555
H90 C84 1_555 1_555
C85 C82 1_555 1_555
H91 C85 1_555 1_555
H92 C85 1_555 1_555
H93 C85 1_555 1_555
C86 C51 1_555 1_555
H94 C86 1_555 1_555
H95 C86 1_555 1_555
C87 H96 1_555 1_555
H97 C87 1_555 1_555
C88 C87 1_555 1_555
H98 C88 1_555 1_555
H99 C88 1_555 1_555
C89 H100 1_555 1_555
H101 C89 1_555 1_555
C90 C89 1_555 1_555
H102 C90 1_555 1_555
H103 C90 1_555 1_555
C91 H104 1_555 1_555
H105 C91 1_555 1_555
C92 C91 1_555 1_555
H106 C92 1_555 1_555
H107 C92 1_555 1_555
C93 H108 1_555 1_555
H109 C93 1_555 1_555
C94 C93 1_555 1_555
H110 C94 1_555 1_555
H111 C94 1_555 1_555
C95 H112 1_555 1_555
H113 C95 1_555 1_555
C96 C95 1_555 1_555
H114 C96 1_555 1_555
H115 C96 1_555 1_555
C97 H116 1_555 1_555
H117 C97 1_555 1_555
C98 C97 1_555 1_555
H118 C98 1_555 1_555
H119 C98 1_555 1_555
O11 C50 1_555 1_555
O12 C88 1_555 1_555
O13 C90 1_555 1_555
O14 C59 1_555 1_555
O15 C66 1_555 1_555
O16 C94 1_555 1_555
O17 C96 1_555 1_555
O18 C77 1_555 1_555
O19 C56 1_555 1_555
H120 O19 1_555 1_555
O20 C56 1_555 1_555
C99 H121 1_555 1_555
H122 C99 1_555 1_555
H123 C99 1_555 1_555
C100 C99 1_555 1_555
N1 C100 1_555 1_555
C101 H124 1_555 1_555
H125 C101 1_555 1_555
H126 C101 1_555 1_555
C102 C101 1_555 1_555
N2 C102 1_555 1_555
C5 C6 1_555 1_555
C13 C14 1_555 1_555
C20 C21 1_555 1_555
C29 C37 1_555 1_555
C31 C32 1_555 1_555
C38 O2 1_555 1_555
C42 O3 1_555 1_555
C43 O4 1_555 1_555
C44 O5 1_555 1_555
C46 O6 1_555 1_555
C48 O7 1_555 1_555
C49 O8 1_555 1_555
C54 C55 1_555 1_555
C62 C63 1_555 1_555
C69 C70 1_555 1_555
C78 C86 1_555 1_555
C80 C81 1_555 1_555
C87 O11 1_555 1_555
C89 O12 1_555 1_555
C91 O13 1_555 1_555
C92 O14 1_555 1_555
C93 O15 1_555 1_555
C95 O16 1_555 1_555
C97 O17 1_555 1_555
C98 O18 1_555 1_555

#END
