
#######################################################################
#
#                 Cambridge Crystallographic Data Centre
#                                CCDC 
#
#######################################################################
#
# If this CIF has been generated from an entry in the Cambridge 
# Structural Database, then it will include bibliographic, chemical, 
# crystal, experimental, refinement or atomic coordinate data resulting 
# from the CCDC's data processing and validation procedures.
#
#######################################################################

data_WECXAE
_chemical_name_common            'PDB Chemical Component code: C2U'
_chemical_formula_moiety         'C7 H4 Cl2 O3'
_chemical_name_systematic        '3,5-Dichloro-2-hydroxybenzoic acid'
_symmetry_cell_setting           monoclinic
_symmetry_space_group_name_H-M   'P 21/c'
_symmetry_Int_Tables_number      14
_space_group_name_Hall           '-P 2ybc'
loop_
_symmetry_equiv_pos_site_id
_symmetry_equiv_pos_as_xyz
1 x,y,z
2 -x,1/2+y,1/2-z
3 -x,-y,-z
4 x,1/2-y,1/2+z
_cell_length_a                   8.734(4)
_cell_length_b                   21.631(11)
_cell_length_c                   8.437(4)
_cell_angle_alpha                90
_cell_angle_beta                 100.927(8)
_cell_angle_gamma                90
_cell_volume                     1565.06
_exptl_crystal_colour            colorless
_exptl_crystal_description       block
_chemical_melting_point          '493.5 K'
_cell_formula_units_Z            8
_exptl_crystal_recrystallization_method dichloromethane/hexane
loop_
_atom_site_label
_atom_site_type_symbol
_atom_site_fract_x
_atom_site_fract_y
_atom_site_fract_z
Cl1 Cl 0.00393(10) 0.94113(3) 0.83397(11)
Cl2 Cl 0.34202(10) 0.74780(3) 1.10414(10)
O1 O -0.1216(3) 0.65757(9) 0.6990(3)
H1 H -0.1865 0.6363 0.6402
O2 O -0.2698(2) 0.73361(9) 0.5738(3)
O3 O -0.1933(2) 0.84822(9) 0.6545(3)
H2 H -0.2477 0.8208 0.6060
C1 C -0.1561(3) 0.71571(13) 0.6742(4)
C2 C -0.0484(3) 0.75893(12) 0.7729(3)
C3 C -0.0728(3) 0.82288(12) 0.7562(3)
C4 C 0.0327(3) 0.86214(12) 0.8525(3)
C5 C 0.1590(3) 0.83986(13) 0.9590(3)
H3 H 0.2285 0.8669 1.0213
C6 C 0.1817(3) 0.77672(12) 0.9726(3)
C7 C 0.0799(3) 0.73634(12) 0.8813(3)
H4 H 0.0966 0.6940 0.8917
Cl3 Cl 0.48360(10) 0.37650(3) 0.18113(9)
Cl4 Cl 0.11693(10) 0.56502(3) -0.07821(11)
O4 O 0.5347(2) 0.65803(8) 0.3743(2)
H5 H 0.5903 0.6796 0.4418
O5 O 0.6916(2) 0.58377(8) 0.4956(2)
O6 O 0.6466(2) 0.46990(9) 0.3890(2)
H6 H 0.6920 0.4975 0.4461
C8 C 0.5808(3) 0.60061(12) 0.3915(3)
C9 C 0.4890(3) 0.55701(12) 0.2769(3)
C10 C 0.5279(3) 0.49422(12) 0.2830(3)
C11 C 0.4362(3) 0.45457(12) 0.1748(3)
C12 C 0.3095(3) 0.47517(12) 0.0645(3)
H7 H 0.2491 0.4477 -0.0060
C13 C 0.2740(4) 0.53739(12) 0.0606(3)
C14 C 0.3617(3) 0.57831(12) 0.1652(3)
H8 H 0.3360 0.6201 0.1613
loop_
_geom_bond_atom_site_label_1
_geom_bond_atom_site_label_2
_geom_bond_site_symmetry_1
_geom_bond_site_symmetry_2
Cl1 C4 1_555 1_555
Cl2 C6 1_555 1_555
O1 H1 1_555 1_555
O2 C1 1_555 1_555
O3 H2 1_555 1_555
C1 O1 1_555 1_555
C2 C1 1_555 1_555
C3 O3 1_555 1_555
C4 C3 1_555 1_555
C5 C4 1_555 1_555
H3 C5 1_555 1_555
C6 C5 1_555 1_555
C7 C2 1_555 1_555
H4 C7 1_555 1_555
Cl3 C11 1_555 1_555
Cl4 C13 1_555 1_555
O4 H5 1_555 1_555
O5 C8 1_555 1_555
O6 H6 1_555 1_555
C8 O4 1_555 1_555
C9 C8 1_555 1_555
C10 O6 1_555 1_555
C11 C10 1_555 1_555
C12 C11 1_555 1_555
H7 C12 1_555 1_555
C13 C12 1_555 1_555
C14 C9 1_555 1_555
H8 C14 1_555 1_555
C2 C3 1_555 1_555
C6 C7 1_555 1_555
C9 C10 1_555 1_555
C13 C14 1_555 1_555

#END
