
#######################################################################
#
#                 Cambridge Crystallographic Data Centre
#                                CCDC 
#
#######################################################################
#
# If this CIF has been generated from an entry in the Cambridge 
# Structural Database, then it will include bibliographic, chemical, 
# crystal, experimental, refinement or atomic coordinate data resulting 
# from the CCDC's data processing and validation procedures.
#
#######################################################################

data_WECYEK
_chemical_formula_moiety         'C14 H19 N1 O7,2(H2 O1)'
_chemical_name_systematic        
'(4-Hydroxy-6-((3,4,5-trihydroxy-6-(hydroxymethyl)tetrahydro-2H-pyran-2-yl)oxy)cyclohex-2-en-1-ylidene)acetonitrile dihydrate'
_symmetry_cell_setting           monoclinic
_symmetry_space_group_name_H-M   'P 21'
_symmetry_Int_Tables_number      4
_space_group_name_Hall           'P 2yb'
loop_
_symmetry_equiv_pos_site_id
_symmetry_equiv_pos_as_xyz
1 x,y,z
2 -x,1/2+y,-z
_cell_length_a                   8.9160(13)
_cell_length_b                   6.6620(10)
_cell_length_c                   13.908(2)
_cell_angle_alpha                90
_cell_angle_beta                 93.642(2)
_cell_angle_gamma                90
_cell_volume                     824.444
_exptl_crystal_colour            colorless
_exptl_crystal_description       prism
_cell_formula_units_Z            2
loop_
_atom_site_label
_atom_site_type_symbol
_atom_site_fract_x
_atom_site_fract_y
_atom_site_fract_z
N1 N 0.3528(3) 0.2065(5) 1.02325(19)
O1 O 0.31309(15) 0.2187(2) 0.74509(9)
O2 O 0.18470(16) -0.0714(2) 0.75669(10)
O3 O 0.10970(18) -0.0739(3) 0.55970(11)
H1 H 0.1313 -0.1235 0.5084
O4 O 0.31523(17) 0.1668(3) 0.44934(11)
H2 H 0.2438 0.1589 0.4094
O5 O 0.39267(19) 0.5401(3) 0.54016(13)
H3 H 0.4801 0.5790 0.5439
O6 O 0.60756(19) 0.3967(3) 0.75510(14)
H4 H 0.5985 0.2908 0.7842
O7 O -0.07888(19) -0.3113(3) 0.67846(11)
H5 H 0.0009 -0.2602 0.6653
C1 C 0.1947(2) 0.1021(3) 0.70023(14)
H6 H 0.0999 0.1768 0.6975
C2 C 0.2339(2) 0.0382(4) 0.59979(14)
H7 H 0.3240 -0.0465 0.6043
C3 C 0.2629(2) 0.2247(4) 0.54020(14)
H8 H 0.1695 0.3015 0.5298
C4 C 0.3821(2) 0.3554(4) 0.59155(15)
H9 H 0.4791 0.2860 0.5930
C5 C 0.3425(2) 0.4018(3) 0.69503(16)
H10 H 0.2527 0.4869 0.6933
C6 C 0.1009(2) -0.0436(3) 0.84179(14)
H11 H 0.1175 0.0917 0.8680
C7 C -0.0653(2) -0.0789(4) 0.81741(17)
H12 H -0.1013 0.0177 0.7691
H13 H -0.1199 -0.0569 0.8746
C8 C -0.0976(3) -0.2896(4) 0.77984(16)
H14 H -0.2034 -0.3176 0.7897
C9 C -0.0071(3) -0.4453(4) 0.83421(18)
H15 H -0.0336 -0.5792 0.8247
C10 C 0.1101(3) -0.4037(4) 0.89602(18)
H16 H 0.1595 -0.5086 0.9288
C11 C 0.1622(2) -0.1997(3) 0.91328(16)
C12 C 0.2630(3) -0.1547(4) 0.98612(17)
H17 H 0.3021 -0.2581 1.0250
C13 C 0.3124(3) 0.0471(5) 1.00603(17)
C14 C 0.4691(3) 0.5055(4) 0.75327(19)
H18 H 0.4843 0.6377 0.7263
H19 H 0.4402 0.5233 0.8188
O8 O 0.1896(3) 0.7171(4) 0.39389(17)
H22 H 0.263(5) 0.786(8) 0.368(4)
H23 H 0.164(14) 0.61(3) 0.424(10)
O9 O 0.5658(3) 1.0133(4) 0.8320(2)
H20 H 0.582(4) 0.902(8) 0.891(3)
H21 H 0.453(5) 1.010(7) 0.810(3)
loop_
_geom_bond_atom_site_label_1
_geom_bond_atom_site_label_2
_geom_bond_site_symmetry_1
_geom_bond_site_symmetry_2
N1 C13 1_555 1_555
O1 C1 1_555 1_555
O2 C1 1_555 1_555
O3 H1 1_555 1_555
O4 H2 1_555 1_555
O5 H3 1_555 1_555
O6 H4 1_555 1_555
O7 H5 1_555 1_555
O8 H22 1_555 1_555
O9 H20 1_555 1_555
C1 H6 1_555 1_555
C2 O3 1_555 1_555
H7 C2 1_555 1_555
C3 O4 1_555 1_555
H8 C3 1_555 1_555
C4 O5 1_555 1_555
H9 C4 1_555 1_555
C5 O1 1_555 1_555
H10 C5 1_555 1_555
C6 O2 1_555 1_555
H11 C6 1_555 1_555
C7 C6 1_555 1_555
H12 C7 1_555 1_555
H13 C7 1_555 1_555
C8 O7 1_555 1_555
H14 C8 1_555 1_555
C9 C8 1_555 1_555
H15 C9 1_555 1_555
C10 C9 1_555 1_555
H16 C10 1_555 1_555
C11 C6 1_555 1_555
C12 C11 1_555 1_555
H17 C12 1_555 1_555
C13 C12 1_555 1_555
C14 O6 1_555 1_555
H18 C14 1_555 1_555
H19 C14 1_555 1_555
H21 O9 1_555 1_555
H23 O8 1_555 1_555
C1 C2 1_555 1_555
C2 C3 1_555 1_555
C3 C4 1_555 1_555
C4 C5 1_555 1_555
C5 C14 1_555 1_555
C7 C8 1_555 1_555
C10 C11 1_555 1_555

#END
