
#######################################################################
#
#                 Cambridge Crystallographic Data Centre
#                                CCDC 
#
#######################################################################
#
# If this CIF has been generated from an entry in the Cambridge 
# Structural Database, then it will include bibliographic, chemical, 
# crystal, experimental, refinement or atomic coordinate data resulting 
# from the CCDC's data processing and validation procedures.
#
#######################################################################

data_WECZAH
_chemical_formula_moiety         'C20 H22 O3 Si1'
_chemical_name_systematic        
6-Methoxy-3-(phenyl(trimethylsilyl)methylene)-2,3-dihydro-4H-chromen-4-one
_symmetry_cell_setting           monoclinic
_symmetry_space_group_name_H-M   'P 21/n'
_symmetry_Int_Tables_number      14
_space_group_name_Hall           '-P 2yn'
loop_
_symmetry_equiv_pos_site_id
_symmetry_equiv_pos_as_xyz
1 x,y,z
2 1/2-x,1/2+y,1/2-z
3 -x,-y,-z
4 1/2+x,1/2-y,1/2+z
_cell_length_a                   8.4191(12)
_cell_length_b                   22.057(3)
_cell_length_c                   10.2014(15)
_cell_angle_alpha                90
_cell_angle_beta                 109.105(3)
_cell_angle_gamma                90
_cell_volume                     1790.06
_exptl_crystal_colour            'light yellow'
_exptl_crystal_description       plate
_cell_formula_units_Z            4
loop_
_atom_site_label
_atom_site_type_symbol
_atom_site_fract_x
_atom_site_fract_y
_atom_site_fract_z
Si1 Si 0.18176(6) 0.14090(2) 0.95437(5)
O1 O 0.15560(14) -0.00391(5) 0.66596(12)
O2 O 0.65089(15) 0.03785(5) 0.86895(13)
O3 O 0.62905(15) -0.11743(6) 0.48455(13)
C1 C 0.7826(2) 0.22857(8) 1.0391(2)
H1 H 0.8701 0.2579 1.0643
C2 C 0.7522(2) 0.19270(8) 1.1393(2)
H2 H 0.8201 0.1969 1.2337
C3 C 0.6224(2) 0.15055(8) 1.10224(19)
H3 H 0.6007 0.1267 1.1720
C4 C 0.5240(2) 0.14292(7) 0.96413(18)
C5 C 0.5573(2) 0.17878(8) 0.86426(19)
H4 H 0.4918 0.1740 0.7694
C6 C 0.6846(2) 0.22139(8) 0.9016(2)
H5 H 0.7050 0.2460 0.8323
C7 C 0.3713(2) 0.10319(8) 0.92460(18)
C8 C 0.3631(2) 0.05037(8) 0.85545(18)
C9 C 0.2077(2) 0.01090(8) 0.81137(18)
H6 H 0.2308 -0.0270 0.8662
H7 H 0.1150 0.0323 0.8316
C10 C 0.2800(2) -0.02982(8) 0.62603(18)
C11 C 0.4504(2) -0.01988(7) 0.69711(18)
C12 C 0.5030(2) 0.02411(7) 0.81385(18)
C13 C 0.5712(2) -0.04889(7) 0.65187(18)
H8 H 0.6874 -0.0425 0.7000
C14 C 0.5223(2) -0.08651(8) 0.53811(19)
C15 C 0.3512(2) -0.09462(8) 0.46528(19)
H9 H 0.3175 -0.1197 0.3852
C16 C 0.2315(2) -0.06649(8) 0.50884(19)
H10 H 0.1156 -0.0721 0.4588
C17 C 0.8044(2) -0.11187(9) 0.5575(2)
H11 H 0.8382 -0.0693 0.5576
H12 H 0.8675 -0.1367 0.5118
H13 H 0.8283 -0.1258 0.6533
C18 C 0.0537(2) 0.08879(8) 1.02370(19)
H14 H 0.0136 0.1106 1.0904
H15 H 0.1230 0.0543 1.0699
H16 H -0.0427 0.0740 0.9471
C19 C 0.0556(2) 0.17201(9) 0.7821(2)
H17 H 0.0178 0.1387 0.7155
H18 H 0.1249 0.2001 0.7496
H19 H -0.0424 0.1936 0.7904
C20 C 0.2581(2) 0.20525(9) 1.0779(2)
H20 H 0.3242 0.2331 1.0414
H21 H 0.3284 0.1895 1.1680
H22 H 0.1616 0.2269 1.0889
loop_
_geom_bond_atom_site_label_1
_geom_bond_atom_site_label_2
_geom_bond_site_symmetry_1
_geom_bond_site_symmetry_2
Si1 C7 1_555 1_555
O1 C9 1_555 1_555
O2 C12 1_555 1_555
O3 C14 1_555 1_555
C1 H1 1_555 1_555
C2 C1 1_555 1_555
H2 C2 1_555 1_555
C3 C2 1_555 1_555
H3 C3 1_555 1_555
C4 C3 1_555 1_555
C5 C4 1_555 1_555
H4 C5 1_555 1_555
C6 C1 1_555 1_555
H5 C6 1_555 1_555
C7 C4 1_555 1_555
C8 C7 1_555 1_555
C9 C8 1_555 1_555
H6 C9 1_555 1_555
H7 C9 1_555 1_555
C10 O1 1_555 1_555
C11 C10 1_555 1_555
C12 C8 1_555 1_555
C13 C11 1_555 1_555
H8 C13 1_555 1_555
C14 C13 1_555 1_555
C15 C14 1_555 1_555
H9 C15 1_555 1_555
C16 C10 1_555 1_555
H10 C16 1_555 1_555
C17 O3 1_555 1_555
H11 C17 1_555 1_555
H12 C17 1_555 1_555
H13 C17 1_555 1_555
C18 Si1 1_555 1_555
H14 C18 1_555 1_555
H15 C18 1_555 1_555
H16 C18 1_555 1_555
C19 Si1 1_555 1_555
H17 C19 1_555 1_555
H18 C19 1_555 1_555
H19 C19 1_555 1_555
C20 Si1 1_555 1_555
H20 C20 1_555 1_555
H21 C20 1_555 1_555
H22 C20 1_555 1_555
C5 C6 1_555 1_555
C11 C12 1_555 1_555
C15 C16 1_555 1_555

#END
