
#######################################################################
#
#                 Cambridge Crystallographic Data Centre
#                                CCDC 
#
#######################################################################
#
# If this CIF has been generated from an entry in the Cambridge 
# Structural Database, then it will include bibliographic, chemical, 
# crystal, experimental, refinement or atomic coordinate data resulting 
# from the CCDC's data processing and validation procedures.
#
#######################################################################

data_WEDBAK
_chemical_formula_moiety         'C28 H32 N4 O1 S1,2(H2 O1)'
_chemical_name_systematic        
'1-Cinchonan-9-yl-3-(2-hydroxy-1-phenylethyl)thiourea dihydrate'
_symmetry_cell_setting           orthorhombic
_symmetry_space_group_name_H-M   'P 21 21 21'
_symmetry_Int_Tables_number      19
_space_group_name_Hall           'P 2ac 2ab'
loop_
_symmetry_equiv_pos_site_id
_symmetry_equiv_pos_as_xyz
1 x,y,z
2 1/2-x,-y,1/2+z
3 -x,1/2+y,1/2-z
4 1/2+x,1/2-y,-z
_cell_length_a                   7.040(3)
_cell_length_b                   10.739(5)
_cell_length_c                   35.321(17)
_cell_angle_alpha                90
_cell_angle_beta                 90
_cell_angle_gamma                90
_cell_volume                     2670.36
_exptl_crystal_colour            colorless
_exptl_crystal_description       block
_cell_formula_units_Z            4
loop_
_atom_site_label
_atom_site_type_symbol
_atom_site_fract_x
_atom_site_fract_y
_atom_site_fract_z
C1 C 0.0616(9) 0.4049(6) 0.08407(18)
H1 H -0.0537 0.4457 0.0874
C2 C 0.0969(8) 0.2985(5) 0.10545(14)
H2 H 0.0050 0.2701 0.1223
C3 C 0.2633(7) 0.2353(4) 0.10214(12)
C4 C 0.3933(8) 0.2768(5) 0.07492(13)
C5 C 0.3505(10) 0.3874(6) 0.05440(15)
C6 C 0.4813(13) 0.4324(7) 0.02771(18)
H3 H 0.4537 0.5050 0.0144
C7 C 0.6441(12) 0.3733(9) 0.02104(19)
H4 H 0.7281 0.4050 0.0032
C8 C 0.6899(10) 0.2660(6) 0.04018(16)
H5 H 0.8034 0.2254 0.0347
C9 C 0.5722(8) 0.2185(6) 0.06691(14)
H6 H 0.6077 0.1474 0.0802
C10 C 0.3055(7) 0.1199(4) 0.12647(11)
H7 H 0.4323 0.0886 0.1201
C11 C 0.1611(7) 0.0170(4) 0.11988(11)
H8 H 0.0417 0.0424 0.1319
C12 C 0.1203(7) -0.0073(4) 0.07786(12)
H9 H 0.0030 0.0337 0.0707
H10 H 0.2222 0.0270 0.0626
C13 C 0.1037(9) -0.1461(5) 0.07062(15)
H11 H 0.0588 -0.1619 0.0448
C14 C -0.0327(8) -0.2014(6) 0.09949(14)
H12 H -0.0533 -0.2891 0.0942
H13 H -0.1541 -0.1589 0.0984
C15 C 0.0573(8) -0.1851(5) 0.13901(14)
H14 H -0.0372 -0.1523 0.1563
H15 H 0.0979 -0.2656 0.1485
C16 C 0.3723(8) -0.1601(5) 0.11553(16)
H16 H 0.4217 -0.2305 0.1296
H17 H 0.4757 -0.1018 0.1116
C17 C 0.2996(9) -0.2055(6) 0.07687(17)
H18 H 0.2790 -0.2954 0.0792
C18 C 0.4550(15) -0.1879(9) 0.0483(2)
H19 H 0.5744 -0.2116 0.0569
C19 C 0.4548(18) -0.1494(9) 0.0166(3)
H20 H 0.3417 -0.1235 0.0055
H21 H 0.5677 -0.1454 0.0030
C20 C 0.4599(6) 0.1627(4) 0.18849(12)
C21 C 0.5616(6) 0.2205(4) 0.25355(12)
H22 H 0.6837 0.1892 0.2442
C22 C 0.5845(7) 0.3587(4) 0.26230(13)
H23 H 0.5988 0.4048 0.2389
H24 H 0.4717 0.3890 0.2751
C23 C 0.5073(8) 0.1450(4) 0.28785(12)
C24 C 0.6438(8) 0.0753(5) 0.30591(13)
H25 H 0.7684 0.0766 0.2972
C25 C 0.5958(12) 0.0019(5) 0.33763(17)
H26 H 0.6877 -0.0452 0.3500
C26 C 0.4125(12) 0.0016(6) 0.34978(17)
H27 H 0.3791 -0.0470 0.3705
C27 C 0.2796(9) 0.0697(6) 0.33247(16)
H28 H 0.1554 0.0678 0.3414
C28 C 0.3239(8) 0.1431(5) 0.30140(13)
H29 H 0.2302 0.1908 0.2898
N1 N 0.1831(10) 0.4505(4) 0.05949(15)
N2 N 0.2230(6) -0.0994(4) 0.13784(10)
N3 N 0.3035(5) 0.1586(3) 0.16634(9)
N4 N 0.4206(5) 0.2059(4) 0.22322(9)
O1 O 0.7447(5) 0.3785(3) 0.28544(9)
H30 H 0.8311 0.4079 0.2727
S1 S 0.67675(19) 0.11334(14) 0.17391(4)
O2 O 0.0260(6) 0.3026(5) 0.2097(2)
O3 O 0.0539(11) 0.4708(8) 0.26005(19)
loop_
_geom_bond_atom_site_label_1
_geom_bond_atom_site_label_2
_geom_bond_site_symmetry_1
_geom_bond_site_symmetry_2
C1 H1 1_555 1_555
C2 C1 1_555 1_555
H2 C2 1_555 1_555
C3 C2 1_555 1_555
C4 C3 1_555 1_555
C5 C4 1_555 1_555
C6 C5 1_555 1_555
H3 C6 1_555 1_555
C7 C6 1_555 1_555
H4 C7 1_555 1_555
C8 C7 1_555 1_555
H5 C8 1_555 1_555
C9 C4 1_555 1_555
H6 C9 1_555 1_555
C10 C3 1_555 1_555
H7 C10 1_555 1_555
C11 C10 1_555 1_555
H8 C11 1_555 1_555
C12 C11 1_555 1_555
H9 C12 1_555 1_555
H10 C12 1_555 1_555
C13 C12 1_555 1_555
H11 C13 1_555 1_555
C14 C13 1_555 1_555
H12 C14 1_555 1_555
H13 C14 1_555 1_555
C15 C14 1_555 1_555
H14 C15 1_555 1_555
H15 C15 1_555 1_555
C16 H16 1_555 1_555
H17 C16 1_555 1_555
C17 C13 1_555 1_555
H18 C17 1_555 1_555
C18 C17 1_555 1_555
H19 C18 1_555 1_555
C19 C18 1_555 1_555
H20 C19 1_555 1_555
H21 C19 1_555 1_555
C20 N3 1_555 1_555
C21 H22 1_555 1_555
C22 C21 1_555 1_555
H23 C22 1_555 1_555
H24 C22 1_555 1_555
C23 C21 1_555 1_555
C24 C23 1_555 1_555
H25 C24 1_555 1_555
C25 C24 1_555 1_555
H26 C25 1_555 1_555
C26 C25 1_555 1_555
H27 C26 1_555 1_555
C27 C26 1_555 1_555
H28 C27 1_555 1_555
C28 C23 1_555 1_555
H29 C28 1_555 1_555
N1 C1 1_555 1_555
N2 C11 1_555 1_555
N3 C10 1_555 1_555
N4 C20 1_555 1_555
O1 C22 1_555 1_555
H30 O1 1_555 1_555
S1 C20 1_555 1_555
C5 N1 1_555 1_555
C8 C9 1_555 1_555
C15 N2 1_555 1_555
C16 C17 1_555 1_555
C16 N2 1_555 1_555
C21 N4 1_555 1_555
C27 C28 1_555 1_555

#END
