
#######################################################################
#
#                 Cambridge Crystallographic Data Centre
#                                CCDC 
#
#######################################################################
#
# If this CIF has been generated from an entry in the Cambridge 
# Structural Database, then it will include bibliographic, chemical, 
# crystal, experimental, refinement or atomic coordinate data resulting 
# from the CCDC's data processing and validation procedures.
#
#######################################################################

data_WEDCIT
_chemical_formula_moiety         'C14 H10 F1 N1 S1'
_chemical_name_systematic        6-Fluoro-3-(phenylsulfanyl)-1H-indole
_symmetry_cell_setting           monoclinic
_symmetry_space_group_name_H-M   'P 21'
_symmetry_Int_Tables_number      4
_space_group_name_Hall           'P 2yb'
loop_
_symmetry_equiv_pos_site_id
_symmetry_equiv_pos_as_xyz
1 x,y,z
2 -x,1/2+y,-z
_cell_length_a                   10.4428(17)
_cell_length_b                   5.9113(10)
_cell_length_c                   10.7018(18)
_cell_angle_alpha                90
_cell_angle_beta                 108.439(4)
_cell_angle_gamma                90
_cell_volume                     626.712
_exptl_crystal_colour            colorless
_exptl_crystal_description       block
_cell_formula_units_Z            2
loop_
_atom_site_label
_atom_site_type_symbol
_atom_site_fract_x
_atom_site_fract_y
_atom_site_fract_z
S1 S 0.42637(11) -0.15708(19) 0.10183(10)
F1 F 0.1851(6) 0.1674(15) 0.6300(6)
N1 N 0.4620(4) 0.3629(7) 0.3356(4)
H1 H 0.4934 0.4945 0.3633
C1 C 0.2170(5) -0.3398(9) -0.0898(5)
H2 H 0.2761 -0.4592 -0.0860
C2 C 0.0861(6) -0.3453(10) -0.1772(5)
H3 H 0.0578 -0.4718 -0.2304
C3 C -0.0008(5) -0.1730(11) -0.1869(4)
H4 H -0.0871 -0.1798 -0.2474
C4 C 0.0395(5) 0.0158(10) -0.1056(4)
H5 H -0.0200 0.1350 -0.1103
C5 C 0.1708(4) 0.0229(8) -0.0169(4)
H6 H 0.1994 0.1486 0.0369
C6 C 0.2575(4) -0.1546(8) -0.0092(3)
C7 C 0.4202(4) 0.0490(7) 0.2160(3)
C8 C 0.4859(5) 0.2509(8) 0.2344(4)
H7 H 0.5390 0.3040 0.1853
C9 C 0.3809(4) 0.2364(7) 0.3873(4)
C10 C 0.3526(4) 0.0341(7) 0.3143(3)
C11 C 0.2696(4) -0.1219(7) 0.3462(4)
H8 H 0.2487 -0.2570 0.2996
C12 C 0.2178(5) -0.0771(9) 0.4472(5)
H9 H 0.1626 -0.1838 0.4685
C13 C 0.2466(5) 0.1266(8) 0.5188(4)
C14 C 0.3303(4) 0.2828(7) 0.4878(4)
H10 H 0.3520 0.4174 0.5347
loop_
_geom_bond_atom_site_label_1
_geom_bond_atom_site_label_2
_geom_bond_site_symmetry_1
_geom_bond_site_symmetry_2
S1 C6 1_555 1_555
F1 C13 1_555 1_555
N1 H1 1_555 1_555
C1 H2 1_555 1_555
C2 C1 1_555 1_555
H3 C2 1_555 1_555
C3 C2 1_555 1_555
H4 C3 1_555 1_555
C4 C3 1_555 1_555
H5 C4 1_555 1_555
C5 C4 1_555 1_555
H6 C5 1_555 1_555
C6 C1 1_555 1_555
C7 S1 1_555 1_555
C8 N1 1_555 1_555
H7 C8 1_555 1_555
C9 N1 1_555 1_555
C10 C7 1_555 1_555
C11 C10 1_555 1_555
H8 C11 1_555 1_555
C12 C11 1_555 1_555
H9 C12 1_555 1_555
C13 C12 1_555 1_555
C14 C9 1_555 1_555
H10 C14 1_555 1_555
C5 C6 1_555 1_555
C7 C8 1_555 1_555
C9 C10 1_555 1_555
C13 C14 1_555 1_555

#END
