
#######################################################################
#
#                 Cambridge Crystallographic Data Centre
#                                CCDC 
#
#######################################################################
#
# If this CIF has been generated from an entry in the Cambridge 
# Structural Database, then it will include bibliographic, chemical, 
# crystal, experimental, refinement or atomic coordinate data resulting 
# from the CCDC's data processing and validation procedures.
#
#######################################################################

data_WEDCUF
_chemical_formula_moiety         'C25 H20 O1'
_chemical_name_systematic        
7-Methyl-5-(4-methylphenyl)-11H-benzo[b]fluoren-11-ol
_symmetry_cell_setting           orthorhombic
_symmetry_space_group_name_H-M   'P b c n'
_symmetry_Int_Tables_number      60
_space_group_name_Hall           '-P 2n 2ab'
loop_
_symmetry_equiv_pos_site_id
_symmetry_equiv_pos_as_xyz
1 x,y,z
2 1/2-x,1/2-y,1/2+z
3 -x,y,1/2-z
4 1/2+x,1/2-y,-z
5 -x,-y,-z
6 1/2+x,1/2+y,1/2-z
7 x,-y,1/2+z
8 1/2-x,1/2+y,z
_cell_length_a                   35.837(5)
_cell_length_b                   5.3247(7)
_cell_length_c                   19.561(3)
_cell_angle_alpha                90
_cell_angle_beta                 90
_cell_angle_gamma                90
_cell_volume                     3732.65
_exptl_crystal_colour            colorless
_exptl_crystal_description       block
_cell_formula_units_Z            8
loop_
_atom_site_label
_atom_site_type_symbol
_atom_site_fract_x
_atom_site_fract_y
_atom_site_fract_z
C1 C 0.21413(6) 0.2616(5) 0.51432(13)
H1 H 0.2316 0.1439 0.4998
C2 C 0.20689(7) 0.2944(5) 0.58310(14)
H2 H 0.2196 0.1985 0.6152
C3 C 0.18085(7) 0.4686(5) 0.60442(13)
H3 H 0.1767 0.4905 0.6510
C4 C 0.16091(6) 0.6109(4) 0.55816(11)
H4 H 0.1433 0.7268 0.5731
C5 C 0.16765(5) 0.5779(3) 0.48877(10)
C6 C 0.19491(5) 0.4074(4) 0.46731(11)
C7 C 0.19936(5) 0.4140(4) 0.39074(11)
H5 H 0.1903 0.2559 0.3712
C8 C 0.17359(5) 0.6253(4) 0.37014(10)
C9 C 0.15240(5) 0.7046(4) 0.42785(9)
C10 C 0.12319(5) 0.8715(4) 0.42014(9)
C11 C 0.11785(5) 0.9865(4) 0.35492(9)
C12 C 0.14118(5) 0.9189(4) 0.29867(9)
C13 C 0.16854(5) 0.7289(4) 0.30795(10)
H6 H 0.1830 0.6761 0.2711
C14 C 0.13541(6) 1.0396(5) 0.23554(10)
H7 H 0.1503 0.9959 0.1984
C15 C 0.10870(6) 1.2185(5) 0.22738(11)
H8 H 0.1056 1.2942 0.1849
C16 C 0.08564(6) 1.2908(4) 0.28240(10)
C17 C 0.09030(5) 1.1735(4) 0.34381(10)
H9 H 0.0748 1.2180 0.3799
C18 C 0.05709(6) 1.4943(5) 0.27252(13)
H10 H 0.0430 1.5152 0.3139
H11 H 0.0406 1.4487 0.2359
H12 H 0.0695 1.6490 0.2614
C19 C 0.09576(5) 0.9180(4) 0.47674(9)
C20 C 0.09904(7) 1.1102(5) 0.52207(13)
H13 H 0.1190 1.2206 0.5182
C21 C 0.07325(8) 1.1454(5) 0.57399(13)
H14 H 0.0764 1.2784 0.6042
C22 C 0.04349(5) 0.9910(4) 0.58183(10)
C23 C 0.04041(7) 0.7974(6) 0.53652(14)
H15 H 0.0205 0.6867 0.5405
C24 C 0.06619(6) 0.7611(5) 0.48464(12)
H16 H 0.0632 0.6270 0.4547
C25 C 0.01528(7) 1.0312(6) 0.63852(13)
H17 H 0.0270 1.0035 0.6820
H18 H -0.0050 0.9154 0.6330
H19 H 0.0060 1.2001 0.6365
O1 O 0.23672(3) 0.4599(3) 0.36787(8)
H20 H 0.2478 0.3259 0.3637
loop_
_geom_bond_atom_site_label_1
_geom_bond_atom_site_label_2
_geom_bond_site_symmetry_1
_geom_bond_site_symmetry_2
C1 H1 1_555 1_555
C2 C1 1_555 1_555
H2 C2 1_555 1_555
C3 C2 1_555 1_555
H3 C3 1_555 1_555
C4 C3 1_555 1_555
H4 C4 1_555 1_555
C5 C4 1_555 1_555
C6 C1 1_555 1_555
C7 C6 1_555 1_555
H5 C7 1_555 1_555
C8 C7 1_555 1_555
C9 C5 1_555 1_555
C10 C9 1_555 1_555
C11 C10 1_555 1_555
C12 C11 1_555 1_555
C13 C8 1_555 1_555
H6 C13 1_555 1_555
C14 C12 1_555 1_555
H7 C14 1_555 1_555
C15 C14 1_555 1_555
H8 C15 1_555 1_555
C16 C15 1_555 1_555
C17 C11 1_555 1_555
H9 C17 1_555 1_555
C18 C16 1_555 1_555
H10 C18 1_555 1_555
H11 C18 1_555 1_555
H12 C18 1_555 1_555
C19 C10 1_555 1_555
C20 C19 1_555 1_555
H13 C20 1_555 1_555
C21 C20 1_555 1_555
H14 C21 1_555 1_555
C22 C21 1_555 1_555
C23 C22 1_555 1_555
H15 C23 1_555 1_555
C24 C19 1_555 1_555
H16 C24 1_555 1_555
C25 C22 1_555 1_555
H17 C25 1_555 1_555
H18 C25 1_555 1_555
H19 C25 1_555 1_555
O1 C7 1_555 1_555
H20 O1 1_555 1_555
C5 C6 1_555 1_555
C8 C9 1_555 1_555
C12 C13 1_555 1_555
C16 C17 1_555 1_555
C23 C24 1_555 1_555

#END
