
#######################################################################
#
#                 Cambridge Crystallographic Data Centre
#                                CCDC 
#
#######################################################################
#
# If this CIF has been generated from an entry in the Cambridge 
# Structural Database, then it will include bibliographic, chemical, 
# crystal, experimental, refinement or atomic coordinate data resulting 
# from the CCDC's data processing and validation procedures.
#
#######################################################################

data_WEDCOZ
_chemical_formula_moiety         'C15 H12 Br1 N1 S1'
_chemical_name_systematic        2-Bromo-7-methyl-3-(phenylsulfanyl)-1H-indole
_symmetry_cell_setting           monoclinic
_symmetry_space_group_name_H-M   'P 21/c'
_symmetry_Int_Tables_number      14
_space_group_name_Hall           '-P 2ybc'
loop_
_symmetry_equiv_pos_site_id
_symmetry_equiv_pos_as_xyz
1 x,y,z
2 -x,1/2+y,1/2-z
3 -x,-y,-z
4 x,1/2-y,1/2+z
_cell_length_a                   8.3438(6)
_cell_length_b                   9.9691(7)
_cell_length_c                   16.4477(13)
_cell_angle_alpha                90
_cell_angle_beta                 99.400(2)
_cell_angle_gamma                90
_cell_volume                     1349.75
_exptl_crystal_colour            colorless
_exptl_crystal_description       prism
_cell_formula_units_Z            4
loop_
_atom_site_label
_atom_site_type_symbol
_atom_site_fract_x
_atom_site_fract_y
_atom_site_fract_z
Br1 Br 0.45002(4) 0.14860(4) 1.10906(2)
S1 S 0.25457(12) 0.32684(8) 0.93238(6)
N1 N 0.2560(3) -0.0423(2) 1.01534(15)
H1 H 0.2884 -0.1028 1.0516
C1 C 0.0969(5) -0.3085(4) 0.9597(3)
H2 H 0.0322 -0.3781 0.9303
H3 H 0.0681 -0.2989 1.0136
H4 H 0.2098 -0.3316 0.9648
C2 C 0.0665(4) -0.1790(4) 0.9138(2)
C3 C -0.0385(5) -0.1661(4) 0.8410(3)
H5 H -0.0967 -0.2409 0.8191
C4 C -0.0614(4) -0.0442(5) 0.7983(2)
H6 H -0.1335 -0.0407 0.7488
C5 C 0.0200(4) 0.0705(4) 0.82767(19)
H7 H 0.0042 0.1510 0.7989
C6 C 0.1274(3) 0.0618(3) 0.90232(18)
C7 C 0.1466(3) -0.0613(3) 0.94400(17)
C8 C 0.3043(3) 0.0880(3) 1.01897(18)
C9 C 0.2309(4) 0.1561(3) 0.9518(2)
C10 C 0.4268(4) 0.3322(3) 0.8800(2)
C11 C 0.4768(4) 0.2237(3) 0.8387(2)
H8 H 0.4205 0.1429 0.8369
C12 C 0.6107(5) 0.2355(4) 0.8001(2)
H9 H 0.6464 0.1618 0.7734
C13 C 0.6926(5) 0.3571(4) 0.8010(3)
H10 H 0.7820 0.3661 0.7742
C14 C 0.6388(5) 0.4642(4) 0.8425(3)
H11 H 0.6926 0.5459 0.8432
C15 C 0.5086(5) 0.4528(4) 0.8823(2)
H12 H 0.4752 0.5255 0.9107
loop_
_geom_bond_atom_site_label_1
_geom_bond_atom_site_label_2
_geom_bond_site_symmetry_1
_geom_bond_site_symmetry_2
Br1 C8 1_555 1_555
S1 C9 1_555 1_555
N1 H1 1_555 1_555
C1 H2 1_555 1_555
H3 C1 1_555 1_555
H4 C1 1_555 1_555
C2 C1 1_555 1_555
C3 C2 1_555 1_555
H5 C3 1_555 1_555
C4 C3 1_555 1_555
H6 C4 1_555 1_555
C5 C4 1_555 1_555
H7 C5 1_555 1_555
C6 C5 1_555 1_555
C7 N1 1_555 1_555
C8 N1 1_555 1_555
C9 C6 1_555 1_555
C10 S1 1_555 1_555
C11 C10 1_555 1_555
H8 C11 1_555 1_555
C12 C11 1_555 1_555
H9 C12 1_555 1_555
C13 C12 1_555 1_555
H10 C13 1_555 1_555
C14 C13 1_555 1_555
H11 C14 1_555 1_555
C15 C10 1_555 1_555
H12 C15 1_555 1_555
C2 C7 1_555 1_555
C6 C7 1_555 1_555
C8 C9 1_555 1_555
C14 C15 1_555 1_555

#END
