
#######################################################################
#
#                 Cambridge Crystallographic Data Centre
#                                CCDC 
#
#######################################################################
#
# If this CIF has been generated from an entry in the Cambridge 
# Structural Database, then it will include bibliographic, chemical, 
# crystal, experimental, refinement or atomic coordinate data resulting 
# from the CCDC's data processing and validation procedures.
#
#######################################################################

data_WEDGEU
_chemical_formula_moiety         'C16 H12 O3'
_chemical_name_systematic        
3-(2-oxo-2-phenylethyl)-2-benzofuran-1(3H)-one
_symmetry_cell_setting           orthorhombic
_symmetry_space_group_name_H-M   'P 21 21 21'
_symmetry_Int_Tables_number      19
_space_group_name_Hall           'P 2ac 2ab'
loop_
_symmetry_equiv_pos_site_id
_symmetry_equiv_pos_as_xyz
1 x,y,z
2 1/2-x,-y,1/2+z
3 1/2+x,1/2-y,-z
4 -x,1/2+y,1/2-z
_cell_length_a                   5.1674(3)
_cell_length_b                   11.2335(7)
_cell_length_c                   21.3205(14)
_cell_angle_alpha                90
_cell_angle_beta                 90
_cell_angle_gamma                90
_cell_volume                     1237.61
_exptl_crystal_colour            'pale yellow'
_exptl_crystal_description       Needle
_cell_formula_units_Z            4
_exptl_crystal_recrystallization_method 'Hexane, Dichloromethane'
loop_
_atom_site_label
_atom_site_type_symbol
_atom_site_fract_x
_atom_site_fract_y
_atom_site_fract_z
O1 O 0.6245(4) 0.31155(18) 0.66750(9)
O2 O 0.0933(5) 0.3842(2) 0.52693(9)
O3 O 0.7754(5) 0.2005(2) 0.74649(10)
C1 C 0.6229(7) 0.2115(3) 0.70420(13)
C2 C 0.0763(6) 0.4428(3) 0.57484(13)
C3 C 0.2926(5) 0.1878(2) 0.63205(12)
C4 C -0.1126(6) 0.5427(2) 0.58036(12)
C5 C 0.4144(7) 0.1336(3) 0.68186(13)
C6 C 0.4182(6) 0.3066(3) 0.62049(12)
H1 H 0.4928 0.3087 0.5783
C7 C -0.2767(6) 0.5649(3) 0.53055(13)
H2 H -0.2645 0.5185 0.4946
C8 C -0.1288(6) 0.6144(3) 0.63353(13)
H3 H -0.0182 0.6017 0.6673
C9 C 0.3390(8) 0.0229(3) 0.70457(14)
H4 H 0.4237 -0.0123 0.7383
C10 C 0.0854(7) 0.1315(3) 0.60271(13)
H5 H 0.0007 0.1668 0.5690
C11 C 0.0092(7) 0.0208(3) 0.62535(16)
H6 H -0.1293 -0.0181 0.6065
C12 C -0.4579(6) 0.6546(3) 0.53326(15)
H7 H -0.5684 0.6676 0.4995
C13 C 0.2469(6) 0.4146(2) 0.63061(13)
H8 H 0.1382 0.4009 0.6670
H9 H 0.3554 0.4830 0.6395
C14 C -0.3108(6) 0.7046(3) 0.63570(14)
H10 H -0.3220 0.7522 0.6713
C15 C -0.4753(6) 0.7251(3) 0.58619(15)
H11 H -0.5971 0.7859 0.5883
C16 C 0.1344(8) -0.0330(3) 0.67538(16)
H12 H 0.0800 -0.1073 0.6893
loop_
_geom_bond_atom_site_label_1
_geom_bond_atom_site_label_2
_geom_bond_site_symmetry_1
_geom_bond_site_symmetry_2
O1 C1 1_555 1_555
O2 C2 1_555 1_555
O3 C1 1_555 1_555
C1 C5 1_555 1_555
C2 C4 1_555 1_555
C3 C5 1_555 1_555
C4 C7 1_555 1_555
C5 C9 1_555 1_555
C6 O1 1_555 1_555
H1 C6 1_555 1_555
C7 H2 1_555 1_555
C8 C4 1_555 1_555
H3 C8 1_555 1_555
C9 H4 1_555 1_555
C10 C3 1_555 1_555
H5 C10 1_555 1_555
C11 C10 1_555 1_555
H6 C11 1_555 1_555
C12 C7 1_555 1_555
H7 C12 1_555 1_555
C13 C2 1_555 1_555
H8 C13 1_555 1_555
H9 C13 1_555 1_555
C14 C8 1_555 1_555
H10 C14 1_555 1_555
C15 C12 1_555 1_555
H11 C15 1_555 1_555
C16 C9 1_555 1_555
H12 C16 1_555 1_555
C3 C6 1_555 1_555
C6 C13 1_555 1_555
C11 C16 1_555 1_555
C14 C15 1_555 1_555

#END
