
#######################################################################
#
#                 Cambridge Crystallographic Data Centre
#                                CCDC 
#
#######################################################################
#
# If this CIF has been generated from an entry in the Cambridge 
# Structural Database, then it will include bibliographic, chemical, 
# crystal, experimental, refinement or atomic coordinate data resulting 
# from the CCDC's data processing and validation procedures.
#
#######################################################################

data_WEDHIW10
_chemical_formula_moiety         'C15 H20 O2 S1'
_chemical_name_systematic        
cis-2-Isopropenyl-1-(phenylsulfonylmethyl)cyclopentane
_symmetry_cell_setting           orthorhombic
_symmetry_space_group_name_H-M   'P 21 21 21'
_symmetry_Int_Tables_number      19
_space_group_name_Hall           'P 2ac 2ab'
loop_
_symmetry_equiv_pos_site_id
_symmetry_equiv_pos_as_xyz
1 x,y,z
2 1/2-x,-y,1/2+z
3 1/2+x,1/2-y,-z
4 -x,1/2+y,1/2-z
_cell_length_a                   10.869(3)
_cell_length_b                   16.352(4)
_cell_length_c                   8.006(2)
_cell_angle_alpha                90
_cell_angle_beta                 90
_cell_angle_gamma                90
_cell_volume                     1422.91
_cell_formula_units_Z            4
loop_
_atom_site_label
_atom_site_type_symbol
_atom_site_fract_x
_atom_site_fract_y
_atom_site_fract_z
S1 S 0.2897(1) 0.27445(6) 1.0007(1)
O1 O 0.3964(3) 0.3200(2) 1.0479(6)
O2 O 0.2401(4) 0.2836(3) 0.8349(5)
C1 C 0.1956(3) 0.2848(2) 1.3252(5)
C2 C 0.4244(4) 0.1494(2) 1.1276(5)
C3 C 0.1189(4) 0.3447(2) 1.4330(5)
C4 C 0.1690(4) 0.2976(3) 1.1410(5)
C5 C 0.0186(5) 0.2132(3) 1.4430(9)
C6 C 0.2483(5) 0.1108(4) 0.9633(7)
C7 C 0.4498(6) 0.0679(3) 1.1554(7)
C8 C -0.0080(4) 0.3046(3) 1.4286(6)
C9 C 0.1279(4) 0.4332(2) 1.3868(6)
C10 C 0.1538(5) 0.2018(3) 1.3922(6)
C11 C 0.0341(6) 0.4775(4) 1.338(1)
C12 C 0.3754(6) 0.0089(3) 1.0863(8)
C13 C 0.2777(7) 0.0286(4) 0.9926(9)
C14 C 0.2553(7) 0.4684(5) 1.399(1)
C15 C 0.3236(4) 0.1695(2) 1.0340(5)
H1 H 0.290(5) 0.294(3) 1.331(7)
H2 H 0.468(4) 0.191(3) 1.182(6)
H3 H 0.155(5) 0.340(3) 1.549(8)
H4 H 0.160(4) 0.351(3) 1.109(6)
H5 H 0.111(5) 0.268(3) 1.104(6)
H6 H -0.041(5) 0.176(3) 1.365(8)
H7 H 0.009(6) 0.187(4) 1.56(1)
H8 H 0.193(8) 0.133(4) 0.91(1)
H9 H 0.521(6) 0.049(4) 1.23(1)
H10 H -0.053(5) 0.310(3) 1.328(7)
H11 H -0.076(5) 0.324(3) 1.526(8)
H12 H 0.222(7) 0.196(5) 1.52(1)
H13 H 0.167(6) 0.157(4) 1.30(1)
H14 H 0.045(5) 0.539(4) 1.301(9)
H15 H -0.051(6) 0.450(4) 1.33(1)
H16 H 0.392(5) -0.047(4) 1.107(9)
H17 H 0.23(1) -0.017(7) 0.98(2)
H18 H 0.259(7) 0.522(6) 1.37(1)
H19 H 0.312(5) 0.439(4) 1.307(9)
H20 H 0.28(1) 0.469(8) 1.50(2)
loop_
_geom_bond_atom_site_label_1
_geom_bond_atom_site_label_2
_geom_bond_site_symmetry_1
_geom_bond_site_symmetry_2
S1 O1 1_555 1_555
O2 S1 1_555 1_555
C1 C3 1_555 1_555
C2 C7 1_555 1_555
C3 C8 1_555 1_555
C4 S1 1_555 1_555
C5 C8 1_555 1_555
C6 C13 1_555 1_555
C7 C12 1_555 1_555
C8 H10 1_555 1_555
C9 C3 1_555 1_555
C10 C1 1_555 1_555
C11 C9 1_555 1_555
C12 C13 1_555 1_555
C13 H17 1_555 1_555
C14 C9 1_555 1_555
C15 S1 1_555 1_555
H1 C1 1_555 1_555
H2 C2 1_555 1_555
H3 C3 1_555 1_555
H4 C4 1_555 1_555
H5 C4 1_555 1_555
H6 C5 1_555 1_555
H7 C5 1_555 1_555
H8 C6 1_555 1_555
H9 C7 1_555 1_555
H11 C8 1_555 1_555
H12 C10 1_555 1_555
H13 C10 1_555 1_555
H14 C11 1_555 1_555
H15 C11 1_555 1_555
H16 C12 1_555 1_555
H18 C14 1_555 1_555
H19 C14 1_555 1_555
H20 C14 1_555 1_555
C1 C4 1_555 1_555
C2 C15 1_555 1_555
C5 C10 1_555 1_555
C6 C15 1_555 1_555

#END
