
#######################################################################
#
#                 Cambridge Crystallographic Data Centre
#                                CCDC 
#
#######################################################################
#
# If this CIF has been generated from an entry in the Cambridge 
# Structural Database, then it will include bibliographic, chemical, 
# crystal, experimental, refinement or atomic coordinate data resulting 
# from the CCDC's data processing and validation procedures.
#
#######################################################################

data_WEDLEW01
_chemical_formula_moiety         'C14 H26 O2'
_chemical_name_systematic        
8-Hydroxy-4-isopropyl-8-methylspiro(4.5)decanol
_symmetry_cell_setting           rhombohedral
_symmetry_space_group_name_H-M   'R -3'
_symmetry_Int_Tables_number      148
_space_group_name_Hall           '-R 3'
loop_
_symmetry_equiv_pos_site_id
_symmetry_equiv_pos_as_xyz
1 x,y,z
2 1/3+x,2/3+y,2/3+z
3 2/3+x,1/3+y,1/3+z
4 -y,x-y,z
5 -x+y,-x,z
6 1/3-y,2/3+x-y,2/3+z
7 1/3-x+y,2/3-x,2/3+z
8 2/3-y,1/3+x-y,1/3+z
9 2/3-x+y,1/3-x,1/3+z
10 -x,-y,-z
11 2/3-x,1/3-y,1/3-z
12 1/3-x,2/3-y,2/3-z
13 y,-x+y,-z
14 x-y,x,-z
15 2/3+y,1/3-x+y,1/3-z
16 2/3+x-y,1/3+x,1/3-z
17 1/3+y,2/3-x+y,2/3-z
18 1/3+x-y,2/3+x,2/3-z
_cell_length_a                   33.271(4)
_cell_length_b                   33.271(4)
_cell_length_c                   13.840(3)
_cell_angle_alpha                90
_cell_angle_beta                 90
_cell_angle_gamma                120
_cell_volume                     13267.8
_exptl_crystal_colour            colorless
_chemical_melting_point          122.5-123.5deg.C
_cell_formula_units_Z            36
loop_
_atom_site_label
_atom_site_type_symbol
_atom_site_fract_x
_atom_site_fract_y
_atom_site_fract_z
O1 O 0.8206(2) -0.0213(2) 1.1379
O2 O 0.8911(2) 0.0828(2) 0.8389(4)
C1 C 0.7897(4) -0.0214(4) 1.0679(7)
C2 C 0.7429(4) -0.0324(5) 1.1179(10)
C3 C 0.7547(5) 0.0153(6) 1.1491(10)
C4 C 0.7754(4) 0.0452(4) 1.0636(8)
C5 C 0.8067(4) 0.0257(3) 1.0198(7)
C6 C 0.8593(3) 0.0582(3) 1.0378(6)
C7 C 0.8898(3) 0.0437(3) 0.9851(6)
C8 C 0.8802(4) 0.0367(4) 0.8772(8)
C9 C 0.8285(4) 0.0049(4) 0.8594(7)
C10 C 0.7986(4) 0.0185(4) 0.9094(6)
C11 C 0.9112(4) 0.0224(4) 0.8281(8)
C12 C 0.7986(5) 0.0977(5) 1.0824(10)
C13 C 0.7650(5) 0.1050(6) 1.1426(12)
C14 C 0.8107(2) 0.1251(2) 0.9893(4)
H1 H 0.8161 -0.0487 1.1440
H2 H 0.9192 0.1027 0.8518
H3 H 0.7837 -0.0445 1.0196
H4 H 0.7175 -0.0451 1.0729
H5 H 0.7355 -0.0532 1.1715
H6 H 0.7764 0.0257 1.2017
H7 H 0.7272 0.0155 1.1692
H8 H 0.7505 0.0372 1.0187
H9 H 0.8652 0.0592 1.1059
H10 H 0.8676 0.0891 1.0177
H11 H 0.8853 0.0153 1.0129
H12 H 0.9216 0.0670 0.9948
H13 H 0.8230 0.0047 0.7912
H14 H 0.8201 -0.0262 0.8779
H15 H 0.8027 0.0467 0.8813
H16 H 0.7669 -0.0051 0.8990
H17 H 0.9430 0.0440 0.8439
H18 H 0.9036 -0.0081 0.8494
H19 H 0.9070 0.0221 0.7595
H20 H 0.8263 0.1072 1.1194
H21 H 0.7786 0.1376 1.1554
H22 H 0.7363 0.0942 1.1084
H23 H 0.7591 0.0885 1.2026
H24 H 0.8246 0.1574 1.0051
H25 H 0.8325 0.1200 0.9536
H26 H 0.7835 0.1158 0.9507
O3 O 0.0974 0.9098 0.3588
O4 O 0.1662(2) 1.0074(2) 0.6704(4)
C15 C 0.1163(4) 0.8928(4) 0.4298(7)
C16 C 0.1362(5) 0.8651(4) 0.3833(9)
C17 C 0.1818(4) 0.9027(4) 0.3449(8)
C18 C 0.2031(3) 0.9363(4) 0.4299(7)
C19 C 0.1604(3) 0.9339(3) 0.4797(6)
C20 C 0.1586(3) 0.9793(3) 0.4703(6)
C21 C 0.1206(3) 0.9798(3) 0.5244(6)
C22 C 0.1211(4) 0.9696(5) 0.6338(8)
C23 C 0.1206(4) 0.9247(4) 0.6450(6)
C24 C 0.1580(4) 0.9229(4) 0.5883(6)
C25 C 0.0824(4) 0.9721(4) 0.6840(8)
C26 C 0.2454(3) 0.9823(4) 0.4090(7)
C27 C 0.2790(4) 0.9749(5) 0.3407(9)
C28 C 0.2712(4) 1.0049(4) 0.4993(8)
H27 H 0.0694 0.8889 0.3484
H28 H 0.1682 1.0332 0.6567
H29 H 0.0936 0.8743 0.4777
H30 H 0.1166 0.8458 0.3321
H31 H 0.1404 0.8461 0.4299
H32 H 0.2013 0.8905 0.3256
H33 H 0.1773 0.9180 0.2907
H34 H 0.2135 0.9209 0.4736
H35 H 0.1876 1.0048 0.4921
H36 H 0.1553 0.9844 0.4033
H37 H 0.1229 1.0096 0.5167
H38 H 0.0914 0.9569 0.4976
H39 H 0.0910 0.8997 0.6249
H40 H 0.1245 0.9201 0.7121
H41 H 0.1539 0.8923 0.5950
H42 H 0.1874 0.9443 0.6166
H43 H 0.0830 0.9659 0.7516
H44 H 0.0533 0.9493 0.6568
H45 H 0.0863 1.0025 0.6757
H46 H 0.2360 1.0023 0.3783
H47 H 0.3061 1.0044 0.3274
H48 H 0.2630 0.9613 0.2814
H49 H 0.2882 0.9548 0.3708
H50 H 0.2514 1.0096 0.5428
H51 H 0.2978 1.0343 0.4836
H52 H 0.2812 0.9855 0.5295
loop_
_geom_bond_atom_site_label_1
_geom_bond_atom_site_label_2
_geom_bond_site_symmetry_1
_geom_bond_site_symmetry_2
O1 C1 1_555 1_555
O2 C8 1_555 1_555
C1 C2 1_555 1_555
C2 C3 1_555 1_555
C3 C4 1_555 1_555
C4 C5 1_555 1_555
C5 C1 1_555 1_555
C6 C5 1_555 1_555
C7 C6 1_555 1_555
C8 C7 1_555 1_555
C9 C8 1_555 1_555
C10 C5 1_555 1_555
C11 C8 1_555 1_555
C12 C4 1_555 1_555
C13 C12 1_555 1_555
C14 C12 1_555 1_555
H1 O1 1_555 1_555
H2 O2 1_555 1_555
H3 C1 1_555 1_555
H4 C2 1_555 1_555
H5 C2 1_555 1_555
H6 C3 1_555 1_555
H7 C3 1_555 1_555
H8 C4 1_555 1_555
H9 C6 1_555 1_555
H10 C6 1_555 1_555
H11 C7 1_555 1_555
H12 C7 1_555 1_555
H13 C9 1_555 1_555
H14 C9 1_555 1_555
H15 C10 1_555 1_555
H16 C10 1_555 1_555
H17 C11 1_555 1_555
H18 C11 1_555 1_555
H19 C11 1_555 1_555
H20 C12 1_555 1_555
H21 C13 1_555 1_555
H22 C13 1_555 1_555
H23 C13 1_555 1_555
H24 C14 1_555 1_555
H25 C14 1_555 1_555
H26 C14 1_555 1_555
O3 C15 1_555 1_555
O4 C22 1_555 1_555
C15 C16 1_555 1_555
C16 C17 1_555 1_555
C17 C18 1_555 1_555
C18 C19 1_555 1_555
C19 C15 1_555 1_555
C20 C19 1_555 1_555
C21 C20 1_555 1_555
C22 C21 1_555 1_555
C23 C22 1_555 1_555
C24 C19 1_555 1_555
C25 C22 1_555 1_555
C26 C18 1_555 1_555
C27 C26 1_555 1_555
C28 C26 1_555 1_555
H27 O3 1_555 1_555
H28 O4 1_555 1_555
H29 C15 1_555 1_555
H30 C16 1_555 1_555
H31 C16 1_555 1_555
H32 C17 1_555 1_555
H33 C17 1_555 1_555
H34 C18 1_555 1_555
H35 C20 1_555 1_555
H36 C20 1_555 1_555
H37 C21 1_555 1_555
H38 C21 1_555 1_555
H39 C23 1_555 1_555
H40 C23 1_555 1_555
H41 C24 1_555 1_555
H42 C24 1_555 1_555
H43 C25 1_555 1_555
H44 C25 1_555 1_555
H45 C25 1_555 1_555
H46 C26 1_555 1_555
H47 C27 1_555 1_555
H48 C27 1_555 1_555
H49 C27 1_555 1_555
H50 C28 1_555 1_555
H51 C28 1_555 1_555
H52 C28 1_555 1_555
C9 C10 1_555 1_555
C23 C24 1_555 1_555

#END
