
#######################################################################
#
#                 Cambridge Crystallographic Data Centre
#                                CCDC 
#
#######################################################################
#
# If this CIF has been generated from an entry in the Cambridge 
# Structural Database, then it will include bibliographic, chemical, 
# crystal, experimental, refinement or atomic coordinate data resulting 
# from the CCDC's data processing and validation procedures.
#
#######################################################################

data_WEDLUP
_chemical_formula_moiety         'C27 H32 O7,C1 H4 O1'
_chemical_name_systematic        
'5-(hexa-1,3-dien-1-yl)-2-(8-hydroxy-2,5,6,7-tetramethyl-3,3a,5,6-tetrahydro-2H-pyrano[2,3,4-de][1]benzopyran-3-yl)-5-methyl-4-oxo-4,5-dihydrofuran-3-carboxylic acid methanol solvate'
_symmetry_cell_setting           monoclinic
_symmetry_space_group_name_H-M   'P 21'
_symmetry_Int_Tables_number      4
_space_group_name_Hall           'P 2yb'
loop_
_symmetry_equiv_pos_site_id
_symmetry_equiv_pos_as_xyz
1 x,y,z
2 -x,1/2+y,-z
_cell_length_a                   11.69270(10)
_cell_length_b                   16.43780(10)
_cell_length_c                   15.75680(10)
_cell_angle_alpha                90
_cell_angle_beta                 108.5570(10)
_cell_angle_gamma                90
_cell_volume                     2871.03
_exptl_crystal_colour            colorless
_exptl_crystal_description       block
_cell_formula_units_Z            4
loop_
_atom_site_label
_atom_site_type_symbol
_atom_site_fract_x
_atom_site_fract_y
_atom_site_fract_z
O1 O 0.6691(3) 0.51711(17) 1.27780(18)
O2 O 0.9045(2) 0.47914(18) 1.11190(17)
O3 O 0.5729(2) 0.5170(2) 0.86378(17)
H1 H 0.5002 0.5251 0.8426
O4 O 0.8251(2) 0.52765(18) 0.88222(17)
O5 O 0.5251(2) 0.49849(19) 0.98768(17)
O6 O 0.6107(3) 0.3469(2) 1.5029(2)
H2 H 0.5758 0.3880 1.5109
O7 O 0.7913(3) 0.31967(17) 1.16014(18)
C1 C 0.6833(3) 0.4416(2) 1.3167(2)
C2 C 0.6010(3) 0.5045(2) 0.9499(2)
C3 C 0.7434(3) 0.3011(2) 1.3293(2)
C4 C 0.7314(3) 0.4987(2) 0.9966(2)
C5 C 0.6389(3) 0.4328(2) 1.3881(3)
H3 H 0.6025 0.4764 1.4071
C6 C 0.6497(3) 0.3579(2) 1.4308(2)
C7 C 0.7946(3) 0.2328(2) 1.2888(3)
H4 H 0.7596 0.1820 1.3018
C8 C 0.7018(3) 0.2906(2) 1.4022(3)
C9 C 0.7383(3) 0.3770(2) 1.2881(2)
C10 C 0.8269(3) 0.5120(2) 0.9585(2)
C11 C 0.7839(3) 0.4792(2) 1.0847(2)
C12 C 0.7288(3) 0.4596(2) 1.1559(2)
H5 H 0.6438 0.4451 1.1276
C13 C 0.7535(3) 0.2428(2) 1.1869(3)
H6 H 0.7925 0.1997 1.1630
C14 C 0.7367(4) 0.5339(2) 1.2186(3)
H7 H 0.8213 0.5433 1.2538
C15 C 0.7939(3) 0.3890(2) 1.2149(2)
H8 H 0.8784 0.4047 1.2429
C16 C 0.9457(3) 0.5018(2) 1.0358(2)
C17 C 0.9313(3) 0.2262(3) 1.3306(3)
H9 H 0.9681 0.2768 1.3230
H10 H 0.9609 0.1834 1.3018
H11 H 0.9510 0.2143 1.3933
C18 C 1.0094(3) 0.5820(3) 1.0604(3)
H12 H 0.9701 0.6220 1.0824
C19 C 1.0166(4) 0.4316(3) 1.0163(3)
H13 H 1.0909 0.4256 1.0646
H14 H 1.0339 0.4420 0.9616
H15 H 0.9702 0.3825 1.0101
C20 C 1.1165(4) 0.6010(3) 1.0537(3)
H16 H 1.1585 0.5619 1.0329
C21 C 0.6186(4) 0.2326(3) 1.1444(3)
H17 H 0.5776 0.2759 1.1638
H18 H 0.5942 0.1813 1.1621
H19 H 0.5986 0.2342 1.0805
C22 C 0.7091(4) 0.2110(3) 1.4507(3)
H20 H 0.6766 0.1684 1.4082
H21 H 0.6635 0.2146 1.4916
H22 H 0.7918 0.1991 1.4833
C23 C 1.1706(4) 0.6813(3) 1.0779(3)
H23 H 1.1286 0.7192 1.1004
C24 C 0.6836(5) 0.6116(3) 1.1710(3)
H24 H 0.6050 0.6008 1.1296
H25 H 0.7349 0.6324 1.1391
H26 H 0.6771 0.6511 1.2141
C25 C 1.2753(6) 0.7037(4) 1.0700(5)
H27 H 1.3167 0.6667 1.0459
C26 C 1.3327(7) 0.7888(5) 1.0987(7)
H28 H 1.3458 0.8137 1.0468
H29 H 1.2738 0.8219 1.1144
C27 C 1.4495(13) 0.7940(11) 1.1750(13)
H30 H 1.4748 0.8497 1.1843
H31 H 1.5102 0.7626 1.1607
H32 H 1.4378 0.7728 1.2284
O8 O 0.3386(3) 0.51640(16) 0.23061(18)
O9 O 0.1047(2) 0.46378(19) 0.39520(18)
O10 O 0.4841(2) 0.4837(2) 0.51857(17)
O11 O 0.2254(3) 0.30912(17) 0.33704(18)
O12 O 0.1843(2) 0.5106(2) 0.62478(17)
O13 O 0.3934(3) 0.3618(2) -0.0073(2)
H33 H 0.4255 0.4047 -0.0139
O14 O 0.4368(2) 0.5014(2) 0.64267(17)
H34 H 0.5073 0.5163 0.6627
C28 C 0.3244(3) 0.4440(2) 0.1865(2)
C29 C 0.2624(3) 0.3037(2) 0.1634(2)
C30 C 0.4085(3) 0.4899(2) 0.5562(2)
C31 C 0.2698(3) 0.3765(2) 0.2108(2)
C32 C 0.2776(3) 0.4848(2) 0.5098(2)
C33 C 0.3677(3) 0.4397(2) 0.1141(3)
H35 H 0.4047 0.4846 0.0981
C34 C 0.3031(3) 0.2985(2) 0.0893(2)
C35 C 0.3550(3) 0.3676(2) 0.0659(2)
C36 C 0.2249(3) 0.4663(2) 0.4209(3)
C37 C 0.2105(3) 0.2319(2) 0.1985(3)
H36 H 0.2426 0.1824 0.1797
C38 C 0.2792(3) 0.4510(2) 0.3484(2)
H37 H 0.3646 0.4373 0.3756
C39 C 0.2685(4) 0.5285(2) 0.2893(3)
H38 H 0.1838 0.5364 0.2534
C40 C 0.2162(3) 0.3818(2) 0.2862(2)
H39 H 0.1306 0.3957 0.2605
C41 C 0.1825(3) 0.4962(2) 0.5481(2)
C42 C 0.2557(4) 0.2341(2) 0.3010(3)
H40 H 0.2157 0.1898 0.3221
C43 C 0.0723(3) 0.2289(3) 0.1581(3)
H41 H 0.0380 0.2751 0.1783
H42 H 0.0428 0.1799 0.1769
H43 H 0.0499 0.2298 0.0940
C44 C -0.0103(4) 0.4170(3) 0.4893(3)
H44 H -0.0837 0.4118 0.4401
H45 H -0.0290 0.4281 0.5432
H46 H 0.0347 0.3672 0.4962
C45 C 0.2934(4) 0.2218(3) 0.0354(3)
H47 H 0.3241 0.1768 0.0749
H48 H 0.3395 0.2276 -0.0049
H49 H 0.2104 0.2120 0.0017
C46 C 0.3159(5) 0.6057(3) 0.3394(3)
H50 H 0.3957 0.5965 0.3798
H51 H 0.2639 0.6221 0.3728
H52 H 0.3182 0.6477 0.2977
C47 C 0.3912(4) 0.2200(4) 0.3398(4)
H53 H 0.4329 0.2597 0.3159
H54 H 0.4102 0.1665 0.3241
H55 H 0.4157 0.2251 0.4038
C48 C 0.0637(3) 0.4857(3) 0.4711(2)
C49 C 0.0010(4) 0.5668(3) 0.4493(3)
H56 H 0.0397 0.6064 0.4263
C50 C -0.1062(6) 0.5881(5) 0.4597(5)
H57 H -0.1457 0.5494 0.4833
C51 C -0.3264(8) 0.7659(7) 0.4281(6)
H58 H -0.4068 0.7599 0.4325
H59 H -0.2839 0.8052 0.4729
C52 C -0.1636(8) 0.6678(6) 0.4360(6)
H60 H -0.1255 0.7053 0.4099
C53 C -0.2669(9) 0.6910(6) 0.4492(7)
H61 H -0.3034 0.6526 0.4755
C54 C -0.334(3) 0.790(2) 0.366(2)
H62 H -0.3468 0.8473 0.3658
H63 H -0.4013 0.7647 0.3214
H64 H -0.2615 0.7788 0.3515
O15 O 0.3438(3) 0.5232(3) 0.79196(19)
H74 H 0.3138 0.5098 0.7394
C60 C 0.2561(4) 0.5166(4) 0.8363(3)
H75 H 0.1835 0.5436 0.8018
H76 H 0.2863 0.5414 0.8944
H77 H 0.2393 0.4602 0.8429
O16 O 0.6667(3) 0.5091(4) 0.7132(2)
H78 H 0.6991 0.5094 0.7677
C61 C 0.7542(5) 0.5018(4) 0.6712(4)
H79 H 0.7248 0.5251 0.6124
H80 H 0.7724 0.4453 0.6666
H81 H 0.8260 0.5299 0.7056
H65? H -0.0378 0.5879 0.4875
C55? C -0.0003(9) 0.6070(7) 0.3804(7)
H66? H 0.0355 0.5837 0.3414
C56? C -0.0546(8) 0.6879(6) 0.3579(7)
H67? H -0.0886 0.7126 0.3973
C57? C -0.0574(12) 0.7272(8) 0.2844(9)
H68? H -0.0249 0.7012 0.2449
C58? C -0.1091(12) 0.8110(8) 0.2595(9)
H69? H -0.1761 0.8092 0.2041
H70? H -0.1378 0.8329 0.3062
C59? C -0.010(6) 0.862(4) 0.249(2)
H71? H -0.0401 0.9160 0.2309
H72? H 0.0187 0.8388 0.2034
H73? H 0.0543 0.8646 0.3043
loop_
_geom_bond_atom_site_label_1
_geom_bond_atom_site_label_2
_geom_bond_site_symmetry_1
_geom_bond_site_symmetry_2
O1 C1 1_555 1_555
O2 C11 1_555 1_555
O3 H1 1_555 1_555
O4 C10 1_555 1_555
O5 C2 1_555 1_555
O6 H2 1_555 1_555
O7 C13 1_555 1_555
C1 C5 1_555 1_555
C2 O3 1_555 1_555
C3 C7 1_555 1_555
C4 C2 1_555 1_555
C5 H3 1_555 1_555
C6 O6 1_555 1_555
C7 H4 1_555 1_555
C8 C3 1_555 1_555
C9 C1 1_555 1_555
C10 C4 1_555 1_555
C11 C4 1_555 1_555
C12 C11 1_555 1_555
H5 C12 1_555 1_555
C13 C7 1_555 1_555
H6 C13 1_555 1_555
C14 O1 1_555 1_555
H7 C14 1_555 1_555
C15 O7 1_555 1_555
H8 C15 1_555 1_555
C16 O2 1_555 1_555
C17 C7 1_555 1_555
H9 C17 1_555 1_555
H10 C17 1_555 1_555
H11 C17 1_555 1_555
C18 C16 1_555 1_555
H12 C18 1_555 1_555
C19 C16 1_555 1_555
H13 C19 1_555 1_555
H14 C19 1_555 1_555
H15 C19 1_555 1_555
C20 C18 1_555 1_555
H16 C20 1_555 1_555
C21 C13 1_555 1_555
H17 C21 1_555 1_555
H18 C21 1_555 1_555
H19 C21 1_555 1_555
C22 C8 1_555 1_555
H20 C22 1_555 1_555
H21 C22 1_555 1_555
H22 C22 1_555 1_555
C23 C20 1_555 1_555
H23 C23 1_555 1_555
C24 C14 1_555 1_555
H24 C24 1_555 1_555
H25 C24 1_555 1_555
H26 C24 1_555 1_555
C25 C23 1_555 1_555
H27 C25 1_555 1_555
C26 C25 1_555 1_555
H28 C26 1_555 1_555
H29 C26 1_555 1_555
C27 C26 1_555 1_555
H30 C27 1_555 1_555
H31 C27 1_555 1_555
H32 C27 1_555 1_555
O8 C28 1_555 1_555
O9 C36 1_555 1_555
O10 C30 1_555 1_555
O11 C40 1_555 1_555
O12 C41 1_555 1_555
O13 H33 1_555 1_555
O14 H34 1_555 1_555
C28 C31 1_555 1_555
C29 C31 1_555 1_555
C30 O14 1_555 1_555
C31 C40 1_555 1_555
C32 C30 1_555 1_555
C33 C28 1_555 1_555
H35 C33 1_555 1_555
C34 C29 1_555 1_555
C35 O13 1_555 1_555
C36 C32 1_555 1_555
C37 C29 1_555 1_555
H36 C37 1_555 1_555
C38 C36 1_555 1_555
H37 C38 1_555 1_555
C39 O8 1_555 1_555
H38 C39 1_555 1_555
C40 C38 1_555 1_555
H39 C40 1_555 1_555
C41 C32 1_555 1_555
C42 O11 1_555 1_555
H40 C42 1_555 1_555
C43 C37 1_555 1_555
H41 C43 1_555 1_555
H42 C43 1_555 1_555
H43 C43 1_555 1_555
C44 H44 1_555 1_555
H45 C44 1_555 1_555
H46 C44 1_555 1_555
C45 C34 1_555 1_555
H47 C45 1_555 1_555
H48 C45 1_555 1_555
H49 C45 1_555 1_555
C46 C39 1_555 1_555
H50 C46 1_555 1_555
H51 C46 1_555 1_555
H52 C46 1_555 1_555
C47 C42 1_555 1_555
H53 C47 1_555 1_555
H54 C47 1_555 1_555
H55 C47 1_555 1_555
C48 O9 1_555 1_555
C49 C48 1_555 1_555
H56 C49 1_555 1_555
C50 C49 1_555 1_555
H57 C50 1_555 1_555
C51 H58 1_555 1_555
H59 C51 1_555 1_555
C52 C50 1_555 1_555
H60 C52 1_555 1_555
C53 C51 1_555 1_555
H61 C53 1_555 1_555
C54 C51 1_555 1_555
H62 C54 1_555 1_555
H63 C54 1_555 1_555
H64 C54 1_555 1_555
O15 H74 1_555 1_555
C60 O15 1_555 1_555
H75 C60 1_555 1_555
H76 C60 1_555 1_555
H77 C60 1_555 1_555
O16 H78 1_555 1_555
C61 O16 1_555 1_555
H79 C61 1_555 1_555
H80 C61 1_555 1_555
H81 C61 1_555 1_555
C3 C9 1_555 1_555
C5 C6 1_555 1_555
C6 C8 1_555 1_555
C9 C15 1_555 1_555
C10 C16 1_555 1_555
C12 C14 1_555 1_555
C12 C15 1_555 1_555
C33 C35 1_555 1_555
C34 C35 1_555 1_555
C37 C42 1_555 1_555
C38 C39 1_555 1_555
C41 C48 1_555 1_555
C44 C48 1_555 1_555
C52 C53 1_555 1_555

#END
