
#######################################################################
#
#                 Cambridge Crystallographic Data Centre
#                                CCDC 
#
#######################################################################
#
# If this CIF has been generated from an entry in the Cambridge 
# Structural Database, then it will include bibliographic, chemical, 
# crystal, experimental, refinement or atomic coordinate data resulting 
# from the CCDC's data processing and validation procedures.
#
#######################################################################

data_WEDLOG
_chemical_formula_moiety         'C28 H42 O3 Si1'
_chemical_name_systematic        
Tetrahydrofuran-5'-one-2'-spiro-17-(4''-trimethylsilylcyclopentane(1'',2''-f)-4-androstene-3-one)
_symmetry_cell_setting           monoclinic
_symmetry_space_group_name_H-M   'P 21'
_symmetry_Int_Tables_number      4
_space_group_name_Hall           'P 2yb'
loop_
_symmetry_equiv_pos_site_id
_symmetry_equiv_pos_as_xyz
1 x,y,z
2 -x,1/2+y,-z
_cell_length_a                   6.118(2)
_cell_length_b                   11.639(5)
_cell_length_c                   17.318(7)
_cell_angle_alpha                90
_cell_angle_beta                 90.67(3)
_cell_angle_gamma                90
_cell_volume                     1233.09
_exptl_crystal_colour            colorless
_chemical_melting_point          'above 275deg.C(dec.)'
_cell_formula_units_Z            2
loop_
_atom_site_label
_atom_site_type_symbol
_atom_site_fract_x
_atom_site_fract_y
_atom_site_fract_z
Si1 Si 0.3992(1) 0.9000 0.19666(3)
C1 C 0.2201(3) 0.4580(2) 0.4803(1)
C2 C 0.2883(4) 0.5200(2) 0.5542(1)
C3 C 0.3809(4) 0.6370(2) 0.5381(1)
C4 C 0.3000(3) 0.6943(2) 0.4680(1)
C5 C 0.1496(3) 0.6512(2) 0.4196(1)
C6 C 0.0385(3) 0.7249(2) 0.3585(1)
C7 C 0.0107(3) 0.6622(2) 0.2803(1)
C8 C -0.0751(3) 0.5391(2) 0.2868(1)
C9 C 0.0567(3) 0.4693(2) 0.3463(1)
C10 C 0.0650(3) 0.5272(2) 0.4278(1)
C11 C -0.0178(3) 0.3426(2) 0.3487(1)
C12 C -0.0237(3) 0.2861(2) 0.2690(1)
C13 C -0.1603(3) 0.3548(2) 0.2114(1)
C14 C -0.0717(3) 0.4781(2) 0.2088(1)
C15 C -0.1935(4) 0.5346(2) 0.1409(1)
C16 C -0.2351(4) 0.4347(2) 0.0838(1)
C17 C -0.1421(3) 0.3261(2) 0.1240(1)
C18 C -0.4036(3) 0.3504(2) 0.2340(1)
C19 C -0.1638(3) 0.5332(2) 0.4641(1)
C20 C 0.0842(4) 0.2943(2) 0.0941(1)
C21 C 0.0307(5) 0.2211(2) 0.0237(1)
C22 C -0.1838(4) 0.1681(2) 0.0431(1)
C23 C 0.2349(4) 0.6769(2) 0.2424(1)
C24 C 0.3309(4) 0.7916(2) 0.2738(1)
C25 C 0.1621(4) 0.8338(2) 0.3335(1)
C26 C 0.5653(4) 1.0179(2) 0.2398(1)
C27 C 0.1453(4) 0.9624(3) 0.1540(1)
C28 C 0.5561(4) 0.8299(2) 0.1179(1)
O1 O 0.5103(3) 0.6845(2) 0.5822(1)
O2 O -0.2751(4) 0.0873(2) 0.0133(1)
O3 O -0.2756(3) 0.2257(1) 0.1027(1)
H1 H 0.3496 0.4407 0.4518
H2 H 0.1514 0.3865 0.4932
H3 H 0.3954 0.4751 0.5817
H4 H 0.1626 0.5276 0.5865
H5 H 0.3598 0.7682 0.4558
H6 H -0.1032 0.7463 0.3769
H7 H -0.0927 0.7051 0.2498
H8 H -0.2241 0.5420 0.3035
H9 H 0.2044 0.4684 0.3282
H10 H -0.1618 0.3393 0.3701
H11 H 0.0785 0.3000 0.3822
H12 H -0.0821 0.2098 0.2732
H13 H 0.1231 0.2800 0.2505
H14 H 0.0790 0.4733 0.1943
H15 H -0.1070 0.5939 0.1177
H16 H -0.3283 0.5674 0.1582
H17 H -0.1632 0.4489 0.0358
H18 H -0.3890 0.4258 0.0740
H19 H -0.4184 0.3806 0.2853
H20 H -0.4922 0.3944 0.1988
H21 H -0.4503 0.2716 0.2331
H22 H -0.1520 0.5728 0.5126
H23 H -0.2693 0.5713 0.4316
H24 H -0.2095 0.4554 0.4729
H25 H 0.1647 0.2499 0.1316
H26 H 0.1662 0.3619 0.0816
H27 H 0.0164 0.2690 -0.0212
H28 H 0.1402 0.1637 0.0147
H29 H 0.3272 0.6131 0.2557
H30 H 0.2204 0.6805 0.1872
H31 H 0.4636 0.7740 0.3015
H32 H 0.0642 0.8879 0.3096
H33 H 0.2323 0.8696 0.3771
H34 H 0.5950 1.0727 0.1998
H35 H 0.4872 1.0549 0.2806
H36 H 0.7006 0.9877 0.2597
H37 H 0.2009 1.0047 0.1108
H38 H 0.0394 0.9074 0.1360
H39 H 0.0775 1.0145 0.1894
H40 H 0.6001 0.8866 0.0809
H41 H 0.6834 0.7945 0.1404
H42 H 0.4685 0.7724 0.0925
loop_
_geom_bond_atom_site_label_1
_geom_bond_atom_site_label_2
_geom_bond_site_symmetry_1
_geom_bond_site_symmetry_2
Si1 C24 1_555 1_555
C1 C2 1_555 1_555
C2 C3 1_555 1_555
C3 C4 1_555 1_555
C4 C5 1_555 1_555
C5 C6 1_555 1_555
C6 C7 1_555 1_555
C7 C8 1_555 1_555
C8 C9 1_555 1_555
C9 C10 1_555 1_555
C10 C1 1_555 1_555
C11 C9 1_555 1_555
C12 C11 1_555 1_555
C13 C12 1_555 1_555
C14 C8 1_555 1_555
C15 C14 1_555 1_555
C16 C15 1_555 1_555
C17 C13 1_555 1_555
C18 C13 1_555 1_555
C19 C10 1_555 1_555
C20 C17 1_555 1_555
C21 C20 1_555 1_555
C22 C21 1_555 1_555
C23 C7 1_555 1_555
C24 C23 1_555 1_555
C25 C6 1_555 1_555
C26 Si1 1_555 1_555
C27 Si1 1_555 1_555
C28 Si1 1_555 1_555
O1 C3 1_555 1_555
O2 C22 1_555 1_555
O3 C17 1_555 1_555
H1 C1 1_555 1_555
H2 C1 1_555 1_555
H3 C2 1_555 1_555
H4 C2 1_555 1_555
H5 C4 1_555 1_555
H6 C6 1_555 1_555
H7 C7 1_555 1_555
H8 C8 1_555 1_555
H9 C9 1_555 1_555
H10 C11 1_555 1_555
H11 C11 1_555 1_555
H12 C12 1_555 1_555
H13 C12 1_555 1_555
H14 C14 1_555 1_555
H15 C15 1_555 1_555
H16 C15 1_555 1_555
H17 C16 1_555 1_555
H18 C16 1_555 1_555
H19 C18 1_555 1_555
H20 C18 1_555 1_555
H21 C18 1_555 1_555
H22 C19 1_555 1_555
H23 C19 1_555 1_555
H24 C19 1_555 1_555
H25 C20 1_555 1_555
H26 C20 1_555 1_555
H27 C21 1_555 1_555
H28 C21 1_555 1_555
H29 C23 1_555 1_555
H30 C23 1_555 1_555
H31 C24 1_555 1_555
H32 C25 1_555 1_555
H33 C25 1_555 1_555
H34 C26 1_555 1_555
H35 C26 1_555 1_555
H36 C26 1_555 1_555
H37 C27 1_555 1_555
H38 C27 1_555 1_555
H39 C27 1_555 1_555
H40 C28 1_555 1_555
H41 C28 1_555 1_555
H42 C28 1_555 1_555
C5 C10 1_555 1_555
C13 C14 1_555 1_555
C16 C17 1_555 1_555
C22 O3 1_555 1_555
C24 C25 1_555 1_555

#END
