
#######################################################################
#
#                 Cambridge Crystallographic Data Centre
#                                CCDC 
#
#######################################################################
#
# If this CIF has been generated from an entry in the Cambridge 
# Structural Database, then it will include bibliographic, chemical, 
# crystal, experimental, refinement or atomic coordinate data resulting 
# from the CCDC's data processing and validation procedures.
#
#######################################################################

data_WEDMIE
_chemical_formula_moiety         'C25 H24 N2 O2 S1'
_chemical_name_systematic        
8-ethenyl-13-[(4-methylphenyl)sulfonyl]-5,8,13,13a-tetrahydro-6H-isoquinolino[1,2-b]quinazoline
_symmetry_cell_setting           orthorhombic
_symmetry_space_group_name_H-M   'P 21 21 21'
_symmetry_Int_Tables_number      19
_space_group_name_Hall           'P 2ac 2ab'
loop_
_symmetry_equiv_pos_site_id
_symmetry_equiv_pos_as_xyz
1 x,y,z
2 1/2-x,-y,1/2+z
3 -x,1/2+y,1/2-z
4 1/2+x,1/2-y,-z
_cell_length_a                   8.68430(10)
_cell_length_b                   14.2721(2)
_cell_length_c                   17.1469(3)
_cell_angle_alpha                90
_cell_angle_beta                 90
_cell_angle_gamma                90
_cell_volume                     2125.24
_exptl_crystal_colour            colorless
_exptl_crystal_description       block
_cell_formula_units_Z            4
_exptl_crystal_recrystallization_method 'ethyl acetate'
loop_
_atom_site_label
_atom_site_type_symbol
_atom_site_fract_x
_atom_site_fract_y
_atom_site_fract_z
C1 C 0.5473(3) 0.08343(18) 0.77494(17)
H1 H 0.4534 0.0795 0.7434
H2 H 0.5320 0.1285 0.8174
H3 H 0.5708 0.0216 0.7969
C2 C 0.6789(3) 0.11510(14) 0.72453(14)
C3 C 0.6552(3) 0.13806(15) 0.64648(14)
H4 H 0.5546 0.1341 0.6250
C4 C 0.7762(3) 0.16653(15) 0.60006(13)
H5 H 0.7590 0.1829 0.5471
C5 C 0.9229(3) 0.17097(14) 0.63136(12)
C6 C 0.9502(2) 0.14885(14) 0.70929(12)
H6 H 1.0510 0.1528 0.7305
C7 C 0.8273(3) 0.12098(14) 0.75506(13)
H7 H 0.8444 0.1056 0.8083
C8 C 1.1804(3) 0.33712(14) 0.67344(12)
C9 C 1.3339(2) 0.31143(15) 0.68349(14)
H8 H 1.3905 0.2853 0.6413
C10 C 1.4033(3) 0.32423(16) 0.75545(14)
H9 H 1.5068 0.3048 0.7633
C11 C 1.3220(3) 0.36541(17) 0.81618(14)
H10 H 1.3699 0.3746 0.8654
C12 C 1.1707(3) 0.39307(15) 0.80480(13)
H11 H 1.1162 0.4220 0.8464
C13 C 1.0967(2) 0.37942(14) 0.73364(13)
C14 C 0.9331(2) 0.41507(15) 0.72272(13)
H12 H 0.9345 0.4851 0.7251
C15 C 0.9817(2) 0.38905(14) 0.58297(13)
H13 H 0.9282 0.3669 0.5347
C16 C 0.8288(3) 0.37915(16) 0.78641(14)
H14 H 0.8061 0.3140 0.7871
C17 C 0.7672(3) 0.43172(18) 0.84103(14)
H15 H 0.7874 0.4971 0.8421
H16 H 0.7024 0.4043 0.8794
C18 C 0.7363(3) 0.44179(16) 0.62274(14)
H17 H 0.6577 0.4389 0.6645
H18 H 0.6911 0.4136 0.5752
C19 C 0.7748(3) 0.54581(17) 0.60602(16)
H19 H 0.7003 0.5703 0.5674
H20 H 0.7615 0.5822 0.6547
C20 C 0.9361(3) 0.56164(15) 0.57554(13)
C21 C 0.9850(3) 0.65286(16) 0.55949(14)
H21 H 0.9149 0.7034 0.5656
C22 C 1.1343(3) 0.67076(17) 0.53481(15)
H22 H 1.1655 0.7331 0.5234
C23 C 1.2374(3) 0.59774(18) 0.52682(14)
H23 H 1.3400 0.6099 0.5105
C24 C 1.1909(3) 0.50627(16) 0.54272(13)
H24 H 1.2620 0.4561 0.5371
C25 C 1.0412(3) 0.48808(15) 0.56669(12)
N1 N 1.1092(2) 0.32340(12) 0.59848(10)
N2 N 0.8697(2) 0.38628(12) 0.64642(11)
O1 O 1.0206(2) 0.21612(11) 0.49384(9)
O2 O 1.21068(18) 0.16055(10) 0.59025(9)
S1 S 1.07432(6) 0.21222(3) 0.57258(3)
loop_
_geom_bond_atom_site_label_1
_geom_bond_atom_site_label_2
_geom_bond_site_symmetry_1
_geom_bond_site_symmetry_2
C1 H1 1_555 1_555
H2 C1 1_555 1_555
H3 C1 1_555 1_555
C2 C1 1_555 1_555
C3 C2 1_555 1_555
H4 C3 1_555 1_555
C4 C3 1_555 1_555
H5 C4 1_555 1_555
C5 C4 1_555 1_555
C6 C5 1_555 1_555
H6 C6 1_555 1_555
C7 C2 1_555 1_555
H7 C7 1_555 1_555
C8 C9 1_555 1_555
C9 H8 1_555 1_555
C10 C9 1_555 1_555
H9 C10 1_555 1_555
C11 C10 1_555 1_555
H10 C11 1_555 1_555
C12 C11 1_555 1_555
H11 C12 1_555 1_555
C13 C8 1_555 1_555
C14 C13 1_555 1_555
H12 C14 1_555 1_555
C15 H13 1_555 1_555
C16 C14 1_555 1_555
H14 C16 1_555 1_555
C17 C16 1_555 1_555
H15 C17 1_555 1_555
H16 C17 1_555 1_555
C18 H17 1_555 1_555
H18 C18 1_555 1_555
C19 C18 1_555 1_555
H19 C19 1_555 1_555
H20 C19 1_555 1_555
C20 C19 1_555 1_555
C21 C20 1_555 1_555
H21 C21 1_555 1_555
C22 C21 1_555 1_555
H22 C22 1_555 1_555
C23 C22 1_555 1_555
H23 C23 1_555 1_555
C24 C23 1_555 1_555
H24 C24 1_555 1_555
C25 C15 1_555 1_555
N1 C8 1_555 1_555
N2 C14 1_555 1_555
O1 S1 1_555 1_555
O2 S1 1_555 1_555
S1 C5 1_555 1_555
C6 C7 1_555 1_555
C12 C13 1_555 1_555
C15 N1 1_555 1_555
C15 N2 1_555 1_555
C18 N2 1_555 1_555
C20 C25 1_555 1_555
C24 C25 1_555 1_555
N1 S1 1_555 1_555

#END
