
#######################################################################
#
#                 Cambridge Crystallographic Data Centre
#                                CCDC 
#
#######################################################################
#
# If this CIF has been generated from an entry in the Cambridge 
# Structural Database, then it will include bibliographic, chemical, 
# crystal, experimental, refinement or atomic coordinate data resulting 
# from the CCDC's data processing and validation procedures.
#
#######################################################################

data_WEDMEA
_chemical_formula_moiety         'C25 H26 N2 O2 S1'
_chemical_name_systematic        
N-{2-[1-(3,4-dihydroisoquinolin-2(1H)-yl)prop-2-en-1-yl]phenyl}-4-methylbenzene-1-sulfonamide
_symmetry_cell_setting           orthorhombic
_symmetry_space_group_name_H-M   'P 21 21 21'
_symmetry_Int_Tables_number      19
_space_group_name_Hall           'P 2ac 2ab'
loop_
_symmetry_equiv_pos_site_id
_symmetry_equiv_pos_as_xyz
1 x,y,z
2 1/2+x,1/2-y,-z
3 -x,1/2+y,1/2-z
4 1/2-x,-y,1/2+z
_cell_length_a                   9.0268(3)
_cell_length_b                   12.0540(4)
_cell_length_c                   19.5910(7)
_cell_angle_alpha                90
_cell_angle_beta                 90
_cell_angle_gamma                90
_cell_volume                     2131.68
_exptl_crystal_colour            colorless
_exptl_crystal_description       block
_cell_formula_units_Z            4
_exptl_crystal_recrystallization_method 'ethyl acetate'
loop_
_atom_site_label
_atom_site_type_symbol
_atom_site_fract_x
_atom_site_fract_y
_atom_site_fract_z
C1 C 0.3609(3) 0.03427(18) 0.35706(12)
H1 H 0.3805 0.1022 0.3799
C2 C 0.2734(3) 0.29208(19) 0.16767(12)
H2 H 0.2789 0.3608 0.1952
H3 H 0.3734 0.2584 0.1666
O1 O 0.59260(19) -0.03489(16) 0.17005(9)
N1 N 0.3392(2) -0.06102(15) 0.12711(9)
C3 C 0.0688(3) 0.14594(17) 0.09274(11)
H4 H -0.0374 0.1582 0.1030
H5 H 0.0757 0.0840 0.0597
C4 C 0.3070(3) -0.16612(18) 0.29114(11)
H6 H 0.2898 -0.2349 0.2688
C5 C 0.1653(3) 0.21162(18) 0.20082(11)
H7 H 0.2041 0.1875 0.2457
H8 H 0.0687 0.2486 0.2082
O2 O 0.4841(2) -0.22410(14) 0.16748(9)
C6 C 0.2417(3) -0.14312(19) 0.35303(12)
H9 H 0.1782 -0.1968 0.3731
C7 C 0.4264(3) 0.01334(18) 0.29455(12)
H10 H 0.4896 0.0669 0.2742
C8 C 0.2258(3) 0.32045(19) 0.09606(13)
C9 C 0.0720(2) 0.02131(17) 0.19206(10)
H11 H 0.1357 0.0032 0.2323
C10 C 0.1901(3) -0.0207(2) 0.45387(12)
H12 H 0.2351 0.0442 0.4757
H13 H 0.2007 -0.0854 0.4838
H14 H 0.0847 -0.0064 0.4457
C11 C 0.2664(3) -0.04307(19) 0.38703(11)
C12 C 0.1420(3) 0.3713(2) -0.03751(13)
H15 H 0.1138 0.3881 -0.0831
C13 C -0.0787(3) 0.05109(17) 0.21999(11)
H16 H -0.1574 0.0640 0.1888
C14 C 0.2760(3) 0.4174(2) 0.06401(15)
H17 H 0.3395 0.4666 0.0881
C15 C 0.2345(3) 0.4427(2) -0.00222(15)
H18 H 0.2693 0.5087 -0.0233
C16 C 0.0713(2) -0.08207(16) 0.14652(10)
C17 C 0.1319(3) 0.24966(17) 0.06053(12)
C18 C 0.3990(2) -0.08625(17) 0.26196(10)
C19 C -0.0572(3) -0.23471(19) 0.09191(12)
H19 H -0.1469 -0.2731 0.0826
C20 C -0.1056(3) 0.0599(2) 0.28599(13)
H20 H -0.0285 0.0473 0.3181
H21 H -0.2022 0.0788 0.3014
C21 C 0.2041(2) -0.12226(17) 0.11838(10)
C22 C 0.0905(3) 0.27535(19) -0.00654(12)
H22 H 0.0268 0.2268 -0.0309
N2 N 0.1459(2) 0.11462(15) 0.15578(8)
C23 C -0.0595(3) -0.13998(18) 0.13283(11)
H23 H -0.1505 -0.1147 0.1515
C24 C 0.0739(3) -0.27301(19) 0.06492(12)
H24 H 0.0746 -0.3380 0.0375
S1 S 0.46830(6) -0.10766(4) 0.17875(3)
C25 C 0.2051(3) -0.21655(19) 0.07783(11)
H25 H 0.2955 -0.2425 0.0589
H26 H 0.323(3) 0.010(3) 0.1355(14)
loop_
_geom_bond_atom_site_label_1
_geom_bond_atom_site_label_2
_geom_bond_site_symmetry_1
_geom_bond_site_symmetry_2
C1 H1 1_555 1_555
C2 H2 1_555 1_555
H3 C2 1_555 1_555
O1 S1 1_555 1_555
N1 C21 1_555 1_555
C3 H4 1_555 1_555
H5 C3 1_555 1_555
C4 H6 1_555 1_555
C5 C2 1_555 1_555
H7 C5 1_555 1_555
H8 C5 1_555 1_555
O2 S1 1_555 1_555
C6 C4 1_555 1_555
H9 C6 1_555 1_555
C7 C1 1_555 1_555
H10 C7 1_555 1_555
C8 C2 1_555 1_555
C9 H11 1_555 1_555
C10 H12 1_555 1_555
H13 C10 1_555 1_555
H14 C10 1_555 1_555
C11 C1 1_555 1_555
C12 H15 1_555 1_555
C13 C9 1_555 1_555
H16 C13 1_555 1_555
C14 C8 1_555 1_555
H17 C14 1_555 1_555
C15 C12 1_555 1_555
H18 C15 1_555 1_555
C16 C9 1_555 1_555
C17 C3 1_555 1_555
C18 C4 1_555 1_555
C19 H19 1_555 1_555
C20 C13 1_555 1_555
H20 C20 1_555 1_555
H21 C20 1_555 1_555
C21 C16 1_555 1_555
C22 C12 1_555 1_555
H22 C22 1_555 1_555
N2 C3 1_555 1_555
C23 C16 1_555 1_555
H23 C23 1_555 1_555
C24 C19 1_555 1_555
H24 C24 1_555 1_555
S1 N1 1_555 1_555
C25 C21 1_555 1_555
H25 C25 1_555 1_555
H26 N1 1_555 1_555
C5 N2 1_555 1_555
C6 C11 1_555 1_555
C7 C18 1_555 1_555
C8 C17 1_555 1_555
C9 N2 1_555 1_555
C10 C11 1_555 1_555
C14 C15 1_555 1_555
C17 C22 1_555 1_555
C18 S1 1_555 1_555
C19 C23 1_555 1_555
C24 C25 1_555 1_555

#END
