
#######################################################################
#
#                 Cambridge Crystallographic Data Centre
#                                CCDC 
#
#######################################################################
#
# If this CIF has been generated from an entry in the Cambridge 
# Structural Database, then it will include bibliographic, chemical, 
# crystal, experimental, refinement or atomic coordinate data resulting 
# from the CCDC's data processing and validation procedures.
#
#######################################################################

data_WEDTEH
_chemical_formula_moiety         'C16 H13 Cl1 N2 O1 S1'
_chemical_name_systematic        
4-((3-chlorophenyl)sulfanyl)-5-methyl-2-phenyl-1,2-dihydro-3H-pyrazol-3-one
_symmetry_cell_setting           monoclinic
_symmetry_space_group_name_H-M   'C 2/c'
_symmetry_Int_Tables_number      15
_space_group_name_Hall           '-C 2yn'
loop_
_symmetry_equiv_pos_site_id
_symmetry_equiv_pos_as_xyz
1 x,y,z
2 -x,y,1/2-z
3 1/2+x,1/2+y,z
4 1/2-x,1/2+y,1/2-z
5 -x,-y,-z
6 x,-y,1/2+z
7 1/2-x,1/2-y,-z
8 1/2+x,1/2-y,1/2+z
_cell_length_a                   42.263(6)
_cell_length_b                   5.9743(8)
_cell_length_c                   11.7282(16)
_cell_angle_alpha                90
_cell_angle_beta                 91.856(5)
_cell_angle_gamma                90
_cell_volume                     2959.72
_exptl_crystal_description       needle
_cell_formula_units_Z            8
loop_
_atom_site_label
_atom_site_type_symbol
_atom_site_fract_x
_atom_site_fract_y
_atom_site_fract_z
Cl1 Cl 0.03835(2) 0.43758(18) 0.14920(9)
S1 S 0.114744(17) -0.26632(12) 0.05076(5)
O1 O 0.16751(4) 0.1289(3) 0.05181(13)
N1 N 0.16909(5) 0.1027(4) 0.24954(15)
N2 N 0.15456(5) -0.0334(4) 0.32757(16)
H1 H 0.1578 -0.0289 0.4003
C1 C 0.03133(8) 0.1806(8) -0.0403(3)
H2 H 0.0143 0.2717 -0.0613
C2 C 0.04877(7) 0.2209(6) 0.0592(3)
C3 C 0.07431(6) 0.0898(5) 0.0896(2)
H3 H 0.0860 0.1194 0.1564
C4 C 0.08249(6) -0.0856(5) 0.0207(2)
C5 C 0.13568(6) -0.1288(4) 0.15830(19)
C6 C 0.15806(6) 0.0425(4) 0.14095(19)
C7 C 0.18965(5) 0.2768(4) 0.2848(2)
C8 C 0.20393(7) 0.2741(5) 0.3918(2)
H4 H 0.2002 0.1568 0.4418
C9 C 0.22376(7) 0.4471(6) 0.4239(3)
H5 H 0.2334 0.4459 0.4962
C10 C 0.22951(7) 0.6205(6) 0.3519(3)
H6 H 0.2431 0.7358 0.3746
C11 C 0.06476(8) -0.1293(7) -0.0786(3)
H7 H 0.0700 -0.2489 -0.1251
C12 C 0.03958(9) 0.0052(8) -0.1071(3)
H8 H 0.0278 -0.0239 -0.1738
C13 C 0.19502(6) 0.4509(5) 0.2114(2)
H9 H 0.1852 0.4532 0.1392
C14 C 0.21506(7) 0.6229(5) 0.2457(3)
H10 H 0.2187 0.7410 0.1962
C15 C 0.13493(6) -0.1711(4) 0.2732(2)
C16 C 0.11700(8) -0.3417(5) 0.3351(2)
H11 H 0.1259 -0.4867 0.3219
H12 H 0.0953 -0.3400 0.3084
H13 H 0.1181 -0.3093 0.4153
loop_
_geom_bond_atom_site_label_1
_geom_bond_atom_site_label_2
_geom_bond_site_symmetry_1
_geom_bond_site_symmetry_2
Cl1 C2 1_555 1_555
S1 C4 1_555 1_555
O1 C6 1_555 1_555
N1 N2 1_555 1_555
N2 H1 1_555 1_555
C1 H2 1_555 1_555
C2 C1 1_555 1_555
C3 C2 1_555 1_555
H3 C3 1_555 1_555
C4 C3 1_555 1_555
C5 S1 1_555 1_555
C6 N1 1_555 1_555
C7 N1 1_555 1_555
C8 C7 1_555 1_555
H4 C8 1_555 1_555
C9 C8 1_555 1_555
H5 C9 1_555 1_555
C10 C9 1_555 1_555
H6 C10 1_555 1_555
C11 C4 1_555 1_555
H7 C11 1_555 1_555
C12 C1 1_555 1_555
H8 C12 1_555 1_555
C13 C7 1_555 1_555
H9 C13 1_555 1_555
C14 C10 1_555 1_555
H10 C14 1_555 1_555
C15 N2 1_555 1_555
C16 C15 1_555 1_555
H11 C16 1_555 1_555
H12 C16 1_555 1_555
H13 C16 1_555 1_555
C5 C6 1_555 1_555
C5 C15 1_555 1_555
C11 C12 1_555 1_555
C13 C14 1_555 1_555

#END
