
#######################################################################
#
#                 Cambridge Crystallographic Data Centre
#                                CCDC 
#
#######################################################################
#
# If this CIF has been generated from an entry in the Cambridge 
# Structural Database, then it will include bibliographic, chemical, 
# crystal, experimental, refinement or atomic coordinate data resulting 
# from the CCDC's data processing and validation procedures.
#
#######################################################################

data_WEDWAE
_chemical_formula_moiety         'C22 H18 N2 O1'
_chemical_name_systematic        
2-(4-t-Butylphenyl)-5-(4-butadiynylphenyl)-1,3,4-oxadiazole
_symmetry_cell_setting           monoclinic
_symmetry_space_group_name_H-M   'P 21/n'
_symmetry_Int_Tables_number      14
_space_group_name_Hall           '-P 2yn'
loop_
_symmetry_equiv_pos_site_id
_symmetry_equiv_pos_as_xyz
1 x,y,z
2 1/2-x,1/2+y,1/2-z
3 -x,-y,-z
4 1/2+x,1/2-y,1/2+z
_cell_length_a                   9.536(1)
_cell_length_b                   10.710(2)
_cell_length_c                   17.567(2)
_cell_angle_alpha                90
_cell_angle_beta                 95.48(1)
_cell_angle_gamma                90
_cell_volume                     1785.93
_exptl_crystal_colour            'light yellow'
_exptl_crystal_description       plates
_chemical_melting_point          160deg.C.(dec.)
_cell_formula_units_Z            4
_exptl_crystal_recrystallization_method ethanol
loop_
_atom_site_label
_atom_site_type_symbol
_atom_site_fract_x
_atom_site_fract_y
_atom_site_fract_z
O1 O 0.30721(7) 0.57110(6) 0.51001(4)
N1 N 0.21523(9) 0.43404(8) 0.42500(5)
N2 N 0.30986(9) 0.50983(8) 0.38976(5)
C1 C 0.21671(10) 0.47299(9) 0.49495(6)
C2 C 0.36083(10) 0.58786(9) 0.44131(5)
C3 C 0.75078(11) 0.97430(10) 0.39477(6)
C4 C 0.83062(11) 1.05479(10) 0.37861(6)
C5 C 0.92240(11) 1.14672(10) 0.36023(6)
C6 C 1.00197(12) 1.22732(11) 0.34533(7)
H1 H 1.0674(17) 1.2917(15) 0.3403(9)
C7 C -0.06078(10) 0.24722(9) 0.74048(6)
C8 C -0.12946(13) 0.34242(11) 0.79077(7)
H2 H -0.0623(16) 0.4030(14) 0.8123(9)
H3 H -0.1723(16) 0.2984(14) 0.8322(9)
H4 H -0.2054(15) 0.3875(14) 0.7599(9)
C9 C -0.17229(11) 0.14999(11) 0.71262(6)
H5 H -0.2513(15) 0.1867(13) 0.6771(8)
H6 H -0.2122(14) 0.1145(13) 0.7575(8)
H7 H -0.1304(16) 0.0786(15) 0.6840(9)
C10 C 0.05903(11) 0.17903(11) 0.78874(6)
H8 H 0.1071(16) 0.1184(14) 0.7559(9)
H9 H 0.0227(15) 0.1352(13) 0.8327(9)
H10 H 0.1316(16) 0.2394(14) 0.8103(9)
C11 C 0.14055(10) 0.42292(9) 0.55614(5)
C12 C 0.15713(11) 0.47223(9) 0.62992(6)
H11 H 0.2149(14) 0.5432(13) 0.6402(8)
C13 C 0.08963(11) 0.41697(10) 0.68789(6)
H12 H 0.1062(14) 0.4515(13) 0.7400(8)
C14 C 0.00290(10) 0.31220(9) 0.67429(6)
C15 C -0.01586(11) 0.26663(9) 0.59951(6)
H13 H -0.0765(15) 0.1958(13) 0.5867(8)
C16 C 0.05205(11) 0.32036(10) 0.54109(6)
H14 H 0.0390(15) 0.2868(14) 0.4899(9)
C17 C 0.46337(10) 0.68638(9) 0.43236(6)
C18 C 0.50501(12) 0.76946(10) 0.49143(6)
H15 H 0.4669(15) 0.7621(13) 0.5390(9)
C19 C 0.60060(12) 0.86367(10) 0.47982(6)
H16 H 0.6311(15) 0.9220(14) 0.5193(9)
C20 C 0.65439(11) 0.87623(9) 0.40895(6)
C21 C 0.61340(11) 0.79178(10) 0.35002(6)
H17 H 0.6527(15) 0.7989(13) 0.3020(8)
C22 C 0.51920(11) 0.69733(9) 0.36174(6)
H18 H 0.4909(15) 0.6387(13) 0.3215(9)
loop_
_geom_bond_atom_site_label_1
_geom_bond_atom_site_label_2
_geom_bond_site_symmetry_1
_geom_bond_site_symmetry_2
O1 C1 1_555 1_555
N1 N2 1_555 1_555
N2 C2 1_555 1_555
C1 N1 1_555 1_555
C2 O1 1_555 1_555
C3 C4 1_555 1_555
C4 C5 1_555 1_555
C5 C6 1_555 1_555
C6 H1 1_555 1_555
C7 C8 1_555 1_555
C8 H2 1_555 1_555
H3 C8 1_555 1_555
H4 C8 1_555 1_555
C9 C7 1_555 1_555
H5 C9 1_555 1_555
H6 C9 1_555 1_555
H7 C9 1_555 1_555
C10 C7 1_555 1_555
H8 C10 1_555 1_555
H9 C10 1_555 1_555
H10 C10 1_555 1_555
C11 C1 1_555 1_555
C12 C11 1_555 1_555
H11 C12 1_555 1_555
C13 C12 1_555 1_555
H12 C13 1_555 1_555
C14 C7 1_555 1_555
C15 C14 1_555 1_555
H13 C15 1_555 1_555
C16 C11 1_555 1_555
H14 C16 1_555 1_555
C17 C2 1_555 1_555
C18 C17 1_555 1_555
H15 C18 1_555 1_555
C19 C18 1_555 1_555
H16 C19 1_555 1_555
C20 C3 1_555 1_555
C21 C20 1_555 1_555
H17 C21 1_555 1_555
C22 C17 1_555 1_555
H18 C22 1_555 1_555
C13 C14 1_555 1_555
C15 C16 1_555 1_555
C19 C20 1_555 1_555
C21 C22 1_555 1_555

#END
