
#######################################################################
#
#                 Cambridge Crystallographic Data Centre
#                                CCDC 
#
#######################################################################
#
# If this CIF has been generated from an entry in the Cambridge 
# Structural Database, then it will include bibliographic, chemical, 
# crystal, experimental, refinement or atomic coordinate data resulting 
# from the CCDC's data processing and validation procedures.
#
#######################################################################

data_WEDWEI
_chemical_formula_moiety         'C40 H34 N4 O2'
_chemical_name_systematic        
1,4-bis(4-(2-(4-t-Butylphenyl)-1,3,4-oxadiazol-5-yl)phenyl)butadiyne
_symmetry_cell_setting           monoclinic
_symmetry_space_group_name_H-M   'C 2/c'
_symmetry_Int_Tables_number      15
_space_group_name_Hall           '-C 2yn'
loop_
_symmetry_equiv_pos_site_id
_symmetry_equiv_pos_as_xyz
1 x,y,z
2 1/2+x,1/2+y,z
3 -x,y,1/2-z
4 1/2-x,1/2+y,1/2-z
5 -x,-y,-z
6 1/2-x,1/2-y,-z
7 x,-y,1/2+z
8 1/2+x,1/2-y,1/2+z
_cell_length_a                   31.526(3)
_cell_length_b                   6.1185(4)
_cell_length_c                   16.6372(14)
_cell_angle_alpha                90
_cell_angle_beta                 104.54(1)
_cell_angle_gamma                90
_cell_volume                     3106.4
_exptl_crystal_colour            'pale yellow'
_exptl_crystal_description       plate
_chemical_melting_point          308.1-308.9deg.C
_cell_formula_units_Z            4
_exptl_crystal_recrystallization_method chlorobenzene
loop_
_atom_site_label
_atom_site_type_symbol
_atom_site_fract_x
_atom_site_fract_y
_atom_site_fract_z
O1 O 0.14705(9) 0.7261(5) 0.03517(18)
N1 N 0.15683(14) 0.3991(7) 0.0925(2)
N2 N 0.13718(14) 0.3748(7) 0.0068(2)
C1 C 0.21427(14) 0.9474(8) 0.3308(3)
C2 C 0.21303(14) 1.0434(7) 0.2551(3)
H1 H 0.2242 1.1871 0.2534
C3 C 0.19546(14) 0.9315(8) 0.1808(3)
H2 H 0.1943 0.9995 0.1289
C4 C 0.17993(14) 0.7221(7) 0.1835(3)
C5 C 0.18070(14) 0.6218(8) 0.2599(3)
H3 H 0.1695 0.4780 0.2612
C6 C 0.19775(14) 0.7332(8) 0.3329(3)
H4 H 0.1984 0.6660 0.3847
C7 C 0.23016(15) 1.0705(8) 0.4062(3)
C8 C 0.24276(14) 1.1846(8) 0.4656(3)
C9 C 0.16149(14) 0.6053(7) 0.1056(3)
C10 C 0.13191(14) 0.5707(7) -0.0232(3)
C11 C 0.11133(13) 0.6404(7) -0.1079(3)
C12 C 0.11689(14) 0.8494(7) -0.1357(3)
H5 H 0.1340 0.9523 -0.0985
C13 C 0.09789(15) 0.9102(7) -0.2166(3)
H6 H 0.1031 1.0527 -0.2348
C14 C 0.07107(14) 0.7657(7) -0.2725(3)
C15 C 0.06509(15) 0.5574(8) -0.2434(3)
H7 H 0.0471 0.4561 -0.2800
C16 C 0.08449(15) 0.4935(7) -0.1629(3)
H8 H 0.0797 0.3505 -0.1448
C17 C 0.04762(15) 0.8417(8) -0.3604(3)
C18 C 0.0349(2) 0.6477(9) -0.4200(3)
H9 H 0.0607 0.5566 -0.4176
H10 H 0.0234 0.7021 -0.4767
H11 H 0.0123 0.5605 -0.4037
C19 C 0.07641(16) 0.9963(8) -0.3959(3)
H12 H 0.0809 1.1323 -0.3638
H13 H 0.0620 1.0288 -0.4540
H14 H 0.1048 0.9270 -0.3927
C20 C 0.00542(16) 0.9641(9) -0.3559(3)
H15 H -0.0146 0.8628 -0.3382
H16 H -0.0089 1.0229 -0.4108
H17 H 0.0129 1.0843 -0.3159
O1E O 0.35295(9) 1.7739(5) 0.96483(18)
N1E N 0.34317(14) 2.1009(7) 0.9075(2)
N2E N 0.36282(14) 2.1252(7) 0.9932(2)
C1E C 0.28573(14) 1.5526(8) 0.6692(3)
C2E C 0.28697(14) 1.4566(7) 0.7449(3)
H1E H 0.2758 1.3129 0.7466
C3E C 0.30454(14) 1.5685(8) 0.8192(3)
H2E H 0.3057 1.5005 0.8711
C4E C 0.32007(14) 1.7779(7) 0.8165(3)
C5E C 0.31930(14) 1.8782(8) 0.7401(3)
H3E H 0.3305 2.0220 0.7388
C6E C 0.30225(14) 1.7668(8) 0.6671(3)
H4E H 0.3016 1.8340 0.6153
C7E C 0.26984(15) 1.4295(8) 0.5938(3)
C8E C 0.25724(14) 1.3154(8) 0.5344(3)
C9E C 0.33851(14) 1.8947(7) 0.8944(3)
C10E C 0.36809(14) 1.9293(7) 1.0232(3)
C11E C 0.38867(13) 1.8596(7) 1.1079(3)
C12E C 0.38311(14) 1.6506(7) 1.1357(3)
H5E H 0.3660 1.5477 1.0985
C13E C 0.40211(15) 1.5898(7) 1.2166(3)
H6E H 0.3969 1.4473 1.2348
C14E C 0.42893(14) 1.7343(7) 1.2725(3)
C15E C 0.43491(15) 1.9426(8) 1.2434(3)
H7E H 0.4529 2.0439 1.2800
C16E C 0.41551(15) 2.0065(7) 1.1629(3)
H8E H 0.4203 2.1495 1.1448
C17E C 0.45238(15) 1.6583(8) 1.3604(3)
C18E C 0.4651(2) 1.8523(9) 1.4200(3)
H9E H 0.4393 1.9434 1.4176
H10E H 0.4766 1.7979 1.4767
H11E H 0.4877 1.9395 1.4037
C19E C 0.42359(16) 1.5037(8) 1.3959(3)
H12E H 0.4191 1.3677 1.3638
H13E H 0.4380 1.4712 1.4540
H14E H 0.3952 1.5730 1.3927
C20E C 0.49458(16) 1.5359(9) 1.3559(3)
H15E H 0.5146 1.6372 1.3382
H16E H 0.5089 1.4771 1.4108
H17E H 0.4871 1.4157 1.3159
loop_
_geom_bond_atom_site_label_1
_geom_bond_atom_site_label_2
_geom_bond_site_symmetry_1
_geom_bond_site_symmetry_2
O1 C9 1_555 1_555
N1 N2 1_555 1_555
N2 C10 1_555 1_555
C1 C2 1_555 1_555
C2 H1 1_555 1_555
C3 C2 1_555 1_555
H2 C3 1_555 1_555
C4 C3 1_555 1_555
C5 C4 1_555 1_555
H3 C5 1_555 1_555
C6 C1 1_555 1_555
H4 C6 1_555 1_555
C7 C1 1_555 1_555
C8 C7 1_555 1_555
C9 N1 1_555 1_555
C10 O1 1_555 1_555
C11 C10 1_555 1_555
C12 C11 1_555 1_555
H5 C12 1_555 1_555
C13 C12 1_555 1_555
H6 C13 1_555 1_555
C14 C13 1_555 1_555
C15 C14 1_555 1_555
H7 C15 1_555 1_555
C16 C11 1_555 1_555
H8 C16 1_555 1_555
C17 C14 1_555 1_555
C18 C17 1_555 1_555
H9 C18 1_555 1_555
H10 C18 1_555 1_555
H11 C18 1_555 1_555
C19 C17 1_555 1_555
H12 C19 1_555 1_555
H13 C19 1_555 1_555
H14 C19 1_555 1_555
C20 C17 1_555 1_555
H15 C20 1_555 1_555
H16 C20 1_555 1_555
H17 C20 1_555 1_555
O1E C9E 1_555 1_555
N1E N2E 1_555 1_555
N2E C10E 1_555 1_555
C1E C2E 1_555 1_555
C2E H1E 1_555 1_555
C3E C2E 1_555 1_555
H2E C3E 1_555 1_555
C4E C3E 1_555 1_555
C5E C4E 1_555 1_555
H3E C5E 1_555 1_555
C6E C1E 1_555 1_555
H4E C6E 1_555 1_555
C7E C1E 1_555 1_555
C8E C8 1_555 1_555
C9E N1E 1_555 1_555
C10E O1E 1_555 1_555
C11E C10E 1_555 1_555
C12E C11E 1_555 1_555
H5E C12E 1_555 1_555
C13E C12E 1_555 1_555
H6E C13E 1_555 1_555
C14E C13E 1_555 1_555
C15E C14E 1_555 1_555
H7E C15E 1_555 1_555
C16E C11E 1_555 1_555
H8E C16E 1_555 1_555
C17E C14E 1_555 1_555
C18E C17E 1_555 1_555
H9E C18E 1_555 1_555
H10E C18E 1_555 1_555
H11E C18E 1_555 1_555
C19E C17E 1_555 1_555
H12E C19E 1_555 1_555
H13E C19E 1_555 1_555
H14E C19E 1_555 1_555
C20E C17E 1_555 1_555
H15E C20E 1_555 1_555
H16E C20E 1_555 1_555
H17E C20E 1_555 1_555
C4 C9 1_555 1_555
C5 C6 1_555 1_555
C15 C16 1_555 1_555
C4E C9E 1_555 1_555
C5E C6E 1_555 1_555
C7E C8E 1_555 1_555
C15E C16E 1_555 1_555

#END
