
#######################################################################
#
#                 Cambridge Crystallographic Data Centre
#                                CCDC 
#
#######################################################################
#
# If this CIF has been generated from an entry in the Cambridge 
# Structural Database, then it will include bibliographic, chemical, 
# crystal, experimental, refinement or atomic coordinate data resulting 
# from the CCDC's data processing and validation procedures.
#
#######################################################################

data_WEDWIO
_chemical_formula_moiety         'C21 H13 N1 O1 S1'
_chemical_name_systematic        
2-(1,3-benzothiazol-2-yl)-4-(phenylethynyl)phenol
_symmetry_cell_setting           orthorhombic
_symmetry_space_group_name_H-M   'P 21 21 21'
_symmetry_Int_Tables_number      19
_space_group_name_Hall           'P 2ac 2ab'
loop_
_symmetry_equiv_pos_site_id
_symmetry_equiv_pos_as_xyz
1 x,y,z
2 1/2-x,-y,1/2+z
3 -x,1/2+y,1/2-z
4 1/2+x,1/2-y,-z
_cell_length_a                   4.5363(4)
_cell_length_b                   10.1250(8)
_cell_length_c                   34.375(3)
_cell_angle_alpha                90
_cell_angle_beta                 90
_cell_angle_gamma                90
_cell_volume                     1578.85
_cell_formula_units_Z            4
loop_
_atom_site_label
_atom_site_type_symbol
_atom_site_fract_x
_atom_site_fract_y
_atom_site_fract_z
N1 N 0.6274(5) 0.4016(2) 0.05772(5)
O1 O 0.2692(5) 0.54461(17) 0.01592(4)
H1 H 0.3864 0.4851 0.0207
S1 S 0.67885(18) 0.41454(7) 0.132004(17)
C1 C 0.5353(6) 0.4679(2) 0.08764(7)
C2 C 0.8209(7) 0.3037(3) 0.06813(7)
C3 C 0.8773(7) 0.2945(3) 0.10778(7)
C4 C 1.0651(7) 0.2000(3) 0.12248(8)
H2 H 1.0997 0.1939 0.1491
C5 C 1.1995(7) 0.1152(3) 0.09707(8)
H3 H 1.3267 0.0507 0.1065
C6 C 1.1485(7) 0.1239(3) 0.05737(8)
H4 H 1.2428 0.0658 0.0405
C7 C 0.9609(7) 0.2173(3) 0.04273(8)
H5 H 0.9275 0.2229 0.0161
C8 C 0.3295(6) 0.5765(2) 0.08481(6)
C9 C 0.2048(7) 0.6096(2) 0.04879(7)
C10 C 0.0070(7) 0.7127(3) 0.04616(8)
H6 H -0.0756 0.7344 0.0222
C11 C -0.0678(7) 0.7829(3) 0.07860(8)
H7 H -0.2013 0.8523 0.0764
C12 C 0.0506(7) 0.7532(3) 0.11468(8)
C13 C 0.2513(7) 0.6510(3) 0.11703(7)
H8 H 0.3366 0.6315 0.1410
C14 C -0.0312(7) 0.8269(3) 0.14833(8)
C15 C -0.1052(7) 0.8903(3) 0.17573(8)
C16 C -0.1957(8) 0.9732(3) 0.20701(7)
C17 C -0.0874(8) 0.9577(3) 0.24402(8)
H9 H 0.0471 0.8908 0.2493
C18 C -0.1775(9) 1.0411(3) 0.27320(8)
H10 H -0.1049 1.0289 0.2982
C19 C -0.3675(8) 1.1394(3) 0.26638(9)
H11 H -0.4275 1.1948 0.2865
C20 C -0.4712(8) 1.1573(3) 0.22994(10)
H12 H -0.5993 1.2268 0.2248
C21 C -0.3887(8) 1.0735(3) 0.20040(8)
H13 H -0.4659 1.0856 0.1756
loop_
_geom_bond_atom_site_label_1
_geom_bond_atom_site_label_2
_geom_bond_site_symmetry_1
_geom_bond_site_symmetry_2
N1 C1 1_555 1_555
O1 H1 1_555 1_555
S1 C1 1_555 1_555
C1 C8 1_555 1_555
C2 N1 1_555 1_555
C3 S1 1_555 1_555
C4 C3 1_555 1_555
H2 C4 1_555 1_555
C5 C4 1_555 1_555
H3 C5 1_555 1_555
C6 C5 1_555 1_555
H4 C6 1_555 1_555
C7 C2 1_555 1_555
H5 C7 1_555 1_555
C8 C9 1_555 1_555
C9 O1 1_555 1_555
C10 C9 1_555 1_555
H6 C10 1_555 1_555
C11 C10 1_555 1_555
H7 C11 1_555 1_555
C12 C11 1_555 1_555
C13 C8 1_555 1_555
H8 C13 1_555 1_555
C14 C12 1_555 1_555
C15 C14 1_555 1_555
C16 C15 1_555 1_555
C17 C16 1_555 1_555
H9 C17 1_555 1_555
C18 C17 1_555 1_555
H10 C18 1_555 1_555
C19 C18 1_555 1_555
H11 C19 1_555 1_555
C20 C19 1_555 1_555
H12 C20 1_555 1_555
C21 C16 1_555 1_555
H13 C21 1_555 1_555
C2 C3 1_555 1_555
C6 C7 1_555 1_555
C12 C13 1_555 1_555
C20 C21 1_555 1_555

#END
