
#######################################################################
#
#                 Cambridge Crystallographic Data Centre
#                                CCDC 
#
#######################################################################
#
# If this CIF has been generated from an entry in the Cambridge 
# Structural Database, then it will include bibliographic, chemical, 
# crystal, experimental, refinement or atomic coordinate data resulting 
# from the CCDC's data processing and validation procedures.
#
#######################################################################

data_WEDWUY
_chemical_formula_moiety         'C40 H31 N3 O1'
_chemical_name_systematic        
2-(4-t-Butylphenyl)-5-(4-(4-(4-(N,N-diphenylamino)phenyl)butadiynyl)phenyl)-1,3,4-oxadiazole
_symmetry_cell_setting           triclinic
_symmetry_space_group_name_H-M   'P -1'
_symmetry_Int_Tables_number      2
_space_group_name_Hall           '-P 1'
loop_
_symmetry_equiv_pos_site_id
_symmetry_equiv_pos_as_xyz
1 x,y,z
2 -x,-y,-z
_cell_length_a                   9.827(1)
_cell_length_b                   12.841(3)
_cell_length_c                   14.572(3)
_cell_angle_alpha                105.15(1)
_cell_angle_beta                 107.81(1)
_cell_angle_gamma                105.96(1)
_cell_volume                     1558.75
_exptl_crystal_colour            orange
_exptl_crystal_description       needles
_chemical_melting_point          '430.9 K'
_cell_formula_units_Z            2
_exptl_crystal_recrystallization_method n-hexane
loop_
_atom_site_label
_atom_site_type_symbol
_atom_site_fract_x
_atom_site_fract_y
_atom_site_fract_z
O1 O 0.98394(11) 0.35262(8) 0.58508(7)
C1 C 0.94144(16) 0.44406(12) 0.61620(11)
C2 C 1.08442(15) 0.35943(12) 0.67739(10)
C3 C 0.50435(17) 0.53474(13) 0.32216(11)
C4 C 0.41288(17) 0.56101(12) 0.26644(11)
C5 C 0.31156(17) 0.59330(12) 0.20302(11)
C6 C 0.22336(16) 0.62413(12) 0.14948(11)
C7 C 1.41733(18) 0.05038(13) 0.67566(12)
C8 C 1.5140(2) 0.06054(16) 0.78469(14)
H1 H 1.5857 0.1418 0.8263
H2 H 1.5726 0.0105 0.7794
H3 H 1.4452 0.0358 0.8180
C9 C 1.52922(19) 0.09331(15) 0.62710(13)
H4 H 1.5952 0.1760 0.6682
H5 H 1.4697 0.0837 0.5559
H6 H 1.5939 0.0475 0.6262
C10 C 1.3117(2) -0.07868(15) 0.60944(17)
H7 H 1.3746 -0.1259 0.6085
H8 H 1.2544 -0.0867 0.5383
H9 H 1.2387 -0.1055 0.6393
C11 C 0.83119(16) 0.46645(12) 0.53862(11)
C12 C 0.77421(16) 0.40044(12) 0.43222(11)
H10 H 0.8087 0.3405 0.4092
C13 C 0.66754(16) 0.42238(12) 0.36019(11)
H11 H 0.6300 0.3779 0.2881
C14 C 0.61535(16) 0.51041(12) 0.39397(11)
C15 C 0.67439(18) 0.57680(13) 0.50056(12)
H12 H 0.6405 0.6371 0.5238
C16 C 0.78130(18) 0.55554(13) 0.57233(11)
H13 H 0.8209 0.6014 0.6443
C17 C 1.15836(15) 0.27515(12) 0.67630(10)
C18 C 1.25518(16) 0.27762(13) 0.77032(11)
H14 H 1.2666 0.3301 0.8342
C19 C 1.33476(16) 0.20371(13) 0.77074(11)
H15 H 1.4002 0.2063 0.8352
C20 C 1.32066(16) 0.12571(12) 0.67843(11)
C21 C 1.21890(18) 0.12171(13) 0.58476(11)
H16 H 1.2045 0.0674 0.5209
C22 C 1.13924(17) 0.19523(13) 0.58325(11)
H17 H 1.0715 0.1912 0.5189
C23 C 0.12139(15) 0.66441(12) 0.08851(11)
C24 C 0.06341(17) 0.74114(13) 0.13575(11)
H18 H 0.0900 0.7650 0.2084
C25 C -0.03213(17) 0.78232(13) 0.07741(11)
H19 H -0.0704 0.8346 0.1101
C26 C -0.07260(15) 0.74729(12) -0.02955(11)
C27 C -0.01654(16) 0.67061(12) -0.07742(11)
H20 H -0.0440 0.6467 -0.1501
C28 C 0.07927(16) 0.62920(12) -0.01890(11)
H21 H 0.1167 0.5766 -0.0520
C29 C -0.12887(16) 0.83764(12) -0.15788(11)
C30 C -0.23965(17) 0.82699(13) -0.25125(11)
H22 H -0.3463 0.7846 -0.2706
C31 C -0.19359(19) 0.87810(14) -0.31529(12)
H23 H -0.2697 0.8721 -0.3772
C32 C -0.0386(2) 0.93792(14) -0.29016(12)
H24 H -0.0079 0.9725 -0.3345
C33 C 0.07128(19) 0.94631(14) -0.19917(13)
H25 H 0.1780 0.9857 -0.1819
C34 C 0.02719(17) 0.89782(13) -0.13315(12)
H26 H 0.1038 0.9057 -0.0706
C35 C -0.31562(15) 0.77716(12) -0.08150(10)
C36 C -0.37627(17) 0.86271(13) -0.08675(11)
H27 H -0.3203 0.9311 -0.0937
C37 C -0.51862(19) 0.84757(15) -0.08175(13)
H28 H -0.5600 0.9055 -0.0863
C38 C -0.60059(19) 0.75002(17) -0.06999(13)
H29 H -0.6982 0.7404 -0.0672
C39 C -0.53959(18) 0.66567(15) -0.06260(12)
H30 H -0.5949 0.5988 -0.0533
C40 C -0.39832(16) 0.67854(13) -0.06864(11)
H31 H -0.3577 0.6202 -0.0640
N1 N 1.00792(15) 0.50094(11) 0.71599(9)
N2 N 1.10177(15) 0.44490(11) 0.75658(9)
N3 N -0.17249(13) 0.78908(11) -0.08977(9)
loop_
_geom_bond_atom_site_label_1
_geom_bond_atom_site_label_2
_geom_bond_site_symmetry_1
_geom_bond_site_symmetry_2
O1 C1 1_555 1_555
C1 C11 1_555 1_555
C2 O1 1_555 1_555
C3 C4 1_555 1_555
C4 C5 1_555 1_555
C5 C6 1_555 1_555
C6 C23 1_555 1_555
C7 C8 1_555 1_555
C8 H1 1_555 1_555
H2 C8 1_555 1_555
H3 C8 1_555 1_555
C9 C7 1_555 1_555
H4 C9 1_555 1_555
H5 C9 1_555 1_555
H6 C9 1_555 1_555
C10 C7 1_555 1_555
H7 C10 1_555 1_555
H8 C10 1_555 1_555
H9 C10 1_555 1_555
C11 C12 1_555 1_555
C12 H10 1_555 1_555
C13 C12 1_555 1_555
H11 C13 1_555 1_555
C14 C3 1_555 1_555
C15 C14 1_555 1_555
H12 C15 1_555 1_555
C16 C11 1_555 1_555
H13 C16 1_555 1_555
C17 C2 1_555 1_555
C18 C17 1_555 1_555
H14 C18 1_555 1_555
C19 C18 1_555 1_555
H15 C19 1_555 1_555
C20 C7 1_555 1_555
C21 C20 1_555 1_555
H16 C21 1_555 1_555
C22 C17 1_555 1_555
H17 C22 1_555 1_555
C23 C24 1_555 1_555
C24 H18 1_555 1_555
C25 C24 1_555 1_555
H19 C25 1_555 1_555
C26 C25 1_555 1_555
C27 C26 1_555 1_555
H20 C27 1_555 1_555
C28 C23 1_555 1_555
H21 C28 1_555 1_555
C29 C30 1_555 1_555
C30 H22 1_555 1_555
C31 C30 1_555 1_555
H23 C31 1_555 1_555
C32 C31 1_555 1_555
H24 C32 1_555 1_555
C33 C32 1_555 1_555
H25 C33 1_555 1_555
C34 C29 1_555 1_555
H26 C34 1_555 1_555
C35 C36 1_555 1_555
C36 H27 1_555 1_555
C37 C36 1_555 1_555
H28 C37 1_555 1_555
C38 C37 1_555 1_555
H29 C38 1_555 1_555
C39 C38 1_555 1_555
H30 C39 1_555 1_555
C40 C35 1_555 1_555
H31 C40 1_555 1_555
N1 C1 1_555 1_555
N2 C2 1_555 1_555
N3 C26 1_555 1_555
C13 C14 1_555 1_555
C15 C16 1_555 1_555
C19 C20 1_555 1_555
C21 C22 1_555 1_555
C27 C28 1_555 1_555
C29 N3 1_555 1_555
C33 C34 1_555 1_555
C35 N3 1_555 1_555
C39 C40 1_555 1_555
N1 N2 1_555 1_555

#END
