
#######################################################################
#
#                 Cambridge Crystallographic Data Centre
#                                CCDC 
#
#######################################################################
#
# If this CIF has been generated from an entry in the Cambridge 
# Structural Database, then it will include bibliographic, chemical, 
# crystal, experimental, refinement or atomic coordinate data resulting 
# from the CCDC's data processing and validation procedures.
#
#######################################################################

data_WEDWOS
_chemical_formula_moiety         'C29 H26 N2 O1 S4'
_chemical_name_systematic        
2-(4-t-Butylphenyl)-5-(4-((4',5,5'-trimethyl-2,2'-bi-1,3-dithiol-4-yl)ethynyl)phenyl)-1,3,4-oxadiazole
_symmetry_cell_setting           monoclinic
_symmetry_space_group_name_H-M   'P 21/c'
_symmetry_Int_Tables_number      14
_space_group_name_Hall           '-P 2ybc'
loop_
_symmetry_equiv_pos_site_id
_symmetry_equiv_pos_as_xyz
1 x,y,z
2 -x,1/2+y,1/2-z
3 -x,-y,-z
4 x,1/2-y,1/2+z
_cell_length_a                   24.260(7)
_cell_length_b                   6.624(2)
_cell_length_c                   16.348(5)
_cell_angle_alpha                90
_cell_angle_beta                 92.55(1)
_cell_angle_gamma                90
_cell_volume                     2624.49
_exptl_crystal_colour            red
_exptl_crystal_description       plate
_chemical_melting_point          '458 K'
_cell_formula_units_Z            4
loop_
_atom_site_label
_atom_site_type_symbol
_atom_site_fract_x
_atom_site_fract_y
_atom_site_fract_z
S1 S 0.37106(3) 0.66383(12) 0.78969(5)
S2 S 0.36037(3) 0.23271(12) 0.83582(5)
S3 S 0.42201(3) 0.76439(13) 0.97068(5)
S4 S 0.41383(3) 0.33643(12) 1.01733(5)
O1 O 0.18407(9) 0.6743(3) 0.21447(14)
N1 N 0.19337(11) 1.0031(4) 0.23141(17)
N2 N 0.16855(11) 0.9673(4) 0.15341(17)
C1 C 0.20195(12) 0.8285(5) 0.2642(2)
C2 C 0.16395(12) 0.7737(5) 0.1458(2)
C3 C 0.29668(12) 0.6389(5) 0.5792(2)
C4 C 0.31550(13) 0.5802(5) 0.6441(2)
C5 C 0.05774(14) 0.3300(5) -0.1237(2)
C6 C 0.00974(15) 0.2091(7) -0.0905(3)
H1 H 0.0246 0.1087 -0.0514
H2 H -0.0103 0.1402 -0.1357
H3 H -0.0155 0.2995 -0.0628
C7 C 0.03412(17) 0.4708(6) -0.1909(3)
H4 H 0.0081 0.5649 -0.1670
H5 H 0.0150 0.3918 -0.2341
H6 H 0.0643 0.5470 -0.2142
C8 C 0.09900(15) 0.1863(6) -0.1625(2)
H7 H 0.1276 0.2654 -0.1883
H8 H 0.0796 0.1024 -0.2039
H9 H 0.1161 0.0996 -0.1199
C9 C 0.13973(12) 0.6584(5) 0.0781(2)
C10 C 0.12883(14) 0.4527(5) 0.0850(2)
H10 H 0.1397 0.3823 0.1338
C11 C 0.10327(15) 0.3502(5) 0.0200(2)
H11 H 0.0962 0.2097 0.0248
C12 C 0.08757(12) 0.4467(5) -0.0537(2)
C13 C 0.10056(12) 0.6506(5) -0.0599(2)
H12 H 0.0916 0.7198 -0.1096
C14 C 0.12586(12) 0.7554(5) 0.0049(2)
H13 H 0.1343 0.8944 -0.0015
C15 C 0.22615(12) 0.7803(5) 0.34460(19)
C16 C 0.23103(13) 0.5787(5) 0.3707(2)
H14 H 0.2189 0.4721 0.3355
C17 C 0.25371(13) 0.5361(5) 0.4474(2)
H15 H 0.2560 0.4002 0.4659
C18 C 0.27302(12) 0.6902(5) 0.5001(2)
C19 C 0.26821(13) 0.8907(5) 0.4731(2)
H16 H 0.2815 0.9974 0.5074
C20 C 0.24510(13) 0.9341(5) 0.3963(2)
H17 H 0.2417 1.0703 0.3786
C21 C 0.38205(13) 0.4778(5) 0.8652(2)
C22 C 0.33647(12) 0.4993(5) 0.7190(2)
C23 C 0.33158(13) 0.3040(5) 0.7404(2)
C24 C 0.40324(13) 0.5182(5) 0.9404(2)
C25 C 0.44815(13) 0.6967(5) 1.0691(2)
C26 C 0.44468(13) 0.5036(5) 1.0907(2)
C27 C 0.30355(14) 0.1449(5) 0.6892(2)
H18 H 0.2737 0.2050 0.6548
H19 H 0.2881 0.0424 0.7250
H20 H 0.3303 0.0812 0.6540
C28 C 0.47264(15) 0.8657(5) 1.1196(2)
H21 H 0.4436 0.9615 1.1329
H22 H 0.5005 0.9347 1.0882
H23 H 0.4899 0.8121 1.1704
C29 C 0.46430(15) 0.4122(5) 1.1703(2)
H24 H 0.4983 0.3362 1.1621
H25 H 0.4360 0.3210 1.1902
H26 H 0.4717 0.5193 1.2107
loop_
_geom_bond_atom_site_label_1
_geom_bond_atom_site_label_2
_geom_bond_site_symmetry_1
_geom_bond_site_symmetry_2
S1 C21 1_555 1_555
S2 C21 1_555 1_555
S3 C24 1_555 1_555
S4 C24 1_555 1_555
O1 C1 1_555 1_555
N1 N2 1_555 1_555
N2 C2 1_555 1_555
C1 N1 1_555 1_555
C2 O1 1_555 1_555
C3 C4 1_555 1_555
C4 C22 1_555 1_555
C5 C6 1_555 1_555
C6 H1 1_555 1_555
H2 C6 1_555 1_555
H3 C6 1_555 1_555
C7 C5 1_555 1_555
H4 C7 1_555 1_555
H5 C7 1_555 1_555
H6 C7 1_555 1_555
C8 C5 1_555 1_555
H7 C8 1_555 1_555
H8 C8 1_555 1_555
H9 C8 1_555 1_555
C9 C2 1_555 1_555
C10 C9 1_555 1_555
H10 C10 1_555 1_555
C11 C10 1_555 1_555
H11 C11 1_555 1_555
C12 C5 1_555 1_555
C13 C12 1_555 1_555
H12 C13 1_555 1_555
C14 C9 1_555 1_555
H13 C14 1_555 1_555
C15 C1 1_555 1_555
C16 C15 1_555 1_555
H14 C16 1_555 1_555
C17 C16 1_555 1_555
H15 C17 1_555 1_555
C18 C3 1_555 1_555
C19 C18 1_555 1_555
H16 C19 1_555 1_555
C20 C15 1_555 1_555
H17 C20 1_555 1_555
C21 C24 1_555 1_555
C22 S1 1_555 1_555
C23 S2 1_555 1_555
C25 S3 1_555 1_555
C26 S4 1_555 1_555
C27 C23 1_555 1_555
H18 C27 1_555 1_555
H19 C27 1_555 1_555
H20 C27 1_555 1_555
C28 C25 1_555 1_555
H21 C28 1_555 1_555
H22 C28 1_555 1_555
H23 C28 1_555 1_555
C29 C26 1_555 1_555
H24 C29 1_555 1_555
H25 C29 1_555 1_555
H26 C29 1_555 1_555
C11 C12 1_555 1_555
C13 C14 1_555 1_555
C17 C18 1_555 1_555
C19 C20 1_555 1_555
C22 C23 1_555 1_555
C25 C26 1_555 1_555

#END
