
#######################################################################
#
#                 Cambridge Crystallographic Data Centre
#                                CCDC 
#
#######################################################################
#
# If this CIF has been generated from an entry in the Cambridge 
# Structural Database, then it will include bibliographic, chemical, 
# crystal, experimental, refinement or atomic coordinate data resulting 
# from the CCDC's data processing and validation procedures.
#
#######################################################################

data_WEDWOU
_chemical_formula_moiety         'C22 H15 N1 O1 S1'
_chemical_name_systematic        
2-(1,3-benzothiazol-2-yl)-4-[(4-methylphenyl)ethynyl]phenol
_symmetry_cell_setting           monoclinic
_symmetry_space_group_name_H-M   'P 21/c'
_symmetry_Int_Tables_number      14
_space_group_name_Hall           '-P 2ybc'
loop_
_symmetry_equiv_pos_site_id
_symmetry_equiv_pos_as_xyz
1 x,y,z
2 -x,1/2+y,1/2-z
3 -x,-y,-z
4 x,1/2-y,1/2+z
_cell_length_a                   8.0270(8)
_cell_length_b                   5.9177(5)
_cell_length_c                   35.133(3)
_cell_angle_alpha                90
_cell_angle_beta                 90.1860(10)
_cell_angle_gamma                90
_cell_volume                     1668.86
_cell_formula_units_Z            4
loop_
_atom_site_label
_atom_site_type_symbol
_atom_site_fract_x
_atom_site_fract_y
_atom_site_fract_z
N1 N 0.2072(3) 0.5975(4) 0.49009(7)
O1 O 0.0537(3) 0.8605(3) 0.53900(6)
H1 H 0.0857 0.8176 0.5181
S1 S 0.34277(10) 0.21340(14) 0.50594(2)
C1 C 0.2310(3) 0.4554(5) 0.51792(8)
C2 C 0.2807(4) 0.5211(5) 0.45652(9)
C3 C 0.3601(4) 0.3131(5) 0.45962(9)
C4 C 0.4392(4) 0.2115(6) 0.42890(9)
H2 H 0.4905 0.0713 0.4313
C5 C 0.4386(5) 0.3269(8) 0.39485(10)
H3 H 0.4917 0.2642 0.3739
C6 C 0.3605(5) 0.5342(8) 0.39131(10)
H4 H 0.3620 0.6083 0.3680
C7 C 0.2802(4) 0.6334(6) 0.42181(10)
H5 H 0.2270 0.7722 0.4191
C8 C 0.1736(3) 0.4989(5) 0.55675(8)
C9 C 0.0903(3) 0.7025(5) 0.56539(9)
C10 C 0.0446(4) 0.7488(5) 0.60253(9)
H6 H -0.0087 0.8842 0.6082
C11 C 0.0772(4) 0.5974(5) 0.63108(9)
H7 H 0.0460 0.6316 0.6559
C12 C 0.1571(4) 0.3911(5) 0.62342(8)
C13 C 0.2028(4) 0.3463(5) 0.58613(8)
H8 H 0.2548 0.2098 0.5806
C14 C 0.1906(4) 0.2357(5) 0.65386(9)
C15 C 0.2139(4) 0.1112(6) 0.67999(9)
C16 C 0.2343(4) -0.0352(5) 0.71230(8)
C17 C 0.3154(4) -0.2421(6) 0.70956(9)
H9 H 0.3590 -0.2874 0.6863
C18 C 0.3323(4) -0.3813(6) 0.74084(9)
H10 H 0.3873 -0.5188 0.7384
C19 C 0.2683(4) -0.3191(5) 0.77592(9)
C20 C 0.1893(4) -0.1126(6) 0.77861(9)
H11 H 0.1468 -0.0674 0.8020
C21 C 0.1718(4) 0.0281(6) 0.74776(9)
H12 H 0.1179 0.1663 0.7505
C22 C 0.2831(5) -0.4722(6) 0.80978(10)
H13 H 0.3773 -0.4276 0.8249
H14 H 0.2978 -0.6252 0.8013
H15 H 0.1837 -0.4620 0.8248
loop_
_geom_bond_atom_site_label_1
_geom_bond_atom_site_label_2
_geom_bond_site_symmetry_1
_geom_bond_site_symmetry_2
N1 C1 1_555 1_555
O1 H1 1_555 1_555
S1 C1 1_555 1_555
C1 C8 1_555 1_555
C2 N1 1_555 1_555
C3 S1 1_555 1_555
C4 C3 1_555 1_555
H2 C4 1_555 1_555
C5 C4 1_555 1_555
H3 C5 1_555 1_555
C6 C5 1_555 1_555
H4 C6 1_555 1_555
C7 C2 1_555 1_555
H5 C7 1_555 1_555
C8 C9 1_555 1_555
C9 O1 1_555 1_555
C10 C9 1_555 1_555
H6 C10 1_555 1_555
C11 C10 1_555 1_555
H7 C11 1_555 1_555
C12 C11 1_555 1_555
C13 C8 1_555 1_555
H8 C13 1_555 1_555
C14 C12 1_555 1_555
C15 C14 1_555 1_555
C16 C15 1_555 1_555
C17 C16 1_555 1_555
H9 C17 1_555 1_555
C18 C17 1_555 1_555
H10 C18 1_555 1_555
C19 C18 1_555 1_555
C20 C19 1_555 1_555
H11 C20 1_555 1_555
C21 C16 1_555 1_555
H12 C21 1_555 1_555
C22 C19 1_555 1_555
H13 C22 1_555 1_555
H14 C22 1_555 1_555
H15 C22 1_555 1_555
C2 C3 1_555 1_555
C6 C7 1_555 1_555
C12 C13 1_555 1_555
C20 C21 1_555 1_555

#END
