
#######################################################################
#
#                 Cambridge Crystallographic Data Centre
#                                CCDC 
#
#######################################################################
#
# If this CIF has been generated from an entry in the Cambridge 
# Structural Database, then it will include bibliographic, chemical, 
# crystal, experimental, refinement or atomic coordinate data resulting 
# from the CCDC's data processing and validation procedures.
#
#######################################################################

data_WEFFAR
_chemical_formula_moiety         'C24 H20 O5 S1'
_chemical_name_systematic        
2-(8-(4-methoxyphenyl)-7,8-dihydro-6H-[1,3]dioxolo[4,5-g]chromen-6-ylidene)-1-(2-thienyl)propan-1-one
_symmetry_cell_setting           monoclinic
_symmetry_space_group_name_H-M   'P 21'
_symmetry_Int_Tables_number      4
_space_group_name_Hall           'P 2yb'
loop_
_symmetry_equiv_pos_site_id
_symmetry_equiv_pos_as_xyz
1 x,y,z
2 -x,1/2+y,-z
_cell_length_a                   5.4465(3)
_cell_length_b                   12.4107(7)
_cell_length_c                   14.8394(9)
_cell_angle_alpha                90
_cell_angle_beta                 92.621(2)
_cell_angle_gamma                90
_cell_volume                     1002.02
_exptl_crystal_colour            colorless
_exptl_crystal_description       'prism fragment'
_cell_formula_units_Z            2
loop_
_atom_site_label
_atom_site_type_symbol
_atom_site_fract_x
_atom_site_fract_y
_atom_site_fract_z
S1 S 1.23819(7) 0.77513(3) 0.99978(3)
O1 O -0.1381(2) 0.49023(9) 0.45447(8)
O2 O -0.1551(2) 0.67710(9) 0.44372(8)
O3 O 0.5449(2) 0.72901(9) 0.64691(8)
O4 O 1.1232(2) 0.64557(10) 0.83914(8)
O5 O 0.4944(2) 0.08700(9) 0.82508(8)
C1 C -0.2606(3) 0.57871(12) 0.40949(10)
H1 H -0.2405 0.5738 0.3437
H2 H -0.4384 0.5767 0.4205
C2 C 0.0413(3) 0.64691(12) 0.49939(9)
C3 C 0.0544(2) 0.53530(11) 0.50468(9)
C4 C 0.2315(3) 0.48335(11) 0.55778(9)
H3 H 0.2397 0.4069 0.5603
C5 C 0.3999(2) 0.54798(11) 0.60822(9)
C6 C 0.3814(3) 0.65959(11) 0.60162(9)
C7 C 0.2023(3) 0.71272(12) 0.54696(10)
H4 H 0.1933 0.7890 0.5432
C8 C 0.6027(3) 0.50161(11) 0.66984(9)
H5 H 0.7575 0.5001 0.6361
C9 C 0.6398(3) 0.57995(11) 0.74978(9)
H6 H 0.4906 0.5801 0.7855
H7 H 0.7793 0.5549 0.7895
C10 C 0.6898(3) 0.69168(11) 0.71859(9)
C11 C 0.8476(3) 0.76348(12) 0.75696(9)
C12 C 1.0054(3) 0.73023(11) 0.83623(9)
C13 C 1.0193(3) 0.80206(11) 0.91518(9)
C14 C 0.8718(3) 0.88796(12) 0.93765(9)
H8 H 0.7394 0.9145 0.9001
C15 C 0.9420(3) 0.93173(13) 1.02344(10)
H9 H 0.8619 0.9911 1.0498
C16 C 1.1371(3) 0.87902(14) 1.06356(10)
H10 H 1.2091 0.8980 1.1209
C17 C 0.8621(4) 0.87725(13) 0.72159(11)
H11 H 0.8663 0.8757 0.6556
H12 H 1.0116 0.9119 0.7468
H13 H 0.7179 0.9179 0.7393
C18 C 0.5563(2) 0.38942(10) 0.70510(8)
C19 C 0.3603(3) 0.36864(11) 0.75996(9)
H14 H 0.2434 0.4238 0.7694
C20 C 0.3325(2) 0.26878(12) 0.80112(9)
H15 H 0.1984 0.2562 0.8385
C21 C 0.5028(3) 0.18751(11) 0.78699(9)
C22 C 0.6958(3) 0.20565(11) 0.73049(10)
H16 H 0.8098 0.1498 0.7195
C23 C 0.7208(3) 0.30595(11) 0.69028(9)
H17 H 0.8529 0.3179 0.6519
C24 C 0.3100(3) 0.06923(13) 0.88873(12)
H18 H 0.3319 0.1207 0.9385
H19 H 0.3245 -0.0044 0.9123
H20 H 0.1471 0.0791 0.8591
loop_
_geom_bond_atom_site_label_1
_geom_bond_atom_site_label_2
_geom_bond_site_symmetry_1
_geom_bond_site_symmetry_2
S1 C13 1_555 1_555
O1 C1 1_555 1_555
O2 C1 1_555 1_555
O3 C6 1_555 1_555
O4 C12 1_555 1_555
O5 C21 1_555 1_555
C1 H1 1_555 1_555
H2 C1 1_555 1_555
C2 O2 1_555 1_555
C3 O1 1_555 1_555
C4 C3 1_555 1_555
H3 C4 1_555 1_555
C5 C4 1_555 1_555
C6 C5 1_555 1_555
C7 C2 1_555 1_555
H4 C7 1_555 1_555
C8 C5 1_555 1_555
H5 C8 1_555 1_555
C9 C8 1_555 1_555
H6 C9 1_555 1_555
H7 C9 1_555 1_555
C10 O3 1_555 1_555
C11 C10 1_555 1_555
C12 C11 1_555 1_555
C13 C12 1_555 1_555
C14 C13 1_555 1_555
H8 C14 1_555 1_555
C15 C14 1_555 1_555
H9 C15 1_555 1_555
C16 S1 1_555 1_555
H10 C16 1_555 1_555
C17 C11 1_555 1_555
H11 C17 1_555 1_555
H12 C17 1_555 1_555
H13 C17 1_555 1_555
C18 C8 1_555 1_555
C19 C18 1_555 1_555
H14 C19 1_555 1_555
C20 C19 1_555 1_555
H15 C20 1_555 1_555
C21 C20 1_555 1_555
C22 C21 1_555 1_555
H16 C22 1_555 1_555
C23 C18 1_555 1_555
H17 C23 1_555 1_555
C24 O5 1_555 1_555
H18 C24 1_555 1_555
H19 C24 1_555 1_555
H20 C24 1_555 1_555
C2 C3 1_555 1_555
C6 C7 1_555 1_555
C9 C10 1_555 1_555
C15 C16 1_555 1_555
C22 C23 1_555 1_555

#END
