
#######################################################################
#
#                 Cambridge Crystallographic Data Centre
#                                CCDC 
#
#######################################################################
#
# If this CIF has been generated from an entry in the Cambridge 
# Structural Database, then it will include bibliographic, chemical, 
# crystal, experimental, refinement or atomic coordinate data resulting 
# from the CCDC's data processing and validation procedures.
#
#######################################################################

data_WEFHOF
_chemical_formula_moiety         'C13 H14 O2 S7'
_chemical_name_systematic        
2-(4,5-Dimethylthio-1,3-dithiol-2-ylidene)-4-((2-oxo-4-hydroxypent-3-en-3-yl)sulfanyl)-1,3-dithiole
_symmetry_cell_setting           monoclinic
_symmetry_space_group_name_H-M   'P 21/n'
_symmetry_Int_Tables_number      14
_space_group_name_Hall           '-P 2yn'
loop_
_symmetry_equiv_pos_site_id
_symmetry_equiv_pos_as_xyz
1 x,y,z
2 1/2-x,1/2+y,1/2-z
3 -x,-y,-z
4 1/2+x,1/2-y,1/2+z
_cell_length_a                   16.182(3)
_cell_length_b                   5.1526(10)
_cell_length_c                   43.519(9)
_cell_angle_alpha                90
_cell_angle_beta                 97.247(5)
_cell_angle_gamma                90
_cell_volume                     3599.6
_exptl_crystal_colour            red
_exptl_crystal_description       block
_cell_formula_units_Z            8
_exptl_crystal_recrystallization_method dichloromethane
loop_
_atom_site_label
_atom_site_type_symbol
_atom_site_fract_x
_atom_site_fract_y
_atom_site_fract_z
S1 S 0.61988(7) -0.4198(2) 0.31226(3)
S2 S 0.63381(6) -0.05158(19) 0.36630(2)
S3 S 0.46215(6) 0.1487(2) 0.35066(2)
S4 S 0.66890(5) 0.35743(19) 0.42209(2)
S5 S 0.49723(5) 0.55964(19) 0.40831(2)
S6 S 0.70890(6) 0.6967(2) 0.47813(2)
S7 S 0.52039(6) 0.9222(2) 0.46389(2)
O1 O 0.85868(18) -0.2320(7) 0.31837(8)
H1 H 0.8492 -0.1218 0.3041
O2 O 0.7824(2) 0.0362(6) 0.27816(7)
C1 C 0.7982(3) -0.5475(9) 0.34709(10)
H2 H 0.8561 -0.5546 0.3569
H3 H 0.7827 -0.7153 0.3374
H4 H 0.7615 -0.5085 0.3628
C2 C 0.7897(3) -0.3420(8) 0.32311(10)
C3 C 0.7147(2) -0.2691(8) 0.30554(9)
C4 C 0.7144(3) -0.0766(9) 0.28230(10)
C5 C 0.6383(3) 0.0026(10) 0.26185(10)
H5 H 0.6018 0.1013 0.2739
H6 H 0.6089 -0.1523 0.2532
H7 H 0.6538 0.1111 0.2450
C6 C 0.5747(2) -0.1738(7) 0.33307(9)
C7 C 0.4980(2) -0.0829(8) 0.32610(9)
H8 H 0.4633 -0.1421 0.3082
C8 C 0.5580(2) 0.1712(7) 0.37510(9)
C9 C 0.5724(2) 0.3393(7) 0.39832(8)
C10 C 0.6386(2) 0.6034(7) 0.44622(8)
C11 C 0.5602(2) 0.6916(7) 0.44010(8)
C12 C 0.6808(3) 0.4662(8) 0.50626(9)
H9 H 0.6218 0.4877 0.5088
H10 H 0.7150 0.4960 0.5262
H11 H 0.6902 0.2895 0.4991
C13 C 0.4160(2) 0.9664(8) 0.44573(10)
H12 H 0.4169 1.0362 0.4248
H13 H 0.3869 1.0880 0.4580
H14 H 0.3869 0.7991 0.4444
S8 S 0.28810(7) 1.47088(19) 0.17104(2)
S9 S 0.37936(6) 1.08623(19) 0.13458(2)
S10 S 0.22203(5) 0.90132(19) 0.09916(2)
S11 S 0.48122(6) 0.6501(2) 0.10047(2)
S12 S 0.32384(5) 0.47951(18) 0.06408(2)
S13 S 0.58331(6) 0.2512(2) 0.07033(3)
S14 S 0.40933(6) 0.07975(19) 0.02869(2)
O3 O 0.4666(3) 1.3067(10) 0.23808(10)
H15 H 0.4371 1.1921 0.2451
O4 O 0.3490(3) 1.0228(8) 0.24384(8)
C14 C 0.4708(3) 1.6086(12) 0.19716(14)
H16 H 0.4319 1.7471 0.1896
H17 H 0.4939 1.5299 0.1796
H18 H 0.5161 1.6814 0.2117
C15 C 0.4261(4) 1.4078(12) 0.21316(12)
C16 C 0.3445(3) 1.3230(8) 0.20378(10)
C17 C 0.3059(4) 1.1260(10) 0.22033(11)
C18 C 0.2181(4) 1.0387(11) 0.21175(13)
H19 H 0.2106 0.8675 0.2208
H20 H 0.2059 1.0279 0.1892
H21 H 0.1802 1.1633 0.2197
C19 C 0.2855(2) 1.2230(7) 0.14324(8)
C20 C 0.2157(2) 1.1383(7) 0.12702(8)
H22 H 0.1632 1.2064 0.1306
C21 C 0.3313(2) 0.8697(7) 0.10677(8)
C22 C 0.3728(2) 0.6919(7) 0.09237(8)
C23 C 0.4872(2) 0.3996(7) 0.07358(9)
C24 C 0.4164(2) 0.3253(7) 0.05672(9)
C25 C 0.6566(2) 0.4780(9) 0.08815(12)
H23 H 0.6460 0.6487 0.0785
H24 H 0.7131 0.4210 0.0855
H25 H 0.6512 0.4898 0.1103
C26 C 0.3948(3) 0.2694(9) -0.00640(9)
H26 H 0.3473 0.3867 -0.0059
H27 H 0.3840 0.1533 -0.0243
H28 H 0.4452 0.3713 -0.0081
loop_
_geom_bond_atom_site_label_1
_geom_bond_atom_site_label_2
_geom_bond_site_symmetry_1
_geom_bond_site_symmetry_2
S1 C3 1_555 1_555
S2 C6 1_555 1_555
S3 C7 1_555 1_555
S4 C9 1_555 1_555
S5 C9 1_555 1_555
S6 C10 1_555 1_555
S7 C11 1_555 1_555
O1 H1 1_555 1_555
O2 C4 1_555 1_555
C1 H2 1_555 1_555
H3 C1 1_555 1_555
H4 C1 1_555 1_555
C2 O1 1_555 1_555
C3 C2 1_555 1_555
C4 C3 1_555 1_555
C5 C4 1_555 1_555
H5 C5 1_555 1_555
H6 C5 1_555 1_555
H7 C5 1_555 1_555
C6 S1 1_555 1_555
C7 C6 1_555 1_555
H8 C7 1_555 1_555
C8 S2 1_555 1_555
C9 C8 1_555 1_555
C10 S4 1_555 1_555
C11 S5 1_555 1_555
C12 S6 1_555 1_555
H9 C12 1_555 1_555
H10 C12 1_555 1_555
H11 C12 1_555 1_555
C13 S7 1_555 1_555
H12 C13 1_555 1_555
H13 C13 1_555 1_555
H14 C13 1_555 1_555
S8 C16 1_555 1_555
S9 C19 1_555 1_555
S10 C20 1_555 1_555
S11 C22 1_555 1_555
S12 C22 1_555 1_555
S13 C23 1_555 1_555
S14 C24 1_555 1_555
O3 H15 1_555 1_555
O4 C17 1_555 1_555
C14 H16 1_555 1_555
H17 C14 1_555 1_555
H18 C14 1_555 1_555
C15 O3 1_555 1_555
C16 C15 1_555 1_555
C17 C16 1_555 1_555
C18 C17 1_555 1_555
H19 C18 1_555 1_555
H20 C18 1_555 1_555
H21 C18 1_555 1_555
C19 S8 1_555 1_555
C20 C19 1_555 1_555
H22 C20 1_555 1_555
C21 S9 1_555 1_555
C22 C21 1_555 1_555
C23 S11 1_555 1_555
C24 S12 1_555 1_555
C25 S13 1_555 1_555
H23 C25 1_555 1_555
H24 C25 1_555 1_555
H25 C25 1_555 1_555
C26 S14 1_555 1_555
H26 C26 1_555 1_555
H27 C26 1_555 1_555
H28 C26 1_555 1_555
S3 C8 1_555 1_555
C1 C2 1_555 1_555
C10 C11 1_555 1_555
S10 C21 1_555 1_555
C14 C15 1_555 1_555
C23 C24 1_555 1_555

#END
