
#######################################################################
#
#                 Cambridge Crystallographic Data Centre
#                                CCDC 
#
#######################################################################
#
# If this CIF has been generated from an entry in the Cambridge 
# Structural Database, then it will include bibliographic, chemical, 
# crystal, experimental, refinement or atomic coordinate data resulting 
# from the CCDC's data processing and validation procedures.
#
#######################################################################

data_WEFHUN
_chemical_formula_moiety         'C22 H14 I1 N1 O1'
_chemical_name_systematic        
2-iodo-3-phenylspiro[indene-1,1'-isoindol]-3'(2'H)-one
_symmetry_cell_setting           orthorhombic
_symmetry_space_group_name_H-M   'P n a 21'
_symmetry_Int_Tables_number      33
_space_group_name_Hall           'P 2c -2n'
loop_
_symmetry_equiv_pos_site_id
_symmetry_equiv_pos_as_xyz
1 x,y,z
2 -x,-y,1/2+z
3 1/2-x,1/2+y,1/2+z
4 1/2+x,1/2-y,z
_cell_length_a                   17.5747(7)
_cell_length_b                   9.0437(4)
_cell_length_c                   22.3355(11)
_cell_angle_alpha                90
_cell_angle_beta                 90
_cell_angle_gamma                90
_cell_volume                     3550.01
_exptl_crystal_colour            yellow
_exptl_crystal_description       block
_cell_formula_units_Z            8
loop_
_atom_site_label
_atom_site_type_symbol
_atom_site_fract_x
_atom_site_fract_y
_atom_site_fract_z
I1 I 0.76710(3) 0.68578(4) 0.391261(19)
O1 O 0.5993(6) 0.7496(5) 0.5574(5)
N1 N 0.7008(3) 0.8713(6) 0.5148(2)
H1 H 0.7344 0.8475 0.5411
C1 C 0.6287(4) 0.8269(6) 0.5185(3)
C2 C 0.5887(3) 0.8966(6) 0.4659(3)
C3 C 0.5131(4) 0.8877(7) 0.4477(3)
H2 H 0.4778 0.8334 0.4696
C4 C 0.4925(5) 0.9598(9) 0.3976(5)
H3 H 0.4424 0.9545 0.3843
C5 C 0.5458(4) 1.0431(9) 0.3650(3)
H4 H 0.5304 1.0935 0.3307
C6 C 0.6198(4) 1.0508(7) 0.3830(3)
H5 H 0.6551 1.1059 0.3615
C7 C 0.6411(3) 0.9756(6) 0.4335(3)
C8 C 0.7190(3) 0.9633(6) 0.4627(3)
C9 C 0.7551(4) 1.1132(8) 0.4776(4)
C10 C 0.8239(4) 1.1261(7) 0.4498(3)
C11 C 0.8409(4) 0.9882(7) 0.4162(3)
C12 C 0.7806(4) 0.8991(7) 0.4232(3)
C13 C 0.7212(7) 1.2300(11) 0.5101(6)
H6 H 0.6733 1.2219 0.5276
C14 C 0.7649(5) 1.3586(11) 0.5140(4)
H7 H 0.7463 1.4372 0.5366
C15 C 0.8331(5) 1.3743(9) 0.4865(4)
H8 H 0.8593 1.4633 0.4895
C16 C 0.8642(9) 1.2574(8) 0.4538(6)
H9 H 0.9112 1.2676 0.4351
C17 C 0.9127(3) 0.9582(6) 0.3851(3)
C18 C 0.9817(6) 0.9898(11) 0.4129(5)
H10 H 0.9820 1.0339 0.4505
C19 C 1.0505(4) 0.9556(8) 0.3846(5)
H11 H 1.0962 0.9788 0.4033
C20 C 1.0514(5) 0.8890(9) 0.3303(4)
H12 H 1.0975 0.8655 0.3122
C21 C 0.9839(4) 0.8561(10) 0.3016(4)
H13 H 0.9843 0.8099 0.2644
C22 C 0.9155(4) 0.8924(8) 0.3289(3)
H14 H 0.8702 0.8723 0.3089
I2 I 0.48350(2) 1.31332(4) 0.222170(17)
O2 O 0.6492(5) 1.2691(6) 0.0589(4)
N2 N 0.5504(3) 1.1358(7) 0.0984(2)
H15 H 0.5165 1.1618 0.0726
C23 C 0.6238(4) 1.1831(6) 0.0958(3)
C24 C 0.6642(3) 1.1068(6) 0.1450(3)
C25 C 0.7394(4) 1.1112(7) 0.1613(3)
H16 H 0.7745 1.1665 0.1396
C26 C 0.7616(6) 1.0301(10) 0.2115(4)
H17 H 0.8122 1.0318 0.2238
C27 C 0.7101(4) 0.9486(9) 0.2426(3)
H18 H 0.7260 0.8956 0.2759
C28 C 0.6345(4) 0.9427(7) 0.2258(3)
H19 H 0.6000 0.8848 0.2470
C29 C 0.6112(4) 1.0247(6) 0.1768(3)
C30 C 0.5338(3) 1.0371(7) 0.1486(3)
C31 C 0.4709(4) 1.1035(8) 0.1878(3)
C32 C 0.4108(4) 1.0115(7) 0.1929(3)
C33 C 0.4277(4) 0.8743(8) 0.1584(3)
C34 C 0.4987(5) 0.8883(9) 0.1315(3)
C35 C 0.5299(8) 0.7749(13) 0.0994(6)
H20 H 0.5779 0.7843 0.0824
C36 C 0.4887(5) 0.6465(11) 0.0929(4)
H21 H 0.5082 0.5686 0.0705
C37 C 0.4182(5) 0.6339(9) 0.1199(4)
H22 H 0.3913 0.5458 0.1161
C38 C 0.3871(9) 0.7463(7) 0.1519(5)
H23 H 0.3391 0.7365 0.1690
C39 C 0.3373(3) 1.0412(7) 0.2229(4)
C40 C 0.3341(4) 1.1027(9) 0.2799(3)
H24 H 0.3791 1.1208 0.3004
C41 C 0.2653(4) 1.1375(11) 0.3069(5)
H25 H 0.2641 1.1779 0.3452
C42 C 0.1980(5) 1.1110(10) 0.2757(5)
H26 H 0.1515 1.1381 0.2922
C43 C 0.2006(4) 1.0458(9) 0.2213(6)
H27 H 0.1553 1.0245 0.2016
C44 C 0.2690(5) 1.0098(10) 0.1942(5)
H28 H 0.2692 0.9646 0.1568
loop_
_geom_bond_atom_site_label_1
_geom_bond_atom_site_label_2
_geom_bond_site_symmetry_1
_geom_bond_site_symmetry_2
I1 C12 1_555 1_555
O1 C1 1_555 1_555
N1 H1 1_555 1_555
C1 N1 1_555 1_555
C2 C1 1_555 1_555
C3 C2 1_555 1_555
H2 C3 1_555 1_555
C4 C3 1_555 1_555
H3 C4 1_555 1_555
C5 C4 1_555 1_555
H4 C5 1_555 1_555
C6 C5 1_555 1_555
H5 C6 1_555 1_555
C7 C2 1_555 1_555
C8 N1 1_555 1_555
C9 C8 1_555 1_555
C10 C9 1_555 1_555
C11 C10 1_555 1_555
C12 C8 1_555 1_555
C13 C9 1_555 1_555
H6 C13 1_555 1_555
C14 C13 1_555 1_555
H7 C14 1_555 1_555
C15 C14 1_555 1_555
H8 C15 1_555 1_555
C16 C10 1_555 1_555
H9 C16 1_555 1_555
C17 C11 1_555 1_555
C18 C17 1_555 1_555
H10 C18 1_555 1_555
C19 C18 1_555 1_555
H11 C19 1_555 1_555
C20 C19 1_555 1_555
H12 C20 1_555 1_555
C21 C20 1_555 1_555
H13 C21 1_555 1_555
C22 C17 1_555 1_555
H14 C22 1_555 1_555
I2 C31 1_555 1_555
O2 C23 1_555 1_555
N2 H15 1_555 1_555
C23 N2 1_555 1_555
C24 C23 1_555 1_555
C25 C24 1_555 1_555
H16 C25 1_555 1_555
C26 C25 1_555 1_555
H17 C26 1_555 1_555
C27 C26 1_555 1_555
H18 C27 1_555 1_555
C28 C27 1_555 1_555
H19 C28 1_555 1_555
C29 C24 1_555 1_555
C30 N2 1_555 1_555
C31 C30 1_555 1_555
C32 C31 1_555 1_555
C33 C32 1_555 1_555
C34 C30 1_555 1_555
C35 C34 1_555 1_555
H20 C35 1_555 1_555
C36 C35 1_555 1_555
H21 C36 1_555 1_555
C37 C36 1_555 1_555
H22 C37 1_555 1_555
C38 C33 1_555 1_555
H23 C38 1_555 1_555
C39 C32 1_555 1_555
C40 C39 1_555 1_555
H24 C40 1_555 1_555
C41 C40 1_555 1_555
H25 C41 1_555 1_555
C42 C41 1_555 1_555
H26 C42 1_555 1_555
C43 C42 1_555 1_555
H27 C43 1_555 1_555
C44 C39 1_555 1_555
H28 C44 1_555 1_555
C6 C7 1_555 1_555
C7 C8 1_555 1_555
C11 C12 1_555 1_555
C15 C16 1_555 1_555
C21 C22 1_555 1_555
C28 C29 1_555 1_555
C29 C30 1_555 1_555
C33 C34 1_555 1_555
C37 C38 1_555 1_555
C43 C44 1_555 1_555

#END
