
#######################################################################
#
#                 Cambridge Crystallographic Data Centre
#                                CCDC 
#
#######################################################################
#
# If this CIF has been generated from an entry in the Cambridge 
# Structural Database, then it will include bibliographic, chemical, 
# crystal, experimental, refinement or atomic coordinate data resulting 
# from the CCDC's data processing and validation procedures.
#
#######################################################################

data_WEFJOJ
_chemical_formula_moiety         'C12 H15 N1 O1'
_chemical_name_systematic        
7-methyl-4a,5,6,7,8,8a-hexahydro-9H-pyrrolo[1,2-a]indol-9-one
_symmetry_cell_setting           monoclinic
_symmetry_space_group_name_H-M   'P 21/n'
_symmetry_Int_Tables_number      14
_space_group_name_Hall           '-P 2yn'
loop_
_symmetry_equiv_pos_site_id
_symmetry_equiv_pos_as_xyz
1 x,y,z
2 1/2-x,1/2+y,1/2-z
3 -x,-y,-z
4 1/2+x,1/2-y,1/2+z
_cell_length_a                   10.5537(16)
_cell_length_b                   8.9576(13)
_cell_length_c                   11.7956(19)
_cell_angle_alpha                90
_cell_angle_beta                 113.549(3)
_cell_angle_gamma                90
_cell_volume                     1022.24
_exptl_crystal_colour            colorless
_exptl_crystal_description       block
_cell_formula_units_Z            4
loop_
_atom_site_label
_atom_site_type_symbol
_atom_site_fract_x
_atom_site_fract_y
_atom_site_fract_z
O1 O 0.67342(9) 0.91841(10) 0.02727(8)
N1 N 0.73249(10) 0.76762(11) 0.31469(9)
C1 C 0.67832(14) 0.76722(14) 0.40049(12)
H1 H 0.7209 0.7285 0.4821
C2 C 0.54906(14) 0.83354(14) 0.34813(13)
H2 H 0.4865 0.8461 0.3871
C3 C 0.52646(13) 0.87883(14) 0.22779(12)
H3 H 0.4470 0.9281 0.1704
C4 C 0.64343(12) 0.83735(13) 0.20922(11)
C5 C 0.70966(12) 0.84747(13) 0.12325(11)
C6 C 0.83812(12) 0.74753(13) 0.17691(11)
H4 H 0.8087 0.6444 0.1448
C7 C 0.95785(13) 0.78951(14) 0.14246(12)
H5 H 1.0192 0.7018 0.1558
H6 H 0.9208 0.8143 0.0533
C8 C 1.04301(13) 0.92047(14) 0.21536(12)
H7 H 0.9828 1.0112 0.1939
C9 C 1.08931(13) 0.89092(15) 0.35336(12)
H8 H 1.1464 0.7993 0.3762
H9 H 1.1467 0.9752 0.4009
C10 C 0.96473(12) 0.87241(14) 0.38610(11)
H10 H 0.9108 0.9664 0.3671
H11 H 0.9972 0.8540 0.4761
C11 C 0.87107(12) 0.74468(13) 0.31629(11)
H12 H 0.9101 0.6460 0.3536
C12 C 1.16537(16) 0.95023(18) 0.18151(15)
H13 H 1.2173 1.0365 0.2283
H14 H 1.1320 0.9710 0.0927
H15 H 1.2257 0.8624 0.2017
loop_
_geom_bond_atom_site_label_1
_geom_bond_atom_site_label_2
_geom_bond_site_symmetry_1
_geom_bond_site_symmetry_2
O1 C5 1_555 1_555
N1 C1 1_555 1_555
C1 H1 1_555 1_555
C2 C1 1_555 1_555
H2 C2 1_555 1_555
C3 C2 1_555 1_555
H3 C3 1_555 1_555
C4 N1 1_555 1_555
C5 C4 1_555 1_555
C6 C5 1_555 1_555
H4 C6 1_555 1_555
C7 C6 1_555 1_555
H5 C7 1_555 1_555
H6 C7 1_555 1_555
C8 C7 1_555 1_555
H7 C8 1_555 1_555
C9 C8 1_555 1_555
H8 C9 1_555 1_555
H9 C9 1_555 1_555
C10 C9 1_555 1_555
H10 C10 1_555 1_555
H11 C10 1_555 1_555
C11 N1 1_555 1_555
H12 C11 1_555 1_555
C12 C8 1_555 1_555
H13 C12 1_555 1_555
H14 C12 1_555 1_555
H15 C12 1_555 1_555
C3 C4 1_555 1_555
C6 C11 1_555 1_555
C10 C11 1_555 1_555

#END
