
#######################################################################
#
#                 Cambridge Crystallographic Data Centre
#                                CCDC 
#
#######################################################################
#
# If this CIF has been generated from an entry in the Cambridge 
# Structural Database, then it will include bibliographic, chemical, 
# crystal, experimental, refinement or atomic coordinate data resulting 
# from the CCDC's data processing and validation procedures.
#
#######################################################################

data_WEFLOJ
_chemical_formula_moiety         'C35 H23 Br1'
_chemical_name_systematic        
1-Bromo-1,2,3-triphenylcyclopenta(l)phenanthrene
_symmetry_cell_setting           orthorhombic
_symmetry_space_group_name_H-M   'P 21 21 21'
_symmetry_Int_Tables_number      19
_space_group_name_Hall           'P 2ac 2ab'
loop_
_symmetry_equiv_pos_site_id
_symmetry_equiv_pos_as_xyz
1 x,y,z
2 1/2-x,-y,1/2+z
3 1/2+x,1/2-y,-z
4 -x,1/2+y,1/2-z
_cell_length_a                   14.473(2)
_cell_length_b                   19.323(2)
_cell_length_c                   8.732(3)
_cell_angle_alpha                90
_cell_angle_beta                 90
_cell_angle_gamma                90
_cell_volume                     2442.01
_exptl_crystal_colour            yellow
_exptl_crystal_description       needle
_chemical_melting_point          238-240deg.C
_cell_formula_units_Z            4
_exptl_crystal_recrystallization_method dichloromethane/hexane
loop_
_atom_site_label
_atom_site_type_symbol
_atom_site_fract_x
_atom_site_fract_y
_atom_site_fract_z
Br1 Br 0.14902(5) 0.34181(4) 0.94356(7)
C1 C 0.1308(4) 0.3066(3) 0.7321(6)
C2 C 0.0558(4) 0.3476(3) 0.6521(6)
C3 C 0.0911(4) 0.3787(3) 0.5247(7)
C4 C 0.1931(4) 0.3655(3) 0.5211(6)
C5 C 0.2175(4) 0.3268(3) 0.6409(6)
C6 C 0.1155(4) 0.2276(3) 0.7305(7)
C7 C 0.1397(5) 0.1841(3) 0.8504(7)
C8 C 0.1327(5) 0.1126(3) 0.8338(9)
C9 C 0.0995(5) 0.0853(4) 0.699(1)
C10 C 0.0729(6) 0.1277(4) 0.5826(9)
C11 C 0.0807(5) 0.1991(3) 0.5974(8)
C12 C -0.0399(4) 0.3517(3) 0.6940(7)
C13 C -0.0751(4) 0.3214(3) 0.8278(7)
C14 C -0.1667(5) 0.3297(4) 0.8678(8)
C15 C -0.2246(5) 0.3679(4) 0.773(1)
C16 C -0.1925(4) 0.3976(4) 0.6405(8)
C17 C -0.0980(4) 0.3907(3) 0.5963(7)
C18 C -0.0632(4) 0.4207(3) 0.4587(7)
C19 C -0.1215(4) 0.4527(3) 0.3500(8)
C20 C -0.0889(5) 0.4754(4) 0.2119(9)
C21 C 0.0039(5) 0.4689(4) 0.1740(8)
C22 C 0.0626(4) 0.4398(3) 0.2780(7)
C23 C 0.0322(4) 0.4148(3) 0.4193(6)
C24 C 0.2578(4) 0.3897(3) 0.4041(6)
C25 C 0.2848(4) 0.4594(3) 0.3925(7)
C26 C 0.3442(5) 0.4799(3) 0.2775(8)
C27 C 0.3785(4) 0.4335(3) 0.1713(8)
C28 C 0.3543(6) 0.3648(3) 0.1847(7)
C29 C 0.2949(4) 0.3438(3) 0.2999(7)
C30 C 0.3109(4) 0.3098(3) 0.6930(7)
C31 C 0.3688(4) 0.3633(3) 0.7381(8)
C32 C 0.4568(4) 0.3506(4) 0.7932(8)
C33 C 0.4880(5) 0.2832(4) 0.8054(8)
C34 C 0.4327(4) 0.2293(4) 0.7605(9)
C35 C 0.3442(4) 0.2421(3) 0.7038(7)
H1 H 0.16111 0.20313 0.94420
H2 H 0.15082 0.08285 0.91503
H3 H 0.09514 0.03656 0.68726
H4 H 0.04886 0.10839 0.49080
H5 H 0.06210 0.22834 0.51559
H6 H -0.03546 0.29485 0.89155
H7 H -0.18992 0.30966 0.95933
H8 H -0.28768 0.37341 0.79970
H9 H -0.23371 0.42324 0.57756
H10 H -0.18510 0.45863 0.37343
H11 H -0.13031 0.49584 0.14071
H12 H 0.02607 0.48441 0.07757
H13 H 0.12636 0.43641 0.25337
H14 H 0.26204 0.49241 0.46380
H15 H 0.36208 0.52713 0.27120
H16 H 0.41786 0.44860 0.09091
H17 H 0.37834 0.33174 0.11469
H18 H 0.27916 0.29620 0.30753
H19 H 0.34754 0.40970 0.73096
H20 H 0.49555 0.38798 0.82263
H21 H 0.54797 0.27421 0.84486
H22 H 0.45462 0.18311 0.76811
H23 H 0.30641 0.20451 0.67226
loop_
_geom_bond_atom_site_label_1
_geom_bond_atom_site_label_2
_geom_bond_site_symmetry_1
_geom_bond_site_symmetry_2
Br1 C1 1_555 1_555
C1 C2 1_555 1_555
C2 C3 1_555 1_555
C3 C4 1_555 1_555
C4 C5 1_555 1_555
C5 C1 1_555 1_555
C6 C1 1_555 1_555
C7 C6 1_555 1_555
C8 C7 1_555 1_555
C9 C8 1_555 1_555
C10 C9 1_555 1_555
C11 C6 1_555 1_555
C12 C2 1_555 1_555
C13 C12 1_555 1_555
C14 C13 1_555 1_555
C15 C14 1_555 1_555
C16 C15 1_555 1_555
C17 C12 1_555 1_555
C18 C17 1_555 1_555
C19 C18 1_555 1_555
C20 C19 1_555 1_555
C21 C20 1_555 1_555
C22 C21 1_555 1_555
C23 C3 1_555 1_555
C24 C4 1_555 1_555
C25 C24 1_555 1_555
C26 C25 1_555 1_555
C27 C26 1_555 1_555
C28 C27 1_555 1_555
C29 C24 1_555 1_555
C30 C5 1_555 1_555
C31 C30 1_555 1_555
C32 C31 1_555 1_555
C33 C32 1_555 1_555
C34 C33 1_555 1_555
C35 C30 1_555 1_555
H1 C7 1_555 1_555
H2 C8 1_555 1_555
H3 C9 1_555 1_555
H4 C10 1_555 1_555
H5 C11 1_555 1_555
H6 C13 1_555 1_555
H7 C14 1_555 1_555
H8 C15 1_555 1_555
H9 C16 1_555 1_555
H10 C19 1_555 1_555
H11 C20 1_555 1_555
H12 C21 1_555 1_555
H13 C22 1_555 1_555
H14 C25 1_555 1_555
H15 C26 1_555 1_555
H16 C27 1_555 1_555
H17 C28 1_555 1_555
H18 C29 1_555 1_555
H19 C31 1_555 1_555
H20 C32 1_555 1_555
H21 C33 1_555 1_555
H22 C34 1_555 1_555
H23 C35 1_555 1_555
C10 C11 1_555 1_555
C16 C17 1_555 1_555
C18 C23 1_555 1_555
C22 C23 1_555 1_555
C28 C29 1_555 1_555
C34 C35 1_555 1_555

#END
