
#######################################################################
#
#                 Cambridge Crystallographic Data Centre
#                                CCDC 
#
#######################################################################
#
# If this CIF has been generated from an entry in the Cambridge 
# Structural Database, then it will include bibliographic, chemical, 
# crystal, experimental, refinement or atomic coordinate data resulting 
# from the CCDC's data processing and validation procedures.
#
#######################################################################

data_WEFMOK
_chemical_formula_moiety         'C13 H13 Br1 N4 O1 S1'
_chemical_name_systematic        
3-(6-(4-Bromophenyl)-7H-1,2,4-triazolo(3,4-b)(1,3,4)thiadiazin-3-yl)propanol
_symmetry_cell_setting           monoclinic
_symmetry_space_group_name_H-M   'P 21/c'
_symmetry_Int_Tables_number      14
_space_group_name_Hall           '-P 2ybc'
loop_
_symmetry_equiv_pos_site_id
_symmetry_equiv_pos_as_xyz
1 x,y,z
2 -x,1/2+y,1/2-z
3 -x,-y,-z
4 x,1/2-y,1/2+z
_cell_length_a                   6.9002(4)
_cell_length_b                   15.7400(10)
_cell_length_c                   25.5330(10)
_cell_angle_alpha                90
_cell_angle_beta                 91.1320(10)
_cell_angle_gamma                90
_cell_volume                     2772.58
_exptl_crystal_colour            colorless
_exptl_crystal_description       block
_cell_formula_units_Z            8
_exptl_crystal_recrystallization_method '95% ethanol'
loop_
_atom_site_label
_atom_site_type_symbol
_atom_site_fract_x
_atom_site_fract_y
_atom_site_fract_z
Br1 Br 1.50890(4) 0.28876(2) 0.596326(11)
S1 S 0.64139(11) 0.14213(4) 0.37010(3)
O1 O 0.0772(3) 0.53540(11) 0.37853(7)
H1 H -0.0093 0.5229 0.3574
N1 N 0.7215(3) 0.31055(11) 0.43248(7)
N2 N 0.5782(3) 0.30618(11) 0.39381(7)
N3 N 0.3680(3) 0.25711(13) 0.33567(8)
N4 N 0.3227(3) 0.34231(13) 0.34673(8)
C1 C 1.3067(4) 0.27533(15) 0.54575(9)
C2 C 1.3402(4) 0.23019(15) 0.50080(9)
H2 H 1.4609 0.2058 0.4954
C3 C 1.1923(3) 0.22131(15) 0.46346(9)
H3 H 1.2139 0.1900 0.4332
C4 C 1.0121(3) 0.25882(14) 0.47084(8)
C5 C 0.9823(4) 0.30376(15) 0.51711(10)
H4 H 0.8623 0.3286 0.5228
C6 C 1.1286(4) 0.31188(16) 0.55461(10)
H5 H 1.1071 0.3416 0.5854
C7 C 0.8585(3) 0.25463(14) 0.42970(8)
C8 C 0.8732(4) 0.19072(17) 0.38589(10)
H6 H 0.9651 0.1468 0.3961
H7 H 0.9218 0.2188 0.3550
C9 C 0.5201(3) 0.23848(15) 0.36398(9)
C10 C 0.4470(3) 0.36994(15) 0.38199(9)
C11 C 0.4541(4) 0.45633(15) 0.40593(10)
H8 H 0.4487 0.4984 0.3782
H9 H 0.5770 0.4631 0.4246
C12 C 0.2898(4) 0.47347(16) 0.44376(10)
H10 H 0.2952 0.4312 0.4714
H11 H 0.3108 0.5286 0.4599
C13 C 0.0887(4) 0.47214(16) 0.41860(10)
H12 H 0.0628 0.4166 0.4036
H13 H -0.0077 0.4834 0.4449
Br2 Br -0.30284(5) 0.45433(2) 0.032491(13)
S2 S 0.50804(9) 0.57294(4) 0.27302(2)
O2 O 1.0874(3) 0.17957(10) 0.26086(7)
H14 H 1.1701 0.1910 0.2833
N5 N 0.4457(3) 0.40734(11) 0.20786(7)
N6 N 0.5878(3) 0.41158(11) 0.24717(7)
N7 N 0.7936(3) 0.46127(12) 0.30606(8)
N8 N 0.8450(3) 0.37709(12) 0.29371(8)
C14 C -0.1185(4) 0.45448(15) 0.08881(10)
C15 C 0.0611(4) 0.41939(17) 0.08118(10)
H15 H 0.0904 0.3948 0.0492
C16 C 0.1975(4) 0.42095(15) 0.12138(9)
H16 H 0.3190 0.3970 0.1164
C17 C 0.1554(3) 0.45804(13) 0.16949(9)
C18 C -0.0281(3) 0.49339(15) 0.17593(9)
H17 H -0.0585 0.5189 0.2076
C19 C -0.1658(3) 0.49087(16) 0.13555(10)
H18 H -0.2886 0.5136 0.1402
C20 C 0.3034(3) 0.45970(13) 0.21243(8)
C21 C 0.2803(3) 0.51823(15) 0.25823(9)
H19 H 0.2412 0.4858 0.2886
H20 H 0.1799 0.5596 0.2503
C22 C 0.6402(3) 0.47941(14) 0.27781(9)
C23 C 0.7222(3) 0.34947(14) 0.25845(9)
C24 C 0.7190(3) 0.26343(14) 0.23382(10)
H21 H 0.5964 0.2563 0.2151
H22 H 0.7249 0.2210 0.2614
C25 C 0.8831(4) 0.24647(15) 0.19594(9)
H23 H 0.8603 0.1923 0.1788
H24 H 0.8811 0.2901 0.1691
C26 C 1.0817(4) 0.24503(16) 0.22223(10)
H25 H 1.1800 0.2346 0.1963
H26 H 1.1083 0.2995 0.2386
loop_
_geom_bond_atom_site_label_1
_geom_bond_atom_site_label_2
_geom_bond_site_symmetry_1
_geom_bond_site_symmetry_2
Br1 C1 1_555 1_555
S1 C8 1_555 1_555
O1 H1 1_555 1_555
N1 N2 1_555 1_555
N2 C9 1_555 1_555
N3 N4 1_555 1_555
N4 C10 1_555 1_555
C1 C2 1_555 1_555
C2 H2 1_555 1_555
C3 C2 1_555 1_555
H3 C3 1_555 1_555
C4 C3 1_555 1_555
C5 C4 1_555 1_555
H4 C5 1_555 1_555
C6 C1 1_555 1_555
H5 C6 1_555 1_555
C7 N1 1_555 1_555
C8 C7 1_555 1_555
H6 C8 1_555 1_555
H7 C8 1_555 1_555
C9 S1 1_555 1_555
C10 N2 1_555 1_555
C11 C10 1_555 1_555
H8 C11 1_555 1_555
H9 C11 1_555 1_555
C12 C11 1_555 1_555
H10 C12 1_555 1_555
H11 C12 1_555 1_555
C13 O1 1_555 1_555
H12 C13 1_555 1_555
H13 C13 1_555 1_555
Br2 C14 1_555 1_555
S2 C21 1_555 1_555
O2 H14 1_555 1_555
N5 N6 1_555 1_555
N6 C22 1_555 1_555
N7 N8 1_555 1_555
N8 C23 1_555 1_555
C14 C15 1_555 1_555
C15 H15 1_555 1_555
C16 C15 1_555 1_555
H16 C16 1_555 1_555
C17 C16 1_555 1_555
C18 C17 1_555 1_555
H17 C18 1_555 1_555
C19 C14 1_555 1_555
H18 C19 1_555 1_555
C20 N5 1_555 1_555
C21 C20 1_555 1_555
H19 C21 1_555 1_555
H20 C21 1_555 1_555
C22 S2 1_555 1_555
C23 N6 1_555 1_555
C24 C23 1_555 1_555
H21 C24 1_555 1_555
H22 C24 1_555 1_555
C25 C24 1_555 1_555
H23 C25 1_555 1_555
H24 C25 1_555 1_555
C26 O2 1_555 1_555
H25 C26 1_555 1_555
H26 C26 1_555 1_555
N3 C9 1_555 1_555
C4 C7 1_555 1_555
C5 C6 1_555 1_555
C12 C13 1_555 1_555
N7 C22 1_555 1_555
C17 C20 1_555 1_555
C18 C19 1_555 1_555
C25 C26 1_555 1_555

#END
