
#######################################################################
#
#                 Cambridge Crystallographic Data Centre
#                                CCDC 
#
#######################################################################
#
# If this CIF has been generated from an entry in the Cambridge 
# Structural Database, then it will include bibliographic, chemical, 
# crystal, experimental, refinement or atomic coordinate data resulting 
# from the CCDC's data processing and validation procedures.
#
#######################################################################

data_WEFROQ
_chemical_formula_moiety         'C30 H28 O7'
_chemical_name_systematic        
5a'-Hydroxy-1',3,8',9-tetrakis(methylene)-3a,4,5,5',5a',6',7',7a',8',9,9a,9b,10a',10b'-tetradecahydro-2H-spiro[azuleno[4,5-b]furan-6,3'-benzo[1,8]azuleno[4,5-b]furan]-2,2',8,9'(1'H,3H,4'H)-tetrone
_symmetry_cell_setting           monoclinic
_symmetry_space_group_name_H-M   'P 21'
_symmetry_Int_Tables_number      4
_space_group_name_Hall           'P 2yb'
loop_
_symmetry_equiv_pos_site_id
_symmetry_equiv_pos_as_xyz
1 x,y,z
2 -x,1/2+y,-z
_cell_length_a                   7.5941(15)
_cell_length_b                   11.207(2)
_cell_length_c                   14.909(3)
_cell_angle_alpha                90
_cell_angle_beta                 94.05(3)
_cell_angle_gamma                90
_cell_volume                     1265.69
_exptl_crystal_colour            colorless
_exptl_crystal_description       block
_cell_formula_units_Z            2
loop_
_atom_site_label
_atom_site_type_symbol
_atom_site_fract_x
_atom_site_fract_y
_atom_site_fract_z
C1 C 0.2407(6) 0.7856(5) 0.5725(3)
C2 C 0.3722(7) 0.6969(5) 0.5566(3)
C3 C 0.5184(7) 0.6779(4) 0.6075(3)
H1 H 0.5436 0.7240 0.6587
H2 H 0.5964 0.6185 0.5923
C4 C 0.1705(6) 0.7157(4) 0.4280(3)
H3 H 0.2285 0.7644 0.3840
C5 C 0.3022(5) 0.6224(4) 0.4747(3)
H4 H 0.2327 0.5562 0.4966
C6 C 0.4367(6) 0.5715(4) 0.4167(3)
H5 H 0.4898 0.5027 0.4473
H6 H 0.5291 0.6305 0.4120
C7 C 0.3718(5) 0.5328(4) 0.3201(3)
H7 H 0.3801 0.6011 0.2806
H8 H 0.4520 0.4723 0.3004
C8 C 0.1815(6) 0.4829(4) 0.3077(3)
C9 C 0.0514(6) 0.5839(4) 0.3012(3)
C10 C 0.0034(5) 0.6547(4) 0.3848(3)
H9 H -0.0490 0.6020 0.4281
C11 C -0.1296(6) 0.7407(4) 0.3457(3)
C12 C -0.2249(7) 0.8179(5) 0.3859(3)
H10 H -0.2141 0.8245 0.4483
H11 H -0.3039 0.8666 0.3523
C13 C -0.1554(7) 0.7188(4) 0.2470(3)
C14 C -0.0313(5) 0.6231(4) 0.2259(3)
C15 C -0.0110(6) 0.5783(4) 0.1315(3)
C16 C 0.1430(5) 0.4854(4) 0.1383(2)
H12 H 0.1312 0.4338 0.0860
H13 H 0.2539 0.5280 0.1364
C17 C 0.1516(5) 0.4078(4) 0.2224(2)
H14 H 0.2469 0.3506 0.2196
H15 H 0.0421 0.3637 0.2245
C18 C -0.1812(6) 0.5146(4) 0.1000(3)
C19 C -0.2718(6) 0.5285(4) 0.0064(3)
H16 H -0.3227 0.6087 0.0002
C20 C -0.1399(6) 0.5106(5) -0.0642(3)
H17 H -0.0559 0.4482 -0.0437
C21 C -0.0404(7) 0.6180(5) -0.0890(3)
H18 H -0.1246 0.6843 -0.0944
C22 C 0.1079(6) 0.6547(4) -0.0195(3)
H19 H 0.1668 0.7248 -0.0411
H20 H 0.1940 0.5908 -0.0131
C23 C 0.0385(6) 0.6828(4) 0.0744(2)
H21 H 0.1285 0.7285 0.1086
H22 H -0.0644 0.7337 0.0650
C24 C -0.2746(6) 0.4372(4) 0.1492(3)
H23 H -0.2464 0.4218 0.2098
C25 C -0.4211(7) 0.3816(5) 0.0982(3)
C26 C -0.4185(6) 0.4378(5) 0.0059(3)
C27 C -0.5431(6) 0.4127(5) -0.0570(3)
H24 H -0.5488 0.4542 -0.1112
H25 H -0.6255 0.3535 -0.0474
C28 C -0.1314(9) 0.5106(5) -0.2200(4)
C29 C 0.0122(8) 0.5903(5) -0.1822(4)
C30 C 0.1607(8) 0.6136(5) -0.2262(3)
H26 H 0.1748 0.5791 -0.2820
H27 H 0.2474 0.6639 -0.2003
O1 O 0.2240(4) 0.8490(3) 0.6372(2)
O2 O 0.1162(4) 0.7877(3) 0.50178(18)
O3 O 0.1558(4) 0.4072(3) 0.38550(18)
H28 H 0.0789 0.3577 0.3722
O4 O -0.2569(5) 0.7676(3) 0.1929(2)
O5 O -0.5161(4) 0.3003(3) 0.1206(2)
O6 O -0.1696(5) 0.4767(4) -0.2972(2)
O7 O -0.2319(5) 0.4731(3) -0.1512(2)
loop_
_geom_bond_atom_site_label_1
_geom_bond_atom_site_label_2
_geom_bond_site_symmetry_1
_geom_bond_site_symmetry_2
C1 C2 1_555 1_555
C2 C3 1_555 1_555
C3 H1 1_555 1_555
H2 C3 1_555 1_555
C4 H3 1_555 1_555
C5 C2 1_555 1_555
H4 C5 1_555 1_555
C6 C5 1_555 1_555
H5 C6 1_555 1_555
H6 C6 1_555 1_555
C7 C6 1_555 1_555
H7 C7 1_555 1_555
H8 C7 1_555 1_555
C8 C7 1_555 1_555
C9 C8 1_555 1_555
C10 C4 1_555 1_555
H9 C10 1_555 1_555
C11 C10 1_555 1_555
C12 C11 1_555 1_555
H10 C12 1_555 1_555
H11 C12 1_555 1_555
C13 C11 1_555 1_555
C14 C9 1_555 1_555
C15 C14 1_555 1_555
C16 C15 1_555 1_555
H12 C16 1_555 1_555
H13 C16 1_555 1_555
C17 C8 1_555 1_555
H14 C17 1_555 1_555
H15 C17 1_555 1_555
C18 C15 1_555 1_555
C19 C18 1_555 1_555
H16 C19 1_555 1_555
C20 C19 1_555 1_555
H17 C20 1_555 1_555
C21 C20 1_555 1_555
H18 C21 1_555 1_555
C22 C21 1_555 1_555
H19 C22 1_555 1_555
H20 C22 1_555 1_555
C23 C15 1_555 1_555
H21 C23 1_555 1_555
H22 C23 1_555 1_555
C24 C18 1_555 1_555
H23 C24 1_555 1_555
C25 C24 1_555 1_555
C26 C19 1_555 1_555
C27 C26 1_555 1_555
H24 C27 1_555 1_555
H25 C27 1_555 1_555
C28 C29 1_555 1_555
C29 C21 1_555 1_555
C30 C29 1_555 1_555
H26 C30 1_555 1_555
H27 C30 1_555 1_555
O1 C1 1_555 1_555
O2 C1 1_555 1_555
O3 C8 1_555 1_555
H28 O3 1_555 1_555
O4 C13 1_555 1_555
O5 C25 1_555 1_555
O6 C28 1_555 1_555
O7 C20 1_555 1_555
C4 C5 1_555 1_555
C4 O2 1_555 1_555
C9 C10 1_555 1_555
C13 C14 1_555 1_555
C16 C17 1_555 1_555
C22 C23 1_555 1_555
C25 C26 1_555 1_555
C28 O7 1_555 1_555

#END
