
#######################################################################
#
#                 Cambridge Crystallographic Data Centre
#                                CCDC 
#
#######################################################################
#
# If this CIF has been generated from an entry in the Cambridge 
# Structural Database, then it will include bibliographic, chemical, 
# crystal, experimental, refinement or atomic coordinate data resulting 
# from the CCDC's data processing and validation procedures.
#
#######################################################################

data_WEFRUW
_chemical_name_common            '(-)-gochnatiolide B'
_chemical_formula_moiety         'C30 H30 O7,C2 H3 N1'
_chemical_name_systematic        
5a'-Hydroxy-1',3,6,8'-tetrakis(methylene)-3a,4,5,5',5a',6,6',6a,7,7',7a',8',9a,9b,10a',10b'-hexadecahydro-2H-spiro[azuleno[4,5-b]furan-9,3'-benzo[1,8]azuleno[4,5-b]furan]-2,2',8,9'(1'H,3H,4'H)-tetrone
_symmetry_cell_setting           monoclinic
_symmetry_space_group_name_H-M   'P 21'
_symmetry_Int_Tables_number      4
_space_group_name_Hall           'P 2yb'
loop_
_symmetry_equiv_pos_site_id
_symmetry_equiv_pos_as_xyz
1 x,y,z
2 -x,1/2+y,-z
_cell_length_a                   9.988(5)
_cell_length_b                   7.091(3)
_cell_length_c                   19.356(9)
_cell_angle_alpha                90
_cell_angle_beta                 94.828(9)
_cell_angle_gamma                90
_cell_volume                     1366.02
_exptl_crystal_colour            colorless
_exptl_crystal_description       rod
_cell_formula_units_Z            2
loop_
_atom_site_label
_atom_site_type_symbol
_atom_site_fract_x
_atom_site_fract_y
_atom_site_fract_z
O1 O -0.1306(2) 0.3491(4) 0.79078(11)
O2 O 0.0715(3) 0.2149(5) 0.79511(14)
O3 O -0.5795(3) 0.7954(5) 0.72685(14)
O4 O -0.5080(3) 0.5170(4) 0.57415(12)
H1 H -0.5488 0.5823 0.6019
O5 O -0.2434(3) 0.9396(4) 0.76435(12)
O6 O -0.1732(3) 0.9205(4) 0.49854(12)
O7 O -0.1262(3) 1.0236(5) 0.39396(13)
C1 C -0.2465(4) 0.3512(5) 0.83285(16)
H2 H -0.3106 0.2491 0.8165
C2 C -0.1885(4) 0.3068(6) 0.90714(17)
H3 H -0.1661 0.4278 0.9320
C3 C -0.2861(4) 0.1942(7) 0.94802(19)
H4 H -0.2373 0.1476 0.9913
H5 H -0.3174 0.0829 0.9203
C4 C -0.4088(4) 0.3069(7) 0.9667(2)
H6 H -0.4714 0.2192 0.9874
H7 H -0.3787 0.4002 1.0028
C5 C -0.4863(4) 0.4114(7) 0.90704(18)
C6 C -0.4133(4) 0.5822(6) 0.88086(18)
H8 H -0.3591 0.6394 0.9213
C7 C -0.3158(4) 0.5404(5) 0.82341(15)
H9 H -0.2441 0.6391 0.8277
C8 C -0.0605(4) 0.2059(6) 0.89496(19)
C9 C -0.0286(4) 0.2499(6) 0.82380(18)
C10 C -0.3980(4) 0.5720(6) 0.75235(17)
C11 C -0.5056(4) 0.7170(6) 0.76997(19)
C12 C -0.5062(4) 0.7379(6) 0.84729(19)
H10 H -0.5986 0.7229 0.8614
H11 H -0.4726 0.8641 0.8621
C13 C -0.6080(4) 0.3572(8) 0.8833(2)
H12 H -0.6563 0.4266 0.8473
H13 H -0.6473 0.2489 0.9022
C14 C 0.0172(5) 0.0995(8) 0.9367(2)
H14 H 0.0974 0.0479 0.9213
H15 H -0.0065 0.0741 0.9823
C15 C -0.3139(4) 0.6603(5) 0.70002(17)
C16 C -0.2992(4) 0.5998(5) 0.63550(17)
C17 C -0.3825(4) 0.4378(6) 0.60364(17)
C18 C -0.4064(4) 0.3011(5) 0.66247(17)
H16 H -0.3193 0.2478 0.6814
H17 H -0.4635 0.1956 0.6439
C19 C -0.4746(4) 0.3978(6) 0.72101(17)
H18 H -0.4844 0.3049 0.7584
H19 H -0.5659 0.4377 0.7030
C20 C -0.2423(4) 0.8405(6) 0.71277(17)
C21 C -0.1716(4) 0.8817(5) 0.64964(17)
C22 C -0.1980(4) 0.7183(5) 0.59997(16)
H20 H -0.1132 0.6438 0.5993
C23 C -0.2487(4) 0.7622(5) 0.52501(16)
H21 H -0.3465 0.7944 0.5225
C24 C -0.2260(4) 0.6009(5) 0.47498(17)
H22 H -0.1352 0.5473 0.4892
C25 C -0.3255(4) 0.4383(6) 0.47465(17)
H23 H -0.3051 0.3477 0.4381
H24 H -0.4171 0.4881 0.4625
C26 C -0.3244(4) 0.3329(6) 0.54369(17)
H25 H -0.2303 0.2983 0.5585
H26 H -0.3753 0.2141 0.5356
C27 C -0.0943(4) 1.0314(6) 0.64379(18)
H27 H -0.0817 1.1189 0.6810
H28 H -0.0514 1.0514 0.6024
C28 C -0.1664(4) 0.8987(6) 0.42871(18)
C29 C -0.2141(4) 0.7066(6) 0.40850(18)
C30 C -0.2350(4) 0.6525(7) 0.34327(18)
H29 H -0.2195 0.7379 0.3070
H30 H -0.2656 0.5282 0.3326
loop_
_geom_bond_atom_site_label_1
_geom_bond_atom_site_label_2
_geom_bond_site_symmetry_1
_geom_bond_site_symmetry_2
O1 C1 1_555 1_555
O2 C9 1_555 1_555
O3 C11 1_555 1_555
O4 H1 1_555 1_555
O5 C20 1_555 1_555
O6 C23 1_555 1_555
O7 C28 1_555 1_555
C1 H2 1_555 1_555
C2 C1 1_555 1_555
H3 C2 1_555 1_555
C3 C2 1_555 1_555
H4 C3 1_555 1_555
H5 C3 1_555 1_555
C4 C3 1_555 1_555
H6 C4 1_555 1_555
H7 C4 1_555 1_555
C5 C4 1_555 1_555
C6 C5 1_555 1_555
H8 C6 1_555 1_555
C7 C1 1_555 1_555
H9 C7 1_555 1_555
C8 C2 1_555 1_555
C9 O1 1_555 1_555
C10 C7 1_555 1_555
C11 C10 1_555 1_555
C12 C6 1_555 1_555
H10 C12 1_555 1_555
H11 C12 1_555 1_555
C13 C5 1_555 1_555
H12 C13 1_555 1_555
H13 C13 1_555 1_555
C14 C8 1_555 1_555
H14 C14 1_555 1_555
H15 C14 1_555 1_555
C15 C10 1_555 1_555
C16 C15 1_555 1_555
C17 O4 1_555 1_555
C18 C17 1_555 1_555
H16 C18 1_555 1_555
H17 C18 1_555 1_555
C19 C10 1_555 1_555
H18 C19 1_555 1_555
H19 C19 1_555 1_555
C20 C15 1_555 1_555
C21 C20 1_555 1_555
C22 C16 1_555 1_555
H20 C22 1_555 1_555
C23 C22 1_555 1_555
H21 C23 1_555 1_555
C24 C23 1_555 1_555
H22 C24 1_555 1_555
C25 C24 1_555 1_555
H23 C25 1_555 1_555
H24 C25 1_555 1_555
C26 C17 1_555 1_555
H25 C26 1_555 1_555
H26 C26 1_555 1_555
C27 C21 1_555 1_555
H27 C27 1_555 1_555
H28 C27 1_555 1_555
C28 O6 1_555 1_555
C29 C24 1_555 1_555
C30 C29 1_555 1_555
H29 C30 1_555 1_555
H30 C30 1_555 1_555
C6 C7 1_555 1_555
C8 C9 1_555 1_555
C11 C12 1_555 1_555
C16 C17 1_555 1_555
C18 C19 1_555 1_555
C21 C22 1_555 1_555
C25 C26 1_555 1_555
C28 C29 1_555 1_555

#END
