
#######################################################################
#
#                 Cambridge Crystallographic Data Centre
#                                CCDC 
#
#######################################################################
#
# If this CIF has been generated from an entry in the Cambridge 
# Structural Database, then it will include bibliographic, chemical, 
# crystal, experimental, refinement or atomic coordinate data resulting 
# from the CCDC's data processing and validation procedures.
#
#######################################################################

data_WEFRIL
_chemical_name_common            
'bis{2-[2-oxy-5-methoxyphenyl]-1H-benzimidazole}-boron tetrahydrofuran solvate'
_chemical_formula_moiety         'C28 H21 B1 N4 O4,2(C4 H8 O1)'
_chemical_name_systematic        
"2,2'-dimethoxy-6,12'-dihydrospiro[benzimidazo[1,2-c][1,3,2]benzoxazaborinine-6,6'-[3,1]benzimidazo[1,2-c][1,3,2]benzoxazaborinine] tetrahydrofuran solvate"
_symmetry_cell_setting           monoclinic
_symmetry_space_group_name_H-M   'C 2/c'
_symmetry_Int_Tables_number      15
_space_group_name_Hall           '-C 2yn'
loop_
_symmetry_equiv_pos_site_id
_symmetry_equiv_pos_as_xyz
1 x,y,z
2 -x,y,1/2-z
3 1/2+x,1/2+y,z
4 1/2-x,1/2+y,1/2-z
5 -x,-y,-z
6 x,-y,1/2+z
7 1/2-x,1/2-y,-z
8 1/2+x,1/2-y,1/2+z
_cell_length_a                   9.3404(4)
_cell_length_b                   19.8285(10)
_cell_length_c                   17.8985(9)
_cell_angle_alpha                90
_cell_angle_beta                 103.301(5)
_cell_angle_gamma                90
_cell_volume                     3225.99
_exptl_crystal_colour            colorless
_exptl_crystal_description       block
_cell_formula_units_Z            4
loop_
_atom_site_label
_atom_site_type_symbol
_atom_site_fract_x
_atom_site_fract_y
_atom_site_fract_z
N1 N 0.86117(18) 0.20548(11) 0.23166(11)
O1 O 0.99611(17) 0.29111(10) 0.31730(11)
N2 N 0.64122(19) 0.16516(11) 0.23894(11)
C1 C 0.8813(3) 0.29583(14) 0.35088(15)
C2 C 0.7495(2) 0.20798(13) 0.26800(13)
C3 C 0.8197(2) 0.15757(13) 0.17278(14)
C4 C 0.6826(2) 0.13269(13) 0.17867(13)
C5 C 0.7562(2) 0.25529(13) 0.33051(13)
C6 C 0.6420(3) 0.26153(15) 0.36892(15)
H1 H 0.5599 0.2337 0.3554
O2 O 0.5437(2) 0.31738(14) 0.46661(13)
B1 B 1.0000 0.2503(2) 0.2500
C7 C 0.6089(3) 0.08438(15) 0.12722(16)
H2 H 0.5183 0.0672 0.1311
C8 C 0.8868(3) 0.13621(16) 0.11573(15)
H3 H 0.9777 0.1528 0.1116
C9 C 0.8887(3) 0.34319(17) 0.40973(17)
H4 H 0.9709 0.3708 0.4242
C10 C 0.7743(3) 0.34887(18) 0.44622(19)
H5 H 0.7800 0.3805 0.4851
C11 C 0.8108(3) 0.08856(17) 0.06484(17)
H6 H 0.8524 0.0732 0.0255
C12 C 0.6498(3) 0.30773(17) 0.42559(17)
C13 C 0.6764(3) 0.06327(17) 0.07043(17)
H7 H 0.6301 0.0312 0.0351
C14 C 0.4144(4) 0.2763(2) 0.4449(2)
H8 H 0.3680 0.2844 0.3920
H9 H 0.3474 0.2873 0.4764
H10 H 0.4415 0.2296 0.4517
N1A N 1.13883(18) 0.20548(11) 0.26834(11)
O1A O 1.00389(17) 0.29111(10) 0.18270(11)
N2A N 1.35878(19) 0.16516(11) 0.26106(11)
C1A C 1.1187(3) 0.29583(14) 0.14912(15)
C2A C 1.2505(2) 0.20798(13) 0.23200(13)
C3A C 1.1803(2) 0.15757(13) 0.32722(14)
C4A C 1.3174(2) 0.13269(13) 0.32133(13)
C5A C 1.2438(2) 0.25529(13) 0.16949(13)
C6A C 1.3580(3) 0.26153(15) 0.13108(15)
H1A H 1.4401 0.2337 0.1446
O2A O 1.4563(2) 0.31738(14) 0.03339(13)
C7A C 1.3911(3) 0.08438(15) 0.37278(16)
H2A H 1.4817 0.0672 0.3689
C8A C 1.1132(3) 0.13621(16) 0.38427(15)
H3A H 1.0223 0.1528 0.3884
C9A C 1.1113(3) 0.34319(17) 0.09027(17)
H4A H 1.0291 0.3708 0.0758
C10A C 1.2257(3) 0.34887(18) 0.05378(19)
H5A H 1.2200 0.3805 0.0149
C11A C 1.1892(3) 0.08856(17) 0.43516(17)
H6A H 1.1476 0.0732 0.4745
C12A C 1.3502(3) 0.30773(17) 0.07441(17)
C13A C 1.3236(3) 0.06327(17) 0.42957(17)
H7A H 1.3699 0.0312 0.4649
C14A C 1.5856(4) 0.2763(2) 0.0551(2)
H8A H 1.6320 0.2844 0.1080
H9A H 1.6526 0.2873 0.0236
H10A H 1.5585 0.2296 0.0483
O3 O 0.2999(4) -0.0138(3) 0.1207(3)
C15 C 0.307(2) -0.0677(9) 0.1763(15)
H11 H 0.3048 -0.1107 0.1502
H12 H 0.4002 -0.0647 0.2139
C16 C 0.200(4) -0.0655(11) 0.2115(19)
H13 H 0.2381 -0.0606 0.2665
H14 H 0.1415 -0.1063 0.2019
C17 C 0.1089(19) -0.0039(8) 0.1783(9)
H15 H 0.0063 -0.0160 0.1594
H16 H 0.1159 0.0312 0.2167
C18 C 0.1702(17) 0.0170(9) 0.1190(8)
H17 H 0.1023 0.0073 0.0705
H18 H 0.1853 0.0654 0.1224
C19? C 0.184(2) 0.0250(11) 0.1239(15)
H19? H 0.1415 0.0467 0.0752
H20? H 0.2066 0.0584 0.1644
C20? C 0.081(2) -0.0351(13) 0.1434(16)
H21? H -0.0092 -0.0186 0.1546
H22? H 0.0597 -0.0690 0.1033
C21? C 0.188(3) -0.0589(18) 0.2128(17)
H23? H 0.1996 -0.1075 0.2138
H24? H 0.1642 -0.0435 0.2599
C22? C 0.329(2) -0.020(2) 0.1948(14)
H25? H 0.3415 0.0236 0.2196
H26? H 0.4178 -0.0464 0.2129
H27? H 0.5617 0.1589 0.2544
loop_
_geom_bond_atom_site_label_1
_geom_bond_atom_site_label_2
_geom_bond_site_symmetry_1
_geom_bond_site_symmetry_2
N1 C2 1_555 1_555
O1 C1 1_555 1_555
N2 C2 1_555 1_555
C1 C5 1_555 1_555
C2 C5 1_555 1_555
C3 N1 1_555 1_555
C4 N2 1_555 1_555
C5 C6 1_555 1_555
C6 H1 1_555 1_555
O2 C12 1_555 1_555
B1 N1 1_555 1_555
C7 C4 1_555 1_555
H2 C7 1_555 1_555
C8 C3 1_555 1_555
H3 C8 1_555 1_555
C9 C1 1_555 1_555
H4 C9 1_555 1_555
C10 C9 1_555 1_555
H5 C10 1_555 1_555
C11 C8 1_555 1_555
H6 C11 1_555 1_555
C12 C6 1_555 1_555
C13 C7 1_555 1_555
H7 C13 1_555 1_555
C14 O2 1_555 1_555
H8 C14 1_555 1_555
H9 C14 1_555 1_555
H10 C14 1_555 1_555
O3 C15 1_555 1_555
C15 H11 1_555 1_555
H12 C15 1_555 1_555
C16 C15 1_555 1_555
H13 C16 1_555 1_555
H14 C16 1_555 1_555
C17 C16 1_555 1_555
H15 C17 1_555 1_555
H16 C17 1_555 1_555
C18 O3 1_555 1_555
H17 C18 1_555 1_555
H18 C18 1_555 1_555
N1A B1 1_555 1_555
O1A B1 1_555 1_555
N2A C2A 1_555 1_555
C1A O1A 1_555 1_555
C2A N1A 1_555 1_555
C3A N1A 1_555 1_555
C4A N2A 1_555 1_555
C5A C1A 1_555 1_555
C6A C5A 1_555 1_555
H1A C6A 1_555 1_555
O2A C12A 1_555 1_555
C7A C4A 1_555 1_555
H2A C7A 1_555 1_555
C8A C3A 1_555 1_555
H3A C8A 1_555 1_555
C9A C1A 1_555 1_555
H4A C9A 1_555 1_555
C10A C9A 1_555 1_555
H5A C10A 1_555 1_555
C11A C8A 1_555 1_555
H6A C11A 1_555 1_555
C12A C6A 1_555 1_555
C13A C7A 1_555 1_555
H7A C13A 1_555 1_555
C14A O2A 1_555 1_555
H8A C14A 1_555 1_555
H9A C14A 1_555 1_555
H10A C14A 1_555 1_555
O1 B1 1_555 1_555
C3 C4 1_555 1_555
C10 C12 1_555 1_555
C11 C13 1_555 1_555
C17 C18 1_555 1_555
C2A C5A 1_555 1_555
C3A C4A 1_555 1_555
C10A C12A 1_555 1_555
C11A C13A 1_555 1_555

#END
