
#######################################################################
#
#                 Cambridge Crystallographic Data Centre
#                                CCDC 
#
#######################################################################
#
# If this CIF has been generated from an entry in the Cambridge 
# Structural Database, then it will include bibliographic, chemical, 
# crystal, experimental, refinement or atomic coordinate data resulting 
# from the CCDC's data processing and validation procedures.
#
#######################################################################

data_WEFRAD
_chemical_formula_moiety         'C14 H10 Cl1 F1 N4 O4'
_chemical_name_systematic        
'(E)-1-[1-(3-chloro-4-fluoro-phenyl)ethylidene]- 2-(2,4-dinitrophenyl)hydrazine'
_symmetry_cell_setting           triclinic
_symmetry_space_group_name_H-M   'P -1'
_symmetry_Int_Tables_number      2
_space_group_name_Hall           '-P 1'
loop_
_symmetry_equiv_pos_site_id
_symmetry_equiv_pos_as_xyz
1 x,y,z
2 -x,-y,-z
_cell_length_a                   9.045(3)
_cell_length_b                   10.907(4)
_cell_length_c                   15.351(5)
_cell_angle_alpha                93.416(7)
_cell_angle_beta                 95.771(7)
_cell_angle_gamma                95.915(6)
_cell_volume                     1494.99
_exptl_crystal_colour            red
_exptl_crystal_description       needle
_cell_formula_units_Z            4
loop_
_atom_site_label
_atom_site_type_symbol
_atom_site_fract_x
_atom_site_fract_y
_atom_site_fract_z
C1 C -0.2575(6) 0.5009(5) 0.5060(4)
C2 C -0.2260(6) 0.4888(5) 0.5937(4)
H1 H -0.2682 0.5365 0.6347
C3 C -0.1299(6) 0.4038(5) 0.6203(4)
C4 C -0.0650(6) 0.3303(5) 0.5585(4)
C5 C -0.1041(6) 0.3466(5) 0.4701(4)
H2 H -0.0648 0.2986 0.4278
C6 C -0.1977(6) 0.4301(5) 0.4435(4)
H3 H -0.2212 0.4395 0.3841
C7 C 0.1716(6) 0.0961(5) 0.5509(4)
C8 C 0.2081(8) 0.0769(6) 0.6470(4)
H4 H 0.2552 0.1529 0.6770
H5 H 0.2747 0.0142 0.6530
H6 H 0.1177 0.0516 0.6720
C9 C 0.2348(6) 0.0212(5) 0.4828(4)
C10 C 0.2080(6) 0.0419(5) 0.3944(4)
H7 H 0.1527 0.1058 0.3782
C11 C 0.2614(7) -0.0297(6) 0.3304(4)
C12 C 0.3466(7) -0.1225(6) 0.3535(5)
C13 C 0.3787(6) -0.1436(5) 0.4409(5)
H8 H 0.4385 -0.2050 0.4566
C14 C 0.3220(6) -0.0738(5) 0.5050(4)
H9 H 0.3418 -0.0898 0.5636
Cl1 Cl 0.2240(2) -0.00958(17) 0.22086(12)
F1 F 0.3993(4) -0.1930(3) 0.2909(3)
N1 N -0.3556(5) 0.5935(5) 0.4779(4)
N2 N -0.1010(6) 0.3947(5) 0.7143(3)
N3 N 0.0292(5) 0.2470(4) 0.5834(3)
H10 H 0.0521 0.2386 0.6383
N4 N 0.0886(5) 0.1756(4) 0.5217(3)
O1 O -0.3742(5) 0.6087(4) 0.3993(3)
O2 O -0.4125(5) 0.6522(4) 0.5337(3)
O3 O -0.1658(5) 0.4570(4) 0.7636(3)
O4 O -0.0109(5) 0.3247(4) 0.7405(3)
C15 C -0.0364(6) 0.7959(5) 0.9951(4)
C16 C -0.0219(6) 0.7811(5) 0.9072(4)
H11 H -0.0681 0.8302 0.8676
C17 C 0.0631(6) 0.6917(5) 0.8790(3)
C18 C 0.1356(6) 0.6170(5) 0.9363(4)
C19 C 0.1178(6) 0.6363(5) 1.0264(4)
H12 H 0.1634 0.5878 1.0667
C20 C 0.0346(6) 0.7253(5) 1.0552(4)
H13 H 0.0258 0.7385 1.1148
C21 C 0.3661(6) 0.3754(5) 0.9437(4)
C22 C 0.3896(7) 0.3497(6) 0.8496(4)
H14 H 0.2948 0.3259 0.8157
H15 H 0.4518 0.2839 0.8449
H16 H 0.4373 0.4227 0.8279
C23 C 0.4331(6) 0.3031(5) 1.0129(4)
C24 C 0.4136(6) 0.3279(5) 1.1000(4)
H17 H 0.3563 0.3906 1.1146
C25 C 0.4757(7) 0.2636(6) 1.1658(4)
C26 C 0.5619(7) 0.1698(6) 1.1439(5)
C27 C 0.5837(7) 0.1432(6) 1.0582(5)
H18 H 0.6421 0.0811 1.0440
C28 C 0.5199(6) 0.2077(5) 0.9935(4)
H19 H 0.5342 0.1879 0.9354
Cl2 Cl 0.4539(2) 0.29716(18) 1.27382(12)
F2 F 0.6255(4) 0.1072(4) 1.2078(3)
N5 N -0.1270(5) 0.8909(5) 1.0256(4)
N6 N 0.0738(6) 0.6797(5) 0.7851(3)
N7 N 0.2197(5) 0.5274(4) 0.9105(3)
H20 H 0.2310 0.5141 0.8559
N8 N 0.2862(5) 0.4587(4) 0.9720(3)
O5 O -0.1789(5) 0.9567(4) 0.9724(3)
O6 O -0.1449(5) 0.8961(4) 1.1041(3)
O7 O 0.0058(6) 0.7455(5) 0.7378(3)
O8 O 0.1513(5) 0.6030(4) 0.7567(3)
loop_
_geom_bond_atom_site_label_1
_geom_bond_atom_site_label_2
_geom_bond_site_symmetry_1
_geom_bond_site_symmetry_2
C1 C2 1_555 1_555
C2 H1 1_555 1_555
C3 C2 1_555 1_555
C4 C3 1_555 1_555
C5 C4 1_555 1_555
H2 C5 1_555 1_555
C6 C1 1_555 1_555
H3 C6 1_555 1_555
C7 C8 1_555 1_555
C8 H4 1_555 1_555
H5 C8 1_555 1_555
H6 C8 1_555 1_555
C9 C7 1_555 1_555
C10 C9 1_555 1_555
H7 C10 1_555 1_555
C11 C10 1_555 1_555
C12 C11 1_555 1_555
C13 C12 1_555 1_555
H8 C13 1_555 1_555
C14 C9 1_555 1_555
H9 C14 1_555 1_555
Cl1 C11 1_555 1_555
F1 C12 1_555 1_555
N1 C1 1_555 1_555
N2 C3 1_555 1_555
N3 C4 1_555 1_555
H10 N3 1_555 1_555
N4 C7 1_555 1_555
O1 N1 1_555 1_555
O2 N1 1_555 1_555
O3 N2 1_555 1_555
O4 N2 1_555 1_555
C15 C16 1_555 1_555
C16 H11 1_555 1_555
C17 C16 1_555 1_555
C18 C17 1_555 1_555
C19 C18 1_555 1_555
H12 C19 1_555 1_555
C20 C15 1_555 1_555
H13 C20 1_555 1_555
C21 C22 1_555 1_555
C22 H14 1_555 1_555
H15 C22 1_555 1_555
H16 C22 1_555 1_555
C23 C21 1_555 1_555
C24 C23 1_555 1_555
H17 C24 1_555 1_555
C25 C24 1_555 1_555
C26 C25 1_555 1_555
C27 C26 1_555 1_555
H18 C27 1_555 1_555
C28 C23 1_555 1_555
H19 C28 1_555 1_555
Cl2 C25 1_555 1_555
F2 C26 1_555 1_555
N5 C15 1_555 1_555
N6 C17 1_555 1_555
N7 C18 1_555 1_555
H20 N7 1_555 1_555
N8 C21 1_555 1_555
O5 N5 1_555 1_555
O6 N5 1_555 1_555
O7 N6 1_555 1_555
O8 N6 1_555 1_555
C5 C6 1_555 1_555
C13 C14 1_555 1_555
N3 N4 1_555 1_555
C19 C20 1_555 1_555
C27 C28 1_555 1_555
N7 N8 1_555 1_555

#END
