
#######################################################################
#
#                 Cambridge Crystallographic Data Centre
#                                CCDC 
#
#######################################################################
#
# If this CIF has been generated from an entry in the Cambridge 
# Structural Database, then it will include bibliographic, chemical, 
# crystal, experimental, refinement or atomic coordinate data resulting 
# from the CCDC's data processing and validation procedures.
#
#######################################################################

data_WEFRIK
_chemical_name_common            '(-)-gochnatiolide C dichloromethane solvate'
_chemical_formula_moiety         'C30 H30 O6,C1 H2 Cl2'
_chemical_name_systematic        
"1',3,6,8'-tetrakis(methylene)-3a,4,5,5',5a',6,6',6a,7,7',7a',8',9a,9b,10a',10b'-hexadecahydro-2H-spiro[azuleno[4,5-b]furan-9,3'-benzo[1,8]azuleno[4,5-b]furan]-2,2',8,9'(1'H,3H,4'H)-tetrone dichloromethane solvate"
_symmetry_cell_setting           orthorhombic
_symmetry_space_group_name_H-M   'P 21 21 21'
_symmetry_Int_Tables_number      19
_space_group_name_Hall           'P 2ac 2ab'
loop_
_symmetry_equiv_pos_site_id
_symmetry_equiv_pos_as_xyz
1 x,y,z
2 1/2-x,-y,1/2+z
3 -x,1/2+y,1/2-z
4 1/2+x,1/2-y,-z
_cell_length_a                   8.6537(12)
_cell_length_b                   12.5475(17)
_cell_length_c                   25.388(3)
_cell_angle_alpha                90
_cell_angle_beta                 90
_cell_angle_gamma                90
_cell_volume                     2756.69
_exptl_crystal_colour            colorless
_exptl_crystal_description       block
_cell_formula_units_Z            4
loop_
_atom_site_label
_atom_site_type_symbol
_atom_site_fract_x
_atom_site_fract_y
_atom_site_fract_z
Cl1 Cl 0.1432(3) 0.0536(2) 0.08509(10)
Cl2 Cl 0.1283(4) 0.2070(3) 0.16993(14)
C31 C 0.1891(11) 0.0825(8) 0.1522(4)
H31 H 0.1394 0.0289 0.1753
H32 H 0.3023 0.0773 0.1573
O1 O 0.5321(5) 0.4539(4) 0.03948(15)
O2 O 0.4360(5) 0.4387(3) 0.12123(14)
O3 O 0.0461(5) 0.3976(4) 0.28015(18)
O4 O 0.2006(6) 0.1452(4) 0.31320(19)
O5 O 0.4205(5) 0.5308(3) 0.39234(14)
O6 O 0.5114(6) 0.6947(4) 0.40512(18)
C1 C 0.5510(7) 0.4301(5) 0.0854(2)
C2 C 0.6947(7) 0.3928(5) 0.1115(2)
C3 C 0.6606(7) 0.3852(5) 0.1702(2)
H1 H 0.6983 0.4516 0.1878
C4 C 0.4818(7) 0.3860(5) 0.17036(19)
H2 H 0.4421 0.3111 0.1707
C5 C 0.8228(9) 0.3789(7) 0.0855(3)
H3 H 0.8263 0.3928 0.0488
H4 H 0.9129 0.3549 0.1034
C6 C 0.7339(8) 0.2899(6) 0.1971(2)
H5 H 0.8442 0.3060 0.2038
H6 H 0.7296 0.2283 0.1728
C7 C 0.6566(8) 0.2582(5) 0.2496(2)
H7 H 0.5649 0.2137 0.2417
H8 H 0.7299 0.2136 0.2699
C8 C 0.6061(7) 0.3507(5) 0.2840(2)
H9 H 0.6804 0.4106 0.2781
C9 C 0.4484(7) 0.3885(5) 0.2675(2)
C10 C 0.4147(7) 0.4474(5) 0.2170(2)
H10 H 0.4633 0.5196 0.2186
C11 C 0.6043(7) 0.3264(6) 0.3426(2)
H11 H 0.6005 0.3943 0.3625
H12 H 0.7014 0.2895 0.3522
C12 C 0.4663(7) 0.2567(5) 0.3590(2)
H13 H 0.4733 0.2415 0.3972
H14 H 0.4719 0.1879 0.3400
C13 C 0.3081(7) 0.3104(5) 0.3472(2)
C14 C 0.3189(7) 0.3673(4) 0.2949(2)
C15 C 0.1837(7) 0.4068(5) 0.2660(2)
C16 C 0.2403(7) 0.4593(5) 0.2174(2)
C17 C 0.1492(8) 0.5085(6) 0.1838(2)
H15 H 0.0411 0.5115 0.1901
H16 H 0.1915 0.5409 0.1532
C18 C 0.2389(6) 0.3846(5) 0.3913(2)
H17 H 0.1731 0.4386 0.3730
C19 C 0.1273(7) 0.3134(5) 0.4244(2)
H18 H 0.0397 0.3594 0.4364
C20 C 0.0634(7) 0.2353(6) 0.3832(3)
H19 H 0.0351 0.1668 0.4000
H20 H -0.0294 0.2654 0.3659
C21 C 0.1897(7) 0.2192(6) 0.3440(2)
C22 C 0.3533(7) 0.4453(5) 0.4236(2)
H21 H 0.4371 0.3960 0.4355
C23 C 0.2797(6) 0.4996(5) 0.4724(2)
H22 H 0.1667 0.5100 0.4660
C24 C 0.3020(8) 0.4315(6) 0.5212(2)
H23 H 0.2781 0.4750 0.5527
H24 H 0.4119 0.4101 0.5234
C25 C 0.2005(8) 0.3303(6) 0.5221(2)
H25 H 0.2347 0.2851 0.5518
H26 H 0.0926 0.3521 0.5293
C26 C 0.2013(7) 0.2642(5) 0.4733(2)
C27 C 0.2502(8) 0.1633(5) 0.4739(3)
H27 H 0.2854 0.1322 0.5058
H28 H 0.2497 0.1226 0.4423
C28 C 0.4404(7) 0.6222(5) 0.4216(2)
C29 C 0.3594(7) 0.6067(5) 0.4728(2)
C30 C 0.3557(10) 0.6832(6) 0.5092(3)
H29 H 0.4055 0.7494 0.5029
H30 H 0.3033 0.6714 0.5416
loop_
_geom_bond_atom_site_label_1
_geom_bond_atom_site_label_2
_geom_bond_site_symmetry_1
_geom_bond_site_symmetry_2
Cl1 C31 1_555 1_555
Cl2 C31 1_555 1_555
O1 C1 1_555 1_555
O2 C1 1_555 1_555
O3 C15 1_555 1_555
O4 C21 1_555 1_555
O5 C22 1_555 1_555
O6 C28 1_555 1_555
C1 C2 1_555 1_555
C2 C3 1_555 1_555
C3 H1 1_555 1_555
C4 O2 1_555 1_555
H2 C4 1_555 1_555
C5 C2 1_555 1_555
H3 C5 1_555 1_555
H4 C5 1_555 1_555
C6 C3 1_555 1_555
H5 C6 1_555 1_555
H6 C6 1_555 1_555
C7 C6 1_555 1_555
H7 C7 1_555 1_555
H8 C7 1_555 1_555
C8 C7 1_555 1_555
H9 C8 1_555 1_555
C9 C8 1_555 1_555
C10 C4 1_555 1_555
H10 C10 1_555 1_555
C11 C8 1_555 1_555
H11 C11 1_555 1_555
H12 C11 1_555 1_555
C12 C11 1_555 1_555
H13 C12 1_555 1_555
H14 C12 1_555 1_555
C13 C12 1_555 1_555
C14 C9 1_555 1_555
C15 C14 1_555 1_555
C16 C10 1_555 1_555
C17 C16 1_555 1_555
H15 C17 1_555 1_555
H16 C17 1_555 1_555
C18 C13 1_555 1_555
H17 C18 1_555 1_555
C19 C18 1_555 1_555
H18 C19 1_555 1_555
C20 C19 1_555 1_555
H19 C20 1_555 1_555
H20 C20 1_555 1_555
C21 C13 1_555 1_555
C22 C18 1_555 1_555
H21 C22 1_555 1_555
C23 C22 1_555 1_555
H22 C23 1_555 1_555
C24 C23 1_555 1_555
H23 C24 1_555 1_555
H24 C24 1_555 1_555
C25 C24 1_555 1_555
H25 C25 1_555 1_555
H26 C25 1_555 1_555
C26 C19 1_555 1_555
C27 C26 1_555 1_555
H27 C27 1_555 1_555
H28 C27 1_555 1_555
C28 O5 1_555 1_555
C29 C23 1_555 1_555
C30 C29 1_555 1_555
H29 C30 1_555 1_555
H30 C30 1_555 1_555
C31 H31 1_555 1_555
H32 C31 1_555 1_555
C3 C4 1_555 1_555
C9 C10 1_555 1_555
C13 C14 1_555 1_555
C15 C16 1_555 1_555
C20 C21 1_555 1_555
C25 C26 1_555 1_555
C28 C29 1_555 1_555

#END
