
#######################################################################
#
#                 Cambridge Crystallographic Data Centre
#                                CCDC 
#
#######################################################################
#
# If this CIF has been generated from an entry in the Cambridge 
# Structural Database, then it will include bibliographic, chemical, 
# crystal, experimental, refinement or atomic coordinate data resulting 
# from the CCDC's data processing and validation procedures.
#
#######################################################################

data_WEFSEG
_chemical_formula_moiety         'C9 H13 N3 O2'
_chemical_name_systematic        N,N-Diethyl-5-nitropyridine-2-amine
_symmetry_cell_setting           monoclinic
_symmetry_space_group_name_H-M   'P 21/c'
_symmetry_Int_Tables_number      14
_space_group_name_Hall           '-P 2ybc'
loop_
_symmetry_equiv_pos_site_id
_symmetry_equiv_pos_as_xyz
1 x,y,z
2 -x,1/2+y,1/2-z
3 -x,-y,-z
4 x,1/2-y,1/2+z
_cell_length_a                   14.6723(7)
_cell_length_b                   10.6920(5)
_cell_length_c                   12.4224(5)
_cell_angle_alpha                90
_cell_angle_beta                 96.8200(10)
_cell_angle_gamma                90
_cell_volume                     1934.99
_exptl_crystal_colour            yellow
_exptl_crystal_description       block
_chemical_melting_point          '440 K'
_cell_formula_units_Z            8
loop_
_atom_site_label
_atom_site_type_symbol
_atom_site_fract_x
_atom_site_fract_y
_atom_site_fract_z
O1 O 0.88641(7) 1.16690(10) -0.20267(7)
O2 O 0.85357(7) 1.31005(9) -0.08920(8)
N1 N 0.86987(8) 1.20006(11) -0.11143(9)
N2 N 0.88886(7) 0.89231(10) 0.02259(8)
N3 N 0.87939(7) 0.83105(9) 0.19895(8)
C1 C 0.86994(8) 1.10729(12) -0.02779(10)
C2 C 0.85663(8) 1.14175(12) 0.07749(10)
C3 C 0.85941(8) 1.05069(11) 0.15475(10)
C4 C 0.87580(8) 0.92429(11) 0.12583(10)
C5 C 0.88623(9) 0.98302(12) -0.05055(10)
C6 C 0.90970(9) 0.70469(12) 0.17327(11)
C7 C 0.83026(10) 0.61517(13) 0.14346(12)
C8 C 0.86461(9) 0.85407(13) 0.31190(10)
C9 C 0.95032(10) 0.89981(14) 0.38086(11)
H1 H 0.8458(9) 1.2287(13) 0.0962(11)
H2 H 0.8547(10) 1.0713(13) 0.2259(11)
H3 H 0.8977(9) 0.9588(14) -0.1233(12)
H4 H 0.9503(10) 0.6739(13) 0.2380(12)
H5 H 0.9477(9) 0.7122(12) 0.1149(11)
H6 H 0.7969(11) 0.6413(14) 0.0736(13)
H7 H 0.8559(10) 0.5284(15) 0.1329(12)
H8 H 0.7881(10) 0.6140(13) 0.1993(12)
H9 H 0.8431(9) 0.7764(13) 0.3393(10)
H10 H 0.8137(9) 0.9168(13) 0.3140(10)
H11 H 0.9978(12) 0.8369(16) 0.3803(13)
H12 H 0.9758(10) 0.9807(15) 0.3509(12)
H13 H 0.9373(11) 0.9131(15) 0.4526(14)
O3 O 0.35252(8) 1.16353(10) 1.18822(7)
O4 O 0.34599(7) 1.31229(9) 1.06912(7)
N4 N 0.35337(7) 1.20055(10) 1.09402(8)
N5 N 0.39111(7) 0.89809(9) 0.96485(9)
N6 N 0.38857(7) 0.83972(9) 0.78584(8)
C10 C 0.36342(8) 1.11063(11) 1.01067(9)
C11 C 0.35764(8) 1.14762(11) 0.90234(10)
C12 C 0.36722(8) 1.05862(11) 0.82571(10)
C13 C 0.38215(8) 0.93229(11) 0.85857(10)
C14 C 0.38127(8) 0.98655(12) 1.03757(10)
C15 C 0.41529(9) 0.71269(12) 0.82107(12)
C16 C 0.33357(10) 0.62959(14) 0.83556(14)
C17 C 0.37213(10) 0.86210(13) 0.66905(10)
C18 C 0.45757(11) 0.90510(15) 0.62215(12)
H14 H 0.3491(9) 1.2342(12) 0.8839(10)
H15 H 0.3659(9) 1.0812(13) 0.7504(11)
H16 H 0.3891(9) 0.9642(13) 1.1136(11)
H17 H 0.4578(10) 0.7189(13) 0.8895(11)
H18 H 0.4534(10) 0.6804(13) 0.7657(12)
H19 H 0.3047(11) 0.6582(15) 0.8981(13)
H20 H 0.3546(11) 0.5419(17) 0.8529(13)
H21 H 0.2913(11) 0.6265(15) 0.7689(13)
H22 H 0.3220(10) 0.9221(13) 0.6533(11)
H23 H 0.3488(10) 0.7821(14) 0.6362(11)
H24 H 0.5053(12) 0.8409(16) 0.6329(13)
H25 H 0.4821(11) 0.9817(16) 0.6565(12)
H26 H 0.4438(10) 0.9218(14) 0.5436(13)
loop_
_geom_bond_atom_site_label_1
_geom_bond_atom_site_label_2
_geom_bond_site_symmetry_1
_geom_bond_site_symmetry_2
O1 N1 1_555 1_555
O2 N1 1_555 1_555
O3 N4 1_555 1_555
O4 N4 1_555 1_555
N1 C1 1_555 1_555
N2 C4 1_555 1_555
N3 C4 1_555 1_555
N4 C10 1_555 1_555
N5 C13 1_555 1_555
N6 C13 1_555 1_555
C1 C2 1_555 1_555
C2 C3 1_555 1_555
C3 C4 1_555 1_555
C5 N2 1_555 1_555
C6 N3 1_555 1_555
C7 C6 1_555 1_555
C8 N3 1_555 1_555
C9 C8 1_555 1_555
C10 C11 1_555 1_555
C11 C12 1_555 1_555
C12 C13 1_555 1_555
C14 N5 1_555 1_555
C15 N6 1_555 1_555
C16 C15 1_555 1_555
C17 N6 1_555 1_555
C18 C17 1_555 1_555
H1 C2 1_555 1_555
H2 C3 1_555 1_555
H3 C5 1_555 1_555
H4 C6 1_555 1_555
H5 C6 1_555 1_555
H6 C7 1_555 1_555
H7 C7 1_555 1_555
H8 C7 1_555 1_555
H9 C8 1_555 1_555
H10 C8 1_555 1_555
H11 C9 1_555 1_555
H12 C9 1_555 1_555
H13 C9 1_555 1_555
H14 C11 1_555 1_555
H15 C12 1_555 1_555
H16 C14 1_555 1_555
H17 C15 1_555 1_555
H18 C15 1_555 1_555
H19 C16 1_555 1_555
H20 C16 1_555 1_555
H21 C16 1_555 1_555
H22 C17 1_555 1_555
H23 C17 1_555 1_555
H24 C18 1_555 1_555
H25 C18 1_555 1_555
H26 C18 1_555 1_555
C1 C5 1_555 1_555
C10 C14 1_555 1_555

#END
