
#######################################################################
#
#                 Cambridge Crystallographic Data Centre
#                                CCDC 
#
#######################################################################
#
# If this CIF has been generated from an entry in the Cambridge 
# Structural Database, then it will include bibliographic, chemical, 
# crystal, experimental, refinement or atomic coordinate data resulting 
# from the CCDC's data processing and validation procedures.
#
#######################################################################

data_WEFSUX
_chemical_formula_moiety         'C13 H15 O4 P1'
_chemical_name_systematic        
'(R)-(1-(6-Methoxy-2-naphthyl)ethyl)phosphonic acid'
_symmetry_cell_setting           monoclinic
_symmetry_space_group_name_H-M   'P 21'
_symmetry_Int_Tables_number      4
_space_group_name_Hall           'P 2yb'
loop_
_symmetry_equiv_pos_site_id
_symmetry_equiv_pos_as_xyz
1 x,y,z
2 -x,1/2+y,-z
_cell_length_a                   8.2186(11)
_cell_length_b                   6.2179(9)
_cell_length_c                   12.3208(17)
_cell_angle_alpha                90
_cell_angle_beta                 96.635(3)
_cell_angle_gamma                90
_cell_volume                     625.406
_exptl_crystal_colour            colorless
_exptl_crystal_description       prismatic
_cell_formula_units_Z            2
loop_
_atom_site_label
_atom_site_type_symbol
_atom_site_fract_x
_atom_site_fract_y
_atom_site_fract_z
P1 P 0.85280(5) 0.79753(9) 0.40426(3)
O1 O 0.90574(18) 0.7419(3) 0.51969(11)
O2 O 0.86417(18) 1.0397(3) 0.37837(12)
O3 O 0.66955(18) 0.7385(3) 0.37246(13)
O4 O 0.52431(18) 0.5524(3) -0.28612(12)
C1 C 0.9700(2) 0.6502(3) 0.31457(15)
H1 H 0.9659 0.4982 0.3351
C2 C 1.1495(2) 0.7210(5) 0.33542(18)
H2 H 1.2111 0.6533 0.2833
H3 H 1.1938 0.6799 0.4080
H4 H 1.1561 0.8744 0.3281
C3 C 0.8991(2) 0.6670(3) 0.19550(16)
C4 C 0.9274(3) 0.8500(3) 0.13279(16)
H5 H 0.9896 0.9626 0.1653
C5 C 0.8654(2) 0.8655(3) 0.02551(16)
H6 H 0.8883 0.9864 -0.0145
C6 C 0.7673(2) 0.7006(3) -0.02530(16)
C7 C 0.6971(2) 0.7150(4) -0.13607(16)
H7 H 0.7170 0.8348 -0.1777
C8 C 0.6009(2) 0.5535(4) -0.18077(16)
C9 C 0.5710(2) 0.3684(4) -0.11961(17)
H8 H 0.5055 0.2585 -0.1518
C10 C 0.6375(2) 0.3509(3) -0.01452(16)
H9 H 0.6173 0.2284 0.0251
C11 C 0.7375(2) 0.5164(3) 0.03640(15)
C12 C 0.8060(2) 0.5043(3) 0.14659(15)
H10 H 0.7874 0.3822 0.1870
C13 C 0.5397(3) 0.7370(5) -0.3528(2)
H11 H 0.5011 0.8617 -0.3176
H12 H 0.4758 0.7169 -0.4223
H13 H 0.6527 0.7568 -0.3634
H14 H 0.618(3) 0.828(4) 0.3386(19)
H15 H 0.945(3) 1.104(5) 0.418(2)
loop_
_geom_bond_atom_site_label_1
_geom_bond_atom_site_label_2
_geom_bond_site_symmetry_1
_geom_bond_site_symmetry_2
P1 O1 1_555 1_555
O2 P1 1_555 1_555
O3 P1 1_555 1_555
O4 C8 1_555 1_555
C1 P1 1_555 1_555
H1 C1 1_555 1_555
C2 C1 1_555 1_555
H2 C2 1_555 1_555
H3 C2 1_555 1_555
H4 C2 1_555 1_555
C3 C1 1_555 1_555
C4 C3 1_555 1_555
H5 C4 1_555 1_555
C5 C4 1_555 1_555
H6 C5 1_555 1_555
C6 C5 1_555 1_555
C7 C6 1_555 1_555
H7 C7 1_555 1_555
C8 C7 1_555 1_555
C9 C8 1_555 1_555
H8 C9 1_555 1_555
C10 C9 1_555 1_555
H9 C10 1_555 1_555
C11 C6 1_555 1_555
C12 C3 1_555 1_555
H10 C12 1_555 1_555
C13 O4 1_555 1_555
H11 C13 1_555 1_555
H12 C13 1_555 1_555
H13 C13 1_555 1_555
H14 O3 1_555 1_555
H15 O2 1_555 1_555
C10 C11 1_555 1_555
C11 C12 1_555 1_555

#END
