
#######################################################################
#
#                 Cambridge Crystallographic Data Centre
#                                CCDC 
#
#######################################################################
#
# If this CIF has been generated from an entry in the Cambridge 
# Structural Database, then it will include bibliographic, chemical, 
# crystal, experimental, refinement or atomic coordinate data resulting 
# from the CCDC's data processing and validation procedures.
#
#######################################################################

data_WEFSOQ
_chemical_formula_moiety         'C22 H14 O6,2(C3 H6 O1)'
_chemical_name_systematic        '4,6-Dibenzoylisophthalic acid acetone solvate'
_symmetry_cell_setting           triclinic
_symmetry_space_group_name_H-M   'P -1'
_symmetry_Int_Tables_number      2
_space_group_name_Hall           '-P 1'
loop_
_symmetry_equiv_pos_site_id
_symmetry_equiv_pos_as_xyz
1 x,y,z
2 -x,-y,-z
_cell_length_a                   9.804(2)
_cell_length_b                   11.079(2)
_cell_length_c                   12.251(3)
_cell_angle_alpha                102.81(3)
_cell_angle_beta                 93.23(3)
_cell_angle_gamma                92.81(3)
_cell_volume                     1292.92
_exptl_crystal_colour            colorless
_exptl_crystal_description       block
_chemical_melting_point          '590.15 K'
_cell_formula_units_Z            2
loop_
_atom_site_label
_atom_site_type_symbol
_atom_site_fract_x
_atom_site_fract_y
_atom_site_fract_z
O1 O 0.6180(4) 0.8409(4) 0.5118(4)
C1 C 0.6774(5) 0.9397(5) 0.5244(5)
C2 C 0.7662(7) 0.9674(6) 0.4385(6)
H3 H 0.7546 0.9010 0.3728
H4 H 0.8600 0.9759 0.4676
H5 H 0.7416 1.0434 0.4194
C3 C 0.6652(7) 1.0351(7) 0.6240(6)
H6 H 0.6278 0.9987 0.6809
H7 H 0.6057 1.0956 0.6068
H8 H 0.7539 1.0745 0.6508
O2 O 0.0361(4) 0.1445(3) 0.3309(3)
C4 C 0.1535(7) 0.1587(6) 0.1725(5)
H9 H 0.2026 0.2292 0.2212
H10 H 0.0990 0.1858 0.1159
H11 H 0.2173 0.1019 0.1374
C5 C 0.0041(5) -0.0284(5) 0.1821(4)
H12 H -0.0402 -0.0661 0.2352
H13 H 0.0757 -0.0786 0.1511
H14 H -0.0616 -0.0215 0.1230
C6 C 0.0630(5) 0.0959(4) 0.2389(4)
O3 O 0.0003(3) 0.3607(3) 0.8889(3)
O4 O 0.0110(3) 0.2717(3) 0.6133(3)
O5 O 0.1042(3) 0.3559(3) 0.4840(2)
H1 H 0.0802 0.2884 0.4426
O6 O 0.4144(4) 0.8460(3) 0.7504(3)
O7 O 0.4256(3) 0.7073(3) 0.5911(2)
H2 H 0.4832 0.7583 0.5794
O8 O 0.2232(3) 0.8657(3) 0.9627(3)
C7 C -0.4453(5) 0.4152(5) 0.6931(4)
H15 H -0.5360 0.4138 0.6658
C8 C -0.3476(5) 0.4948(5) 0.6635(4)
H16 H -0.3725 0.5475 0.6174
C9 C -0.2115(4) 0.4949(4) 0.7036(4)
H17 H -0.1455 0.5481 0.6842
C10 C -0.1747(4) 0.4172(3) 0.7713(3)
C11 C -0.2754(5) 0.3388(4) 0.8018(4)
H18 H -0.2519 0.2867 0.8489
C12 C -0.4097(5) 0.3394(5) 0.7615(5)
H19 H -0.4765 0.2873 0.7816
C13 C -0.0303(4) 0.4152(4) 0.8166(3)
C14 C 0.0716(4) 0.3561(4) 0.5867(3)
C15 C 0.3793(4) 0.7475(4) 0.6907(4)
C16 C 0.0797(4) 0.4946(3) 0.7781(3)
C17 C 0.1235(4) 0.4716(3) 0.6689(3)
C18 C 0.2198(4) 0.5555(3) 0.6418(3)
H20 H 0.2466 0.5425 0.5687
C19 C 0.2760(4) 0.6572(4) 0.7205(3)
C20 C 0.2357(4) 0.6782(3) 0.8301(3)
C21 C 0.1360(4) 0.5961(4) 0.8569(3)
H21 H 0.1072 0.6105 0.9294
C22 C 0.2940(4) 0.7817(4) 0.9246(3)
C23 C 0.4344(4) 0.7724(3) 0.9749(3)
C24 C 0.5039(4) 0.6652(4) 0.9457(4)
H22 H 0.4636 0.5976 0.8927
C25 C 0.6338(5) 0.6579(4) 0.9954(4)
H23 H 0.6802 0.5858 0.9759
C26 C 0.6927(5) 0.7583(4) 1.0734(4)
H24 H 0.7795 0.7541 1.1066
C27 C 0.6246(5) 0.8648(4) 1.1028(4)
H25 H 0.6655 0.9326 1.1552
C28 C 0.4955(4) 0.8711(4) 1.0545(3)
H26 H 0.4490 0.9428 1.0759
loop_
_geom_bond_atom_site_label_1
_geom_bond_atom_site_label_2
_geom_bond_site_symmetry_1
_geom_bond_site_symmetry_2
O1 C1 1_555 1_555
O2 C6 1_555 1_555
O3 C13 1_555 1_555
O4 C14 1_555 1_555
O5 H1 1_555 1_555
O6 C15 1_555 1_555
O7 H2 1_555 1_555
O8 C22 1_555 1_555
C1 C2 1_555 1_555
C2 H3 1_555 1_555
H4 C2 1_555 1_555
H5 C2 1_555 1_555
C3 C1 1_555 1_555
H6 C3 1_555 1_555
H7 C3 1_555 1_555
H8 C3 1_555 1_555
C4 H9 1_555 1_555
H10 C4 1_555 1_555
H11 C4 1_555 1_555
C5 H12 1_555 1_555
H13 C5 1_555 1_555
H14 C5 1_555 1_555
C6 C4 1_555 1_555
C7 H15 1_555 1_555
C8 C7 1_555 1_555
H16 C8 1_555 1_555
C9 C8 1_555 1_555
H17 C9 1_555 1_555
C10 C9 1_555 1_555
C11 C10 1_555 1_555
H18 C11 1_555 1_555
C12 C7 1_555 1_555
H19 C12 1_555 1_555
C13 C10 1_555 1_555
C14 O5 1_555 1_555
C15 O7 1_555 1_555
C16 C13 1_555 1_555
C17 C14 1_555 1_555
C18 C17 1_555 1_555
H20 C18 1_555 1_555
C19 C15 1_555 1_555
C20 C19 1_555 1_555
C21 C16 1_555 1_555
H21 C21 1_555 1_555
C22 C20 1_555 1_555
C23 C22 1_555 1_555
C24 C23 1_555 1_555
H22 C24 1_555 1_555
C25 C24 1_555 1_555
H23 C25 1_555 1_555
C26 C25 1_555 1_555
H24 C26 1_555 1_555
C27 C26 1_555 1_555
H25 C27 1_555 1_555
C28 C23 1_555 1_555
H26 C28 1_555 1_555
C5 C6 1_555 1_555
C11 C12 1_555 1_555
C16 C17 1_555 1_555
C18 C19 1_555 1_555
C20 C21 1_555 1_555
C27 C28 1_555 1_555

#END
