
#######################################################################
#
#                 Cambridge Crystallographic Data Centre
#                                CCDC 
#
#######################################################################
#
# If this CIF has been generated from an entry in the Cambridge 
# Structural Database, then it will include bibliographic, chemical, 
# crystal, experimental, refinement or atomic coordinate data resulting 
# from the CCDC's data processing and validation procedures.
#
#######################################################################

data_WEFSOS
_chemical_name_common            
difluoro{2,2,2-trifluoro-1-[4-oxy-2H-1-benzopyran-3-yl]ethan-1-onato}boron
_chemical_formula_moiety         'C11 H6 B1 F5 O3'
_chemical_name_systematic        
2,2-difluoro-4-(trifluoromethyl)-2,5-dihydro-[1,3,2]dioxaborinino[5,4-c]chromen-3-ium-2-uide
_symmetry_cell_setting           orthorhombic
_symmetry_space_group_name_H-M   'P 21 21 2'
_symmetry_Int_Tables_number      18
_space_group_name_Hall           'P 2 2ab'
loop_
_symmetry_equiv_pos_site_id
_symmetry_equiv_pos_as_xyz
1 x,y,z
2 -x,-y,z
3 1/2+x,1/2-y,-z
4 1/2-x,1/2+y,-z
_cell_length_a                   13.236(4)
_cell_length_b                   18.566(5)
_cell_length_c                   4.7869(13)
_cell_angle_alpha                90
_cell_angle_beta                 90
_cell_angle_gamma                90
_cell_volume                     1176.33
_exptl_crystal_colour            colorless
_exptl_crystal_description       block
_cell_formula_units_Z            4
loop_
_atom_site_label
_atom_site_type_symbol
_atom_site_fract_x
_atom_site_fract_y
_atom_site_fract_z
B1 B 0.25429(19) 0.20745(13) 0.9912(6)
C1 C 0.2285(2) 0.43401(14) 0.8213(7)
H1 H 0.1851 0.4144 0.9538
C2 C 0.2154(3) 0.50363(15) 0.7309(8)
H2 H 0.1637 0.5317 0.8055
C3 C 0.2781(3) 0.53197(15) 0.5308(8)
H3 H 0.2679 0.5791 0.4709
C4 C 0.3555(3) 0.49259(16) 0.4168(7)
H4 H 0.3963 0.5125 0.2787
C5 C 0.37250(19) 0.42252(14) 0.5100(6)
C6 C 0.30814(17) 0.39286(12) 0.7115(5)
C7 C 0.32102(15) 0.31769(11) 0.7822(5)
C8 C 0.41015(15) 0.28217(12) 0.6940(5)
C9 C 0.49084(19) 0.32933(16) 0.5702(8)
H5 H 0.5288 0.3521 0.7194
H6 H 0.5372 0.2999 0.4625
C10 C 0.41183(15) 0.20923(12) 0.7270(5)
C11 C 0.4967(2) 0.16256(15) 0.6128(7)
F1 F 0.26734(13) 0.20434(8) 1.2711(3)
F2 F 0.16811(11) 0.17459(8) 0.9081(4)
F3 F 0.58543(12) 0.18456(13) 0.6933(6)
F4 F 0.4973(2) 0.1624(2) 0.3406(5)
F5 F 0.4891(2) 0.09550(11) 0.6998(10)
O1 O 0.44828(15) 0.38382(11) 0.3931(5)
O2 O 0.24879(12) 0.28501(8) 0.9056(4)
O3 O 0.34155(12) 0.17239(8) 0.8487(4)
F6? F 0.551(3) 0.136(2) 0.788(8)
F7? F 0.465(3) 0.113(2) 0.492(10)
F8? F 0.555(3) 0.191(2) 0.423(9)
loop_
_geom_bond_atom_site_label_1
_geom_bond_atom_site_label_2
_geom_bond_site_symmetry_1
_geom_bond_site_symmetry_2
B1 F1 1_555 1_555
C1 H1 1_555 1_555
C2 C1 1_555 1_555
H2 C2 1_555 1_555
C3 C2 1_555 1_555
H3 C3 1_555 1_555
C4 C3 1_555 1_555
H4 C4 1_555 1_555
C5 C4 1_555 1_555
C6 C1 1_555 1_555
C7 C6 1_555 1_555
C8 C7 1_555 1_555
C9 C8 1_555 1_555
H5 C9 1_555 1_555
H6 C9 1_555 1_555
C10 C8 1_555 1_555
C11 C10 1_555 1_555
F2 B1 1_555 1_555
F3 C11 1_555 1_555
F4 C11 1_555 1_555
F5 C11 1_555 1_555
O1 C5 1_555 1_555
O2 B1 1_555 1_555
O3 B1 1_555 1_555
C5 C6 1_555 1_555
C7 O2 1_555 1_555
C9 O1 1_555 1_555
C10 O3 1_555 1_555

#END
