
#######################################################################
#
#                 Cambridge Crystallographic Data Centre
#                                CCDC 
#
#######################################################################
#
# If this CIF has been generated from an entry in the Cambridge 
# Structural Database, then it will include bibliographic, chemical, 
# crystal, experimental, refinement or atomic coordinate data resulting 
# from the CCDC's data processing and validation procedures.
#
#######################################################################

data_WEFVIN02
_chemical_name_common            
'5-Fluoro-2,4-dioxo-1,2,3,4-tetrahydropyrimidine-1-acetic acid'
_chemical_formula_moiety         'C6 H5 F1 N2 O4'
_chemical_name_systematic        1-(Carboxymethyl)-5-fluorouracil
_symmetry_cell_setting           monoclinic
_symmetry_space_group_name_H-M   'P c'
_symmetry_Int_Tables_number      7
_space_group_name_Hall           'P -2yc'
loop_
_symmetry_equiv_pos_site_id
_symmetry_equiv_pos_as_xyz
1 x,y,z
2 x,-y,1/2+z
_cell_length_a                   6.809(4)
_cell_length_b                   4.840(3)
_cell_length_c                   11.946(7)
_cell_angle_alpha                90
_cell_angle_beta                 92.218(9)
_cell_angle_gamma                90
_cell_volume                     393.392
_exptl_crystal_colour            colorless
_exptl_crystal_description       prism
_cell_formula_units_Z            2
_exptl_crystal_recrystallization_method acetone
loop_
_atom_site_label
_atom_site_type_symbol
_atom_site_fract_x
_atom_site_fract_y
_atom_site_fract_z
F1 F -0.0373(7) -0.2785(12) 0.8215(5)
O1 O 0.5896(8) 0.3756(13) 0.8203(5)
O2 O 0.0272(8) 0.1213(12) 0.9853(4)
O3 O 0.3896(7) 0.3555(11) 0.5663(4)
O4 O 0.6827(13) 0.2288(18) 0.5011(8)
H1 H 0.6498 0.3303 0.4488
N1 N 0.4205(8) 0.0178(12) 0.7466(5)
N2 N 0.3075(8) 0.2427(15) 0.9007(5)
H2 H 0.3254 0.3686 0.9508
C1 C 0.4518(11) 0.2258(15) 0.8224(6)
C2 C 0.1388(10) 0.0870(15) 0.9099(6)
C3 C 0.1195(10) -0.1137(16) 0.8207(5)
C4 C 0.2555(12) -0.1477(16) 0.7452(6)
H3 H 0.2393 -0.2841 0.6908
C5 C 0.5662(11) -0.0101(16) 0.6602(6)
H4 H 0.5543 -0.1913 0.6259
H5 H 0.6973 0.0056 0.6945
C6 C 0.5375(10) 0.2102(15) 0.5711(5)
loop_
_geom_bond_atom_site_label_1
_geom_bond_atom_site_label_2
_geom_bond_site_symmetry_1
_geom_bond_site_symmetry_2
F1 C3 1_555 1_555
O1 C1 1_555 1_555
O2 C2 1_555 1_555
O3 C6 1_555 1_555
O4 H1 1_555 1_555
N1 C1 1_555 1_555
N2 H2 1_555 1_555
C1 N2 1_555 1_555
C2 N2 1_555 1_555
C3 C2 1_555 1_555
C4 N1 1_555 1_555
H3 C4 1_555 1_555
C5 N1 1_555 1_555
H4 C5 1_555 1_555
H5 C5 1_555 1_555
C6 O4 1_555 1_555
C3 C4 1_555 1_555
C5 C6 1_555 1_555

#END
