
#######################################################################
#
#                 Cambridge Crystallographic Data Centre
#                                CCDC 
#
#######################################################################
#
# If this CIF has been generated from an entry in the Cambridge 
# Structural Database, then it will include bibliographic, chemical, 
# crystal, experimental, refinement or atomic coordinate data resulting 
# from the CCDC's data processing and validation procedures.
#
#######################################################################

data_WEFVAF
_chemical_formula_moiety         'C20 H20 N4 O8'
_chemical_name_systematic        
'Methyl 2,6-bis(4,6-dimethoxypyrimidin-2-yloxy)benzoate'
_symmetry_cell_setting           monoclinic
_symmetry_space_group_name_H-M   'C 2/c'
_symmetry_Int_Tables_number      15
_space_group_name_Hall           '-C 2yn'
loop_
_symmetry_equiv_pos_site_id
_symmetry_equiv_pos_as_xyz
1 x,y,z
2 1/2+x,1/2+y,z
3 -x,y,1/2-z
4 1/2-x,1/2+y,1/2-z
5 -x,-y,-z
6 1/2-x,1/2-y,-z
7 x,-y,1/2+z
8 1/2+x,1/2-y,1/2+z
_cell_length_a                   29.00(3)
_cell_length_b                   7.776(7)
_cell_length_c                   22.34(2)
_cell_angle_alpha                90
_cell_angle_beta                 122.753(16)
_cell_angle_gamma                90
_cell_volume                     4236.81
_exptl_crystal_colour            colorless
_exptl_crystal_description       block
_cell_formula_units_Z            8
_exptl_crystal_recrystallization_method ethanol
loop_
_atom_site_label
_atom_site_type_symbol
_atom_site_fract_x
_atom_site_fract_y
_atom_site_fract_z
C1 C 0.06652(11) 0.4384(3) 0.36591(13)
H1 H 0.0304 0.4193 0.3249
H2 H 0.0689 0.3918 0.4073
H3 H 0.0929 0.3828 0.3592
C2 C 0.10270(14) 1.2182(3) 0.23053(15)
H4 H 0.1258 1.1555 0.2196
H5 H 0.1173 1.3315 0.2466
H6 H 0.0664 1.2264 0.1886
C3 C 0.07544(9) 0.7071(3) 0.32202(12)
C4 C 0.08795(11) 0.8797(3) 0.33215(13)
H7 H 0.0969 0.9365 0.3738
C5 C 0.08631(10) 0.9629(3) 0.27630(13)
C6 C 0.06103(9) 0.7203(3) 0.21318(12)
C7 C 0.04014(9) 0.7082(3) 0.09303(11)
C8 C -0.01177(10) 0.7078(3) 0.03292(12)
H8 H -0.0410 0.6659 0.0347
C9 C -0.02026(10) 0.7699(3) -0.03023(13)
H9 H -0.0555 0.7704 -0.0709
C10 C 0.02295(10) 0.8311(3) -0.03356(12)
H10 H 0.0171 0.8723 -0.0762
C11 C 0.07456(9) 0.8303(3) 0.02691(12)
C12 C 0.08490(9) 0.7716(3) 0.09262(11)
C13 C 0.14113(10) 0.7808(3) 0.15826(12)
C14 C 0.20985(12) 0.6274(4) 0.25767(15)
H11 H 0.2358 0.6359 0.2437
H12 H 0.2151 0.5207 0.2822
H13 H 0.2151 0.7215 0.2886
C15 C 0.16295(9) 0.8125(3) 0.04406(12)
C16 C 0.21137(10) 0.5705(3) 0.08429(12)
C17 C 0.25704(10) 0.6560(3) 0.09607(13)
H14 H 0.2910 0.6024 0.1165
C18 C 0.24935(10) 0.8260(3) 0.07566(12)
C19 C 0.16735(11) 0.3135(3) 0.08546(15)
H15 H 0.1509 0.3736 0.1069
H16 H 0.1768 0.1990 0.1044
H17 H 0.1418 0.3083 0.0349
C20 C 0.28368(11) 1.0882(3) 0.05991(16)
H18 H 0.2520 1.0943 0.0122
H19 H 0.3152 1.1294 0.0606
H20 H 0.2779 1.1580 0.0907
N1 N 0.06231(7) 0.6225(2) 0.26262(9)
N2 N 0.07191(8) 0.8859(2) 0.21481(10)
N3 N 0.20236(8) 0.9094(2) 0.04937(10)
N4 N 0.16292(7) 0.6471(2) 0.05725(9)
O1 O 0.07756(7) 0.6202(2) 0.37546(8)
O2 O 0.10052(8) 1.1298(2) 0.28556(9)
O3 O 0.04586(6) 0.62940(19) 0.15297(8)
O4 O 0.17031(7) 0.9035(2) 0.17434(9)
O5 O 0.15474(6) 0.6337(2) 0.19496(8)
O6 O 0.11557(6) 0.90235(18) 0.01983(8)
O7 O 0.21589(7) 0.4028(2) 0.10073(9)
O8 O 0.29265(7) 0.9127(2) 0.08409(10)
loop_
_geom_bond_atom_site_label_1
_geom_bond_atom_site_label_2
_geom_bond_site_symmetry_1
_geom_bond_site_symmetry_2
C1 H1 1_555 1_555
H2 C1 1_555 1_555
H3 C1 1_555 1_555
C2 H4 1_555 1_555
H5 C2 1_555 1_555
H6 C2 1_555 1_555
C3 C4 1_555 1_555
C4 H7 1_555 1_555
C5 C4 1_555 1_555
C6 N1 1_555 1_555
C7 C8 1_555 1_555
C8 H8 1_555 1_555
C9 C8 1_555 1_555
H9 C9 1_555 1_555
C10 C9 1_555 1_555
H10 C10 1_555 1_555
C11 C10 1_555 1_555
C12 C7 1_555 1_555
C13 C12 1_555 1_555
C14 H11 1_555 1_555
H12 C14 1_555 1_555
H13 C14 1_555 1_555
C15 N3 1_555 1_555
C16 C17 1_555 1_555
C17 H14 1_555 1_555
C18 C17 1_555 1_555
C19 H15 1_555 1_555
H16 C19 1_555 1_555
H17 C19 1_555 1_555
C20 H18 1_555 1_555
H19 C20 1_555 1_555
H20 C20 1_555 1_555
N1 C3 1_555 1_555
N2 C5 1_555 1_555
N3 C18 1_555 1_555
N4 C15 1_555 1_555
O1 C1 1_555 1_555
O2 C2 1_555 1_555
O3 C6 1_555 1_555
O4 C13 1_555 1_555
O5 C13 1_555 1_555
O6 C11 1_555 1_555
O7 C16 1_555 1_555
O8 C18 1_555 1_555
C3 O1 1_555 1_555
C5 O2 1_555 1_555
C6 N2 1_555 1_555
C7 O3 1_555 1_555
C11 C12 1_555 1_555
C14 O5 1_555 1_555
C15 O6 1_555 1_555
C16 N4 1_555 1_555
C19 O7 1_555 1_555
C20 O8 1_555 1_555

#END
