
#######################################################################
#
#                 Cambridge Crystallographic Data Centre
#                                CCDC 
#
#######################################################################
#
# If this CIF has been generated from an entry in the Cambridge 
# Structural Database, then it will include bibliographic, chemical, 
# crystal, experimental, refinement or atomic coordinate data resulting 
# from the CCDC's data processing and validation procedures.
#
#######################################################################

data_WEFWUC
_chemical_formula_moiety         'C25 H18 Br1 N1 O3'
_chemical_name_systematic        
'ethyl 4-(4-bromobenzene-1-carbonyl)-2-phenylquinoline-3-carboxylate'
_symmetry_cell_setting           monoclinic
_symmetry_space_group_name_H-M   'P 21/c'
_symmetry_Int_Tables_number      14
_space_group_name_Hall           '-P 2ybc'
loop_
_symmetry_equiv_pos_site_id
_symmetry_equiv_pos_as_xyz
1 x,y,z
2 -x,1/2+y,1/2-z
3 -x,-y,-z
4 x,1/2-y,1/2+z
_cell_length_a                   12.785(6)
_cell_length_b                   20.503(9)
_cell_length_c                   7.913(3)
_cell_angle_alpha                90
_cell_angle_beta                 96.022(13)
_cell_angle_gamma                90
_cell_volume                     2062.8
_exptl_crystal_colour            colorless
_exptl_crystal_description       block
_cell_formula_units_Z            4
loop_
_atom_site_label
_atom_site_type_symbol
_atom_site_fract_x
_atom_site_fract_y
_atom_site_fract_z
Br1 Br -0.05115(2) 0.58408(2) 0.07609(4)
C1 C 0.03996(19) 0.57649(13) 0.2788(3)
O1 O 0.22006(14) 0.60110(9) 0.8628(2)
N1 N 0.57650(14) 0.52939(8) 0.7388(2)
O2 O 0.46038(14) 0.72138(8) 0.7950(2)
C2 C 0.00132(19) 0.58928(13) 0.4319(4)
H1 H -0.0697 0.5983 0.4357
C3 C 0.21198(18) 0.55863(13) 0.4191(3)
H2 H 0.2820 0.5469 0.4159
C4 C 0.1443(2) 0.55966(15) 0.2700(3)
H3 H 0.1685 0.5493 0.1664
C5 C 0.17594(17) 0.57485(10) 0.5722(3)
O3 O 0.32300(12) 0.69471(7) 0.6084(2)
C6 C 0.06929(19) 0.58843(12) 0.5785(3)
H4 H 0.0442 0.5969 0.6824
C7 C 0.24876(17) 0.58239(10) 0.7296(3)
C8 C 0.36366(16) 0.56496(10) 0.7233(3)
C9 C 0.39357(17) 0.49921(10) 0.7572(3)
C10 C 0.32098(19) 0.44960(11) 0.7878(3)
H5 H 0.2493 0.4585 0.7753
C11 C 0.3555(2) 0.38902(11) 0.8352(3)
H6 H 0.3073 0.3567 0.8553
C12 C 0.4636(2) 0.37492(11) 0.8542(3)
H7 H 0.4863 0.3335 0.8889
C13 C 0.5356(2) 0.42095(11) 0.8227(3)
H8 H 0.6068 0.4107 0.8346
C14 C 0.50212(17) 0.48457(10) 0.7715(3)
C15 C 0.54712(16) 0.59016(10) 0.7041(3)
C16 C 0.63227(16) 0.63474(10) 0.6610(3)
C17 C 0.73460(17) 0.62602(12) 0.7372(3)
H9 H 0.7493 0.5929 0.8163
C18 C 0.81442(19) 0.66655(13) 0.6954(4)
H10 H 0.8823 0.6610 0.7485
C19 C 0.7943(2) 0.71512(13) 0.5755(4)
H11 H 0.8483 0.7421 0.5476
C20 C 0.6937(2) 0.72335(12) 0.4976(3)
H12 H 0.6801 0.7558 0.4161
C21 C 0.61291(18) 0.68375(11) 0.5396(3)
H13 H 0.5452 0.6898 0.4866
C22 C 0.43979(16) 0.61092(10) 0.7036(3)
C23 C 0.41192(16) 0.68171(10) 0.7073(3)
C24 C 0.2809(2) 0.76075(11) 0.6172(4)
H14 H 0.3128 0.7892 0.5392
H15 H 0.2957 0.7781 0.7313
C25 C 0.1649(2) 0.75672(15) 0.5697(5)
H16 H 0.1511 0.7353 0.4618
H17 H 0.1357 0.7999 0.5622
H18 H 0.1332 0.7324 0.6546
loop_
_geom_bond_atom_site_label_1
_geom_bond_atom_site_label_2
_geom_bond_site_symmetry_1
_geom_bond_site_symmetry_2
Br1 C1 1_555 1_555
C1 C2 1_555 1_555
O1 C7 1_555 1_555
N1 C14 1_555 1_555
O2 C23 1_555 1_555
C2 H1 1_555 1_555
C3 H2 1_555 1_555
C4 C1 1_555 1_555
H3 C4 1_555 1_555
C5 C3 1_555 1_555
O3 C23 1_555 1_555
C6 C2 1_555 1_555
H4 C6 1_555 1_555
C7 C5 1_555 1_555
C8 C7 1_555 1_555
C9 C8 1_555 1_555
C10 C9 1_555 1_555
H5 C10 1_555 1_555
C11 C10 1_555 1_555
H6 C11 1_555 1_555
C12 C11 1_555 1_555
H7 C12 1_555 1_555
C13 C12 1_555 1_555
H8 C13 1_555 1_555
C14 C9 1_555 1_555
C15 N1 1_555 1_555
C16 C15 1_555 1_555
C17 C16 1_555 1_555
H9 C17 1_555 1_555
C18 C17 1_555 1_555
H10 C18 1_555 1_555
C19 C18 1_555 1_555
H11 C19 1_555 1_555
C20 C19 1_555 1_555
H12 C20 1_555 1_555
C21 C16 1_555 1_555
H13 C21 1_555 1_555
C22 C8 1_555 1_555
C23 C22 1_555 1_555
C24 O3 1_555 1_555
H14 C24 1_555 1_555
H15 C24 1_555 1_555
C25 C24 1_555 1_555
H16 C25 1_555 1_555
H17 C25 1_555 1_555
H18 C25 1_555 1_555
C3 C4 1_555 1_555
C5 C6 1_555 1_555
C13 C14 1_555 1_555
C15 C22 1_555 1_555
C20 C21 1_555 1_555

#END
