
#######################################################################
#
#                 Cambridge Crystallographic Data Centre
#                                CCDC 
#
#######################################################################
#
# If this CIF has been generated from an entry in the Cambridge 
# Structural Database, then it will include bibliographic, chemical, 
# crystal, experimental, refinement or atomic coordinate data resulting 
# from the CCDC's data processing and validation procedures.
#
#######################################################################

data_WEGGAR
_chemical_formula_moiety         'C25 H33 N1 O6 S1'
_chemical_name_systematic        
'(S~R~,2R,3S)-N-t-Butanesulfinyl-O-t-butyloxycarbonyl-3-phenylisoserine benzyl ester'
_symmetry_cell_setting           orthorhombic
_symmetry_space_group_name_H-M   'P 21 21 21'
_symmetry_Int_Tables_number      19
_space_group_name_Hall           'P 2ac 2ab'
loop_
_symmetry_equiv_pos_site_id
_symmetry_equiv_pos_as_xyz
1 x,y,z
2 1/2-x,-y,1/2+z
3 -x,1/2+y,1/2-z
4 1/2+x,1/2-y,-z
_cell_length_a                   9.566(1)
_cell_length_b                   12.145(2)
_cell_length_c                   23.348(4)
_cell_angle_alpha                90
_cell_angle_beta                 90
_cell_angle_gamma                90
_cell_volume                     2712.55
_exptl_crystal_colour            colorless
_chemical_melting_point          148-149deg.C
_cell_formula_units_Z            4
_exptl_crystal_recrystallization_method 'acetone/petroleum ether(1:3)'
loop_
_atom_site_label
_atom_site_type_symbol
_atom_site_fract_x
_atom_site_fract_y
_atom_site_fract_z
S1 S 0.58016(6) 0.37385(5) 0.52909(2)
O1 O 0.68859(17) 0.28624(15) 0.52841(8)
O2 O 0.22153(18) 0.41556(13) 0.32539(6)
O3 O 0.3116(2) 0.58122(14) 0.34630(7)
O4 O 0.27199(15) 0.52195(12) 0.46228(7)
O5 O 0.13073(17) 0.61554(15) 0.51331(7)
O6 O 0.04631(18) 0.52150(15) 0.43744(8)
N1 N 0.4543(2) 0.34728(16) 0.48425(8)
C1 C 0.5764(3) 0.3897(3) 0.33607(11)
H1 H 0.5937 0.4649 0.3391
C2 C 0.6232(4) 0.3330(4) 0.28807(14)
H2 H 0.6706 0.3701 0.2592
C3 C 0.5993(4) 0.2232(4) 0.28355(14)
H3 H 0.6297 0.1847 0.2514
C4 C 0.5303(4) 0.1697(3) 0.32650(14)
H4 H 0.5156 0.0942 0.3239
C5 C 0.4823(3) 0.2261(2) 0.37365(12)
H5 H 0.4339 0.1886 0.4021
C6 C 0.5050(2) 0.3371(2) 0.37911(9)
C7 C 0.4497(2) 0.40330(17) 0.42920(9)
H6 H 0.5074 0.4697 0.4324
C8 C 0.4841(3) 0.3553(2) 0.59707(9)
C9 C 0.5955(3) 0.3696(3) 0.64299(10)
H7 H 0.6413 0.4393 0.6379
H8 H 0.6628 0.3113 0.6399
H9 H 0.5525 0.3673 0.6801
C10 C 0.4200(3) 0.2418(2) 0.60073(12)
H10 H 0.3849 0.2298 0.6387
H11 H 0.4898 0.1875 0.5921
H12 H 0.3447 0.2361 0.5737
C11 C 0.3753(3) 0.4457(3) 0.60007(13)
H13 H 0.3054 0.4333 0.5713
H14 H 0.4192 0.5156 0.5936
H15 H 0.3323 0.4453 0.6372
C12 C 0.0139(4) 0.3437(3) 0.22155(13)
H16 H -0.0456 0.4007 0.2322
C13 C -0.0387(5) 0.2555(5) 0.19347(19)
H17 H -0.1338 0.2525 0.1852
C14 C 0.0423(7) 0.1748(5) 0.17787(17)
H18 H 0.0042 0.1162 0.1575
C15 C 0.1808(6) 0.1737(4) 0.19047(19)
H19 H 0.2368 0.1145 0.1801
C16 C 0.2375(4) 0.2653(3) 0.21987(15)
H20 H 0.3320 0.2672 0.2291
C17 C 0.1527(3) 0.3503(2) 0.23451(10)
C18 C 0.2119(4) 0.4492(2) 0.26473(10)
C19 C 0.2790(2) 0.4899(2) 0.36007(10)
C20 C 0.2982(2) 0.44071(17) 0.41892(9)
H21 H 0.2345 0.3783 0.4239
C21 C 0.1377(3) 0.55089(19) 0.46863(11)
C22 C -0.0017(3) 0.6678(3) 0.53033(14)
C23 C -0.0447(5) 0.7442(3) 0.48347(18)
H22 H 0.0332 0.7896 0.4728
H23 H -0.1201 0.7898 0.4965
H24 H -0.0747 0.7022 0.4509
C24 C 0.0412(5) 0.7332(4) 0.58269(18)
H25 H 0.0649 0.6835 0.6132
H26 H -0.0348 0.7794 0.5945
H27 H 0.1208 0.7780 0.5736
C25 C -0.1075(4) 0.5836(4) 0.5433(2)
H28 H -0.1234 0.5391 0.5100
H29 H -0.1932 0.6188 0.5544
H30 H -0.0749 0.5379 0.5741
H31 H 0.3969(19) 0.2943(13) 0.4880(9)
loop_
_geom_bond_atom_site_label_1
_geom_bond_atom_site_label_2
_geom_bond_site_symmetry_1
_geom_bond_site_symmetry_2
S1 O1 1_555 1_555
O2 C18 1_555 1_555
O3 C19 1_555 1_555
O4 C20 1_555 1_555
O5 C21 1_555 1_555
O6 C21 1_555 1_555
N1 S1 1_555 1_555
C1 H1 1_555 1_555
C2 C1 1_555 1_555
H2 C2 1_555 1_555
C3 C2 1_555 1_555
H3 C3 1_555 1_555
C4 C3 1_555 1_555
H4 C4 1_555 1_555
C5 C4 1_555 1_555
H5 C5 1_555 1_555
C6 C1 1_555 1_555
C7 N1 1_555 1_555
H6 C7 1_555 1_555
C8 S1 1_555 1_555
C9 C8 1_555 1_555
H7 C9 1_555 1_555
H8 C9 1_555 1_555
H9 C9 1_555 1_555
C10 C8 1_555 1_555
H10 C10 1_555 1_555
H11 C10 1_555 1_555
H12 C10 1_555 1_555
C11 C8 1_555 1_555
H13 C11 1_555 1_555
H14 C11 1_555 1_555
H15 C11 1_555 1_555
C12 H16 1_555 1_555
C13 C12 1_555 1_555
H17 C13 1_555 1_555
C14 C13 1_555 1_555
H18 C14 1_555 1_555
C15 C14 1_555 1_555
H19 C15 1_555 1_555
C16 C15 1_555 1_555
H20 C16 1_555 1_555
C17 C12 1_555 1_555
C18 C17 1_555 1_555
C19 O2 1_555 1_555
C20 C7 1_555 1_555
H21 C20 1_555 1_555
C21 O4 1_555 1_555
C22 O5 1_555 1_555
C23 C22 1_555 1_555
H22 C23 1_555 1_555
H23 C23 1_555 1_555
H24 C23 1_555 1_555
C24 C22 1_555 1_555
H25 C24 1_555 1_555
H26 C24 1_555 1_555
H27 C24 1_555 1_555
C25 C22 1_555 1_555
H28 C25 1_555 1_555
H29 C25 1_555 1_555
H30 C25 1_555 1_555
H31 N1 1_555 1_555
C5 C6 1_555 1_555
C6 C7 1_555 1_555
C16 C17 1_555 1_555
C19 C20 1_555 1_555

#END
