
#######################################################################
#
#                 Cambridge Crystallographic Data Centre
#                                CCDC 
#
#######################################################################
#
# If this CIF has been generated from an entry in the Cambridge 
# Structural Database, then it will include bibliographic, chemical, 
# crystal, experimental, refinement or atomic coordinate data resulting 
# from the CCDC's data processing and validation procedures.
#
#######################################################################

data_WEGHEW
_chemical_formula_moiety         'C13 H23 Br1 O1'
_chemical_name_systematic        
(1R,3R,6S,9R)-3-Bromo-5,5,9-trimethylbicyclo(4.4.0)decan-1-ol
_symmetry_cell_setting           monoclinic
_symmetry_space_group_name_H-M   'P 21'
_symmetry_Int_Tables_number      4
_space_group_name_Hall           'P 2yb'
loop_
_symmetry_equiv_pos_site_id
_symmetry_equiv_pos_as_xyz
1 x,y,z
2 -x,1/2+y,-z
_cell_length_a                   6.624(2)
_cell_length_b                   8.063(3)
_cell_length_c                   12.290(5)
_cell_angle_alpha                90
_cell_angle_beta                 96.189(6)
_cell_angle_gamma                90
_cell_volume                     652.575
_exptl_crystal_colour            colorless
_exptl_crystal_description       prism
_chemical_melting_point          '327 K'
_cell_formula_units_Z            2
loop_
_atom_site_label
_atom_site_type_symbol
_atom_site_fract_x
_atom_site_fract_y
_atom_site_fract_z
Br1 Br -0.10384(4) 1.01838(5) 0.45030(2)
C1 C 0.2897(4) 0.8280(4) 0.3117(2)
C2 C 0.3114(5) 0.9384(4) 0.4129(2)
H1 H 0.2893 0.8694 0.4772
H2 H 0.4528 0.9799 0.4239
C3 C 0.1692(5) 1.0861(4) 0.4102(2)
H3 H 0.2279 1.1649 0.4680
C4 C 0.1553(5) 1.1786(4) 0.3023(3)
H4 H 0.2794 1.2470 0.3020
H5 H 0.0388 1.2559 0.3003
C5 C 0.1310(5) 1.0757(4) 0.1957(2)
C6 C 0.2865(5) 0.9302(4) 0.2060(2)
H6 H 0.4233 0.9834 0.2091
C7 C 0.2728(5) 0.8150(4) 0.1072(3)
H7 H 0.1431 0.7531 0.1025
H8 H 0.2735 0.8819 0.0397
C8 C 0.4488(5) 0.6924(4) 0.1146(3)
H9 H 0.4311 0.6169 0.0508
H10 H 0.5773 0.7540 0.1115
C9 C 0.4632(5) 0.5905(4) 0.2191(3)
H11 H 0.3391 0.5195 0.2168
C10 C 0.4667(4) 0.7043(4) 0.3184(3)
H12 H 0.5961 0.7669 0.3261
H13 H 0.4631 0.6354 0.3848
C11 C -0.0903(4) 1.0148(6) 0.1680(2)
H14 H -0.1837 1.1086 0.1706
H15 H -0.1212 0.9308 0.2214
H16 H -0.1060 0.9664 0.0944
C12 C 0.1809(6) 1.1943(5) 0.1039(3)
H17 H 0.0977 1.2947 0.1054
H18 H 0.1517 1.1392 0.0329
H19 H 0.3249 1.2245 0.1151
C13 C 0.6487(5) 0.4764(4) 0.2285(3)
H20 H 0.7725 0.5434 0.2303
H21 H 0.6402 0.4017 0.1653
H22 H 0.6523 0.4110 0.2959
O1 O 0.1011(3) 0.7365(3) 0.30481(18)
H23 H 0.111(5) 0.682(4) 0.363(2)
loop_
_geom_bond_atom_site_label_1
_geom_bond_atom_site_label_2
_geom_bond_site_symmetry_1
_geom_bond_site_symmetry_2
Br1 C3 1_555 1_555
C1 C2 1_555 1_555
C2 H1 1_555 1_555
H2 C2 1_555 1_555
C3 C2 1_555 1_555
H3 C3 1_555 1_555
C4 C3 1_555 1_555
H4 C4 1_555 1_555
H5 C4 1_555 1_555
C5 C4 1_555 1_555
C6 C1 1_555 1_555
H6 C6 1_555 1_555
C7 C6 1_555 1_555
H7 C7 1_555 1_555
H8 C7 1_555 1_555
C8 C7 1_555 1_555
H9 C8 1_555 1_555
H10 C8 1_555 1_555
C9 C8 1_555 1_555
H11 C9 1_555 1_555
C10 C1 1_555 1_555
H12 C10 1_555 1_555
H13 C10 1_555 1_555
C11 C5 1_555 1_555
H14 C11 1_555 1_555
H15 C11 1_555 1_555
H16 C11 1_555 1_555
C12 C5 1_555 1_555
H17 C12 1_555 1_555
H18 C12 1_555 1_555
H19 C12 1_555 1_555
C13 C9 1_555 1_555
H20 C13 1_555 1_555
H21 C13 1_555 1_555
H22 C13 1_555 1_555
O1 C1 1_555 1_555
H23 O1 1_555 1_555
C5 C6 1_555 1_555
C9 C10 1_555 1_555

#END
