
#######################################################################
#
#                 Cambridge Crystallographic Data Centre
#                                CCDC 
#
#######################################################################
#
# If this CIF has been generated from an entry in the Cambridge 
# Structural Database, then it will include bibliographic, chemical, 
# crystal, experimental, refinement or atomic coordinate data resulting 
# from the CCDC's data processing and validation procedures.
#
#######################################################################

data_WEGHOG
_chemical_formula_moiety         'C13 H23 I1 O1'
_chemical_name_systematic        
(1R,3S,6S,9R)-3-Iodo-5,5,9-trimethylbicyclo(4.4.0)decan-1-ol
_symmetry_cell_setting           orthorhombic
_symmetry_space_group_name_H-M   'P 21 21 21'
_symmetry_Int_Tables_number      19
_space_group_name_Hall           'P 2ac 2ab'
loop_
_symmetry_equiv_pos_site_id
_symmetry_equiv_pos_as_xyz
1 x,y,z
2 1/2-x,-y,1/2+z
3 -x,1/2+y,1/2-z
4 1/2+x,1/2-y,-z
_cell_length_a                   13.932(3)
_cell_length_b                   16.279(3)
_cell_length_c                   18.937(4)
_cell_angle_alpha                90
_cell_angle_beta                 90
_cell_angle_gamma                90
_cell_volume                     4294.89
_exptl_crystal_colour            colorless
_exptl_crystal_description       prism
_chemical_melting_point          '347 K'
_cell_formula_units_Z            12
loop_
_atom_site_label
_atom_site_type_symbol
_atom_site_fract_x
_atom_site_fract_y
_atom_site_fract_z
C1 C 0.36616(19) 0.5117(2) 0.12387(16)
H1 H 0.4039 0.5544 0.0980
C2 C 0.37055(18) 0.53022(19) 0.20239(16)
H2 H 0.3318 0.4891 0.2283
H3 H 0.3421 0.5850 0.2113
C3 C 0.4746(2) 0.52882(19) 0.23078(14)
C4 C 0.52314(18) 0.44692(16) 0.20891(15)
H4 H 0.4873 0.4032 0.2349
C5 C 0.6275(2) 0.4377(2) 0.23238(16)
H5 H 0.6673 0.4793 0.2079
H6 H 0.6320 0.4481 0.2838
C6 C 0.6665(2) 0.3521(2) 0.21620(18)
H7 H 0.7349 0.3496 0.2303
H8 H 0.6310 0.3112 0.2447
C7 C 0.6580(2) 0.3298(2) 0.13854(18)
H9 H 0.6970 0.3701 0.1110
C8 C 0.5532(2) 0.33943(18) 0.11558(16)
H10 H 0.5483 0.3281 0.0643
H11 H 0.5136 0.2982 0.1407
C9 C 0.51336(19) 0.42445(17) 0.13036(14)
C10 C 0.40805(19) 0.42846(19) 0.10739(15)
H12 H 0.4034 0.4178 0.0560
H13 H 0.3709 0.3855 0.1323
C11 C 0.5287(2) 0.60632(17) 0.20648(18)
H14 H 0.4934 0.6553 0.2217
H15 H 0.5340 0.6062 0.1549
H16 H 0.5930 0.6068 0.2274
C12 C 0.4678(2) 0.5322(2) 0.31216(16)
H17 H 0.4293 0.5799 0.3262
H18 H 0.5324 0.5371 0.3322
H19 H 0.4373 0.4819 0.3296
C13 C 0.6967(3) 0.2441(2) 0.1224(2)
H20 H 0.7641 0.2407 0.1370
H21 H 0.6919 0.2335 0.0716
H22 H 0.6591 0.2031 0.1482
I1 I 0.218346(15) 0.515860(18) 0.087355(13)
O1 O 0.56779(12) 0.48441(11) 0.09007(9)
H23 H 0.5694 0.4702 0.0475
C14 C 0.7503(2) 0.26750(18) 0.60795(15)
H24 H 0.8054 0.2829 0.5768
C15 C 0.6757(2) 0.22394(18) 0.56375(15)
H25 H 0.6206 0.2088 0.5941
H26 H 0.7036 0.1726 0.5446
C16 C 0.6395(2) 0.27770(19) 0.50187(15)
C17 C 0.60991(19) 0.36352(17) 0.52997(14)
H27 H 0.5500 0.3541 0.5579
C18 C 0.5816(2) 0.42492(17) 0.47175(14)
H28 H 0.6390 0.4387 0.4432
H29 H 0.5337 0.3992 0.4401
C19 C 0.5399(2) 0.50304(19) 0.50280(15)
H30 H 0.4783 0.4898 0.5263
H31 H 0.5261 0.5420 0.4640
C20 C 0.6057(2) 0.54455(18) 0.55580(16)
H32 H 0.6649 0.5624 0.5302
C21 C 0.6355(2) 0.48201(18) 0.61223(14)
H33 H 0.6819 0.5083 0.6448
H34 H 0.5782 0.4664 0.6401
C22 C 0.68065(18) 0.40465(16) 0.58168(14)
C23 C 0.7094(2) 0.34492(16) 0.64006(14)
H35 H 0.7579 0.3709 0.6711
H36 H 0.6526 0.3312 0.6691
C24 C 0.7161(3) 0.28105(19) 0.44400(16)
H37 H 0.7318 0.2251 0.4287
H38 H 0.7739 0.3077 0.4625
H39 H 0.6916 0.3125 0.4037
C25 C 0.5495(3) 0.2339(2) 0.47211(17)
H40 H 0.5654 0.1768 0.4608
H41 H 0.5280 0.2622 0.4292
H42 H 0.4982 0.2352 0.5075
C26 C 0.5594(3) 0.6206(2) 0.58798(19)
H43 H 0.6051 0.6474 0.6199
H44 H 0.5020 0.6045 0.6145
H45 H 0.5413 0.6588 0.5503
I2 I 0.802872(18) 0.186280(14) 0.690539(14)
O2 O 0.76656(12) 0.42728(11) 0.54275(9)
H46 H 0.8047 0.4520 0.5698
C27 C 0.5474(2) 0.60458(15) 0.84079(14)
H47 H 0.5306 0.6113 0.8918
C28 C 0.46673(19) 0.55809(15) 0.80497(15)
H48 H 0.4834 0.5494 0.7547
H49 H 0.4075 0.5916 0.8067
C29 C 0.44733(19) 0.47426(16) 0.83992(14)
C30 C 0.54267(18) 0.42503(15) 0.84649(14)
H50 H 0.5602 0.4098 0.7970
C31 C 0.5342(2) 0.34348(17) 0.88575(17)
H51 H 0.5189 0.3544 0.9359
H52 H 0.4807 0.3113 0.8653
C32 C 0.6263(2) 0.29306(18) 0.88159(18)
H53 H 0.6379 0.2767 0.8320
H54 H 0.6187 0.2424 0.9099
C33 C 0.7132(2) 0.34154(17) 0.90888(16)
H55 H 0.7023 0.3542 0.9599
C34 C 0.7204(2) 0.42273(16) 0.86868(15)
H56 H 0.7751 0.4548 0.8875
H57 H 0.7334 0.4111 0.8183
C35 C 0.62916(18) 0.47401(16) 0.87457(13)
C36 C 0.64010(19) 0.55582(16) 0.83603(14)
H58 H 0.6931 0.5877 0.8574
H59 H 0.6562 0.5457 0.7858
C37 C 0.39555(19) 0.48700(19) 0.91111(15)
H60 H 0.3373 0.5196 0.9036
H61 H 0.4383 0.5160 0.9438
H62 H 0.3782 0.4335 0.9311
C38 C 0.3775(2) 0.42806(19) 0.79120(18)
H63 H 0.3192 0.4610 0.7846
H64 H 0.3605 0.3752 0.8126
H65 H 0.4081 0.4186 0.7453
C39 C 0.8065(2) 0.2919(2) 0.9025(2)
H66 H 0.8015 0.2419 0.9311
H67 H 0.8604 0.3252 0.9193
H68 H 0.8170 0.2769 0.8529
I3 I 0.564437(15) 0.726017(12) 0.794895(11)
O3 O 0.61143(12) 0.49232(11) 0.94824(9)
H69 H 0.6596 0.5160 0.9655
loop_
_geom_bond_atom_site_label_1
_geom_bond_atom_site_label_2
_geom_bond_site_symmetry_1
_geom_bond_site_symmetry_2
C1 H1 1_555 1_555
C2 C1 1_555 1_555
H2 C2 1_555 1_555
H3 C2 1_555 1_555
C3 C2 1_555 1_555
C4 C3 1_555 1_555
H4 C4 1_555 1_555
C5 C4 1_555 1_555
H5 C5 1_555 1_555
H6 C5 1_555 1_555
C6 C5 1_555 1_555
H7 C6 1_555 1_555
H8 C6 1_555 1_555
C7 C6 1_555 1_555
H9 C7 1_555 1_555
C8 C7 1_555 1_555
H10 C8 1_555 1_555
H11 C8 1_555 1_555
C9 C4 1_555 1_555
C10 C1 1_555 1_555
H12 C10 1_555 1_555
H13 C10 1_555 1_555
C11 C3 1_555 1_555
H14 C11 1_555 1_555
H15 C11 1_555 1_555
H16 C11 1_555 1_555
C12 C3 1_555 1_555
H17 C12 1_555 1_555
H18 C12 1_555 1_555
H19 C12 1_555 1_555
C13 C7 1_555 1_555
H20 C13 1_555 1_555
H21 C13 1_555 1_555
H22 C13 1_555 1_555
I1 C1 1_555 1_555
O1 C9 1_555 1_555
H23 O1 1_555 1_555
C14 H24 1_555 1_555
C15 C14 1_555 1_555
H25 C15 1_555 1_555
H26 C15 1_555 1_555
C16 C15 1_555 1_555
C17 C16 1_555 1_555
H27 C17 1_555 1_555
C18 C17 1_555 1_555
H28 C18 1_555 1_555
H29 C18 1_555 1_555
C19 C18 1_555 1_555
H30 C19 1_555 1_555
H31 C19 1_555 1_555
C20 C19 1_555 1_555
H32 C20 1_555 1_555
C21 C20 1_555 1_555
H33 C21 1_555 1_555
H34 C21 1_555 1_555
C22 C17 1_555 1_555
C23 C14 1_555 1_555
H35 C23 1_555 1_555
H36 C23 1_555 1_555
C24 C16 1_555 1_555
H37 C24 1_555 1_555
H38 C24 1_555 1_555
H39 C24 1_555 1_555
C25 C16 1_555 1_555
H40 C25 1_555 1_555
H41 C25 1_555 1_555
H42 C25 1_555 1_555
C26 C20 1_555 1_555
H43 C26 1_555 1_555
H44 C26 1_555 1_555
H45 C26 1_555 1_555
I2 C14 1_555 1_555
O2 C22 1_555 1_555
H46 O2 1_555 1_555
C27 H47 1_555 1_555
C28 C27 1_555 1_555
H48 C28 1_555 1_555
H49 C28 1_555 1_555
C29 C28 1_555 1_555
C30 C29 1_555 1_555
H50 C30 1_555 1_555
C31 C30 1_555 1_555
H51 C31 1_555 1_555
H52 C31 1_555 1_555
C32 C31 1_555 1_555
H53 C32 1_555 1_555
H54 C32 1_555 1_555
C33 C32 1_555 1_555
H55 C33 1_555 1_555
C34 C33 1_555 1_555
H56 C34 1_555 1_555
H57 C34 1_555 1_555
C35 C30 1_555 1_555
C36 C27 1_555 1_555
H58 C36 1_555 1_555
H59 C36 1_555 1_555
C37 C29 1_555 1_555
H60 C37 1_555 1_555
H61 C37 1_555 1_555
H62 C37 1_555 1_555
C38 C29 1_555 1_555
H63 C38 1_555 1_555
H64 C38 1_555 1_555
H65 C38 1_555 1_555
C39 C33 1_555 1_555
H66 C39 1_555 1_555
H67 C39 1_555 1_555
H68 C39 1_555 1_555
I3 C27 1_555 1_555
O3 C35 1_555 1_555
H69 O3 1_555 1_555
C8 C9 1_555 1_555
C9 C10 1_555 1_555
C21 C22 1_555 1_555
C22 C23 1_555 1_555
C34 C35 1_555 1_555
C35 C36 1_555 1_555

#END
