
#######################################################################
#
#                 Cambridge Crystallographic Data Centre
#                                CCDC 
#
#######################################################################
#
# If this CIF has been generated from an entry in the Cambridge 
# Structural Database, then it will include bibliographic, chemical, 
# crystal, experimental, refinement or atomic coordinate data resulting 
# from the CCDC's data processing and validation procedures.
#
#######################################################################

data_WEGHIA
_chemical_formula_moiety         'C14 H25 Cl1 O1'
_chemical_name_systematic        
(1S,2R,3R,6S,9R)-3-Chloro-2,5,5,9-tetramethylbicyclo(4.4.0)decan-1-ol
_symmetry_cell_setting           hexagonal
_symmetry_space_group_name_H-M   'P 61'
_symmetry_Int_Tables_number      169
_space_group_name_Hall           'P 61'
loop_
_symmetry_equiv_pos_site_id
_symmetry_equiv_pos_as_xyz
1 x,y,z
2 -y,x-y,1/3+z
3 -x+y,-x,2/3+z
4 -x,-y,1/2+z
5 y,-x+y,5/6+z
6 x-y,x,1/6+z
_cell_length_a                   12.447(6)
_cell_length_b                   12.447(6)
_cell_length_c                   49.29(5)
_cell_angle_alpha                90
_cell_angle_beta                 90
_cell_angle_gamma                120
_cell_volume                     6613.31
_exptl_crystal_colour            colorless
_exptl_crystal_description       columnar
_chemical_melting_point          '317 K'
_cell_formula_units_Z            18
loop_
_atom_site_label
_atom_site_type_symbol
_atom_site_fract_x
_atom_site_fract_y
_atom_site_fract_z
C1 C 0.3727(3) 0.6136(3) 0.18111(6)
H1 H 0.3376 0.6631 0.1730
C2 C 0.4146(3) 0.5641(3) 0.15758(6)
H2 H 0.3406 0.5120 0.1460
C3 C 0.4657(3) 0.4831(3) 0.16737(7)
H3 H 0.5360 0.5315 0.1798
H4 H 0.4976 0.4579 0.1516
C4 C 0.3658(3) 0.3653(3) 0.18221(6)
C5 C 0.3015(3) 0.4041(3) 0.20441(6)
H5 H 0.3656 0.4461 0.2188
C6 C 0.1922(3) 0.2948(3) 0.21864(7)
H6 H 0.2184 0.2359 0.2250
H7 H 0.1239 0.2506 0.2055
C7 C 0.1444(3) 0.3359(3) 0.24288(7)
H8 H 0.2096 0.3718 0.2570
H9 H 0.0713 0.2627 0.2508
C8 C 0.1081(3) 0.4323(3) 0.23456(7)
H10 H 0.0376 0.3922 0.2214
C9 C 0.2172(3) 0.5401(3) 0.22013(6)
H11 H 0.1916 0.5999 0.2141
H12 H 0.2861 0.5833 0.2332
C10 C 0.2645(3) 0.5012(3) 0.19562(6)
C11 C 0.4793(3) 0.7015(3) 0.20018(6)
H13 H 0.5436 0.7704 0.1896
H14 H 0.5148 0.6557 0.2089
H15 H 0.4469 0.7342 0.2141
C12 C 0.4329(3) 0.3045(4) 0.19583(8)
H16 H 0.4726 0.2798 0.1819
H17 H 0.3728 0.2311 0.2060
H18 H 0.4962 0.3637 0.2083
C13 C 0.2740(3) 0.2734(3) 0.16120(7)
H19 H 0.3193 0.2524 0.1479
H20 H 0.2320 0.3116 0.1518
H21 H 0.2124 0.1978 0.1705
C14 C 0.0653(4) 0.4772(3) 0.25888(7)
H22 H 0.0419 0.5376 0.2528
H23 H 0.1329 0.5163 0.2721
H24 H -0.0064 0.4064 0.2674
Cl1 Cl 0.52992(8) 0.69118(8) 0.136683(17)
O1 O 0.16378(17) 0.44070(17) 0.17597(4)
H25 H 0.1315 0.4851 0.1733
C15 C -0.1213(3) 0.5797(3) 0.12433(7)
H26 H -0.1796 0.4880 0.1244
C16 C -0.0269(3) 0.6060(4) 0.10209(7)
H27 H 0.0162 0.5583 0.1062
C17 C 0.0690(3) 0.7415(4) 0.10089(7)
H28 H 0.0273 0.7901 0.0975
H29 H 0.1258 0.7557 0.0855
C18 C 0.1455(3) 0.7882(3) 0.12726(7)
C19 C 0.0555(3) 0.7493(3) 0.15202(7)
H30 H 0.0146 0.8007 0.1506
C20 C 0.1191(4) 0.7808(4) 0.17982(8)
H31 H 0.1607 0.7316 0.1826
H32 H 0.1835 0.8697 0.1802
C21 C 0.0281(5) 0.7544(5) 0.20254(9)
H33 H -0.0064 0.8105 0.2007
H34 H 0.0730 0.7732 0.2200
C22 C -0.0787(5) 0.6207(6) 0.20313(8)
H35 H -0.0434 0.5651 0.2063
C23 C -0.1414(3) 0.5897(4) 0.17537(7)
H36 H -0.1815 0.6403 0.1726
H37 H -0.2074 0.5014 0.1752
C24 C -0.0524(3) 0.6126(3) 0.15168(6)
C25 C -0.1998(3) 0.6412(3) 0.11941(7)
H38 H -0.2415 0.6144 0.1018
H39 H -0.1460 0.7315 0.1195
H40 H -0.2619 0.6169 0.1338
C26 C 0.2236(4) 0.9303(3) 0.12550(10)
H41 H 0.1686 0.9654 0.1251
H42 H 0.2739 0.9538 0.1089
H43 H 0.2782 0.9622 0.1414
C27 C 0.2382(3) 0.7394(3) 0.12863(8)
H44 H 0.1922 0.6487 0.1300
H45 H 0.2916 0.7744 0.1446
H46 H 0.2894 0.7643 0.1122
C28 C -0.1738(6) 0.5962(7) 0.22549(10)
H47 H -0.1322 0.6168 0.2432
H48 H -0.2382 0.5085 0.2252
H49 H -0.2117 0.6477 0.2224
Cl2 Cl -0.10372(11) 0.55443(13) 0.06913(2)
O2 O 0.00379(18) 0.53565(18) 0.15562(5)
H50 H -0.0520 0.4620 0.1584
C29 C -0.0970(3) 0.0838(3) 0.15726(7)
H51 H -0.0097 0.1306 0.1641
C30 C -0.0917(3) 0.1058(3) 0.12687(7)
H52 H -0.0498 0.1974 0.1238
C31 C -0.2184(3) 0.0484(3) 0.11391(8)
H53 H -0.2630 -0.0422 0.1172
H54 H -0.2088 0.0619 0.0941
C32 C -0.2959(3) 0.1036(3) 0.12518(8)
C33 C -0.2960(3) 0.0994(3) 0.15683(7)
H55 H -0.3475 0.0097 0.1617
C34 C -0.3588(3) 0.1640(3) 0.17065(8)
H56 H -0.3092 0.2544 0.1672
H57 H -0.4420 0.1334 0.1626
C35 C -0.3722(4) 0.1410(4) 0.20109(9)
H58 H -0.4273 0.0512 0.2044
H59 H -0.4119 0.1854 0.2091
C36 C -0.2469(3) 0.1840(4) 0.21526(8)
H60 H -0.1940 0.2757 0.2128
C37 C -0.1839(3) 0.1210(3) 0.20098(7)
H61 H -0.2337 0.0305 0.2042
H62 H -0.1013 0.1507 0.2093
C38 C -0.1671(3) 0.1442(3) 0.17019(7)
C39 C -0.1485(3) -0.0528(3) 0.16516(9)
H63 H -0.0998 -0.0847 0.1562
H64 H -0.2353 -0.1016 0.1594
H65 H -0.1434 -0.0592 0.1849
C40 C -0.4301(3) 0.0226(3) 0.11466(9)
H66 H -0.4644 -0.0622 0.1216
H67 H -0.4297 0.0213 0.0948
H68 H -0.4812 0.0572 0.1210
C41 C -0.2477(3) 0.2346(3) 0.11383(8)
H69 H -0.1626 0.2891 0.1201
H70 H -0.3009 0.2668 0.1202
H71 H -0.2490 0.2316 0.0940
C42 C -0.2620(4) 0.1552(5) 0.24593(9)
H72 H -0.1801 0.1858 0.2542
H73 H -0.3123 0.0654 0.2487
H74 H -0.3032 0.1961 0.2544
Cl3 Cl -0.00031(10) 0.04864(10) 0.10961(2)
O3 O -0.09367(18) 0.27717(17) 0.16582(4)
H75 H -0.0201 0.3026 0.1706
loop_
_geom_bond_atom_site_label_1
_geom_bond_atom_site_label_2
_geom_bond_site_symmetry_1
_geom_bond_site_symmetry_2
C1 H1 1_555 1_555
C2 C1 1_555 1_555
H2 C2 1_555 1_555
C3 C2 1_555 1_555
H3 C3 1_555 1_555
H4 C3 1_555 1_555
C4 C3 1_555 1_555
C5 C4 1_555 1_555
H5 C5 1_555 1_555
C6 C5 1_555 1_555
H6 C6 1_555 1_555
H7 C6 1_555 1_555
C7 C6 1_555 1_555
H8 C7 1_555 1_555
H9 C7 1_555 1_555
C8 C7 1_555 1_555
H10 C8 1_555 1_555
C9 C8 1_555 1_555
H11 C9 1_555 1_555
H12 C9 1_555 1_555
C10 C1 1_555 1_555
C11 C1 1_555 1_555
H13 C11 1_555 1_555
H14 C11 1_555 1_555
H15 C11 1_555 1_555
C12 C4 1_555 1_555
H16 C12 1_555 1_555
H17 C12 1_555 1_555
H18 C12 1_555 1_555
C13 C4 1_555 1_555
H19 C13 1_555 1_555
H20 C13 1_555 1_555
H21 C13 1_555 1_555
C14 C8 1_555 1_555
H22 C14 1_555 1_555
H23 C14 1_555 1_555
H24 C14 1_555 1_555
Cl1 C2 1_555 1_555
O1 C10 1_555 1_555
H25 O1 1_555 1_555
C15 H26 1_555 1_555
C16 C15 1_555 1_555
H27 C16 1_555 1_555
C17 C16 1_555 1_555
H28 C17 1_555 1_555
H29 C17 1_555 1_555
C18 C17 1_555 1_555
C19 C18 1_555 1_555
H30 C19 1_555 1_555
C20 C19 1_555 1_555
H31 C20 1_555 1_555
H32 C20 1_555 1_555
C21 C20 1_555 1_555
H33 C21 1_555 1_555
H34 C21 1_555 1_555
C22 C21 1_555 1_555
H35 C22 1_555 1_555
C23 C22 1_555 1_555
H36 C23 1_555 1_555
H37 C23 1_555 1_555
C24 C15 1_555 1_555
C25 C15 1_555 1_555
H38 C25 1_555 1_555
H39 C25 1_555 1_555
H40 C25 1_555 1_555
C26 C18 1_555 1_555
H41 C26 1_555 1_555
H42 C26 1_555 1_555
H43 C26 1_555 1_555
C27 C18 1_555 1_555
H44 C27 1_555 1_555
H45 C27 1_555 1_555
H46 C27 1_555 1_555
C28 C22 1_555 1_555
H47 C28 1_555 1_555
H48 C28 1_555 1_555
H49 C28 1_555 1_555
Cl2 C16 1_555 1_555
O2 C24 1_555 1_555
H50 O2 1_555 1_555
C29 H51 1_555 1_555
C30 C29 1_555 1_555
H52 C30 1_555 1_555
C31 C30 1_555 1_555
H53 C31 1_555 1_555
H54 C31 1_555 1_555
C32 C31 1_555 1_555
C33 C32 1_555 1_555
H55 C33 1_555 1_555
C34 C33 1_555 1_555
H56 C34 1_555 1_555
H57 C34 1_555 1_555
C35 C34 1_555 1_555
H58 C35 1_555 1_555
H59 C35 1_555 1_555
C36 C35 1_555 1_555
H60 C36 1_555 1_555
C37 C36 1_555 1_555
H61 C37 1_555 1_555
H62 C37 1_555 1_555
C38 C29 1_555 1_555
C39 C29 1_555 1_555
H63 C39 1_555 1_555
H64 C39 1_555 1_555
H65 C39 1_555 1_555
C40 C32 1_555 1_555
H66 C40 1_555 1_555
H67 C40 1_555 1_555
H68 C40 1_555 1_555
C41 C32 1_555 1_555
H69 C41 1_555 1_555
H70 C41 1_555 1_555
H71 C41 1_555 1_555
C42 C36 1_555 1_555
H72 C42 1_555 1_555
H73 C42 1_555 1_555
H74 C42 1_555 1_555
Cl3 C30 1_555 1_555
O3 C38 1_555 1_555
H75 O3 1_555 1_555
C5 C10 1_555 1_555
C9 C10 1_555 1_555
C19 C24 1_555 1_555
C23 C24 1_555 1_555
C33 C38 1_555 1_555
C37 C38 1_555 1_555

#END
