
#######################################################################
#
#                 Cambridge Crystallographic Data Centre
#                                CCDC 
#
#######################################################################
#
# If this CIF has been generated from an entry in the Cambridge 
# Structural Database, then it will include bibliographic, chemical, 
# crystal, experimental, refinement or atomic coordinate data resulting 
# from the CCDC's data processing and validation procedures.
#
#######################################################################

data_WEGRIL
_chemical_formula_moiety         'C68 H80 N4 O4,C18 H20 N2 O2,2(C1 H1 Cl3)'
_chemical_name_systematic        
"11',29'-Di-t-butyl-5',17',23',35',38',40',43',45'-octamethyl-7',15',25',33'-tetraazadispiro[cyclohexane-1,2'-heptacyclo-[32.2.2.2^3,6^.2^16,19^.2^21,24^.1^9,13^.1^27,31^]hexatetracontane-20',1''-cyclohexane]-1'(36'),3',5',9'(44'),10',12',16',18',21',23',27'(39'),28',30',34',37',-40',42',45'-octadecaene-8',14',26',32'-tetrone N,N'-(ethane-1,2-diyl)-bis(N-methylbenzamide) chloroform solvate"
_symmetry_cell_setting           monoclinic
_symmetry_space_group_name_H-M   'C 2/c'
_symmetry_Int_Tables_number      15
_space_group_name_Hall           '-C 2yn'
loop_
_symmetry_equiv_pos_site_id
_symmetry_equiv_pos_as_xyz
1 x,y,z
2 -x,y,1/2-z
3 1/2+x,1/2+y,z
4 1/2-x,1/2+y,1/2-z
5 -x,-y,-z
6 x,-y,1/2+z
7 1/2-x,1/2-y,-z
8 1/2+x,1/2-y,1/2+z
_cell_length_a                   25.976(5)
_cell_length_b                   19.610(4)
_cell_length_c                   19.930(4)
_cell_angle_alpha                90
_cell_angle_beta                 126.21(3)
_cell_angle_gamma                90
_cell_volume                     8191.32
_exptl_crystal_colour            colorless
_exptl_crystal_description       block
_cell_formula_units_Z            4
loop_
_atom_site_label
_atom_site_type_symbol
_atom_site_fract_x
_atom_site_fract_y
_atom_site_fract_z
Cl1 Cl -0.41535(6) 0.71322(6) -0.37971(7)
Cl2 Cl -0.38872(6) 0.59502(6) -0.27901(8)
Cl3 Cl -0.43767(8) 0.71767(12) -0.25496(10)
C44 C -0.3894(2) 0.6852(2) -0.2806(3)
H51 H -0.3448 0.7019 -0.2389
O1 O -0.26662(12) 0.68061(12) -0.09818(17)
O3 O -0.19597(13) 0.36018(14) 0.09567(18)
N1 N -0.20335(14) 0.60722(15) -0.10689(19)
H1 H -0.1937 0.5639 -0.1049
C1 C -0.15040(16) 0.69354(17) -0.2212(2)
H2 H -0.158 0.6909 -0.2739
C2 C -0.33660(16) 0.51728(17) -0.0325(2)
N2 N -0.16944(14) 0.37579(15) 0.00716(19)
H3 H -0.1837 0.3913 -0.0424
C3 C -0.13051(16) 0.70284(17) -0.0677(2)
C4 C -0.29773(17) 0.46060(18) 0.0004(2)
H4 H -0.3081 0.425 0.0228
C5 C -0.05884(16) 0.22974(17) 0.0690(2)
H5 H -0.0601 0.1838 0.0529
C6 C -0.18410(16) 0.65017(17) -0.2039(2)
C7 C -0.11323(17) 0.33388(18) 0.0513(2)
C8 C 0.09132(17) 0.21136(18) 0.2706(2)
H6 H 0.1008 0.2575 0.2955
H7 H 0.0589 0.1905 0.2755
C9 C -0.31840(16) 0.57000(17) -0.0624(2)
H8 H -0.3439 0.61 -0.0848
C11 C -0.09762(16) 0.74439(17) -0.0870(2)
H9 H -0.0682 0.7768 -0.0471
C12 C -0.00047(16) 0.25762(17) 0.1327(2)
C13 C 0.05309(16) 0.14463(16) 0.1433(2)
H10 H 0.0209 0.1213 0.1466
H11 H 0.0362 0.1469 0.084
C14 C -0.4101(2) 0.59578(19) -0.0236(3)
H12 H -0.3758 0.6083 0.0338
H13 H -0.4511 0.5978 -0.0318
H14 H -0.4106 0.6276 -0.0619
C15 C -0.17311(16) 0.65509(17) -0.1270(2)
C16 C -0.10611(16) 0.74036(16) -0.1629(2)
C17 C 0.11448(18) 0.10300(18) 0.1907(2)
H15 H 0.1459 0.1246 0.1845
H16 H 0.1055 0.0566 0.1667
C18 C -0.11577(17) 0.26703(18) 0.0277(2)
C19 C -0.05623(18) 0.36351(18) 0.1160(2)
C20 C -0.05498(19) 0.4358(2) 0.1424(3)
H17 H -0.0831 0.4641 0.093
H18 H -0.0113 0.4535 0.1736
H19 H -0.0697 0.4369 0.1777
C21 C 0.06301(16) 0.21818(17) 0.1777(2)
C22 C -0.26391(16) 0.56479(17) -0.0599(2)
C23 C -0.17783(18) 0.2350(2) -0.0395(3)
H20 H -0.1705 0.1877 -0.0476
H21 H -0.1967 0.2604 -0.0914
H22 H -0.207 0.2359 -0.0236
C24 C -0.24368(16) 0.45401(17) 0.0019(2)
C26 C -0.11964(18) 0.70964(19) 0.0150(2)
H23 H -0.0883 0.7457 0.0476
H24 H -0.1036 0.6664 0.0453
H25 H -0.16 0.7213 0.0061
C27 C -0.24562(16) 0.62300(18) -0.0906(2)
C29 C 0.14279(19) 0.09802(19) 0.2828(2)
H28 H 0.1139 0.0711 0.2896
H29 H 0.1843 0.0741 0.3127
C30 C -0.4002(2) 0.4740(2) 0.0188(3)
H30 H -0.3655 0.4856 0.0765
H31 H -0.3947 0.427 0.0073
H32 H -0.4412 0.4782 0.0105
C31 C -0.23046(19) 0.59874(19) -0.2680(2)
H33 H -0.2319 0.6032 -0.3181
H34 H -0.273 0.607 -0.2822
H35 H -0.2165 0.5526 -0.2454
C32 C -0.22657(17) 0.50670(17) -0.0274(2)
H36 H -0.1891 0.503 -0.0251
C33 C -0.20134(17) 0.39217(18) 0.0400(2)
C34 C -0.00034(17) 0.32501(18) 0.1559(2)
H37 H 0.0388 0.345 0.1998
C35 C 0.15230(17) 0.16831(18) 0.3204(2)
H38 H 0.1867 0.1922 0.3223
H39 H 0.1659 0.1634 0.3782
C37 C -0.45330(19) 0.5049(2) -0.1310(3)
H41 H -0.4941 0.5082 -0.1387
H42 H -0.4474 0.4583 -0.1429
H43 H -0.4532 0.5367 -0.1689
C38 C -0.39884(17) 0.52323(18) -0.0409(2)
O1D O 0.26662(12) 0.31939(12) 0.09818(17)
O3D O 0.19597(13) 0.63982(14) -0.09567(18)
N1D N 0.20335(14) 0.39278(15) 0.10689(19)
H1D H 0.1937 0.4361 0.1049
C1D C 0.15040(16) 0.30646(17) 0.2212(2)
H2D H 0.158 0.3091 0.2739
C2D C 0.33660(16) 0.48272(17) 0.0325(2)
N2D N 0.16944(14) 0.62421(15) -0.00716(19)
H3D H 0.1837 0.6087 0.0424
C3D C 0.13051(16) 0.29716(17) 0.0677(2)
C4D C 0.29773(17) 0.53940(18) -0.0004(2)
H4D H 0.3081 0.575 -0.0228
C5D C 0.05884(16) 0.77026(17) -0.0690(2)
H5D H 0.0601 0.8162 -0.0529
C6D C 0.18410(16) 0.34983(17) 0.2039(2)
C7D C 0.11323(17) 0.66612(18) -0.0513(2)
C8D C -0.09132(17) 0.78864(18) -0.2706(2)
H6D H -0.1008 0.7425 -0.2955
H7D H -0.0589 0.8095 -0.2755
C9D C 0.31840(16) 0.43000(17) 0.0624(2)
H8D H 0.3439 0.39 0.0848
C11D C 0.09762(16) 0.25561(17) 0.0870(2)
H9D H 0.0682 0.2232 0.0471
C12D C 0.00047(16) 0.74238(17) -0.1327(2)
C13D C -0.05309(16) 0.85537(16) -0.1433(2)
H10D H -0.0209 0.8787 -0.1466
H11D H -0.0362 0.8531 -0.084
C14D C 0.4101(2) 0.40422(19) 0.0236(3)
H12D H 0.3758 0.3917 -0.0338
H13D H 0.4511 0.4022 0.0318
H14D H 0.4106 0.3724 0.0619
C15D C 0.17311(16) 0.34491(17) 0.1270(2)
C16D C 0.10611(16) 0.25964(16) 0.1629(2)
C17D C -0.11448(18) 0.89700(18) -0.1907(2)
H15D H -0.1459 0.8754 -0.1845
H16D H -0.1055 0.9434 -0.1667
C18D C 0.11577(17) 0.73297(18) -0.0277(2)
C19D C 0.05623(18) 0.63649(18) -0.1160(2)
C20D C 0.05498(19) 0.5642(2) -0.1424(3)
H17D H 0.0831 0.5359 -0.093
H18D H 0.0113 0.5465 -0.1736
H19D H 0.0697 0.5631 -0.1777
C21D C -0.06301(16) 0.78182(17) -0.1777(2)
C22D C 0.26391(16) 0.43521(17) 0.0599(2)
C23D C 0.17783(18) 0.7650(2) 0.0395(3)
H20D H 0.1705 0.8123 0.0476
H21D H 0.1967 0.7396 0.0914
H22D H 0.207 0.7641 0.0236
C24D C 0.24368(16) 0.54599(17) -0.0019(2)
C26D C 0.11964(18) 0.29036(19) -0.0150(2)
H23D H 0.0883 0.2543 -0.0476
H24D H 0.1036 0.3336 -0.0453
H25D H 0.16 0.2787 -0.0061
C27D C 0.24562(16) 0.37700(18) 0.0906(2)
C29D C -0.14279(19) 0.90198(19) -0.2828(2)
H28D H -0.1139 0.9289 -0.2896
H29D H -0.1843 0.9259 -0.3127
C30D C 0.4002(2) 0.5260(2) -0.0188(3)
H30D H 0.3655 0.5144 -0.0765
H31D H 0.3947 0.573 -0.0073
H32D H 0.4412 0.5218 -0.0105
C31D C 0.23046(19) 0.40126(19) 0.2680(2)
H33D H 0.2319 0.3968 0.3181
H34D H 0.273 0.393 0.2822
H35D H 0.2165 0.4474 0.2454
C32D C 0.22657(17) 0.49330(17) 0.0274(2)
H36D H 0.1891 0.497 0.0251
C33D C 0.20134(17) 0.60783(18) -0.0400(2)
C34D C 0.00034(17) 0.67499(18) -0.1559(2)
H37D H -0.0388 0.655 -0.1998
C35D C -0.15230(17) 0.83169(18) -0.3204(2)
H38D H -0.1867 0.8078 -0.3223
H39D H -0.1659 0.8366 -0.3782
C37D C 0.45330(19) 0.4951(2) 0.1310(3)
H41D H 0.4941 0.4918 0.1387
H42D H 0.4474 0.5417 0.1429
H43D H 0.4532 0.4633 0.1689
C38D C 0.39884(17) 0.47677(18) 0.0409(2)
O2 O -0.14715(14) 0.46694(14) -0.09792(18)
C10 C -0.15647(17) 0.40546(18) -0.2070(2)
N3 N -0.05472(15) 0.43371(17) -0.0766(2)
C25 C -0.11904(19) 0.43755(18) -0.1231(2)
C28 C -0.0166(2) 0.4703(2) 0.0022(3)
H26 H 0.0155 0.4388 0.0463
H27 H -0.0446 0.4861 0.0175
C36 C -0.1470(2) 0.4242(2) -0.2660(3)
H40 H -0.1167 0.4585 -0.2537
C39 C -0.0191(2) 0.3901(2) -0.0949(3)
H44 H -0.0485 0.3585 -0.1399
H45 H 0.0128 0.364 -0.0451
H46 H 0.0024 0.4183 -0.1121
C40 C -0.2021(2) 0.3564(2) -0.2267(3)
H47 H -0.2101 0.3443 -0.1875
C41 C -0.2259(3) 0.3427(2) -0.3614(3)
H48 H -0.249 0.3209 -0.4141
C42 C -0.2358(2) 0.3252(2) -0.3044(3)
H49 H -0.2663 0.2909 -0.3175
C43 C -0.1818(3) 0.3929(3) -0.3424(3)
H50 H -0.1754 0.4059 -0.3829
O2D O 0.14715(14) 0.53306(14) 0.09792(18)
C10D C 0.15647(17) 0.59454(18) 0.2070(2)
N3D N 0.05472(15) 0.56629(17) 0.0766(2)
C25D C 0.11904(19) 0.56245(18) 0.1231(2)
C28D C 0.0166(2) 0.5297(2) -0.0022(3)
H26D H -0.0155 0.5612 -0.0463
H27D H 0.0446 0.5139 -0.0175
C36D C 0.1470(2) 0.5758(2) 0.2660(3)
H40D H 0.1167 0.5415 0.2537
C39D C 0.0191(2) 0.6099(2) 0.0949(3)
H44D H 0.0485 0.6415 0.1399
H45D H -0.0128 0.636 0.0451
H46D H -0.0024 0.5817 0.1121
C40D C 0.2021(2) 0.6436(2) 0.2267(3)
H47D H 0.2101 0.6557 0.1875
C41D C 0.2259(3) 0.6573(2) 0.3614(3)
H48D H 0.249 0.6791 0.4141
C42D C 0.2358(2) 0.6748(2) 0.3044(3)
H49D H 0.2663 0.7091 0.3175
C43D C 0.1818(3) 0.6071(3) 0.3424(3)
H50D H 0.1754 0.5941 0.3829
loop_
_geom_bond_atom_site_label_1
_geom_bond_atom_site_label_2
_geom_bond_site_symmetry_1
_geom_bond_site_symmetry_2
Cl1 C44 1_555 1_555
Cl2 C44 1_555 1_555
Cl3 C44 1_555 1_555
O1 C27 1_555 1_555
O2 C25 1_555 1_555
O3 C33 1_555 1_555
N1 H1 1_555 1_555
C1 H2 1_555 1_555
C2 C4 1_555 1_555
N2 H3 1_555 1_555
C3 C11 1_555 1_555
C4 H4 1_555 1_555
C5 H5 1_555 1_555
C6 C1 1_555 1_555
C7 N2 1_555 1_555
C8 H6 1_555 1_555
H7 C8 1_555 1_555
C9 C2 1_555 1_555
H8 C9 1_555 1_555
C10 C25 1_555 1_555
C11 H9 1_555 1_555
C12 C5 1_555 1_555
C13 H10 1_555 1_555
H11 C13 1_555 1_555
C14 H12 1_555 1_555
H13 C14 1_555 1_555
H14 C14 1_555 1_555
C15 N1 1_555 1_555
C16 C1 1_555 1_555
N3 C25 1_555 1_555
C17 C13 1_555 1_555
H15 C17 1_555 1_555
H16 C17 1_555 1_555
C18 C5 1_555 1_555
C19 C7 1_555 1_555
C20 C19 1_555 1_555
H17 C20 1_555 1_555
H18 C20 1_555 1_555
H19 C20 1_555 1_555
C21 C8 1_555 1_555
C22 C9 1_555 1_555
C23 C18 1_555 1_555
H20 C23 1_555 1_555
H21 C23 1_555 1_555
H22 C23 1_555 1_555
C24 C4 1_555 1_555
C26 C3 1_555 1_555
H23 C26 1_555 1_555
H24 C26 1_555 1_555
H25 C26 1_555 1_555
C27 N1 1_555 1_555
C28 N3 1_555 1_555
H26 C28 1_555 1_555
H27 C28 1_555 1_555
C29 C17 1_555 1_555
H28 C29 1_555 1_555
H29 C29 1_555 1_555
C30 H30 1_555 1_555
H31 C30 1_555 1_555
H32 C30 1_555 1_555
C31 C6 1_555 1_555
H33 C31 1_555 1_555
H34 C31 1_555 1_555
H35 C31 1_555 1_555
C32 C22 1_555 1_555
H36 C32 1_555 1_555
C33 N2 1_555 1_555
C34 C12 1_555 1_555
H37 C34 1_555 1_555
C35 C8 1_555 1_555
H38 C35 1_555 1_555
H39 C35 1_555 1_555
C36 C10 1_555 1_555
H40 C36 1_555 1_555
C37 H41 1_555 1_555
H42 C37 1_555 1_555
H43 C37 1_555 1_555
C38 C2 1_555 1_555
C39 N3 1_555 1_555
H44 C39 1_555 1_555
H45 C39 1_555 1_555
H46 C39 1_555 1_555
C40 C10 1_555 1_555
H47 C40 1_555 1_555
C41 H48 1_555 1_555
C42 C40 1_555 1_555
H49 C42 1_555 1_555
C43 C36 1_555 1_555
H50 C43 1_555 1_555
C44 H51 1_555 1_555
O1D C27D 1_555 1_555
O2D C25D 1_555 1_555
O3D C33D 1_555 1_555
N1D H1D 1_555 1_555
C1D H2D 1_555 1_555
C2D C4D 1_555 1_555
N2D H3D 1_555 1_555
C3D C11D 1_555 1_555
C4D H4D 1_555 1_555
C5D H5D 1_555 1_555
C6D C1D 1_555 1_555
C7D N2D 1_555 1_555
C8D H6D 1_555 1_555
H7D C8D 1_555 1_555
C9D C2D 1_555 1_555
H8D C9D 1_555 1_555
C10D C25D 1_555 1_555
C11D H9D 1_555 1_555
C12D C5D 1_555 1_555
C13D H10D 1_555 1_555
H11D C13D 1_555 1_555
C14D H12D 1_555 1_555
H13D C14D 1_555 1_555
H14D C14D 1_555 1_555
C15D N1D 1_555 1_555
C16D C21 1_555 1_555
N3D C25D 1_555 1_555
C17D C13D 1_555 1_555
H15D C17D 1_555 1_555
H16D C17D 1_555 1_555
C18D C5D 1_555 1_555
C19D C7D 1_555 1_555
C20D C19D 1_555 1_555
H17D C20D 1_555 1_555
H18D C20D 1_555 1_555
H19D C20D 1_555 1_555
C21D C16 1_555 1_555
C22D C9D 1_555 1_555
C23D C18D 1_555 1_555
H20D C23D 1_555 1_555
H21D C23D 1_555 1_555
H22D C23D 1_555 1_555
C24D C4D 1_555 1_555
C26D C3D 1_555 1_555
H23D C26D 1_555 1_555
H24D C26D 1_555 1_555
H25D C26D 1_555 1_555
C27D N1D 1_555 1_555
C28D C28 1_555 1_555
H26D C28D 1_555 1_555
H27D C28D 1_555 1_555
C29D C17D 1_555 1_555
H28D C29D 1_555 1_555
H29D C29D 1_555 1_555
C30D H30D 1_555 1_555
H31D C30D 1_555 1_555
H32D C30D 1_555 1_555
C31D C6D 1_555 1_555
H33D C31D 1_555 1_555
H34D C31D 1_555 1_555
H35D C31D 1_555 1_555
C32D C22D 1_555 1_555
H36D C32D 1_555 1_555
C33D N2D 1_555 1_555
C34D C12D 1_555 1_555
H37D C34D 1_555 1_555
C35D C8D 1_555 1_555
H38D C35D 1_555 1_555
H39D C35D 1_555 1_555
C36D C10D 1_555 1_555
H40D C36D 1_555 1_555
C37D H41D 1_555 1_555
H42D C37D 1_555 1_555
H43D C37D 1_555 1_555
C38D C2D 1_555 1_555
C39D N3D 1_555 1_555
H44D C39D 1_555 1_555
H45D C39D 1_555 1_555
H46D C39D 1_555 1_555
C40D C10D 1_555 1_555
H47D C40D 1_555 1_555
C41D H48D 1_555 1_555
C42D C40D 1_555 1_555
H49D C42D 1_555 1_555
C43D C36D 1_555 1_555
H50D C43D 1_555 1_555
C3 C15 1_555 1_555
C6 C15 1_555 1_555
C7 C18 1_555 1_555
C11 C16 1_555 1_555
C12 C21 1_555 1_555
C13 C21 1_555 1_555
C14 C38 1_555 1_555
C19 C34 1_555 1_555
C22 C27 1_555 1_555
C24 C32 1_555 1_555
C24 C33 1_555 1_555
C29 C35 1_555 1_555
C30 C38 1_555 1_555
C37 C38 1_555 1_555
C41 C42 1_555 1_555
C41 C43 1_555 1_555
C1D C16D 1_555 1_555
C3D C15D 1_555 1_555
C6D C15D 1_555 1_555
C7D C18D 1_555 1_555
C8D C21D 1_555 1_555
C11D C16D 1_555 1_555
C12D C21D 1_555 1_555
C13D C21D 1_555 1_555
C14D C38D 1_555 1_555
N3D C28D 1_555 1_555
C19D C34D 1_555 1_555
C22D C27D 1_555 1_555
C24D C32D 1_555 1_555
C24D C33D 1_555 1_555
C29D C35D 1_555 1_555
C30D C38D 1_555 1_555
C37D C38D 1_555 1_555
C41D C42D 1_555 1_555
C41D C43D 1_555 1_555

#END
