
#######################################################################
#
#                 Cambridge Crystallographic Data Centre
#                                CCDC 
#
#######################################################################
#
# If this CIF has been generated from an entry in the Cambridge 
# Structural Database, then it will include bibliographic, chemical, 
# crystal, experimental, refinement or atomic coordinate data resulting 
# from the CCDC's data processing and validation procedures.
#
#######################################################################

data_WEGTIL11
_chemical_formula_moiety         'C30 H44 B2 Ba1 N12'
_chemical_name_systematic        
'bis(Hydrogen tris(3,5-dimethylpyrazolyl)borato)-barium'
_symmetry_cell_setting           rhombohedral
_symmetry_space_group_name_H-M   'R -3'
_symmetry_Int_Tables_number      148
_space_group_name_Hall           '-R 3'
loop_
_symmetry_equiv_pos_site_id
_symmetry_equiv_pos_as_xyz
1 x,y,z
2 -y,x-y,z
3 -x+y,-x,z
4 1/3+x,2/3+y,2/3+z
5 1/3-y,2/3+x-y,2/3+z
6 1/3-x+y,2/3-x,2/3+z
7 2/3+x,1/3+y,1/3+z
8 2/3-y,1/3+x-y,1/3+z
9 2/3-x+y,1/3-x,1/3+z
10 -x,-y,-z
11 y,-x+y,-z
12 x-y,x,-z
13 2/3-x,1/3-y,1/3-z
14 2/3+y,1/3-x+y,1/3-z
15 2/3+x-y,1/3+x,1/3-z
16 1/3-x,2/3-y,2/3-z
17 1/3+y,2/3-x+y,2/3-z
18 1/3+x-y,2/3+x,2/3-z
_cell_length_a                   11.137(3)
_cell_length_b                   11.137(3)
_cell_length_c                   25.427(5)
_cell_angle_alpha                90
_cell_angle_beta                 90
_cell_angle_gamma                120
_cell_volume                     2731.25
_cell_formula_units_Z            3
loop_
_atom_site_label
_atom_site_type_symbol
_atom_site_fract_x
_atom_site_fract_y
_atom_site_fract_z
H1 H 0.07360 0.44920 0.13870
H2 H 0.06040 0.20710 0.23560
H3 H -0.10230 0.14880 0.22090
H4 H -0.00580 0.30480 0.24010
H5 H 0.05270 0.34460 0.00180
H6 H 0.21590 0.40360 0.01580
H7 H 0.14530 0.49640 0.02660
H8 H 0.0000 0.0000 0.1990(37)
Ba1 Ba 0.00000 0.00000 0.00000
B1 B 0.00000 0.00000 0.14970(21)
N1 N 0.06420(27) 0.18900(24) 0.08010(10)
N2 N 0.02900(24) 0.14440(24) 0.13100(9)
C1 C 0.02900(27) 0.24530(31) 0.16040(12)
C2 C 0.06560(31) 0.35820(30) 0.12840(14)
C3 C 0.08690(33) 0.31860(30) 0.07880(14)
C4 C -0.00670(33) 0.22980(39) 0.21750(14)
C5 C 0.12720(48) 0.39860(39) 0.02860(17)
N2A N -0.14440(24) -0.11540(34) 0.13100(9)
N1A N -0.18900(24) -0.12480(36) 0.08010(10)
N1B N 0.12480(36) -0.06420(27) 0.08010(10)
N2B N 0.11540(34) -0.02900(24) 0.13100(9)
C1B C 0.21630(41) -0.02900(27) 0.16040(12)
C2B C 0.29260(43) -0.06560(31) 0.12840(14)
H1B H 0.37560 -0.07360 0.13870
C3B C 0.23170(45) -0.08690(33) 0.07880(14)
C5B C 0.27140(62) -0.12720(48) 0.02860(17)
H5B H 0.29190 -0.05270 0.00180
H6B H 0.18770 -0.21590 0.01580
H7B H 0.35110 -0.14530 0.02660
C4B C 0.23650(51) 0.00670(33) 0.21750(14)
H2B H 0.14670 -0.06040 0.23560
H3B H 0.25110 0.10230 0.22090
H4B H 0.31060 0.00580 0.24010
N1I N -0.06420(27) -0.18900(24) -0.08010(10)
N2I N -0.02900(24) -0.14440(24) -0.13100(9)
B1I B 0.00000 0.00000 -0.14970(21)
H8I H 0.0000 0.0000 -0.1990(37)
N2J N 0.14440(24) 0.11540(34) -0.13100(9)
N1J N 0.18900(24) 0.12480(36) -0.08010(10)
N1K N -0.12480(36) 0.06420(27) -0.08010(10)
N2K N -0.11540(34) 0.02900(24) -0.13100(9)
C1K C -0.21630(41) 0.02900(27) -0.16040(12)
C2K C -0.29260(43) 0.06560(31) -0.12840(14)
H1K H -0.37560 0.07360 -0.13870
C3K C -0.23170(45) 0.08690(33) -0.07880(14)
C5K C -0.27140(62) 0.12720(48) -0.02860(17)
H5K H -0.29190 0.05270 -0.00180
H6K H -0.18770 0.21590 -0.01580
H7K H -0.35110 0.14530 -0.02660
C4K C -0.23650(51) -0.00670(33) -0.21750(14)
H2K H -0.14670 0.06040 -0.23560
H3K H -0.25110 -0.10230 -0.22090
H4K H -0.31060 -0.00580 -0.24010
C3J C 0.31860(30) 0.23170(45) -0.07880(14)
C2J C 0.35820(30) 0.29260(43) -0.12840(14)
H1J H 0.44920 0.37560 -0.13870
C1J C 0.24530(31) 0.21630(41) -0.16040(12)
C4J C 0.22980(39) 0.23650(51) -0.21750(14)
H2J H 0.20710 0.14670 -0.23560
H3J H 0.14880 0.25110 -0.22090
H4J H 0.30480 0.31060 -0.24010
C5J C 0.39860(39) 0.27140(62) -0.02860(17)
H5J H 0.34460 0.29190 -0.00180
H6J H 0.40360 0.18770 -0.01580
H7J H 0.49640 0.35110 -0.02660
C1I C -0.02900(27) -0.24530(31) -0.16040(12)
C2I C -0.06560(31) -0.35820(30) -0.12840(14)
H1I H -0.07360 -0.44920 -0.13870
C3I C -0.08690(33) -0.31860(30) -0.07880(14)
C5I C -0.12720(48) -0.39860(39) -0.02860(17)
H5I H -0.05270 -0.34460 -0.00180
H6I H -0.21590 -0.40360 -0.01580
H7I H -0.14530 -0.49640 -0.02660
C4I C 0.00670(33) -0.22980(39) -0.21750(14)
H2I H -0.06040 -0.20710 -0.23560
H3I H 0.10230 -0.14880 -0.22090
H4I H 0.00580 -0.30480 -0.24010
C3A C -0.31860(30) -0.23170(45) 0.07880(14)
C2A C -0.35820(30) -0.29260(43) 0.12840(14)
H1A H -0.44920 -0.37560 0.13870
C1A C -0.24530(31) -0.21630(41) 0.16040(12)
C4A C -0.22980(39) -0.23650(51) 0.21750(14)
H2A H -0.20710 -0.14670 0.23560
H3A H -0.14880 -0.25110 0.22090
H4A H -0.30480 -0.31060 0.24010
C5A C -0.39860(39) -0.27140(62) 0.02860(17)
H5A H -0.34460 -0.29190 0.00180
H6A H -0.40360 -0.18770 0.01580
H7A H -0.49640 -0.35110 0.02660
loop_
_geom_bond_atom_site_label_1
_geom_bond_atom_site_label_2
_geom_bond_site_symmetry_1
_geom_bond_site_symmetry_2
H1 C2 1_555 1_555
H2 C4 1_555 1_555
H3 C4 1_555 1_555
H4 C4 1_555 1_555
H5 C5 1_555 1_555
H6 C5 1_555 1_555
H7 C5 1_555 1_555
H8 B1 1_555 1_555
Ba1 N1 1_555 1_555
B1 N2 1_555 1_555
N1 N2 1_555 1_555
N2 C1 1_555 1_555
C1 C2 1_555 1_555
C2 C3 1_555 1_555
C3 N1 1_555 1_555
C4 C1 1_555 1_555
C5 C3 1_555 1_555
N2A B1 1_555 1_555
N1A Ba1 1_555 1_555
N1B Ba1 1_555 1_555
N2B B1 1_555 1_555
C1B N2B 1_555 1_555
C2B C1B 1_555 1_555
H1B C2B 1_555 1_555
C3B N1B 1_555 1_555
C5B C3B 1_555 1_555
H5B C5B 1_555 1_555
H6B C5B 1_555 1_555
H7B C5B 1_555 1_555
C4B C1B 1_555 1_555
H2B C4B 1_555 1_555
H3B C4B 1_555 1_555
H4B C4B 1_555 1_555
N1I Ba1 1_555 1_555
N2I N1I 1_555 1_555
B1I N2I 1_555 1_555
H8I B1I 1_555 1_555
N2J B1I 1_555 1_555
N1J Ba1 1_555 1_555
N1K Ba1 1_555 1_555
N2K B1I 1_555 1_555
C1K N2K 1_555 1_555
C2K C1K 1_555 1_555
H1K C2K 1_555 1_555
C3K N1K 1_555 1_555
C5K C3K 1_555 1_555
H5K C5K 1_555 1_555
H6K C5K 1_555 1_555
H7K C5K 1_555 1_555
C4K C1K 1_555 1_555
H2K C4K 1_555 1_555
H3K C4K 1_555 1_555
H4K C4K 1_555 1_555
C3J N1J 1_555 1_555
C2J C3J 1_555 1_555
H1J C2J 1_555 1_555
C1J N2J 1_555 1_555
C4J C1J 1_555 1_555
H2J C4J 1_555 1_555
H3J C4J 1_555 1_555
H4J C4J 1_555 1_555
C5J C3J 1_555 1_555
H5J C5J 1_555 1_555
H6J C5J 1_555 1_555
H7J C5J 1_555 1_555
C1I N2I 1_555 1_555
C2I C1I 1_555 1_555
H1I C2I 1_555 1_555
C3I N1I 1_555 1_555
C5I C3I 1_555 1_555
H5I C5I 1_555 1_555
H6I C5I 1_555 1_555
H7I C5I 1_555 1_555
C4I C1I 1_555 1_555
H2I C4I 1_555 1_555
H3I C4I 1_555 1_555
H4I C4I 1_555 1_555
C3A N1A 1_555 1_555
C2A C3A 1_555 1_555
H1A C2A 1_555 1_555
C1A N2A 1_555 1_555
C4A C1A 1_555 1_555
H2A C4A 1_555 1_555
H3A C4A 1_555 1_555
H4A C4A 1_555 1_555
C5A C3A 1_555 1_555
H5A C5A 1_555 1_555
H6A C5A 1_555 1_555
H7A C5A 1_555 1_555
N2A N1A 1_555 1_555
N1B N2B 1_555 1_555
C2B C3B 1_555 1_555
N2J N1J 1_555 1_555
N1K N2K 1_555 1_555
C2K C3K 1_555 1_555
C2J C1J 1_555 1_555
C2I C3I 1_555 1_555
C2A C1A 1_555 1_555

#END
