
#######################################################################
#
#                 Cambridge Crystallographic Data Centre
#                                CCDC 
#
#######################################################################
#
# If this CIF has been generated from an entry in the Cambridge 
# Structural Database, then it will include bibliographic, chemical, 
# crystal, experimental, refinement or atomic coordinate data resulting 
# from the CCDC's data processing and validation procedures.
#
#######################################################################

data_WEGWEN
_chemical_formula_moiety         'C28 H22 O1'
_chemical_name_systematic        
1-(3,4-diphenylcyclopenta-1,3-dien-1-yl)-2-methoxynaphthalene
_symmetry_cell_setting           monoclinic
_symmetry_space_group_name_H-M   'C 2/c'
_symmetry_Int_Tables_number      15
_space_group_name_Hall           '-C 2yn'
loop_
_symmetry_equiv_pos_site_id
_symmetry_equiv_pos_as_xyz
1 x,y,z
2 -x,y,1/2-z
3 1/2+x,1/2+y,z
4 1/2-x,1/2+y,1/2-z
5 -x,-y,-z
6 x,-y,1/2+z
7 1/2-x,1/2-y,-z
8 1/2+x,1/2-y,1/2+z
_cell_length_a                   23.397(3)
_cell_length_b                   10.7425(12)
_cell_length_c                   18.685(4)
_cell_angle_alpha                90
_cell_angle_beta                 121.9060(10)
_cell_angle_gamma                90
_cell_volume                     3986.79
_exptl_crystal_colour            yellow
_exptl_crystal_description       block
_cell_formula_units_Z            8
loop_
_atom_site_label
_atom_site_type_symbol
_atom_site_fract_x
_atom_site_fract_y
_atom_site_fract_z
O1 O 0.29300(5) 0.17435(10) -0.10960(6)
C1 C 0.50550(6) 0.23313(12) 0.03688(8)
C2 C 0.50364(6) 0.31959(12) 0.08852(8)
C3 C 0.44395(7) 0.29501(13) 0.09342(8)
H1 H 0.4315 0.3417 0.1250
C4 C 0.40956(6) 0.19529(12) 0.04587(8)
C5 C 0.44594(7) 0.14751(13) 0.00563(9)
H2 H 0.4173 0.1508 -0.0553
H3 H 0.4605 0.0623 0.0226
C6 C 0.55577(7) 0.21808(12) 0.01244(9)
C7 C 0.53636(9) 0.20816(15) -0.07128(10)
H4 H 0.4908 0.2080 -0.1130
C8 C 0.58412(12) 0.19849(17) -0.09390(14)
H5 H 0.5704 0.1924 -0.1504
C9 C 0.65124(12) 0.19798(17) -0.03313(17)
H6 H 0.6832 0.1935 -0.0483
C10 C 0.67126(9) 0.20408(17) 0.05002(15)
H7 H 0.7169 0.2015 0.0913
C11 C 0.62445(8) 0.21404(15) 0.07348(11)
H8 H 0.6388 0.2181 0.1303
C12 C 0.54878(6) 0.42698(12) 0.13148(8)
C13 C 0.58003(7) 0.49273(13) 0.09679(9)
H9 H 0.5736 0.4676 0.0454
C14 C 0.62038(7) 0.59476(14) 0.13794(10)
H10 H 0.6415 0.6366 0.1146
C15 C 0.62944(8) 0.63462(14) 0.21348(11)
H11 H 0.6561 0.7039 0.2406
C16 C 0.59884(8) 0.57141(15) 0.24863(10)
H12 H 0.6048 0.5980 0.2995
C17 C 0.55930(7) 0.46853(14) 0.20810(9)
H13 H 0.5392 0.4261 0.2326
C18 C 0.34777(6) 0.14004(12) 0.03594(8)
C19 C 0.28948(7) 0.13101(12) -0.04286(8)
C20 C 0.22993(7) 0.08125(13) -0.05313(9)
H14 H 0.1912 0.0769 -0.1067
C21 C 0.22857(7) 0.03953(13) 0.01472(9)
H15 H 0.1887 0.0076 0.0069
C22 C 0.28634(7) 0.04375(12) 0.09649(9)
C23 C 0.28633(8) -0.00283(13) 0.16747(9)
H16 H 0.2468 -0.0356 0.1603
C24 C 0.34285(9) -0.00058(15) 0.24584(10)
H17 H 0.3419 -0.0316 0.2917
C25 C 0.40263(8) 0.04887(15) 0.25711(10)
H18 H 0.4414 0.0500 0.3107
C26 C 0.40452(7) 0.09518(14) 0.19054(9)
H19 H 0.4447 0.1277 0.1997
C27 C 0.34670(6) 0.09508(12) 0.10740(8)
C28 C 0.23377(7) 0.17281(15) -0.19142(9)
H20 H 0.2437 0.2055 -0.2314
H21 H 0.1997 0.2230 -0.1917
H22 H 0.2178 0.0888 -0.2065
loop_
_geom_bond_atom_site_label_1
_geom_bond_atom_site_label_2
_geom_bond_site_symmetry_1
_geom_bond_site_symmetry_2
O1 C19 1_555 1_555
C1 C2 1_555 1_555
C2 C3 1_555 1_555
C3 H1 1_555 1_555
C4 C3 1_555 1_555
C5 C1 1_555 1_555
H2 C5 1_555 1_555
H3 C5 1_555 1_555
C6 C1 1_555 1_555
C7 C6 1_555 1_555
H4 C7 1_555 1_555
C8 C7 1_555 1_555
H5 C8 1_555 1_555
C9 C8 1_555 1_555
H6 C9 1_555 1_555
C10 C9 1_555 1_555
H7 C10 1_555 1_555
C11 C6 1_555 1_555
H8 C11 1_555 1_555
C12 C2 1_555 1_555
C13 C12 1_555 1_555
H9 C13 1_555 1_555
C14 C13 1_555 1_555
H10 C14 1_555 1_555
C15 C14 1_555 1_555
H11 C15 1_555 1_555
C16 C15 1_555 1_555
H12 C16 1_555 1_555
C17 C12 1_555 1_555
H13 C17 1_555 1_555
C18 C4 1_555 1_555
C19 C18 1_555 1_555
C20 C19 1_555 1_555
H14 C20 1_555 1_555
C21 C20 1_555 1_555
H15 C21 1_555 1_555
C22 C21 1_555 1_555
C23 C22 1_555 1_555
H16 C23 1_555 1_555
C24 C23 1_555 1_555
H17 C24 1_555 1_555
C25 C24 1_555 1_555
H18 C25 1_555 1_555
C26 C25 1_555 1_555
H19 C26 1_555 1_555
C27 C18 1_555 1_555
C28 O1 1_555 1_555
H20 C28 1_555 1_555
H21 C28 1_555 1_555
H22 C28 1_555 1_555
C4 C5 1_555 1_555
C10 C11 1_555 1_555
C16 C17 1_555 1_555
C22 C27 1_555 1_555
C26 C27 1_555 1_555

#END
