
#######################################################################
#
#                 Cambridge Crystallographic Data Centre
#                                CCDC 
#
#######################################################################
#
# If this CIF has been generated from an entry in the Cambridge 
# Structural Database, then it will include bibliographic, chemical, 
# crystal, experimental, refinement or atomic coordinate data resulting 
# from the CCDC's data processing and validation procedures.
#
#######################################################################

data_WEGWIR
_chemical_formula_moiety         'C28 H22 O1'
_chemical_name_systematic        
1-(3,4-diphenylcyclopenta-1,3-dien-1-yl)-4-methoxynaphthalene
_symmetry_cell_setting           orthorhombic
_symmetry_space_group_name_H-M   'P 21 21 21'
_symmetry_Int_Tables_number      19
_space_group_name_Hall           'P 2ac 2ab'
loop_
_symmetry_equiv_pos_site_id
_symmetry_equiv_pos_as_xyz
1 x,y,z
2 1/2-x,-y,1/2+z
3 1/2+x,1/2-y,-z
4 -x,1/2+y,1/2-z
_cell_length_a                   23.792(2)
_cell_length_b                   9.3283(8)
_cell_length_c                   9.1048(8)
_cell_angle_alpha                90
_cell_angle_beta                 90
_cell_angle_gamma                90
_cell_volume                     2020.71
_exptl_crystal_colour            yellow
_exptl_crystal_description       block
_cell_formula_units_Z            4
loop_
_atom_site_label
_atom_site_type_symbol
_atom_site_fract_x
_atom_site_fract_y
_atom_site_fract_z
O1 O 0.58604(6) -0.14152(19) -0.20366(18)
C1 C 0.34043(7) 0.2835(2) 0.1923(2)
C2 C 0.31051(7) 0.1631(2) 0.16475(19)
C3 C 0.34954(7) 0.0532(2) 0.1091(2)
H1 H 0.3396 -0.0396 0.0821
C4 C 0.40389(7) 0.1100(2) 0.1035(2)
C5 C 0.40110(8) 0.2551(2) 0.1573(2)
H2 H 0.4145 0.3216 0.0833
H3 H 0.4241 0.2657 0.2447
C6 C 0.32091(7) 0.4282(2) 0.23562(19)
C7 C 0.34144(8) 0.4969(2) 0.3590(2)
H4 H 0.3668 0.4498 0.4199
C8 C 0.32448(9) 0.6360(3) 0.3931(2)
H5 H 0.3388 0.6810 0.4761
C9 C 0.28708(10) 0.7065(2) 0.3057(2)
H6 H 0.2759 0.7994 0.3287
C10 C 0.26596(9) 0.6393(2) 0.1832(2)
H7 H 0.2402 0.6867 0.1237
C11 C 0.28272(8) 0.5020(2) 0.1480(2)
H8 H 0.2683 0.4581 0.0645
C12 C 0.24941(7) 0.1359(2) 0.18202(19)
C13 C 0.21634(8) 0.2086(2) 0.2850(2)
H9 H 0.2325 0.2786 0.3442
C14 C 0.15961(9) 0.1769(3) 0.2994(3)
H10 H 0.1382 0.2253 0.3691
C15 C 0.13459(10) 0.0754(3) 0.2125(3)
H11 H 0.0965 0.0557 0.2223
C16 C 0.16647(9) 0.0029(3) 0.1107(3)
H12 H 0.1499 -0.0663 0.0514
C17 C 0.22307(8) 0.0326(2) 0.0962(2)
H13 H 0.2441 -0.0178 0.0272
C18 C 0.45437(7) 0.0442(2) 0.0356(2)
C19 C 0.48755(8) 0.1265(2) -0.0548(2)
H14 H 0.4798 0.2239 -0.0626
C20 C 0.53279(8) 0.0696(3) -0.1363(2)
H15 H 0.5545 0.1294 -0.1953
C21 C 0.54461(7) -0.0733(3) -0.1284(2)
C22 C 0.51284(7) -0.1634(2) -0.0331(2)
C23 C 0.52595(8) -0.3112(3) -0.0192(3)
H16 H 0.5542 -0.3505 -0.0771
C24 C 0.49800(8) -0.3961(3) 0.0769(3)
H17 H 0.5067 -0.4931 0.0838
C25 C 0.45599(8) -0.3372(2) 0.1655(3)
H18 H 0.4379 -0.3951 0.2340
C26 C 0.44088(8) -0.1958(2) 0.1537(2)
H19 H 0.4123 -0.1597 0.2128
C27 C 0.46818(7) -0.1043(2) 0.0525(2)
C28 C 0.62101(10) -0.0581(3) -0.2976(3)
H20 H 0.6480 -0.1194 -0.3446
H21 H 0.6403 0.0132 -0.2407
H22 H 0.5983 -0.0120 -0.3708
loop_
_geom_bond_atom_site_label_1
_geom_bond_atom_site_label_2
_geom_bond_site_symmetry_1
_geom_bond_site_symmetry_2
O1 C21 1_555 1_555
C1 C2 1_555 1_555
C2 C3 1_555 1_555
C3 H1 1_555 1_555
C4 C3 1_555 1_555
C5 C1 1_555 1_555
H2 C5 1_555 1_555
H3 C5 1_555 1_555
C6 C1 1_555 1_555
C7 C6 1_555 1_555
H4 C7 1_555 1_555
C8 C7 1_555 1_555
H5 C8 1_555 1_555
C9 C8 1_555 1_555
H6 C9 1_555 1_555
C10 C9 1_555 1_555
H7 C10 1_555 1_555
C11 C6 1_555 1_555
H8 C11 1_555 1_555
C12 C2 1_555 1_555
C13 C12 1_555 1_555
H9 C13 1_555 1_555
C14 C13 1_555 1_555
H10 C14 1_555 1_555
C15 C14 1_555 1_555
H11 C15 1_555 1_555
C16 C15 1_555 1_555
H12 C16 1_555 1_555
C17 C12 1_555 1_555
H13 C17 1_555 1_555
C18 C4 1_555 1_555
C19 C18 1_555 1_555
H14 C19 1_555 1_555
C20 C19 1_555 1_555
H15 C20 1_555 1_555
C21 C20 1_555 1_555
C22 C21 1_555 1_555
C23 C22 1_555 1_555
H16 C23 1_555 1_555
C24 C23 1_555 1_555
H17 C24 1_555 1_555
C25 C24 1_555 1_555
H18 C25 1_555 1_555
C26 C25 1_555 1_555
H19 C26 1_555 1_555
C27 C18 1_555 1_555
C28 O1 1_555 1_555
H20 C28 1_555 1_555
H21 C28 1_555 1_555
H22 C28 1_555 1_555
C4 C5 1_555 1_555
C10 C11 1_555 1_555
C16 C17 1_555 1_555
C22 C27 1_555 1_555
C26 C27 1_555 1_555

#END
