
#######################################################################
#
#                 Cambridge Crystallographic Data Centre
#                                CCDC 
#
#######################################################################
#
# If this CIF has been generated from an entry in the Cambridge 
# Structural Database, then it will include bibliographic, chemical, 
# crystal, experimental, refinement or atomic coordinate data resulting 
# from the CCDC's data processing and validation procedures.
#
#######################################################################

data_WEGZUF
_chemical_formula_moiety         'C17 H21 F1 O6'
_chemical_name_systematic        
'6-Fluoro-2-hydroxy-3-methyl-5-oxocyclohex-3-en-1-yl 4,7,7-trimethyl-3-oxo-2-oxabicyclo[2.2.1]heptane-1-carboxylate'
_symmetry_cell_setting           monoclinic
_symmetry_space_group_name_H-M   'P 21'
_symmetry_Int_Tables_number      4
_space_group_name_Hall           'P 2yb'
loop_
_symmetry_equiv_pos_site_id
_symmetry_equiv_pos_as_xyz
1 x,y,z
2 -x,1/2+y,-z
_cell_length_a                   8.2716(12)
_cell_length_b                   10.4218(18)
_cell_length_c                   10.0531(18)
_cell_angle_alpha                90
_cell_angle_beta                 106.384(13)
_cell_angle_gamma                90
_cell_volume                     831.436
_exptl_crystal_colour            colorless
_exptl_crystal_description       blocks
_cell_formula_units_Z            2
loop_
_atom_site_label
_atom_site_type_symbol
_atom_site_fract_x
_atom_site_fract_y
_atom_site_fract_z
C1 C 1.3297(3) 1.0278(3) 0.4873(2)
O1 O 1.3606(2) 1.1421(2) 0.4915(2)
C2 C 1.2098(3) 0.9693(2) 0.5510(2)
H1 H 1.1603 1.0215 0.6036
C3 C 1.1665(3) 0.8452(2) 0.5388(2)
C4 C 1.2443(3) 0.7540(2) 0.4563(2)
H2 H 1.3429 0.7130 0.5196
O2 O 1.1261(2) 0.65785(19) 0.3945(2)
H3 H 1.1741 0.5998 0.3656
C5 C 1.3013(2) 0.8284(2) 0.3457(2)
H4 H 1.3554 0.7713 0.2936
O3 O 1.15081(18) 0.88721(17) 0.25503(13)
C6 C 1.4184(3) 0.9342(3) 0.4146(2)
H5 H 1.5134 0.8958 0.4845
F1 F 1.4812(2) 0.99963(19) 0.31990(16)
C7 C 1.0433(4) 0.7903(3) 0.6069(3)
H6 H 1.0165 0.8535 0.6669
H7 H 1.0918 0.7163 0.6604
H8 H 0.9425 0.7656 0.5374
C8 C 1.0935(2) 0.8481(2) 0.12443(19)
O4 O 1.1671(2) 0.7806(2) 0.06573(16)
C9 C 0.9167(2) 0.9017(2) 0.06077(18)
O5 O 0.90629(17) 0.94058(16) -0.08180(12)
C10 C 0.8605(3) 1.0184(2) 0.1292(2)
H9 H 0.9189 1.0957 0.1150
H10 H 0.8782 1.0051 0.2277
C11 C 0.6701(3) 1.0248(2) 0.0505(2)
H11 H 0.6429 1.1041 -0.0015
H12 H 0.6015 1.0182 0.1142
C12 C 0.6430(2) 0.9072(2) -0.04802(19)
C13 C 0.7394(3) 0.9458(2) -0.14984(19)
O6 O 0.6897(2) 0.98064(18) -0.26868(14)
C14 C 0.7664(2) 0.8059(2) 0.03844(19)
C15 C 0.7291(3) 0.7647(3) 0.1727(2)
H13 H 0.8237 0.7182 0.2295
H14 H 0.6311 0.7107 0.1511
H15 H 0.7091 0.8393 0.2218
C16 C 0.7828(3) 0.6862(2) -0.0449(2)
H16 H 0.8095 0.7113 -0.1282
H17 H 0.6783 0.6398 -0.0686
H18 H 0.8710 0.6324 0.0097
C17 C 0.4605(3) 0.8702(3) -0.1145(3)
H19 H 0.4001 0.9428 -0.1629
H20 H 0.4102 0.8432 -0.0440
H21 H 0.4558 0.8011 -0.1788
loop_
_geom_bond_atom_site_label_1
_geom_bond_atom_site_label_2
_geom_bond_site_symmetry_1
_geom_bond_site_symmetry_2
C1 O1 1_555 1_555
C2 C1 1_555 1_555
H1 C2 1_555 1_555
C3 C2 1_555 1_555
C4 C3 1_555 1_555
H2 C4 1_555 1_555
O2 C4 1_555 1_555
H3 O2 1_555 1_555
C5 C4 1_555 1_555
H4 C5 1_555 1_555
O3 C5 1_555 1_555
C6 C1 1_555 1_555
H5 C6 1_555 1_555
F1 C6 1_555 1_555
C7 C3 1_555 1_555
H6 C7 1_555 1_555
H7 C7 1_555 1_555
H8 C7 1_555 1_555
C8 O3 1_555 1_555
O4 C8 1_555 1_555
C9 C8 1_555 1_555
O5 C9 1_555 1_555
C10 C9 1_555 1_555
H9 C10 1_555 1_555
H10 C10 1_555 1_555
C11 C10 1_555 1_555
H11 C11 1_555 1_555
H12 C11 1_555 1_555
C12 C11 1_555 1_555
C13 O5 1_555 1_555
O6 C13 1_555 1_555
C14 C9 1_555 1_555
C15 C14 1_555 1_555
H13 C15 1_555 1_555
H14 C15 1_555 1_555
H15 C15 1_555 1_555
C16 C14 1_555 1_555
H16 C16 1_555 1_555
H17 C16 1_555 1_555
H18 C16 1_555 1_555
C17 C12 1_555 1_555
H19 C17 1_555 1_555
H20 C17 1_555 1_555
H21 C17 1_555 1_555
C5 C6 1_555 1_555
C12 C13 1_555 1_555
C12 C14 1_555 1_555

#END
