
#######################################################################
#
#                 Cambridge Crystallographic Data Centre
#                                CCDC 
#
#######################################################################
#
# If this CIF has been generated from an entry in the Cambridge 
# Structural Database, then it will include bibliographic, chemical, 
# crystal, experimental, refinement or atomic coordinate data resulting 
# from the CCDC's data processing and validation procedures.
#
#######################################################################

data_WEHBAM
_chemical_formula_moiety         'C28 H84 N14 Na2 P4 Si4,C5 H12'
_chemical_name_systematic        
"bis(\m~2~-P,P,P',P'-tetrakis(Dimethylamino)-N,N'-bis(trimethylsilyl)-diphospha-triazene-N,N,N',N'')-di-sodium pentane solvate"
_symmetry_cell_setting           monoclinic
_symmetry_space_group_name_H-M   'P 21/n'
_symmetry_Int_Tables_number      14
_space_group_name_Hall           '-P 2yn'
loop_
_symmetry_equiv_pos_site_id
_symmetry_equiv_pos_as_xyz
1 x,y,z
2 1/2-x,1/2+y,1/2-z
3 -x,-y,-z
4 1/2+x,1/2-y,1/2+z
_cell_length_a                   10.147(1)
_cell_length_b                   22.906(2)
_cell_length_c                   12.311(2)
_cell_angle_alpha                90
_cell_angle_beta                 95.30(2)
_cell_angle_gamma                90
_cell_volume                     2849.18
_exptl_crystal_colour            colorless
_chemical_melting_point          102deg.C
_cell_formula_units_Z            2
_chemical_properties_physical    'Air- and moisture-sensitive'
loop_
_atom_site_label
_atom_site_type_symbol
_atom_site_fract_x
_atom_site_fract_y
_atom_site_fract_z
Na1 Na 0.4874(1) 0.0366(1) 1.1130(1)
P1 P 0.3903(1) 0.1622(1) 1.1221(1)
P2 P 0.4630(1) 0.1095(1) 0.9043(1)
Si1 Si 0.7458(1) 0.0704(1) 0.9575(1)
Si2 Si 0.4336(1) 0.1160(1) 1.3555(1)
N1 N 0.4281(2) 0.1186(1) 1.2179(1)
N2 N 0.3986(2) 0.1323(1) 1.0069(1)
N3 N 0.5800(2) 0.0643(1) 0.9192(1)
N4 N 0.4763(2) 0.2250(1) 1.1226(2)
N5 N 0.2375(2) 0.1894(1) 1.1304(2)
N6 N 0.5068(2) 0.1669(1) 0.8316(2)
N7 N 0.3378(2) 0.0723(1) 0.8333(1)
C1 C 0.6112(3) 0.2224(1) 1.0909(2)
C2 C 0.4683(3) 0.2642(1) 1.2155(2)
C3 C 0.1353(2) 0.1496(1) 1.1611(2)
C4 C 0.1858(3) 0.2297(1) 1.0443(2)
C5 C 0.4334(3) 0.2219(1) 0.8303(3)
C6 C 0.5756(3) 0.1597(1) 0.7339(2)
C7 C 0.2028(2) 0.0940(1) 0.8346(2)
C8 C 0.3613(3) 0.0536(1) 0.7230(2)
C9 C 0.8273(3) 0.0050(1) 0.9034(2)
C10 C 0.8341(3) 0.1355(1) 0.9072(2)
C11 C 0.7793(3) 0.0696(1) 1.1096(2)
C12 C 0.3425(3) 0.1756(1) 1.4224(2)
C13 C 0.3583(3) 0.0457(1) 1.3969(2)
C14 C 0.6086(3) 0.1169(2) 1.4161(2)
H1 H 0.6139(4) 0.1970(5) 1.0282(8)
H2 H 0.6698(4) 0.2073(6) 1.1511(5)
H3 H 0.6397(6) 0.2613(2) 1.0723(12)
H4 H 0.3783(5) 0.2647(6) 1.2362(9)
H5 H 0.4935(16) 0.3033(2) 1.1954(5)
H6 H 0.5278(12) 0.2507(4) 1.2765(5)
H7 H 0.0993(11) 0.1280(5) 1.0974(3)
H8 H 0.0653(7) 0.17170(13) 1.1905(12)
H9 H 0.1734(4) 0.1225(4) 1.2159(9)
H10 H 0.1674(14) 0.2084(2) 0.9765(4)
H11 H 0.2509(6) 0.2598(4) 1.0348(8)
H12 H 0.1049(8) 0.2475(5) 1.0646(6)
H13 H 0.3678(13) 0.2225(4) 0.7677(9)
H14 H 0.4942(4) 0.25425(12) 0.8254(15)
H15 H 0.3895(16) 0.2253(4) 0.8967(7)
H16 H 0.5125(3) 0.1624(7) 0.6699(2)
H17 H 0.6183(13) 0.1218(3) 0.7354(6)
H18 H 0.6417(10) 0.1901(4) 0.7312(7)
H19 H 0.1409(2) 0.0640(3) 0.8074(12)
H20 H 0.1912(5) 0.1284(4) 0.7887(10)
H21 H 0.1865(5) 0.1041(6) 0.9087(3)
H22 H 0.3034(10) 0.0211(4) 0.7013(5)
H23 H 0.4528(4) 0.0414(6) 0.7220(3)
H24 H 0.3434(14) 0.0857(2) 0.6725(3)
H25 H 0.8127(16) 0.0046(4) 0.8244(2)
H26 H 0.7900(13) -0.03007(13) 0.9324(12)
H27 H 0.9216(4) 0.0064(4) 0.9252(13)
H28 H 0.8411(15) 0.1316(4) 0.8295(3)
H29 H 0.9221(7) 0.1379(7) 0.9452(10)
H30 H 0.7850(9) 0.17060(14) 0.9209(13)
H31 H 0.7524(15) 0.0323(3) 1.1376(2)
H32 H 0.7296(13) 0.1007(5) 1.1406(2)
H33 H 0.8731(3) 0.0755(7) 1.1294(2)
H34 H 0.2552(7) 0.1804(6) 1.3841(9)
H35 H 0.3914(10) 0.2119(2) 1.4198(13)
H36 H 0.3337(16) 0.1653(4) 1.4978(5)
H37 H 0.3999(14) 0.01328(14) 1.3625(13)
H38 H 0.2642(5) 0.0458(4) 1.3741(15)
H39 H 0.3717(18) 0.0415(4) 1.4756(3)
H40 H 0.6573(6) 0.0857(5) 1.3845(12)
H41 H 0.6111(3) 0.1114(8) 1.4944(3)
H42 H 0.6486(6) 0.1542(3) 1.4010(13)
N3B N 0.4200(2) -0.0643(1) 1.0808(1)
Na1B Na 0.5126(1) -0.0366(1) 0.8870(1)
P2B P 0.5370(1) -0.1095(1) 1.0957(1)
Si1B Si 0.2542(1) -0.0704(1) 1.0425(1)
N1B N 0.5719(2) -0.1186(1) 0.7821(1)
N2B N 0.6014(2) -0.1323(1) 0.9931(1)
N6B N 0.4932(2) -0.1669(1) 1.1684(2)
N7B N 0.6622(2) -0.0723(1) 1.1667(1)
C9B C 0.1727(3) -0.0050(1) 1.0966(2)
C10B C 0.1659(3) -0.1355(1) 1.0928(2)
C11B C 0.2207(3) -0.0696(1) 0.8904(2)
P1B P 0.6097(1) -0.1622(1) 0.8779(1)
Si2B Si 0.5664(1) -0.1160(1) 0.6445(1)
C5B C 0.5666(3) -0.2219(1) 1.1697(3)
C6B C 0.4244(3) -0.1597(1) 1.2661(2)
C7B C 0.7972(2) -0.0940(1) 1.1654(2)
C8B C 0.6387(3) -0.0536(1) 1.2770(2)
H25B H 0.1873(16) -0.0046(4) 1.1756(2)
H26B H 0.2100(13) 0.03007(13) 1.0676(12)
H27B H 0.0784(4) -0.0064(4) 1.0748(13)
H28B H 0.1589(15) -0.1316(4) 1.1705(3)
H29B H 0.0779(7) -0.1379(7) 1.0548(10)
H30B H 0.2150(9) -0.17060(14) 1.0791(13)
H31B H 0.2476(15) -0.0323(3) 0.8624(2)
H32B H 0.2704(13) -0.1007(5) 0.8594(2)
H33B H 0.1269(3) -0.0755(7) 0.8706(2)
N4B N 0.5237(2) -0.2250(1) 0.8774(2)
N5B N 0.7625(2) -0.1894(1) 0.8696(2)
C12B C 0.6575(3) -0.1756(1) 0.5776(2)
C13B C 0.6417(3) -0.0457(1) 0.6031(2)
C14B C 0.3914(3) -0.1169(2) 0.5839(2)
H13B H 0.6322(13) -0.2225(4) 1.2323(9)
H14B H 0.5058(4) -0.25425(12) 1.1746(15)
H15B H 0.6105(16) -0.2253(4) 1.1033(7)
H16B H 0.4875(3) -0.1624(7) 1.3301(2)
H17B H 0.3817(13) -0.1218(3) 1.2646(6)
H18B H 0.3583(10) -0.1901(4) 1.2688(7)
H19B H 0.8591(2) -0.0640(3) 1.1926(12)
H20B H 0.8088(5) -0.1284(4) 1.2113(10)
H21B H 0.8135(5) -0.1041(6) 1.0913(3)
H22B H 0.6966(10) -0.0211(4) 1.2987(5)
H23B H 0.5472(4) -0.0414(6) 1.2780(3)
H24B H 0.6566(14) -0.0857(2) 1.3275(3)
C1B C 0.3888(3) -0.2224(1) 0.9091(2)
C2B C 0.5317(3) -0.2642(1) 0.7845(2)
C3B C 0.8647(2) -0.1496(1) 0.8389(2)
C4B C 0.8142(3) -0.2297(1) 0.9557(2)
H34B H 0.7448(7) -0.1804(6) 0.6159(9)
H35B H 0.6086(10) -0.2119(2) 0.5802(13)
H36B H 0.6663(16) -0.1653(4) 0.5022(5)
H37B H 0.6001(14) -0.01328(14) 0.6375(13)
H38B H 0.7358(5) -0.0458(4) 0.6259(15)
H39B H 0.6283(18) -0.0415(4) 0.5244(3)
H40B H 0.3427(6) -0.0857(5) 0.6155(12)
H41B H 0.3889(3) -0.1114(8) 0.5056(3)
H42B H 0.3514(6) -0.1542(3) 0.5990(13)
H1B H 0.3861(4) -0.1970(5) 0.9718(8)
H2B H 0.3302(4) -0.2073(6) 0.8489(5)
H3B H 0.3603(6) -0.2613(2) 0.9277(12)
H4B H 0.6217(5) -0.2647(6) 0.7638(9)
H5B H 0.5065(16) -0.3033(2) 0.8046(5)
H6B H 0.4722(12) -0.2507(4) 0.7235(5)
H7B H 0.9007(11) -0.1280(5) 0.9026(3)
H8B H 0.9347(7) -0.17170(13) 0.8095(12)
H9B H 0.8266(4) -0.1225(4) 0.7841(9)
H10B H 0.8326(14) -0.2084(2) 1.0235(4)
H11B H 0.7491(6) -0.2598(4) 0.9652(8)
H12B H 0.8951(8) -0.2475(5) 0.9354(6)
C15? C -0.0249(14) 0.1154(4) 0.4509(10)
C16? C -0.0086(19) 0.0670(4) 0.5357(10)
C17? C -0.0179(14) 0.0089(3) 0.4791(11)
C18? C 0.0290(14) -0.0398(3) 0.5539(12)
C19? C 0.0127(20) -0.0970(4) 0.4908(13)
H43? H -0.0189(14) 0.1530(4) 0.4871(10)
H44? H -0.1105(14) 0.1117(4) 0.4094(10)
H45? H 0.0445(14) 0.1122(4) 0.4020(10)
H46? H 0.0767(19) 0.0707(4) 0.5778(10)
H47? H -0.0772(19) 0.0702(4) 0.5853(10)
H48? H -0.1091(14) 0.0017(3) 0.4515(11)
H49? H 0.0350(14) 0.0097(3) 0.4174(11)
H50? H -0.0225(14) -0.0408(3) 0.6165(12)
H51? H 0.1213(14) -0.0339(3) 0.5799(12)
H52? H 0.0427(20) -0.1291(4) 0.5380(13)
H53? H 0.0649(20) -0.0956(4) 0.4286(13)
H54? H -0.0798(20) -0.1025(4) 0.4654(13)
loop_
_geom_bond_atom_site_label_1
_geom_bond_atom_site_label_2
_geom_bond_site_symmetry_1
_geom_bond_site_symmetry_2
Na1 N1 1_555 1_555
P1 N1 1_555 1_555
P2 N2 1_555 1_555
Si1 N3 1_555 1_555
Si2 N1 1_555 1_555
N2 Na1 1_555 1_555
N3 Na1 1_555 1_555
N4 P1 1_555 1_555
N5 P1 1_555 1_555
N6 P2 1_555 1_555
N7 P2 1_555 1_555
C1 N4 1_555 1_555
C2 N4 1_555 1_555
C3 N5 1_555 1_555
C4 N5 1_555 1_555
C5 N6 1_555 1_555
C6 N6 1_555 1_555
C7 N7 1_555 1_555
C8 N7 1_555 1_555
C9 Si1 1_555 1_555
C10 Si1 1_555 1_555
C11 Si1 1_555 1_555
C12 Si2 1_555 1_555
C13 Si2 1_555 1_555
C14 Si2 1_555 1_555
H1 C1 1_555 1_555
H2 C1 1_555 1_555
H3 C1 1_555 1_555
H4 C2 1_555 1_555
H5 C2 1_555 1_555
H6 C2 1_555 1_555
H7 C3 1_555 1_555
H8 C3 1_555 1_555
H9 C3 1_555 1_555
H10 C4 1_555 1_555
H11 C4 1_555 1_555
H12 C4 1_555 1_555
H13 C5 1_555 1_555
H14 C5 1_555 1_555
H15 C5 1_555 1_555
H16 C6 1_555 1_555
H17 C6 1_555 1_555
H18 C6 1_555 1_555
H19 C7 1_555 1_555
H20 C7 1_555 1_555
H21 C7 1_555 1_555
H22 C8 1_555 1_555
H23 C8 1_555 1_555
H24 C8 1_555 1_555
H25 C9 1_555 1_555
H26 C9 1_555 1_555
H27 C9 1_555 1_555
H28 C10 1_555 1_555
H29 C10 1_555 1_555
H30 C10 1_555 1_555
H31 C11 1_555 1_555
H32 C11 1_555 1_555
H33 C11 1_555 1_555
H34 C12 1_555 1_555
H35 C12 1_555 1_555
H36 C12 1_555 1_555
H37 C13 1_555 1_555
H38 C13 1_555 1_555
H39 C13 1_555 1_555
H40 C14 1_555 1_555
H41 C14 1_555 1_555
H42 C14 1_555 1_555
N3B Na1 1_555 1_555
Na1B N3 1_555 1_555
P2B N3B 1_555 1_555
Si1B N3B 1_555 1_555
N1B Na1B 1_555 1_555
N2B Na1B 1_555 1_555
N6B P2B 1_555 1_555
N7B P2B 1_555 1_555
C9B Si1B 1_555 1_555
C10B Si1B 1_555 1_555
C11B Si1B 1_555 1_555
P1B N1B 1_555 1_555
Si2B N1B 1_555 1_555
C5B N6B 1_555 1_555
C6B N6B 1_555 1_555
C7B N7B 1_555 1_555
C8B N7B 1_555 1_555
H25B C9B 1_555 1_555
H26B C9B 1_555 1_555
H27B C9B 1_555 1_555
H28B C10B 1_555 1_555
H29B C10B 1_555 1_555
H30B C10B 1_555 1_555
H31B C11B 1_555 1_555
H32B C11B 1_555 1_555
H33B C11B 1_555 1_555
N4B P1B 1_555 1_555
N5B P1B 1_555 1_555
C12B Si2B 1_555 1_555
C13B Si2B 1_555 1_555
C14B Si2B 1_555 1_555
H13B C5B 1_555 1_555
H14B C5B 1_555 1_555
H15B C5B 1_555 1_555
H16B C6B 1_555 1_555
H17B C6B 1_555 1_555
H18B C6B 1_555 1_555
H19B C7B 1_555 1_555
H20B C7B 1_555 1_555
H21B C7B 1_555 1_555
H22B C8B 1_555 1_555
H23B C8B 1_555 1_555
H24B C8B 1_555 1_555
C1B N4B 1_555 1_555
C2B N4B 1_555 1_555
C3B N5B 1_555 1_555
C4B N5B 1_555 1_555
H34B C12B 1_555 1_555
H35B C12B 1_555 1_555
H36B C12B 1_555 1_555
H37B C13B 1_555 1_555
H38B C13B 1_555 1_555
H39B C13B 1_555 1_555
H40B C14B 1_555 1_555
H41B C14B 1_555 1_555
H42B C14B 1_555 1_555
H1B C1B 1_555 1_555
H2B C1B 1_555 1_555
H3B C1B 1_555 1_555
H4B C2B 1_555 1_555
H5B C2B 1_555 1_555
H6B C2B 1_555 1_555
H7B C3B 1_555 1_555
H8B C3B 1_555 1_555
H9B C3B 1_555 1_555
H10B C4B 1_555 1_555
H11B C4B 1_555 1_555
H12B C4B 1_555 1_555
P1 N2 1_555 1_555
P2 N3 1_555 1_555
N3B Na1B 1_555 1_555
P2B N2B 1_555 1_555
N2B P1B 1_555 1_555

#END
