
#######################################################################
#
#                 Cambridge Crystallographic Data Centre
#                                CCDC 
#
#######################################################################
#
# If this CIF has been generated from an entry in the Cambridge 
# Structural Database, then it will include bibliographic, chemical, 
# crystal, experimental, refinement or atomic coordinate data resulting 
# from the CCDC's data processing and validation procedures.
#
#######################################################################

data_WEHCOD
_chemical_formula_moiety         'C15 H8 N2 O3'
_chemical_name_systematic        5-Nitro-2-phenyl-1-benzofuran-3-carbonitrile
_symmetry_cell_setting           monoclinic
_symmetry_space_group_name_H-M   'P 21/n'
_symmetry_Int_Tables_number      14
_space_group_name_Hall           '-P 2yn'
loop_
_symmetry_equiv_pos_site_id
_symmetry_equiv_pos_as_xyz
1 x,y,z
2 1/2-x,1/2+y,1/2-z
3 -x,-y,-z
4 1/2+x,1/2-y,1/2+z
_cell_length_a                   8.6348(6)
_cell_length_b                   14.4760(6)
_cell_length_c                   10.0498(5)
_cell_angle_alpha                90
_cell_angle_beta                 101.186(5)
_cell_angle_gamma                90
_cell_volume                     1232.33
_exptl_crystal_colour            colorless
_exptl_crystal_description       block
_cell_formula_units_Z            4
loop_
_atom_site_label
_atom_site_type_symbol
_atom_site_fract_x
_atom_site_fract_y
_atom_site_fract_z
O1 O 0.95928(12) 0.23059(7) 0.37496(10)
O2 O 0.41096(17) -0.02290(9) 0.11437(15)
O3 O 0.29278(18) 0.10708(10) 0.0784(2)
N1 N 1.1039(2) -0.08162(11) 0.31835(19)
N2 N 0.40858(18) 0.06122(11) 0.12397(15)
C1 C 1.2810(2) 0.26994(11) 0.45216(15)
H1 H 1.2140 0.3172 0.4137
C2 C 1.4349(2) 0.28970(12) 0.51263(16)
H2 H 1.4715 0.3502 0.5141
C3 C 1.5347(2) 0.22052(13) 0.57078(17)
H3 H 1.6382 0.2342 0.6116
C4 C 1.4807(2) 0.13074(13) 0.56837(18)
H4 H 1.5480 0.0840 0.6080
C5 C 1.3283(2) 0.11002(12) 0.50776(17)
H5 H 1.2930 0.0493 0.5062
C6 C 1.22611(19) 0.17946(10) 0.44864(14)
C7 C 1.06376(19) 0.15805(10) 0.38689(14)
C8 C 0.98704(19) 0.07955(10) 0.33469(15)
C9 C 0.82373(18) 0.10341(10) 0.28684(14)
C10 C 0.81422(19) 0.19729(10) 0.31356(14)
C11 C 0.6783(2) 0.24846(11) 0.28019(15)
H6 H 0.6762 0.3112 0.2996
C12 C 0.5452(2) 0.20204(11) 0.21656(16)
H7 H 0.4503 0.2335 0.1909
C13 C 0.55311(19) 0.10823(10) 0.19078(15)
C14 C 0.68934(19) 0.05672(11) 0.22382(15)
H8 H 0.6910 -0.0061 0.2048
C15 C 1.0548(2) -0.00934(12) 0.32557(18)
loop_
_geom_bond_atom_site_label_1
_geom_bond_atom_site_label_2
_geom_bond_site_symmetry_1
_geom_bond_site_symmetry_2
O1 C7 1_555 1_555
O2 N2 1_555 1_555
O3 N2 1_555 1_555
N1 C15 1_555 1_555
N2 C13 1_555 1_555
C1 H1 1_555 1_555
C2 C1 1_555 1_555
H2 C2 1_555 1_555
C3 C2 1_555 1_555
H3 C3 1_555 1_555
C4 C3 1_555 1_555
H4 C4 1_555 1_555
C5 C4 1_555 1_555
H5 C5 1_555 1_555
C6 C1 1_555 1_555
C7 C6 1_555 1_555
C8 C7 1_555 1_555
C9 C8 1_555 1_555
C10 O1 1_555 1_555
C11 C10 1_555 1_555
H6 C11 1_555 1_555
C12 C11 1_555 1_555
H7 C12 1_555 1_555
C13 C12 1_555 1_555
C14 C9 1_555 1_555
H8 C14 1_555 1_555
C15 C8 1_555 1_555
C5 C6 1_555 1_555
C9 C10 1_555 1_555
C13 C14 1_555 1_555

#END
