
#######################################################################
#
#                 Cambridge Crystallographic Data Centre
#                                CCDC 
#
#######################################################################
#
# If this CIF has been generated from an entry in the Cambridge 
# Structural Database, then it will include bibliographic, chemical, 
# crystal, experimental, refinement or atomic coordinate data resulting 
# from the CCDC's data processing and validation procedures.
#
#######################################################################

data_WEHCIV
_chemical_name_common            'Trifluoroacetylacetone benzoylhydrazone'
_chemical_formula_moiety         'C12 H11 F3 N2 O2'
_chemical_name_systematic        
1-Benzoyl-3-methyl-5-hydroxy-5-trifluoromethyl-2-pyrazoline
_symmetry_cell_setting           triclinic
_symmetry_space_group_name_H-M   'P -1'
_symmetry_Int_Tables_number      2
_space_group_name_Hall           '-P 1'
loop_
_symmetry_equiv_pos_site_id
_symmetry_equiv_pos_as_xyz
1 x,y,z
2 -x,-y,-z
_cell_length_a                   8.651(4)
_cell_length_b                   10.304(5)
_cell_length_c                   15.228(8)
_cell_angle_alpha                88.74(4)
_cell_angle_beta                 74.01(4)
_cell_angle_gamma                73.12(4)
_cell_volume                     1246.2
_exptl_crystal_colour            white
_cell_formula_units_Z            4
loop_
_atom_site_label
_atom_site_type_symbol
_atom_site_fract_x
_atom_site_fract_y
_atom_site_fract_z
F1 F 0.2068(1) 0.2823(5) 0.2237(4)
F2 F 0.1792(6) 0.4849(5) 0.2718(3)
F3 F 0.4075(6) 0.3670(5) 0.1769(3)
O1 O 0.4802(7) 0.3696(6) -0.0164(4)
O2 O 0.2128(7) 0.5725(5) 0.0939(4)
N1 N 0.0912(8) 0.2965(7) 0.0388(5)
N2 N 0.2241(8) 0.3458(6) 0.0442(4)
C1 C 0.3760(9) 0.3141(8) -0.0191(5)
C2 C -0.0422(9) 0.3668(8) 0.0980(5)
C3 C -0.2043(9) 0.3366(9) 0.1147(6)
C4 C -0.0203(9) 0.4822(8) 0.1498(6)
C5 C 0.1702(9) 0.4540(8) 0.1188(5)
C6 C 0.2473(9) 0.3956(9) 0.1971(6)
C7 C 0.4143(9) 0.2058(8) -0.0950(6)
C8 C 0.5008(9) 0.2271(9) -0.1810(6)
C9 C 0.5549(9) 0.1291(9) -0.2536(7)
C10 C 0.5154(9) 0.0084(9) -0.2384(7)
C11 C 0.4251(9) -0.0138(9) -0.1498(7)
C12 C 0.3727(9) 0.0852(9) -0.0791(7)
F4 F -0.0085(7) 0.6903(5) 0.4353(4)
F5 F -0.1549(7) 0.8677(5) 0.5241(3)
F6 F 0.0738(7) 0.8688(6) 0.4306(4)
O3 O -0.3977(7) 1.0856(5) 0.4839(4)
O4 O -0.2899(7) 0.8362(5) 0.3825(4)
N3 N -0.1016(9) 1.0595(6) 0.2699(4)
N4 N -0.1774(8) 1.0251(6) 0.3586(4)
C13 C -0.3085(9) 1.1217(7) 0.4167(5)
C14 C -0.0202(9) 0.9493(8) 0.2206(6)
C15 C 0.0786(9) 0.9427(9) 0.1222(6)
C16 C -0.0299(9) 0.8211(8) 0.2701(6)
C17 C -0.1505(9) 0.8777(7) 0.3660(5)
C18 C -0.0606(9) 0.8286(9) 0.4398(6)
C19 C -0.3314(9) 1.2682(7) 0.3958(5)
C20 C -0.2101(9) 1.3277(8) 0.3898(5)
C21 C -0.2443(9) 1.4691(9) 0.3832(6)
C22 C -0.4023(9) 1.5460(8) 0.3783(6)
C23 C -0.5250(9) 1.4865(9) 0.3826(6)
C24 C -0.4950(9) 1.3443(8) 0.3931(6)
loop_
_geom_bond_atom_site_label_1
_geom_bond_atom_site_label_2
_geom_bond_site_symmetry_1
_geom_bond_site_symmetry_2
F1 C6 1_555 1_555
F2 C6 1_555 1_555
F3 C6 1_555 1_555
O1 C1 1_555 1_555
O2 C5 1_555 1_555
N1 N2 1_555 1_555
N2 C1 1_555 1_555
C1 C7 1_555 1_555
C2 N1 1_555 1_555
C3 C2 1_555 1_555
C4 C2 1_555 1_555
C5 N2 1_555 1_555
C6 C5 1_555 1_555
C7 C8 1_555 1_555
C8 C9 1_555 1_555
C9 C10 1_555 1_555
C10 C11 1_555 1_555
C11 C12 1_555 1_555
C12 C7 1_555 1_555
F4 C18 1_555 1_555
F5 C18 1_555 1_555
F6 C18 1_555 1_555
O3 C13 1_555 1_555
O4 C17 1_555 1_555
N3 N4 1_555 1_555
N4 C13 1_555 1_555
C13 C19 1_555 1_555
C14 N3 1_555 1_555
C15 C14 1_555 1_555
C16 C14 1_555 1_555
C17 N4 1_555 1_555
C18 C17 1_555 1_555
C19 C20 1_555 1_555
C20 C21 1_555 1_555
C21 C22 1_555 1_555
C22 C23 1_555 1_555
C23 C24 1_555 1_555
C24 C19 1_555 1_555
C4 C5 1_555 1_555
C16 C17 1_555 1_555

#END
