
#######################################################################
#
#                 Cambridge Crystallographic Data Centre
#                                CCDC 
#
#######################################################################
#
# If this CIF has been generated from an entry in the Cambridge 
# Structural Database, then it will include bibliographic, chemical, 
# crystal, experimental, refinement or atomic coordinate data resulting 
# from the CCDC's data processing and validation procedures.
#
#######################################################################

data_WEHCIX
_chemical_formula_moiety         'C15 H10 N2 O3'
_chemical_name_systematic        3-(4-Nitrophenoxy)-3-phenylacrylonitrile
_symmetry_cell_setting           triclinic
_symmetry_space_group_name_H-M   'P -1'
_symmetry_Int_Tables_number      2
_space_group_name_Hall           '-P 1'
loop_
_symmetry_equiv_pos_site_id
_symmetry_equiv_pos_as_xyz
1 x,y,z
2 -x,-y,-z
_cell_length_a                   9.0546(7)
_cell_length_b                   13.7185(10)
_cell_length_c                   16.4462(12)
_cell_angle_alpha                103.527(2)
_cell_angle_beta                 90.9130(10)
_cell_angle_gamma                100.2270(10)
_cell_volume                     1951.12
_exptl_crystal_colour            colorless
_exptl_crystal_description       block
_cell_formula_units_Z            6
loop_
_atom_site_label
_atom_site_type_symbol
_atom_site_fract_x
_atom_site_fract_y
_atom_site_fract_z
O1 O 0.99195(16) 0.53927(12) 0.64230(8)
C1 C 0.7991(2) 0.55723(14) 0.52177(11)
H1 H 0.8530 0.6169 0.5564
C2 C 0.7015(2) 0.56067(15) 0.45745(12)
H2 H 0.6871 0.6230 0.4487
O2 O 0.52215(14) 0.47365(11) 0.34408(8)
C3 C 0.4362(2) 0.44335(13) 0.12699(11)
H3 H 0.5117 0.4096 0.1038
C4 C 0.3282(2) 0.53621(14) 0.24585(11)
H4 H 0.3315 0.5662 0.3029
O3 O 0.92714(18) 0.37667(12) 0.61399(9)
N2 N 0.91831(16) 0.45924(12) 0.60115(8)
C11 C 0.44467(17) 0.48851(12) 0.21240(10)
C12 C 0.3154(2) 0.44856(15) 0.07633(12)
H11 H 0.3116 0.4198 0.0190
C13 C 0.2015(2) 0.49575(16) 0.11001(13)
H12 H 0.1202 0.4984 0.0759
C14 C 0.2082(2) 0.53913(16) 0.19460(13)
H13 H 0.1306 0.5709 0.2175
C15 C 0.7383(2) 0.37342(14) 0.48303(11)
H14 H 0.7517 0.3110 0.4921
C16 C 0.7696(2) 0.50716(18) 0.17376(12)
N3 N 0.8203(2) 0.5237(2) 0.11403(12)
C26 C 0.81435(18) 0.46356(13) 0.53332(9)
C27 C 0.6260(2) 0.47053(15) 0.40654(10)
C28 C 0.57127(19) 0.48332(13) 0.26790(10)
C29 C 0.6412(2) 0.37767(15) 0.41851(11)
H21 H 0.5871 0.3180 0.3838
C30 C 0.7149(2) 0.48705(16) 0.24951(11)
H22 H 0.7822 0.4759 0.2882
C5 C 0.8082(2) 0.18003(16) 0.24108(11)
H5 H 0.7131 0.1504 0.2530
O4 O 0.75101(14) 0.20193(11) 0.02908(8)
O5 O 0.32632(19) 0.24742(14) -0.25631(10)
O6 O 0.28674(19) 0.08414(15) -0.27795(10)
N1 N 0.42967(19) 0.18696(18) 0.25745(11)
C17 C 1.0708(2) 0.23329(15) 0.27901(12)
H15 H 1.1528 0.2394 0.3158
C18 C 0.9292(2) 0.19043(17) 0.29654(12)
H16 H 0.9151 0.1685 0.3457
C19 C 0.82654(18) 0.21314(12) 0.16792(10)
N4 N 0.34879(19) 0.16948(15) -0.23938(10)
C20 C 1.0903(2) 0.26692(15) 0.20705(13)
H17 H 1.1858 0.2965 0.1955
C21 C 0.9694(2) 0.25729(14) 0.15156(12)
H18 H 0.9840 0.2805 0.1030
C22 C 0.4883(2) 0.18972(15) 0.19689(12)
C23 C 0.5850(2) 0.09809(16) -0.08461(12)
H19 H 0.6080 0.0398 -0.0718
C31 C 0.69916(19) 0.20076(13) 0.10672(10)
C32 C 0.6485(2) 0.19309(15) -0.03721(11)
C33 C 0.6192(2) 0.28059(15) -0.05556(11)
H23 H 0.6650 0.3442 -0.0231
C34 C 0.5211(2) 0.27313(15) -0.12257(11)
H24 H 0.4996 0.3315 -0.1361
C35 C 0.4555(2) 0.17758(14) -0.16921(10)
C36 C 0.55218(19) 0.18956(13) 0.11882(10)
H25 H 0.4868 0.1810 0.0724
C37 C 0.4866(2) 0.09032(16) -0.15150(12)
H26 H 0.4419 0.0266 -0.1843
C6 C 0.4673(2) 0.14264(16) 0.46813(13)
H6 H 0.3861 0.1447 0.4336
C7 C 0.5810(2) 0.09396(15) 0.43530(12)
H7 H 0.5776 0.0645 0.3781
C8 C 0.7001(2) 0.08835(13) 0.48634(11)
H8 H 0.7747 0.0534 0.4637
O7 O 0.77935(15) 0.11687(12) 0.70327(8)
O8 O 1.1826(2) 0.02839(15) 0.97812(11)
O9 O 1.2359(2) 0.19143(15) 1.00985(10)
C9 C 0.4746(2) 0.18836(15) 0.55266(13)
H9 H 0.3987 0.2223 0.5750
C10 C 0.5936(2) 0.18419(14) 0.60432(11)
H10 H 0.5968 0.2145 0.6613
C24 C 0.70899(17) 0.13477(12) 0.57154(10)
C25 C 0.9583(2) 0.20708(16) 0.81689(13)
H20 H 0.9484 0.2687 0.8049
N5 N 1.16676(19) 0.11062(15) 0.96742(10)
N6 N 1.0935(2) 0.1726(2) 0.48012(13)
C38 C 0.83286(19) 0.12808(13) 0.62804(11)
C39 C 0.8800(2) 0.11656(15) 0.76837(11)
C40 C 1.0513(2) 0.20580(15) 0.88320(13)
H27 H 1.1055 0.2662 0.9168
C41 C 1.0625(2) 0.11326(14) 0.89888(10)
C42 C 0.9772(2) 0.13231(16) 0.61203(12)
H28 H 1.0420 0.1206 0.6517
C43 C 1.0373(2) 0.15363(18) 0.53787(13)
C44 C 0.8893(2) 0.02468(15) 0.78469(12)
H29 H 0.8336 -0.0355 0.7517
C45 C 0.9831(2) 0.02287(15) 0.85139(12)
H30 H 0.9921 -0.0387 0.8638
loop_
_geom_bond_atom_site_label_1
_geom_bond_atom_site_label_2
_geom_bond_site_symmetry_1
_geom_bond_site_symmetry_2
O1 N2 1_555 1_555
C1 H1 1_555 1_555
C2 C1 1_555 1_555
H2 C2 1_555 1_555
O2 C27 1_555 1_555
C3 H3 1_555 1_555
C4 H4 1_555 1_555
O3 N2 1_555 1_555
C5 H5 1_555 1_555
O4 C31 1_555 1_555
O5 N4 1_555 1_555
O6 N4 1_555 1_555
N1 C22 1_555 1_555
C6 H6 1_555 1_555
C7 C6 1_555 1_555
H7 C7 1_555 1_555
C8 C7 1_555 1_555
H8 C8 1_555 1_555
O7 C38 1_555 1_555
O8 N5 1_555 1_555
O9 N5 1_555 1_555
C9 C6 1_555 1_555
H9 C9 1_555 1_555
C10 C9 1_555 1_555
H10 C10 1_555 1_555
N2 C26 1_555 1_555
C11 C3 1_555 1_555
C12 C3 1_555 1_555
H11 C12 1_555 1_555
C13 C12 1_555 1_555
H12 C13 1_555 1_555
C14 C4 1_555 1_555
H13 C14 1_555 1_555
C15 H14 1_555 1_555
C16 N3 1_555 1_555
C17 H15 1_555 1_555
C18 C5 1_555 1_555
H16 C18 1_555 1_555
C19 C5 1_555 1_555
N4 C35 1_555 1_555
C20 C17 1_555 1_555
H17 C20 1_555 1_555
C21 C19 1_555 1_555
H18 C21 1_555 1_555
C22 C36 1_555 1_555
C23 H19 1_555 1_555
C24 C8 1_555 1_555
C25 H20 1_555 1_555
N5 C41 1_555 1_555
N6 C43 1_555 1_555
C26 C1 1_555 1_555
C27 C2 1_555 1_555
C28 O2 1_555 1_555
C29 C15 1_555 1_555
H21 C29 1_555 1_555
C30 C16 1_555 1_555
H22 C30 1_555 1_555
C31 C19 1_555 1_555
C32 O4 1_555 1_555
C33 C32 1_555 1_555
H23 C33 1_555 1_555
C34 C33 1_555 1_555
H24 C34 1_555 1_555
C35 C34 1_555 1_555
C36 C31 1_555 1_555
H25 C36 1_555 1_555
C37 C23 1_555 1_555
H26 C37 1_555 1_555
C38 C24 1_555 1_555
C39 O7 1_555 1_555
C40 C25 1_555 1_555
H27 C40 1_555 1_555
C41 C40 1_555 1_555
C42 C38 1_555 1_555
H28 C42 1_555 1_555
C43 C42 1_555 1_555
C44 C39 1_555 1_555
H29 C44 1_555 1_555
C45 C41 1_555 1_555
H30 C45 1_555 1_555
C4 C11 1_555 1_555
C10 C24 1_555 1_555
C11 C28 1_555 1_555
C13 C14 1_555 1_555
C15 C26 1_555 1_555
C17 C18 1_555 1_555
C20 C21 1_555 1_555
C23 C32 1_555 1_555
C25 C39 1_555 1_555
C27 C29 1_555 1_555
C28 C30 1_555 1_555
C35 C37 1_555 1_555
C44 C45 1_555 1_555

#END
