
#######################################################################
#
#                 Cambridge Crystallographic Data Centre
#                                CCDC 
#
#######################################################################
#
# If this CIF has been generated from an entry in the Cambridge 
# Structural Database, then it will include bibliographic, chemical, 
# crystal, experimental, refinement or atomic coordinate data resulting 
# from the CCDC's data processing and validation procedures.
#
#######################################################################

data_WEHDAQ
_chemical_formula_moiety         'C17 H16 Br1 N1 O1'
_chemical_name_systematic        
1-(6-Bromo-2-phenyl-1,2,3,4-tetrahydroquinolin-3-yl)ethanone
_symmetry_cell_setting           monoclinic
_symmetry_space_group_name_H-M   'P 21'
_symmetry_Int_Tables_number      4
_space_group_name_Hall           'P 2yb'
loop_
_symmetry_equiv_pos_site_id
_symmetry_equiv_pos_as_xyz
1 x,y,z
2 -x,1/2+y,-z
_cell_length_a                   8.4384(3)
_cell_length_b                   5.3564(2)
_cell_length_c                   16.3563(5)
_cell_angle_alpha                90
_cell_angle_beta                 93.619(2)
_cell_angle_gamma                90
_cell_volume                     737.821
_cell_formula_units_Z            2
loop_
_atom_site_label
_atom_site_type_symbol
_atom_site_fract_x
_atom_site_fract_y
_atom_site_fract_z
Br1 Br 0.28003(7) 0.46862(19) -0.11814(3)
O1 O 0.5187(5) 0.3324(7) 0.3605(4)
N1 N 0.2255(4) 0.9288(9) 0.2170(3)
H1 H 0.1838 1.0747 0.2205
C1 C 0.2415(5) 0.8266(9) 0.1407(4)
C2 C 0.1650(5) 0.9349(12) 0.0703(4)
H2 H 0.1048 1.0787 0.0757
C3 C 0.1775(6) 0.8330(10) -0.0060(4)
H3 H 0.1256 0.9057 -0.0519
C4 C 0.2674(5) 0.6226(10) -0.0135(3)
C5 C 0.3488(5) 0.5130(10) 0.0535(3)
H4 H 0.4116 0.3728 0.0467
C6 C 0.3354(5) 0.6146(9) 0.1307(3)
C7 C 0.4246(5) 0.5019(9) 0.2047(3)
H5 H 0.5296 0.4521 0.1898
H6 H 0.3694 0.3531 0.2211
C8 C 0.4412(5) 0.6801(8) 0.2764(3)
H7 H 0.5117 0.8156 0.2612
C9 C 0.2766(5) 0.7986(8) 0.2914(3)
H8 H 0.2939 0.9241 0.3346
C10 C 0.1557(5) 0.6129(10) 0.3200(4)
C11 C 0.0337(5) 0.5218(10) 0.2684(3)
H9 H 0.0253 0.5737 0.2141
C12 C -0.0749(7) 0.3575(12) 0.2952(5)
H10 H -0.1572 0.3011 0.2594
C13 C -0.0632(7) 0.2749(13) 0.3747(5)
H11 H -0.1358 0.1604 0.3931
C14 C 0.0581(7) 0.3649(13) 0.4269(5)
H12 H 0.0684 0.3109 0.4810
C15 C 0.1634(6) 0.5340(11) 0.3988(4)
H13 H 0.2429 0.5968 0.4351
C16 C 0.5171(6) 0.5574(10) 0.3534(5)
C17 C 0.5944(7) 0.7201(11) 0.4166(4)
H14 H 0.6028 0.6333 0.4680
H15 H 0.5322 0.8686 0.4218
H16 H 0.6985 0.7645 0.4010
loop_
_geom_bond_atom_site_label_1
_geom_bond_atom_site_label_2
_geom_bond_site_symmetry_1
_geom_bond_site_symmetry_2
Br1 C4 1_555 1_555
O1 C16 1_555 1_555
N1 H1 1_555 1_555
C1 N1 1_555 1_555
C2 C1 1_555 1_555
H2 C2 1_555 1_555
C3 C2 1_555 1_555
H3 C3 1_555 1_555
C4 C3 1_555 1_555
C5 C4 1_555 1_555
H4 C5 1_555 1_555
C6 C1 1_555 1_555
C7 C6 1_555 1_555
H5 C7 1_555 1_555
H6 C7 1_555 1_555
C8 C7 1_555 1_555
H7 C8 1_555 1_555
C9 N1 1_555 1_555
H8 C9 1_555 1_555
C10 C9 1_555 1_555
C11 C10 1_555 1_555
H9 C11 1_555 1_555
C12 C11 1_555 1_555
H10 C12 1_555 1_555
C13 C12 1_555 1_555
H11 C13 1_555 1_555
C14 C13 1_555 1_555
H12 C14 1_555 1_555
C15 C10 1_555 1_555
H13 C15 1_555 1_555
C16 C8 1_555 1_555
C17 C16 1_555 1_555
H14 C17 1_555 1_555
H15 C17 1_555 1_555
H16 C17 1_555 1_555
C5 C6 1_555 1_555
C8 C9 1_555 1_555
C14 C15 1_555 1_555

#END
