
#######################################################################
#
#                 Cambridge Crystallographic Data Centre
#                                CCDC 
#
#######################################################################
#
# If this CIF has been generated from an entry in the Cambridge 
# Structural Database, then it will include bibliographic, chemical, 
# crystal, experimental, refinement or atomic coordinate data resulting 
# from the CCDC's data processing and validation procedures.
#
#######################################################################

data_WEHFIY
_chemical_formula_moiety         'C18 H28 N2 Si2'
_chemical_name_systematic        
1,2-bis(Trimethylsilyl)-1,2-bis(2-pyridyl)ethane
_symmetry_cell_setting           triclinic
_symmetry_space_group_name_H-M   'P -1'
_symmetry_Int_Tables_number      2
_space_group_name_Hall           '-P 1'
loop_
_symmetry_equiv_pos_site_id
_symmetry_equiv_pos_as_xyz
1 x,y,z
2 -x,-y,-z
_cell_length_a                   8.764(4)
_cell_length_b                   12.565(5)
_cell_length_c                   14.270(7)
_cell_angle_alpha                87.63(4)
_cell_angle_beta                 73.36(4)
_cell_angle_gamma                79.81(4)
_cell_volume                     1481.78
_exptl_crystal_colour            colorless
_chemical_melting_point          130-132deg.C
_cell_formula_units_Z            3
loop_
_atom_site_label
_atom_site_type_symbol
_atom_site_fract_x
_atom_site_fract_y
_atom_site_fract_z
Si1 Si 0.3432(3) 0.7145(2) 0.0681(2)
Si2 Si 0.6958(3) 0.6180(2) 0.2632(2)
N1 N 0.6174(9) 0.8443(6) 0.0918(5)
N2 N 0.4105(8) 0.4919(6) 0.2402(5)
C1 C 0.5340(9) 0.6686(6) 0.1079(5)
C2 C 0.5057(8) 0.6657(6) 0.2227(5)
C3 C 0.7217(14) 0.9104(8) 0.0488(8)
C4 C 0.8596(13) 0.8778(9) -0.0254(8)
C5 C 0.8977(11) 0.7731(9) -0.0577(7)
C6 C 0.7952(10) 0.7043(7) -0.0141(6)
C7 C 0.6566(10) 0.7402(7) 0.0600(6)
C8 C 0.3015(12) 0.4277(7) 0.2832(7)
C9 C 0.1620(11) 0.4649(8) 0.3528(7)
C10 C 0.1348(11) 0.5679(9) 0.3863(6)
C11 C 0.2402(10) 0.6354(7) 0.3447(6)
C12 C 0.3803(10) 0.5950(7) 0.2708(5)
C13 C 0.2269(9) 0.6017(6) 0.0774(6)
C14 C 0.2154(9) 0.8333(6) 0.1416(6)
C15 C 0.4045(10) 0.7494(7) -0.0654(5)
C16 C 0.6324(9) 0.5830(7) 0.3963(5)
C17 C 0.8173(9) 0.7297(6) 0.2493(5)
C18 C 0.8188(9) 0.4967(6) 0.1913(5)
H1 H 0.5789 0.5964 0.0833
H2 H 0.4626 0.7383 0.2468
H3 H 0.6977 0.9840 0.0715
H4 H 0.9311 0.9271 -0.0554
H5 H 0.9934 0.7484 -0.1097
H6 H 0.8212 0.6298 -0.0344
H7 H 0.3255 0.3533 0.2626
H8 H 0.0844 0.4184 0.3795
H9 H 0.0395 0.5936 0.4383
H10 H 0.2195 0.7097 0.3650
H11 H 0.1313 0.6266 0.0572
H12 H 0.2925 0.5426 0.0361
H13 H 0.1968 0.5780 0.1440
H14 H 0.1205 0.8550 0.1200
H15 H 0.1843 0.8142 0.2094
H16 H 0.2747 0.8920 0.1333
H17 H 0.3098 0.7732 -0.0868
H18 H 0.4682 0.8059 -0.0754
H19 H 0.4673 0.6863 -0.1023
H20 H 0.7260 0.5586 0.4186
H21 H 0.5695 0.6461 0.4330
H22 H 0.5682 0.5269 0.4054
H23 H 0.9125 0.7051 0.2701
H24 H 0.8482 0.7504 0.1819
H25 H 0.7533 0.7908 0.2886
H26 H 0.9134 0.4738 0.2130
H27 H 0.7562 0.4396 0.2014
H28 H 0.8506 0.5137 0.1230
Si3 Si 0.2365(3) 0.0561(2) 0.4017(2)
N3 N -0.1391(10) 0.0464(8) 0.3251(5)
C19 C -0.2437(12) 0.1258(10) 0.2885(7)
C20 C -0.2892(12) 0.2269(9) 0.3282(7)
C21 C -0.2306(12) 0.2508(8) 0.4045(7)
C22 C -0.1316(9) 0.1815(6) 0.4394(5)
C23 C -0.0880(9) 0.0842(7) 0.4040(5)
C24 C 0.0353(9) 0.0061(7) 0.4393(4)
C25 C 0.4073(9) -0.0540(6) 0.4016(5)
C26 C 0.2364(9) 0.1701(6) 0.4833(5)
C27 C 0.2664(10) 0.1076(7) 0.2743(5)
H29 H -0.2826 0.1071 0.2360
H30 H -0.3621 0.2809 0.3053
H31 H -0.2606 0.3220 0.4332
H32 H -0.0889 0.2011 0.4898
H34 H 0.4063 -0.1118 0.3600
H35 H 0.5080 -0.0280 0.3782
H36 H 0.3950 -0.0799 0.4672
H37 H 0.3388 0.1942 0.4623
H38 H 0.1520 0.2288 0.4793
H39 H 0.2176 0.1459 0.5497
H40 H 0.2676 0.0507 0.2312
H41 H 0.1797 0.1658 0.2731
H42 H 0.3674 0.1335 0.2534
C24A C -0.0353(9) -0.0061(7) 0.5607(4)
Si3A Si -0.2365(3) -0.0561(2) 0.5983(2)
C23A C 0.0880(9) -0.0842(7) 0.5960(5)
C25A C -0.4073(9) 0.0540(6) 0.5984(5)
C26A C -0.2364(9) -0.1701(6) 0.5167(5)
C27A C -0.2664(10) -0.1076(7) 0.7257(5)
N3A N 0.1391(10) -0.0464(8) 0.6749(5)
C22A C 0.1316(9) -0.1815(6) 0.5606(5)
H34A H -0.4063 0.1118 0.6400
H35A H -0.5080 0.0280 0.6218
H36A H -0.3950 0.0799 0.5328
H37A H -0.3388 -0.1942 0.5377
H38A H -0.1520 -0.2288 0.5207
H39A H -0.2176 -0.1459 0.4503
H40A H -0.2676 -0.0507 0.7688
H41A H -0.1797 -0.1658 0.7269
H42A H -0.3674 -0.1335 0.7466
C19A C 0.2437(12) -0.1258(10) 0.7115(7)
C21A C 0.2306(12) -0.2508(8) 0.5955(7)
H32A H 0.0889 -0.2011 0.5102
C20A C 0.2892(12) -0.2269(9) 0.6718(7)
H29A H 0.2826 -0.1071 0.7640
H31A H 0.2606 -0.3220 0.5668
H30A H 0.3621 -0.2809 0.6947
H33? H -0.0014 0.0052 0.5095
loop_
_geom_bond_atom_site_label_1
_geom_bond_atom_site_label_2
_geom_bond_site_symmetry_1
_geom_bond_site_symmetry_2
Si1 C1 1_555 1_555
Si2 C2 1_555 1_555
Si3 C24 1_555 1_555
N1 C3 1_555 1_555
N2 C8 1_555 1_555
N3 C19 1_555 1_555
C1 C2 1_555 1_555
C2 C12 1_555 1_555
C3 C4 1_555 1_555
C4 C5 1_555 1_555
C5 C6 1_555 1_555
C6 C7 1_555 1_555
C7 N1 1_555 1_555
C8 C9 1_555 1_555
C9 C10 1_555 1_555
C10 C11 1_555 1_555
C11 C12 1_555 1_555
C12 N2 1_555 1_555
C13 Si1 1_555 1_555
C14 Si1 1_555 1_555
C15 Si1 1_555 1_555
C16 Si2 1_555 1_555
C17 Si2 1_555 1_555
C18 Si2 1_555 1_555
C19 C20 1_555 1_555
C20 C21 1_555 1_555
C21 C22 1_555 1_555
C22 C23 1_555 1_555
C23 N3 1_555 1_555
C24 C23 1_555 1_555
C25 Si3 1_555 1_555
C26 Si3 1_555 1_555
C27 Si3 1_555 1_555
H1 C1 1_555 1_555
H2 C2 1_555 1_555
H3 C3 1_555 1_555
H4 C4 1_555 1_555
H5 C5 1_555 1_555
H6 C6 1_555 1_555
H7 C8 1_555 1_555
H8 C9 1_555 1_555
H9 C10 1_555 1_555
H10 C11 1_555 1_555
H11 C13 1_555 1_555
H12 C13 1_555 1_555
H13 C13 1_555 1_555
H14 C14 1_555 1_555
H15 C14 1_555 1_555
H16 C14 1_555 1_555
H17 C15 1_555 1_555
H18 C15 1_555 1_555
H19 C15 1_555 1_555
H20 C16 1_555 1_555
H21 C16 1_555 1_555
H22 C16 1_555 1_555
H23 C17 1_555 1_555
H24 C17 1_555 1_555
H25 C17 1_555 1_555
H26 C18 1_555 1_555
H27 C18 1_555 1_555
H28 C18 1_555 1_555
H29 C19 1_555 1_555
H30 C20 1_555 1_555
H31 C21 1_555 1_555
H32 C22 1_555 1_555
H34 C25 1_555 1_555
H35 C25 1_555 1_555
H36 C25 1_555 1_555
H37 C26 1_555 1_555
H38 C26 1_555 1_555
H39 C26 1_555 1_555
H40 C27 1_555 1_555
H41 C27 1_555 1_555
H42 C27 1_555 1_555
C24A C24 1_555 1_555
Si3A C24A 1_555 1_555
C23A C24A 1_555 1_555
C25A Si3A 1_555 1_555
C26A Si3A 1_555 1_555
C27A Si3A 1_555 1_555
N3A C23A 1_555 1_555
C22A C23A 1_555 1_555
H34A C25A 1_555 1_555
H35A C25A 1_555 1_555
H36A C25A 1_555 1_555
H37A C26A 1_555 1_555
H38A C26A 1_555 1_555
H39A C26A 1_555 1_555
H40A C27A 1_555 1_555
H41A C27A 1_555 1_555
H42A C27A 1_555 1_555
C19A N3A 1_555 1_555
C21A C22A 1_555 1_555
H32A C22A 1_555 1_555
C20A C19A 1_555 1_555
H29A C19A 1_555 1_555
H31A C21A 1_555 1_555
H30A C20A 1_555 1_555
C1 C7 1_555 1_555
C21A C20A 1_555 1_555

#END
