
#######################################################################
#
#                 Cambridge Crystallographic Data Centre
#                                CCDC 
#
#######################################################################
#
# If this CIF has been generated from an entry in the Cambridge 
# Structural Database, then it will include bibliographic, chemical, 
# crystal, experimental, refinement or atomic coordinate data resulting 
# from the CCDC's data processing and validation procedures.
#
#######################################################################

data_WEHGAS
_chemical_formula_moiety         'C25 H26 N2 O5 S2'
_chemical_name_systematic        
5-Methyl-2-(2-(E)-(2,3,5,6,8,9,11,12-octahydro-1,4,7,10,13-pentaoxabenzocyclopentadecin-15-yl)ethen-1-yl)benzo(1,2-d;4-d')bisthiazole
_symmetry_cell_setting           monoclinic
_symmetry_space_group_name_H-M   'P 21/c'
_symmetry_Int_Tables_number      14
_space_group_name_Hall           '-P 2ybc'
loop_
_symmetry_equiv_pos_site_id
_symmetry_equiv_pos_as_xyz
1 x,y,z
2 -x,1/2+y,1/2-z
3 -x,-y,-z
4 x,1/2-y,1/2+z
_cell_length_a                   21.381(3)
_cell_length_b                   7.900(1)
_cell_length_c                   14.162(2)
_cell_angle_alpha                90
_cell_angle_beta                 95.606(5)
_cell_angle_gamma                90
_cell_volume                     2380.66
_chemical_melting_point          212deg.C
_cell_formula_units_Z            4
_exptl_crystal_recrystallization_method hexane
loop_
_atom_site_label
_atom_site_type_symbol
_atom_site_fract_x
_atom_site_fract_y
_atom_site_fract_z
S1 S -0.01060(5) 0.41392(17) 0.21217(8)
S2 S 0.20534(6) 0.08177(17) 0.17094(8)
O1 O -0.25863(14) 0.4233(4) -0.3269(2)
O2 O -0.35155(14) 0.3074(4) -0.4583(2)
O3 O -0.47930(15) 0.4015(5) -0.3855(2)
O4 O -0.42867(15) 0.4904(4) -0.1368(2)
O5 O -0.29716(14) 0.5269(4) -0.1705(2)
N1 N 0.06095(17) 0.2329(5) 0.1124(3)
N2 N 0.23595(19) 0.1349(5) 0.3517(3)
C1 C -0.2437(2) 0.3469(7) -0.4143(3)
C2 C -0.2973(2) 0.3879(7) -0.4860(4)
C3 C -0.4088(2) 0.3583(7) -0.5109(4)
C4 C -0.4641(3) 0.2977(7) -0.4631(4)
C5 C -0.4354(2) 0.4030(8) -0.3021(4)
C6 C -0.4662(3) 0.4949(8) -0.2265(4)
C7 C -0.3892(2) 0.6336(7) -0.1147(4)
C8 C -0.3230(2) 0.5823(7) -0.0857(3)
C9 C -0.2372(2) 0.4625(6) -0.1611(3)
C10 C -0.21697(19) 0.4002(6) -0.2473(3)
C11 C -0.1580(2) 0.3278(6) -0.2464(3)
C12 C -0.1196(2) 0.3167(6) -0.1618(3)
C13 C -0.1374(2) 0.3823(5) -0.0771(3)
C14 C -0.1975(2) 0.4542(6) -0.0778(3)
C15 C -0.0941(2) 0.3779(6) 0.0115(4)
C16 C -0.0373(2) 0.3102(7) 0.0227(4)
C17 C 0.0062(2) 0.3108(6) 0.1069(3)
C18 C 0.0920(2) 0.2513(6) 0.2027(3)
C19 C 0.0603(2) 0.3410(6) 0.2689(3)
C20 C 0.0847(2) 0.3598(7) 0.3643(4)
C21 C 0.1418(2) 0.2910(6) 0.3946(3)
C22 C 0.1765(2) 0.2058(6) 0.3297(3)
C23 C 0.1518(2) 0.1864(6) 0.2339(3)
C24 C 0.2567(2) 0.0694(7) 0.2759(3)
C25 C 0.3190(3) -0.0139(11) 0.2747(5)
H1 H -0.2425(18) 0.213(6) -0.404(3)
H2 H -0.206(2) 0.392(5) -0.437(3)
H3 H -0.3046(19) 0.510(5) -0.485(3)
H4 H -0.2918(17) 0.344(5) -0.545(3)
H5 H -0.4149(16) 0.330(5) -0.579(3)
H6 H -0.411(2) 0.476(6) -0.517(3)
H7 H -0.504(3) 0.291(7) -0.509(4)
H8 H -0.456(2) 0.184(7) -0.441(3)
H9 H -0.388(3) 0.454(8) -0.310(4)
H10 H -0.430(2) 0.286(6) -0.285(3)
H11 H -0.474(2) 0.610(6) -0.245(3)
H12 H -0.505(3) 0.442(7) -0.218(3)
H13 H -0.409(3) 0.689(8) -0.073(4)
H14 H -0.3942(18) 0.710(5) -0.177(3)
H15 H -0.292(3) 0.677(8) -0.048(4)
H16 H -0.3225(19) 0.486(5) -0.048(3)
H17 H -0.143(2) 0.286(6) -0.302(3)
H18 H -0.082(2) 0.266(7) -0.161(3)
H19 H -0.212(2) 0.495(6) -0.021(3)
H20 H -0.109(2) 0.419(7) 0.055(3)
H21 H -0.0220(16) 0.264(5) -0.028(3)
H22 H 0.0622(18) 0.399(5) 0.403(3)
H23 H 0.1615(19) 0.304(5) 0.462(3)
H24 H 0.338(3) -0.017(8) 0.335(4)
H25 H 0.355(3) 0.035(9) 0.240(5)
H26 H 0.326(4) -0.120(11) 0.276(6)
loop_
_geom_bond_atom_site_label_1
_geom_bond_atom_site_label_2
_geom_bond_site_symmetry_1
_geom_bond_site_symmetry_2
S1 C17 1_555 1_555
S2 C23 1_555 1_555
O1 C1 1_555 1_555
O2 C2 1_555 1_555
O3 C4 1_555 1_555
O4 C6 1_555 1_555
O5 C8 1_555 1_555
N1 C17 1_555 1_555
N2 C22 1_555 1_555
C1 C2 1_555 1_555
C2 H3 1_555 1_555
C3 O2 1_555 1_555
C4 C3 1_555 1_555
C5 O3 1_555 1_555
C6 C5 1_555 1_555
C7 O4 1_555 1_555
C8 C7 1_555 1_555
C9 O5 1_555 1_555
C10 O1 1_555 1_555
C11 C10 1_555 1_555
C12 C11 1_555 1_555
C13 C12 1_555 1_555
C14 C9 1_555 1_555
C15 C13 1_555 1_555
C16 C15 1_555 1_555
C17 C16 1_555 1_555
C18 N1 1_555 1_555
C19 S1 1_555 1_555
C20 C19 1_555 1_555
C21 C20 1_555 1_555
C22 C21 1_555 1_555
C23 C18 1_555 1_555
C24 S2 1_555 1_555
C25 C24 1_555 1_555
H1 C1 1_555 1_555
H2 C1 1_555 1_555
H4 C2 1_555 1_555
H5 C3 1_555 1_555
H6 C3 1_555 1_555
H7 C4 1_555 1_555
H8 C4 1_555 1_555
H9 C5 1_555 1_555
H10 C5 1_555 1_555
H11 C6 1_555 1_555
H12 C6 1_555 1_555
H13 C7 1_555 1_555
H14 C7 1_555 1_555
H15 C8 1_555 1_555
H16 C8 1_555 1_555
H17 C11 1_555 1_555
H18 C12 1_555 1_555
H19 C14 1_555 1_555
H20 C15 1_555 1_555
H21 C16 1_555 1_555
H22 C20 1_555 1_555
H23 C21 1_555 1_555
H24 C25 1_555 1_555
H25 C25 1_555 1_555
H26 C25 1_555 1_555
N2 C24 1_555 1_555
C9 C10 1_555 1_555
C13 C14 1_555 1_555
C18 C19 1_555 1_555
C22 C23 1_555 1_555

#END
