
#######################################################################
#
#                 Cambridge Crystallographic Data Centre
#                                CCDC 
#
#######################################################################
#
# If this CIF has been generated from an entry in the Cambridge 
# Structural Database, then it will include bibliographic, chemical, 
# crystal, experimental, refinement or atomic coordinate data resulting 
# from the CCDC's data processing and validation procedures.
#
#######################################################################

data_WEHYEP
_chemical_formula_moiety         'C16 H13 F2 N3 O1'
_chemical_name_systematic        
3,5-bis(4-fluorophenyl)-4,5-dihydro-1H-pyrazole-1-carboxamide
_symmetry_cell_setting           monoclinic
_symmetry_space_group_name_H-M   'C 2/c'
_symmetry_Int_Tables_number      15
_space_group_name_Hall           '-C 2yn'
loop_
_symmetry_equiv_pos_site_id
_symmetry_equiv_pos_as_xyz
1 x,y,z
2 -x,y,1/2-z
3 1/2+x,1/2+y,z
4 1/2-x,1/2+y,1/2-z
5 -x,-y,-z
6 x,-y,1/2+z
7 1/2-x,1/2-y,-z
8 1/2+x,1/2-y,1/2+z
_cell_length_a                   17.6219(6)
_cell_length_b                   10.8735(3)
_cell_length_c                   15.3216(5)
_cell_angle_alpha                90
_cell_angle_beta                 102.864(3)
_cell_angle_gamma                90
_cell_volume                     2862.11
_exptl_crystal_colour            colorless
_exptl_crystal_description       block
_cell_formula_units_Z            8
loop_
_atom_site_label
_atom_site_type_symbol
_atom_site_fract_x
_atom_site_fract_y
_atom_site_fract_z
F1 F 0.31402(12) 0.14540(14) 0.59681(13)
F2 F 0.82655(7) 0.80142(11) 0.96767(7)
O1 O 0.58649(7) 0.91987(11) 0.57569(8)
N1 N 0.45678(9) 0.88379(14) 0.55682(11)
H1 H 0.4443(12) 0.9483(17) 0.5220(13)
H2 H 0.4219(11) 0.8266(18) 0.5592(15)
N2 N 0.54636(7) 0.74133(12) 0.62578(9)
N3 N 0.48456(7) 0.65980(11) 0.62068(9)
C1 C 0.53206(9) 0.85335(13) 0.58389(10)
C2 C 0.62261(8) 0.67907(14) 0.64187(10)
H3 H 0.6484 0.6984 0.5931
C3 C 0.59780(10) 0.54256(14) 0.63591(11)
H4 H 0.6099 0.5031 0.5839
H5 H 0.6230 0.4978 0.6893
C4 C 0.51167(9) 0.55011(13) 0.62790(9)
C5 C 0.45984(10) 0.44353(14) 0.62374(10)
C6 C 0.37976(11) 0.45923(17) 0.61232(12)
H6 H 0.3593 0.5383 0.6102
C7 C 0.33025(14) 0.3590(2) 0.60406(16)
H7 H 0.2768 0.3695 0.5961
C8 C 0.36219(17) 0.2444(2) 0.60787(15)
C9 C 0.44024(18) 0.22391(18) 0.62093(15)
H8 H 0.4599 0.1442 0.6245
C10 C 0.49020(14) 0.32538(16) 0.62881(13)
H9 H 0.5436 0.3136 0.6374
C11 C 0.67562(8) 0.71360(13) 0.73053(9)
C12 C 0.66304(9) 0.81585(14) 0.77878(11)
H10 H 0.6199 0.8654 0.7573
C13 C 0.71387(10) 0.84579(15) 0.85892(11)
H11 H 0.7053 0.9147 0.8914
C14 C 0.77675(9) 0.77144(16) 0.88877(10)
C15 C 0.79184(9) 0.66940(17) 0.84374(12)
H12 H 0.8351 0.6205 0.8660
C16 C 0.74067(9) 0.64117(15) 0.76394(11)
H13 H 0.7499 0.5723 0.7319
loop_
_geom_bond_atom_site_label_1
_geom_bond_atom_site_label_2
_geom_bond_site_symmetry_1
_geom_bond_site_symmetry_2
F1 C8 1_555 1_555
F2 C14 1_555 1_555
O1 C1 1_555 1_555
N1 H1 1_555 1_555
H2 N1 1_555 1_555
N2 N3 1_555 1_555
N3 C4 1_555 1_555
C1 N1 1_555 1_555
C2 N2 1_555 1_555
H3 C2 1_555 1_555
C3 C2 1_555 1_555
H4 C3 1_555 1_555
H5 C3 1_555 1_555
C4 C3 1_555 1_555
C5 C4 1_555 1_555
C6 C5 1_555 1_555
H6 C6 1_555 1_555
C7 C6 1_555 1_555
H7 C7 1_555 1_555
C8 C7 1_555 1_555
C9 C8 1_555 1_555
H8 C9 1_555 1_555
C10 C5 1_555 1_555
H9 C10 1_555 1_555
C11 C2 1_555 1_555
C12 C11 1_555 1_555
H10 C12 1_555 1_555
C13 C12 1_555 1_555
H11 C13 1_555 1_555
C14 C13 1_555 1_555
C15 C14 1_555 1_555
H12 C15 1_555 1_555
C16 C11 1_555 1_555
H13 C16 1_555 1_555
N2 C1 1_555 1_555
C9 C10 1_555 1_555
C15 C16 1_555 1_555

#END
