
#######################################################################
#
#                 Cambridge Crystallographic Data Centre
#                                CCDC 
#
#######################################################################
#
# If this CIF has been generated from an entry in the Cambridge 
# Structural Database, then it will include bibliographic, chemical, 
# crystal, experimental, refinement or atomic coordinate data resulting 
# from the CCDC's data processing and validation procedures.
#
#######################################################################

data_WEHYIT
_chemical_formula_moiety         'C16 H13 F2 N3 S1'
_chemical_name_systematic        
3,5-bis(4-fluorophenyl)-4,5-dihydro-1H-pyrazole-1-carbothioamide
_symmetry_cell_setting           monoclinic
_symmetry_space_group_name_H-M   'P 21/c'
_symmetry_Int_Tables_number      14
_space_group_name_Hall           '-P 2ybc'
loop_
_symmetry_equiv_pos_site_id
_symmetry_equiv_pos_as_xyz
1 x,y,z
2 -x,1/2+y,1/2-z
3 -x,-y,-z
4 x,1/2-y,1/2+z
_cell_length_a                   14.339(2)
_cell_length_b                   11.1478(17)
_cell_length_c                   9.541(2)
_cell_angle_alpha                90
_cell_angle_beta                 107.007(18)
_cell_angle_gamma                90
_cell_volume                     1458.42
_exptl_crystal_colour            colorless
_exptl_crystal_description       block
_cell_formula_units_Z            4
loop_
_atom_site_label
_atom_site_type_symbol
_atom_site_fract_x
_atom_site_fract_y
_atom_site_fract_z
S1 S 0.51060(3) 0.66711(4) 0.65851(5)
F1 F -0.04833(10) 0.16584(14) 0.00948(18)
F2 F 0.22012(9) 0.64379(10) 1.08099(12)
N1 N 0.39561(12) 0.67846(14) 0.38476(17)
H1 H 0.3459(12) 0.6566(17) 0.3128(19)
H2 H 0.4305(13) 0.7369(15) 0.375(2)
N2 N 0.35919(9) 0.53126(12) 0.52351(13)
N3 N 0.28293(9) 0.49800(12) 0.40180(14)
C1 C 0.41703(11) 0.62460(14) 0.51483(17)
C2 C 0.37068(11) 0.44932(14) 0.64896(16)
H3 H 0.4393 0.4269 0.6911
C3 C 0.31063(12) 0.34130(14) 0.57149(17)
H4 H 0.3525 0.2769 0.5574
H5 H 0.2682 0.3111 0.6262
C4 C 0.25286(11) 0.39431(14) 0.42772(17)
C5 C 0.17158(11) 0.33484(15) 0.31996(18)
C6 C 0.15280(12) 0.21414(17) 0.3322(2)
H6 H 0.1908 0.1709 0.4118
C7 C 0.07852(14) 0.15661(18) 0.2281(3)
H7 H 0.0665 0.0753 0.2365
C8 C 0.02355(13) 0.2219(2) 0.1135(3)
C9 C 0.03751(16) 0.3413(2) 0.0981(2)
H8 H -0.0025 0.3839 0.0196
C10 C 0.11232(13) 0.39799(19) 0.2015(2)
H9 H 0.1232 0.4794 0.1918
C11 C 0.33098(10) 0.50465(13) 0.76447(16)
C12 C 0.25125(11) 0.58086(15) 0.72676(17)
H10 H 0.2229 0.6009 0.6289
C13 C 0.21317(12) 0.62756(16) 0.83277(19)
H11 H 0.1597 0.6788 0.8076
C14 C 0.25653(12) 0.59614(15) 0.97586(18)
C15 C 0.33508(13) 0.52117(16) 1.01848(18)
H12 H 0.3628 0.5015 1.1166
C16 C 0.37207(12) 0.47534(14) 0.91064(17)
H13 H 0.4255 0.4240 0.9369
loop_
_geom_bond_atom_site_label_1
_geom_bond_atom_site_label_2
_geom_bond_site_symmetry_1
_geom_bond_site_symmetry_2
S1 C1 1_555 1_555
F1 C8 1_555 1_555
F2 C14 1_555 1_555
N1 H1 1_555 1_555
H2 N1 1_555 1_555
N2 N3 1_555 1_555
N3 C4 1_555 1_555
C1 N1 1_555 1_555
C2 N2 1_555 1_555
H3 C2 1_555 1_555
C3 C2 1_555 1_555
H4 C3 1_555 1_555
H5 C3 1_555 1_555
C4 C3 1_555 1_555
C5 C4 1_555 1_555
C6 C5 1_555 1_555
H6 C6 1_555 1_555
C7 C6 1_555 1_555
H7 C7 1_555 1_555
C8 C7 1_555 1_555
C9 C8 1_555 1_555
H8 C9 1_555 1_555
C10 C5 1_555 1_555
H9 C10 1_555 1_555
C11 C2 1_555 1_555
C12 C11 1_555 1_555
H10 C12 1_555 1_555
C13 C12 1_555 1_555
H11 C13 1_555 1_555
C14 C13 1_555 1_555
C15 C14 1_555 1_555
H12 C15 1_555 1_555
C16 C11 1_555 1_555
H13 C16 1_555 1_555
N2 C1 1_555 1_555
C9 C10 1_555 1_555
C15 C16 1_555 1_555

#END
