
#######################################################################
#
#                 Cambridge Crystallographic Data Centre
#                                CCDC 
#
#######################################################################
#
# If this CIF has been generated from an entry in the Cambridge 
# Structural Database, then it will include bibliographic, chemical, 
# crystal, experimental, refinement or atomic coordinate data resulting 
# from the CCDC's data processing and validation procedures.
#
#######################################################################

data_WEHZUF
_chemical_name_common            
'alpha-Dihydroartemisinin beta-dihydroartemisinin ether'
_chemical_formula_moiety         'C30 H46 O9'
_chemical_name_systematic        
'bis(3,6,9-Trimethyl-3,12-epoxy-3,4,5,5a,6,7,8,8a,9,10-decahydro-12H-pyrano(4,3-j)(1,2)benzodioxepin-10-yl) ether'
_chemical_properties_biological  'antimalarial and antitumour activities'
_symmetry_cell_setting           monoclinic
_symmetry_space_group_name_H-M   'P 21'
_symmetry_Int_Tables_number      4
_space_group_name_Hall           'P 2yb'
loop_
_symmetry_equiv_pos_site_id
_symmetry_equiv_pos_as_xyz
1 x,y,z
2 -x,1/2+y,-z
_cell_length_a                   10.338(2)
_cell_length_b                   12.012(2)
_cell_length_c                   12.065(2)
_cell_angle_alpha                90
_cell_angle_beta                 93.39(3)
_cell_angle_gamma                90
_cell_volume                     1495.61
_exptl_crystal_colour            colorless
_exptl_crystal_description       block
_cell_formula_units_Z            2
_exptl_crystal_recrystallization_method hexane
loop_
_atom_site_label
_atom_site_type_symbol
_atom_site_fract_x
_atom_site_fract_y
_atom_site_fract_z
O1 O 0.4600(3) 0.3854(3) 0.9329(2)
O2 O 0.5988(3) 0.3790(2) 0.96535(18)
O3 O 0.4652(2) 0.26089(19) 0.78733(17)
O4 O 0.55764(19) 0.41631(17) 0.72608(17)
O5 O 0.6227(2) 0.58392(16) 0.66367(15)
O6 O 0.2279(2) 0.5537(2) 0.6012(2)
O7 O 0.4346(2) 0.54336(16) 0.55256(17)
O8 O 0.2229(2) 0.6279(2) 0.42423(17)
O9 O 0.2875(2) 0.73203(17) 0.45671(15)
C1 C 0.4169(4) 0.2806(4) 0.8943(3)
C2 C 0.4600(6) 0.1880(5) 0.9731(4)
H1 H 0.3919 0.1324 0.9732
H2 H 0.4711 0.2183 1.0475
C3 C 0.5860(5) 0.1310(4) 0.9446(4)
H3 H 0.6078 0.0761 1.0016
H4 H 0.5699 0.0910 0.8752
C4 C 0.7033(4) 0.2051(3) 0.9332(3)
H5 H 0.7393 0.2195 1.0088
C5 C 0.8098(5) 0.1436(4) 0.8731(4)
H6 H 0.7741 0.1259 0.7982
C6 C 0.9260(5) 0.2175(4) 0.8611(5)
H7 H 0.9884 0.1786 0.8182
H8 H 0.9668 0.2325 0.9340
C7 C 0.8907(4) 0.3269(4) 0.8045(3)
H9 H 0.8575 0.3124 0.7290
H10 H 0.9680 0.3722 0.8010
C8 C 0.7889(3) 0.3915(3) 0.8655(2)
H11 H 0.8277 0.4086 0.9396
C9 C 0.7482(3) 0.5031(3) 0.8117(2)
H12 H 0.6923 0.5409 0.8627
C10 C 0.6676(3) 0.4821(2) 0.7047(2)
H13 H 0.7199 0.4451 0.6504
C11 C 0.5851(3) 0.3117(2) 0.7741(2)
H14 H 0.6321 0.2674 0.7214
C12 C 0.6685(3) 0.3196(3) 0.8823(2)
C13 C 0.2716(5) 0.2941(6) 0.8745(6)
H15 H 0.2533 0.3620 0.8346
H16 H 0.2322 0.2966 0.9446
H17 H 0.2373 0.2322 0.8319
C14 C 0.8491(8) 0.0338(6) 0.9294(7)
H18 H 0.8745 0.0472 1.0061
H19 H 0.9206 0.0019 0.8932
H20 H 0.7771 -0.0168 0.9244
C15 C 0.8623(4) 0.5803(4) 0.7939(4)
H21 H 0.8305 0.6529 0.7730
H22 H 0.9123 0.5510 0.7360
H23 H 0.9159 0.5857 0.8614
C16 C 0.1463(3) 0.5942(3) 0.5105(3)
C17 C 0.0604(3) 0.6878(4) 0.5492(3)
H24 H 0.0444 0.7400 0.4886
H25 H -0.0224 0.6568 0.5671
C18 C 0.1175(3) 0.7500(3) 0.6488(3)
H26 H 0.1257 0.6987 0.7109
H27 H 0.0568 0.8075 0.6678
C19 C 0.2490(3) 0.8042(3) 0.6357(2)
H28 H 0.2319 0.8698 0.5888
C20 C 0.3082(4) 0.8489(3) 0.7469(3)
H29 H 0.3187 0.7861 0.7985
C21 C 0.4410(4) 0.8992(3) 0.7331(3)
H30 H 0.4315 0.9655 0.6875
H31 H 0.4786 0.9213 0.8053
C22 C 0.5313(4) 0.8197(3) 0.6806(3)
H32 H 0.5463 0.7559 0.7289
H33 H 0.6139 0.8562 0.6724
C23 C 0.4767(3) 0.7798(2) 0.5665(2)
H34 H 0.4671 0.8463 0.5196
C24 C 0.5643(3) 0.6992(3) 0.5061(2)
H35 H 0.5251 0.6923 0.4304
C25 C 0.5620(3) 0.5848(3) 0.5548(2)
H36 H 0.6121 0.5360 0.5084
C26 C 0.3478(3) 0.6090(2) 0.6125(2)
H37 H 0.3777 0.6089 0.6911
C27 C 0.3404(3) 0.7294(2) 0.57176(19)
C28 C 0.0703(5) 0.4940(4) 0.4636(5)
H38 H 0.1240 0.4516 0.4170
H39 H -0.0052 0.5194 0.4207
H40 H 0.0444 0.4481 0.5235
C29 C 0.2196(6) 0.9343(5) 0.7978(4)
H41 H 0.2005 0.9931 0.7454
H42 H 0.2621 0.9648 0.8639
H43 H 0.1404 0.8988 0.8161
C30 C 0.7010(3) 0.7427(4) 0.4938(4)
H44 H 0.7466 0.6928 0.4477
H45 H 0.7457 0.7475 0.5656
H46 H 0.6968 0.8152 0.4603
loop_
_geom_bond_atom_site_label_1
_geom_bond_atom_site_label_2
_geom_bond_site_symmetry_1
_geom_bond_site_symmetry_2
O1 O2 1_555 1_555
O2 C12 1_555 1_555
O3 C1 1_555 1_555
O4 C10 1_555 1_555
O5 C10 1_555 1_555
O6 C16 1_555 1_555
O7 C25 1_555 1_555
O8 O9 1_555 1_555
O9 C27 1_555 1_555
C1 O1 1_555 1_555
C2 C1 1_555 1_555
H1 C2 1_555 1_555
H2 C2 1_555 1_555
C3 C2 1_555 1_555
H3 C3 1_555 1_555
H4 C3 1_555 1_555
C4 C3 1_555 1_555
H5 C4 1_555 1_555
C5 C4 1_555 1_555
H6 C5 1_555 1_555
C6 C5 1_555 1_555
H7 C6 1_555 1_555
H8 C6 1_555 1_555
C7 C6 1_555 1_555
H9 C7 1_555 1_555
H10 C7 1_555 1_555
C8 C7 1_555 1_555
H11 C8 1_555 1_555
C9 C8 1_555 1_555
H12 C9 1_555 1_555
C10 C9 1_555 1_555
H13 C10 1_555 1_555
C11 O3 1_555 1_555
H14 C11 1_555 1_555
C12 C4 1_555 1_555
C13 C1 1_555 1_555
H15 C13 1_555 1_555
H16 C13 1_555 1_555
H17 C13 1_555 1_555
C14 C5 1_555 1_555
H18 C14 1_555 1_555
H19 C14 1_555 1_555
H20 C14 1_555 1_555
C15 C9 1_555 1_555
H21 C15 1_555 1_555
H22 C15 1_555 1_555
H23 C15 1_555 1_555
C16 O8 1_555 1_555
C17 C16 1_555 1_555
H24 C17 1_555 1_555
H25 C17 1_555 1_555
C18 C17 1_555 1_555
H26 C18 1_555 1_555
H27 C18 1_555 1_555
C19 C18 1_555 1_555
H28 C19 1_555 1_555
C20 C19 1_555 1_555
H29 C20 1_555 1_555
C21 C20 1_555 1_555
H30 C21 1_555 1_555
H31 C21 1_555 1_555
C22 C21 1_555 1_555
H32 C22 1_555 1_555
H33 C22 1_555 1_555
C23 C22 1_555 1_555
H34 C23 1_555 1_555
C24 C23 1_555 1_555
H35 C24 1_555 1_555
C25 O5 1_555 1_555
H36 C25 1_555 1_555
C26 O6 1_555 1_555
H37 C26 1_555 1_555
C27 C19 1_555 1_555
C28 C16 1_555 1_555
H38 C28 1_555 1_555
H39 C28 1_555 1_555
H40 C28 1_555 1_555
C29 C20 1_555 1_555
H41 C29 1_555 1_555
H42 C29 1_555 1_555
H43 C29 1_555 1_555
C30 C24 1_555 1_555
H44 C30 1_555 1_555
H45 C30 1_555 1_555
H46 C30 1_555 1_555
O4 C11 1_555 1_555
O7 C26 1_555 1_555
C8 C12 1_555 1_555
C11 C12 1_555 1_555
C23 C27 1_555 1_555
C24 C25 1_555 1_555
C26 C27 1_555 1_555

#END
