
#######################################################################
#
#                 Cambridge Crystallographic Data Centre
#                                CCDC 
#
#######################################################################
#
# If this CIF has been generated from an entry in the Cambridge 
# Structural Database, then it will include bibliographic, chemical, 
# crystal, experimental, refinement or atomic coordinate data resulting 
# from the CCDC's data processing and validation procedures.
#
#######################################################################

data_WEJCOE
_chemical_formula_moiety         'C20 H16 Cl1 N1 O1'
_chemical_name_systematic        2-(4-Chloroanilino)-1,2-diphenylethanone
_symmetry_cell_setting           triclinic
_symmetry_space_group_name_H-M   'P -1'
_symmetry_Int_Tables_number      2
_space_group_name_Hall           '-P 1'
loop_
_symmetry_equiv_pos_site_id
_symmetry_equiv_pos_as_xyz
1 x,y,z
2 -x,-y,-z
_cell_length_a                   5.7748(8)
_cell_length_b                   11.485(2)
_cell_length_c                   13.086(2)
_cell_angle_alpha                113.470(10)
_cell_angle_beta                 100.390(10)
_cell_angle_gamma                97.290(10)
_cell_volume                     763.824
_exptl_crystal_colour            colorless
_exptl_crystal_description       'thin plate'
_chemical_melting_point          '436.0 K'
_cell_formula_units_Z            2
_exptl_crystal_recrystallization_method ethanol
loop_
_atom_site_label
_atom_site_type_symbol
_atom_site_fract_x
_atom_site_fract_y
_atom_site_fract_z
Cl1 Cl 1.71577(6) 0.46113(4) 0.88681(3)
O1 O 0.45508(17) -0.00405(10) 0.35124(10)
N1 N 0.8733(2) 0.12372(12) 0.49961(11)
H1 H 0.751(3) 0.0962(17) 0.5136(16)
C1 C 0.6187(2) 0.00749(13) 0.30583(13)
C2 C 0.8650(2) 0.09654(13) 0.38132(12)
H2 H 0.9965 0.0511 0.3579
C3 C 0.5800(2) -0.06112(13) 0.17882(13)
C4 C 0.7621(3) -0.05376(14) 0.12232(14)
H3 H 0.9184 -0.0015 0.1656
C5 C 0.7152(3) -0.12205(15) 0.00382(15)
H4 H 0.8386 -0.1149 -0.0338
C6 C 0.4906(3) -0.20073(16) -0.05995(15)
H5 H 0.4595 -0.2475 -0.1412
C7 C 0.3104(3) -0.21092(16) -0.00462(14)
H6 H 0.1567 -0.2664 -0.0479
C8 C 0.3538(3) -0.14060(15) 0.11298(14)
H7 H 0.2280 -0.1465 0.1497
C9 C 0.8911(2) 0.22060(13) 0.36177(12)
C10 C 0.7374(2) 0.30467(13) 0.39645(13)
H8 H 0.6192 0.2852 0.4327
C11 C 0.7549(3) 0.41642(14) 0.37888(14)
H9 H 0.6493 0.4731 0.4032
C12 C 0.9266(3) 0.44563(14) 0.32580(14)
H10 H 0.9365 0.5213 0.3123
C13 C 1.0831(2) 0.36414(15) 0.29262(14)
H11 H 1.2026 0.3846 0.2575
C14 C 1.0659(2) 0.25224(14) 0.31067(13)
H12 H 1.1743 0.1968 0.2879
C15 C 1.0720(2) 0.19796(13) 0.58880(12)
C16 C 1.0584(2) 0.23800(13) 0.70349(13)
H13 H 0.9117 0.2100 0.7187
C17 C 1.2533(2) 0.31719(14) 0.79477(13)
H14 H 1.2404 0.3432 0.8717
C18 C 1.4688(2) 0.35861(14) 0.77318(13)
C19 C 1.4890(2) 0.31783(13) 0.66101(13)
H15 H 1.6373 0.3448 0.6466
C20 C 1.2943(2) 0.23808(13) 0.56997(13)
H16 H 1.3109 0.2099 0.4934
loop_
_geom_bond_atom_site_label_1
_geom_bond_atom_site_label_2
_geom_bond_site_symmetry_1
_geom_bond_site_symmetry_2
Cl1 C18 1_555 1_555
O1 C1 1_555 1_555
N1 H1 1_555 1_555
C1 C2 1_555 1_555
C2 N1 1_555 1_555
H2 C2 1_555 1_555
C3 C1 1_555 1_555
C4 C3 1_555 1_555
H3 C4 1_555 1_555
C5 C4 1_555 1_555
H4 C5 1_555 1_555
C6 C5 1_555 1_555
H5 C6 1_555 1_555
C7 C6 1_555 1_555
H6 C7 1_555 1_555
C8 C3 1_555 1_555
H7 C8 1_555 1_555
C9 C2 1_555 1_555
C10 C9 1_555 1_555
H8 C10 1_555 1_555
C11 C10 1_555 1_555
H9 C11 1_555 1_555
C12 C11 1_555 1_555
H10 C12 1_555 1_555
C13 C12 1_555 1_555
H11 C13 1_555 1_555
C14 C9 1_555 1_555
H12 C14 1_555 1_555
C15 N1 1_555 1_555
C16 C15 1_555 1_555
H13 C16 1_555 1_555
C17 C16 1_555 1_555
H14 C17 1_555 1_555
C18 C17 1_555 1_555
C19 C18 1_555 1_555
H15 C19 1_555 1_555
C20 C15 1_555 1_555
H16 C20 1_555 1_555
C7 C8 1_555 1_555
C13 C14 1_555 1_555
C19 C20 1_555 1_555

#END
