
#######################################################################
#
#                 Cambridge Crystallographic Data Centre
#                                CCDC 
#
#######################################################################
#
# If this CIF has been generated from an entry in the Cambridge 
# Structural Database, then it will include bibliographic, chemical, 
# crystal, experimental, refinement or atomic coordinate data resulting 
# from the CCDC's data processing and validation procedures.
#
#######################################################################

data_WEJDUN
_chemical_formula_moiety         'C76 H16,3(C1 S2)'
_chemical_name_systematic        
'cis-bis(1,2-phenylene-dimethyl)-C60fullerene carbon disulfide solvate'
_symmetry_cell_setting           monoclinic
_symmetry_space_group_name_H-M   'P 21/c'
_symmetry_Int_Tables_number      14
_space_group_name_Hall           '-P 2ybc'
loop_
_symmetry_equiv_pos_site_id
_symmetry_equiv_pos_as_xyz
1 x,y,z
2 -x,1/2+y,1/2-z
3 -x,-y,-z
4 x,1/2-y,1/2+z
_cell_length_a                   10.1580(12)
_cell_length_b                   19.515(2)
_cell_length_c                   23.955(3)
_cell_angle_alpha                90
_cell_angle_beta                 94.195(2)
_cell_angle_gamma                90
_cell_volume                     4735.96
_exptl_crystal_colour            black
_exptl_crystal_description       block
_cell_formula_units_Z            4
loop_
_atom_site_label
_atom_site_type_symbol
_atom_site_fract_x
_atom_site_fract_y
_atom_site_fract_z
C1 C 0.8214(5) 1.0319(3) 0.44878(18)
C2 C 1.0837(4) 0.91257(19) 0.29064(15)
C3 C 0.7939(3) 0.7244(2) 0.38560(15)
C4 C 1.0095(4) 0.76066(19) 0.40520(14)
C5 C 1.1710(3) 0.6993(2) 0.35118(15)
C6 C 0.6164(3) 0.72369(19) 0.31133(15)
C7 C 1.0915(4) 0.8902(2) 0.19030(16)
C8 C 1.1248(4) 0.76013(19) 0.38045(15)
C9 C 0.6867(4) 0.62561(19) 0.26515(16)
C10 C 0.8770(4) 0.91505(19) 0.32752(15)
C11 C 0.6162(3) 0.7948(2) 0.31052(15)
C12 C 0.9479(4) 0.93539(18) 0.28097(15)
C13 C 0.8885(4) 0.93612(18) 0.22725(15)
C14 C 0.8887(4) 0.58023(19) 0.23075(16)
C15 C 1.1367(4) 0.8302(2) 0.16203(15)
C16 C 0.6857(4) 0.89125(18) 0.26248(16)
C17 C 0.6622(4) 0.6967(2) 0.16167(15)
C18 C 1.0922(4) 0.6249(2) 0.19292(16)
C19 C 0.7063(3) 0.8320(2) 0.34854(15)
C20 C 1.2269(3) 0.7223(2) 0.20196(16)
C21 C 0.6037(3) 0.8314(2) 0.25790(15)
C22 C 1.0841(4) 0.60553(19) 0.29398(16)
C23 C 0.7531(4) 0.91336(19) 0.21739(15)
C24 C 0.6038(3) 0.6858(2) 0.25904(15)
C25 C 0.9610(4) 0.91239(19) 0.18062(15)
C26 C 1.0957(3) 0.87821(19) 0.34375(15)
C27 C 0.7494(3) 0.89272(19) 0.31861(15)
C28 C 1.2433(3) 0.7962(2) 0.30414(15)
C29 C 0.8708(4) 0.87480(19) 0.14252(15)
C30 C 1.1706(3) 0.8206(2) 0.34991(15)
C31 C 0.7074(4) 0.7566(2) 0.13256(15)
C32 C 0.8300(4) 0.7565(2) 0.11042(15)
C33 C 1.2432(3) 0.7222(2) 0.30509(16)
C34 C 0.9252(4) 0.69537(19) 0.41132(14)
C35 C 1.0492(4) 0.7198(2) 0.12583(15)
C36 C 1.1364(4) 0.6847(2) 0.16317(16)
C37 C 0.7503(4) 0.62605(19) 0.32136(16)
C38 C 0.7935(3) 0.7967(2) 0.38526(15)
C39 C 1.0494(4) 0.7935(2) 0.12540(15)
C40 C 1.0959(4) 0.6419(2) 0.34621(15)
C41 C 0.7418(4) 0.6393(2) 0.16756(15)
C42 C 0.7422(4) 0.8750(2) 0.16523(15)
C43 C 0.8708(4) 0.6389(2) 0.14451(15)
C44 C 0.7545(4) 0.60271(19) 0.22059(15)
C45 C 0.8780(4) 0.60405(18) 0.33118(15)
C46 C 0.9485(4) 0.58212(18) 0.28458(16)
C47 C 0.6618(4) 0.8173(2) 0.16029(15)
C48 C 1.2372(3) 0.6856(2) 0.25461(16)
C49 C 0.7065(4) 0.6880(2) 0.34960(15)
C50 C 0.9622(4) 0.60274(19) 0.18370(16)
C51 C 0.5906(3) 0.7208(2) 0.20838(16)
C52 C 1.2366(3) 0.8313(2) 0.25315(16)
C53 C 1.2268(4) 0.7932(2) 0.20112(16)
C54 C 1.1545(4) 0.8907(2) 0.24632(16)
C55 C 0.9256(4) 0.82597(19) 0.41010(15)
C56 C 0.8397(4) 0.9132(2) 0.47736(16)
C57 C 0.8872(4) 0.5527(2) 0.45138(16)
C58 C 0.7310(4) 0.9211(3) 0.50872(17)
C59 C 0.9131(4) 0.8166(2) 0.11569(14)
C60 C 0.5907(3) 0.7950(2) 0.20756(16)
C61 C 0.9741(4) 0.89124(19) 0.37611(15)
C62 C 1.1549(4) 0.6259(2) 0.24935(16)
C63 C 0.9131(4) 0.6965(2) 0.11675(14)
C64 C 0.7116(5) 1.0389(3) 0.4806(2)
C65 C 0.9099(4) 0.6758(2) 0.47358(17)
C66 C 0.7245(4) 0.6018(3) 0.50785(17)
C67 C 0.6644(5) 0.5383(3) 0.51056(19)
C68 C 1.0030(4) 0.9544(2) 0.41528(18)
C69 C 0.8365(4) 0.6096(2) 0.47839(15)
C70 C 0.7137(5) 0.4832(3) 0.4841(2)
C71 C 0.9138(4) 0.8476(2) 0.47237(16)
C72 C 0.8860(4) 0.9693(2) 0.44796(15)
C73 C 0.9746(4) 0.62894(19) 0.37853(15)
C74 C 0.6689(5) 0.9835(3) 0.51040(19)
C75 C 1.0049(4) 0.5681(2) 0.41968(17)
H1 H 1.032(4) 0.528(2) 0.3993(15)
H2 H 0.877(3) 0.8117(18) 0.4931(14)
H3 H 1.029(3) 0.997(2) 0.3912(15)
H4 H 1.087(4) 0.5789(18) 0.4450(15)
C76 C 0.8260(5) 0.4896(2) 0.45396(19)
H5 H 1.078(4) 0.9413(17) 0.4406(14)
H6 H 0.871(4) 0.713(2) 0.4921(15)
H7 H 0.698(4) 0.878(2) 0.5307(16)
H8 H 1.014(4) 0.8522(19) 0.4890(15)
H9 H 1.008(4) 0.673(2) 0.4934(16)
H10 H 0.859(4) 1.071(2) 0.4255(18)
H11 H 0.590(4) 0.531(2) 0.5338(17)
H12 H 0.679(5) 0.438(2) 0.4916(18)
H13 H 0.670(5) 1.087(3) 0.484(2)
H14 H 0.590(4) 0.992(2) 0.5329(18)
H15 H 0.693(4) 0.644(2) 0.5274(18)
H16 H 0.867(4) 0.451(2) 0.4356(16)
S1 S 0.40584(12) 0.95292(7) 0.17144(7)
S2 S 0.57982(14) 1.07149(7) 0.13596(7)
C77 C 0.4928(4) 1.0122(2) 0.15319(18)
S3 S 0.41766(13) 0.94543(7) 0.35374(6)
S4 S 0.59565(12) 1.06505(7) 0.32383(7)
C78 C 0.5068(4) 1.0054(2) 0.33932(18)
S5 S 0.4756(2) 0.76602(14) 0.44687(9)
S6 S 0.3528(3) 0.73425(18) 0.55590(12)
C79 C 0.4137(6) 0.7504(3) 0.5007(3)
loop_
_geom_bond_atom_site_label_1
_geom_bond_atom_site_label_2
_geom_bond_site_symmetry_1
_geom_bond_site_symmetry_2
C1 C64 1_555 1_555
C2 C12 1_555 1_555
C3 C34 1_555 1_555
C4 C8 1_555 1_555
C5 C8 1_555 1_555
C6 C11 1_555 1_555
C7 C15 1_555 1_555
C8 C30 1_555 1_555
C9 C24 1_555 1_555
C10 C12 1_555 1_555
C11 C19 1_555 1_555
C12 C13 1_555 1_555
C13 C23 1_555 1_555
C14 C44 1_555 1_555
C15 C39 1_555 1_555
C16 C21 1_555 1_555
C17 C31 1_555 1_555
C18 C36 1_555 1_555
C19 C27 1_555 1_555
C20 C36 1_555 1_555
C21 C11 1_555 1_555
C22 C40 1_555 1_555
C23 C16 1_555 1_555
C24 C6 1_555 1_555
C25 C7 1_555 1_555
C26 C2 1_555 1_555
C27 C10 1_555 1_555
C28 C30 1_555 1_555
C29 C25 1_555 1_555
C30 C26 1_555 1_555
C31 C32 1_555 1_555
C32 C59 1_555 1_555
C33 C5 1_555 1_555
C34 C4 1_555 1_555
C35 C36 1_555 1_555
C37 C9 1_555 1_555
C38 C3 1_555 1_555
C39 C35 1_555 1_555
C40 C5 1_555 1_555
C41 C17 1_555 1_555
C42 C23 1_555 1_555
C43 C41 1_555 1_555
C44 C9 1_555 1_555
C45 C37 1_555 1_555
C46 C14 1_555 1_555
C47 C31 1_555 1_555
C48 C20 1_555 1_555
C49 C3 1_555 1_555
C50 C14 1_555 1_555
C51 C17 1_555 1_555
C52 C28 1_555 1_555
C53 C15 1_555 1_555
C54 C2 1_555 1_555
C55 C4 1_555 1_555
C56 C58 1_555 1_555
C57 C69 1_555 1_555
C58 C74 1_555 1_555
C59 C29 1_555 1_555
C60 C21 1_555 1_555
C61 C10 1_555 1_555
C62 C18 1_555 1_555
C63 C32 1_555 1_555
C64 C74 1_555 1_555
C65 C34 1_555 1_555
C66 C67 1_555 1_555
C67 C70 1_555 1_555
C68 C61 1_555 1_555
C69 C65 1_555 1_555
C70 C76 1_555 1_555
C71 C55 1_555 1_555
C72 C1 1_555 1_555
C73 C34 1_555 1_555
C74 H14 1_555 1_555
C75 C57 1_555 1_555
H1 C75 1_555 1_555
H2 C71 1_555 1_555
H3 C68 1_555 1_555
H4 C75 1_555 1_555
C76 C57 1_555 1_555
H5 C68 1_555 1_555
H6 C65 1_555 1_555
H7 C58 1_555 1_555
H8 C71 1_555 1_555
H9 C65 1_555 1_555
H10 C1 1_555 1_555
H11 C67 1_555 1_555
H12 C70 1_555 1_555
H13 C64 1_555 1_555
H15 C66 1_555 1_555
H16 C76 1_555 1_555
S1 C77 1_555 1_555
S2 C77 1_555 1_555
S3 C78 1_555 1_555
S4 C78 1_555 1_555
S5 C79 1_555 1_555
S6 C79 1_555 1_555
C6 C49 1_555 1_555
C7 C54 1_555 1_555
C13 C25 1_555 1_555
C16 C27 1_555 1_555
C18 C50 1_555 1_555
C19 C38 1_555 1_555
C20 C53 1_555 1_555
C22 C46 1_555 1_555
C22 C62 1_555 1_555
C24 C51 1_555 1_555
C26 C61 1_555 1_555
C28 C33 1_555 1_555
C29 C42 1_555 1_555
C33 C48 1_555 1_555
C35 C63 1_555 1_555
C37 C49 1_555 1_555
C38 C55 1_555 1_555
C39 C59 1_555 1_555
C40 C73 1_555 1_555
C41 C44 1_555 1_555
C42 C47 1_555 1_555
C43 C50 1_555 1_555
C43 C63 1_555 1_555
C45 C46 1_555 1_555
C45 C73 1_555 1_555
C47 C60 1_555 1_555
C48 C62 1_555 1_555
C51 C60 1_555 1_555
C52 C53 1_555 1_555
C52 C54 1_555 1_555
C55 C61 1_555 1_555
C56 C71 1_555 1_555
C56 C72 1_555 1_555
C66 C69 1_555 1_555
C68 C72 1_555 1_555
C73 C75 1_555 1_555

#END
