
#######################################################################
#
#                 Cambridge Crystallographic Data Centre
#                                CCDC 
#
#######################################################################
#
# If this CIF has been generated from an entry in the Cambridge 
# Structural Database, then it will include bibliographic, chemical, 
# crystal, experimental, refinement or atomic coordinate data resulting 
# from the CCDC's data processing and validation procedures.
#
#######################################################################

data_WEJFAV
_chemical_formula_moiety         'C76 H16,2(C1 H1 Cl3)'
_chemical_name_systematic        
'trans-bis(1,2-phenylene-dimethyl)-C60fullerene chloroform solvate'
_symmetry_cell_setting           monoclinic
_symmetry_space_group_name_H-M   'C 2/c'
_symmetry_Int_Tables_number      15
_space_group_name_Hall           '-C 2yn'
loop_
_symmetry_equiv_pos_site_id
_symmetry_equiv_pos_as_xyz
1 x,y,z
2 -x,y,1/2-z
3 1/2+x,1/2+y,z
4 1/2-x,1/2+y,1/2-z
5 -x,-y,-z
6 x,-y,1/2+z
7 1/2-x,1/2-y,-z
8 1/2+x,1/2-y,1/2+z
_cell_length_a                   22.3397(19)
_cell_length_b                   10.2812(9)
_cell_length_c                   20.0732(17)
_cell_angle_alpha                90
_cell_angle_beta                 100.0560(10)
_cell_angle_gamma                90
_cell_volume                     4539.56
_exptl_crystal_colour            black
_exptl_crystal_description       block
_cell_formula_units_Z            4
loop_
_atom_site_label
_atom_site_type_symbol
_atom_site_fract_x
_atom_site_fract_y
_atom_site_fract_z
Cl1 Cl 0.19954(4) 0.05926(10) 0.07713(4)
Cl2 Cl 0.09329(5) -0.10484(10) 0.05781(5)
Cl3 Cl 0.09639(6) 0.12150(11) -0.02546(5)
C1 C 0.13931(17) -0.0029(3) 0.01768(16)
H1 H 0.1608(14) -0.055(3) -0.0140(16)
C2 C 0.15796(11) 0.4205(3) 0.24644(14)
C3 C 0.02947(12) 0.0873(2) 0.24291(14)
C4 C 0.10268(11) 0.2837(3) 0.38606(12)
C5 C 0.10154(12) 0.5582(3) 0.38612(14)
C6 C 0.08021(12) 0.1268(3) 0.29259(14)
C7 C 0.09642(12) 0.1962(3) 0.18550(13)
C8 C 0.21993(14) -0.0791(3) 0.36057(16)
C9 C 0.13352(12) 0.4207(3) 0.17922(14)
C10 C 0.05104(12) 0.3490(3) 0.09822(13)
C11 C 0.00327(13) 0.5582(3) 0.41178(14)
C12 C 0.10165(12) 0.5336(3) 0.14797(14)
C13 C 0.06064(12) 0.4883(3) 0.42128(13)
C14 C 0.16702(11) 0.2986(3) 0.29107(13)
C15 C 0.07984(13) 0.7148(3) 0.29222(16)
C16 C 0.14046(11) 0.4888(3) 0.35221(13)
C17 C 0.03950(12) 0.1291(3) 0.17719(14)
C18 C 0.10189(12) 0.3039(3) 0.14758(13)
C19 C 0.02929(13) 0.7589(3) 0.24264(16)
C20 C 0.07010(13) 0.6728(3) 0.35497(15)
C21 C 0.14208(11) 0.3504(3) 0.35319(13)
C22 C 0.15050(11) 0.5329(3) 0.28613(14)
C23 C 0.12116(12) 0.6441(3) 0.25757(15)
C24 C 0.05120(13) 0.4898(3) 0.09796(13)
C25 C -0.00416(12) 0.2824(3) 0.08903(12)
C26 C 0.06088(12) 0.3533(3) 0.42055(13)
C27 C 0.23635(12) 0.2687(3) 0.31261(15)
C28 C 0.21498(12) 0.0373(3) 0.32564(14)
C29 C 0.09632(13) 0.6449(3) 0.18621(15)
C30 C 0.24528(11) 0.1476(3) 0.35466(14)
C31 C 0.03947(13) 0.7158(3) 0.17649(16)
C32 C 0.07107(12) 0.1673(3) 0.35469(13)
C33 C -0.00996(12) 0.1694(3) 0.12928(13)
C34 C 0.28572(15) 0.0233(4) 0.45381(17)
C35 C 0.13220(11) 0.1722(3) 0.25735(13)
C36 C 0.00933(13) 0.6730(3) 0.37126(15)
C37 C 0.27977(13) 0.1405(3) 0.41903(16)
C38 C 0.17760(13) 0.0569(3) 0.25667(15)
C39 C 0.25591(14) -0.0865(3) 0.42455(17)
H2 H 0.2562(12) 0.347(3) 0.3382(14)
H3 H 0.3003(13) 0.219(3) 0.4385(14)
H4 H 0.2543(13) 0.260(3) 0.2698(15)
H5 H 0.1547(14) -0.020(3) 0.2425(15)
H6 H 0.2044(15) 0.075(3) 0.2218(17)
H7 H 0.1981(14) -0.149(3) 0.3410(16)
H8 H 0.3099(16) 0.017(3) 0.4947(18)
H9 H 0.2618(15) -0.168(4) 0.4495(18)
C2A C -0.15796(11) 0.4205(3) 0.25356(14)
C3A C -0.02947(12) 0.0873(2) 0.25709(14)
C4A C -0.10268(11) 0.2837(3) 0.11394(12)
C5A C -0.10154(12) 0.5582(3) 0.11388(14)
C6A C -0.08021(12) 0.1268(3) 0.20741(14)
C7A C -0.09642(12) 0.1962(3) 0.31450(13)
C8A C -0.21993(14) -0.0791(3) 0.13943(16)
C9A C -0.13352(12) 0.4207(3) 0.32078(14)
C10A C -0.05104(12) 0.3490(3) 0.40178(13)
C11A C -0.00327(13) 0.5582(3) 0.08822(14)
C12A C -0.10165(12) 0.5336(3) 0.35203(14)
C13A C -0.06064(12) 0.4883(3) 0.07872(13)
C14A C -0.16702(11) 0.2986(3) 0.20893(13)
C15A C -0.07984(13) 0.7148(3) 0.20778(16)
C16A C -0.14046(11) 0.4888(3) 0.14779(13)
C17A C -0.03950(12) 0.1291(3) 0.32281(14)
C18A C -0.10189(12) 0.3039(3) 0.35242(13)
C19A C -0.02929(13) 0.7589(3) 0.25736(16)
C20A C -0.07010(13) 0.6728(3) 0.14503(15)
C21A C -0.14208(11) 0.3504(3) 0.14681(13)
C22A C -0.15050(11) 0.5329(3) 0.21387(14)
C23A C -0.12116(12) 0.6441(3) 0.24243(15)
C24A C -0.05120(13) 0.4898(3) 0.40204(13)
C25A C 0.00416(12) 0.2824(3) 0.41097(12)
C26A C -0.06088(12) 0.3533(3) 0.07945(13)
C27A C -0.23635(12) 0.2687(3) 0.18739(15)
C28A C -0.21498(12) 0.0373(3) 0.17436(14)
C29A C -0.09632(13) 0.6449(3) 0.31379(15)
C30A C -0.24528(11) 0.1476(3) 0.14534(14)
C31A C -0.03947(13) 0.7158(3) 0.32351(16)
C32A C -0.07107(12) 0.1673(3) 0.14531(13)
C33A C 0.00996(12) 0.1694(3) 0.37072(13)
C34A C -0.28572(15) 0.0233(4) 0.04619(17)
C35A C -0.13220(11) 0.1722(3) 0.24265(13)
C36A C -0.00933(13) 0.6730(3) 0.12874(15)
C37A C -0.27977(13) 0.1405(3) 0.08097(16)
C38A C -0.17760(13) 0.0569(3) 0.24333(15)
C39A C -0.25591(14) -0.0865(3) 0.07545(17)
H2A H -0.2562(12) 0.347(3) 0.1618(14)
H3A H -0.3003(13) 0.219(3) 0.0615(14)
H4A H -0.2543(13) 0.260(3) 0.2302(15)
H5A H -0.1547(14) -0.020(3) 0.2575(15)
H6A H -0.2044(15) 0.075(3) 0.2782(17)
H7A H -0.1981(14) -0.149(3) 0.1590(16)
H8A H -0.3099(16) 0.017(3) 0.0053(18)
H9A H -0.2618(15) -0.168(4) 0.0505(18)
loop_
_geom_bond_atom_site_label_1
_geom_bond_atom_site_label_2
_geom_bond_site_symmetry_1
_geom_bond_site_symmetry_2
Cl1 C1 1_555 1_555
Cl2 C1 1_555 1_555
Cl3 C1 1_555 1_555
C1 H1 1_555 1_555
C2 C9 1_555 1_555
C3 C6 1_555 1_555
C4 C21 1_555 1_555
C5 C13 1_555 1_555
C6 C32 1_555 1_555
C7 C17 1_555 1_555
C8 C28 1_555 1_555
C9 C12 1_555 1_555
C10 C18 1_555 1_555
C11 C13 1_555 1_555
C12 C24 1_555 1_555
C13 C26 1_555 1_555
C14 C2 1_555 1_555
C15 C19 1_555 1_555
C16 C5 1_555 1_555
C17 C3 1_555 1_555
C18 C7 1_555 1_555
C19 C31 1_555 1_555
C20 C5 1_555 1_555
C21 C14 1_555 1_555
C22 C2 1_555 1_555
C23 C15 1_555 1_555
C24 C10 1_555 1_555
C25 C10 1_555 1_555
C26 C4 1_555 1_555
C27 C14 1_555 1_555
C28 C30 1_555 1_555
C29 C12 1_555 1_555
C30 C27 1_555 1_555
C31 C29 1_555 1_555
C32 C4 1_555 1_555
C33 C17 1_555 1_555
C34 C37 1_555 1_555
C35 C6 1_555 1_555
C36 C11 1_555 1_555
C37 C30 1_555 1_555
C38 C28 1_555 1_555
C39 C8 1_555 1_555
H2 C27 1_555 1_555
H3 C37 1_555 1_555
H4 C27 1_555 1_555
H5 C38 1_555 1_555
H6 C38 1_555 1_555
H7 C8 1_555 1_555
H8 C34 1_555 1_555
H9 C39 1_555 1_555
C2A C9A 1_555 1_555
C3A C3 1_555 1_555
C4A C21A 1_555 1_555
C5A C13A 1_555 1_555
C6A C3A 1_555 1_555
C7A C17A 1_555 1_555
C8A C28A 1_555 1_555
C9A C12A 1_555 1_555
C10A C18A 1_555 1_555
C11A C24 1_555 1_555
C12A C24A 1_555 1_555
C13A C11A 1_555 1_555
C14A C2A 1_555 1_555
C15A C19A 1_555 1_555
C16A C5A 1_555 1_555
C17A C3A 1_555 1_555
C18A C7A 1_555 1_555
C19A C19 1_555 1_555
C20A C5A 1_555 1_555
C21A C14A 1_555 1_555
C22A C2A 1_555 1_555
C23A C15A 1_555 1_555
C24A C11 1_555 1_555
C25A C26 1_555 1_555
C26A C25 1_555 1_555
C27A C14A 1_555 1_555
C28A C30A 1_555 1_555
C29A C12A 1_555 1_555
C30A C27A 1_555 1_555
C31A C36 1_555 1_555
C32A C33 1_555 1_555
C33A C32 1_555 1_555
C34A C37A 1_555 1_555
C35A C6A 1_555 1_555
C36A C31 1_555 1_555
C37A C30A 1_555 1_555
C38A C28A 1_555 1_555
C39A C8A 1_555 1_555
H2A C27A 1_555 1_555
H3A C37A 1_555 1_555
H4A C27A 1_555 1_555
H5A C38A 1_555 1_555
H6A C38A 1_555 1_555
H7A C8A 1_555 1_555
H8A C34A 1_555 1_555
H9A C39A 1_555 1_555
C7 C35 1_555 1_555
C9 C18 1_555 1_555
C14 C35 1_555 1_555
C15 C20 1_555 1_555
C16 C21 1_555 1_555
C16 C22 1_555 1_555
C20 C36 1_555 1_555
C22 C23 1_555 1_555
C23 C29 1_555 1_555
C25 C33 1_555 1_555
C34 C39 1_555 1_555
C35 C38 1_555 1_555
C4A C26A 1_555 1_555
C4A C32A 1_555 1_555
C6A C32A 1_555 1_555
C7A C35A 1_555 1_555
C9A C18A 1_555 1_555
C10A C24A 1_555 1_555
C10A C25A 1_555 1_555
C11A C36A 1_555 1_555
C13A C26A 1_555 1_555
C14A C35A 1_555 1_555
C15A C20A 1_555 1_555
C16A C21A 1_555 1_555
C16A C22A 1_555 1_555
C17A C33A 1_555 1_555
C19A C31A 1_555 1_555
C20A C36A 1_555 1_555
C22A C23A 1_555 1_555
C23A C29A 1_555 1_555
C25A C33A 1_555 1_555
C29A C31A 1_555 1_555
C34A C39A 1_555 1_555
C35A C38A 1_555 1_555

#END
