
#######################################################################
#
#                 Cambridge Crystallographic Data Centre
#                                CCDC 
#
#######################################################################
#
# If this CIF has been generated from an entry in the Cambridge 
# Structural Database, then it will include bibliographic, chemical, 
# crystal, experimental, refinement or atomic coordinate data resulting 
# from the CCDC's data processing and validation procedures.
#
#######################################################################

data_WEJFAT
_chemical_formula_moiety         'C18 H18 N4 O1,H2 O1'
_chemical_name_systematic        
'bis(2-(1H-benzimidazol-1-yl)ethyl) ether monohydrate'
_symmetry_cell_setting           orthorhombic
_symmetry_space_group_name_H-M   'P b c a'
_symmetry_Int_Tables_number      61
_space_group_name_Hall           '-P 2ac 2ab'
loop_
_symmetry_equiv_pos_site_id
_symmetry_equiv_pos_as_xyz
1 x,y,z
2 1/2-x,-y,1/2+z
3 -x,1/2+y,1/2-z
4 1/2+x,1/2-y,-z
5 -x,-y,-z
6 1/2+x,y,1/2-z
7 x,1/2-y,1/2+z
8 1/2-x,1/2+y,z
_cell_length_a                   18.230(3)
_cell_length_b                   9.4065(16)
_cell_length_c                   19.578(3)
_cell_angle_alpha                90
_cell_angle_beta                 90
_cell_angle_gamma                90
_cell_volume                     3357.25
_exptl_crystal_colour            colorless
_exptl_crystal_description       plate
_cell_formula_units_Z            8
loop_
_atom_site_label
_atom_site_type_symbol
_atom_site_fract_x
_atom_site_fract_y
_atom_site_fract_z
O1 O 0.16613(5) 0.57575(11) 0.34219(5)
N1 N 0.07058(6) 0.34889(12) 0.30281(6)
N2 N 0.03898(6) 0.23259(13) 0.39807(6)
N3 N 0.20997(7) 0.60202(13) 0.48353(6)
N4 N 0.15284(7) 0.44652(17) 0.55207(7)
C1 C 0.08199(7) 0.20679(14) 0.28914(7)
C2 C 0.10645(8) 0.13668(18) 0.23108(8)
H1 H 0.1190 0.1857 0.1915
C3 C 0.11119(10) -0.0083(2) 0.23500(10)
H2 H 0.1277 -0.0591 0.1972
C4 C 0.09198(9) -0.08159(18) 0.29407(10)
H3 H 0.0963 -0.1801 0.2948
C5 C 0.06682(8) -0.01280(16) 0.35151(9)
H4 H 0.0537 -0.0630 0.3906
C6 C 0.06177(7) 0.13511(15) 0.34888(7)
C7 C 0.04553(8) 0.35586(16) 0.36789(8)
H5 H 0.0340 0.4412 0.3893
C8 C 0.09085(9) 0.46878(16) 0.25954(8)
H6 H 0.0559 0.5453 0.2662
H7 H 0.0885 0.4399 0.2120
C9 C 0.16667(9) 0.52209(17) 0.27510(7)
H8 H 0.2019 0.4453 0.2712
H9 H 0.1803 0.5964 0.2432
C10 C 0.23183(8) 0.64483(16) 0.36116(7)
H10 H 0.2437 0.7186 0.3284
H11 H 0.2720 0.5772 0.3624
C11 C 0.22045(10) 0.70860(17) 0.43062(9)
H12 H 0.2627 0.7666 0.4422
H13 H 0.1778 0.7703 0.4293
C12 C 0.14570(8) 0.5456(2) 0.50569(8)
H14 H 0.1003 0.5750 0.4892
C13 C 0.26440(8) 0.53302(15) 0.51928(7)
C14 C 0.34028(8) 0.54576(17) 0.51741(8)
H15 H 0.3635 0.6120 0.4896
C15 C 0.37896(9) 0.45572(19) 0.55871(8)
H16 H 0.4299 0.4607 0.5588
C16 C 0.34446(10) 0.35711(19) 0.60047(8)
H17 H 0.3729 0.2972 0.6274
C17 C 0.26937(9) 0.34559(17) 0.60311(7)
H18 H 0.2467 0.2798 0.6316
C18 C 0.22842(8) 0.43598(16) 0.56154(7)
O2 O 0.00965(7) 0.29809(17) 0.54666(8)
H19 H 0.0541(14) 0.333(2) 0.5576(10)
H20 H 0.0155(14) 0.262(3) 0.5045(15)
loop_
_geom_bond_atom_site_label_1
_geom_bond_atom_site_label_2
_geom_bond_site_symmetry_1
_geom_bond_site_symmetry_2
O1 C9 1_555 1_555
N1 C1 1_555 1_555
N2 C6 1_555 1_555
N3 C11 1_555 1_555
N4 C12 1_555 1_555
C1 C2 1_555 1_555
C2 H1 1_555 1_555
C3 C2 1_555 1_555
H2 C3 1_555 1_555
C4 C3 1_555 1_555
H3 C4 1_555 1_555
C5 C4 1_555 1_555
H4 C5 1_555 1_555
C6 C1 1_555 1_555
C7 N1 1_555 1_555
H5 C7 1_555 1_555
C8 N1 1_555 1_555
H6 C8 1_555 1_555
H7 C8 1_555 1_555
C9 C8 1_555 1_555
H8 C9 1_555 1_555
H9 C9 1_555 1_555
C10 O1 1_555 1_555
H10 C10 1_555 1_555
H11 C10 1_555 1_555
C11 C10 1_555 1_555
H12 C11 1_555 1_555
H13 C11 1_555 1_555
C12 N3 1_555 1_555
H14 C12 1_555 1_555
C13 N3 1_555 1_555
C14 C13 1_555 1_555
H15 C14 1_555 1_555
C15 C14 1_555 1_555
H16 C15 1_555 1_555
C16 C15 1_555 1_555
H17 C16 1_555 1_555
C17 C16 1_555 1_555
H18 C17 1_555 1_555
C18 N4 1_555 1_555
O2 H19 1_555 1_555
H20 O2 1_555 1_555
N2 C7 1_555 1_555
C5 C6 1_555 1_555
C13 C18 1_555 1_555
C17 C18 1_555 1_555

#END
