
#######################################################################
#
#                 Cambridge Crystallographic Data Centre
#                                CCDC 
#
#######################################################################
#
# If this CIF has been generated from an entry in the Cambridge 
# Structural Database, then it will include bibliographic, chemical, 
# crystal, experimental, refinement or atomic coordinate data resulting 
# from the CCDC's data processing and validation procedures.
#
#######################################################################

data_WEJHID
_chemical_name_common            
"2-(5-fluorouracil-1-acetyl)aminoacetic acid hemikis(4,4'-bipyridine)"
_chemical_formula_moiety         'C8 H8 F1 N3 O5,0.5(C10 H8 N2)'
_chemical_name_systematic        
"(((5-Fluoro-2,4-dioxo-1,2,3,4-tetrahydropyrimidin-1-yl)acetyl)amino)acetic acid hemikis(4,4'-bipyridine)"
_symmetry_cell_setting           monoclinic
_symmetry_space_group_name_H-M   'C 2/c'
_symmetry_Int_Tables_number      15
_space_group_name_Hall           '-C 2yn'
loop_
_symmetry_equiv_pos_site_id
_symmetry_equiv_pos_as_xyz
1 x,y,z
2 1/2+x,1/2+y,z
3 -x,y,1/2-z
4 1/2-x,1/2+y,1/2-z
5 -x,-y,-z
6 1/2-x,1/2-y,-z
7 x,-y,1/2+z
8 1/2+x,1/2-y,1/2+z
_cell_length_a                   31.969(2)
_cell_length_b                   11.264(9)
_cell_length_c                   7.863(6)
_cell_angle_alpha                90
_cell_angle_beta                 96.071(2)
_cell_angle_gamma                90
_cell_volume                     2815.58
_exptl_crystal_colour            colorless
_exptl_crystal_description       Rod
_cell_formula_units_Z            8
loop_
_atom_site_label
_atom_site_type_symbol
_atom_site_fract_x
_atom_site_fract_y
_atom_site_fract_z
F1 F 0.35442(8) 0.9066(2) 0.0950(4)
O1 O 0.06748(9) 1.0050(2) 0.1352(5)
H1 H 0.0590 0.9380 0.1098
O2 O 0.12775(9) 0.9112(2) 0.2036(5)
O3 O 0.19596(8) 1.1022(3) 0.0978(3)
O4 O 0.26827(10) 1.2840(2) 0.2722(4)
O5 O 0.37771(8) 1.1353(3) 0.0160(4)
N1 N 0.16580(9) 1.1125(3) 0.3432(4)
H2 H 0.1702 1.1186 0.4526
N2 N 0.27627(9) 1.0843(2) 0.2696(4)
N3 N 0.32256(10) 1.2063(3) 0.1448(5)
H3 H 0.3299 1.2771 0.1195
C1 C 0.10664(11) 1.0000(3) 0.1984(5)
C2 C 0.12358(11) 1.1192(3) 0.2614(5)
H4 H 0.1229 1.1734 0.1652
H5 H 0.1055 1.1512 0.3416
C3 C 0.19847(10) 1.0972(3) 0.2523(4)
C4 C 0.23933(11) 1.0697(3) 0.3624(4)
H6 H 0.2419 1.1219 0.4611
H7 H 0.2384 0.9887 0.4036
C5 C 0.28752(11) 1.1978(3) 0.2314(5)
C6 C 0.34757(10) 1.1159(3) 0.0929(5)
C7 C 0.33266(11) 1.0015(3) 0.1413(5)
C8 C 0.29878(11) 0.9880(3) 0.2229(4)
H8 H 0.2901 0.9120 0.2491
N4 N 0.03821(10) 0.7934(3) 0.0582(5)
C9 C -0.00173(14) 0.7712(4) 0.0105(9)
H9 H -0.0200 0.8351 -0.0084
C10 C -0.01785(13) 0.6589(4) -0.0127(8)
H10 H -0.0464 0.6484 -0.0454
C11 C 0.00799(11) 0.5621(3) 0.0120(5)
C12 C 0.05005(13) 0.5850(4) 0.0604(7)
H11 H 0.0691 0.5228 0.0791
C13 C 0.06338(13) 0.7004(4) 0.0807(7)
H12 H 0.0918 0.7139 0.1122
N4D N -0.03821(10) 0.2066(3) -0.0582(5)
C9D C 0.00173(14) 0.2288(4) -0.0105(9)
H9D H 0.0200 0.1649 0.0084
C10D C 0.01785(13) 0.3411(4) 0.0127(8)
H10D H 0.0464 0.3516 0.0454
C11D C -0.00799(11) 0.4379(3) -0.0120(5)
C12D C -0.05005(13) 0.4150(4) -0.0604(7)
H11D H -0.0691 0.4772 -0.0791
C13D C -0.06338(13) 0.2996(4) -0.0807(7)
H12D H -0.0918 0.2861 -0.1122
loop_
_geom_bond_atom_site_label_1
_geom_bond_atom_site_label_2
_geom_bond_site_symmetry_1
_geom_bond_site_symmetry_2
F1 C7 1_555 1_555
O1 H1 1_555 1_555
O2 C1 1_555 1_555
O3 C3 1_555 1_555
O4 C5 1_555 1_555
O5 C6 1_555 1_555
N1 H2 1_555 1_555
N2 C4 1_555 1_555
N3 H3 1_555 1_555
N4 C9 1_555 1_555
C1 O1 1_555 1_555
C2 N1 1_555 1_555
H4 C2 1_555 1_555
H5 C2 1_555 1_555
C3 N1 1_555 1_555
C4 C3 1_555 1_555
H6 C4 1_555 1_555
H7 C4 1_555 1_555
C5 N2 1_555 1_555
C6 N3 1_555 1_555
C7 C6 1_555 1_555
C8 N2 1_555 1_555
H8 C8 1_555 1_555
C9 H9 1_555 1_555
C10 C9 1_555 1_555
H10 C10 1_555 1_555
C11 C10 1_555 1_555
C12 C11 1_555 1_555
H11 C12 1_555 1_555
C13 N4 1_555 1_555
H12 C13 1_555 1_555
N4D C9D 1_555 1_555
C9D H9D 1_555 1_555
C10D C9D 1_555 1_555
H10D C10D 1_555 1_555
C11D C11 1_555 1_555
C12D C11D 1_555 1_555
H11D C12D 1_555 1_555
C13D N4D 1_555 1_555
H12D C13D 1_555 1_555
N3 C5 1_555 1_555
C1 C2 1_555 1_555
C7 C8 1_555 1_555
C12 C13 1_555 1_555
C10D C11D 1_555 1_555
C12D C13D 1_555 1_555

#END
