
#######################################################################
#
#                 Cambridge Crystallographic Data Centre
#                                CCDC 
#
#######################################################################
#
# If this CIF has been generated from an entry in the Cambridge 
# Structural Database, then it will include bibliographic, chemical, 
# crystal, experimental, refinement or atomic coordinate data resulting 
# from the CCDC's data processing and validation procedures.
#
#######################################################################

data_WEJROV
_chemical_formula_moiety         
'C4 H15 N3 2+,2(C14 H10 B1 Br2 O4 1-),C4 H10 O1'
_chemical_name_systematic        
"2,2'-azanediylbis(ethan-1-ammonium) bis(bis{4-bromo-2-[(oxy)methyl]phenolato}borate) diethyl ether solvate"
_symmetry_cell_setting           monoclinic
_symmetry_space_group_name_H-M   'P 21/c'
_symmetry_Int_Tables_number      14
_space_group_name_Hall           '-P 2ybc'
loop_
_symmetry_equiv_pos_site_id
_symmetry_equiv_pos_as_xyz
1 x,y,z
2 -x,1/2+y,1/2-z
3 -x,-y,-z
4 x,1/2-y,1/2+z
_cell_length_a                   17.030(2)
_cell_length_b                   15.7323(19)
_cell_length_c                   17.059(2)
_cell_angle_alpha                90
_cell_angle_beta                 118.288(4)
_cell_angle_gamma                90
_cell_volume                     4024.65
_exptl_crystal_description       block
_cell_formula_units_Z            4
loop_
_atom_site_label
_atom_site_type_symbol
_atom_site_fract_x
_atom_site_fract_y
_atom_site_fract_z
B1 B -0.0153(5) 0.1541(5) 0.4452(4)
Br1 Br 0.39315(5) 0.16996(7) 0.46275(6)
Br2 Br -0.42769(7) 0.14478(11) 0.41659(9)
C1 C 0.1338(4) 0.1116(4) 0.4746(4)
C2 C 0.2047(4) 0.0569(4) 0.5130(4)
H1 H 0.2002 0.0072 0.5423
C3 C 0.2814(4) 0.0731(5) 0.5095(4)
H2 H 0.3300 0.0345 0.5352
C4 C 0.2878(4) 0.1458(5) 0.4687(4)
C5 C 0.2180(4) 0.1996(4) 0.4301(4)
H3 H 0.2236 0.2490 0.4011
C6 C 0.1388(4) 0.1850(4) 0.4315(4)
C7 C 0.0609(4) 0.2414(4) 0.3888(4)
H4 H 0.0808 0.3004 0.3880
H5 H 0.0225 0.2232 0.3265
C8 C -0.1307(4) 0.1624(4) 0.4900(4)
C9 C -0.1561(5) 0.1622(4) 0.5552(5)
H6 H -0.1120 0.1642 0.6160
C10 C -0.2448(5) 0.1591(5) 0.5333(5)
H7 H -0.2624 0.1568 0.5784
C11 C -0.3063(5) 0.1593(6) 0.4466(6)
C12 C -0.2828(5) 0.1616(5) 0.3811(5)
H8 H -0.3274 0.1618 0.3204
C13 C -0.1941(4) 0.1636(4) 0.4027(4)
C14 C -0.1643(4) 0.1646(5) 0.3332(4)
H9 H -0.2103 0.1377 0.2780
H10 H -0.1562 0.2240 0.3194
O1 O 0.0585(3) 0.0928(3) 0.4784(3)
O2 O 0.0123(3) 0.2382(3) 0.4366(3)
O3 O -0.0435(3) 0.1603(3) 0.5146(3)
O4 O -0.0838(3) 0.1202(3) 0.3642(3)
B2 B 0.9613(5) 0.5129(4) 0.6350(5)
Br3 Br 1.40783(7) 0.57380(14) 0.82525(9)
Br4 Br 0.56377(7) 0.35058(8) 0.55667(9)
C15 C 1.1043(4) 0.5579(4) 0.6523(4)
C16 C 1.1558(4) 0.5895(4) 0.6172(4)
H11 H 1.1282 0.6078 0.5569
C17 C 1.2449(5) 0.5953(5) 0.6665(5)
H12 H 1.2801 0.6184 0.6420
C18 C 1.2839(5) 0.5670(6) 0.7531(6)
C19 C 1.2340(5) 0.5355(5) 0.7895(5)
H13 H 1.2623 0.5163 0.8495
C20 C 1.1426(4) 0.5315(4) 0.7396(4)
C21 C 1.0869(4) 0.4994(4) 0.7777(4)
H14 H 1.0860 0.4365 0.7761
H15 H 1.1124 0.5176 0.8406
C22 C 0.8043(4) 0.5029(4) 0.5774(4)
C23 C 0.7225(4) 0.5390(5) 0.5403(5)
H16 H 0.7157 0.5960 0.5197
C24 C 0.6496(5) 0.4960(5) 0.5318(5)
H17 H 0.5924 0.5221 0.5055
C25 C 0.6611(5) 0.4122(6) 0.5628(5)
C26 C 0.7416(4) 0.3746(5) 0.5966(4)
H18 H 0.7474 0.3168 0.6147
C27 C 0.8156(4) 0.4177(4) 0.6054(4)
C28 C 0.9032(4) 0.3781(4) 0.6446(5)
H19 H 0.9292 0.3783 0.7103
H20 H 0.8970 0.3182 0.6247
O5 O 1.0162(3) 0.5508(3) 0.5998(2)
O6 O 0.9992(3) 0.5307(3) 0.7290(2)
O7 O 0.8751(3) 0.5494(3) 0.5877(3)
O8 O 0.9614(3) 0.4211(3) 0.6204(3)
C29 C 0.1916(4) 0.1557(4) 0.7433(4)
H21 H 0.1555 0.1717 0.7725
H22 H 0.2553 0.1610 0.7878
C30 C 0.1720(4) 0.0664(4) 0.7122(4)
H23 H 0.2008 0.0534 0.6751
H24 H 0.1977 0.0280 0.7644
C31 C 0.1929(4) 0.3003(4) 0.6984(4)
H25 H 0.2571 0.3051 0.7414
H26 H 0.1585 0.3182 0.7288
C32 C 0.1710(4) 0.3572(4) 0.6205(4)
H27 H 0.1928 0.4153 0.6420
H28 H 0.2019 0.3365 0.5875
N1 N 0.1718(3) 0.2128(3) 0.6697(3)
H29 H 0.2202 0.2015 0.6633
N2 N 0.0761(3) 0.0506(3) 0.6606(3)
H30 H 0.0499 0.0393 0.6944
H31 H 0.0718 0.0082 0.6233
H32 H 0.0547 0.0971 0.6262
N3 N 0.0746(3) 0.3598(3) 0.5602(3)
H33 H 0.0465 0.3935 0.5817
H34 H 0.0549 0.3058 0.5528
H35 H 0.0669 0.3778 0.5069
C33 C 0.4383(14) 0.1013(8) 0.8044(13)
H36 H 0.5034 0.1105 0.8307
H37 H 0.4219 0.1054 0.8528
C34 C 0.4161(11) 0.0168(10) 0.7649(11)
H38 H 0.3871 0.0217 0.6999
H39 H 0.3756 -0.0112 0.7826
H40 H 0.4708 -0.0169 0.7856
C35 C 0.4354(9) 0.2213(15) 0.7109(12)
H41 H 0.4553 0.1873 0.6747
H42 H 0.4897 0.2382 0.7657
C36 C 0.3945(9) 0.2987(11) 0.6613(10)
H43 H 0.3305 0.2893 0.6233
H44 H 0.4221 0.3138 0.6242
H45 H 0.4034 0.3451 0.7030
O9 O 0.3889(6) 0.1705(10) 0.7348(7)
loop_
_geom_bond_atom_site_label_1
_geom_bond_atom_site_label_2
_geom_bond_site_symmetry_1
_geom_bond_site_symmetry_2
B1 O1 1_555 1_555
Br1 C4 1_555 1_555
Br2 C11 1_555 1_555
C1 C2 1_555 1_555
C2 H1 1_555 1_555
C3 C2 1_555 1_555
H2 C3 1_555 1_555
C4 C3 1_555 1_555
C5 C4 1_555 1_555
H3 C5 1_555 1_555
C6 C1 1_555 1_555
C7 C6 1_555 1_555
H4 C7 1_555 1_555
H5 C7 1_555 1_555
C8 C9 1_555 1_555
C9 H6 1_555 1_555
C10 C9 1_555 1_555
H7 C10 1_555 1_555
C11 C10 1_555 1_555
C12 C11 1_555 1_555
H8 C12 1_555 1_555
C13 C8 1_555 1_555
C14 C13 1_555 1_555
H9 C14 1_555 1_555
H10 C14 1_555 1_555
O1 C1 1_555 1_555
O2 B1 1_555 1_555
O3 B1 1_555 1_555
O4 B1 1_555 1_555
B2 O5 1_555 1_555
Br3 C18 1_555 1_555
Br4 C25 1_555 1_555
C15 C16 1_555 1_555
C16 H11 1_555 1_555
C17 C16 1_555 1_555
H12 C17 1_555 1_555
C18 C17 1_555 1_555
C19 C18 1_555 1_555
H13 C19 1_555 1_555
C20 C15 1_555 1_555
C21 C20 1_555 1_555
H14 C21 1_555 1_555
H15 C21 1_555 1_555
C22 C23 1_555 1_555
C23 H16 1_555 1_555
C24 C23 1_555 1_555
H17 C24 1_555 1_555
C25 C24 1_555 1_555
C26 C25 1_555 1_555
H18 C26 1_555 1_555
C27 C22 1_555 1_555
C28 C27 1_555 1_555
H19 C28 1_555 1_555
H20 C28 1_555 1_555
O5 C15 1_555 1_555
O6 B2 1_555 1_555
O7 B2 1_555 1_555
O8 B2 1_555 1_555
C29 H21 1_555 1_555
H22 C29 1_555 1_555
C30 C29 1_555 1_555
H23 C30 1_555 1_555
H24 C30 1_555 1_555
C31 H25 1_555 1_555
H26 C31 1_555 1_555
C32 C31 1_555 1_555
H27 C32 1_555 1_555
H28 C32 1_555 1_555
N1 C29 1_555 1_555
H29 N1 1_555 1_555
N2 C30 1_555 1_555
H30 N2 1_555 1_555
H31 N2 1_555 1_555
H32 N2 1_555 1_555
N3 C32 1_555 1_555
H33 N3 1_555 1_555
H34 N3 1_555 1_555
H35 N3 1_555 1_555
C33 H36 1_555 1_555
H37 C33 1_555 1_555
C34 C33 1_555 1_555
H38 C34 1_555 1_555
H39 C34 1_555 1_555
H40 C34 1_555 1_555
C35 H41 1_555 1_555
H42 C35 1_555 1_555
C36 C35 1_555 1_555
H43 C36 1_555 1_555
H44 C36 1_555 1_555
H45 C36 1_555 1_555
O9 C33 1_555 1_555
C5 C6 1_555 1_555
C7 O2 1_555 1_555
C8 O3 1_555 1_555
C12 C13 1_555 1_555
C14 O4 1_555 1_555
C19 C20 1_555 1_555
C21 O6 1_555 1_555
C22 O7 1_555 1_555
C26 C27 1_555 1_555
C28 O8 1_555 1_555
C31 N1 1_555 1_555
C35 O9 1_555 1_555

#END
