
#######################################################################
#
#                 Cambridge Crystallographic Data Centre
#                                CCDC 
#
#######################################################################
#
# If this CIF has been generated from an entry in the Cambridge 
# Structural Database, then it will include bibliographic, chemical, 
# crystal, experimental, refinement or atomic coordinate data resulting 
# from the CCDC's data processing and validation procedures.
#
#######################################################################

data_WEJSUC
_chemical_formula_moiety         'C29 H24 F1 N1 O4'
_chemical_name_systematic        
'(E)-3-(4-(bis(4-methoxyphenyl)amino)phenyl)-1-(4-fluoro-2-hydroxyphenyl)prop-2-en-1-one unknown solvate'
_symmetry_cell_setting           triclinic
_symmetry_space_group_name_H-M   'P -1'
_symmetry_Int_Tables_number      2
_space_group_name_Hall           '-P 1'
loop_
_symmetry_equiv_pos_site_id
_symmetry_equiv_pos_as_xyz
1 x,y,z
2 -x,-y,-z
_cell_length_a                   10.479(7)
_cell_length_b                   11.511(5)
_cell_length_c                   12.942(5)
_cell_angle_alpha                96.10(3)
_cell_angle_beta                 108.46(3)
_cell_angle_gamma                116.47(3)
_cell_volume                     1268.04
_exptl_crystal_colour            red
_exptl_crystal_description       block
_cell_formula_units_Z            2
loop_
_atom_site_label
_atom_site_type_symbol
_atom_site_fract_x
_atom_site_fract_y
_atom_site_fract_z
O1 O 1.2119(4) 1.0668(3) -0.1513(3)
O2 O 0.9200(4) 0.9116(3) -0.2311(3)
H1 H 1.0040 0.9700 -0.2279
O3 O 2.4854(4) 2.0297(3) 0.3137(3)
O4 O 2.3618(5) 1.3637(4) 0.7177(3)
N1 N 2.1412(4) 1.5030(3) 0.3282(3)
C1 C 2.1999(5) 1.4716(4) 0.4315(4)
C2 C 2.2278(5) 1.6385(4) 0.3244(4)
C3 C 1.8855(5) 1.2999(4) 0.2661(4)
H2 H 1.9211 1.2738 0.3297
C4 C 2.3964(6) 1.9019(5) 0.3196(4)
C5 C 1.9886(6) 1.4179(4) 0.2491(4)
C6 C 1.7320(5) 1.2225(4) 0.1890(4)
H3 H 1.6644 1.1465 0.2031
C7 C 1.9343(6) 1.4474(4) 0.1477(4)
H4 H 2.0024 1.5211 0.1316
C8 C 2.2471(6) 1.4878(4) 0.6286(4)
H5 H 2.2400 1.5213 0.6940
C9 C 2.3106(6) 1.4046(5) 0.6287(4)
C10 C 2.1947(6) 1.5203(5) 0.5300(5)
H6 H 2.1542 1.5776 0.5308
C11 C 1.2322(5) 1.0264(4) -0.0650(4)
C12 C 2.2729(6) 1.8659(5) 0.3543(5)
H7 H 2.2483 1.9302 0.3761
C13 C 2.1893(6) 1.7348(4) 0.3554(5)
H8 H 2.1062 1.7096 0.3769
C14 C 2.4347(6) 1.8066(5) 0.2905(5)
H9 H 2.5184 1.8310 0.2699
C15 C 2.3496(6) 1.6772(5) 0.2919(5)
H10 H 2.3747 1.6132 0.2703
C16 C 1.0966(5) 0.9187(4) -0.0551(4)
C17 C 1.6756(5) 1.2551(4) 0.0910(4)
C18 C 0.9439(5) 0.8675(4) -0.1396(4)
C19 C 1.7789(5) 1.3671(4) 0.0706(4)
H11 H 1.7439 1.3890 0.0043
C20 C 1.3884(6) 1.0827(4) 0.0201(4)
H12 H 1.4039 1.0484 0.0820
C21 C 1.5115(6) 1.1831(4) 0.0127(4)
H13 H 1.4891 1.2111 -0.0522
C22 C 0.8164(6) 0.7657(5) -0.1320(4)
H14 H 0.7171 0.7299 -0.1891
C23 C 2.2662(8) 1.3912(6) 0.4329(5)
H15 H 2.2745 1.3590 0.3678
C24 C 1.1106(6) 0.8667(5) 0.0378(4)
H16 H 1.2091 0.9008 0.0954
C25 C 0.8369(6) 0.7181(5) -0.0407(5)
C26 C 0.9820(7) 0.7659(5) 0.0463(5)
H17 H 0.9923 0.7312 0.1082
C27 C 2.3201(8) 1.3587(6) 0.5309(6)
H18 H 2.3641 1.3041 0.5306
C28 C 2.4624(7) 2.1354(5) 0.3553(6)
H19 H 2.5319 2.2185 0.3459
H20 H 2.3563 2.1120 0.3135
H21 H 2.4833 2.1469 0.4346
C29 C 2.3373(8) 1.3952(7) 0.8158(5)
H22 H 2.3799 1.3596 0.8723
H23 H 2.3880 1.4918 0.8458
H24 H 2.2273 1.3554 0.7960
F1 F 0.7125(4) 0.6150(4) -0.0340(3)
C30? C 2.1060(14) 1.9449(11) 0.5344(12)
O5? O 2.061(2) 2.0040(18) 0.5590(12)
loop_
_geom_bond_atom_site_label_1
_geom_bond_atom_site_label_2
_geom_bond_site_symmetry_1
_geom_bond_site_symmetry_2
O1 C11 1_555 1_555
O2 H1 1_555 1_555
O3 C4 1_555 1_555
O4 C9 1_555 1_555
N1 C1 1_555 1_555
C1 C10 1_555 1_555
C2 N1 1_555 1_555
C3 H2 1_555 1_555
C4 C12 1_555 1_555
C5 N1 1_555 1_555
C6 C3 1_555 1_555
H3 C6 1_555 1_555
C7 C5 1_555 1_555
H4 C7 1_555 1_555
C8 H5 1_555 1_555
C9 C8 1_555 1_555
C10 C8 1_555 1_555
H6 C10 1_555 1_555
C11 C16 1_555 1_555
C12 H7 1_555 1_555
C13 C2 1_555 1_555
H8 C13 1_555 1_555
C14 C4 1_555 1_555
H9 C14 1_555 1_555
C15 C2 1_555 1_555
H10 C15 1_555 1_555
C16 C18 1_555 1_555
C17 C6 1_555 1_555
C18 O2 1_555 1_555
C19 C7 1_555 1_555
H11 C19 1_555 1_555
C20 C11 1_555 1_555
H12 C20 1_555 1_555
C21 C17 1_555 1_555
H13 C21 1_555 1_555
C22 C18 1_555 1_555
H14 C22 1_555 1_555
C23 C1 1_555 1_555
H15 C23 1_555 1_555
C24 C16 1_555 1_555
H16 C24 1_555 1_555
C25 C22 1_555 1_555
C26 C24 1_555 1_555
H17 C26 1_555 1_555
C27 C9 1_555 1_555
H18 C27 1_555 1_555
C28 O3 1_555 1_555
H19 C28 1_555 1_555
H20 C28 1_555 1_555
H21 C28 1_555 1_555
C29 O4 1_555 1_555
H22 C29 1_555 1_555
H23 C29 1_555 1_555
H24 C29 1_555 1_555
F1 C25 1_555 1_555
C3 C5 1_555 1_555
C12 C13 1_555 1_555
C14 C15 1_555 1_555
C17 C19 1_555 1_555
C20 C21 1_555 1_555
C23 C27 1_555 1_555
C25 C26 1_555 1_555

#END
