
#######################################################################
#
#                 Cambridge Crystallographic Data Centre
#                                CCDC 
#
#######################################################################
#
# If this CIF has been generated from an entry in the Cambridge 
# Structural Database, then it will include bibliographic, chemical, 
# crystal, experimental, refinement or atomic coordinate data resulting 
# from the CCDC's data processing and validation procedures.
#
#######################################################################

data_WEJSOW
_chemical_formula_moiety         'C27 H20 F1 N1 O2'
_chemical_name_systematic        
3-[4-(diphenylamino)phenyl]-1-(4-fluoro-2-hydroxyphenyl)prop-2-en-1-one
_symmetry_cell_setting           triclinic
_symmetry_space_group_name_H-M   'P -1'
_symmetry_Int_Tables_number      2
_space_group_name_Hall           '-P 1'
loop_
_symmetry_equiv_pos_site_id
_symmetry_equiv_pos_as_xyz
1 x,y,z
2 -x,-y,-z
_cell_length_a                   8.0904(18)
_cell_length_b                   9.486(2)
_cell_length_c                   13.310(3)
_cell_angle_alpha                92.337(10)
_cell_angle_beta                 96.684(9)
_cell_angle_gamma                94.621(10)
_cell_volume                     1009.94
_exptl_crystal_colour            yellow
_exptl_crystal_description       block
_cell_formula_units_Z            2
loop_
_atom_site_label
_atom_site_type_symbol
_atom_site_fract_x
_atom_site_fract_y
_atom_site_fract_z
F1 F 0.62746(16) -0.24844(11) 0.69886(9)
O1 O 0.82282(17) 0.40758(13) 0.75215(9)
O2 O 0.78547(17) 0.19599(14) 0.86110(9)
H1 H 0.8083 0.2787 0.8485
N1 N 0.74956(17) 0.84038(13) 0.20620(9)
C1 C 0.7960(2) 0.64716(16) 0.08894(12)
H2 H 0.8809 0.6209 0.1359
C2 C 0.76155(18) 0.76772(15) 0.29593(11)
C3 C 0.70805(19) 0.76110(15) 0.11129(11)
C4 C 0.7570(2) 1.08097(17) 0.27966(12)
H3 H 0.6966 1.0475 0.3304
C5 C 0.80365(19) 0.53283(17) 0.56456(12)
H4 H 0.8676 0.5790 0.6207
C6 C 0.6596(2) 0.64205(17) 0.30150(12)
H5 H 0.5830 0.6095 0.2462
C7 C 0.79696(19) 0.98765(15) 0.20503(12)
C8 C 0.87355(18) 0.81567(15) 0.38078(11)
H6 H 0.9412 0.8994 0.3793
C9 C 0.78501(18) 0.61124(16) 0.47273(11)
C10 C 0.6864(2) 0.09058(17) 0.59291(12)
H7 H 0.6805 0.1290 0.5296
C11 C 0.7386(2) 0.40168(17) 0.57666(12)
H8 H 0.6744 0.3515 0.5223
C12 C 0.67170(19) 0.56612(16) 0.38798(12)
H9 H 0.6029 0.4831 0.3899
C13 C 0.88365(19) 0.73837(16) 0.46705(11)
H10 H 0.9583 0.7719 0.5230
C14 C 0.7578(3) 0.57203(19) -0.00354(13)
H11 H 0.8161 0.4947 -0.0182
C15 C 0.6539(2) -0.05307(18) 0.59834(13)
H12 H 0.6270 -0.1118 0.5401
C16 C 0.5807(2) 0.79963(18) 0.04199(12)
H13 H 0.5196 0.8750 0.0572
C17 C 0.6626(2) -0.10731(17) 0.69335(14)
C18 C 0.76633(19) 0.33493(17) 0.67417(12)
C19 C 0.72790(18) 0.18127(16) 0.67950(11)
C20 C 0.8069(3) 1.22370(18) 0.27854(14)
H14 H 0.7818 1.2854 0.3296
C21 C 0.73977(19) 0.11904(18) 0.77480(12)
C22 C 0.7042(2) -0.02614(18) 0.78095(13)
H15 H 0.7087 -0.0669 0.8435
C23 C 0.8812(2) 1.04062(18) 0.12732(13)
H16 H 0.9059 0.9793 0.0759
C24 C 0.9282(2) 1.18371(19) 0.12605(15)
H17 H 0.9835 1.2183 0.0735
C25 C 0.8936(3) 1.27581(18) 0.20257(16)
H18 H 0.9282 1.3717 0.2029
C26 C 0.6337(3) 0.6117(2) -0.07358(13)
H19 H 0.6098 0.5627 -0.1362
C27 C 0.5452(2) 0.7240(2) -0.05081(13)
H20 H 0.4604 0.7498 -0.0981
loop_
_geom_bond_atom_site_label_1
_geom_bond_atom_site_label_2
_geom_bond_site_symmetry_1
_geom_bond_site_symmetry_2
F1 C17 1_555 1_555
O1 C18 1_555 1_555
O2 H1 1_555 1_555
N1 C2 1_555 1_555
C1 H2 1_555 1_555
C2 C6 1_555 1_555
C3 N1 1_555 1_555
C4 H3 1_555 1_555
C5 H4 1_555 1_555
C6 H5 1_555 1_555
C7 N1 1_555 1_555
C8 C2 1_555 1_555
H6 C8 1_555 1_555
C9 C5 1_555 1_555
C10 H7 1_555 1_555
C11 C5 1_555 1_555
H8 C11 1_555 1_555
C12 C6 1_555 1_555
H9 C12 1_555 1_555
C13 C8 1_555 1_555
H10 C13 1_555 1_555
C14 C1 1_555 1_555
H11 C14 1_555 1_555
C15 C10 1_555 1_555
H12 C15 1_555 1_555
C16 C3 1_555 1_555
H13 C16 1_555 1_555
C17 C15 1_555 1_555
C18 C11 1_555 1_555
C19 C10 1_555 1_555
C20 C4 1_555 1_555
H14 C20 1_555 1_555
C21 O2 1_555 1_555
C22 C17 1_555 1_555
H15 C22 1_555 1_555
C23 C7 1_555 1_555
H16 C23 1_555 1_555
C24 C23 1_555 1_555
H17 C24 1_555 1_555
C25 C20 1_555 1_555
H18 C25 1_555 1_555
C26 C14 1_555 1_555
H19 C26 1_555 1_555
C27 C16 1_555 1_555
H20 C27 1_555 1_555
C1 C3 1_555 1_555
C4 C7 1_555 1_555
C9 C12 1_555 1_555
C9 C13 1_555 1_555
C18 C19 1_555 1_555
C19 C21 1_555 1_555
C21 C22 1_555 1_555
C24 C25 1_555 1_555
C26 C27 1_555 1_555

#END
