
#######################################################################
#
#                 Cambridge Crystallographic Data Centre
#                                CCDC 
#
#######################################################################
#
# If this CIF has been generated from an entry in the Cambridge 
# Structural Database, then it will include bibliographic, chemical, 
# crystal, experimental, refinement or atomic coordinate data resulting 
# from the CCDC's data processing and validation procedures.
#
#######################################################################

data_WEJSIQ
_chemical_formula_moiety         'C4 H15 N3 2+,2(C14 H10 B1 F2 O4 1-)'
_chemical_name_systematic        
"2,2'-azanediylbis(ethan-1-ammonium) bis(bis{4-fluoro-2-[(oxy)methyl]phenolato}borate) unknown solvate"
_symmetry_cell_setting           monoclinic
_symmetry_space_group_name_H-M   'C 2/c'
_symmetry_Int_Tables_number      15
_space_group_name_Hall           '-C 2yn'
loop_
_symmetry_equiv_pos_site_id
_symmetry_equiv_pos_as_xyz
1 x,y,z
2 -x,y,1/2-z
3 1/2+x,1/2+y,z
4 1/2-x,1/2+y,1/2-z
5 -x,-y,-z
6 x,-y,1/2+z
7 1/2-x,1/2-y,-z
8 1/2+x,1/2-y,1/2+z
_cell_length_a                   29.336(2)
_cell_length_b                   16.2497(13)
_cell_length_c                   17.2084(15)
_cell_angle_alpha                90
_cell_angle_beta                 117.563(3)
_cell_angle_gamma                90
_cell_volume                     7272.22
_exptl_crystal_description       block
_cell_formula_units_Z            8
loop_
_atom_site_label
_atom_site_type_symbol
_atom_site_fract_x
_atom_site_fract_y
_atom_site_fract_z
B1 B 0.23604(14) 0.2302(2) 0.1416(2)
C1 C 0.14227(11) 0.21878(18) 0.0732(2)
C2 C 0.09885(12) 0.1714(2) 0.0306(2)
H1 H 0.1016 0.1181 0.0135
C3 C 0.05129(14) 0.2022(2) 0.0132(3)
H2 H 0.0218 0.1702 -0.0152
C4 C 0.04850(13) 0.2809(2) 0.0387(3)
C5 C 0.09088(13) 0.3298(2) 0.0800(2)
H3 H 0.0876 0.3833 0.0957
C6 C 0.13910(12) 0.29894(18) 0.0982(2)
C7 C 0.18711(12) 0.34905(19) 0.1465(2)
H4 H 0.1801 0.4060 0.1278
H5 H 0.1978 0.3470 0.2089
C8 C 0.32119(12) 0.19152(18) 0.1576(2)
C9 C 0.35148(13) 0.16586(19) 0.1198(2)
H6 H 0.3368 0.1581 0.0595
C10 C 0.40343(14) 0.1517(2) 0.1715(3)
H7 H 0.4242 0.1350 0.1468
C11 C 0.42332(13) 0.1630(3) 0.2600(3)
C12 C 0.39432(13) 0.1880(2) 0.2985(3)
H8 H 0.4094 0.1949 0.3589
C13 C 0.34247(12) 0.20316(19) 0.2478(2)
C14 C 0.30820(12) 0.2329(2) 0.2848(2)
H9 H 0.3209 0.2128 0.3443
H10 H 0.3086 0.2925 0.2866
F1 F 0.00138(8) 0.31130(15) 0.02229(18)
F2 F 0.47472(8) 0.1489(2) 0.31172(18)
O1 O 0.18835(8) 0.18411(12) 0.09014(14)
O2 O 0.22739(8) 0.31872(12) 0.13016(14)
O3 O 0.27043(8) 0.20854(13) 0.10429(13)
O4 O 0.25694(8) 0.20486(12) 0.23289(13)
B2 B 0.27642(14) 0.0999(2) 0.5582(3)
C15 C 0.19126(12) 0.14654(18) 0.5328(2)
C16 C 0.15146(13) 0.2027(2) 0.4962(2)
H11 H 0.1543 0.2476 0.4652
C17 C 0.10742(14) 0.1924(2) 0.5053(2)
H12 H 0.0807 0.2304 0.4819
C18 C 0.10448(14) 0.1248(3) 0.5496(3)
C19 C 0.14232(14) 0.0672(2) 0.5844(2)
H13 H 0.1381 0.0211 0.6125
C20 C 0.18697(12) 0.07771(18) 0.5774(2)
C21 C 0.23119(13) 0.01904(19) 0.6171(2)
H14 H 0.2539 0.0353 0.6771
H15 H 0.2185 -0.0359 0.6181
C22 C 0.34695(13) 0.07664(19) 0.5242(2)
C23 C 0.36500(15) 0.0656(2) 0.4631(3)
H16 H 0.3425 0.0693 0.4035
C24 C 0.41683(18) 0.0489(2) 0.4914(4)
H17 H 0.4296 0.0415 0.4514
C25 C 0.44866(17) 0.0436(2) 0.5800(4)
C26 C 0.43157(14) 0.0545(2) 0.6406(3)
H18 H 0.4543 0.0503 0.7001
C27 C 0.38024(13) 0.07164(19) 0.6131(2)
C28 C 0.36075(13) 0.0850(2) 0.6786(2)
H19 H 0.3536 0.0322 0.6971
H20 H 0.3869 0.1127 0.7298
F3 F 0.06145(9) 0.11335(17) 0.5610(2)
F4 F 0.50017(9) 0.02779(16) 0.6084(2)
O5 O 0.23436(8) 0.16030(12) 0.52316(15)
O6 O 0.25896(8) 0.01860(12) 0.56771(14)
O7 O 0.29577(8) 0.09384(13) 0.49353(14)
O8 O 0.31510(8) 0.13341(13) 0.64127(14)
C29 C 0.14928(13) 0.08961(18) 0.2620(2)
H21 H 0.1138 0.0804 0.2191
H22 H 0.1709 0.0767 0.2347
C30 C 0.15655(13) 0.17797(19) 0.2899(2)
H23 H 0.1418 0.2130 0.2384
H24 H 0.1386 0.1888 0.3241
C31 C 0.15457(13) -0.05063(18) 0.3130(2)
H25 H 0.1769 -0.0664 0.2879
H26 H 0.1193 -0.0590 0.2688
C32 C 0.16568(12) -0.10380(19) 0.3908(2)
H27 H 0.1476 -0.0823 0.4215
H28 H 0.1531 -0.1591 0.3711
N1 N 0.16256(10) 0.03582(15) 0.33746(17)
H29 H 0.1959 0.0434 0.3756
N2 N 0.21145(11) 0.19809(16) 0.34260(18)
H30 H 0.2166 0.2311 0.3879
H31 H 0.2220 0.2214 0.3062
H32 H 0.2285 0.1501 0.3605
N3 N 0.22174(9) -0.10690(15) 0.45175(16)
H33 H 0.2382 -0.1385 0.4298
H34 H 0.2257 -0.1262 0.5035
H35 H 0.2337 -0.0549 0.4608
loop_
_geom_bond_atom_site_label_1
_geom_bond_atom_site_label_2
_geom_bond_site_symmetry_1
_geom_bond_site_symmetry_2
B1 O1 1_555 1_555
C1 C2 1_555 1_555
C2 H1 1_555 1_555
C3 C2 1_555 1_555
H2 C3 1_555 1_555
C4 C3 1_555 1_555
C5 C4 1_555 1_555
H3 C5 1_555 1_555
C6 C1 1_555 1_555
C7 C6 1_555 1_555
H4 C7 1_555 1_555
H5 C7 1_555 1_555
C8 C9 1_555 1_555
C9 H6 1_555 1_555
C10 C9 1_555 1_555
H7 C10 1_555 1_555
C11 C10 1_555 1_555
C12 C11 1_555 1_555
H8 C12 1_555 1_555
C13 C8 1_555 1_555
C14 C13 1_555 1_555
H9 C14 1_555 1_555
H10 C14 1_555 1_555
F1 C4 1_555 1_555
F2 C11 1_555 1_555
O1 C1 1_555 1_555
O2 B1 1_555 1_555
O3 B1 1_555 1_555
O4 B1 1_555 1_555
B2 O5 1_555 1_555
C15 C16 1_555 1_555
C16 H11 1_555 1_555
C17 C16 1_555 1_555
H12 C17 1_555 1_555
C18 C17 1_555 1_555
C19 C18 1_555 1_555
H13 C19 1_555 1_555
C20 C15 1_555 1_555
C21 C20 1_555 1_555
H14 C21 1_555 1_555
H15 C21 1_555 1_555
C22 C23 1_555 1_555
C23 H16 1_555 1_555
C24 C23 1_555 1_555
H17 C24 1_555 1_555
C25 C24 1_555 1_555
C26 C25 1_555 1_555
H18 C26 1_555 1_555
C27 C22 1_555 1_555
C28 C27 1_555 1_555
H19 C28 1_555 1_555
H20 C28 1_555 1_555
F3 C18 1_555 1_555
F4 C25 1_555 1_555
O5 C15 1_555 1_555
O6 B2 1_555 1_555
O7 B2 1_555 1_555
O8 B2 1_555 1_555
C29 H21 1_555 1_555
H22 C29 1_555 1_555
C30 C29 1_555 1_555
H23 C30 1_555 1_555
H24 C30 1_555 1_555
C31 H25 1_555 1_555
H26 C31 1_555 1_555
C32 C31 1_555 1_555
H27 C32 1_555 1_555
H28 C32 1_555 1_555
N1 C29 1_555 1_555
H29 N1 1_555 1_555
N2 C30 1_555 1_555
H30 N2 1_555 1_555
H31 N2 1_555 1_555
H32 N2 1_555 1_555
N3 C32 1_555 1_555
H33 N3 1_555 1_555
H34 N3 1_555 1_555
H35 N3 1_555 1_555
C5 C6 1_555 1_555
C7 O2 1_555 1_555
C8 O3 1_555 1_555
C12 C13 1_555 1_555
C14 O4 1_555 1_555
C19 C20 1_555 1_555
C21 O6 1_555 1_555
C22 O7 1_555 1_555
C26 C27 1_555 1_555
C28 O8 1_555 1_555
C31 N1 1_555 1_555

#END
