
#######################################################################
#
#                 Cambridge Crystallographic Data Centre
#                                CCDC 
#
#######################################################################
#
# If this CIF has been generated from an entry in the Cambridge 
# Structural Database, then it will include bibliographic, chemical, 
# crystal, experimental, refinement or atomic coordinate data resulting 
# from the CCDC's data processing and validation procedures.
#
#######################################################################

data_WEKHAV
_chemical_compound_source        
'Giant African snail Achatina fulica and a food source the Malaysian tree Calophyllum inophyllum'
_chemical_formula_moiety         'C32 H27 Br1 O6'
_chemical_name_systematic        'Inophyllum A 4-bromobenzoate'
_chemical_properties_biological  
'antibacterial, antiinflammatory and phagocytosis stimulant activity are reported for the plant source which has traditional use in treatment of eye disease and in aromatic powders and linaments'
_symmetry_cell_setting           orthorhombic
_symmetry_space_group_name_H-M   'P 21 21 21'
_symmetry_Int_Tables_number      19
_space_group_name_Hall           'P 2ac 2ab'
loop_
_symmetry_equiv_pos_site_id
_symmetry_equiv_pos_as_xyz
1 x,y,z
2 1/2+x,1/2-y,-z
3 -x,1/2+y,1/2-z
4 1/2-x,-y,1/2+z
_cell_length_a                   6.588(1)
_cell_length_b                   13.383(1)
_cell_length_c                   32.261(2)
_cell_angle_alpha                90
_cell_angle_beta                 90
_cell_angle_gamma                90
_cell_volume                     2844.36
_exptl_crystal_colour            colorless
_cell_formula_units_Z            4
loop_
_atom_site_label
_atom_site_type_symbol
_atom_site_fract_x
_atom_site_fract_y
_atom_site_fract_z
Br1 Br 0.0932(2) 0.4386(1) 0.08566(3)
O1 O 0.8621(6) 0.5538(3) 0.2825(1)
O2 O 1.0226(6) 0.4463(3) 0.2429(1)
O3 O 0.7797(9) 0.5145(3) 0.4284(1)
O4 O 0.4577(7) 0.7808(3) 0.3594(1)
O5 O 0.5317(6) 0.6740(3) 0.2485(1)
O6 O 0.7833(7) 0.6975(3) 0.2026(2)
C1 C 0.9742(8) 0.4671(4) 0.2773(2)
C2 C 1.021(1) 0.4125(4) 0.3144(2)
C3 C 0.958(1) 0.4401(4) 0.3522(2)
C4 C 0.779(2) 0.5695(6) 0.4663(2)
C5 C 0.597(2) 0.6391(7) 0.4679(2)
C6 C 0.533(1) 0.6788(6) 0.4330(2)
C7 C 0.374(1) 0.8157(4) 0.3209(2)
C8 C 0.5472(9) 0.8276(4) 0.2893(2)
C9 C 0.6451(9) 0.7293(4) 0.2802(2)
C10 C 0.6635(9) 0.6677(4) 0.3189(2)
C11 C 0.7833(8) 0.5813(4) 0.3199(2)
C12 C 0.8264(9) 0.5282(4) 0.3562(2)
C13 C 0.743(1) 0.5655(4) 0.3931(2)
C14 C 0.620(1) 0.6502(4) 0.3935(2)
C15 C 0.582(1) 0.6993(4) 0.3562(2)
C16 C 1.025(1) 0.3795(5) 0.3883(2)
C17 C 1.214(2) 0.4003(9) 0.4061(3)
C18 C 1.283(2) 0.341(1) 0.4390(4)
C19 C 1.170(3) 0.2656(8) 0.4520(3)
C20 C 0.991(3) 0.2398(6) 0.4345(3)
C21 C 0.913(2) 0.2998(6) 0.4019(3)
C22 C 0.980(2) 0.6302(8) 0.4681(3)
C23 C 0.779(2) 0.4925(8) 0.5005(3)
C24 C 0.194(1) 0.7504(5) 0.3080(3)
C25 C 0.477(1) 0.8834(5) 0.2501(3)
C26 C 0.612(1) 0.6669(4) 0.2108(2)
C27 C 0.480(1) 0.6159(4) 0.1798(2)
C28 C 0.278(1) 0.5929(5) 0.1892(2)
C29 C 0.163(1) 0.5414(5) 0.1603(2)
C30 C 0.246(1) 0.5166(6) 0.1245(2)
C31 C 0.443(2) 0.5398(7) 0.1138(2)
C32 C 0.559(1) 0.5921(7) 0.1421(2)
loop_
_geom_bond_atom_site_label_1
_geom_bond_atom_site_label_2
_geom_bond_site_symmetry_1
_geom_bond_site_symmetry_2
Br1 C30 1_555 1_555
O1 C1 1_555 1_555
O2 C1 1_555 1_555
O3 C4 1_555 1_555
O4 C7 1_555 1_555
O5 C9 1_555 1_555
O6 C26 1_555 1_555
C1 C2 1_555 1_555
C2 C3 1_555 1_555
C3 C12 1_555 1_555
C4 C5 1_555 1_555
C5 C6 1_555 1_555
C6 C14 1_555 1_555
C7 C8 1_555 1_555
C8 C9 1_555 1_555
C9 C10 1_555 1_555
C10 C11 1_555 1_555
C11 O1 1_555 1_555
C12 C11 1_555 1_555
C13 O3 1_555 1_555
C14 C13 1_555 1_555
C15 O4 1_555 1_555
C16 C3 1_555 1_555
C17 C16 1_555 1_555
C18 C17 1_555 1_555
C19 C18 1_555 1_555
C20 C19 1_555 1_555
C21 C16 1_555 1_555
C22 C4 1_555 1_555
C23 C4 1_555 1_555
C24 C7 1_555 1_555
C25 C8 1_555 1_555
C26 O5 1_555 1_555
C27 C26 1_555 1_555
C28 C27 1_555 1_555
C29 C28 1_555 1_555
C30 C29 1_555 1_555
C31 C30 1_555 1_555
C32 C27 1_555 1_555
C10 C15 1_555 1_555
C12 C13 1_555 1_555
C14 C15 1_555 1_555
C20 C21 1_555 1_555
C31 C32 1_555 1_555

#END
