
#######################################################################
#
#                 Cambridge Crystallographic Data Centre
#                                CCDC 
#
#######################################################################
#
# If this CIF has been generated from an entry in the Cambridge 
# Structural Database, then it will include bibliographic, chemical, 
# crystal, experimental, refinement or atomic coordinate data resulting 
# from the CCDC's data processing and validation procedures.
#
#######################################################################

data_WEKJEE
_chemical_formula_moiety         'C18 H15 N1 O1'
_chemical_name_systematic        (3,6-dimethylquinolin-2-yl)(phenyl)methanone
_symmetry_cell_setting           monoclinic
_symmetry_space_group_name_H-M   'P 21/c'
_symmetry_Int_Tables_number      14
_space_group_name_Hall           '-P 2ybc'
loop_
_symmetry_equiv_pos_site_id
_symmetry_equiv_pos_as_xyz
1 x,y,z
2 -x,1/2+y,1/2-z
3 -x,-y,-z
4 x,1/2-y,1/2+z
_cell_length_a                   9.098(2)
_cell_length_b                   12.686(3)
_cell_length_c                   12.465(3)
_cell_angle_alpha                90
_cell_angle_beta                 104.570(3)
_cell_angle_gamma                90
_cell_volume                     1392.41
_exptl_crystal_colour            colorless
_exptl_crystal_description       Block
_cell_formula_units_Z            4
loop_
_atom_site_label
_atom_site_type_symbol
_atom_site_fract_x
_atom_site_fract_y
_atom_site_fract_z
C1 C 0.41060(19) 1.29282(13) -0.13120(14)
H1 H 0.5132 1.3152 -0.0998
H2 H 0.3428 1.3509 -0.1320
H3 H 0.4008 1.2685 -0.2056
C2 C 0.37155(15) 1.20474(10) -0.06258(11)
C3 C 0.47611(14) 1.16165(10) 0.02424(11)
H4 H 0.5761 1.1850 0.0395
C4 C 0.43665(13) 1.08256(9) 0.09158(10)
C5 C 0.28449(13) 1.04689(9) 0.06736(10)
C6 C 0.17803(15) 1.08995(11) -0.02425(12)
H5 H 0.0782 1.0661 -0.0421
C7 C 0.22100(16) 1.16631(11) -0.08666(12)
H6 H 0.1493 1.1940 -0.1468
C8 C 0.53929(14) 1.03809(10) 0.18383(11)
H7 H 0.6409 1.0578 0.1998
C9 C 0.49355(14) 0.96665(10) 0.25066(11)
C10 C 0.33755(14) 0.93721(9) 0.21916(10)
C11 C 0.60341(17) 0.92246(13) 0.35159(13)
H8 H 0.7050 0.9282 0.3429
H9 H 0.5800 0.8497 0.3603
H10 H 0.5953 0.9613 0.4160
C12 C 0.27040(14) 0.86665(10) 0.29168(11)
C13 C 0.18134(13) 0.77203(10) 0.24396(10)
C14 C 0.17798(15) 0.73379(11) 0.13958(11)
H11 H 0.2291 0.7698 0.0949
C15 C 0.09958(19) 0.64278(12) 0.10095(14)
H12 H 0.0992 0.6171 0.0310
C16 C 0.02179(19) 0.58988(13) 0.16596(15)
H13 H -0.0321 0.5290 0.1394
C17 C 0.02350(17) 0.62656(12) 0.26957(14)
H14 H -0.0292 0.5906 0.3132
C18 C 0.10326(15) 0.71670(12) 0.30925(12)
H15 H 0.1051 0.7409 0.3800
N1 N 0.23778(11) 0.97277(8) 0.13079(9)
O1 O 0.28903(13) 0.88977(9) 0.38889(8)
loop_
_geom_bond_atom_site_label_1
_geom_bond_atom_site_label_2
_geom_bond_site_symmetry_1
_geom_bond_site_symmetry_2
C1 H1 1_555 1_555
H2 C1 1_555 1_555
H3 C1 1_555 1_555
C2 C1 1_555 1_555
C3 C2 1_555 1_555
H4 C3 1_555 1_555
C4 C3 1_555 1_555
C5 C4 1_555 1_555
C6 C5 1_555 1_555
H5 C6 1_555 1_555
C7 C2 1_555 1_555
H6 C7 1_555 1_555
C8 C4 1_555 1_555
H7 C8 1_555 1_555
C9 C8 1_555 1_555
C10 C9 1_555 1_555
C11 C9 1_555 1_555
H8 C11 1_555 1_555
H9 C11 1_555 1_555
H10 C11 1_555 1_555
C12 C10 1_555 1_555
C13 C12 1_555 1_555
C14 C13 1_555 1_555
H11 C14 1_555 1_555
C15 C14 1_555 1_555
H12 C15 1_555 1_555
C16 C15 1_555 1_555
H13 C16 1_555 1_555
C17 C16 1_555 1_555
H14 C17 1_555 1_555
C18 C13 1_555 1_555
H15 C18 1_555 1_555
N1 C5 1_555 1_555
O1 C12 1_555 1_555
C6 C7 1_555 1_555
C10 N1 1_555 1_555
C17 C18 1_555 1_555

#END
