
#######################################################################
#
#                 Cambridge Crystallographic Data Centre
#                                CCDC 
#
#######################################################################
#
# If this CIF has been generated from an entry in the Cambridge 
# Structural Database, then it will include bibliographic, chemical, 
# crystal, experimental, refinement or atomic coordinate data resulting 
# from the CCDC's data processing and validation procedures.
#
#######################################################################

data_WEKJIG
_chemical_formula_moiety         'C6 H7 Br1 O2'
_chemical_name_systematic        cis-(1S)-3-Bromo-3,5-cyclohexadiene-1,2-diol
_symmetry_cell_setting           orthorhombic
_symmetry_space_group_name_H-M   'P 21 21 21'
_symmetry_Int_Tables_number      19
_space_group_name_Hall           'P 2ac 2ab'
loop_
_symmetry_equiv_pos_site_id
_symmetry_equiv_pos_as_xyz
1 x,y,z
2 1/2-x,-y,1/2+z
3 -x,1/2+y,1/2-z
4 1/2+x,1/2-y,-z
_cell_length_a                   5.0760(9)
_cell_length_b                   5.8769(11)
_cell_length_c                   21.408(4)
_cell_angle_alpha                90
_cell_angle_beta                 90
_cell_angle_gamma                90
_cell_volume                     638.625
_exptl_crystal_colour            colorless
_exptl_crystal_description       'square prisms'
_cell_formula_units_Z            4
loop_
_atom_site_label
_atom_site_type_symbol
_atom_site_fract_x
_atom_site_fract_y
_atom_site_fract_z
Br1 Br 0.03978(7) 0.53635(6) 0.186511(15)
C1 C 0.2455(6) 0.2988(6) 0.15193(17)
C2 C 0.1926(7) 0.2450(6) 0.08408(14)
H1 H -0.0021 0.2494 0.0771
O1 O 0.3116(4) 0.4159(4) 0.04564(10)
H2 H 0.1934 0.4945 0.0287
C3 C 0.2905(6) 0.0045(6) 0.06906(15)
H3 H 0.1568 -0.1042 0.0860
O2 O 0.3094(4) -0.0367(5) 0.00375(9)
H4 H 0.1604 -0.0208 -0.0127
C4 C 0.5490(6) -0.0529(6) 0.09933(14)
H5 H 0.6690 -0.1523 0.0789
C5 C 0.6099(6) 0.0348(7) 0.15448(15)
H6 H 0.7667 -0.0122 0.1750
C6 C 0.4384(6) 0.2034(6) 0.18419(16)
H7 H 0.4656 0.2443 0.2266
loop_
_geom_bond_atom_site_label_1
_geom_bond_atom_site_label_2
_geom_bond_site_symmetry_1
_geom_bond_site_symmetry_2
Br1 C1 1_555 1_555
C1 C2 1_555 1_555
C2 H1 1_555 1_555
O1 C2 1_555 1_555
H2 O1 1_555 1_555
C3 C2 1_555 1_555
H3 C3 1_555 1_555
O2 C3 1_555 1_555
H4 O2 1_555 1_555
C4 C3 1_555 1_555
H5 C4 1_555 1_555
C5 C4 1_555 1_555
H6 C5 1_555 1_555
C6 C1 1_555 1_555
H7 C6 1_555 1_555
C5 C6 1_555 1_555

#END
