
#######################################################################
#
#                 Cambridge Crystallographic Data Centre
#                                CCDC 
#
#######################################################################
#
# If this CIF has been generated from an entry in the Cambridge 
# Structural Database, then it will include bibliographic, chemical, 
# crystal, experimental, refinement or atomic coordinate data resulting 
# from the CCDC's data processing and validation procedures.
#
#######################################################################

data_WEKMEH
_chemical_formula_moiety         'C18 H19 I1 N2'
_chemical_name_systematic        
1'-(4-iodophenyl)-2-methyl-1,2-dihydrospiro[indole-3,3'-pyrrolidine]
_symmetry_cell_setting           monoclinic
_symmetry_space_group_name_H-M   'P 21/n'
_symmetry_Int_Tables_number      14
_space_group_name_Hall           '-P 2yn'
loop_
_symmetry_equiv_pos_site_id
_symmetry_equiv_pos_as_xyz
1 x,y,z
2 1/2-x,1/2+y,1/2-z
3 -x,-y,-z
4 1/2+x,1/2-y,1/2+z
_cell_length_a                   12.7416(4)
_cell_length_b                   15.7164(3)
_cell_length_c                   16.1249(5)
_cell_angle_alpha                90
_cell_angle_beta                 90.844(3)
_cell_angle_gamma                90
_cell_volume                     3228.69
_exptl_crystal_colour            colorless
_exptl_crystal_description       block
_cell_formula_units_Z            8
loop_
_atom_site_label
_atom_site_type_symbol
_atom_site_fract_x
_atom_site_fract_y
_atom_site_fract_z
C1 C 0.7660(5) 0.5507(3) 0.5335(3)
C2 C 0.8305(6) 0.5000(4) 0.4839(4)
H1 H 0.8981 0.5172 0.4709
C3 C 0.7899(8) 0.4229(4) 0.4549(5)
H2 H 0.8311 0.3867 0.4235
C4 C 0.6875(7) 0.4007(4) 0.4734(5)
H3 H 0.6612 0.3494 0.4531
C5 C 0.6236(6) 0.4506(4) 0.5200(5)
H4 H 0.5550 0.4344 0.5310
C6 C 0.6648(5) 0.5269(4) 0.5507(4)
C7 C 0.6964(5) 0.6434(4) 0.6353(4)
H5 H 0.6713 0.7023 0.6359
C8 C 0.7206(6) 0.6158(5) 0.7234(4)
H6 H 0.6629 0.6306 0.7583
H7 H 0.7830 0.6441 0.7431
H8 H 0.7313 0.5554 0.7249
C9 C 0.7874(4) 0.6362(3) 0.5720(3)
C10 C 0.8976(5) 0.6504(4) 0.6072(4)
H9 H 0.9057 0.6237 0.6611
H10 H 0.9499 0.6274 0.5703
C11 C 0.9084(5) 0.7460(4) 0.6142(4)
H11 H 0.8912 0.7652 0.6696
H12 H 0.9792 0.7639 0.6017
C12 C 0.7772(5) 0.7099(3) 0.5101(4)
H13 H 0.8099 0.6960 0.4579
H14 H 0.7042 0.7245 0.4998
C13 C 0.8225(4) 0.8632(3) 0.5346(3)
C14 C 0.8815(5) 0.9251(4) 0.5775(4)
H15 H 0.9299 0.9085 0.6181
C15 C 0.8684(6) 1.0103(4) 0.5598(4)
H16 H 0.9080 1.0506 0.5887
C16 C 0.7967(5) 1.0363(4) 0.4995(4)
C17 C 0.7410(5) 0.9776(4) 0.4555(4)
H17 H 0.6953 0.9953 0.4134
C18 C 0.7517(5) 0.8906(4) 0.4729(3)
H18 H 0.7119 0.8510 0.4433
I1 I 0.77539(4) 1.16638(3) 0.47575(3)
N1 N 0.8332(4) 0.7790(3) 0.5529(3)
N2 N 0.6144(5) 0.5891(3) 0.5974(4)
H19 H 0.5478 0.5947 0.6030
C19 C 0.0062(5) 0.7221(4) 0.3332(4)
C20 C -0.0244(6) 0.7981(4) 0.3686(4)
H20 H -0.0139 0.8088 0.4248
C21 C -0.0720(5) 0.8582(4) 0.3163(5)
H21 H -0.0919 0.9104 0.3384
C22 C -0.0902(5) 0.8431(4) 0.2341(5)
H22 H -0.1228 0.8842 0.2012
C23 C -0.0593(5) 0.7650(4) 0.1991(4)
H23 H -0.0708 0.7540 0.1430
C24 C -0.0121(4) 0.7058(3) 0.2492(3)
C25 C 0.1070(5) 0.6044(3) 0.3035(4)
H24 H 0.1076 0.5439 0.3183
C26 C 0.0302(4) 0.6184(3) 0.2295(3)
C27 C 0.0751(6) 0.6072(4) 0.1424(4)
H25 H 0.0305 0.6345 0.1010
H26 H 0.1451 0.6310 0.1395
C28 C 0.0774(5) 0.5109(4) 0.1294(4)
H27 H 0.0643 0.4964 0.0717
H28 H 0.1445 0.4872 0.1469
C29 C -0.0536(5) 0.5474(4) 0.2301(4)
H29 H -0.0670 0.5283 0.2862
H30 H -0.1190 0.5667 0.2049
C30 C -0.0347(5) 0.3961(3) 0.1858(4)
C31 C 0.0224(5) 0.3352(4) 0.1423(4)
H31 H 0.0776 0.3527 0.1093
C32 C -0.0011(6) 0.2496(4) 0.1473(4)
H32 H 0.0390 0.2097 0.1193
C33 C -0.0868(6) 0.2235(4) 0.1955(4)
C34 C -0.1434(5) 0.2822(4) 0.2376(4)
H33 H -0.1989 0.2643 0.2702
C35 C -0.1202(5) 0.3682(4) 0.2330(4)
H34 H -0.1611 0.4075 0.2610
C36 C 0.2194(6) 0.6340(4) 0.2894(5)
H35 H 0.2190 0.6925 0.2723
H36 H 0.2506 0.5998 0.2470
H37 H 0.2595 0.6284 0.3400
I2 I -0.12076(6) 0.09335(3) 0.20371(5)
N3 N -0.0069(4) 0.4806(3) 0.1817(3)
N4 N 0.0566(5) 0.6530(3) 0.3699(3)
H38 H 0.0582 0.6409 0.4219
loop_
_geom_bond_atom_site_label_1
_geom_bond_atom_site_label_2
_geom_bond_site_symmetry_1
_geom_bond_site_symmetry_2
C1 C2 1_555 1_555
C2 H1 1_555 1_555
C3 C2 1_555 1_555
H2 C3 1_555 1_555
C4 C3 1_555 1_555
H3 C4 1_555 1_555
C5 C4 1_555 1_555
H4 C5 1_555 1_555
C6 C1 1_555 1_555
C7 H5 1_555 1_555
C8 C7 1_555 1_555
H6 C8 1_555 1_555
H7 C8 1_555 1_555
H8 C8 1_555 1_555
C9 C1 1_555 1_555
C10 C9 1_555 1_555
H9 C10 1_555 1_555
H10 C10 1_555 1_555
C11 C10 1_555 1_555
H11 C11 1_555 1_555
H12 C11 1_555 1_555
C12 C9 1_555 1_555
H13 C12 1_555 1_555
H14 C12 1_555 1_555
C13 C14 1_555 1_555
C14 H15 1_555 1_555
C15 C14 1_555 1_555
H16 C15 1_555 1_555
C16 C15 1_555 1_555
C17 C16 1_555 1_555
H17 C17 1_555 1_555
C18 C13 1_555 1_555
H18 C18 1_555 1_555
I1 C16 1_555 1_555
N1 C11 1_555 1_555
N2 C6 1_555 1_555
H19 N2 1_555 1_555
C19 C20 1_555 1_555
C20 H20 1_555 1_555
C21 C20 1_555 1_555
H21 C21 1_555 1_555
C22 C21 1_555 1_555
H22 C22 1_555 1_555
C23 C22 1_555 1_555
H23 C23 1_555 1_555
C24 C19 1_555 1_555
C25 H24 1_555 1_555
C26 C24 1_555 1_555
C27 C26 1_555 1_555
H25 C27 1_555 1_555
H26 C27 1_555 1_555
C28 C27 1_555 1_555
H27 C28 1_555 1_555
H28 C28 1_555 1_555
C29 C26 1_555 1_555
H29 C29 1_555 1_555
H30 C29 1_555 1_555
C30 C31 1_555 1_555
C31 H31 1_555 1_555
C32 C31 1_555 1_555
H32 C32 1_555 1_555
C33 C32 1_555 1_555
C34 C33 1_555 1_555
H33 C34 1_555 1_555
C35 C30 1_555 1_555
H34 C35 1_555 1_555
C36 C25 1_555 1_555
H35 C36 1_555 1_555
H36 C36 1_555 1_555
H37 C36 1_555 1_555
I2 C33 1_555 1_555
N3 C28 1_555 1_555
N4 C19 1_555 1_555
H38 N4 1_555 1_555
C5 C6 1_555 1_555
C7 C9 1_555 1_555
C7 N2 1_555 1_555
C12 N1 1_555 1_555
C13 N1 1_555 1_555
C17 C18 1_555 1_555
C23 C24 1_555 1_555
C25 C26 1_555 1_555
C25 N4 1_555 1_555
C29 N3 1_555 1_555
C30 N3 1_555 1_555
C34 C35 1_555 1_555

#END
