
#######################################################################
#
#                 Cambridge Crystallographic Data Centre
#                                CCDC 
#
#######################################################################
#
# If this CIF has been generated from an entry in the Cambridge 
# Structural Database, then it will include bibliographic, chemical, 
# crystal, experimental, refinement or atomic coordinate data resulting 
# from the CCDC's data processing and validation procedures.
#
#######################################################################

data_WEKXOC
_chemical_formula_moiety         'C18 H14 Br1 N1 O2'
_chemical_name_systematic        
2-(3-bromophenyl)-3-(4-methoxybenzene-1-carbonyl)cyclopropane-1-carbonitrile
_symmetry_cell_setting           orthorhombic
_symmetry_space_group_name_H-M   'P c a 21'
_symmetry_Int_Tables_number      29
_space_group_name_Hall           'P 2c -2ac'
loop_
_symmetry_equiv_pos_site_id
_symmetry_equiv_pos_as_xyz
1 x,y,z
2 -x,-y,1/2+z
3 1/2+x,-y,z
4 1/2-x,y,1/2+z
_cell_length_a                   17.751(4)
_cell_length_b                   5.5069(15)
_cell_length_c                   15.951(4)
_cell_angle_alpha                90
_cell_angle_beta                 90
_cell_angle_gamma                90
_cell_volume                     1559.26
_exptl_crystal_colour            white
_exptl_crystal_description       block
_cell_formula_units_Z            4
loop_
_atom_site_label
_atom_site_type_symbol
_atom_site_fract_x
_atom_site_fract_y
_atom_site_fract_z
Br1 Br 0.52031(3) 1.24062(10) 0.74077(7)
O1 O 1.08993(16) 0.5148(6) 1.0735(2)
C1 C 0.9667(2) 0.2655(7) 0.9189(3)
H1 H 0.9650 0.1243 0.8847
C2 C 0.9714(3) 0.6720(9) 1.0200(3)
H2 H 0.9726 0.8107 1.0554
C3 C 0.6308(2) 0.8724(7) 0.7519(3)
H3 H 0.6033 0.8250 0.8002
C4 C 0.9082(2) 0.4359(7) 0.9136(2)
C5 C 0.6959(2) 0.7487(6) 0.7294(3)
C6 C 0.8438(2) 0.3879(7) 0.8580(2)
C7 C 0.9127(2) 0.6391(7) 0.9657(2)
H4 H 0.8739 0.7577 0.9633
C8 C 0.7056(3) 1.0079(10) 0.6091(3)
H5 H 0.7314 1.0524 0.5592
O2 O 0.83490(17) 0.1894(5) 0.8254(2)
C9 C 1.0253(2) 0.2975(9) 0.9715(4)
H6 H 1.0644 0.1799 0.9735
C10 C 0.6063(2) 1.0639(8) 0.7037(3)
C11 C 0.7329(3) 0.8170(9) 0.6571(3)
H7 H 0.7772 0.7332 0.6401
C12 C 0.7061(2) 0.5278(7) 0.8732(2)
H8 H 0.6769 0.6678 0.8965
N1 N 0.6758(2) 0.1084(7) 0.9376(2)
C13 C 0.7867(2) 0.5855(7) 0.8447(2)
H9 H 0.8045 0.7565 0.8521
C14 C 1.0954(3) 0.7181(9) 1.1294(4)
H10 H 1.0945 0.8692 1.0969
H11 H 1.1426 0.7080 1.1610
H12 H 1.0527 0.7159 1.1684
C15 C 1.0292(2) 0.5025(8) 1.0233(3)
C16 C 0.72487(19) 0.5431(7) 0.7814(2)
H13 H 0.7273 0.3832 0.7518
C17 C 0.6420(3) 1.1345(9) 0.6321(3)
H14 H 0.6237 1.2660 0.5994
C18 C 0.6894(2) 0.2941(8) 0.9095(3)
loop_
_geom_bond_atom_site_label_1
_geom_bond_atom_site_label_2
_geom_bond_site_symmetry_1
_geom_bond_site_symmetry_2
Br1 C10 1_555 1_555
O1 C14 1_555 1_555
C1 H1 1_555 1_555
C2 H2 1_555 1_555
C3 H3 1_555 1_555
C4 C1 1_555 1_555
C5 C3 1_555 1_555
C6 C4 1_555 1_555
C7 C2 1_555 1_555
H4 C7 1_555 1_555
C8 H5 1_555 1_555
O2 C6 1_555 1_555
C9 C1 1_555 1_555
H6 C9 1_555 1_555
C10 C3 1_555 1_555
C11 C5 1_555 1_555
H7 C11 1_555 1_555
C12 H8 1_555 1_555
N1 C18 1_555 1_555
C13 C6 1_555 1_555
H9 C13 1_555 1_555
C14 H10 1_555 1_555
H11 C14 1_555 1_555
H12 C14 1_555 1_555
C15 O1 1_555 1_555
C16 C5 1_555 1_555
H13 C16 1_555 1_555
C17 C8 1_555 1_555
H14 C17 1_555 1_555
C18 C12 1_555 1_555
C2 C15 1_555 1_555
C4 C7 1_555 1_555
C8 C11 1_555 1_555
C9 C15 1_555 1_555
C10 C17 1_555 1_555
C12 C13 1_555 1_555
C12 C16 1_555 1_555
C13 C16 1_555 1_555

#END
