
#######################################################################
#
#                 Cambridge Crystallographic Data Centre
#                                CCDC 
#
#######################################################################
#
# If this CIF has been generated from an entry in the Cambridge 
# Structural Database, then it will include bibliographic, chemical, 
# crystal, experimental, refinement or atomic coordinate data resulting 
# from the CCDC's data processing and validation procedures.
#
#######################################################################

data_WEKXAO
_chemical_formula_moiety         'C6 H11 N2 1+,C4 H4 O2,C4 H3 O2 1-'
_chemical_name_systematic        
'1-ethyl-3-methylimidazoium tetrolate tetrolic acid'
_symmetry_cell_setting           triclinic
_symmetry_space_group_name_H-M   'P -1'
_symmetry_Int_Tables_number      2
_space_group_name_Hall           '-P 1'
loop_
_symmetry_equiv_pos_site_id
_symmetry_equiv_pos_as_xyz
1 x,y,z
2 -x,-y,-z
_cell_length_a                   6.746(3)
_cell_length_b                   7.246(3)
_cell_length_c                   7.434(3)
_cell_angle_alpha                77.801(7)
_cell_angle_beta                 83.650(8)
_cell_angle_gamma                88.409(7)
_cell_volume                     352.997
_exptl_crystal_colour            colorless
_exptl_crystal_description       plate
_cell_formula_units_Z            1
loop_
_atom_site_label
_atom_site_type_symbol
_atom_site_fract_x
_atom_site_fract_y
_atom_site_fract_z
N1 N 1.1289(3) 0.1594(3) 0.3627(3)
N2 N 0.9257(3) -0.0345(2) 0.5485(2)
C5 C 1.2161(18) 0.3325(16) 0.2424(16)
H4 H 1.3588 0.3365 0.2553
H5 H 1.1496 0.4432 0.2784
H6 H 1.1978 0.3330 0.1133
C6 C 1.2181(4) -0.0157(3) 0.3877(3)
H7 H 1.3466 -0.0449 0.3344
C7 C 1.0883(10) -0.1399(11) 0.5032(9)
H8 H 1.1068 -0.2720 0.5438
C8 C 0.9512(10) 0.1420(11) 0.4615(9)
H9 H 0.8576 0.2414 0.4680
C9 C 0.7396(4) -0.1050(3) 0.6649(3)
H10 H 0.6294 -0.0959 0.5859
H11 H 0.7048 -0.0247 0.7564
C10 C 0.7619(16) -0.3064(15) 0.7649(16)
H12 H 0.7866 -0.3874 0.6746
H13 H 0.6392 -0.3465 0.8459
H14 H 0.8742 -0.3165 0.8395
N1A N 0.8711(3) -0.1594(3) 0.6373(3)
N2A N 1.0743(3) 0.0345(2) 0.4515(2)
C5A C 0.7839(18) -0.3325(16) 0.7576(16)
H4A H 0.6412 -0.3365 0.7447
H5A H 0.8504 -0.4432 0.7216
H6A H 0.8022 -0.3330 0.8867
C6A C 0.7819(4) 0.0157(3) 0.6123(3)
H7A H 0.6534 0.0449 0.6656
C7A C 0.9117(10) 0.1399(11) 0.4968(9)
H8A H 0.8932 0.2720 0.4562
C8A C 1.0488(10) -0.1420(11) 0.5385(9)
H9A H 1.1424 -0.2414 0.5320
C9A C 1.2604(4) 0.1050(3) 0.3351(3)
H10A H 1.3706 0.0959 0.4141
H11A H 1.2952 0.0247 0.2436
C10A C 1.2381(16) 0.3064(15) 0.2351(16)
H12A H 1.2134 0.3874 0.3254
H13A H 1.3608 0.3465 0.1541
H14A H 1.1258 0.3165 0.1605
O1 O 0.51580(14) 0.65815(12) 0.40051(13)
O2 O 0.81011(18) 0.56329(14) 0.28345(17)
C1 C 0.68145(19) 0.68289(15) 0.29706(16)
C2 C 0.71171(17) 0.87538(15) 0.18979(15)
C3 C 0.73738(17) 1.03452(15) 0.10549(15)
C4 C 0.76728(19) 1.22780(16) 0.00416(18)
H1 H 0.8984 1.2389 -0.0684
H2 H 0.7604 1.3124 0.0916
H3 H 0.6632 1.2627 -0.0791
H15? H 0.512(7) 0.546(4) 0.464(6)
loop_
_geom_bond_atom_site_label_1
_geom_bond_atom_site_label_2
_geom_bond_site_symmetry_1
_geom_bond_site_symmetry_2
O1 C1 1_555 1_555
O2 C1 1_555 1_555
C1 C2 1_555 1_555
C2 C3 1_555 1_555
C3 C4 1_555 1_555
C4 H1 1_555 1_555
H2 C4 1_555 1_555
H3 C4 1_555 1_555
N1 C5 1_555 1_555
N2 C7 1_555 1_555
C5 H4 1_555 1_555
H4 C10A 1_555 1_555
H5 C5 1_555 1_555
H6 C5 1_555 1_555
C6 H7 1_555 1_555
H7 C9A 1_555 1_555
C7 C6 1_555 1_555
H8 C7 1_555 1_555
C8 N1 1_555 1_555
H9 C8 1_555 1_555
C9 H10 1_555 1_555
H11 C9 1_555 1_555
C10 C9 1_555 1_555
H12 C10 1_555 1_555
H13 C10 1_555 1_555
H14 C10 1_555 1_555
N1A N2 1_555 1_555
N2A N1 1_555 1_555
C5A C9 1_555 1_555
H4A C10 1_555 1_555
H5A C10 1_555 1_555
H6A C10 1_555 1_555
C6A N2 1_555 1_555
H7A C9 1_555 1_555
C7A N1 1_555 1_555
H8A C8 1_555 1_555
C8A N2 1_555 1_555
H9A C7 1_555 1_555
C9A N1 1_555 1_555
H10A C9A 1_555 1_555
H11A C6 1_555 1_555
C10A N1 1_555 1_555
H12A C5 1_555 1_555
H13A C5 1_555 1_555
H14A C5 1_555 1_555
N2 C8 1_555 1_555
N2 N2A 1_555 1_555
N2 C7A 1_555 1_555
C5 C9A 1_555 1_555
H5 C10A 1_555 1_555
H6 C10A 1_555 1_555
C6 N2A 1_555 1_555
C6 C8A 1_555 1_555
C6 C9A 1_555 1_555
C7 N1A 1_555 1_555
C7 N2A 1_555 1_555
H8 C8A 1_555 1_555
C8 N2A 1_555 1_555
C8 C6A 1_555 1_555
H9 C7A 1_555 1_555
C9 N1A 1_555 1_555
C9 C6A 1_555 1_555
H11 C6A 1_555 1_555
C10 N1A 1_555 1_555
H12 C5A 1_555 1_555
H13 C5A 1_555 1_555
H14 C5A 1_555 1_555
N1A C5A 1_555 1_555
N1A C8A 1_555 1_555
N2A C7A 1_555 1_555
N2A C8A 1_555 1_555
C5A H4A 1_555 1_555
C5A H5A 1_555 1_555
C5A H6A 1_555 1_555
C6A H7A 1_555 1_555
C6A C7A 1_555 1_555
C7A H8A 1_555 1_555
C8A H9A 1_555 1_555
C9A H11A 1_555 1_555
C9A C10A 1_555 1_555
C10A H12A 1_555 1_555
C10A H13A 1_555 1_555
C10A H14A 1_555 1_555

#END
