
#######################################################################
#
#                 Cambridge Crystallographic Data Centre
#                                CCDC 
#
#######################################################################
#
# If this CIF has been generated from an entry in the Cambridge 
# Structural Database, then it will include bibliographic, chemical, 
# crystal, experimental, refinement or atomic coordinate data resulting 
# from the CCDC's data processing and validation procedures.
#
#######################################################################

data_WEKXES
_chemical_formula_moiety         'C20 H16 Br1 N1 O4'
_chemical_name_systematic        
'methyl 2-(3-bromophenyl)-1-cyano-3-(4-methoxybenzene-1-carbonyl)cyclopropane-1-carboxylate'
_symmetry_cell_setting           triclinic
_symmetry_space_group_name_H-M   'P -1'
_symmetry_Int_Tables_number      2
_space_group_name_Hall           '-P 1'
loop_
_symmetry_equiv_pos_site_id
_symmetry_equiv_pos_as_xyz
1 x,y,z
2 -x,-y,-z
_cell_length_a                   9.3308(13)
_cell_length_b                   10.4333(15)
_cell_length_c                   11.1132(18)
_cell_angle_alpha                116.246(4)
_cell_angle_beta                 102.720(4)
_cell_angle_gamma                91.161(4)
_cell_volume                     937.934
_exptl_crystal_colour            white
_exptl_crystal_description       block
_cell_formula_units_Z            2
loop_
_atom_site_label
_atom_site_type_symbol
_atom_site_fract_x
_atom_site_fract_y
_atom_site_fract_z
Br1 Br 0.23761(7) -0.04988(7) 1.00218(7)
O1 O 0.5029(3) 0.5605(3) 0.8389(3)
C1 C 0.3435(4) 0.1153(4) 0.8865(4)
H1 H 0.4123 0.1622 0.9723
C2 C 0.6055(4) 0.2306(3) 0.7691(3)
C3 C 0.4976(4) 0.3094(3) 0.7099(3)
H2 H 0.4371 0.2502 0.6150
O2 O 0.8563(3) 0.2286(3) 0.8480(3)
O3 O 0.7644(3) 0.4332(3) 0.9562(3)
C4 C 0.6301(4) 0.4956(3) 0.6646(3)
C5 C 0.7489(4) 0.3105(4) 0.8684(4)
C6 C 0.6807(4) 0.6391(4) 0.7033(4)
H3 H 0.6631 0.7121 0.7831
C7 C 0.6047(4) 0.0791(4) 0.6816(3)
C8 C 0.4624(4) 0.2744(3) 0.8152(3)
H4 H 0.4785 0.3571 0.9072
C9 C 0.5433(4) 0.4653(3) 0.7469(3)
C10 C 0.2404(4) 0.0037(4) 0.8607(5)
C11 C 0.7554(4) 0.6748(4) 0.6271(4)
H5 H 0.7888 0.7710 0.6560
N1 N 0.6014(5) -0.0407(3) 0.6161(4)
C12 C 0.3446(4) 0.1576(3) 0.7847(4)
O4 O 0.8536(4) 0.6152(4) 0.4377(4)
C13 C 0.6590(4) 0.3898(4) 0.5449(4)
H6 H 0.6278 0.2935 0.5173
C14 C 0.1381(5) -0.0686(5) 0.7341(6)
H7 H 0.0689 -0.1438 0.7175
C15 C 0.7814(4) 0.5684(4) 0.5071(4)
C16 C 0.7334(4) 0.4244(4) 0.4657(4)
H8 H 0.7510 0.3519 0.3856
C17 C 0.2411(5) 0.0866(5) 0.6585(5)
H9 H 0.2388 0.1152 0.5899
C18 C 1.0010(5) 0.2906(5) 0.9417(7)
H10 H 1.0498 0.3508 0.9137
H11 H 1.0587 0.2148 0.9397
H12 H 0.9910 0.3474 1.0342
C19 C 0.1406(6) -0.0273(6) 0.6338(6)
H13 H 0.0737 -0.0766 0.5472
C20 C 0.8778(6) 0.5120(7) 0.3082(6)
H14 H 0.9413 0.4468 0.3239
H15 H 0.9237 0.5616 0.2684
H16 H 0.7845 0.4589 0.2456
loop_
_geom_bond_atom_site_label_1
_geom_bond_atom_site_label_2
_geom_bond_site_symmetry_1
_geom_bond_site_symmetry_2
Br1 C10 1_555 1_555
O1 C9 1_555 1_555
C1 H1 1_555 1_555
C2 C3 1_555 1_555
C3 H2 1_555 1_555
O2 C5 1_555 1_555
O3 C5 1_555 1_555
C4 C6 1_555 1_555
C5 C2 1_555 1_555
C6 H3 1_555 1_555
C7 C2 1_555 1_555
C8 C2 1_555 1_555
H4 C8 1_555 1_555
C9 C3 1_555 1_555
C10 C1 1_555 1_555
C11 C6 1_555 1_555
H5 C11 1_555 1_555
N1 C7 1_555 1_555
C12 C1 1_555 1_555
O4 C15 1_555 1_555
C13 C4 1_555 1_555
H6 C13 1_555 1_555
C14 C10 1_555 1_555
H7 C14 1_555 1_555
C15 C11 1_555 1_555
C16 C13 1_555 1_555
H8 C16 1_555 1_555
C17 C12 1_555 1_555
H9 C17 1_555 1_555
C18 O2 1_555 1_555
H10 C18 1_555 1_555
H11 C18 1_555 1_555
H12 C18 1_555 1_555
C19 C14 1_555 1_555
H13 C19 1_555 1_555
C20 O4 1_555 1_555
H14 C20 1_555 1_555
H15 C20 1_555 1_555
H16 C20 1_555 1_555
C3 C8 1_555 1_555
C4 C9 1_555 1_555
C8 C12 1_555 1_555
C15 C16 1_555 1_555
C17 C19 1_555 1_555

#END
