
#######################################################################
#
#                 Cambridge Crystallographic Data Centre
#                                CCDC 
#
#######################################################################
#
# If this CIF has been generated from an entry in the Cambridge 
# Structural Database, then it will include bibliographic, chemical, 
# crystal, experimental, refinement or atomic coordinate data resulting 
# from the CCDC's data processing and validation procedures.
#
#######################################################################

data_WELHED
_chemical_formula_moiety         'C19 H20 F1 N5 O2'
_chemical_name_systematic        
3-amino-N-(5-fluoro-2-methylphenyl)-4-(morpholin-4-yl)-1H-indazole-1-carboxamide
_symmetry_cell_setting           monoclinic
_symmetry_space_group_name_H-M   'P 21/n'
_symmetry_Int_Tables_number      14
_space_group_name_Hall           '-P 2yn'
loop_
_symmetry_equiv_pos_site_id
_symmetry_equiv_pos_as_xyz
1 x,y,z
2 1/2-x,1/2+y,1/2-z
3 -x,-y,-z
4 1/2+x,1/2-y,1/2+z
_cell_length_a                   8.59913(18)
_cell_length_b                   13.9585(3)
_cell_length_c                   14.7558(4)
_cell_angle_alpha                90
_cell_angle_beta                 95.691(2)
_cell_angle_gamma                90
_cell_volume                     1762.42
_exptl_crystal_colour            colorless
_exptl_crystal_description       block
_cell_formula_units_Z            4
loop_
_atom_site_label
_atom_site_type_symbol
_atom_site_fract_x
_atom_site_fract_y
_atom_site_fract_z
F1 F -0.00342(12) 0.59977(7) 0.47454(9)
O1 O 0.16949(14) 0.91726(8) 0.46027(9)
O2 O 0.63604(14) 1.47173(8) 0.27191(8)
N1 N 0.35203(15) 0.83778(9) 0.38487(9)
H1 H 0.4403 0.8459 0.3631
N2 N 0.36982(15) 0.99955(9) 0.40769(9)
N3 N 0.49932(15) 0.99959(9) 0.35705(9)
N4 N 0.66656(17) 1.11784(11) 0.30852(10)
H2 H 0.730(2) 1.0715(15) 0.2942(13)
H3 H 0.712(2) 1.1714(16) 0.3298(14)
N5 N 0.54436(15) 1.31259(9) 0.37584(8)
C1 C 0.17273(19) 0.71662(11) 0.43399(12)
H4 H 0.1383 0.7579 0.4773
C2 C 0.11093(19) 0.62599(12) 0.42168(13)
C3 C 0.1586(2) 0.56172(12) 0.36034(14)
H5 H 0.1142 0.5011 0.3537
C4 C 0.2759(2) 0.59052(12) 0.30836(13)
H6 H 0.3113 0.5476 0.2668
C5 C 0.34272(19) 0.68122(12) 0.31617(12)
C6 C 0.28849(18) 0.74475(11) 0.37957(11)
C7 C 0.28702(19) 0.91604(11) 0.42113(11)
C8 C 0.33728(18) 1.09081(11) 0.43724(11)
C9 C 0.44534(17) 1.15193(11) 0.40197(10)
C10 C 0.44184(17) 1.25116(11) 0.41935(10)
C11 C 0.33553(19) 1.28261(11) 0.47706(11)
H7 H 0.3325 1.3473 0.4918
C12 C 0.2322(2) 1.21919(12) 0.51387(12)
H8 H 0.1644 1.2431 0.5537
C13 C 0.22687(19) 1.12301(12) 0.49355(11)
H9 H 0.1544 1.0820 0.5159
C14 C 0.54394(18) 1.08946(11) 0.35431(10)
C15 C 0.49548(19) 1.32153(11) 0.27723(10)
H10 H 0.3943 1.3526 0.2683
H11 H 0.4857 1.2583 0.2500
C16 C 0.6135(2) 1.37915(12) 0.23158(12)
H12 H 0.7123 1.3451 0.2364
H13 H 0.5781 1.3862 0.1674
C17 C 0.6847(2) 1.46237(13) 0.36699(12)
H14 H 0.7005 1.5255 0.3938
H15 H 0.7834 1.4283 0.3751
C18 C 0.56375(19) 1.40874(11) 0.41494(11)
H16 H 0.5973 1.4043 0.4795
H17 H 0.4649 1.4428 0.4075
C19 C 0.4658(2) 0.71059(14) 0.25605(14)
H18 H 0.5600 0.7272 0.2931
H19 H 0.4296 0.7650 0.2201
H20 H 0.4862 0.6584 0.2166
loop_
_geom_bond_atom_site_label_1
_geom_bond_atom_site_label_2
_geom_bond_site_symmetry_1
_geom_bond_site_symmetry_2
F1 C2 1_555 1_555
O1 C7 1_555 1_555
O2 C16 1_555 1_555
N1 H1 1_555 1_555
N2 N3 1_555 1_555
N3 C14 1_555 1_555
N4 H2 1_555 1_555
H3 N4 1_555 1_555
N5 C10 1_555 1_555
C1 H4 1_555 1_555
C2 C1 1_555 1_555
C3 C2 1_555 1_555
H5 C3 1_555 1_555
C4 C3 1_555 1_555
H6 C4 1_555 1_555
C5 C4 1_555 1_555
C6 N1 1_555 1_555
C7 N1 1_555 1_555
C8 N2 1_555 1_555
C9 C8 1_555 1_555
C10 C9 1_555 1_555
C11 C10 1_555 1_555
H7 C11 1_555 1_555
C12 C11 1_555 1_555
H8 C12 1_555 1_555
C13 C8 1_555 1_555
H9 C13 1_555 1_555
C14 N4 1_555 1_555
C15 N5 1_555 1_555
H10 C15 1_555 1_555
H11 C15 1_555 1_555
C16 C15 1_555 1_555
H12 C16 1_555 1_555
H13 C16 1_555 1_555
C17 O2 1_555 1_555
H14 C17 1_555 1_555
H15 C17 1_555 1_555
C18 N5 1_555 1_555
H16 C18 1_555 1_555
H17 C18 1_555 1_555
C19 C5 1_555 1_555
H18 C19 1_555 1_555
H19 C19 1_555 1_555
H20 C19 1_555 1_555
N2 C7 1_555 1_555
C1 C6 1_555 1_555
C5 C6 1_555 1_555
C9 C14 1_555 1_555
C12 C13 1_555 1_555
C17 C18 1_555 1_555

#END
