
#######################################################################
#
#                 Cambridge Crystallographic Data Centre
#                                CCDC 
#
#######################################################################
#
# If this CIF has been generated from an entry in the Cambridge 
# Structural Database, then it will include bibliographic, chemical, 
# crystal, experimental, refinement or atomic coordinate data resulting 
# from the CCDC's data processing and validation procedures.
#
#######################################################################

data_WELKUV
_chemical_formula_moiety         'C18 H17 N3 O4'
_chemical_name_systematic        
1-(3,4,5-Trimethoxyphenyl)-1,4-dihydrochromeno[3,4-d][1,2,3]triazole
_symmetry_cell_setting           monoclinic
_symmetry_space_group_name_H-M   'P 21/c'
_symmetry_Int_Tables_number      14
_space_group_name_Hall           '-P 2ybc'
loop_
_symmetry_equiv_pos_site_id
_symmetry_equiv_pos_as_xyz
1 x,y,z
2 -x,1/2+y,1/2-z
3 -x,-y,-z
4 x,1/2-y,1/2+z
_cell_length_a                   9.7873(2)
_cell_length_b                   13.8510(3)
_cell_length_c                   11.8661(2)
_cell_angle_alpha                90
_cell_angle_beta                 90.573(2)
_cell_angle_gamma                90
_cell_volume                     1608.53
_exptl_crystal_colour            colorless
_exptl_crystal_description       parallelepiped
_cell_formula_units_Z            4
loop_
_atom_site_label
_atom_site_type_symbol
_atom_site_fract_x
_atom_site_fract_y
_atom_site_fract_z
O1 O 0.99487(14) 0.04353(10) 0.69337(12)
O2 O 0.71318(10) 0.08012(8) 0.06791(8)
O3 O 0.52641(10) 0.21993(8) 0.05563(8)
O4 O 0.50412(12) 0.35330(9) 0.21713(10)
N1 N 1.04243(14) 0.26737(10) 0.53015(11)
N2 N 0.97002(15) 0.28416(10) 0.43821(12)
N3 N 0.87990(12) 0.20995(9) 0.42554(10)
C1 C 0.99936(14) 0.18350(11) 0.57479(12)
C2 C 1.05225(17) 0.13570(13) 0.67809(13)
H1 H 1.1508 0.1298 0.6733
H2 H 1.0318 0.1756 0.7430
C3 C 0.88203(15) 0.01072(12) 0.63724(13)
C4 C 0.82644(18) -0.07469(13) 0.67524(15)
H3 H 0.8639 -0.1053 0.7381
C5 C 0.71561(19) -0.11470(14) 0.62028(15)
H4 H 0.6795 -0.1728 0.6456
C6 C 0.65776(19) -0.06936(14) 0.52807(15)
H5 H 0.5824 -0.0965 0.4917
C7 C 0.71224(17) 0.01650(13) 0.48999(13)
H6 H 0.6721 0.0474 0.4285
C8 C 0.82620(14) 0.05745(11) 0.54213(11)
C9 C 0.89574(14) 0.14570(10) 0.51104(11)
C10 C 0.78818(14) 0.21107(10) 0.32967(11)
C11 C 0.80074(14) 0.14120(10) 0.24719(11)
H7 H 0.8671 0.0934 0.2531
C12 C 0.71170(14) 0.14424(10) 0.15522(11)
C13 C 0.61197(14) 0.21583(10) 0.14796(11)
C14 C 0.60416(15) 0.28615(11) 0.23196(12)
C15 C 0.69307(15) 0.28395(11) 0.32385(12)
H8 H 0.6884 0.3306 0.3800
C16 C 0.82424(17) 0.01393(13) 0.06312(15)
H9 H 0.8135 -0.0268 -0.0018
H10 H 0.8255 -0.0251 0.1300
H11 H 0.9085 0.0490 0.0580
C17 C 0.39346(18) 0.18296(17) 0.07400(17)
H12 H 0.3403 0.1883 0.0059
H13 H 0.3504 0.2192 0.1328
H14 H 0.3996 0.1163 0.0958
C18 C 0.5072(2) 0.43554(14) 0.28770(17)
H15 H 0.4316 0.4769 0.2692
H16 H 0.5913 0.4699 0.2769
H17 H 0.5009 0.4156 0.3650
loop_
_geom_bond_atom_site_label_1
_geom_bond_atom_site_label_2
_geom_bond_site_symmetry_1
_geom_bond_site_symmetry_2
O1 C2 1_555 1_555
O2 C12 1_555 1_555
O3 C13 1_555 1_555
O4 C14 1_555 1_555
N1 N2 1_555 1_555
N2 N3 1_555 1_555
N3 C9 1_555 1_555
C1 N1 1_555 1_555
C2 C1 1_555 1_555
H1 C2 1_555 1_555
H2 C2 1_555 1_555
C3 O1 1_555 1_555
C4 C3 1_555 1_555
H3 C4 1_555 1_555
C5 C4 1_555 1_555
H4 C5 1_555 1_555
C6 C5 1_555 1_555
H5 C6 1_555 1_555
C7 C6 1_555 1_555
H6 C7 1_555 1_555
C8 C3 1_555 1_555
C9 C1 1_555 1_555
C10 N3 1_555 1_555
C11 C10 1_555 1_555
H7 C11 1_555 1_555
C12 C11 1_555 1_555
C13 C12 1_555 1_555
C14 C13 1_555 1_555
C15 C10 1_555 1_555
H8 C15 1_555 1_555
C16 O2 1_555 1_555
H9 C16 1_555 1_555
H10 C16 1_555 1_555
H11 C16 1_555 1_555
C17 O3 1_555 1_555
H12 C17 1_555 1_555
H13 C17 1_555 1_555
H14 C17 1_555 1_555
C18 O4 1_555 1_555
H15 C18 1_555 1_555
H16 C18 1_555 1_555
H17 C18 1_555 1_555
C7 C8 1_555 1_555
C8 C9 1_555 1_555
C14 C15 1_555 1_555

#END
