
#######################################################################
#
#                 Cambridge Crystallographic Data Centre
#                                CCDC 
#
#######################################################################
#
# If this CIF has been generated from an entry in the Cambridge 
# Structural Database, then it will include bibliographic, chemical, 
# crystal, experimental, refinement or atomic coordinate data resulting 
# from the CCDC's data processing and validation procedures.
#
#######################################################################

data_WELMEF
_chemical_formula_moiety         'C10 H13 N5 O5'
_chemical_name_systematic        4'-Azidothymidine
_chemical_properties_biological  'potent HIV-inhibitory activity'
_symmetry_cell_setting           monoclinic
_symmetry_space_group_name_H-M   'P 21'
_symmetry_Int_Tables_number      4
_space_group_name_Hall           'P 2yb'
loop_
_symmetry_equiv_pos_site_id
_symmetry_equiv_pos_as_xyz
1 x,y,z
2 -x,1/2+y,-z
_cell_length_a                   7.188(2)
_cell_length_b                   22.804(7)
_cell_length_c                   8.042(2)
_cell_angle_alpha                90
_cell_angle_beta                 109.91(2)
_cell_angle_gamma                90
_cell_volume                     1239.41
_exptl_crystal_colour            colorless
_cell_formula_units_Z            4
loop_
_atom_site_label
_atom_site_type_symbol
_atom_site_fract_x
_atom_site_fract_y
_atom_site_fract_z
N1 N 1.1014(4) 0.3122 0.9996(3)
N2 N 1.0890(4) 0.2113(2) 0.9517(3)
N3 N 1.0305(5) 0.4717(2) 1.3083(4)
N4 N 1.0311(5) 0.4518(2) 1.4511(4)
N5 N 1.0449(9) 0.4376(3) 1.5866(5)
O1 O 1.2287(4) 0.2478(2) 1.2302(3)
O2 O 0.9455(5) 0.1704(2) 0.6852(4)
O3 O 1.0058(3) 0.3746(1) 1.1914(3)
O4 O 1.0287(3) 0.5147(2) 0.9923(3)
O5 O 0.6213(3) 0.3969(2) 0.9617(3)
C1 C 1.1456(5) 0.2559(2) 1.0720(4)
C2 C 0.9870(5) 0.2153(2) 0.7737(4)
C3 C 0.9355(5) 0.2745(2) 0.7067(4)
C4 C 0.9938(5) 0.3188(2) 0.8211(4)
C5 C 0.8287(6) 0.2829(2) 0.5109(5)
C6 C 1.1619(4) 0.3620(2) 1.1230(4)
C7 C 1.2011(4) 0.4187(2) 1.0415(4)
C8 C 1.0107(4) 0.4533(2) 1.0044(4)
C9 C 0.9379(4) 0.4329(2) 1.1537(4)
C10 C 0.7157(5) 0.4330(2) 1.1087(4)
H1 H 1.1230 0.1749 0.9942
H2 H 1.1583 0.5287 1.0629
H3 H 0.6313 0.3615 0.9964
H4 H 0.9605 0.3579 0.7768
H5 H 0.7036 0.2630 0.4757
H6 H 0.9068 0.2678 0.4445
H7 H 0.8074 0.3241 0.4886
H8 H 1.2791 0.3512 1.2188
H9 H 1.3104 0.4395 1.1230
H10 H 1.2289 0.4115 0.9347
H11 H 0.9180 0.4397 0.8943
H12 H 0.6674 0.4724 1.0810
H13 H 0.6836 0.4200 1.2092
N6 N 0.4345(4) 0.1406(2) 0.6962(3)
N7 N 0.6043(4) 0.1787(2) 0.9731(4)
O6 O 0.6051(4) 0.0799(2) 0.9216(3)
O7 O 0.2494(3) 0.1019(2) 0.1009(3)
O8 O 0.6265(5) 0.2758(2) 1.0312(3)
O9 O 0.5496(3) 0.0670(2) 0.5507(3)
O10 O 0.7521(3) 0.1398(1) 0.3418(3)
C11 C 0.5530(5) 0.1294(2) 0.8698(4)
C12 C 0.5657(5) 0.2360(2) 0.9214(4)
C13 C 0.3944(5) 0.1972(2) 0.6350(4)
N8 N 0.4562(5) 0.0058(2) 0.2919(3)
N9 N 0.4656(4) -0.0321(2) 0.4008(4)
N10 N 0.4686(8) -0.0700(2) 0.4922(5)
C14 C 0.4534(5) 0.2448(2) 0.7361(4)
C15 C 0.4095(5) 0.3059(2) 0.6649(5)
C16 C 0.3761(4) 0.0883(2) 0.5831(4)
C17 C 0.2232(5) 0.0985(2) 0.4011(4)
C18 C 0.3469(4) 0.1082(2) 0.2859(4)
C19 C 0.5185(4) 0.0655(2) 0.3674(4)
C20 C 0.7136(5) 0.0792(2) 0.3393(4)
H14 H 0.6736 0.1727 1.0883
H15 H 0.1659 0.0741 0.0830
H16 H 0.8128 0.1505 0.4478
H17 H 0.3176 0.2025 0.5123
H18 H 0.5312 0.3267 0.6845
H19 H 0.3332 0.3254 0.7259
H20 H 0.3355 0.3049 0.5405
H21 H 0.3304 0.0587 0.6450
H22 H 0.1384 0.0651 0.3608
H23 H 0.1439 0.1322 0.4019
H24 H 0.3988 0.1473 0.3071
H25 H 0.7108 0.0635 0.2276
H26 H 0.8188 0.0602 0.4307
loop_
_geom_bond_atom_site_label_1
_geom_bond_atom_site_label_2
_geom_bond_site_symmetry_1
_geom_bond_site_symmetry_2
N1 C1 1_555 1_555
N2 C1 1_555 1_555
N3 N4 1_555 1_555
N4 N5 1_555 1_555
O1 C1 1_555 1_555
O2 C2 1_555 1_555
O3 C6 1_555 1_555
O4 C8 1_555 1_555
O5 C10 1_555 1_555
C2 N2 1_555 1_555
C3 C2 1_555 1_555
C4 N1 1_555 1_555
C5 C3 1_555 1_555
C6 N1 1_555 1_555
C7 C6 1_555 1_555
C8 C7 1_555 1_555
C9 N3 1_555 1_555
C10 C9 1_555 1_555
N6 C11 1_555 1_555
N7 C11 1_555 1_555
O6 C11 1_555 1_555
O7 C18 1_555 1_555
O8 C12 1_555 1_555
O9 C16 1_555 1_555
O10 C20 1_555 1_555
C12 N7 1_555 1_555
C13 N6 1_555 1_555
N8 N9 1_555 1_555
N9 N10 1_555 1_555
C14 C12 1_555 1_555
C15 C14 1_555 1_555
C16 N6 1_555 1_555
C17 C16 1_555 1_555
C18 C17 1_555 1_555
C19 O9 1_555 1_555
C20 C19 1_555 1_555
H1 N2 1_555 1_555
H2 O4 1_555 1_555
H3 O5 1_555 1_555
H4 C4 1_555 1_555
H5 C5 1_555 1_555
H6 C5 1_555 1_555
H7 C5 1_555 1_555
H8 C6 1_555 1_555
H9 C7 1_555 1_555
H10 C7 1_555 1_555
H11 C8 1_555 1_555
H12 C10 1_555 1_555
H13 C10 1_555 1_555
H14 N7 1_555 1_555
H15 O7 1_555 1_555
H16 O10 1_555 1_555
H17 C13 1_555 1_555
H18 C15 1_555 1_555
H19 C15 1_555 1_555
H20 C15 1_555 1_555
H21 C16 1_555 1_555
H22 C17 1_555 1_555
H23 C17 1_555 1_555
H24 C18 1_555 1_555
H25 C20 1_555 1_555
H26 C20 1_555 1_555
O3 C9 1_555 1_555
C3 C4 1_555 1_555
C8 C9 1_555 1_555
C13 C14 1_555 1_555
N8 C19 1_555 1_555
C18 C19 1_555 1_555

#END
