
#######################################################################
#
#                 Cambridge Crystallographic Data Centre
#                                CCDC 
#
#######################################################################
#
# If this CIF has been generated from an entry in the Cambridge 
# Structural Database, then it will include bibliographic, chemical, 
# crystal, experimental, refinement or atomic coordinate data resulting 
# from the CCDC's data processing and validation procedures.
#
#######################################################################

data_WELMEI
_chemical_formula_moiety         'C26 H24 N2 O4 S1'
_chemical_name_systematic        
N-[2-(1-methyl-2-oxo-1,2-dihydro-3H-indol-3-ylidene)-2-phenylethyl]-N-[(4-methylphenyl)sulfonyl]acetamide
_symmetry_cell_setting           monoclinic
_symmetry_space_group_name_H-M   'P 21/n'
_symmetry_Int_Tables_number      14
_space_group_name_Hall           '-P 2yn'
loop_
_symmetry_equiv_pos_site_id
_symmetry_equiv_pos_as_xyz
1 x,y,z
2 1/2-x,1/2+y,1/2-z
3 -x,-y,-z
4 1/2+x,1/2-y,1/2+z
_cell_length_a                   14.9482(7)
_cell_length_b                   8.1974(4)
_cell_length_c                   19.0174(8)
_cell_angle_alpha                90
_cell_angle_beta                 99.881(4)
_cell_angle_gamma                90
_cell_volume                     2295.76
_exptl_crystal_colour            colorless
_exptl_crystal_description       block
_cell_formula_units_Z            4
loop_
_atom_site_label
_atom_site_type_symbol
_atom_site_fract_x
_atom_site_fract_y
_atom_site_fract_z
C1 C 0.28987(14) 1.0158(3) -0.01502(11)
C2 C 0.29136(13) 1.0826(2) 0.05934(10)
C3 C 0.15529(15) 1.2161(3) 0.11036(12)
H1 H 0.1869 1.2330 0.1576
C4 C 0.06535(16) 1.2644(3) 0.09149(15)
H2 H 0.0350 1.3127 0.1262
C5 C 0.01982(17) 1.2427(4) 0.02271(16)
H3 H -0.0411 1.2799 0.0104
C6 C 0.06083(16) 1.1680(4) -0.02885(14)
H4 H 0.0290 1.1521 -0.0761
C7 C 0.14935(14) 1.1178(3) -0.00903(12)
C8 C 0.19847(13) 1.1430(3) 0.05973(10)
C9 C 0.17439(17) 0.9922(4) -0.12578(12)
H5 H 0.2249 0.9399 -0.1439
H6 H 0.1548 1.0892 -0.1545
H7 H 0.1236 0.9155 -0.1289
C10 C 0.36484(13) 1.0883(2) 0.11077(10)
C11 C 0.36133(13) 1.1599(2) 0.18263(10)
C12 C 0.37508(16) 1.3247(3) 0.19460(12)
H8 H 0.3857 1.3931 0.1566
C13 C 0.37363(17) 1.3920(3) 0.26109(13)
H9 H 0.3846 1.5053 0.2688
C14 C 0.35637(17) 1.2951(3) 0.31582(12)
H10 H 0.3540 1.3412 0.3613
C15 C 0.34253(19) 1.1320(3) 0.30466(12)
H11 H 0.3305 1.0648 0.3427
C16 C 0.34580(16) 1.0629(3) 0.23856(11)
H12 H 0.3373 0.9488 0.2318
C17 C 0.45752(13) 1.0383(3) 0.09673(10)
H13 H 0.4494 0.9583 0.0571
H14 H 0.4878 1.1354 0.0807
C18 C 0.59846(16) 1.0427(3) 0.19183(12)
C19 C 0.60514(19) 1.2238(3) 0.18445(15)
H15 H 0.6642 1.2612 0.2099
H16 H 0.5565 1.2763 0.2048
H17 H 0.5991 1.2524 0.1338
C20 C 0.58779(14) 0.6739(2) 0.12454(10)
C21 C 0.56345(15) 0.6492(3) 0.05165(11)
H18 H 0.5056 0.6831 0.0272
C22 C 0.62433(17) 0.5746(3) 0.01516(12)
H19 H 0.6079 0.5580 -0.0348
C23 C 0.70832(17) 0.5238(3) 0.04930(13)
C24 C 0.73138(16) 0.5512(3) 0.12195(13)
H20 H 0.7895 0.5183 0.1462
C25 C 0.67180(15) 0.6253(3) 0.16001(11)
H21 H 0.6885 0.6426 0.2099
C26 C 0.77316(19) 0.4374(3) 0.00891(15)
H22 H 0.7456 0.4286 -0.0416
H23 H 0.7860 0.3279 0.0288
H24 H 0.8298 0.4995 0.0133
N1 N 0.20392(12) 1.0398(2) -0.05171(9)
N2 N 0.51787(11) 0.9661(2) 0.15842(8)
O1 O 0.35103(10) 0.9520(2) -0.04033(7)
O2 O 0.41919(10) 0.7265(2) 0.13282(9)
O3 O 0.53007(12) 0.7290(2) 0.24465(8)
O4 O 0.65839(11) 0.9630(2) 0.22617(9)
S1 S 0.50799(4) 0.76438(7) 0.17050(3)
loop_
_geom_bond_atom_site_label_1
_geom_bond_atom_site_label_2
_geom_bond_site_symmetry_1
_geom_bond_site_symmetry_2
C1 C2 1_555 1_555
C2 C8 1_555 1_555
C3 H1 1_555 1_555
C4 C3 1_555 1_555
H2 C4 1_555 1_555
C5 C4 1_555 1_555
H3 C5 1_555 1_555
C6 C5 1_555 1_555
H4 C6 1_555 1_555
C7 C6 1_555 1_555
C8 C3 1_555 1_555
C9 H5 1_555 1_555
H6 C9 1_555 1_555
H7 C9 1_555 1_555
C10 C2 1_555 1_555
C11 C10 1_555 1_555
C12 C11 1_555 1_555
H8 C12 1_555 1_555
C13 C12 1_555 1_555
H9 C13 1_555 1_555
C14 C13 1_555 1_555
H10 C14 1_555 1_555
C15 C14 1_555 1_555
H11 C15 1_555 1_555
C16 C11 1_555 1_555
H12 C16 1_555 1_555
C17 C10 1_555 1_555
H13 C17 1_555 1_555
H14 C17 1_555 1_555
C18 C19 1_555 1_555
C19 H15 1_555 1_555
H16 C19 1_555 1_555
H17 C19 1_555 1_555
C20 C21 1_555 1_555
C21 H18 1_555 1_555
C22 C21 1_555 1_555
H19 C22 1_555 1_555
C23 C22 1_555 1_555
C24 C23 1_555 1_555
H20 C24 1_555 1_555
C25 C20 1_555 1_555
H21 C25 1_555 1_555
C26 C23 1_555 1_555
H22 C26 1_555 1_555
H23 C26 1_555 1_555
H24 C26 1_555 1_555
N1 C1 1_555 1_555
N2 C17 1_555 1_555
O1 C1 1_555 1_555
O2 S1 1_555 1_555
O3 S1 1_555 1_555
O4 C18 1_555 1_555
S1 C20 1_555 1_555
C7 C8 1_555 1_555
C7 N1 1_555 1_555
C9 N1 1_555 1_555
C15 C16 1_555 1_555
C18 N2 1_555 1_555
C24 C25 1_555 1_555
N2 S1 1_555 1_555

#END
