
#######################################################################
#
#                 Cambridge Crystallographic Data Centre
#                                CCDC 
#
#######################################################################
#
# If this CIF has been generated from an entry in the Cambridge 
# Structural Database, then it will include bibliographic, chemical, 
# crystal, experimental, refinement or atomic coordinate data resulting 
# from the CCDC's data processing and validation procedures.
#
#######################################################################

data_WELTIT
_chemical_formula_moiety         'C24 H20 N2 O3 S1'
_chemical_name_systematic        
4-methyl-N-(2-(1-methyl-2-oxo-1,2-dihydro-3H-indol-3-ylidene)-2-phenylethylidene)benzenesulfonamide
_symmetry_cell_setting           monoclinic
_symmetry_space_group_name_H-M   'P 21/c'
_symmetry_Int_Tables_number      14
_space_group_name_Hall           '-P 2ybc'
loop_
_symmetry_equiv_pos_site_id
_symmetry_equiv_pos_as_xyz
1 x,y,z
2 -x,1/2+y,1/2-z
3 -x,-y,-z
4 x,1/2-y,1/2+z
_cell_length_a                   9.1948(8)
_cell_length_b                   10.5329(9)
_cell_length_c                   22.9037(15)
_cell_angle_alpha                90
_cell_angle_beta                 109.209(6)
_cell_angle_gamma                90
_cell_volume                     2094.68
_exptl_crystal_colour            yellow
_exptl_crystal_description       sheet
_chemical_melting_point          '159-161 deg.C'
_cell_formula_units_Z            4
loop_
_atom_site_label
_atom_site_type_symbol
_atom_site_fract_x
_atom_site_fract_y
_atom_site_fract_z
C1 C 0.2172(14) 0.4023(11) -0.0046(5)
C2 C 0.2721(13) 0.5386(11) 0.0070(5)
C3 C 0.3856(13) 0.6811(11) -0.0622(5)
H1 H 0.4104 0.7507 -0.0357
C4 C 0.4154(16) 0.6827(14) -0.1176(6)
H2 H 0.4588 0.7547 -0.1286
C5 C 0.3815(15) 0.5786(14) -0.1568(6)
H3 H 0.4011 0.5825 -0.1941
C6 C 0.3193(14) 0.4692(13) -0.1416(6)
H4 H 0.2973 0.3993 -0.1679
C7 C 0.2911(12) 0.4670(11) -0.0868(5)
C8 C 0.3172(12) 0.5727(10) -0.0466(5)
C9 C 0.1752(17) 0.2466(12) -0.0914(6)
H5 H 0.2626 0.1913 -0.0831
H6 H 0.1309 0.2595 -0.1352
H7 H 0.0999 0.2089 -0.0760
C10 C 0.2681(12) 0.6098(10) 0.0556(5)
C11 C 0.2913(12) 0.7500(10) 0.0567(5)
C12 C 0.4174(15) 0.8081(12) 0.0985(6)
H8 H 0.4914 0.7599 0.1275
C13 C 0.4330(17) 0.9405(13) 0.0968(6)
H9 H 0.5155 0.9799 0.1262
C14 C 0.3290(18) 1.0130(13) 0.0526(7)
H10 H 0.3436 1.1001 0.0505
C15 C 0.2041(17) 0.9553(13) 0.0119(7)
H11 H 0.1316 1.0041 -0.0174
C16 C 0.1827(15) 0.8249(11) 0.0131(6)
H12 H 0.0963 0.7874 -0.0150
C17 C 0.2370(13) 0.5493(11) 0.1076(5)
H13 H 0.2178 0.4625 0.1066
C18 C 0.1854(14) 0.3836(13) 0.2030(5)
C19 C 0.3092(15) 0.3054(15) 0.2196(6)
H14 H 0.4072 0.3395 0.2374
C20 C 0.2920(16) 0.1728(14) 0.2106(6)
H15 H 0.3773 0.1195 0.2229
C21 C 0.1461(18) 0.1240(13) 0.1830(6)
C22 C 0.0201(16) 0.2037(14) 0.1670(6)
H16 H -0.0779 0.1694 0.1497
C23 C 0.0362(15) 0.3352(15) 0.1763(6)
H17 H -0.0492 0.3885 0.1650
C24 C 0.123(2) -0.0180(16) 0.1726(8)
H18 H 0.0878 -0.0539 0.2039
H19 H 0.2195 -0.0566 0.1746
H20 H 0.0487 -0.0333 0.1326
N1 N 0.2247(12) 0.3703(9) -0.0605(4)
N2 N 0.2360(13) 0.6156(10) 0.1548(4)
O1 O 0.1683(11) 0.3325(8) 0.0275(4)
O2 O 0.3465(12) 0.5739(10) 0.2653(4)
O3 O 0.0621(11) 0.5967(10) 0.2173(4)
S1 S 0.2072(4) 0.5486(4) 0.21552(14)
loop_
_geom_bond_atom_site_label_1
_geom_bond_atom_site_label_2
_geom_bond_site_symmetry_1
_geom_bond_site_symmetry_2
C1 C2 1_555 1_555
C2 C8 1_555 1_555
C3 H1 1_555 1_555
C4 C3 1_555 1_555
H2 C4 1_555 1_555
C5 C4 1_555 1_555
H3 C5 1_555 1_555
C6 C5 1_555 1_555
H4 C6 1_555 1_555
C7 C6 1_555 1_555
C8 C3 1_555 1_555
C9 H5 1_555 1_555
H6 C9 1_555 1_555
H7 C9 1_555 1_555
C10 C2 1_555 1_555
C11 C10 1_555 1_555
C12 C11 1_555 1_555
H8 C12 1_555 1_555
C13 C12 1_555 1_555
H9 C13 1_555 1_555
C14 C13 1_555 1_555
H10 C14 1_555 1_555
C15 C14 1_555 1_555
H11 C15 1_555 1_555
C16 C11 1_555 1_555
H12 C16 1_555 1_555
C17 C10 1_555 1_555
H13 C17 1_555 1_555
C18 C19 1_555 1_555
C19 H14 1_555 1_555
C20 C19 1_555 1_555
H15 C20 1_555 1_555
C21 C20 1_555 1_555
C22 C21 1_555 1_555
H16 C22 1_555 1_555
C23 C18 1_555 1_555
H17 C23 1_555 1_555
C24 C21 1_555 1_555
H18 C24 1_555 1_555
H19 C24 1_555 1_555
H20 C24 1_555 1_555
N1 C1 1_555 1_555
N2 C17 1_555 1_555
O1 C1 1_555 1_555
O2 S1 1_555 1_555
O3 S1 1_555 1_555
S1 C18 1_555 1_555
C7 C8 1_555 1_555
C7 N1 1_555 1_555
C9 N1 1_555 1_555
C15 C16 1_555 1_555
C22 C23 1_555 1_555
N2 S1 1_555 1_555

#END
