
#######################################################################
#
#                 Cambridge Crystallographic Data Centre
#                                CCDC 
#
#######################################################################
#
# If this CIF has been generated from an entry in the Cambridge 
# Structural Database, then it will include bibliographic, chemical, 
# crystal, experimental, refinement or atomic coordinate data resulting 
# from the CCDC's data processing and validation procedures.
#
#######################################################################

data_WELXUI
_chemical_formula_moiety         'C36 H33 N7 O6,O4 S1 2-,2(C16 H36 N1 1+)'
_chemical_name_systematic        
"bis(tetra-n-butylammonium) sulfate 3,3',3''-(nitrilotris(ethane-2,1-diylimino))tris(4-anilinocyclobut-3-ene-1,2-dione)"
_symmetry_cell_setting           triclinic
_symmetry_space_group_name_H-M   'P -1'
_symmetry_Int_Tables_number      2
_space_group_name_Hall           '-P 1'
loop_
_symmetry_equiv_pos_site_id
_symmetry_equiv_pos_as_xyz
1 x,y,z
2 -x,-y,-z
_cell_length_a                   12.9919(11)
_cell_length_b                   14.4679(12)
_cell_length_c                   19.3290(13)
_cell_angle_alpha                94.8590(10)
_cell_angle_beta                 96.631(2)
_cell_angle_gamma                94.2570(10)
_cell_volume                     3582.93
_cell_formula_units_Z            2
loop_
_atom_site_label
_atom_site_type_symbol
_atom_site_fract_x
_atom_site_fract_y
_atom_site_fract_z
C1 C 0.10582(16) 0.38140(12) 0.48958(10)
H1 H 0.1313 0.4309 0.4635
H2 H 0.1086 0.4061 0.5381
C2 C -0.00448(15) 0.35043(13) 0.46113(10)
H3 H -0.0318 0.3050 0.4899
H4 H -0.0459 0.4034 0.4636
C3 C 0.00316(13) 0.36123(12) 0.33711(10)
C4 C 0.01267(17) 0.46111(14) 0.33008(12)
C5 C 0.02271(17) 0.43896(14) 0.25422(12)
C6 C 0.01635(15) 0.34017(13) 0.26636(10)
C7 C 0.05861(18) 0.24535(15) 0.16320(12)
C8 C 0.1303(2) 0.30701(18) 0.14284(14)
H5 H 0.1519 0.3618 0.1712
C9 C 0.1721(2) 0.28999(18) 0.08082(14)
H6 H 0.2208 0.3331 0.0672
C10 C 0.1400(3) 0.2070(2) 0.03893(15)
H7 H 0.1671 0.1942 -0.0030
C11 C 0.0690(3) 0.1452(2) 0.05995(16)
H8 H 0.0485 0.0894 0.0326
C12 C 0.0267(2) 0.16419(16) 0.12157(14)
H9 H -0.0233 0.1221 0.1348
C13 C 0.27805(15) 0.33718(13) 0.47362(10)
H10 H 0.3256 0.2924 0.4892
H11 H 0.2992 0.3963 0.5010
C14 C 0.28395(15) 0.34839(12) 0.39743(10)
H12 H 0.2362 0.3929 0.3817
H13 H 0.3537 0.3721 0.3911
C15 C 0.30396(13) 0.23590(13) 0.29940(9)
C16 C 0.38578(16) 0.28210(14) 0.26479(11)
C17 C 0.37600(15) 0.19963(14) 0.21264(11)
C18 C 0.29413(13) 0.15899(13) 0.25058(10)
C19 C 0.23083(15) 0.00443(13) 0.19301(9)
C20 C 0.32450(16) -0.02327(14) 0.17296(10)
H14 H 0.3873 0.0089 0.1922
C21 C 0.3230(2) -0.09857(15) 0.12455(12)
H15 H 0.3849 -0.1185 0.1113
C22 C 0.2295(2) -0.14422(16) 0.09584(12)
H16 H 0.2286 -0.1936 0.0616
C23 C 0.1372(2) -0.11885(16) 0.11642(12)
H17 H 0.0746 -0.1516 0.0973
C24 C 0.13849(16) -0.04401(14) 0.16583(11)
H18 H 0.0766 -0.0265 0.1807
C25 C 0.16958(16) 0.25197(12) 0.54571(9)
H19 H 0.1003 0.2506 0.5598
H20 H 0.2176 0.2830 0.5843
C26 C 0.19765(15) 0.15272(12) 0.53137(9)
H21 H 0.1461 0.1193 0.4959
H22 H 0.2646 0.1533 0.5138
C27 C 0.28249(13) 0.12455(11) 0.64521(9)
C28 C 0.38409(14) 0.17683(13) 0.64855(10)
C29 C 0.40536(15) 0.15630(14) 0.72335(11)
C30 C 0.30326(14) 0.10326(12) 0.71488(9)
C31 C 0.27861(16) 0.03048(14) 0.82177(10)
C32 C 0.20604(19) 0.01512(17) 0.86676(12)
H23 H 0.1363 0.0230 0.8538
C33 C 0.2402(3) -0.0130(2) 0.93324(15)
H24 H 0.1932 -0.0200 0.9656
C34 C 0.3407(3) -0.0298(2) 0.95021(14)
H25 H 0.3616 -0.0496 0.9938
C35 C 0.4116(2) -0.0181(2) 0.90429(14)
H26 H 0.4804 -0.0301 0.9163
C36 C 0.38064(18) 0.01152(18) 0.84019(12)
H27 H 0.4288 0.0190 0.8086
N1 N 0.17262(11) 0.30556(9) 0.48522(7)
N2 N -0.01400(12) 0.30943(11) 0.38869(8)
H100 H -0.0310 0.2507 0.3794
N3 N 0.01774(13) 0.25786(11) 0.22752(9)
H101 H -0.0086 0.2089 0.2435
N4 N 0.25742(12) 0.25944(11) 0.35620(8)
H102 H 0.2108 0.2208 0.3684
N5 N 0.22941(12) 0.08068(11) 0.24328(8)
H103 H 0.1833 0.0769 0.2717
N6 N 0.20202(12) 0.10518(10) 0.59556(8)
H104 H 0.1525 0.0647 0.6011
N7 N 0.24323(12) 0.05661(10) 0.75532(8)
H105 H 0.1790 0.0419 0.7393
O1 O 0.01261(15) 0.53044(10) 0.36982(8)
O2 O 0.03038(16) 0.48476(11) 0.20457(9)
O3 O 0.43843(13) 0.35637(11) 0.27467(9)
O4 O 0.41595(12) 0.17840(11) 0.16007(8)
O5 O 0.43104(10) 0.21886(10) 0.60826(8)
O6 O 0.47507(12) 0.17749(12) 0.77049(9)
C37 C 0.75136(16) 0.14321(13) 0.64330(11)
H28 H 0.7841 0.1357 0.6008
H29 H 0.7922 0.1130 0.6786
C38 C 0.64751(17) 0.09249(15) 0.62973(12)
H30 H 0.6001 0.1303 0.6045
H31 H 0.6221 0.0827 0.6740
C39 C 0.6472(2) -0.00017(16) 0.58803(14)
H32 H 0.6619 0.0112 0.5413
H33 H 0.7039 -0.0325 0.6091
C40 C 0.5516(2) -0.06236(19) 0.58179(19)
H34 H 0.5376 -0.0772 0.6275
H35 H 0.5599 -0.1186 0.5536
H36 H 0.4946 -0.0320 0.5602
C41 C 0.70171(18) 0.29984(17) 0.61094(12)
H37 H 0.6277 0.2843 0.6103
H38 H 0.7152 0.3660 0.6252
C42 C 0.7274(2) 0.28300(19) 0.53888(13)
H39 H 0.6967 0.2220 0.5190
H40 H 0.8022 0.2832 0.5399
C43 C 0.6884(3) 0.3558(2) 0.49251(16)
H41 H 0.7195 0.4166 0.5127
H42 H 0.7120 0.3441 0.4470
C44 C 0.5743(2) 0.3586(2) 0.48258(17)
H43 H 0.5417 0.2963 0.4784
H44 H 0.5542 0.3876 0.4408
H45 H 0.5529 0.3936 0.5221
C45 C 0.71027(16) 0.26190(14) 0.73335(11)
H46 H 0.7438 0.2254 0.7678
H47 H 0.6377 0.2381 0.7240
C46 C 0.71581(19) 0.36261(15) 0.76492(13)
H48 H 0.7881 0.3862 0.7770
H49 H 0.6842 0.4003 0.7305
C47 C 0.6609(2) 0.37099(17) 0.82924(14)
H50 H 0.5892 0.3459 0.8170
H51 H 0.6933 0.3335 0.8635
C48 C 0.6625(3) 0.4687(2) 0.86173(17)
H52 H 0.7204 0.4811 0.8977
H53 H 0.5990 0.4765 0.8817
H54 H 0.6690 0.5112 0.8266
C49 C 0.87413(15) 0.28203(15) 0.67681(11)
H55 H 0.9036 0.2616 0.6348
H56 H 0.8791 0.3495 0.6807
C50 C 0.93946(16) 0.25206(15) 0.73803(12)
H57 H 0.9301 0.1848 0.7372
H58 H 0.9161 0.2785 0.7807
C51 C 1.05261(17) 0.28125(18) 0.73881(14)
H59 H 1.0602 0.3466 0.7309
H60 H 1.0784 0.2462 0.7004
C52 C 1.1184(2) 0.2674(2) 0.80555(15)
H61 H 1.1066 0.3138 0.8416
H62 H 1.1905 0.2728 0.7985
H63 H 1.1003 0.2066 0.8193
N8 N 0.75923(12) 0.24706(10) 0.66716(8)
C53 C 0.36325(18) 0.56267(16) 0.80886(13)
H64 H 0.4180 0.5930 0.7866
H65 H 0.3956 0.5218 0.8406
C54 C 0.2897(3) 0.5032(2) 0.75269(16)
H66 H 0.2661 0.5414 0.7161
H67 H 0.2292 0.4796 0.7729
C55 C 0.3427(3) 0.4209(3) 0.72067(19)
H68 H 0.3806 0.3916 0.7579
H69 H 0.2900 0.3751 0.6959
C56 C 0.4154(3) 0.4510(3) 0.6718(2)
H70 H 0.3771 0.4741 0.6323
H71 H 0.4513 0.3990 0.6560
H72 H 0.4649 0.4994 0.6953
C57 C 0.25921(16) 0.70053(17) 0.80566(13)
H73 H 0.2303 0.7471 0.8351
H74 H 0.2014 0.6643 0.7770
C58 C 0.32480(18) 0.75039(18) 0.75749(14)
H75 H 0.3744 0.7961 0.7854
H76 H 0.3638 0.7055 0.7337
C59 C 0.2614(2) 0.7976(2) 0.70469(15)
H77 H 0.2191 0.8390 0.7289
H78 H 0.2146 0.7508 0.6755
C60 C 0.3212(3) 0.8523(2) 0.65872(16)
H79 H 0.3562 0.9070 0.6853
H80 H 0.2745 0.8702 0.6210
H81 H 0.3715 0.8149 0.6401
C61 C 0.23471(17) 0.58906(16) 0.89137(13)
H82 H 0.1778 0.5611 0.8573
H83 H 0.2668 0.5387 0.9133
C62 C 0.18947(18) 0.64610(17) 0.94625(14)
H84 H 0.1552 0.6962 0.9254
H85 H 0.2447 0.6737 0.9817
C63 C 0.1110(2) 0.5864(2) 0.98038(16)
H86 H 0.0547 0.5620 0.9446
H87 H 0.1450 0.5336 0.9971
C64 C 0.0660(3) 0.6324(2) 1.0383(2)
H88 H 0.1181 0.6449 1.0781
H89 H 0.0093 0.5927 1.0500
H90 H 0.0410 0.6898 1.0248
C65 C 0.39746(17) 0.69558(15) 0.90028(12)
H91 H 0.3649 0.7457 0.9235
H92 H 0.4456 0.7239 0.8718
C66 C 0.4601(2) 0.64898(19) 0.95594(13)
H93 H 0.4134 0.6163 0.9831
H94 H 0.5004 0.6037 0.9339
C67 C 0.5317(2) 0.7190(2) 1.00348(16)
H95 H 0.5743 0.7541 0.9751
H96 H 0.4899 0.7624 1.0262
C68 C 0.6019(3) 0.6809(3) 1.05865(19)
H97 H 0.5611 0.6533 1.0911
H98 H 0.6493 0.7303 1.0830
H99 H 0.6404 0.6345 1.0374
N9 N 0.31436(12) 0.63714(12) 0.85193(9)
O7 O 0.1069(5) 0.0643(6) 0.3512(5)
O8 O -0.0424(2) 0.0677(3) 0.26924(15)
O9 O -0.0186(3) -0.03577(18) 0.3526(2)
O10 O -0.0487(2) 0.1152(2) 0.39256(12)
S1 S 0.0061(3) 0.0562(3) 0.3407(2)
O11? O 0.1177(9) 0.1038(7) 0.3489(7)
O12? O -0.0426(4) 0.1235(4) 0.3077(4)
O13? O -0.0294(3) -0.0208(4) 0.2849(3)
O14? O -0.0365(3) 0.0305(3) 0.4019(2)
S2? S 0.0019(6) 0.0564(5) 0.3408(4)
loop_
_geom_bond_atom_site_label_1
_geom_bond_atom_site_label_2
_geom_bond_site_symmetry_1
_geom_bond_site_symmetry_2
C1 H1 1_555 1_555
H2 C1 1_555 1_555
C2 C1 1_555 1_555
H3 C2 1_555 1_555
H4 C2 1_555 1_555
C3 C4 1_555 1_555
C4 C5 1_555 1_555
C5 C6 1_555 1_555
C6 C3 1_555 1_555
C7 C8 1_555 1_555
C8 H5 1_555 1_555
C9 C8 1_555 1_555
H6 C9 1_555 1_555
C10 C9 1_555 1_555
H7 C10 1_555 1_555
C11 C10 1_555 1_555
H8 C11 1_555 1_555
C12 C7 1_555 1_555
H9 C12 1_555 1_555
C13 H10 1_555 1_555
H11 C13 1_555 1_555
C14 C13 1_555 1_555
H12 C14 1_555 1_555
H13 C14 1_555 1_555
C15 C16 1_555 1_555
C16 C17 1_555 1_555
C17 C18 1_555 1_555
C18 C15 1_555 1_555
C19 C20 1_555 1_555
C20 H14 1_555 1_555
C21 C20 1_555 1_555
H15 C21 1_555 1_555
C22 C21 1_555 1_555
H16 C22 1_555 1_555
C23 C22 1_555 1_555
H17 C23 1_555 1_555
C24 C19 1_555 1_555
H18 C24 1_555 1_555
C25 H19 1_555 1_555
H20 C25 1_555 1_555
C26 C25 1_555 1_555
H21 C26 1_555 1_555
H22 C26 1_555 1_555
C27 C28 1_555 1_555
C28 C29 1_555 1_555
C29 C30 1_555 1_555
C30 C27 1_555 1_555
C31 C32 1_555 1_555
C32 H23 1_555 1_555
C33 C32 1_555 1_555
H24 C33 1_555 1_555
C34 C33 1_555 1_555
H25 C34 1_555 1_555
C35 C34 1_555 1_555
H26 C35 1_555 1_555
C36 C31 1_555 1_555
H27 C36 1_555 1_555
C37 H28 1_555 1_555
H29 C37 1_555 1_555
C38 C37 1_555 1_555
H30 C38 1_555 1_555
H31 C38 1_555 1_555
C39 C38 1_555 1_555
H32 C39 1_555 1_555
H33 C39 1_555 1_555
C40 C39 1_555 1_555
H34 C40 1_555 1_555
H35 C40 1_555 1_555
H36 C40 1_555 1_555
C41 H37 1_555 1_555
H38 C41 1_555 1_555
C42 C41 1_555 1_555
H39 C42 1_555 1_555
H40 C42 1_555 1_555
C43 C42 1_555 1_555
H41 C43 1_555 1_555
H42 C43 1_555 1_555
C44 C43 1_555 1_555
H43 C44 1_555 1_555
H44 C44 1_555 1_555
H45 C44 1_555 1_555
C45 H46 1_555 1_555
H47 C45 1_555 1_555
C46 C45 1_555 1_555
H48 C46 1_555 1_555
H49 C46 1_555 1_555
C47 C46 1_555 1_555
H50 C47 1_555 1_555
H51 C47 1_555 1_555
C48 C47 1_555 1_555
H52 C48 1_555 1_555
H53 C48 1_555 1_555
H54 C48 1_555 1_555
C49 H55 1_555 1_555
H56 C49 1_555 1_555
C50 C49 1_555 1_555
H57 C50 1_555 1_555
H58 C50 1_555 1_555
C51 C50 1_555 1_555
H59 C51 1_555 1_555
H60 C51 1_555 1_555
C52 C51 1_555 1_555
H61 C52 1_555 1_555
H62 C52 1_555 1_555
H63 C52 1_555 1_555
C53 H64 1_555 1_555
H65 C53 1_555 1_555
C54 C53 1_555 1_555
H66 C54 1_555 1_555
H67 C54 1_555 1_555
C55 C54 1_555 1_555
H68 C55 1_555 1_555
H69 C55 1_555 1_555
C56 C55 1_555 1_555
H70 C56 1_555 1_555
H71 C56 1_555 1_555
H72 C56 1_555 1_555
C57 H73 1_555 1_555
H74 C57 1_555 1_555
C58 C57 1_555 1_555
H75 C58 1_555 1_555
H76 C58 1_555 1_555
C59 C58 1_555 1_555
H77 C59 1_555 1_555
H78 C59 1_555 1_555
C60 C59 1_555 1_555
H79 C60 1_555 1_555
H80 C60 1_555 1_555
H81 C60 1_555 1_555
C61 H82 1_555 1_555
H83 C61 1_555 1_555
C62 C61 1_555 1_555
H84 C62 1_555 1_555
H85 C62 1_555 1_555
C63 C62 1_555 1_555
H86 C63 1_555 1_555
H87 C63 1_555 1_555
C64 C63 1_555 1_555
H88 C64 1_555 1_555
H89 C64 1_555 1_555
H90 C64 1_555 1_555
C65 H91 1_555 1_555
H92 C65 1_555 1_555
C66 C65 1_555 1_555
H93 C66 1_555 1_555
H94 C66 1_555 1_555
C67 C66 1_555 1_555
H95 C67 1_555 1_555
H96 C67 1_555 1_555
C68 C67 1_555 1_555
H97 C68 1_555 1_555
H98 C68 1_555 1_555
H99 C68 1_555 1_555
N1 C1 1_555 1_555
N2 C2 1_555 1_555
H100 N2 1_555 1_555
N3 C6 1_555 1_555
H101 N3 1_555 1_555
N4 C14 1_555 1_555
H102 N4 1_555 1_555
N5 C18 1_555 1_555
H103 N5 1_555 1_555
N6 C26 1_555 1_555
H104 N6 1_555 1_555
N7 C30 1_555 1_555
H105 N7 1_555 1_555
N8 C37 1_555 1_555
N9 C53 1_555 1_555
O1 C4 1_555 1_555
O2 C5 1_555 1_555
O3 C16 1_555 1_555
O4 C17 1_555 1_555
O5 C28 1_555 1_555
O6 C29 1_555 1_555
O7 S1 1_555 1_555
O8 S1 1_555 1_555
O9 S1 1_555 1_555
O10 S1 1_555 1_555
C3 N2 1_555 1_555
C7 N3 1_555 1_555
C11 C12 1_555 1_555
C13 N1 1_555 1_555
C15 N4 1_555 1_555
C19 N5 1_555 1_555
C23 C24 1_555 1_555
C25 N1 1_555 1_555
C27 N6 1_555 1_555
C31 N7 1_555 1_555
C35 C36 1_555 1_555
C41 N8 1_555 1_555
C45 N8 1_555 1_555
C49 N8 1_555 1_555
C57 N9 1_555 1_555
C61 N9 1_555 1_555
C65 N9 1_555 1_555

#END
