
#######################################################################
#
#                 Cambridge Crystallographic Data Centre
#                                CCDC 
#
#######################################################################
#
# If this CIF has been generated from an entry in the Cambridge 
# Structural Database, then it will include bibliographic, chemical, 
# crystal, experimental, refinement or atomic coordinate data resulting 
# from the CCDC's data processing and validation procedures.
#
#######################################################################

data_WEMNIO
_chemical_formula_moiety         'C23 H17 N1 O2 S1'
_chemical_name_systematic        
3-{1-[(4-methylphenyl)sulfanyl]-2-oxo-2-phenylethylidene}-1,3-dihydro-2H-indol-2-one
_symmetry_cell_setting           monoclinic
_symmetry_space_group_name_H-M   'P 21/c'
_symmetry_Int_Tables_number      14
_space_group_name_Hall           '-P 2ybc'
loop_
_symmetry_equiv_pos_site_id
_symmetry_equiv_pos_as_xyz
1 x,y,z
2 -x,1/2+y,1/2-z
3 -x,-y,-z
4 x,1/2-y,1/2+z
_cell_length_a                   14.5659(13)
_cell_length_b                   8.3580(8)
_cell_length_c                   20.0531(18)
_cell_angle_alpha                90
_cell_angle_beta                 128.282(3)
_cell_angle_gamma                90
_cell_volume                     1916.35
_exptl_crystal_colour            yellow
_exptl_crystal_description       block
_cell_formula_units_Z            4
loop_
_atom_site_label
_atom_site_type_symbol
_atom_site_fract_x
_atom_site_fract_y
_atom_site_fract_z
N1 N 0.3537(4) 0.5230(6) -0.0469(3)
H1 H 0.3931 0.5131 -0.0655
O1 O 0.499(2) 0.4638(19) 0.0938(15)
O2 O 0.1473(4) 0.4735(6) 0.1009(3)
S1 S 0.44301(13) 0.4819(2) 0.20895(10)
C1 C 0.397(12) 0.50(3) 0.035(9)
C2 C 0.2998(5) 0.5213(8) 0.0379(4)
C3 C 0.198(6) 0.568(4) -0.049(4)
C4 C 0.235(4) 0.566(4) -0.097(3)
C5 C 0.1625(12) 0.601(2) -0.1829(8)
H2 H 0.1897 0.5985 -0.2144
C6 C 0.0475(8) 0.640(2) -0.2203(6)
H3 H -0.0036 0.6667 -0.2776
C7 C 0.0090(8) 0.640(2) -0.1735(6)
H4 H -0.0692 0.6629 -0.2001
C8 C 0.0825(12) 0.6072(19) -0.0879(9)
H5 H 0.0551 0.6113 -0.0566
C9 C 0.3126(5) 0.5187(8) 0.1106(4)
C10 C 0.2083(6) 0.5675(10) 0.1065(4)
C11 C 0.1882(6) 0.7437(10) 0.1099(4)
C12 C 0.2592(6) 0.8609(12) 0.1120(4)
H6 H 0.3221 0.8316 0.1136
C13 C 0.2350(8) 1.0153(13) 0.1118(5)
H7 H 0.2817 1.0933 0.1133
C14 C 0.1409(10) 1.0617(14) 0.1094(5)
H8 H 0.1266 1.1700 0.1098
C15 C 0.0743(9) 0.9588(14) 0.1065(5)
H9 H 0.0112 0.9918 0.1039
C16 C 0.0971(6) 0.7898(11) 0.1074(4)
H10 H 0.0496 0.7137 0.1063
C17 C 0.4033(5) 0.4776(10) 0.2761(4)
C18 C 0.3718(6) 0.3395(10) 0.2926(4)
H11 H 0.3707 0.2446 0.2680
C19 C 0.3414(6) 0.3381(11) 0.3453(5)
H12 H 0.3196 0.2416 0.3550
C20 C 0.3421(6) 0.4702(13) 0.3832(4)
C21 C 0.3768(7) 0.6030(12) 0.3679(5)
H13 H 0.3813 0.6962 0.3952
C22 C 0.4063(6) 0.6126(10) 0.3151(5)
H14 H 0.4281 0.7099 0.3062
C23 C 0.3064(7) 0.4685(11) 0.4399(5)
H15 H 0.2447 0.3921 0.4185
H16 H 0.2794 0.5729 0.4404
H17 H 0.3724 0.4394 0.4966
O3? O 0.500(9) 0.534(8) 0.094(6)
C24? C 0.39(6) 0.52(13) 0.04(4)
C25? C 0.20(3) 0.51(2) -0.05(2)
C26? C 0.235(18) 0.504(16) -0.100(14)
C27? C 0.158(4) 0.492(8) -0.186(3)
H18? H 0.1840 0.4864 -0.2179
C28? C 0.039(3) 0.487(8) -0.225(2)
H19? H -0.0156 0.4770 -0.2832
C29? C 0.004(4) 0.496(9) -0.175(3)
H20? H -0.0752 0.4975 -0.2007
C30? C 0.086(5) 0.504(9) -0.087(4)
H21? H 0.0604 0.5044 -0.0541
loop_
_geom_bond_atom_site_label_1
_geom_bond_atom_site_label_2
_geom_bond_site_symmetry_1
_geom_bond_site_symmetry_2
N1 H1 1_555 1_555
O1 C1 1_555 1_555
O2 C10 1_555 1_555
S1 C9 1_555 1_555
C1 N1 1_555 1_555
C2 C1 1_555 1_555
C3 C2 1_555 1_555
C4 N1 1_555 1_555
C5 C4 1_555 1_555
H2 C5 1_555 1_555
C6 C5 1_555 1_555
H3 C6 1_555 1_555
C7 C6 1_555 1_555
H4 C7 1_555 1_555
C8 C3 1_555 1_555
H5 C8 1_555 1_555
C9 C2 1_555 1_555
C10 C9 1_555 1_555
C11 C10 1_555 1_555
C12 C11 1_555 1_555
H6 C12 1_555 1_555
C13 C12 1_555 1_555
H7 C13 1_555 1_555
C14 C13 1_555 1_555
H8 C14 1_555 1_555
C15 C14 1_555 1_555
H9 C15 1_555 1_555
C16 C11 1_555 1_555
H10 C16 1_555 1_555
C17 S1 1_555 1_555
C18 C17 1_555 1_555
H11 C18 1_555 1_555
C19 C18 1_555 1_555
H12 C19 1_555 1_555
C20 C19 1_555 1_555
C21 C20 1_555 1_555
H13 C21 1_555 1_555
C22 C17 1_555 1_555
H14 C22 1_555 1_555
C23 C20 1_555 1_555
H15 C23 1_555 1_555
H16 C23 1_555 1_555
H17 C23 1_555 1_555
C3 C4 1_555 1_555
C7 C8 1_555 1_555
C15 C16 1_555 1_555
C21 C22 1_555 1_555

#END
