
#######################################################################
#
#                 Cambridge Crystallographic Data Centre
#                                CCDC 
#
#######################################################################
#
# If this CIF has been generated from an entry in the Cambridge 
# Structural Database, then it will include bibliographic, chemical, 
# crystal, experimental, refinement or atomic coordinate data resulting 
# from the CCDC's data processing and validation procedures.
#
#######################################################################

data_WEMRIQ01
_chemical_formula_moiety         'C24 H26 N4'
_chemical_name_systematic        
2-(4-(Dimethylamino)phenyl)-1-((4-(dimethylamino)phenyl)methyl)-1H-benzimidazole
_symmetry_cell_setting           monoclinic
_symmetry_space_group_name_H-M   'P 21/c'
_symmetry_Int_Tables_number      14
_space_group_name_Hall           '-P 2ybc'
loop_
_symmetry_equiv_pos_site_id
_symmetry_equiv_pos_as_xyz
1 x,y,z
2 -x,1/2+y,1/2-z
3 -x,-y,-z
4 x,1/2-y,1/2+z
_cell_length_a                   18.754(3)
_cell_length_b                   6.294(2)
_cell_length_c                   18.522(3)
_cell_angle_alpha                90
_cell_angle_beta                 111.973(3)
_cell_angle_gamma                90
_cell_volume                     2027.48
_exptl_crystal_colour            yellow
_exptl_crystal_description       needle
_chemical_melting_point          '465 K'
_cell_formula_units_Z            4
_exptl_crystal_recrystallization_method ethanol
loop_
_atom_site_label
_atom_site_type_symbol
_atom_site_fract_x
_atom_site_fract_y
_atom_site_fract_z
N1 N 0.21974(10) 0.7950(4) 0.23265(12)
N2 N 0.18974(11) 0.4701(3) 0.26237(13)
N3 N 0.50520(13) 1.0550(4) 0.13502(14)
N4 N 0.06044(13) 0.3052(4) -0.10517(13)
C1 C 0.18639(13) 0.6031(5) 0.20596(15)
C2 C 0.22908(14) 0.5815(5) 0.33023(16)
C3 C 0.24853(14) 0.7829(5) 0.31351(16)
C4 C 0.28827(14) 0.9284(5) 0.36894(17)
H1 H 0.2997 1.0634 0.3559
C5 C 0.31024(15) 0.8630(6) 0.44515(18)
H2 H 0.3376 0.9557 0.4849
C6 C 0.29234(16) 0.6611(6) 0.46391(17)
H3 H 0.3084 0.6219 0.5160
C7 C 0.25155(15) 0.5179(5) 0.40748(17)
H4 H 0.2395 0.3836 0.4205
C8 C 0.22678(12) 0.9840(4) 0.19155(14)
H5 H 0.2217 1.1075 0.2206
H6 H 0.1847 0.9871 0.1413
C9 C 0.30201(13) 1.0002(4) 0.17899(13)
C10 C 0.35556(14) 0.8416(4) 0.19793(13)
H7 H 0.3463 0.7184 0.2208
C11 C 0.42311(14) 0.8576(4) 0.18429(14)
H8 H 0.4580 0.7457 0.1980
C12 C 0.43916(15) 1.0369(5) 0.15073(14)
C13 C 0.38503(16) 1.2007(4) 0.13279(14)
H9 H 0.3942 1.3262 0.1111
C14 C 0.31813(14) 1.1787(4) 0.14681(14)
H10 H 0.2829 1.2898 0.1338
C15 C 0.55628(14) 0.8777(5) 0.14660(16)
H11 H 0.5696 0.8239 0.1985
H12 H 0.6021 0.9224 0.1393
H13 H 0.5314 0.7680 0.1098
C16 C 0.51431(15) 1.2289(5) 0.08995(18)
H14 H 0.4737 1.2264 0.0394
H15 H 0.5630 1.2174 0.0844
H16 H 0.5123 1.3599 0.1157
C17 C 0.15133(13) 0.5432(4) 0.12350(14)
C18 C 0.17249(12) 0.6240(4) 0.06517(14)
H17 H 0.2085 0.7331 0.0771
C19 C 0.14208(14) 0.5485(4) -0.01026(15)
H18 H 0.1572 0.6092 -0.0480
C20 C 0.08926(14) 0.3835(4) -0.03048(15)
C21 C 0.06744(13) 0.3019(4) 0.02800(15)
H19 H 0.0317 0.1920 0.0162
C22 C 0.09742(14) 0.3798(4) 0.10282(15)
H20 H 0.0813 0.3220 0.1404
C23 C 0.01577(16) 0.1118(5) -0.12269(15)
H21 H 0.0452 -0.0009 -0.0902
H22 H 0.0031 0.0752 -0.1764
H23 H -0.0306 0.1327 -0.1131
C24 C 0.07430(14) 0.4053(5) -0.16775(14)
H24 H 0.0394 0.3497 -0.2164
H25 H 0.1262 0.3780 -0.1630
H26 H 0.0666 0.5558 -0.1660
loop_
_geom_bond_atom_site_label_1
_geom_bond_atom_site_label_2
_geom_bond_site_symmetry_1
_geom_bond_site_symmetry_2
N1 C1 1_555 1_555
N2 C1 1_555 1_555
N3 C12 1_555 1_555
N4 C20 1_555 1_555
C1 C17 1_555 1_555
C2 N2 1_555 1_555
C3 N1 1_555 1_555
C4 C3 1_555 1_555
H1 C4 1_555 1_555
C5 C4 1_555 1_555
H2 C5 1_555 1_555
C6 C5 1_555 1_555
H3 C6 1_555 1_555
C7 C2 1_555 1_555
H4 C7 1_555 1_555
C8 N1 1_555 1_555
H5 C8 1_555 1_555
H6 C8 1_555 1_555
C9 C8 1_555 1_555
C10 C9 1_555 1_555
H7 C10 1_555 1_555
C11 C10 1_555 1_555
H8 C11 1_555 1_555
C12 C11 1_555 1_555
C13 C12 1_555 1_555
H9 C13 1_555 1_555
C14 C9 1_555 1_555
H10 C14 1_555 1_555
C15 N3 1_555 1_555
H11 C15 1_555 1_555
H12 C15 1_555 1_555
H13 C15 1_555 1_555
C16 N3 1_555 1_555
H14 C16 1_555 1_555
H15 C16 1_555 1_555
H16 C16 1_555 1_555
C17 C18 1_555 1_555
C18 H17 1_555 1_555
C19 C18 1_555 1_555
H18 C19 1_555 1_555
C20 C19 1_555 1_555
C21 C20 1_555 1_555
H19 C21 1_555 1_555
C22 C17 1_555 1_555
H20 C22 1_555 1_555
C23 N4 1_555 1_555
H21 C23 1_555 1_555
H22 C23 1_555 1_555
H23 C23 1_555 1_555
C24 N4 1_555 1_555
H24 C24 1_555 1_555
H25 C24 1_555 1_555
H26 C24 1_555 1_555
C2 C3 1_555 1_555
C6 C7 1_555 1_555
C13 C14 1_555 1_555
C21 C22 1_555 1_555

#END
