
#######################################################################
#
#                 Cambridge Crystallographic Data Centre
#                                CCDC 
#
#######################################################################
#
# If this CIF has been generated from an entry in the Cambridge 
# Structural Database, then it will include bibliographic, chemical, 
# crystal, experimental, refinement or atomic coordinate data resulting 
# from the CCDC's data processing and validation procedures.
#
#######################################################################

data_WEMSUF
_chemical_formula_moiety         
'C17 H17 F6 N2 O1 1+,C2 F3 O2 1-,C2 H1 F3 O2,0.5(H2 O1)'
_chemical_name_systematic        
'2-{[2,8-bis(trifluoromethyl)quinolin-4-yl](hydroxy)methyl}piperidin-1-ium trifluoroacetate trifluoroacetic acid hemihydrate'
_symmetry_cell_setting           triclinic
_symmetry_space_group_name_H-M   'P -1'
_symmetry_Int_Tables_number      2
_space_group_name_Hall           '-P 1'
loop_
_symmetry_equiv_pos_site_id
_symmetry_equiv_pos_as_xyz
1 x,y,z
2 -x,-y,-z
_cell_length_a                   9.4597(2)
_cell_length_b                   9.9712(2)
_cell_length_c                   29.3729(6)
_cell_angle_alpha                80.5490(10)
_cell_angle_beta                 89.3480(10)
_cell_angle_gamma                63.6760(10)
_cell_volume                     2443.65
_exptl_crystal_colour            colorless
_exptl_crystal_description       block
_cell_formula_units_Z            4
loop_
_atom_site_label
_atom_site_type_symbol
_atom_site_fract_x
_atom_site_fract_y
_atom_site_fract_z
F1 F -0.08227(12) 0.47332(12) 0.13570(3)
F2 F 0.14917(12) 0.31741(13) 0.16650(3)
F3 F -0.02359(15) 0.23730(13) 0.15626(4)
O1 O -0.19361(13) 0.37808(14) 0.22353(4)
O2 O 0.01053(14) 0.42291(15) 0.24043(4)
C1 C -0.0038(2) 0.35073(19) 0.16826(6)
C2 C -0.06647(19) 0.38636(18) 0.21591(5)
F4 F 0.58052(14) 0.07692(14) 0.15023(4)
F5 F 0.55924(14) 0.15124(13) 0.21573(4)
F6 F 0.69641(13) -0.08377(14) 0.21181(4)
O3 O 0.35213(14) 0.05059(14) 0.23916(4)
H1 H 0.246(3) 0.017(3) 0.2454(8)
O4 O 0.38952(14) -0.05632(13) 0.17530(4)
C3 C 0.5646(2) 0.0402(2) 0.19495(6)
C4 C 0.42061(19) 0.00745(17) 0.20282(5)
F7 F -0.04870(15) -0.08691(14) 0.34820(4)
F8 F -0.03731(16) -0.15485(14) 0.28229(4)
F9 F -0.19524(13) 0.07212(15) 0.29002(5)
O5 O 0.10103(14) 0.08376(14) 0.31709(4)
O6 O 0.13541(15) -0.01765(15) 0.25275(4)
C5 C -0.0517(2) -0.0417(2) 0.30298(6)
C6 C 0.07472(19) 0.01373(18) 0.29067(5)
F10 F 0.54552(13) 0.55887(13) 0.36962(3)
F11 F 0.32972(14) 0.69471(18) 0.32861(5)
F12 F 0.4983(2) 0.78054(15) 0.33465(5)
O7 O 0.68403(15) 0.46898(15) 0.29684(4)
H2 H 0.730(3) 0.435(3) 0.2676(9)
O8 O 0.49750(18) 0.66890(16) 0.25020(4)
C7 C 0.4835(2) 0.6579(2) 0.33098(6)
C8 C 0.5577(2) 0.59765(19) 0.28732(6)
F13 F 0.79488(13) 0.13070(11) 0.06861(3)
F14 F 0.90630(13) 0.20022(11) 0.01197(4)
F15 F 0.66807(14) 0.23440(12) 0.00207(4)
F16 F 0.67506(12) 0.69906(11) -0.07356(3)
F17 F 0.91846(12) 0.59074(11) -0.04688(3)
F18 F 0.80146(14) 0.83186(12) -0.07140(3)
O9 O 0.51969(14) 0.45660(13) 0.17379(4)
H3 H 0.608(3) 0.422(2) 0.1884(8)
N1 N 0.73451(15) 0.49541(14) 0.01660(4)
N2 N 0.24722(16) 0.74479(17) 0.17574(5)
H4 H 0.264(2) 0.661(2) 0.1958(6)
H5 H 0.295(2) 0.793(2) 0.1869(6)
C9 C 0.77026(19) 0.24015(18) 0.03204(5)
C10 C 0.70992(18) 0.39472(17) 0.04584(5)
C11 C 0.69244(17) 0.63334(17) 0.02930(5)
C12 C 0.72437(18) 0.74362(17) -0.00057(5)
C13 C 0.7813(2) 0.71470(18) -0.04764(5)
C14 C 0.69619(19) 0.87817(18) 0.01266(5)
H6 H 0.720742 0.949642 -0.006951
C15 C 0.63082(19) 0.91146(18) 0.05529(5)
H7 H 0.613523 1.004524 0.064291
C16 C 0.59222(18) 0.81167(17) 0.08371(5)
H8 H 0.545161 0.837366 0.111756
C17 C 0.62189(17) 0.66944(17) 0.07166(5)
C18 C 0.58734(17) 0.55885(17) 0.10017(5)
C19 C 0.50285(18) 0.59216(17) 0.14449(5)
H9 H 0.547701 0.645335 0.161435
C20 C 0.32543(18) 0.69493(17) 0.13241(5)
H10 H 0.313759 0.787654 0.110391
C21 C 0.07402(19) 0.8516(2) 0.16641(6)
H11 H 0.060512 0.945958 0.145633
H12 H 0.027123 0.879256 0.195819
C22 C -0.0109(2) 0.7782(2) 0.14416(6)
H13 H -0.123698 0.851603 0.137000
H14 H -0.005410 0.688969 0.166064
C23 C 0.06380(19) 0.72795(19) 0.09973(5)
H15 H 0.049129 0.818244 0.076654
H16 H 0.010917 0.675140 0.086626
C24 C 0.24054(18) 0.62104(18) 0.10971(5)
H17 H 0.254430 0.526426 0.130395
H18 H 0.288410 0.593545 0.080396
C25 C 0.63377(18) 0.42006(17) 0.08732(5)
H19 H 0.615088 0.342857 0.105911
F19 F -0.28718(14) 0.87008(11) 0.42662(4)
F20 F -0.40255(13) 0.80392(12) 0.48281(4)
F21 F -0.16386(13) 0.76701(12) 0.49350(4)
F22 F -0.17349(12) 0.30856(12) 0.57047(3)
F23 F -0.41625(12) 0.41520(12) 0.54307(3)
F24 F -0.29936(14) 0.17483(12) 0.56909(3)
O10 O -0.00195(15) 0.53260(13) 0.32478(4)
H20 H -0.022(3) 0.522(3) 0.2978(8)
N3 N -0.23113(15) 0.50732(14) 0.47947(4)
N4 N 0.27173(16) 0.24662(16) 0.32651(5)
H21 H 0.224(2) 0.195(2) 0.3139(6)
H22 H 0.260(2) 0.328(2) 0.3072(6)
C26 C -0.2653(2) 0.76153(18) 0.46326(6)
C27 C -0.20561(18) 0.60666(17) 0.44983(5)
C28 C -0.18845(17) 0.36847(17) 0.46751(5)
C29 C -0.22058(18) 0.25953(18) 0.49793(5)
C30 C -0.2786(2) 0.29099(19) 0.54478(5)
C31 C -0.19077(19) 0.12320(18) 0.48550(5)
H23 H -0.215380 0.052383 0.505427
C32 C -0.12376(19) 0.08739(18) 0.44327(5)
H24 H -0.105278 -0.006791 0.434892
C33 C -0.08515(18) 0.18621(17) 0.41433(5)
H25 H -0.037347 0.159003 0.386489
C34 C -0.11614(17) 0.32998(17) 0.42563(5)
C35 C -0.08004(18) 0.43876(17) 0.39688(5)
C36 C 0.01238(18) 0.39883(17) 0.35440(5)
H26 H -0.029963 0.344122 0.337265
C37 C 0.18837(18) 0.29500(17) 0.36933(5)
H27 H 0.197094 0.202399 0.390813
C38 C 0.44493(19) 0.14052(19) 0.33649(6)
H28 H 0.494173 0.114574 0.307225
H29 H 0.458409 0.045267 0.356712
C39 C 0.5256(2) 0.2148(2) 0.36007(6)
H30 H 0.520740 0.304598 0.338611
H31 H 0.638267 0.142223 0.367946
C40 C 0.4465(2) 0.2642(2) 0.40406(6)
H32 H 0.496905 0.318009 0.417783
H33 H 0.461394 0.173272 0.426888
C41 C 0.26957(19) 0.36911(19) 0.39345(6)
H34 H 0.219557 0.394424 0.422669
H35 H 0.255096 0.465022 0.373430
C42 C -0.12836(18) 0.57945(17) 0.40864(5)
H36 H -0.110226 0.656206 0.389567
O11 O 0.28090(17) 0.46338(15) 0.23920(4)
H37 H 0.355(3) 0.419(3) 0.2243(9)
H38 H 0.202(3) 0.444(3) 0.2313(8)
loop_
_geom_bond_atom_site_label_1
_geom_bond_atom_site_label_2
_geom_bond_site_symmetry_1
_geom_bond_site_symmetry_2
F1 C1 1_555 1_555
F2 C1 1_555 1_555
F3 C1 1_555 1_555
O1 C2 1_555 1_555
O2 C2 1_555 1_555
C1 C2 1_555 1_555
F4 C3 1_555 1_555
F5 C3 1_555 1_555
F6 C3 1_555 1_555
O3 H1 1_555 1_555
O4 C4 1_555 1_555
C3 C4 1_555 1_555
C4 O3 1_555 1_555
F7 C5 1_555 1_555
F8 C5 1_555 1_555
F9 C5 1_555 1_555
O5 C6 1_555 1_555
O6 C6 1_555 1_555
C5 C6 1_555 1_555
F10 C7 1_555 1_555
F11 C7 1_555 1_555
F12 C7 1_555 1_555
O7 H2 1_555 1_555
O8 C8 1_555 1_555
C7 C8 1_555 1_555
C8 O7 1_555 1_555
F13 C9 1_555 1_555
F14 C9 1_555 1_555
F15 C9 1_555 1_555
F16 C13 1_555 1_555
F17 C13 1_555 1_555
F18 C13 1_555 1_555
O9 H3 1_555 1_555
N1 C10 1_555 1_555
N2 H4 1_555 1_555
H5 N2 1_555 1_555
C9 C10 1_555 1_555
C10 C25 1_555 1_555
C11 N1 1_555 1_555
C12 C11 1_555 1_555
C13 C12 1_555 1_555
C14 C12 1_555 1_555
H6 C14 1_555 1_555
C15 C14 1_555 1_555
H7 C15 1_555 1_555
C16 C15 1_555 1_555
H8 C16 1_555 1_555
C17 C11 1_555 1_555
C18 C17 1_555 1_555
C19 O9 1_555 1_555
H9 C19 1_555 1_555
C20 N2 1_555 1_555
H10 C20 1_555 1_555
C21 N2 1_555 1_555
H11 C21 1_555 1_555
H12 C21 1_555 1_555
C22 C21 1_555 1_555
H13 C22 1_555 1_555
H14 C22 1_555 1_555
C23 C22 1_555 1_555
H15 C23 1_555 1_555
H16 C23 1_555 1_555
C24 C20 1_555 1_555
H17 C24 1_555 1_555
H18 C24 1_555 1_555
C25 C18 1_555 1_555
H19 C25 1_555 1_555
F19 C26 1_555 1_555
F20 C26 1_555 1_555
F21 C26 1_555 1_555
F22 C30 1_555 1_555
F23 C30 1_555 1_555
F24 C30 1_555 1_555
O10 H20 1_555 1_555
N3 C27 1_555 1_555
N4 H21 1_555 1_555
H22 N4 1_555 1_555
C26 C27 1_555 1_555
C27 C42 1_555 1_555
C28 N3 1_555 1_555
C29 C28 1_555 1_555
C30 C29 1_555 1_555
C31 C29 1_555 1_555
H23 C31 1_555 1_555
C32 C31 1_555 1_555
H24 C32 1_555 1_555
C33 C32 1_555 1_555
H25 C33 1_555 1_555
C34 C28 1_555 1_555
C35 C34 1_555 1_555
C36 O10 1_555 1_555
H26 C36 1_555 1_555
C37 N4 1_555 1_555
H27 C37 1_555 1_555
C38 N4 1_555 1_555
H28 C38 1_555 1_555
H29 C38 1_555 1_555
C39 C38 1_555 1_555
H30 C39 1_555 1_555
H31 C39 1_555 1_555
C40 C39 1_555 1_555
H32 C40 1_555 1_555
H33 C40 1_555 1_555
C41 C37 1_555 1_555
H34 C41 1_555 1_555
H35 C41 1_555 1_555
C42 C35 1_555 1_555
H36 C42 1_555 1_555
O11 H37 1_555 1_555
H38 O11 1_555 1_555
C16 C17 1_555 1_555
C18 C19 1_555 1_555
C19 C20 1_555 1_555
C23 C24 1_555 1_555
C33 C34 1_555 1_555
C35 C36 1_555 1_555
C36 C37 1_555 1_555
C40 C41 1_555 1_555

#END
