
#######################################################################
#
#                 Cambridge Crystallographic Data Centre
#                                CCDC 
#
#######################################################################
#
# If this CIF has been generated from an entry in the Cambridge 
# Structural Database, then it will include bibliographic, chemical, 
# crystal, experimental, refinement or atomic coordinate data resulting 
# from the CCDC's data processing and validation procedures.
#
#######################################################################

data_WEMTAK
_chemical_formula_moiety         'C15 H13 N3 O4'
_chemical_name_systematic        
N-(4-Methylbenzylidene)-4-methyl-3,5-dinitroaniline
_symmetry_cell_setting           monoclinic
_symmetry_space_group_name_H-M   'P 21/n'
_symmetry_Int_Tables_number      14
_space_group_name_Hall           '-P 2yn'
loop_
_symmetry_equiv_pos_site_id
_symmetry_equiv_pos_as_xyz
1 x,y,z
2 1/2-x,1/2+y,1/2-z
3 -x,-y,-z
4 1/2+x,1/2-y,1/2+z
_cell_length_a                   19.441(4)
_cell_length_b                   7.544(1)
_cell_length_c                   19.997(3)
_cell_angle_alpha                90
_cell_angle_beta                 99.68(1)
_cell_angle_gamma                90
_cell_volume                     2891.06
_exptl_crystal_colour            yellow
_chemical_melting_point          147-149deg.C
_cell_formula_units_Z            8
_exptl_crystal_recrystallization_method dichloromethane/methanol
loop_
_atom_site_label
_atom_site_type_symbol
_atom_site_fract_x
_atom_site_fract_y
_atom_site_fract_z
O1 O 0.60447(14) -0.0580(5) 0.76613(16)
O2 O 0.57787(13) -0.0199(4) 0.86232(14)
O3 O 0.30312(15) -0.0574(5) 0.85561(15)
O4 O 0.26733(16) -0.2178(5) 0.76901(17)
N1 N 0.40072(16) 0.0869(4) 0.59918(15)
N2 N 0.56268(16) -0.0371(4) 0.80190(16)
N3 N 0.30962(17) -0.1177(5) 0.80127(18)
C1 C 0.47547(16) 0.0266(4) 0.70498(14)
H1 H 0.5126 0.0565 0.6833
C2 C 0.48792(16) -0.0296(4) 0.77077(15)
C3 C 0.43666(16) -0.0799(4) 0.80777(14)
C4 C 0.36999(16) -0.0667(4) 0.77022(15)
C5 C 0.35465(16) -0.0089(4) 0.70373(15)
H2 H 0.3086 -0.0027 0.6816
C6 C 0.40851(18) 0.0392(4) 0.67092(14)
C7 C 0.3490(2) 0.1651(5) 0.57623(19)
H3 H 0.3176 0.1987 0.6042
C8 C 0.3342(2) 0.2106(5) 0.50068(16)
C9 C 0.2711(2) 0.2811(5) 0.47554(17)
H4 H 0.2390 0.3013 0.5043
C10 C 0.25408(19) 0.3228(4) 0.40819(17)
H5 H 0.2102 0.3696 0.3919
C11 C 0.3005(2) 0.2971(4) 0.36392(15)
C12 C 0.36576(19) 0.2287(5) 0.38910(16)
H6 H 0.3982 0.2122 0.3604
C13 C 0.38282(19) 0.1846(4) 0.45759(18)
H7 H 0.4265 0.1379 0.4746
C14 C 0.45057(19) -0.1518(4) 0.87869(14)
H8 H 0.4930 -0.2194 0.8851
H9 H 0.4125 -0.2266 0.8859
H10 H 0.4551 -0.0553 0.9104
C15 C 0.2798(2) 0.3446(5) 0.28979(14)
H11 H 0.3177 0.3186 0.2662
H12 H 0.2689 0.4686 0.2857
H13 H 0.2396 0.2766 0.2704
O5 O 0.46206(16) 0.7011(6) 0.41734(14)
O6 O 0.36754(15) 0.7138(5) 0.35626(13)
O7 O 0.15549(12) 0.7011(4) 0.50061(13)
O8 O 0.19539(13) 0.8944(4) 0.57614(14)
N4 N 0.43307(13) 0.5850(3) 0.64952(12)
N5 N 0.40140(17) 0.7066(4) 0.41035(14)
N6 N 0.20297(15) 0.7784(4) 0.53480(14)
C16 C 0.41065(15) 0.6452(4) 0.52976(14)
H17 H 0.4572 0.6190 0.5288
C17 C 0.36788(16) 0.6975(4) 0.47107(14)
C18 C 0.29769(15) 0.7438(4) 0.46720(13)
C19 C 0.27536(15) 0.7297(4) 0.52944(14)
C20 C 0.31626(16) 0.6773(4) 0.58929(14)
H18 H 0.2976 0.6730 0.6291
C21 C 0.38522(16) 0.6312(4) 0.58982(14)
C22 C 0.40986(17) 0.5062(4) 0.69563(15)
H19 H 0.3630 0.4739 0.6886
C23 C 0.45374(16) 0.4624(4) 0.76073(14)
C24 C 0.42318(16) 0.3984(4) 0.81271(15)
H20 H 0.3751 0.3812 0.8057
C25 C 0.46164(18) 0.3591(4) 0.87492(15)
H21 H 0.4392 0.3173 0.9094
C26 C 0.53252(17) 0.3807(4) 0.88692(14)
C27 C 0.56457(17) 0.4416(4) 0.83407(15)
H22 H 0.6128 0.4552 0.8408
C28 C 0.52525(17) 0.4820(4) 0.77166(15)
H23 H 0.5473 0.5228 0.7368
C29 C 0.25052(16) 0.8121(4) 0.40519(14)
H24 H 0.2381 0.7165 0.3738
H25 H 0.2743 0.9025 0.3841
H26 H 0.2091 0.8610 0.4181
C30 C 0.57403(18) 0.3392(5) 0.95551(14)
H27 H 0.6226 0.3616 0.9551
H28 H 0.5677 0.2168 0.9661
H29 H 0.5583 0.4127 0.9891
H14? H 0.2331 0.3906 0.2820
H15? H 0.2819 0.2406 0.2625
H16? H 0.3112 0.4327 0.2778
H30? H 0.5432 0.2991 0.9851
H31? H 0.5980 0.4439 0.9741
H32? H 0.6074 0.2480 0.9511
loop_
_geom_bond_atom_site_label_1
_geom_bond_atom_site_label_2
_geom_bond_site_symmetry_1
_geom_bond_site_symmetry_2
O1 N2 1_555 1_555
O2 N2 1_555 1_555
O3 N3 1_555 1_555
O4 N3 1_555 1_555
N1 C6 1_555 1_555
N2 C2 1_555 1_555
N3 C4 1_555 1_555
C1 H1 1_555 1_555
C2 C1 1_555 1_555
C3 C2 1_555 1_555
C4 C3 1_555 1_555
C5 C4 1_555 1_555
H2 C5 1_555 1_555
C6 C1 1_555 1_555
C7 N1 1_555 1_555
H3 C7 1_555 1_555
C8 C7 1_555 1_555
C9 C8 1_555 1_555
H4 C9 1_555 1_555
C10 C9 1_555 1_555
H5 C10 1_555 1_555
C11 C10 1_555 1_555
C12 C11 1_555 1_555
H6 C12 1_555 1_555
C13 C8 1_555 1_555
H7 C13 1_555 1_555
C14 C3 1_555 1_555
H8 C14 1_555 1_555
H9 C14 1_555 1_555
H10 C14 1_555 1_555
C15 C11 1_555 1_555
H11 C15 1_555 1_555
H12 C15 1_555 1_555
H13 C15 1_555 1_555
O5 N5 1_555 1_555
O6 N5 1_555 1_555
O7 N6 1_555 1_555
O8 N6 1_555 1_555
N4 C21 1_555 1_555
N5 C17 1_555 1_555
N6 C19 1_555 1_555
C16 H17 1_555 1_555
C17 C16 1_555 1_555
C18 C17 1_555 1_555
C19 C18 1_555 1_555
C20 C19 1_555 1_555
H18 C20 1_555 1_555
C21 C16 1_555 1_555
C22 N4 1_555 1_555
H19 C22 1_555 1_555
C23 C22 1_555 1_555
C24 C23 1_555 1_555
H20 C24 1_555 1_555
C25 C24 1_555 1_555
H21 C25 1_555 1_555
C26 C25 1_555 1_555
C27 C26 1_555 1_555
H22 C27 1_555 1_555
C28 C23 1_555 1_555
H23 C28 1_555 1_555
C29 C18 1_555 1_555
H24 C29 1_555 1_555
H25 C29 1_555 1_555
H26 C29 1_555 1_555
C30 C26 1_555 1_555
H27 C30 1_555 1_555
H28 C30 1_555 1_555
H29 C30 1_555 1_555
C5 C6 1_555 1_555
C12 C13 1_555 1_555
C20 C21 1_555 1_555
C27 C28 1_555 1_555

#END
