
#######################################################################
#
#                 Cambridge Crystallographic Data Centre
#                                CCDC 
#
#######################################################################
#
# If this CIF has been generated from an entry in the Cambridge 
# Structural Database, then it will include bibliographic, chemical, 
# crystal, experimental, refinement or atomic coordinate data resulting 
# from the CCDC's data processing and validation procedures.
#
#######################################################################

data_WEMXUI
_chemical_formula_moiety         'C30 H22 N4 O4'
_chemical_name_systematic        
bis(2-Hydroxy-1-naphthaldehyde)-1,3-benzenedicarbohydrazone
_symmetry_cell_setting           monoclinic
_symmetry_space_group_name_H-M   'P 21/c'
_symmetry_Int_Tables_number      14
_space_group_name_Hall           '-P 2ybc'
loop_
_symmetry_equiv_pos_site_id
_symmetry_equiv_pos_as_xyz
1 x,y,z
2 -x,1/2+y,1/2-z
3 -x,-y,-z
4 x,1/2-y,1/2+z
_cell_length_a                   15.323(3)
_cell_length_b                   9.3464(15)
_cell_length_c                   17.451(3)
_cell_angle_alpha                90
_cell_angle_beta                 104.854(3)
_cell_angle_gamma                90
_cell_volume                     2415.72
_exptl_crystal_colour            'pale yellow'
_exptl_crystal_description       prism
_cell_formula_units_Z            4
_exptl_crystal_recrystallization_method dimethylsulfoxide
_exptl_crystal_preparation       fluorescent
loop_
_atom_site_label
_atom_site_type_symbol
_atom_site_fract_x
_atom_site_fract_y
_atom_site_fract_z
O1 O 0.79141(10) 0.01918(18) 0.78898(9)
H1 H 0.7591 0.0903 0.7792
O2 O 0.69545(10) 0.41263(16) 0.80209(9)
O3 O 0.40794(10) 0.65293(16) 0.48809(9)
O4 O 0.14382(10) 0.74024(18) 0.36006(9)
H2 H 0.1856 0.7243 0.3991
N1 N 0.67864(13) 0.1934(2) 0.70074(12)
N2 N 0.63819(12) 0.3243(2) 0.67929(11)
H3 H 0.6063 0.3387 0.6317
N3 N 0.32981(12) 0.77936(19) 0.55892(11)
H4 H 0.3285 0.8114 0.6048
N4 N 0.25690(13) 0.8019(2) 0.49422(11)
C1 C 0.69230(16) -0.1391(3) 0.59282(15)
C2 C 0.62663(16) -0.1199(3) 0.51985(15)
H5 H 0.5906 -0.0384 0.5124
C3 C 0.61509(18) -0.2174(3) 0.46079(16)
H6 H 0.5705 -0.2025 0.4141
C4 C 0.6685(2) -0.3392(3) 0.46843(18)
H7 H 0.6617 -0.4036 0.4267
C5 C 0.73134(19) -0.3625(3) 0.53855(19)
H8 H 0.7662 -0.4452 0.5448
C6 C 0.74434(17) -0.2646(3) 0.60118(16)
C7 C 0.80903(17) -0.2904(3) 0.67255(17)
H9 H 0.8432 -0.3737 0.6782
C8 C 0.82279(16) -0.1964(3) 0.73347(17)
H10 H 0.8655 -0.2163 0.7807
C9 C 0.77264(17) -0.0687(3) 0.72568(16)
C10 C 0.70870(15) -0.0379(3) 0.65592(15)
C11 C 0.66406(15) 0.0984(3) 0.64617(15)
H11 H 0.6228 0.1184 0.5982
C12 C 0.64922(15) 0.4290(3) 0.73368(15)
C13 C 0.59806(15) 0.5635(3) 0.70822(13)
C14 C 0.61830(15) 0.6792(3) 0.75869(13)
H12 H 0.6647 0.6718 0.8048
C15 C 0.57135(15) 0.8046(3) 0.74222(13)
H13 H 0.5871 0.8824 0.7762
C16 C 0.50057(14) 0.8157(3) 0.67513(13)
H14 H 0.4679 0.9004 0.6643
C17 C 0.47840(14) 0.7007(3) 0.62404(13)
C18 C 0.52866(14) 0.5763(2) 0.63915(13)
H15 H 0.5161 0.5010 0.6031
C19 C 0.40274(16) 0.7073(2) 0.55001(14)
C20 C 0.20329(15) 0.9016(3) 0.50352(14)
H16 H 0.2144 0.9493 0.5518
C21 C 0.12547(15) 0.9418(3) 0.44015(13)
C22 C 0.07468(15) 1.0671(3) 0.44756(14)
C23 C 0.09437(16) 1.1578(3) 0.51399(15)
H17 H 0.1432 1.1367 0.5565
C24 C 0.04388(19) 1.2755(3) 0.51760(17)
H18 H 0.0584 1.3330 0.5626
C25 C -0.03000(19) 1.3118(3) 0.4545(2)
H19 H -0.0640 1.3931 0.4572
C26 C -0.05074(18) 1.2277(3) 0.39026(18)
H20 H -0.1002 1.2510 0.3487
C27 C 0.00003(16) 1.1054(3) 0.38393(16)
C28 C -0.02073(16) 1.0184(3) 0.31574(15)
H21 H -0.0692 1.0434 0.2737
C29 C 0.02690(16) 0.9008(3) 0.30941(15)
H22 H 0.0114 0.8456 0.2636
C30 C 0.10026(16) 0.8612(3) 0.37209(15)
loop_
_geom_bond_atom_site_label_1
_geom_bond_atom_site_label_2
_geom_bond_site_symmetry_1
_geom_bond_site_symmetry_2
O1 H1 1_555 1_555
O2 C12 1_555 1_555
O3 C19 1_555 1_555
O4 H2 1_555 1_555
N1 N2 1_555 1_555
N2 H3 1_555 1_555
N3 H4 1_555 1_555
N4 N3 1_555 1_555
C1 C2 1_555 1_555
C2 H5 1_555 1_555
C3 C2 1_555 1_555
H6 C3 1_555 1_555
C4 C3 1_555 1_555
H7 C4 1_555 1_555
C5 C4 1_555 1_555
H8 C5 1_555 1_555
C6 C1 1_555 1_555
C7 C6 1_555 1_555
H9 C7 1_555 1_555
C8 C7 1_555 1_555
H10 C8 1_555 1_555
C9 O1 1_555 1_555
C10 C1 1_555 1_555
C11 N1 1_555 1_555
H11 C11 1_555 1_555
C12 N2 1_555 1_555
C13 C12 1_555 1_555
C14 C13 1_555 1_555
H12 C14 1_555 1_555
C15 C14 1_555 1_555
H13 C15 1_555 1_555
C16 C15 1_555 1_555
H14 C16 1_555 1_555
C17 C16 1_555 1_555
C18 C13 1_555 1_555
H15 C18 1_555 1_555
C19 N3 1_555 1_555
C20 N4 1_555 1_555
H16 C20 1_555 1_555
C21 C20 1_555 1_555
C22 C21 1_555 1_555
C23 C22 1_555 1_555
H17 C23 1_555 1_555
C24 C23 1_555 1_555
H18 C24 1_555 1_555
C25 C24 1_555 1_555
H19 C25 1_555 1_555
C26 C25 1_555 1_555
H20 C26 1_555 1_555
C27 C22 1_555 1_555
C28 C27 1_555 1_555
H21 C28 1_555 1_555
C29 C28 1_555 1_555
H22 C29 1_555 1_555
C30 O4 1_555 1_555
C5 C6 1_555 1_555
C8 C9 1_555 1_555
C9 C10 1_555 1_555
C10 C11 1_555 1_555
C17 C18 1_555 1_555
C17 C19 1_555 1_555
C21 C30 1_555 1_555
C26 C27 1_555 1_555
C29 C30 1_555 1_555

#END
