
#######################################################################
#
#                 Cambridge Crystallographic Data Centre
#                                CCDC 
#
#######################################################################
#
# If this CIF has been generated from an entry in the Cambridge 
# Structural Database, then it will include bibliographic, chemical, 
# crystal, experimental, refinement or atomic coordinate data resulting 
# from the CCDC's data processing and validation procedures.
#
#######################################################################

data_WENFAX
_chemical_formula_moiety         'C18 H24 Cl2 O11'
_chemical_name_systematic        
"(1'S,3'R)-2',2'-Dichloro-3'-hydroxycyclobutyl 2,3,4,6-tetra-O-acetyl-\b-D-glucopyranoside"
_symmetry_cell_setting           monoclinic
_symmetry_space_group_name_H-M   'P 21'
_symmetry_Int_Tables_number      4
_space_group_name_Hall           'P 2yb'
loop_
_symmetry_equiv_pos_site_id
_symmetry_equiv_pos_as_xyz
1 x,y,z
2 -x,1/2+y,-z
_cell_length_a                   9.6670(19)
_cell_length_b                   10.054(2)
_cell_length_c                   12.664(3)
_cell_angle_alpha                90
_cell_angle_beta                 108.47(3)
_cell_angle_gamma                90
_cell_volume                     1167.44
_exptl_crystal_colour            white
_cell_formula_units_Z            2
_exptl_crystal_recrystallization_method 'ethyl acetate/hexane'
loop_
_atom_site_label
_atom_site_type_symbol
_atom_site_fract_x
_atom_site_fract_y
_atom_site_fract_z
Cl1 Cl 0.91231(11) 0.99332(10) 0.60709(9)
Cl2 Cl 0.89233(12) 0.71291(10) 0.64192(8)
O1 O 0.8427(3) 0.8841(3) 0.3754(2)
O2 O 0.5514(3) 0.8965(4) 0.38066(19)
O3 O 0.3348(2) 0.8555(3) 0.1698(2)
O4 O 0.4091(2) 0.6607(3) 0.03396(18)
O5 O 0.7658(2) 0.7723(3) 0.21269(18)
O6 O 0.7034(4) 0.7629(4) -0.0261(2)
O7 O 1.2287(3) 0.9184(4) 0.6811(2)
H1 H 1.2556 0.8819 0.7421
O8 O 0.5709(6) 1.1178(5) 0.3587(4)
O9 O 0.2412(3) 0.7130(4) 0.2642(3)
O10 O 0.3334(4) 0.8119(4) -0.1013(3)
C1 C 0.7326(3) 0.8014(4) 0.3114(3)
H2 H 0.7281 0.7194 0.3521
C2 C 0.5875(3) 0.8744(4) 0.2807(3)
H3 H 0.5936 0.9591 0.2440
C3 C 0.4707(3) 0.7863(4) 0.2047(2)
H4 H 0.4611 0.7045 0.2438
C4 C 0.5146(3) 0.7527(4) 0.1027(3)
H5 H 0.5190 0.8337 0.0607
C5 C 0.6640(3) 0.6829(4) 0.1401(3)
H6 H 0.6574 0.6015 0.1809
C6 C 0.7213(4) 0.6486(4) 0.0440(3)
H7 H 0.8235 0.6242 0.0725
H8 H 0.6674 0.5740 0.0020
C7 C 0.9565(3) 0.8166(4) 0.4557(3)
H9 H 0.9535 0.7215 0.4381
C8 C 1.1117(4) 0.8702(5) 0.4798(3)
H10 H 1.1164 0.9651 0.4678
H11 H 1.1698 0.8213 0.4429
C9 C 1.1414(4) 0.8313(4) 0.6022(3)
H12 H 1.1780 0.7399 0.6159
C10 C 0.9718(4) 0.8362(4) 0.5787(3)
C11 C 0.5429(5) 1.0288(7) 0.4081(4)
C12 C 0.4988(7) 1.0319(9) 0.5140(5)
H13 H 0.4889 1.1226 0.5344
H14 H 0.5723 0.9885 0.5734
H15 H 0.4074 0.9866 0.5008
C13 C 0.2277(4) 0.8078(5) 0.2062(3)
C14 C 0.0956(5) 0.8939(7) 0.1664(5)
H16 H 0.0295 0.8725 0.2067
H17 H 0.0484 0.8790 0.0884
H18 H 0.1239 0.9856 0.1786
C15 C 0.3226(4) 0.7043(4) -0.0657(3)
C16 C 0.2124(5) 0.6019(5) -0.1200(4)
H19 H 0.1942 0.6044 -0.1991
H20 H 0.1235 0.6196 -0.1041
H21 H 0.2484 0.5156 -0.0920
O11 O 0.9035(8) 0.7206(10) -0.0649(6)
C17 C 0.7616(10) 0.7679(13) -0.1030(8)
C18 C 0.6898(14) 0.8765(13) -0.1869(9)
H22 H 0.7415 0.8858 -0.2399
H23 H 0.6925 0.9593 -0.1485
H24 H 0.5903 0.8527 -0.2250
O12? O 0.8526(9) 0.6826(9) -0.1107(6)
C19? C 0.8048(11) 0.7863(11) -0.0718(9)
C20? C 0.7769(14) 0.9035(14) -0.1510(9)
H25? H 0.7248 0.9712 -0.1257
H26? H 0.7199 0.8749 -0.2242
H27? H 0.8682 0.9387 -0.1532
loop_
_geom_bond_atom_site_label_1
_geom_bond_atom_site_label_2
_geom_bond_site_symmetry_1
_geom_bond_site_symmetry_2
Cl1 C10 1_555 1_555
Cl2 C10 1_555 1_555
O1 C1 1_555 1_555
O2 C2 1_555 1_555
O3 C3 1_555 1_555
O4 C4 1_555 1_555
O5 C1 1_555 1_555
O6 C6 1_555 1_555
O7 H1 1_555 1_555
O8 C11 1_555 1_555
O9 C13 1_555 1_555
O10 C15 1_555 1_555
C1 H2 1_555 1_555
C2 C1 1_555 1_555
H3 C2 1_555 1_555
C3 C2 1_555 1_555
H4 C3 1_555 1_555
C4 C3 1_555 1_555
H5 C4 1_555 1_555
C5 O5 1_555 1_555
H6 C5 1_555 1_555
C6 C5 1_555 1_555
H7 C6 1_555 1_555
H8 C6 1_555 1_555
C7 O1 1_555 1_555
H9 C7 1_555 1_555
C8 C7 1_555 1_555
H10 C8 1_555 1_555
H11 C8 1_555 1_555
C9 O7 1_555 1_555
H12 C9 1_555 1_555
C10 C7 1_555 1_555
C11 O2 1_555 1_555
C12 C11 1_555 1_555
H13 C12 1_555 1_555
H14 C12 1_555 1_555
H15 C12 1_555 1_555
C13 O3 1_555 1_555
C14 C13 1_555 1_555
H16 C14 1_555 1_555
H17 C14 1_555 1_555
H18 C14 1_555 1_555
C15 O4 1_555 1_555
C16 C15 1_555 1_555
H19 C16 1_555 1_555
H20 C16 1_555 1_555
H21 C16 1_555 1_555
O11 C17 1_555 1_555
C17 O6 1_555 1_555
C18 C17 1_555 1_555
H22 C18 1_555 1_555
H23 C18 1_555 1_555
H24 C18 1_555 1_555
C4 C5 1_555 1_555
C8 C9 1_555 1_555
C9 C10 1_555 1_555

#END
