
#######################################################################
#
#                 Cambridge Crystallographic Data Centre
#                                CCDC 
#
#######################################################################
#
# If this CIF has been generated from an entry in the Cambridge 
# Structural Database, then it will include bibliographic, chemical, 
# crystal, experimental, refinement or atomic coordinate data resulting 
# from the CCDC's data processing and validation procedures.
#
#######################################################################

data_WENGAA
_chemical_formula_moiety         'C13 H14 Br1 N1 O3 S1'
_chemical_name_systematic        
'4-(1-(4-bromophenyl)vinyl)-5,5-dimethyl-5,6-dihydro-1,2,3-oxathiazine 2,2-dioxide'
_symmetry_cell_setting           orthorhombic
_symmetry_space_group_name_H-M   'P 21 21 21'
_symmetry_Int_Tables_number      19
_space_group_name_Hall           'P 2ac 2ab'
loop_
_symmetry_equiv_pos_site_id
_symmetry_equiv_pos_as_xyz
1 x,y,z
2 1/2-x,-y,1/2+z
3 -x,1/2+y,1/2-z
4 1/2+x,1/2-y,-z
_cell_length_a                   7.0046(12)
_cell_length_b                   9.8162(17)
_cell_length_c                   20.937(4)
_cell_angle_alpha                90
_cell_angle_beta                 90
_cell_angle_gamma                90
_cell_volume                     1439.6
_exptl_crystal_colour            colorless
_exptl_crystal_description       prismatic
_cell_formula_units_Z            4
loop_
_atom_site_label
_atom_site_type_symbol
_atom_site_fract_x
_atom_site_fract_y
_atom_site_fract_z
Br1 Br 1.05117(15) 0.73573(9) 1.07169(4)
S1 S 1.0426(3) 0.27047(18) 0.72393(8)
N1 N 1.0284(7) 0.2485(5) 0.8013(2)
O1 O 0.8335(7) 0.2703(5) 0.6992(2)
O2 O 1.1294(8) 0.1537(5) 0.6974(2)
O3 O 1.1284(10) 0.3980(5) 0.7136(2)
C1 C 0.7080(11) 0.3551(7) 0.7374(3)
H1 H 0.5859 0.3646 0.7160
H2 H 0.7634 0.4451 0.7420
C2 C 0.6785(9) 0.2928(6) 0.8022(3)
C3 C 0.8723(9) 0.2604(6) 0.8319(3)
C4 C 0.8846(9) 0.2388(6) 0.9029(3)
C5 C 0.9162(10) 0.3608(7) 0.9422(3)
C6 C 0.8411(11) 0.3706(8) 1.0037(3)
H3 H 0.7658 0.3003 1.0196
C7 C 0.8771(12) 0.4833(9) 1.0413(4)
H4 H 0.8257 0.4890 1.0821
C8 C 0.9879(11) 0.5858(8) 1.0184(3)
C9 C 1.0631(12) 0.5813(7) 0.9574(3)
H5 H 1.1368 0.6527 0.9419
C10 C 1.0263(11) 0.4685(7) 0.9203(3)
H6 H 1.0768 0.4645 0.8792
C11 C 0.8713(13) 0.1145(8) 0.9248(4)
H7 H 0.8819 0.0981 0.9684
H8 H 0.8511 0.0424 0.8968
C12 C 0.5602(11) 0.3909(7) 0.8437(3)
H9 H 0.6270 0.4758 0.8480
H10 H 0.5410 0.3515 0.8852
H11 H 0.4387 0.4067 0.8238
C13 C 0.5721(11) 0.1570(7) 0.7964(4)
H12 H 0.4480 0.1725 0.7784
H13 H 0.5588 0.1167 0.8379
H14 H 0.6429 0.0966 0.7692
loop_
_geom_bond_atom_site_label_1
_geom_bond_atom_site_label_2
_geom_bond_site_symmetry_1
_geom_bond_site_symmetry_2
Br1 C8 1_555 1_555
S1 N1 1_555 1_555
N1 C3 1_555 1_555
O1 S1 1_555 1_555
O2 S1 1_555 1_555
O3 S1 1_555 1_555
C1 O1 1_555 1_555
H1 C1 1_555 1_555
H2 C1 1_555 1_555
C2 C1 1_555 1_555
C3 C2 1_555 1_555
C4 C3 1_555 1_555
C5 C4 1_555 1_555
C6 C5 1_555 1_555
H3 C6 1_555 1_555
C7 C6 1_555 1_555
H4 C7 1_555 1_555
C8 C7 1_555 1_555
C9 C8 1_555 1_555
H5 C9 1_555 1_555
C10 C5 1_555 1_555
H6 C10 1_555 1_555
C11 C4 1_555 1_555
H7 C11 1_555 1_555
H8 C11 1_555 1_555
C12 C2 1_555 1_555
H9 C12 1_555 1_555
H10 C12 1_555 1_555
H11 C12 1_555 1_555
C13 C2 1_555 1_555
H12 C13 1_555 1_555
H13 C13 1_555 1_555
H14 C13 1_555 1_555
C9 C10 1_555 1_555

#END
