
#######################################################################
#
#                 Cambridge Crystallographic Data Centre
#                                CCDC 
#
#######################################################################
#
# If this CIF has been generated from an entry in the Cambridge 
# Structural Database, then it will include bibliographic, chemical, 
# crystal, experimental, refinement or atomic coordinate data resulting 
# from the CCDC's data processing and validation procedures.
#
#######################################################################

data_WENPAG
_chemical_formula_moiety         'C24 H30 O6 Si1'
_chemical_name_systematic        
1-t-Butyldimethylsiloxy-4a,8-dihydroxy-1,2,3,4,4a,12b-hexahydro-6a(H),12a(H)-epoxybenz(a)anthracene-7(H),12(H)-dione
_symmetry_cell_setting           monoclinic
_symmetry_space_group_name_H-M   'P 21/c'
_symmetry_Int_Tables_number      14
_space_group_name_Hall           '-P 2ybc'
loop_
_symmetry_equiv_pos_site_id
_symmetry_equiv_pos_as_xyz
1 x,y,z
2 -x,1/2+y,1/2-z
3 -x,-y,-z
4 x,1/2-y,1/2+z
_cell_length_a                   19.387(9)
_cell_length_b                   6.380(3)
_cell_length_c                   20.690(7)
_cell_angle_alpha                90
_cell_angle_beta                 113.9(3)
_cell_angle_gamma                90
_cell_volume                     2339.69
_exptl_crystal_colour            'pale yellow'
_cell_formula_units_Z            4
loop_
_atom_site_label
_atom_site_type_symbol
_atom_site_fract_x
_atom_site_fract_y
_atom_site_fract_z
Si1 Si 0.8866(2) 0.1281(6) 0.6018(2)
O1 O 0.5182(4) 0.4337(13) 0.3870(4)
O2 O 0.5672(4) 0.3939(13) 0.5240(4)
O3 O 0.7064(4) -0.3280(13) 0.5157(4)
O4 O 0.5898(4) -0.1306(14) 0.5728(4)
O5 O 0.6488(4) -0.3061(14) 0.7076(4)
O6 O 0.8202(3) -0.0152(11) 0.6109(3)
C1 C 0.6289(6) -0.1182(21) 0.3872(6)
C2 C 0.5932(6) 0.0026(22) 0.3272(6)
C3 C 0.5584(6) 0.1832(20) 0.3284(7)
C4 C 0.5551(6) 0.2543(23) 0.3906(7)
C5 C 0.5921(5) 0.1372(19) 0.4536(5)
C6 C 0.5904(6) 0.2174(20) 0.5194(6)
C7 C 0.6217(6) 0.0818(21) 0.5838(6)
C8 C 0.6305(5) 0.1731(19) 0.6534(5)
C9 C 0.6679(6) 0.0654(19) 0.7135(6)
C10 C 0.7023(7) -0.1441(23) 0.7145(6)
C11 C 0.7311(5) -0.1559(19) 0.6542(5)
C12 C 0.6685(6) -0.1000(18) 0.5843(5)
C13 C 0.6724(6) -0.1692(21) 0.5161(6)
C14 C 0.6288(5) -0.0504(18) 0.4509(6)
C15 C 0.7665(6) -0.1840(20) 0.7849(6)
C16 C 0.8348(6) -0.0485(20) 0.7994(6)
C17 C 0.8625(6) -0.0605(19) 0.7400(6)
C18 C 0.7981(6) -0.0084(20) 0.6683(5)
C19 C 0.8890(7) 0.3937(20) 0.6394(6)
C20 C 0.9808(6) -0.0035(20) 0.6476(6)
C21 C 0.8640(6) 0.1463(19) 0.5051(6)
C22 C 0.7913(6) 0.2732(19) 0.4667(6)
C23 C 0.9292(6) 0.2619(19) 0.4945(6)
C24 C 0.8553(6) -0.0727(18) 0.4741(6)
H1 H 0.5233 0.4651 0.4286
H2 H 0.6156 -0.3026 0.6653
H3 H 0.6515 -0.2504 0.3850
H4 H 0.5958 -0.0382 0.2836
H5 H 0.5340 0.2630 0.2858
H6 H 0.6128 0.3125 0.6554
H7 H 0.6691 0.1190 0.7573
H8 H 0.7480 -0.2957 0.6515
H9 H 0.7836 -0.3251 0.7846
H10 H 0.7499 -0.1718 0.8227
H11 H 0.8744 -0.0714 0.8453
H12 H 0.8171 0.0930 0.7974
H13 H 0.8746 -0.2050 0.7368
H14 H 0.9062 0.0243 0.7484
H15 H 0.7816 0.1306 0.6728
H16 H 0.9009 0.3833 0.6891
H17 H 0.9265 0.4770 0.6323
H18 H 0.8404 0.4583 0.6159
H19 H 0.9798 -0.1412 0.6285
H20 H 1.0185 0.0797 0.6407
H21 H 0.9925 -0.0140 0.6973
H22 H 0.7809 0.2797 0.4172
H23 H 0.7502 0.2046 0.4728
H24 H 0.7970 0.4126 0.4855
H25 H 0.9183 0.2728 0.4451
H26 H 0.9330 0.3998 0.5143
H27 H 0.9761 0.1890 0.5183
H28 H 0.8434 -0.0641 0.4244
H29 H 0.9021 -0.1468 0.4974
H30 H 0.8158 -0.1460 0.4813
loop_
_geom_bond_atom_site_label_1
_geom_bond_atom_site_label_2
_geom_bond_site_symmetry_1
_geom_bond_site_symmetry_2
Si1 O6 1_555 1_555
O1 C4 1_555 1_555
O2 C6 1_555 1_555
O3 C13 1_555 1_555
O4 C7 1_555 1_555
O5 C10 1_555 1_555
O6 C18 1_555 1_555
C1 C2 1_555 1_555
C2 C3 1_555 1_555
C3 C4 1_555 1_555
C4 C5 1_555 1_555
C5 C6 1_555 1_555
C6 C7 1_555 1_555
C7 C8 1_555 1_555
C8 C9 1_555 1_555
C9 C10 1_555 1_555
C10 C11 1_555 1_555
C11 C12 1_555 1_555
C12 O4 1_555 1_555
C13 C12 1_555 1_555
C14 C1 1_555 1_555
C15 C10 1_555 1_555
C16 C15 1_555 1_555
C17 C16 1_555 1_555
C18 C11 1_555 1_555
C19 Si1 1_555 1_555
C20 Si1 1_555 1_555
C21 Si1 1_555 1_555
C22 C21 1_555 1_555
C23 C21 1_555 1_555
C24 C21 1_555 1_555
H1 O1 1_555 1_555
H2 O5 1_555 1_555
H3 C1 1_555 1_555
H4 C2 1_555 1_555
H5 C3 1_555 1_555
H6 C8 1_555 1_555
H7 C9 1_555 1_555
H8 C11 1_555 1_555
H9 C15 1_555 1_555
H10 C15 1_555 1_555
H11 C16 1_555 1_555
H12 C16 1_555 1_555
H13 C17 1_555 1_555
H14 C17 1_555 1_555
H15 C18 1_555 1_555
H16 C19 1_555 1_555
H17 C19 1_555 1_555
H18 C19 1_555 1_555
H19 C20 1_555 1_555
H20 C20 1_555 1_555
H21 C20 1_555 1_555
H22 C22 1_555 1_555
H23 C22 1_555 1_555
H24 C22 1_555 1_555
H25 C23 1_555 1_555
H26 C23 1_555 1_555
H27 C23 1_555 1_555
H28 C24 1_555 1_555
H29 C24 1_555 1_555
H30 C24 1_555 1_555
C5 C14 1_555 1_555
C7 C12 1_555 1_555
C13 C14 1_555 1_555
C17 C18 1_555 1_555

#END
