
#######################################################################
#
#                 Cambridge Crystallographic Data Centre
#                                CCDC 
#
#######################################################################
#
# If this CIF has been generated from an entry in the Cambridge 
# Structural Database, then it will include bibliographic, chemical, 
# crystal, experimental, refinement or atomic coordinate data resulting 
# from the CCDC's data processing and validation procedures.
#
#######################################################################

data_WENROX
_chemical_name_common            N4-acetyl-sulfamerazine
_chemical_formula_moiety         'C13 H14 N4 O3 S1'
_chemical_name_systematic        
4-Acetamido-N-(4-methyl-2-pyrimidinyl)benzenesulfonamide
_chemical_properties_biological  
'acetylation metablolite of sulfamerazine commonly used as an antibacterial agent in veterinary practice'
_symmetry_cell_setting           monoclinic
_symmetry_space_group_name_H-M   'C 2/c'
_symmetry_Int_Tables_number      15
_space_group_name_Hall           '-C 2yn'
loop_
_symmetry_equiv_pos_site_id
_symmetry_equiv_pos_as_xyz
1 x,y,z
2 1/2+x,1/2+y,z
3 -x,y,1/2-z
4 1/2-x,1/2+y,1/2-z
5 -x,-y,-z
6 1/2-x,1/2-y,-z
7 x,-y,1/2+z
8 1/2+x,1/2-y,1/2+z
_cell_length_a                   12.2826(14)
_cell_length_b                   9.2479(11)
_cell_length_c                   26.010(3)
_cell_angle_alpha                90
_cell_angle_beta                 95.610(2)
_cell_angle_gamma                90
_cell_volume                     2940.28
_exptl_crystal_colour            yellow
_exptl_crystal_description       block
_cell_formula_units_Z            8
_exptl_crystal_recrystallization_method tetrahydrofuran
loop_
_atom_site_label
_atom_site_type_symbol
_atom_site_fract_x
_atom_site_fract_y
_atom_site_fract_z
S1 S 0.27625(4) 0.57541(6) 0.38585(2)
O1 O -0.23844(14) 0.70299(18) 0.26624(7)
O2 O 0.33765(12) 0.44487(18) 0.38449(6)
O3 O 0.32096(13) 0.70678(18) 0.36732(6)
N1 N -0.17336(14) 0.4775(2) 0.28666(7)
H1 H -0.1895(18) 0.3856(7) 0.2816(9)
N2 N 0.25603(15) 0.6164(2) 0.44550(7)
H2 H 0.2655(18) 0.7087(6) 0.4528(9)
N3 N 0.18755(14) 0.59097(19) 0.52417(7)
N4 N 0.16679(14) 0.40170(18) 0.46140(7)
C1 C -0.36183(19) 0.5074(3) 0.25218(11)
H3 H -0.3849 0.5354 0.2164
H4 H -0.4155 0.5422 0.2748
H5 H -0.3567 0.4018 0.2545
C2 C -0.25245(18) 0.5726(3) 0.26864(8)
C3 C -0.06608(17) 0.5074(2) 0.30785(8)
C4 C 0.00471(16) 0.3908(2) 0.31675(8)
H6 H -0.0196 0.2965 0.3068
C5 C 0.10968(17) 0.4101(2) 0.33980(8)
H7 H 0.1572 0.3296 0.3460
C6 C 0.14495(17) 0.5477(2) 0.35385(8)
C7 C 0.07557(19) 0.6652(2) 0.34481(8)
H8 H 0.1008 0.7594 0.3544
C8 C -0.02964(18) 0.6467(2) 0.32203(8)
H9 H -0.0769 0.7275 0.3160
C9 C 0.20038(16) 0.5309(2) 0.47825(8)
C10 C 0.13617(19) 0.5076(3) 0.55611(9)
H10 H 0.1248 0.5441 0.5893
C11 C 0.0992(2) 0.3712(3) 0.54292(9)
H11 H 0.0643 0.3132 0.5666
C12 C 0.11424(17) 0.3210(2) 0.49414(9)
C13 C 0.0725(2) 0.1774(3) 0.47447(10)
H12 H 0.1243 0.1353 0.4523
H13 H 0.0012 0.1901 0.4545
H14 H 0.0646 0.1127 0.5037
loop_
_geom_bond_atom_site_label_1
_geom_bond_atom_site_label_2
_geom_bond_site_symmetry_1
_geom_bond_site_symmetry_2
S1 O2 1_555 1_555
O1 C2 1_555 1_555
O3 S1 1_555 1_555
N1 H1 1_555 1_555
N2 S1 1_555 1_555
H2 N2 1_555 1_555
N3 C9 1_555 1_555
N4 C9 1_555 1_555
C1 H3 1_555 1_555
H4 C1 1_555 1_555
H5 C1 1_555 1_555
C2 N1 1_555 1_555
C3 N1 1_555 1_555
C4 C3 1_555 1_555
H6 C4 1_555 1_555
C5 C4 1_555 1_555
H7 C5 1_555 1_555
C6 S1 1_555 1_555
C7 C6 1_555 1_555
H8 C7 1_555 1_555
C8 C3 1_555 1_555
H9 C8 1_555 1_555
C9 N2 1_555 1_555
C10 N3 1_555 1_555
H10 C10 1_555 1_555
C11 C10 1_555 1_555
H11 C11 1_555 1_555
C12 N4 1_555 1_555
C13 C12 1_555 1_555
H12 C13 1_555 1_555
H13 C13 1_555 1_555
H14 C13 1_555 1_555
C1 C2 1_555 1_555
C5 C6 1_555 1_555
C7 C8 1_555 1_555
C11 C12 1_555 1_555

#END
