
#######################################################################
#
#                 Cambridge Crystallographic Data Centre
#                                CCDC 
#
#######################################################################
#
# If this CIF has been generated from an entry in the Cambridge 
# Structural Database, then it will include bibliographic, chemical, 
# crystal, experimental, refinement or atomic coordinate data resulting 
# from the CCDC's data processing and validation procedures.
#
#######################################################################

data_WENTUF
_chemical_formula_moiety         'C18 H14 Cl2 N2 O4'
_chemical_name_systematic        
'Methyl (2-(3-(2,4-dichlorophenyl)-1,2,4-oxadiazol-5-ylmethoxy)phenyl)acetate'
_symmetry_cell_setting           monoclinic
_symmetry_space_group_name_H-M   'P 21/c'
_symmetry_Int_Tables_number      14
_space_group_name_Hall           '-P 2ybc'
loop_
_symmetry_equiv_pos_site_id
_symmetry_equiv_pos_as_xyz
1 x,y,z
2 -x,1/2+y,1/2-z
3 -x,-y,-z
4 x,1/2-y,1/2+z
_cell_length_a                   7.4910(15)
_cell_length_b                   15.613(3)
_cell_length_c                   15.100(3)
_cell_angle_alpha                90
_cell_angle_beta                 90.59(3)
_cell_angle_gamma                90
_cell_volume                     1765.96
_exptl_crystal_colour            colorless
_exptl_crystal_description       block
_cell_formula_units_Z            4
_exptl_crystal_recrystallization_method 'ethyl acetate'
loop_
_atom_site_label
_atom_site_type_symbol
_atom_site_fract_x
_atom_site_fract_y
_atom_site_fract_z
Cl1 Cl 1.08603(17) 0.72884(8) 0.18656(7)
N1 N 0.9110(4) 0.87720(19) 0.4258(2)
O1 O 0.3586(5) 1.0361(3) 0.2152(2)
C1 C 0.2863(10) 0.9526(4) 0.1979(4)
H1 H 0.3276 0.9325 0.1416
H2 H 0.1583 0.9556 0.1969
H3 H 0.3245 0.9138 0.2436
Cl2 Cl 1.2663(2) 0.48342(8) 0.41615(10)
O2 O 0.2141(5) 1.0396(2) 0.3429(2)
N2 N 0.8349(5) 0.8495(2) 0.2838(2)
C2 C 0.3121(6) 1.0719(3) 0.2908(3)
O3 O 0.6200(4) 1.05834(17) 0.40464(18)
C3 C 0.4015(6) 1.1581(3) 0.3013(3)
H4 H 0.5110 1.1579 0.2675
H5 H 0.3239 1.2016 0.2760
O4 O 0.7641(4) 0.92934(18) 0.31141(19)
C4 C 0.4454(5) 1.1823(3) 0.3949(3)
C5 C 0.3821(6) 1.2565(3) 0.4320(3)
H6 H 0.3087 1.2919 0.3981
C6 C 0.4231(6) 1.2802(3) 0.5169(4)
H7 H 0.3795 1.3312 0.5399
C7 C 0.5303(6) 1.2272(3) 0.5684(3)
H8 H 0.5568 1.2420 0.6267
C8 C 0.5981(5) 1.1522(3) 0.5331(3)
H9 H 0.6706 1.1167 0.5674
C9 C 0.5572(5) 1.1306(2) 0.4469(3)
C10 C 0.7671(5) 1.0170(2) 0.4462(3)
H10 H 0.7363 1.0014 0.5063
H11 H 0.8683 1.0557 0.4489
C11 C 0.8154(5) 0.9392(2) 0.3957(3)
C12 C 0.9208(5) 0.8233(2) 0.3540(2)
C13 C 1.0108(5) 0.7394(2) 0.3630(2)
C14 C 1.0230(6) 0.7063(3) 0.4485(3)
H12 H 0.9774 0.7378 0.4954
C15 C 1.1003(6) 0.6286(3) 0.4650(3)
H13 H 1.1074 0.6074 0.5225
C16 C 1.1674(6) 0.5821(3) 0.3957(3)
C17 C 1.1594(5) 0.6122(2) 0.3107(3)
H14 H 1.2050 0.5800 0.2644
C18 C 1.0821(5) 0.6912(2) 0.2949(3)
loop_
_geom_bond_atom_site_label_1
_geom_bond_atom_site_label_2
_geom_bond_site_symmetry_1
_geom_bond_site_symmetry_2
Cl1 C18 1_555 1_555
N1 C11 1_555 1_555
O1 C1 1_555 1_555
C1 H1 1_555 1_555
H2 C1 1_555 1_555
H3 C1 1_555 1_555
Cl2 C16 1_555 1_555
O2 C2 1_555 1_555
N2 O4 1_555 1_555
C2 O1 1_555 1_555
O3 C9 1_555 1_555
C3 C2 1_555 1_555
H4 C3 1_555 1_555
H5 C3 1_555 1_555
O4 C11 1_555 1_555
C4 C3 1_555 1_555
C5 C4 1_555 1_555
H6 C5 1_555 1_555
C6 C5 1_555 1_555
H7 C6 1_555 1_555
C7 C6 1_555 1_555
H8 C7 1_555 1_555
C8 C7 1_555 1_555
H9 C8 1_555 1_555
C9 C4 1_555 1_555
C10 O3 1_555 1_555
H10 C10 1_555 1_555
H11 C10 1_555 1_555
C11 C10 1_555 1_555
C12 N1 1_555 1_555
C13 C12 1_555 1_555
C14 C13 1_555 1_555
H12 C14 1_555 1_555
C15 C14 1_555 1_555
H13 C15 1_555 1_555
C16 C15 1_555 1_555
C17 C16 1_555 1_555
H14 C17 1_555 1_555
C18 C13 1_555 1_555
N2 C12 1_555 1_555
C8 C9 1_555 1_555
C17 C18 1_555 1_555

#END
