
#######################################################################
#
#                 Cambridge Crystallographic Data Centre
#                                CCDC 
#
#######################################################################
#
# If this CIF has been generated from an entry in the Cambridge 
# Structural Database, then it will include bibliographic, chemical, 
# crystal, experimental, refinement or atomic coordinate data resulting 
# from the CCDC's data processing and validation procedures.
#
#######################################################################

data_WENVUJ
_chemical_formula_moiety         'C24 H17 N1'
_chemical_name_systematic        4-(2-methylnaphthalen-1-yl)phenanthridine
_symmetry_cell_setting           orthorhombic
_symmetry_space_group_name_H-M   'P 21 21 21'
_symmetry_Int_Tables_number      19
_space_group_name_Hall           'P 2ac 2ab'
loop_
_symmetry_equiv_pos_site_id
_symmetry_equiv_pos_as_xyz
1 x,y,z
2 1/2-x,-y,1/2+z
3 -x,1/2+y,1/2-z
4 1/2+x,1/2-y,-z
_cell_length_a                   8.6813(2)
_cell_length_b                   10.6444(3)
_cell_length_c                   19.1425(6)
_cell_angle_alpha                90
_cell_angle_beta                 90
_cell_angle_gamma                90
_cell_volume                     1768.91
_exptl_crystal_colour            colorless
_exptl_crystal_description       prismatic
_cell_formula_units_Z            4
loop_
_atom_site_label
_atom_site_type_symbol
_atom_site_fract_x
_atom_site_fract_y
_atom_site_fract_z
N1 N 0.3168(2) 0.34473(18) 0.67828(10)
C1 C 0.4208(3) 0.4157(2) 0.70653(13)
H1 H 0.4401 0.4044 0.7539
C2 C 0.5082(2) 0.5098(2) 0.67115(14)
C3 C 0.6187(3) 0.5816(3) 0.70717(18)
H2 H 0.6320 0.5712 0.7550
C4 C 0.7058(4) 0.6659(3) 0.6716(2)
H3 H 0.7787 0.7140 0.6952
C5 C 0.6861(4) 0.6805(3) 0.6002(2)
H4 H 0.7480 0.7373 0.5762
C6 C 0.5766(3) 0.6127(2) 0.56378(17)
H5 H 0.5652 0.6241 0.5159
C7 C 0.4832(2) 0.5270(2) 0.59923(14)
C8 C 0.3614(2) 0.45425(19) 0.56673(12)
C9 C 0.3154(3) 0.4693(2) 0.49704(12)
H6 H 0.3643 0.5288 0.4692
C10 C 0.1992(3) 0.3974(3) 0.46934(14)
H7 H 0.1693 0.4095 0.4232
C11 C 0.1262(3) 0.3072(2) 0.50946(12)
H8 H 0.0488 0.2582 0.4898
C12 C 0.1671(2) 0.28907(19) 0.57846(11)
C13 C 0.2836(2) 0.36488(19) 0.60786(11)
C14 C 0.0863(2) 0.19093(19) 0.62058(11)
C15 C 0.1489(2) 0.0677(2) 0.62289(11)
C16 C 0.2881(3) 0.0348(2) 0.58860(13)
H9 H 0.3422 0.0960 0.5641
C17 C 0.3440(3) -0.0845(3) 0.59095(16)
H10 H 0.4355 -0.1038 0.5681
C18 C 0.2653(4) -0.1783(3) 0.62736(18)
H11 H 0.3049 -0.2595 0.6290
C19 C 0.1305(3) -0.1509(2) 0.66042(15)
H12 H 0.0775 -0.2144 0.6836
C20 C 0.0701(3) -0.0283(2) 0.66017(12)
C21 C -0.0676(3) 0.0031(2) 0.69535(13)
H13 H -0.1197 -0.0580 0.7208
C22 C -0.1244(3) 0.1209(2) 0.69248(13)
H14 H -0.2148 0.1394 0.7164
C23 C -0.0501(3) 0.2178(2) 0.65389(12)
C24 C -0.1240(3) 0.3456(2) 0.64876(15)
H15 H -0.0465 0.4094 0.6533
H16 H -0.1986 0.3550 0.6854
H17 H -0.1741 0.3539 0.6043
loop_
_geom_bond_atom_site_label_1
_geom_bond_atom_site_label_2
_geom_bond_site_symmetry_1
_geom_bond_site_symmetry_2
N1 C1 1_555 1_555
C1 H1 1_555 1_555
C2 C1 1_555 1_555
C3 C2 1_555 1_555
H2 C3 1_555 1_555
C4 C3 1_555 1_555
H3 C4 1_555 1_555
C5 C4 1_555 1_555
H4 C5 1_555 1_555
C6 C5 1_555 1_555
H5 C6 1_555 1_555
C7 C2 1_555 1_555
C8 C7 1_555 1_555
C9 C8 1_555 1_555
H6 C9 1_555 1_555
C10 C9 1_555 1_555
H7 C10 1_555 1_555
C11 C10 1_555 1_555
H8 C11 1_555 1_555
C12 C11 1_555 1_555
C13 N1 1_555 1_555
C14 C12 1_555 1_555
C15 C14 1_555 1_555
C16 C15 1_555 1_555
H9 C16 1_555 1_555
C17 C16 1_555 1_555
H10 C17 1_555 1_555
C18 C17 1_555 1_555
H11 C18 1_555 1_555
C19 C18 1_555 1_555
H12 C19 1_555 1_555
C20 C15 1_555 1_555
C21 C20 1_555 1_555
H13 C21 1_555 1_555
C22 C21 1_555 1_555
H14 C22 1_555 1_555
C23 C14 1_555 1_555
C24 C23 1_555 1_555
H15 C24 1_555 1_555
H16 C24 1_555 1_555
H17 C24 1_555 1_555
C6 C7 1_555 1_555
C8 C13 1_555 1_555
C12 C13 1_555 1_555
C19 C20 1_555 1_555
C22 C23 1_555 1_555

#END
