
#######################################################################
#
#                 Cambridge Crystallographic Data Centre
#                                CCDC 
#
#######################################################################
#
# If this CIF has been generated from an entry in the Cambridge 
# Structural Database, then it will include bibliographic, chemical, 
# crystal, experimental, refinement or atomic coordinate data resulting 
# from the CCDC's data processing and validation procedures.
#
#######################################################################

data_WENVIV
_chemical_formula_moiety         'C17 H22 N2 O5 S2'
_chemical_name_systematic        
3-(4-t-Butyl-2,6-dimethyl-3,5-dinitrobenzoyl)-3,3-bis(methylsulfanyl)prop-2-en-1-one
_symmetry_cell_setting           triclinic
_symmetry_space_group_name_H-M   'P -1'
_symmetry_Int_Tables_number      2
_space_group_name_Hall           '-P 1'
loop_
_symmetry_equiv_pos_site_id
_symmetry_equiv_pos_as_xyz
1 x,y,z
2 -x,-y,-z
_cell_length_a                   8.657(2)
_cell_length_b                   10.193(3)
_cell_length_c                   12.561(3)
_cell_angle_alpha                67.272(4)
_cell_angle_beta                 71.840(4)
_cell_angle_gamma                82.758(4)
_cell_volume                     971.383
_exptl_crystal_colour            yellow
_exptl_crystal_description       prism
_chemical_melting_point          '495-496 K'
_cell_formula_units_Z            2
loop_
_atom_site_label
_atom_site_type_symbol
_atom_site_fract_x
_atom_site_fract_y
_atom_site_fract_z
S1 S 0.42451(10) -0.02599(8) 0.86759(7)
S2 S 0.29293(10) 0.26659(9) 0.80284(8)
O1 O 0.9484(3) 0.1499(2) 0.16461(19)
O2 O 0.8535(3) 0.3633(3) 0.1425(2)
O3 O 1.3217(2) 0.2775(2) 0.47569(19)
O4 O 1.2055(3) 0.4832(2) 0.41792(18)
O5 O 0.7083(3) -0.0312(2) 0.69054(18)
N1 N 0.9173(3) 0.2533(3) 0.1943(2)
N2 N 1.2156(3) 0.3558(3) 0.43670(19)
C1 C 0.8387(3) 0.1647(2) 0.5194(2)
C2 C 0.8272(3) 0.1724(3) 0.4089(2)
C3 C 0.6837(3) 0.1090(3) 0.4027(3)
H1 H 0.7094 0.0133 0.4061
H2 H 0.6589 0.1648 0.3286
H3 H 0.5914 0.1085 0.4694
C4 C 0.9504(3) 0.2432(3) 0.3064(2)
C5 C 1.0865(3) 0.3069(2) 0.3025(2)
C6 C 1.2170(3) 0.3914(3) 0.1851(2)
C7 C 1.2390(4) 0.3383(3) 0.0811(2)
H4 H 1.2509 0.2367 0.1103
H5 H 1.3344 0.3806 0.0171
H6 H 1.1455 0.3648 0.0515
C8 C 1.3890(4) 0.3768(3) 0.2018(3)
H7 H 1.3958 0.4348 0.2449
H8 H 1.4686 0.4074 0.1243
H9 H 1.4092 0.2793 0.2466
C9 C 1.1640(5) 0.5485(3) 0.1449(3)
H10 H 1.0616 0.5571 0.1280
H11 H 1.2444 0.6033 0.0735
H12 H 1.1531 0.5831 0.2079
C10 C 1.0870(3) 0.2911(2) 0.4184(2)
C11 C 0.9705(3) 0.2215(2) 0.5263(2)
C12 C 0.9845(4) 0.2086(3) 0.6476(2)
H13 H 0.8789 0.1921 0.7053
H14 H 1.0280 0.2950 0.6397
H15 H 1.0555 0.1306 0.6742
C13 C 0.7030(3) 0.0957(3) 0.6328(2)
C14 C 0.5749(3) 0.1891(3) 0.6660(2)
H16 H 0.5807 0.2842 0.6150
C15 C 0.4470(3) 0.1490(3) 0.7657(2)
C16 C 0.2412(4) -0.0253(4) 0.9862(3)
H17 H 0.2552 0.0364 1.0239
H18 H 0.2195 -0.1201 1.0449
H19 H 0.1517 0.0081 0.9525
C17 C 0.3467(4) 0.4321(3) 0.6794(3)
H20 H 0.4523 0.4602 0.6724
H21 H 0.2681 0.5035 0.6930
H22 H 0.3487 0.4215 0.6062
loop_
_geom_bond_atom_site_label_1
_geom_bond_atom_site_label_2
_geom_bond_site_symmetry_1
_geom_bond_site_symmetry_2
S1 C15 1_555 1_555
S2 C15 1_555 1_555
O1 N1 1_555 1_555
O2 N1 1_555 1_555
O3 N2 1_555 1_555
O4 N2 1_555 1_555
O5 C13 1_555 1_555
N1 C4 1_555 1_555
N2 C10 1_555 1_555
C1 C2 1_555 1_555
C2 C3 1_555 1_555
C3 H1 1_555 1_555
H2 C3 1_555 1_555
H3 C3 1_555 1_555
C4 C2 1_555 1_555
C5 C4 1_555 1_555
C6 C5 1_555 1_555
C7 C6 1_555 1_555
H4 C7 1_555 1_555
H5 C7 1_555 1_555
H6 C7 1_555 1_555
C8 C6 1_555 1_555
H7 C8 1_555 1_555
H8 C8 1_555 1_555
H9 C8 1_555 1_555
C9 C6 1_555 1_555
H10 C9 1_555 1_555
H11 C9 1_555 1_555
H12 C9 1_555 1_555
C10 C5 1_555 1_555
C11 C1 1_555 1_555
C12 C11 1_555 1_555
H13 C12 1_555 1_555
H14 C12 1_555 1_555
H15 C12 1_555 1_555
C13 C1 1_555 1_555
C14 C13 1_555 1_555
H16 C14 1_555 1_555
C15 C14 1_555 1_555
C16 S1 1_555 1_555
H17 C16 1_555 1_555
H18 C16 1_555 1_555
H19 C16 1_555 1_555
C17 S2 1_555 1_555
H20 C17 1_555 1_555
H21 C17 1_555 1_555
H22 C17 1_555 1_555
C10 C11 1_555 1_555

#END
