
#######################################################################
#
#                 Cambridge Crystallographic Data Centre
#                                CCDC 
#
#######################################################################
#
# If this CIF has been generated from an entry in the Cambridge 
# Structural Database, then it will include bibliographic, chemical, 
# crystal, experimental, refinement or atomic coordinate data resulting 
# from the CCDC's data processing and validation procedures.
#
#######################################################################

data_WENVAN
_chemical_formula_moiety         'C18 H17 N1 O4'
_chemical_name_systematic        
(R)-3-((E)-3-(2-Furyl)acryloyl)-5,5-dimethyl-4-phenyloxazolidin-2-one
_symmetry_cell_setting           monoclinic
_symmetry_space_group_name_H-M   'P 21'
_symmetry_Int_Tables_number      4
_space_group_name_Hall           'P 2yb'
loop_
_symmetry_equiv_pos_site_id
_symmetry_equiv_pos_as_xyz
1 x,y,z
2 -x,1/2+y,-z
_cell_length_a                   5.5281(4)
_cell_length_b                   12.8677(9)
_cell_length_c                   11.0920(9)
_cell_angle_alpha                90
_cell_angle_beta                 92.953(3)
_cell_angle_gamma                90
_cell_volume                     787.97
_exptl_crystal_colour            colorless
_exptl_crystal_description       block
_chemical_melting_point          '411 K'
_cell_formula_units_Z            2
_exptl_crystal_recrystallization_method 'ethyl acetate/hexane'
loop_
_atom_site_label
_atom_site_type_symbol
_atom_site_fract_x
_atom_site_fract_y
_atom_site_fract_z
C1 C 0.7040(3) 0.01276(16) 0.94258(16)
C2 C 0.9466(3) -0.11964(15) 1.02481(15)
C3 C 1.0259(3) -0.09863(13) 0.89337(15)
H1 H 1.1959 -0.0767 0.8975
C4 C 1.1344(4) -0.0799(3) 1.11667(18)
H2 H 1.0823 -0.0933 1.1964
H3 H 1.1551 -0.0065 1.1060
H4 H 1.2855 -0.1146 1.1061
C5 C 0.8703(5) -0.22988(19) 1.0508(2)
H5 H 0.8249 -0.2349 1.1329
H6 H 1.0028 -0.2762 1.0383
H7 H 0.7349 -0.2485 0.9975
C6 C 0.9980(3) -0.18962(13) 0.80770(14)
C7 C 1.1819(3) -0.26317(16) 0.80816(18)
H8 H 1.3205 -0.2538 0.8581
C8 C 1.1612(4) -0.35064(17) 0.7349(2)
H9 H 1.2842 -0.4000 0.7370
C9 C 0.9586(4) -0.36413(17) 0.6593(2)
H10 H 0.9447 -0.4224 0.6099
C10 C 0.7768(4) -0.29136(17) 0.65695(19)
H11 H 0.6405 -0.3004 0.6054
C11 C 0.7951(3) -0.20426(15) 0.73108(16)
H12 H 0.6704 -0.1556 0.7292
C12 C 0.9274(4) 0.04818(13) 0.75508(15)
C13 C 0.7616(4) 0.13365(14) 0.71807(16)
H13 H 0.6143 0.1412 0.7541
C14 C 0.8241(3) 0.19977(14) 0.63289(15)
H14 H 0.9693 0.1873 0.5967
C15 C 0.6865(3) 0.28852(14) 0.59218(15)
C16 C 0.7269(4) 0.36269(17) 0.50892(18)
H15 H 0.8580 0.3662 0.4598
C17 C 0.5327(5) 0.43342(17) 0.5108(2)
H16 H 0.5102 0.4926 0.4634
C18 C 0.3871(5) 0.39843(19) 0.5944(2)
H17 H 0.2444 0.4308 0.6147
O1 O 0.4752(3) 0.30899(12) 0.64615(13)
O2 O 1.1034(3) 0.02406(12) 0.70104(13)
O3 O 0.5518(3) 0.07879(14) 0.93987(14)
O4 O 0.7309(2) -0.05559(13) 1.03315(13)
N1 N 0.8748(3) -0.00916(11) 0.85844(13)
loop_
_geom_bond_atom_site_label_1
_geom_bond_atom_site_label_2
_geom_bond_site_symmetry_1
_geom_bond_site_symmetry_2
C1 O3 1_555 1_555
C2 C3 1_555 1_555
C3 H1 1_555 1_555
C4 C2 1_555 1_555
H2 C4 1_555 1_555
H3 C4 1_555 1_555
H4 C4 1_555 1_555
C5 C2 1_555 1_555
H5 C5 1_555 1_555
H6 C5 1_555 1_555
H7 C5 1_555 1_555
C6 C3 1_555 1_555
C7 C6 1_555 1_555
H8 C7 1_555 1_555
C8 C7 1_555 1_555
H9 C8 1_555 1_555
C9 C8 1_555 1_555
H10 C9 1_555 1_555
C10 C9 1_555 1_555
H11 C10 1_555 1_555
C11 C6 1_555 1_555
H12 C11 1_555 1_555
C12 C13 1_555 1_555
C13 H13 1_555 1_555
C14 C13 1_555 1_555
H14 C14 1_555 1_555
C15 C14 1_555 1_555
C16 C15 1_555 1_555
H15 C16 1_555 1_555
C17 C16 1_555 1_555
H16 C17 1_555 1_555
C18 C17 1_555 1_555
H17 C18 1_555 1_555
O1 C15 1_555 1_555
O2 C12 1_555 1_555
O4 C1 1_555 1_555
N1 C1 1_555 1_555
C2 O4 1_555 1_555
C3 N1 1_555 1_555
C10 C11 1_555 1_555
C12 N1 1_555 1_555
C18 O1 1_555 1_555

#END
