
#######################################################################
#
#                 Cambridge Crystallographic Data Centre
#                                CCDC 
#
#######################################################################
#
# If this CIF has been generated from an entry in the Cambridge 
# Structural Database, then it will include bibliographic, chemical, 
# crystal, experimental, refinement or atomic coordinate data resulting 
# from the CCDC's data processing and validation procedures.
#
#######################################################################

data_WENWIW
_chemical_formula_moiety         'C30 H25 N5 O6'
_chemical_name_systematic        
1-Acetyl-3,3-bis(3-(3-methoxyphenyl)-1,2,4-oxadiazol-5-ylmethyl)indolin-2-one
_symmetry_cell_setting           triclinic
_symmetry_space_group_name_H-M   'P -1'
_symmetry_Int_Tables_number      2
_space_group_name_Hall           '-P 1'
loop_
_symmetry_equiv_pos_site_id
_symmetry_equiv_pos_as_xyz
1 x,y,z
2 -x,-y,-z
_cell_length_a                   8.6300(17)
_cell_length_b                   11.866(2)
_cell_length_c                   14.616(3)
_cell_angle_alpha                108.95(3)
_cell_angle_beta                 99.02(3)
_cell_angle_gamma                101.17(3)
_cell_volume                     1349.31
_exptl_crystal_colour            colorless
_exptl_crystal_description       Block
_cell_formula_units_Z            2
_exptl_crystal_recrystallization_method ethanol
loop_
_atom_site_label
_atom_site_type_symbol
_atom_site_fract_x
_atom_site_fract_y
_atom_site_fract_z
O1 O 0.0119(5) -0.3145(4) 0.4303(3)
O2 O 0.5030(6) 0.2212(3) 0.4452(3)
O3 O 0.5615(5) 0.3922(3) 0.3182(3)
O4 O 0.0780(6) 0.3887(4) 0.2863(3)
O5 O 0.1912(5) 0.6866(3) 0.0801(3)
O6 O 0.4701(4) 0.1580(3) -0.0386(3)
N1 N 0.4181(7) 0.1898(4) 0.5122(4)
N2 N 0.3857(5) 0.0245(3) 0.3744(3)
N3 N 0.2838(4) 0.3007(3) 0.2621(3)
N4 N 0.4138(4) 0.3121(3) 0.0691(3)
N5 N 0.3938(5) 0.2181(3) -0.0952(3)
C1 C -0.1049(9) -0.3885(6) 0.4599(5)
H1 H -0.1394 -0.4711 0.4114
H2 H -0.1969 -0.3546 0.4652
H3 H -0.0573 -0.3899 0.5234
C2 C 0.0754(6) -0.1935(5) 0.4913(4)
C3 C 0.0434(7) -0.1397(6) 0.5813(4)
H4 H -0.0270 -0.1858 0.6059
C4 C 0.1167(8) -0.0159(6) 0.6361(4)
H5 H 0.0970 0.0206 0.6983
C5 C 0.2167(8) 0.0527(5) 0.6000(4)
H6 H 0.2641 0.1359 0.6375
C6 C 0.2492(6) 0.0003(5) 0.5080(4)
C7 C 0.1776(6) -0.1243(5) 0.4542(4)
H7 H 0.1986 -0.1616 0.3925
C8 C 0.3520(6) 0.0715(4) 0.4654(4)
C9 C 0.4787(6) 0.1180(4) 0.3653(4)
C10 C 0.5549(6) 0.1261(4) 0.2837(4)
H8 H 0.5644 0.0449 0.2458
H9 H 0.6639 0.1805 0.3119
C11 C 0.4613(5) 0.1738(4) 0.2131(4)
C12 C 0.4458(5) 0.3035(4) 0.2697(4)
C13 C 0.3420(9) 0.5227(5) 0.3626(5)
H10 H 0.2865 0.5854 0.3854
H11 H 0.4118 0.5455 0.3229
H12 H 0.4059 0.5143 0.4188
C14 C 0.2214(7) 0.4039(5) 0.3019(4)
C15 C 0.1858(5) 0.1788(4) 0.2014(3)
C16 C 0.0177(5) 0.1356(4) 0.1765(3)
H13 H -0.0489 0.1875 0.1957
C17 C -0.0438(6) 0.0129(5) 0.1224(4)
H14 H -0.1562 -0.0183 0.1031
C18 C 0.0478(6) -0.0657(4) 0.0951(4)
H15 H -0.0010 -0.1495 0.0612
C19 C 0.2209(6) -0.0203(4) 0.1184(4)
H16 H 0.2862 -0.0726 0.0973
C20 C 0.2869(5) 0.1024(3) 0.1727(3)
C21 C 0.5557(6) 0.1789(4) 0.1333(4)
H17 H 0.6629 0.2348 0.1658
H18 H 0.5700 0.0975 0.1009
C22 C 0.4775(5) 0.2193(4) 0.0562(4)
C23 C 0.3641(5) 0.3073(4) -0.0261(4)
C24 C 0.2851(5) 0.3973(4) -0.0497(3)
C25 C 0.2764(5) 0.4968(4) 0.0293(3)
H19 H 0.3172 0.5051 0.0946
C26 C 0.2048(5) 0.5848(4) 0.0086(4)
C27 C 0.1433(6) 0.5705(5) -0.0869(4)
H20 H 0.0943 0.6290 -0.0993
C28 C 0.1514(7) 0.4725(6) -0.1651(4)
H21 H 0.1087 0.4645 -0.2300
C29 C 0.2246(7) 0.3841(5) -0.1467(4)
H22 H 0.2324 0.3173 -0.1993
C30 C 0.2563(8) 0.7079(5) 0.1802(4)
H23 H 0.2374 0.7827 0.2220
H24 H 0.3711 0.7156 0.1907
H25 H 0.2049 0.6400 0.1965
loop_
_geom_bond_atom_site_label_1
_geom_bond_atom_site_label_2
_geom_bond_site_symmetry_1
_geom_bond_site_symmetry_2
O1 C1 1_555 1_555
O2 N1 1_555 1_555
O3 C12 1_555 1_555
O4 C14 1_555 1_555
O5 C26 1_555 1_555
O6 N5 1_555 1_555
N1 C8 1_555 1_555
N2 C8 1_555 1_555
N3 C12 1_555 1_555
N4 C22 1_555 1_555
N5 C23 1_555 1_555
C1 H1 1_555 1_555
H2 C1 1_555 1_555
H3 C1 1_555 1_555
C2 O1 1_555 1_555
C3 C2 1_555 1_555
H4 C3 1_555 1_555
C4 C3 1_555 1_555
H5 C4 1_555 1_555
C5 C4 1_555 1_555
H6 C5 1_555 1_555
C6 C5 1_555 1_555
C7 C2 1_555 1_555
H7 C7 1_555 1_555
C8 C6 1_555 1_555
C9 O2 1_555 1_555
C10 C9 1_555 1_555
H8 C10 1_555 1_555
H9 C10 1_555 1_555
C11 C10 1_555 1_555
C12 C11 1_555 1_555
C13 H10 1_555 1_555
H11 C13 1_555 1_555
H12 C13 1_555 1_555
C14 N3 1_555 1_555
C15 N3 1_555 1_555
C16 C15 1_555 1_555
H13 C16 1_555 1_555
C17 C16 1_555 1_555
H14 C17 1_555 1_555
C18 C17 1_555 1_555
H15 C18 1_555 1_555
C19 C18 1_555 1_555
H16 C19 1_555 1_555
C20 C11 1_555 1_555
C21 C11 1_555 1_555
H17 C21 1_555 1_555
H18 C21 1_555 1_555
C22 O6 1_555 1_555
C23 N4 1_555 1_555
C24 C23 1_555 1_555
C25 C24 1_555 1_555
H19 C25 1_555 1_555
C26 C25 1_555 1_555
C27 C26 1_555 1_555
H20 C27 1_555 1_555
C28 C27 1_555 1_555
H21 C28 1_555 1_555
C29 C24 1_555 1_555
H22 C29 1_555 1_555
C30 O5 1_555 1_555
H23 C30 1_555 1_555
H24 C30 1_555 1_555
H25 C30 1_555 1_555
N2 C9 1_555 1_555
C6 C7 1_555 1_555
C13 C14 1_555 1_555
C15 C20 1_555 1_555
C19 C20 1_555 1_555
C21 C22 1_555 1_555
C28 C29 1_555 1_555

#END
