
#######################################################################
#
#                 Cambridge Crystallographic Data Centre
#                                CCDC 
#
#######################################################################
#
# If this CIF has been generated from an entry in the Cambridge 
# Structural Database, then it will include bibliographic, chemical, 
# crystal, experimental, refinement or atomic coordinate data resulting 
# from the CCDC's data processing and validation procedures.
#
#######################################################################

data_WENWOC
_chemical_formula_moiety         'C24 H20 Cl1 N3 O3'
_chemical_name_systematic        
2-(2-(3-(4-Chlorophenyl)-1,2,4-oxadiazol-5-yl)phenoxy)-N-(2,6-dimethylphenyl)acetamide
_symmetry_cell_setting           monoclinic
_symmetry_space_group_name_H-M   'P 21/n'
_symmetry_Int_Tables_number      14
_space_group_name_Hall           '-P 2yn'
loop_
_symmetry_equiv_pos_site_id
_symmetry_equiv_pos_as_xyz
1 x,y,z
2 1/2-x,1/2+y,1/2-z
3 -x,-y,-z
4 1/2+x,1/2-y,1/2+z
_cell_length_a                   12.498(3)
_cell_length_b                   8.2410(16)
_cell_length_c                   20.996(4)
_cell_angle_alpha                90
_cell_angle_beta                 93.21(3)
_cell_angle_gamma                90
_cell_volume                     2159.11
_exptl_crystal_colour            colorless
_exptl_crystal_description       Block
_cell_formula_units_Z            4
_exptl_crystal_recrystallization_method ethanol
loop_
_atom_site_label
_atom_site_type_symbol
_atom_site_fract_x
_atom_site_fract_y
_atom_site_fract_z
Cl1 Cl 0.04360(8) 0.71767(14) 0.09117(5)
O1 O 0.7416(2) 0.7680(3) 0.24146(14)
O2 O 0.73560(17) 0.4728(3) 0.12034(11)
O3 O 0.54566(19) 0.1704(3) 0.00845(13)
N1 N 0.6069(2) 0.6423(3) 0.18362(13)
H1 H 0.5927 0.5788 0.1518
N2 N 0.5366(2) 0.3744(3) 0.07537(12)
C1 C 0.4807(3) 0.4295(4) 0.2544(2)
H2 H 0.4295 0.3777 0.2801
H3 H 0.5516 0.4133 0.2734
H4 H 0.4760 0.3835 0.2124
C2 C 0.5589(3) 0.9848(4) 0.1661(2)
H5 H 0.6149 0.9235 0.1479
H6 H 0.5897 1.0726 0.1909
H7 H 0.5116 1.0275 0.1326
N3 N 0.4380(2) 0.2218(4) 0.00522(16)
C3 C 0.4969(3) 0.8761(4) 0.20834(18)
C4 C 0.4108(3) 0.9357(5) 0.2412(2)
H8 H 0.3948 1.0458 0.2389
C5 C 0.3496(3) 0.8367(6) 0.2768(2)
H9 H 0.2930 0.8797 0.2984
C6 C 0.3717(3) 0.6746(5) 0.28060(18)
H10 H 0.3286 0.6075 0.3039
C7 C 0.4570(3) 0.6085(4) 0.25037(16)
C8 C 0.5191(2) 0.7121(4) 0.21498(15)
C9 C 0.7102(3) 0.6701(4) 0.20111(17)
C10 C 0.7906(3) 0.5688(4) 0.16835(17)
H11 H 0.8424 0.6385 0.1491
H12 H 0.8287 0.4990 0.1991
C11 C 0.7805(3) 0.3333(4) 0.09962(15)
C12 C 0.8871(3) 0.2942(4) 0.11056(17)
H13 H 0.9323 0.3626 0.1349
C13 C 0.9266(3) 0.1536(5) 0.08539(19)
H14 H 0.9986 0.1273 0.0928
C14 C 0.8608(3) 0.0519(5) 0.0494(2)
H15 H 0.8881 -0.0427 0.0325
C15 C 0.7547(3) 0.0902(4) 0.03859(18)
H16 H 0.7102 0.0204 0.0145
C16 C 0.7124(3) 0.2317(4) 0.06301(16)
C17 C 0.5987(3) 0.2664(4) 0.05119(16)
C18 C 0.4382(3) 0.3422(4) 0.04508(17)
C19 C 0.3407(2) 0.4326(4) 0.05710(16)
C20 C 0.2413(3) 0.3798(4) 0.03375(19)
H17 H 0.2361 0.2840 0.0104
C21 C 0.1498(3) 0.4662(5) 0.04434(18)
H18 H 0.0832 0.4289 0.0286
C22 C 0.1580(3) 0.6077(5) 0.07834(17)
C23 C 0.2555(3) 0.6620(5) 0.10226(17)
H19 H 0.2603 0.7575 0.1259
C24 C 0.3467(3) 0.5749(4) 0.09128(16)
H20 H 0.4130 0.6128 0.1072
loop_
_geom_bond_atom_site_label_1
_geom_bond_atom_site_label_2
_geom_bond_site_symmetry_1
_geom_bond_site_symmetry_2
Cl1 C22 1_555 1_555
O1 C9 1_555 1_555
O2 C10 1_555 1_555
O3 N3 1_555 1_555
N1 H1 1_555 1_555
N2 C17 1_555 1_555
C1 H2 1_555 1_555
H3 C1 1_555 1_555
H4 C1 1_555 1_555
C2 H5 1_555 1_555
H6 C2 1_555 1_555
H7 C2 1_555 1_555
N3 C18 1_555 1_555
C3 C2 1_555 1_555
C4 C3 1_555 1_555
H8 C4 1_555 1_555
C5 C4 1_555 1_555
H9 C5 1_555 1_555
C6 C5 1_555 1_555
H10 C6 1_555 1_555
C7 C1 1_555 1_555
C8 N1 1_555 1_555
C9 N1 1_555 1_555
C10 C9 1_555 1_555
H11 C10 1_555 1_555
H12 C10 1_555 1_555
C11 O2 1_555 1_555
C12 C11 1_555 1_555
H13 C12 1_555 1_555
C13 C12 1_555 1_555
H14 C13 1_555 1_555
C14 C13 1_555 1_555
H15 C14 1_555 1_555
C15 C14 1_555 1_555
H16 C15 1_555 1_555
C16 C11 1_555 1_555
C17 O3 1_555 1_555
C18 N2 1_555 1_555
C19 C18 1_555 1_555
C20 C19 1_555 1_555
H17 C20 1_555 1_555
C21 C20 1_555 1_555
H18 C21 1_555 1_555
C22 C21 1_555 1_555
C23 C22 1_555 1_555
H19 C23 1_555 1_555
C24 C19 1_555 1_555
H20 C24 1_555 1_555
C3 C8 1_555 1_555
C6 C7 1_555 1_555
C7 C8 1_555 1_555
C15 C16 1_555 1_555
C16 C17 1_555 1_555
C23 C24 1_555 1_555

#END
