
#######################################################################
#
#                 Cambridge Crystallographic Data Centre
#                                CCDC 
#
#######################################################################
#
# If this CIF has been generated from an entry in the Cambridge 
# Structural Database, then it will include bibliographic, chemical, 
# crystal, experimental, refinement or atomic coordinate data resulting 
# from the CCDC's data processing and validation procedures.
#
#######################################################################

data_WENYOF
_chemical_formula_moiety         'C36 H49 N4 3-,3(K1 1+),C4 H8 O1,2(C7 H8)'
_chemical_name_systematic        
'tri-potassium 5,5,10,10,15,15,20,20-octaethyl-5,10,15,20,22,24-hexahydroporphyrinate tetrahydrofuran toluene solvate'
_symmetry_cell_setting           monoclinic
_symmetry_space_group_name_H-M   'P 21/m'
_symmetry_Int_Tables_number      11
_space_group_name_Hall           '-P 2yb'
loop_
_symmetry_equiv_pos_site_id
_symmetry_equiv_pos_as_xyz
1 x,y,z
2 -x,1/2+y,-z
3 -x,-y,-z
4 x,1/2-y,z
_cell_length_a                   10.0771(5)
_cell_length_b                   16.5047(9)
_cell_length_c                   15.2788(8)
_cell_angle_alpha                90
_cell_angle_beta                 96.2560(10)
_cell_angle_gamma                90
_cell_volume                     2526.03
_exptl_crystal_colour            colorless
_exptl_crystal_description       prism
_cell_formula_units_Z            2
loop_
_atom_site_label
_atom_site_type_symbol
_atom_site_fract_x
_atom_site_fract_y
_atom_site_fract_z
N1 N 0.2491(2) 0.2500 0.57948(16)
C1 C 0.3259(2) 0.18311(14) 0.56548(13)
N2 N 0.26570(17) 0.11124(10) 0.74026(12)
C2 C 0.4484(2) 0.20735(14) 0.54000(15)
H1 H 0.5184 0.1730 0.5255
N3 N 0.2147(3) 0.2500 0.90075(17)
C3 C 0.2742(2) 0.09762(14) 0.57837(14)
H2 H 0.135(4) 0.2500 0.890(2)
C4 C 0.3953(2) 0.03941(14) 0.59252(16)
H3 H 0.4460 0.0428 0.5406
H4 H 0.4550 0.0580 0.6444
C5 C 0.3586(3) -0.04860(15) 0.60641(19)
H5 H 0.3034 -0.0686 0.5541
H6 H 0.3084 -0.0528 0.6577
H7 H 0.4401 -0.0812 0.6164
C6 C 0.1795(2) 0.07158(16) 0.49610(15)
H8 H 0.1325 0.0215 0.5106
H9 H 0.1113 0.1143 0.4831
C7 C 0.2482(3) 0.05621(17) 0.41277(16)
H10 H 0.3140 0.0989 0.4065
H11 H 0.1813 0.0564 0.3612
H12 H 0.2932 0.0035 0.4174
C8 C 0.1997(2) 0.09294(12) 0.65942(14)
C9 C 0.0708(2) 0.06599(13) 0.66821(15)
H13 H 0.0049 0.0503 0.6221
C10 C 0.0576(2) 0.06664(12) 0.75909(15)
H14 H -0.0189 0.0515 0.7864
C11 C 0.1789(2) 0.09388(12) 0.80070(14)
C12 C 0.2270(2) 0.09907(13) 0.89859(15)
C13 C 0.3353(3) 0.03402(14) 0.92162(19)
H15 H 0.4093 0.0431 0.8851
H16 H 0.3716 0.0405 0.9841
C14 C 0.2846(5) -0.05259(17) 0.9073(3)
H17 H 0.2484 -0.0597 0.8456
H18 H 0.2143 -0.0631 0.9454
H19 H 0.3584 -0.0906 0.9216
C15 C 0.1073(3) 0.08840(16) 0.95340(16)
H20 H 0.0389 0.1296 0.9342
H21 H 0.0671 0.0344 0.9404
C16 C 0.1426(4) 0.0959(2) 1.05267(19)
H22 H 0.1846 0.1486 1.0664
H23 H 0.2047 0.0525 1.0734
H24 H 0.0612 0.0914 1.0820
C17 C 0.2894(2) 0.18132(13) 0.91774(14)
C18 C 0.4158(2) 0.20680(13) 0.94621(14)
H25 H 0.4904 0.1729 0.9630
C1C C 0.3259(2) 0.31689(14) 0.56548(13)
N2C N 0.26570(17) 0.38876(10) 0.74026(12)
C2C C 0.4484(2) 0.29265(14) 0.54000(15)
H1C H 0.5184 0.3270 0.5255
C3C C 0.2742(2) 0.40238(14) 0.57837(14)
C4C C 0.3953(2) 0.46059(14) 0.59252(16)
H3C H 0.4460 0.4572 0.5406
H4C H 0.4550 0.4420 0.6444
C5C C 0.3586(3) 0.54860(15) 0.60641(19)
H5C H 0.3034 0.5686 0.5541
H6C H 0.3084 0.5528 0.6577
H7C H 0.4401 0.5812 0.6164
C6C C 0.1795(2) 0.42842(16) 0.49610(15)
H8C H 0.1325 0.4785 0.5106
H9C H 0.1113 0.3857 0.4831
C7C C 0.2482(3) 0.44379(17) 0.41277(16)
H10C H 0.3140 0.4011 0.4065
H11C H 0.1813 0.4436 0.3612
H12C H 0.2932 0.4965 0.4174
C8C C 0.1997(2) 0.40706(12) 0.65942(14)
C9C C 0.0708(2) 0.43401(13) 0.66821(15)
H13C H 0.0049 0.4497 0.6221
C10C C 0.0576(2) 0.43336(12) 0.75909(15)
H14C H -0.0189 0.4485 0.7864
C11C C 0.1789(2) 0.40612(12) 0.80070(14)
C12C C 0.2270(2) 0.40093(13) 0.89859(15)
C13C C 0.3353(3) 0.46598(14) 0.92162(19)
H15C H 0.4093 0.4569 0.8851
H16C H 0.3716 0.4595 0.9841
C14C C 0.2846(5) 0.55259(17) 0.9073(3)
H17C H 0.2484 0.5597 0.8456
H18C H 0.2143 0.5631 0.9454
H19C H 0.3584 0.5906 0.9216
C15C C 0.1073(3) 0.41160(16) 0.95340(16)
H20C H 0.0389 0.3704 0.9342
H21C H 0.0671 0.4656 0.9404
C16C C 0.1426(4) 0.4041(2) 1.05267(19)
H22C H 0.1846 0.3514 1.0664
H23C H 0.2047 0.4475 1.0734
H24C H 0.0612 0.4086 1.0820
C17C C 0.2894(2) 0.31868(13) 0.91774(14)
C18C C 0.4158(2) 0.29320(13) 0.94621(14)
H25C H 0.4904 0.3271 0.9630
K2 K 0.06997(6) 0.2500 0.69891(4)
K3 K 0.22141(7) 0.2500 0.39351(5)
C19 C -0.0132(4) 0.2500 0.2180(2)
H26 H 0.0167 0.2500 0.1611
C20 C -0.0352(2) 0.32263(18) 0.25977(17)
H27 H -0.0210 0.3726 0.2313
C21 C -0.0778(2) 0.32237(17) 0.34285(17)
H28 H -0.0925 0.3724 0.3711
C22 C -0.0996(3) 0.2500 0.3857(2)
C23 C -0.1462(4) 0.2500 0.4762(3)
C20C C -0.0352(2) 0.17737(18) 0.25977(17)
H27C H -0.0210 0.1274 0.2313
C21C C -0.0778(2) 0.17763(17) 0.34285(17)
H28C H -0.0925 0.1276 0.3711
K1 K 0.42872(6) 0.2500 0.74471(4)
O1? O 0.3941(3) 0.2500 0.27708(19)
H29? H -0.1399 0.1950 0.5005
H30? H -0.2391 0.2684 0.4722
H31? H -0.0899 0.2866 0.5148
C24? C 0.5353(5) 0.2354(10) 0.2765(4)
H32? H 0.5523 0.1772 0.2669
H33? H 0.5846 0.2520 0.3333
C25? C 0.5786(5) 0.2846(3) 0.2032(4)
H34? H 0.5896 0.2503 0.1513
H35? H 0.6639 0.3127 0.2216
C26? C 0.4662(5) 0.3447(3) 0.1831(4)
H36? H 0.4784 0.3930 0.2214
H37? H 0.4578 0.3618 0.1206
C27? C 0.3496(5) 0.2960(4) 0.2029(4)
H38? H 0.2749 0.3317 0.2153
H39? H 0.3187 0.2603 0.1527
C28? C 0.728(4) 0.0938(9) 0.8079(19)
H40? H 0.6575 0.0720 0.7652
H41? H 0.7059 0.0830 0.8677
H42? H 0.8131 0.0677 0.7995
C29? C 0.7398(17) 0.1854(8) 0.7945(11)
C30? C 0.7481(13) 0.2278(7) 0.7201(8)
H43? H 0.7735 0.1979 0.6715
C31? C 0.7244(10) 0.3096(7) 0.7053(7)
H44? H 0.7109 0.3331 0.6483
C32? C 0.7225(18) 0.3536(8) 0.7822(10)
H45? H 0.7042 0.4101 0.7803
C33? C 0.7478(17) 0.3135(8) 0.8622(9)
H46? H 0.7629 0.3460 0.9137
C34? C 0.7531(16) 0.2299(7) 0.8733(8)
H47? H 0.7647 0.2049 0.9296
C35? C 0.7520(13) 0.3054(8) 0.7394(8)
H48? H 0.7458 0.3555 0.7085
C36? C 0.8014(6) 0.2426(10) 0.9791(4)
H49? H 0.7223 0.2656 1.0019
H50? H 0.8782 0.2782 0.9947
H51? H 0.8199 0.1889 1.0050
C37? C 0.7350(10) 0.2318(7) 0.6957(6)
H52? H 0.7239 0.2296 0.6332
C38? C 0.7777(12) 0.3024(7) 0.8282(7)
H53? H 0.7990 0.3524 0.8572
C39? C 0.7766(9) 0.2351(8) 0.8809(6)
C40? C 0.7346(13) 0.1616(7) 0.7457(9)
H54? H 0.7264 0.1109 0.7161
C41? C 0.7460(11) 0.1622(7) 0.8391(7)
H55? H 0.7330 0.1144 0.8717
loop_
_geom_bond_atom_site_label_1
_geom_bond_atom_site_label_2
_geom_bond_site_symmetry_1
_geom_bond_site_symmetry_2
N1 C1 1_555 1_555
C1 C2 1_555 1_555
N2 C8 1_555 1_555
C2 H1 1_555 1_555
N3 H2 1_555 1_555
C3 C1 1_555 1_555
C4 C3 1_555 1_555
H3 C4 1_555 1_555
H4 C4 1_555 1_555
C5 C4 1_555 1_555
H5 C5 1_555 1_555
H6 C5 1_555 1_555
H7 C5 1_555 1_555
C6 C3 1_555 1_555
H8 C6 1_555 1_555
H9 C6 1_555 1_555
C7 C6 1_555 1_555
H10 C7 1_555 1_555
H11 C7 1_555 1_555
H12 C7 1_555 1_555
C8 C3 1_555 1_555
C9 C8 1_555 1_555
H13 C9 1_555 1_555
C10 C9 1_555 1_555
H14 C10 1_555 1_555
C11 N2 1_555 1_555
C12 C11 1_555 1_555
C13 C12 1_555 1_555
H15 C13 1_555 1_555
H16 C13 1_555 1_555
C14 C13 1_555 1_555
H17 C14 1_555 1_555
H18 C14 1_555 1_555
H19 C14 1_555 1_555
C15 C12 1_555 1_555
H20 C15 1_555 1_555
H21 C15 1_555 1_555
C16 C15 1_555 1_555
H22 C16 1_555 1_555
H23 C16 1_555 1_555
H24 C16 1_555 1_555
C17 N3 1_555 1_555
C18 C17 1_555 1_555
H25 C18 1_555 1_555
C19 H26 1_555 1_555
C20 C19 1_555 1_555
H27 C20 1_555 1_555
C21 C20 1_555 1_555
H28 C21 1_555 1_555
C22 C21 1_555 1_555
C23 C22 1_555 1_555
C1C N1 1_555 1_555
N2C C8C 1_555 1_555
C2C C2 1_555 1_555
H1C C2C 1_555 1_555
C3C C1C 1_555 1_555
C4C C3C 1_555 1_555
H3C C4C 1_555 1_555
H4C C4C 1_555 1_555
C5C C4C 1_555 1_555
H5C C5C 1_555 1_555
H6C C5C 1_555 1_555
H7C C5C 1_555 1_555
C6C C3C 1_555 1_555
H8C C6C 1_555 1_555
H9C C6C 1_555 1_555
C7C C6C 1_555 1_555
H10C C7C 1_555 1_555
H11C C7C 1_555 1_555
H12C C7C 1_555 1_555
C8C C3C 1_555 1_555
C9C C8C 1_555 1_555
H13C C9C 1_555 1_555
C10C C9C 1_555 1_555
H14C C10C 1_555 1_555
C11C N2C 1_555 1_555
C12C C11C 1_555 1_555
C13C C12C 1_555 1_555
H15C C13C 1_555 1_555
H16C C13C 1_555 1_555
C14C C13C 1_555 1_555
H17C C14C 1_555 1_555
H18C C14C 1_555 1_555
H19C C14C 1_555 1_555
C15C C12C 1_555 1_555
H20C C15C 1_555 1_555
H21C C15C 1_555 1_555
C16C C15C 1_555 1_555
H22C C16C 1_555 1_555
H23C C16C 1_555 1_555
H24C C16C 1_555 1_555
C17C N3 1_555 1_555
C18C C18 1_555 1_555
H25C C18C 1_555 1_555
C20C C19 1_555 1_555
H27C C20C 1_555 1_555
C21C C22 1_555 1_555
H28C C21C 1_555 1_555
C10 C11 1_555 1_555
C12 C17 1_555 1_555
C1C C2C 1_555 1_555
C10C C11C 1_555 1_555
C12C C17C 1_555 1_555
C17C C18C 1_555 1_555
C20C C21C 1_555 1_555

#END
