
#######################################################################
#
#                 Cambridge Crystallographic Data Centre
#                                CCDC 
#
#######################################################################
#
# If this CIF has been generated from an entry in the Cambridge 
# Structural Database, then it will include bibliographic, chemical, 
# crystal, experimental, refinement or atomic coordinate data resulting 
# from the CCDC's data processing and validation procedures.
#
#######################################################################

data_WEPBUR
_chemical_formula_moiety         'C28 H19 N5 O3,C2 H6 O1'
_chemical_name_systematic        
"5-methyl-1'-(4-nitrophenyl)-2-oxo-1,2-dihydrospiro[indole-3,2'-pyrrolo[1,2-a]quinoline]-3',3'(3a'H)-dicarbonitrile ethanol solvate"
_symmetry_cell_setting           monoclinic
_symmetry_space_group_name_H-M   'P 21/c'
_symmetry_Int_Tables_number      14
_space_group_name_Hall           '-P 2ybc'
loop_
_symmetry_equiv_pos_site_id
_symmetry_equiv_pos_as_xyz
1 x,y,z
2 -x,1/2+y,1/2-z
3 -x,-y,-z
4 x,1/2-y,1/2+z
_cell_length_a                   20.4123(11)
_cell_length_b                   12.8441(6)
_cell_length_c                   26.5719(11)
_cell_angle_alpha                90
_cell_angle_beta                 130.326(3)
_cell_angle_gamma                90
_cell_volume                     5311.13
_exptl_crystal_colour            'light yellow'
_exptl_crystal_description       block
_cell_formula_units_Z            8
loop_
_atom_site_label
_atom_site_type_symbol
_atom_site_fract_x
_atom_site_fract_y
_atom_site_fract_z
O1 O 0.70023(13) 0.88633(14) 0.66667(10)
O2 O 0.5555(2) 1.2475(2) 0.48140(16)
O3 O 0.6847(2) 1.2923(2) 0.5276(2)
N1 N 0.67014(13) 0.72595(15) 0.54706(11)
N2 N 0.83245(18) 0.5329(2) 0.63742(16)
N3 N 0.7830(2) 0.6466(2) 0.76449(18)
N4 N 0.84749(15) 0.89984(16) 0.74298(12)
H1 H 0.8516 0.9431 0.7696
N5 N 0.6303(3) 1.2276(2) 0.50972(17)
C1 C 0.64135(16) 0.6785(2) 0.48852(14)
C2 C 0.64966(19) 0.7265(2) 0.44630(15)
H2 H 0.6763 0.7911 0.4574
C3 C 0.6187(2) 0.6793(3) 0.38779(16)
H3 H 0.6254 0.7123 0.3602
C4 C 0.5784(3) 0.5842(3) 0.36994(19)
H4 H 0.5570 0.5533 0.3302
C5 C 0.5701(2) 0.5355(3) 0.4116(2)
H5 H 0.5431 0.4710 0.3997
C6 C 0.60123(18) 0.5803(2) 0.47128(16)
C7 C 0.59444(19) 0.5309(2) 0.5166(2)
H6 H 0.5694 0.4653 0.5059
C8 C 0.62191(19) 0.5740(2) 0.57236(18)
H7 H 0.6144 0.5390 0.5989
C9 C 0.66478(17) 0.67801(19) 0.59354(14)
H8 H 0.6335 0.7247 0.6007
C10 C 0.76118(17) 0.67591(19) 0.65720(14)
C11 C 0.80364(18) 0.5935(2) 0.64896(15)
C12 C 0.7749(2) 0.6576(2) 0.71816(18)
C13 C 0.77265(19) 0.86408(19) 0.68779(14)
C14 C 0.79319(15) 0.78570(17) 0.65554(12)
C15 C 0.88931(16) 0.79473(18) 0.69963(12)
C16 C 0.94796(16) 0.7481(2) 0.69692(13)
H9 H 0.9288 0.7069 0.6609
C17 C 1.03613(17) 0.7627(2) 0.74826(15)
C18 C 1.1001(2) 0.7104(3) 0.74572(19)
H10 H 1.0814 0.7172 0.7022
H11 H 1.1043 0.6380 0.7564
H12 H 1.1553 0.7427 0.7770
C19 C 1.0616(2) 0.8262(2) 0.80028(16)
H13 H 1.1201 0.8358 0.8349
C20 C 1.00400(19) 0.8760(2) 0.80319(15)
H14 H 1.0227 0.9194 0.8383
C21 C 0.91830(18) 0.85861(19) 0.75226(14)
C22 C 0.73990(15) 0.80214(18) 0.57957(12)
H15 H 0.7768 0.7844 0.5693
C23 C 0.71021(16) 0.91427(18) 0.55836(13)
C24 C 0.62412(18) 0.9394(2) 0.51828(15)
H16 H 0.5836 0.8869 0.5026
C25 C 0.5975(2) 1.0417(2) 0.50129(16)
H17 H 0.5394 1.0586 0.4739
C26 C 0.6580(2) 1.1173(2) 0.52551(16)
C27 C 0.7430(2) 1.0949(2) 0.56366(16)
H18 H 0.7830 1.1478 0.5788
C28 C 0.76926(18) 0.99179(19) 0.57966(15)
H19 H 0.8271 0.9752 0.6049
O4 O 0.18176(13) 0.71701(15) 0.64862(10)
O5 O 0.13961(16) 0.31710(16) 0.46140(13)
O6 O 0.02012(17) 0.35065(17) 0.43678(16)
N6 N 0.13831(13) 0.87237(15) 0.53049(10)
N7 N 0.3289(2) 1.0438(2) 0.61159(18)
N8 N 0.3239(2) 0.9427(3) 0.76104(17)
N9 N 0.32112(15) 0.66716(17) 0.70427(12)
H20 H 0.3250 0.6213 0.7297
N10 N 0.09078(18) 0.37700(18) 0.45725(12)
C29 C 0.09007(15) 0.91945(19) 0.46826(13)
C30 C 0.06748(16) 0.8649(2) 0.41388(13)
H21 H 0.0862 0.7967 0.4189
C31 C 0.01769(17) 0.9110(2) 0.35263(14)
H22 H 0.0026 0.8732 0.3166
C32 C -0.01007(19) 1.0117(2) 0.34381(15)
H23 H -0.0439 1.0422 0.3022
C33 C 0.01289(18) 1.0668(2) 0.39756(15)
H24 H -0.0055 1.1354 0.3919
C34 C 0.06230(17) 1.02308(19) 0.45938(14)
C35 C 0.0860(2) 1.0798(2) 0.51635(16)
H25 H 0.0694 1.1491 0.5111
C36 C 0.1295(2) 1.0375(2) 0.57454(16)
H26 H 0.1425 1.0775 0.6092
C37 C 0.15926(18) 0.9268(2) 0.58758(13)
H27 H 0.1334 0.8889 0.6029
C38 C 0.25941(18) 0.9141(2) 0.64014(13)
C39 C 0.3002(2) 0.9874(2) 0.62502(15)
C40 C 0.2958(2) 0.9306(2) 0.70824(17)
C41 C 0.25059(19) 0.7233(2) 0.66056(14)
C42 C 0.27103(16) 0.79952(18) 0.62676(12)
C43 C 0.36186(16) 0.76793(19) 0.65870(13)
C44 C 0.41819(18) 0.8019(2) 0.64973(14)
H28 H 0.4013 0.8531 0.6186
C45 C 0.49984(19) 0.7593(3) 0.68738(16)
C46 C 0.5633(2) 0.7992(4) 0.6803(2)
H29 H 0.6202 0.7974 0.7225
H30 H 0.5488 0.8694 0.6641
H31 H 0.5610 0.7559 0.6497
C47 C 0.5232(2) 0.6823(3) 0.73222(17)
H32 H 0.5778 0.6534 0.7569
C48 C 0.4684(2) 0.6468(2) 0.74185(15)
H33 H 0.4853 0.5949 0.7726
C49 C 0.38787(18) 0.6907(2) 0.70436(13)
C50 C 0.20372(16) 0.79477(18) 0.55000(12)
H34 H 0.2322 0.8181 0.5332
C51 C 0.17181(16) 0.68416(18) 0.52526(12)
C52 C 0.22510(17) 0.61444(19) 0.52743(13)
H35 H 0.2792 0.6360 0.5438
C53 C 0.19924(17) 0.5133(2) 0.50567(13)
H36 H 0.2359 0.4662 0.5082
C54 C 0.11882(17) 0.48409(19) 0.48035(13)
C55 C 0.06345(18) 0.5521(2) 0.47637(15)
H37 H 0.0087 0.5306 0.4585
C56 C 0.09045(16) 0.6521(2) 0.49921(14)
H38 H 0.0538 0.6986 0.4971
O7 O 0.35640(18) 0.5618(2) 0.81013(13)
H39 H 0.3983 0.5586 0.8124
C57 C 0.3721(7) 0.6325(5) 0.8558(4)
H40 H 0.4103 0.5972 0.8981
H41 H 0.3178 0.6403 0.8464
C58 C 0.4056(4) 0.7355(5) 0.8676(3)
H42 H 0.4428 0.7387 0.8572
H43 H 0.4376 0.7532 0.9132
H44 H 0.3591 0.7838 0.8402
O8 O 0.15157(15) 0.50010(16) 0.66217(12)
H45 H 0.1508 0.5624 0.6551
C59 C 0.2028(2) 0.4457(3) 0.65072(19)
H46 H 0.2616 0.4409 0.6918
H47 H 0.2030 0.4850 0.6197
C60 C 0.1690(3) 0.3386(3) 0.6240(2)
H48 H 0.1605 0.3031 0.6512
H49 H 0.2095 0.3007 0.6241
H50 H 0.1152 0.3433 0.5797
loop_
_geom_bond_atom_site_label_1
_geom_bond_atom_site_label_2
_geom_bond_site_symmetry_1
_geom_bond_site_symmetry_2
O1 C13 1_555 1_555
O2 N5 1_555 1_555
O3 N5 1_555 1_555
N1 C1 1_555 1_555
N2 C11 1_555 1_555
N3 C12 1_555 1_555
N4 H1 1_555 1_555
N5 C26 1_555 1_555
C1 C2 1_555 1_555
C2 H2 1_555 1_555
C3 C2 1_555 1_555
H3 C3 1_555 1_555
C4 C3 1_555 1_555
H4 C4 1_555 1_555
C5 C4 1_555 1_555
H5 C5 1_555 1_555
C6 C1 1_555 1_555
C7 C6 1_555 1_555
H6 C7 1_555 1_555
C8 C7 1_555 1_555
H7 C8 1_555 1_555
C9 N1 1_555 1_555
H8 C9 1_555 1_555
C10 C9 1_555 1_555
C11 C10 1_555 1_555
C12 C10 1_555 1_555
C13 N4 1_555 1_555
C14 C10 1_555 1_555
C15 C14 1_555 1_555
C16 C15 1_555 1_555
H9 C16 1_555 1_555
C17 C16 1_555 1_555
C18 C17 1_555 1_555
H10 C18 1_555 1_555
H11 C18 1_555 1_555
H12 C18 1_555 1_555
C19 C17 1_555 1_555
H13 C19 1_555 1_555
C20 C19 1_555 1_555
H14 C20 1_555 1_555
C21 N4 1_555 1_555
C22 N1 1_555 1_555
H15 C22 1_555 1_555
C23 C22 1_555 1_555
C24 C23 1_555 1_555
H16 C24 1_555 1_555
C25 C24 1_555 1_555
H17 C25 1_555 1_555
C26 C25 1_555 1_555
C27 C26 1_555 1_555
H18 C27 1_555 1_555
C28 C23 1_555 1_555
H19 C28 1_555 1_555
O4 C41 1_555 1_555
O5 N10 1_555 1_555
O6 N10 1_555 1_555
N6 C29 1_555 1_555
N7 C39 1_555 1_555
N8 C40 1_555 1_555
N9 H20 1_555 1_555
N10 C54 1_555 1_555
C29 C30 1_555 1_555
C30 H21 1_555 1_555
C31 C30 1_555 1_555
H22 C31 1_555 1_555
C32 C31 1_555 1_555
H23 C32 1_555 1_555
C33 C32 1_555 1_555
H24 C33 1_555 1_555
C34 C29 1_555 1_555
C35 C34 1_555 1_555
H25 C35 1_555 1_555
C36 C35 1_555 1_555
H26 C36 1_555 1_555
C37 N6 1_555 1_555
H27 C37 1_555 1_555
C38 C37 1_555 1_555
C39 C38 1_555 1_555
C40 C38 1_555 1_555
C41 N9 1_555 1_555
C42 C38 1_555 1_555
C43 C42 1_555 1_555
C44 C43 1_555 1_555
H28 C44 1_555 1_555
C45 C44 1_555 1_555
C46 C45 1_555 1_555
H29 C46 1_555 1_555
H30 C46 1_555 1_555
H31 C46 1_555 1_555
C47 C45 1_555 1_555
H32 C47 1_555 1_555
C48 C47 1_555 1_555
H33 C48 1_555 1_555
C49 N9 1_555 1_555
C50 N6 1_555 1_555
H34 C50 1_555 1_555
C51 C50 1_555 1_555
C52 C51 1_555 1_555
H35 C52 1_555 1_555
C53 C52 1_555 1_555
H36 C53 1_555 1_555
C54 C53 1_555 1_555
C55 C54 1_555 1_555
H37 C55 1_555 1_555
C56 C51 1_555 1_555
H38 C56 1_555 1_555
O7 H39 1_555 1_555
C57 O7 1_555 1_555
H40 C57 1_555 1_555
H41 C57 1_555 1_555
C58 C57 1_555 1_555
H42 C58 1_555 1_555
H43 C58 1_555 1_555
H44 C58 1_555 1_555
O8 H45 1_555 1_555
C59 O8 1_555 1_555
H46 C59 1_555 1_555
H47 C59 1_555 1_555
C60 C59 1_555 1_555
H48 C60 1_555 1_555
H49 C60 1_555 1_555
H50 C60 1_555 1_555
C5 C6 1_555 1_555
C8 C9 1_555 1_555
C13 C14 1_555 1_555
C14 C22 1_555 1_555
C15 C21 1_555 1_555
C20 C21 1_555 1_555
C27 C28 1_555 1_555
C33 C34 1_555 1_555
C36 C37 1_555 1_555
C41 C42 1_555 1_555
C42 C50 1_555 1_555
C43 C49 1_555 1_555
C48 C49 1_555 1_555
C55 C56 1_555 1_555

#END
