
#######################################################################
#
#                 Cambridge Crystallographic Data Centre
#                                CCDC 
#
#######################################################################
#
# If this CIF has been generated from an entry in the Cambridge 
# Structural Database, then it will include bibliographic, chemical, 
# crystal, experimental, refinement or atomic coordinate data resulting 
# from the CCDC's data processing and validation procedures.
#
#######################################################################

data_WEPCAY
_chemical_formula_moiety         'C27 H16 Cl1 N5 O3'
_chemical_name_systematic        
"5-chloro-1'-(4-nitrophenyl)-2-oxo-1,2-dihydrospiro[indole-3,2'-pyrrolo[1,2-a]quinoline]-3',3'(3a'H)-dicarbonitrile unknown solvate"
_symmetry_cell_setting           monoclinic
_symmetry_space_group_name_H-M   'P 21/c'
_symmetry_Int_Tables_number      14
_space_group_name_Hall           '-P 2ybc'
loop_
_symmetry_equiv_pos_site_id
_symmetry_equiv_pos_as_xyz
1 x,y,z
2 -x,1/2+y,1/2-z
3 -x,-y,-z
4 x,1/2-y,1/2+z
_cell_length_a                   18.0005(11)
_cell_length_b                   12.5884(7)
_cell_length_c                   26.3381(14)
_cell_angle_alpha                90
_cell_angle_beta                 113.912(3)
_cell_angle_gamma                90
_cell_volume                     5455.9
_exptl_crystal_colour            yellow
_exptl_crystal_description       block
_cell_formula_units_Z            8
loop_
_atom_site_label
_atom_site_type_symbol
_atom_site_fract_x
_atom_site_fract_y
_atom_site_fract_z
C1 C 0.21948(19) 0.2484(2) 0.71560(15)
C2 C 0.26548(16) 0.1414(2) 0.73733(12)
C3 C 0.31215(16) 0.1663(2) 0.79799(12)
C4 C 0.36567(17) 0.1063(2) 0.84130(13)
H1 H 0.3747 0.0351 0.8364
C5 C 0.40541(18) 0.1556(3) 0.89221(13)
C6 C 0.3936(2) 0.2604(3) 0.89995(15)
H2 H 0.4221 0.2911 0.9346
C7 C 0.3405(2) 0.3210(3) 0.85769(15)
H3 H 0.3317 0.3921 0.8632
C8 C 0.30030(17) 0.2730(2) 0.80635(14)
C9 C 0.20440(17) 0.0466(2) 0.71937(12)
C10 C 0.1277(2) 0.0686(2) 0.72460(14)
C11 C 0.24144(19) -0.0505(3) 0.75211(13)
C12 C 0.3170(2) 0.2530(2) 0.63858(13)
H4 H 0.2744 0.2158 0.6119
C13 C 0.3405(2) 0.3494(2) 0.62499(13)
H5 H 0.3134 0.3785 0.5898
C14 C 0.40473(19) 0.4013(2) 0.66462(14)
C15 C 0.44715(19) 0.3590(3) 0.71644(15)
H6 H 0.4920 0.3943 0.7421
C16 C 0.42241(18) 0.2641(2) 0.72976(13)
H7 H 0.4503 0.2351 0.7649
C17 C 0.35591(17) 0.2111(2) 0.69106(12)
C18 C 0.32318(17) 0.1120(2) 0.70754(11)
H8 H 0.3693 0.0715 0.7337
C19 C 0.19270(18) 0.0293(2) 0.65728(13)
H9 H 0.1601 0.0882 0.6350
C20 C 0.1532(2) -0.0711(3) 0.63137(14)
H10 H 0.1004 -0.0849 0.6274
C21 C 0.1920(2) -0.1429(3) 0.61346(14)
H11 H 0.1646 -0.2047 0.5969
C22 C 0.27504(19) -0.1285(2) 0.61875(13)
C23 C 0.3158(2) -0.2043(3) 0.60115(14)
H12 H 0.2886 -0.2657 0.5839
C24 C 0.3951(2) -0.1903(3) 0.60869(15)
H13 H 0.4218 -0.2420 0.5971
C25 C 0.4345(2) -0.0992(3) 0.63353(14)
H14 H 0.4882 -0.0890 0.6385
C26 C 0.3963(2) -0.0222(2) 0.65138(13)
H15 H 0.4244 0.0392 0.6681
C27 C 0.31603(19) -0.0354(2) 0.64451(12)
Cl1 Cl 0.47344(6) 0.08121(8) 0.94704(4)
N1 N 0.24665(15) 0.31874(19) 0.75717(11)
H16 H 0.2326 0.3845 0.7538
N2 N 0.0680(2) 0.0835(2) 0.72842(14)
N3 N 0.26994(19) -0.1253(2) 0.77528(13)
N4 N 0.4290(2) 0.5057(2) 0.65203(16)
N5 N 0.27575(14) 0.04219(18) 0.66202(10)
O1 O 0.16897(14) 0.26380(16) 0.66859(10)
O2 O 0.48514(18) 0.5513(2) 0.68656(13)
O3 O 0.3880(2) 0.5429(2) 0.60602(14)
C28 C 0.0934(2) 0.8182(3) 0.90859(16)
C29 C 0.13778(16) 0.7592(2) 0.87732(12)
C30 C 0.08010(17) 0.7765(2) 0.81757(13)
C31 C 0.08446(18) 0.7435(2) 0.76896(13)
H17 H 0.1278 0.7029 0.7694
C32 C 0.0216(2) 0.7733(3) 0.71933(14)
C33 C -0.0413(2) 0.8361(3) 0.71851(17)
H18 H -0.0823 0.8551 0.6846
C34 C -0.04470(19) 0.8713(3) 0.76682(17)
H19 H -0.0865 0.9153 0.7663
C35 C 0.01626(18) 0.8389(2) 0.81609(15)
C36 C 0.15563(17) 0.6422(2) 0.89799(12)
C37 C 0.0897(2) 0.5933(3) 0.90990(15)
C38 C 0.17373(19) 0.5755(3) 0.85882(14)
C39 C 0.28736(18) 0.9544(2) 0.96083(12)
H20 H 0.3195 0.9050 0.9866
C40 C 0.29354(19) 1.0603(2) 0.97448(13)
H21 H 0.3310 1.0830 1.0090
C41 C 0.2441(2) 1.1323(2) 0.93685(14)
C42 C 0.19083(18) 1.1021(2) 0.88466(14)
H22 H 0.1581 1.1519 0.8594
C43 C 0.18697(17) 0.9963(2) 0.87054(13)
H23 H 0.1527 0.9750 0.8349
C44 C 0.23344(17) 0.9209(2) 0.90875(12)
C45 C 0.22576(16) 0.8050(2) 0.89209(12)
H24 H 0.2370 0.7993 0.8587
C46 C 0.23729(17) 0.6558(2) 0.95222(12)
H25 H 0.2244 0.6877 0.9816
C47 C 0.2808(2) 0.5539(2) 0.97273(13)
H26 H 0.2591 0.5052 0.9895
C48 C 0.3481(2) 0.5305(2) 0.96800(13)
H27 H 0.3710 0.4637 0.9792
C49 C 0.38904(18) 0.6060(2) 0.94551(12)
C50 C 0.4599(2) 0.5813(3) 0.93911(15)
H28 H 0.4821 0.5138 0.9484
C51 C 0.4978(2) 0.6554(3) 0.91914(16)
H29 H 0.5456 0.6382 0.9155
C52 C 0.4645(2) 0.7536(3) 0.90486(15)
H30 H 0.4904 0.8041 0.8920
C53 C 0.39279(18) 0.7795(3) 0.90922(14)
H31 H 0.3705 0.8467 0.8986
C54 C 0.35402(17) 0.7072(2) 0.92907(12)
Cl2 Cl 0.02268(6) 0.72680(10) 0.65751(4)
N6 N 0.02557(16) 0.8620(2) 0.87054(13)
H32 H -0.0081 0.8996 0.8786
N7 N 0.0394(2) 0.5553(3) 0.91927(17)
N8 N 0.19113(18) 0.5228(2) 0.83069(13)
N9 N 0.2486(2) 1.2451(2) 0.95267(15)
N10 N 0.28141(13) 0.73274(17) 0.93396(9)
O4 O 0.11608(15) 0.8218(2) 0.95909(11)
O5 O 0.20377(18) 1.3078(2) 0.91824(13)
O6 O 0.2963(2) 1.2712(2) 0.99856(13)
loop_
_geom_bond_atom_site_label_1
_geom_bond_atom_site_label_2
_geom_bond_site_symmetry_1
_geom_bond_site_symmetry_2
C1 C2 1_555 1_555
C2 C3 1_555 1_555
C3 C4 1_555 1_555
C4 H1 1_555 1_555
C5 C4 1_555 1_555
C6 C5 1_555 1_555
H2 C6 1_555 1_555
C7 C6 1_555 1_555
H3 C7 1_555 1_555
C8 C3 1_555 1_555
C9 C2 1_555 1_555
C10 C9 1_555 1_555
C11 C9 1_555 1_555
C12 H4 1_555 1_555
C13 C12 1_555 1_555
H5 C13 1_555 1_555
C14 C13 1_555 1_555
C15 C14 1_555 1_555
H6 C15 1_555 1_555
C16 C15 1_555 1_555
H7 C16 1_555 1_555
C17 C12 1_555 1_555
C18 C2 1_555 1_555
H8 C18 1_555 1_555
C19 C9 1_555 1_555
H9 C19 1_555 1_555
C20 C19 1_555 1_555
H10 C20 1_555 1_555
C21 C20 1_555 1_555
H11 C21 1_555 1_555
C22 C21 1_555 1_555
C23 C22 1_555 1_555
H12 C23 1_555 1_555
C24 C23 1_555 1_555
H13 C24 1_555 1_555
C25 C24 1_555 1_555
H14 C25 1_555 1_555
C26 C25 1_555 1_555
H15 C26 1_555 1_555
C27 C22 1_555 1_555
Cl1 C5 1_555 1_555
N1 C1 1_555 1_555
H16 N1 1_555 1_555
N2 C10 1_555 1_555
N3 C11 1_555 1_555
N4 C14 1_555 1_555
N5 C18 1_555 1_555
O1 C1 1_555 1_555
O2 N4 1_555 1_555
O3 N4 1_555 1_555
C28 C29 1_555 1_555
C29 C30 1_555 1_555
C30 C31 1_555 1_555
C31 H17 1_555 1_555
C32 C31 1_555 1_555
C33 C32 1_555 1_555
H18 C33 1_555 1_555
C34 C33 1_555 1_555
H19 C34 1_555 1_555
C35 C30 1_555 1_555
C36 C29 1_555 1_555
C37 C36 1_555 1_555
C38 C36 1_555 1_555
C39 H20 1_555 1_555
C40 C39 1_555 1_555
H21 C40 1_555 1_555
C41 C40 1_555 1_555
C42 C41 1_555 1_555
H22 C42 1_555 1_555
C43 C42 1_555 1_555
H23 C43 1_555 1_555
C44 C39 1_555 1_555
C45 C29 1_555 1_555
H24 C45 1_555 1_555
C46 C36 1_555 1_555
H25 C46 1_555 1_555
C47 C46 1_555 1_555
H26 C47 1_555 1_555
C48 C47 1_555 1_555
H27 C48 1_555 1_555
C49 C48 1_555 1_555
C50 C49 1_555 1_555
H28 C50 1_555 1_555
C51 C50 1_555 1_555
H29 C51 1_555 1_555
C52 C51 1_555 1_555
H30 C52 1_555 1_555
C53 C52 1_555 1_555
H31 C53 1_555 1_555
C54 C49 1_555 1_555
Cl2 C32 1_555 1_555
N6 C28 1_555 1_555
H32 N6 1_555 1_555
N7 C37 1_555 1_555
N8 C38 1_555 1_555
N9 C41 1_555 1_555
N10 C45 1_555 1_555
O4 C28 1_555 1_555
O5 N9 1_555 1_555
O6 N9 1_555 1_555
C7 C8 1_555 1_555
C8 N1 1_555 1_555
C16 C17 1_555 1_555
C17 C18 1_555 1_555
C19 N5 1_555 1_555
C26 C27 1_555 1_555
C27 N5 1_555 1_555
C34 C35 1_555 1_555
C35 N6 1_555 1_555
C43 C44 1_555 1_555
C44 C45 1_555 1_555
C46 N10 1_555 1_555
C53 C54 1_555 1_555
C54 N10 1_555 1_555

#END
