
#######################################################################
#
#                 Cambridge Crystallographic Data Centre
#                                CCDC 
#
#######################################################################
#
# If this CIF has been generated from an entry in the Cambridge 
# Structural Database, then it will include bibliographic, chemical, 
# crystal, experimental, refinement or atomic coordinate data resulting 
# from the CCDC's data processing and validation procedures.
#
#######################################################################

data_WEPDUR
_chemical_formula_moiety         'C24 H16 Cl2 O4'
_chemical_name_systematic        
(2E,2'E)-4,6-Dichloro-1,3-phenylenebis(3-phenylacrylate)
_symmetry_cell_setting           monoclinic
_symmetry_space_group_name_H-M   'P 21/c'
_symmetry_Int_Tables_number      14
_space_group_name_Hall           '-P 2ybc'
loop_
_symmetry_equiv_pos_site_id
_symmetry_equiv_pos_as_xyz
1 x,y,z
2 -x,1/2+y,1/2-z
3 -x,-y,-z
4 x,1/2-y,1/2+z
_cell_length_a                   10.829(2)
_cell_length_b                   10.549(3)
_cell_length_c                   18.368(4)
_cell_angle_alpha                90
_cell_angle_beta                 95.122(4)
_cell_angle_gamma                90
_cell_volume                     2089.89
_exptl_crystal_colour            colorless
_exptl_crystal_description       prism
_cell_formula_units_Z            4
_exptl_crystal_recrystallization_method ethanol
loop_
_atom_site_label
_atom_site_type_symbol
_atom_site_fract_x
_atom_site_fract_y
_atom_site_fract_z
Cl1 Cl 1.03196(11) 0.57349(12) 0.61140(7)
Cl2 Cl 0.65561(12) 0.61707(13) 0.78006(7)
O1 O 1.0172(2) 0.2993(3) 0.64468(15)
O2 O 0.8774(3) 0.2700(4) 0.55000(18)
O3 O 0.6639(2) 0.3351(3) 0.78254(15)
O4 O 0.7839(3) 0.3671(4) 0.88516(19)
C1 C 0.9284(3) 0.5048(4) 0.6647(2)
C2 C 0.8450(3) 0.5784(4) 0.6975(2)
H1 H 0.8464 0.6660 0.6918
C3 C 0.7594(4) 0.5240(4) 0.7388(2)
C4 C 0.7566(4) 0.3941(4) 0.7460(2)
C5 C 0.8422(4) 0.3202(4) 0.7149(2)
H2 H 0.8421 0.2328 0.7214
C6 C 0.9279(4) 0.3758(4) 0.6743(2)
C7 C 0.9796(4) 0.2526(4) 0.5777(2)
C8 C 1.0789(4) 0.1844(4) 0.5451(2)
H3 H 1.1546 0.1710 0.5721
C9 C 1.0612(3) 0.1424(3) 0.4782(2)
H4 H 0.9804 0.1484 0.4566
C10 C 1.1515(3) 0.0871(3) 0.4324(2)
C11 C 1.2712(4) 0.0538(4) 0.4590(2)
H5 H 1.2960 0.0613 0.5086
C12 C 1.3533(4) 0.0096(4) 0.4117(3)
H6 H 1.4330 -0.0141 0.4298
C13 C 1.3187(4) 0.0002(4) 0.3383(3)
H7 H 1.3753 -0.0275 0.3065
C14 C 1.2013(5) 0.0316(4) 0.3123(3)
H8 H 1.1771 0.0246 0.2625
C15 C 1.1188(4) 0.0732(4) 0.3588(2)
H9 H 1.0383 0.0926 0.3403
C16 C 0.6900(4) 0.3254(4) 0.8556(2)
C17 C 0.5901(4) 0.2644(4) 0.8915(2)
H10 H 0.5180 0.2404 0.8635
C18 C 0.5996(4) 0.2432(4) 0.9613(2)
H11 H 0.6739 0.2673 0.9867
C19 C 0.5073(4) 0.1857(3) 1.0052(2)
C20 C 0.3947(4) 0.1410(4) 0.9763(2)
H12 H 0.3736 0.1459 0.9262
C21 C 0.3115(4) 0.0883(4) 1.0213(3)
H13 H 0.2350 0.0583 1.0014
C22 C 0.3432(4) 0.0809(4) 1.0954(3)
H14 H 0.2881 0.0460 1.1258
C23 C 0.4550(5) 0.1247(4) 1.1239(2)
H15 H 0.4765 0.1197 1.1740
C24 C 0.5364(4) 0.1762(4) 1.0792(2)
H16 H 0.6129 0.2053 1.0995
loop_
_geom_bond_atom_site_label_1
_geom_bond_atom_site_label_2
_geom_bond_site_symmetry_1
_geom_bond_site_symmetry_2
Cl1 C1 1_555 1_555
Cl2 C3 1_555 1_555
O1 C6 1_555 1_555
O2 C7 1_555 1_555
O3 C4 1_555 1_555
O4 C16 1_555 1_555
C1 C2 1_555 1_555
C2 H1 1_555 1_555
C3 C2 1_555 1_555
C4 C3 1_555 1_555
C5 C4 1_555 1_555
H2 C5 1_555 1_555
C6 C1 1_555 1_555
C7 O1 1_555 1_555
C8 C7 1_555 1_555
H3 C8 1_555 1_555
C9 C8 1_555 1_555
H4 C9 1_555 1_555
C10 C9 1_555 1_555
C11 C10 1_555 1_555
H5 C11 1_555 1_555
C12 C11 1_555 1_555
H6 C12 1_555 1_555
C13 C12 1_555 1_555
H7 C13 1_555 1_555
C14 C13 1_555 1_555
H8 C14 1_555 1_555
C15 C10 1_555 1_555
H9 C15 1_555 1_555
C16 O3 1_555 1_555
C17 C16 1_555 1_555
H10 C17 1_555 1_555
C18 C17 1_555 1_555
H11 C18 1_555 1_555
C19 C18 1_555 1_555
C20 C19 1_555 1_555
H12 C20 1_555 1_555
C21 C20 1_555 1_555
H13 C21 1_555 1_555
C22 C21 1_555 1_555
H14 C22 1_555 1_555
C23 C22 1_555 1_555
H15 C23 1_555 1_555
C24 C19 1_555 1_555
H16 C24 1_555 1_555
C5 C6 1_555 1_555
C14 C15 1_555 1_555
C23 C24 1_555 1_555

#END
