
#######################################################################
#
#                 Cambridge Crystallographic Data Centre
#                                CCDC 
#
#######################################################################
#
# If this CIF has been generated from an entry in the Cambridge 
# Structural Database, then it will include bibliographic, chemical, 
# crystal, experimental, refinement or atomic coordinate data resulting 
# from the CCDC's data processing and validation procedures.
#
#######################################################################

data_WEPFAZ
_chemical_formula_moiety         'C9 H5 Cl3 N2 O1'
_chemical_name_systematic        
5-Chloromethyl-3-(2,4-dichlorophenyl)-1,2,4-oxadiazole
_symmetry_cell_setting           monoclinic
_symmetry_space_group_name_H-M   'P 21/n'
_symmetry_Int_Tables_number      14
_space_group_name_Hall           '-P 2yn'
loop_
_symmetry_equiv_pos_site_id
_symmetry_equiv_pos_as_xyz
1 x,y,z
2 1/2-x,1/2+y,1/2-z
3 -x,-y,-z
4 1/2+x,1/2-y,1/2+z
_cell_length_a                   7.9010(16)
_cell_length_b                   14.987(3)
_cell_length_c                   9.7400(19)
_cell_angle_alpha                90
_cell_angle_beta                 113.20(3)
_cell_angle_gamma                90
_cell_volume                     1060.07
_exptl_crystal_colour            colorless
_exptl_crystal_description       block
_cell_formula_units_Z            4
_exptl_crystal_recrystallization_method ethanol
loop_
_atom_site_label
_atom_site_type_symbol
_atom_site_fract_x
_atom_site_fract_y
_atom_site_fract_z
Cl1 Cl 1.30084(14) 0.13305(8) 1.58940(10)
Cl2 Cl 1.19557(13) -0.18437(7) 0.63940(10)
Cl3 Cl 0.97789(11) 0.12352(5) 0.79112(9)
O1 O 1.2692(3) 0.19137(13) 1.2556(2)
N1 N 1.3665(3) 0.05402(15) 1.2674(3)
N2 N 1.1989(4) 0.15913(18) 1.1074(3)
C1 C 1.4614(4) 0.1409(2) 1.5042(3)
H1 H 1.5174 0.1996 1.5219
H2 H 1.5581 0.0970 1.5475
C2 C 1.3666(4) 0.12516(19) 1.3413(3)
C3 C 1.2605(3) 0.07820(18) 1.1210(3)
C4 C 1.2314(3) 0.01518(18) 0.9979(3)
C5 C 1.3329(4) -0.06406(19) 1.0319(3)
H3 H 1.4109 -0.0753 1.1306
C6 C 1.3212(4) -0.1259(2) 0.9245(4)
H4 H 1.3900 -0.1782 0.9501
C7 C 1.2055(4) -0.1092(2) 0.7779(3)
C8 C 1.0998(4) -0.0327(2) 0.7394(3)
H5 H 1.0197 -0.0229 0.6408
C9 C 1.1141(3) 0.02907(19) 0.8485(3)
loop_
_geom_bond_atom_site_label_1
_geom_bond_atom_site_label_2
_geom_bond_site_symmetry_1
_geom_bond_site_symmetry_2
Cl1 C1 1_555 1_555
Cl2 C7 1_555 1_555
Cl3 C9 1_555 1_555
O1 N2 1_555 1_555
N1 C2 1_555 1_555
N2 C3 1_555 1_555
C1 H1 1_555 1_555
H2 C1 1_555 1_555
C2 O1 1_555 1_555
C3 N1 1_555 1_555
C4 C3 1_555 1_555
C5 C4 1_555 1_555
H3 C5 1_555 1_555
C6 C5 1_555 1_555
H4 C6 1_555 1_555
C7 C6 1_555 1_555
C8 C7 1_555 1_555
H5 C8 1_555 1_555
C9 C4 1_555 1_555
C1 C2 1_555 1_555
C8 C9 1_555 1_555

#END
