
#######################################################################
#
#                 Cambridge Crystallographic Data Centre
#                                CCDC 
#
#######################################################################
#
# If this CIF has been generated from an entry in the Cambridge 
# Structural Database, then it will include bibliographic, chemical, 
# crystal, experimental, refinement or atomic coordinate data resulting 
# from the CCDC's data processing and validation procedures.
#
#######################################################################

data_WEPHUU
_chemical_formula_moiety         'C22 H28 O4'
_chemical_name_systematic        5,7,14,16-Tetramethoxy(3.3)metacyclophane
_symmetry_cell_setting           triclinic
_symmetry_space_group_name_H-M   'P -1'
_symmetry_Int_Tables_number      2
_space_group_name_Hall           '-P 1'
loop_
_symmetry_equiv_pos_site_id
_symmetry_equiv_pos_as_xyz
1 x,y,z
2 -x,-y,-z
_cell_length_a                   12.046(3)
_cell_length_b                   17.955(12)
_cell_length_c                   9.280(3)
_cell_angle_alpha                83.33(4)
_cell_angle_beta                 90.28(4)
_cell_angle_gamma                103.52(2)
_cell_volume                     1937.79
_exptl_crystal_colour            colorless
_chemical_melting_point          200-201deg.C
_cell_formula_units_Z            4
loop_
_atom_site_label
_atom_site_type_symbol
_atom_site_fract_x
_atom_site_fract_y
_atom_site_fract_z
O1 O 0.9605(6) 0.1036(3) 0.1365(6)
O2 O 1.0841(6) 0.3804(3) 0.1338(6)
O3 O 0.8583(6) 0.4078(4) -0.1788(8)
O4 O 0.7357(5) 0.1320(4) -0.1762(7)
C1 C 0.9347(9) 0.1261(5) -0.3251(10)
C2 C 0.9685(9) 0.0778(5) -0.1891(10)
C3 C 1.0774(7) 0.1092(5) -0.1199(10)
C4 C 1.0839(8) 0.1793(5) -0.0452(10)
C5 C 1.0216(7) 0.1765(5) 0.0818(9)
C6 C 1.0202(8) 0.2425(5) 0.1444(8)
C7 C 1.0832(7) 0.3123(5) 0.0763(9)
C8 C 1.1464(7) 0.3183(5) -0.0494(9)
C9 C 1.1452(8) 0.2508(5) -0.1038(10)
C10 C 1.2030(7) 0.3967(5) -0.1270(10)
C11 C 1.1244(8) 0.4437(5) -0.1986(10)
C12 C 1.0604(8) 0.4140(5) -0.3298(10)
C13 C 0.9700(8) 0.3410(5) -0.2969(9)
C14 C 0.8702(8) 0.3378(5) -0.2155(10)
C15 C 0.7917(8) 0.2710(5) -0.1736(10)
C16 C 0.8125(8) 0.2019(5) -0.2147(9)
C17 C 0.9056(8) 0.2008(5) -0.2960(9)
C18 C 0.9816(8) 0.2719(5) -0.3377(9)
C19 C 0.9013(10) 0.0964(6) 0.2678(12)
C20 C 1.0172(10) 0.3807(6) 0.2525(11)
C21 C 0.7860(11) 0.4113(7) -0.0697(15)
C22 C 0.6669(9) 0.1228(7) -0.0559(13)
H1 H 0.9989 0.1379 -0.3957
H2 H 0.8685 0.0949 -0.3717
H3 H 0.9650 0.0264 -0.2167
H4 H 0.9053 0.0726 -0.1178
H5 H 1.1404 0.1224 -0.1960
H6 H 1.0975 0.0682 -0.0503
H7 H 0.9793 0.2388 0.2429
H8 H 1.1914 0.2547 -0.1974
H9 H 1.2566 0.4275 -0.0596
H10 H 1.2588 0.3895 -0.2050
H11 H 1.0601 0.4430 -0.1279
H12 H 1.1603 0.4995 -0.2239
H13 H 1.0331 0.4552 -0.3883
H14 H 1.1233 0.4041 -0.3948
H15 H 0.7206 0.2714 -0.1143
H16 H 1.0500 0.2733 -0.4000
H17 H 0.9556 0.1122 0.3431
H18 H 0.8468 0.1282 0.2599
H19 H 0.8570 0.0435 0.3070
H20 H 0.9351 0.3602 0.2362
H21 H 1.0366 0.3472 0.3378
H22 H 1.0157 0.4293 0.2987
H23 H 0.7076 0.3831 -0.0876
H24 H 0.8088 0.3867 0.0229
H25 H 0.7711 0.4609 -0.0373
H26 H 0.7127 0.1350 0.0316
H27 H 0.6188 0.1633 -0.0661
H28 H 0.6115 0.0748 -0.0270
O5 O 0.6707(6) -0.0796(3) -0.6209(7)
O6 O 0.5732(6) -0.3523(4) -0.6591(7)
O7 O 0.3262(6) -0.3938(4) -0.3548(7)
O8 O 0.4102(6) -0.1211(4) -0.3247(8)
C23 C 0.6049(11) -0.1279(7) -0.1574(11)
C24 C 0.6786(10) -0.0746(6) -0.2820(12)
C25 C 0.7701(9) -0.1042(6) -0.3532(11)
C26 C 0.7253(8) -0.1679(5) -0.4423(10)
C27 C 0.6716(8) -0.1550(5) -0.5723(10)
C28 C 0.6216(8) -0.2141(5) -0.6486(8)
C29 C 0.6209(8) -0.2902(5) -0.5946(9)
C30 C 0.6788(8) -0.3045(5) -0.4663(11)
C31 C 0.7296(7) -0.2429(5) -0.3960(10)
C32 C 0.6753(10) -0.3862(7) -0.3996(12)
C33 C 0.5609(12) -0.4340(6) -0.3334(14)
C34 C 0.5194(10) -0.4112(6) -0.1963(11)
C35 C 0.4818(9) -0.3366(5) -0.2203(10)
C36 C 0.3891(8) -0.3285(5) -0.3072(10)
C37 C 0.3639(8) -0.2582(6) -0.3402(11)
C38 C 0.4341(9) -0.1933(6) -0.2901(10)
C39 C 0.5258(9) -0.1978(6) -0.2055(10)
C40 C 0.5450(8) -0.2718(6) -0.1717(9)
C41 C 0.6206(11) -0.0626(6) -0.7515(11)
C42 C 0.5249(9) -0.3413(6) -0.7930(11)
C43 C 0.2654(9) -0.3877(6) -0.4776(11)
C44 C 0.3637(11) -0.1049(6) -0.4579(12)
H29 H 0.5616 -0.0954 -0.1147
H30 H 0.6588 -0.1413 -0.0890
H31 H 0.6221 -0.0696 -0.3618
H32 H 0.7066 -0.0254 -0.2518
H33 H 0.8190 -0.0586 -0.4081
H34 H 0.8159 -0.1191 -0.2688
H35 H 0.5910 -0.2041 -0.7448
H36 H 0.7736 -0.2534 -0.3085
H37 H 0.7306 -0.3857 -0.3167
H38 H 0.7076 -0.4137 -0.4721
H39 H 0.5629 -0.4910 -0.3305
H40 H 0.5052 -0.4294 -0.4180
H41 H 0.5793 -0.4103 -0.1250
H42 H 0.4529 -0.4552 -0.1537
H43 H 0.2952 -0.2520 -0.3947
H44 H 0.6090 -0.2765 -0.1050
H45 H 0.6557 -0.0780 -0.8346
H46 H 0.5374 -0.0887 -0.7515
H47 H 0.6156 -0.0068 -0.7930
H48 H 0.4716 -0.3090 -0.8048
H49 H 0.5926 -0.3096 -0.8702
H50 H 0.4907 -0.3800 -0.8715
H51 H 0.2104 -0.3526 -0.4722
H52 H 0.3151 -0.3625 -0.5647
H53 H 0.2131 -0.4326 -0.5198
H54 H 0.4108 -0.1151 -0.5402
H55 H 0.2878 -0.1452 -0.4663
H56 H 0.3434 -0.0569 -0.4943
loop_
_geom_bond_atom_site_label_1
_geom_bond_atom_site_label_2
_geom_bond_site_symmetry_1
_geom_bond_site_symmetry_2
O1 C5 1_555 1_555
O2 C7 1_555 1_555
O3 C14 1_555 1_555
O4 C16 1_555 1_555
C1 C2 1_555 1_555
C2 C3 1_555 1_555
C3 C4 1_555 1_555
C4 C5 1_555 1_555
C5 C6 1_555 1_555
C6 C7 1_555 1_555
C7 C8 1_555 1_555
C8 C9 1_555 1_555
C9 C4 1_555 1_555
C10 C8 1_555 1_555
C11 C10 1_555 1_555
C12 C11 1_555 1_555
C13 C12 1_555 1_555
C14 C13 1_555 1_555
C15 C14 1_555 1_555
C16 C15 1_555 1_555
C17 C1 1_555 1_555
C18 C13 1_555 1_555
C19 O1 1_555 1_555
C20 O2 1_555 1_555
C21 O3 1_555 1_555
C22 O4 1_555 1_555
O5 C27 1_555 1_555
O6 C29 1_555 1_555
O7 C36 1_555 1_555
O8 C38 1_555 1_555
C23 C24 1_555 1_555
C24 C25 1_555 1_555
C25 C26 1_555 1_555
C26 C27 1_555 1_555
C27 C28 1_555 1_555
C28 C29 1_555 1_555
C29 C30 1_555 1_555
C30 C31 1_555 1_555
C31 C26 1_555 1_555
C32 C30 1_555 1_555
C33 C32 1_555 1_555
C34 C33 1_555 1_555
C35 C34 1_555 1_555
C36 C35 1_555 1_555
C37 C36 1_555 1_555
C38 C37 1_555 1_555
C39 C23 1_555 1_555
C40 C35 1_555 1_555
C41 O5 1_555 1_555
C42 O6 1_555 1_555
C43 O7 1_555 1_555
C44 O8 1_555 1_555
H1 C1 1_555 1_555
H2 C1 1_555 1_555
H3 C2 1_555 1_555
H4 C2 1_555 1_555
H5 C3 1_555 1_555
H6 C3 1_555 1_555
H7 C6 1_555 1_555
H8 C9 1_555 1_555
H9 C10 1_555 1_555
H10 C10 1_555 1_555
H11 C11 1_555 1_555
H12 C11 1_555 1_555
H13 C12 1_555 1_555
H14 C12 1_555 1_555
H15 C15 1_555 1_555
H16 C18 1_555 1_555
H17 C19 1_555 1_555
H18 C19 1_555 1_555
H19 C19 1_555 1_555
H20 C20 1_555 1_555
H21 C20 1_555 1_555
H22 C20 1_555 1_555
H23 C21 1_555 1_555
H24 C21 1_555 1_555
H25 C21 1_555 1_555
H26 C22 1_555 1_555
H27 C22 1_555 1_555
H28 C22 1_555 1_555
H29 C23 1_555 1_555
H30 C23 1_555 1_555
H31 C24 1_555 1_555
H32 C24 1_555 1_555
H33 C25 1_555 1_555
H34 C25 1_555 1_555
H35 C28 1_555 1_555
H36 C31 1_555 1_555
H37 C32 1_555 1_555
H38 C32 1_555 1_555
H39 C33 1_555 1_555
H40 C33 1_555 1_555
H41 C34 1_555 1_555
H42 C34 1_555 1_555
H43 C37 1_555 1_555
H44 C40 1_555 1_555
H45 C41 1_555 1_555
H46 C41 1_555 1_555
H47 C41 1_555 1_555
H48 C42 1_555 1_555
H49 C42 1_555 1_555
H50 C42 1_555 1_555
H51 C43 1_555 1_555
H52 C43 1_555 1_555
H53 C43 1_555 1_555
H54 C44 1_555 1_555
H55 C44 1_555 1_555
H56 C44 1_555 1_555
C16 C17 1_555 1_555
C17 C18 1_555 1_555
C38 C39 1_555 1_555
C39 C40 1_555 1_555

#END
