
#######################################################################
#
#                 Cambridge Crystallographic Data Centre
#                                CCDC 
#
#######################################################################
#
# If this CIF has been generated from an entry in the Cambridge 
# Structural Database, then it will include bibliographic, chemical, 
# crystal, experimental, refinement or atomic coordinate data resulting 
# from the CCDC's data processing and validation procedures.
#
#######################################################################

data_WEPMAI
_chemical_formula_moiety         'C102 H52 B2 F72 N12 O26,2(C7 H8)'
_chemical_name_systematic        
'(\m-benzene-1,4-diolato)-bis(1,2,3,4,8,9,10,11,15,16,17,18-dodecakis(2,2,2-trifluoroethoxy)subphthalocyaninato)-di-boron toluene solvate'
_symmetry_cell_setting           triclinic
_symmetry_space_group_name_H-M   'P -1'
_symmetry_Int_Tables_number      2
_space_group_name_Hall           '-P 1'
loop_
_symmetry_equiv_pos_site_id
_symmetry_equiv_pos_as_xyz
1 x,y,z
2 -x,-y,-z
_cell_length_a                   13.8227(3)
_cell_length_b                   15.4841(3)
_cell_length_c                   17.8295(13)
_cell_angle_alpha                66.892(5)
_cell_angle_beta                 69.301(5)
_cell_angle_gamma                82.230(6)
_cell_volume                     3283.32
_exptl_crystal_colour            red
_exptl_crystal_description       block
_cell_formula_units_Z            1
_exptl_crystal_recrystallization_method toluene
loop_
_atom_site_label
_atom_site_type_symbol
_atom_site_fract_x
_atom_site_fract_y
_atom_site_fract_z
N1 N 0.3856(2) 0.4426(2) 0.37092(18)
C1 C 0.4232(3) 0.3544(2) 0.3895(2)
N2 N 0.5267(2) 0.33592(19) 0.36428(17)
C2 C 0.5492(3) 0.2495(2) 0.3597(2)
N3 N 0.6402(2) 0.2299(2) 0.30775(18)
C3 C 0.7048(3) 0.3022(2) 0.2537(2)
N4 N 0.6903(2) 0.3896(2) 0.25789(18)
C4 C 0.7336(3) 0.4596(2) 0.1795(2)
N5 N 0.6999(2) 0.5486(2) 0.15823(18)
C5 C 0.6087(3) 0.5648(2) 0.2113(2)
N6 N 0.5562(2) 0.4969(2) 0.28597(18)
C6 C 0.4530(3) 0.5129(2) 0.3159(2)
C7 C 0.3717(3) 0.2647(2) 0.4199(2)
C8 C 0.2680(3) 0.2378(2) 0.4547(2)
C9 C 0.2431(3) 0.1489(3) 0.4635(2)
C10 C 0.3219(3) 0.0864(2) 0.4414(2)
C11 C 0.4258(3) 0.1095(2) 0.4127(2)
C12 C 0.4508(3) 0.1998(2) 0.4004(2)
C13 C 0.7823(3) 0.3148(3) 0.1690(2)
C14 C 0.8283(3) 0.2522(3) 0.1275(2)
C15 C 0.8827(3) 0.2890(3) 0.0385(3)
C16 C 0.8943(3) 0.3867(3) -0.0072(2)
C17 C 0.8563(3) 0.4491(3) 0.0350(2)
C18 C 0.7983(3) 0.4130(3) 0.1231(2)
C19 C 0.5360(3) 0.6417(2) 0.1979(2)
C20 C 0.5484(3) 0.7298(3) 0.1303(2)
C21 C 0.4620(3) 0.7862(3) 0.1283(2)
C22 C 0.3666(3) 0.7591(3) 0.1952(2)
C23 C 0.3537(3) 0.6712(2) 0.2631(2)
C24 C 0.4385(3) 0.6107(2) 0.2634(2)
B1 B 0.6076(3) 0.4103(3) 0.3307(2)
O1 O 0.64457(18) 0.41822(17) 0.39368(15)
C25 C 0.5743(3) 0.4582(2) 0.4477(2)
C26 C 0.5001(3) 0.4028(2) 0.5230(2)
H1 H 0.5001 0.3366 0.5390
C27 C 0.5740(3) 0.5551(3) 0.4253(2)
H2 H 0.6247 0.5929 0.3744
O2 O 0.1880(2) 0.29654(18) 0.47559(16)
C28 C 0.1842(2) 0.33319(17) 0.53698(12)
H3 H 0.1403 0.3900 0.5299
H4 H 0.2547 0.3520 0.5270
C29 C 0.14119(15) 0.26256(13) 0.62834(11)
F1 F 0.04464(17) 0.2385(2) 0.64425(19)
F2 F 0.1375(2) 0.2960(2) 0.68800(14)
F3 F 0.1971(2) 0.18404(17) 0.64254(18)
O3 O 0.14361(19) 0.11561(18) 0.49992(17)
C30 C 0.0704(2) 0.16370(19) 0.45924(15)
H5 H 0.0822 0.2322 0.4366
H6 H -0.0003 0.1499 0.5018
C31 C 0.07973(12) 0.13344(11) 0.38581(10)
F4 F 0.00584(16) 0.17348(18) 0.35113(16)
F5 F 0.0697(2) 0.04056(12) 0.41133(15)
F6 F 0.17079(14) 0.15714(17) 0.32283(13)
O4 O 0.2975(2) 0.00241(17) 0.44304(15)
C32 C 0.2620(2) -0.06749(12) 0.52537(16)
H7 H 0.1934 -0.0504 0.5588
H8 H 0.3107 -0.0752 0.5570
C33 C 0.25421(12) -0.15781(9) 0.51368(10)
F7 F 0.19173(19) -0.14632(16) 0.46797(14)
F8 F 0.21560(18) -0.22913(12) 0.58875(12)
F9 F 0.34584(14) -0.18609(16) 0.47236(17)
O5 O 0.5013(2) 0.04437(17) 0.40080(15)
C34 C 0.5330(2) 0.04008(17) 0.31827(18)
H9 H 0.5694 0.0985 0.2736
H10 H 0.4730 0.0305 0.3044
C35 C 0.60542(17) -0.04322(13) 0.32360(13)
F10 F 0.6505(3) -0.0482(2) 0.24567(16)
F11 F 0.5567(2) -0.12511(15) 0.3759(2)
F12 F 0.6803(2) -0.0381(2) 0.3528(2)
O6 O 0.8185(2) 0.15701(18) 0.16899(16)
C36 C 0.8585(2) 0.11741(18) 0.23718(19)
H11 H 0.8028 0.0843 0.2913
H12 H 0.8864 0.1675 0.2453
C37 C 0.94357(15) 0.04897(12) 0.21730(13)
F13 F 0.9084(2) -0.01554(16) 0.2008(2)
F14 F 0.9796(3) 0.00259(19) 0.2830(2)
F15 F 1.02486(18) 0.09125(19) 0.1489(2)
O7 O 0.9316(2) 0.2323(2) -0.00572(19)
C38 C 0.8868(6) 0.1505(4) 0.0051(3)
H13 H 0.8129 0.1455 0.0410
H14 H 0.9236 0.0938 0.0318
C39 C 0.8997(3) 0.1643(3) -0.0869(3)
F16 F 0.8507(6) 0.2418(4) -0.1221(4)
F17 F 0.8605(5) 0.0930(4) -0.0919(4)
F18 F 0.9987(4) 0.1727(5) -0.1371(4)
O8 O 0.9351(2) 0.4248(2) -0.09559(17)
C40 C 1.03850(19) 0.40455(18) -0.13394(10)
H15 H 1.0455 0.3380 -0.1282
H16 H 1.0828 0.4159 -0.1056
C41 C 1.07032(11) 0.46859(12) -0.22838(9)
F19 F 1.0650(2) 0.55832(13) -0.23616(16)
F20 F 1.00941(15) 0.4594(2) -0.26881(15)
F21 F 1.16681(12) 0.45255(18) -0.27255(13)
O9 O 0.8790(2) 0.54303(18) -0.00802(16)
C42 C 0.8073(2) 0.59667(13) -0.04811(17)
H17 H 0.7395 0.5986 -0.0044
H18 H 0.7975 0.5700 -0.0871
C43 C 0.85483(15) 0.69393(12) -0.09860(11)
F22 F 0.7894(2) 0.75346(16) -0.13382(18)
F23 F 0.9423(2) 0.6959(2) -0.16331(15)
F24 F 0.8781(2) 0.72853(18) -0.04921(16)
O10 O 0.6429(2) 0.75407(18) 0.06707(18)
C44 C 0.6902(4) 0.8363(3) 0.0552(3)
H19 H 0.6372 0.8856 0.0592
H20 H 0.7423 0.8596 -0.0033
C45 C 0.7423(3) 0.8184(2) 0.1217(2)
F25 F 0.8162(4) 0.7538(3) 0.1160(4)
F26 F 0.6766(4) 0.7864(5) 0.2028(3)
F27 F 0.7860(4) 0.8957(3) 0.1117(3)
O11 O 0.4727(2) 0.87438(19) 0.06304(17)
C46 C 0.4160(3) 0.8936(3) 0.0060(2)
H21 H 0.4260 0.9606 -0.0326
H22 H 0.3416 0.8840 0.0404
C47 C 0.44520(18) 0.83429(16) -0.04898(14)
F28 F 0.3931(3) 0.8623(2) -0.10485(19)
F29 F 0.4235(3) 0.74316(18) -0.0023(2)
F30 F 0.54592(18) 0.8397(3) -0.0944(2)
O12 O 0.2841(2) 0.81837(19) 0.18843(17)
C48 C 0.2438(3) 0.85907(15) 0.25102(19)
H23 H 0.2549 0.8164 0.3056
H24 H 0.1684 0.8686 0.2626
C49 C 0.2962(2) 0.95253(12) 0.21991(12)
F31 F 0.3957(2) 0.9396(2) 0.2142(2)
F32 F 0.2537(3) 0.99889(18) 0.27322(18)
F33 F 0.2923(3) 1.01008(17) 0.14232(15)
O13 O 0.2569(2) 0.65069(18) 0.32341(15)
C50 C 0.25329(14) 0.6102(2) 0.41043(15)
H25 H 0.2977 0.6459 0.4213
H26 H 0.2774 0.5443 0.4247
C51 C 0.14116(13) 0.61444(11) 0.46412(10)
F34 F 0.1293(2) 0.5731(2) 0.54817(10)
F35 F 0.07740(19) 0.57052(18) 0.4489(2)
F36 F 0.10696(18) 0.70243(12) 0.44958(17)
N1A N 0.6144(2) 0.5574(2) 0.62908(18)
C1A C 0.5768(3) 0.6456(2) 0.6105(2)
N2A N 0.4733(2) 0.66408(19) 0.63572(17)
C2A C 0.4508(3) 0.7505(2) 0.6403(2)
N3A N 0.3598(2) 0.7701(2) 0.69225(18)
C3A C 0.2952(3) 0.6978(2) 0.7463(2)
N4A N 0.3097(2) 0.6104(2) 0.74211(18)
C4A C 0.2664(3) 0.5404(2) 0.8205(2)
N5A N 0.3001(2) 0.4514(2) 0.84177(18)
C5A C 0.3913(3) 0.4352(2) 0.7887(2)
N6A N 0.4438(2) 0.5031(2) 0.71403(18)
C6A C 0.5470(3) 0.4871(2) 0.6841(2)
C7A C 0.6283(3) 0.7353(2) 0.5801(2)
C8A C 0.7320(3) 0.7622(2) 0.5453(2)
C9A C 0.7569(3) 0.8511(3) 0.5365(2)
C10A C 0.6781(3) 0.9136(2) 0.5586(2)
C11A C 0.5742(3) 0.8905(2) 0.5873(2)
C12A C 0.5492(3) 0.8002(2) 0.5996(2)
C13A C 0.2177(3) 0.6852(3) 0.8310(2)
C14A C 0.1717(3) 0.7478(3) 0.8725(2)
C15A C 0.1173(3) 0.7110(3) 0.9615(3)
C16A C 0.1057(3) 0.6133(3) 1.0072(2)
C17A C 0.1437(3) 0.5509(3) 0.9650(2)
C18A C 0.2017(3) 0.5870(3) 0.8769(2)
C19A C 0.4640(3) 0.3583(2) 0.8021(2)
C20A C 0.4516(3) 0.2702(3) 0.8697(2)
C21A C 0.5380(3) 0.2138(3) 0.8717(2)
C22A C 0.6334(3) 0.2409(3) 0.8048(2)
C23A C 0.6463(3) 0.3288(2) 0.7369(2)
C24A C 0.5615(3) 0.3893(2) 0.7366(2)
B1A B 0.3924(3) 0.5897(3) 0.6693(2)
O1A O 0.35543(18) 0.58178(17) 0.60632(15)
C25A C 0.4257(3) 0.5418(2) 0.5523(2)
C26A C 0.4999(3) 0.5972(2) 0.4770(2)
H1A H 0.4999 0.6634 0.4610
C27A C 0.4260(3) 0.4449(3) 0.5747(2)
H2A H 0.3753 0.4071 0.6256
O2A O 0.8120(2) 0.70346(18) 0.52441(16)
C28A C 0.8158(2) 0.66681(17) 0.46302(12)
H3A H 0.8597 0.6100 0.4701
H4A H 0.7453 0.6480 0.4730
C29A C 0.85881(15) 0.73744(13) 0.37166(11)
F1A F 0.95536(17) 0.7615(2) 0.35575(19)
F2A F 0.8625(2) 0.7040(2) 0.31200(14)
F3A F 0.8029(2) 0.81596(17) 0.35746(18)
O3A O 0.85639(19) 0.88439(18) 0.50008(17)
C30A C 0.9296(2) 0.83630(19) 0.54076(15)
H5A H 0.9178 0.7678 0.5634
H6A H 1.0003 0.8501 0.4982
C31A C 0.92027(12) 0.86656(11) 0.61419(10)
F4A F 0.99416(16) 0.82652(18) 0.64887(16)
F5A F 0.9303(2) 0.95944(12) 0.58867(15)
F6A F 0.82921(14) 0.84286(17) 0.67717(13)
O4A O 0.7025(2) 0.99759(17) 0.55696(15)
C32A C 0.7380(2) 1.06749(12) 0.47463(16)
H7A H 0.8066 1.0504 0.4412
H8A H 0.6893 1.0752 0.4430
C33A C 0.74579(12) 1.15781(9) 0.48632(10)
F7A F 0.80827(19) 1.14632(16) 0.53203(14)
F8A F 0.78440(18) 1.22913(12) 0.41125(12)
F9A F 0.65416(14) 1.18609(16) 0.52764(17)
O5A O 0.4987(2) 0.95563(17) 0.59920(15)
C34A C 0.4670(2) 0.95992(17) 0.68173(18)
H9A H 0.4306 0.9015 0.7264
H10A H 0.5270 0.9695 0.6956
C35A C 0.39458(17) 1.04322(13) 0.67640(13)
F10A F 0.3495(3) 1.0482(2) 0.75433(16)
F11A F 0.4433(2) 1.12511(15) 0.6241(2)
F12A F 0.3197(2) 1.0381(2) 0.6472(2)
O6A O 0.1815(2) 0.84299(18) 0.83101(16)
C36A C 0.1415(2) 0.88259(18) 0.76282(19)
H11A H 0.1972 0.9157 0.7087
H12A H 0.1136 0.8325 0.7547
C37A C 0.05643(15) 0.95103(12) 0.78270(13)
F13A F 0.0916(2) 1.01554(16) 0.7992(2)
F14A F 0.0204(3) 0.99741(19) 0.7170(2)
F15A F -0.02486(18) 0.90875(19) 0.8511(2)
O7A O 0.0684(2) 0.7677(2) 1.00572(19)
C38A C 0.1132(6) 0.8495(4) 0.9949(3)
H13A H 0.1871 0.8545 0.9590
H14A H 0.0764 0.9062 0.9682
C39A C 0.1003(3) 0.8357(3) 1.0869(3)
F16A F 0.1493(6) 0.7582(4) 1.1221(4)
F17A F 0.1395(5) 0.9070(4) 1.0919(4)
F18A F 0.0013(4) 0.8273(5) 1.1371(4)
O8A O 0.0649(2) 0.5752(2) 1.09559(17)
C40A C -0.03850(19) 0.59545(18) 1.13394(10)
H15A H -0.0455 0.6620 1.1282
H16A H -0.0828 0.5841 1.1056
C41A C -0.07032(11) 0.53141(12) 1.22838(9)
F19A F -0.0650(2) 0.44168(13) 1.23616(16)
F20A F -0.00941(15) 0.5406(2) 1.26881(15)
F21A F -0.16681(12) 0.54745(18) 1.27255(13)
O9A O 0.1210(2) 0.45697(18) 1.00802(16)
C42A C 0.1927(2) 0.40333(13) 1.04811(17)
H17A H 0.2605 0.4014 1.0044
H18A H 0.2025 0.4300 1.0871
C43A C 0.14517(15) 0.30607(12) 1.09860(11)
F22A F 0.2106(2) 0.24654(16) 1.13382(18)
F23A F 0.0577(2) 0.3041(2) 1.16331(15)
F24A F 0.1219(2) 0.27147(18) 1.04921(16)
O10A O 0.3571(2) 0.24593(18) 0.93293(18)
C44A C 0.3098(4) 0.1637(3) 0.9448(3)
H19A H 0.3628 0.1144 0.9408
H20A H 0.2577 0.1404 1.0033
C45A C 0.2577(3) 0.1816(2) 0.8783(2)
F25A F 0.1838(4) 0.2462(3) 0.8840(4)
F26A F 0.3234(4) 0.2136(5) 0.7972(3)
F27A F 0.2140(4) 0.1043(3) 0.8883(3)
O11A O 0.5273(2) 0.12562(19) 0.93696(17)
C46A C 0.5840(3) 0.1064(3) 0.9940(2)
H21A H 0.5740 0.0394 1.0326
H22A H 0.6584 0.1160 0.9596
C47A C 0.55480(18) 0.16571(16) 1.04898(14)
F28A F 0.6069(3) 0.1377(2) 1.10485(19)
F29A F 0.5765(3) 0.25684(18) 1.0023(2)
F30A F 0.45408(18) 0.1603(3) 1.0944(2)
O12A O 0.7159(2) 0.18163(19) 0.81157(17)
C48A C 0.7562(3) 0.14093(15) 0.74898(19)
H23A H 0.7451 0.1836 0.6944
H24A H 0.8316 0.1314 0.7374
C49A C 0.7038(2) 0.04747(12) 0.78009(12)
F31A F 0.6043(2) 0.0604(2) 0.7858(2)
F32A F 0.7463(3) 0.00111(18) 0.72678(18)
F33A F 0.7077(3) -0.01008(17) 0.85768(15)
O13A O 0.7431(2) 0.34931(18) 0.67659(15)
C50A C 0.74671(14) 0.3898(2) 0.58957(15)
H25A H 0.7023 0.3541 0.5787
H26A H 0.7226 0.4557 0.5753
C51A C 0.85884(13) 0.38556(11) 0.53588(10)
F34A F 0.8707(2) 0.4269(2) 0.45183(10)
F35A F 0.92260(19) 0.42948(18) 0.5511(2)
F36A F 0.89304(18) 0.29757(12) 0.55042(17)
C58 C 0.6651(3) 0.5689(4) -0.1971(3)
C59 C 0.6178(4) 0.6563(3) -0.2119(2)
H33 H 0.6569 0.7114 -0.2519
C60 C 0.5134(4) 0.6632(3) -0.1681(3)
H34 H 0.4810 0.7229 -0.1782
C61 C 0.4562(3) 0.5826(4) -0.1096(3)
H35 H 0.3848 0.5872 -0.0796
C62 C 0.5035(4) 0.4951(3) -0.0948(3)
H36 H 0.4645 0.4401 -0.0548
C63 C 0.6080(4) 0.4883(3) -0.1386(3)
H37 H 0.6403 0.4286 -0.1285
C64 C 0.7737(7) 0.5556(10) -0.2462(6)
H38 H 0.7949 0.4910 -0.2193
H39 H 0.8184 0.5994 -0.2460
H40 H 0.7796 0.5676 -0.3058
C52? C 0.8599(3) 0.1802(5) -0.0124(5)
H27? H 0.8108 0.2231 -0.0387
H28? H 0.8201 0.1363 0.0455
C53? C 0.9218(3) 0.1262(3) -0.0687(3)
F37? F 0.8592(4) 0.0728(4) -0.0750(4)
F38? F 0.9914(4) 0.0689(4) -0.0372(4)
F39? F 0.9740(5) 0.1828(4) -0.1486(3)
C54? C 0.6942(11) 0.8403(6) 0.0272(5)
H29? H 0.6495 0.8926 0.0051
H30? H 0.7587 0.8402 -0.0204
C55? C 0.7160(6) 0.8446(5) 0.1021(5)
F40? F 0.7796(11) 0.7467(7) 0.1443(9)
F41? F 0.6426(8) 0.8305(9) 0.1788(6)
F42? F 0.7720(7) 0.9179(6) 0.0852(7)
C56? C 0.5139(6) 0.8824(10) -0.0233(4)
H31? H 0.5691 0.8354 -0.0299
H32? H 0.5440 0.9458 -0.0605
C57? C 0.4265(6) 0.8658(5) -0.0487(4)
F43? F 0.3499(8) 0.9266(7) -0.0362(8)
F44? F 0.3855(8) 0.7797(6) -0.0025(6)
F45? F 0.4566(8) 0.8759(8) -0.1316(4)
loop_
_geom_bond_atom_site_label_1
_geom_bond_atom_site_label_2
_geom_bond_site_symmetry_1
_geom_bond_site_symmetry_2
N1 C1 1_555 1_555
C1 N2 1_555 1_555
N2 C2 1_555 1_555
C2 N3 1_555 1_555
N3 C3 1_555 1_555
C3 N4 1_555 1_555
N4 C4 1_555 1_555
C4 N5 1_555 1_555
N5 C5 1_555 1_555
C5 N6 1_555 1_555
N6 C6 1_555 1_555
C6 N1 1_555 1_555
C7 C1 1_555 1_555
C8 C7 1_555 1_555
C9 C8 1_555 1_555
C10 C9 1_555 1_555
C11 C10 1_555 1_555
C12 C2 1_555 1_555
C13 C3 1_555 1_555
C14 C13 1_555 1_555
C15 C14 1_555 1_555
C16 C15 1_555 1_555
C17 C16 1_555 1_555
C18 C4 1_555 1_555
C19 C5 1_555 1_555
C20 C19 1_555 1_555
C21 C20 1_555 1_555
C22 C21 1_555 1_555
C23 C22 1_555 1_555
C24 C6 1_555 1_555
B1 N2 1_555 1_555
O1 B1 1_555 1_555
C25 O1 1_555 1_555
C26 C25 1_555 1_555
H1 C26 1_555 1_555
C27 C25 1_555 1_555
H2 C27 1_555 1_555
O2 C8 1_555 1_555
C28 O2 1_555 1_555
H3 C28 1_555 1_555
H4 C28 1_555 1_555
C29 C28 1_555 1_555
F1 C29 1_555 1_555
F2 C29 1_555 1_555
F3 C29 1_555 1_555
O3 C9 1_555 1_555
C30 O3 1_555 1_555
H5 C30 1_555 1_555
H6 C30 1_555 1_555
C31 C30 1_555 1_555
F4 C31 1_555 1_555
F5 C31 1_555 1_555
F6 C31 1_555 1_555
O4 C10 1_555 1_555
C32 O4 1_555 1_555
H7 C32 1_555 1_555
H8 C32 1_555 1_555
C33 C32 1_555 1_555
F7 C33 1_555 1_555
F8 C33 1_555 1_555
F9 C33 1_555 1_555
O5 C11 1_555 1_555
C34 O5 1_555 1_555
H9 C34 1_555 1_555
H10 C34 1_555 1_555
C35 C34 1_555 1_555
F10 C35 1_555 1_555
F11 C35 1_555 1_555
F12 C35 1_555 1_555
O6 C14 1_555 1_555
C36 O6 1_555 1_555
H11 C36 1_555 1_555
H12 C36 1_555 1_555
C37 C36 1_555 1_555
F13 C37 1_555 1_555
F14 C37 1_555 1_555
F15 C37 1_555 1_555
O7 C15 1_555 1_555
C38 O7 1_555 1_555
H13 C38 1_555 1_555
H14 C38 1_555 1_555
C39 C38 1_555 1_555
F16 C39 1_555 1_555
F17 C39 1_555 1_555
F18 C39 1_555 1_555
O8 C16 1_555 1_555
C40 O8 1_555 1_555
H15 C40 1_555 1_555
H16 C40 1_555 1_555
C41 C40 1_555 1_555
F19 C41 1_555 1_555
F20 C41 1_555 1_555
F21 C41 1_555 1_555
O9 C17 1_555 1_555
C42 O9 1_555 1_555
H17 C42 1_555 1_555
H18 C42 1_555 1_555
C43 C42 1_555 1_555
F22 C43 1_555 1_555
F23 C43 1_555 1_555
F24 C43 1_555 1_555
O10 C20 1_555 1_555
C44 O10 1_555 1_555
H19 C44 1_555 1_555
H20 C44 1_555 1_555
C45 C44 1_555 1_555
F25 C45 1_555 1_555
F26 C45 1_555 1_555
F27 C45 1_555 1_555
O11 C21 1_555 1_555
C46 O11 1_555 1_555
H21 C46 1_555 1_555
H22 C46 1_555 1_555
C47 C46 1_555 1_555
F28 C47 1_555 1_555
F29 C47 1_555 1_555
F30 C47 1_555 1_555
O12 C22 1_555 1_555
C48 O12 1_555 1_555
H23 C48 1_555 1_555
H24 C48 1_555 1_555
C49 C48 1_555 1_555
F31 C49 1_555 1_555
F32 C49 1_555 1_555
F33 C49 1_555 1_555
O13 C23 1_555 1_555
C50 O13 1_555 1_555
H25 C50 1_555 1_555
H26 C50 1_555 1_555
C51 C50 1_555 1_555
F34 C51 1_555 1_555
F35 C51 1_555 1_555
F36 C51 1_555 1_555
C58 C59 1_555 1_555
C59 H33 1_555 1_555
C60 C59 1_555 1_555
H34 C60 1_555 1_555
C61 C60 1_555 1_555
H35 C61 1_555 1_555
C62 C61 1_555 1_555
H36 C62 1_555 1_555
C63 C58 1_555 1_555
H37 C63 1_555 1_555
C64 C58 1_555 1_555
H38 C64 1_555 1_555
H39 C64 1_555 1_555
H40 C64 1_555 1_555
N1A C1A 1_555 1_555
C1A N2A 1_555 1_555
N2A C2A 1_555 1_555
C2A N3A 1_555 1_555
N3A C3A 1_555 1_555
C3A N4A 1_555 1_555
N4A C4A 1_555 1_555
C4A N5A 1_555 1_555
N5A C5A 1_555 1_555
C5A N6A 1_555 1_555
N6A C6A 1_555 1_555
C6A N1A 1_555 1_555
C7A C1A 1_555 1_555
C8A C7A 1_555 1_555
C9A C8A 1_555 1_555
C10A C9A 1_555 1_555
C11A C10A 1_555 1_555
C12A C2A 1_555 1_555
C13A C3A 1_555 1_555
C14A C13A 1_555 1_555
C15A C14A 1_555 1_555
C16A C15A 1_555 1_555
C17A C16A 1_555 1_555
C18A C4A 1_555 1_555
C19A C5A 1_555 1_555
C20A C19A 1_555 1_555
C21A C20A 1_555 1_555
C22A C21A 1_555 1_555
C23A C22A 1_555 1_555
C24A C6A 1_555 1_555
B1A N2A 1_555 1_555
O1A B1A 1_555 1_555
C25A O1A 1_555 1_555
C26A C27 1_555 1_555
H1A C26A 1_555 1_555
C27A C26 1_555 1_555
H2A C27A 1_555 1_555
O2A C8A 1_555 1_555
C28A O2A 1_555 1_555
H3A C28A 1_555 1_555
H4A C28A 1_555 1_555
C29A C28A 1_555 1_555
F1A C29A 1_555 1_555
F2A C29A 1_555 1_555
F3A C29A 1_555 1_555
O3A C9A 1_555 1_555
C30A O3A 1_555 1_555
H5A C30A 1_555 1_555
H6A C30A 1_555 1_555
C31A C30A 1_555 1_555
F4A C31A 1_555 1_555
F5A C31A 1_555 1_555
F6A C31A 1_555 1_555
O4A C10A 1_555 1_555
C32A O4A 1_555 1_555
H7A C32A 1_555 1_555
H8A C32A 1_555 1_555
C33A C32A 1_555 1_555
F7A C33A 1_555 1_555
F8A C33A 1_555 1_555
F9A C33A 1_555 1_555
O5A C11A 1_555 1_555
C34A O5A 1_555 1_555
H9A C34A 1_555 1_555
H10A C34A 1_555 1_555
C35A C34A 1_555 1_555
F10A C35A 1_555 1_555
F11A C35A 1_555 1_555
F12A C35A 1_555 1_555
O6A C14A 1_555 1_555
C36A O6A 1_555 1_555
H11A C36A 1_555 1_555
H12A C36A 1_555 1_555
C37A C36A 1_555 1_555
F13A C37A 1_555 1_555
F14A C37A 1_555 1_555
F15A C37A 1_555 1_555
O7A C15A 1_555 1_555
C38A O7A 1_555 1_555
H13A C38A 1_555 1_555
H14A C38A 1_555 1_555
C39A C38A 1_555 1_555
F16A C39A 1_555 1_555
F17A C39A 1_555 1_555
F18A C39A 1_555 1_555
O8A C16A 1_555 1_555
C40A O8A 1_555 1_555
H15A C40A 1_555 1_555
H16A C40A 1_555 1_555
C41A C40A 1_555 1_555
F19A C41A 1_555 1_555
F20A C41A 1_555 1_555
F21A C41A 1_555 1_555
O9A C17A 1_555 1_555
C42A O9A 1_555 1_555
H17A C42A 1_555 1_555
H18A C42A 1_555 1_555
C43A C42A 1_555 1_555
F22A C43A 1_555 1_555
F23A C43A 1_555 1_555
F24A C43A 1_555 1_555
O10A C20A 1_555 1_555
C44A O10A 1_555 1_555
H19A C44A 1_555 1_555
H20A C44A 1_555 1_555
C45A C44A 1_555 1_555
F25A C45A 1_555 1_555
F26A C45A 1_555 1_555
F27A C45A 1_555 1_555
O11A C21A 1_555 1_555
C46A O11A 1_555 1_555
H21A C46A 1_555 1_555
H22A C46A 1_555 1_555
C47A C46A 1_555 1_555
F28A C47A 1_555 1_555
F29A C47A 1_555 1_555
F30A C47A 1_555 1_555
O12A C22A 1_555 1_555
C48A O12A 1_555 1_555
H23A C48A 1_555 1_555
H24A C48A 1_555 1_555
C49A C48A 1_555 1_555
F31A C49A 1_555 1_555
F32A C49A 1_555 1_555
F33A C49A 1_555 1_555
O13A C23A 1_555 1_555
C50A O13A 1_555 1_555
H25A C50A 1_555 1_555
H26A C50A 1_555 1_555
C51A C50A 1_555 1_555
F34A C51A 1_555 1_555
F35A C51A 1_555 1_555
F36A C51A 1_555 1_555
N4 B1 1_555 1_555
N6 B1 1_555 1_555
C7 C12 1_555 1_555
C11 C12 1_555 1_555
C13 C18 1_555 1_555
C17 C18 1_555 1_555
C19 C24 1_555 1_555
C23 C24 1_555 1_555
C62 C63 1_555 1_555
N4A B1A 1_555 1_555
N6A B1A 1_555 1_555
C7A C12A 1_555 1_555
C11A C12A 1_555 1_555
C13A C18A 1_555 1_555
C17A C18A 1_555 1_555
C19A C24A 1_555 1_555
C23A C24A 1_555 1_555
C25A C26A 1_555 1_555
C25A C27A 1_555 1_555

#END
