
#######################################################################
#
#                 Cambridge Crystallographic Data Centre
#                                CCDC 
#
#######################################################################
#
# If this CIF has been generated from an entry in the Cambridge 
# Structural Database, then it will include bibliographic, chemical, 
# crystal, experimental, refinement or atomic coordinate data resulting 
# from the CCDC's data processing and validation procedures.
#
#######################################################################

data_WEPMOW
_chemical_formula_moiety         'C78 H40 B2 F36 N12 O14,2(C6 H6)'
_chemical_name_systematic        
'(\m-benzene-1,4-diolato)-(1,2,3,4,8,9,10,11,15,16,17,18-dodecakis(2,2,2-trifluoroethoxy)subphthalocyaninato)-(subphthalocyaninato)-di-boron benzene unknown solvate'
_symmetry_cell_setting           triclinic
_symmetry_space_group_name_H-M   'P -1'
_symmetry_Int_Tables_number      2
_space_group_name_Hall           '-P 1'
loop_
_symmetry_equiv_pos_site_id
_symmetry_equiv_pos_as_xyz
1 x,y,z
2 -x,-y,-z
_cell_length_a                   19.6623(4)
_cell_length_b                   20.9706(4)
_cell_length_c                   24.7757(5)
_cell_angle_alpha                102.049(7)
_cell_angle_beta                 104.415(7)
_cell_angle_gamma                96.623(7)
_cell_volume                     9524.04
_exptl_crystal_colour            pink
_exptl_crystal_description       plate
_cell_formula_units_Z            4
loop_
_atom_site_label
_atom_site_type_symbol
_atom_site_fract_x
_atom_site_fract_y
_atom_site_fract_z
F1 F 0.14294(13) 0.67363(13) 0.00362(10)
F2 F 0.17069(14) 0.57522(12) -0.00733(10)
F3 F 0.60452(13) 0.42035(13) 0.19820(10)
F4 F 0.59491(14) 0.31522(13) 0.18605(12)
F5 F 0.65164(12) 0.36444(12) 0.13799(10)
F6 F 0.11130(13) 0.60790(13) 0.05298(11)
F7 F 0.22462(15) 0.30549(12) 0.33599(11)
F8 F 0.17471(14) 0.22384(11) 0.36159(12)
F9 F 0.12104(14) 0.48153(17) 0.58804(11)
F10 F 0.28821(16) 0.25731(14) 0.39342(16)
F11 F 0.1803(2) 0.86537(16) 0.41581(13)
F12 F 0.1297(3) 0.85394(17) 0.32755(16)
F13 F 0.3626(2) 0.29087(19) 0.17708(18)
F14 F 0.3657(5) 0.2556(5) 0.2528(3)
F15 F 0.4543(3) 0.2587(3) 0.2202(3)
F16 F 0.44599(18) 0.3948(3) 0.50438(14)
F17 F 0.46533(19) 0.32834(17) 0.43442(17)
F18 F 0.0714(3) 0.8133(3) 0.3758(2)
F19 F 0.54295(15) 0.41023(17) 0.48475(12)
F20 F -0.08434(19) 0.7482(3) 0.13250(15)
F21 F -0.13204(16) 0.72446(18) 0.19791(17)
F22 F -0.06762(19) 0.81804(18) 0.2104(2)
F23 F 0.1033(3) 0.3928(2) 0.52238(17)
F24 F 0.05520(18) 0.4691(3) 0.50307(16)
O1 O 0.10381(14) 0.75157(12) 0.11365(10)
O2 O 0.27198(14) 0.37885(13) 0.45431(11)
O3 O 0.35889(14) 0.87992(12) 0.49994(10)
O4 O 0.23118(12) 0.71280(11) 0.11590(9)
O5 O 0.36917(14) 0.40546(13) 0.39719(12)
O6 O 0.42447(15) 0.42400(14) 0.05241(10)
O7 O 0.11639(15) 0.71934(14) 0.30137(11)
O8 O 0.05024(15) 0.76283(14) 0.20449(12)
O9 O 0.43344(12) 0.68514(11) 0.34806(9)
O10 O 0.37771(13) 0.54217(13) 0.08358(10)
O11 O 0.16345(13) 0.45203(12) 0.45618(10)
O12 O 0.47444(14) 0.39762(13) 0.24442(11)
O13 O 0.16668(13) 0.56760(12) 0.41846(10)
O14 O 0.46642(14) 0.35159(13) 0.13072(11)
N1 N 0.48661(18) 0.84968(14) 0.63560(12)
N2 N 0.31172(15) 0.65449(13) 0.27851(11)
N3 N 0.30592(16) 0.97444(16) 0.62143(13)
N4 N 0.47819(15) 0.92124(13) 0.57254(11)
N5 N 0.24043(16) 0.63898(14) 0.34101(11)
N6 N 0.39717(15) 0.58624(13) 0.26833(11)
N7 N 0.49965(15) 1.02903(13) 0.55666(11)
N8 N 0.33956(15) 0.62869(13) 0.18973(11)
N9 N 0.40615(15) 0.50238(14) 0.32045(12)
N10 N 0.38012(16) 0.89358(14) 0.60670(12)
N11 N 0.38825(15) 0.98614(14) 0.56750(11)
N12 N 0.34397(15) 0.59039(14) 0.34464(11)
C1 C 0.28363(18) 0.59863(16) 0.36085(13)
C2 C 0.20187(19) 0.70714(16) 0.16019(14)
C3 C 0.36624(18) 0.53220(17) 0.35145(14)
C4 C 0.30296(18) 0.65894(16) 0.22304(14)
C5 C 0.43387(19) 1.03533(17) 0.55997(13)
C6 C 0.41542(19) 0.73305(17) 0.38675(14)
C7 C 0.23721(19) 0.68637(16) 0.20831(14)
C8 C 0.32449(19) 0.50614(17) 0.38518(14)
C9 C 0.59431(19) 0.95813(17) 0.58169(14)
C10 C 0.37966(19) 0.83133(17) 0.46459(14)
C11 C 0.38241(18) 0.58910(16) 0.21189(13)
C12 C 0.2697(2) 0.43192(18) 0.42954(14)
C13 C 0.21804(19) 0.52881(17) 0.41300(14)
C14 C 0.21733(19) 0.47157(18) 0.43347(14)
C15 C 0.42785(18) 0.49432(17) 0.22304(15)
C16 C 0.5159(2) 0.88349(16) 0.60393(14)
C17 C 0.3731(2) 0.83565(17) 0.40806(14)
H1 H 0.356010 0.872364 0.395901
C18 C 0.4216(2) 0.85948(17) 0.63974(14)
C19 C 0.3319(2) 0.92076(19) 0.63262(15)
C20 C 0.1644(2) 0.62795(19) 0.03164(16)
C21 C 0.40443(19) 0.77729(17) 0.48161(14)
H2 H 0.409428 0.773763 0.519966
C22 C 0.3344(2) 0.8919(2) 0.68199(16)
C23 C 0.3212(3) 0.8762(3) 0.77106(18)
H3 H 0.298008 0.882861 0.800627
C24 C 0.40329(19) 0.50982(18) 0.12486(14)
C25 C 0.5900(2) 0.90257(17) 0.60611(14)
C26 C 0.2069(2) 0.68918(16) 0.25532(14)
C27 C 0.13903(19) 0.73052(17) 0.16042(14)
C28 C 0.40121(19) 1.09434(17) 0.56869(15)
C29 C 0.1611(3) 0.7598(2) 0.35479(16)
H4 H 0.210829 0.768023 0.352676
H5 H 0.160143 0.736756 0.385695
C30 C 0.27213(19) 0.54702(17) 0.39045(14)
C31 C 0.32272(19) 0.44828(18) 0.40460(15)
C32 C 0.25373(19) 0.66338(16) 0.29775(14)
C33 C 0.7192(2) 0.96125(19) 0.59772(16)
H6 H 0.763873 0.979963 0.594421
C34 C 0.39101(19) 0.78772(17) 0.36986(14)
H7 H 0.386776 0.791751 0.331723
C35 C 0.3000(2) 0.9037(2) 0.72477(16)
H8 H 0.263262 0.929576 0.722327
C36 C 0.4206(2) 1.15828(18) 0.56354(16)
H9 H 0.461232 1.169726 0.551026
C37 C 0.1450(2) 0.71417(18) 0.25557(15)
C38 C 0.1099(2) 0.73422(18) 0.20721(16)
C39 C 0.3009(2) 1.1259(2) 0.60305(17)
H10 H 0.261181 1.115458 0.616974
C40 C 0.41574(18) 0.52728(17) 0.27613(14)
C41 C 0.3202(2) 1.1887(2) 0.5970(2)
H11 H 0.292999 1.221720 0.606617
C42 C 0.3891(2) 0.85415(19) 0.68571(15)
C43 C 0.4471(2) 0.41225(18) 0.14845(16)
C44 C 0.40636(18) 0.53220(17) 0.18225(14)
C45 C 0.7151(2) 0.90759(19) 0.62312(17)
H12 H 0.757340 0.891145 0.637253
C46 C 0.42204(19) 0.72809(17) 0.44273(14)
H13 H 0.438624 0.691059 0.454620
C47 C 0.4106(3) 0.8274(2) 0.73364(16)
H14 H 0.448018 0.802285 0.736849
C48 C 0.34092(19) 1.07810(18) 0.58825(15)
C49 C 0.6589(2) 0.98746(17) 0.57732(14)
H15 H 0.661944 1.024387 0.560861
C50 C 0.33715(19) 1.00854(18) 0.59087(15)
C51 C -0.0091(2) 0.7285(2) 0.2148(2)
H16 H -0.002191 0.735496 0.256758
H17 H -0.014600 0.680440 0.197862
C52 C 0.5945(2) 0.36366(19) 0.15842(16)
C53 C 0.5277(2) 0.3535(2) 0.10999(16)
H18 H 0.530262 0.390017 0.090492
H19 H 0.523762 0.311403 0.081500
C54 C 0.42343(19) 0.44857(19) 0.10805(15)
C55 C 0.6514(2) 0.87820(19) 0.62805(16)
H20 H 0.649253 0.842361 0.645881
C56 C -0.0739(3) 0.7535(3) 0.1886(2)
C57 C 0.3762(3) 0.8388(2) 0.77535(18)
H21 H 0.389763 0.821073 0.807930
C58 C 0.44827(19) 0.43298(18) 0.20536(15)
C59 C 0.52154(19) 0.97248(17) 0.56528(13)
C60 C 0.2158(2) 0.32429(18) 0.43094(17)
H22 H 0.170306 0.340282 0.418861
H23 H 0.212318 0.300255 0.460823
C61 C 0.1761(2) 0.4822(2) 0.51554(17)
H24 H 0.182789 0.530989 0.522068
H25 H 0.219682 0.470444 0.538346
C62 C 0.23420(19) 0.65341(17) 0.07719(14)
H26 H 0.245757 0.619434 0.098734
H27 H 0.272531 0.661951 0.058843
C63 C 0.4738(2) 0.3908(2) 0.46103(17)
C64 C 0.4286(4) 0.3620(3) 0.2668(3)
H28 H 0.387259 0.384263 0.268808
H29 H 0.453938 0.360323 0.306268
C65 C 0.1149(2) 0.4583(3) 0.53264(17)
C66 C 0.3788(2) 1.2050(2) 0.57722(19)
H30 H 0.390292 1.248561 0.572994
C67 C 0.2268(2) 0.27784(19) 0.38033(18)
C68 C 0.4442(2) 0.4310(3) 0.4218(2)
H31 H 0.451605 0.477924 0.443208
H32 H 0.468380 0.428663 0.391053
C69 C 0.4033(3) 0.2932(3) 0.2294(3)
C70 C 0.1363(3) 0.8232(2) 0.3681(2)
B1 B 0.3760(2) 0.63345(19) 0.31270(15)
B2 B 0.3993(2) 0.9161(2) 0.55764(16)
C71 C 0.4707(3) 0.5896(3) 0.0530(3)
F25 F 0.4377(10) 0.5532(8) -0.0004(6)
F26 F 0.5042(3) 0.6475(2) 0.0506(2)
F27 F 0.5202(2) 0.5584(2) 0.0786(2)
C72 C 0.4208(2) 0.6036(2) 0.08661(16)
H33 H 0.447111 0.625555 0.127106
H34 H 0.390132 0.633634 0.071080
C73 C 0.3287(4) 0.3390(3) -0.0007(3)
F28 F 0.3095(3) 0.3339(2) 0.04613(18)
F29 F 0.3715(5) 0.2967(5) -0.0097(4)
F30 F 0.2711(3) 0.3240(3) -0.0465(3)
C74 C 0.3587(3) 0.4045(3) 0.0108(2)
H35 H 0.325038 0.431800 0.023460
H36 H 0.364569 0.414245 -0.025317
C75 C 0.0517(4) 0.5862(4) 0.3862(3)
F31 F -0.0080(6) 0.5738(5) 0.3430(6)
F32 F 0.0339(3) 0.5716(3) 0.4302(3)
F33 F 0.0731(7) 0.6510(4) 0.4005(5)
C76 C 0.1079(4) 0.5498(4) 0.3698(4)
H37 H 0.090798 0.501324 0.359015
H38 H 0.120498 0.562916 0.336905
C77 C 0.0777(4) 0.8367(3) 0.0679(3)
F34 F 0.0079(2) 0.8192(2) 0.0571(2)
F35 F 0.0908(4) 0.9021(3) 0.0734(5)
F36 F 0.0926(4) 0.8070(3) 0.0204(2)
C78 C 0.1135(3) 0.8218(2) 0.1224(2)
H39 H 0.165009 0.840731 0.134179
H40 H 0.092633 0.841331 0.153122
F52 F -0.35813(14) 0.53769(12) 0.42483(10)
F53 F 0.06259(15) 0.56082(12) 0.18124(12)
F54 F -0.31481(14) 0.62730(12) 0.40794(12)
F55 F 0.02764(17) 0.47320(15) 0.20700(11)
F56 F -0.0615(5) 0.0469(5) 0.5324(4)
F57 F -0.04806(15) 0.51858(14) 0.15730(15)
F58 F 0.08258(19) 0.21541(17) 0.46644(17)
F59 F -0.42484(13) 0.58435(15) 0.36686(12)
F60 F 0.21916(16) 0.15322(17) 0.25764(12)
F61 F 0.1522(3) 0.4112(2) -0.0204(2)
F62 F -0.0853(3) -0.0078(2) 0.4543(3)
F63 F -0.09030(17) 0.71209(16) 0.33360(17)
F64 F -0.1324(3) 0.6451(2) 0.37693(17)
F65 F -0.19980(18) 0.70284(16) 0.33417(16)
F66 F 0.0483(3) 0.3846(2) -0.08678(15)
F67 F 0.1851(2) 0.1892(3) 0.4921(2)
F68 F -0.1683(2) -0.0013(3) 0.4960(2)
F69 F 0.23000(19) 0.1788(4) 0.18133(18)
F70 F 0.1004(2) 0.1479(2) 0.52101(16)
F71 F 0.0629(2) 0.45369(17) -0.00888(14)
F72 F 0.1646(3) 0.0897(2) 0.17518(19)
F73 F -0.3115(2) 0.5163(3) 0.13258(19)
F74 F -0.2794(2) 0.4983(3) 0.05473(17)
F75 F -0.2222(3) 0.5791(2) 0.1242(2)
O15 O 0.09432(15) 0.36202(14) 0.05547(12)
O16 O -0.07373(16) 0.12522(16) 0.45580(12)
O17 O -0.17634(14) 0.18966(12) 0.40004(10)
O18 O -0.27140(14) 0.51624(13) 0.35396(10)
O19 O -0.22855(15) 0.57140(13) 0.27531(13)
O20 O -0.02193(13) 0.39994(12) 0.09226(10)
O21 O -0.22465(12) 0.18046(11) 0.14364(9)
O22 O 0.08700(14) 0.17787(14) 0.14186(11)
O23 O -0.17655(14) 0.49807(13) 0.19297(11)
O24 O 0.03149(17) 0.09897(16) 0.30047(14)
O25 O -0.26393(13) 0.38975(12) 0.35690(10)
O26 O 0.02509(17) 0.07988(17) 0.40705(14)
O27 O 0.14777(16) 0.25556(17) 0.08013(14)
O28 O -0.36779(14) 0.24501(12) -0.05489(10)
N13 N -0.13979(15) 0.20312(14) 0.23654(12)
N14 N -0.19943(14) 0.26382(14) 0.29651(11)
N15 N -0.03800(16) 0.17566(15) 0.20693(12)
N16 N -0.13096(14) 0.35650(14) 0.15981(11)
N17 N -0.18897(14) 0.29349(14) 0.21077(11)
N18 N -0.39645(16) 0.21809(14) -0.21132(11)
N19 N -0.5605(2) 0.1784(3) -0.11175(16)
N20 N -0.4524(2) 0.13587(19) -0.08977(14)
N21 N -0.36823(19) 0.15717(15) -0.14020(12)
N22 N -0.3765(3) 0.05879(19) -0.10809(17)
N23 N -0.10534(14) 0.25060(14) 0.16741(11)
N24 N -0.46255(17) 0.21685(17) -0.14314(12)
C86 C -0.12165(18) 0.17909(17) 0.32243(14)
C87 C -0.03071(17) 0.30412(17) 0.13005(14)
C88 C -0.22415(19) 0.50545(18) 0.27246(16)
C89 C 0.00471(18) 0.34549(18) 0.10409(14)
C90 C -0.04925(19) 0.21719(17) 0.17170(14)
C91 C -0.12376(19) 0.16912(17) 0.37547(14)
C92 C -0.25924(18) 0.19743(16) 0.09381(13)
C93 C -0.24823(18) 0.47731(18) 0.31222(15)
C94 C 0.0890(2) 0.2690(2) 0.09791(17)
C95 C 0.0618(2) 0.32518(19) 0.08564(15)
C96 C -0.3583(2) 0.17704(17) -0.18739(14)
C97 C -0.00293(18) 0.24794(17) 0.14298(14)
C98 C -0.08088(19) 0.17356(17) 0.24152(15)
C99 C -0.20805(17) 0.30501(17) 0.26106(14)
C100 C -0.3312(2) 0.22793(17) -0.00619(14)
C101 C -0.22287(17) 0.37241(17) 0.27025(14)
C102 C -0.20064(17) 0.40088(17) 0.22901(14)
C103 C -0.0744(2) 0.1347(2) 0.40235(16)
C104 C -0.16136(17) 0.21627(17) 0.28532(14)
C105 C 0.0264(2) 0.4617(2) 0.11035(17)
H51 H 0.017743 0.485556 0.079428
H52 H 0.076074 0.453462 0.117660
C106 C -0.3603(2) 0.23252(18) 0.03959(15)
H53 H -0.405174 0.246305 0.036809
C107 C -0.24637(18) 0.41144(17) 0.31244(14)
C108 C -0.09447(18) 0.30738(17) 0.14981(14)
C109 C -0.0217(2) 0.1133(2) 0.37774(17)
C110 C 0.0588(2) 0.23166(19) 0.12934(15)
C111 C -0.17435(17) 0.35000(16) 0.19368(14)
C112 C -0.3594(2) 0.57009(19) 0.38378(17)
C113 C -0.45092(19) 0.23414(18) -0.19107(14)
C114 C -0.3483(3) 0.0983(2) -0.13588(17)
C115 C -0.2661(2) 0.2091(2) -0.00172(15)
H54 H -0.245538 0.207016 -0.032781
C116 C -0.5234(3) 0.1360(3) -0.09075(19)
C117 C -0.3419(2) 0.5307(2) 0.33319(16)
H55 H -0.377115 0.489158 0.315705
H56 H -0.342755 0.556399 0.303799
C118 C -0.20164(19) 0.46739(18) 0.22992(15)
C119 C -0.07111(19) 0.15332(17) 0.29561(15)
C120 C -0.5306(2) 0.2154(3) -0.14073(17)
C121 C -0.5324(2) 0.2873(2) -0.26281(16)
H57 H -0.500893 0.292111 -0.285784
C122 C -0.5632(2) 0.2496(3) -0.18333(17)
C123 C -0.5140(2) 0.2599(2) -0.21516(15)
C124 C -0.2300(2) 0.1930(2) 0.04776(15)
H58 H -0.185337 0.178877 0.050272
C125 C -0.0212(2) 0.1206(2) 0.32356(17)
C126 C -0.32417(19) 0.21700(18) 0.08957(14)
H59 H -0.344415 0.219933 0.120861
C127 C -0.3130(2) 0.13345(19) -0.20917(16)
C128 C -0.2847(2) 0.1298(2) -0.25529(18)
H60 H -0.288979 0.162148 -0.277109
C129 C 0.1235(3) 0.1863(3) 0.20101(19)
H61 H 0.091072 0.167741 0.220864
H62 H 0.140186 0.234034 0.219969
C130 C -0.3077(3) 0.0842(2) -0.17762(19)
C131 C 0.1837(2) 0.1522(3) 0.20407(18)
C132 C -0.1325(3) 0.0892(3) 0.4621(2)
H63 H -0.168935 0.073321 0.424314
H64 H -0.153179 0.117966 0.488483
C133 C -0.4313(4) 0.0765(3) -0.0889(2)
C134 C 0.1167(3) 0.1655(3) 0.4758(2)
C135 C -0.5987(3) 0.3071(3) -0.2751(2)
H65 H -0.612333 0.326523 -0.306639
C136 C 0.0170(2) 0.5032(2) 0.16339(18)
C137 C -0.2550(3) 0.5171(3) 0.1109(2)
C138 C 0.0583(4) 0.3437(3) -0.0052(2)
H66 H 0.005996 0.337632 -0.011539
H67 H 0.070384 0.301534 -0.023665
C139 C -0.1662(3) 0.6141(2) 0.2788(2)
H68 H -0.173643 0.631903 0.244136
H69 H -0.126448 0.588988 0.279769
C140 C 0.0984(3) 0.1093(3) 0.4241(2)
H70 H 0.110015 0.125343 0.392008
H71 H 0.127929 0.075424 0.432285
C141 C -0.2084(2) 0.4722(2) 0.13316(18)
H72 H -0.236930 0.427617 0.125999
H73 H -0.170893 0.468008 0.113034
C142 C -0.6454(3) 0.2991(4) -0.2420(2)
H74 H -0.689658 0.314260 -0.250947
C143 C -0.1472(3) 0.6693(2) 0.3305(2)
C144 C 0.0823(4) 0.3980(3) -0.0302(2)
C145 C -0.6291(3) 0.2697(4) -0.1964(2)
H75 H -0.661880 0.263416 -0.174780
C146 C -0.2726(4) 0.0314(3) -0.1924(2)
H76 H -0.268742 -0.001975 -0.171653
C147 C -0.2496(3) 0.0770(3) -0.2687(2)
H77 H -0.229019 0.073555 -0.299855
C148 C -0.2443(4) 0.0297(3) -0.2372(3)
H78 H -0.219952 -0.005496 -0.247396
C149 C -0.1142(4) 0.0322(3) 0.4851(3)
B3 B -0.4101(3) 0.1919(2) -0.10328(17)
B4 B -0.1687(2) 0.22966(19) 0.18616(16)
C150 C -0.6093(3) 0.0423(3) -0.07567(17)
H79 H -0.647390 0.066542 -0.076704
C151 C -0.6187(3) -0.0225(3) -0.07011(17)
H80 H -0.663117 -0.042529 -0.067331
C152 C -0.5630(3) -0.05793(19) -0.06860(16)
H81 H -0.569366 -0.102209 -0.064795
C153 C -0.4979(3) -0.0286(2) -0.07266(16)
H82 H -0.459889 -0.052819 -0.071633
C154 C -0.4886(2) 0.0362(2) -0.07823(14)
C155 C -0.5443(3) 0.07165(19) -0.07974(15)
C156 C 0.0494(5) -0.0086(5) 0.2769(6)
F76 F 0.0437(9) -0.0642(6) 0.2380(5)
F77 F 0.1213(5) 0.0146(6) 0.2957(5)
F78 F 0.0068(6) -0.0302(4) 0.3065(4)
C157 C 0.0093(4) 0.0411(4) 0.2570(3)
H83 H 0.019000 0.048794 0.221298
H84 H -0.042575 0.025668 0.248889
C158 C 0.2011(5) 0.1992(4) 0.0172(4)
F79 F 0.1777(4) 0.2342(4) -0.0226(3)
F80 F 0.2658(3) 0.2288(5) 0.0504(3)
F81 F 0.2091(5) 0.1386(5) -0.0090(3)
C159 C 0.1463(3) 0.1895(3) 0.0494(2)
H85 H 0.098537 0.169826 0.022575
H86 H 0.159979 0.160924 0.075965
F82 F -0.40537(15) 0.39659(14) 0.36387(14)
F83 F -0.3346(2) 0.37237(17) 0.43388(13)
F84 F -0.4163(2) 0.2964(2) 0.3725(2)
C160 C -0.3191(2) 0.33394(18) 0.34237(16)
H87 H -0.298637 0.294668 0.350103
H88 H -0.345081 0.324019 0.301024
C161 C -0.3689(3) 0.3500(2) 0.3784(2)
F85 F -0.2812(6) 0.2422(12) 0.4339(8)
C162 C -0.2148(5) 0.2596(3) 0.4689(3)
F86 F -0.2093(3) 0.2203(3) 0.50517(18)
C163 C -0.1607(5) 0.2554(6) 0.4356(3)
H89 H -0.164207 0.288018 0.411860
H90 H -0.111915 0.264496 0.462108
F87 F -0.2075(3) 0.3223(3) 0.4989(3)
C173 C 0.4571(2) 0.9749(4) 0.2854(2)
H103 H 0.419148 0.985800 0.300960
C174 C 0.4923(4) 0.9244(3) 0.2999(2)
H104 H 0.478342 0.900791 0.325339
C175 C 0.5478(4) 0.9085(2) 0.2772(3)
H105 H 0.571810 0.873994 0.287070
C176 C 0.5681(2) 0.9431(4) 0.2400(3)
H106 H 0.606084 0.932206 0.224423
C177 C 0.5330(3) 0.9936(3) 0.2255(2)
H107 H 0.546892 1.017215 0.200044
C178 C 0.4775(3) 1.0095(2) 0.2482(3)
H108 H 0.453424 1.044013 0.238312
C185 C -0.0468(2) 0.4011(3) 0.3428(2)
H115 H -0.076464 0.432709 0.349785
C186 C -0.0203(2) 0.3966(2) 0.2972(2)
H116 H -0.031814 0.425147 0.272365
C187 C 0.0115(3) 0.3139(3) 0.3680(3)
H117 H 0.022356 0.284934 0.392528
C188 C -0.0312(3) 0.3606(3) 0.3788(2)
H118 H -0.049563 0.364226 0.411115
C189 C 0.0227(3) 0.3520(3) 0.2858(2)
H119 H 0.041583 0.350045 0.253846
C190 C 0.0382(3) 0.3104(3) 0.3207(3)
H120 H 0.067454 0.278727 0.312669
C191 C 0.2092(3) 0.4235(3) 0.2515(2)
H121 H 0.199853 0.414320 0.285182
C192 C 0.2135(3) 0.4962(3) 0.1898(3)
H122 H 0.206948 0.537468 0.181012
C193 C 0.1992(3) 0.4837(3) 0.2377(2)
H123 H 0.182291 0.515733 0.261784
C194 C 0.2367(3) 0.4519(4) 0.1544(3)
H124 H 0.246070 0.461291 0.120841
C195 C 0.2332(3) 0.3776(3) 0.2150(3)
H125 H 0.240039 0.336037 0.222957
C196 C 0.2467(3) 0.3933(4) 0.1674(3)
H126 H 0.263709 0.362111 0.142592
C197 C -0.0941(10) 0.0368(12) 0.0974(7)
H127 H -0.074645 0.047633 0.137962
C198 C -0.0531(6) 0.0130(10) 0.0619(6)
H128 H -0.005682 0.007537 0.078265
C199 C -0.0815(4) -0.0029(9) 0.0025(6)
H129 H -0.053548 -0.019196 -0.021733
C200 C -0.1509(5) 0.0050(12) -0.0214(8)
H130 H -0.170377 -0.005834 -0.062033
C201 C -0.1919(8) 0.0288(11) 0.0140(11)
H131 H -0.239340 0.034262 -0.002336
C202 C -0.1635(11) 0.0447(10) 0.0734(11)
H132 H -0.191476 0.060996 0.097662
C79? C 0.4208(4) 0.6072(4) 0.0252(3)
F37? F 0.4416(12) 0.5565(10) -0.0056(8)
F38? F 0.4625(3) 0.6620(3) 0.0238(3)
F39? F 0.3549(3) 0.6129(3) -0.0028(2)
H41? H 0.470131 0.606185 0.110263
H42? H 0.401182 0.641265 0.104677
C80? C 0.3544(4) 0.3453(4) -0.0355(3)
F40? F 0.3897(3) 0.3794(3) -0.0636(2)
F41? F 0.2916(4) 0.3173(4) -0.0724(3)
F42? F 0.3917(7) 0.2987(6) -0.0229(6)
H43? H 0.348195 0.441825 -0.006726
H44? H 0.321380 0.395154 0.029951
C81? C 0.0946(7) 0.8473(8) 0.0702(5)
F43? F 0.1620(6) 0.8513(6) 0.0681(5)
F44? F 0.0691(13) 0.9036(10) 0.0758(15)
F45? F 0.0538(8) 0.8041(7) 0.0231(6)
H45? H 0.164206 0.840220 0.143123
H46? H 0.084654 0.839011 0.147840
C82? C 0.4099(13) 0.3485(11) 0.2409(11)
H47? H 0.380467 0.370570 0.263585
H48? H 0.380510 0.332233 0.200425
C83? C 0.4328(8) 0.2915(8) 0.2637(7)
F46? F 0.4848(10) 0.2693(10) 0.2438(9)
F47? F 0.4823(7) 0.3124(7) 0.3144(6)
F48? F 0.3785(13) 0.2617(14) 0.2778(10)
C84? C 0.0905(6) 0.5394(6) 0.3946(5)
H49? H 0.068477 0.538511 0.426386
H50? H 0.084552 0.493353 0.371853
C85? C 0.0537(6) 0.5799(6) 0.3571(5)
F49? F 0.0764(4) 0.5758(4) 0.3106(3)
F50? F 0.0605(11) 0.6442(7) 0.3803(7)
F51? F -0.0150(7) 0.5522(7) 0.3371(7)
C164? C 0.0640(6) -0.0021(6) 0.2558(5)
F88? F 0.0385(9) -0.0584(6) 0.2165(6)
F89? F 0.1019(9) -0.0056(7) 0.3089(6)
F90? F 0.0880(5) 0.0251(4) 0.2176(4)
H91? H -0.004418 0.052816 0.219519
H92? H -0.033724 0.015761 0.261561
C165? C 0.1423(8) 0.1785(8) -0.0130(8)
F91? F 0.2087(8) 0.2047(10) -0.0118(9)
F92? F 0.0865(9) 0.1972(9) -0.0449(7)
F93? F 0.1410(9) 0.1166(7) -0.0415(6)
H93? H 0.104835 0.160733 0.052797
H94? H 0.189768 0.174491 0.068735
C166? C -0.1128(12) 0.0385(11) 0.4376(8)
H95? H -0.158444 0.028012 0.406843
H96? H -0.079768 0.009598 0.426118
C167? C -0.1238(8) 0.0332(8) 0.4947(8)
F94? F -0.1883(7) 0.0519(6) 0.4907(4)
F95? F -0.0692(8) 0.0629(8) 0.5423(4)
F96? F -0.1511(9) -0.0318(7) 0.4739(7)
H97? H -0.301152 0.291910 0.333243
H98? H -0.359078 0.335576 0.309577
C168? C -0.3404(9) 0.3425(8) 0.3974(5)
F97? F -0.3657(9) 0.3988(7) 0.4084(8)
F98? F -0.2894(9) 0.3474(9) 0.4461(5)
F99? F -0.3911(11) 0.2948(10) 0.3981(9)
C169? C -0.1674(18) 0.252(2) 0.4206(10)
H99? H -0.213696 0.263496 0.424078
H100? H -0.152915 0.274427 0.392882
F100? F -0.0468(7) 0.2733(7) 0.4746(5)
C170? C -0.1129(9) 0.2781(7) 0.4782(7)
F101? F -0.1267(9) 0.2491(7) 0.5184(5)
F102? F -0.1107(9) 0.3426(6) 0.4985(6)
C171? C -0.1734(9) 0.2096(8) 0.4570(7)
H101? H -0.122849 0.224669 0.479863
H102? H -0.192779 0.171298 0.469470
C172? C -0.2140(12) 0.2644(6) 0.4692(7)
F103? F -0.1883(6) 0.3202(5) 0.4571(5)
F104? F -0.2116(6) 0.2803(6) 0.5250(4)
F105? F -0.2833(15) 0.249(3) 0.440(2)
C179? C 0.4687(7) 0.9980(7) 0.2659(7)
H109? H 0.435638 1.027389 0.268402
C180? C 0.5128(10) 1.0023(6) 0.2303(5)
H110? H 0.509831 1.034700 0.208499
C181? C 0.5611(8) 0.9593(8) 0.2266(5)
H111? H 0.591233 0.962304 0.202323
C182? C 0.5654(7) 0.9120(6) 0.2586(6)
H112? H 0.598443 0.882597 0.256050
C183? C 0.5213(10) 0.9076(6) 0.2941(5)
H113? H 0.524253 0.875285 0.315953
C184? C 0.4730(8) 0.9506(9) 0.2978(5)
H114? H 0.442850 0.947681 0.322130
loop_
_geom_bond_atom_site_label_1
_geom_bond_atom_site_label_2
_geom_bond_site_symmetry_1
_geom_bond_site_symmetry_2
F1 C20 1_555 1_555
F2 C20 1_555 1_555
F3 C52 1_555 1_555
F4 C52 1_555 1_555
F5 C52 1_555 1_555
F6 C20 1_555 1_555
F7 C67 1_555 1_555
F8 C67 1_555 1_555
F9 C65 1_555 1_555
F10 C67 1_555 1_555
F11 C70 1_555 1_555
F12 C70 1_555 1_555
F13 C69 1_555 1_555
F14 C69 1_555 1_555
F15 C69 1_555 1_555
F16 C63 1_555 1_555
F17 C63 1_555 1_555
F18 C70 1_555 1_555
F19 C63 1_555 1_555
F20 C56 1_555 1_555
F21 C56 1_555 1_555
F22 C56 1_555 1_555
F23 C65 1_555 1_555
F24 C65 1_555 1_555
O1 C27 1_555 1_555
O2 C12 1_555 1_555
O3 C10 1_555 1_555
O4 C2 1_555 1_555
O5 C31 1_555 1_555
O6 C54 1_555 1_555
O7 C29 1_555 1_555
O8 C38 1_555 1_555
O9 C6 1_555 1_555
O10 C24 1_555 1_555
O11 C14 1_555 1_555
O12 C58 1_555 1_555
O13 C13 1_555 1_555
O14 C43 1_555 1_555
N1 C16 1_555 1_555
N2 C4 1_555 1_555
N3 C19 1_555 1_555
N4 C16 1_555 1_555
N5 C1 1_555 1_555
N6 C11 1_555 1_555
N7 C5 1_555 1_555
N8 C4 1_555 1_555
N9 C3 1_555 1_555
N10 C18 1_555 1_555
N11 C5 1_555 1_555
N12 C1 1_555 1_555
C1 C30 1_555 1_555
C2 C7 1_555 1_555
C3 N12 1_555 1_555
C4 C7 1_555 1_555
C5 C28 1_555 1_555
C6 C34 1_555 1_555
C7 C26 1_555 1_555
C8 C3 1_555 1_555
C9 C25 1_555 1_555
C10 C17 1_555 1_555
C11 N8 1_555 1_555
C12 C14 1_555 1_555
C13 C14 1_555 1_555
C15 C40 1_555 1_555
C16 C25 1_555 1_555
C17 H1 1_555 1_555
C18 N1 1_555 1_555
C19 N10 1_555 1_555
C20 C62 1_555 1_555
C21 C10 1_555 1_555
H2 C21 1_555 1_555
C22 C19 1_555 1_555
C23 H3 1_555 1_555
C24 C44 1_555 1_555
C25 C55 1_555 1_555
C26 C32 1_555 1_555
C27 C2 1_555 1_555
C28 C36 1_555 1_555
C29 H4 1_555 1_555
H5 C29 1_555 1_555
C30 C8 1_555 1_555
C31 C8 1_555 1_555
C32 N2 1_555 1_555
C33 H6 1_555 1_555
C34 C17 1_555 1_555
H7 C34 1_555 1_555
C35 C22 1_555 1_555
H8 C35 1_555 1_555
C36 H9 1_555 1_555
C37 O7 1_555 1_555
C38 C27 1_555 1_555
C39 H10 1_555 1_555
C40 N6 1_555 1_555
C41 C39 1_555 1_555
H11 C41 1_555 1_555
C42 C18 1_555 1_555
C43 C54 1_555 1_555
C44 C11 1_555 1_555
C45 C33 1_555 1_555
H12 C45 1_555 1_555
C46 C6 1_555 1_555
H13 C46 1_555 1_555
C47 C42 1_555 1_555
H14 C47 1_555 1_555
C48 C28 1_555 1_555
C49 C9 1_555 1_555
H15 C49 1_555 1_555
C50 N3 1_555 1_555
C51 O8 1_555 1_555
H16 C51 1_555 1_555
H17 C51 1_555 1_555
C52 C53 1_555 1_555
C53 O14 1_555 1_555
H18 C53 1_555 1_555
H19 C53 1_555 1_555
C54 C24 1_555 1_555
C55 C45 1_555 1_555
H20 C55 1_555 1_555
C56 C51 1_555 1_555
C57 C23 1_555 1_555
H21 C57 1_555 1_555
C58 C15 1_555 1_555
C59 N4 1_555 1_555
C60 O2 1_555 1_555
H22 C60 1_555 1_555
H23 C60 1_555 1_555
C61 O11 1_555 1_555
H24 C61 1_555 1_555
H25 C61 1_555 1_555
C62 O4 1_555 1_555
H26 C62 1_555 1_555
H27 C62 1_555 1_555
C63 C68 1_555 1_555
C64 O12 1_555 1_555
H28 C64 1_555 1_555
H29 C64 1_555 1_555
C65 C61 1_555 1_555
C66 C36 1_555 1_555
H30 C66 1_555 1_555
C67 C60 1_555 1_555
C68 O5 1_555 1_555
H31 C68 1_555 1_555
H32 C68 1_555 1_555
C69 C64 1_555 1_555
C70 C29 1_555 1_555
B1 O9 1_555 1_555
B2 O3 1_555 1_555
C71 F25 1_555 1_555
F26 C71 1_555 1_555
F27 C71 1_555 1_555
C72 O10 1_555 1_555
H33 C72 1_555 1_555
H34 C72 1_555 1_555
C73 F28 1_555 1_555
F29 C73 1_555 1_555
F30 C73 1_555 1_555
C74 O6 1_555 1_555
H35 C74 1_555 1_555
H36 C74 1_555 1_555
C75 F31 1_555 1_555
F32 C75 1_555 1_555
F33 C75 1_555 1_555
C76 O13 1_555 1_555
H37 C76 1_555 1_555
H38 C76 1_555 1_555
C77 F34 1_555 1_555
F35 C77 1_555 1_555
F36 C77 1_555 1_555
C78 O1 1_555 1_555
H39 C78 1_555 1_555
H40 C78 1_555 1_555
F52 C112 1_555 1_555
F53 C136 1_555 1_555
F54 C112 1_555 1_555
F55 C136 1_555 1_555
F56 C149 1_555 1_555
F57 C136 1_555 1_555
F58 C134 1_555 1_555
F59 C112 1_555 1_555
F60 C131 1_555 1_555
F61 C144 1_555 1_555
F62 C149 1_555 1_555
F63 C143 1_555 1_555
F64 C143 1_555 1_555
F65 C143 1_555 1_555
F66 C144 1_555 1_555
F67 C134 1_555 1_555
F68 C149 1_555 1_555
F69 C131 1_555 1_555
F70 C134 1_555 1_555
F71 C144 1_555 1_555
F72 C131 1_555 1_555
F73 C137 1_555 1_555
F74 C137 1_555 1_555
F75 C137 1_555 1_555
O15 C95 1_555 1_555
O16 C103 1_555 1_555
O17 C91 1_555 1_555
O18 C93 1_555 1_555
O19 C88 1_555 1_555
O20 C89 1_555 1_555
O21 C92 1_555 1_555
O22 C110 1_555 1_555
O23 C118 1_555 1_555
O24 C125 1_555 1_555
O25 C107 1_555 1_555
O26 C109 1_555 1_555
O27 C94 1_555 1_555
O28 C100 1_555 1_555
N13 C98 1_555 1_555
N14 C99 1_555 1_555
N15 C90 1_555 1_555
N16 C108 1_555 1_555
N17 C99 1_555 1_555
N18 C96 1_555 1_555
N19 C116 1_555 1_555
N20 C116 1_555 1_555
N21 C96 1_555 1_555
N22 C114 1_555 1_555
N23 C90 1_555 1_555
N24 C113 1_555 1_555
C86 C91 1_555 1_555
C87 C89 1_555 1_555
C88 C93 1_555 1_555
C89 C95 1_555 1_555
C90 C97 1_555 1_555
C91 C103 1_555 1_555
C92 C124 1_555 1_555
C93 C107 1_555 1_555
C94 C95 1_555 1_555
C96 C127 1_555 1_555
C97 C87 1_555 1_555
C98 N15 1_555 1_555
C99 C101 1_555 1_555
C100 C106 1_555 1_555
C101 C102 1_555 1_555
C102 C111 1_555 1_555
C103 C109 1_555 1_555
C104 N13 1_555 1_555
C105 O20 1_555 1_555
H51 C105 1_555 1_555
H52 C105 1_555 1_555
C106 H53 1_555 1_555
C107 C101 1_555 1_555
C108 N23 1_555 1_555
C109 C125 1_555 1_555
C110 C94 1_555 1_555
C111 N16 1_555 1_555
C112 C117 1_555 1_555
C113 N18 1_555 1_555
C114 N21 1_555 1_555
C115 C100 1_555 1_555
H54 C115 1_555 1_555
C116 C155 1_555 1_555
C117 O18 1_555 1_555
H55 C117 1_555 1_555
H56 C117 1_555 1_555
C118 C88 1_555 1_555
C119 C86 1_555 1_555
C120 N19 1_555 1_555
C121 H57 1_555 1_555
C122 C120 1_555 1_555
C123 C113 1_555 1_555
C124 C115 1_555 1_555
H58 C124 1_555 1_555
C125 C119 1_555 1_555
C126 C92 1_555 1_555
H59 C126 1_555 1_555
C127 C128 1_555 1_555
C128 H60 1_555 1_555
C129 O22 1_555 1_555
H61 C129 1_555 1_555
H62 C129 1_555 1_555
C130 C114 1_555 1_555
C131 C129 1_555 1_555
C132 O16 1_555 1_555
H63 C132 1_555 1_555
H64 C132 1_555 1_555
C133 N20 1_555 1_555
C134 C140 1_555 1_555
C135 C121 1_555 1_555
H65 C135 1_555 1_555
C136 C105 1_555 1_555
C137 C141 1_555 1_555
C138 O15 1_555 1_555
H66 C138 1_555 1_555
H67 C138 1_555 1_555
C139 O19 1_555 1_555
H68 C139 1_555 1_555
H69 C139 1_555 1_555
C140 O26 1_555 1_555
H70 C140 1_555 1_555
H71 C140 1_555 1_555
C141 O23 1_555 1_555
H72 C141 1_555 1_555
H73 C141 1_555 1_555
C142 C135 1_555 1_555
H74 C142 1_555 1_555
C143 C139 1_555 1_555
C144 C138 1_555 1_555
C145 C122 1_555 1_555
H75 C145 1_555 1_555
C146 C130 1_555 1_555
H76 C146 1_555 1_555
C147 C128 1_555 1_555
H77 C147 1_555 1_555
C148 C146 1_555 1_555
H78 C148 1_555 1_555
C149 C132 1_555 1_555
B3 O28 1_555 1_555
B4 O21 1_555 1_555
C150 H79 1_555 1_555
C151 C150 1_555 1_555
H80 C151 1_555 1_555
C152 C151 1_555 1_555
H81 C152 1_555 1_555
C153 C152 1_555 1_555
H82 C153 1_555 1_555
C154 C133 1_555 1_555
C155 C150 1_555 1_555
C156 F76 1_555 1_555
F77 C156 1_555 1_555
F78 C156 1_555 1_555
C157 O24 1_555 1_555
H83 C157 1_555 1_555
H84 C157 1_555 1_555
C158 F79 1_555 1_555
F80 C158 1_555 1_555
F81 C158 1_555 1_555
C159 O27 1_555 1_555
H85 C159 1_555 1_555
H86 C159 1_555 1_555
F82 C161 1_555 1_555
F83 C161 1_555 1_555
F84 C161 1_555 1_555
C160 O25 1_555 1_555
H87 C160 1_555 1_555
H88 C160 1_555 1_555
C161 C160 1_555 1_555
F85 C162 1_555 1_555
C162 F86 1_555 1_555
C163 O17 1_555 1_555
H89 C163 1_555 1_555
H90 C163 1_555 1_555
F87 C162 1_555 1_555
C173 H103 1_555 1_555
C174 C173 1_555 1_555
H104 C174 1_555 1_555
C175 C174 1_555 1_555
H105 C175 1_555 1_555
C176 C175 1_555 1_555
H106 C176 1_555 1_555
C177 C176 1_555 1_555
H107 C177 1_555 1_555
C178 C173 1_555 1_555
H108 C178 1_555 1_555
C185 H115 1_555 1_555
C186 C185 1_555 1_555
H116 C186 1_555 1_555
C187 H117 1_555 1_555
C188 C185 1_555 1_555
H118 C188 1_555 1_555
C189 C186 1_555 1_555
H119 C189 1_555 1_555
C190 C187 1_555 1_555
H120 C190 1_555 1_555
C191 H121 1_555 1_555
C192 H122 1_555 1_555
C193 C191 1_555 1_555
H123 C193 1_555 1_555
C194 C192 1_555 1_555
H124 C194 1_555 1_555
C195 C191 1_555 1_555
H125 C195 1_555 1_555
C196 C194 1_555 1_555
H126 C196 1_555 1_555
C197 H127 1_555 1_555
C198 C197 1_555 1_555
H128 C198 1_555 1_555
C199 C198 1_555 1_555
H129 C199 1_555 1_555
C200 C199 1_555 1_555
H130 C200 1_555 1_555
C201 C200 1_555 1_555
H131 C201 1_555 1_555
C202 C197 1_555 1_555
H132 C202 1_555 1_555
N2 B1 1_555 1_555
N4 B2 1_555 1_555
N5 C32 1_555 1_555
N6 B1 1_555 1_555
N7 C59 1_555 1_555
N9 C40 1_555 1_555
N10 B2 1_555 1_555
N11 C50 1_555 1_555
N11 B2 1_555 1_555
N12 B1 1_555 1_555
C9 C59 1_555 1_555
C12 C31 1_555 1_555
C13 C30 1_555 1_555
C15 C44 1_555 1_555
C21 C46 1_555 1_555
C22 C42 1_555 1_555
C23 C35 1_555 1_555
C26 C37 1_555 1_555
C33 C49 1_555 1_555
C37 C38 1_555 1_555
C39 C48 1_555 1_555
C41 C66 1_555 1_555
C43 C58 1_555 1_555
C47 C57 1_555 1_555
C48 C50 1_555 1_555
C71 C72 1_555 1_555
C73 C74 1_555 1_555
C75 C76 1_555 1_555
C77 C78 1_555 1_555
N13 B4 1_555 1_555
N14 C104 1_555 1_555
N17 C111 1_555 1_555
N17 B4 1_555 1_555
N20 B3 1_555 1_555
N21 B3 1_555 1_555
N22 C133 1_555 1_555
N23 B4 1_555 1_555
N24 C120 1_555 1_555
N24 B3 1_555 1_555
C86 C104 1_555 1_555
C87 C108 1_555 1_555
C97 C110 1_555 1_555
C98 C119 1_555 1_555
C102 C118 1_555 1_555
C106 C126 1_555 1_555
C121 C123 1_555 1_555
C122 C123 1_555 1_555
C127 C130 1_555 1_555
C142 C145 1_555 1_555
C147 C148 1_555 1_555
C153 C154 1_555 1_555
C154 C155 1_555 1_555
C156 C157 1_555 1_555
C158 C159 1_555 1_555
C162 C163 1_555 1_555
C177 C178 1_555 1_555
C187 C188 1_555 1_555
C189 C190 1_555 1_555
C192 C193 1_555 1_555
C195 C196 1_555 1_555
C201 C202 1_555 1_555

#END
