
#######################################################################
#
#                 Cambridge Crystallographic Data Centre
#                                CCDC 
#
#######################################################################
#
# If this CIF has been generated from an entry in the Cambridge 
# Structural Database, then it will include bibliographic, chemical, 
# crystal, experimental, refinement or atomic coordinate data resulting 
# from the CCDC's data processing and validation procedures.
#
#######################################################################

data_WEPNAH
_chemical_formula_moiety         'C21 H14 Cl2 N4 O3'
_chemical_name_systematic        
'3-(1H-Benzotriazol-1-yl)-1-(2,5-dichlorophenyl)-2-oxopropyl nicotinate'
_symmetry_cell_setting           triclinic
_symmetry_space_group_name_H-M   'P -1'
_symmetry_Int_Tables_number      2
_space_group_name_Hall           '-P 1'
loop_
_symmetry_equiv_pos_site_id
_symmetry_equiv_pos_as_xyz
1 x,y,z
2 -x,-y,-z
_cell_length_a                   6.1578(14)
_cell_length_b                   10.779(3)
_cell_length_c                   16.166(4)
_cell_angle_alpha                105.048(4)
_cell_angle_beta                 93.677(4)
_cell_angle_gamma                99.606(4)
_cell_volume                     1015.17
_exptl_crystal_colour            colorless
_exptl_crystal_description       column
_cell_formula_units_Z            2
_exptl_crystal_recrystallization_method 'ethyl acetate'
loop_
_atom_site_label
_atom_site_type_symbol
_atom_site_fract_x
_atom_site_fract_y
_atom_site_fract_z
O1 O 0.8905(4) 0.2352(2) 0.24658(14)
Cl1 Cl 0.6106(3) 0.47650(17) 0.11363(10)
Cl2 Cl 1.2587(3) 0.1190(2) -0.04160(11)
N1 N 1.4109(5) 0.5097(3) 0.38646(18)
N2 N 1.7641(5) 0.5667(3) 0.4236(2)
C1 C 1.4403(6) 0.6340(4) 0.4383(2)
C2 C 1.6657(6) 0.6688(4) 0.4618(2)
C3 C 0.7175(6) 0.0303(4) 0.2560(2)
N3 N 1.6086(5) 0.4711(3) 0.3784(2)
C4 C 1.1013(6) 0.4497(4) 0.2703(2)
O2 O 1.1666(5) 0.5475(3) 0.24977(17)
C5 C 0.9125(6) 0.3234(4) 0.1236(2)
C6 C 0.7794(10) -0.1966(5) 0.2866(3)
H1 H 0.7990 -0.2753 0.2967
C7 C 0.7904(8) 0.3770(5) 0.0712(3)
C8 C 1.7582(6) 0.7927(4) 0.5172(2)
H2 H 1.9101 0.8174 0.5336
C9 C 1.2959(7) 0.7177(5) 0.4658(3)
H3 H 1.1443 0.6942 0.4486
C10 C 0.5333(7) -0.0654(4) 0.2516(3)
H4 H 0.3915 -0.0522 0.2379
N4 N 0.9578(7) -0.1078(4) 0.2909(2)
C11 C 0.5657(9) -0.1811(5) 0.2682(3)
H5 H 0.4458 -0.2469 0.2670
C12 C 1.0755(9) 0.2178(5) 0.0009(3)
C13 C 1.3919(7) 0.8383(5) 0.5204(3)
H6 H 1.3016 0.8979 0.5411
C14 C 0.9534(12) 0.2716(7) -0.0505(4)
H7 H 0.9687 0.2548 -0.1090
C15 C 0.8106(11) 0.3492(7) -0.0156(4)
H8 H 0.7263 0.3836 -0.0507
C16 C 1.0561(7) 0.2445(4) 0.0877(3)
H9 H 1.1402 0.2092 0.1223
C17 C 0.9243(7) 0.0037(4) 0.2758(2)
H10 H 1.0479 0.0681 0.2788
C18 C 1.6196(7) 0.8742(4) 0.5458(3)
H11 H 1.6767 0.9564 0.5833
O3 O 0.5208(4) 0.1812(3) 0.2146(2)
C19 C 0.8988(6) 0.3525(3) 0.2195(2)
H12 H 0.7650 0.3883 0.2332
C20 C 0.6919(6) 0.1538(4) 0.2366(2)
C21 C 1.2104(6) 0.4175(4) 0.3458(2)
H13 H 1.1063 0.4152 0.3882
H14 H 1.2455 0.3308 0.3266
loop_
_geom_bond_atom_site_label_1
_geom_bond_atom_site_label_2
_geom_bond_site_symmetry_1
_geom_bond_site_symmetry_2
O1 C19 1_555 1_555
Cl1 C7 1_555 1_555
Cl2 C12 1_555 1_555
N1 C1 1_555 1_555
N2 C2 1_555 1_555
C1 C2 1_555 1_555
C2 C8 1_555 1_555
C3 C10 1_555 1_555
N3 N1 1_555 1_555
C4 O2 1_555 1_555
C5 C7 1_555 1_555
C6 H1 1_555 1_555
C7 C15 1_555 1_555
C8 H2 1_555 1_555
C9 C1 1_555 1_555
H3 C9 1_555 1_555
C10 H4 1_555 1_555
N4 C6 1_555 1_555
C11 C6 1_555 1_555
H5 C11 1_555 1_555
C12 C14 1_555 1_555
C13 C9 1_555 1_555
H6 C13 1_555 1_555
C14 H7 1_555 1_555
C15 C14 1_555 1_555
H8 C15 1_555 1_555
C16 C5 1_555 1_555
H9 C16 1_555 1_555
C17 C3 1_555 1_555
H10 C17 1_555 1_555
C18 C8 1_555 1_555
H11 C18 1_555 1_555
O3 C20 1_555 1_555
C19 C4 1_555 1_555
H12 C19 1_555 1_555
C20 O1 1_555 1_555
C21 N1 1_555 1_555
H13 C21 1_555 1_555
H14 C21 1_555 1_555
N2 N3 1_555 1_555
C3 C20 1_555 1_555
C4 C21 1_555 1_555
C5 C19 1_555 1_555
C10 C11 1_555 1_555
N4 C17 1_555 1_555
C12 C16 1_555 1_555
C13 C18 1_555 1_555

#END
