
#######################################################################
#
#                 Cambridge Crystallographic Data Centre
#                                CCDC 
#
#######################################################################
#
# If this CIF has been generated from an entry in the Cambridge 
# Structural Database, then it will include bibliographic, chemical, 
# crystal, experimental, refinement or atomic coordinate data resulting 
# from the CCDC's data processing and validation procedures.
#
#######################################################################

data_WEPQIS
_chemical_formula_moiety         'C1 H6 N1 1+,C15 H9 O7 S1 1-,2(H2 O1)'
_chemical_name_systematic        
"Methylaminium 4',7-dihydroxyisoflavone-3'-sulfonate dihydrate"
_symmetry_cell_setting           monoclinic
_symmetry_space_group_name_H-M   'P 21/c'
_symmetry_Int_Tables_number      14
_space_group_name_Hall           '-P 2ybc'
loop_
_symmetry_equiv_pos_site_id
_symmetry_equiv_pos_as_xyz
1 x,y,z
2 -x,1/2+y,1/2-z
3 -x,-y,-z
4 x,1/2-y,1/2+z
_cell_length_a                   17.852(13)
_cell_length_b                   7.365(5)
_cell_length_c                   13.558(10)
_cell_angle_alpha                90
_cell_angle_beta                 96.194(11)
_cell_angle_gamma                90
_cell_volume                     1772.2
_exptl_crystal_colour            colorless
_exptl_crystal_description       rhomboid
_chemical_melting_point          585K(dec.)
_cell_formula_units_Z            4
loop_
_atom_site_label
_atom_site_type_symbol
_atom_site_fract_x
_atom_site_fract_y
_atom_site_fract_z
N1 N 0.07471(13) 0.8347(3) 0.73074(19)
H1 H 0.0435 0.8639 0.7752
H2 H 0.0597 0.7310 0.7011
H3 H 0.0744 0.9224 0.6856
C16 C 0.15183(18) 0.8126(5) 0.7811(3)
H13 H 0.1664 0.9211 0.8175
H14 H 0.1862 0.7909 0.7326
H15 H 0.1530 0.7115 0.8259
O1 O 0.50035(10) 0.5072(3) 0.73346(14)
O2 O 0.35356(10) 0.1822(3) 0.56181(14)
O3 O 0.70137(11) 0.3641(3) 0.55071(18)
H4 H 0.7111 0.3067 0.5019
O4 O 0.08814(10) 0.2597(3) 0.82469(14)
H5 H 0.0919 0.2413 0.8847
O5 O 0.10915(10) 0.3877(3) 0.51389(13)
O6 O 0.04810(11) 0.1607(3) 0.60596(16)
O7 O 0.03388(10) 0.4770(3) 0.64280(14)
S1 S 0.08258(4) 0.33863(9) 0.60804(5)
C1 C 0.42731(15) 0.4882(4) 0.7506(2)
H6 H 0.4118 0.5522 0.8039
C2 C 0.37561(14) 0.3865(3) 0.69826(18)
C3 C 0.39663(14) 0.2856(3) 0.61197(19)
C4 C 0.47498(14) 0.3128(3) 0.59102(19)
C5 C 0.50372(15) 0.2275(4) 0.5111(2)
H7 H 0.4717 0.1586 0.4672
C6 C 0.57858(15) 0.2435(4) 0.4960(2)
H8 H 0.5967 0.1861 0.4423
C7 C 0.62692(15) 0.3462(4) 0.5616(2)
C8 C 0.60027(15) 0.4337(4) 0.6409(2)
H9 H 0.6325 0.5022 0.6847
C9 C 0.52411(14) 0.4174(4) 0.6540(2)
C10 C 0.29904(14) 0.3641(3) 0.73129(18)
C11 C 0.23411(14) 0.3643(3) 0.66400(18)
H10 H 0.2380 0.3860 0.5972
C12 C 0.16367(13) 0.3324(3) 0.69543(18)
C13 C 0.15725(14) 0.2993(4) 0.79646(19)
C14 C 0.22148(15) 0.3035(4) 0.8637(2)
H11 H 0.2176 0.2847 0.9308
C15 C 0.29119(15) 0.3356(4) 0.83161(19)
H12 H 0.3337 0.3382 0.8777
O8 O 0.10240(13) 0.8005(3) 0.51358(19)
H16 H 0.0974 0.6887 0.5029
H17 H 0.0711 0.8567 0.4774
O9 O 0.25290(12) 0.8792(3) 0.57526(18)
H18 H 0.2069 0.8842 0.5533
H19 H 0.2717 0.9792 0.5628
loop_
_geom_bond_atom_site_label_1
_geom_bond_atom_site_label_2
_geom_bond_site_symmetry_1
_geom_bond_site_symmetry_2
N1 H1 1_555 1_555
H2 N1 1_555 1_555
H3 N1 1_555 1_555
O1 C1 1_555 1_555
O2 C3 1_555 1_555
O3 H4 1_555 1_555
O4 H5 1_555 1_555
O5 S1 1_555 1_555
O6 S1 1_555 1_555
O7 S1 1_555 1_555
S1 C12 1_555 1_555
C1 H6 1_555 1_555
C2 C1 1_555 1_555
C3 C2 1_555 1_555
C4 C3 1_555 1_555
C5 C4 1_555 1_555
H7 C5 1_555 1_555
C6 C5 1_555 1_555
H8 C6 1_555 1_555
C7 O3 1_555 1_555
C8 C7 1_555 1_555
H9 C8 1_555 1_555
C9 O1 1_555 1_555
C10 C2 1_555 1_555
C11 C10 1_555 1_555
H10 C11 1_555 1_555
C12 C11 1_555 1_555
C13 O4 1_555 1_555
C14 C13 1_555 1_555
H11 C14 1_555 1_555
C15 C10 1_555 1_555
H12 C15 1_555 1_555
C16 N1 1_555 1_555
H13 C16 1_555 1_555
H14 C16 1_555 1_555
H15 C16 1_555 1_555
O8 H16 1_555 1_555
H17 O8 1_555 1_555
O9 H18 1_555 1_555
H19 O9 1_555 1_555
C4 C9 1_555 1_555
C6 C7 1_555 1_555
C8 C9 1_555 1_555
C12 C13 1_555 1_555
C14 C15 1_555 1_555

#END
