
#######################################################################
#
#                 Cambridge Crystallographic Data Centre
#                                CCDC 
#
#######################################################################
#
# If this CIF has been generated from an entry in the Cambridge 
# Structural Database, then it will include bibliographic, chemical, 
# crystal, experimental, refinement or atomic coordinate data resulting 
# from the CCDC's data processing and validation procedures.
#
#######################################################################

data_WEPRUE
_chemical_formula_moiety         'C42 H46 O4 S4'
_chemical_name_systematic        
"Di-t-butyl 2,11,26,35-tetrathia(3.3)(2,6)benzeno(3,3')biphenylo(3.3)(5,5')(2,6)benzen-ophane-9,33-dicarboxylate"
_symmetry_cell_setting           triclinic
_symmetry_space_group_name_H-M   'P -1'
_symmetry_Int_Tables_number      2
_space_group_name_Hall           '-P 1'
loop_
_symmetry_equiv_pos_site_id
_symmetry_equiv_pos_as_xyz
1 x,y,z
2 -x,-y,-z
_cell_length_a                   11.339(1)
_cell_length_b                   13.352(1)
_cell_length_c                   14.359(1)
_cell_angle_alpha                62.64(1)
_cell_angle_beta                 89.22(1)
_cell_angle_gamma                88.29(1)
_cell_volume                     1929.89
_exptl_crystal_colour            colorless
_chemical_melting_point          'above 112deg.C(dec.)'
_cell_formula_units_Z            2
loop_
_atom_site_label
_atom_site_type_symbol
_atom_site_fract_x
_atom_site_fract_y
_atom_site_fract_z
C1 C -0.0309(4) 0.1705(3) 0.0695(3)
S1 S -0.0388(1) 0.3194(1) 0.0316(1)
C2 C 0.1041(4) 0.3683(4) -0.0248(3)
C3 C 0.2048(4) 0.3604(3) 0.0474(3)
C4 C 0.1818(5) 0.3801(4) 0.1323(4)
C5 C 0.2733(5) 0.3884(4) 0.1898(4)
C6 C 0.3885(5) 0.3793(4) 0.1635(4)
C7 C 0.4149(4) 0.3566(3) 0.0799(3)
C8 C 0.3214(4) 0.3443(3) 0.0239(3)
C9 C 0.5434(4) 0.3434(3) 0.0565(3)
S2 S 0.5949(1) 0.1984(1) 0.1041(1)
C10 C 0.5863(4) 0.1462(4) 0.2452(3)
C11 C 0.5005(3) 0.0527(3) 0.2997(3)
C12 C 0.5374(3) -0.0504(3) 0.3803(3)
C13 C 0.4587(3) -0.1339(3) 0.4344(3)
C14 C 0.3414(3) -0.1149(3) 0.4063(3)
C15 C 0.3012(3) -0.0121(3) 0.3262(3)
C16 C 0.3824(3) 0.0704(3) 0.2737(3)
C17 C 0.1731(3) 0.0084(3) 0.3004(3)
C18 C 0.0911(3) -0.0410(3) 0.3807(3)
C19 C -0.0293(3) -0.0244(3) 0.3615(3)
C20 C -0.0670(3) 0.0426(3) 0.2597(3)
C21 C 0.0126(3) 0.0947(3) 0.1785(3)
C22 C 0.1333(3) 0.0764(3) 0.1996(3)
C23 C 0.4984(4) -0.2470(3) 0.5245(4)
S3 S 0.4688(1) -0.3635(1) 0.4985(1)
C24 C 0.3785(3) -0.4513(3) 0.6098(3)
C25 C 0.2630(3) -0.3991(3) 0.6197(3)
C26 C 0.2456(4) -0.3740(4) 0.7019(3)
C27 C 0.1407(4) -0.3244(4) 0.7122(3)
C28 C 0.0515(4) -0.2979(4) 0.6391(3)
C29 C 0.0656(3) -0.3195(3) 0.5540(3)
C30 C 0.1721(3) -0.3721(3) 0.5460(3)
C31 C -0.0285(3) -0.2899(3) 0.4709(3)
S4 S -0.1622(1) -0.2187(1) 0.4795(1)
C32 C -0.1124(3) -0.0802(4) 0.4532(3)
C33 C 0.3509(4) 0.3158(3) -0.0642(3)
O1 O 0.4098(3) 0.3737(3) -0.1382(2)
O2 O 0.3036(2) 0.2192(2) -0.0468(2)
C34 C 0.3171(5) 0.1720(4) -0.1228(4)
C35 C 0.4445(5) 0.1499(6) -0.1349(6)
C36 C 0.2576(7) 0.2485(6) -0.2229(4)
C37 C 0.2550(6) 0.0610(5) -0.0668(5)
C38 C 0.1876(3) -0.4064(3) 0.4605(3)
O3 O 0.2000(3) -0.5027(2) 0.4785(2)
O4 O 0.1852(2) -0.3176(2) 0.3662(2)
C39 C 0.1950(4) -0.3326(4) 0.2705(3)
C40 C 0.3136(4) -0.3857(5) 0.2687(4)
C41 C 0.0931(4) -0.4005(5) 0.2656(4)
C42 C 0.1868(6) -0.2114(5) 0.1859(4)
H1 H 0.0212 0.1599 0.0213
H2 H -0.1077 0.1469 0.0616
H3 H 0.0943 0.4465 -0.0747
H4 H 0.1283 0.3282 -0.0631
H5 H 0.1016 0.3886 0.1504
H6 H 0.2572 0.4014 0.2493
H7 H 0.4516 0.3873 0.2032
H8 H 0.5907 0.3790 0.0871
H9 H 0.5547 0.3822 -0.0181
H10 H 0.5628 0.2079 0.2589
H11 H 0.6633 0.1200 0.2751
H12 H 0.6194 -0.0637 0.3991
H13 H 0.2864 -0.1737 0.4423
H14 H 0.3559 0.1416 0.2183
H15 H 0.1186 -0.0873 0.4510
H16 H -0.1501 0.0540 0.2452
H17 H 0.1891 0.1108 0.1437
H18 H 0.4570 -0.2573 0.5870
H19 H 0.5813 -0.2460 0.5365
H20 H 0.4233 -0.4718 0.6725
H21 H 0.3628 -0.5194 0.6057
H22 H 0.3070 -0.3923 0.7530
H23 H 0.1304 -0.3072 0.7698
H24 H -0.0213 -0.2642 0.6472
H25 H -0.0502 -0.3585 0.4703
H26 H 0.0068 -0.2433 0.4041
H27 H -0.1804 -0.0313 0.4412
H28 H -0.0732 -0.0869 0.5147
H29 H 0.4832 0.2206 -0.1718
H30 H 0.4787 0.1083 -0.0665
H31 H 0.4541 0.1072 -0.1731
H32 H 0.3002 0.3173 -0.2563
H33 H 0.2545 0.2145 -0.2689
H34 H 0.1789 0.2648 -0.2074
H35 H 0.2979 0.0137 -0.0039
H36 H 0.1762 0.0746 -0.0491
H37 H 0.2519 0.0244 -0.1106
H38 H 0.3154 -0.4623 0.3231
H39 H 0.3270 -0.3846 0.2021
H40 H 0.3740 -0.3446 0.2814
H41 H 0.1017 -0.4767 0.3201
H42 H 0.0203 -0.3678 0.2752
H43 H 0.0925 -0.4002 0.1987
H44 H 0.2529 -0.1711 0.1913
H45 H 0.1871 -0.2093 0.1181
H46 H 0.1149 -0.1769 0.1947
loop_
_geom_bond_atom_site_label_1
_geom_bond_atom_site_label_2
_geom_bond_site_symmetry_1
_geom_bond_site_symmetry_2
C1 S1 1_555 1_555
S1 C2 1_555 1_555
C2 C3 1_555 1_555
C3 C4 1_555 1_555
C4 C5 1_555 1_555
C5 C6 1_555 1_555
C6 C7 1_555 1_555
C7 C8 1_555 1_555
C8 C3 1_555 1_555
C9 C7 1_555 1_555
S2 C9 1_555 1_555
C10 S2 1_555 1_555
C11 C10 1_555 1_555
C12 C11 1_555 1_555
C13 C12 1_555 1_555
C14 C13 1_555 1_555
C15 C14 1_555 1_555
C16 C11 1_555 1_555
C17 C15 1_555 1_555
C18 C17 1_555 1_555
C19 C18 1_555 1_555
C20 C19 1_555 1_555
C21 C1 1_555 1_555
C22 C17 1_555 1_555
C23 C13 1_555 1_555
S3 C23 1_555 1_555
C24 S3 1_555 1_555
C25 C24 1_555 1_555
C26 C25 1_555 1_555
C27 C26 1_555 1_555
C28 C27 1_555 1_555
C29 C28 1_555 1_555
C30 C25 1_555 1_555
C31 C29 1_555 1_555
S4 C31 1_555 1_555
C32 C19 1_555 1_555
C33 C8 1_555 1_555
O1 C33 1_555 1_555
O2 C33 1_555 1_555
C34 O2 1_555 1_555
C35 C34 1_555 1_555
C36 C34 1_555 1_555
C37 C34 1_555 1_555
C38 C30 1_555 1_555
O3 C38 1_555 1_555
O4 C38 1_555 1_555
C39 O4 1_555 1_555
C40 C39 1_555 1_555
C41 C39 1_555 1_555
C42 C39 1_555 1_555
H1 C1 1_555 1_555
H2 C1 1_555 1_555
H3 C2 1_555 1_555
H4 C2 1_555 1_555
H5 C4 1_555 1_555
H6 C5 1_555 1_555
H7 C6 1_555 1_555
H8 C9 1_555 1_555
H9 C9 1_555 1_555
H10 C10 1_555 1_555
H11 C10 1_555 1_555
H12 C12 1_555 1_555
H13 C14 1_555 1_555
H14 C16 1_555 1_555
H15 C18 1_555 1_555
H16 C20 1_555 1_555
H17 C22 1_555 1_555
H18 C23 1_555 1_555
H19 C23 1_555 1_555
H20 C24 1_555 1_555
H21 C24 1_555 1_555
H22 C26 1_555 1_555
H23 C27 1_555 1_555
H24 C28 1_555 1_555
H25 C31 1_555 1_555
H26 C31 1_555 1_555
H27 C32 1_555 1_555
H28 C32 1_555 1_555
H29 C35 1_555 1_555
H30 C35 1_555 1_555
H31 C35 1_555 1_555
H32 C36 1_555 1_555
H33 C36 1_555 1_555
H34 C36 1_555 1_555
H35 C37 1_555 1_555
H36 C37 1_555 1_555
H37 C37 1_555 1_555
H38 C40 1_555 1_555
H39 C40 1_555 1_555
H40 C40 1_555 1_555
H41 C41 1_555 1_555
H42 C41 1_555 1_555
H43 C41 1_555 1_555
H44 C42 1_555 1_555
H45 C42 1_555 1_555
H46 C42 1_555 1_555
C15 C16 1_555 1_555
C20 C21 1_555 1_555
C21 C22 1_555 1_555
C29 C30 1_555 1_555
S4 C32 1_555 1_555

#END
