
#######################################################################
#
#                 Cambridge Crystallographic Data Centre
#                                CCDC 
#
#######################################################################
#
# If this CIF has been generated from an entry in the Cambridge 
# Structural Database, then it will include bibliographic, chemical, 
# crystal, experimental, refinement or atomic coordinate data resulting 
# from the CCDC's data processing and validation procedures.
#
#######################################################################

data_WEPSOZ
_chemical_formula_moiety         'C13 H18 S2'
_chemical_name_systematic        9,13-Dimethyl-2,6-dithia(7)metacyclophane
_symmetry_cell_setting           monoclinic
_symmetry_space_group_name_H-M   'P 21/c'
_symmetry_Int_Tables_number      14
_space_group_name_Hall           '-P 2ybc'
loop_
_symmetry_equiv_pos_site_id
_symmetry_equiv_pos_as_xyz
1 x,y,z
2 -x,1/2+y,1/2-z
3 -x,-y,-z
4 x,1/2-y,1/2+z
_cell_length_a                   11.617(1)
_cell_length_b                   11.518(1)
_cell_length_c                   9.502(1)
_cell_angle_alpha                90
_cell_angle_beta                 102.68(1)
_cell_angle_gamma                90
_cell_volume                     1240.4
_exptl_crystal_colour            colorless
_chemical_melting_point          94deg.C
_cell_formula_units_Z            4
loop_
_atom_site_label
_atom_site_type_symbol
_atom_site_fract_x
_atom_site_fract_y
_atom_site_fract_z
S1 S 0.4023(1) 0.3875(1) 0.6361(2)
C1 C 0.4101(4) 0.5461(3) 0.6430(5)
C2 C 0.2956(3) 0.5953(3) 0.6678(4)
C3 C 0.1960(4) 0.6007(3) 0.5528(4)
C4 C 0.0870(4) 0.6197(3) 0.5842(5)
C5 C 0.0740(3) 0.6181(3) 0.7230(6)
C6 C 0.1708(3) 0.6116(3) 0.8376(4)
C7 C 0.2849(3) 0.6143(3) 0.8090(4)
C8 C 0.1545(4) 0.5841(3) 0.9861(5)
S2 S 0.2139(1) 0.4415(1) 1.0481(1)
C9 C 0.1605(3) 0.3407(3) 0.9019(4)
C10 C 0.2097(3) 0.3456(3) 0.7653(4)
C11 C 0.3430(3) 0.3473(3) 0.7901(4)
C12 C 0.2069(6) 0.5801(4) 0.3983(5)
C13 C 0.3897(3) 0.6325(3) 0.9328(4)
H1 H 0.4264 0.5758 0.5550
H2 H 0.4729 0.5694 0.7214
H3 H 0.0202 0.6334 0.5063
H4 H -0.0040 0.6218 0.7411
H5 H 0.0717 0.5859 0.9854
H6 H 0.1929 0.6426 1.0518
H7 H 0.0765 0.3503 0.8737
H8 H 0.1748 0.2636 0.9402
H9 H 0.1806 0.4149 0.7135
H10 H 0.1807 0.2805 0.7046
H11 H 0.3726 0.4006 0.8672
H12 H 0.3715 0.2713 0.8215
H13 H 0.1303 0.5870 0.3355
H14 H 0.2592 0.6364 0.3716
H15 H 0.2373 0.5035 0.3900
H16 H 0.4610 0.6310 0.8973
H17 H 0.3825 0.7064 0.9769
H18 H 0.3923 0.5720 1.0030
loop_
_geom_bond_atom_site_label_1
_geom_bond_atom_site_label_2
_geom_bond_site_symmetry_1
_geom_bond_site_symmetry_2
S1 C1 1_555 1_555
C1 C2 1_555 1_555
C2 C3 1_555 1_555
C3 C4 1_555 1_555
C4 C5 1_555 1_555
C5 C6 1_555 1_555
C6 C7 1_555 1_555
C7 C2 1_555 1_555
C8 C6 1_555 1_555
S2 C8 1_555 1_555
C9 S2 1_555 1_555
C10 C9 1_555 1_555
C11 S1 1_555 1_555
C12 C3 1_555 1_555
C13 C7 1_555 1_555
H1 C1 1_555 1_555
H2 C1 1_555 1_555
H3 C4 1_555 1_555
H4 C5 1_555 1_555
H5 C8 1_555 1_555
H6 C8 1_555 1_555
H7 C9 1_555 1_555
H8 C9 1_555 1_555
H9 C10 1_555 1_555
H10 C10 1_555 1_555
H11 C11 1_555 1_555
H12 C11 1_555 1_555
H13 C12 1_555 1_555
H14 C12 1_555 1_555
H15 C12 1_555 1_555
H16 C13 1_555 1_555
H17 C13 1_555 1_555
H18 C13 1_555 1_555
C10 C11 1_555 1_555

#END
