
#######################################################################
#
#                 Cambridge Crystallographic Data Centre
#                                CCDC 
#
#######################################################################
#
# If this CIF has been generated from an entry in the Cambridge 
# Structural Database, then it will include bibliographic, chemical, 
# crystal, experimental, refinement or atomic coordinate data resulting 
# from the CCDC's data processing and validation procedures.
#
#######################################################################

data_WEPSEP
_chemical_formula_moiety         'C25 H32 O2 S2'
_chemical_name_systematic        
't-Butyl 6-t-butyl-2,11-dithia(3.3)metacyclophane-9-carboxylate'
_symmetry_cell_setting           triclinic
_symmetry_space_group_name_H-M   'P -1'
_symmetry_Int_Tables_number      2
_space_group_name_Hall           '-P 1'
loop_
_symmetry_equiv_pos_site_id
_symmetry_equiv_pos_as_xyz
1 x,y,z
2 -x,-y,-z
_cell_length_a                   8.845(1)
_cell_length_b                   11.077(1)
_cell_length_c                   13.357(1)
_cell_angle_alpha                66.89(1)
_cell_angle_beta                 74.79(1)
_cell_angle_gamma                84.55(1)
_cell_volume                     1161.44
_exptl_crystal_colour            colorless
_chemical_melting_point          157deg.C
_cell_formula_units_Z            2
loop_
_atom_site_label
_atom_site_type_symbol
_atom_site_fract_x
_atom_site_fract_y
_atom_site_fract_z
C1 C 0.4328(3) 0.4858(3) 0.3626(2)
S1 S 0.4096(1) 0.6233(1) 0.2389(1)
C2 C 0.4692(2) 0.5567(2) 0.1310(2)
C3 C 0.3699(2) 0.4430(2) 0.1489(2)
C4 C 0.4374(2) 0.3206(2) 0.1726(2)
C5 C 0.3524(2) 0.2080(2) 0.1987(2)
C6 C 0.1938(2) 0.2235(2) 0.2050(2)
C7 C 0.1196(2) 0.3443(2) 0.1842(2)
C8 C 0.2095(2) 0.4566(2) 0.1505(2)
C9 C -0.0574(2) 0.3470(2) 0.2012(2)
S2 S -0.1641(1) 0.2521(1) 0.3443(1)
C10 C -0.1135(3) 0.3286(2) 0.4292(2)
C11 C 0.0482(3) 0.2991(2) 0.4493(2)
C12 C 0.0946(3) 0.1723(2) 0.5043(2)
C13 C 0.2454(3) 0.1476(3) 0.5153(2)
C14 C 0.3543(3) 0.2488(3) 0.4697(2)
C15 C 0.3107(3) 0.3761(2) 0.4150(2)
C16 C 0.1572(3) 0.4005(2) 0.4075(2)
C17 C 0.1441(2) 0.5921(2) 0.1122(2)
O1 O 0.1975(2) 0.6744(2) 0.0209(1)
O2 O 0.0228(2) 0.6101(1) 0.1882(1)
C18 C -0.0601(3) 0.7374(2) 0.1663(2)
C19 C -0.1892(3) 0.7067(3) 0.2729(2)
C20 C -0.1290(3) 0.7707(3) 0.0661(2)
C21 C 0.0501(3) 0.8418(3) 0.1525(3)
C22 C 0.4314(3) 0.0747(2) 0.2167(2)
C23 C 0.3337(4) -0.0352(2) 0.3145(3)
C24 C 0.5920(4) 0.0732(3) 0.2410(3)
C25 C 0.4559(4) 0.0477(3) 0.1112(2)
H1 H 0.4348 0.5183 0.4201
H2 H 0.5335 0.4481 0.3451
H3 H 0.5763 0.5292 0.1261
H4 H 0.4643 0.6252 0.0604
H5 H 0.5471 0.3129 0.1706
H6 H 0.1322 0.1473 0.2241
H7 H -0.0835 0.3143 0.1510
H8 H -0.0906 0.4367 0.1813
H9 H -0.1886 0.3010 0.5006
H10 H -0.1222 0.4220 0.3929
H11 H 0.0204 0.1012 0.5351
H12 H 0.2758 0.0597 0.5552
H13 H 0.4604 0.2303 0.4762
H14 H 0.1245 0.4894 0.3739
H15 H -0.2568 0.6402 0.2787
H16 H -0.1446 0.6758 0.3367
H17 H -0.2486 0.7846 0.2706
H18 H -0.1991 0.7015 0.0804
H19 H -0.1854 0.8516 0.0539
H20 H -0.0461 0.7797 0.0006
H21 H 0.0901 0.8164 0.2180
H22 H 0.1353 0.8517 0.0881
H23 H -0.0040 0.9236 0.1414
H24 H 0.2325 -0.0356 0.3008
H25 H 0.3834 -0.1180 0.3214
H26 H 0.3218 -0.0213 0.3827
H27 H 0.6566 0.1420 0.1801
H28 H 0.5792 0.0867 0.3095
H29 H 0.6409 -0.0100 0.2482
H30 H 0.3574 0.0477 0.0937
H31 H 0.5230 0.1148 0.0504
H32 H 0.5045 -0.0363 0.1222
loop_
_geom_bond_atom_site_label_1
_geom_bond_atom_site_label_2
_geom_bond_site_symmetry_1
_geom_bond_site_symmetry_2
C1 S1 1_555 1_555
S1 C2 1_555 1_555
C2 C3 1_555 1_555
C3 C4 1_555 1_555
C4 C5 1_555 1_555
C5 C6 1_555 1_555
C6 C7 1_555 1_555
C7 C8 1_555 1_555
C8 C3 1_555 1_555
C9 C7 1_555 1_555
S2 C9 1_555 1_555
C10 S2 1_555 1_555
C11 C10 1_555 1_555
C12 C11 1_555 1_555
C13 C12 1_555 1_555
C14 C13 1_555 1_555
C15 C1 1_555 1_555
C16 C11 1_555 1_555
C17 C8 1_555 1_555
O1 C17 1_555 1_555
O2 C17 1_555 1_555
C18 O2 1_555 1_555
C19 C18 1_555 1_555
C20 C18 1_555 1_555
C21 C18 1_555 1_555
C22 C5 1_555 1_555
C23 C22 1_555 1_555
C24 C22 1_555 1_555
C25 C22 1_555 1_555
H1 C1 1_555 1_555
H2 C1 1_555 1_555
H3 C2 1_555 1_555
H4 C2 1_555 1_555
H5 C4 1_555 1_555
H6 C6 1_555 1_555
H7 C9 1_555 1_555
H8 C9 1_555 1_555
H9 C10 1_555 1_555
H10 C10 1_555 1_555
H11 C12 1_555 1_555
H12 C13 1_555 1_555
H13 C14 1_555 1_555
H14 C16 1_555 1_555
H15 C19 1_555 1_555
H16 C19 1_555 1_555
H17 C19 1_555 1_555
H18 C20 1_555 1_555
H19 C20 1_555 1_555
H20 C20 1_555 1_555
H21 C21 1_555 1_555
H22 C21 1_555 1_555
H23 C21 1_555 1_555
H24 C23 1_555 1_555
H25 C23 1_555 1_555
H26 C23 1_555 1_555
H27 C24 1_555 1_555
H28 C24 1_555 1_555
H29 C24 1_555 1_555
H30 C25 1_555 1_555
H31 C25 1_555 1_555
H32 C25 1_555 1_555
C14 C15 1_555 1_555
C15 C16 1_555 1_555

#END
