
#######################################################################
#
#                 Cambridge Crystallographic Data Centre
#                                CCDC 
#
#######################################################################
#
# If this CIF has been generated from an entry in the Cambridge 
# Structural Database, then it will include bibliographic, chemical, 
# crystal, experimental, refinement or atomic coordinate data resulting 
# from the CCDC's data processing and validation procedures.
#
#######################################################################

data_WEPSUF
_chemical_formula_moiety         'C18 H21 N1 O2 S2'
_chemical_name_systematic        
6-(p-Tolysulfonyl)-2-thia-6-aza(7)metacyclophane
_symmetry_cell_setting           monoclinic
_symmetry_space_group_name_H-M   'P 21/c'
_symmetry_Int_Tables_number      14
_space_group_name_Hall           '-P 2ybc'
loop_
_symmetry_equiv_pos_site_id
_symmetry_equiv_pos_as_xyz
1 x,y,z
2 -x,1/2+y,1/2-z
3 -x,-y,-z
4 x,1/2-y,1/2+z
_cell_length_a                   21.073(1)
_cell_length_b                   5.769(1)
_cell_length_c                   14.410(1)
_cell_angle_alpha                90
_cell_angle_beta                 100.74(1)
_cell_angle_gamma                90
_cell_volume                     1721.14
_exptl_crystal_colour            yellow
_chemical_melting_point          147-149deg.C
_cell_formula_units_Z            4
loop_
_atom_site_label
_atom_site_type_symbol
_atom_site_fract_x
_atom_site_fract_y
_atom_site_fract_z
S1 S 0.3601(1) 0.6815(3) 0.4124(1)
C1 C 0.4091(2) 0.8117(9) 0.5175(3)
C2 C 0.4179(2) 0.6482(8) 0.5999(3)
C3 C 0.4675(2) 0.4859(9) 0.6171(3)
C4 C 0.4654(2) 0.3068(10) 0.6774(3)
C5 C 0.4102(2) 0.2692(9) 0.7164(3)
C6 C 0.3606(2) 0.4309(8) 0.7014(3)
C7 C 0.3674(2) 0.6252(8) 0.6490(3)
C8 C 0.2947(2) 0.3787(9) 0.7224(3)
N1 N 0.2446(2) 0.4367(7) 0.6398(2)
C9 C 0.2381(2) 0.2945(10) 0.5543(1)
C10 C 0.2883(2) 0.3414(9) 0.4919(3)
C11 C 0.2868(2) 0.5831(9) 0.4508(3)
S2 S 0.1890(1) 0.6179(2) 0.6561(1)
O1 O 0.2193(2) 0.8155(6) 0.7062(3)
O2 O 0.1472(2) 0.6509(8) 0.5663(2)
C12 C 0.1434(2) 0.4819(8) 0.7316(3)
C13 C 0.1367(2) 0.5858(10) 0.8154(3)
C14 C 0.0992(2) 0.4809(10) 0.8723(3)
C15 C 0.0680(2) 0.2736(11) 0.8483(4)
C16 C 0.0758(2) 0.1725(10) 0.7640(4)
C17 C 0.1135(2) 0.2725(9) 0.7056(4)
C18 C 0.0273(3) 0.1632(12) 0.9110(4)
H1 H 0.3881 0.9492 0.5342
H2 H 0.4507 0.8546 0.5050
H3 H 0.5035 0.5018 0.5854
H4 H 0.5020 0.2057 0.6933
H5 H 0.4064 0.1334 0.7534
H6 H 0.3365 0.7486 0.6461
H7 H 0.2878 0.4681 0.7759
H8 H 0.2919 0.2173 0.7374
H9 H 0.1962 0.3237 0.5169
H10 H 0.2399 0.1336 0.5716
H11 H 0.2827 0.2312 0.4411
H12 H 0.3303 0.3170 0.5297
H13 H 0.2518 0.5898 0.3978
H14 H 0.2774 0.6901 0.4974
H15 H 0.1577 0.7310 0.8331
H16 H 0.0947 0.5538 0.9306
H17 H 0.0545 0.0276 0.7467
H18 H 0.1191 0.1979 0.6481
H19 H 0.0100 0.0209 0.8822
H20 H 0.0528 0.1312 0.9720
H21 H -0.0076 0.2652 0.9178
loop_
_geom_bond_atom_site_label_1
_geom_bond_atom_site_label_2
_geom_bond_site_symmetry_1
_geom_bond_site_symmetry_2
S1 C1 1_555 1_555
C1 C2 1_555 1_555
C2 C3 1_555 1_555
C3 C4 1_555 1_555
C4 C5 1_555 1_555
C5 C6 1_555 1_555
C6 C7 1_555 1_555
C7 C2 1_555 1_555
C8 C6 1_555 1_555
N1 C8 1_555 1_555
C9 N1 1_555 1_555
C10 C9 1_555 1_555
C11 S1 1_555 1_555
S2 N1 1_555 1_555
O1 S2 1_555 1_555
O2 S2 1_555 1_555
C12 S2 1_555 1_555
C13 C12 1_555 1_555
C14 C13 1_555 1_555
C15 C14 1_555 1_555
C16 C15 1_555 1_555
C17 C12 1_555 1_555
C18 C15 1_555 1_555
H1 C1 1_555 1_555
H2 C1 1_555 1_555
H3 C3 1_555 1_555
H4 C4 1_555 1_555
H5 C5 1_555 1_555
H6 C7 1_555 1_555
H7 C8 1_555 1_555
H8 C8 1_555 1_555
H9 C9 1_555 1_555
H10 C9 1_555 1_555
H11 C10 1_555 1_555
H12 C10 1_555 1_555
H13 C11 1_555 1_555
H14 C11 1_555 1_555
H15 C13 1_555 1_555
H16 C14 1_555 1_555
H17 C16 1_555 1_555
H18 C17 1_555 1_555
H19 C18 1_555 1_555
H20 C18 1_555 1_555
H21 C18 1_555 1_555
C10 C11 1_555 1_555
C16 C17 1_555 1_555

#END
