
#######################################################################
#
#                 Cambridge Crystallographic Data Centre
#                                CCDC 
#
#######################################################################
#
# If this CIF has been generated from an entry in the Cambridge 
# Structural Database, then it will include bibliographic, chemical, 
# crystal, experimental, refinement or atomic coordinate data resulting 
# from the CCDC's data processing and validation procedures.
#
#######################################################################

data_WEPSIT
_chemical_formula_moiety         'C21 H24 O2 S2,C3 H6 O1'
_chemical_name_systematic        
't-Butyl 2,11-dithia(3.3)metacyclophane-6-carboxylate acetone solvate'
_symmetry_cell_setting           orthorhombic
_symmetry_space_group_name_H-M   'P 21 21 21'
_symmetry_Int_Tables_number      19
_space_group_name_Hall           'P 2ac 2ab'
loop_
_symmetry_equiv_pos_site_id
_symmetry_equiv_pos_as_xyz
1 x,y,z
2 1/2+x,1/2-y,-z
3 -x,1/2+y,1/2-z
4 1/2-x,-y,1/2+z
_cell_length_a                   8.747(1)
_cell_length_b                   15.117(1)
_cell_length_c                   17.484(1)
_cell_angle_alpha                90
_cell_angle_beta                 90
_cell_angle_gamma                90
_cell_volume                     2311.88
_exptl_crystal_colour            colorless
_cell_formula_units_Z            4
loop_
_atom_site_label
_atom_site_type_symbol
_atom_site_fract_x
_atom_site_fract_y
_atom_site_fract_z
C1 C 0.3485(4) 0.4049(2) 0.3278(2)
S1 S 0.1697(1) 0.3824(1) 0.2807(1)
C2 C 0.0832(5) 0.2981(2) 0.3407(2)
C3 C 0.0054(4) 0.3305(2) 0.4123(2)
C4 C -0.1232(5) 0.3841(2) 0.4083(2)
C5 C -0.1929(4) 0.4142(2) 0.4739(2)
C6 C -0.1334(4) 0.3936(2) 0.5447(2)
C7 C -0.0051(4) 0.3410(2) 0.5498(2)
C8 C 0.0594(4) 0.3087(2) 0.4836(2)
C9 C 0.0660(5) 0.3205(2) 0.6263(2)
S2 S 0.1722(1) 0.4106(1) 0.6698(1)
C10 C 0.3467(4) 0.4142(2) 0.6156(2)
C11 C 0.3382(3) 0.4616(2) 0.5393(2)
C12 C 0.3133(3) 0.5520(2) 0.5369(1)
C13 C 0.3060(3) 0.5953(2) 0.4667(1)
C14 C 0.3160(3) 0.5472(2) 0.3993(2)
C15 C 0.3396(3) 0.4571(2) 0.4009(2)
C16 C 0.3555(3) 0.4162(2) 0.4717(2)
C17 C 0.2957(3) 0.6939(2) 0.4670(2)
O1 O 0.2869(3) 0.7369(1) 0.5244(1)
O2 O 0.2990(2) 0.7269(1) 0.3966(1)
C18 C 0.3026(3) 0.8233(2) 0.3825(2)
C19 C 0.1555(4) 0.8644(2) 0.4100(2)
C20 C 0.3135(5) 0.8265(2) 0.2959(2)
C21 C 0.4407(4) 0.8634(2) 0.4191(2)
H1 H 0.4124 0.4371 0.2929
H2 H 0.3982 0.3496 0.3385
H3 H 0.1612 0.2569 0.3556
H4 H 0.0092 0.2665 0.3107
H5 H -0.1631 0.4006 0.3592
H6 H -0.2836 0.4497 0.4705
H7 H -0.1801 0.4163 0.5903
H8 H 0.1461 0.2701 0.4874
H9 H 0.1343 0.2714 0.6194
H10 H -0.0128 0.3022 0.6611
H11 H 0.3824 0.3549 0.6074
H12 H 0.4219 0.4441 0.6460
H13 H 0.3032 0.5848 0.5836
H14 H 0.3060 0.5766 0.3509
H15 H 0.3794 0.3542 0.4729
H16 H 0.1492 0.8619 0.4648
H17 H 0.1521 0.9250 0.3937
H18 H 0.0711 0.8327 0.3882
H19 H 0.4084 0.7998 0.2806
H20 H 0.2299 0.7946 0.2734
H21 H 0.3110 0.8868 0.2789
H22 H 0.5303 0.8340 0.4001
H23 H 0.4457 0.9251 0.4064
H24 H 0.4356 0.8568 0.4736
O3 O 0.1972(4) 0.0785(2) 0.2755(2)
C22 C 0.1945(4) 0.1071(2) 0.2122(2)
C23 C 0.0488(4) 0.1245(3) 0.1722(2)
C24 C 0.3336(5) 0.1263(4) 0.1712(3)
H25 H -0.0351 0.1107 0.2056
H26 H 0.0433 0.1856 0.1574
H27 H 0.0436 0.0878 0.1275
H28 H 0.4198 0.1133 0.2032
H29 H 0.3370 0.0897 0.1264
H30 H 0.3366 0.1874 0.1564
loop_
_geom_bond_atom_site_label_1
_geom_bond_atom_site_label_2
_geom_bond_site_symmetry_1
_geom_bond_site_symmetry_2
C1 S1 1_555 1_555
S1 C2 1_555 1_555
C2 C3 1_555 1_555
C3 C4 1_555 1_555
C4 C5 1_555 1_555
C5 C6 1_555 1_555
C6 C7 1_555 1_555
C7 C8 1_555 1_555
C8 C3 1_555 1_555
C9 C7 1_555 1_555
S2 C9 1_555 1_555
C10 S2 1_555 1_555
C11 C10 1_555 1_555
C12 C11 1_555 1_555
C13 C12 1_555 1_555
C14 C13 1_555 1_555
C15 C1 1_555 1_555
C16 C11 1_555 1_555
C17 C13 1_555 1_555
O1 C17 1_555 1_555
O2 C17 1_555 1_555
C18 O2 1_555 1_555
C19 C18 1_555 1_555
C20 C18 1_555 1_555
C21 C18 1_555 1_555
H1 C1 1_555 1_555
H2 C1 1_555 1_555
H3 C2 1_555 1_555
H4 C2 1_555 1_555
H5 C4 1_555 1_555
H6 C5 1_555 1_555
H7 C6 1_555 1_555
H8 C8 1_555 1_555
H9 C9 1_555 1_555
H10 C9 1_555 1_555
H11 C10 1_555 1_555
H12 C10 1_555 1_555
H13 C12 1_555 1_555
H14 C14 1_555 1_555
H15 C16 1_555 1_555
H16 C19 1_555 1_555
H17 C19 1_555 1_555
H18 C19 1_555 1_555
H19 C20 1_555 1_555
H20 C20 1_555 1_555
H21 C20 1_555 1_555
H22 C21 1_555 1_555
H23 C21 1_555 1_555
H24 C21 1_555 1_555
O3 C22 1_555 1_555
C22 C23 1_555 1_555
C23 H25 1_555 1_555
C24 C22 1_555 1_555
H26 C23 1_555 1_555
H27 C23 1_555 1_555
H28 C24 1_555 1_555
H29 C24 1_555 1_555
H30 C24 1_555 1_555
C14 C15 1_555 1_555
C15 C16 1_555 1_555

#END
