
#######################################################################
#
#                 Cambridge Crystallographic Data Centre
#                                CCDC 
#
#######################################################################
#
# If this CIF has been generated from an entry in the Cambridge 
# Structural Database, then it will include bibliographic, chemical, 
# crystal, experimental, refinement or atomic coordinate data resulting 
# from the CCDC's data processing and validation procedures.
#
#######################################################################

data_WEPSAL
_chemical_formula_moiety         'C42 H46 O4 S4'
_chemical_name_systematic        
"Di-t-butyl 2,11,26,35-tetrathia(3.3)(3,5)benzeno(3,5)biphenylo(3.3)(3',5')(3,5)benzen-ophane-6,30-dicarboxylate"
_symmetry_cell_setting           tetragonal
_symmetry_space_group_name_H-M   'I 41/a'
_symmetry_Int_Tables_number      88
_space_group_name_Hall           '-I 4ad'
loop_
_symmetry_equiv_pos_site_id
_symmetry_equiv_pos_as_xyz
1 x,y,z
2 1/2+x,1/2+y,1/2+z
3 3/4-y,1/4+x,1/4+z
4 1/4-y,3/4+x,3/4+z
5 1/2-x,-y,1/2+z
6 -x,1/2-y,z
7 3/4+y,3/4-x,3/4+z
8 1/4+y,1/4-x,1/4+z
9 -x,-y,-z
10 1/2-x,1/2-y,1/2-z
11 1/4+y,3/4-x,3/4-z
12 3/4+y,1/4-x,1/4-z
13 1/2+x,y,1/2-z
14 x,1/2+y,-z
15 1/4-y,1/4+x,1/4-z
16 3/4-y,3/4+x,3/4-z
_cell_length_a                   29.582(2)
_cell_length_b                   29.582(2)
_cell_length_c                   17.856(1)
_cell_angle_alpha                90
_cell_angle_beta                 90
_cell_angle_gamma                90
_cell_volume                     15625.7
_exptl_crystal_colour            colorless
_chemical_melting_point          'above 113deg.C(dec.)'
_cell_formula_units_Z            16
loop_
_atom_site_label
_atom_site_type_symbol
_atom_site_fract_x
_atom_site_fract_y
_atom_site_fract_z
C1 C 0.1963(3) 0.2031(3) 0.2125(4)
S1 S 0.1491(1) 0.2190(1) 0.2604(2)
C2 C 0.1482(5) 0.2813(4) 0.2435(7)
C3 C 0.1290(4) 0.2917(3) 0.1600(5)
C4 C 0.1511(3) 0.3285(3) 0.1305(5)
C5 C 0.1452(3) 0.3403(3) 0.0560(5)
C6 C 0.1170(2) 0.3148(3) 0.0114(5)
C7 C 0.0939(3) 0.2780(3) 0.0410(5)
C8 C 0.0998(3) 0.2674(3) 0.1165(6)
C9 C 0.0648(2) 0.2487(3) -0.0067(5)
S2 S 0.0940(1) 0.2235(1) -0.0863(1)
C10 C 0.1307(3) 0.1821(2) -0.0447(4)
C11 C 0.1676(2) 0.1997(2) 0.0057(4)
C12 C 0.2030(2) 0.2252(2) -0.0237(4)
C13 C 0.2364(2) 0.2442(2) 0.0209(4)
C14 C 0.2325(2) 0.2368(2) 0.0981(4)
C15 C 0.1990(3) 0.2108(3) 0.1289(4)
C16 C 0.1668(2) 0.1921(2) 0.0818(5)
C17 C 0.2735(2) 0.2713(2) -0.0108(3)
C18 C 0.2723(2) 0.2866(2) -0.0850(4)
C19 C 0.3076(3) 0.3101(2) -0.1162(4)
C20 C 0.3450(2) 0.3213(2) -0.0731(4)
C21 C 0.3476(2) 0.3060(2) 0.0005(4)
C22 C 0.3123(2) 0.2811(2) 0.0300(3)
C23 C 0.3069(2) 0.3228(2) -0.1991(4)
S3 S 0.3468(1) 0.2970(1) -0.2560(2)
C24 C 0.3456(4) 0.2382(3) -0.2456(4)
C25 C 0.3562(3) 0.2180(3) -0.1694(4)
C26 C 0.3314(3) 0.1830(3) -0.1418(4)
C27 C 0.3404(2) 0.1651(2) -0.0704(4)
C28 C 0.3747(2) 0.1834(2) -0.0281(4)
C29 C 0.4014(2) 0.2178(2) -0.0554(4)
C30 C 0.3920(2) 0.2341(2) -0.1273(5)
C31 C 0.4382(2) 0.2387(2) -0.0093(4)
S4 S 0.4193(1) 0.2642(1) 0.0774(1)
C32 C 0.3898(2) 0.3140(2) 0.0466(4)
C33 C 0.1694(3) 0.3803(3) 0.0258(5)
O1 O 0.1871(2) 0.4078(2) 0.0642(3)
O2 O 0.1687(2) 0.3807(2) -0.0496(3)
C34 C 0.1911(3) 0.4168(3) -0.0921(5)
C35 C 0.1865(3) 0.4002(3) -0.1725(5)
C36 C 0.2409(3) 0.4193(3) -0.0722(5)
C37 C 0.1664(3) 0.4598(3) -0.0812(6)
C38 C 0.3113(3) 0.1271(3) -0.0431(5)
O3 O 0.2885(3) 0.1052(2) -0.0823(3)
O4 O 0.3167(2) 0.1213(2) 0.0292(3)
C39 C 0.2905(3) 0.0871(3) 0.0711(5)
C40 C 0.2413(3) 0.0937(3) 0.0606(6)
C41 C 0.3015(4) 0.0981(4) 0.1500(5)
C42 C 0.3050(3) 0.0425(3) 0.0513(6)
H1 H 0.2005 0.1713 0.2209
H2 H 0.2215 0.2183 0.2349
H3 H 0.1706 0.3463 0.1618
H4 H 0.1138 0.3225 -0.0405
H5 H 0.0831 0.2429 0.1384
H6 H 0.0399 0.2663 -0.0248
H7 H 0.0529 0.2247 0.0237
H8 H 0.1448 0.1650 -0.0840
H9 H 0.1125 0.1617 -0.0158
H10 H 0.2040 0.2303 -0.0767
H11 H 0.2546 0.2499 0.1307
H12 H 0.1443 0.1722 0.1023
H13 H 0.2461 0.2808 -0.1153
H14 H 0.3688 0.3395 -0.0938
H15 H 0.3147 0.2699 0.0803
H16 H 0.3108 0.3549 -0.2029
H17 H 0.2775 0.3157 -0.2185
H18 H 0.3670 0.2258 -0.2803
H19 H 0.3162 0.2278 -0.2604
H20 H 0.3077 0.1701 -0.1715
H21 H 0.3801 0.1719 0.0213
H22 H 0.4109 0.2573 -0.1482
H23 H 0.4527 0.2615 -0.0391
H24 H 0.4603 0.2159 0.0020
H25 H 0.3816 0.3315 0.0899
H26 H 0.4103 0.3318 0.0171
H27 H 0.1551 0.3991 -0.1862
H28 H 0.2024 0.4194 -0.2068
H29 H 0.1990 0.3703 -0.1742
H30 H 0.2442 0.4311 -0.0225
H31 H 0.2533 0.3893 -0.0743
H32 H 0.2566 0.4384 -0.1069
H33 H 0.1705 0.4701 -0.0307
H34 H 0.1770 0.4826 -0.1153
H35 H 0.1349 0.4542 -0.0901
H36 H 0.2334 0.0862 0.0100
H37 H 0.2245 0.0749 0.0945
H38 H 0.2340 0.1248 0.0700
H39 H 0.3332 0.0937 0.1588
H40 H 0.2939 0.1293 0.1587
H41 H 0.2844 0.0793 0.1833
H42 H 0.3369 0.0397 0.0599
H43 H 0.2893 0.0201 0.0801
H44 H 0.2988 0.0381 -0.0010
S5? S 0.1809(2) 0.2586(2) 0.2602(3)
C43? C 0.1228(6) 0.2703(6) 0.2362(9)
S6? S 0.3035(2) 0.2703(2) -0.2578(2)
H45? H 0.1777 0.2943 0.2502
H46? H 0.1280 0.2950 0.2790
H47? H 0.1093 0.2910 0.2710
H48? H 0.1052 0.2431 0.2337
loop_
_geom_bond_atom_site_label_1
_geom_bond_atom_site_label_2
_geom_bond_site_symmetry_1
_geom_bond_site_symmetry_2
C1 S1 1_555 1_555
S1 C2 1_555 1_555
C2 C3 1_555 1_555
C3 C4 1_555 1_555
C4 C5 1_555 1_555
C5 C6 1_555 1_555
C6 C7 1_555 1_555
C7 C8 1_555 1_555
C8 C3 1_555 1_555
C9 C7 1_555 1_555
S2 C9 1_555 1_555
C10 S2 1_555 1_555
C11 C10 1_555 1_555
C12 C11 1_555 1_555
C13 C12 1_555 1_555
C14 C13 1_555 1_555
C15 C1 1_555 1_555
C16 C11 1_555 1_555
C17 C13 1_555 1_555
C18 C17 1_555 1_555
C19 C18 1_555 1_555
C20 C19 1_555 1_555
C21 C20 1_555 1_555
C22 C17 1_555 1_555
C23 C19 1_555 1_555
S3 C23 1_555 1_555
C24 S3 1_555 1_555
C25 C24 1_555 1_555
C26 C25 1_555 1_555
C27 C26 1_555 1_555
C28 C27 1_555 1_555
C29 C28 1_555 1_555
C30 C25 1_555 1_555
C31 C29 1_555 1_555
S4 C31 1_555 1_555
C32 C21 1_555 1_555
C33 C5 1_555 1_555
O1 C33 1_555 1_555
O2 C33 1_555 1_555
C34 O2 1_555 1_555
C35 C34 1_555 1_555
C36 C34 1_555 1_555
C37 C34 1_555 1_555
C38 C27 1_555 1_555
O3 C38 1_555 1_555
O4 C38 1_555 1_555
C39 O4 1_555 1_555
C40 C39 1_555 1_555
C41 C39 1_555 1_555
C42 C39 1_555 1_555
H1 C1 1_555 1_555
H2 C1 1_555 1_555
H3 C4 1_555 1_555
H4 C6 1_555 1_555
H5 C8 1_555 1_555
H6 C9 1_555 1_555
H7 C9 1_555 1_555
H8 C10 1_555 1_555
H9 C10 1_555 1_555
H10 C12 1_555 1_555
H11 C14 1_555 1_555
H12 C16 1_555 1_555
H13 C18 1_555 1_555
H14 C20 1_555 1_555
H15 C22 1_555 1_555
H16 C23 1_555 1_555
H17 C23 1_555 1_555
H18 C24 1_555 1_555
H19 C24 1_555 1_555
H20 C26 1_555 1_555
H21 C28 1_555 1_555
H22 C30 1_555 1_555
H23 C31 1_555 1_555
H24 C31 1_555 1_555
H25 C32 1_555 1_555
H26 C32 1_555 1_555
H27 C35 1_555 1_555
H28 C35 1_555 1_555
H29 C35 1_555 1_555
H30 C36 1_555 1_555
H31 C36 1_555 1_555
H32 C36 1_555 1_555
H33 C37 1_555 1_555
H34 C37 1_555 1_555
H35 C37 1_555 1_555
H36 C40 1_555 1_555
H37 C40 1_555 1_555
H38 C40 1_555 1_555
H39 C41 1_555 1_555
H40 C41 1_555 1_555
H41 C41 1_555 1_555
H42 C42 1_555 1_555
H43 C42 1_555 1_555
H44 C42 1_555 1_555
C14 C15 1_555 1_555
C15 C16 1_555 1_555
C21 C22 1_555 1_555
C29 C30 1_555 1_555
S4 C32 1_555 1_555

#END
