
#######################################################################
#
#                 Cambridge Crystallographic Data Centre
#                                CCDC 
#
#######################################################################
#
# If this CIF has been generated from an entry in the Cambridge 
# Structural Database, then it will include bibliographic, chemical, 
# crystal, experimental, refinement or atomic coordinate data resulting 
# from the CCDC's data processing and validation procedures.
#
#######################################################################

data_WEPTUG
_chemical_formula_moiety         'C66 H70 N4 O16 S4,2(C1 H1 Cl3)'
_chemical_name_systematic        
'Tetraethyl 2,11,20,29-tetrakis(p-tolylsulfonyl)-2,11,20,29-tetra-aza(3.3)(1,3)(1,2)(3.3)(4,5)(1,3)benzeno(3)phane-5,7,23,25-tetracarboxylate chloroform solvate'
_symmetry_cell_setting           monoclinic
_symmetry_space_group_name_H-M   'P 21/c'
_symmetry_Int_Tables_number      14
_space_group_name_Hall           '-P 2ybc'
loop_
_symmetry_equiv_pos_site_id
_symmetry_equiv_pos_as_xyz
1 x,y,z
2 -x,1/2+y,1/2-z
3 -x,-y,-z
4 x,1/2-y,1/2+z
_cell_length_a                   13.751(1)
_cell_length_b                   13.745(2)
_cell_length_c                   20.123(1)
_cell_angle_alpha                90
_cell_angle_beta                 109.71(1)
_cell_angle_gamma                90
_cell_volume                     3580.56
_exptl_crystal_colour            colorless
_chemical_melting_point          'above 305deg.C'
_cell_formula_units_Z            2
loop_
_atom_site_label
_atom_site_type_symbol
_atom_site_fract_x
_atom_site_fract_y
_atom_site_fract_z
C1 C 0.3022(5) 0.4081(4) 0.4856(3)
N1 N 0.2966(4) 0.3046(4) 0.4623(3)
C2 C 0.3315(5) 0.2303(5) 0.5195(4)
C3 C 0.4380(5) 0.2564(4) 0.5666(3)
C4 C 0.5280(5) 0.2421(4) 0.5505(3)
C5 C 0.6192(5) 0.2874(5) 0.5919(3)
C6 C 0.6241(5) 0.3463(5) 0.6483(3)
C7 C 0.5350(5) 0.3588(4) 0.6662(3)
C8 C 0.4456(5) 0.3108(4) 0.6273(3)
C9 C 0.5218(5) 0.4339(5) 0.7183(3)
N2 N 0.5035(4) 0.5320(4) 0.6850(3)
C10 C 0.4208(5) 0.5378(4) 0.6155(3)
C11 C 0.4590(5) 0.5146(4) 0.5544(3)
C12 C 0.4059(4) 0.4550(4) 0.4969(3)
C13 C 0.5506(4) 0.5578(4) 0.5564(3)
S1 S 0.1926(1) 0.2759(1) 0.3963(1)
O1 O 0.1820(4) 0.3460(4) 0.3421(2)
O2 O 0.2008(4) 0.1746(4) 0.3819(3)
C14 C 0.0879(5) 0.2899(5) 0.4262(4)
C15 C 0.0595(6) 0.2163(6) 0.4626(5)
C16 C -0.0199(7) 0.2315(8) 0.4889(6)
C17 C -0.0724(6) 0.3161(10) 0.4800(5)
C18 C -0.0436(7) 0.3893(8) 0.4442(5)
C19 C 0.0348(6) 0.3779(6) 0.4171(5)
C20 C -0.1584(7) 0.3284(10) 0.5104(6)
C21 C 0.5291(6) 0.1791(5) 0.4900(4)
O3 O 0.4623(5) 0.1241(4) 0.4590(3)
O4 O 0.6154(4) 0.1900(4) 0.4755(3)
C22 C 0.6297(8) 0.1265(7) 0.4220(5)
C23 C 0.6771(10) 0.0381(8) 0.4537(6)
C24 C 0.7267(6) 0.3939(5) 0.6820(4)
O5 O 0.7892(4) 0.4041(5) 0.6539(3)
O6 O 0.7421(4) 0.4248(4) 0.7474(3)
C25 C 0.8386(8) 0.4765(9) 0.7811(5)
C26 C 0.8599(14) 0.4863(16) 0.8531(9)
S2 S 0.5071(1) 0.6214(1) 0.7398(1)
O7 O 0.5942(3) 0.6027(3) 0.8015(2)
O8 O 0.5012(4) 0.7094(3) 0.7010(3)
C27 C 0.3950(5) 0.6136(5) 0.7626(3)
C28 C 0.3927(6) 0.5536(5) 0.8178(4)
C29 C 0.3051(6) 0.5456(6) 0.8352(4)
C30 C 0.2168(6) 0.5943(6) 0.7992(5)
C31 C 0.2185(6) 0.6552(6) 0.7437(4)
C32 C 0.3076(6) 0.6643(6) 0.7262(4)
C33 C 0.1215(8) 0.5861(8) 0.8185(6)
H1 H 0.2869 0.4114 0.5287
H2 H 0.2502 0.4446 0.4504
H3 H 0.3325 0.1673 0.4992
H4 H 0.2848 0.2284 0.5457
H5 H 0.6810 0.2772 0.5806
H6 H 0.3869 0.3143 0.6429
H7 H 0.5827 0.4350 0.7595
H8 H 0.4641 0.4163 0.7323
H9 H 0.3916 0.6020 0.6090
H10 H 0.3672 0.4926 0.6147
H11 H 0.5863 0.5979 0.5963
H12 H 0.0973 0.1562 0.4710
H13 H -0.0409 0.1792 0.5127
H14 H -0.0808 0.4497 0.4367
H15 H 0.0552 0.4299 0.3928
H16 H -0.1641 0.2686 0.5334
H17 H -0.1437 0.3807 0.5439
H18 H -0.2223 0.3412 0.4730
H19 H 0.6729 0.1577 0.3996
H20 H 0.5640 0.1126 0.3868
H21 H 0.6876 -0.0058 0.4196
H22 H 0.7424 0.0533 0.4888
H23 H 0.6330 0.0079 0.4759
H24 H 0.8367 0.5397 0.7604
H25 H 0.8939 0.4402 0.7739
H26 H 0.9243 0.5192 0.8753
H27 H 0.8048 0.5232 0.8600
H28 H 0.8624 0.4229 0.8736
H29 H 0.4538 0.5184 0.8442
H30 H 0.3048 0.5041 0.8735
H31 H 0.1571 0.6903 0.7176
H32 H 0.3085 0.7066 0.6884
H33 H 0.1359 0.5418 0.8575
H34 H 0.1026 0.6483 0.8321
H35 H 0.0656 0.5613 0.7793
C13B C 0.4494(4) 0.4422(4) 0.4436(3)
C12B C 0.5941(4) 0.5450(4) 0.5031(3)
C11B C 0.5410(5) 0.4854(4) 0.4456(3)
H11B H 0.4137 0.4021 0.4037
C1B C 0.6978(5) 0.5919(4) 0.5144(3)
C10B C 0.5792(5) 0.4622(4) 0.3845(3)
N1B N 0.7034(4) 0.6954(4) 0.5377(3)
H1B H 0.7131 0.5886 0.4713
H2B H 0.7498 0.5554 0.5496
N2B N 0.4965(4) 0.4680(4) 0.3150(3)
H9B H 0.6084 0.3980 0.3910
H10B H 0.6328 0.5074 0.3853
C2B C 0.6685(5) 0.7697(5) 0.4805(4)
S1B S 0.8074(1) 0.7241(1) 0.6037(1)
C9B C 0.4782(5) 0.5661(5) 0.2817(3)
S2B S 0.4929(1) 0.3786(1) 0.2602(1)
C3B C 0.5620(5) 0.7436(4) 0.4334(3)
H3B H 0.6675 0.8327 0.5008
H4B H 0.7152 0.7716 0.4543
O1B O 0.8180(4) 0.6540(4) 0.6579(2)
O2B O 0.7992(4) 0.8254(4) 0.6181(3)
C14B C 0.9121(5) 0.7101(5) 0.5738(4)
C7B C 0.4650(5) 0.6412(4) 0.3338(3)
H7B H 0.4173 0.5650 0.2405
H8B H 0.5359 0.5837 0.2677
O7B O 0.4058(3) 0.3973(3) 0.1985(2)
O8B O 0.4988(4) 0.2906(3) 0.2990(3)
C27B C 0.6050(5) 0.3864(5) 0.2374(3)
C4B C 0.4720(5) 0.7579(4) 0.4495(3)
C8B C 0.5544(5) 0.6892(4) 0.3727(3)
C15B C 0.9405(6) 0.7837(6) 0.5374(5)
C19B C 0.9652(6) 0.6221(6) 0.5829(5)
C6B C 0.3759(5) 0.6537(5) 0.3517(3)
C28B C 0.6073(6) 0.4464(5) 0.1822(4)
C32B C 0.6924(6) 0.3357(6) 0.2738(4)
C5B C 0.3808(5) 0.7126(5) 0.4081(3)
C21B C 0.4709(6) 0.8209(5) 0.5100(4)
H6B H 0.6131 0.6857 0.3571
C16B C 1.0199(7) 0.7685(8) 0.5111(6)
H12B H 0.9027 0.8438 0.5290
C18B C 1.0436(7) 0.6107(8) 0.5558(5)
H15B H 0.9448 0.5701 0.6072
C24B C 0.2733(6) 0.6061(5) 0.3180(4)
C29B C 0.6949(6) 0.4544(6) 0.1648(4)
H29B H 0.5462 0.4816 0.1558
C31B C 0.7815(6) 0.3448(6) 0.2563(4)
H32B H 0.6915 0.2934 0.3116
H5B H 0.3190 0.7228 0.4194
O3B O 0.5377(5) 0.8759(4) 0.5410(3)
O4B O 0.3846(4) 0.8100(4) 0.5245(3)
C17B C 1.0724(6) 0.6839(10) 0.5200(5)
H13B H 1.0409 0.8208 0.4873
H14B H 1.0808 0.5503 0.5633
O5B O 0.2108(4) 0.5959(5) 0.3461(3)
O6B O 0.2579(4) 0.5752(4) 0.2526(3)
C30B C 0.7832(6) 0.4057(6) 0.2008(5)
H30B H 0.6952 0.4959 0.1265
H31B H 0.8429 0.3097 0.2824
C22B C 0.3703(8) 0.8735(7) 0.5780(5)
C20B C 1.1584(7) 0.6716(10) 0.4896(6)
C25B C 0.1614(8) 0.5235(9) 0.2189(5)
C33B C 0.8785(8) 0.4139(8) 0.1815(6)
C23B C 0.3229(10) 0.9619(8) 0.5463(6)
H19B H 0.3271 0.8423 0.6004
H20B H 0.4360 0.8874 0.6132
H16B H 1.1641 0.7314 0.4666
H17B H 1.1437 0.6193 0.4561
H18B H 1.2223 0.6588 0.5270
C26B C 0.1401(14) 0.5137(16) 0.1469(9)
H24B H 0.1633 0.4603 0.2396
H25B H 0.1061 0.5598 0.2261
H33B H 0.8641 0.4582 0.1425
H34B H 0.8974 0.3517 0.1679
H35B H 0.9344 0.4387 0.2207
H21B H 0.3124 1.0058 0.5804
H22B H 0.2576 0.9467 0.5112
H23B H 0.3670 0.9921 0.5241
H26B H 0.0757 0.4808 0.1247
H27B H 0.1952 0.4768 0.1400
H28B H 0.1376 0.5771 0.1264
C34 C 0.1590(10) 0.1676(9) 0.2049(6)
Cl1 Cl 0.1976(4) 0.0836(3) 0.1596(3)
Cl2 Cl 0.0303(3) 0.1578(5) 0.1943(2)
Cl3 Cl 0.1891(8) 0.2734(4) 0.1809(5)
H36 H 0.1978 0.1587 0.2541
C35? C 0.8905(21) 0.4219(23) 0.8312(14)
H37? H 0.8274 0.5392 0.7983
H38? H 0.8755 0.4848 0.7486
H39? H 0.9565 0.4504 0.8561
H40? H 0.8521 0.4141 0.8629
H41? H 0.9004 0.3595 0.8130
loop_
_geom_bond_atom_site_label_1
_geom_bond_atom_site_label_2
_geom_bond_site_symmetry_1
_geom_bond_site_symmetry_2
C1 N1 1_555 1_555
N1 C2 1_555 1_555
C2 C3 1_555 1_555
C3 C4 1_555 1_555
C4 C5 1_555 1_555
C5 C6 1_555 1_555
C6 C7 1_555 1_555
C7 C8 1_555 1_555
C8 C3 1_555 1_555
C9 C7 1_555 1_555
N2 C9 1_555 1_555
C10 N2 1_555 1_555
C11 C10 1_555 1_555
C12 C1 1_555 1_555
C13 C11 1_555 1_555
S1 N1 1_555 1_555
O1 S1 1_555 1_555
O2 S1 1_555 1_555
C14 S1 1_555 1_555
C15 C14 1_555 1_555
C16 C15 1_555 1_555
C17 C16 1_555 1_555
C18 C17 1_555 1_555
C19 C14 1_555 1_555
C20 C17 1_555 1_555
C21 C4 1_555 1_555
O3 C21 1_555 1_555
O4 C21 1_555 1_555
C22 O4 1_555 1_555
C23 C22 1_555 1_555
C24 C6 1_555 1_555
O5 C24 1_555 1_555
O6 C24 1_555 1_555
C25 O6 1_555 1_555
C26 C25 1_555 1_555
S2 N2 1_555 1_555
O7 S2 1_555 1_555
O8 S2 1_555 1_555
C27 S2 1_555 1_555
C28 C27 1_555 1_555
C29 C28 1_555 1_555
C30 C29 1_555 1_555
C31 C30 1_555 1_555
C32 C27 1_555 1_555
C33 C30 1_555 1_555
H1 C1 1_555 1_555
H2 C1 1_555 1_555
H3 C2 1_555 1_555
H4 C2 1_555 1_555
H5 C5 1_555 1_555
H6 C8 1_555 1_555
H7 C9 1_555 1_555
H8 C9 1_555 1_555
H9 C10 1_555 1_555
H10 C10 1_555 1_555
H11 C13 1_555 1_555
H12 C15 1_555 1_555
H13 C16 1_555 1_555
H14 C18 1_555 1_555
H15 C19 1_555 1_555
H16 C20 1_555 1_555
H17 C20 1_555 1_555
H18 C20 1_555 1_555
H19 C22 1_555 1_555
H20 C22 1_555 1_555
H21 C23 1_555 1_555
H22 C23 1_555 1_555
H23 C23 1_555 1_555
H24 C25 1_555 1_555
H25 C25 1_555 1_555
H26 C26 1_555 1_555
H27 C26 1_555 1_555
H28 C26 1_555 1_555
H29 C28 1_555 1_555
H30 C29 1_555 1_555
H31 C31 1_555 1_555
H32 C32 1_555 1_555
H33 C33 1_555 1_555
H34 C33 1_555 1_555
H35 C33 1_555 1_555
C34 Cl1 1_555 1_555
Cl2 C34 1_555 1_555
Cl3 C34 1_555 1_555
H36 C34 1_555 1_555
C13B C12 1_555 1_555
C12B C13 1_555 1_555
C11B C13B 1_555 1_555
H11B C13B 1_555 1_555
C1B C12B 1_555 1_555
C10B C11B 1_555 1_555
N1B C1B 1_555 1_555
H1B C1B 1_555 1_555
H2B C1B 1_555 1_555
N2B C10B 1_555 1_555
H9B C10B 1_555 1_555
H10B C10B 1_555 1_555
C2B N1B 1_555 1_555
S1B N1B 1_555 1_555
C9B N2B 1_555 1_555
S2B N2B 1_555 1_555
C3B C2B 1_555 1_555
H3B C2B 1_555 1_555
H4B C2B 1_555 1_555
O1B S1B 1_555 1_555
O2B S1B 1_555 1_555
C14B S1B 1_555 1_555
C7B C9B 1_555 1_555
H7B C9B 1_555 1_555
H8B C9B 1_555 1_555
O7B S2B 1_555 1_555
O8B S2B 1_555 1_555
C27B S2B 1_555 1_555
C4B C3B 1_555 1_555
C8B C3B 1_555 1_555
C15B C14B 1_555 1_555
C19B C14B 1_555 1_555
C6B C7B 1_555 1_555
C28B C27B 1_555 1_555
C32B C27B 1_555 1_555
C5B C4B 1_555 1_555
C21B C4B 1_555 1_555
H6B C8B 1_555 1_555
C16B C15B 1_555 1_555
H12B C15B 1_555 1_555
C18B C19B 1_555 1_555
H15B C19B 1_555 1_555
C24B C6B 1_555 1_555
C29B C28B 1_555 1_555
H29B C28B 1_555 1_555
C31B C32B 1_555 1_555
H32B C32B 1_555 1_555
H5B C5B 1_555 1_555
O3B C21B 1_555 1_555
O4B C21B 1_555 1_555
C17B C16B 1_555 1_555
H13B C16B 1_555 1_555
H14B C18B 1_555 1_555
O5B C24B 1_555 1_555
O6B C24B 1_555 1_555
C30B C29B 1_555 1_555
H30B C29B 1_555 1_555
H31B C31B 1_555 1_555
C22B O4B 1_555 1_555
C20B C17B 1_555 1_555
C25B O6B 1_555 1_555
C33B C30B 1_555 1_555
C23B C22B 1_555 1_555
H19B C22B 1_555 1_555
H20B C22B 1_555 1_555
H16B C20B 1_555 1_555
H17B C20B 1_555 1_555
H18B C20B 1_555 1_555
C26B C25B 1_555 1_555
H24B C25B 1_555 1_555
H25B C25B 1_555 1_555
H33B C33B 1_555 1_555
H34B C33B 1_555 1_555
H35B C33B 1_555 1_555
H21B C23B 1_555 1_555
H22B C23B 1_555 1_555
H23B C23B 1_555 1_555
H26B C26B 1_555 1_555
H27B C26B 1_555 1_555
H28B C26B 1_555 1_555
C11 C12 1_555 1_555
C18 C19 1_555 1_555
C31 C32 1_555 1_555
C12B C11B 1_555 1_555
C7B C8B 1_555 1_555
C6B C5B 1_555 1_555
C18B C17B 1_555 1_555
C31B C30B 1_555 1_555

#END
