
#######################################################################
#
#                 Cambridge Crystallographic Data Centre
#                                CCDC 
#
#######################################################################
#
# If this CIF has been generated from an entry in the Cambridge 
# Structural Database, then it will include bibliographic, chemical, 
# crystal, experimental, refinement or atomic coordinate data resulting 
# from the CCDC's data processing and validation procedures.
#
#######################################################################

data_WEPTAM
_chemical_formula_moiety         'C42 H46 N2 O12 S2,C6 H12'
_chemical_name_systematic        
'Tetraethyl 2,11-bis(p-tolylsulfonyl)-2,11-diaza(3.3)metacyclophane-5,7,14,16-tetracarboxylate cyclohexane solvate'
_symmetry_cell_setting           monoclinic
_symmetry_space_group_name_H-M   'P 21/c'
_symmetry_Int_Tables_number      14
_space_group_name_Hall           '-P 2ybc'
loop_
_symmetry_equiv_pos_site_id
_symmetry_equiv_pos_as_xyz
1 x,y,z
2 -x,1/2+y,1/2-z
3 -x,-y,-z
4 x,1/2-y,1/2+z
_cell_length_a                   12.433(2)
_cell_length_b                   14.359(2)
_cell_length_c                   26.470(4)
_cell_angle_alpha                90
_cell_angle_beta                 91.23(1)
_cell_angle_gamma                90
_cell_volume                     4724.48
_exptl_crystal_colour            colorless
_cell_formula_units_Z            4
loop_
_atom_site_label
_atom_site_type_symbol
_atom_site_fract_x
_atom_site_fract_y
_atom_site_fract_z
C1 C 0.5954(7) 0.4435(6) 0.1124(3)
N1 N 0.5522(5) 0.3556(4) 0.1340(2)
C2 C 0.6355(7) 0.2854(6) 0.1483(3)
C3 C 0.6743(7) 0.2350(5) 0.1025(3)
C4 C 0.7850(7) 0.2254(6) 0.0931(3)
C5 C 0.8685(9) 0.2474(9) 0.1304(4)
O1 O 0.8597(6) 0.2401(7) 0.1756(3)
O2 O 0.9586(6) 0.2754(6) 0.1105(3)
C6 C 1.0505(10) 0.3015(14) 0.1455(5)
C7 C 1.1318(11) 0.3203(18) 0.1173(7)
C8 C 0.8151(6) 0.1890(5) 0.0479(3)
C9 C 0.7392(7) 0.1648(5) 0.0093(3)
C10 C 0.7791(9) 0.1325(7) -0.0419(4)
O3 O 0.7359(6) 0.1455(6) -0.0809(2)
O4 O 0.8716(6) 0.0881(6) -0.0358(3)
C11 C 0.9228(18) 0.0601(14) -0.0838(6)
C12 C 0.9742(21) -0.0088(18) -0.0774(7)
C13 C 0.6299(7) 0.1740(5) 0.0192(3)
C14 C 0.6004(6) 0.2063(5) 0.0662(3)
C15 C 0.5417(7) 0.1504(6) -0.0199(3)
N2 N 0.4498(5) 0.2120(4) -0.0169(2)
C16 C 0.4590(8) 0.2987(6) -0.0463(3)
C17 C 0.5433(7) 0.3630(5) -0.0233(3)
C18 C 0.6365(7) 0.3953(6) -0.0479(3)
C19 C 0.6537(8) 0.3726(7) -0.1021(3)
O5 O 0.5864(6) 0.3530(5) -0.1331(2)
O6 O 0.7593(5) 0.3829(5) -0.1131(2)
C20 C 0.7876(11) 0.3792(11) -0.1683(4)
C21 C 0.8259(16) 0.2933(12) -0.1776(5)
C22 C 0.7121(6) 0.4467(5) -0.0205(3)
C23 C 0.6996(7) 0.4648(5) 0.0308(3)
C24 C 0.7846(9) 0.5188(7) 0.0552(4)
O7 O 0.7682(6) 0.5649(7) 0.0941(3)
O8 O 0.8718(6) 0.5312(6) 0.0335(3)
C25 C 0.9656(8) 0.5779(10) 0.0607(5)
C26 C 0.9909(9) 0.6615(8) 0.0278(5)
C27 C 0.6073(6) 0.4350(5) 0.0550(3)
C28 C 0.5311(7) 0.3875(5) 0.0269(3)
S1 S 0.4453(2) 0.3618(2) 0.1688(1)
O9 O 0.3736(4) 0.4257(4) 0.1434(2)
O10 O 0.4118(5) 0.2681(4) 0.1784(2)
C29 C 0.4848(6) 0.4129(6) 0.2271(3)
C30 C 0.5137(7) 0.3550(6) 0.2677(3)
C31 C 0.5511(8) 0.3962(6) 0.3127(3)
C32 C 0.5529(8) 0.4915(6) 0.3181(3)
C33 C 0.5253(7) 0.5448(6) 0.2766(3)
C34 C 0.4925(7) 0.5083(6) 0.2307(3)
C35 C 0.5911(8) 0.5365(6) 0.3673(3)
S2 S 0.3307(2) 0.1667(2) -0.0142(1)
O11 O 0.3434(6) 0.0837(6) 0.0152(2)
O12 O 0.2642(5) 0.2393(7) 0.0011(3)
C36 C 0.2894(6) 0.1341(7) -0.0754(3)
C37 C 0.3051(8) 0.0440(8) -0.0921(4)
C38 C 0.2732(9) 0.0203(8) -0.1404(5)
C39 C 0.2291(8) 0.0821(10) -0.1734(4)
C40 C 0.2131(9) 0.1689(8) -0.1551(4)
C41 C 0.2450(7) 0.1971(7) -0.1079(3)
C42 C 0.1976(10) 0.0522(10) -0.2259(4)
H1 H 0.6630 0.4587 0.1282
H2 H 0.5456 0.4931 0.1191
H3 H 0.6044 0.2404 0.1705
H4 H 0.6942 0.3153 0.1660
H5 H 0.8901 0.1794 0.0418
H6 H 0.5251 0.2089 0.0734
H7 H 0.5185 0.0872 -0.0156
H8 H 0.5712 0.1564 -0.0530
H9 H 0.3901 0.3289 -0.0470
H10 H 0.4783 0.2849 -0.0804
H11 H 0.7748 0.4698 -0.0370
H12 H 0.4658 0.3704 0.0432
H13 H 0.5089 0.2885 0.2647
H14 H 0.5720 0.3576 0.3408
H15 H 0.5298 0.6112 0.2799
H16 H 0.4728 0.5469 0.2024
H17 H 0.5901 0.6032 0.3648
H18 H 0.5450 0.5170 0.3939
H19 H 0.6632 0.5158 0.3745
H20 H 0.3384 -0.0010 -0.0699
H21 H 0.2842 -0.0428 -0.1511
H22 H 0.1791 0.2135 -0.1773
H23 H 0.2320 0.2595 -0.0964
H24 H 0.2139 -0.0121 -0.2320
H25 H 0.1225 0.0630 -0.2327
H26 H 0.2396 0.0907 -0.2477
C43? C 0.8717(22) 0.5030(20) 0.2007(11)
C44? C 0.7751(22) 0.6026(21) 0.2165(12)
C45? C 0.7445(13) 0.6544(12) 0.2577(6)
C46? C 0.7908(23) 0.6272(22) 0.2738(11)
C47? C 0.9473(13) 0.6051(12) 0.2161(6)
C48? C 0.9542(15) 0.6170(14) 0.2445(8)
C49? C 0.9388(15) 0.5922(13) 0.2841(7)
C50? C 0.8095(17) 0.4480(17) 0.2390(9)
C51? C 0.8145(21) 0.4474(19) 0.2654(10)
C52? C 0.8798(22) 0.4245(17) 0.2720(9)
C53? C 0.8164(19) 0.5627(17) 0.2010(8)
C54? C 0.8213(42) 0.5085(43) 0.2493(25)
loop_
_geom_bond_atom_site_label_1
_geom_bond_atom_site_label_2
_geom_bond_site_symmetry_1
_geom_bond_site_symmetry_2
C1 N1 1_555 1_555
N1 C2 1_555 1_555
C2 C3 1_555 1_555
C3 C4 1_555 1_555
C4 C5 1_555 1_555
C5 O1 1_555 1_555
O2 C5 1_555 1_555
C6 O2 1_555 1_555
C7 C6 1_555 1_555
C8 C4 1_555 1_555
C9 C8 1_555 1_555
C10 C9 1_555 1_555
O3 C10 1_555 1_555
O4 C10 1_555 1_555
C11 O4 1_555 1_555
C12 C11 1_555 1_555
C13 C9 1_555 1_555
C14 C3 1_555 1_555
C15 C13 1_555 1_555
N2 C15 1_555 1_555
C16 N2 1_555 1_555
C17 C16 1_555 1_555
C18 C17 1_555 1_555
C19 C18 1_555 1_555
O5 C19 1_555 1_555
O6 C19 1_555 1_555
C20 O6 1_555 1_555
C21 C20 1_555 1_555
C22 C18 1_555 1_555
C23 C22 1_555 1_555
C24 C23 1_555 1_555
O7 C24 1_555 1_555
O8 C24 1_555 1_555
C25 O8 1_555 1_555
C26 C25 1_555 1_555
C27 C1 1_555 1_555
C28 C17 1_555 1_555
S1 N1 1_555 1_555
O9 S1 1_555 1_555
O10 S1 1_555 1_555
C29 S1 1_555 1_555
C30 C29 1_555 1_555
C31 C30 1_555 1_555
C32 C31 1_555 1_555
C33 C32 1_555 1_555
C34 C29 1_555 1_555
C35 C32 1_555 1_555
S2 N2 1_555 1_555
O11 S2 1_555 1_555
O12 S2 1_555 1_555
C36 S2 1_555 1_555
C37 C36 1_555 1_555
C38 C37 1_555 1_555
C39 C38 1_555 1_555
C40 C39 1_555 1_555
C41 C36 1_555 1_555
C42 C39 1_555 1_555
H1 C1 1_555 1_555
H2 C1 1_555 1_555
H3 C2 1_555 1_555
H4 C2 1_555 1_555
H5 C8 1_555 1_555
H6 C14 1_555 1_555
H7 C15 1_555 1_555
H8 C15 1_555 1_555
H9 C16 1_555 1_555
H10 C16 1_555 1_555
H11 C22 1_555 1_555
H12 C28 1_555 1_555
H13 C30 1_555 1_555
H14 C31 1_555 1_555
H15 C33 1_555 1_555
H16 C34 1_555 1_555
H17 C35 1_555 1_555
H18 C35 1_555 1_555
H19 C35 1_555 1_555
H20 C37 1_555 1_555
H21 C38 1_555 1_555
H22 C40 1_555 1_555
H23 C41 1_555 1_555
H24 C42 1_555 1_555
H25 C42 1_555 1_555
H26 C42 1_555 1_555
C13 C14 1_555 1_555
C23 C27 1_555 1_555
C27 C28 1_555 1_555
C33 C34 1_555 1_555
C40 C41 1_555 1_555

#END
