
#######################################################################
#
#                 Cambridge Crystallographic Data Centre
#                                CCDC 
#
#######################################################################
#
# If this CIF has been generated from an entry in the Cambridge 
# Structural Database, then it will include bibliographic, chemical, 
# crystal, experimental, refinement or atomic coordinate data resulting 
# from the CCDC's data processing and validation procedures.
#
#######################################################################

data_WEPVOD
_chemical_formula_moiety         'C7 H6 Cl2 N2 O1'
_chemical_name_systematic        2,4-Dichlorobenzohydrazide
_symmetry_cell_setting           monoclinic
_symmetry_space_group_name_H-M   'P 21/c'
_symmetry_Int_Tables_number      14
_space_group_name_Hall           '-P 2ybc'
loop_
_symmetry_equiv_pos_site_id
_symmetry_equiv_pos_as_xyz
1 x,y,z
2 -x,1/2+y,1/2-z
3 -x,-y,-z
4 x,1/2-y,1/2+z
_cell_length_a                   15.1188(17)
_cell_length_b                   3.8801(4)
_cell_length_c                   13.6029(14)
_cell_angle_alpha                90
_cell_angle_beta                 91.106(6)
_cell_angle_gamma                90
_cell_volume                     797.831
_exptl_crystal_colour            colorless
_exptl_crystal_description       plate
_chemical_melting_point          413-414K
_cell_formula_units_Z            4
loop_
_atom_site_label
_atom_site_type_symbol
_atom_site_fract_x
_atom_site_fract_y
_atom_site_fract_z
C1 C 0.28265(17) 0.4675(7) 0.64675(18)
C2 C 0.23079(17) 0.5077(7) 0.56096(18)
Cl1 Cl 0.27176(5) 0.70300(18) 0.45593(5)
C3 C 0.14354(18) 0.4002(7) 0.55600(18)
C4 C 0.10744(17) 0.2413(7) 0.63718(19)
Cl2 Cl -0.00183(4) 0.10534(18) 0.63134(5)
C5 C 0.15681(18) 0.1920(7) 0.72318(19)
C6 C 0.24298(18) 0.3089(7) 0.72698(18)
C7 C 0.37502(17) 0.5969(7) 0.66526(18)
O1 O 0.39536(12) 0.7165(5) 0.74710(13)
N1 N 0.43400(14) 0.5681(6) 0.59380(16)
N2 N 0.52219(14) 0.6877(6) 0.60524(15)
H1 H 0.1089 0.4349 0.4978
H2 H 0.1318 0.0803 0.7782
H3 H 0.2766 0.2805 0.7862
H4 H 0.4232 0.4890 0.5367
H5 H 0.5229 0.9039 0.6188
H6 H 0.5443 0.5863 0.6535
loop_
_geom_bond_atom_site_label_1
_geom_bond_atom_site_label_2
_geom_bond_site_symmetry_1
_geom_bond_site_symmetry_2
C1 C2 1_555 1_555
C2 Cl1 1_555 1_555
C3 C2 1_555 1_555
C4 C3 1_555 1_555
Cl2 C4 1_555 1_555
C5 C4 1_555 1_555
C6 C1 1_555 1_555
C7 C1 1_555 1_555
O1 C7 1_555 1_555
N1 C7 1_555 1_555
N2 N1 1_555 1_555
H1 C3 1_555 1_555
H2 C5 1_555 1_555
H3 C6 1_555 1_555
H4 N1 1_555 1_555
H5 N2 1_555 1_555
H6 N2 1_555 1_555
C5 C6 1_555 1_555

#END
