
#######################################################################
#
#                 Cambridge Crystallographic Data Centre
#                                CCDC 
#
#######################################################################
#
# If this CIF has been generated from an entry in the Cambridge 
# Structural Database, then it will include bibliographic, chemical, 
# crystal, experimental, refinement or atomic coordinate data resulting 
# from the CCDC's data processing and validation procedures.
#
#######################################################################

data_WEQCIG
_chemical_formula_moiety         'C42 H68 N2 O4 Sr1'
_chemical_name_systematic        
bis(N,N'-bis(2,6-Di-isopropylphenyl)ethene-1,2-diamine)-tetrakis(tetrahydrofuran)-strontium
_symmetry_cell_setting           monoclinic
_symmetry_space_group_name_H-M   'P 21/c'
_symmetry_Int_Tables_number      14
_space_group_name_Hall           '-P 2ybc'
loop_
_symmetry_equiv_pos_site_id
_symmetry_equiv_pos_as_xyz
1 x,y,z
2 -x,1/2+y,1/2-z
3 -x,-y,-z
4 x,1/2-y,1/2+z
_cell_length_a                   13.662(5)
_cell_length_b                   17.422(5)
_cell_length_c                   19.213(4)
_cell_angle_alpha                90
_cell_angle_beta                 115.621(17)
_cell_angle_gamma                90
_cell_volume                     4123.42
_exptl_crystal_colour            red
_exptl_crystal_description       block
_cell_formula_units_Z            4
loop_
_atom_site_label
_atom_site_type_symbol
_atom_site_fract_x
_atom_site_fract_y
_atom_site_fract_z
Sr1 Sr 0.22420(4) 0.74303(3) 0.73731(3)
O1 O 0.1910(6) 0.8284(3) 0.8349(3)
O2 O 0.4129(4) 0.7151(3) 0.8493(2)
O3 O 0.3062(3) 0.87619(19) 0.7286(2)
N1 N 0.2477(3) 0.6335(2) 0.6638(2)
N2 N 0.1264(5) 0.6352(3) 0.7608(3)
C1 C 0.1388(4) 0.6110(3) 0.6402(3)
H1 H 0.1025 0.5918 0.5903
C2 C 0.0825(5) 0.6144(3) 0.6825(4)
H2 H 0.0091 0.6021 0.6583
C3 C 0.3058(4) 0.5961(3) 0.6313(3)
C4 C 0.4447(10) 0.6051(5) 0.5847(8)
H3 H 0.4999 0.6326 0.5799
C5 C 0.4179(10) 0.5340(5) 0.5512(8)
H4 H 0.4510 0.5153 0.5212
C6 C 0.3425(8) 0.4909(4) 0.5620(6)
H5 H 0.3265 0.4419 0.5408
C7 C 0.2886(5) 0.5185(3) 0.6042(3)
C8 C 0.2221(4) 0.4610(2) 0.6243(3)
H6 H 0.1887 0.4879 0.6534
C9 C 0.2926(5) 0.3965(3) 0.6750(4)
H7 H 0.3278 0.3702 0.6481
H8 H 0.2479 0.3610 0.6865
H9 H 0.3464 0.4177 0.7221
C10 C 0.1312(6) 0.4263(4) 0.5523(5)
H10 H 0.0870 0.4667 0.5200
H11 H 0.0873 0.3934 0.5674
H12 H 0.1621 0.3970 0.5245
C11 C 0.4230(7) 0.7170(5) 0.6588(6)
H13 H 0.4035 0.7215 0.7022
C12 C 0.3558(6) 0.7763(4) 0.5975(4)
H14 H 0.3722 0.7723 0.5539
H15 H 0.3733 0.8270 0.6190
H16 H 0.2799 0.7667 0.5814
C13 C 0.5450(6) 0.7340(5) 0.6894(8)
H17 H 0.5855 0.6968 0.7280
H18 H 0.5599 0.7845 0.7117
H19 H 0.5656 0.7314 0.6477
C14 C 0.0922(14) 0.6109(9) 0.8159(11)
C15 C 0.1630(17) 0.5725(7) 0.8871(8)
C16 C 0.1200(12) 0.5444(6) 0.9370(7)
H20 H 0.1664 0.5214 0.9833
C17 C 0.0136(18) 0.5500(8) 0.9196(12)
H21 H -0.0143 0.5270 0.9510
C18 C -0.0557(14) 0.5916(10) 0.8525(10)
H22 H -0.1281 0.5983 0.8425
C19 C -0.0190(13) 0.6227(7) 0.8015(9)
C20 C 0.2832(12) 0.5598(9) 0.9066(9)
H23 H 0.3082 0.6066 0.8910
C21 C 0.2933(11) 0.4950(8) 0.8565(9)
H24 H 0.3671 0.4916 0.8634
H25 H 0.2466 0.5053 0.8033
H26 H 0.2725 0.4473 0.8714
C22 C 0.3580(13) 0.5473(9) 0.9906(8)
H27 H 0.3365 0.5018 1.0085
H28 H 0.3541 0.5906 1.0201
H29 H 0.4311 0.5414 0.9966
C23 C -0.0930(11) 0.6730(8) 0.7364(10)
H30 H -0.0497 0.6962 0.7125
C24 C -0.1871(11) 0.6288(8) 0.6732(8)
H31 H -0.1584 0.5878 0.6542
H32 H -0.2280 0.6631 0.6316
H33 H -0.2335 0.6081 0.6943
C25 C -0.1381(10) 0.7390(7) 0.7684(8)
H34 H -0.1826 0.7180 0.7909
H35 H -0.1807 0.7731 0.7270
H36 H -0.0787 0.7669 0.8069
C26 C 0.1782(7) 0.7938(4) 0.8967(4)
H37 H 0.2489 0.7804 0.9371
H38 H 0.1364 0.7469 0.8791
C27 C 0.1235(5) 0.8452(3) 0.9273(3)
H39 H 0.1748 0.8656 0.9767
H40 H 0.0672 0.8179 0.9351
C28 C 0.0720(5) 0.9127(3) 0.8679(3)
H43 H -0.0031 0.9026 0.8329
H44 H 0.0771 0.9615 0.8937
C29 C 0.1427(5) 0.9099(3) 0.8288(3)
H45 H 0.2010 0.9468 0.8521
H46 H 0.1016 0.9235 0.7749
C30 C -0.0174(5) 0.8539(3) 0.6562(3)
H47 H -0.0052 0.9089 0.6605
H48 H -0.0217 0.8357 0.7026
H51 H -0.1108 0.7274 0.5237
C33 C 0.4694(7) 0.7495(4) 0.9233(4)
H53 H 0.4445 0.7265 0.9588
H54 H 0.4518 0.8037 0.9194
C34 C 0.593(3) 0.7405(13) 0.9566(18)
H55 H 0.6240 0.7219 1.0094
H56 H 0.6283 0.7883 0.9545
C35 C 0.6025(18) 0.6807(12) 0.9015(11)
H57 H 0.6512 0.6396 0.9301
H58 H 0.6294 0.7039 0.8673
C36 C 0.4737(4) 0.6467(3) 0.8505(3)
H59 H 0.4609 0.6307 0.7989
H60 H 0.4576 0.6045 0.8769
C37 C 0.2523(4) 0.9369(3) 0.6731(3)
H61 H 0.1889 0.9552 0.6785
H62 H 0.2299 0.9187 0.6207
C38 C 0.3368(5) 1.0003(3) 0.6922(4)
H63 H 0.3240 1.0296 0.6462
H64 H 0.3324 1.0348 0.7303
C39 C 0.4356(5) 0.9672(3) 0.7201(4)
H65 H 0.4915 1.0018 0.7541
H66 H 0.4536 0.9508 0.6788
C40 C 0.4206(9) 0.8989(7) 0.7642(8)
H67 H 0.4655 0.8564 0.7627
H68 H 0.4424 0.9127 0.8178
C42 C -0.1227(9) 0.8343(8) 0.5837(9)
H71 H -0.1773 0.8139 0.5982
H72 H -0.1516 0.8796 0.5520
C43 C -0.0901(14) 0.7759(11) 0.5417(10)
H73 H -0.1328 0.7806 0.4864
O5 O 0.0679(13) 0.8153(10) 0.6456(7)
C45 C 0.0300(13) 0.7943(10) 0.5647(10)
H77 H 0.0685 0.7499 0.5587
H78 H 0.0378 0.8366 0.5346
C48 C 0.3927(5) 0.6377(3) 0.6256(4)
H41? H 0.1572 0.8466 0.9833
H42? H 0.0474 0.8320 0.9087
C31? C -0.1162(10) 0.8450(8) 0.5343(8)
H49? H -0.1821 0.8384 0.5412
H50? H -0.1265 0.8872 0.4989
C32? C -0.0886(13) 0.7724(10) 0.5044(9)
H52? H -0.1225 0.7713 0.4484
C41? C -0.0194(9) 0.8601(7) 0.6115(7)
H69? H 0.0036 0.9132 0.6152
H70? H -0.0377 0.8490 0.6540
H74? H -0.0985 0.7244 0.5576
C44? C 0.0312(14) 0.7770(11) 0.5355(10)
H75? H 0.0626 0.7265 0.5379
H76? H 0.0526 0.8102 0.5040
O4? O 0.0651(14) 0.8090(10) 0.6130(8)
C46? C 0.2164(15) 0.9109(8) 0.8550(11)
H79? H 0.1984 0.9428 0.8097
H80? H 0.2917 0.9188 0.8911
C47? C 0.1399(14) 0.9233(8) 0.8918(9)
H81? H 0.0705 0.9417 0.8534
H82? H 0.1696 0.9618 0.9320
C49? C 0.0457(16) 0.6193(10) 0.7900(11)
C50? C 0.1011(14) 0.5844(9) 0.8620(11)
C51? C 0.0441(18) 0.5708(10) 0.9070(11)
C52? C -0.0575(16) 0.5856(12) 0.8844(10)
C53? C -0.1145(11) 0.6231(8) 0.8117(8)
C54? C -0.0634(14) 0.6413(8) 0.7645(10)
C55? C 0.2222(17) 0.5595(7) 0.8895(8)
C56? C 0.2261(13) 0.4885(8) 0.8411(9)
C57? C 0.2844(14) 0.5418(9) 0.9762(8)
C58? C -0.1249(11) 0.6872(7) 0.6906(9)
C59? C -0.2171(12) 0.6408(8) 0.6288(9)
C60? C -0.1686(9) 0.7620(6) 0.7097(8)
C61? C 0.556(2) 0.6945(12) 0.9672(17)
C62? C 0.5458(19) 0.6284(12) 0.9222(10)
C63? C 0.4039(10) 0.9913(7) 0.7813(7)
C64? C 0.3975(10) 0.9086(7) 0.8005(7)
H83? H 0.0822 0.5499 0.9559
H84? H -0.0928 0.5723 0.9146
H85? H -0.1873 0.6356 0.7953
H86? H 0.2601 0.6017 0.8778
H87? H 0.3000 0.4723 0.8580
H88? H 0.1962 0.5022 0.7875
H89? H 0.1845 0.4473 0.8481
H90? H 0.2386 0.5129 0.9930
H91? H 0.3051 0.5890 1.0047
H92? H 0.3482 0.5124 0.9852
H93? H -0.0734 0.7012 0.6697
H94? H -0.2657 0.6230 0.6494
H95? H -0.1872 0.5976 0.6136
H96? H -0.2561 0.6728 0.5847
H97? H -0.2237 0.7499 0.7263
H98? H -0.1989 0.7938 0.6645
H99? H -0.1103 0.7889 0.7501
H100? H 0.4207 0.7597 0.9469
H101? H 0.5035 0.7971 0.9195
H102? H 0.6260 0.7181 0.9812
H103? H 0.5504 0.6803 1.0142
H104? H 0.6152 0.6151 0.9230
H105? H 0.5202 0.5853 0.9417
H106? H 0.4237 0.6045 0.8275
H107? H 0.5132 0.6553 0.8196
H108? H 0.3028 1.0504 0.6792
H109? H 0.3819 0.9927 0.6652
H110? H 0.4788 1.0060 0.7966
H111? H 0.3740 1.0238 0.8084
H112? H 0.3812 0.9038 0.8447
H113? H 0.4653 0.8823 0.8116
loop_
_geom_bond_atom_site_label_1
_geom_bond_atom_site_label_2
_geom_bond_site_symmetry_1
_geom_bond_site_symmetry_2
Sr1 O1 1_555 1_555
O1 C26 1_555 1_555
O2 Sr1 1_555 1_555
O3 Sr1 1_555 1_555
N1 Sr1 1_555 1_555
N2 Sr1 1_555 1_555
C1 N1 1_555 1_555
H1 C1 1_555 1_555
C2 N2 1_555 1_555
H2 C2 1_555 1_555
C3 N1 1_555 1_555
C4 H3 1_555 1_555
C5 C4 1_555 1_555
H4 C5 1_555 1_555
C6 C5 1_555 1_555
H5 C6 1_555 1_555
C7 C3 1_555 1_555
C8 C7 1_555 1_555
H6 C8 1_555 1_555
C9 C8 1_555 1_555
H7 C9 1_555 1_555
H8 C9 1_555 1_555
H9 C9 1_555 1_555
C10 C8 1_555 1_555
H10 C10 1_555 1_555
H11 C10 1_555 1_555
H12 C10 1_555 1_555
C11 H13 1_555 1_555
C12 C11 1_555 1_555
H14 C12 1_555 1_555
H15 C12 1_555 1_555
H16 C12 1_555 1_555
C13 C11 1_555 1_555
H17 C13 1_555 1_555
H18 C13 1_555 1_555
H19 C13 1_555 1_555
C14 N2 1_555 1_555
C15 C14 1_555 1_555
C16 C15 1_555 1_555
H20 C16 1_555 1_555
C17 C16 1_555 1_555
H21 C17 1_555 1_555
C18 C17 1_555 1_555
H22 C18 1_555 1_555
C19 C14 1_555 1_555
C20 C15 1_555 1_555
H23 C20 1_555 1_555
C21 C20 1_555 1_555
H24 C21 1_555 1_555
H25 C21 1_555 1_555
H26 C21 1_555 1_555
C22 C20 1_555 1_555
H27 C22 1_555 1_555
H28 C22 1_555 1_555
H29 C22 1_555 1_555
C23 C19 1_555 1_555
H30 C23 1_555 1_555
C24 C23 1_555 1_555
H31 C24 1_555 1_555
H32 C24 1_555 1_555
H33 C24 1_555 1_555
C25 C23 1_555 1_555
H34 C25 1_555 1_555
H35 C25 1_555 1_555
H36 C25 1_555 1_555
C26 H37 1_555 1_555
H38 C26 1_555 1_555
C27 C26 1_555 1_555
H39 C27 1_555 1_555
H40 C27 1_555 1_555
C28 C27 1_555 1_555
H43 C28 1_555 1_555
H44 C28 1_555 1_555
C29 O1 1_555 1_555
H45 C29 1_555 1_555
H46 C29 1_555 1_555
C30 H47 1_555 1_555
H48 C30 1_555 1_555
H51 C43 1_555 1_555
C33 O2 1_555 1_555
H53 C33 1_555 1_555
H54 C33 1_555 1_555
C34 C33 1_555 1_555
H55 C34 1_555 1_555
H56 C34 1_555 1_555
C35 C34 1_555 1_555
H57 C35 1_555 1_555
H58 C35 1_555 1_555
C36 O2 1_555 1_555
H59 C36 1_555 1_555
H60 C36 1_555 1_555
C37 O3 1_555 1_555
H61 C37 1_555 1_555
H62 C37 1_555 1_555
C38 C37 1_555 1_555
H63 C38 1_555 1_555
H64 C38 1_555 1_555
C39 C38 1_555 1_555
H65 C39 1_555 1_555
H66 C39 1_555 1_555
C40 O3 1_555 1_555
H67 C40 1_555 1_555
H68 C40 1_555 1_555
C42 C30 1_555 1_555
H71 C42 1_555 1_555
H72 C42 1_555 1_555
C43 C42 1_555 1_555
H73 C43 1_555 1_555
O5 Sr1 1_555 1_555
C45 C43 1_555 1_555
H77 C45 1_555 1_555
H78 C45 1_555 1_555
C48 C3 1_555 1_555
C1 C2 1_555 1_555
C4 C48 1_555 1_555
C6 C7 1_555 1_555
C11 C48 1_555 1_555
C18 C19 1_555 1_555
C28 C29 1_555 1_555
C30 O5 1_555 1_555
C35 C36 1_555 1_555
C39 C40 1_555 1_555
O5 C45 1_555 1_555

#END
