
#######################################################################
#
#                 Cambridge Crystallographic Data Centre
#                                CCDC 
#
#######################################################################
#
# If this CIF has been generated from an entry in the Cambridge 
# Structural Database, then it will include bibliographic, chemical, 
# crystal, experimental, refinement or atomic coordinate data resulting 
# from the CCDC's data processing and validation procedures.
#
#######################################################################

data_WEQCON
_chemical_formula_moiety         'C22 H22 N2 O2'
_chemical_name_systematic        
4-t-butyl-N'-[(2-hydroxynaphthalen-1-yl)methylidene]benzohydrazide
_symmetry_cell_setting           monoclinic
_symmetry_space_group_name_H-M   'P 21/c'
_symmetry_Int_Tables_number      14
_space_group_name_Hall           '-P 2ybc'
loop_
_symmetry_equiv_pos_site_id
_symmetry_equiv_pos_as_xyz
1 x,y,z
2 -x,1/2+y,1/2-z
3 -x,-y,-z
4 x,1/2-y,1/2+z
_cell_length_a                   12.888(9)
_cell_length_b                   15.543(10)
_cell_length_c                   9.119(6)
_cell_angle_alpha                90
_cell_angle_beta                 94.05(3)
_cell_angle_gamma                90
_cell_volume                     1822.14
_exptl_crystal_colour            'light yellow'
_exptl_crystal_description       block
_cell_formula_units_Z            4
loop_
_atom_site_label
_atom_site_type_symbol
_atom_site_fract_x
_atom_site_fract_y
_atom_site_fract_z
O1 O 0.05866(8) 0.38860(6) 0.22147(11)
H1 H 0.092509 0.351147 0.271037
O2 O 0.21538(8) 0.17899(6) 0.32094(10)
N1 N 0.17449(9) 0.32944(7) 0.44102(12)
N2 N 0.21577(9) 0.26196(7) 0.52496(12)
H2 H 0.229708 0.267313 0.620384
C1 C 0.06931(10) 0.46544(9) 0.28968(15)
C2 C 0.01697(11) 0.53570(10) 0.21839(16)
H3 H -0.023004 0.526871 0.128086
C3 C 0.02371(11) 0.61569(9) 0.27864(17)
H4 H -0.012977 0.661825 0.230330
C4 C 0.08407(10) 0.63196(9) 0.41165(16)
C5 C 0.09585(11) 0.71640(9) 0.46980(18)
H5 H 0.060780 0.762930 0.420281
C6 C 0.15670(12) 0.73186(9) 0.59561(18)
H6 H 0.164883 0.788874 0.632157
C7 C 0.20731(12) 0.66295(9) 0.67102(17)
H7 H 0.249043 0.673544 0.759245
C8 C 0.19673(11) 0.58051(9) 0.61785(15)
H8 H 0.231118 0.534827 0.670685
C9 C 0.13590(10) 0.56185(8) 0.48636(15)
C10 C 0.12615(10) 0.47679(8) 0.42414(14)
C11 C 0.17243(10) 0.40360(8) 0.50335(14)
H9 H 0.201240 0.410533 0.601424
C12 C 0.23389(10) 0.18746(8) 0.45474(14)
C13 C 0.28093(10) 0.11549(8) 0.54477(14)
C14 C 0.34750(12) 0.12719(9) 0.66882(16)
H10 H 0.357636 0.183199 0.709005
C15 C 0.39970(13) 0.05755(9) 0.73513(16)
H11 H 0.445783 0.067146 0.819508
C16 C 0.38636(10) -0.02590(8) 0.68141(14)
C17 C 0.31436(11) -0.03701(9) 0.56210(17)
H12 H 0.299899 -0.093469 0.526348
C18 C 0.26316(11) 0.03216(9) 0.49399(16)
H13 H 0.215318 0.022484 0.411556
C19 C 0.44621(10) -0.10233(8) 0.75233(15)
C20 C 0.45667(15) -0.17539(11) 0.6417(2)
H14 H 0.499358 -0.221528 0.687655
H15 H 0.489825 -0.153485 0.555683
H16 H 0.387520 -0.197894 0.610790
C21 C 0.38667(13) -0.13537(11) 0.88045(19)
H17 H 0.317683 -0.155417 0.843189
H18 H 0.379088 -0.088741 0.951241
H19 H 0.425128 -0.183092 0.928939
C22 C 0.55571(11) -0.07599(10) 0.81169(19)
H20 H 0.550812 -0.031878 0.887677
H21 H 0.593955 -0.052875 0.731310
H22 H 0.592441 -0.126350 0.854078
loop_
_geom_bond_atom_site_label_1
_geom_bond_atom_site_label_2
_geom_bond_site_symmetry_1
_geom_bond_site_symmetry_2
O1 H1 1_555 1_555
O2 C12 1_555 1_555
N1 N2 1_555 1_555
N2 H2 1_555 1_555
C1 O1 1_555 1_555
C2 C1 1_555 1_555
H3 C2 1_555 1_555
C3 C2 1_555 1_555
H4 C3 1_555 1_555
C4 C3 1_555 1_555
C5 C4 1_555 1_555
H5 C5 1_555 1_555
C6 C5 1_555 1_555
H6 C6 1_555 1_555
C7 C6 1_555 1_555
H7 C7 1_555 1_555
C8 C7 1_555 1_555
H8 C8 1_555 1_555
C9 C4 1_555 1_555
C10 C1 1_555 1_555
C11 N1 1_555 1_555
H9 C11 1_555 1_555
C12 N2 1_555 1_555
C13 C12 1_555 1_555
C14 C13 1_555 1_555
H10 C14 1_555 1_555
C15 C14 1_555 1_555
H11 C15 1_555 1_555
C16 C15 1_555 1_555
C17 C16 1_555 1_555
H12 C17 1_555 1_555
C18 C13 1_555 1_555
H13 C18 1_555 1_555
C19 C16 1_555 1_555
C20 C19 1_555 1_555
H14 C20 1_555 1_555
H15 C20 1_555 1_555
H16 C20 1_555 1_555
C21 C19 1_555 1_555
H17 C21 1_555 1_555
H18 C21 1_555 1_555
H19 C21 1_555 1_555
C22 C19 1_555 1_555
H20 C22 1_555 1_555
H21 C22 1_555 1_555
H22 C22 1_555 1_555
C8 C9 1_555 1_555
C9 C10 1_555 1_555
C10 C11 1_555 1_555
C17 C18 1_555 1_555

#END
