
#######################################################################
#
#                 Cambridge Crystallographic Data Centre
#                                CCDC 
#
#######################################################################
#
# If this CIF has been generated from an entry in the Cambridge 
# Structural Database, then it will include bibliographic, chemical, 
# crystal, experimental, refinement or atomic coordinate data resulting 
# from the CCDC's data processing and validation procedures.
#
#######################################################################

data_WEQLUC
_chemical_formula_moiety         'C24 H36 Mg1 N12 2+,2(C2 F6 N1 O4 S2 1-)'
_chemical_name_systematic        
'hexakis(1-methyl-1H-imidazole)-magnesium bis{bis[(trifluoromethyl)sulfonyl]imide}'
_symmetry_cell_setting           monoclinic
_symmetry_space_group_name_H-M   'P 21/c'
_symmetry_Int_Tables_number      14
_space_group_name_Hall           '-P 2ybc'
loop_
_symmetry_equiv_pos_site_id
_symmetry_equiv_pos_as_xyz
1 x,y,z
2 -x,1/2+y,1/2-z
3 -x,-y,-z
4 x,1/2-y,1/2+z
_cell_length_a                   8.2062(7)
_cell_length_b                   11.3185(10)
_cell_length_c                   24.454(2)
_cell_angle_alpha                90
_cell_angle_beta                 90.229(2)
_cell_angle_gamma                90
_cell_volume                     2271.32
_exptl_crystal_colour            colorless
_exptl_crystal_description       chunk
_cell_formula_units_Z            2
loop_
_atom_site_label
_atom_site_type_symbol
_atom_site_fract_x
_atom_site_fract_y
_atom_site_fract_z
S1 S 0.28679(16) 0.46169(12) 0.25785(5)
S2 S 0.19669(15) 0.46921(10) 0.36767(5)
F1 F 0.0197(4) 0.6615(3) 0.36622(15)
F2 F 0.2747(4) 0.6895(3) 0.34996(17)
O1 O 0.0674(5) 0.4166(3) 0.39862(15)
F3 F 0.1942(5) 0.6532(3) 0.43129(15)
O2 O 0.2109(6) 0.5077(4) 0.20950(16)
O3 O 0.3611(4) 0.4467(4) 0.38467(15)
O4 O 0.4456(5) 0.5036(4) 0.27227(17)
F4 F 0.3613(5) 0.2460(3) 0.28666(15)
N1 N 0.1566(5) 0.4567(4) 0.30500(17)
F5 F 0.1809(5) 0.2571(4) 0.22325(18)
C1 C 0.1689(6) 0.6272(5) 0.3787(2)
F6 F 0.4312(5) 0.2933(4) 0.20493(17)
C2 C 0.3157(7) 0.3056(6) 0.2421(2)
Mg1 Mg 0.0000 0.0000 0.5000
N2 N -0.1565(4) 0.1297(3) 0.45724(14)
N3 N 0.1479(4) -0.0124(3) 0.42569(15)
N4 N 0.2115(5) -0.0317(4) 0.33861(16)
N5 N -0.2581(5) 0.2455(3) 0.39288(14)
N6 N -0.2647(5) -0.3220(3) 0.45815(16)
N7 N -0.1599(5) -0.1429(3) 0.46997(15)
C3 C 0.3018(6) 0.0341(4) 0.41719(19)
H1 H 0.3674 0.0682 0.4440
C4 C -0.1341(6) 0.1767(4) 0.40849(19)
H2 H -0.0420 0.1634 0.3873
C5 C 0.1006(6) -0.0516(4) 0.37764(18)
H3 H 0.0014 -0.0890 0.3714
C6 C -0.3069(6) 0.1730(4) 0.4741(2)
H4 H -0.3565 0.1557 0.5072
C7 C -0.1535(6) -0.2558(4) 0.48503(19)
H5 H -0.0812 -0.2856 0.5110
C8 C 0.3419(6) 0.0222(5) 0.3638(2)
H6 H 0.4386 0.0459 0.3474
C9 C -0.3707(6) 0.2449(4) 0.4343(2)
H7 H -0.4695 0.2851 0.4352
C10 C -0.2820(6) -0.1386(5) 0.43160(19)
H8 H -0.3159 -0.0704 0.4136
C11 C -0.3461(6) -0.2468(5) 0.4237(2)
H9 H -0.4294 -0.2666 0.3995
C12 C 0.1962(7) -0.0611(6) 0.28079(19)
H10 H 0.1621 -0.1419 0.2771
H11 H 0.2995 -0.0506 0.2632
H12 H 0.1168 -0.0103 0.2640
C13 C -0.2710(7) 0.3083(5) 0.3407(2)
H13 H -0.1682 0.3441 0.3322
H14 H -0.3531 0.3684 0.3434
H15 H -0.3003 0.2536 0.3123
C14 C -0.2860(8) -0.4495(5) 0.4632(3)
H16 H -0.1837 -0.4882 0.4569
H17 H -0.3644 -0.4761 0.4367
H18 H -0.3240 -0.4680 0.4993
N2B N 0.1565(4) -0.1297(3) 0.54276(14)
N3B N -0.1479(4) 0.0124(3) 0.57431(15)
N4B N -0.2115(5) 0.0317(4) 0.66139(16)
N5B N 0.2581(5) -0.2455(3) 0.60712(14)
N6B N 0.2647(5) 0.3220(3) 0.54185(16)
N7B N 0.1599(5) 0.1429(3) 0.53003(15)
C3B C -0.3018(6) -0.0341(4) 0.58281(19)
H1B H -0.3674 -0.0682 0.5560
C4B C 0.1341(6) -0.1767(4) 0.59151(19)
H2B H 0.0420 -0.1634 0.6127
C5B C -0.1006(6) 0.0516(4) 0.62236(18)
H3B H -0.0014 0.0890 0.6286
C6B C 0.3069(6) -0.1730(4) 0.5259(2)
H4B H 0.3565 -0.1557 0.4928
C7B C 0.1535(6) 0.2558(4) 0.51497(19)
H5B H 0.0812 0.2856 0.4890
C8B C -0.3419(6) -0.0222(5) 0.6362(2)
H6B H -0.4386 -0.0459 0.6526
C9B C 0.3707(6) -0.2449(4) 0.5657(2)
H7B H 0.4695 -0.2851 0.5648
C10B C 0.2820(6) 0.1386(5) 0.56840(19)
H8B H 0.3159 0.0704 0.5864
C11B C 0.3461(6) 0.2468(5) 0.5763(2)
H9B H 0.4294 0.2666 0.6005
C12B C -0.1962(7) 0.0611(6) 0.71921(19)
H10B H -0.1621 0.1419 0.7229
H11B H -0.2995 0.0506 0.7368
H12B H -0.1168 0.0103 0.7360
C13B C 0.2710(7) -0.3083(5) 0.6593(2)
H13B H 0.1682 -0.3441 0.6678
H14B H 0.3531 -0.3684 0.6566
H15B H 0.3003 -0.2536 0.6877
C14B C 0.2860(8) 0.4495(5) 0.5368(3)
H16B H 0.1837 0.4882 0.5431
H17B H 0.3644 0.4761 0.5633
H18B H 0.3240 0.4680 0.5007
loop_
_geom_bond_atom_site_label_1
_geom_bond_atom_site_label_2
_geom_bond_site_symmetry_1
_geom_bond_site_symmetry_2
S1 O2 1_555 1_555
S2 O1 1_555 1_555
F1 C1 1_555 1_555
F2 C1 1_555 1_555
F3 C1 1_555 1_555
O3 S2 1_555 1_555
O4 S1 1_555 1_555
F4 C2 1_555 1_555
N1 S1 1_555 1_555
F5 C2 1_555 1_555
C1 S2 1_555 1_555
F6 C2 1_555 1_555
C2 S1 1_555 1_555
Mg1 N2 1_555 1_555
N2 C4 1_555 1_555
N3 Mg1 1_555 1_555
N4 C5 1_555 1_555
N5 C4 1_555 1_555
N6 C7 1_555 1_555
N7 Mg1 1_555 1_555
C3 N3 1_555 1_555
H1 C3 1_555 1_555
C4 H2 1_555 1_555
C5 N3 1_555 1_555
H3 C5 1_555 1_555
C6 N2 1_555 1_555
H4 C6 1_555 1_555
C7 N7 1_555 1_555
H5 C7 1_555 1_555
C8 N4 1_555 1_555
H6 C8 1_555 1_555
C9 N5 1_555 1_555
H7 C9 1_555 1_555
C10 N7 1_555 1_555
H8 C10 1_555 1_555
C11 N6 1_555 1_555
H9 C11 1_555 1_555
C12 N4 1_555 1_555
H10 C12 1_555 1_555
H11 C12 1_555 1_555
H12 C12 1_555 1_555
C13 N5 1_555 1_555
H13 C13 1_555 1_555
H14 C13 1_555 1_555
H15 C13 1_555 1_555
C14 N6 1_555 1_555
H16 C14 1_555 1_555
H17 C14 1_555 1_555
H18 C14 1_555 1_555
N2B Mg1 1_555 1_555
N3B Mg1 1_555 1_555
N4B C5B 1_555 1_555
N5B C4B 1_555 1_555
N6B C7B 1_555 1_555
N7B Mg1 1_555 1_555
C3B N3B 1_555 1_555
H1B C3B 1_555 1_555
C4B N2B 1_555 1_555
H2B C4B 1_555 1_555
C5B N3B 1_555 1_555
H3B C5B 1_555 1_555
C6B N2B 1_555 1_555
H4B C6B 1_555 1_555
C7B N7B 1_555 1_555
H5B C7B 1_555 1_555
C8B N4B 1_555 1_555
H6B C8B 1_555 1_555
C9B N5B 1_555 1_555
H7B C9B 1_555 1_555
C10B N7B 1_555 1_555
H8B C10B 1_555 1_555
C11B N6B 1_555 1_555
H9B C11B 1_555 1_555
C12B N4B 1_555 1_555
H10B C12B 1_555 1_555
H11B C12B 1_555 1_555
H12B C12B 1_555 1_555
C13B N5B 1_555 1_555
H13B C13B 1_555 1_555
H14B C13B 1_555 1_555
H15B C13B 1_555 1_555
C14B N6B 1_555 1_555
H16B C14B 1_555 1_555
H17B C14B 1_555 1_555
H18B C14B 1_555 1_555
S2 N1 1_555 1_555
C3 C8 1_555 1_555
C6 C9 1_555 1_555
C10 C11 1_555 1_555
C3B C8B 1_555 1_555
C6B C9B 1_555 1_555
C10B C11B 1_555 1_555

#END
