
#######################################################################
#
#                 Cambridge Crystallographic Data Centre
#                                CCDC 
#
#######################################################################
#
# If this CIF has been generated from an entry in the Cambridge 
# Structural Database, then it will include bibliographic, chemical, 
# crystal, experimental, refinement or atomic coordinate data resulting 
# from the CCDC's data processing and validation procedures.
#
#######################################################################

data_WEQYAT
_chemical_formula_moiety         'C21 H30 N2 O3 2+,2(I1 1-),2.5(H2 O1)'
_chemical_name_systematic        
"2,2'-bis(trimethylammoniomethylene)-4,4'-dihydroxybenzophenone diiodide hydrate"
_symmetry_cell_setting           orthorhombic
_symmetry_space_group_name_H-M   'F d d 2'
_symmetry_Int_Tables_number      43
_space_group_name_Hall           'F 2 -2d'
loop_
_symmetry_equiv_pos_site_id
_symmetry_equiv_pos_as_xyz
1 x,y,z
2 -x,-y,z
3 1/4-x,1/4+y,1/4+z
4 3/4+x,3/4-y,1/4+z
5 x,1/2+y,1/2+z
6 -x,1/2-y,1/2+z
7 1/4-x,3/4+y,3/4+z
8 3/4+x,1/4-y,3/4+z
9 1/2+x,y,1/2+z
10 1/2-x,-y,1/2+z
11 3/4-x,1/4+y,3/4+z
12 1/4+x,3/4-y,3/4+z
13 1/2+x,1/2+y,z
14 1/2-x,1/2-y,z
15 3/4-x,3/4+y,1/4+z
16 1/4+x,1/4-y,1/4+z
_cell_length_a                   21.868(4)
_cell_length_b                   25.240(4)
_cell_length_c                   9.6164(16)
_cell_angle_alpha                90
_cell_angle_beta                 90
_cell_angle_gamma                90
_cell_volume                     5307.76
_cell_formula_units_Z            8
loop_
_atom_site_label
_atom_site_type_symbol
_atom_site_fract_x
_atom_site_fract_y
_atom_site_fract_z
I1 I 0.21495(3) 0.10885(2) 0.92999(8)
N1 N 0.1699(2) 0.03392(17) 0.5001(6)
O1 O 0.2500 0.2500 0.6474(6)
O2 O 0.08664(19) 0.10832(15) 0.2623(5)
H1 H 0.0766 0.1184 0.1846
C1 C 0.2500 0.2500 0.5205(8)
C2 C 0.20917(19) 0.21348(17) 0.4463(6)
C3 C 0.1850(2) 0.2242(2) 0.3124(6)
H2 H 0.1966 0.2548 0.2656
C4 C 0.1443(2) 0.1895(2) 0.2508(6)
H3 H 0.1284 0.1973 0.1634
C5 C 0.1269(2) 0.14320(19) 0.3181(6)
C6 C 0.1505(2) 0.13153(18) 0.4506(6)
C7 C 0.1905(2) 0.16687(19) 0.5114(5)
H4 H 0.2056 0.1593 0.5995
C8 C 0.1306(2) 0.0826(2) 0.5252(6)
H5 H 0.0890 0.0745 0.4974
H6 H 0.1301 0.0900 0.6242
C9 C 0.1740(3) 0.0202(3) 0.3519(8)
H7 H 0.1969 -0.0120 0.3415
H8 H 0.1941 0.0482 0.3025
H9 H 0.1336 0.0153 0.3150
C10 C 0.1409(4) -0.0117(3) 0.5737(10)
H10 H 0.1004 -0.0171 0.5380
H11 H 0.1387 -0.0042 0.6714
H12 H 0.1649 -0.0430 0.5590
C11 C 0.2330(3) 0.0430(3) 0.5522(8)
H13 H 0.2557 0.0105 0.5480
H14 H 0.2313 0.0552 0.6466
H15 H 0.2528 0.0692 0.4955
N1M N 0.3301(2) 0.46608(17) 0.5001(6)
O2M O 0.41336(19) 0.39168(15) 0.2623(5)
H1M H 0.4234 0.3816 0.1846
C2M C 0.29083(19) 0.28652(17) 0.4463(6)
C3M C 0.3150(2) 0.2758(2) 0.3124(6)
H2M H 0.3034 0.2452 0.2656
C4M C 0.3557(2) 0.3105(2) 0.2508(6)
H3M H 0.3716 0.3027 0.1634
C5M C 0.3731(2) 0.35680(19) 0.3181(6)
C6M C 0.3495(2) 0.36847(18) 0.4506(6)
C7M C 0.3095(2) 0.33313(19) 0.5114(5)
H4M H 0.2944 0.3407 0.5995
C8M C 0.3694(2) 0.4174(2) 0.5252(6)
H5M H 0.4110 0.4255 0.4974
H6M H 0.3699 0.4100 0.6242
C9M C 0.3260(3) 0.4798(3) 0.3519(8)
H7M H 0.3031 0.5120 0.3415
H8M H 0.3059 0.4518 0.3025
H9M H 0.3664 0.4847 0.3150
C10M C 0.3591(4) 0.5117(3) 0.5737(10)
H10M H 0.3996 0.5171 0.5380
H11M H 0.3613 0.5042 0.6714
H12M H 0.3351 0.5430 0.5590
C11M C 0.2670(3) 0.4570(3) 0.5522(8)
H13M H 0.2443 0.4895 0.5480
H14M H 0.2687 0.4448 0.6466
H15M H 0.2472 0.4308 0.4955
O3 O 0.0589(3) 0.1257(3) 0.9966(7)
H16 H 0.090(3) 0.105(3) 0.983(10)
H17 H 0.034(4) 0.118(5) 0.930(10)
O4 O 0.2500 0.2500 1.007(3)
H18 H 0.265(5) 0.226(2) 0.954(4)
H18M H 0.235(5) 0.274(2) 0.954(4)
loop_
_geom_bond_atom_site_label_1
_geom_bond_atom_site_label_2
_geom_bond_site_symmetry_1
_geom_bond_site_symmetry_2
N1 C8 1_555 1_555
O1 C1 1_555 1_555
O2 H1 1_555 1_555
C1 C2 1_555 1_555
C2 C3 1_555 1_555
C3 H2 1_555 1_555
C4 C3 1_555 1_555
H3 C4 1_555 1_555
C5 O2 1_555 1_555
C6 C5 1_555 1_555
C7 C2 1_555 1_555
H4 C7 1_555 1_555
C8 C6 1_555 1_555
H5 C8 1_555 1_555
H6 C8 1_555 1_555
C9 N1 1_555 1_555
H7 C9 1_555 1_555
H8 C9 1_555 1_555
H9 C9 1_555 1_555
C10 N1 1_555 1_555
H10 C10 1_555 1_555
H11 C10 1_555 1_555
H12 C10 1_555 1_555
C11 N1 1_555 1_555
H13 C11 1_555 1_555
H14 C11 1_555 1_555
H15 C11 1_555 1_555
O3 H16 1_555 1_555
H17 O3 1_555 1_555
O4 H18 1_555 1_555
N1M C8M 1_555 1_555
O2M H1M 1_555 1_555
C2M C1 1_555 1_555
C3M C2M 1_555 1_555
H2M C3M 1_555 1_555
C4M C3M 1_555 1_555
H3M C4M 1_555 1_555
C5M O2M 1_555 1_555
C6M C5M 1_555 1_555
C7M C2M 1_555 1_555
H4M C7M 1_555 1_555
C8M C6M 1_555 1_555
H5M C8M 1_555 1_555
H6M C8M 1_555 1_555
C9M N1M 1_555 1_555
H7M C9M 1_555 1_555
H8M C9M 1_555 1_555
H9M C9M 1_555 1_555
C10M N1M 1_555 1_555
H10M C10M 1_555 1_555
H11M C10M 1_555 1_555
H12M C10M 1_555 1_555
C11M N1M 1_555 1_555
H13M C11M 1_555 1_555
H14M C11M 1_555 1_555
H15M C11M 1_555 1_555
H18M O4 1_555 1_555
C4 C5 1_555 1_555
C6 C7 1_555 1_555
C4M C5M 1_555 1_555
C6M C7M 1_555 1_555

#END
