
#######################################################################
#
#                 Cambridge Crystallographic Data Centre
#                                CCDC 
#
#######################################################################
#
# If this CIF has been generated from an entry in the Cambridge 
# Structural Database, then it will include bibliographic, chemical, 
# crystal, experimental, refinement or atomic coordinate data resulting 
# from the CCDC's data processing and validation procedures.
#
#######################################################################

data_WERCOM
_chemical_formula_moiety         'C32 H26 O6'
_chemical_name_systematic        
3,3-bis(3,8-Dimethoxy-2-naphthyl)-2-benzofuran-1(3H)-one
_symmetry_cell_setting           triclinic
_symmetry_space_group_name_H-M   'P -1'
_symmetry_Int_Tables_number      2
_space_group_name_Hall           '-P 1'
loop_
_symmetry_equiv_pos_site_id
_symmetry_equiv_pos_as_xyz
1 x,y,z
2 -x,-y,-z
_cell_length_a                   7.859(6)
_cell_length_b                   11.146(7)
_cell_length_c                   14.964(15)
_cell_angle_alpha                81.92(3)
_cell_angle_beta                 85.92(3)
_cell_angle_gamma                72.84(5)
_cell_volume                     1239.4
_exptl_crystal_colour            colorless
_exptl_crystal_description       needle
_cell_formula_units_Z            2
loop_
_atom_site_label
_atom_site_type_symbol
_atom_site_fract_x
_atom_site_fract_y
_atom_site_fract_z
O1 O 0.0977(10) 0.2347(8) 0.7360(5)
O2 O -0.0197(11) 0.0813(8) 0.7990(6)
O3 O 0.0772(10) 0.4968(7) 0.6382(6)
O4 O 0.3349(11) 0.4074(8) 1.0328(6)
O5 O 0.5316(10) 0.3846(7) 0.6809(5)
O6 O 0.2159(12) 0.0710(8) 0.4585(6)
C1 C 0.2664(16) 0.2721(11) 0.7349(8)
C2 C 0.2113(13) 0.3970(10) 0.7766(8)
C3 C 0.1110(16) 0.5088(13) 0.7246(9)
C4 C 0.0540(15) 0.6200(12) 0.7602(8)
H1 H -0.0121 0.6947 0.7249
C5 C 0.0938(16) 0.6239(13) 0.8503(9)
C6 C 0.0326(16) 0.7395(13) 0.8895(9)
H2 H -0.0362 0.8149 0.8561
C7 C 0.0757(15) 0.7384(12) 0.9761(9)
H3 H 0.0374 0.8158 1.0016
C8 C 0.1735(16) 0.6297(13) 1.0304(9)
H4 H 0.1965 0.6313 1.0916
C9 C 0.2345(16) 0.5197(13) 0.9892(9)
C10 C 0.1933(15) 0.5144(13) 0.9001(9)
C11 C 0.2511(14) 0.4007(12) 0.8621(8)
H5 H 0.3186 0.3259 0.8967
C12 C -0.0329(16) 0.6067(11) 0.5886(8)
H6 H -0.1479 0.6342 0.6209
H7 H -0.0519 0.5876 0.5288
H8 H 0.0250 0.6744 0.5819
C13 C 0.3778(18) 0.4052(13) 1.1251(9)
H9 H 0.4321 0.4728 1.1292
H10 H 0.4618 0.3231 1.1458
H11 H 0.2688 0.4180 1.1632
C14 C 0.3483(15) 0.2656(11) 0.6400(8)
C15 C 0.4842(17) 0.3237(12) 0.6170(9)
C16 C 0.5722(16) 0.3164(11) 0.5328(9)
H12 H 0.6608 0.3585 0.5162
C17 C 0.5246(16) 0.2426(11) 0.4714(9)
C18 C 0.6204(18) 0.2400(13) 0.3854(10)
H13 H 0.7084 0.2829 0.3696
C19 C 0.5714(18) 0.1680(13) 0.3273(10)
H14 H 0.6347 0.1583 0.2711
C20 C 0.4365(17) 0.1100(12) 0.3466(10)
H15 H 0.4031 0.0653 0.3045
C21 C 0.355(2) 0.1216(13) 0.4304(11)
C22 C 0.3894(16) 0.1881(11) 0.4987(9)
C23 C 0.3054(15) 0.1995(11) 0.5824(9)
H16 H 0.2148 0.1593 0.5994
C24 C 0.6832(18) 0.4320(12) 0.6624(9)
H17 H 0.7912 0.3610 0.6586
H18 H 0.6936 0.4795 0.7111
H19 H 0.6683 0.4878 0.6050
C25 C 0.1520(18) 0.0051(13) 0.3955(10)
H20 H 0.1369 0.0560 0.3360
H21 H 0.0375 -0.0073 0.4182
H22 H 0.2391 -0.0774 0.3902
C26 C 0.3776(14) 0.1572(10) 0.7975(7)
C27 C 0.5556(14) 0.1321(11) 0.8227(7)
H23 H 0.6230 0.1898 0.8041
C28 C 0.6251(15) 0.0205(11) 0.8750(7)
H24 H 0.7453 0.0003 0.8922
C29 C 0.5327(14) -0.0639(11) 0.9042(7)
H25 H 0.5907 -0.1413 0.9393
C30 C 0.3589(16) -0.0396(12) 0.8841(8)
H26 H 0.2915 -0.0961 0.9069
C31 C 0.2826(15) 0.0751(11) 0.8270(8)
C32 C 0.1038(18) 0.1262(14) 0.7889(9)
loop_
_geom_bond_atom_site_label_1
_geom_bond_atom_site_label_2
_geom_bond_site_symmetry_1
_geom_bond_site_symmetry_2
O1 C1 1_555 1_555
O2 C32 1_555 1_555
O3 C3 1_555 1_555
O4 C9 1_555 1_555
O5 C15 1_555 1_555
O6 C21 1_555 1_555
C1 C2 1_555 1_555
C2 C3 1_555 1_555
C3 C4 1_555 1_555
C4 H1 1_555 1_555
C5 C4 1_555 1_555
C6 C5 1_555 1_555
H2 C6 1_555 1_555
C7 C6 1_555 1_555
H3 C7 1_555 1_555
C8 C7 1_555 1_555
H4 C8 1_555 1_555
C9 C8 1_555 1_555
C10 C5 1_555 1_555
C11 C2 1_555 1_555
H5 C11 1_555 1_555
C12 O3 1_555 1_555
H6 C12 1_555 1_555
H7 C12 1_555 1_555
H8 C12 1_555 1_555
C13 O4 1_555 1_555
H9 C13 1_555 1_555
H10 C13 1_555 1_555
H11 C13 1_555 1_555
C14 C1 1_555 1_555
C15 C14 1_555 1_555
C16 C15 1_555 1_555
H12 C16 1_555 1_555
C17 C16 1_555 1_555
C18 C17 1_555 1_555
H13 C18 1_555 1_555
C19 C18 1_555 1_555
H14 C19 1_555 1_555
C20 C19 1_555 1_555
H15 C20 1_555 1_555
C21 C20 1_555 1_555
C22 C17 1_555 1_555
C23 C14 1_555 1_555
H16 C23 1_555 1_555
C24 O5 1_555 1_555
H17 C24 1_555 1_555
H18 C24 1_555 1_555
H19 C24 1_555 1_555
C25 O6 1_555 1_555
H20 C25 1_555 1_555
H21 C25 1_555 1_555
H22 C25 1_555 1_555
C26 C1 1_555 1_555
C27 C26 1_555 1_555
H23 C27 1_555 1_555
C28 C27 1_555 1_555
H24 C28 1_555 1_555
C29 C28 1_555 1_555
H25 C29 1_555 1_555
C30 C29 1_555 1_555
H26 C30 1_555 1_555
C31 C26 1_555 1_555
C32 O1 1_555 1_555
C9 C10 1_555 1_555
C10 C11 1_555 1_555
C21 C22 1_555 1_555
C22 C23 1_555 1_555
C30 C31 1_555 1_555
C31 C32 1_555 1_555

#END
