
#######################################################################
#
#                 Cambridge Crystallographic Data Centre
#                                CCDC 
#
#######################################################################
#
# If this CIF has been generated from an entry in the Cambridge 
# Structural Database, then it will include bibliographic, chemical, 
# crystal, experimental, refinement or atomic coordinate data resulting 
# from the CCDC's data processing and validation procedures.
#
#######################################################################

data_WERCEC
_chemical_formula_moiety         'C27 H26 O5'
_chemical_name_systematic        
(3,8-Dimethoxy-2-naphthyl)(2,4-dimethoxyphenyl)(phenyl)methanol
_symmetry_cell_setting           triclinic
_symmetry_space_group_name_H-M   'P -1'
_symmetry_Int_Tables_number      2
_space_group_name_Hall           '-P 1'
loop_
_symmetry_equiv_pos_site_id
_symmetry_equiv_pos_as_xyz
1 x,y,z
2 -x,-y,-z
_cell_length_a                   11.822(5)
_cell_length_b                   14.537(9)
_cell_length_c                   15.298(11)
_cell_angle_alpha                64.48(2)
_cell_angle_beta                 69.89(3)
_cell_angle_gamma                88.38(3)
_cell_volume                     2205.51
_exptl_crystal_colour            colorless
_exptl_crystal_description       plate
_cell_formula_units_Z            4
loop_
_atom_site_label
_atom_site_type_symbol
_atom_site_fract_x
_atom_site_fract_y
_atom_site_fract_z
O1 O 0.2638(3) 0.7871(3) 0.6848(3)
H1 H 0.2455 0.7436 0.6676
O2 O 0.1234(3) 1.0684(3) 0.6155(3)
O3 O 0.4038(4) 0.8258(3) 0.9083(3)
O4 O 0.0972(3) 0.7083(3) 0.6427(3)
O5 O -0.3022(3) 0.6731(3) 0.8983(3)
C1 C 0.1883(4) 0.8690(4) 0.6637(5)
C2 C 0.2221(4) 0.9376(4) 0.7063(4)
C3 C 0.1899(5) 1.0391(4) 0.6802(4)
C4 C 0.2206(5) 1.1008(4) 0.7167(4)
H2 H 0.1991 1.1683 0.6965
C5 C 0.2858(5) 1.0631(5) 0.7863(4)
C6 C 0.3219(5) 1.1255(5) 0.8247(5)
H3 H 0.3023 1.1936 0.8055
C7 C 0.3848(6) 1.0874(6) 0.8890(5)
H4 H 0.4090 1.1293 0.9147
C8 C 0.4145(5) 0.9876(6) 0.9180(5)
H5 H 0.4603 0.9636 0.9620
C9 C 0.3802(5) 0.9244(5) 0.8855(5)
C10 C 0.3138(5) 0.9623(5) 0.8158(4)
C11 C 0.2814(5) 0.9016(4) 0.7748(4)
H6 H 0.3012 0.8335 0.7953
C12 C 0.0933(6) 1.1708(4) 0.5830(5)
H7 H 0.0424 1.1792 0.6441
H8 H 0.0486 1.1831 0.5364
H9 H 0.1681 1.2202 0.5461
C13 C 0.4645(6) 0.7811(5) 0.9803(5)
H10 H 0.5453 0.8207 0.9514
H11 H 0.4730 0.7098 0.9925
H12 H 0.4168 0.7822 1.0463
C14 C 0.0551(5) 0.8194(4) 0.7218(5)
C15 C 0.0137(5) 0.7360(4) 0.7121(5)
C16 C -0.1058(5) 0.6855(4) 0.7694(5)
H13 H -0.1333 0.6303 0.7608
C17 C -0.1834(5) 0.7175(5) 0.8393(5)
C18 C -0.1471(5) 0.7996(4) 0.8493(5)
H14 H -0.2022 0.8225 0.8952
C19 C -0.0271(5) 0.8496(4) 0.7908(5)
H15 H -0.0014 0.9060 0.7986
C20 C 0.0671(6) 0.6192(6) 0.6348(6)
H16 H 0.0316 0.5616 0.7047
H17 H 0.1408 0.6018 0.5941
H18 H 0.0082 0.6325 0.6003
C21 C -0.3389(7) 0.5774(7) 0.9045(6)
H19 H -0.3468 0.5891 0.8389
H20 H -0.4173 0.5456 0.9619
H21 H -0.2777 0.5317 0.9169
C22 C 0.2255(5) 0.9263(4) 0.5455(5)
C23 C 0.1443(5) 0.9486(4) 0.4944(5)
H22 H 0.0597 0.9271 0.5338
C24 C 0.1841(5) 1.0015(5) 0.3870(5)
H23 H 0.1266 1.0168 0.3537
C25 C 0.3069(5) 1.0325(5) 0.3275(5)
H24 H 0.3340 1.0687 0.2537
C26 C 0.3893(5) 1.0104(5) 0.3765(5)
H25 H 0.4739 1.0311 0.3363
C27 C 0.3498(5) 0.9578(4) 0.4844(5)
H26 H 0.4077 0.9429 0.5172
O6 O 0.2352(3) 0.4620(3) 0.3110(3)
H27 H 0.2485 0.4006 0.3339
O7 O 0.3758(3) 0.6734(3) 0.3801(3)
O8 O 0.0734(3) 0.7091(3) 0.1020(3)
O9 O 0.4034(3) 0.3389(3) 0.3499(3)
O10 O 0.8003(4) 0.5180(3) 0.0893(4)
C28 C 0.3091(5) 0.5209(4) 0.3328(5)
C29 C 0.2733(5) 0.6293(4) 0.2920(4)
C30 C 0.3088(5) 0.7056(4) 0.3169(5)
C31 C 0.2783(5) 0.8025(4) 0.2795(4)
H28 H 0.3011 0.8509 0.2989
C32 C 0.2120(5) 0.8318(4) 0.2109(4)
C33 C 0.1817(5) 0.9317(5) 0.1711(5)
H29 H 0.2050 0.9814 0.1888
C34 C 0.1176(5) 0.9566(5) 0.1059(5)
H30 H 0.0985 1.0246 0.0774
C35 C 0.0805(5) 0.8850(5) 0.0810(5)
H31 H 0.0355 0.9045 0.0365
C36 C 0.1071(5) 0.7872(5) 0.1188(5)
C37 C 0.1767(4) 0.7574(4) 0.1874(4)
C38 C 0.2100(4) 0.6583(4) 0.2264(4)
H32 H 0.1880 0.6099 0.2066
C39 C 0.4023(6) 0.7433(5) 0.4160(5)
H33 H 0.4579 0.8037 0.3569
H34 H 0.4406 0.7090 0.4672
H35 H 0.3267 0.7651 0.4484
C40 C 0.0078(6) 0.7356(5) 0.0337(5)
H36 H -0.0625 0.7675 0.0582
H37 H -0.0202 0.6734 0.0328
H38 H 0.0611 0.7842 -0.0368
C41 C 0.4445(5) 0.5193(4) 0.2731(4)
C42 C 0.4848(5) 0.4258(5) 0.2811(5)
C43 C 0.6037(5) 0.4212(5) 0.2221(5)
H39 H 0.6302 0.3569 0.2290
C44 C 0.6817(5) 0.5131(5) 0.1532(5)
C45 C 0.6443(5) 0.6063(5) 0.1461(5)
H40 H 0.6994 0.6685 0.1015
C46 C 0.5266(5) 0.6079(4) 0.2042(4)
H41 H 0.5008 0.6725 0.1966
C47 C 0.4330(6) 0.2410(5) 0.3571(6)
H42 H 0.4583 0.2432 0.2880
H43 H 0.3614 0.1887 0.4050
H44 H 0.4996 0.2236 0.3831
C48 C 0.8336(7) 0.4252(6) 0.0823(7)
H45 H 0.8432 0.3765 0.1470
H46 H 0.9106 0.4411 0.0235
H47 H 0.7699 0.3945 0.0716
C49 C 0.2739(5) 0.4711(4) 0.4512(5)
C50 C 0.3594(5) 0.4473(4) 0.4997(5)
H48 H 0.4438 0.4612 0.4587
C51 C 0.3215(5) 0.4040(4) 0.6060(5)
H49 H 0.3805 0.3897 0.6376
C52 C 0.2007(6) 0.3807(4) 0.6677(5)
H50 H 0.1760 0.3507 0.7413
C53 C 0.1140(5) 0.4016(4) 0.6208(5)
H51 H 0.0297 0.3851 0.6623
C54 C 0.1519(5) 0.4462(4) 0.5140(5)
H52 H 0.0927 0.4602 0.4825
loop_
_geom_bond_atom_site_label_1
_geom_bond_atom_site_label_2
_geom_bond_site_symmetry_1
_geom_bond_site_symmetry_2
O1 H1 1_555 1_555
O2 C3 1_555 1_555
O3 C9 1_555 1_555
O4 C15 1_555 1_555
O5 C17 1_555 1_555
C1 O1 1_555 1_555
C2 C1 1_555 1_555
C3 C2 1_555 1_555
C4 C3 1_555 1_555
H2 C4 1_555 1_555
C5 C4 1_555 1_555
C6 C5 1_555 1_555
H3 C6 1_555 1_555
C7 C6 1_555 1_555
H4 C7 1_555 1_555
C8 C7 1_555 1_555
H5 C8 1_555 1_555
C9 C8 1_555 1_555
C10 C5 1_555 1_555
C11 C2 1_555 1_555
H6 C11 1_555 1_555
C12 O2 1_555 1_555
H7 C12 1_555 1_555
H8 C12 1_555 1_555
H9 C12 1_555 1_555
C13 O3 1_555 1_555
H10 C13 1_555 1_555
H11 C13 1_555 1_555
H12 C13 1_555 1_555
C14 C1 1_555 1_555
C15 C14 1_555 1_555
C16 C15 1_555 1_555
H13 C16 1_555 1_555
C17 C16 1_555 1_555
C18 C17 1_555 1_555
H14 C18 1_555 1_555
C19 C14 1_555 1_555
H15 C19 1_555 1_555
C20 O4 1_555 1_555
H16 C20 1_555 1_555
H17 C20 1_555 1_555
H18 C20 1_555 1_555
C21 O5 1_555 1_555
H19 C21 1_555 1_555
H20 C21 1_555 1_555
H21 C21 1_555 1_555
C22 C1 1_555 1_555
C23 C22 1_555 1_555
H22 C23 1_555 1_555
C24 C23 1_555 1_555
H23 C24 1_555 1_555
C25 C24 1_555 1_555
H24 C25 1_555 1_555
C26 C25 1_555 1_555
H25 C26 1_555 1_555
C27 C22 1_555 1_555
H26 C27 1_555 1_555
O6 H27 1_555 1_555
O7 C30 1_555 1_555
O8 C36 1_555 1_555
O9 C42 1_555 1_555
O10 C44 1_555 1_555
C28 O6 1_555 1_555
C29 C28 1_555 1_555
C30 C29 1_555 1_555
C31 C30 1_555 1_555
H28 C31 1_555 1_555
C32 C31 1_555 1_555
C33 C32 1_555 1_555
H29 C33 1_555 1_555
C34 C33 1_555 1_555
H30 C34 1_555 1_555
C35 C34 1_555 1_555
H31 C35 1_555 1_555
C36 C35 1_555 1_555
C37 C32 1_555 1_555
C38 C29 1_555 1_555
H32 C38 1_555 1_555
C39 O7 1_555 1_555
H33 C39 1_555 1_555
H34 C39 1_555 1_555
H35 C39 1_555 1_555
C40 O8 1_555 1_555
H36 C40 1_555 1_555
H37 C40 1_555 1_555
H38 C40 1_555 1_555
C41 C28 1_555 1_555
C42 C41 1_555 1_555
C43 C42 1_555 1_555
H39 C43 1_555 1_555
C44 C43 1_555 1_555
C45 C44 1_555 1_555
H40 C45 1_555 1_555
C46 C41 1_555 1_555
H41 C46 1_555 1_555
C47 O9 1_555 1_555
H42 C47 1_555 1_555
H43 C47 1_555 1_555
H44 C47 1_555 1_555
C48 O10 1_555 1_555
H45 C48 1_555 1_555
H46 C48 1_555 1_555
H47 C48 1_555 1_555
C49 C28 1_555 1_555
C50 C49 1_555 1_555
H48 C50 1_555 1_555
C51 C50 1_555 1_555
H49 C51 1_555 1_555
C52 C51 1_555 1_555
H50 C52 1_555 1_555
C53 C52 1_555 1_555
H51 C53 1_555 1_555
C54 C49 1_555 1_555
H52 C54 1_555 1_555
C9 C10 1_555 1_555
C10 C11 1_555 1_555
C18 C19 1_555 1_555
C26 C27 1_555 1_555
C36 C37 1_555 1_555
C37 C38 1_555 1_555
C45 C46 1_555 1_555
C53 C54 1_555 1_555

#END
