
#######################################################################
#
#                 Cambridge Crystallographic Data Centre
#                                CCDC 
#
#######################################################################
#
# If this CIF has been generated from an entry in the Cambridge 
# Structural Database, then it will include bibliographic, chemical, 
# crystal, experimental, refinement or atomic coordinate data resulting 
# from the CCDC's data processing and validation procedures.
#
#######################################################################

data_WERHIL
_chemical_formula_moiety         'C9 H11 N3 O2 S1'
_chemical_name_systematic        N-Ethoxycarbonyl-N'-(3-pyridyl)thiourea
_symmetry_cell_setting           monoclinic
_symmetry_space_group_name_H-M   'P 21/c'
_symmetry_Int_Tables_number      14
_space_group_name_Hall           '-P 2ybc'
loop_
_symmetry_equiv_pos_site_id
_symmetry_equiv_pos_as_xyz
1 x,y,z
2 -x,1/2+y,1/2-z
3 -x,-y,-z
4 x,1/2-y,1/2+z
_cell_length_a                   10.333(6)
_cell_length_b                   7.118(4)
_cell_length_c                   15.160(8)
_cell_angle_alpha                90
_cell_angle_beta                 98.517(8)
_cell_angle_gamma                90
_cell_volume                     1102.73
_chemical_melting_point          '167-168 deg.C'
_cell_formula_units_Z            4
loop_
_atom_site_label
_atom_site_type_symbol
_atom_site_fract_x
_atom_site_fract_y
_atom_site_fract_z
N1 N 0.24633(19) 0.3917(3) 0.88538(12)
N2 N 0.2651(2) 0.5194(3) 1.02649(12)
N3 N 0.29277(18) 0.4140(3) 1.26595(11)
O1 O 0.14231(15) 0.4985(2) 0.75739(9)
O2 O 0.1298(2) 0.6678(2) 0.88082(11)
S1 S 0.38290(8) 0.19036(10) 1.01262(4)
C1 C 0.1686(2) 0.5323(3) 0.84437(14)
C2 C 0.2943(2) 0.3768(3) 0.97534(14)
C3 C 0.3033(2) 0.5337(3) 1.12029(13)
C4 C 0.2637(2) 0.4021(3) 1.17754(14)
C5 C 0.3616(2) 0.5632(3) 1.29980(15)
C6 C 0.4039(2) 0.7013(3) 1.24754(16)
C7 C 0.3753(2) 0.6866(3) 1.15554(16)
C8 C 0.0603(3) 0.6391(4) 0.70525(16)
C9 C 0.0473(3) 0.5821(5) 0.60958(18)
H1 H 0.263(2) 0.306(3) 0.8534(16)
H2 H 0.225(3) 0.607(4) 1.002(2)
H3 H 0.215(2) 0.300(3) 1.1561(16)
H4 H 0.380(2) 0.566(3) 1.3639(16)
H5 H 0.455(3) 0.807(3) 1.2743(17)
H6 H 0.405(3) 0.780(4) 1.116(2)
H7 H -0.020(3) 0.643(4) 0.7266(19)
H8 H 0.108(2) 0.766(4) 0.7159(17)
H9 H 0.134(3) 0.560(4) 0.591(2)
H10 H 0.000(3) 0.676(4) 0.573(2)
H11 H 0.006(3) 0.467(5) 0.601(2)
loop_
_geom_bond_atom_site_label_1
_geom_bond_atom_site_label_2
_geom_bond_site_symmetry_1
_geom_bond_site_symmetry_2
N1 C1 1_555 1_555
N2 C2 1_555 1_555
N3 C4 1_555 1_555
O1 C1 1_555 1_555
O2 C1 1_555 1_555
S1 C2 1_555 1_555
C2 N1 1_555 1_555
C3 N2 1_555 1_555
C4 C3 1_555 1_555
C5 N3 1_555 1_555
C6 C5 1_555 1_555
C7 C3 1_555 1_555
C8 O1 1_555 1_555
C9 C8 1_555 1_555
H1 N1 1_555 1_555
H2 N2 1_555 1_555
H3 C4 1_555 1_555
H4 C5 1_555 1_555
H5 C6 1_555 1_555
H6 C7 1_555 1_555
H7 C8 1_555 1_555
H8 C8 1_555 1_555
H9 C9 1_555 1_555
H10 C9 1_555 1_555
H11 C9 1_555 1_555
C6 C7 1_555 1_555

#END
