
#######################################################################
#
#                 Cambridge Crystallographic Data Centre
#                                CCDC 
#
#######################################################################
#
# If this CIF has been generated from an entry in the Cambridge 
# Structural Database, then it will include bibliographic, chemical, 
# crystal, experimental, refinement or atomic coordinate data resulting 
# from the CCDC's data processing and validation procedures.
#
#######################################################################

data_WERHEH01
_chemical_formula_moiety         'C16 H18 N4 S1'
_chemical_name_systematic        
1-(4-(Dimethylamino)benzylidene)-4-phenylthiosemicarbazide
_symmetry_cell_setting           orthorhombic
_symmetry_space_group_name_H-M   'P 21 21 21'
_symmetry_Int_Tables_number      19
_space_group_name_Hall           'P 2ac 2ab'
loop_
_symmetry_equiv_pos_site_id
_symmetry_equiv_pos_as_xyz
1 x,y,z
2 1/2-x,-y,1/2+z
3 -x,1/2+y,1/2-z
4 1/2+x,1/2-y,-z
_cell_length_a                   7.8700(16)
_cell_length_b                   11.560(2)
_cell_length_c                   16.668(3)
_cell_angle_alpha                90
_cell_angle_beta                 90
_cell_angle_gamma                90
_cell_volume                     1516.41
_chemical_melting_point          '212-213 deg.C'
_cell_formula_units_Z            4
loop_
_atom_site_label
_atom_site_type_symbol
_atom_site_fract_x
_atom_site_fract_y
_atom_site_fract_z
S1 S 0.87061(9) 0.95837(5) 0.18811(4)
N1 N 0.9348(3) 0.46709(18) 0.70435(12)
N2 N 0.8713(3) 0.75333(16) 0.37385(11)
N3 N 0.9698(3) 0.74077(17) 0.22353(11)
H1 H 0.9884 0.6917 0.2613
N4 N 0.8417(3) 0.84333(17) 0.32140(11)
H2 H 0.7859 0.9027 0.3379
C1 C 1.0030(5) 0.3527(3) 0.69326(19)
H3 H 1.1167 0.3581 0.6726
H4 H 0.9333 0.3108 0.6560
H5 H 1.0046 0.3128 0.7438
C2 C 1.0130(3) 0.5569(2) 0.04639(16)
H6 H 0.9763 0.4842 0.0299
C3 C 0.8206(3) 0.7705(2) 0.44531(14)
H7 H 0.7620 0.8385 0.4565
C4 C 1.1190(3) 0.7724(2) 0.09549(14)
H8 H 1.1548 0.8454 0.1117
C5 C 1.1658(3) 0.7297(3) 0.02155(15)
H9 H 1.2345 0.7742 -0.0117
C6 C 1.1130(4) 0.6232(2) -0.00382(14)
H10 H 1.1439 0.5957 -0.0542
C7 C 0.9678(3) 0.5981(2) 0.12033(13)
H11 H 0.9019 0.5527 0.1542
C8 C 0.8977(3) 0.8407(2) 0.24537(13)
C9 C 0.8009(3) 0.7191(2) 0.58768(13)
H12 H 0.7472 0.7897 0.5965
C10 C 0.9583(3) 0.5107(2) 0.56258(15)
H13 H 1.0122 0.4404 0.5534
C11 C 0.8299(3) 0.6476(2) 0.65125(13)
H14 H 0.7958 0.6705 0.7023
C12 C 0.9280(3) 0.5827(2) 0.49963(14)
H15 H 0.9606 0.5599 0.4484
C13 C 1.0191(3) 0.70628(19) 0.14499(13)
C14 C 0.8494(3) 0.68962(18) 0.50991(13)
C15 C 0.9100(3) 0.54021(19) 0.64123(13)
C16 C 0.8913(4) 0.4998(3) 0.78489(15)
H16 H 0.7701 0.5066 0.7895
H17 H 0.9432 0.5727 0.7974
H18 H 0.9315 0.4419 0.8216
loop_
_geom_bond_atom_site_label_1
_geom_bond_atom_site_label_2
_geom_bond_site_symmetry_1
_geom_bond_site_symmetry_2
S1 C8 1_555 1_555
N1 C1 1_555 1_555
N2 N4 1_555 1_555
N3 H1 1_555 1_555
N4 H2 1_555 1_555
C1 H3 1_555 1_555
H4 C1 1_555 1_555
H5 C1 1_555 1_555
C2 H6 1_555 1_555
C3 N2 1_555 1_555
H7 C3 1_555 1_555
C4 H8 1_555 1_555
C5 C4 1_555 1_555
H9 C5 1_555 1_555
C6 C2 1_555 1_555
H10 C6 1_555 1_555
C7 C2 1_555 1_555
H11 C7 1_555 1_555
C8 N3 1_555 1_555
C9 H12 1_555 1_555
C10 H13 1_555 1_555
C11 C9 1_555 1_555
H14 C11 1_555 1_555
C12 C10 1_555 1_555
H15 C12 1_555 1_555
C13 N3 1_555 1_555
C14 C3 1_555 1_555
C15 N1 1_555 1_555
C16 N1 1_555 1_555
H16 C16 1_555 1_555
H17 C16 1_555 1_555
H18 C16 1_555 1_555
N4 C8 1_555 1_555
C4 C13 1_555 1_555
C5 C6 1_555 1_555
C7 C13 1_555 1_555
C9 C14 1_555 1_555
C10 C15 1_555 1_555
C11 C15 1_555 1_555
C12 C14 1_555 1_555

#END
