
#######################################################################
#
#                 Cambridge Crystallographic Data Centre
#                                CCDC 
#
#######################################################################
#
# If this CIF has been generated from an entry in the Cambridge 
# Structural Database, then it will include bibliographic, chemical, 
# crystal, experimental, refinement or atomic coordinate data resulting 
# from the CCDC's data processing and validation procedures.
#
#######################################################################

data_WERNOW01
_chemical_name_common            Agomelatine
_chemical_formula_moiety         'C15 H17 N1 O2'
_chemical_name_systematic        N-(2-(7-Methoxy-1-naphthyl)ethyl)acetamide
_chemical_properties_biological  'drug for treatment of severe depression'
_symmetry_cell_setting           orthorhombic
_symmetry_space_group_name_H-M   'P n a 21'
_symmetry_Int_Tables_number      33
_space_group_name_Hall           'P 2c -2n'
loop_
_symmetry_equiv_pos_site_id
_symmetry_equiv_pos_as_xyz
1 x,y,z
2 -x,-y,1/2+z
3 1/2+x,1/2-y,z
4 1/2-x,1/2+y,1/2+z
_cell_length_a                   9.202(2)
_cell_length_b                   20.416(4)
_cell_length_c                   7.208(2)
_cell_angle_alpha                90
_cell_angle_beta                 90
_cell_angle_gamma                90
_cell_volume                     1354.15
_cell_formula_units_Z            4
loop_
_atom_site_label
_atom_site_type_symbol
_atom_site_fract_x
_atom_site_fract_y
_atom_site_fract_z
C1 C -0.01315 0.37079 0.57277
C2 C -0.13122 0.39007 0.67268
H1 H -0.22107 0.37156 0.64533
C3 C -0.12258 0.43648 0.81441
H2 H -0.20467 0.44807 0.88223
C4 C 0.00616 0.46399 0.85029
H3 H 0.01203 0.49612 0.94155
C5 C 0.13296 0.44594 0.75429
C6 C 0.26766 0.47412 0.78995
H4 H 0.27390 0.50643 0.88011
C7 C 0.38847 0.45676 0.69956
H5 H 0.47687 0.47641 0.72856
C8 C 0.38067 0.40842 0.56048
C9 C 0.25117 0.37973 0.51586
H6 H 0.24700 0.34783 0.42372
C10 C 0.12403 0.39851 0.61062
O1 O 0.50848 0.39234 0.48353
C11 C 0.50944 0.37015 0.29858
H7 H 0.60736 0.36039 0.26190
H8 H 0.47050 0.40351 0.21920
H9 H 0.45119 0.33120 0.28864
C12 C 0.07014 0.26571 0.02461
N1 N -0.04413 0.29634 0.09106
C13 C -0.03202 0.34677 0.23253
H10 H -0.11337 0.37666 0.22084
H11 H 0.05641 0.37156 0.21226
C14 C -0.03023 0.31859 0.42687
H12 H -0.12006 0.29505 0.44866
H13 H 0.04924 0.28764 0.43743
O2 O 0.19466 0.28018 0.07017
C15 C 0.03803 0.21196 -0.11014
H14 H -0.06507 0.20846 -0.12731
H15 H 0.07526 0.17133 -0.06308
H16 H 0.08340 0.22161 -0.22693
H17 H -0.12826 0.29353 0.03731
loop_
_geom_bond_atom_site_label_1
_geom_bond_atom_site_label_2
_geom_bond_site_symmetry_1
_geom_bond_site_symmetry_2
C1 C2 1_555 1_555
C2 H1 1_555 1_555
C3 C2 1_555 1_555
H2 C3 1_555 1_555
C4 C3 1_555 1_555
H3 C4 1_555 1_555
C5 C4 1_555 1_555
C6 C5 1_555 1_555
H4 C6 1_555 1_555
C7 C6 1_555 1_555
H5 C7 1_555 1_555
C8 C7 1_555 1_555
C9 C8 1_555 1_555
H6 C9 1_555 1_555
C10 C1 1_555 1_555
O1 C8 1_555 1_555
C11 O1 1_555 1_555
H7 C11 1_555 1_555
H8 C11 1_555 1_555
H9 C11 1_555 1_555
C12 N1 1_555 1_555
N1 C13 1_555 1_555
C13 H10 1_555 1_555
H11 C13 1_555 1_555
C14 C1 1_555 1_555
H12 C14 1_555 1_555
H13 C14 1_555 1_555
O2 C12 1_555 1_555
C15 C12 1_555 1_555
H14 C15 1_555 1_555
H15 C15 1_555 1_555
H16 C15 1_555 1_555
H17 N1 1_555 1_555
C5 C10 1_555 1_555
C9 C10 1_555 1_555
C13 C14 1_555 1_555

#END
