
#######################################################################
#
#                 Cambridge Crystallographic Data Centre
#                                CCDC 
#
#######################################################################
#
# If this CIF has been generated from an entry in the Cambridge 
# Structural Database, then it will include bibliographic, chemical, 
# crystal, experimental, refinement or atomic coordinate data resulting 
# from the CCDC's data processing and validation procedures.
#
#######################################################################

data_WERSOE
_chemical_formula_moiety         'C28 H20 F2 S4'
_chemical_name_systematic        
2,2'-(2,3-difluoro-1,4-phenylene)bis(4,4-dimethyl-4H-cyclopenta[1,2-b:5,4-b']bisthiophene)
_symmetry_cell_setting           monoclinic
_symmetry_space_group_name_H-M   'P 21/c'
_symmetry_Int_Tables_number      14
_space_group_name_Hall           '-P 2ybc'
loop_
_symmetry_equiv_pos_site_id
_symmetry_equiv_pos_as_xyz
1 x,y,z
2 -x,1/2+y,1/2-z
3 -x,-y,-z
4 x,1/2-y,1/2+z
_cell_length_a                   14.240(3)
_cell_length_b                   6.3956(12)
_cell_length_c                   26.696(6)
_cell_angle_alpha                90
_cell_angle_beta                 101.203(7)
_cell_angle_gamma                90
_cell_volume                     2384.97
_exptl_crystal_colour            yellow
_exptl_crystal_description       needle
_cell_formula_units_Z            4
loop_
_atom_site_label
_atom_site_type_symbol
_atom_site_fract_x
_atom_site_fract_y
_atom_site_fract_z
C1 C 0.4749(6) 1.9251(12) 0.7043(3)
H1 H 0.5062 2.0447 0.7209
C2 C 0.3873(6) 1.8563(12) 0.7108(3)
H2 H 0.3504 1.9231 0.7323
C3 C 0.3578(6) 1.6757(12) 0.6821(3)
C4 C 0.2702(5) 1.5312(12) 0.6735(3)
C5 C 0.2960(6) 1.3802(12) 0.6341(3)
C6 C 0.2519(6) 1.2070(12) 0.6064(3)
H3 H 0.1898 1.1570 0.6081
C7 C 0.3103(5) 1.1191(12) 0.5764(3)
C8 C 0.3856(6) 1.4268(12) 0.6241(3)
C9 C 0.4246(6) 1.6095(12) 0.6542(3)
C10 C 0.2923(6) 0.9332(12) 0.5432(3)
C11 C 0.2031(6) 0.8513(12) 0.5277(3)
C12 C 0.1848(6) 0.6749(12) 0.4979(3)
C13 C 0.2568(6) 0.5701(12) 0.4787(3)
C14 C 0.3498(6) 0.6582(12) 0.4936(3)
H4 H 0.4016 0.5958 0.4815
C15 C 0.3673(6) 0.8292(12) 0.5248(3)
H5 H 0.4309 0.8799 0.5343
C16 C 0.2373(6) 0.3853(12) 0.4454(3)
C17 C 0.1514(6) 0.3143(12) 0.4186(3)
H6 H 0.0915 0.3777 0.4197
C18 C 0.1622(6) 0.1344(12) 0.3890(3)
C19 C 0.0967(5) -0.0084(12) 0.3524(3)
C20 C 0.1684(6) -0.1675(12) 0.3409(3)
C21 C 0.1644(6) -0.3555(12) 0.3126(3)
H7 H 0.1071 -0.4156 0.2940
C22 C 0.2535(6) -0.4393(12) 0.3156(3)
H8 H 0.2651 -0.5652 0.2988
C23 C 0.2600(5) -0.1197(12) 0.3653(3)
C24 C 0.2565(6) 0.0710(12) 0.3956(3)
C25 C 0.1789(6) 1.6520(13) 0.6533(3)
H9 H 0.1831 1.7163 0.6204
H10 H 0.1705 1.7614 0.6777
H11 H 0.1241 1.5564 0.6486
C26 C 0.2638(6) 1.4125(13) 0.7236(3)
H12 H 0.2081 1.3193 0.7175
H13 H 0.2571 1.5136 0.7503
H14 H 0.3221 1.3300 0.7347
C27 C 0.0493(6) 0.1066(13) 0.3031(3)
H15 H 0.0986 0.1793 0.2887
H16 H 0.0030 0.2085 0.3111
H17 H 0.0164 0.0051 0.2783
C28 C 0.0167(6) -0.1065(13) 0.3774(3)
H18 H -0.0235 -0.1982 0.3527
H19 H -0.0227 0.0051 0.3877
H20 H 0.0460 -0.1880 0.4074
F1 F 0.1235(4) 0.9411(8) 0.5411(2)
F2 F 0.0926(4) 0.6025(8) 0.4870(2)
S1 S 0.33261(14) 0.2299(3) 0.43547(8)
S2 S 0.52267(14) 1.7686(3) 0.66233(8)
S3 S 0.41855(14) 1.2549(3) 0.58147(8)
S4 S 0.34298(15) -0.2947(3) 0.35256(8)
loop_
_geom_bond_atom_site_label_1
_geom_bond_atom_site_label_2
_geom_bond_site_symmetry_1
_geom_bond_site_symmetry_2
C1 H1 1_555 1_555
C2 C1 1_555 1_555
H2 C2 1_555 1_555
C3 C2 1_555 1_555
C4 C3 1_555 1_555
C5 C4 1_555 1_555
C6 C5 1_555 1_555
H3 C6 1_555 1_555
C7 C6 1_555 1_555
C8 C5 1_555 1_555
C9 C3 1_555 1_555
C10 C7 1_555 1_555
C11 C10 1_555 1_555
C12 C11 1_555 1_555
C13 C12 1_555 1_555
C14 C13 1_555 1_555
H4 C14 1_555 1_555
C15 C10 1_555 1_555
H5 C15 1_555 1_555
C16 C13 1_555 1_555
C17 C16 1_555 1_555
H6 C17 1_555 1_555
C18 C17 1_555 1_555
C19 C18 1_555 1_555
C20 C19 1_555 1_555
C21 C20 1_555 1_555
H7 C21 1_555 1_555
C22 C21 1_555 1_555
H8 C22 1_555 1_555
C23 C20 1_555 1_555
C24 C18 1_555 1_555
C25 C4 1_555 1_555
H9 C25 1_555 1_555
H10 C25 1_555 1_555
H11 C25 1_555 1_555
C26 C4 1_555 1_555
H12 C26 1_555 1_555
H13 C26 1_555 1_555
H14 C26 1_555 1_555
C27 C19 1_555 1_555
H15 C27 1_555 1_555
H16 C27 1_555 1_555
H17 C27 1_555 1_555
C28 C19 1_555 1_555
H18 C28 1_555 1_555
H19 C28 1_555 1_555
H20 C28 1_555 1_555
F1 C11 1_555 1_555
F2 C12 1_555 1_555
S1 C16 1_555 1_555
S2 C1 1_555 1_555
S3 C7 1_555 1_555
S4 C22 1_555 1_555
C8 C9 1_555 1_555
C8 S3 1_555 1_555
C9 S2 1_555 1_555
C14 C15 1_555 1_555
C23 C24 1_555 1_555
C23 S4 1_555 1_555
C24 S1 1_555 1_555

#END
