
#######################################################################
#
#                 Cambridge Crystallographic Data Centre
#                                CCDC 
#
#######################################################################
#
# If this CIF has been generated from an entry in the Cambridge 
# Structural Database, then it will include bibliographic, chemical, 
# crystal, experimental, refinement or atomic coordinate data resulting 
# from the CCDC's data processing and validation procedures.
#
#######################################################################

data_WERSUK
_chemical_formula_moiety         'C28 H20 F2 S4'
_chemical_name_systematic        
2,2'-(2,5-difluoro-1,4-phenylene)bis(4,4-dimethyl-4H-cyclopenta[1,2-b:5,4-b']bisthiophene)
_symmetry_cell_setting           orthorhombic
_symmetry_space_group_name_H-M   'P 21 21 21'
_symmetry_Int_Tables_number      19
_space_group_name_Hall           'P 2ac 2ab'
loop_
_symmetry_equiv_pos_site_id
_symmetry_equiv_pos_as_xyz
1 x,y,z
2 1/2-x,-y,1/2+z
3 -x,1/2+y,1/2-z
4 1/2+x,1/2-y,-z
_cell_length_a                   6.3997(3)
_cell_length_b                   13.7476(6)
_cell_length_c                   26.6892(11)
_cell_angle_alpha                90
_cell_angle_beta                 90
_cell_angle_gamma                90
_cell_volume                     2348.13
_exptl_crystal_colour            yellow
_exptl_crystal_description       needle
_cell_formula_units_Z            4
loop_
_atom_site_label
_atom_site_type_symbol
_atom_site_fract_x
_atom_site_fract_y
_atom_site_fract_z
C1 C 1.9273(5) 0.7436(2) 0.44255(11)
H1 H 2.0493 0.7691 0.4580
C2 C 1.8345(5) 0.6585(2) 0.45666(10)
H2 H 1.8842 0.6179 0.4829
C3 C 1.6553(5) 0.6383(2) 0.42741(10)
C4 C 1.4974(5) 0.5555(2) 0.42434(11)
C5 C 1.3629(5) 0.5917(2) 0.38108(10)
C6 C 1.1828(5) 0.5585(2) 0.35618(10)
H3 H 1.1144 0.4989 0.3637
C7 C 1.1166(5) 0.6226(2) 0.31951(10)
C8 C 1.4339(5) 0.6801(2) 0.36351(10)
C9 C 1.6164(5) 0.7083(2) 0.39191(10)
C10 C 1.6047(5) 0.4588(2) 0.41239(12)
H4 H 1.4988 0.4080 0.4081
H5 H 1.6982 0.4411 0.4400
H6 H 1.6858 0.4654 0.3814
C11 C 1.3687(5) 0.5474(2) 0.47287(10)
H7 H 1.3073 0.6109 0.4809
H8 H 1.4598 0.5267 0.5004
H9 H 1.2570 0.4995 0.4682
C12 C 0.9338(5) 0.6186(2) 0.28715(10)
C13 C 0.8228(5) 0.5332(2) 0.27727(10)
C14 C 0.6498(5) 0.5286(2) 0.24670(10)
H10 H 0.5816 0.4681 0.2416
C15 C 0.5728(5) 0.6129(2) 0.22295(10)
C16 C 0.6826(5) 0.6977(2) 0.23345(10)
C17 C 0.8553(5) 0.7024(2) 0.26356(10)
H11 H 0.9231 0.7632 0.2686
C18 C 0.3898(5) 0.6098(2) 0.19063(10)
C19 C 0.3205(5) 0.6776(2) 0.15612(10)
H12 H 0.3870 0.7383 0.1504
C20 C 0.1407(5) 0.6464(2) 0.13057(10)
C21 C 0.0036(5) 0.6868(2) 0.08896(10)
C22 C -0.1562(5) 0.6058(2) 0.08433(10)
C23 C -0.3406(5) 0.5889(2) 0.05633(10)
H13 H -0.3944 0.6326 0.0320
C24 C -0.4319(5) 0.5024(2) 0.06847(10)
H14 H -0.5574 0.4793 0.0536
C25 C -0.1123(5) 0.5312(2) 0.11728(10)
C26 C 0.0718(5) 0.5559(2) 0.14554(10)
C27 C -0.0975(5) 0.7840(2) 0.10341(11)
H15 H -0.1868 0.8066 0.0759
H16 H 0.0118 0.8323 0.1099
H17 H -0.1822 0.7752 0.1337
C28 C 0.1298(5) 0.6988(2) 0.04049(10)
H18 H 0.1983 0.6371 0.0322
H19 H 0.2359 0.7494 0.0452
H20 H 0.0358 0.7175 0.0131
F1 F 0.6140(3) 0.78356(12) 0.21405(6)
F2 F 0.8909(3) 0.44767(13) 0.29722(7)
S1 S 1.79824(12) 0.79992(5) 0.39354(2)
S2 S 1.28165(12) 0.72374(5) 0.31598(2)
S3 S 0.22734(11) 0.50717(5) 0.19139(2)
S4 S -0.29445(12) 0.43948(5) 0.11374(2)
loop_
_geom_bond_atom_site_label_1
_geom_bond_atom_site_label_2
_geom_bond_site_symmetry_1
_geom_bond_site_symmetry_2
C1 H1 1_555 1_555
C2 C1 1_555 1_555
H2 C2 1_555 1_555
C3 C2 1_555 1_555
C4 C3 1_555 1_555
C5 C4 1_555 1_555
C6 C5 1_555 1_555
H3 C6 1_555 1_555
C7 C6 1_555 1_555
C8 C5 1_555 1_555
C9 C3 1_555 1_555
C10 C4 1_555 1_555
H4 C10 1_555 1_555
H5 C10 1_555 1_555
H6 C10 1_555 1_555
C11 C4 1_555 1_555
H7 C11 1_555 1_555
H8 C11 1_555 1_555
H9 C11 1_555 1_555
C12 C7 1_555 1_555
C13 C12 1_555 1_555
C14 C13 1_555 1_555
H10 C14 1_555 1_555
C15 C14 1_555 1_555
C16 C15 1_555 1_555
C17 C12 1_555 1_555
H11 C17 1_555 1_555
C18 C15 1_555 1_555
C19 C18 1_555 1_555
H12 C19 1_555 1_555
C20 C19 1_555 1_555
C21 C20 1_555 1_555
C22 C21 1_555 1_555
C23 C22 1_555 1_555
H13 C23 1_555 1_555
C24 C23 1_555 1_555
H14 C24 1_555 1_555
C25 C22 1_555 1_555
C26 C20 1_555 1_555
C27 C21 1_555 1_555
H15 C27 1_555 1_555
H16 C27 1_555 1_555
H17 C27 1_555 1_555
C28 C21 1_555 1_555
H18 C28 1_555 1_555
H19 C28 1_555 1_555
H20 C28 1_555 1_555
F1 C16 1_555 1_555
F2 C13 1_555 1_555
S1 C1 1_555 1_555
S2 C7 1_555 1_555
S3 C18 1_555 1_555
S4 C24 1_555 1_555
C8 C9 1_555 1_555
C8 S2 1_555 1_555
C9 S1 1_555 1_555
C16 C17 1_555 1_555
C25 C26 1_555 1_555
C25 S4 1_555 1_555
C26 S3 1_555 1_555

#END
