
#######################################################################
#
#                 Cambridge Crystallographic Data Centre
#                                CCDC 
#
#######################################################################
#
# If this CIF has been generated from an entry in the Cambridge 
# Structural Database, then it will include bibliographic, chemical, 
# crystal, experimental, refinement or atomic coordinate data resulting 
# from the CCDC's data processing and validation procedures.
#
#######################################################################

data_WERTAR
_chemical_formula_moiety         'C28 H20 F2 S4'
_chemical_name_systematic        
2,2'-(2,6-difluoro-1,4-phenylene)bis(4,4-dimethyl-4H-cyclopenta[1,2-b:5,4-b']bisthiophene)
_symmetry_cell_setting           monoclinic
_symmetry_space_group_name_H-M   'P 21/c'
_symmetry_Int_Tables_number      14
_space_group_name_Hall           '-P 2ybc'
loop_
_symmetry_equiv_pos_site_id
_symmetry_equiv_pos_as_xyz
1 x,y,z
2 -x,1/2+y,1/2-z
3 -x,-y,-z
4 x,1/2-y,1/2+z
_cell_length_a                   6.5974(9)
_cell_length_b                   26.408(4)
_cell_length_c                   6.9247(10)
_cell_angle_alpha                90
_cell_angle_beta                 103.895(8)
_cell_angle_gamma                90
_cell_volume                     1171.15
_exptl_crystal_colour            yellow
_exptl_crystal_description       needle
_cell_formula_units_Z            2
loop_
_atom_site_label
_atom_site_type_symbol
_atom_site_fract_x
_atom_site_fract_y
_atom_site_fract_z
C1 C 0.2985(5) 0.60694(13) 0.3750(5)
C2 C 0.1058(5) 0.63528(13) 0.3287(5)
C3 C -0.2157(6) 0.68422(14) 0.2727(5)
H1 H -0.3463 0.6990 0.2264
C4 C -0.0795(6) 0.69782(14) 0.4464(5)
H2 H -0.1058 0.7227 0.5324
C5 C 0.1056(5) 0.66934(13) 0.4783(5)
C6 C 0.3042(5) 0.66530(13) 0.6405(5)
C7 C 0.4166(6) 0.62330(13) 0.5571(5)
C8 C 0.6081(5) 0.59841(14) 0.6148(5)
H3 H 0.7058 0.6049 0.7334
C9 C 0.6367(5) 0.56323(13) 0.4776(5)
C10 C 0.8193(5) 0.53092(13) 0.4869(5)
C11 C 0.8584(6) 0.50597(13) 0.3226(5)
C12 C 1.0314(6) 0.47698(13) 0.3335(5)
C13 C 0.4291(6) 0.71458(13) 0.6627(5)
H4 H 0.4611 0.7229 0.5383
H5 H 0.5564 0.7105 0.7632
H6 H 0.3481 0.7414 0.7004
C14 C 0.2582(6) 0.65017(15) 0.8387(5)
H7 H 0.1798 0.6766 0.8827
H8 H 0.3872 0.6451 0.9361
H9 H 0.1786 0.6194 0.8219
F1 F 0.7283(7) 0.51061(17) 0.1491(6)
S1 S 0.42327(13) 0.56121(3) 0.27397(12)
S2 S -0.12079(13) 0.63699(3) 0.14857(12)
F2 F 1.0575(6) 0.45671(16) 0.1667(6)
C1B C 1.7015(5) 0.39306(13) 0.6250(5)
C2B C 1.8942(5) 0.36472(13) 0.6713(5)
C3B C 2.2157(6) 0.31578(14) 0.7273(5)
H1B H 2.3463 0.3010 0.7736
C4B C 2.0795(6) 0.30218(14) 0.5536(5)
H2B H 2.1058 0.2773 0.4676
C5B C 1.8944(5) 0.33066(13) 0.5217(5)
C6B C 1.6958(5) 0.33470(13) 0.3595(5)
C7B C 1.5834(6) 0.37670(13) 0.4429(5)
C8B C 1.3919(5) 0.40159(14) 0.3852(5)
H3B H 1.2942 0.3951 0.2666
C9B C 1.3633(5) 0.43677(13) 0.5224(5)
C10B C 1.1807(5) 0.46908(13) 0.5131(5)
C11B C 1.1416(6) 0.49403(13) 0.6774(5)
C12B C 0.9686(6) 0.52302(13) 0.6665(5)
C13B C 1.5709(6) 0.28542(13) 0.3373(5)
H4B H 1.5389 0.2771 0.4617
H5B H 1.4436 0.2895 0.2368
H6B H 1.6519 0.2586 0.2996
C14B C 1.7418(6) 0.34983(15) 0.1613(5)
H7B H 1.8202 0.3234 0.1173
H8B H 1.6128 0.3549 0.0639
H9B H 1.8214 0.3806 0.1781
F1B F 1.2717(7) 0.48939(17) 0.8509(6)
S1B S 1.57673(13) 0.43879(3) 0.72603(12)
S2B S 2.12079(13) 0.36301(3) 0.85143(12)
F2B F 0.9425(6) 0.54329(16) 0.8333(6)
H10? H 0.7283(7) 0.51061(17) 0.1491(6)
H11? H 1.0575(6) 0.45671(16) 0.1667(6)
loop_
_geom_bond_atom_site_label_1
_geom_bond_atom_site_label_2
_geom_bond_site_symmetry_1
_geom_bond_site_symmetry_2
C1 C2 1_555 1_555
C2 C5 1_555 1_555
C3 H1 1_555 1_555
C4 C3 1_555 1_555
H2 C4 1_555 1_555
C5 C4 1_555 1_555
C6 C5 1_555 1_555
C7 C1 1_555 1_555
C8 C7 1_555 1_555
H3 C8 1_555 1_555
C9 C8 1_555 1_555
C10 C9 1_555 1_555
C11 C10 1_555 1_555
C12 C11 1_555 1_555
C13 C6 1_555 1_555
H4 C13 1_555 1_555
H5 C13 1_555 1_555
H6 C13 1_555 1_555
C14 C6 1_555 1_555
H7 C14 1_555 1_555
H8 C14 1_555 1_555
H9 C14 1_555 1_555
F1 C11 1_555 1_555
S1 C1 1_555 1_555
S2 C2 1_555 1_555
F2 C12 1_555 1_555
C1B C2B 1_555 1_555
C2B C5B 1_555 1_555
C3B H1B 1_555 1_555
C4B C3B 1_555 1_555
H2B C4B 1_555 1_555
C5B C4B 1_555 1_555
C6B C5B 1_555 1_555
C7B C1B 1_555 1_555
C8B C7B 1_555 1_555
H3B C8B 1_555 1_555
C9B C8B 1_555 1_555
C10B C12 1_555 1_555
C11B C10B 1_555 1_555
C12B C10 1_555 1_555
C13B C6B 1_555 1_555
H4B C13B 1_555 1_555
H5B C13B 1_555 1_555
H6B C13B 1_555 1_555
C14B C6B 1_555 1_555
H7B C14B 1_555 1_555
H8B C14B 1_555 1_555
H9B C14B 1_555 1_555
F1B C11B 1_555 1_555
S1B C1B 1_555 1_555
S2B C2B 1_555 1_555
F2B C12B 1_555 1_555
C3 S2 1_555 1_555
C6 C7 1_555 1_555
C9 S1 1_555 1_555
C3B S2B 1_555 1_555
C6B C7B 1_555 1_555
C9B C10B 1_555 1_555
C9B S1B 1_555 1_555
C11B C12B 1_555 1_555

#END
