
#######################################################################
#
#                 Cambridge Crystallographic Data Centre
#                                CCDC 
#
#######################################################################
#
# If this CIF has been generated from an entry in the Cambridge 
# Structural Database, then it will include bibliographic, chemical, 
# crystal, experimental, refinement or atomic coordinate data resulting 
# from the CCDC's data processing and validation procedures.
#
#######################################################################

data_WERWIA
_chemical_formula_moiety         'C20 H17 N1 O2 S9,0.5(C1 H2 Cl2)'
_chemical_name_systematic        
'(3-(2,6-diacetylpyridin-4-ylthio)propylene-1,2-dithio)(ethylenedithio)tetrathiafulvalene dichloromethane solvate'
_symmetry_cell_setting           triclinic
_symmetry_space_group_name_H-M   'P -1'
_symmetry_Int_Tables_number      2
_space_group_name_Hall           '-P 1'
loop_
_symmetry_equiv_pos_site_id
_symmetry_equiv_pos_as_xyz
1 x,y,z
2 -x,-y,-z
_cell_length_a                   7.8542(1)
_cell_length_b                   11.9820(2)
_cell_length_c                   14.1992(3)
_cell_angle_alpha                90.439(1)
_cell_angle_beta                 92.745(1)
_cell_angle_gamma                101.822(1)
_cell_volume                     1306.22
_exptl_crystal_colour            orange
_exptl_crystal_description       rod
_chemical_melting_point          '453-456 K'
_cell_formula_units_Z            2
_exptl_crystal_recrystallization_method hexane/dichloromethane
loop_
_atom_site_label
_atom_site_type_symbol
_atom_site_fract_x
_atom_site_fract_y
_atom_site_fract_z
S1 S 0.24710(8) 0.47814(5) 0.48052(4)
S2 S 0.21450(8) 0.58888(5) 0.69954(4)
S3 S 0.21343(7) 0.25587(5) 0.57651(4)
S4 S 0.15715(8) 0.34678(5) 0.76335(4)
S5 S 0.04104(8) 0.00285(5) 0.63755(4)
S6 S -0.02668(8) 0.08849(5) 0.82538(4)
S7 S -0.14625(8) -0.23249(5) 0.66498(4)
S8 S -0.22217(8) -0.13158(5) 0.88984(4)
S9 S 0.30781(8) 0.84936(5) 0.47262(4)
O1 O 0.3461(3) 0.56731(15) 0.17547(14)
O2 O 0.6479(3) 1.15317(14) 0.24640(13)
N1 N 0.5126(2) 0.86402(16) 0.17571(13)
C1 C 0.3364(3) 0.62676(19) 0.51819(16)
H1 H 0.4431 0.6538 0.4823
C2 C 0.3914(3) 0.6402(2) 0.62224(16)
H2 H 0.4393 0.7218 0.6369
H3 H 0.4856 0.5980 0.6355
C3 C 0.2131(3) 0.40306(18) 0.58501(16)
C4 C 0.1902(3) 0.44454(18) 0.67072(16)
C5 C 0.1259(3) 0.22699(19) 0.68746(16)
C6 C 0.0518(3) 0.12100(19) 0.71282(15)
C7 C -0.0861(3) -0.09335(19) 0.71125(15)
C8 C -0.1163(3) -0.05608(19) 0.79710(16)
C9 C -0.1640(3) -0.3089(2) 0.77407(17)
H4 H -0.1996 -0.3917 0.7599
H5 H -0.0483 -0.2953 0.8080
C10 C -0.2948(3) -0.2733(2) 0.83752(17)
H6 H -0.3190 -0.3291 0.8887
H7 H -0.4053 -0.2757 0.8002
C11 C 0.2056(3) 0.70135(19) 0.48946(17)
H8 H 0.1198 0.6974 0.5388
H9 H 0.1415 0.6702 0.4301
C12 C 0.4308(3) 0.76442(19) 0.21009(16)
C13 C 0.3634(3) 0.75200(19) 0.29920(16)
H10 H 0.3065 0.6792 0.3198
C14 C 0.3807(3) 0.84816(19) 0.35780(15)
C15 C 0.4653(3) 0.95280(19) 0.32239(16)
H11 H 0.4795 1.0207 0.3595
C16 C 0.5282(3) 0.95609(19) 0.23264(16)
C17 C 0.4164(3) 0.6603(2) 0.14801(17)
C18 C 0.4908(4) 0.6762(2) 0.05263(18)
H12 H 0.4806 0.6017 0.0215
H13 H 0.6139 0.7141 0.0596
H14 H 0.4267 0.7232 0.0144
C19 C 0.6232(3) 1.06858(19) 0.19571(17)
C20 C 0.6855(3) 1.0718(2) 0.09738(17)
H15 H 0.5861 1.0668 0.0520
H16 H 0.7422 1.0074 0.0871
H17 H 0.7690 1.1435 0.0888
Cl1 Cl 0.00617(15) -0.37243(12) 1.00614(7)
C21 C -0.0430(9) -0.5129(9) 1.0548(4)
H18 H 0.0234 -0.5095 1.1161
H19 H -0.1680 -0.5290 1.0685
Cl1A Cl -0.00617(15) -0.62757(12) 0.99386(7)
C21A C 0.0430(9) -0.4871(9) 0.9452(4)
H18A H -0.0234 -0.4905 0.8839
H19A H 0.1680 -0.4710 0.9315
loop_
_geom_bond_atom_site_label_1
_geom_bond_atom_site_label_2
_geom_bond_site_symmetry_1
_geom_bond_site_symmetry_2
Cl1 C21 1_555 1_555
S1 C1 1_555 1_555
S2 C2 1_555 1_555
S3 C3 1_555 1_555
S4 C4 1_555 1_555
S5 C6 1_555 1_555
S6 C6 1_555 1_555
S7 C7 1_555 1_555
S8 C8 1_555 1_555
S9 C11 1_555 1_555
O1 C17 1_555 1_555
O2 C19 1_555 1_555
N1 C12 1_555 1_555
C1 H1 1_555 1_555
C2 C1 1_555 1_555
H2 C2 1_555 1_555
H3 C2 1_555 1_555
C3 S1 1_555 1_555
C4 S2 1_555 1_555
C5 S3 1_555 1_555
C6 C5 1_555 1_555
C7 S5 1_555 1_555
C8 S6 1_555 1_555
C9 S7 1_555 1_555
H4 C9 1_555 1_555
H5 C9 1_555 1_555
C10 S8 1_555 1_555
H6 C10 1_555 1_555
H7 C10 1_555 1_555
C11 C1 1_555 1_555
H8 C11 1_555 1_555
H9 C11 1_555 1_555
C12 C13 1_555 1_555
C13 H10 1_555 1_555
C14 S9 1_555 1_555
C15 C14 1_555 1_555
H11 C15 1_555 1_555
C16 N1 1_555 1_555
C17 C12 1_555 1_555
C18 C17 1_555 1_555
H12 C18 1_555 1_555
H13 C18 1_555 1_555
H14 C18 1_555 1_555
C19 C16 1_555 1_555
C20 C19 1_555 1_555
H15 C20 1_555 1_555
H16 C20 1_555 1_555
H17 C20 1_555 1_555
C21 H18 1_555 1_555
H19 C21 1_555 1_555
Cl1A C21 1_555 1_555
C21A Cl1 1_555 1_555
H18A C21A 1_555 1_555
H19A C21A 1_555 1_555
S4 C5 1_555 1_555
C3 C4 1_555 1_555
C7 C8 1_555 1_555
C9 C10 1_555 1_555
C13 C14 1_555 1_555
C15 C16 1_555 1_555
C21 C21A 1_555 1_555
Cl1A C21A 1_555 1_555

#END
