
#######################################################################
#
#                 Cambridge Crystallographic Data Centre
#                                CCDC 
#
#######################################################################
#
# If this CIF has been generated from an entry in the Cambridge 
# Structural Database, then it will include bibliographic, chemical, 
# crystal, experimental, refinement or atomic coordinate data resulting 
# from the CCDC's data processing and validation procedures.
#
#######################################################################

data_WESCAB
_chemical_formula_moiety         'C23 H21 N3 O4 S1'
_chemical_name_systematic        
(3-amino-5-phenyl-4-(phenylsulfonyl)-4,5-dihydro-1H-pyrazol-1-yl)(2-(hydroxymethyl)phenyl)methanone
_symmetry_cell_setting           monoclinic
_symmetry_space_group_name_H-M   'P 21/c'
_symmetry_Int_Tables_number      14
_space_group_name_Hall           '-P 2ybc'
loop_
_symmetry_equiv_pos_site_id
_symmetry_equiv_pos_as_xyz
1 x,y,z
2 -x,1/2+y,1/2-z
3 -x,-y,-z
4 x,1/2-y,1/2+z
_cell_length_a                   10.1732(4)
_cell_length_b                   9.2106(4)
_cell_length_c                   23.3131(9)
_cell_angle_alpha                90
_cell_angle_beta                 98.451(4)
_cell_angle_gamma                90
_cell_volume                     2160.75
_cell_formula_units_Z            4
loop_
_atom_site_label
_atom_site_type_symbol
_atom_site_fract_x
_atom_site_fract_y
_atom_site_fract_z
C1 C -0.16108(16) 0.8510(2) 0.43673(7)
H1 H -0.1889 0.9081 0.4683
C2 C 0.05200(18) 0.6860(2) 0.40090(8)
C3 C -0.19194(17) 0.9349(2) 0.38058(8)
C4 C -0.25234(16) 0.7175(2) 0.42495(7)
H2 H -0.2028 0.6287 0.4371
C5 C -0.37497(17) 0.7279(2) 0.45467(8)
C6 C -0.32544(18) 0.62604(19) 0.26344(7)
C7 C -0.44153(19) 0.6622(2) 0.22731(8)
C8 C -0.31960(17) 0.6090(2) 0.32773(8)
C9 C -0.2103(2) 0.5964(2) 0.24043(9)
H3 H -0.1326 0.5729 0.2650
C10 C 0.0475(2) 0.5378(2) 0.41010(10)
H4 H 0.0190 0.5011 0.4433
C11 C -0.4829(2) 0.8120(3) 0.43236(11)
H5 H -0.4824 0.8620 0.3977
C12 C 0.0932(2) 0.7414(3) 0.35133(9)
H6 H 0.0947 0.8411 0.3451
C13 C -0.4395(2) 0.6643(3) 0.16810(9)
H7 H -0.5169 0.6864 0.1432
C14 C -0.2103(2) 0.6017(2) 0.18112(10)
H8 H -0.1326 0.5831 0.1657
C15 C -0.5650(2) 0.7006(4) 0.25321(10)
H9 H -0.5891 0.6180 0.2753
H10 H -0.5440 0.7806 0.2801
C16 C -0.3783(2) 0.6531(3) 0.50552(9)
H11 H -0.3064 0.5958 0.5210
C17 C -0.3249(3) 0.6343(3) 0.14537(9)
H12 H -0.3258 0.6364 0.1054
C18 C 0.1322(2) 0.6457(3) 0.31118(11)
H13 H 0.1605 0.6812 0.2777
C19 C 0.1292(2) 0.4993(3) 0.32051(12)
H14 H 0.1568 0.4358 0.2936
C20 C -0.5948(3) 0.7474(4) 0.51183(12)
H15 H -0.6686 0.7542 0.5310
C21 C -0.4896(3) 0.6633(3) 0.53383(10)
H16 H -0.4919 0.6121 0.5681
C22 C -0.5915(2) 0.8221(3) 0.46131(13)
H17 H -0.6632 0.8803 0.4464
C23 C 0.0860(3) 0.4458(3) 0.36905(12)
H18 H 0.0825 0.3459 0.3745
N1 N -0.25619(15) 0.86127(16) 0.33843(6)
N2 N -0.28230(14) 0.72348(16) 0.36121(6)
N3 N -0.15439(19) 1.07448(19) 0.37533(8)
H19 H -0.2136 1.1219 0.3520
H20 H -0.1458 1.1160 0.4091
O1 O -0.34282(15) 0.49076(16) 0.34984(6)
O2 O 0.08600(13) 0.93927(15) 0.45078(6)
O3 O -0.67552(13) 0.73968(17) 0.21256(6)
H21 H -0.6612 0.8179 0.1979
O4 O 0.02736(14) 0.73126(17) 0.50910(6)
S1 S 0.01285(4) 0.80686(5) 0.454635(19)
loop_
_geom_bond_atom_site_label_1
_geom_bond_atom_site_label_2
_geom_bond_site_symmetry_1
_geom_bond_site_symmetry_2
C1 H1 1_555 1_555
C2 C10 1_555 1_555
C3 C1 1_555 1_555
C4 C1 1_555 1_555
H2 C4 1_555 1_555
C5 C4 1_555 1_555
C6 C7 1_555 1_555
C7 C13 1_555 1_555
C8 C6 1_555 1_555
C9 C6 1_555 1_555
H3 C9 1_555 1_555
C10 H4 1_555 1_555
C11 C5 1_555 1_555
H5 C11 1_555 1_555
C12 C2 1_555 1_555
H6 C12 1_555 1_555
C13 H7 1_555 1_555
C14 C9 1_555 1_555
H8 C14 1_555 1_555
C15 C7 1_555 1_555
H9 C15 1_555 1_555
H10 C15 1_555 1_555
C16 C5 1_555 1_555
H11 C16 1_555 1_555
C17 C13 1_555 1_555
H12 C17 1_555 1_555
C18 C12 1_555 1_555
H13 C18 1_555 1_555
C19 C18 1_555 1_555
H14 C19 1_555 1_555
C20 H15 1_555 1_555
C21 C16 1_555 1_555
H16 C21 1_555 1_555
C22 C11 1_555 1_555
H17 C22 1_555 1_555
C23 C10 1_555 1_555
H18 C23 1_555 1_555
N1 C3 1_555 1_555
N2 C4 1_555 1_555
N3 C3 1_555 1_555
H19 N3 1_555 1_555
H20 N3 1_555 1_555
O1 C8 1_555 1_555
O2 S1 1_555 1_555
O3 C15 1_555 1_555
H21 O3 1_555 1_555
O4 S1 1_555 1_555
S1 C1 1_555 1_555
C2 S1 1_555 1_555
C8 N2 1_555 1_555
C14 C17 1_555 1_555
C19 C23 1_555 1_555
C20 C21 1_555 1_555
C20 C22 1_555 1_555
N1 N2 1_555 1_555

#END
